drugbank_target|Q13085 Acetyl-CoA carboxylase 1 (DB00121)
 OpenBabel12092119353D

  0  0  0     0  0            999 V3000
M  V30 BEGIN CTAB
M  V30 COUNTS 37234 37639 0 0 0
M  V30 BEGIN ATOM
M  V30 1 H -0.908 1.98254 -0.117106 0
M  V30 2 N 0 1.576 0 0
M  V30 3 C 0.933 2.03868 1.02534 0
M  V30 4 C 1.911 0.928543 1.3348 0
M  V30 5 O 3.095 1.19667 1.45644 0
M  V30 6 C 0.222 2.43627 2.35294 0
M  V30 7 C -0.732 3.65373 2.2001 0
M  V30 8 S 0.101 5.13292 1.52614 0
M  V30 9 C 1.257 5.56322 2.86805 0
M  V30 10 H 1.49 2.90518 0.631377 0
M  V30 11 H -0.977 1.52953 0.210867 0
M  V30 12 H 0.981 2.67203 3.11629 0
M  V30 13 H -0.358 1.57376 2.7183 0
M  V30 14 H -1.165 3.90944 3.18086 0
M  V30 15 H -1.563 3.418 1.51819 0
M  V30 16 H 0.729 5.58782 3.83104 0
M  V30 17 H 1.672 6.56266 2.65933 0
M  V30 18 H 2.08 4.83886 2.90714 0
M  V30 19 N 1.4781 -0.272755 1.55222 0
M  V30 20 C 2.7551 -1.02562 1.66555 0
M  V30 21 C 3.1351 -2.04282 0.532189 0
M  V30 22 O 2.4831 -2.23662 -0.467717 0
M  V30 23 C 2.6931 -1.6822 3.05782 0
M  V30 24 C 4.0411 -2.19373 3.63539 0
M  V30 25 O 5.0651 -1.78206 3.08417 0
M  V30 26 O 3.9241 -2.94883 4.60115 0
M  V30 27 H 1.0181 -0.475755 0.676451 0
M  V30 28 H 3.5641 -0.268593 1.67561 0
M  V30 29 H 2.3361 -0.945112 3.79715 0
M  V30 30 H 1.9591 -2.50609 3.08676 0
M  V30 31 N 2.9562 -1.48159 -0.537278 0
M  V30 32 C 3.8662 -1.64807 -1.6696 0
M  V30 33 C 4.8822 -0.530651 -1.65711 0
M  V30 34 O 6.0582 -0.800784 -1.84796 0
M  V30 35 C 3.1232 -1.67708 -3.03438 0
M  V30 36 C 2.1842 -2.91025 -3.156 0
M  V30 37 C 1.4172 -2.93778 -4.45567 0
M  V30 38 O 1.6402 -2.05153 -5.3223 0
M  V30 39 O 0.5742 -3.85868 -4.61941 0
M  V30 40 H 4.4002 -2.6066 -1.55853 0
M  V30 41 H 1.9852 -1.31475 -0.709549 0
M  V30 42 H 3.8672 -1.7218 -3.84619 0
M  V30 43 H 2.5422 -0.750278 -3.14885 0
M  V30 44 H 1.4492 -2.92089 -2.33741 0
M  V30 45 H 2.7822 -3.83065 -3.09066 0
M  V30 46 N 4.4343 0.785586 -1.36625 0
M  V30 47 C 5.8453 1.36101 -1.27803 0
M  V30 48 C 6.1963 1.96035 0.0804875 0
M  V30 49 O 5.3213 1.92834 0.982042 0
M  V30 50 C 5.9163 2.47442 -2.31426 0
M  V30 51 C 4.4753 3.00789 -2.26281 0
M  V30 52 C 3.6223 1.73896 -2.15999 0
M  V30 53 H 6.5733 0.586928 -1.47448 0
M  V30 54 H 6.5943 3.2656 -1.95291 0
M  V30 55 H 6.1063 2.03791 -3.30289 0
M  V30 56 H 4.2073 3.48851 -1.30896 0
M  V30 57 H 4.3203 3.57343 -3.19128 0
M  V30 58 H 2.6843 1.9628 -1.62316 0
M  V30 59 H 3.4673 1.32368 -3.16755 0
M  V30 60 N 5.9124 1.20967 1.01018 0
M  V30 61 C 7.1374 1.0503 1.78839 0
M  V30 62 C 7.5624 -0.395752 1.8389 0
M  V30 63 O 6.9204 -1.28529 1.27867 0
M  V30 64 C 6.9684 1.64602 3.2084 0
M  V30 65 O 6.0724 0.887988 4.02726 0
M  V30 66 H 5.4134 0.369987 0.551367 0
M  V30 67 H 7.9434 1.60399 1.27018 0
M  V30 68 H 7.9534 1.68607 3.71532 0
M  V30 69 H 6.6284 2.69841 3.16479 0
M  V30 70 H 5.2054 0.922648 3.61305 0
M  V30 71 N 7.3905 -1.2043 1.01659 0
M  V30 72 C 8.8015 -1.71517 0.737482 0
M  V30 73 C 9.1525 -1.81547 -0.743973 0
M  V30 74 O 8.2775 -1.47803 -1.58061 0
M  V30 75 C 8.8725 -3.11515 1.33206 0
M  V30 76 C 7.4315 -3.59912 1.10183 0
M  V30 77 C 6.5785 -2.37116 1.43776 0
M  V30 78 H 9.5295 -1.05444 1.18606 0
M  V30 79 H 9.5505 -3.73575 0.722636 0
M  V30 80 H 9.0625 -3.04182 2.41028 0
M  V30 81 H 7.1635 -3.72577 0.0412756 0
M  V30 82 H 7.2765 -4.44731 1.78188 0
M  V30 83 H 5.6405 -2.39857 0.856778 0
M  V30 84 H 6.4235 -2.32424 2.52654 0
M  V30 85 N 8.8686 -0.792821 -1.36206 0
M  V30 86 C 9.7986 -0.207853 -2.32573 0
M  V30 87 C 10.7796 0.659055 -1.56813 0
M  V30 88 O 11.9646 0.592176 -1.84951 0
M  V30 89 C 9.0946 0.655449 -3.41059 0
M  V30 90 C 8.0486 -0.111842 -4.27854 0
M  V30 91 C 7.3746 0.872274 -5.27537 0
M  V30 92 C 8.6746 -1.30299 -5.05786 0
M  V30 93 H 10.3686 -1.01294 -2.81744 0
M  V30 94 H 7.9146 -0.48854 -1.3546 0
M  V30 95 H 9.8676 1.07464 -4.07467 0
M  V30 96 H 8.5916 1.49328 -2.90463 0
M  V30 97 H 7.2506 -0.512053 -3.63006 0
M  V30 98 H 6.8986 1.70523 -4.73214 0
M  V30 99 H 6.5986 0.363291 -5.86476 0
M  V30 100 H 8.1226 1.28996 -5.96818 0
M  V30 101 H 9.5366 -0.959379 -5.65216 0
M  V30 102 H 7.9336 -1.7455 -5.74154 0
M  V30 103 H 9.0036 -2.09663 -4.37229 0
M  V30 104 N 10.3467 1.47872 -0.545128 0
M  V30 105 C 11.3097 2.28337 0.198717 0
M  V30 106 C 12.3097 1.36255 0.853888 0
M  V30 107 O 13.4997 1.59003 0.711606 0
M  V30 108 C 10.6317 3.15585 1.28915 0
M  V30 109 H 11.8247 2.95567 -0.507941 0
M  V30 110 H 9.3777 1.53362 -0.301616 0
M  V30 111 H 10.1127 2.53019 2.02859 0
M  V30 112 H 9.8977 3.83337 0.824309 0
M  V30 113 H 11.3877 3.76243 1.81194 0
M  V30 114 N 11.8248 0.280983 1.55075 0
M  V30 115 C 12.7568 -0.637268 2.20163 0
M  V30 116 C 13.7698 -1.11298 1.18813 0
M  V30 117 O 14.9588 -1.03388 1.4551 0
M  V30 118 C 12.0588 -1.88199 2.81841 0
M  V30 119 C 11.2318 -1.55211 4.08936 0
M  V30 120 C 10.2908 -2.64991 4.54606 0
M  V30 121 O 9.3168 -2.30929 5.2025 0
M  V30 122 N 10.5188 -3.95161 4.25238 0
M  V30 123 H 13.2838 -0.0801694 2.99593 0
M  V30 124 H 10.8448 0.102329 1.61576 0
M  V30 125 H 12.8368 -2.60948 3.09335 0
M  V30 126 H 11.4068 -2.34799 2.06369 0
M  V30 127 H 10.6268 -0.658185 3.88666 0
M  V30 128 H 11.9148 -1.30681 4.91732 0
M  V30 129 H 11.3128 -4.25653 3.72607 0
M  V30 130 H 9.8698 -4.6427 4.5749 0
M  V30 131 N 13.3029 -1.57598 0.00835791 0
M  V30 132 C 14.7139 -1.7892 -0.53333 0
M  V30 133 C 15.0649 -0.916609 -1.73473 0
M  V30 134 O 14.1899 -0.121336 -2.1606 0
M  V30 135 C 14.7849 -3.24488 -0.974313 0
M  V30 136 C 13.3439 -3.46878 -1.46125 0
M  V30 137 C 12.4909 -2.74157 -0.416302 0
M  V30 138 H 15.4419 -1.56958 0.234495 0
M  V30 139 H 15.4629 -3.3306 -1.83988 0
M  V30 140 H 14.9749 -3.87972 -0.099718 0
M  V30 141 H 13.0759 -2.8862 -2.35646 0
M  V30 142 H 13.1889 -4.55572 -1.48295 0
M  V30 143 H 11.5529 -2.39022 -0.87981 0
M  V30 144 H 12.3359 -3.40345 0.44947 0
M  V30 145 N 14.781 0.264519 -1.55364 0
M  V30 146 C 15.711 1.33121 -1.91836 0
M  V30 147 C 16.692 1.51101 -0.781192 0
M  V30 148 O 17.877 1.64003 -1.04003 0
M  V30 149 C 15.007 2.68921 -2.19769 0
M  V30 150 C 13.961 2.65661 -3.35571 0
M  V30 151 C 13.287 4.05093 -3.49004 0
M  V30 152 C 14.587 2.24187 -4.71739 0
M  V30 153 H 16.281 1.02844 -2.81182 0
M  V30 154 H 13.827 0.493286 -1.35287 0
M  V30 155 H 15.78 3.43663 -2.43872 0
M  V30 156 H 14.504 3.00799 -1.27231 0
M  V30 157 H 13.163 1.93377 -3.1145 0
M  V30 158 H 12.811 4.34206 -2.53917 0
M  V30 159 H 12.511 4.03804 -4.26868 0
M  V30 160 H 14.035 4.81561 -3.75408 0
M  V30 161 H 15.449 2.88654 -4.9533 0
M  V30 162 H 13.846 2.34044 -5.52579 0
M  V30 163 H 14.916 1.19327 -4.69988 0
M  V30 164 N 16.2591 1.48442 0.529413 0
M  V30 165 C 17.1691 1.6569 1.66084 0
M  V30 166 C 18.1851 0.539432 1.65427 0
M  V30 167 O 19.3611 0.810572 1.84368 0
M  V30 168 C 16.4261 1.69315 3.02545 0
M  V30 169 C 15.4871 2.92694 3.14052 0
M  V30 170 C 14.7201 2.96137 4.44003 0
M  V30 171 O 14.9431 2.07973 5.31134 0
M  V30 172 O 13.8771 3.88312 4.59888 0
M  V30 173 H 17.7031 2.61483 1.54469 0
M  V30 174 H 15.2881 1.3185 0.702567 0
M  V30 175 H 17.1701 1.74217 3.83701 0
M  V30 176 H 15.8451 0.766966 3.14483 0
M  V30 177 H 14.7521 2.93324 2.32189 0
M  V30 178 H 16.0851 3.84699 3.0703 0
M  V30 179 N 17.7372 -0.778329 1.37039 0
M  V30 180 C 18.6672 -1.90546 1.34962 0
M  V30 181 C 19.6482 -1.68681 0.219274 0
M  V30 182 O 20.8332 -1.89634 0.418624 0
M  V30 183 C 17.9632 -3.27734 1.14925 0
M  V30 184 C 16.9172 -3.64147 2.24902 0
M  V30 185 C 16.2432 -4.99806 1.89996 0
M  V30 186 C 17.5432 -3.71579 3.67051 0
M  V30 187 H 19.2372 -1.92541 2.29277 0
M  V30 188 H 16.7832 -0.924948 1.10366 0
M  V30 189 H 18.7362 -4.06215 1.12104 0
M  V30 190 H 17.4602 -3.26154 0.170631 0
M  V30 191 H 16.1192 -2.8797 2.26868 0
M  V30 192 H 15.7672 -4.94759 0.906796 0
M  V30 193 H 15.4672 -5.25139 2.63634 0
M  V30 194 H 16.9912 -5.80694 1.88749 0
M  V30 195 H 18.4052 -4.40227 3.67251 0
M  V30 196 H 16.8022 -4.08405 4.39688 0
M  V30 197 H 17.8722 -2.72404 4.01154 0
M  V30 198 N 19.2153 -1.21501 -1.00376 0
M  V30 199 C 20.1633 -0.972442 -2.11297 0
M  V30 200 C 21.1573 0.080731 -1.69208 0
M  V30 201 O 22.3633 -0.0707666 -1.79861 0
M  V30 202 H 18.7383 -0.297218 -0.690772 0
M  V30 203 H 20.7093 -1.91394 -2.28934 0
M  V30 204 C 19.4583 -0.555065 -3.43241 0
M  V30 205 H 18.7813 -1.35709 -3.76062 0
M  V30 206 H 20.2213 -0.424664 -4.21868 0
M  V30 207 C 18.6803 0.734147 -3.28804 0
M  V30 208 O 19.2103 1.78937 -3.59645 0
M  V30 209 N 17.4163 0.701133 -2.82015 0
M  V30 210 H 16.9633 -0.157874 -2.57116 0
M  V30 211 H 16.9213 1.56403 -2.72737 0
M  V30 212 N 20.6934 1.19889 -1.02296 0
M  V30 213 C 21.6254 2.22334 -0.556787 0
M  V30 214 C 22.6384 1.58674 0.364199 0
M  V30 215 O 23.8274 1.77768 0.161533 0
M  V30 216 C 20.9274 3.38257 0.208694 0
M  V30 217 C 20.1004 4.31504 -0.71577 0
M  V30 218 C 19.1594 5.262 0.00325597 0
M  V30 219 O 18.1854 5.65798 -0.621357 0
M  V30 220 N 19.3874 5.66303 1.27599 0
M  V30 221 H 22.1524 2.62957 -1.43784 0
M  V30 222 H 19.7134 1.34495 -0.901261 0
M  V30 223 H 21.7054 3.98616 0.699111 0
M  V30 224 H 20.2754 2.96472 0.991102 0
M  V30 225 H 19.4954 3.69016 -1.38638 0
M  V30 226 H 20.7834 4.9072 -1.34428 0
M  V30 227 H 20.1814 5.36155 1.80429 0
M  V30 228 H 18.7384 6.28942 1.71102 0
M  V30 229 N 22.1715 0.800033 1.35784 0
M  V30 230 C 23.1215 0.178654 2.27299 0
M  V30 231 C 24.1055 -0.643667 1.47464 0
M  V30 232 O 25.2975 -0.502 1.69732 0
M  V30 233 C 22.4265 -0.677194 3.36555 0
M  V30 234 C 21.5125 0.154497 4.23818 0
M  V30 235 N 21.9035 1.21427 4.91008 0
M  V30 236 C 20.2015 -0.0649462 4.45953 0
M  V30 237 C 20.9025 1.72147 5.55644 0
M  V30 238 N 19.8785 1.02897 5.33773 0
M  V30 239 H 23.6805 0.989637 2.76737 0
M  V30 240 H 21.1945 0.64054 1.49234 0
M  V30 241 H 23.1915 -1.13835 4.01058 0
M  V30 242 H 21.8515 -1.4866 2.8867 0
M  V30 243 H 22.8625 1.59684 4.92668 0
M  V30 244 H 19.5395 -0.844016 4.0888 0
M  V30 245 H 20.9295 2.60683 6.19269 0
M  V30 246 N 23.6496 -1.47581 0.552962 0
M  V30 247 C 24.8746 -2.07378 0.0300593 0
M  V30 248 C 25.2996 -1.40355 -1.25229 0
M  V30 249 O 24.6576 -0.477099 -1.7491 0
M  V30 250 C 24.7056 -3.60274 -0.153231 0
M  V30 251 O 23.8096 -3.94041 -1.21678 0
M  V30 252 H 23.1506 -0.662158 0.0494182 0
M  V30 253 H 25.6806 -1.89662 0.767434 0
M  V30 254 H 25.6906 -4.0633 -0.368761 0
M  V30 255 H 24.3656 -4.08455 0.783397 0
M  V30 256 H 22.9426 -3.59735 -0.982079 0
M  V30 257 N 25.1277 -0.289203 -1.54924 0
M  V30 258 C 26.5437 0.0645403 -1.59469 0
M  V30 259 C 26.7437 1.53419 -1.30632 0
M  V30 260 O 25.7997 2.2852 -1.074 0
M  V30 261 C 27.1127 -0.32278 -2.98963 0
M  V30 262 C 28.6607 -0.270564 -3.11828 0
M  V30 263 C 29.1357 -0.632532 -4.53611 0
M  V30 264 N 30.6267 -0.584617 -4.59496 0
M  V30 265 C 31.3617 -0.837314 -5.67254 0
M  V30 266 N 30.8577 -1.15536 -6.83098 0
M  V30 267 N 32.6507 -0.765166 -5.56868 0
M  V30 268 H 24.8017 -1.24714 -1.71931 0
M  V30 269 H 27.0647 -0.504809 -0.802416 0
M  V30 270 H 26.7707 -1.34541 -3.24948 0
M  V30 271 H 26.6447 0.32944 -3.75759 0
M  V30 272 H 29.0317 0.742805 -2.85598 0
M  V30 273 H 29.1127 -0.957242 -2.37214 0
M  V30 274 H 28.7567 -1.64365 -4.80569 0
M  V30 275 H 28.6867 0.07609 -5.26545 0
M  V30 276 H 31.1777 -0.349248 -3.76283 0
M  V30 277 H 31.4907 -1.33447 -7.61191 0
M  V30 278 H 29.8357 -1.19328 -6.84679 0
M  V30 279 H 33.0267 -0.516432 -4.65243 0
M  V30 280 H 33.1997 -0.965477 -6.40767 0
M  V30 281 N 26.6058 1.57591 -0.0167156 0
M  V30 282 C 27.8528 1.91283 0.664597 0
M  V30 283 C 28.1808 0.891949 1.72842 0
M  V30 284 O 27.4358 -0.100931 1.9544 0
M  V30 285 C 27.7348 3.3172 1.33029 0
M  V30 286 C 27.4008 4.4914 0.398047 0
M  V30 287 C 26.0628 4.80992 0.141421 0
M  V30 288 C 28.4148 5.20634 -0.242825 0
M  V30 289 C 25.7428 5.81703 -0.764092 0
M  V30 290 C 28.0948 6.22311 -1.13632 0
M  V30 291 C 26.7588 6.52611 -1.40196 0
M  V30 292 H 26.0288 0.699956 0.243193 0
M  V30 293 H 28.6758 1.9135 -0.0758267 0
M  V30 294 H 26.9808 3.27856 2.14517 0
M  V30 295 H 28.6778 3.55055 1.86379 0
M  V30 296 H 25.2678 4.24262 0.608238 0
M  V30 297 H 29.4518 4.96267 -0.0576019 0
M  V30 298 H 24.7078 6.03532 -0.977732 0
M  V30 299 H 28.8818 6.76834 -1.63917 0
M  V30 300 H 26.5088 7.30467 -2.10529 0
M  V30 301 N 28.0839 -0.256276 1.55502 0
M  V30 302 C 29.3329 -0.983486 1.76098 0
M  V30 303 C 29.6459 -1.86837 0.578896 0
M  V30 304 O 30.8519 -2.63163 0.667648 0
M  V30 305 C 29.3079 -1.79868 3.1173 0
M  V30 306 C 28.9159 -0.961648 4.37557 0
M  V30 307 C 30.6599 -2.51919 3.41668 0
M  V30 308 C 28.5669 -1.77219 5.64223 0
M  V30 309 H 27.4969 -0.370936 0.656447 0
M  V30 310 H 30.1479 -0.238492 1.81944 0
M  V30 311 H 28.5299 -2.58527 2.99966 0
M  V30 312 H 29.7039 -0.218048 4.60284 0
M  V30 313 H 28.0189 -0.354913 4.14885 0
M  V30 314 H 30.6159 -3.12998 4.33516 0
M  V30 315 H 30.9589 -3.23059 2.62562 0
M  V30 316 H 31.4919 -1.80278 3.54605 0
M  V30 317 H 28.2309 -1.10471 6.46124 0
M  V30 318 H 27.7509 -2.49132 5.45613 0
M  V30 319 H 29.4299 -2.34169 6.03137 0
M  V30 320 N 29.562 -1.4872 -0.521534 0
M  V30 321 C 30.811 -1.56419 -1.27341 0
M  V30 322 C 31.124 -0.246805 -1.94037 0
M  V30 323 O 32.33 -0.202122 -2.70747 0
M  V30 324 C 30.786 -2.75896 -2.31105 0
M  V30 325 C 30.394 -4.14311 -1.70441 0
M  V30 326 C 32.138 -2.92913 -3.07249 0
M  V30 327 C 30.045 -5.25038 -2.72194 0
M  V30 328 H 28.975 -0.582344 -0.478949 0
M  V30 329 H 31.626 -1.75071 -0.549779 0
M  V30 330 H 30.008 -2.50697 -3.06541 0
M  V30 331 H 31.182 -4.49564 -1.01136 0
M  V30 332 H 29.497 -4.02482 -1.06759 0
M  V30 333 H 32.094 -3.72805 -3.83302 0
M  V30 334 H 32.437 -2.02689 -3.63625 0
M  V30 335 H 32.97 -3.18054 -2.38928 0
M  V30 336 H 29.709 -6.17255 -2.20627 0
M  V30 337 H 29.229 -4.94263 -3.39801 0
M  V30 338 H 30.908 -5.53508 -3.35019 0
M  V30 339 N 31.0401 0.771051 -1.3745 0
M  V30 340 C 32.2881 1.52661 -1.32435 0
M  V30 341 C 32.6091 1.9479 0.0905024 0
M  V30 342 O 31.8791 1.66348 1.03466 0
M  V30 343 H 30.4591 0.566218 -0.487244 0
M  V30 344 H 33.1211 0.917636 -1.71946 0
M  V30 345 H 32.2171 2.42568 -1.96385 0
M  V30 346 N 32.5182 1.22032 0.997298 0
M  V30 347 C 33.7432 1.06921 1.77715 0
M  V30 348 C 34.1682 -0.376226 1.84299 0
M  V30 349 O 33.5262 -1.27165 1.29223 0
M  V30 350 C 33.5742 1.67996 3.19076 0
M  V30 351 O 32.6782 0.930653 4.01762 0
M  V30 352 H 32.0192 0.375814 0.547412 0
M  V30 353 H 34.5492 1.61737 1.25309 0
M  V30 354 H 34.5592 1.72538 3.69723 0
M  V30 355 H 33.2342 2.73182 3.13599 0
M  V30 356 H 31.8112 0.960917 3.60307 0
M  V30 357 N 33.9963 -1.19345 1.0293 0
M  V30 358 C 35.2423 -1.89318 0.727083 0
M  V30 359 C 35.5753 -1.79446 -0.742483 0
M  V30 360 O 34.8503 -1.1871 -1.54072 0
M  V30 361 C 35.1333 -3.40238 1.17942 0
M  V30 362 C 34.9863 -3.58979 2.71024 0
M  V30 363 C 36.3053 -4.33479 0.760548 0
M  V30 364 H 33.4243 -0.687475 0.265606 0
M  V30 365 H 36.0663 -1.40477 1.2793 0
M  V30 366 H 34.2163 -3.81964 0.709608 0
M  V30 367 H 35.8883 -3.26421 3.25955 0
M  V30 368 H 34.1313 -3.02018 3.11396 0
M  V30 369 H 34.8023 -4.64823 2.9773 0
M  V30 370 H 37.2783 -3.99469 1.16464 0
M  V30 371 H 36.1543 -5.37664 1.10493 0
M  V30 372 H 36.4153 -4.40813 -0.337063 0
M  V30 373 N 35.4744 -0.807222 -1.35358 0
M  V30 374 C 36.6994 -0.399309 -2.0352 0
M  V30 375 C 37.1244 0.981986 -1.60433 0
M  V30 376 O 36.4824 1.63601 -0.781299 0
M  V30 377 C 36.5304 -0.491552 -3.57234 0
M  V30 378 O 35.6344 0.494754 -4.09421 0
M  V30 379 H 34.9754 -0.166682 -0.642739 0
M  V30 380 H 37.5054 -1.09328 -1.72941 0
M  V30 381 H 37.5154 -0.361588 -4.06395 0
M  V30 382 H 36.1904 -1.49907 -3.87944 0
M  V30 383 H 34.7674 0.324977 -3.71481 0
M  V30 384 N 36.9525 1.47285 -0.560781 0
M  V30 385 C 37.8625 2.33846 0.187954 0
M  V30 386 C 38.8785 1.48412 0.908293 0
M  V30 387 O 40.0545 1.81332 0.876388 0
M  V30 388 C 37.1195 3.25178 1.2025 0
M  V30 389 C 36.1805 4.26504 0.489208 0
M  V30 390 C 35.4135 5.13472 1.45542 0
M  V30 391 O 35.6365 5.02959 2.6905 0
M  V30 392 O 34.5705 5.93902 0.977963 0
M  V30 393 H 38.3965 2.99177 -0.522177 0
M  V30 394 H 35.9815 1.45903 -0.321364 0
M  V30 395 H 37.8635 3.81584 1.78805 0
M  V30 396 H 36.5385 2.6247 1.89449 0
M  V30 397 H 35.4455 3.73847 -0.137627 0
M  V30 398 H 36.7785 4.91935 -0.161399 0
M  V30 399 N 38.4306 0.297415 1.54768 0
M  V30 400 C 39.7076 -0.365847 1.92148 0
M  V30 401 C 40.0876 -1.71975 1.22424 0
M  V30 402 O 39.4356 -2.25666 0.358739 0
M  V30 403 C 39.6456 -0.484056 3.45627 0
M  V30 404 C 40.9936 -0.756594 4.17805 0
M  V30 405 O 42.0176 -0.568007 3.51642 0
M  V30 406 O 40.8766 -1.11863 5.34929 0
M  V30 407 H 37.9706 -0.203919 0.801465 0
M  V30 408 H 40.5166 0.34521 1.66152 0
M  V30 409 H 39.2886 0.467865 3.88493 0
M  V30 410 H 38.9116 -1.24372 3.77647 0
M  V30 411 N 39.9087 -1.5758 0.0250728 0
M  V30 412 C 40.8567 -2.11125 -0.97617 0
M  V30 413 C 41.8507 -1.03689 -1.33959 0
M  V30 414 O 43.0567 -1.22128 -1.3223 0
M  V30 415 H 39.4317 -0.674468 -0.332561 0
M  V30 416 H 41.4027 -2.94194 -0.499223 0
M  V30 417 C 40.1517 -2.65017 -2.2508 0
M  V30 418 H 39.4747 -3.47333 -1.9799 0
M  V30 419 H 40.9147 -3.06133 -2.93357 0
M  V30 420 C 39.3737 -1.57574 -2.97779 0
M  V30 421 O 39.9037 -0.973203 -3.89733 0
M  V30 422 N 38.1097 -1.29716 -2.60043 0
M  V30 423 H 37.6567 -1.789 -1.85345 0
M  V30 424 H 37.6147 -0.58051 -3.08994 0
M  V30 425 N 41.3868 0.248026 -1.55636 0
M  V30 426 C 42.6118 0.998028 -1.81808 0
M  V30 427 C 43.0368 1.78207 -0.601979 0
M  V30 428 O 42.3948 1.75653 0.448961 0
M  V30 429 C 42.4428 1.9125 -3.05705 0
M  V30 430 O 41.5468 3.00406 -2.82542 0
M  V30 431 H 40.8878 0.284045 -0.600179 0
M  V30 432 H 43.4178 0.269357 -2.02819 0
M  V30 433 H 43.4278 2.32737 -3.35108 0
M  V30 434 H 42.1028 1.33602 -3.93857 0
M  V30 435 H 40.6798 2.63056 -2.64303 0
M  V30 436 N 42.8649 1.48995 0.513639 0
M  V30 437 C 43.7749 1.67443 1.64317 0
M  V30 438 C 44.7909 0.556947 1.64846 0
M  V30 439 O 45.9669 0.830082 1.83498 0
M  V30 440 C 43.0319 1.72515 3.00732 0
M  V30 441 C 42.0929 2.96009 3.1093 0
M  V30 442 C 41.3259 3.00829 4.40837 0
M  V30 443 O 41.5489 2.13594 5.28898 0
M  V30 444 O 40.4829 3.93168 4.55744 0
M  V30 445 H 44.3089 2.63106 1.51687 0
M  V30 446 H 41.8939 1.32588 0.688543 0
M  V30 447 H 43.7759 1.78277 3.81831 0
M  V30 448 H 42.4509 0.800278 3.13651 0
M  V30 449 H 41.3579 2.9577 2.29065 0
M  V30 450 H 42.6909 3.87934 3.02933 0
M  V30 451 N 44.343 -0.763751 1.37857 0
M  V30 452 C 45.62 -1.51244 1.24035 0
M  V30 453 C 46 -2.10472 -0.162649 0
M  V30 454 O 45.348 -1.96206 -1.17112 0
M  V30 455 C 45.558 -2.58694 2.34261 0
M  V30 456 C 46.906 -3.25878 2.72193 0
M  V30 457 O 47.93 -2.68993 2.33497 0
M  V30 458 O 46.789 -4.2874 3.38887 0
M  V30 459 H 43.883 -0.670243 0.484462 0
M  V30 460 H 46.429 -0.800031 1.49658 0
M  V30 461 H 45.201 -2.13105 3.2818 0
M  V30 462 H 44.824 -3.37527 2.10146 0
M  V30 463 N 45.8211 -1.22559 -0.990812 0
M  V30 464 C 46.7311 -1.01394 -2.11557 0
M  V30 465 C 47.7471 0.0383962 -1.73958 0
M  V30 466 O 48.9231 -0.154787 -2.00804 0
M  V30 467 C 45.9881 -0.596569 -3.41529 0
M  V30 468 C 45.0491 -1.72276 -3.93217 0
M  V30 469 C 44.2821 -1.32521 -5.16985 0
M  V30 470 O 44.5051 -0.204909 -5.70032 0
M  V30 471 O 43.4391 -2.14247 -5.62478 0
M  V30 472 H 47.2651 -1.95633 -2.32296 0
M  V30 473 H 44.8501 -1.01172 -1.0993 0
M  V30 474 H 46.7321 -0.374263 -4.19735 0
M  V30 475 H 45.4071 0.316939 -3.22145 0
M  V30 476 H 44.3141 -1.99961 -3.16174 0
M  V30 477 H 45.6471 -2.61421 -4.17037 0
M  V30 478 N 47.2992 1.18797 -1.03562 0
M  V30 479 C 48.5482 1.87978 -0.731235 0
M  V30 480 C 48.8612 1.80911 0.743671 0
M  V30 481 O 50.0672 2.45407 1.16137 0
M  V30 482 C 48.5232 3.3721 -1.25768 0
M  V30 483 C 48.1312 3.52818 -2.76085 0
M  V30 484 C 49.8752 4.11825 -1.0296 0
M  V30 485 C 47.7822 4.9598 -3.22114 0
M  V30 486 H 46.7122 0.704063 -0.269835 0
M  V30 487 H 49.3632 1.34266 -1.25079 0
M  V30 488 H 47.7452 3.90359 -0.666011 0
M  V30 489 H 48.9192 3.09965 -3.40966 0
M  V30 490 H 47.2342 2.91602 -2.97249 0
M  V30 491 H 49.8312 5.17411 -1.34869 0
M  V30 492 H 50.1742 4.16287 0.0333546 0
M  V30 493 H 50.7072 3.64833 -1.58562 0
M  V30 494 H 47.4462 4.96684 -4.27768 0
M  V30 495 H 46.9662 5.39569 -2.61965 0
M  V30 496 H 48.6452 5.6467 -3.15844 0
M  V30 497 N 48.7773 0.814389 1.34928 0
M  V30 498 C 50.0023 0.410097 2.03305 0
M  V30 499 C 50.4273 -0.973464 1.60951 0
M  V30 500 O 49.7853 -1.63185 0.789964 0
M  V30 501 C 49.8333 0.51049 3.56968 0
M  V30 502 O 48.9373 -0.473035 4.09678 0
M  V30 503 H 48.2783 0.170088 0.641846 0
M  V30 504 H 50.8083 1.10244 1.72358 0
M  V30 505 H 50.8183 0.383135 4.06197 0
M  V30 506 H 49.4933 1.51963 3.87144 0
M  V30 507 H 48.0703 -0.305272 3.71648 0
M  V30 508 N 50.2554 -1.46986 0.568584 0
M  V30 509 C 51.2034 -2.31858 -0.185649 0
M  V30 510 C 52.1974 -1.43624 -0.898249 0
M  V30 511 O 53.4034 -1.60327 -0.818242 0
M  V30 512 H 49.7784 -0.747866 -0.0787399 0
M  V30 513 H 51.7494 -2.93303 0.549191 0
M  V30 514 C 50.4984 -3.26513 -1.19519 0
M  V30 515 H 49.8214 -3.94377 -0.656285 0
M  V30 516 H 51.2614 -3.88707 -1.6936 0
M  V30 517 C 49.7204 -2.50847 -2.24894 0
M  V30 518 O 50.2504 -2.26119 -3.32014 0
M  V30 519 N 48.4564 -2.11656 -1.99124 0
M  V30 520 H 48.0034 -2.31966 -1.12024 0
M  V30 521 H 47.9614 -1.61347 -2.69842 0
M  V30 522 N 51.7335 -0.305618 -1.54608 0
M  V30 523 C 52.6635 0.561482 -2.26649 0
M  V30 524 C 53.6445 1.13415 -1.26772 0
M  V30 525 O 54.8295 1.16262 -1.55553 0
M  V30 526 C 51.9595 1.73122 -3.01075 0
M  V30 527 C 50.9135 1.2887 -4.08138 0
M  V30 528 C 50.2395 2.54396 -4.70305 0
M  V30 529 C 51.5395 0.416578 -5.20636 0
M  V30 530 H 53.2335 -0.0393902 -2.99374 0
M  V30 531 H 50.7795 -0.020385 -1.43986 0
M  V30 532 H 52.7325 2.34396 -3.50195 0
M  V30 533 H 51.4565 2.3584 -2.25936 0
M  V30 534 H 50.1155 0.698991 -3.59875 0
M  V30 535 H 49.7635 3.15439 -3.918 0
M  V30 536 H 49.4635 2.25486 -5.42614 0
M  V30 537 H 50.9875 3.16464 -5.2219 0
M  V30 538 H 52.4015 0.935116 -5.65622 0
M  V30 539 H 50.7985 0.221046 -5.99693 0
M  V30 540 H 51.8685 -0.557162 -4.81688 0
M  V30 541 N 53.2116 1.57565 -0.0334293 0
M  V30 542 C 54.4576 1.92262 0.645226 0
M  V30 543 C 54.7906 0.910543 1.71531 0
M  V30 544 O 54.0656 -0.066099 1.94388 0
M  V30 545 C 54.3486 3.37422 1.2577 0
M  V30 546 C 54.2016 4.49369 0.196891 0
M  V30 547 C 55.5206 3.82628 2.17449 0
M  V30 548 H 52.6396 0.699171 0.233085 0
M  V30 549 H 55.2816 1.89779 -0.0915694 0
M  V30 550 H 53.4316 3.39669 1.88566 0
M  V30 551 H 55.1036 4.59254 -0.433962 0
M  V30 552 H 53.3466 4.31168 -0.477137 0
M  V30 553 H 54.0176 5.47978 0.665124 0
M  V30 554 H 56.4936 3.82145 1.64634 0
M  V30 555 H 55.3696 4.84883 2.57254 0
M  V30 556 H 55.6306 3.18376 3.0674 0
M  V30 557 N 54.6897 -0.239769 1.55765 0
M  V30 558 C 55.6367 -1.29696 1.90913 0
M  V30 559 C 56.6067 -1.47478 0.764164 0
M  V30 560 O 57.7917 -1.61345 1.01845 0
M  V30 561 C 54.9317 -2.64598 2.21544 0
M  V30 562 C 54.0447 -2.54765 3.48882 0
M  V30 563 C 53.1797 -3.82069 3.69049 0
M  V30 564 C 52.2187 -3.66883 4.89963 0
M  V30 565 N 51.3557 -4.86094 5.06614 0
M  V30 566 H 56.1957 -0.990224 2.81067 0
M  V30 567 H 53.7327 -0.477684 1.39128 0
M  V30 568 H 55.6907 -3.43132 2.3731 0
M  V30 569 H 54.3207 -2.93405 1.34585 0
M  V30 570 H 53.3727 -1.67763 3.41409 0
M  V30 571 H 54.6847 -2.39457 4.37563 0
M  V30 572 H 53.8387 -4.69046 3.84812 0
M  V30 573 H 52.5777 -4.00282 2.78614 0
M  V30 574 H 51.5827 -2.78289 4.74168 0
M  V30 575 H 52.8077 -3.50157 5.81865 0
M  V30 576 H 50.7537 -5.04655 4.19117 0
M  V30 577 H 50.6707 -4.73443 5.89396 0
M  V30 578 H 51.9387 -5.74549 5.26795 0
M  V30 579 N 56.1678 -1.49265 -0.50573 0
M  V30 580 C 57.0978 -1.68495 -1.61653 0
M  V30 581 C 58.0788 -0.53366 -1.61512 0
M  V30 582 O 59.2638 -0.76897 -1.78327 0
M  V30 583 C 56.3938 -1.74709 -3.00157 0
M  V30 584 C 55.3478 -2.89581 -3.15162 0
M  V30 585 C 54.6738 -2.80903 -4.5497 0
M  V30 586 C 55.9738 -4.30578 -2.95634 0
M  V30 587 H 57.6678 -2.61493 -1.45814 0
M  V30 588 H 55.2138 -1.25838 -0.70005 0
M  V30 589 H 57.1668 -1.86748 -3.77761 0
M  V30 590 H 55.8908 -0.783067 -3.17074 0
M  V30 591 H 54.5498 -2.77136 -2.39982 0
M  V30 592 H 54.1978 -1.82419 -4.68756 0
M  V30 593 H 53.8978 -3.57999 -4.65951 0
M  V30 594 H 55.4218 -2.94944 -5.34641 0
M  V30 595 H 56.8358 -4.4373 -3.63011 0
M  V30 596 H 55.2328 -5.0886 -3.18091 0
M  V30 597 H 56.3028 -4.45352 -1.91806 0
M  V30 598 N 57.6459 0.756429 -1.3826 0
M  V30 599 C 58.9229 1.50584 -1.24835 0
M  V30 600 C 59.3029 2.10556 0.151485 0
M  V30 601 O 58.6509 1.96825 1.1607 0
M  V30 602 C 58.8609 2.57448 -2.3563 0
M  V30 603 C 60.2089 3.24429 -2.73917 0
M  V30 604 O 61.2329 2.67751 -2.34921 0
M  V30 605 O 60.0919 4.26937 -3.41156 0
M  V30 606 H 57.1859 0.667664 -0.48801 0
M  V30 607 H 59.7319 0.792083 -1.5008 0
M  V30 608 H 58.5039 2.11362 -3.29305 0
M  V30 609 H 58.1269 3.36408 -2.11933 0
M  V30 610 N 59.124 1.23083 0.984299 0
M  V30 611 C 60.054 1.03292 2.09411 0
M  V30 612 C 61.035 -0.048923 1.7003 0
M  V30 613 O 62.22 0.114967 1.93859 0
M  V30 614 C 59.35 0.619155 3.41736 0
M  V30 615 C 58.304 1.64791 3.95004 0
M  V30 616 C 57.63 1.0897 5.23478 0
M  V30 617 C 58.93 3.03999 4.24714 0
M  V30 618 H 60.624 1.96119 2.26225 0
M  V30 619 H 58.17 0.944344 1.08711 0
M  V30 620 H 60.123 0.467777 4.18796 0
M  V30 621 H 58.847 -0.344786 3.24775 0
M  V30 622 H 57.506 1.78721 3.20085 0
M  V30 623 H 57.154 0.11686 5.02864 0
M  V30 624 H 56.854 1.77704 5.60085 0
M  V30 625 H 58.378 0.950093 6.03163 0
M  V30 626 H 59.792 2.93393 4.92538 0
M  V30 627 H 58.189 3.69936 4.72512 0
M  V30 628 H 59.259 3.53285 3.32142 0
M  V30 629 N 60.6021 -1.18246 1.0419 0
M  V30 630 C 61.5321 -2.24127 0.654914 0
M  V30 631 C 62.5131 -1.66617 -0.342451 0
M  V30 632 O 63.6981 -1.92924 -0.222277 0
M  V30 633 C 60.8281 -3.47295 0.0183757 0
M  V30 634 C 59.7821 -4.17563 0.939414 0
M  V30 635 C 59.1081 -5.34438 0.167286 0
M  V30 636 C 60.4081 -4.70917 2.25908 0
M  V30 637 H 62.1021 -2.56753 1.54007 0
M  V30 638 H 59.6481 -1.23414 0.74195 0
M  V30 639 H 61.6011 -4.20572 -0.264082 0
M  V30 640 H 60.3251 -3.13907 -0.901664 0
M  V30 641 H 58.9841 -3.46186 1.20628 0
M  V30 642 H 58.6321 -4.97298 -0.7552 0
M  V30 643 H 58.3321 -5.82388 0.780901 0
M  V30 644 H 59.8561 -6.10504 -0.108125 0
M  V30 645 H 61.2701 -5.35882 2.03724 0
M  V30 646 H 59.6671 -5.29406 2.82577 0
M  V30 647 H 60.7371 -3.88272 2.9047 0
M  V30 648 N 62.0802 -0.821533 -1.34494 0
M  V30 649 C 62.9902 -0.244355 -2.33324 0
M  V30 650 C 64.0062 0.620527 -1.62559 0
M  V30 651 O 65.1822 0.528754 -1.94335 0
M  V30 652 C 62.2472 0.585368 -3.41723 0
M  V30 653 C 61.3082 -0.301752 -4.28238 0
M  V30 654 C 60.5412 0.488466 -5.3146 0
M  V30 655 O 60.7642 1.72186 -5.4379 0
M  V30 656 O 59.6982 -0.12848 -6.01763 0
M  V30 657 H 63.5242 -1.06231 -2.84515 0
M  V30 658 H 61.1092 -0.583645 -1.37528 0
M  V30 659 H 62.9912 1.05747 -4.07916 0
M  V30 660 H 61.6662 1.38068 -2.92778 0
M  V30 661 H 60.5732 -0.821315 -3.64973 0
M  V30 662 H 61.9062 -1.06138 -4.8062 0
M  V30 663 N 63.5583 1.46682 -0.576371 0
M  V30 664 C 64.4683 2.34032 0.163141 0
M  V30 665 C 65.4843 1.49367 0.892501 0
M  V30 666 O 66.6603 1.82252 0.857106 0
M  V30 667 C 63.7253 3.26435 1.16795 0
M  V30 668 C 62.7863 4.26998 0.443944 0
M  V30 669 C 62.0193 5.14986 1.40088 0
M  V30 670 O 62.2423 5.05785 2.637 0
M  V30 671 O 61.1763 5.94906 0.914917 0
M  V30 672 H 65.0023 2.98607 -0.55388 0
M  V30 673 H 62.5873 1.45554 -0.336821 0
M  V30 674 H 64.4693 3.83459 1.74748 0
M  V30 675 H 63.1443 2.64465 1.86655 0
M  V30 676 H 62.0513 3.7368 -0.177271 0
M  V30 677 H 63.3843 4.91736 -0.213566 0
M  V30 678 N 65.0364 0.313813 1.54444 0
M  V30 679 C 65.9834 -0.55655 2.23989 0
M  V30 680 C 66.9534 -1.11943 1.22711 0
M  V30 681 O 68.1384 -1.16158 1.51367 0
M  V30 682 C 65.2784 -1.71635 2.99392 0
M  V30 683 C 64.3914 -1.18364 4.15468 0
M  V30 684 C 63.5264 -2.30834 4.78424 0
M  V30 685 C 62.5654 -1.74762 5.86622 0
M  V30 686 N 61.7024 -2.80855 6.43479 0
M  V30 687 H 66.5424 0.0430893 2.97969 0
M  V30 688 H 64.0794 0.0330359 1.47063 0
M  V30 689 H 66.0374 -2.39868 3.41349 0
M  V30 690 H 64.6674 -2.28742 2.27765 0
M  V30 691 H 63.7194 -0.393163 3.78363 0
M  V30 692 H 65.0314 -0.733262 4.93381 0
M  V30 693 H 64.1854 -3.0699 5.23299 0
M  V30 694 H 62.9244 -2.79204 3.99871 0
M  V30 695 H 61.9294 -0.970995 5.41158 0
M  V30 696 H 63.1544 -1.2728 6.67066 0
M  V30 697 H 61.1004 -3.28535 5.67804 0
M  V30 698 H 61.0174 -2.40351 7.16776 0
M  V30 699 H 62.2854 -3.5687 6.93011 0
M  V30 700 N 66.5145 -1.57545 0.0417849 0
M  V30 701 C 67.4245 -2.14451 -0.951213 0
M  V30 702 C 68.4405 -1.09992 -1.34825 0
M  V30 703 O 69.6165 -1.42114 -1.42708 0
M  V30 704 C 66.6815 -2.67063 -2.21084 0
M  V30 705 C 65.7425 -3.86284 -1.87304 0
M  V30 706 C 64.9755 -4.36378 -3.07261 0
M  V30 707 O 65.1985 -3.85587 -4.20332 0
M  V30 708 O 64.1325 -5.28077 -2.88822 0
M  V30 709 H 67.9585 -2.99601 -0.497287 0
M  V30 710 H 65.5435 -1.48317 -0.179567 0
M  V30 711 H 67.4255 -3.00914 -2.95006 0
M  V30 712 H 66.1005 -1.84989 -2.65633 0
M  V30 713 H 65.0075 -3.57338 -1.10727 0
M  V30 714 H 66.3405 -4.6956 -1.47562 0
M  V30 715 N 67.9926 0.231505 -1.5589 0
M  V30 716 C 69.2406 0.955461 -1.78088 0
M  V30 717 C 69.5616 1.85262 -0.608533 0
M  V30 718 O 68.8316 1.92277 0.375035 0
M  V30 719 H 67.4116 0.355787 -0.656829 0
M  V30 720 H 70.0736 0.245751 -1.93344 0
M  V30 721 H 69.1696 1.56814 -2.69844 0
M  V30 722 N 69.4707 1.49531 0.497807 0
M  V30 723 C 70.6957 1.63159 1.28039 0
M  V30 724 C 71.1207 0.30418 1.85624 0
M  V30 725 O 70.4787 -0.728618 1.66015 0
M  V30 726 C 70.5267 2.70537 2.38416 0
M  V30 727 O 69.6307 2.29931 3.42353 0
M  V30 728 H 68.9717 0.546001 0.377861 0
M  V30 729 H 71.5017 1.9574 0.59558 0
M  V30 730 H 71.5117 2.92802 2.84132 0
M  V30 731 H 70.1867 3.6689 1.95869 0
M  V30 732 H 68.7637 2.18009 3.02533 0
M  V30 733 N 70.9488 -0.749086 1.3866 0
M  V30 734 C 71.8788 -1.8764 1.38973 0
M  V30 735 C 72.8598 -1.68178 0.255004 0
M  V30 736 O 74.0448 -1.88704 0.458754 0
M  V30 737 C 71.1748 -3.25222 1.21851 0
M  V30 738 C 70.1288 -3.59295 2.32575 0
M  V30 739 C 69.4548 -4.95663 2.00555 0
M  V30 740 C 70.7548 -3.63709 3.7485 0
M  V30 741 H 72.4488 -1.87635 2.3331 0
M  V30 742 H 69.9948 -0.901329 1.12303 0
M  V30 743 H 71.9478 -4.03746 1.20695 0
M  V30 744 H 70.6718 -3.25719 0.239775 0
M  V30 745 H 69.3308 -2.83093 2.32925 0
M  V30 746 H 68.9788 -4.92724 1.01154 0
M  V30 747 H 68.6788 -5.19429 2.74714 0
M  V30 748 H 70.2028 -5.7656 2.01024 0
M  V30 749 H 71.6168 -4.32338 3.76506 0
M  V30 750 H 70.0138 -3.98986 4.48252 0
M  V30 751 H 71.0838 -2.63834 4.06841 0
M  V30 752 N 72.4269 -1.23603 -0.977757 0
M  V30 753 C 73.6519 -1.09735 -1.75991 0
M  V30 754 C 74.0769 0.346858 -1.84874 0
M  V30 755 O 73.4349 1.25093 -1.3123 0
M  V30 756 C 73.4829 -1.73051 -3.16363 0
M  V30 757 O 72.5869 -0.994452 -4.0023 0
M  V30 758 H 71.9279 -0.384476 -0.541364 0
M  V30 759 H 74.4579 -1.6371 -1.2272 0
M  V30 760 H 74.4679 -1.78398 -3.66931 0
M  V30 761 H 73.1429 -2.78137 -3.09213 0
M  V30 762 H 71.7199 -1.01812 -3.58732 0
M  V30 763 N 73.905 1.17692 -1.04816 0
M  V30 764 C 75.316 1.69501 -0.782698 0
M  V30 765 C 75.667 1.83456 0.695577 0
M  V30 766 O 74.792 1.51942 1.54086 0
M  V30 767 C 75.387 3.07874 -1.41419 0
M  V30 768 C 73.946 3.56864 -1.19686 0
M  V30 769 C 73.093 2.3322 -1.50012 0
M  V30 770 H 76.044 1.02262 -1.2136 0
M  V30 771 H 76.065 3.71528 -0.821428 0
M  V30 772 H 75.577 2.97685 -2.49009 0
M  V30 773 H 73.678 3.72337 -0.140043 0
M  V30 774 H 73.791 4.39851 -1.89916 0
M  V30 775 H 72.155 2.37501 -0.920071 0
M  V30 776 H 72.938 2.25644 -2.58727 0
M  V30 777 N 75.3831 0.828654 1.34056 0
M  V30 778 C 76.3461 0.259927 2.27721 0
M  V30 779 C 77.3461 -0.565478 1.50529 0
M  V30 780 O 78.5361 -0.38075 1.69988 0
M  V30 781 C 75.6681 -0.634944 3.34935 0
M  V30 782 H 76.8611 1.0863 2.79534 0
M  V30 783 H 74.4141 0.600951 1.44285 0
M  V30 784 H 75.1491 -1.48416 2.88346 0
M  V30 785 H 74.9341 -0.0444999 3.92075 0
M  V30 786 H 76.4241 -1.02648 4.04788 0
M  V30 787 N 76.8612 -1.46375 0.584142 0
M  V30 788 C 78.0862 -2.07268 0.0740405 0
M  V30 789 C 78.5112 -1.42979 -1.22223 0
M  V30 790 O 77.8692 -0.514092 -1.73859 0
M  V30 791 C 77.9172 -3.60518 -0.0767769 0
M  V30 792 O 77.0212 -3.96533 -1.13292 0
M  V30 793 H 76.3622 -0.660961 0.0634524 0
M  V30 794 H 78.8922 -1.87991 0.807492 0
M  V30 795 H 78.9022 -4.07021 -0.282489 0
M  V30 796 H 77.5772 -4.06702 0.86986 0
M  V30 797 H 76.1542 -3.61738 -0.905553 0
M  V30 798 N 78.3393 -0.321999 -1.54275 0
M  V30 799 C 79.5853 0.281461 -2.00837 0
M  V30 800 C 79.9183 1.51909 -1.20985 0
M  V30 801 O 79.1933 1.923 -0.291733 0
M  V30 802 C 79.4763 0.617162 -3.54772 0
M  V30 803 C 79.3293 -0.631064 -4.45351 0
M  V30 804 C 80.6483 1.43542 -4.16033 0
M  V30 805 H 77.7673 0.100826 -0.730071 0
M  V30 806 H 80.4093 -0.438268 -1.84876 0
M  V30 807 H 78.5593 1.23034 -3.68504 0
M  V30 808 H 80.2313 -1.26934 -4.43492 0
M  V30 809 H 78.4743 -1.26025 -4.15091 0
M  V30 810 H 79.1453 -0.351735 -5.50878 0
M  V30 811 H 81.6213 0.917134 -4.05867 0
M  V30 812 H 80.4973 1.63907 -5.23856 0
M  V30 813 H 80.7583 2.43108 -3.69257 0
M  V30 814 N 79.8174 1.5752 -0.0501392 0
M  V30 815 C 81.0654 1.9227 0.622642 0
M  V30 816 C 81.3864 0.929083 1.71444 0
M  V30 817 O 80.6564 -0.0262186 1.95882 0
M  V30 818 H 79.2364 0.709739 0.232981 0
M  V30 819 H 81.8984 1.94628 -0.102898 0
M  V30 820 H 80.9944 2.93479 1.06191 0
M  V30 821 N 81.2955 -0.223234 1.56011 0
M  V30 822 C 82.5205 -0.968978 1.83373 0
M  V30 823 C 82.9455 -1.77227 0.630254 0
M  V30 824 O 82.3035 -1.76345 -0.420959 0
M  V30 825 C 82.3515 -1.86363 3.08709 0
M  V30 826 O 81.4555 -2.95873 2.87285 0
M  V30 827 H 80.7965 -0.274461 0.604622 0
M  V30 828 H 83.3265 -0.237056 2.03222 0
M  V30 829 H 83.3365 -2.27376 3.38768 0
M  V30 830 H 82.0115 -1.27319 3.95933 0
M  V30 831 H 80.5885 -2.58818 2.68454 0
M  V30 832 N 82.7736 -1.49793 -0.48987 0
M  V30 833 C 84.0506 -1.50348 -1.25119 0
M  V30 834 C 84.4306 -0.237466 -2.0976 0
M  V30 835 O 83.7786 0.77981 -2.14782 0
M  V30 836 C 83.9886 -2.78872 -2.09837 0
M  V30 837 C 85.3366 -3.288 -2.68655 0
M  V30 838 O 86.3606 -2.80065 -2.20096 0
M  V30 839 O 85.2196 -4.13707 -3.57083 0
M  V30 840 H 82.3136 -0.602242 -0.566775 0
M  V30 841 H 84.8596 -1.62067 -0.503229 0
M  V30 842 H 83.6316 -3.62499 -1.47343 0
M  V30 843 H 83.2546 -2.70066 -2.91805 0
M  V30 844 N 84.2517 0.741722 -1.39055 0
M  V30 845 C 85.4797 1.53098 -1.39171 0
M  V30 846 C 85.8947 1.88794 0.0155099 0
M  V30 847 O 85.2517 1.53626 0.985159 0
M  V30 848 C 85.3027 2.82274 -2.2584 0
M  V30 849 O 85.0237 2.48097 -3.61081 0
M  V30 850 C 86.5247 3.76343 -2.34266 0
M  V30 851 H 83.7447 0.473335 -0.4756 0
M  V30 852 H 86.2887 0.917045 -1.82785 0
M  V30 853 H 84.4437 3.40015 -1.85656 0
M  V30 854 H 84.8577 3.31029 -4.06842 0
M  V30 855 H 86.3317 4.63898 -2.9917 0
M  V30 856 H 86.8087 4.17619 -1.35982 0
M  V30 857 H 87.4147 3.24523 -2.74891 0
M  V30 858 N 85.7298 1.2412 0.971189 0
M  V30 859 C 86.6598 1.05508 2.08304 0
M  V30 860 C 87.6408 -0.0308864 1.70072 0
M  V30 861 O 88.8258 0.135521 1.93727 0
M  V30 862 C 85.9558 0.655365 3.4106 0
M  V30 863 C 84.9098 1.68971 3.93234 0
M  V30 864 C 84.2358 1.14516 5.22293 0
M  V30 865 C 85.5358 3.08487 4.21465 0
M  V30 866 H 87.2298 1.98507 2.24132 0
M  V30 867 H 84.7758 0.955821 1.07704 0
M  V30 868 H 86.7288 0.51217 4.18276 0
M  V30 869 H 85.4528 -0.31032 3.25122 0
M  V30 870 H 84.1118 1.82106 3.18171 0
M  V30 871 H 83.7598 0.170189 5.02712 0
M  V30 872 H 83.4598 1.83635 5.58168 0
M  V30 873 H 84.9838 1.01401 6.02121 0
M  V30 874 H 86.3978 2.98601 4.89398 0
M  V30 875 H 84.7948 3.74926 4.68562 0
M  V30 876 H 85.8648 3.56787 3.28376 0
M  V30 877 N 87.2079 -1.17134 1.05439 0
M  V30 878 C 88.4329 -1.91913 0.786396 0
M  V30 879 C 88.8579 -1.7643 -0.652234 0
M  V30 880 O 88.2159 -1.08372 -1.45345 0
M  V30 881 C 88.2639 -3.40921 1.17497 0
M  V30 882 O 87.3679 -4.11244 0.308589 0
M  V30 883 H 86.7089 -0.598215 0.288158 0
M  V30 884 H 89.2389 -1.48457 1.4079 0
M  V30 885 H 89.2489 -3.91668 1.14281 0
M  V30 886 H 87.9239 -3.5151 2.22292 0
M  V30 887 H 86.5009 -3.70731 0.40157 0
M  V30 888 N 88.686 -0.835752 -1.33615 0
M  V30 889 C 89.963 -0.352017 -1.92406 0
M  V30 890 C 90.343 1.16225 -1.76224 0
M  V30 891 O 89.691 1.97526 -1.14873 0
M  V30 892 C 89.901 -0.795485 -3.39813 0
M  V30 893 C 91.249 -0.801703 -4.16963 0
M  V30 894 O 92.273 -0.738889 -3.48452 0
M  V30 895 O 91.132 -0.886607 -5.3926 0
M  V30 896 H 88.226 -0.0989641 -0.821057 0
M  V30 897 H 90.772 -0.921397 -1.42507 0
M  V30 898 H 89.544 -1.83795 -3.45449 0
M  V30 899 H 89.167 -0.202505 -3.97084 0
M  V30 900 N 90.1641 1.46063 -0.591896 0
M  V30 901 C 91.0941 2.33172 0.123673 0
M  V30 902 C 92.0751 1.45897 0.87453 0
M  V30 903 O 93.2601 1.74698 0.848181 0
M  V30 904 C 90.3901 3.28336 1.13194 0
M  V30 905 C 89.3441 4.25124 0.495324 0
M  V30 906 C 88.6701 5.09863 1.61071 0
M  V30 907 C 89.9701 5.19143 -0.573425 0
M  V30 908 H 91.6641 2.93252 -0.603646 0
M  V30 909 H 89.2101 1.41014 -0.291741 0
M  V30 910 H 91.1631 3.88137 1.64097 0
M  V30 911 H 89.8871 2.66383 1.88965 0
M  V30 912 H 88.5461 3.66599 0.00729452 0
M  V30 913 H 88.1941 4.44288 2.35832 0
M  V30 914 H 87.8941 5.75417 1.19035 0
M  V30 915 H 89.4181 5.72529 2.12233 0
M  V30 916 H 90.8321 5.73106 -0.1491 0
M  V30 917 H 89.2291 5.93089 -0.914636 0
M  V30 918 H 90.2991 4.62519 -1.45617 0
M  V30 919 N 91.6422 0.330177 1.54103 0
M  V30 920 C 92.8902 -0.269871 2.0029 0
M  V30 921 C 93.2112 -1.52133 1.21986 0
M  V30 922 O 92.4812 -1.93212 0.323438 0
M  V30 923 H 91.0612 -0.10271 0.739905 0
M  V30 924 H 93.7232 0.448249 1.89675 0
M  V30 925 H 92.8192 -0.52166 3.07709 0
M  V30 926 N 93.1203 -1.57491 0.0584922 0
M  V30 927 C 94.3693 -1.92155 -0.613146 0
M  V30 928 C 94.6823 -0.939334 -1.71569 0
M  V30 929 O 95.8883 -1.17829 -2.44599 0
M  V30 930 C 94.3443 -3.41303 -1.14195 0
M  V30 931 C 93.9523 -4.47944 -0.0711265 0
M  V30 932 C 95.6963 -3.84988 -1.78841 0
M  V30 933 C 93.6033 -5.88212 -0.613225 0
M  V30 934 H 92.5333 -0.717162 -0.232796 0
M  V30 935 H 95.1843 -1.83049 0.12857 0
M  V30 936 H 93.5663 -3.45437 -1.93621 0
M  V30 937 H 94.7403 -4.55408 0.702836 0
M  V30 938 H 93.0553 -4.13644 0.478313 0
M  V30 939 H 95.6523 -4.87159 -2.20408 0
M  V30 940 H 95.9953 -3.21632 -2.64308 0
M  V30 941 H 96.5283 -3.83401 -1.06059 0
M  V30 942 H 93.2673 -6.55183 0.203978 0
M  V30 943 H 92.7873 -5.84294 -1.35501 0
M  V30 944 H 94.4663 -6.37687 -1.09383 0
M  V30 945 N 94.5984 0.214957 -1.56127 0
M  V30 946 C 95.8234 0.95924 -1.83884 0
M  V30 947 C 96.2484 1.7689 -0.639644 0
M  V30 948 O 95.6064 1.76566 0.411601 0
M  V30 949 C 95.6544 1.84723 -3.09693 0
M  V30 950 O 94.7584 2.94346 -2.8885 0
M  V30 951 H 94.0994 0.27125 -0.606069 0
M  V30 952 H 96.6294 0.226276 -2.03345 0
M  V30 953 H 96.6394 2.25576 -3.39969 0
M  V30 954 H 95.3144 1.25218 -3.96602 0
M  V30 955 H 93.8914 2.57391 -2.69823 0
M  V30 956 N 96.0765 1.50051 0.48192 0
M  V30 957 C 97.3015 1.64508 1.26301 0
M  V30 958 C 97.7265 0.323851 1.85291 0
M  V30 959 O 97.0845 -0.710969 1.66778 0
M  V30 960 C 97.1325 2.7305 2.35533 0
M  V30 961 O 96.2365 2.3355 3.39895 0
M  V30 962 H 95.5775 0.549978 0.372048 0
M  V30 963 H 98.1075 1.9636 0.574786 0
M  V30 964 H 98.1175 2.95799 2.8101 0
M  V30 965 H 96.7925 3.68946 1.91967 0
M  V30 966 H 95.3695 2.21205 3.00204 0
M  V30 967 N 97.5546 -0.734337 1.39446 0
M  V30 968 C 98.4846 -1.86155 1.40955 0
M  V30 969 C 99.4656 -1.67898 0.272827 0
M  V30 970 O 100.651 -1.88207 0.478743 0
M  V30 971 C 97.7806 -3.23912 1.25294 0
M  V30 972 C 96.7346 -3.56808 2.36373 0
M  V30 973 C 96.0606 -4.93508 2.058 0
M  V30 974 C 97.3606 -3.59713 3.78687 0
M  V30 975 H 99.0546 -1.8515 2.35287 0
M  V30 976 H 96.6006 -0.889367 1.13253 0
M  V30 977 H 98.5536 -4.02443 1.2497 0
M  V30 978 H 97.2776 -3.25446 0.274308 0
M  V30 979 H 95.9366 -2.80606 2.35914 0
M  V30 980 H 95.5846 -4.91623 1.06374 0
M  V30 981 H 95.2846 -5.16486 2.80208 0
M  V30 982 H 96.8086 -5.74396 2.07128 0
M  V30 983 H 98.2226 -4.2832 3.81071 0
M  V30 984 H 96.6196 -3.94209 4.52459 0
M  V30 985 H 97.6896 -2.59504 4.09617 0
M  V30 986 N 99.0327 -1.24633 -0.964593 0
M  V30 987 C 99.9647 -0.999302 -2.06268 0
M  V30 988 C 100.978 0.0323226 -1.62768 0
M  V30 989 O 102.167 -0.205079 -1.77318 0
M  V30 990 C 99.2667 -0.486816 -3.35385 0
M  V30 991 C 98.4397 -1.5823 -4.07777 0
M  V30 992 C 97.4987 -1.07191 -5.15166 0
M  V30 993 O 96.5247 -1.76426 -5.41168 0
M  V30 994 N 97.7267 0.0920373 -5.80427 0
M  V30 995 H 100.492 -1.94477 -2.28033 0
M  V30 996 H 98.0527 -1.15704 -1.13244 0
M  V30 997 H 100.045 -0.130066 -4.04491 0
M  V30 998 H 98.6147 0.364459 -3.10468 0
M  V30 999 H 97.8347 -2.11109 -3.32906 0
M  V30 1000 H 99.1227 -2.31854 -4.52903 0
M  V30 1001 H 98.5207 0.670784 -5.61709 0
M  V30 1002 H 97.0777 0.389905 -6.50633 0
M  V30 1003 N 100.511 1.16574 -1.06058 0
M  V30 1004 C 101.788 1.83048 -0.689416 0
M  V30 1005 C 102.168 1.94122 0.829443 0
M  V30 1006 O 101.516 1.48249 1.7388 0
M  V30 1007 C 101.726 3.20186 -1.38859 0
M  V30 1008 C 103.074 3.95989 -1.53226 0
M  V30 1009 O 104.098 3.29696 -1.3483 0
M  V30 1010 O 102.957 5.14813 -1.83384 0
M  V30 1011 H 100.051 0.790258 -0.243764 0
M  V30 1012 H 102.597 1.23797 -1.16071 0
M  V30 1013 H 101.369 3.07146 -2.4244 0
M  V30 1014 H 100.992 3.87112 -0.907216 0
M  V30 1015 N 101.989 0.842826 1.3317 0
M  V30 1016 C 103.237 0.439577 1.97262 0
M  V30 1017 C 103.558 -1.00548 1.67078 0
M  V30 1018 O 102.828 -1.70098 0.971779 0
M  V30 1019 H 101.408 0.159558 0.72976 0
M  V30 1020 H 104.07 1.07665 1.62463 0
M  V30 1021 H 103.166 0.574886 3.0676 0
M  V30 1022 N 103.467 -1.45747 0.599634 0
M  V30 1023 C 104.397 -2.33235 -0.111306 0
M  V30 1024 C 105.378 -1.46359 -0.866781 0
M  V30 1025 O 106.563 -1.75146 -0.838904 0
M  V30 1026 C 103.693 -3.28932 -1.11451 0
M  V30 1027 C 102.647 -4.25381 -0.472772 0
M  V30 1028 C 101.973 -5.1071 -1.58365 0
M  V30 1029 C 103.273 -5.18831 0.600948 0
M  V30 1030 H 104.967 -2.92927 0.61919 0
M  V30 1031 H 102.513 -1.40857 0.299215 0
M  V30 1032 H 104.466 -3.89002 -1.62036 0
M  V30 1033 H 103.19 -2.67381 -1.8755 0
M  V30 1034 H 101.849 -3.66598 0.0121472 0
M  V30 1035 H 101.497 -4.45533 -2.33473 0
M  V30 1036 H 101.197 -5.7604 -1.15982 0
M  V30 1037 H 102.721 -5.73647 -2.09194 0
M  V30 1038 H 104.135 -5.73019 0.179491 0
M  V30 1039 H 102.532 -5.92595 0.946076 0
M  V30 1040 H 103.602 -4.6174 1.48068 0
M  V30 1041 N 104.945 -0.338344 -1.53925 0
M  V30 1042 C 105.908 0.508299 -2.23493 0
M  V30 1043 C 106.908 1.03175 -1.23335 0
M  V30 1044 O 108.098 0.921826 -1.47811 0
M  V30 1045 C 105.23 1.70754 -2.95052 0
M  V30 1046 H 106.423 -0.100058 -2.99733 0
M  V30 1047 H 103.976 -0.0896198 -1.56043 0
M  V30 1048 H 104.711 2.35474 -2.22986 0
M  V30 1049 H 104.496 1.33946 -3.68512 0
M  V30 1050 H 105.986 2.30818 -3.48013 0
M  V30 1051 N 106.423 1.57458 -0.0668435 0
M  V30 1052 C 107.353 2.15468 0.899764 0
M  V30 1053 C 108.334 1.08042 1.31381 0
M  V30 1054 O 109.519 1.36054 1.38574 0
M  V30 1055 C 106.649 2.71232 2.16911 0
M  V30 1056 C 105.603 3.83781 1.89463 0
M  V30 1057 C 104.929 4.26127 3.22986 0
M  V30 1058 C 106.229 5.08238 1.20381 0
M  V30 1059 H 107.923 2.96488 0.416529 0
M  V30 1060 H 105.469 1.4262 0.198908 0
M  V30 1061 H 107.422 3.10458 2.84945 0
M  V30 1062 H 106.146 1.87426 2.67468 0
M  V30 1063 H 104.805 3.45051 1.23836 0
M  V30 1064 H 104.453 3.39249 3.71374 0
M  V30 1065 H 104.153 5.01993 3.05413 0
M  V30 1066 H 105.677 4.67966 3.92225 0
M  V30 1067 H 107.091 5.44811 1.78475 0
M  V30 1068 H 105.488 5.89349 1.13083 0
M  V30 1069 H 106.558 4.84558 0.182153 0
M  V30 1070 N 107.901 -0.206675 1.56239 0
M  V30 1071 C 108.851 -1.26 1.90021 0
M  V30 1072 C 109.835 -1.41566 0.764721 0
M  V30 1073 O 111.027 -1.44131 1.02739 0
M  V30 1074 C 108.156 -2.6073 2.23326 0
M  V30 1075 C 107.242 -2.49005 3.43304 0
M  V30 1076 N 107.633 -2.06946 4.61527 0
M  V30 1077 C 105.931 -2.79927 3.47213 0
M  V30 1078 C 106.632 -2.06832 5.43687 0
M  V30 1079 N 105.608 -2.47892 4.83788 0
M  V30 1080 H 109.41 -0.925955 2.78932 0
M  V30 1081 H 106.924 -0.415172 1.57003 0
M  V30 1082 H 108.921 -3.36798 2.45708 0
M  V30 1083 H 107.581 -2.94968 1.35735 0
M  V30 1084 H 108.592 -1.77839 4.86409 0
M  V30 1085 H 105.269 -3.18438 2.70006 0
M  V30 1086 H 106.659 -1.76312 6.48354 0
M  V30 1087 N 109.379 -1.50304 -0.473955 0
M  V30 1088 C 110.628 -1.60392 -1.22301 0
M  V30 1089 C 110.941 -0.308411 -1.93153 0
M  V30 1090 O 112.147 -0.288156 -2.69966 0
M  V30 1091 C 110.603 -2.83109 -2.2221 0
M  V30 1092 C 110.211 -4.19524 -1.57173 0
M  V30 1093 C 111.955 -3.0254 -2.97775 0
M  V30 1094 C 109.862 -5.33431 -2.55353 0
M  V30 1095 H 108.792 -0.597286 -0.460179 0
M  V30 1096 H 111.443 -1.76731 -0.493803 0
M  V30 1097 H 109.825 -2.60322 -2.9841 0
M  V30 1098 H 110.999 -4.52554 -0.867824 0
M  V30 1099 H 109.314 -4.05674 -0.939002 0
M  V30 1100 H 111.911 -3.84811 -3.71248 0
M  V30 1101 H 112.254 -2.14154 -3.56992 0
M  V30 1102 H 112.787 -3.25494 -2.28688 0
M  V30 1103 H 109.526 -6.23962 -2.00878 0
M  V30 1104 H 109.046 -5.04823 -3.23904 0
M  V30 1105 H 110.725 -5.63887 -3.17239 0
M  V30 1106 N 110.857 0.726932 -1.39834 0
M  V30 1107 C 112.273 1.03354 -1.21615 0
M  V30 1108 C 112.473 2.01327 -0.08338 0
M  V30 1109 O 111.529 2.46158 0.56238 0
M  V30 1110 C 112.842 1.58811 -2.55342 0
M  V30 1111 C 114.39 1.70851 -2.62257 0
M  V30 1112 C 114.865 2.29716 -3.96225 0
M  V30 1113 N 116.356 2.37116 -3.97907 0
M  V30 1114 C 117.091 2.83619 -4.98345 0
M  V30 1115 N 116.587 3.29958 -6.09179 0
M  V30 1116 N 118.38 2.82901 -4.8572 0
M  V30 1117 H 110.531 0.0773069 -2.12259 0
M  V30 1118 H 112.794 0.0969102 -0.943034 0
M  V30 1119 H 112.5 0.942855 -3.38826 0
M  V30 1120 H 112.374 2.57502 -2.75632 0
M  V30 1121 H 114.761 2.34497 -1.79152 0
M  V30 1122 H 114.842 0.707913 -2.45809 0
M  V30 1123 H 114.486 1.66696 -4.79765 0
M  V30 1124 H 114.416 3.30469 -4.09997 0
M  V30 1125 H 116.907 2.04374 -3.17868 0
M  V30 1126 H 117.22 3.63976 -6.8172 0
M  V30 1127 H 115.565 3.27946 -6.12761 0
M  V30 1128 H 118.756 2.46027 -3.98231 0
M  V30 1129 H 118.929 3.18827 -5.6414 0
M  V30 1130 N 112.336 1.25143 0.95797 0
M  V30 1131 C 113.561 1.12521 1.74223 0
M  V30 1132 C 113.986 -0.317402 1.85403 0
M  V30 1133 O 113.344 -1.2299 1.33204 0
M  V30 1134 C 113.392 1.78062 3.1357 0
M  V30 1135 O 112.496 1.058 3.98598 0
M  V30 1136 H 111.837 0.39304 0.535178 0
M  V30 1137 H 114.367 1.65641 1.201 0
M  V30 1138 H 114.377 1.84213 3.64046 0
M  V30 1139 H 113.052 2.83021 3.04749 0
M  V30 1140 H 111.629 1.07506 3.57067 0
M  V30 1141 N 113.814 -1.1601 1.06675 0
M  V30 1142 C 115.039 -1.91068 0.806706 0
M  V30 1143 C 115.464 -1.77112 -0.633485 0
M  V30 1144 O 114.822 -1.09908 -1.44187 0
M  V30 1145 C 114.87 -3.39655 1.21106 0
M  V30 1146 O 113.974 -4.10893 0.352189 0
M  V30 1147 H 113.315 -0.595125 0.294486 0
M  V30 1148 H 115.845 -1.46955 1.42356 0
M  V30 1149 H 115.855 -3.90434 1.18428 0
M  V30 1150 H 114.53 -3.49132 2.26008 0
M  V30 1151 H 113.107 -3.70285 0.440868 0
M  V30 1152 N 115.292 -0.849877 -1.32721 0
M  V30 1153 C 116.225 -0.235903 -2.26977 0
M  V30 1154 C 117.203 0.623355 -1.50177 0
M  V30 1155 O 118.387 0.581207 -1.79316 0
M  V30 1156 C 115.514 0.667712 -3.32053 0
M  V30 1157 C 114.56 -0.11753 -4.26338 0
M  V30 1158 S 115.393 -1.48277 -5.14562 0
M  V30 1159 C 116.549 -0.584741 -6.23163 0
M  V30 1160 H 116.782 -1.03495 -2.78704 0
M  V30 1161 H 114.315 -0.64724 -1.40179 0
M  V30 1162 H 116.273 1.18343 -3.93072 0
M  V30 1163 H 114.934 1.44052 -2.7912 0
M  V30 1164 H 114.127 0.57051 -5.00761 0
M  V30 1165 H 113.729 -0.564668 -3.69713 0
M  V30 1166 H 116.021 0.212968 -6.77165 0
M  V30 1167 H 116.964 -1.29947 -6.96074 0
M  V30 1168 H 117.372 -0.161202 -5.6427 0
M  V30 1169 N 116.77 1.45427 -0.607355 0
M  V30 1170 C 117.995 2.07124 -0.107006 0
M  V30 1171 C 118.42 1.44906 1.19933 0
M  V30 1172 O 117.778 0.541687 1.73019 0
M  V30 1173 C 117.826 3.60595 0.0194119 0
M  V30 1174 O 116.93 3.98285 1.0697 0
M  V30 1175 H 116.271 0.659868 -0.0739597 0
M  V30 1176 H 118.801 1.86683 -0.837297 0
M  V30 1177 H 118.811 4.07419 0.2177 0
M  V30 1178 H 117.486 4.05266 -0.934453 0
M  V30 1179 H 116.063 3.63133 0.847889 0
M  V30 1180 N 118.248 0.346503 1.53744 0
M  V30 1181 C 119.496 -0.248612 2.00565 0
M  V30 1182 C 119.817 -1.5083 1.23593 0
M  V30 1183 O 119.087 -1.92858 0.343912 0
M  V30 1184 H 117.667 -0.0948564 0.740953 0
M  V30 1185 H 120.329 0.468341 1.89189 0
M  V30 1186 H 119.425 -0.488994 3.08245 0
M  V30 1187 N 119.726 -1.57421 0.075193 0
M  V30 1188 C 120.656 -2.15942 -0.888324 0
M  V30 1189 C 121.637 -1.08737 -1.30806 0
M  V30 1190 O 122.822 -1.36787 -1.37851 0
M  V30 1191 C 119.952 -2.72379 -2.1547 0
M  V30 1192 C 118.906 -3.8478 -1.87425 0
M  V30 1193 C 118.232 -4.27834 -3.20721 0
M  V30 1194 C 119.532 -5.08869 -1.17684 0
M  V30 1195 H 121.226 -2.96705 -0.400799 0
M  V30 1196 H 118.772 -1.42723 -0.191342 0
M  V30 1197 H 120.725 -3.11965 -2.83295 0
M  V30 1198 H 119.449 -1.88841 -2.6647 0
M  V30 1199 H 118.108 -3.45703 -1.22004 0
M  V30 1200 H 117.756 -3.41214 -3.6957 0
M  V30 1201 H 117.456 -5.03605 -3.02746 0
M  V30 1202 H 118.98 -4.70039 -3.89738 0
M  V30 1203 H 120.394 -5.4575 -1.75584 0
M  V30 1204 H 118.791 -5.8994 -1.09956 0
M  V30 1205 H 119.861 -4.84648 -0.156453 0
M  V30 1206 N 121.204 0.198386 -1.56346 0
M  V30 1207 C 122.154 1.2499 -1.90687 0
M  V30 1208 C 123.138 1.41158 -0.772217 0
M  V30 1209 O 124.33 1.43584 -1.03502 0
M  V30 1210 C 121.459 2.59542 -2.24706 0
M  V30 1211 C 120.545 2.47181 -3.44619 0
M  V30 1212 N 120.936 2.04495 -4.62618 0
M  V30 1213 C 119.234 2.78082 -3.48692 0
M  V30 1214 C 119.935 2.03945 -5.44776 0
M  V30 1215 N 118.911 2.45323 -4.85095 0
M  V30 1216 H 122.713 0.911149 -2.7942 0
M  V30 1217 H 120.227 0.40684 -1.57221 0
M  V30 1218 H 122.224 3.3549 -2.47491 0
M  V30 1219 H 120.884 2.94244 -1.37298 0
M  V30 1220 H 121.895 1.75256 -4.87345 0
M  V30 1221 H 118.572 3.17002 -2.71691 0
M  V30 1222 H 119.962 1.72872 -6.4928 0
M  V30 1223 N 122.682 1.50554 0.465978 0
M  V30 1224 C 123.612 1.72722 1.57128 0
M  V30 1225 C 124.593 0.576294 1.6004 0
M  V30 1226 O 125.778 0.81598 1.76225 0
M  V30 1227 C 122.908 1.82605 2.95419 0
M  V30 1228 C 121.862 2.97835 3.07373 0
M  V30 1229 C 121.188 2.92867 4.47363 0
M  V30 1230 C 122.488 4.38265 2.84114 0
M  V30 1231 H 124.182 2.65267 1.38829 0
M  V30 1232 H 121.728 1.2765 0.666441 0
M  V30 1233 H 123.681 1.96698 3.72677 0
M  V30 1234 H 122.405 0.866858 3.14886 0
M  V30 1235 H 121.064 2.83401 2.3255 0
M  V30 1236 H 120.712 1.94783 4.63755 0
M  V30 1237 H 120.412 3.70227 4.56296 0
M  V30 1238 H 121.936 3.09015 5.26633 0
M  V30 1239 H 123.35 4.53198 3.51118 0
M  V30 1240 H 121.747 5.17115 3.04487 0
M  V30 1241 H 122.817 4.50281 1.7993 0
M  V30 1242 N 124.16 -0.719506 1.40217 0
M  V30 1243 C 125.406 -1.48152 1.38488 0
M  V30 1244 C 125.739 -1.94195 -0.0141867 0
M  V30 1245 O 125.014 -1.67884 -0.982096 0
M  V30 1246 C 125.297 -2.71035 2.37091 0
M  V30 1247 C 125.15 -2.30912 3.86005 0
M  V30 1248 C 126.469 -3.73182 2.33288 0
M  V30 1249 H 123.588 -0.537395 0.504357 0
M  V30 1250 H 126.23 -0.821472 1.71324 0
M  V30 1251 H 124.38 -3.27352 2.0922 0
M  V30 1252 H 126.052 -1.80107 4.24687 0
M  V30 1253 H 124.295 -1.62958 4.02029 0
M  V30 1254 H 124.966 -3.18978 4.50508 0
M  V30 1255 H 127.442 -3.26485 2.57966 0
M  V30 1256 H 126.318 -4.56806 3.04334 0
M  V30 1257 H 126.579 -4.21202 1.34317 0
M  V30 1258 N 125.638 -1.25649 -0.95132 0
M  V30 1259 C 126.585 -1.06323 -2.04851 0
M  V30 1260 C 127.555 0.0286491 -1.66075 0
M  V30 1261 O 128.74 -0.12917 -1.90362 0
M  V30 1262 C 125.88 -0.691529 -3.381 0
M  V30 1263 C 124.993 -1.85861 -3.89974 0
M  V30 1264 C 124.128 -1.43096 -5.11563 0
M  V30 1265 C 123.167 -2.56696 -5.55674 0
M  V30 1266 N 122.304 -2.14684 -6.68472 0
M  V30 1267 H 127.144 -2.00222 -2.20715 0
M  V30 1268 H 124.681 -0.997027 -1.08156 0
M  V30 1269 H 126.639 -0.456963 -4.1469 0
M  V30 1270 H 125.269 0.210474 -3.22113 0
M  V30 1271 H 124.321 -2.20639 -3.09875 0
M  V30 1272 H 125.633 -2.71161 -4.18657 0
M  V30 1273 H 124.787 -1.15624 -5.9558 0
M  V30 1274 H 123.526 -0.548722 -4.84603 0
M  V30 1275 H 122.531 -2.84909 -4.7022 0
M  V30 1276 H 123.756 -3.45503 -5.8464 0
M  V30 1277 H 121.702 -1.28881 -6.43215 0
M  V30 1278 H 121.619 -2.9353 -6.96689 0
M  V30 1279 H 122.887 -1.90397 -7.5589 0
M  V30 1280 N 127.117 1.15442 -1.07289 0
M  V30 1281 C 128.049 2.19773 -0.650585 0
M  V30 1282 C 129.062 1.60076 0.296572 0
M  V30 1283 O 130.251 1.78293 0.0859905 0
M  V30 1284 C 127.351 3.38838 0.0650398 0
M  V30 1285 C 126.524 4.2808 -0.898141 0
M  V30 1286 C 125.583 5.2574 -0.219926 0
M  V30 1287 O 124.609 5.62654 -0.860773 0
M  V30 1288 N 125.811 5.71205 1.03466 0
M  V30 1289 H 128.576 2.56622 -1.54808 0
M  V30 1290 H 126.137 1.30551 -0.957494 0
M  V30 1291 H 128.129 4.01222 0.529415 0
M  V30 1292 H 126.699 3.00409 0.864466 0
M  V30 1293 H 125.919 3.62804 -1.54165 0
M  V30 1294 H 127.207 4.84577 -1.5512 0
M  V30 1295 H 126.605 5.43325 1.57526 0
M  V30 1296 H 125.162 6.35633 1.44272 0
M  V30 1297 N 128.595 0.856903 1.32268 0
M  V30 1298 C 129.843 0.460474 1.96784 0
M  V30 1299 C 130.164 -0.987701 1.68135 0
M  V30 1300 O 129.434 -1.69058 0.989765 0
M  V30 1301 H 128.014 0.167289 0.728027 0
M  V30 1302 H 130.676 1.09383 1.61312 0
M  V30 1303 H 129.772 0.60739 3.06133 0
M  V30 1304 N 130.073 -1.45103 0.615059 0
M  V30 1305 C 131.489 -1.57137 0.279322 0
M  V30 1306 C 131.689 -1.60523 -1.21797 0
M  V30 1307 O 130.745 -1.53956 -2.00134 0
M  V30 1308 C 132.058 -2.85062 0.957083 0
M  V30 1309 C 133.606 -2.98749 0.933706 0
M  V30 1310 C 134.081 -4.29455 1.59162 0
M  V30 1311 N 135.572 -4.36231 1.55746 0
M  V30 1312 C 136.307 -5.36051 2.0356 0
M  V30 1313 N 135.803 -6.42367 2.59494 0
M  V30 1314 N 137.596 -5.27456 1.94284 0
M  V30 1315 H 129.747 -1.41148 1.58717 0
M  V30 1316 H 132.01 -0.675331 0.665306 0
M  V30 1317 H 131.716 -2.88488 2.01166 0
M  V30 1318 H 131.59 -3.7407 0.48494 0
M  V30 1319 H 133.977 -2.94886 -0.112347 0
M  V30 1320 H 134.058 -2.11132 1.44419 0
M  V30 1321 H 133.702 -4.34077 2.63704 0
M  V30 1322 H 133.632 -5.15901 1.0561 0
M  V30 1323 H 136.123 -3.60011 1.14893 0
M  V30 1324 H 136.436 -7.14793 2.93752 0
M  V30 1325 H 134.781 -6.43097 2.63537 0
M  V30 1326 H 137.972 -4.43308 1.5032 0
M  V30 1327 H 138.145 -6.05099 2.3186 0
M  V30 1328 N 131.551 -0.354651 -1.53558 0
M  V30 1329 C 132.828 0.294281 -1.93374 0
M  V30 1330 C 133.208 1.67313 -1.28723 0
M  V30 1331 O 132.556 2.24179 -0.442247 0
M  V30 1332 C 132.766 0.355445 -3.47185 0
M  V30 1333 C 134.114 0.601007 -4.20325 0
M  V30 1334 O 135.138 0.437106 -3.53508 0
M  V30 1335 O 133.997 0.919322 -5.38712 0
M  V30 1336 H 131.091 0.174033 -0.808481 0
M  V30 1337 H 133.637 -0.406638 -1.64756 0
M  V30 1338 H 132.409 -0.611729 -3.86489 0
M  V30 1339 H 132.032 1.1027 -3.82003 0
M  V30 1340 N 133.029 1.57378 -0.0835403 0
M  V30 1341 C 134.445 1.57246 0.273109 0
M  V30 1342 C 134.645 1.09385 1.69225 0
M  V30 1343 O 133.701 0.765051 2.40631 0
M  V30 1344 C 135.014 3.00614 0.0720628 0
M  V30 1345 C 136.562 3.12684 0.1407 0
M  V30 1346 C 137.037 4.57989 -0.0322094 0
M  V30 1347 N 138.528 4.63194 0.0230085 0
M  V30 1348 C 139.263 5.73335 -0.0861941 0
M  V30 1349 N 138.759 6.9235 -0.24958 0
M  V30 1350 N 140.552 5.62093 -0.0282886 0
M  V30 1351 H 132.703 1.86801 -1.0109 0
M  V30 1352 H 134.966 0.861687 -0.395222 0
M  V30 1353 H 134.672 3.39786 -0.907662 0
M  V30 1354 H 134.546 3.68193 0.81936 0
M  V30 1355 H 136.933 2.73391 1.11092 0
M  V30 1356 H 137.014 2.47719 -0.637896 0
M  V30 1357 H 136.658 4.97973 -0.999247 0
M  V30 1358 H 136.588 5.21 0.765937 0
M  V30 1359 H 139.079 3.77613 0.14722 0
M  V30 1360 H 139.392 7.72117 -0.324733 0
M  V30 1361 H 137.737 6.94415 -0.285097 0
M  V30 1362 H 140.928 4.67997 0.0981408 0
M  V30 1363 H 141.101 6.47895 -0.116845 0
M  V30 1364 N 134.507 -0.190092 1.56449 0
M  V30 1365 C 135.454 -1.23557 1.94942 0
M  V30 1366 C 136.424 -1.44972 0.810696 0
M  V30 1367 O 137.609 -1.58023 1.06927 0
M  V30 1368 C 134.749 -2.57416 2.2985 0
M  V30 1369 C 133.862 -2.43537 3.5681 0
M  V30 1370 C 132.997 -3.70134 3.81017 0
M  V30 1371 C 132.036 -3.51109 5.01387 0
M  V30 1372 N 131.173 -4.6973 5.21822 0
M  V30 1373 H 136.013 -0.900304 2.84075 0
M  V30 1374 H 133.55 -0.43318 1.40577 0
M  V30 1375 H 135.508 -3.35409 2.48106 0
M  V30 1376 H 134.138 -2.88975 1.43852 0
M  V30 1377 H 133.19 -1.56816 3.46573 0
M  V30 1378 H 134.502 -2.25415 4.4496 0
M  V30 1379 H 133.656 -4.56566 3.9954 0
M  V30 1380 H 132.395 -3.91215 2.91207 0
M  V30 1381 H 131.4 -2.63063 4.82782 0
M  V30 1382 H 132.625 -3.31468 5.9271 0
M  V30 1383 H 130.571 -4.91065 4.34961 0
M  V30 1384 H 130.488 -4.54452 6.0416 0
M  V30 1385 H 131.756 -5.57499 5.44808 0
M  V30 1386 N 135.985 -1.50799 -0.457987 0
M  V30 1387 C 136.932 -1.70617 -1.5543 0
M  V30 1388 C 137.902 -0.547562 -1.56815 0
M  V30 1389 O 139.087 -0.779647 -1.74144 0
M  V30 1390 C 136.227 -1.81831 -2.93311 0
M  V30 1391 C 135.34 -3.09278 -3.01615 0
M  V30 1392 C 134.475 -3.11209 -4.30491 0
M  V30 1393 C 133.514 -4.33055 -4.32585 0
M  V30 1394 N 132.651 -4.32652 -5.52952 0
M  V30 1395 H 137.491 -2.64207 -1.37836 0
M  V30 1396 H 135.028 -1.30959 -0.669937 0
M  V30 1397 H 136.986 -1.86314 -3.73287 0
M  V30 1398 H 135.616 -0.916685 -3.0951 0
M  V30 1399 H 134.668 -3.14203 -2.1443 0
M  V30 1400 H 135.98 -3.99233 -2.99022 0
M  V30 1401 H 135.134 -3.14494 -5.18824 0
M  V30 1402 H 133.873 -2.19106 -4.35711 0
M  V30 1403 H 132.878 -4.29969 -3.42647 0
M  V30 1404 H 134.103 -5.264 -4.29046 0
M  V30 1405 H 132.049 -3.43409 -5.58933 0
M  V30 1406 H 131.966 -5.16392 -5.52155 0
M  V30 1407 H 133.234 -4.40101 -6.43375 0
M  V30 1408 N 137.463 0.71206 -1.40597 0
M  V30 1409 C 138.712 1.46754 -1.38369 0
M  V30 1410 C 139.025 1.95598 0.0097839 0
M  V30 1411 O 140.231 2.71059 0.154677 0
M  V30 1412 C 138.687 2.65289 -2.43207 0
M  V30 1413 C 138.295 2.23301 -3.88382 0
M  V30 1414 C 140.039 3.43008 -2.50091 0
M  V30 1415 C 137.946 3.38696 -4.84808 0
M  V30 1416 H 136.876 0.55118 -0.514506 0
M  V30 1417 H 139.527 0.774616 -1.66349 0
M  V30 1418 H 137.909 3.36769 -2.08332 0
M  V30 1419 H 139.083 1.59218 -4.32419 0
M  V30 1420 H 137.398 1.58618 -3.85006 0
M  V30 1421 H 139.995 4.28881 -3.1932 0
M  V30 1422 H 140.338 3.87065 -1.53253 0
M  V30 1423 H 140.871 2.78574 -2.83974 0
M  V30 1424 H 137.61 2.99668 -5.82992 0
M  V30 1425 H 137.13 4.01683 -4.45433 0
M  V30 1426 H 138.809 4.04712 -5.04794 0
M  V30 1427 N 138.941 1.26152 0.944643 0
M  V30 1428 C 140.218 1.02247 1.66748 0
M  V30 1429 C 140.598 -0.448202 2.06287 0
M  V30 1430 O 139.946 -1.42779 1.78399 0
M  V30 1431 C 140.156 1.96788 2.88228 0
M  V30 1432 C 141.504 2.25201 3.59958 0
M  V30 1433 O 142.528 1.94626 2.98327 0
M  V30 1434 O 141.387 2.77242 4.70956 0
M  V30 1435 H 138.481 0.388517 0.730057 0
M  V30 1436 H 141.027 1.37348 0.99668 0
M  V30 1437 H 139.799 2.96047 2.55875 0
M  V30 1438 H 139.422 1.62145 3.63035 0
M  V30 1439 N 140.419 -1.14872 1.07899 0
M  V30 1440 C 141.644 -1.90202 0.826926 0
M  V30 1441 C 142.069 -1.77774 -0.614664 0
M  V30 1442 O 141.427 -1.11431 -1.43013 0
M  V30 1443 C 141.475 -3.38352 1.24702 0
M  V30 1444 O 140.579 -4.10497 0.39575 0
M  V30 1445 H 139.92 -0.591968 0.300782 0
M  V30 1446 H 142.45 -1.45437 1.43907 0
M  V30 1447 H 142.46 -3.89156 1.22563 0
M  V30 1448 H 141.135 -3.46715 2.29698 0
M  V30 1449 H 139.712 -3.69796 0.480117 0
M  V30 1450 N 141.898 -0.863906 -1.31812 0
M  V30 1451 C 142.83 -0.272485 -2.27575 0
M  V30 1452 C 143.843 0.56104 -1.52827 0
M  V30 1453 O 145.032 0.384021 -1.7432 0
M  V30 1454 C 142.132 0.63283 -3.32939 0
M  V30 1455 C 141.305 -0.166902 -4.37081 0
M  V30 1456 C 140.364 0.665608 -5.21973 0
M  V30 1457 O 139.39 0.0958091 -5.69119 0
M  V30 1458 N 140.592 1.9787 -5.45736 0
M  V30 1459 H 143.357 -1.0954 -2.78964 0
M  V30 1460 H 140.918 -0.724791 -1.4477 0
M  V30 1461 H 142.91 1.19532 -3.86645 0
M  V30 1462 H 141.48 1.35642 -2.81638 0
M  V30 1463 H 140.7 -0.910838 -3.83533 0
M  V30 1464 H 141.988 -0.715874 -5.03739 0
M  V30 1465 H 141.386 2.46484 -5.09178 0
M  V30 1466 H 139.943 2.48911 -6.024 0
M  V30 1467 N 143.376 1.44774 -0.622745 0
M  V30 1468 C 144.792 1.56986 -0.287652 0
M  V30 1469 C 144.992 1.61167 1.20944 0
M  V30 1470 O 144.048 1.55015 1.99315 0
M  V30 1471 C 145.361 2.84551 -0.972188 0
M  V30 1472 C 146.909 2.9825 -0.949536 0
M  V30 1473 C 147.384 4.28605 -1.61437 0
M  V30 1474 N 148.875 4.35399 -1.58057 0
M  V30 1475 C 149.61 5.34964 -2.064 0
M  V30 1476 N 149.106 6.40981 -2.62897 0
M  V30 1477 N 150.899 5.26419 -1.97078 0
M  V30 1478 H 143.05 1.40304 -1.59463 0
M  V30 1479 H 145.313 0.671794 -0.668878 0
M  V30 1480 H 145.019 2.87417 -2.02693 0
M  V30 1481 H 144.893 3.73807 -0.504771 0
M  V30 1482 H 147.28 2.94941 0.0967067 0
M  V30 1483 H 147.361 2.10364 -1.45536 0
M  V30 1484 H 147.005 4.32672 -2.66002 0
M  V30 1485 H 146.935 5.15334 -1.08344 0
M  V30 1486 H 149.426 3.59397 -1.16801 0
M  V30 1487 H 149.739 7.13225 -2.97539 0
M  V30 1488 H 148.084 6.4169 -2.66943 0
M  V30 1489 H 151.275 4.42504 -1.52669 0
M  V30 1490 H 151.448 6.03861 -2.35066 0
M  V30 1491 N 144.854 0.36279 1.53368 0
M  V30 1492 C 146.131 -0.284021 1.93527 0
M  V30 1493 C 146.511 -1.66628 1.29608 0
M  V30 1494 O 145.859 -2.23942 0.45413 0
M  V30 1495 C 146.069 -0.337028 3.47369 0
M  V30 1496 C 147.417 -0.578708 4.20638 0
M  V30 1497 O 148.441 -0.418352 3.53735 0
M  V30 1498 O 147.3 -0.89074 5.39192 0
M  V30 1499 H 144.394 -0.169743 0.809393 0
M  V30 1500 H 146.94 0.41537 1.64538 0
M  V30 1501 H 145.712 0.632217 3.86159 0
M  V30 1502 H 145.335 -1.08243 3.82582 0
M  V30 1503 N 146.332 -1.57332 0.0918853 0
M  V30 1504 C 147.579 -1.94236 -0.572577 0
M  V30 1505 C 147.907 -0.973398 -1.6839 0
M  V30 1506 O 147.162 0.00756912 -1.95699 0
M  V30 1507 C 147.461 -3.37689 -1.17051 0
M  V30 1508 C 147.127 -4.50527 -0.183304 0
M  V30 1509 C 145.789 -4.81119 0.0882276 0
M  V30 1510 C 148.141 -5.18883 0.49095 0
M  V30 1511 C 145.469 -5.77395 1.04076 0
M  V30 1512 C 147.821 -6.1618 1.43193 0
M  V30 1513 C 146.485 -6.45179 1.71173 0
M  V30 1514 H 145.755 -0.710762 -0.209521 0
M  V30 1515 H 148.402 -1.9077 0.167036 0
M  V30 1516 H 146.707 -3.37718 -1.9863 0
M  V30 1517 H 148.404 -3.63543 -1.69227 0
M  V30 1518 H 144.994 -4.26681 -0.405124 0
M  V30 1519 H 149.178 -4.95427 0.294312 0
M  V30 1520 H 144.434 -5.98179 1.26457 0
M  V30 1521 H 148.608 -6.68243 1.96023 0
M  V30 1522 H 146.235 -7.1959 2.4514 0
M  V30 1523 N 147.81 0.181792 -1.56548 0
M  V30 1524 C 149.038 0.915947 -1.85521 0
M  V30 1525 C 149.453 1.76282 -0.676016 0
M  V30 1526 O 148.81 1.79012 0.355077 0
M  V30 1527 C 148.861 1.80126 -3.13427 0
M  V30 1528 O 148.582 0.988562 -4.26801 0
M  V30 1529 C 150.083 2.64597 -3.55673 0
M  V30 1530 H 147.303 0.26661 -0.61576 0
M  V30 1531 H 149.847 0.185039 -2.03661 0
M  V30 1532 H 148.002 2.48563 -2.97145 0
M  V30 1533 H 148.416 1.59308 -4.99721 0
M  V30 1534 H 149.89 3.2235 -4.48101 0
M  V30 1535 H 150.367 3.38958 -2.79292 0
M  V30 1536 H 150.973 2.0151 -3.74532 0
M  V30 1537 N 149.288 1.51039 0.449983 0
M  V30 1538 C 150.534 1.63322 1.20223 0
M  V30 1539 C 150.867 0.34241 1.91158 0
M  V30 1540 O 150.142 -0.657344 1.83055 0
M  V30 1541 C 150.425 2.82801 2.22925 0
M  V30 1542 C 150.278 4.21823 1.56157 0
M  V30 1543 C 151.597 2.97807 3.24035 0
M  V30 1544 H 148.716 0.594407 0.435718 0
M  V30 1545 H 151.358 1.83489 0.493136 0
M  V30 1546 H 149.508 2.65738 2.834 0
M  V30 1547 H 151.18 4.50526 0.991162 0
M  V30 1548 H 149.423 4.25105 0.864172 0
M  V30 1549 H 150.094 5.01391 2.30891 0
M  V30 1550 H 152.57 3.13497 2.73603 0
M  V30 1551 H 151.446 3.82992 3.93202 0
M  V30 1552 H 151.707 2.09328 3.89402 0
M  V30 1553 N 150.766 -0.704594 1.40972 0
M  V30 1554 C 151.729 -1.80035 1.41845 0
M  V30 1555 C 152.729 -1.57774 0.310474 0
M  V30 1556 O 153.919 -1.64613 0.56992 0
M  V30 1557 C 151.051 -3.18284 1.22098 0
M  V30 1558 H 152.244 -1.80658 2.3938 0
M  V30 1559 H 149.797 -0.911329 1.26982 0
M  V30 1560 H 150.532 -3.23306 0.253672 0
M  V30 1561 H 150.317 -3.35843 2.02366 0
M  V30 1562 H 151.807 -3.98289 1.25522 0
M  V30 1563 N 152.244 -1.26651 -0.937939 0
M  V30 1564 C 153.469 -1.15279 -1.72411 0
M  V30 1565 C 153.894 0.287866 -1.85884 0
M  V30 1566 O 153.252 1.20855 -1.35143 0
M  V30 1567 C 153.3 -1.83028 -3.10698 0
M  V30 1568 O 152.404 -1.12128 -3.96864 0
M  V30 1569 H 151.745 -0.401504 -0.528858 0
M  V30 1570 H 154.275 -1.67531 -1.1745 0
M  V30 1571 H 154.285 -1.89981 -3.6107 0
M  V30 1572 H 152.96 -2.87833 -3.00208 0
M  V30 1573 H 151.537 -1.13173 -3.55312 0
M  V30 1574 N 153.722 1.14298 -1.08507 0
M  V30 1575 C 155.133 1.66926 -0.836227 0
M  V30 1576 C 155.484 1.85576 0.63686 0
M  V30 1577 O 154.609 1.56767 1.49175 0
M  V30 1578 C 155.204 3.03219 -1.51142 0
M  V30 1579 C 153.763 3.52876 -1.30979 0
M  V30 1580 C 152.91 2.2833 -1.57356 0
M  V30 1581 H 155.861 0.983491 -1.24552 0
M  V30 1582 H 155.882 3.68726 -0.939211 0
M  V30 1583 H 155.394 2.89612 -2.58353 0
M  V30 1584 H 153.495 3.71703 -0.258429 0
M  V30 1585 H 153.608 4.33586 -2.03814 0
M  V30 1586 H 151.972 2.34454 -0.995164 0
M  V30 1587 H 152.755 2.17298 -2.65775 0
M  V30 1588 N 155.201 0.870884 1.31352 0
M  V30 1589 C 156.164 0.332243 2.26779 0
M  V30 1590 C 157.164 -0.517302 1.52252 0
M  V30 1591 O 158.354 -0.326477 1.71113 0
M  V30 1592 C 155.486 -0.528066 3.36785 0
M  V30 1593 H 156.679 1.17469 2.75937 0
M  V30 1594 H 154.232 0.64655 1.423 0
M  V30 1595 H 154.967 -1.39167 2.92922 0
M  V30 1596 H 154.752 0.0802582 3.92018 0
M  V30 1597 H 156.242 -0.897179 4.07849 0
M  V30 1598 N 156.679 -1.44442 0.630414 0
M  V30 1599 C 157.589 -2.34476 -0.0761693 0
M  V30 1600 C 158.605 -1.52576 -0.836449 0
M  V30 1601 O 159.781 -1.85307 -0.788874 0
M  V30 1602 C 156.846 -3.30545 -1.04599 0
M  V30 1603 C 155.907 -4.28352 -0.28516 0
M  V30 1604 C 155.14 -5.19831 -1.20878 0
M  V30 1605 O 155.363 -5.15223 -2.44747 0
M  V30 1606 O 154.297 -5.97892 -0.693491 0
M  V30 1607 H 158.123 -2.96345 0.664324 0
M  V30 1608 H 155.708 -1.44203 0.39061 0
M  V30 1609 H 157.59 -3.89681 -1.60396 0
M  V30 1610 H 156.265 -2.7121 -1.76711 0
M  V30 1611 H 155.172 -3.72764 0.315837 0
M  V30 1612 H 156.505 -4.90605 0.395924 0
M  V30 1613 N 158.157 -0.370918 -1.53173 0
M  V30 1614 C 159.404 0.217102 -2.01333 0
M  V30 1615 C 159.732 1.48338 -1.25802 0
M  V30 1616 O 158.987 1.92698 -0.34146 0
M  V30 1617 C 159.286 0.549696 -3.53147 0
M  V30 1618 C 158.952 -0.622872 -4.46577 0
M  V30 1619 C 157.614 -0.944595 -4.71838 0
M  V30 1620 C 159.966 -1.40819 -5.01816 0
M  V30 1621 C 157.294 -2.05351 -5.49589 0
M  V30 1622 C 159.646 -2.50757 -5.80778 0
M  V30 1623 C 158.31 -2.83458 -6.04324 0
M  V30 1624 H 157.58 0.0794431 -0.736729 0
M  V30 1625 H 160.227 -0.504481 -1.84736 0
M  V30 1626 H 158.532 1.35237 -3.6772 0
M  V30 1627 H 160.229 1.017 -3.87889 0
M  V30 1628 H 156.819 -0.36209 -4.27068 0
M  V30 1629 H 161.003 -1.17289 -4.82242 0
M  V30 1630 H 156.259 -2.3108 -5.6605 0
M  V30 1631 H 160.433 -3.12022 -6.22588 0
M  V30 1632 H 158.06 -3.69508 -6.64355 0
M  V30 1633 N 159.635 1.57281 -0.100228 0
M  V30 1634 C 160.881 1.94826 0.563101 0
M  V30 1635 C 161.214 0.982475 1.67514 0
M  V30 1636 O 160.489 0.0164069 1.94493 0
M  V30 1637 C 160.772 3.42453 1.11346 0
M  V30 1638 C 160.625 4.498 0.00612081 0
M  V30 1639 C 161.944 3.91506 2.01024 0
M  V30 1640 H 159.063 0.708428 0.203221 0
M  V30 1641 H 161.705 1.8922 -0.171979 0
M  V30 1642 H 159.855 3.47361 1.7399 0
M  V30 1643 H 161.527 4.57 -0.628357 0
M  V30 1644 H 159.77 4.28756 -0.659581 0
M  V30 1645 H 160.441 5.50306 0.432109 0
M  V30 1646 H 162.917 3.88784 1.48278 0
M  V30 1647 H 161.793 4.95358 2.36457 0
M  V30 1648 H 162.054 3.31099 2.92961 0
M  V30 1649 N 161.113 -0.173488 1.56642 0
M  V30 1650 C 162.341 -0.906095 1.86004 0
M  V30 1651 C 162.756 -1.75921 0.685355 0
M  V30 1652 O 162.113 -1.79198 -0.345578 0
M  V30 1653 C 162.164 -1.78462 3.14378 0
M  V30 1654 O 161.885 -0.965914 4.27319 0
M  V30 1655 C 163.386 -2.62707 3.57071 0
M  V30 1656 H 160.606 -0.263341 0.617165 0
M  V30 1657 H 163.15 -0.174236 2.03756 0
M  V30 1658 H 161.305 -2.46984 2.98459 0
M  V30 1659 H 161.719 -1.56655 5.00559 0
M  V30 1660 H 163.193 -3.19969 4.49804 0
M  V30 1661 H 163.67 -3.37472 2.81086 0
M  V30 1662 H 164.276 -1.99521 3.75595 0
M  V30 1663 N 162.591 -1.51276 -0.441967 0
M  V30 1664 C 164.007 -1.39349 -0.778083 0
M  V30 1665 C 164.207 -0.472212 -1.95889 0
M  V30 1666 O 163.263 0.0743551 -2.5239 0
M  V30 1667 C 164.576 -2.81292 -1.0628 0
M  V30 1668 C 166.124 -2.9041 -1.16751 0
M  V30 1669 C 166.599 -4.33251 -1.48519 0
M  V30 1670 N 168.09 -4.36336 -1.55453 0
M  V30 1671 C 168.825 -5.43885 -1.81596 0
M  V30 1672 N 168.321 -6.61601 -2.05562 0
M  V30 1673 N 170.114 -5.3136 -1.8334 0
M  V30 1674 H 162.265 -2.09729 0.335774 0
M  V30 1675 H 164.528 -0.943925 0.0878028 0
M  V30 1676 H 164.234 -3.50678 -0.267905 0
M  V30 1677 H 164.108 -3.20334 -1.99163 0
M  V30 1678 H 166.495 -2.21225 -1.95304 0
M  V30 1679 H 166.576 -2.54871 -0.217801 0
M  V30 1680 H 166.22 -5.02984 -0.704958 0
M  V30 1681 H 166.15 -4.66299 -2.44689 0
M  V30 1682 H 168.641 -3.51466 -1.38853 0
M  V30 1683 H 168.954 -7.39361 -2.24867 0
M  V30 1684 H 167.299 -6.64725 -2.02894 0
M  V30 1685 H 170.49 -4.38382 -1.64132 0
M  V30 1686 H 170.663 -6.15258 -2.03377 0
M  V30 1687 N 164.069 0.697108 -1.41344 0
M  V30 1688 C 165.316 1.45714 -1.40619 0
M  V30 1689 C 165.644 1.94494 -0.0147907 0
M  V30 1690 O 164.899 1.69794 0.973066 0
M  V30 1691 C 165.198 2.68553 -2.35826 0
M  V30 1692 C 164.864 2.38438 -3.82698 0
M  V30 1693 C 163.526 2.29936 -4.22709 0
M  V30 1694 C 165.878 2.13567 -4.75435 0
M  V30 1695 C 163.206 1.94656 -5.53467 0
M  V30 1696 C 165.558 1.79797 -6.06511 0
M  V30 1697 C 164.222 1.69789 -6.45545 0
M  V30 1698 H 163.492 0.533206 -0.51456 0
M  V30 1699 H 166.139 0.796901 -1.74131 0
M  V30 1700 H 164.444 3.39503 -1.95563 0
M  V30 1701 H 166.141 3.2669 -2.32539 0
M  V30 1702 H 162.731 2.4595 -3.51008 0
M  V30 1703 H 166.915 2.19082 -4.45328 0
M  V30 1704 H 162.171 1.8546 -5.82593 0
M  V30 1705 H 166.345 1.59572 -6.77872 0
M  V30 1706 H 163.972 1.4222 -7.46778 0
M  V30 1707 N 165.547 1.27147 0.931209 0
M  V30 1708 C 166.795 1.13055 1.6752 0
M  V30 1709 C 167.116 -0.324791 1.92276 0
M  V30 1710 O 166.386 -1.22775 1.52654 0
M  V30 1711 H 164.966 0.415391 0.620854 0
M  V30 1712 H 167.628 1.59623 1.11833 0
M  V30 1713 H 166.724 1.65694 2.64485 0
M  V30 1714 N 167.025 -1.13721 1.09112 0
M  V30 1715 C 168.273 -1.84559 0.823562 0
M  V30 1716 C 168.594 -1.83754 -0.652658 0
M  V30 1717 O 167.864 -1.29102 -1.47342 0
M  V30 1718 H 166.444 -0.683376 0.301673 0
M  V30 1719 H 169.106 -1.37771 1.37859 0
M  V30 1720 H 168.202 -2.8917 1.17419 0
M  V30 1721 N 168.503 -0.877838 -1.30888 0
M  V30 1722 C 169.451 -0.328662 -2.30266 0
M  V30 1723 C 170.445 0.560496 -1.59859 0
M  V30 1724 O 171.651 0.445722 -1.74394 0
M  V30 1725 H 168.026 -0.0876142 -0.746879 0
M  V30 1726 H 169.997 -1.18061 -2.74051 0
M  V30 1727 C 168.746 0.448071 -3.44801 0
M  V30 1728 H 168.069 -0.226859 -3.99156 0
M  V30 1729 H 169.509 0.797541 -4.16432 0
M  V30 1730 C 167.968 1.64239 -2.94155 0
M  V30 1731 O 168.498 2.74175 -2.93583 0
M  V30 1732 N 166.704 1.47716 -2.50256 0
M  V30 1733 H 166.251 0.582821 -2.5092 0
M  V30 1734 H 166.209 2.27765 -2.16727 0
M  V30 1735 N 169.982 1.44106 -0.638065 0
M  V30 1736 C 170.929 2.30715 0.062701 0
M  V30 1737 C 171.899 1.43882 0.829883 0
M  V30 1738 O 173.084 1.72775 0.809532 0
M  V30 1739 C 170.224 3.29258 1.03358 0
M  V30 1740 C 169.337 4.31192 0.26409 0
M  V30 1741 C 168.472 5.16825 1.22741 0
M  V30 1742 C 167.511 6.10462 0.447475 0
M  V30 1743 N 166.648 6.8877 1.36161 0
M  V30 1744 H 171.488 2.90096 -0.681781 0
M  V30 1745 H 169.025 1.42925 -0.347988 0
M  V30 1746 H 170.983 3.84886 1.60992 0
M  V30 1747 H 169.613 2.71562 1.74511 0
M  V30 1748 H 168.665 3.77981 -0.428295 0
M  V30 1749 H 169.977 4.97619 -0.343052 0
M  V30 1750 H 169.131 5.77004 1.87487 0
M  V30 1751 H 167.87 4.50488 1.86847 0
M  V30 1752 H 166.875 5.49386 -0.213433 0
M  V30 1753 H 168.1 6.78837 -0.188968 0
M  V30 1754 H 166.046 6.25096 1.98975 0
M  V30 1755 H 165.963 7.51663 0.808656 0
M  V30 1756 H 167.231 7.53467 1.99769 0
M  V30 1757 N 171.46 0.379036 1.52974 0
M  V30 1758 C 172.706 -0.206727 2.01744 0
M  V30 1759 C 173.039 -1.47314 1.26539 0
M  V30 1760 O 172.314 -1.91084 0.362903 0
M  V30 1761 C 172.597 -0.485066 3.56818 0
M  V30 1762 C 172.45 0.795919 4.42702 0
M  V30 1763 C 173.769 -1.28003 4.21074 0
M  V30 1764 H 170.888 -0.0736607 0.73331 0
M  V30 1765 H 173.53 0.506581 1.83122 0
M  V30 1766 H 171.68 -1.09272 3.72816 0
M  V30 1767 H 173.352 1.43307 4.38476 0
M  V30 1768 H 171.595 1.41344 4.10127 0
M  V30 1769 H 172.266 0.555947 5.49193 0
M  V30 1770 H 174.742 -0.765867 4.08991 0
M  V30 1771 H 173.618 -1.44352 5.29579 0
M  V30 1772 H 173.879 -2.29236 3.78026 0
M  V30 1773 N 172.938 -1.57226 0.108567 0
M  V30 1774 C 174.187 -1.94008 -0.551703 0
M  V30 1775 C 174.5 -0.993442 -1.68494 0
M  V30 1776 O 175.706 -1.25551 -2.40726 0
M  V30 1777 C 174.162 -3.44763 -1.03279 0
M  V30 1778 C 173.77 -4.47943 0.0714193 0
M  V30 1779 C 175.514 -3.90483 -1.66503 0
M  V30 1780 C 173.421 -5.89865 -0.425779 0
M  V30 1781 H 172.351 -0.724206 -0.209863 0
M  V30 1782 H 175.002 -1.82547 0.186741 0
M  V30 1783 H 173.384 -3.51422 -1.82533 0
M  V30 1784 H 174.558 -4.52942 0.847365 0
M  V30 1785 H 172.873 -4.11913 0.609669 0
M  V30 1786 H 175.47 -4.93925 -2.04798 0
M  V30 1787 H 175.813 -3.29877 -2.53942 0
M  V30 1788 H 176.346 -3.86581 -0.938074 0
M  V30 1789 H 173.085 -6.54202 0.412316 0
M  V30 1790 H 172.605 -5.88309 -1.16843 0
M  V30 1791 H 174.284 -6.40844 -0.890397 0
M  V30 1792 N 174.416 0.165178 -1.56732 0
M  V30 1793 C 175.326 1.22423 -2.00125 0
M  V30 1794 C 176.342 1.48084 -0.913619 0
M  V30 1795 O 177.518 1.60112 -1.22172 0
M  V30 1796 C 174.583 2.54197 -2.35764 0
M  V30 1797 C 173.644 2.36343 -3.58386 0
M  V30 1798 C 172.877 3.61834 -3.92316 0
M  V30 1799 O 173.1 4.67267 -3.27135 0
M  V30 1800 O 172.034 3.55579 -4.85641 0
M  V30 1801 H 175.86 0.885886 -2.90492 0
M  V30 1802 H 173.445 0.372518 -1.44681 0
M  V30 1803 H 175.327 3.3192 -2.59629 0
M  V30 1804 H 174.002 2.87598 -1.48557 0
M  V30 1805 H 172.909 1.56632 -3.39731 0
M  V30 1806 H 174.242 2.07865 -4.46154 0
M  V30 1807 N 175.894 1.51508 0.433938 0
M  V30 1808 C 176.841 1.73068 1.52696 0
M  V30 1809 C 177.811 0.572441 1.55924 0
M  V30 1810 O 178.996 0.807253 1.72882 0
M  V30 1811 C 176.136 1.86474 2.90381 0
M  V30 1812 C 175.249 3.14037 2.96656 0
M  V30 1813 C 174.384 3.18019 4.25485 0
M  V30 1814 C 173.423 4.39882 4.2564 0
M  V30 1815 N 172.56 4.41394 5.45999 0
M  V30 1816 H 177.4 2.66366 1.33615 0
M  V30 1817 H 174.937 1.32008 0.649018 0
M  V30 1818 H 176.895 1.92229 3.70275 0
M  V30 1819 H 175.525 0.965809 3.08013 0
M  V30 1820 H 174.577 3.17575 2.09404 0
M  V30 1821 H 175.889 4.0394 2.92633 0
M  V30 1822 H 175.043 3.22708 5.13755 0
M  V30 1823 H 173.782 2.2601 4.3217 0
M  V30 1824 H 172.787 4.35366 3.35763 0
M  V30 1825 H 174.012 5.33159 4.20617 0
M  V30 1826 H 171.958 3.52258 5.53399 0
M  V30 1827 H 171.875 5.25111 5.4387 0
M  V30 1828 H 173.143 4.50281 6.36292 0
M  V30 1829 N 177.372 -0.689602 1.41712 0
M  V30 1830 C 178.618 -1.45181 1.41599 0
M  V30 1831 C 178.951 -1.94181 0.0270081 0
M  V30 1832 O 178.226 -1.6993 -0.946265 0
M  V30 1833 C 178.509 -2.65945 2.42787 0
M  V30 1834 C 178.362 -2.22672 3.90816 0
M  V30 1835 C 179.681 -3.68149 2.41151 0
M  V30 1836 H 176.8 -0.526576 0.515642 0
M  V30 1837 H 179.442 -0.784947 1.73028 0
M  V30 1838 H 177.592 -3.2284 2.16116 0
M  V30 1839 H 179.264 -1.71058 4.28412 0
M  V30 1840 H 177.507 -1.54394 4.05395 0
M  V30 1841 H 178.178 -3.0935 4.57172 0
M  V30 1842 H 180.654 -3.2094 2.64834 0
M  V30 1843 H 179.53 -4.50248 3.13955 0
M  V30 1844 H 179.791 -4.18259 1.43221 0
M  V30 1845 N 178.85 -1.27639 -0.924453 0
M  V30 1846 C 179.78 -1.13166 -2.04244 0
M  V30 1847 C 180.761 -0.032256 -1.70069 0
M  V30 1848 O 181.946 -0.207328 -1.9309 0
M  V30 1849 C 179.076 -0.781496 -3.38393 0
M  V30 1850 C 178.03 -1.83449 -3.86692 0
M  V30 1851 C 177.356 -1.33822 -5.17683 0
M  V30 1852 C 178.656 -3.23917 -4.09726 0
M  V30 1853 H 180.35 -2.06689 -2.1661 0
M  V30 1854 H 177.896 -0.995136 -1.04082 0
M  V30 1855 H 179.849 -0.667057 -4.16087 0
M  V30 1856 H 178.573 0.189439 -3.2605 0
M  V30 1857 H 177.232 -1.93789 -3.11193 0
M  V30 1858 H 176.88 -0.35665 -5.01734 0
M  V30 1859 H 176.58 -2.04224 -5.50968 0
M  V30 1860 H 178.104 -1.23679 -5.97943 0
M  V30 1861 H 179.518 -3.16559 -4.77978 0
M  V30 1862 H 177.915 -3.92059 -4.54324 0
M  V30 1863 H 178.985 -3.68729 -3.14908 0
M  V30 1864 N 180.328 1.1314 -1.09713 0
M  V30 1865 C 181.577 1.83838 -0.829851 0
M  V30 1866 C 181.89 1.84599 0.646728 0
M  V30 1867 O 183.096 2.51218 1.02965 0
M  V30 1868 C 181.552 3.30069 -1.43466 0
M  V30 1869 C 181.16 3.37688 -2.94399 0
M  V30 1870 C 182.904 4.05788 -1.24645 0
M  V30 1871 C 180.811 4.78209 -3.47952 0
M  V30 1872 H 179.741 0.68877 -0.306777 0
M  V30 1873 H 182.392 1.27448 -1.3202 0
M  V30 1874 H 180.774 3.8628 -0.871996 0
M  V30 1875 H 181.948 2.91456 -3.56918 0
M  V30 1876 H 180.263 2.75436 -3.12289 0
M  V30 1877 H 182.86 5.09535 -1.62107 0
M  V30 1878 H 183.203 4.15878 -0.187357 0
M  V30 1879 H 183.736 3.55915 -1.77678 0
M  V30 1880 H 180.475 4.73311 -4.53495 0
M  V30 1881 H 179.995 5.24924 -2.90198 0
M  V30 1882 H 181.674 5.47133 -3.45332 0
M  V30 1883 N 181.806 0.884767 1.30421 0
M  V30 1884 C 182.769 0.356277 2.26414 0
M  V30 1885 C 183.769 -0.501124 1.52792 0
M  V30 1886 O 184.959 -0.30831 1.7145 0
M  V30 1887 C 182.091 -0.492316 3.37326 0
M  V30 1888 H 183.284 1.20389 2.74675 0
M  V30 1889 H 180.837 0.661607 1.41607 0
M  V30 1890 H 181.572 -1.36052 2.94381 0
M  V30 1891 H 181.357 0.121832 3.91911 0
M  V30 1892 H 182.847 -0.853871 4.08777 0
M  V30 1893 N 183.284 -1.43765 0.645699 0
M  V30 1894 C 184.232 -2.32516 -0.0624849 0
M  V30 1895 C 185.226 -1.48183 -0.820855 0
M  V30 1896 O 186.432 -1.64439 -0.732106 0
M  V30 1897 H 182.807 -0.750989 -0.0389864 0
M  V30 1898 H 184.778 -2.89979 0.703892 0
M  V30 1899 C 183.527 -3.32389 -1.02044 0
M  V30 1900 H 182.85 -3.97301 -0.446312 0
M  V30 1901 H 184.29 -3.97138 -1.48517 0
M  V30 1902 C 182.749 -2.62416 -2.11281 0
M  V30 1903 O 183.279 -2.434 -3.19561 0
M  V30 1904 N 181.485 -2.21913 -1.87624 0
M  V30 1905 H 181.032 -2.37578 -0.995703 0
M  V30 1906 H 180.99 -1.75424 -2.6091 0
M  V30 1907 N 184.763 -0.387143 -1.52771 0
M  V30 1908 C 185.711 0.463953 -2.27926 0
M  V30 1909 C 186.705 1.06493 -1.31741 0
M  V30 1910 O 187.911 1.00565 -1.49287 0
M  V30 1911 H 184.286 0.16837 -0.732909 0
M  V30 1912 H 186.257 -0.19141 -2.97785 0
M  V30 1913 C 185.006 1.5803 -3.09713 0
M  V30 1914 H 184.329 1.12718 -3.83581 0
M  V30 1915 H 185.769 2.15008 -3.65442 0
M  V30 1916 C 184.228 2.53509 -2.2189 0
M  V30 1917 O 184.758 3.56863 -1.84422 0
M  V30 1918 N 182.964 2.23199 -1.86093 0
M  V30 1919 H 182.511 1.39185 -2.16761 0
M  V30 1920 H 182.469 2.87333 -1.27621 0
M  V30 1921 N 186.241 1.57166 -0.116904 0
M  V30 1922 C 187.489 1.94737 0.540533 0
M  V30 1923 C 187.81 1.00096 1.67349 0
M  V30 1924 O 187.08 0.0568854 1.95817 0
M  V30 1925 H 185.66 0.718981 0.202669 0
M  V30 1926 H 188.322 1.94017 -0.185353 0
M  V30 1927 H 187.418 2.97719 0.936483 0
M  V30 1928 N 187.719 -0.156864 1.56817 0
M  V30 1929 C 188.968 -0.869504 1.81996 0
M  V30 1930 C 189.281 -1.82777 0.696545 0
M  V30 1931 O 190.487 -2.58384 0.833658 0
M  V30 1932 C 188.943 -1.59679 3.22538 0
M  V30 1933 C 188.551 -0.681431 4.42787 0
M  V30 1934 C 190.295 -2.2968 3.56997 0
M  V30 1935 C 188.202 -1.40978 5.74351 0
M  V30 1936 H 187.132 -0.328438 0.678708 0
M  V30 1937 H 189.783 -0.1223 1.83092 0
M  V30 1938 H 188.165 -2.38927 3.158 0
M  V30 1939 H 189.339 0.0751166 4.60739 0
M  V30 1940 H 187.654 -0.0903431 4.16302 0
M  V30 1941 H 190.251 -2.84794 4.52544 0
M  V30 1942 H 190.594 -3.05707 2.82576 0
M  V30 1943 H 191.127 -1.57361 3.65352 0
M  V30 1944 H 187.866 -0.691561 6.51842 0
M  V30 1945 H 187.386 -2.13929 5.60352 0
M  V30 1946 H 189.065 -1.95337 6.16808 0
M  V30 1947 N 189.197 -1.51736 -0.425897 0
M  V30 1948 C 190.16 -1.73271 -1.50032 0
M  V30 1949 C 191.16 -0.602639 -1.4908 0
M  V30 1950 O 192.35 -0.87033 -1.509 0
M  V30 1951 C 189.482 -1.79969 -2.89523 0
M  V30 1952 H 190.675 -2.69172 -1.32237 0
M  V30 1953 H 188.228 -1.41899 -0.65532 0
M  V30 1954 H 188.963 -0.859241 -3.1271 0
M  V30 1955 H 188.748 -2.62109 -2.91619 0
M  V30 1956 H 190.238 -1.9843 -3.67444 0
M  V30 1957 N 190.675 0.682077 -1.42076 0
M  V30 1958 C 191.638 1.77756 -1.44691 0
M  V30 1959 C 192.638 1.5726 -0.335535 0
M  V30 1960 O 193.828 1.63686 -0.596037 0
M  V30 1961 C 190.96 3.16301 -1.27146 0
M  V30 1962 H 192.153 1.76826 -2.42224 0
M  V30 1963 H 189.706 0.891012 -1.28416 0
M  V30 1964 H 190.441 3.22862 -0.305075 0
M  V30 1965 H 190.226 3.32581 -2.07683 0
M  V30 1966 H 191.716 3.96241 -1.31843 0
M  V30 1967 N 192.153 1.28127 0.917671 0
M  V30 1968 C 193.399 1.15223 1.66888 0
M  V30 1969 C 193.732 -0.299293 1.9188 0
M  V30 1970 O 193.007 -1.21805 1.51637 0
M  V30 1971 C 193.29 1.94706 3.02922 0
M  V30 1972 C 193.143 3.47898 2.85109 0
M  V30 1973 C 194.462 1.75939 4.03402 0
M  V30 1974 H 191.581 0.419946 0.605652 0
M  V30 1975 H 194.223 1.57398 1.06423 0
M  V30 1976 H 192.373 1.58864 3.54534 0
M  V30 1977 H 194.045 3.93624 2.40537 0
M  V30 1978 H 192.288 3.7373 2.20246 0
M  V30 1979 H 192.959 3.98765 3.81694 0
M  V30 1980 H 195.435 2.07209 3.60837 0
M  V30 1981 H 194.311 2.33931 4.96556 0
M  V30 1982 H 194.572 0.709877 4.36364 0
M  V30 1983 N 193.631 -1.12557 1.10312 0
M  V30 1984 C 194.578 -2.18247 0.750781 0
M  V30 1985 C 195.548 -1.63853 -0.272293 0
M  V30 1986 O 196.733 -1.90195 -0.151862 0
M  V30 1987 C 193.873 -3.44591 0.187379 0
M  V30 1988 C 192.986 -4.13046 1.2656 0
M  V30 1989 C 192.121 -5.27034 0.663978 0
M  V30 1990 C 191.16 -5.87353 1.72287 0
M  V30 1991 N 190.297 -6.92757 1.1416 0
M  V30 1992 H 195.137 -2.47732 1.65628 0
M  V30 1993 H 192.674 -1.21629 0.827337 0
M  V30 1994 H 194.632 -4.16904 -0.157148 0
M  V30 1995 H 193.262 -3.15527 -0.681355 0
M  V30 1996 H 192.314 -3.38924 1.72727 0
M  V30 1997 H 193.626 -4.53947 2.06721 0
M  V30 1998 H 192.78 -6.06104 0.268824 0
M  V30 1999 H 191.519 -4.87407 -0.169082 0
M  V30 2000 H 190.524 -5.06971 2.12746 0
M  V30 2001 H 191.749 -6.29051 2.55875 0
M  V30 2002 H 189.695 -6.5517 0.329984 0
M  V30 2003 H 189.612 -7.3225 1.88007 0
M  V30 2004 H 190.88 -7.75658 0.772956 0
M  V30 2005 N 195.109 -0.891671 -1.2995 0
M  V30 2006 C 196.349 -0.520296 -1.97667 0
M  V30 2007 C 196.713 0.914797 -1.68806 0
M  V30 2008 O 197.914 1.39263 -2.29911 0
M  V30 2009 C 196.185 -0.795222 -3.48441 0
M  V30 2010 S 197.744 -0.526953 -4.35624 0
M  V30 2011 H 194.562 -0.19333 -0.684211 0
M  V30 2012 H 197.164 -1.15238 -1.57926 0
M  V30 2013 H 195.868 -1.83805 -3.66938 0
M  V30 2014 H 195.399 -0.15095 -3.9311 0
M  V30 2015 H 197.414 0.631533 -4.92165 0
M  V30 2016 N 196.587 1.43421 -0.653314 0
M  V30 2017 C 197.52 2.2803 0.0879804 0
M  V30 2018 C 198.498 1.39833 0.82979 0
M  V30 2019 O 199.682 1.69275 0.829341 0
M  V30 2020 C 196.809 3.19247 1.13132 0
M  V30 2021 C 195.855 4.23704 0.487546 0
M  V30 2022 S 196.688 5.30377 -0.738961 0
M  V30 2023 C 197.844 6.25162 0.30384 0
M  V30 2024 H 198.077 2.90554 -0.629739 0
M  V30 2025 H 195.61 1.47934 -0.442156 0
M  V30 2026 H 197.568 3.72346 1.72827 0
M  V30 2027 H 196.229 2.55901 1.82136 0
M  V30 2028 H 195.422 4.87631 1.27407 0
M  V30 2029 H 195.024 3.73983 -0.0352915 0
M  V30 2030 H 197.316 6.67321 1.17 0
M  V30 2031 H 198.259 7.07463 -0.300402 0
M  V30 2032 H 198.667 5.60864 0.63969 0
M  V30 2033 N 198.065 0.39524 1.52563 0
M  V30 2034 C 199.481 0.0454682 1.59535 0
M  V30 2035 C 199.681 -1.44056 1.4089 0
M  V30 2036 O 198.737 -2.20579 1.22888 0
M  V30 2037 C 200.05 0.527963 2.96029 0
M  V30 2038 C 201.598 0.484733 3.09224 0
M  V30 2039 C 202.073 0.943512 4.48176 0
M  V30 2040 N 203.564 0.899765 4.54377 0
M  V30 2041 C 204.299 1.22609 5.60138 0
M  V30 2042 N 203.795 1.62319 6.73516 0
M  V30 2043 N 205.588 1.14696 5.50274 0
M  V30 2044 H 197.739 1.36261 1.62931 0
M  V30 2045 H 200.002 0.558887 0.765735 0
M  V30 2046 H 199.708 1.56607 3.14908 0
M  V30 2047 H 199.582 -0.0698056 3.77135 0
M  V30 2048 H 201.969 -0.544298 2.90037 0
M  V30 2049 H 202.05 1.11838 2.30056 0
M  V30 2050 H 201.694 1.9708 4.68104 0
M  V30 2051 H 201.624 0.286817 5.25818 0
M  V30 2052 H 204.115 0.607632 3.72983 0
M  V30 2053 H 204.428 1.85567 7.5019 0
M  V30 2054 H 202.773 1.66211 6.74833 0
M  V30 2055 H 205.964 0.835701 4.6058 0
M  V30 2056 H 206.137 1.40459 6.32594 0
M  V30 2057 N 199.544 -1.57102 0.125237 0
M  V30 2058 C 200.769 -2.0019 -0.542101 0
M  V30 2059 C 201.194 -1.00449 -1.59034 0
M  V30 2060 O 200.552 0.0229423 -1.81285 0
M  V30 2061 C 200.6 -3.42129 -1.13929 0
M  V30 2062 O 199.704 -3.45307 -2.2547 0
M  V30 2063 H 199.045 -0.650171 -0.134812 0
M  V30 2064 H 201.575 -2.03461 0.215553 0
M  V30 2065 H 201.585 -3.80471 -1.4733 0
M  V30 2066 H 200.26 -4.14237 -0.371531 0
M  V30 2067 H 198.837 -3.1879 -1.93462 0
M  V30 2068 N 201.022 0.148545 -1.56898 0
M  V30 2069 C 202.271 0.85984 -1.82454 0
M  V30 2070 C 202.584 1.82406 -0.706229 0
M  V30 2071 O 203.79 2.57938 -0.847349 0
M  V30 2072 C 202.246 1.57967 -3.2338 0
M  V30 2073 C 201.854 0.65794 -4.43142 0
M  V30 2074 C 203.598 2.27784 -3.58211 0
M  V30 2075 C 201.505 1.3793 -5.75091 0
M  V30 2076 H 200.435 0.324834 -0.68044 0
M  V30 2077 H 203.086 0.112588 -1.83154 0
M  V30 2078 H 201.468 2.37249 -3.17063 0
M  V30 2079 H 202.642 -0.0995497 -4.60692 0
M  V30 2080 H 200.957 0.0682643 -4.16344 0
M  V30 2081 H 203.554 2.8239 -4.54048 0
M  V30 2082 H 203.897 3.04204 -2.84193 0
M  V30 2083 H 204.43 1.55421 -3.66182 0
M  V30 2084 H 201.169 0.656982 -6.52199 0
M  V30 2085 H 200.689 2.10954 -5.61479 0
M  V30 2086 H 202.368 1.92063 -6.17835 0
M  V30 2087 N 202.5 1.5196 0.417844 0
M  V30 2088 C 203.916 1.40569 0.755816 0
M  V30 2089 C 204.116 0.503316 1.95113 0
M  V30 2090 O 203.172 -0.0341925 2.52477 0
M  V30 2091 C 204.485 2.82947 1.01791 0
M  V30 2092 C 206.033 2.92231 1.12116 0
M  V30 2093 C 206.508 4.35559 1.41608 0
M  V30 2094 N 207.999 4.38753 1.48491 0
M  V30 2095 C 208.734 5.46705 1.7292 0
M  V30 2096 N 208.23 6.64788 1.95011 0
M  V30 2097 N 210.023 5.34209 1.74863 0
M  V30 2098 H 202.174 2.09168 -0.369098 0
M  V30 2099 H 204.437 0.942409 -0.102809 0
M  V30 2100 H 204.143 3.5106 0.212081 0
M  V30 2101 H 204.017 3.23462 1.94042 0
M  V30 2102 H 206.404 2.24304 1.9176 0
M  V30 2103 H 206.485 2.55185 0.177225 0
M  V30 2104 H 206.129 5.04042 0.624848 0
M  V30 2105 H 206.059 4.70133 2.37239 0
M  V30 2106 H 208.55 3.5363 1.33244 0
M  V30 2107 H 208.863 7.42845 2.13076 0
M  V30 2108 H 207.208 6.67869 1.92293 0
M  V30 2109 H 210.399 4.40937 1.57137 0
M  V30 2110 H 210.572 6.18415 1.93563 0
M  V30 2111 N 203.978 -0.674533 1.42435 0
M  V30 2112 C 205.394 -0.98769 1.25367 0
M  V30 2113 C 205.594 -2.00879 0.158044 0
M  V30 2114 O 204.65 -2.48075 -0.470633 0
M  V30 2115 C 205.963 -1.49224 2.6106 0
M  V30 2116 C 207.511 -1.61 2.68417 0
M  V30 2117 C 207.986 -2.14852 4.04478 0
M  V30 2118 N 209.477 -2.22185 4.06434 0
M  V30 2119 C 210.212 -2.64928 5.08528 0
M  V30 2120 N 209.708 -3.07121 6.21006 0
M  V30 2121 N 211.501 -2.64679 4.95885 0
M  V30 2122 H 203.652 0.00152503 2.124 0
M  V30 2123 H 205.915 -0.0618434 0.945981 0
M  V30 2124 H 205.621 -0.816453 3.42092 0
M  V30 2125 H 205.495 -2.47094 2.84999 0
M  V30 2126 H 207.882 -2.27686 1.87732 0
M  V30 2127 H 207.963 -0.616195 2.48267 0
M  V30 2128 H 207.607 -1.48775 4.85622 0
M  V30 2129 H 207.537 -3.15024 4.2198 0
M  V30 2130 H 210.028 -1.92435 3.25234 0
M  V30 2131 H 210.341 -3.38423 6.94759 0
M  V30 2132 H 208.686 -3.04978 6.24511 0
M  V30 2133 H 211.877 -2.31078 4.07088 0
M  V30 2134 H 212.05 -2.9767 5.75584 0
M  V30 2135 N 205.456 -1.28612 -0.910864 0
M  V30 2136 C 206.702 -1.17116 -1.66299 0
M  V30 2137 C 207.057 0.276917 -1.90397 0
M  V30 2138 O 206.35 1.19795 -1.49532 0
M  V30 2139 C 206.544 -1.90624 -3.0232 0
M  V30 2140 C 206.373 -3.42431 -2.91498 0
M  V30 2141 C 205.143 -4.11773 -2.92867 0
M  V30 2142 C 207.341 -4.38124 -2.69355 0
M  V30 2143 N 205.323 -5.50025 -2.72664 0
M  V30 2144 C 206.694 -5.63759 -2.58023 0
M  V30 2145 C 208.749 -4.28016 -2.54375 0
M  V30 2146 C 207.452 -6.80436 -2.33238 0
M  V30 2147 C 209.478 -5.44433 -2.30969 0
M  V30 2148 C 208.84 -6.69034 -2.20394 0
M  V30 2149 H 204.939 -0.483506 -0.61461 0
M  V30 2150 H 207.523 -1.62299 -1.0755 0
M  V30 2151 H 205.694 -1.4787 -3.5915 0
M  V30 2152 H 207.426 -1.71488 -3.66571 0
M  V30 2153 H 204.181 -3.63378 -3.03732 0
M  V30 2154 H 204.605 -6.22705 -2.65646 0
M  V30 2155 H 209.247 -3.32388 -2.613 0
M  V30 2156 H 206.965 -7.7613 -2.25051 0
M  V30 2157 H 210.551 -5.38504 -2.20238 0
M  V30 2158 H 209.431 -7.57595 -2.02531 0
M  V30 2159 N 206.934 1.1197 -1.10907 0
M  V30 2160 C 208.159 1.87942 -0.877064 0
M  V30 2161 C 208.584 1.79341 0.567314 0
M  V30 2162 O 207.942 1.15184 1.40009 0
M  V30 2163 C 207.99 3.34926 -1.33629 0
M  V30 2164 O 207.094 4.09303 -0.504447 0
M  V30 2165 H 206.435 0.583785 -0.316371 0
M  V30 2166 H 208.965 1.4157 -1.47712 0
M  V30 2167 H 208.975 3.8577 -1.32837 0
M  V30 2168 H 207.65 3.40504 -2.3881 0
M  V30 2169 H 206.227 3.68393 -0.577993 0
M  V30 2170 N 208.412 0.89855 1.29475 0
M  V30 2171 C 209.642 0.538479 1.99459 0
M  V30 2172 C 210.05 -0.880922 1.67441 0
M  V30 2173 O 209.393 -1.59283 0.915127 0
M  V30 2174 C 209.455 0.649564 3.53583 0
M  V30 2175 C 209.119 2.03573 4.09154 0
M  V30 2176 C 210.116 3.00675 4.24135 0
M  V30 2177 C 207.801 2.3448 4.44212 0
M  V30 2178 C 209.795 4.26809 4.73405 0
M  V30 2179 C 207.482 3.60857 4.93179 0
M  V30 2180 C 208.48 4.56836 5.0773 0
M  V30 2181 O 208.168 5.80969 5.55635 0
M  V30 2182 H 207.9 0.205372 0.644048 0
M  V30 2183 H 210.454 1.20958 1.66007 0
M  V30 2184 H 208.684 -0.0785592 3.8662 0
M  V30 2185 H 210.373 0.29881 4.04799 0
M  V30 2186 H 211.139 2.78112 3.97339 0
M  V30 2187 H 207.018 1.60534 4.32145 0
M  V30 2188 H 210.562 5.0173 4.84678 0
M  V30 2189 H 206.459 3.83251 5.19412 0
M  V30 2190 H 207.227 5.83542 5.73952 0
M  V30 2191 N 209.89 -1.43072 0.660911 0
M  V30 2192 C 210.8 -2.34585 -0.0264163 0
M  V30 2193 C 211.816 -1.54316 -0.803898 0
M  V30 2194 O 212.992 -1.86939 -0.749391 0
M  V30 2195 C 210.057 -3.32689 -0.975639 0
M  V30 2196 C 209.118 -4.2886 -0.194236 0
M  V30 2197 C 208.351 -5.22278 -1.09825 0
M  V30 2198 O 208.574 -5.20299 -2.33763 0
M  V30 2199 O 207.508 -5.99228 -0.566513 0
M  V30 2200 H 211.334 -2.94869 0.727034 0
M  V30 2201 H 208.919 -1.43342 0.42111 0
M  V30 2202 H 210.801 -3.92995 -1.52094 0
M  V30 2203 H 209.476 -2.74898 -1.70918 0
M  V30 2204 H 208.383 -3.72011 0.394835 0
M  V30 2205 H 209.716 -4.89655 0.499899 0
M  V30 2206 N 211.368 -0.403325 -1.52352 0
M  V30 2207 C 212.301 0.469463 -2.23319 0
M  V30 2208 C 213.279 1.05272 -1.23922 0
M  V30 2209 O 214.463 1.10169 -1.52954 0
M  V30 2210 C 211.59 1.6511 -2.9573 0
M  V30 2211 C 210.636 1.19178 -4.0951 0
M  V30 2212 S 211.469 0.161718 -5.35256 0
M  V30 2213 C 212.625 1.34882 -6.11194 0
M  V30 2214 H 212.858 -0.133134 -2.97002 0
M  V30 2215 H 210.391 -0.187588 -1.53256 0
M  V30 2216 H 212.349 2.3287 -3.38056 0
M  V30 2217 H 211.01 2.22503 -2.21701 0
M  V30 2218 H 210.203 2.07444 -4.59329 0
M  V30 2219 H 209.805 0.592911 -3.6927 0
M  V30 2220 H 212.097 2.27345 -6.38217 0
M  V30 2221 H 213.04 0.89128 -7.02468 0
M  V30 2222 H 213.448 1.57198 -5.42171 0
M  V30 2223 N 212.846 1.57033 -0.133567 0
M  V30 2224 C 214.093 1.95686 0.520877 0
M  V30 2225 C 214.421 1.0177 1.6575 0
M  V30 2226 O 213.676 0.0443195 1.9565 0
M  V30 2227 C 213.975 3.40674 1.08057 0
M  V30 2228 C 213.641 4.50855 0.0637899 0
M  V30 2229 C 212.303 4.80716 -0.215757 0
M  V30 2230 C 214.655 5.17398 -0.62835 0
M  V30 2231 C 211.983 5.74433 -1.19348 0
M  V30 2232 C 214.335 6.12167 -1.5948 0
M  V30 2233 C 212.999 6.40414 -1.88218 0
M  V30 2234 H 212.269 0.716067 0.190602 0
M  V30 2235 H 214.916 1.9026 -0.217556 0
M  V30 2236 H 213.221 3.42865 1.89606 0
M  V30 2237 H 214.918 3.67902 1.59529 0
M  V30 2238 H 211.508 4.27605 0.291855 0
M  V30 2239 H 215.692 4.94472 -0.425562 0
M  V30 2240 H 210.948 5.94616 -1.42272 0
M  V30 2241 H 215.122 6.6281 -2.13671 0
M  V30 2242 H 212.749 7.12838 -2.64133 0
M  V30 2243 N 214.325 -0.140222 1.56975 0
M  V30 2244 C 215.741 -0.493088 1.51792 0
M  V30 2245 C 215.941 -1.83013 0.843116 0
M  V30 2246 O 214.997 -2.49041 0.416493 0
M  V30 2247 C 216.31 -0.497144 2.96562 0
M  V30 2248 C 217.858 -0.582186 3.07538 0
M  V30 2249 C 218.333 -0.616838 4.53827 0
M  V30 2250 N 219.824 -0.678873 4.58198 0
M  V30 2251 C 220.559 -0.726782 5.68775 0
M  V30 2252 N 220.055 -0.733623 6.88905 0
M  V30 2253 N 221.848 -0.768179 5.56826 0
M  V30 2254 H 213.999 0.736108 1.99237 0
M  V30 2255 H 216.262 0.269182 0.90898 0
M  V30 2256 H 215.968 0.417217 3.49217 0
M  V30 2257 H 215.842 -1.33263 3.52875 0
M  V30 2258 H 218.229 -1.48697 2.54899 0
M  V30 2259 H 218.31 0.280581 2.54257 0
M  V30 2260 H 217.954 0.283812 5.07106 0
M  V30 2261 H 217.884 -1.49619 5.04898 0
M  V30 2262 H 220.375 -0.68061 3.7172 0
M  V30 2263 H 220.688 -0.772215 7.68932 0
M  V30 2264 H 219.033 -0.701389 6.91452 0
M  V30 2265 H 222.224 -0.760051 4.61888 0
M  V30 2266 H 222.397 -0.80205 6.43017 0
M  V30 2267 N 215.803 -1.52179 -0.40978 0
M  V30 2268 C 216.751 -1.76086 -1.51975 0
M  V30 2269 C 217.745 -0.627964 -1.57331 0
M  V30 2270 O 218.951 -0.809993 -1.60745 0
M  V30 2271 H 215.326 -0.556829 -0.505416 0
M  V30 2272 H 217.297 -2.69077 -1.28996 0
M  V30 2273 C 216.046 -1.92799 -2.8935 0
M  V30 2274 H 215.369 -2.79392 -2.85972 0
M  V30 2275 H 216.809 -2.13527 -3.66309 0
M  V30 2276 C 215.268 -0.694923 -3.29655 0
M  V30 2277 O 215.798 0.13751 -4.01465 0
M  V30 2278 N 214.004 -0.53101 -2.85707 0
M  V30 2279 H 213.551 -1.20952 -2.27439 0
M  V30 2280 H 213.509 0.292718 -3.13034 0
M  V30 2281 N 217.281 0.66697 -1.42791 0
M  V30 2282 C 218.191 1.80962 -1.49299 0
M  V30 2283 C 219.207 1.69775 -0.381108 0
M  V30 2284 O 220.383 1.91188 -0.633188 0
M  V30 2285 C 217.448 3.17156 -1.40045 0
M  V30 2286 C 216.509 3.40242 -2.6179 0
M  V30 2287 C 215.742 4.69939 -2.52969 0
M  V30 2288 O 215.965 5.48372 -1.56985 0
M  V30 2289 O 214.899 4.94441 -3.43237 0
M  V30 2290 H 218.725 1.78427 -2.45759 0
M  V30 2291 H 216.31 0.823713 -1.24641 0
M  V30 2292 H 218.192 3.98413 -1.37276 0
M  V30 2293 H 216.867 3.20312 -0.467138 0
M  V30 2294 H 215.774 2.58802 -2.70134 0
M  V30 2295 H 217.107 3.41923 -3.54047 0
M  V30 2296 N 218.759 1.29093 0.90403 0
M  V30 2297 C 220.175 1.07011 1.1841 0
M  V30 2298 C 220.375 -0.181358 2.00682 0
M  V30 2299 O 219.431 -0.880331 2.36657 0
M  V30 2300 C 220.744 2.32311 1.90924 0
M  V30 2301 C 222.292 2.37587 2.03768 0
M  V30 2302 C 222.767 3.62679 2.79693 0
M  V30 2303 N 224.258 3.63376 2.87249 0
M  V30 2304 C 224.993 4.56848 3.46522 0
M  V30 2305 N 224.489 5.60648 4.06996 0
M  V30 2306 N 226.282 4.44426 3.44154 0
M  V30 2307 H 218.433 2.09412 0.354993 0
M  V30 2308 H 220.696 0.922181 0.219742 0
M  V30 2309 H 220.402 3.23536 1.37905 0
M  V30 2310 H 220.276 2.39483 2.91424 0
M  V30 2311 H 222.663 1.46853 2.55965 0
M  V30 2312 H 222.744 2.34403 1.02415 0
M  V30 2313 H 222.388 4.53762 2.28173 0
M  V30 2314 H 222.318 3.63119 3.81381 0
M  V30 2315 H 224.809 2.88321 2.44293 0
M  V30 2316 H 225.122 6.28101 4.50232 0
M  V30 2317 H 223.467 5.64463 4.05471 0
M  V30 2318 H 226.658 3.62529 2.96126 0
M  V30 2319 H 226.831 5.17457 3.90054 0
M  V30 2320 N 220.237 -1.11381 1.11499 0
M  V30 2321 C 221.2 -2.15622 0.777153 0
M  V30 2322 C 222.2 -1.59504 -0.203779 0
M  V30 2323 O 223.39 -1.74188 0.020782 0
M  V30 2324 C 220.522 -3.40556 0.153116 0
M  V30 2325 H 221.715 -2.47021 1.70061 0
M  V30 2326 H 219.268 -1.26577 0.916952 0
M  V30 2327 H 220.003 -3.14767 -0.780536 0
M  V30 2328 H 219.788 -3.8257 0.859238 0
M  V30 2329 H 221.278 -4.17546 -0.0671044 0
M  V30 2330 N 221.715 -0.905404 -1.28997 0
M  V30 2331 C 222.964 -0.530191 -1.94607 0
M  V30 2332 C 223.277 0.929185 -1.72121 0
M  V30 2333 O 224.483 1.41218 -2.31883 0
M  V30 2334 C 222.939 -0.897333 -3.48534 0
M  V30 2335 C 222.547 -2.37587 -3.79811 0
M  V30 2336 C 224.291 -0.592304 -4.20347 0
M  V30 2337 C 222.198 -2.68357 -5.27009 0
M  V30 2338 H 221.128 -0.194558 -0.728466 0
M  V30 2339 H 223.779 -1.10318 -1.46636 0
M  V30 2340 H 222.161 -0.253214 -3.9519 0
M  V30 2341 H 223.335 -3.06602 -3.43994 0
M  V30 2342 H 221.65 -2.6505 -3.2115 0
M  V30 2343 H 224.247 -0.798975 -5.28697 0
M  V30 2344 H 224.59 0.469474 -4.13644 0
M  V30 2345 H 225.123 -1.19452 -3.79442 0
M  V30 2346 H 221.862 -3.73355 -5.38782 0
M  V30 2347 H 221.382 -2.03971 -5.64053 0
M  V30 2348 H 223.061 -2.54922 -5.94663 0
M  V30 2349 N 223.193 1.4272 -0.668489 0
M  V30 2350 C 224.609 1.55992 -0.33745 0
M  V30 2351 C 224.809 1.64933 1.15756 0
M  V30 2352 O 223.865 1.61278 1.94282 0
M  V30 2353 C 225.178 2.81314 -1.06222 0
M  V30 2354 C 226.726 2.95078 -1.04394 0
M  V30 2355 C 227.201 4.23252 -1.74991 0
M  V30 2356 N 228.692 4.3015 -1.71829 0
M  V30 2357 C 229.427 5.28127 -2.23315 0
M  V30 2358 N 228.923 6.32293 -2.83156 0
M  V30 2359 N 230.716 5.19882 -2.13726 0
M  V30 2360 H 222.867 1.3516 -1.63846 0
M  V30 2361 H 225.13 0.650174 -0.689912 0
M  V30 2362 H 224.836 2.80823 -2.11734 0
M  V30 2363 H 224.71 3.72012 -0.62344 0
M  V30 2364 H 227.097 2.951 0.0028244 0
M  V30 2365 H 227.178 2.05627 -1.52155 0
M  V30 2366 H 226.822 4.2399 -2.79633 0
M  V30 2367 H 226.752 5.11626 -1.24685 0
M  V30 2368 H 229.243 3.55499 -1.28175 0
M  V30 2369 H 229.556 7.03398 -3.20079 0
M  V30 2370 H 227.901 6.32873 -2.87223 0
M  V30 2371 H 231.092 4.37423 -1.66669 0
M  V30 2372 H 231.265 5.96077 -2.54158 0
M  V30 2373 N 224.671 0.411399 1.52136 0
M  V30 2374 C 225.918 -0.163645 2.01838 0
M  V30 2375 C 226.246 -1.4495 1.29691 0
M  V30 2376 O 225.501 -1.91725 0.392431 0
M  V30 2377 C 225.8 -0.455872 3.54481 0
M  V30 2378 C 225.466 0.741055 4.44769 0
M  V30 2379 C 224.128 1.06936 4.69167 0
M  V30 2380 C 226.48 1.54075 4.97906 0
M  V30 2381 C 223.808 2.19851 5.43951 0
M  V30 2382 C 226.16 2.66067 5.73926 0
M  V30 2383 C 224.824 2.99381 5.96596 0
M  V30 2384 H 224.094 -0.0598821 0.738576 0
M  V30 2385 H 226.741 0.553283 1.83333 0
M  V30 2386 H 225.046 -1.2544 3.71177 0
M  V30 2387 H 226.743 -0.913802 3.90449 0
M  V30 2388 H 223.333 0.475192 4.25958 0
M  V30 2389 H 227.517 1.30033 4.78963 0
M  V30 2390 H 222.773 2.46006 5.59724 0
M  V30 2391 H 226.947 3.28419 6.14096 0
M  V30 2392 H 224.574 3.86992 6.54325 0
M  V30 2393 N 226.149 -1.5696 0.141893 0
M  V30 2394 C 227.395 -1.9625 -0.511248 0
M  V30 2395 C 227.728 -1.02654 -1.64851 0
M  V30 2396 O 227.003 -0.0679676 -1.94381 0
M  V30 2397 C 227.286 -3.45285 -1.02227 0
M  V30 2398 C 227.139 -4.49658 0.113138 0
M  V30 2399 C 228.458 -3.96698 -1.90574 0
M  V30 2400 H 225.577 -0.713567 -0.184367 0
M  V30 2401 H 228.219 -1.88698 0.222087 0
M  V30 2402 H 226.369 -3.51852 -1.64719 0
M  V30 2403 H 228.041 -4.55174 0.749302 0
M  V30 2404 H 226.284 -4.26857 0.773026 0
M  V30 2405 H 226.955 -5.51258 -0.286053 0
M  V30 2406 H 229.431 -3.92578 -1.37918 0
M  V30 2407 H 228.307 -5.01453 -2.2324 0
M  V30 2408 H 228.568 -3.3875 -2.84079 0
M  V30 2409 N 227.627 0.131896 -1.57047 0
M  V30 2410 C 228.873 0.843179 -1.84441 0
M  V30 2411 C 229.206 1.80129 -0.725749 0
M  V30 2412 O 228.481 1.92624 0.269469 0
M  V30 2413 C 228.764 1.60442 -3.22382 0
M  V30 2414 C 228.617 0.666782 -4.4483 0
M  V30 2415 C 229.936 2.56354 -3.5773 0
M  V30 2416 H 227.055 0.305081 -0.670891 0
M  V30 2417 H 229.697 0.107839 -1.89694 0
M  V30 2418 H 227.847 2.23128 -3.18035 0
M  V30 2419 H 229.519 0.0497646 -4.61273 0
M  V30 2420 H 227.762 -0.022609 -4.33794 0
M  V30 2421 H 228.433 1.23579 -5.37989 0
M  V30 2422 H 230.909 2.0378 -3.62785 0
M  V30 2423 H 229.785 3.06657 -4.5525 0
M  V30 2424 H 230.046 3.38419 -2.84473 0
M  V30 2425 N 229.106 1.52395 0.401703 0
M  V30 2426 C 230.039 1.70999 1.51111 0
M  V30 2427 C 231.017 0.55765 1.52738 0
M  V30 2428 O 232.201 0.785912 1.71335 0
M  V30 2429 C 229.328 1.75607 2.8962 0
M  V30 2430 C 228.374 2.97227 3.05873 0
M  V30 2431 S 229.207 4.57439 2.78405 0
M  V30 2432 C 230.363 4.64844 4.19131 0
M  V30 2433 H 230.596 2.6483 1.35102 0
M  V30 2434 H 228.129 1.42527 0.593762 0
M  V30 2435 H 230.087 1.78947 3.69443 0
M  V30 2436 H 228.748 0.828914 3.02965 0
M  V30 2437 H 227.941 2.96955 4.07227 0
M  V30 2438 H 227.543 2.91813 2.33925 0
M  V30 2439 H 229.835 4.42677 5.12877 0
M  V30 2440 H 230.778 5.66807 4.24424 0
M  V30 2441 H 231.186 3.93804 4.04448 0
M  V30 2442 N 230.584 -0.659388 1.43143 0
M  V30 2443 C 231.83 -1.42145 1.44647 0
M  V30 2444 C 232.163 -1.9408 0.0681907 0
M  V30 2445 O 231.438 -1.71899 -0.910007 0
M  V30 2446 C 231.721 -2.60735 2.48373 0
M  V30 2447 C 231.574 -2.14332 3.95451 0
M  V30 2448 C 232.893 -3.62951 2.48906 0
M  V30 2449 H 230.012 -0.51552 0.526696 0
M  V30 2450 H 232.654 -0.748069 1.74654 0
M  V30 2451 H 230.804 -3.18184 2.22916 0
M  V30 2452 H 232.476 -1.61932 4.31944 0
M  V30 2453 H 230.719 -1.4576 4.08578 0
M  V30 2454 H 231.39 -2.99583 4.63631 0
M  V30 2455 H 233.866 -3.1525 2.71582 0
M  V30 2456 H 232.742 -4.43487 3.23435 0
M  V30 2457 H 233.003 -4.15126 1.52061 0
M  V30 2458 N 232.062 -1.29571 -0.897171 0
M  V30 2459 C 233.29 -1.20583 -1.68129 0
M  V30 2460 C 233.705 0.233181 -1.87354 0
M  V30 2461 O 233.062 1.15579 -1.41236 0
M  V30 2462 C 233.113 -1.91772 -3.06441 0
M  V30 2463 O 232.834 -3.30053 -2.88091 0
M  V30 2464 C 234.335 -1.89291 -4.00854 0
M  V30 2465 H 231.555 -0.417826 -0.525036 0
M  V30 2466 H 234.099 -1.70987 -1.12177 0
M  V30 2467 H 232.254 -1.45196 -3.59161 0
M  V30 2468 H 232.668 -3.65942 -3.75748 0
M  V30 2469 H 234.142 -2.43662 -4.95311 0
M  V30 2470 H 234.619 -0.869014 -4.30517 0
M  V30 2471 H 235.225 -2.35622 -3.54066 0
M  V30 2472 N 233.54 1.10788 -1.12088 0
M  V30 2473 C 234.951 1.64181 -0.88891 0
M  V30 2474 C 235.302 1.87508 0.577498 0
M  V30 2475 O 234.427 1.61434 1.44112 0
M  V30 2476 C 235.022 2.98257 -1.60712 0
M  V30 2477 C 233.581 3.4853 -1.42139 0
M  V30 2478 C 232.728 2.23208 -1.6454 0
M  V30 2479 H 235.679 0.943368 -1.27618 0
M  V30 2480 H 235.7 3.65552 -1.05604 0
M  V30 2481 H 235.212 2.81246 -2.67436 0
M  V30 2482 H 233.313 3.70692 -0.376552 0
M  V30 2483 H 233.426 4.26882 -2.17505 0
M  V30 2484 H 231.79 2.31169 -1.06925 0
M  V30 2485 H 232.573 2.08733 -2.72554 0
M  V30 2486 N 235.018 0.912232 1.28515 0
M  V30 2487 C 235.928 0.404506 2.31086 0
M  V30 2488 C 236.944 -0.50707 1.66448 0
M  V30 2489 O 238.12 -0.393624 1.97516 0
M  V30 2490 C 235.185 -0.348572 3.44943 0
M  V30 2491 C 234.246 0.59604 4.25142 0
M  V30 2492 C 233.479 -0.121194 5.33562 0
M  V30 2493 O 233.702 -1.34317 5.5436 0
M  V30 2494 O 232.636 0.542716 5.99448 0
M  V30 2495 H 236.462 1.25579 2.76521 0
M  V30 2496 H 234.047 0.676998 1.33181 0
M  V30 2497 H 235.929 -0.77395 4.14232 0
M  V30 2498 H 234.604 -1.17571 3.01594 0
M  V30 2499 H 233.511 1.07079 3.58448 0
M  V30 2500 H 234.844 1.38995 4.72167 0
M  V30 2501 N 236.496 -1.42363 0.676048 0
M  V30 2502 C 237.773 -1.95183 0.127726 0
M  V30 2503 C 238.153 -1.61641 -1.35777 0
M  V30 2504 O 237.501 -0.913216 -2.09458 0
M  V30 2505 C 237.711 -3.46721 0.398199 0
M  V30 2506 C 239.059 -4.23427 0.315383 0
M  V30 2507 O 240.083 -3.54649 0.332016 0
M  V30 2508 O 238.942 -5.45888 0.25865 0
M  V30 2509 H 236.036 -0.826992 0.00359427 0
M  V30 2510 H 238.582 -1.52184 0.750864 0
M  V30 2511 H 237.354 -3.64344 1.4272 0
M  V30 2512 H 236.977 -3.96769 -0.256885 0
M  V30 2513 N 237.974 -0.419461 -1.51915 0
M  V30 2514 C 238.904 0.391813 -2.30189 0
M  V30 2515 C 239.885 1.03699 -1.34836 0
M  V30 2516 O 241.07 1.04403 -1.63748 0
M  V30 2517 C 238.2 1.50312 -3.13087 0
M  V30 2518 C 237.154 0.9824 -4.16573 0
M  V30 2519 C 236.48 2.18809 -4.8788 0
M  V30 2520 C 237.78 0.0292356 -5.22292 0
M  V30 2521 H 239.474 -0.26135 -2.98257 0
M  V30 2522 H 237.02 -0.127134 -1.43438 0
M  V30 2523 H 238.973 2.07773 -3.66617 0
M  V30 2524 H 237.697 2.18431 -2.42807 0
M  V30 2525 H 236.356 0.430119 -3.64068 0
M  V30 2526 H 236.004 2.85507 -4.14119 0
M  V30 2527 H 235.704 1.84615 -5.57845 0
M  V30 2528 H 237.228 2.76858 -5.44226 0
M  V30 2529 H 238.642 0.512976 -5.71 0
M  V30 2530 H 237.039 -0.2244 -5.9968 0
M  V30 2531 H 238.109 -0.912931 -4.76228 0
M  V30 2532 N 239.452 1.56882 -0.150215 0
M  V30 2533 C 240.399 2.16922 0.788244 0
M  V30 2534 C 241.369 1.10303 1.24187 0
M  V30 2535 O 242.554 1.38359 1.31383 0
M  V30 2536 C 239.694 2.79754 2.02068 0
M  V30 2537 C 238.807 4.00775 1.61257 0
M  V30 2538 C 237.942 4.51595 2.79705 0
M  V30 2539 C 236.981 5.65074 2.35282 0
M  V30 2540 N 236.118 6.10499 3.4675 0
M  V30 2541 H 240.958 2.96779 0.269444 0
M  V30 2542 H 238.495 1.46599 0.12128 0
M  V30 2543 H 240.453 3.14329 2.74323 0
M  V30 2544 H 239.083 2.02536 2.51354 0
M  V30 2545 H 238.135 3.72158 0.787553 0
M  V30 2546 H 239.447 4.82978 1.24633 0
M  V30 2547 H 238.601 4.88242 3.60145 0
M  V30 2548 H 237.34 3.68406 3.19576 0
M  V30 2549 H 236.345 5.28 1.53283 0
M  V30 2550 H 237.57 6.50052 1.96493 0
M  V30 2551 H 235.516 5.30243 3.86236 0
M  V30 2552 H 235.433 6.87637 3.14152 0
M  V30 2553 H 236.701 6.51791 4.27537 0
M  V30 2554 N 240.93 -0.123565 1.57115 0
M  V30 2555 C 241.893 -1.13583 1.99076 0
M  V30 2556 C 242.893 -1.34564 0.880296 0
M  V30 2557 O 244.083 -1.31158 1.14644 0
M  V30 2558 C 241.215 -2.49128 2.32698 0
M  V30 2559 H 242.408 -0.775287 2.89706 0
M  V30 2560 H 239.961 -0.36771 1.51913 0
M  V30 2561 H 240.696 -2.90111 1.44934 0
M  V30 2562 H 240.481 -2.35255 3.13684 0
M  V30 2563 H 241.971 -3.2199 2.65918 0
M  V30 2564 N 242.408 -1.52605 -0.393616 0
M  V30 2565 C 243.356 -1.77688 -1.50099 0
M  V30 2566 C 244.35 -0.644615 -1.56656 0
M  V30 2567 O 245.556 -0.826997 -1.59877 0
M  V30 2568 H 241.931 -0.562159 -0.499481 0
M  V30 2569 H 243.902 -2.7043 -1.26135 0
M  V30 2570 C 242.651 -1.95858 -2.87289 0
M  V30 2571 H 241.974 -2.8241 -2.82992 0
M  V30 2572 H 243.414 -2.174 -3.64024 0
M  V30 2573 C 241.873 -0.729848 -3.28899 0
M  V30 2574 O 242.403 0.0949217 -4.01588 0
M  V30 2575 N 240.609 -0.561283 -2.85128 0
M  V30 2576 H 240.156 -1.23357 -2.26143 0
M  V30 2577 H 240.114 0.2595 -3.13327 0
M  V30 2578 N 243.887 0.651787 -1.4349 0
M  V30 2579 C 244.85 1.74647 -1.48429 0
M  V30 2580 C 245.85 1.56513 -0.368817 0
M  V30 2581 O 247.04 1.62385 -0.630623 0
M  V30 2582 C 244.172 3.13533 -1.33827 0
M  V30 2583 H 245.365 1.71649 -2.4592 0
M  V30 2584 H 242.918 0.863573 -1.30277 0
M  V30 2585 H 243.653 3.22142 -0.37349 0
M  V30 2586 H 243.438 3.28101 -2.14691 0
M  V30 2587 H 244.928 3.93356 -1.40218 0
M  V30 2588 N 245.365 1.30045 0.890287 0
M  V30 2589 C 246.275 1.17885 2.02831 0
M  V30 2590 C 247.291 0.0999609 1.73713 0
M  V30 2591 O 248.467 0.313867 1.98939 0
M  V30 2592 C 245.532 0.866079 3.35708 0
M  V30 2593 C 244.593 2.02979 3.78283 0
M  V30 2594 C 243.826 1.73184 5.0482 0
M  V30 2595 O 244.049 0.657237 5.66601 0
M  V30 2596 O 242.983 2.58267 5.43674 0
M  V30 2597 H 246.809 2.13474 2.16015 0
M  V30 2598 H 244.394 1.09587 1.01543 0
M  V30 2599 H 246.276 0.706623 4.15433 0
M  V30 2600 H 244.951 -0.0599443 3.23644 0
M  V30 2601 H 243.858 2.24454 2.99285 0
M  V30 2602 H 245.191 2.93734 3.94944 0
M  V30 2603 N 246.843 -1.10192 1.12674 0
M  V30 2604 C 248.073 -1.85713 0.905213 0
M  V30 2605 C 248.481 -1.81056 -0.549108 0
M  V30 2606 O 247.824 -1.19927 -1.39151 0
M  V30 2607 C 247.886 -3.34972 1.30516 0
M  V30 2608 C 247.55 -3.63385 2.77129 0
M  V30 2609 C 248.547 -3.59772 3.75313 0
M  V30 2610 C 246.232 -3.91981 3.14096 0
M  V30 2611 C 248.226 -3.84354 5.08479 0
M  V30 2612 C 245.913 -4.16218 4.47443 0
M  V30 2613 C 246.911 -4.12395 5.44444 0
M  V30 2614 O 246.599 -4.36014 6.75387 0
M  V30 2615 H 246.331 -0.593719 0.323223 0
M  V30 2616 H 248.885 -1.40198 1.50112 0
M  V30 2617 H 247.115 -3.81156 0.652463 0
M  V30 2618 H 248.804 -3.91886 1.05736 0
M  V30 2619 H 249.57 -3.37716 3.48099 0
M  V30 2620 H 245.449 -3.94085 2.39202 0
M  V30 2621 H 248.993 -3.81285 5.84181 0
M  V30 2622 H 244.89 -4.37754 4.74386 0
M  V30 2623 H 245.658 -4.53516 6.8137 0
M  V30 2624 N 248.321 -0.919034 -1.28029 0
M  V30 2625 C 249.57 -0.550802 -1.94034 0
M  V30 2626 C 249.883 0.910877 -1.73096 0
M  V30 2627 O 251.089 1.3875 -2.33368 0
M  V30 2628 C 249.545 -0.934249 -3.47563 0
M  V30 2629 C 249.153 -2.41602 -3.7727 0
M  V30 2630 C 250.897 -0.636854 -4.19696 0
M  V30 2631 C 248.804 -2.73932 -5.24133 0
M  V30 2632 H 247.734 -0.202273 -0.726362 0
M  V30 2633 H 250.385 -1.11867 -1.45458 0
M  V30 2634 H 248.767 -0.295115 -3.94899 0
M  V30 2635 H 249.941 -3.10233 -3.40723 0
M  V30 2636 H 248.256 -2.68441 -3.18321 0
M  V30 2637 H 250.853 -0.855005 -5.2782 0
M  V30 2638 H 251.196 0.425575 -4.14119 0
M  V30 2639 H 251.729 -1.23469 -3.78154 0
M  V30 2640 H 248.468 -3.79049 -5.34792 0
M  V30 2641 H 247.988 -2.09942 -5.61858 0
M  V30 2642 H 249.667 -2.61215 -5.91925 0
M  V30 2643 N 249.799 1.42003 -0.683588 0
M  V30 2644 C 250.746 2.30798 -0.0107309 0
M  V30 2645 C 251.716 1.4645 0.783688 0
M  V30 2646 O 252.901 1.75263 0.754156 0
M  V30 2647 C 250.041 3.3238 0.928306 0
M  V30 2648 C 249.154 4.31814 0.126776 0
M  V30 2649 C 248.289 5.20468 1.06236 0
M  V30 2650 C 247.328 6.11577 0.253035 0
M  V30 2651 N 246.465 6.92754 1.14179 0
M  V30 2652 H 251.305 2.8778 -0.773727 0
M  V30 2653 H 248.842 1.41745 -0.393283 0
M  V30 2654 H 250.8 3.89813 1.48666 0
M  V30 2655 H 249.43 2.76976 1.65783 0
M  V30 2656 H 248.482 3.76427 -0.54833 0
M  V30 2657 H 249.794 4.96276 -0.501192 0
M  V30 2658 H 248.948 5.82677 1.69035 0
M  V30 2659 H 247.687 4.56204 1.7242 0
M  V30 2660 H 246.692 5.48428 -0.388108 0
M  V30 2661 H 247.917 6.77892 -0.404839 0
M  V30 2662 H 245.863 6.3111 1.78987 0
M  V30 2663 H 245.78 7.53855 0.569111 0
M  V30 2664 H 247.048 7.59441 1.75697 0
M  V30 2665 N 251.277 0.427512 1.51691 0
M  V30 2666 C 252.21 -0.433876 2.24037 0
M  V30 2667 C 253.188 -1.03287 1.25581 0
M  V30 2668 O 254.372 -1.07722 1.54688 0
M  V30 2669 C 251.499 -1.60385 2.98319 0
M  V30 2670 C 250.545 -1.12648 4.11355 0
M  V30 2671 S 251.378 -0.076543 5.35445 0
M  V30 2672 C 252.534 -1.25141 6.13262 0
M  V30 2673 H 252.767 0.180367 2.96752 0
M  V30 2674 H 250.3 0.211946 1.52938 0
M  V30 2675 H 252.258 -2.27462 3.41718 0
M  V30 2676 H 250.919 -2.18948 2.25213 0
M  V30 2677 H 250.112 -2.0011 4.62571 0
M  V30 2678 H 249.714 -0.534088 3.70167 0
M  V30 2679 H 252.006 -2.17162 6.41753 0
M  V30 2680 H 252.949 -0.779411 7.03797 0
M  V30 2681 H 253.357 -1.48553 5.44603 0
M  V30 2682 N 252.755 -1.56801 0.158532 0
M  V30 2683 C 253.718 -2.16138 -0.762705 0
M  V30 2684 C 254.718 -1.1061 -1.16713 0
M  V30 2685 O 255.908 -1.36191 -1.08617 0
M  V30 2686 C 253.04 -2.73386 -2.03649 0
M  V30 2687 H 254.233 -2.98886 -0.246354 0
M  V30 2688 H 251.786 -1.56035 -0.0909744 0
M  V30 2689 H 252.521 -1.94335 -2.59623 0
M  V30 2690 H 252.306 -3.50601 -1.75559 0
M  V30 2691 H 253.796 -3.19065 -2.6942 0
M  V30 2692 N 254.233 0.115231 -1.57178 0
M  V30 2693 C 255.51 0.852873 -1.76027 0
M  V30 2694 C 255.89 1.97892 -0.73498 0
M  V30 2695 O 255.238 2.27232 0.24036 0
M  V30 2696 C 255.448 1.36608 -3.21153 0
M  V30 2697 C 256.796 1.81692 -3.83762 0
M  V30 2698 O 257.82 1.46278 -3.24779 0
M  V30 2699 O 256.679 2.47104 -4.87444 0
M  V30 2700 H 253.773 0.405296 -0.720877 0
M  V30 2701 H 256.319 0.0986785 -1.69413 0
M  V30 2702 H 255.091 0.558357 -3.87296 0
M  V30 2703 H 254.714 2.18287 -3.3232 0
M  V30 2704 N 255.711 1.52812 0.385517 0
M  V30 2705 C 256.661 1.74219 1.47078 0
M  V30 2706 C 257.645 0.59632 1.49442 0
M  V30 2707 O 258.837 0.85428 1.5502 0
M  V30 2708 C 255.966 1.9176 2.84751 0
M  V30 2709 C 255.052 3.12289 2.86943 0
M  V30 2710 N 255.443 4.34575 2.58802 0
M  V30 2711 C 253.741 3.12605 3.1811 0
M  V30 2712 C 254.442 5.162 2.68166 0
M  V30 2713 N 253.418 4.51964 3.02043 0
M  V30 2714 H 257.22 2.6639 1.24152 0
M  V30 2715 H 254.734 1.51166 0.593504 0
M  V30 2716 H 256.731 2.05218 3.62893 0
M  V30 2717 H 255.391 1.00805 3.08656 0
M  V30 2718 H 256.402 4.62649 2.32759 0
M  V30 2719 H 253.079 2.31472 3.47458 0
M  V30 2720 H 254.469 6.23689 2.49923 0
M  V30 2721 N 257.189 -0.644168 1.43834 0
M  V30 2722 C 258.419 -1.42939 1.49171 0
M  V30 2723 C 258.827 -1.88874 0.111048 0
M  V30 2724 O 258.17 -1.60656 -0.8908 0
M  V30 2725 C 258.232 -2.69151 2.38324 0
M  V30 2726 C 257.896 -2.45097 3.85715 0
M  V30 2727 C 258.893 -2.07747 4.76589 0
M  V30 2728 C 256.578 -2.59141 4.30292 0
M  V30 2729 C 258.572 -1.8475 6.10038 0
M  V30 2730 C 256.259 -2.35759 5.63792 0
M  V30 2731 C 257.257 -1.9862 6.53482 0
M  V30 2732 O 256.945 -1.75489 7.84512 0
M  V30 2733 H 256.677 -0.445271 0.508635 0
M  V30 2734 H 259.231 -0.79621 1.8934 0
M  V30 2735 H 257.461 -3.3506 1.93058 0
M  V30 2736 H 259.15 -3.31123 2.3476 0
M  V30 2737 H 259.916 -1.96465 4.43426 0
M  V30 2738 H 255.795 -2.87022 3.60749 0
M  V30 2739 H 259.339 -1.55686 6.80006 0
M  V30 2740 H 255.236 -2.46646 5.9652 0
M  V30 2741 H 256.004 -1.89841 7.9618 0
M  V30 2742 N 258.668 -1.30515 -0.883378 0
M  V30 2743 C 259.914 -1.19607 -1.63774 0
M  V30 2744 C 260.247 0.248314 -1.92606 0
M  V30 2745 O 259.522 1.17742 -1.54813 0
M  V30 2746 C 259.805 -2.02669 -2.97653 0
M  V30 2747 C 259.658 -3.55335 -2.75784 0
M  V30 2748 C 260.977 -1.86573 -3.98596 0
M  V30 2749 H 258.096 -0.435856 -0.594305 0
M  V30 2750 H 260.738 -1.60165 -1.02212 0
M  V30 2751 H 258.888 -1.68208 -3.50197 0
M  V30 2752 H 260.56 -3.99863 -2.30016 0
M  V30 2753 H 258.803 -3.79438 -2.1026 0
M  V30 2754 H 259.474 -4.08745 -3.70988 0
M  V30 2755 H 261.95 -2.16703 -3.55217 0
M  V30 2756 H 260.826 -2.47014 -4.90179 0
M  V30 2757 H 261.087 -0.825321 -4.34328 0
M  V30 2758 N 260.146 1.09593 -1.13257 0
M  V30 2759 C 261.557 1.63229 -0.906274 0
M  V30 2760 C 261.908 1.8811 0.557578 0
M  V30 2761 O 261.033 1.62953 1.42391 0
M  V30 2762 C 261.628 2.96535 -1.63867 0
M  V30 2763 C 260.187 3.47003 -1.45828 0
M  V30 2764 C 259.334 2.2145 -1.66898 0
M  V30 2765 H 262.285 0.92978 -1.28611 0
M  V30 2766 H 262.306 3.64411 -1.09476 0
M  V30 2767 H 261.818 2.78394 -2.70404 0
M  V30 2768 H 259.919 3.70272 -0.415848 0
M  V30 2769 H 260.032 4.24551 -2.2202 0
M  V30 2770 H 258.396 2.30022 -1.09371 0
M  V30 2771 H 259.179 2.0583 -2.74752 0
M  V30 2772 N 261.624 0.925811 1.2754 0
M  V30 2773 C 262.87 0.566092 1.94739 0
M  V30 2774 C 263.203 -0.890057 1.72603 0
M  V30 2775 O 262.478 -1.63467 1.05399 0
M  V30 2776 C 262.761 0.89054 3.48915 0
M  V30 2777 C 262.614 2.4003 3.80402 0
M  V30 2778 C 263.933 0.395101 4.38323 0
M  V30 2779 H 261.052 0.20714 0.707292 0
M  V30 2780 H 263.694 1.15725 1.50691 0
M  V30 2781 H 261.844 0.387452 3.86563 0
M  V30 2782 H 263.516 2.97494 3.52555 0
M  V30 2783 H 261.759 2.85028 3.2702 0
M  V30 2784 H 262.43 2.57785 4.8811 0
M  V30 2785 H 264.906 0.826241 4.07814 0
M  V30 2786 H 263.782 0.651086 5.45025 0
M  V30 2787 H 264.043 -0.704798 4.36446 0
M  V30 2788 N 263.102 -1.41638 0.69111 0
M  V30 2789 C 264.513 -1.84346 0.295517 0
M  V30 2790 C 264.864 -1.57833 -1.16547 0
M  V30 2791 O 263.989 -1.04648 -1.89414 0
M  V30 2792 C 264.584 -3.34636 0.529575 0
M  V30 2793 C 263.143 -3.7593 0.187944 0
M  V30 2794 C 262.29 -2.65082 0.814052 0
M  V30 2795 H 265.241 -1.31253 0.892092 0
M  V30 2796 H 265.262 -3.79903 -0.213148 0
M  V30 2797 H 264.774 -3.53901 1.59297 0
M  V30 2798 H 262.875 -3.62268 -0.871367 0
M  V30 2799 H 262.988 -4.74808 0.63985 0
M  V30 2800 H 261.352 -2.53528 0.244017 0
M  V30 2801 H 262.135 -2.87167 1.88123 0
M  V30 2802 N 264.58 -0.43555 -1.51462 0
M  V30 2803 C 265.828 0.131254 -2.01673 0
M  V30 2804 C 266.149 1.43368 -1.32177 0
M  V30 2805 O 265.419 1.90524 -0.455769 0
M  V30 2806 H 263.999 0.0514954 -0.745223 0
M  V30 2807 H 266.661 -0.577847 -1.86137 0
M  V30 2808 H 265.757 0.308446 -3.10572 0
M  V30 2809 N 266.058 1.56714 -0.166846 0
M  V30 2810 C 267.306 1.96358 0.478305 0
M  V30 2811 C 267.627 1.0537 1.6408 0
M  V30 2812 O 266.897 0.119154 1.95537 0
M  V30 2813 H 265.477 0.725065 0.179692 0
M  V30 2814 H 268.139 1.93329 -0.246985 0
M  V30 2815 H 267.235 3.00547 0.841292 0
M  V30 2816 N 267.536 -0.106894 1.57237 0
M  V30 2817 C 268.947 -0.662723 1.74542 0
M  V30 2818 C 269.298 -1.7971 0.787319 0
M  V30 2819 O 268.423 -2.16368 -0.0369636 0
M  V30 2820 C 269.018 -1.20896 3.16496 0
M  V30 2821 C 267.577 -1.71096 3.35266 0
M  V30 2822 C 266.724 -0.615642 2.7038 0
M  V30 2823 H 269.675 0.119106 1.58252 0
M  V30 2824 H 269.696 -2.07847 3.18716 0
M  V30 2825 H 269.208 -0.383122 3.86204 0
M  V30 2826 H 267.309 -2.56119 2.70618 0
M  V30 2827 H 267.422 -1.81208 4.43509 0
M  V30 2828 H 265.786 -1.05222 2.31949 0
M  V30 2829 H 266.569 0.199419 3.4272 0
M  V30 2830 N 269.014 -1.53014 -0.377408 0
M  V30 2831 C 269.962 -1.7927 -1.48206 0
M  V30 2832 C 270.956 -0.661195 -1.55963 0
M  V30 2833 O 272.162 -0.843908 -1.58991 0
M  V30 2834 H 268.537 -0.567425 -0.493491 0
M  V30 2835 H 270.508 -2.71753 -1.2326 0
M  V30 2836 C 269.257 -1.98894 -2.85196 0
M  V30 2837 H 268.58 -2.85395 -2.79981 0
M  V30 2838 H 270.02 -2.21249 -3.61698 0
M  V30 2839 C 268.479 -0.764691 -3.28107 0
M  V30 2840 O 269.009 0.0523226 -4.01666 0
M  V30 2841 N 267.215 -0.591493 -2.84517 0
M  V30 2842 H 266.762 -1.25749 -2.24822 0
M  V30 2843 H 266.72 0.226253 -3.13585 0
M  V30 2844 N 270.492 0.636531 -1.44174 0
M  V30 2845 C 271.44 1.76995 -1.50915 0
M  V30 2846 C 272.434 1.65053 -0.381295 0
M  V30 2847 O 273.64 1.71197 -0.55601 0
M  V30 2848 H 270.015 0.584247 -0.473455 0
M  V30 2849 H 271.986 1.68432 -2.4632 0
M  V30 2850 C 270.735 3.15314 -1.46534 0
M  V30 2851 H 270.058 3.25149 -2.32633 0
M  V30 2852 H 271.498 3.9453 -1.55312 0
M  V30 2853 C 269.957 3.3639 -0.185305 0
M  V30 2854 O 270.487 3.94699 0.746688 0
M  V30 2855 N 268.693 2.9046 -0.0901606 0
M  V30 2856 H 268.24 2.43193 -0.849416 0
M  V30 2857 H 268.198 3.04937 0.765553 0
M  V30 2858 N 271.97 1.30982 0.876444 0
M  V30 2859 C 272.918 1.18006 2.00443 0
M  V30 2860 C 273.912 0.0898871 1.69161 0
M  V30 2861 O 275.118 0.251333 1.78237 0
M  V30 2862 H 271.493 0.365196 0.65737 0
M  V30 2863 H 273.464 2.13453 2.0852 0
M  V30 2864 C 272.213 0.897521 3.35916 0
M  V30 2865 H 271.536 1.7285 3.60504 0
M  V30 2866 H 272.976 0.846874 4.15456 0
M  V30 2867 C 271.435 -0.399674 3.34521 0
M  V30 2868 O 271.965 -1.41852 3.7582 0
M  V30 2869 N 270.171 -0.413893 2.87637 0
M  V30 2870 H 269.718 0.41571 2.54224 0
M  V30 2871 H 269.676 -1.28175 2.87086 0
M  V30 2872 N 273.449 -1.08991 1.13837 0
M  V30 2873 C 274.397 -2.17841 0.815347 0
M  V30 2874 C 275.391 -1.68164 -0.204233 0
M  V30 2875 O 276.597 -1.79897 -0.0609304 0
M  V30 2876 H 272.972 -0.710654 0.245915 0
M  V30 2877 H 274.943 -2.42315 1.74143 0
M  V30 2878 C 273.692 -3.46381 0.302614 0
M  V30 2879 H 273.015 -3.84979 1.0785 0
M  V30 2880 H 274.455 -4.23844 0.115074 0
M  V30 2881 C 272.914 -3.22556 -0.972591 0
M  V30 2882 O 273.444 -3.45599 -2.04754 0
M  V30 2883 N 271.65 -2.76134 -0.905455 0
M  V30 2884 H 271.197 -2.57582 -0.0305421 0
M  V30 2885 H 271.155 -2.60571 -1.75926 0
M  V30 2886 N 274.927 -0.932562 -1.27047 0
M  V30 2887 C 276.157 -0.591173 -1.97961 0
M  V30 2888 C 276.565 0.836219 -1.69717 0
M  V30 2889 O 275.908 1.56801 -0.957036 0
M  V30 2890 C 275.97 -0.743082 -3.51736 0
M  V30 2891 C 275.634 -2.1435 -4.03613 0
M  V30 2892 C 276.631 -3.11815 -4.16014 0
M  V30 2893 C 274.316 -2.46175 -4.37839 0
M  V30 2894 C 276.31 -4.39211 -4.61923 0
M  V30 2895 C 273.997 -3.73806 -4.83438 0
M  V30 2896 C 274.995 -4.70137 -4.95439 0
M  V30 2897 O 274.683 -5.95496 -5.40037 0
M  V30 2898 H 274.415 -0.222375 -0.638377 0
M  V30 2899 H 276.969 -1.25317 -1.62742 0
M  V30 2900 H 275.199 -0.0239739 -3.86693 0
M  V30 2901 H 276.888 -0.40603 -4.03864 0
M  V30 2902 H 277.654 -2.88549 -3.89826 0
M  V30 2903 H 273.533 -1.71936 -4.27737 0
M  V30 2904 H 277.077 -5.14404 -4.71205 0
M  V30 2905 H 272.974 -3.96888 -5.09068 0
M  V30 2906 H 273.742 -5.98554 -5.58279 0
M  V30 2907 N 276.405 1.4127 -0.698611 0
M  V30 2908 C 277.368 2.29158 -0.044132 0
M  V30 2909 C 278.368 1.44529 0.704841 0
M  V30 2910 O 279.558 1.65643 0.539276 0
M  V30 2911 C 276.69 3.27459 0.947809 0
M  V30 2912 H 277.883 2.88529 -0.817994 0
M  V30 2913 H 275.436 1.49307 -0.46228 0
M  V30 2914 H 276.171 2.73073 1.74933 0
M  V30 2915 H 275.956 3.8991 0.41385 0
M  V30 2916 H 277.446 3.93311 1.40344 0
M  V30 2917 N 277.883 0.443576 1.51229 0
M  V30 2918 C 278.831 -0.37904 2.29491 0
M  V30 2919 C 279.825 -1.0153 1.35603 0
M  V30 2920 O 281.031 -0.94955 1.52917 0
M  V30 2921 H 277.406 -0.141053 0.738653 0
M  V30 2922 H 279.377 0.301799 2.9687 0
M  V30 2923 C 278.126 -1.46426 3.15364 0
M  V30 2924 H 277.449 -0.984037 3.87501 0
M  V30 2925 H 278.889 -2.01297 3.7317 0
M  V30 2926 C 277.348 -2.45099 2.31146 0
M  V30 2927 O 277.878 -3.49773 1.9754 0
M  V30 2928 N 276.084 -2.16139 1.94249 0
M  V30 2929 H 275.631 -1.31044 2.21777 0
M  V30 2930 H 275.589 -2.82398 1.38198 0
M  V30 2931 N 279.361 -1.56624 0.175154 0
M  V30 2932 C 280.607 -1.9729 -0.469506 0
M  V30 2933 C 280.94 -1.06128 -1.62636 0
M  V30 2934 O 280.215 -0.109183 -1.94193 0
M  V30 2935 C 280.498 -3.47375 -0.948804 0
M  V30 2936 C 280.351 -4.49317 0.208491 0
M  V30 2937 C 281.67 -4.00652 -1.82116 0
M  V30 2938 H 278.789 -0.717317 -0.16919 0
M  V30 2939 H 281.431 -1.88184 0.262062 0
M  V30 2940 H 279.581 -3.55267 -1.57219 0
M  V30 2941 H 281.253 -4.53482 0.845682 0
M  V30 2942 H 279.496 -4.25121 0.863395 0
M  V30 2943 H 280.167 -5.51741 -0.169059 0
M  V30 2944 H 282.643 -3.95416 -1.2956 0
M  V30 2945 H 281.519 -5.06075 -2.12554 0
M  V30 2946 H 281.78 -3.44699 -2.7683 0
M  V30 2947 N 280.839 0.0985539 -1.57292 0
M  V30 2948 C 281.749 1.13824 -2.05137 0
M  V30 2949 C 282.765 1.44076 -0.975604 0
M  V30 2950 O 283.941 1.54786 -1.28853 0
M  V30 2951 C 281.006 2.43969 -2.46333 0
M  V30 2952 C 280.067 2.2093 -3.68087 0
M  V30 2953 C 279.3 3.44869 -4.0731 0
M  V30 2954 O 279.523 4.52972 -3.46659 0
M  V30 2955 O 278.457 3.34661 -5.00285 0
M  V30 2956 H 282.283 0.761881 -2.93988 0
M  V30 2957 H 279.868 0.310818 -1.46131 0
M  V30 2958 H 281.75 3.20609 -2.73473 0
M  V30 2959 H 280.425 2.81038 -1.60621 0
M  V30 2960 H 279.332 1.42081 -3.46069 0
M  V30 2961 H 280.665 1.88755 -4.54568 0
M  V30 2962 N 282.317 1.53212 0.369288 0
M  V30 2963 C 283.247 1.82365 1.45826 0
M  V30 2964 C 284.228 0.676907 1.56051 0
M  V30 2965 O 285.413 0.926401 1.70679 0
M  V30 2966 C 282.543 2.01023 2.83208 0
M  V30 2967 C 281.497 3.1678 2.8781 0
M  V30 2968 C 280.823 3.20724 4.27832 0
M  V30 2969 C 282.123 4.55447 2.55667 0
M  V30 2970 H 283.817 2.73559 1.21678 0
M  V30 2971 H 281.363 1.3163 0.583911 0
M  V30 2972 H 283.316 2.20001 3.59413 0
M  V30 2973 H 282.04 1.06536 3.08736 0
M  V30 2974 H 280.699 2.97616 2.14056 0
M  V30 2975 H 280.347 2.23882 4.50429 0
M  V30 2976 H 280.047 3.98496 4.31827 0
M  V30 2977 H 281.571 3.41881 5.05915 0
M  V30 2978 H 282.985 4.74611 3.21586 0
M  V30 2979 H 281.382 5.35432 2.70984 0
M  V30 2980 H 282.452 4.60812 1.5093 0
M  V30 2981 N 283.795 -0.628877 1.44509 0
M  V30 2982 C 285.044 -1.38437 1.4669 0
M  V30 2983 C 285.357 -1.95322 0.104272 0
M  V30 2984 O 286.563 -2.715 0.00362163 0
M  V30 2985 C 285.019 -2.50659 2.5826 0
M  V30 2986 C 284.627 -2.00277 4.0074 0
M  V30 2987 C 286.371 -3.27844 2.69664 0
M  V30 2988 C 284.278 -3.09854 5.0373 0
M  V30 2989 H 283.208 -0.520245 0.545766 0
M  V30 2990 H 285.859 -0.676313 1.70582 0
M  V30 2991 H 284.241 -3.2405 2.27612 0
M  V30 2992 H 285.415 -1.33736 4.40966 0
M  V30 2993 H 283.73 -1.35901 3.93599 0
M  V30 2994 H 286.327 -4.09534 3.43781 0
M  V30 2995 H 286.67 -3.77471 1.75559 0
M  V30 2996 H 287.203 -2.61543 2.99733 0
M  V30 2997 H 283.942 -2.65168 5.99472 0
M  V30 2998 H 283.462 -3.7503 4.68095 0
M  V30 2999 H 285.141 -3.74592 5.27532 0
M  V30 3000 N 285.273 -1.31445 -0.869486 0
M  V30 3001 C 286.203 -1.21727 -1.99261 0
M  V30 3002 C 287.184 -0.104359 -1.6978 0
M  V30 3003 O 288.369 -0.289038 -1.92037 0
M  V30 3004 C 285.499 -0.924317 -3.34774 0
M  V30 3005 C 284.453 -1.99685 -3.78563 0
M  V30 3006 C 283.779 -1.55658 -5.11541 0
M  V30 3007 C 285.079 -3.41003 -3.95619 0
M  V30 3008 H 286.773 -2.1569 -2.07649 0
M  V30 3009 H 284.319 -1.03839 -0.997675 0
M  V30 3010 H 286.272 -0.842934 -4.12883 0
M  V30 3011 H 284.996 0.0509793 -3.2656 0
M  V30 3012 H 283.655 -2.06813 -3.02694 0
M  V30 3013 H 283.303 -0.569132 -4.9977 0
M  V30 3014 H 283.003 -2.27409 -5.41811 0
M  V30 3015 H 284.527 -1.48928 -5.92159 0
M  V30 3016 H 285.941 -3.36547 -4.64122 0
M  V30 3017 H 284.338 -4.10975 -4.37286 0
M  V30 3018 H 285.408 -3.81754 -2.98985 0
M  V30 3019 N 286.751 1.08385 -1.14413 0
M  V30 3020 C 288.028 1.77429 -0.823297 0
M  V30 3021 C 288.408 1.9974 0.683163 0
M  V30 3022 O 287.756 1.60739 1.62405 0
M  V30 3023 C 287.966 3.09004 -1.62227 0
M  V30 3024 C 289.314 3.83532 -1.82177 0
M  V30 3025 O 290.338 3.18786 -1.58915 0
M  V30 3026 O 289.197 4.99792 -2.21067 0
M  V30 3027 H 286.291 0.769999 -0.301712 0
M  V30 3028 H 288.837 1.14846 -1.24934 0
M  V30 3029 H 287.609 2.88316 -2.64555 0
M  V30 3030 H 287.232 3.79316 -1.19187 0
M  V30 3031 N 288.23 0.939286 1.26551 0
M  V30 3032 C 289.479 0.581601 1.93133 0
M  V30 3033 C 289.792 -0.883224 1.74524 0
M  V30 3034 O 290.998 -1.3502 2.35546 0
M  V30 3035 C 289.454 0.989425 3.46032 0
M  V30 3036 C 289.062 2.47573 3.73379 0
M  V30 3037 C 290.806 0.703544 4.18629 0
M  V30 3038 C 288.713 2.82235 5.19709 0
M  V30 3039 H 287.643 0.213803 0.723052 0
M  V30 3040 H 290.294 1.14167 1.4366 0
M  V30 3041 H 288.676 0.357902 3.94379 0
M  V30 3042 H 289.85 3.15614 3.35744 0
M  V30 3043 H 288.165 2.73471 3.1401 0
M  V30 3044 H 290.762 0.938869 5.26393 0
M  V30 3045 H 291.105 -0.359639 4.14744 0
M  V30 3046 H 291.638 1.2947 3.76141 0
M  V30 3047 H 288.377 3.87509 5.28694 0
M  V30 3048 H 287.897 2.18854 5.58447 0
M  V30 3049 H 289.576 2.70599 5.87695 0
M  V30 3050 N 289.708 -1.40897 0.706093 0
M  V30 3051 C 290.671 -2.29131 0.0562841 0
M  V30 3052 C 291.671 -1.44901 -0.697166 0
M  V30 3053 O 292.861 -1.65926 -0.530484 0
M  V30 3054 C 289.993 -3.27957 -0.93043 0
M  V30 3055 H 291.186 -2.88091 0.833284 0
M  V30 3056 H 288.739 -1.4906 0.470192 0
M  V30 3057 H 289.474 -2.73997 -1.73482 0
M  V30 3058 H 289.259 -3.90124 -0.393166 0
M  V30 3059 H 290.749 -3.94049 -1.38256 0
M  V30 3060 N 291.186 -0.45159 -1.50991 0
M  V30 3061 C 292.133 0.352625 -2.2809 0
M  V30 3062 C 293.103 1.0044 -1.32291 0
M  V30 3063 O 294.288 1.02058 -1.6121 0
M  V30 3064 C 291.428 1.43983 -3.13629 0
M  V30 3065 C 290.541 0.804772 -4.24438 0
M  V30 3066 C 289.676 1.86822 -4.97263 0
M  V30 3067 C 288.715 1.21236 -5.99973 0
M  V30 3068 N 287.852 2.2178 -6.66152 0
M  V30 3069 H 292.692 -0.311186 -2.96371 0
M  V30 3070 H 290.229 -0.165308 -1.46168 0
M  V30 3071 H 292.187 2.08161 -3.61559 0
M  V30 3072 H 290.817 2.07307 -2.47434 0
M  V30 3073 H 289.869 0.0509129 -3.80366 0
M  V30 3074 H 291.181 0.286076 -4.97979 0
M  V30 3075 H 290.335 2.58628 -5.48813 0
M  V30 3076 H 289.074 2.42068 -4.23385 0
M  V30 3077 H 288.079 0.479828 -5.47702 0
M  V30 3078 H 289.304 0.667051 -6.75816 0
M  V30 3079 H 287.25 2.76079 -5.95077 0
M  V30 3080 H 287.167 1.74841 -7.35504 0
M  V30 3081 H 288.435 2.93026 -7.22327 0
M  V30 3082 N 292.664 1.56529 -0.183458 0
M  V30 3083 C 294.08 1.58664 0.172554 0
M  V30 3084 C 294.28 1.19925 1.61926 0
M  V30 3085 O 293.336 0.916534 2.35278 0
M  V30 3086 C 294.649 3.00463 -0.119262 0
M  V30 3087 C 296.197 3.12945 -0.0584396 0
M  V30 3088 C 296.672 4.56857 -0.323408 0
M  V30 3089 N 298.163 4.62403 -0.271612 0
M  V30 3090 C 298.898 5.71626 -0.450639 0
M  V30 3091 N 298.394 6.89362 -0.689384 0
M  V30 3092 N 300.187 5.60775 -0.385701 0
M  V30 3093 H 292.338 1.79994 -1.12765 0
M  V30 3094 H 294.601 0.834808 -0.449222 0
M  V30 3095 H 294.307 3.33326 -1.12192 0
M  V30 3096 H 294.181 3.72659 0.583544 0
M  V30 3097 H 296.568 2.79902 0.934805 0
M  V30 3098 H 296.649 2.4316 -0.794144 0
M  V30 3099 H 296.293 4.9061 -1.31392 0
M  V30 3100 H 296.223 5.24816 0.43305 0
M  V30 3101 H 298.714 3.77785 -0.0932256 0
M  V30 3102 H 299.027 7.68489 -0.815113 0
M  V30 3103 H 297.372 6.91196 -0.726142 0
M  V30 3104 H 300.563 4.67674 -0.199687 0
M  V30 3105 H 300.736 6.4584 -0.528646 0
M  V30 3106 N 294.142 -0.090211 1.57342 0
M  V30 3107 C 295.391 -0.791531 1.8552 0
M  V30 3108 C 295.704 -1.79659 0.773441 0
M  V30 3109 O 296.91 -2.54616 0.942497 0
M  V30 3110 C 295.366 -1.45856 3.2902 0
M  V30 3111 C 294.974 -0.493017 4.45279 0
M  V30 3112 C 296.718 -2.14332 3.66418 0
M  V30 3113 C 294.625 -1.16491 5.79814 0
M  V30 3114 H 293.555 -0.299356 0.692027 0
M  V30 3115 H 296.206 -0.0445343 1.83446 0
M  V30 3116 H 294.588 -2.25318 3.2565 0
M  V30 3117 H 295.762 0.270464 4.60006 0
M  V30 3118 H 294.077 0.0863061 4.16311 0
M  V30 3119 H 296.674 -2.65344 4.64216 0
M  V30 3120 H 297.017 -2.93447 2.95287 0
M  V30 3121 H 297.55 -1.41724 3.71698 0
M  V30 3122 H 294.289 -0.41447 6.54188 0
M  V30 3123 H 293.809 -1.8997 5.68921 0
M  V30 3124 H 295.488 -1.69001 6.24538 0
M  V30 3125 N 295.62 -1.53406 -0.361157 0
M  V30 3126 C 297.031 -1.61442 -0.937728 0
M  V30 3127 C 297.382 -0.48461 -1.90121 0
M  V30 3128 O 296.507 0.388312 -2.12888 0
M  V30 3129 C 297.102 -2.92624 -1.70753 0
M  V30 3130 C 295.661 -3.02981 -2.23337 0
M  V30 3131 C 294.808 -2.5677 -1.04712 0
M  V30 3132 H 297.759 -1.58083 -0.139816 0
M  V30 3133 H 297.78 -2.80675 -2.56908 0
M  V30 3134 H 297.292 -3.74834 -1.00604 0
M  V30 3135 H 295.393 -2.25368 -2.96715 0
M  V30 3136 H 295.506 -4.0814 -2.50916 0
M  V30 3137 H 293.87 -2.11752 -1.41539 0
M  V30 3138 H 294.653 -3.41402 -0.360539 0
M  V30 3139 N 297.098 0.621204 -1.44841 0
M  V30 3140 C 298.344 1.3826 -1.48365 0
M  V30 3141 C 298.677 1.93831 -0.119624 0
M  V30 3142 O 297.952 1.74251 0.864111 0
M  V30 3143 C 298.235 2.54058 -2.55199 0
M  V30 3144 C 298.088 2.03772 -4.00995 0
M  V30 3145 C 299.407 3.56225 -2.58442 0
M  V30 3146 H 296.526 0.501374 -0.540179 0
M  V30 3147 H 299.168 0.7015 -1.76576 0
M  V30 3148 H 297.318 3.12162 -2.31274 0
M  V30 3149 H 298.99 1.50423 -4.36086 0
M  V30 3150 H 297.233 1.34876 -4.12299 0
M  V30 3151 H 297.904 2.87185 -4.71411 0
M  V30 3152 H 300.38 3.07939 -2.79844 0
M  V30 3153 H 299.256 4.34756 -3.3508 0
M  V30 3154 H 299.517 4.10949 -1.63013 0
M  V30 3155 N 298.576 1.31904 0.862503 0
M  V30 3156 C 299.508 1.16005 1.97675 0
M  V30 3157 C 300.521 0.0971234 1.6251 0
M  V30 3158 O 301.71 0.345337 1.75128 0
M  V30 3159 C 298.81 0.751791 3.30456 0
M  V30 3160 C 297.983 1.90133 3.93914 0
M  V30 3161 C 297.042 1.4779 5.05019 0
M  V30 3162 O 296.068 2.18872 5.25437 0
M  V30 3163 N 297.27 0.369491 5.79323 0
M  V30 3164 H 300.035 2.11982 2.11857 0
M  V30 3165 H 297.596 1.24337 1.03691 0
M  V30 3166 H 299.588 0.451084 4.02178 0
M  V30 3167 H 298.158 -0.116593 3.12382 0
M  V30 3168 H 297.378 2.36896 3.15078 0
M  V30 3169 H 298.666 2.67111 4.33047 0
M  V30 3170 H 298.064 -0.222299 5.65263 0
M  V30 3171 H 296.621 0.128354 6.51674 0
M  V30 3172 N 300.054 -1.07777 1.14986 0
M  V30 3173 C 301.017 -2.13041 0.845358 0
M  V30 3174 C 302.017 -1.60071 -0.152931 0
M  V30 3175 O 303.207 -1.74033 0.0761879 0
M  V30 3176 C 300.339 -3.39896 0.261383 0
M  V30 3177 H 301.532 -2.41485 1.77834 0
M  V30 3178 H 299.085 -1.23595 0.956757 0
M  V30 3179 H 299.82 -3.17091 -0.68 0
M  V30 3180 H 299.605 -3.79642 0.980514 0
M  V30 3181 H 301.095 -4.17548 0.0657687 0
M  V30 3182 N 301.532 -0.945985 -1.26051 0
M  V30 3183 C 302.778 -0.597002 -1.93814 0
M  V30 3184 C 303.111 0.862484 -1.73997 0
M  V30 3185 O 302.386 1.61769 -1.07986 0
M  V30 3186 C 302.669 -0.945937 -3.47454 0
M  V30 3187 C 302.522 -2.46052 -3.76535 0
M  V30 3188 C 303.841 -0.464785 -4.37639 0
M  V30 3189 H 300.96 -0.218366 -0.703907 0
M  V30 3190 H 303.602 -1.18107 -1.48831 0
M  V30 3191 H 301.752 -0.448902 -3.85898 0
M  V30 3192 H 303.424 -3.03065 -3.47778 0
M  V30 3193 H 301.667 -2.90194 -3.22444 0
M  V30 3194 H 302.338 -2.65517 -4.83947 0
M  V30 3195 H 304.814 -0.891016 -4.06448 0
M  V30 3196 H 303.69 -0.737712 -5.4392 0
M  V30 3197 H 303.951 0.635274 -4.37512 0
M  V30 3198 N 303.011 1.40521 -0.713556 0
M  V30 3199 C 304.257 2.01714 -0.261382 0
M  V30 3200 C 304.612 1.55562 1.13217 0
M  V30 3201 O 303.905 0.764893 1.7567 0
M  V30 3202 C 304.099 3.56317 -0.278 0
M  V30 3203 C 303.928 4.17476 -1.67163 0
M  V30 3204 C 302.698 4.50998 -2.2788 0
M  V30 3205 C 304.896 4.42472 -2.6215 0
M  V30 3206 N 302.878 4.9754 -3.5962 0
M  V30 3207 C 304.249 4.90985 -3.78594 0
M  V30 3208 C 306.304 4.24508 -2.60188 0
M  V30 3209 C 305.007 5.2342 -4.9338 0
M  V30 3210 C 307.033 4.58043 -3.741 0
M  V30 3211 C 306.395 5.06743 -4.89276 0
M  V30 3212 H 302.494 0.769104 -0.141434 0
M  V30 3213 H 305.078 1.70785 -0.934915 0
M  V30 3214 H 303.249 3.8668 0.36509 0
M  V30 3215 H 304.981 4.0425 0.190695 0
M  V30 3216 H 301.736 4.38062 -1.79997 0
M  V30 3217 H 302.16 5.25196 -4.27198 0
M  V30 3218 H 306.802 3.86078 -1.72348 0
M  V30 3219 H 304.52 5.60765 -5.81866 0
M  V30 3220 H 308.106 4.45785 -3.73854 0
M  V30 3221 H 306.986 5.32204 -5.75959 0
M  V30 3222 N 304.489 0.459591 1.5075 0
M  V30 3223 C 305.452 -0.329093 2.26825 0
M  V30 3224 C 306.452 -0.930481 1.31144 0
M  V30 3225 O 307.642 -0.801453 1.54669 0
M  V30 3226 C 304.774 -1.46768 3.07688 0
M  V30 3227 H 305.967 0.337924 2.9799 0
M  V30 3228 H 303.52 0.213336 1.54837 0
M  V30 3229 H 304.255 -2.17009 2.40993 0
M  V30 3230 H 304.04 -1.04238 3.77991 0
M  V30 3231 H 305.53 -2.02433 3.65254 0
M  V30 3232 N 305.967 -1.56429 0.191757 0
M  V30 3233 C 307.215 -1.97095 -0.447006 0
M  V30 3234 C 307.536 -1.07967 -1.62383 0
M  V30 3235 O 306.806 -0.150248 -1.95323 0
M  V30 3236 H 305.386 -0.727832 -0.168135 0
M  V30 3237 H 308.048 -1.92911 0.27771 0
M  V30 3238 H 307.144 -3.01848 -0.793371 0
M  V30 3239 N 307.445 0.0818655 -1.57387 0
M  V30 3240 C 308.691 0.778884 -1.87896 0
M  V30 3241 C 309.046 1.75692 -0.784229 0
M  V30 3242 O 308.339 1.90417 0.212567 0
M  V30 3243 C 308.533 1.53513 -3.22752 0
M  V30 3244 C 308.362 0.631838 -4.45239 0
M  V30 3245 C 307.132 0.272571 -5.04564 0
M  V30 3246 C 309.33 -0.0670191 -5.14256 0
M  V30 3247 N 307.312 -0.637498 -6.10581 0
M  V30 3248 C 308.683 -0.834653 -6.14356 0
M  V30 3249 C 310.738 -0.139551 -4.97704 0
M  V30 3250 C 309.441 -1.66806 -6.99691 0
M  V30 3251 C 311.467 -0.959903 -5.83558 0
M  V30 3252 C 310.829 -1.71561 -6.83188 0
M  V30 3253 H 306.928 0.260764 -0.737242 0
M  V30 3254 H 309.512 0.0408227 -1.94657 0
M  V30 3255 H 307.683 2.24398 -3.17018 0
M  V30 3256 H 309.415 2.18038 -3.40942 0
M  V30 3257 H 306.17 0.62319 -4.69482 0
M  V30 3258 H 306.594 -1.08548 -6.68241 0
M  V30 3259 H 311.236 0.430376 -4.20604 0
M  V30 3260 H 308.954 -2.249 -7.76174 0
M  V30 3261 H 312.54 -1.01887 -5.72809 0
M  V30 3262 H 311.42 -2.34017 -7.48469 0
M  V30 3263 N 308.923 1.53595 0.353017 0
M  V30 3264 C 310.171 1.70049 1.09215 0
M  V30 3265 C 310.492 0.461406 1.89463 0
M  V30 3266 O 309.762 -0.524633 1.88744 0
M  V30 3267 H 308.342 0.626912 0.40619 0
M  V30 3268 H 311.004 1.90822 0.396585 0
M  V30 3269 H 310.1 2.56718 1.77488 0
M  V30 3270 N 310.401 -0.613514 1.45168 0
M  V30 3271 C 311.351 -1.71871 1.49815 0
M  V30 3272 C 312.335 -1.56774 0.362021 0
M  V30 3273 O 313.527 -1.66212 0.608493 0
M  V30 3274 C 310.656 -3.1061 1.46207 0
M  V30 3275 C 309.742 -3.31114 2.64999 0
M  V30 3276 N 310.133 -3.21904 3.90143 0
M  V30 3277 C 308.431 -3.61966 2.6057 0
M  V30 3278 C 309.132 -3.43577 4.69393 0
M  V30 3279 N 308.108 -3.67287 4.00751 0
M  V30 3280 H 311.91 -1.63235 2.444 0
M  V30 3281 H 309.424 -0.816577 1.40377 0
M  V30 3282 H 311.421 -3.8989 1.4762 0
M  V30 3283 H 310.081 -3.20399 0.52673 0
M  V30 3284 H 311.092 -3.00436 4.21852 0
M  V30 3285 H 307.769 -3.78629 1.75916 0
M  V30 3286 H 309.159 -3.41901 5.78406 0
M  V30 3287 N 311.879 -1.3236 -0.855495 0
M  V30 3288 C 312.842 -1.21164 -1.94556 0
M  V30 3289 C 313.842 -0.134908 -1.60233 0
M  V30 3290 O 315.032 -0.385249 -1.69887 0
M  V30 3291 C 312.164 -0.863192 -3.29791 0
M  V30 3292 H 313.357 -2.18038 -2.05911 0
M  V30 3293 H 310.91 -1.16179 -1.04557 0
M  V30 3294 H 311.645 0.103769 -3.24134 0
M  V30 3295 H 311.43 -1.64166 -3.56078 0
M  V30 3296 H 312.92 -0.809156 -4.09686 0
M  V30 3297 N 313.357 1.07166 -1.15556 0
M  V30 3298 C 314.582 1.84053 -0.955988 0
M  V30 3299 C 315.007 1.81586 0.490739 0
M  V30 3300 O 314.365 1.21018 1.34997 0
M  V30 3301 C 314.413 3.28957 -1.47714 0
M  V30 3302 O 313.517 4.06795 -0.677593 0
M  V30 3303 H 312.858 0.569842 -0.340847 0
M  V30 3304 H 315.388 1.35178 -1.53584 0
M  V30 3305 H 315.398 3.79788 -1.4908 0
M  V30 3306 H 314.073 3.30068 -2.53037 0
M  V30 3307 H 312.65 3.6561 -0.733721 0
M  V30 3308 N 314.835 0.952656 1.25548 0
M  V30 3309 C 315.745 0.47782 2.29682 0
M  V30 3310 C 316.761 -0.453859 1.67977 0
M  V30 3311 O 317.937 -0.330587 1.98668 0
M  V30 3312 C 315.002 -0.238655 3.45878 0
M  V30 3313 C 314.063 0.730994 4.23031 0
M  V30 3314 C 313.296 0.0486165 5.33678 0
M  V30 3315 O 313.519 -1.16612 5.58353 0
M  V30 3316 O 312.453 0.733152 5.97418 0
M  V30 3317 H 316.279 1.34312 2.72386 0
M  V30 3318 H 313.864 0.719026 1.30959 0
M  V30 3319 H 315.746 -0.641774 4.16484 0
M  V30 3320 H 314.421 -1.07916 3.05181 0
M  V30 3321 H 313.328 1.18428 3.5486 0
M  V30 3322 H 314.661 1.53946 4.67506 0
M  V30 3323 N 316.313 -1.40141 0.720998 0
M  V30 3324 C 317.261 -2.3252 0.0608547 0
M  V30 3325 C 318.255 -1.52326 -0.741152 0
M  V30 3326 O 319.461 -1.68089 -0.643911 0
M  V30 3327 H 315.836 -0.751999 0.000876664 0
M  V30 3328 H 317.807 -2.8584 0.856614 0
M  V30 3329 C 316.556 -3.37331 -0.842809 0
M  V30 3330 H 315.879 -3.99108 -0.235084 0
M  V30 3331 H 317.319 -4.04452 -1.27257 0
M  V30 3332 C 315.778 -2.73246 -1.97074 0
M  V30 3333 O 316.308 -2.59998 -3.06209 0
M  V30 3334 N 314.514 -2.31547 -1.75597 0
M  V30 3335 H 314.061 -2.42522 -0.868368 0
M  V30 3336 H 314.019 -1.89007 -2.51244 0
M  V30 3337 N 317.792 -0.46758 -1.50504 0
M  V30 3338 C 319.203 -0.0116166 -1.86696 0
M  V30 3339 C 319.554 1.39202 -1.38265 0
M  V30 3340 O 318.679 2.0313 -0.746132 0
M  V30 3341 C 319.274 -0.0143044 -3.38797 0
M  V30 3342 C 317.833 0.386175 -3.74414 0
M  V30 3343 C 316.98 -0.401287 -2.74381 0
M  V30 3344 H 319.931 -0.682022 -1.43297 0
M  V30 3345 H 319.952 0.788641 -3.72237 0
M  V30 3346 H 319.464 -1.03602 -3.74016 0
M  V30 3347 H 317.565 1.41237 -3.44794 0
M  V30 3348 H 317.678 0.0899596 -4.79016 0
M  V30 3349 H 316.042 0.144536 -2.5429 0
M  V30 3350 H 316.825 -1.42244 -3.12444 0
M  V30 3351 N 319.27 1.56325 -0.20005 0
M  V30 3352 C 320.217 2.1932 0.718833 0
M  V30 3353 C 321.187 1.14198 1.20615 0
M  V30 3354 O 322.372 1.42469 1.26914 0
M  V30 3355 C 319.512 2.86041 1.93066 0
M  V30 3356 C 318.625 4.05702 1.48425 0
M  V30 3357 C 317.76 4.60266 2.65196 0
M  V30 3358 C 316.799 5.72273 2.17185 0
M  V30 3359 N 315.936 6.21221 3.27152 0
M  V30 3360 H 320.776 2.97486 0.17489 0
M  V30 3361 H 318.313 1.46911 0.0745794 0
M  V30 3362 H 320.271 3.22897 2.64184 0
M  V30 3363 H 318.901 2.1043 2.44783 0
M  V30 3364 H 317.953 3.74475 0.668755 0
M  V30 3365 H 319.265 4.86699 1.09204 0
M  V30 3366 H 318.419 4.99453 3.4443 0
M  V30 3367 H 317.158 3.78386 3.07693 0
M  V30 3368 H 316.163 5.3261 1.36407 0
M  V30 3369 H 317.388 6.55974 1.75713 0
M  V30 3370 H 315.334 5.42263 3.69171 0
M  V30 3371 H 315.251 6.97284 2.92116 0
M  V30 3372 H 316.519 6.65063 4.06585 0
M  V30 3373 N 320.748 -0.0735177 1.57428 0
M  V30 3374 C 321.678 -1.0879 2.06608 0
M  V30 3375 C 322.659 -1.40473 0.959237 0
M  V30 3376 O 323.844 -1.5013 1.23185 0
M  V30 3377 C 320.974 -2.40183 2.50857 0
M  V30 3378 C 319.928 -2.22858 3.65402 0
M  V30 3379 C 319.254 -3.59619 3.957 0
M  V30 3380 C 320.554 -1.65123 4.95511 0
M  V30 3381 H 322.248 -0.678673 2.91607 0
M  V30 3382 H 319.794 -0.325013 1.40284 0
M  V30 3383 H 321.747 -3.11437 2.83874 0
M  V30 3384 H 320.471 -2.83083 1.62885 0
M  V30 3385 H 319.13 -1.54045 3.32664 0
M  V30 3386 H 318.778 -4.00086 3.04861 0
M  V30 3387 H 318.478 -3.48866 4.72828 0
M  V30 3388 H 320.002 -4.32306 4.31212 0
M  V30 3389 H 321.416 -2.26241 5.26771 0
M  V30 3390 H 319.813 -1.65071 5.7695 0
M  V30 3391 H 320.883 -0.612559 4.81015 0
M  V30 3392 N 322.226 -1.5378 -0.344866 0
M  V30 3393 C 323.637 -1.62428 -0.920552 0
M  V30 3394 C 323.988 -0.504747 -1.89596 0
M  V30 3395 O 323.113 0.365711 -2.13287 0
M  V30 3396 C 323.708 -2.94419 -1.67639 0
M  V30 3397 C 322.267 -3.05333 -2.20111 0
M  V30 3398 C 321.414 -2.57866 -1.01982 0
M  V30 3399 H 324.365 -1.58222 -0.123042 0
M  V30 3400 H 324.386 -2.83384 -2.53917 0
M  V30 3401 H 323.898 -3.7588 -0.966224 0
M  V30 3402 H 321.999 -2.28502 -2.94308 0
M  V30 3403 H 322.112 -4.10778 -2.46573 0
M  V30 3404 H 320.476 -2.13241 -1.39285 0
M  V30 3405 H 321.259 -3.41765 -0.324308 0
M  V30 3406 N 323.704 0.605807 -1.45491 0
M  V30 3407 C 324.614 1.74466 -1.56839 0
M  V30 3408 C 325.63 1.68006 -0.452772 0
M  V30 3409 O 326.806 1.8833 -0.713708 0
M  V30 3410 C 323.871 3.10931 -1.53371 0
M  V30 3411 C 322.932 3.28832 -2.75986 0
M  V30 3412 C 322.165 4.58787 -2.72673 0
M  V30 3413 O 322.388 5.4122 -1.80102 0
M  V30 3414 O 321.322 4.79438 -3.63899 0
M  V30 3415 H 325.148 1.67843 -2.53106 0
M  V30 3416 H 322.733 0.770108 -1.28022 0
M  V30 3417 H 324.615 3.92233 -1.54051 0
M  V30 3418 H 323.29 3.18042 -0.602572 0
M  V30 3419 H 322.197 2.47112 -2.80867 0
M  V30 3420 H 323.53 3.26599 -3.68231 0
M  V30 3421 N 325.182 1.32811 0.848464 0
M  V30 3422 C 326.112 1.24882 1.97299 0
M  V30 3423 C 327.093 0.131357 1.69592 0
M  V30 3424 O 328.278 0.319553 1.91553 0
M  V30 3425 C 325.408 0.97746 3.33261 0
M  V30 3426 C 324.362 2.05682 3.75338 0
M  V30 3427 C 323.688 1.63777 5.09 0
M  V30 3428 C 324.988 3.47254 3.90144 0
M  V30 3429 H 326.682 2.18966 2.04191 0
M  V30 3430 H 324.228 1.05413 0.981029 0
M  V30 3431 H 326.181 0.908513 4.1149 0
M  V30 3432 H 324.905 0.000980011 3.266 0
M  V30 3433 H 323.564 2.11603 2.99366 0
M  V30 3434 H 323.212 0.648569 4.98801 0
M  V30 3435 H 322.912 2.36 5.38124 0
M  V30 3436 H 324.436 1.5833 5.89715 0
M  V30 3437 H 325.85 3.43888 4.58709 0
M  V30 3438 H 324.247 4.1788 4.30693 0
M  V30 3439 H 325.317 3.86462 2.92874 0
M  V30 3440 N 326.66 -1.06551 1.16123 0
M  V30 3441 C 327.59 -2.15935 0.88851 0
M  V30 3442 C 328.571 -1.69306 -0.164135 0
M  V30 3443 O 329.756 -1.94193 -0.0167857 0
M  V30 3444 C 326.886 -3.45149 0.385942 0
M  V30 3445 C 325.84 -4.05271 1.3762 0
M  V30 3446 C 325.166 -5.29664 0.732137 0
M  V30 3447 C 326.466 -4.44355 2.74493 0
M  V30 3448 H 328.16 -2.39006 1.80323 0
M  V30 3449 H 325.706 -1.14866 0.868435 0
M  V30 3450 H 327.659 -4.21004 0.182647 0
M  V30 3451 H 326.383 -3.21689 -0.564274 0
M  V30 3452 H 325.042 -3.3147 1.56599 0
M  V30 3453 H 324.69 -5.02499 -0.224483 0
M  V30 3454 H 324.39 -5.70848 1.39307 0
M  V30 3455 H 325.914 -6.08218 0.538802 0
M  V30 3456 H 327.328 -5.11303 2.59311 0
M  V30 3457 H 325.725 -4.96515 3.37035 0
M  V30 3458 H 326.795 -3.55339 3.29943 0
M  V30 3459 N 328.138 -0.959301 -1.25041 0
M  V30 3460 C 329.068 -0.501388 -2.28053 0
M  V30 3461 C 330.049 0.454673 -1.63911 0
M  V30 3462 O 331.234 0.352618 -1.90972 0
M  V30 3463 C 328.364 0.217224 -3.4662 0
M  V30 3464 C 327.318 -0.654034 -4.22973 0
M  V30 3465 C 326.644 0.195589 -5.34342 0
M  V30 3466 C 327.944 -1.93447 -4.85155 0
M  V30 3467 H 329.638 -1.36238 -2.66608 0
M  V30 3468 H 327.184 -0.656534 -1.28163 0
M  V30 3469 H 329.137 0.548732 -4.17812 0
M  V30 3470 H 327.861 1.1125 -3.07068 0
M  V30 3471 H 326.52 -0.968693 -3.5357 0
M  V30 3472 H 326.168 1.09076 -4.91031 0
M  V30 3473 H 325.868 -0.384091 -5.86343 0
M  V30 3474 H 327.392 0.521958 -6.08365 0
M  V30 3475 H 328.806 -1.66908 -5.48466 0
M  V30 3476 H 327.203 -2.46018 -5.47353 0
M  V30 3477 H 328.273 -2.63466 -4.07079 0
M  V30 3478 N 329.616 1.39756 -0.72842 0
M  V30 3479 C 330.563 2.30647 -0.0841519 0
M  V30 3480 C 331.533 1.48869 0.7367 0
M  V30 3481 O 332.718 1.77574 0.698015 0
M  V30 3482 C 329.858 3.35165 0.822091 0
M  V30 3483 C 328.971 4.31999 -0.0106663 0
M  V30 3484 C 328.106 5.23585 0.896241 0
M  V30 3485 C 327.145 6.12072 0.0583381 0
M  V30 3486 N 326.282 6.96035 0.920818 0
M  V30 3487 H 331.122 2.85173 -0.864891 0
M  V30 3488 H 328.659 1.40422 -0.438179 0
M  V30 3489 H 330.617 3.94345 1.36189 0
M  V30 3490 H 329.247 2.8211 1.56888 0
M  V30 3491 H 328.299 3.74492 -0.66781 0
M  V30 3492 H 329.611 4.9443 -0.658825 0
M  V30 3493 H 328.765 5.87759 1.50412 0
M  V30 3494 H 327.504 4.61459 1.57819 0
M  V30 3495 H 326.509 5.46916 -0.562389 0
M  V30 3496 H 327.734 6.76261 -0.6203 0
M  V30 3497 H 325.68 6.36485 1.58818 0
M  V30 3498 H 325.597 7.55284 0.32899 0
M  V30 3499 H 326.865 7.64646 1.51447 0
M  V30 3500 N 331.094 0.475555 1.50254 0
M  V30 3501 C 332.042 -0.330276 2.30243 0
M  V30 3502 C 333.036 -0.986306 1.37726 0
M  V30 3503 O 334.242 -0.9169 1.54897 0
M  V30 3504 H 330.617 -0.125353 0.741479 0
M  V30 3505 H 332.588 0.364702 2.96163 0
M  V30 3506 C 331.337 -1.39704 3.18399 0
M  V30 3507 H 330.66 -0.901621 3.89501 0
M  V30 3508 H 332.1 -1.93336 3.77355 0
M  V30 3509 C 330.559 -2.4014 2.36293 0
M  V30 3510 O 331.089 -3.45504 2.04914 0
M  V30 3511 N 329.295 -2.1197 1.98789 0
M  V30 3512 H 328.842 -1.2631 2.24507 0
M  V30 3513 H 328.8 -2.79403 1.44157 0
M  V30 3514 N 332.573 -1.56217 0.208337 0
M  V30 3515 C 333.821 -1.97558 -0.426076 0
M  V30 3516 C 334.142 -1.09683 -1.61229 0
M  V30 3517 O 333.412 -0.170956 -1.95153 0
M  V30 3518 H 331.992 -0.729575 -0.160405 0
M  V30 3519 H 334.654 -1.92606 0.298155 0
M  V30 3520 H 333.75 -3.02672 -0.761312 0
M  V30 3521 N 334.051 0.0651679 -1.57465 0
M  V30 3522 C 335.3 0.761916 -1.86756 0
M  V30 3523 C 335.613 1.78406 -0.801925 0
M  V30 3524 O 336.819 2.53084 -0.982885 0
M  V30 3525 C 335.275 1.40603 -3.31299 0
M  V30 3526 C 334.883 0.422115 -4.46007 0
M  V30 3527 C 336.627 2.08476 -3.69781 0
M  V30 3528 C 334.534 1.07252 -5.81593 0
M  V30 3529 H 333.464 0.288308 -0.696702 0
M  V30 3530 H 336.115 0.015344 -1.83494 0
M  V30 3531 H 334.497 2.20109 -3.29193 0
M  V30 3532 H 335.671 -0.343613 -4.59517 0
M  V30 3533 H 333.986 -0.152527 -4.16121 0
M  V30 3534 H 336.583 2.57925 -4.68379 0
M  V30 3535 H 336.926 2.88712 -2.99919 0
M  V30 3536 H 337.459 1.35792 -3.73905 0
M  V30 3537 H 334.198 0.310342 -6.54765 0
M  V30 3538 H 333.718 1.80895 -5.71872 0
M  V30 3539 H 335.397 1.59043 -6.27148 0
M  V30 3540 N 335.529 1.53961 0.336706 0
M  V30 3541 C 336.492 1.81724 1.39675 0
M  V30 3542 C 337.492 0.688532 1.45313 0
M  V30 3543 O 338.682 0.956829 1.45569 0
M  V30 3544 C 335.814 1.96543 2.78538 0
M  V30 3545 H 337.007 2.76424 1.16318 0
M  V30 3546 H 334.56 1.45478 0.571474 0
M  V30 3547 H 335.295 1.0401 3.07168 0
M  V30 3548 H 335.08 2.78665 2.75841 0
M  V30 3549 H 336.57 2.19516 3.5525 0
M  V30 3550 N 337.007 -0.598083 1.45811 0
M  V30 3551 C 338.254 -1.35681 1.50323 0
M  V30 3552 C 338.582 -1.9393 0.148739 0
M  V30 3553 O 337.837 -1.76094 -0.853787 0
M  V30 3554 C 338.136 -2.51669 2.53766 0
M  V30 3555 C 337.802 -2.11508 3.98215 0
M  V30 3556 C 336.464 -2.0027 4.37545 0
M  V30 3557 C 338.816 -1.80308 4.89018 0
M  V30 3558 C 336.144 -1.56067 5.65562 0
M  V30 3559 C 338.496 -1.37589 6.17456 0
M  V30 3560 C 337.16 -1.24916 6.55708 0
M  V30 3561 H 336.43 -0.496492 0.550069 0
M  V30 3562 H 339.077 -0.675052 1.79207 0
M  V30 3563 H 337.382 -3.25225 2.18486 0
M  V30 3564 H 339.079 -3.09895 2.54492 0
M  V30 3565 H 335.669 -2.21185 3.67117 0
M  V30 3566 H 339.853 -1.87884 4.59362 0
M  V30 3567 H 335.109 -1.44886 5.93985 0
M  V30 3568 H 339.283 -1.12495 6.87254 0
M  V30 3569 H 336.91 -0.904386 7.54801 0
M  V30 3570 N 338.485 -1.33259 -0.841409 0
M  V30 3571 C 339.418 -1.1764 -1.95541 0
M  V30 3572 C 340.396 -0.072501 -1.62438 0
M  V30 3573 O 341.58 -0.23427 -1.87039 0
M  V30 3574 C 338.707 -0.803794 -3.29024 0
M  V30 3575 C 337.753 -1.91482 -3.81099 0
M  V30 3576 S 338.586 -3.52538 -4.03085 0
M  V30 3577 C 339.742 -3.17279 -5.39523 0
M  V30 3578 H 339.975 -2.11941 -2.08491 0
M  V30 3579 H 337.508 -1.18072 -0.9949 0
M  V30 3580 H 339.466 -0.595592 -4.06156 0
M  V30 3581 H 338.127 0.120574 -3.13868 0
M  V30 3582 H 337.32 -1.60742 -4.7768 0
M  V30 3583 H 336.922 -2.07956 -3.10854 0
M  V30 3584 H 339.214 -2.67946 -6.22263 0
M  V30 3585 H 340.157 -4.1293 -5.75234 0
M  V30 3586 H 340.565 -2.53943 -5.04156 0
M  V30 3587 N 339.963 1.05934 -1.16686 0
M  V30 3588 C 341.211 1.78447 -0.948744 0
M  V30 3589 C 341.532 1.87813 0.524523 0
M  V30 3590 O 340.802 1.38945 1.38098 0
M  V30 3591 H 339.382 0.660971 -0.348033 0
M  V30 3592 H 342.044 1.27947 -1.47022 0
M  V30 3593 H 341.14 2.80394 -1.37061 0
M  V30 3594 N 341.441 0.965919 1.2453 0
M  V30 3595 C 342.852 0.665929 1.7442 0
M  V30 3596 C 343.203 -0.818407 1.78316 0
M  V30 3597 O 342.328 -1.64037 1.41141 0
M  V30 3598 C 342.923 1.20211 3.16757 0
M  V30 3599 C 341.482 0.952059 3.6416 0
M  V30 3600 C 340.629 1.33848 2.42858 0
M  V30 3601 H 343.58 1.14144 1.10258 0
M  V30 3602 H 343.601 0.567544 3.76244 0
M  V30 3603 H 343.113 2.28244 3.13889 0
M  V30 3604 H 341.214 -0.112821 3.72429 0
M  V30 3605 H 341.327 1.59645 4.51719 0
M  V30 3606 H 339.691 0.756864 2.43195 0
M  V30 3607 H 340.474 2.42827 2.42673 0
M  V30 3608 N 342.919 -1.39368 0.735821 0
M  V30 3609 C 344.33 -1.83313 0.354015 0
M  V30 3610 C 344.681 -1.61461 -1.11466 0
M  V30 3611 O 343.806 -1.10621 -1.85989 0
M  V30 3612 C 344.401 -3.32781 0.635769 0
M  V30 3613 C 342.96 -3.75142 0.307448 0
M  V30 3614 C 342.107 -2.62358 0.897974 0
M  V30 3615 H 345.058 -1.28349 0.933398 0
M  V30 3616 H 345.079 -3.80388 -0.0921773 0
M  V30 3617 H 344.591 -3.48654 1.70476 0
M  V30 3618 H 342.692 -3.64857 -0.755674 0
M  V30 3619 H 342.805 -4.72532 0.790583 0
M  V30 3620 H 341.169 -2.52624 0.324551 0
M  V30 3621 H 341.952 -2.81036 1.97164 0
M  V30 3622 N 344.397 -0.483516 -1.5 0
M  V30 3623 C 345.622 0.0667119 -2.07293 0
M  V30 3624 C 346.047 1.3164 -1.3436 0
M  V30 3625 O 345.405 1.76945 -0.394987 0
M  V30 3626 C 345.453 0.321126 -3.59167 0
M  V30 3627 O 344.557 1.39927 -3.87936 0
M  V30 3628 H 343.898 -0.0184758 -0.663743 0
M  V30 3629 H 346.428 -0.678125 -1.93035 0
M  V30 3630 H 346.438 0.557906 -4.04168 0
M  V30 3631 H 345.113 -0.592007 -4.11665 0
M  V30 3632 H 343.69 1.14882 -3.54763 0
M  V30 3633 N 345.875 1.56104 -0.216619 0
M  V30 3634 C 346.807 2.17339 0.72776 0
M  V30 3635 C 347.82 1.14109 1.16116 0
M  V30 3636 O 349.009 1.4111 1.09317 0
M  V30 3637 C 346.109 2.73818 1.99693 0
M  V30 3638 C 345.282 4.02168 1.71988 0
M  V30 3639 C 344.341 4.43259 2.83562 0
M  V30 3640 O 343.367 5.10257 2.52244 0
M  V30 3641 N 344.569 4.08535 4.12407 0
M  V30 3642 H 347.334 2.99005 0.203983 0
M  V30 3643 H 344.895 1.61861 -0.0354289 0
M  V30 3644 H 346.887 2.9828 2.73516 0
M  V30 3645 H 345.457 1.96483 2.43132 0
M  V30 3646 H 344.677 3.85612 0.818337 0
M  V30 3647 H 345.965 4.85907 1.50903 0
M  V30 3648 H 345.363 3.54687 4.40696 0
M  V30 3649 H 343.92 4.37901 4.8279 0
M  V30 3650 N 347.353 -0.0568162 1.57498 0
M  V30 3651 C 348.316 -1.05038 2.03715 0
M  V30 3652 C 349.316 -1.30709 0.936577 0
M  V30 3653 O 350.506 -1.26178 1.20103 0
M  V30 3654 C 347.638 -2.39034 2.43055 0
M  V30 3655 H 348.831 -0.651715 2.92733 0
M  V30 3656 H 346.384 -0.302947 1.53336 0
M  V30 3657 H 347.119 -2.83703 1.57108 0
M  V30 3658 H 346.904 -2.21739 3.2338 0
M  V30 3659 H 348.394 -3.10421 2.79336 0
M  V30 3660 N 348.832 -1.54138 -0.328536 0
M  V30 3661 C 349.765 -1.78014 -1.4278 0
M  V30 3662 C 350.743 -0.629889 -1.49904 0
M  V30 3663 O 351.927 -0.866763 -1.6739 0
M  V30 3664 C 349.054 -1.89225 -2.80912 0
M  V30 3665 C 348.1 -3.11483 -2.91343 0
M  V30 3666 S 348.933 -4.70201 -2.56263 0
M  V30 3667 C 350.089 -4.84312 -3.96476 0
M  V30 3668 H 350.322 -2.70974 -1.22313 0
M  V30 3669 H 347.855 -1.45197 -0.525084 0
M  V30 3670 H 349.813 -1.9637 -3.60485 0
M  V30 3671 H 348.474 -0.972518 -2.98665 0
M  V30 3672 H 347.667 -3.16046 -3.92595 0
M  V30 3673 H 347.269 -3.02642 -2.19736 0
M  V30 3674 H 349.561 -4.66643 -4.91173 0
M  V30 3675 H 350.504 -5.86411 -3.96898 0
M  V30 3676 H 350.912 -4.12652 -3.85199 0
M  V30 3677 N 350.31 0.590341 -1.46126 0
M  V30 3678 C 351.556 1.34874 -1.52252 0
M  V30 3679 C 351.911 1.91658 -0.168807 0
M  V30 3680 O 351.204 1.73093 0.821556 0
M  V30 3681 C 351.398 2.5032 -2.55097 0
M  V30 3682 C 351.227 2.04843 -4.00337 0
M  V30 3683 C 349.997 1.90213 -4.68132 0
M  V30 3684 C 352.195 1.61267 -4.88362 0
M  V30 3685 N 350.177 1.38727 -5.9802 0
M  V30 3686 C 351.548 1.21319 -6.08015 0
M  V30 3687 C 353.603 1.49015 -4.75078 0
M  V30 3688 C 352.306 0.7034 -7.15852 0
M  V30 3689 C 354.332 0.994401 -5.8298 0
M  V30 3690 C 353.694 0.604659 -7.018 0
M  V30 3691 H 349.793 0.486803 -0.612002 0
M  V30 3692 H 352.377 0.673007 -1.82698 0
M  V30 3693 H 350.548 3.15466 -2.26574 0
M  V30 3694 H 352.28 3.1725 -2.51266 0
M  V30 3695 H 349.035 2.11927 -4.23537 0
M  V30 3696 H 349.459 1.15168 -6.67132 0
M  V30 3697 H 354.101 1.77768 -3.83612 0
M  V30 3698 H 351.819 0.403446 -8.07092 0
M  V30 3699 H 355.405 0.903621 -5.7474 0
M  V30 3700 H 354.285 0.226963 -7.83871 0
M  V30 3701 N 351.788 1.33704 0.83433 0
M  V30 3702 C 352.751 1.24244 1.92603 0
M  V30 3703 C 353.751 0.160383 1.59998 0
M  V30 3704 O 354.941 0.412228 1.69252 0
M  V30 3705 C 352.073 0.91555 3.28376 0
M  V30 3706 H 353.266 2.21287 2.02416 0
M  V30 3707 H 350.819 1.17827 1.02696 0
M  V30 3708 H 351.554 -0.0521886 3.24258 0
M  V30 3709 H 351.339 1.69811 3.53422 0
M  V30 3710 H 352.829 0.874231 4.08347 0
M  V30 3711 N 353.266 -1.05314 1.17247 0
M  V30 3712 C 354.196 -2.1498 0.911362 0
M  V30 3713 C 355.177 -1.69471 -0.146169 0
M  V30 3714 O 356.362 -1.942 0.003812 0
M  V30 3715 C 353.492 -3.4472 0.422528 0
M  V30 3716 C 352.446 -4.03789 1.4191 0
M  V30 3717 C 351.772 -5.28858 0.788274 0
M  V30 3718 C 353.072 -4.41418 2.7919 0
M  V30 3719 H 354.766 -2.3708 1.82848 0
M  V30 3720 H 352.312 -1.13938 0.880569 0
M  V30 3721 H 354.265 -4.20787 0.227289 0
M  V30 3722 H 352.989 -3.22269 -0.530123 0
M  V30 3723 H 351.648 -3.2979 1.60106 0
M  V30 3724 H 351.296 -5.02709 -0.171173 0
M  V30 3725 H 350.996 -5.69338 1.45353 0
M  V30 3726 H 352.52 -6.07612 0.603282 0
M  V30 3727 H 353.934 -5.08524 2.64719 0
M  V30 3728 H 352.331 -4.92913 3.42282 0
M  V30 3729 H 353.401 -3.51819 3.33693 0
M  V30 3730 N 354.744 -0.972509 -1.24016 0
M  V30 3731 C 355.992 -0.635776 -1.91839 0
M  V30 3732 C 356.313 0.832312 -1.76345 0
M  V30 3733 O 355.583 1.5946 -1.13795 0
M  V30 3734 H 354.163 -0.232157 -0.710009 0
M  V30 3735 H 356.825 -1.23462 -1.50809 0
M  V30 3736 H 355.921 -0.880545 -2.99421 0
M  V30 3737 N 356.222 1.38976 -0.743202 0
M  V30 3738 C 357.499 1.94351 -0.220705 0
M  V30 3739 C 357.879 1.67935 1.2791 0
M  V30 3740 O 357.227 1.01211 2.04862 0
M  V30 3741 C 357.437 3.44426 -0.563171 0
M  V30 3742 C 358.785 4.2144 -0.517046 0
M  V30 3743 O 359.809 3.52661 -0.500846 0
M  V30 3744 O 358.668 5.44032 -0.518806 0
M  V30 3745 H 355.762 0.825879 -0.043047 0
M  V30 3746 H 358.308 1.48429 -0.822618 0
M  V30 3747 H 357.08 3.5712 -1.59941 0
M  V30 3748 H 356.703 3.97543 0.0672883 0
M  V30 3749 N 357.7 0.491464 1.49741 0
M  V30 3750 C 358.647 -0.292027 2.28945 0
M  V30 3751 C 359.617 -0.968973 1.34908 0
M  V30 3752 O 360.802 -0.97748 1.6386 0
M  V30 3753 C 357.942 -1.35617 3.17336 0
M  V30 3754 C 357.055 -0.691957 4.26422 0
M  V30 3755 C 356.19 -1.73572 5.02042 0
M  V30 3756 C 355.229 -1.05286 6.02977 0
M  V30 3757 N 354.366 -2.0404 6.71798 0
M  V30 3758 H 359.206 0.389654 2.95442 0
M  V30 3759 H 356.743 0.204003 1.45679 0
M  V30 3760 H 358.701 -1.98502 3.66951 0
M  V30 3761 H 357.331 -2.00674 2.52844 0
M  V30 3762 H 356.383 0.0499523 3.80367 0
M  V30 3763 H 357.695 -0.153946 4.98562 0
M  V30 3764 H 356.849 -2.43987 5.55478 0
M  V30 3765 H 355.588 -2.30757 4.29654 0
M  V30 3766 H 354.593 -0.334446 5.48782 0
M  V30 3767 H 355.818 -0.487636 6.77347 0
M  V30 3768 H 353.764 -2.60205 6.02187 0
M  V30 3769 H 353.681 -1.55279 7.39881 0
M  V30 3770 H 354.949 -2.73772 7.29842 0
M  V30 3771 N 359.178 -1.55987 0.224894 0
M  V30 3772 C 360.427 -1.97566 -0.406273 0
M  V30 3773 C 360.74 -1.11569 -1.6066 0
M  V30 3774 O 361.946 -1.43062 -2.3075 0
M  V30 3775 C 360.402 -3.51474 -0.774207 0
M  V30 3776 C 360.01 -4.46179 0.403496 0
M  V30 3777 C 361.754 -4.01758 -1.37079 0
M  V30 3778 C 359.661 -5.91399 0.0129412 0
M  V30 3779 H 358.591 -0.737777 -0.155565 0
M  V30 3780 H 361.242 -1.80659 0.321635 0
M  V30 3781 H 359.624 -3.63994 -1.55963 0
M  V30 3782 H 360.798 -4.45409 1.18101 0
M  V30 3783 H 359.113 -4.06255 0.913536 0
M  V30 3784 H 361.71 -5.07756 -1.67596 0
M  V30 3785 H 362.053 -3.47805 -2.28773 0
M  V30 3786 H 362.586 -3.92475 -0.648733 0
M  V30 3787 H 359.325 -6.49341 0.896451 0
M  V30 3788 H 358.845 -5.95356 -0.728821 0
M  V30 3789 H 360.524 -6.45683 -0.412582 0
M  V30 3790 N 360.656 0.0484629 -1.57525 0
M  V30 3791 C 361.619 1.03956 -2.04269 0
M  V30 3792 C 362.619 1.30211 -0.943496 0
M  V30 3793 O 363.809 1.25539 -1.20771 0
M  V30 3794 C 360.941 2.37742 -2.44319 0
M  V30 3795 H 362.134 0.636182 -2.93075 0
M  V30 3796 H 359.687 0.294811 -1.53494 0
M  V30 3797 H 360.422 2.82866 -1.5861 0
M  V30 3798 H 360.207 2.20021 -3.24551 0
M  V30 3799 H 361.697 3.08936 -2.80978 0
M  V30 3800 N 362.134 1.5431 0.320358 0
M  V30 3801 C 363.359 1.76954 1.08175 0
M  V30 3802 C 363.784 0.518193 1.80821 0
M  V30 3803 O 363.142 -0.530411 1.73368 0
M  V30 3804 C 363.19 2.96451 2.05303 0
M  V30 3805 O 362.294 2.68221 3.13259 0
M  V30 3806 H 361.635 0.586275 0.311733 0
M  V30 3807 H 364.165 2.01342 0.363676 0
M  V30 3808 H 364.175 3.23887 2.48116 0
M  V30 3809 H 362.85 3.87196 1.51829 0
M  V30 3810 H 361.427 2.51744 2.75099 0
M  V30 3811 N 363.613 -0.582584 1.46437 0
M  V30 3812 C 364.838 -1.37168 1.55563 0
M  V30 3813 C 365.263 -1.87061 0.19743 0
M  V30 3814 O 364.621 -1.61572 -0.822451 0
M  V30 3815 C 364.669 -2.53511 2.56446 0
M  V30 3816 O 363.773 -3.54953 2.09958 0
M  V30 3817 H 363.114 -0.408494 0.523477 0
M  V30 3818 H 365.644 -0.706646 1.9201 0
M  V30 3819 H 365.654 -3.00426 2.76058 0
M  V30 3820 H 364.329 -2.16549 3.55076 0
M  V30 3821 H 362.906 -3.14516 2.00334 0
M  V30 3822 N 365.091 -1.34144 -0.827227 0
M  V30 3823 C 366.34 -1.25602 -1.5782 0
M  V30 3824 C 366.653 0.173445 -1.94829 0
M  V30 3825 O 367.859 0.380984 -2.68814 0
M  V30 3826 C 366.315 -2.20151 -2.84713 0
M  V30 3827 C 365.923 -3.68331 -2.55021 0
M  V30 3828 C 367.667 -2.20508 -3.62735 0
M  V30 3829 C 365.574 -4.54762 -3.78082 0
M  V30 3830 H 364.504 -0.466573 -0.592306 0
M  V30 3831 H 367.155 -1.59283 -0.911116 0
M  V30 3832 H 365.537 -1.79417 -3.53023 0
M  V30 3833 H 366.711 -4.17577 -1.94849 0
M  V30 3834 H 365.026 -3.7038 -1.90283 0
M  V30 3835 H 367.623 -2.82306 -4.54101 0
M  V30 3836 H 367.966 -1.20322 -3.98533 0
M  V30 3837 H 368.499 -2.59664 -3.01362 0
M  V30 3838 H 365.238 -5.55867 -3.47407 0
M  V30 3839 H 364.758 -4.10254 -4.37552 0
M  V30 3840 H 366.437 -4.69153 -4.45538 0
M  V30 3841 N 366.569 1.04691 -1.17803 0
M  V30 3842 C 367.815 1.78045 -0.970969 0
M  V30 3843 C 368.148 1.87686 0.498751 0
M  V30 3844 O 367.423 1.38035 1.37027 0
M  V30 3845 C 367.706 3.2166 -1.61884 0
M  V30 3846 C 367.559 3.20001 -3.161 0
M  V30 3847 C 368.878 4.1962 -1.3269 0
M  V30 3848 H 365.997 0.64633 -0.354155 0
M  V30 3849 H 368.639 1.22333 -1.45378 0
M  V30 3850 H 366.789 3.69232 -1.20831 0
M  V30 3851 H 368.461 2.80467 -3.66246 0
M  V30 3852 H 366.704 2.58203 -3.48588 0
M  V30 3853 H 367.375 4.21386 -3.56564 0
M  V30 3854 H 369.851 3.80567 -1.68249 0
M  V30 3855 H 368.727 5.18339 -1.80599 0
M  V30 3856 H 368.988 4.414 -0.248622 0
M  V30 3857 N 368.047 0.979072 1.23499 0
M  V30 3858 C 369.01 0.523244 2.23147 0
M  V30 3859 C 370.01 -0.386406 1.56088 0
M  V30 3860 O 371.2 -0.180283 1.73265 0
M  V30 3861 C 368.332 -0.240739 3.40049 0
M  V30 3862 H 369.525 1.40432 2.64989 0
M  V30 3863 H 367.078 0.764824 1.36309 0
M  V30 3864 H 367.813 -1.13841 3.03662 0
M  V30 3865 H 367.598 0.412207 3.89927 0
M  V30 3866 H 369.088 -0.548297 4.13985 0
M  V30 3867 N 369.525 -1.3858 0.750561 0
M  V30 3868 C 370.457 -2.29057 0.0810714 0
M  V30 3869 C 371.47 -1.47596 -0.686973 0
M  V30 3870 O 372.659 -1.70495 -0.528563 0
M  V30 3871 C 369.759 -3.26475 -0.909247 0
M  V30 3872 C 368.932 -4.36945 -0.199478 0
M  V30 3873 C 367.991 -5.14572 -1.10011 0
M  V30 3874 O 367.017 -5.66321 -0.57177 0
M  V30 3875 N 368.219 -5.27262 -2.42849 0
M  V30 3876 H 370.984 -2.87153 0.858087 0
M  V30 3877 H 368.545 -1.50328 0.60109 0
M  V30 3878 H 370.537 -3.75285 -1.51471 0
M  V30 3879 H 369.107 -2.69298 -1.58736 0
M  V30 3880 H 368.327 -3.8981 0.586664 0
M  V30 3881 H 369.615 -5.07963 0.291783 0
M  V30 3882 H 369.013 -4.86763 -2.88233 0
M  V30 3883 H 367.57 -5.79456 -2.98453 0
M  V30 3884 N 371.003 -0.499398 -1.49478 0
M  V30 3885 C 372.231 0.0425456 -2.06856 0
M  V30 3886 C 372.646 1.30964 -1.35992 0
M  V30 3887 O 372.003 1.77172 -0.437762 0
M  V30 3888 C 372.054 0.301735 -3.60239 0
M  V30 3889 O 371.775 -0.915127 -4.28436 0
M  V30 3890 C 373.276 0.887499 -4.34325 0
M  V30 3891 H 370.496 -0.0197482 -0.670709 0
M  V30 3892 H 373.04 -0.696297 -1.92281 0
M  V30 3893 H 371.195 0.990556 -3.74522 0
M  V30 3894 H 371.609 -0.676993 -5.20113 0
M  V30 3895 H 373.083 1.01845 -5.42523 0
M  V30 3896 H 373.56 1.88488 -3.96698 0
M  V30 3897 H 374.166 0.236196 -4.24644 0
M  V30 3898 N 372.481 1.55866 -0.233164 0
M  V30 3899 C 373.444 2.1953 0.658715 0
M  V30 3900 C 374.444 1.16053 1.11303 0
M  V30 3901 O 375.634 1.41218 1.01996 0
M  V30 3902 C 372.766 2.82791 1.90373 0
M  V30 3903 H 373.959 2.99721 0.10347 0
M  V30 3904 H 371.512 1.56291 0.0164245 0
M  V30 3905 H 372.247 2.06501 2.50056 0
M  V30 3906 H 372.032 3.58578 1.58632 0
M  V30 3907 H 373.522 3.31556 2.53891 0
M  V30 3908 N 373.959 -0.0401083 1.57549 0
M  V30 3909 C 375.207 -0.731677 1.8839 0
M  V30 3910 C 375.528 -1.76481 0.829425 0
M  V30 3911 O 374.798 -1.95411 -0.1383 0
M  V30 3912 H 373.378 -0.273225 0.695239 0
M  V30 3913 H 376.04 -0.00867725 1.94898 0
M  V30 3914 H 375.136 -1.22816 2.86919 0
M  V30 3915 N 375.437 -1.54477 -0.31217 0
M  V30 3916 C 376.686 -1.72438 -1.04633 0
M  V30 3917 C 376.999 -0.511163 -1.88803 0
M  V30 3918 O 378.205 -0.572341 -2.65399 0
M  V30 3919 C 376.661 -3.05043 -1.9099 0
M  V30 3920 C 376.269 -4.33806 -1.11877 0
M  V30 3921 C 378.013 -3.32364 -2.64073 0
M  V30 3922 C 375.92 -5.57467 -1.97445 0
M  V30 3923 H 374.85 -0.642647 -0.394361 0
M  V30 3924 H 377.501 -1.80966 -0.303929 0
M  V30 3925 H 375.883 -2.90451 -2.69173 0
M  V30 3926 H 377.057 -4.59199 -0.383843 0
M  V30 3927 H 375.372 -4.13336 -0.504252 0
M  V30 3928 H 377.969 -4.21951 -3.28423 0
M  V30 3929 H 378.312 -2.50745 -3.32314 0
M  V30 3930 H 378.845 -3.47875 -1.92944 0
M  V30 3931 H 375.584 -6.41722 -1.33692 0
M  V30 3932 H 375.104 -5.36277 -2.6864 0
M  V30 3933 H 376.783 -5.94303 -2.5576 0
M  V30 3934 N 376.915 0.57481 -1.46744 0
M  V30 3935 C 378.326 1.15695 -1.46532 0
M  V30 3936 C 378.677 1.95068 -0.210425 0
M  V30 3937 O 377.802 2.05241 0.685944 0
M  V30 3938 C 378.397 2.1048 -2.65487 0
M  V30 3939 C 376.956 2.64002 -2.68291 0
M  V30 3940 C 376.103 1.40026 -2.39349 0
M  V30 3941 H 379.054 0.362325 -1.54509 0
M  V30 3942 H 379.075 2.94074 -2.41455 0
M  V30 3943 H 378.587 1.52683 -3.56805 0
M  V30 3944 H 376.688 3.25646 -1.81067 0
M  V30 3945 H 376.801 3.06197 -3.68483 0
M  V30 3946 H 375.165 1.70106 -1.89568 0
M  V30 3947 H 375.948 0.840485 -3.32852 0
M  V30 3948 N 378.394 1.34581 0.820102 0
M  V30 3949 C 379.622 1.3018 1.60813 0
M  V30 3950 C 380.037 -0.123551 1.88395 0
M  V30 3951 O 379.394 -1.07148 1.47735 0
M  V30 3952 C 379.445 2.09312 2.94739 0
M  V30 3953 O 379.166 3.46288 2.68358 0
M  V30 3954 C 380.667 2.1234 3.89136 0
M  V30 3955 H 377.887 0.447726 0.499782 0
M  V30 3956 H 380.431 1.77237 1.02017 0
M  V30 3957 H 378.586 1.65889 3.50085 0
M  V30 3958 H 379 3.87227 3.53774 0
M  V30 3959 H 380.474 2.72126 4.80262 0
M  V30 3960 H 380.951 1.11854 4.24718 0
M  V30 3961 H 381.557 2.55864 3.39726 0
M  V30 3962 N 379.872 -1.04064 1.18357 0
M  V30 3963 C 380.802 -2.14001 0.934113 0
M  V30 3964 C 381.783 -1.69616 -0.128186 0
M  V30 3965 O 382.968 -1.94185 0.0244093 0
M  V30 3966 C 380.098 -3.44253 0.459066 0
M  V30 3967 C 379.052 -4.02261 1.46185 0
M  V30 3968 C 378.378 -5.27992 0.844322 0
M  V30 3969 C 379.678 -4.38432 2.83856 0
M  V30 3970 H 381.372 -2.35127 1.85352 0
M  V30 3971 H 378.918 -1.12998 0.892604 0
M  V30 3972 H 380.871 -4.20522 0.271907 0
M  V30 3973 H 379.595 -3.22813 -0.495912 0
M  V30 3974 H 378.254 -3.28074 1.63595 0
M  V30 3975 H 377.902 -5.02862 -0.117845 0
M  V30 3976 H 377.602 -5.67765 1.51384 0
M  V30 3977 H 379.126 -6.06938 0.667693 0
M  V30 3978 H 380.54 -5.05688 2.70098 0
M  V30 3979 H 378.937 -4.89254 3.47491 0
M  V30 3980 H 380.007 -3.4826 3.37406 0
M  V30 3981 N 381.35 -0.985608 -1.22978 0
M  V30 3982 C 382.761 -0.693593 -1.73338 0
M  V30 3983 C 383.112 0.789935 -1.79595 0
M  V30 3984 O 382.237 1.61771 -1.43733 0
M  V30 3985 C 382.832 -1.25235 -3.14804 0
M  V30 3986 C 381.391 -1.00987 -3.626 0
M  V30 3987 C 380.538 -1.37695 -2.40698 0
M  V30 3988 H 383.489 -1.15884 -1.08428 0
M  V30 3989 H 383.51 -0.627329 -3.75293 0
M  V30 3990 H 383.022 -2.33209 -3.10218 0
M  V30 3991 H 381.123 0.0535565 -3.72562 0
M  V30 3992 H 381.236 -1.66812 -4.49122 0
M  V30 3993 H 379.6 -0.795459 -2.4196 0
M  V30 3994 H 380.383 -2.46657 -2.38779 0
M  V30 3995 N 382.828 1.3818 -0.7579 0
M  V30 3996 C 384.074 2.0078 -0.325423 0
M  V30 3997 C 384.429 1.59085 1.08211 0
M  V30 3998 O 383.722 0.820394 1.73148 0
M  V30 3999 C 383.916 3.55252 -0.391218 0
M  V30 4000 C 383.745 4.11947 -1.8036 0
M  V30 4001 C 382.515 4.43519 -2.42113 0
M  V30 4002 C 384.713 4.33908 -2.76095 0
M  V30 4003 N 382.695 4.85847 -3.75267 0
M  V30 4004 C 384.066 4.78692 -3.94023 0
M  V30 4005 C 386.121 4.16015 -2.73561 0
M  V30 4006 C 384.824 5.07459 -5.09782 0
M  V30 4007 C 386.85 4.45909 -3.88483 0
M  V30 4008 C 386.212 4.90921 -5.0515 0
M  V30 4009 H 382.311 0.764215 -0.165831 0
M  V30 4010 H 384.895 1.67724 -0.988776 0
M  V30 4011 H 383.066 3.87646 0.241886 0
M  V30 4012 H 384.798 4.04653 0.061989 0
M  V30 4013 H 381.553 4.32113 -1.93842 0
M  V30 4014 H 381.977 5.11339 -4.4369 0
M  V30 4015 H 386.619 3.80399 -1.84544 0
M  V30 4016 H 384.337 5.4197 -5.99412 0
M  V30 4017 H 387.923 4.33666 -3.87847 0
M  V30 4018 H 386.803 5.1361 -5.92599 0
M  V30 4019 N 384.306 0.507319 1.49211 0
M  V30 4020 C 385.531 -0.033725 2.07373 0
M  V30 4021 C 385.956 -1.29485 1.36437 0
M  V30 4022 O 385.314 -1.76294 0.423087 0
M  V30 4023 C 385.362 -0.263945 3.59633 0
M  V30 4024 O 384.466 -1.33737 3.90113 0
M  V30 4025 H 383.807 0.0290331 0.663365 0
M  V30 4026 H 386.337 0.708749 1.91932 0
M  V30 4027 H 386.347 -0.493536 4.05004 0
M  V30 4028 H 385.022 0.657424 4.10671 0
M  V30 4029 H 383.599 -1.09224 3.56545 0
M  V30 4030 N 385.784 -1.5574 0.241426 0
M  V30 4031 C 387.032 -1.98417 -0.384075 0
M  V30 4032 C 387.353 -1.13078 -1.58866 0
M  V30 4033 O 386.623 -0.212312 -1.94746 0
M  V30 4034 H 385.203 -0.732813 -0.144894 0
M  V30 4035 H 387.865 -1.9193 0.338943 0
M  V30 4036 H 386.961 -3.04219 -0.696939 0
M  V30 4037 N 387.262 0.0317525 -1.57568 0
M  V30 4038 C 388.487 0.738664 -1.938 0
M  V30 4039 C 388.912 1.68242 -0.841208 0
M  V30 4040 O 388.27 1.80157 0.203267 0
M  V30 4041 C 388.318 1.47417 -3.29091 0
M  V30 4042 O 387.422 2.5872 -3.2115 0
M  V30 4043 H 386.763 0.198856 -0.633524 0
M  V30 4044 H 389.293 -0.0119713 -2.04596 0
M  V30 4045 H 389.303 1.84468 -3.63917 0
M  V30 4046 H 387.978 0.781988 -4.08482 0
M  V30 4047 H 386.555 2.24231 -2.97951 0
M  V30 4048 N 388.74 1.54641 0.303973 0
M  V30 4049 C 389.988 1.73437 1.0375 0
M  V30 4050 C 390.309 0.521449 1.87899 0
M  V30 4051 O 389.579 -0.46432 1.90318 0
M  V30 4052 H 388.159 0.639518 0.386039 0
M  V30 4053 H 390.821 1.91988 0.335675 0
M  V30 4054 H 389.917 2.62235 1.69231 0
M  V30 4055 N 390.218 -0.567019 1.47046 0
M  V30 4056 C 391.148 -1.68482 1.61667 0
M  V30 4057 C 392.129 -1.6358 0.466418 0
M  V30 4058 O 393.314 -1.81354 0.694574 0
M  V30 4059 C 390.444 -3.07124 1.62148 0
M  V30 4060 C 389.398 -3.26867 2.76301 0
M  V30 4061 C 388.724 -4.66196 2.61849 0
M  V30 4062 C 390.024 -3.13186 4.17986 0
M  V30 4063 H 391.718 -1.56502 2.5524 0
M  V30 4064 H 389.264 -0.751486 1.22836 0
M  V30 4065 H 391.217 -3.8516 1.70968 0
M  V30 4066 H 389.941 -3.2004 0.651287 0
M  V30 4067 H 388.6 -2.51237 2.66975 0
M  V30 4068 H 388.248 -4.75898 1.62879 0
M  V30 4069 H 387.948 -4.80356 3.38425 0
M  V30 4070 H 389.472 -5.46379 2.72584 0
M  V30 4071 H 390.886 -3.81049 4.2834 0
M  V30 4072 H 389.283 -3.3886 4.95272 0
M  V30 4073 H 390.353 -2.10057 4.3704 0
M  V30 4074 N 391.696 -1.35014 -0.812953 0
M  V30 4075 C 393.112 -1.14914 -1.10757 0
M  V30 4076 C 393.312 0.0426818 -2.01455 0
M  V30 4077 O 392.368 0.715212 -2.42159 0
M  V30 4078 C 393.681 -2.44911 -1.74468 0
M  V30 4079 C 395.229 -2.5106 -1.86917 0
M  V30 4080 C 395.704 -3.81085 -2.54044 0
M  V30 4081 N 397.195 -3.82301 -2.61535 0
M  V30 4082 C 397.93 -4.79634 -3.14227 0
M  V30 4083 N 397.426 -5.87353 -3.67407 0
M  V30 4084 N 399.219 -4.67078 -3.12721 0
M  V30 4085 H 391.37 -2.1136 -0.20989 0
M  V30 4086 H 393.633 -0.935128 -0.155692 0
M  V30 4087 H 393.339 -3.32267 -1.15289 0
M  V30 4088 H 393.213 -2.58989 -2.74234 0
M  V30 4089 H 395.6 -1.64137 -2.45241 0
M  V30 4090 H 395.681 -2.40901 -0.860242 0
M  V30 4091 H 395.325 -4.68402 -1.96372 0
M  V30 4092 H 395.255 -3.88529 -3.55461 0
M  V30 4093 H 397.746 -3.04465 -2.23851 0
M  V30 4094 H 398.059 -6.57624 -4.05894 0
M  V30 4095 H 396.404 -5.91054 -3.65623 0
M  V30 4096 H 399.595 -3.82067 -2.70449 0
M  V30 4097 H 399.768 -5.43098 -3.53481 0
M  V30 4098 N 393.175 1.03435 -1.18907 0
M  V30 4099 C 394.421 1.77005 -0.989798 0
M  V30 4100 C 394.754 1.88205 0.478816 0
M  V30 4101 O 394.029 1.39481 1.35556 0
M  V30 4102 C 394.312 3.19925 -1.65287 0
M  V30 4103 C 394.165 3.1663 -3.19477 0
M  V30 4104 C 395.484 4.18189 -1.37134 0
M  V30 4105 H 392.603 0.642538 -0.360991 0
M  V30 4106 H 395.245 1.20784 -1.46667 0
M  V30 4107 H 393.395 3.67929 -1.24741 0
M  V30 4108 H 395.067 2.76567 -3.692 0
M  V30 4109 H 393.31 2.54491 -3.51307 0
M  V30 4110 H 393.981 4.1758 -3.61013 0
M  V30 4111 H 396.457 3.78761 -1.72276 0
M  V30 4112 H 395.333 5.16394 -1.86087 0
M  V30 4113 H 395.594 4.41112 -0.295424 0
M  V30 4114 N 394.653 0.992116 1.22453 0
M  V30 4115 C 395.93 0.583508 1.86694 0
M  V30 4116 C 396.31 -0.9392 1.89056 0
M  V30 4117 O 395.658 -1.82081 1.38053 0
M  V30 4118 C 395.868 1.20304 3.2761 0
M  V30 4119 C 397.216 1.30308 4.0411 0
M  V30 4120 O 398.24 1.15737 3.36873 0
M  V30 4121 O 397.099 1.53615 5.24466 0
M  V30 4122 H 394.193 0.198129 0.802916 0
M  V30 4123 H 396.739 1.08794 1.30238 0
M  V30 4124 H 395.511 2.24461 3.2052 0
M  V30 4125 H 395.134 0.684144 3.9167 0
M  V30 4126 N 396.131 -1.37776 0.765217 0
M  V30 4127 C 397.377 -2.00604 0.336066 0
M  V30 4128 C 397.732 -1.59657 -1.07366 0
M  V30 4129 O 397.025 -0.829565 -1.7271 0
M  V30 4130 C 397.219 -3.5504 0.410053 0
M  V30 4131 C 397.048 -4.10985 1.82542 0
M  V30 4132 C 395.818 -4.42229 2.44461 0
M  V30 4133 C 398.016 -4.32438 2.78392 0
M  V30 4134 N 395.998 -4.8385 3.77839 0
M  V30 4135 C 397.369 -4.76596 3.96556 0
M  V30 4136 C 399.424 -4.14559 2.75764 0
M  V30 4137 C 398.127 -5.04748 5.12466 0
M  V30 4138 C 400.153 -4.43843 3.90842 0
M  V30 4139 C 399.515 -4.88235 5.07746 0
M  V30 4140 H 395.614 -0.763325 0.169881 0
M  V30 4141 H 398.198 -1.67197 0.997656 0
M  V30 4142 H 396.369 -3.87769 -0.221325 0
M  V30 4143 H 398.101 -4.0468 -0.0405285 0
M  V30 4144 H 394.856 -4.31079 1.96131 0
M  V30 4145 H 395.28 -5.08979 4.46396 0
M  V30 4146 H 399.922 -3.79415 1.86558 0
M  V30 4147 H 397.64 -5.38783 6.02277 0
M  V30 4148 H 401.226 -4.31603 3.90141 0
M  V30 4149 H 400.106 -5.10461 5.95315 0
M  V30 4150 N 397.609 -0.515225 -1.4894 0
M  V30 4151 C 398.541 0.292481 -2.27326 0
M  V30 4152 C 399.554 0.917838 -1.3446 0
M  V30 4153 O 400.743 0.798772 -1.5963 0
M  V30 4154 C 397.843 1.42803 -3.07344 0
M  V30 4155 C 397.016 0.907347 -4.27885 0
M  V30 4156 C 396.075 1.92222 -4.89834 0
M  V30 4157 O 395.101 1.48506 -5.49486 0
M  V30 4158 N 396.303 3.25355 -4.80754 0
M  V30 4159 H 399.068 -0.379721 -2.97285 0
M  V30 4160 H 396.629 -0.348638 -1.58102 0
M  V30 4161 H 398.621 2.10481 -3.45658 0
M  V30 4162 H 397.191 2.00414 -2.39902 0
M  V30 4163 H 396.411 0.0550218 -3.94162 0
M  V30 4164 H 397.699 0.538108 -5.05946 0
M  V30 4165 H 397.097 3.6355 -4.33414 0
M  V30 4166 H 395.654 3.88707 -5.23211 0
M  V30 4167 N 399.087 1.5561 -0.249682 0
M  V30 4168 C 399.997 2.25143 0.659375 0
M  V30 4169 C 401.013 1.2685 1.19101 0
M  V30 4170 O 402.189 1.59732 1.22669 0
M  V30 4171 C 399.254 2.93945 1.8384 0
M  V30 4172 C 398.315 4.07655 1.34596 0
M  V30 4173 C 397.548 4.73167 2.46878 0
M  V30 4174 O 397.771 4.37768 3.65671 0
M  V30 4175 O 396.705 5.61623 2.16478 0
M  V30 4176 H 400.531 3.03545 0.0968698 0
M  V30 4177 H 398.116 1.49389 -0.018074 0
M  V30 4178 H 399.998 3.37271 2.52638 0
M  V30 4179 H 398.673 2.18481 2.38847 0
M  V30 4180 H 397.58 3.68839 0.625174 0
M  V30 4181 H 398.913 4.84946 0.841941 0
M  V30 4182 N 400.565 -0.0233959 1.57583 0
M  V30 4183 C 401.513 -1.04063 2.08023 0
M  V30 4184 C 402.507 -1.37084 0.995204 0
M  V30 4185 O 403.713 -1.35923 1.18004 0
M  V30 4186 H 400.088 -0.353144 0.663922 0
M  V30 4187 H 402.059 -0.589453 2.9252 0
M  V30 4188 C 400.808 -2.33123 2.57971 0
M  V30 4189 H 400.131 -2.08577 3.4108 0
M  V30 4190 H 401.571 -3.02632 2.96967 0
M  V30 4191 C 400.03 -3.02483 1.48342 0
M  V30 4192 O 400.56 -3.92541 0.852898 0
M  V30 4193 N 398.766 -2.63909 1.21658 0
M  V30 4194 H 398.313 -1.90758 1.73116 0
M  V30 4195 H 398.271 -3.10633 0.485218 0
M  V30 4196 N 402.043 -1.548 -0.295768 0
M  V30 4197 C 403.32 -1.65014 -1.05023 0
M  V30 4198 C 403.7 -0.501805 -2.05049 0
M  V30 4199 O 403.048 0.500869 -2.22943 0
M  V30 4200 C 403.258 -3.03252 -1.72741 0
M  V30 4201 C 404.606 -3.60242 -2.24746 0
M  V30 4202 O 405.63 -3.05737 -1.82765 0
M  V30 4203 O 404.489 -4.55687 -3.01681 0
M  V30 4204 H 401.583 -0.669314 -0.485744 0
M  V30 4205 H 404.129 -1.67144 -0.293438 0
M  V30 4206 H 402.901 -3.7827 -1.00138 0
M  V30 4207 H 402.524 -3.04922 -2.55163 0
M  V30 4208 N 403.521 0.559213 -1.47345 0
M  V30 4209 C 404.768 1.31648 -1.53867 0
M  V30 4210 C 405.096 1.93468 -0.200104 0
M  V30 4211 O 404.351 1.78295 0.806799 0
M  V30 4212 C 404.65 2.44853 -2.6035 0
M  V30 4213 C 404.316 2.00876 -4.03683 0
M  V30 4214 C 402.978 1.88599 -4.42701 0
M  V30 4215 C 405.33 1.67279 -4.93626 0
M  V30 4216 C 402.658 1.41017 -5.69501 0
M  V30 4217 C 405.01 1.21169 -6.20887 0
M  V30 4218 C 403.674 1.07487 -6.58789 0
M  V30 4219 H 402.944 0.481734 -0.56304 0
M  V30 4220 H 405.591 0.627301 -1.80934 0
M  V30 4221 H 403.896 3.19318 -2.27032 0
M  V30 4222 H 405.593 3.03039 -2.62619 0
M  V30 4223 H 402.183 2.11374 -3.72853 0
M  V30 4224 H 406.367 1.75638 -4.64182 0
M  V30 4225 H 401.623 1.29086 -5.97618 0
M  V30 4226 H 405.797 0.942345 -6.89995 0
M  V30 4227 H 403.424 0.703946 -7.56934 0
M  V30 4228 N 404.999 1.35443 0.805782 0
M  V30 4229 C 406.224 1.32037 1.59941 0
M  V30 4230 C 406.649 -0.0994215 1.87837 0
M  V30 4231 O 406.007 -1.06648 1.46615 0
M  V30 4232 C 406.055 2.13354 2.90711 0
M  V30 4233 O 405.159 1.5148 3.83572 0
M  V30 4234 H 404.5 0.452666 0.485787 0
M  V30 4235 H 407.03 1.78496 1.00002 0
M  V30 4236 H 407.04 2.25338 3.40128 0
M  V30 4237 H 405.715 3.16572 2.69732 0
M  V30 4238 H 404.292 1.4834 3.42125 0
M  V30 4239 N 406.477 -1.02803 1.19454 0
M  V30 4240 C 407.424 -2.11099 0.933046 0
M  V30 4241 C 408.394 -1.65571 -0.132447 0
M  V30 4242 O 409.579 -1.90797 0.00987576 0
M  V30 4243 C 406.719 -3.41763 0.478747 0
M  V30 4244 C 405.832 -4.00833 1.6111 0
M  V30 4245 C 404.967 -5.19511 1.10825 0
M  V30 4246 C 404.006 -5.70639 2.21445 0
M  V30 4247 N 403.143 -6.80589 1.72461 0
M  V30 4248 H 407.983 -2.32804 1.86028 0
M  V30 4249 H 405.52 -1.14179 0.927441 0
M  V30 4250 H 407.478 -4.16736 0.196745 0
M  V30 4251 H 406.108 -3.20166 -0.411493 0
M  V30 4252 H 405.16 -3.23066 2.00829 0
M  V30 4253 H 406.472 -4.34794 2.4445 0
M  V30 4254 H 405.626 -6.01645 0.781533 0
M  V30 4255 H 404.365 -4.87086 0.244606 0
M  V30 4256 H 403.37 -4.87116 2.54947 0
M  V30 4257 H 404.595 -6.05102 3.08267 0
M  V30 4258 H 402.541 -6.50016 0.884056 0
M  V30 4259 H 402.458 -7.13681 2.49389 0
M  V30 4260 H 403.726 -7.66317 1.42755 0
M  V30 4261 N 407.956 -0.998596 -1.21925 0
M  V30 4262 C 409.372 -0.710303 -1.42923 0
M  V30 4263 C 409.572 0.716933 -1.88314 0
M  V30 4264 O 408.628 1.48712 -2.04062 0
M  V30 4265 C 409.941 -1.72072 -2.466 0
M  V30 4266 C 411.489 -1.73681 -2.60392 0
M  V30 4267 C 411.964 -2.73601 -3.67296 0
M  V30 4268 N 413.455 -2.7223 -3.7476 0
M  V30 4269 C 414.19 -3.46206 -4.57087 0
M  V30 4270 N 413.686 -4.29802 -5.43362 0
M  V30 4271 N 415.479 -3.34886 -4.51451 0
M  V30 4272 H 407.63 -1.92028 -0.9077 0
M  V30 4273 H 409.893 -0.828487 -0.460775 0
M  V30 4274 H 409.599 -2.74231 -2.20206 0
M  V30 4275 H 409.473 -1.51818 -3.45299 0
M  V30 4276 H 411.86 -0.722173 -2.86127 0
M  V30 4277 H 411.941 -1.98005 -1.61949 0
M  V30 4278 H 411.585 -3.75217 -3.42307 0
M  V30 4279 H 411.515 -2.46545 -4.65321 0
M  V30 4280 H 414.006 -2.11576 -3.1312 0
M  V30 4281 H 414.319 -4.83061 -6.03218 0
M  V30 4282 H 412.664 -4.33887 -5.42925 0
M  V30 4283 H 415.855 -2.69015 -3.83078 0
M  V30 4284 H 416.028 -3.92796 -5.15379 0
M  V30 4285 N 409.434 1.37368 -0.772513 0
M  V30 4286 C 410.683 1.98918 -0.333861 0
M  V30 4287 C 410.996 1.62017 1.09589 0
M  V30 4288 O 412.202 2.16676 1.63596 0
M  V30 4289 C 410.658 3.55735 -0.545971 0
M  V30 4290 C 410.266 4.01573 -1.98603 0
M  V30 4291 C 412.01 4.24156 -0.170979 0
M  V30 4292 C 409.917 5.51102 -2.1457 0
M  V30 4293 H 408.847 0.744214 -0.121085 0
M  V30 4294 H 411.498 1.56888 -0.95175 0
M  V30 4295 H 409.88 3.95748 0.141387 0
M  V30 4296 H 411.054 3.72803 -2.7084 0
M  V30 4297 H 409.369 3.45937 -2.31769 0
M  V30 4298 H 411.966 5.34024 -0.26878 0
M  V30 4299 H 412.309 4.06917 0.878855 0
M  V30 4300 H 412.842 3.89447 -0.810914 0
M  V30 4301 H 409.581 5.73268 -3.17875 0
M  V30 4302 H 409.101 5.81554 -1.46817 0
M  V30 4303 H 410.78 6.17083 -1.94468 0
M  V30 4304 N 410.912 0.523116 1.48665 0
M  V30 4305 C 411.842 -0.23231 2.32342 0
M  V30 4306 C 412.823 -0.941637 1.41659 0
M  V30 4307 O 414.008 -0.928751 1.70552 0
M  V30 4308 C 411.138 -1.28387 3.22698 0
M  V30 4309 C 410.092 -0.693098 4.22351 0
M  V30 4310 C 409.418 -1.8468 5.01794 0
M  V30 4311 C 410.718 0.33063 5.21252 0
M  V30 4312 H 412.412 0.466192 2.95748 0
M  V30 4313 H 409.958 0.225643 1.42221 0
M  V30 4314 H 411.911 -1.82024 3.80059 0
M  V30 4315 H 410.635 -2.01186 2.57278 0
M  V30 4316 H 409.294 -0.178299 3.66166 0
M  V30 4317 H 408.942 -2.56301 4.32804 0
M  V30 4318 H 408.642 -1.45747 5.69238 0
M  V30 4319 H 410.166 -2.38709 5.62006 0
M  V30 4320 H 411.58 -0.118407 5.73178 0
M  V30 4321 H 409.977 0.636974 5.9671 0
M  V30 4322 H 411.047 1.23883 4.68808 0
M  V30 4323 N 412.39 -1.55475 0.257931 0
M  V30 4324 C 413.338 -2.23244 -0.653076 0
M  V30 4325 C 414.332 -1.22366 -1.17144 0
M  V30 4326 O 415.538 -1.40347 -1.12706 0
M  V30 4327 H 411.913 -0.716247 -0.229117 0
M  V30 4328 H 413.884 -2.98343 -0.0584788 0
M  V30 4329 C 412.633 -2.95401 -1.83395 0
M  V30 4330 H 411.956 -3.72802 -1.44424 0
M  V30 4331 H 413.396 -3.46165 -2.44838 0
M  V30 4332 C 411.855 -1.99895 -2.71189 0
M  V30 4333 O 412.385 -1.53909 -3.71046 0
M  V30 4334 N 410.591 -1.6676 -2.3799 0
M  V30 4335 H 410.138 -2.04352 -1.56837 0
M  V30 4336 H 410.096 -1.03127 -2.97005 0
M  V30 4337 N 413.868 0.0150385 -1.57593 0
M  V30 4338 C 415.114 0.704043 -1.90187 0
M  V30 4339 C 415.447 1.74249 -0.857366 0
M  V30 4340 O 414.722 1.94092 0.125843 0
M  V30 4341 C 415.005 1.36087 -3.33395 0
M  V30 4342 C 414.858 0.334981 -4.48551 0
M  V30 4343 C 416.177 2.29112 -3.7576 0
M  V30 4344 H 413.296 0.254475 -0.691673 0
M  V30 4345 H 415.938 -0.0331678 -1.89971 0
M  V30 4346 H 414.088 1.98922 -3.3371 0
M  V30 4347 H 415.76 -0.292534 -4.60372 0
M  V30 4348 H 414.003 -0.344325 -4.32431 0
M  V30 4349 H 414.674 0.833316 -5.45674 0
M  V30 4350 H 417.15 1.76308 -3.76902 0
M  V30 4351 H 416.026 2.72043 -4.76743 0
M  V30 4352 H 416.287 3.16385 -3.08793 0
M  V30 4353 N 415.346 1.54954 0.287554 0
M  V30 4354 C 416.757 1.65732 0.859634 0
M  V30 4355 C 417.108 0.574767 1.87592 0
M  V30 4356 O 416.233 -0.286299 2.14498 0
M  V30 4357 C 416.828 3.00438 1.56597 0
M  V30 4358 C 415.387 3.13292 2.08627 0
M  V30 4359 C 414.534 2.61473 0.923416 0
M  V30 4360 H 417.485 1.5857 0.0642338 0
M  V30 4361 H 417.506 2.92613 2.43224 0
M  V30 4362 H 417.018 3.79207 0.826053 0
M  V30 4363 H 415.119 2.39268 2.85625 0
M  V30 4364 H 415.232 4.19647 2.31157 0
M  V30 4365 H 413.596 2.18264 1.31275 0
M  V30 4366 H 414.379 3.42733 0.197241 0
M  V30 4367 N 416.824 -0.551391 1.4764 0
M  V30 4368 C 417.756 -1.67333 1.56628 0
M  V30 4369 C 418.769 -1.56398 0.452045 0
M  V30 4370 O 419.958 -1.6325 0.721926 0
M  V30 4371 C 417.058 -3.05841 1.45994 0
M  V30 4372 C 416.231 -3.42472 2.72088 0
M  V30 4373 C 415.29 -4.60168 2.55209 0
M  V30 4374 O 414.316 -4.64458 3.2904 0
M  V30 4375 N 415.518 -5.57024 1.63416 0
M  V30 4376 H 418.283 -1.60066 2.53375 0
M  V30 4377 H 415.844 -0.738169 1.44093 0
M  V30 4378 H 417.836 -3.8242 1.32428 0
M  V30 4379 H 416.406 -3.07302 0.573071 0
M  V30 4380 H 415.626 -2.55284 3.00373 0
M  V30 4381 H 416.914 -3.63723 3.55785 0
M  V30 4382 H 416.312 -5.56319 1.02594 0
M  V30 4383 H 414.869 -6.32906 1.558 0
M  V30 4384 N 418.302 -1.35869 -0.798587 0
M  V30 4385 C 419.212 -1.31578 -1.94228 0
M  V30 4386 C 420.228 -0.21939 -1.72611 0
M  V30 4387 O 421.404 -0.450167 -1.96305 0
M  V30 4388 C 418.469 -1.09528 -3.28944 0
M  V30 4389 C 417.53 -2.28556 -3.63402 0
M  V30 4390 C 416.763 -2.07549 -4.9169 0
M  V30 4391 O 416.986 -1.046 -5.60727 0
M  V30 4392 O 415.92 -2.95106 -5.24591 0
M  V30 4393 H 419.746 -2.27847 -2.00796 0
M  V30 4394 H 417.331 -1.16322 -0.937526 0
M  V30 4395 H 419.213 -0.991127 -4.09579 0
M  V30 4396 H 417.888 -0.16315 -3.23289 0
M  V30 4397 H 416.795 -2.44538 -2.83112 0
M  V30 4398 H 418.128 -3.20244 -3.73771 0
M  V30 4399 N 419.78 1.02168 -1.19998 0
M  V30 4400 C 420.71 2.12488 -0.96804 0
M  V30 4401 C 421.691 1.69799 0.101185 0
M  V30 4402 O 422.876 1.94121 -0.0552993 0
M  V30 4403 C 420.006 3.43479 -0.513776 0
M  V30 4404 C 418.96 3.99884 -1.52566 0
M  V30 4405 C 418.286 5.26582 -0.928214 0
M  V30 4406 C 419.586 4.33861 -2.90795 0
M  V30 4407 H 421.28 2.32149 -1.89069 0
M  V30 4408 H 418.826 1.11564 -0.910468 0
M  V30 4409 H 420.779 4.20036 -0.338774 0
M  V30 4410 H 419.503 3.23561 0.444493 0
M  V30 4411 H 418.162 3.25429 -1.68794 0
M  V30 4412 H 417.81 5.02986 0.0378289 0
M  V30 4413 H 417.51 5.65284 -1.60397 0
M  V30 4414 H 419.034 6.05799 -0.764167 0
M  V30 4415 H 420.448 5.01327 -2.78109 0
M  V30 4416 H 418.845 4.83664 -3.55231 0
M  V30 4417 H 419.915 3.42848 -3.42904 0
M  V30 4418 N 421.258 1.00505 1.21394 0
M  V30 4419 C 422.488 0.705584 1.94178 0
M  V30 4420 C 422.896 -0.735846 1.74304 0
M  V30 4421 O 422.239 -1.50954 1.04683 0
M  V30 4422 C 422.301 0.94689 3.46806 0
M  V30 4423 C 421.965 2.37517 3.90429 0
M  V30 4424 C 422.962 3.35539 3.97127 0
M  V30 4425 C 420.647 2.71284 4.22742 0
M  V30 4426 C 422.641 4.65395 4.3553 0
M  V30 4427 C 420.328 4.01356 4.60822 0
M  V30 4428 C 421.326 4.98223 4.67186 0
M  V30 4429 O 421.014 6.25969 5.04399 0
M  V30 4430 H 420.746 0.259216 0.624326 0
M  V30 4431 H 423.3 1.34592 1.55159 0
M  V30 4432 H 421.53 0.249386 3.85895 0
M  V30 4433 H 423.219 0.640804 4.0081 0
M  V30 4434 H 423.985 3.10786 3.7234 0
M  V30 4435 H 419.864 1.96581 4.16985 0
M  V30 4436 H 423.408 5.41002 4.40412 0
M  V30 4437 H 419.305 4.25893 4.85063 0
M  V30 4438 H 420.073 6.30085 5.22431 0
M  V30 4439 N 422.737 -1.36956 0.779787 0
M  V30 4440 C 423.647 -2.33965 0.172491 0
M  V30 4441 C 424.663 -1.60574 -0.670222 0
M  V30 4442 O 425.839 -1.92617 -0.588263 0
M  V30 4443 C 422.904 -3.39761 -0.690173 0
M  V30 4444 C 421.965 -4.28964 0.169924 0
M  V30 4445 C 421.198 -5.29707 -0.651662 0
M  V30 4446 O 421.421 -5.38238 -1.88827 0
M  V30 4447 O 420.355 -6.01873 -0.0566264 0
M  V30 4448 H 424.181 -2.87647 0.974321 0
M  V30 4449 H 421.766 -1.39258 0.541078 0
M  V30 4450 H 423.648 -4.04471 -1.1824 0
M  V30 4451 H 422.323 -2.88394 -1.47006 0
M  V30 4452 H 421.23 -3.67326 0.708696 0
M  V30 4453 H 422.563 -4.83656 0.913085 0
M  V30 4454 N 424.215 -0.530993 -1.48385 0
M  V30 4455 C 425.162 0.231223 -2.29639 0
M  V30 4456 C 426.132 0.932864 -1.37429 0
M  V30 4457 O 427.317 0.933692 -1.66394 0
M  V30 4458 C 424.457 1.27155 -3.2082 0
M  V30 4459 C 423.57 0.578655 -4.28107 0
M  V30 4460 C 422.705 1.602 -5.06467 0
M  V30 4461 C 421.744 0.892625 -6.05556 0
M  V30 4462 N 420.881 1.86157 -6.76971 0
M  V30 4463 H 425.721 -0.467848 -2.94305 0
M  V30 4464 H 423.258 -0.242556 -1.45086 0
M  V30 4465 H 425.216 1.88703 -3.72085 0
M  V30 4466 H 423.846 1.939 -2.58075 0
M  V30 4467 H 422.898 -0.150782 -3.80101 0
M  V30 4468 H 424.21 0.0217065 -4.98795 0
M  V30 4469 H 423.364 2.29173 -5.61751 0
M  V30 4470 H 422.103 2.19285 -4.35621 0
M  V30 4471 H 421.108 0.188829 -5.49476 0
M  V30 4472 H 422.333 0.307878 -6.78402 0
M  V30 4473 H 420.279 2.44147 -6.08875 0
M  V30 4474 H 420.196 1.35608 -7.43738 0
M  V30 4475 H 421.464 2.54325 -7.36844 0
M  V30 4476 N 425.693 1.55336 -0.266172 0
M  V30 4477 C 426.941 1.99003 0.35246 0
M  V30 4478 C 427.262 1.15591 1.57047 0
M  V30 4479 O 426.532 0.243268 1.94384 0
M  V30 4480 H 425.112 0.735025 0.133217 0
M  V30 4481 H 427.774 1.91367 -0.369434 0
M  V30 4482 H 426.87 3.05289 0.648453 0
M  V30 4483 N 427.171 -0.0066808 1.57599 0
M  V30 4484 C 428.401 -0.703066 1.94269 0
M  V30 4485 C 428.809 -1.68206 0.866222 0
M  V30 4486 O 428.152 -1.82966 -0.164087 0
M  V30 4487 C 428.214 -1.49616 3.26887 0
M  V30 4488 C 427.878 -0.679494 4.5192 0
M  V30 4489 C 428.875 0.0299508 5.19891 0
M  V30 4490 C 426.56 -0.627433 4.98366 0
M  V30 4491 C 428.554 0.780514 6.32603 0
M  V30 4492 C 426.241 0.126861 6.10968 0
M  V30 4493 C 427.239 0.829574 6.77943 0
M  V30 4494 O 426.927 1.57157 7.88389 0
M  V30 4495 H 426.659 -0.201217 0.645359 0
M  V30 4496 H 429.213 0.0385326 2.05364 0
M  V30 4497 H 427.443 -2.28209 3.12182 0
M  V30 4498 H 429.132 -2.07726 3.48719 0
M  V30 4499 H 429.898 -0.00115963 4.85 0
M  V30 4500 H 425.777 -1.16392 4.46065 0
M  V30 4501 H 429.321 1.32954 6.84813 0
M  V30 4502 H 425.218 0.159815 6.45302 0
M  V30 4503 H 425.986 1.48758 8.04868 0
M  V30 4504 N 428.649 -1.55105 -0.279332 0
M  V30 4505 C 429.895 -1.75672 -1.01327 0
M  V30 4506 C 430.228 -0.552739 -1.86168 0
M  V30 4507 O 429.503 0.449827 -1.89227 0
M  V30 4508 C 429.786 -3.05825 -1.90114 0
M  V30 4509 C 429.639 -4.36565 -1.08309 0
M  V30 4510 C 430.958 -3.31975 -2.8893 0
M  V30 4511 H 428.077 -0.639149 -0.366957 0
M  V30 4512 H 430.719 -1.87833 -0.286154 0
M  V30 4513 H 428.869 -2.95588 -2.52111 0
M  V30 4514 H 430.541 -4.58751 -0.484314 0
M  V30 4515 H 428.784 -4.32076 -0.386362 0
M  V30 4516 H 429.455 -5.23946 -1.73737 0
M  V30 4517 H 431.931 -3.41963 -2.37067 0
M  V30 4518 H 430.807 -4.2432 -3.48201 0
M  V30 4519 H 431.068 -2.51309 -3.63725 0
M  V30 4520 N 430.127 0.543554 -1.4793 0
M  V30 4521 C 431.074 1.64942 -1.6144 0
M  V30 4522 C 432.044 1.59692 -0.456903 0
M  V30 4523 O 433.229 1.78321 -0.678688 0
M  V30 4524 C 430.369 3.03238 -1.64744 0
M  V30 4525 C 429.482 3.18823 -2.91506 0
M  V30 4526 C 428.617 4.47599 -2.86057 0
M  V30 4527 C 427.656 4.56664 -4.07584 0
M  V30 4528 N 426.793 5.76811 -4.00292 0
M  V30 4529 H 431.633 1.52733 -2.55884 0
M  V30 4530 H 429.17 0.7438 -1.2691 0
M  V30 4531 H 431.128 3.83339 -1.64641 0
M  V30 4532 H 429.758 3.1425 -0.738017 0
M  V30 4533 H 428.81 2.32064 -3.01414 0
M  V30 4534 H 430.122 3.21384 -3.81463 0
M  V30 4535 H 429.276 5.35975 -2.84281 0
M  V30 4536 H 428.015 4.47538 -1.93807 0
M  V30 4537 H 427.02 3.66697 -4.09651 0
M  V30 4538 H 428.245 4.58474 -5.00978 0
M  V30 4539 H 426.191 5.77673 -3.10853 0
M  V30 4540 H 426.108 5.80808 -4.8394 0
M  V30 4541 H 427.376 6.67512 -4.02553 0
M  V30 4542 N 431.605 1.3629 0.791371 0
M  V30 4543 C 432.882 1.20962 1.53712 0
M  V30 4544 C 433.262 -0.205021 2.10102 0
M  V30 4545 O 432.61 -1.21042 1.93807 0
M  V30 4546 C 432.82 2.29002 2.63361 0
M  V30 4547 C 434.168 2.65572 3.31295 0
M  V30 4548 O 435.192 2.2803 2.73643 0
M  V30 4549 O 434.051 3.3018 4.35481 0
M  V30 4550 H 431.145 0.47086 0.679867 0
M  V30 4551 H 433.691 1.48016 0.830021 0
M  V30 4552 H 432.463 3.2382 2.19674 0
M  V30 4553 H 432.086 2.03303 3.41692 0
M  V30 4554 N 433.083 -1.0153 1.20538 0
M  V30 4555 C 434.329 -1.75408 1.01783 0
M  V30 4556 C 434.662 -1.88943 -0.448814 0
M  V30 4557 O 433.937 -1.4162 -1.33319 0
M  V30 4558 C 434.22 -3.17255 1.70356 0
M  V30 4559 C 434.073 -3.11508 3.24473 0
M  V30 4560 C 435.392 -4.15955 1.43769 0
M  V30 4561 H 432.511 -0.636713 0.371167 0
M  V30 4562 H 435.153 -1.18436 1.4857 0
M  V30 4563 H 433.303 -3.65898 1.30578 0
M  V30 4564 H 434.975 -2.70658 3.73553 0
M  V30 4565 H 433.218 -2.4887 3.55311 0
M  V30 4566 H 433.889 -4.11784 3.67611 0
M  V30 4567 H 436.365 -3.75973 1.7828 0
M  V30 4568 H 435.241 -5.13368 1.94279 0
M  V30 4569 H 435.502 -4.40586 0.365564 0
M  V30 4570 N 434.561 -1.01147 -1.20859 0
M  V30 4571 C 435.838 -0.613136 -1.85742 0
M  V30 4572 C 436.218 0.909004 -1.90526 0
M  V30 4573 O 435.566 1.79862 -1.40932 0
M  V30 4574 C 435.776 -1.255 -3.25654 0
M  V30 4575 C 437.124 -1.3672 -4.01986 0
M  V30 4576 O 438.148 -1.21082 -3.34989 0
M  V30 4577 O 437.007 -1.6194 -5.21956 0
M  V30 4578 H 434.101 -0.210878 -0.799662 0
M  V30 4579 H 436.647 -1.10853 -1.2849 0
M  V30 4580 H 435.419 -2.29532 -3.16908 0
M  V30 4581 H 435.042 -0.746369 -3.90532 0
M  V30 4582 N 436.039 1.36541 -0.78704 0
M  V30 4583 C 437.316 1.9355 -0.282424 0
M  V30 4584 C 437.696 1.71919 1.22503 0
M  V30 4585 O 437.044 1.07677 2.01539 0
M  V30 4586 C 437.254 3.4246 -0.672462 0
M  V30 4587 C 438.602 4.19582 -0.650863 0
M  V30 4588 O 439.626 3.50889 -0.612789 0
M  V30 4589 O 438.485 5.42106 -0.691623 0
M  V30 4590 H 435.579 0.824091 -0.0693 0
M  V30 4591 H 438.125 1.45736 -0.869423 0
M  V30 4592 H 436.897 3.51851 -1.71221 0
M  V30 4593 H 436.52 3.97556 -0.0592211 0
M  V30 4594 N 437.518 0.538854 1.48102 0
M  V30 4595 C 438.766 0.00798599 2.02098 0
M  V30 4596 C 439.087 -1.33922 1.41739 0
M  V30 4597 O 438.357 -1.86932 0.585934 0
M  V30 4598 H 436.937 -3.62179e-05 0.747 0
M  V30 4599 H 439.599 0.7047 1.81714 0
M  V30 4600 H 438.695 -0.0937672 3.11959 0
M  V30 4601 N 438.996 -1.55193 0.274407 0
M  V30 4602 C 439.926 -2.25471 -0.607032 0
M  V30 4603 C 440.907 -1.24461 -1.15946 0
M  V30 4604 O 442.092 -1.53179 -1.19373 0
M  V30 4605 C 439.222 -2.97526 -1.79153 0
M  V30 4606 C 438.176 -4.05459 -1.37067 0
M  V30 4607 C 437.502 -4.65084 -2.6382 0
M  V30 4608 C 438.802 -5.19691 -0.521389 0
M  V30 4609 H 440.496 -2.99393 -0.0209343 0
M  V30 4610 H 438.042 -1.43997 -0.00862866 0
M  V30 4611 H 439.995 -3.45402 -2.41404 0
M  V30 4612 H 438.719 -2.21138 -2.40344 0
M  V30 4613 H 437.378 -3.58393 -0.771355 0
M  V30 4614 H 437.026 -3.85365 -3.23268 0
M  V30 4615 H 436.726 -5.37961 -2.36372 0
M  V30 4616 H 438.25 -5.15708 -3.26921 0
M  V30 4617 H 439.664 -5.63623 -1.04889 0
M  V30 4618 H 438.061 -5.99126 -0.341825 0
M  V30 4619 H 439.131 -4.82713 0.46 0
M  V30 4620 N 440.474 -0.00167713 -1.576 0
M  V30 4621 C 441.406 1.0174 -2.05382 0
M  V30 4622 C 442.419 1.30595 -0.972052 0
M  V30 4623 O 443.608 1.27542 -1.24882 0
M  V30 4624 C 440.708 2.35174 -2.44022 0
M  V30 4625 C 439.881 2.25234 -3.74951 0
M  V30 4626 C 438.94 3.4137 -4.00441 0
M  V30 4627 O 437.966 3.19483 -4.71083 0
M  V30 4628 N 439.168 4.64275 -3.48467 0
M  V30 4629 H 441.933 0.609902 -2.93428 0
M  V30 4630 H 439.494 0.185672 -1.60832 0
M  V30 4631 H 441.486 3.11643 -2.58187 0
M  V30 4632 H 440.056 2.67659 -1.61485 0
M  V30 4633 H 439.276 1.33664 -3.70847 0
M  V30 4634 H 440.564 2.15767 -4.60784 0
M  V30 4635 H 439.962 4.84955 -2.91264 0
M  V30 4636 H 438.519 5.38005 -3.67959 0
M  V30 4637 N 441.952 1.55251 0.271103 0
M  V30 4638 C 442.915 1.87484 1.31842 0
M  V30 4639 C 443.915 0.749545 1.42262 0
M  V30 4640 O 445.105 1.01771 1.4138 0
M  V30 4641 C 442.237 2.0818 2.69951 0
M  V30 4642 H 443.43 2.81108 1.0449 0
M  V30 4643 H 440.983 1.47771 0.509258 0
M  V30 4644 H 441.718 1.16944 3.02481 0
M  V30 4645 H 441.503 2.90114 2.63774 0
M  V30 4646 H 442.993 2.34385 3.4562 0
M  V30 4647 N 443.43 -0.535701 1.48216 0
M  V30 4648 C 444.393 -1.623 1.61838 0
M  V30 4649 C 445.393 -1.53087 0.492024 0
M  V30 4650 O 446.583 -1.5686 0.757668 0
M  V30 4651 C 443.715 -3.01907 1.58319 0
M  V30 4652 H 444.908 -1.51564 2.58783 0
M  V30 4653 H 442.461 -0.757317 1.36727 0
M  V30 4654 H 443.196 -3.18155 0.628299 0
M  V30 4655 H 442.981 -3.10003 2.40085 0
M  V30 4656 H 444.471 -3.80969 1.71033 0
M  V30 4657 N 444.908 -1.36708 -0.784132 0
M  V30 4658 C 445.818 -1.3363 -1.92822 0
M  V30 4659 C 446.834 -0.237686 -1.72369 0
M  V30 4660 O 448.01 -0.470962 -1.95816 0
M  V30 4661 C 445.075 -1.13011 -3.27764 0
M  V30 4662 C 444.136 -2.32397 -3.60957 0
M  V30 4663 C 443.369 -2.12752 -4.89461 0
M  V30 4664 O 443.592 -1.10541 -5.59586 0
M  V30 4665 O 442.526 -3.00653 -5.21432 0
M  V30 4666 H 446.352 -2.29964 -1.98369 0
M  V30 4667 H 443.937 -1.1731 -0.925136 0
M  V30 4668 H 445.819 -1.03451 -4.08504 0
M  V30 4669 H 444.494 -0.19743 -3.23097 0
M  V30 4670 H 443.401 -2.47527 -2.80502 0
M  V30 4671 H 444.734 -3.2419 -3.70354 0
M  V30 4672 N 446.386 1.0089 -1.21074 0
M  V30 4673 C 447.296 2.13039 -0.982425 0
M  V30 4674 C 448.312 1.73881 0.0642161 0
M  V30 4675 O 449.488 2.01012 -0.12496 0
M  V30 4676 C 446.553 3.42377 -0.545803 0
M  V30 4677 C 445.614 3.95731 -1.6642 0
M  V30 4678 C 444.847 5.18896 -1.24832 0
M  V30 4679 O 445.07 5.70273 -0.120265 0
M  V30 4680 O 444.004 5.65597 -2.05873 0
M  V30 4681 H 447.83 2.35175 -1.92163 0
M  V30 4682 H 445.415 1.1142 -0.995285 0
M  V30 4683 H 447.297 4.20244 -0.311912 0
M  V30 4684 H 445.972 3.21639 0.364727 0
M  V30 4685 H 444.879 3.19108 -1.95246 0
M  V30 4686 H 446.212 4.20872 -2.55201 0
M  V30 4687 N 447.864 1.01787 1.20321 0
M  V30 4688 C 449.11 0.708985 1.90003 0
M  V30 4689 C 449.443 -0.759572 1.78729 0
M  V30 4690 O 448.718 -1.55198 1.17234 0
M  V30 4691 C 449.001 1.1469 3.41348 0
M  V30 4692 C 448.854 2.67586 3.61549 0
M  V30 4693 C 450.173 0.71915 4.34185 0
M  V30 4694 H 447.292 0.259034 0.689978 0
M  V30 4695 H 449.934 1.26584 1.41692 0
M  V30 4696 H 448.084 0.673128 3.82624 0
M  V30 4697 H 449.756 3.22826 3.29517 0
M  V30 4698 H 447.999 3.085 3.04976 0
M  V30 4699 H 448.67 2.93281 4.67643 0
M  V30 4700 H 451.146 1.12647 4.00562 0
M  V30 4701 H 450.022 1.05358 5.38694 0
M  V30 4702 H 450.283 -0.379111 4.40472 0
M  V30 4703 N 449.342 -1.36122 0.79427 0
M  V30 4704 C 450.59 -1.98718 0.368177 0
M  V30 4705 C 450.911 -1.63345 -1.06506 0
M  V30 4706 O 450.181 -0.909825 -1.73491 0
M  V30 4707 H 448.761 -0.735038 0.133146 0
M  V30 4708 H 451.423 -1.66239 1.01739 0
M  V30 4709 H 450.519 -3.08633 0.463923 0
M  V30 4710 N 450.82 -0.546701 -1.47814 0
M  V30 4711 C 452.05 -0.0232519 -2.06587 0
M  V30 4712 C 452.458 1.2712 -1.40133 0
M  V30 4713 O 451.801 1.77091 -0.488305 0
M  V30 4714 C 451.863 0.254117 -3.58601 0
M  V30 4715 C 451.527 -0.949331 -4.47031 0
M  V30 4716 C 452.524 -1.85216 -4.85789 0
M  V30 4717 C 450.209 -1.16104 -4.88697 0
M  V30 4718 C 452.203 -2.95047 -5.65001 0
M  V30 4719 C 449.89 -2.26247 -5.67676 0
M  V30 4720 C 450.888 -3.1555 -6.05737 0
M  V30 4721 O 450.576 -4.23784 -6.83127 0
M  V30 4722 H 450.308 -0.0380082 -0.674931 0
M  V30 4723 H 452.862 -0.756631 -1.90956 0
M  V30 4724 H 451.092 1.04168 -3.72406 0
M  V30 4725 H 452.781 0.72167 -3.99433 0
M  V30 4726 H 453.547 -1.70061 -4.54207 0
M  V30 4727 H 449.426 -0.475159 -4.58545 0
M  V30 4728 H 452.97 -3.64778 -5.94628 0
M  V30 4729 H 448.867 -2.41379 -5.98671 0
M  V30 4730 H 449.635 -4.21701 -7.01506 0
M  V30 4731 N 452.299 1.55045 -0.282633 0
M  V30 4732 C 453.71 1.85473 0.213655 0
M  V30 4733 C 454.061 1.20465 1.54863 0
M  V30 4734 O 453.186 0.495676 2.10647 0
M  V30 4735 C 453.781 3.36496 0.394445 0
M  V30 4736 C 452.34 3.67022 0.834961 0
M  V30 4737 C 451.487 2.77218 -0.0674081 0
M  V30 4738 H 454.438 1.50478 -0.504202 0
M  V30 4739 H 454.459 3.60007 1.23186 0
M  V30 4740 H 453.971 3.83782 -0.577326 0
M  V30 4741 H 452.072 3.25241 1.81794 0
M  V30 4742 H 452.185 4.74433 0.667075 0
M  V30 4743 H 450.549 2.5069 0.450196 0
M  V30 4744 H 451.332 3.2732 -1.0352 0
M  V30 4745 N 453.777 0.010035 1.57597 0
M  V30 4746 C 455.023 -0.673697 1.91283 0
M  V30 4747 C 455.356 -1.72863 0.884979 0
M  V30 4748 O 454.631 -1.94268 -0.0949487 0
M  V30 4749 C 454.914 -1.30766 3.35518 0
M  V30 4750 C 454.767 -0.263578 4.49027 0
M  V30 4751 C 456.086 -2.23105 3.79358 0
M  V30 4752 H 453.205 -0.243439 0.695634 0
M  V30 4753 H 455.847 0.0633864 1.89894 0
M  V30 4754 H 453.997 -1.93588 3.36832 0
M  V30 4755 H 455.669 0.365738 4.59848 0
M  V30 4756 H 453.912 0.413077 4.31829 0
M  V30 4757 H 454.583 -0.746398 5.4693 0
M  V30 4758 H 457.059 -1.70289 3.79659 0
M  V30 4759 H 455.935 -2.64424 4.81011 0
M  V30 4760 H 456.196 -3.11433 3.13787 0
M  V30 4761 N 455.255 -1.55392 -0.262866 0
M  V30 4762 C 456.188 -1.8391 -1.35101 0
M  V30 4763 C 457.166 -0.692901 -1.47097 0
M  V30 4764 O 458.35 -0.936979 -1.63563 0
M  V30 4765 C 455.477 -2.00969 -2.72634 0
M  V30 4766 C 454.523 -3.23559 -2.7787 0
M  V30 4767 S 455.356 -4.80647 -2.3609 0
M  V30 4768 C 456.512 -5.00692 -3.75578 0
M  V30 4769 H 456.745 -2.75918 -1.1071 0
M  V30 4770 H 454.278 -1.47294 -0.463029 0
M  V30 4771 H 456.236 -2.11482 -3.51832 0
M  V30 4772 H 454.897 -1.09832 -2.94272 0
M  V30 4773 H 454.09 -3.32413 -3.78837 0
M  V30 4774 H 453.692 -3.11689 -2.06702 0
M  V30 4775 H 455.984 -4.87055 -4.70939 0
M  V30 4776 H 456.927 -6.02717 -3.71669 0
M  V30 4777 H 457.335 -4.28619 -3.6735 0
M  V30 4778 N 456.733 0.527833 -1.48498 0
M  V30 4779 C 457.982 1.28003 -1.55878 0
M  V30 4780 C 458.295 1.9414 -0.238577 0
M  V30 4781 O 459.501 2.7083 -0.190643 0
M  V30 4782 C 457.957 2.32272 -2.74914 0
M  V30 4783 C 457.565 1.72196 -4.13585 0
M  V30 4784 C 459.309 3.08488 -2.91608 0
M  V30 4785 C 457.216 2.74417 -5.23879 0
M  V30 4786 H 456.146 0.481413 -0.580308 0
M  V30 4787 H 458.797 0.557195 -1.74836 0
M  V30 4788 H 457.179 3.07601 -2.49395 0
M  V30 4789 H 458.353 1.03041 -4.49132 0
M  V30 4790 H 456.668 1.08464 -4.02025 0
M  V30 4791 H 459.265 3.84879 -3.71177 0
M  V30 4792 H 459.608 3.64481 -2.01145 0
M  V30 4793 H 460.141 2.40274 -3.17038 0
M  V30 4794 H 456.88 2.23242 -6.16314 0
M  V30 4795 H 456.4 3.41893 -4.92818 0
M  V30 4796 H 458.079 3.37362 -5.52083 0
M  V30 4797 N 458.211 1.37122 0.776871 0
M  V30 4798 C 459.158 1.3247 1.88998 0
M  V30 4799 C 460.128 0.191143 1.64997 0
M  V30 4800 O 461.313 0.379683 1.86984 0
M  V30 4801 C 458.453 1.13241 3.25992 0
M  V30 4802 C 457.566 2.35782 3.61982 0
M  V30 4803 C 456.701 2.09465 4.88158 0
M  V30 4804 C 455.74 3.279 5.16864 0
M  V30 4805 N 454.877 3.01167 6.34226 0
M  V30 4806 H 459.717 2.27642 1.9231 0
M  V30 4807 H 457.254 1.13125 0.94027 0
M  V30 4808 H 459.212 1.00115 4.0501 0
M  V30 4809 H 457.842 0.217186 3.22069 0
M  V30 4810 H 456.894 2.59666 2.77989 0
M  V30 4811 H 458.206 3.24125 3.79137 0
M  V30 4812 H 457.36 1.93341 5.75069 0
M  V30 4813 H 456.099 1.18452 4.73097 0
M  V30 4814 H 455.104 3.44569 4.2843 0
M  V30 4815 H 456.329 4.19757 5.33836 0
M  V30 4816 H 454.275 2.12779 6.20533 0
M  V30 4817 H 454.192 3.83052 6.51772 0
M  V30 4818 H 455.46 2.88649 7.24087 0
M  V30 4819 N 459.689 -1.00246 1.21608 0
M  V30 4820 C 460.652 -2.07233 0.979133 0
M  V30 4821 C 461.652 -1.6072 -0.0508219 0
M  V30 4822 O 462.842 -1.73196 0.186712 0
M  V30 4823 C 459.974 -3.37546 0.477016 0
M  V30 4824 H 461.167 -2.29687 1.92831 0
M  V30 4825 H 458.72 -1.17261 1.03342 0
M  V30 4826 H 459.455 -3.20773 -0.476966 0
M  V30 4827 H 459.24 -3.72638 1.21997 0
M  V30 4828 H 460.73 -4.16285 0.331181 0
M  V30 4829 N 461.167 -1.02423 -1.1978 0
M  V30 4830 C 462.392 -0.7373 -1.93852 0
M  V30 4831 C 462.817 0.696923 -1.74713 0
M  V30 4832 O 462.175 1.48056 -1.04638 0
M  V30 4833 C 462.223 -1.08783 -3.438 0
M  V30 4834 O 461.327 -0.20383 -4.11896 0
M  V30 4835 H 460.668 -0.27284 -0.605355 0
M  V30 4836 H 463.198 -1.36966 -1.51992 0
M  V30 4837 H 463.208 -1.04276 -3.9445 0
M  V30 4838 H 461.883 -2.13274 -3.57053 0
M  V30 4839 H 460.46 -0.307091 -3.71633 0
M  V30 4840 N 462.645 1.35699 -0.801477 0
M  V30 4841 C 463.555 2.33661 -0.209691 0
M  V30 4842 C 464.571 1.6162 0.644591 0
M  V30 4843 O 465.747 1.93529 0.557545 0
M  V30 4844 C 462.812 3.40816 0.636033 0
M  V30 4845 C 461.873 4.28639 -0.238147 0
M  V30 4846 C 461.106 5.30676 0.567307 0
M  V30 4847 O 461.329 5.41174 1.8024 0
M  V30 4848 O 460.263 6.01887 -0.0391336 0
M  V30 4849 H 464.089 2.8606 -1.01996 0
M  V30 4850 H 461.674 1.38379 -0.563164 0
M  V30 4851 H 463.556 4.06301 1.11791 0
M  V30 4852 H 462.231 2.90696 1.42399 0
M  V30 4853 H 461.138 3.66152 -0.767044 0
M  V30 4854 H 462.471 4.82143 -0.989915 0
M  V30 4855 N 464.123 0.554532 1.47522 0
M  V30 4856 C 465.371 0.0294208 2.02079 0
M  V30 4857 C 465.692 -1.32411 1.43151 0
M  V30 4858 O 464.962 -1.863 0.605728 0
M  V30 4859 H 463.542 0.00788672 0.746958 0
M  V30 4860 H 466.204 0.723934 1.80956 0
M  V30 4861 H 465.3 -0.0606745 3.12041 0
M  V30 4862 N 465.601 -1.54893 0.290851 0
M  V30 4863 C 466.849 -1.99538 -0.320756 0
M  V30 4864 C 467.17 -1.18075 -1.55188 0
M  V30 4865 O 466.44 -0.274162 -1.93972 0
M  V30 4866 H 465.02 -0.737052 -0.121507 0
M  V30 4867 H 467.682 -1.90755 0.399832 0
M  V30 4868 H 466.778 -3.06282 -0.599802 0
M  V30 4869 N 467.08 -0.0183926 -1.57589 0
M  V30 4870 C 468.328 0.661253 -1.90976 0
M  V30 4871 C 468.649 1.73281 -0.894353 0
M  V30 4872 O 467.919 1.9579 0.0656788 0
M  V30 4873 H 466.499 0.247233 -0.704901 0
M  V30 4874 H 469.161 -0.0636639 -1.94796 0
M  V30 4875 H 468.257 1.12083 -2.9128 0
M  V30 4876 N 468.558 1.5553 0.254621 0
M  V30 4877 C 469.806 1.7665 0.981793 0
M  V30 4878 C 470.127 0.580963 1.86145 0
M  V30 4879 O 469.397 -0.403537 1.91699 0
M  V30 4880 H 467.977 0.651475 0.365498 0
M  V30 4881 H 470.639 1.92958 0.274426 0
M  V30 4882 H 469.735 2.67486 1.60802 0
M  V30 4883 N 470.036 -0.519951 1.48776 0
M  V30 4884 C 470.983 -1.62352 1.64044 0
M  V30 4885 C 471.953 -1.58945 0.482251 0
M  V30 4886 O 473.138 -1.77219 0.706971 0
M  V30 4887 C 470.278 -3.00579 1.69547 0
M  V30 4888 C 469.391 -3.14145 2.96541 0
M  V30 4889 C 468.526 -4.42991 2.93142 0
M  V30 4890 C 467.565 -4.50122 4.14797 0
M  V30 4891 N 466.702 -5.7037 4.09418 0
M  V30 4892 H 471.542 -1.48643 2.58281 0
M  V30 4893 H 469.079 -0.723516 1.28077 0
M  V30 4894 H 471.037 -3.80671 1.70719 0
M  V30 4895 H 469.667 -3.13036 0.787918 0
M  V30 4896 H 468.719 -2.27239 3.05068 0
M  V30 4897 H 470.031 -3.15275 3.86527 0
M  V30 4898 H 469.185 -5.31385 2.92772 0
M  V30 4899 H 467.924 -4.44398 2.00902 0
M  V30 4900 H 466.929 -3.60133 4.15433 0
M  V30 4901 H 468.154 -4.50445 5.08208 0
M  V30 4902 H 466.1 -5.72655 3.20004 0
M  V30 4903 H 466.017 -5.73036 4.93119 0
M  V30 4904 H 467.285 -6.61023 4.13121 0
M  V30 4905 N 471.514 -1.37532 -0.769588 0
M  V30 4906 C 472.762 -1.32597 -1.5252 0
M  V30 4907 C 473.083 0.0884294 -1.94799 0
M  V30 4908 O 472.353 1.03289 -1.66458 0
M  V30 4909 H 470.933 -0.487846 -0.565699 0
M  V30 4910 H 473.595 -1.72044 -0.915806 0
M  V30 4911 H 472.691 -1.96643 -2.42359 0
M  V30 4912 N 472.992 0.995999 -1.22138 0
M  V30 4913 C 474.241 1.72928 -1.03821 0
M  V30 4914 C 474.554 1.90872 0.427444 0
M  V30 4915 O 475.76 2.61496 0.730212 0
M  V30 4916 C 474.216 3.11124 -1.80913 0
M  V30 4917 C 473.824 3.01122 -3.31707 0
M  V30 4918 C 475.568 3.8852 -1.71035 0
M  V30 4919 C 473.475 4.34453 -4.01253 0
M  V30 4920 H 472.405 0.648376 -0.384869 0
M  V30 4921 H 475.056 1.11213 -1.45959 0
M  V30 4922 H 473.438 3.73503 -1.31573 0
M  V30 4923 H 474.612 2.47926 -3.88419 0
M  V30 4924 H 472.927 2.3721 -3.42228 0
M  V30 4925 H 475.524 4.872 -2.20318 0
M  V30 4926 H 475.867 4.1087 -0.670196 0
M  V30 4927 H 476.4 3.32812 -2.17902 0
M  V30 4928 H 473.139 4.17303 -5.05508 0
M  V30 4929 H 472.659 4.87574 -3.49331 0
M  V30 4930 H 474.338 5.03215 -4.06674 0
M  V30 4931 N 474.47 1.03057 1.19235 0
M  V30 4932 C 475.886 0.747947 1.40989 0
M  V30 4933 C 476.086 -0.666752 1.90149 0
M  V30 4934 O 475.142 -1.43249 2.07933 0
M  V30 4935 C 476.455 1.7855 2.41951 0
M  V30 4936 C 478.003 1.80524 2.55695 0
M  V30 4937 C 478.478 2.83243 3.59913 0
M  V30 4938 N 479.969 2.8207 3.67411 0
M  V30 4939 C 480.704 3.58204 4.47747 0
M  V30 4940 N 480.2 4.44057 5.31775 0
M  V30 4941 N 481.993 3.46738 4.42413 0
M  V30 4942 H 474.144 1.94367 0.856468 0
M  V30 4943 H 476.407 0.840412 0.438647 0
M  V30 4944 H 476.113 2.79973 2.12857 0
M  V30 4945 H 475.987 1.6092 3.41152 0
M  V30 4946 H 478.374 0.79778 2.84112 0
M  V30 4947 H 478.455 2.02229 1.56643 0
M  V30 4948 H 478.099 3.84161 3.32239 0
M  V30 4949 H 478.029 2.58795 4.5862 0
M  V30 4950 H 480.52 2.19803 3.074 0
M  V30 4951 H 480.833 4.98884 5.90199 0
M  V30 4952 H 479.178 4.48129 5.3123 0
M  V30 4953 H 482.369 2.79077 3.75811 0
M  V30 4954 H 482.542 4.06322 5.04783 0
M  V30 4955 N 475.948 -1.35272 0.808662 0
M  V30 4956 C 476.895 -2.29764 0.218482 0
M  V30 4957 C 477.865 -1.52911 -0.648652 0
M  V30 4958 O 479.05 -1.81341 -0.593297 0
M  V30 4959 C 476.19 -3.39388 -0.625282 0
M  V30 4960 C 475.303 -4.31202 0.262516 0
M  V30 4961 C 474.438 -5.27919 -0.589451 0
M  V30 4962 C 473.477 -6.11371 0.298617 0
M  V30 4963 N 472.614 -7.0022 -0.513443 0
M  V30 4964 H 477.454 -2.79645 1.02968 0
M  V30 4965 H 474.991 -1.37629 0.519303 0
M  V30 4966 H 476.949 -4.01615 -1.12966 0
M  V30 4967 H 475.579 -2.90777 -1.40173 0
M  V30 4968 H 474.631 -3.69962 0.885013 0
M  V30 4969 H 475.943 -4.89748 0.945971 0
M  V30 4970 H 475.097 -5.95529 -1.15888 0
M  V30 4971 H 473.836 -4.69875 -1.30647 0
M  V30 4972 H 472.841 -5.42707 0.880301 0
M  V30 4973 H 474.066 -6.71494 1.01352 0
M  V30 4974 H 472.012 -6.44662 -1.21439 0
M  V30 4975 H 471.929 -7.55917 0.111922 0
M  V30 4976 H 473.197 -7.72175 -1.06608 0
M  V30 4977 N 477.426 -0.562348 -1.47226 0
M  V30 4978 C 478.672 -0.0402761 -2.0276 0
M  V30 4979 C 479.005 1.30823 -1.43523 0
M  V30 4980 O 478.28 1.85249 -0.592705 0
M  V30 4981 C 478.563 0.047311 -3.60069 0
M  V30 4982 C 478.416 -1.32865 -4.29729 0
M  V30 4983 C 479.735 0.758182 -4.3352 0
M  V30 4984 H 476.854 -0.0161105 -0.736824 0
M  V30 4985 H 479.496 -0.725628 -1.75598 0
M  V30 4986 H 477.646 0.630986 -3.83342 0
M  V30 4987 H 479.318 -1.95593 -4.17781 0
M  V30 4988 H 477.561 -1.90195 -3.89882 0
M  V30 4989 H 478.232 -1.22004 -5.38349 0
M  V30 4990 H 480.708 0.262546 -4.15271 0
M  V30 4991 H 479.584 0.78844 -5.43208 0
M  V30 4992 H 479.845 1.81537 -4.03109 0
M  V30 4993 N 478.904 1.54736 -0.299062 0
M  V30 4994 C 479.852 2.24897 0.593658 0
M  V30 4995 C 480.846 1.25429 1.13859 0
M  V30 4996 O 482.052 1.43286 1.08945 0
M  V30 4997 H 478.427 0.72207 0.210046 0
M  V30 4998 H 480.398 2.98393 -0.0206421 0
M  V30 4999 C 479.147 3.00159 1.75499 0
M  V30 5000 H 478.47 3.76501 1.34489 0
M  V30 5001 H 479.91 3.52535 2.35574 0
M  V30 5002 C 478.369 2.07015 2.65794 0
M  V30 5003 O 478.899 1.63692 3.66835 0
M  V30 5004 N 477.105 1.73012 2.33485 0
M  V30 5005 H 476.652 2.08439 1.51364 0
M  V30 5006 H 476.61 1.10965 2.94167 0
M  V30 5007 N 480.382 0.0267497 1.57577 0
M  V30 5008 C 481.33 -0.973923 2.11229 0
M  V30 5009 C 482.324 -1.33849 1.03831 0
M  V30 5010 O 483.53 -1.321 1.22269 0
M  V30 5011 H 479.905 -0.331844 0.674821 0
M  V30 5012 H 481.876 -0.496092 2.94247 0
M  V30 5013 C 480.625 -2.24798 2.65257 0
M  V30 5014 H 479.948 -1.9762 3.47543 0
M  V30 5015 H 481.388 -2.93031 3.06445 0
M  V30 5016 C 479.847 -2.97611 1.57891 0
M  V30 5017 O 480.377 -3.89629 0.97735 0
M  V30 5018 N 478.583 -2.59905 1.29992 0
M  V30 5019 H 478.13 -1.85154 1.79097 0
M  V30 5020 H 478.088 -3.08932 0.583798 0
M  V30 5021 N 481.861 -1.55662 -0.24637 0
M  V30 5022 C 482.824 -1.89558 -1.28842 0
M  V30 5023 C 483.824 -0.772082 -1.41052 0
M  V30 5024 O 485.014 -1.04007 -1.39743 0
M  V30 5025 C 482.146 -2.12449 -2.66605 0
M  V30 5026 H 483.339 -2.82735 -1.00004 0
M  V30 5027 H 480.892 -1.48562 -0.485684 0
M  V30 5028 H 481.627 -1.21742 -3.00582 0
M  V30 5029 H 481.412 -2.94273 -2.59125 0
M  V30 5030 H 482.902 -2.39854 -3.41847 0
M  V30 5031 N 483.339 0.512053 -1.4905 0
M  V30 5032 C 484.616 1.27337 -1.48474 0
M  V30 5033 C 484.996 2.1009 -0.206301 0
M  V30 5034 O 484.344 2.136 0.811609 0
M  V30 5035 C 484.554 2.13954 -2.75726 0
M  V30 5036 C 485.902 2.73507 -3.24776 0
M  V30 5037 O 486.926 2.24229 -2.76767 0
M  V30 5038 O 485.785 3.63186 -4.08361 0
M  V30 5039 H 482.879 0.575652 -0.593762 0
M  V30 5040 H 485.425 0.527232 -1.61302 0
M  V30 5041 H 484.197 1.52709 -3.60272 0
M  V30 5042 H 483.82 2.95782 -2.65705 0
M  V30 5043 N 484.817 1.37938 0.762283 0
M  V30 5044 C 486.094 1.24196 1.51112 0
M  V30 5045 C 486.474 -0.160409 2.1049 0
M  V30 5046 O 485.822 -1.16904 1.96331 0
M  V30 5047 C 486.032 2.34537 2.58445 0
M  V30 5048 C 487.38 2.7254 3.25588 0
M  V30 5049 O 488.404 2.33783 2.68745 0
M  V30 5050 O 487.263 3.39343 4.28379 0
M  V30 5051 H 484.357 0.485175 0.669727 0
M  V30 5052 H 486.903 1.49743 0.798438 0
M  V30 5053 H 485.675 3.28406 2.12756 0
M  V30 5054 H 485.298 2.10505 3.37303 0
M  V30 5055 N 486.295 -0.989507 1.22664 0
M  V30 5056 C 487.542 -1.72953 1.05325 0
M  V30 5057 C 487.87 -1.90104 -0.411168 0
M  V30 5058 O 487.125 -1.44386 -1.32103 0
M  V30 5059 C 487.424 -3.13649 1.71345 0
M  V30 5060 C 487.09 -3.16403 3.21248 0
M  V30 5061 C 485.752 -3.16862 3.62149 0
M  V30 5062 C 488.104 -3.12428 4.17179 0
M  V30 5063 C 485.432 -3.11051 4.97458 0
M  V30 5064 C 487.784 -3.08159 5.52468 0
M  V30 5065 C 486.448 -3.06935 5.92746 0
M  V30 5066 H 485.718 -0.632881 0.385412 0
M  V30 5067 H 488.365 -1.15863 1.52473 0
M  V30 5068 H 486.67 -3.74069 1.16532 0
M  V30 5069 H 488.367 -3.69658 1.55416 0
M  V30 5070 H 484.957 -3.16798 2.88682 0
M  V30 5071 H 489.141 -3.11221 3.86595 0
M  V30 5072 H 484.397 -3.0845 5.27891 0
M  V30 5073 H 488.571 -3.04039 6.26525 0
M  V30 5074 H 486.198 -3.02186 6.97558 0
M  V30 5075 N 487.773 -1.03688 -1.18687 0
M  V30 5076 C 489.184 -0.766488 -1.70241 0
M  V30 5077 C 489.535 0.713052 -1.82784 0
M  V30 5078 O 488.66 1.55529 -1.50465 0
M  V30 5079 C 489.255 -1.38475 -3.09209 0
M  V30 5080 C 487.814 -1.16276 -3.5799 0
M  V30 5081 C 486.961 -1.4778 -2.34641 0
M  V30 5082 H 489.912 -1.20378 -1.03415 0
M  V30 5083 H 489.933 -0.785939 -3.72295 0
M  V30 5084 H 489.445 -2.46157 -3.00048 0
M  V30 5085 H 487.546 -0.104508 -3.72453 0
M  V30 5086 H 487.659 -1.8571 -4.41643 0
M  V30 5087 H 486.023 -0.897366 -2.38368 0
M  V30 5088 H 486.806 -2.56562 -2.28102 0
M  V30 5089 N 489.251 1.34841 -0.815825 0
M  V30 5090 C 490.199 2.31549 -0.220888 0
M  V30 5091 C 491.193 1.5707 0.634457 0
M  V30 5092 O 492.399 1.72125 0.526589 0
M  V30 5093 H 488.774 0.750153 -0.0526782 0
M  V30 5094 H 490.745 2.7926 -1.05149 0
M  V30 5095 C 489.494 3.42335 0.608427 0
M  V30 5096 H 488.817 3.9978 -0.0404121 0
M  V30 5097 H 490.257 4.12258 0.990931 0
M  V30 5098 C 488.716 2.86173 1.77782 0
M  V30 5099 O 489.246 2.80474 2.87571 0
M  V30 5100 N 487.452 2.43093 1.59229 0
M  V30 5101 H 486.999 2.47928 0.699237 0
M  V30 5102 H 486.957 2.05866 2.37627 0
M  V30 5103 N 490.729 0.570148 1.46925 0
M  V30 5104 C 491.659 -0.158274 2.32963 0
M  V30 5105 C 492.64 -0.896093 1.44583 0
M  V30 5106 O 493.825 -0.874022 1.7342 0
M  V30 5107 C 490.955 -1.18055 3.26619 0
M  V30 5108 C 489.909 -0.558379 4.24342 0
M  V30 5109 C 489.235 -1.68623 5.07415 0
M  V30 5110 C 490.535 0.496295 5.19937 0
M  V30 5111 H 492.229 0.560046 2.94115 0
M  V30 5112 H 489.775 0.270775 1.41431 0
M  V30 5113 H 491.728 -1.69841 3.85658 0
M  V30 5114 H 490.452 -1.92899 2.63548 0
M  V30 5115 H 489.111 -0.0617157 3.66548 0
M  V30 5116 H 488.759 -2.42402 4.40738 0
M  V30 5117 H 488.459 -1.27564 5.73586 0
M  V30 5118 H 489.983 -2.20709 5.69315 0
M  V30 5119 H 491.397 0.0640052 5.73264 0
M  V30 5120 H 489.794 0.82649 5.94381 0
M  V30 5121 H 490.864 1.38735 4.6463 0
M  V30 5122 N 492.207 -1.54576 0.307264 0
M  V30 5123 C 493.454 -2.00263 -0.300167 0
M  V30 5124 C 493.782 -1.19561 -1.53413 0
M  V30 5125 O 493.037 -0.261487 -1.93945 0
M  V30 5126 C 493.336 -3.50572 -0.695253 0
M  V30 5127 C 493.002 -4.48771 0.437679 0
M  V30 5128 C 491.664 -4.7534 0.748681 0
M  V30 5129 C 494.016 -5.0721 1.19949 0
M  V30 5130 C 491.344 -5.5761 1.8245 0
M  V30 5131 C 493.696 -5.90651 2.26527 0
M  V30 5132 C 492.36 -6.15528 2.58227 0
M  V30 5133 H 491.63 -0.732814 -0.109839 0
M  V30 5134 H 494.277 -1.86664 0.427661 0
M  V30 5135 H 492.582 -3.61814 -1.50326 0
M  V30 5136 H 494.279 -3.83352 -1.17653 0
M  V30 5137 H 490.869 -4.282 0.185187 0
M  V30 5138 H 495.053 -4.86679 0.972474 0
M  V30 5139 H 490.309 -5.75121 2.07476 0
M  V30 5140 H 494.483 -6.34957 2.86011 0
M  V30 5141 H 492.11 -6.79066 3.4172 0
M  V30 5142 N 493.685 -0.035106 -1.57561 0
M  V30 5143 C 495.101 0.321334 -1.56332 0
M  V30 5144 C 495.301 1.72509 -1.04129 0
M  V30 5145 O 494.357 2.4287 -0.690694 0
M  V30 5146 C 495.67 0.164469 -3.0025 0
M  V30 5147 C 497.218 0.236786 -3.12103 0
M  V30 5148 C 497.693 0.10864 -4.57871 0
M  V30 5149 N 499.184 0.165433 -4.62904 0
M  V30 5150 C 499.919 0.0901506 -5.73329 0
M  V30 5151 N 499.415 -0.0365606 -6.9279 0
M  V30 5152 N 501.208 0.144572 -5.61914 0
M  V30 5153 H 493.359 -0.952976 -1.89821 0
M  V30 5154 H 495.622 -0.368537 -0.873432 0
M  V30 5155 H 495.328 -0.802746 -3.42416 0
M  V30 5156 H 495.202 0.932194 -3.655 0
M  V30 5157 H 497.589 1.19446 -2.69845 0
M  V30 5158 H 497.67 -0.561419 -2.49563 0
M  V30 5159 H 497.314 -0.845644 -5.00811 0
M  V30 5160 H 497.244 0.925786 -5.18398 0
M  V30 5161 H 499.735 0.263269 -3.76982 0
M  V30 5162 H 500.048 -0.0871487 -7.72751 0
M  V30 5163 H 498.393 -0.0714256 -6.94963 0
M  V30 5164 H 501.584 0.242006 -4.67474 0
M  V30 5165 H 501.757 0.0824413 -6.47948 0
M  V30 5166 N 495.163 1.55791 0.238111 0
M  V30 5167 C 496.095 1.87513 1.31802 0
M  V30 5168 C 497.108 0.762053 1.43863 0
M  V30 5169 O 498.297 1.04024 1.45056 0
M  V30 5170 C 495.397 2.05402 2.69561 0
M  V30 5171 C 494.57 3.3632 2.79656 0
M  V30 5172 C 493.629 3.43844 3.98319 0
M  V30 5173 O 492.655 4.16994 3.87433 0
M  V30 5174 N 493.857 2.73777 5.11885 0
M  V30 5175 H 496.622 2.80734 1.04922 0
M  V30 5176 H 494.183 1.56135 0.428196 0
M  V30 5177 H 496.175 2.07769 3.47296 0
M  V30 5178 H 494.745 1.18884 2.89111 0
M  V30 5179 H 493.965 3.46195 1.88528 0
M  V30 5180 H 495.253 4.22594 2.83358 0
M  V30 5181 H 494.651 2.14094 5.23622 0
M  V30 5182 H 493.208 2.81825 5.87723 0
M  V30 5183 N 496.642 -0.504142 1.49319 0
M  V30 5184 C 497.888 -1.26033 1.58882 0
M  V30 5185 C 498.221 -1.92268 0.273274 0
M  V30 5186 O 497.496 -1.80567 -0.72291 0
M  V30 5187 C 497.779 -2.32976 2.7458 0
M  V30 5188 C 497.632 -1.71263 4.1592 0
M  V30 5189 C 498.951 -3.34561 2.85932 0
M  V30 5190 H 496.07 -0.456863 0.578312 0
M  V30 5191 H 498.712 -0.558965 1.81592 0
M  V30 5192 H 496.862 -2.92796 2.55348 0
M  V30 5193 H 498.534 -1.15294 4.4666 0
M  V30 5194 H 496.777 -1.01686 4.21714 0
M  V30 5195 H 497.448 -2.48816 4.92742 0
M  V30 5196 H 499.924 -2.84727 3.0343 0
M  V30 5197 H 498.8 -4.06754 3.68568 0
M  V30 5198 H 499.061 -3.96695 1.95154 0
M  V30 5199 N 498.12 -1.38341 -0.754957 0
M  V30 5200 C 499.052 -1.31347 -1.87831 0
M  V30 5201 C 500.065 -0.225955 -1.61224 0
M  V30 5202 O 501.254 -0.48341 -1.7183 0
M  V30 5203 C 498.354 -1.01201 -3.23437 0
M  V30 5204 C 497.527 -2.20834 -3.77559 0
M  V30 5205 C 496.586 -1.87454 -4.91678 0
M  V30 5206 O 495.612 -2.59934 -5.06382 0
M  V30 5207 N 496.814 -0.828682 -5.74555 0
M  V30 5208 H 499.579 -2.28147 -1.94342 0
M  V30 5209 H 497.14 -1.32184 -0.934828 0
M  V30 5210 H 499.132 -0.769249 -3.97322 0
M  V30 5211 H 497.702 -0.132011 -3.12321 0
M  V30 5212 H 496.922 -2.61184 -2.95256 0
M  V30 5213 H 498.21 -3.00678 -4.10451 0
M  V30 5214 H 497.608 -0.227591 -5.65242 0
M  V30 5215 H 496.165 -0.645802 -6.48593 0
M  V30 5216 N 499.598 0.982988 -1.23187 0
M  V30 5217 C 500.561 2.05649 -1.01198 0
M  V30 5218 C 501.561 1.6078 0.0252464 0
M  V30 5219 O 502.751 1.72878 -0.214243 0
M  V30 5220 C 499.883 3.36744 -0.530656 0
M  V30 5221 H 501.076 2.2659 -1.96461 0
M  V30 5222 H 498.629 1.15602 -1.05195 0
M  V30 5223 H 499.364 3.21492 0.425873 0
M  V30 5224 H 499.149 3.7065 -1.2791 0
M  V30 5225 H 500.639 4.15705 -0.397366 0
M  V30 5226 N 501.076 1.04316 1.18135 0
M  V30 5227 C 501.986 0.646876 2.25505 0
M  V30 5228 C 503.002 -0.328008 1.7088 0
M  V30 5229 O 504.178 -0.182309 2.00573 0
M  V30 5230 C 501.243 0.0185664 3.46695 0
M  V30 5231 C 500.304 1.04277 4.16443 0
M  V30 5232 C 499.537 0.444352 5.31847 0
M  V30 5233 O 499.76 -0.748735 5.65465 0
M  V30 5234 O 498.694 1.17428 5.90334 0
M  V30 5235 H 502.52 1.54147 2.61672 0
M  V30 5236 H 500.105 0.814188 1.25265 0
M  V30 5237 H 501.987 -0.331068 4.20097 0
M  V30 5238 H 500.662 -0.849814 3.12346 0
M  V30 5239 H 499.569 1.44425 3.45098 0
M  V30 5240 H 500.902 1.882 4.54798 0
M  V30 5241 N 502.554 -1.34406 0.822964 0
M  V30 5242 C 503.8 -1.98578 0.411666 0
M  V30 5243 C 504.133 -1.65093 -1.02264 0
M  V30 5244 O 503.408 -0.92258 -1.71227 0
M  V30 5245 C 503.691 -3.54823 0.614235 0
M  V30 5246 C 503.544 -3.9805 2.09466 0
M  V30 5247 C 504.863 -4.40071 0.050221 0
M  V30 5248 H 501.982 -0.721355 0.151047 0
M  V30 5249 H 504.624 -1.59301 1.03554 0
M  V30 5250 H 502.774 -3.88411 0.0831774 0
M  V30 5251 H 504.446 -3.74795 2.68936 0
M  V30 5252 H 502.689 -3.4836 2.5851 0
M  V30 5253 H 503.36 -5.06819 2.18721 0
M  V30 5254 H 505.836 -4.13037 0.503953 0
M  V30 5255 H 504.712 -5.48452 0.221759 0
M  V30 5256 H 504.973 -4.29576 -1.04482 0
M  V30 5257 N 504.032 -0.577932 -1.46621 0
M  V30 5258 C 505.443 -0.150071 -1.86096 0
M  V30 5259 C 505.794 1.28563 -1.48209 0
M  V30 5260 O 504.919 1.97036 -0.894754 0
M  V30 5261 C 505.514 -0.265576 -3.37758 0
M  V30 5262 C 504.073 0.10738 -3.76247 0
M  V30 5263 C 503.22 -0.603711 -2.70649 0
M  V30 5264 H 506.171 -0.786438 -1.37844 0
M  V30 5265 H 506.192 0.510352 -3.77062 0
M  V30 5266 H 505.704 -1.3106 -3.65301 0
M  V30 5267 H 503.805 1.15272 -3.54321 0
M  V30 5268 H 503.918 -0.26561 -4.78363 0
M  V30 5269 H 502.282 -0.0444884 -2.54661 0
M  V30 5270 H 503.065 -1.65029 -3.01032 0
M  V30 5271 N 505.51 1.54411 -0.315457 0
M  V30 5272 C 506.758 2.00023 0.288971 0
M  V30 5273 C 507.079 1.20529 1.5329 0
M  V30 5274 O 506.349 0.304986 1.93511 0
M  V30 5275 H 504.929 0.738891 0.109766 0
M  V30 5276 H 507.591 1.90094 -0.430129 0
M  V30 5277 H 506.687 3.07198 0.550999 0
M  V30 5278 N 506.988 0.0434614 1.5754 0
M  V30 5279 C 508.213 -0.645358 1.97104 0
M  V30 5280 C 508.638 -1.64037 0.920521 0
M  V30 5281 O 507.996 -1.80922 -0.11708 0
M  V30 5282 C 508.044 -1.31547 3.35749 0
M  V30 5283 O 507.148 -2.43103 3.33129 0
M  V30 5284 H 506.489 -0.168403 0.64229 0
M  V30 5285 H 509.019 0.109573 2.04306 0
M  V30 5286 H 509.029 -1.66895 3.72304 0
M  V30 5287 H 507.704 -0.586205 4.11748 0
M  V30 5288 H 506.281 -2.0976 3.0831 0
M  V30 5289 N 508.466 -1.55915 -0.229846 0
M  V30 5290 C 509.877 -1.68809 -0.797531 0
M  V30 5291 C 510.228 -0.643995 -1.8533 0
M  V30 5292 O 509.353 0.206492 -2.15413 0
M  V30 5293 C 509.948 -3.06043 -1.45338 0
M  V30 5294 C 508.507 -3.20819 -1.96856 0
M  V30 5295 C 507.654 -2.6472 -0.825736 0
M  V30 5296 H 510.605 -1.58699 -0.00533733 0
M  V30 5297 H 510.626 -3.01438 -2.32196 0
M  V30 5298 H 510.138 -3.82012 -0.684743 0
M  V30 5299 H 508.239 -2.49704 -2.76548 0
M  V30 5300 H 508.352 -4.27937 -2.15423 0
M  V30 5301 H 506.716 -2.22985 -1.23084 0
M  V30 5302 H 507.499 -3.43229 -0.0699019 0
M  V30 5303 N 509.944 0.496216 -1.49584 0
M  V30 5304 C 511.193 1.24668 -1.58558 0
M  V30 5305 C 511.506 1.9359 -0.279703 0
M  V30 5306 O 512.712 2.70365 -0.248048 0
M  V30 5307 C 511.168 2.26388 -2.79779 0
M  V30 5308 C 510.776 1.63384 -4.17145 0
M  V30 5309 C 512.52 3.02233 -2.98086 0
M  V30 5310 C 510.427 2.63243 -5.29582 0
M  V30 5311 H 509.357 0.468995 -0.590389 0
M  V30 5312 H 512.008 0.519985 -1.75978 0
M  V30 5313 H 510.39 3.02241 -2.55863 0
M  V30 5314 H 511.564 0.93491 -4.51216 0
M  V30 5315 H 509.879 0.999121 -4.04236 0
M  V30 5316 H 512.476 3.76919 -3.79257 0
M  V30 5317 H 512.819 3.60132 -2.08831 0
M  V30 5318 H 513.352 2.33495 -3.22063 0
M  V30 5319 H 510.091 2.10119 -6.20911 0
M  V30 5320 H 509.611 3.31363 -4.99959 0
M  V30 5321 H 511.29 3.25575 -5.59115 0
M  V30 5322 N 511.423 1.38739 0.74761 0
M  V30 5323 C 512.67 1.35274 1.50689 0
M  V30 5324 C 512.998 -0.0553359 1.94421 0
M  V30 5325 O 512.253 -1.03365 1.66175 0
M  V30 5326 C 512.552 2.25992 2.7688 0
M  V30 5327 C 512.218 3.73854 2.5208 0
M  V30 5328 C 510.88 4.14145 2.45025 0
M  V30 5329 C 513.232 4.67427 2.30568 0
M  V30 5330 C 510.56 5.4609 2.14483 0
M  V30 5331 C 512.912 5.99635 2.01545 0
M  V30 5332 C 511.576 6.39004 1.92951 0
M  V30 5333 H 510.846 0.495003 0.55141 0
M  V30 5334 H 513.493 1.71145 0.859158 0
M  V30 5335 H 511.798 1.83196 3.46333 0
M  V30 5336 H 513.495 2.20611 3.34861 0
M  V30 5337 H 510.085 3.41913 2.58444 0
M  V30 5338 H 514.269 4.3714 2.34994 0
M  V30 5339 H 509.525 5.75528 2.06342 0
M  V30 5340 H 513.699 6.71678 1.83906 0
M  V30 5341 H 511.326 7.41165 1.6905 0
M  V30 5342 N 512.901 -0.976442 1.23707 0
M  V30 5343 C 514.147 -1.72081 1.07312 0
M  V30 5344 C 514.48 -1.90275 -0.388476 0
M  V30 5345 O 513.755 -1.4579 -1.28746 0
M  V30 5346 C 514.038 -3.11675 1.80363 0
M  V30 5347 C 513.891 -3.01027 3.3422 0
M  V30 5348 C 515.21 -4.1117 1.5693 0
M  V30 5349 H 512.329 -0.624583 0.391236 0
M  V30 5350 H 514.971 -1.13649 1.52263 0
M  V30 5351 H 513.121 -3.61559 1.42153 0
M  V30 5352 H 514.793 -2.58637 3.81975 0
M  V30 5353 H 513.036 -2.3744 3.63049 0
M  V30 5354 H 513.707 -3.9988 3.80525 0
M  V30 5355 H 516.183 -3.7011 1.90151 0
M  V30 5356 H 515.059 -5.06928 2.10513 0
M  V30 5357 H 515.32 -4.392 0.505548 0
M  V30 5358 N 514.379 -1.04941 -1.1758 0
M  V30 5359 C 515.312 -0.592518 -2.20373 0
M  V30 5360 C 516.29 0.377561 -1.58156 0
M  V30 5361 O 517.474 0.28978 -1.86259 0
M  V30 5362 C 514.601 0.133215 -3.38438 0
M  V30 5363 C 513.647 -0.791484 -4.19092 0
M  V30 5364 S 514.48 -2.27925 -4.84572 0
M  V30 5365 C 515.636 -1.56462 -6.06028 0
M  V30 5366 H 515.869 -1.46342 -2.58788 0
M  V30 5367 H 513.402 -0.861148 -1.28155 0
M  V30 5368 H 515.36 0.545746 -4.06856 0
M  V30 5369 H 514.021 0.980124 -2.98416 0
M  V30 5370 H 513.214 -0.230039 -5.03475 0
M  V30 5371 H 512.816 -1.14326 -3.56098 0
M  V30 5372 H 515.108 -0.862539 -6.71987 0
M  V30 5373 H 516.051 -2.38583 -6.66696 0
M  V30 5374 H 516.459 -1.05313 -5.5459 0
M  V30 5375 N 515.857 1.33968 -0.830081 0
M  V30 5376 C 517.273 1.51003 -0.516742 0
M  V30 5377 C 517.473 1.77286 0.957694 0
M  V30 5378 O 516.529 1.82797 1.74188 0
M  V30 5379 C 517.842 2.67036 -1.38247 0
M  V30 5380 C 519.39 2.80919 -1.38034 0
M  V30 5381 C 519.865 4.00004 -2.23071 0
M  V30 5382 N 521.356 4.07224 -2.20733 0
M  V30 5383 C 522.091 4.98541 -2.83275 0
M  V30 5384 N 521.587 5.95033 -3.54835 0
M  V30 5385 N 523.38 4.91469 -2.72791 0
M  V30 5386 H 515.531 1.15168 -1.78466 0
M  V30 5387 H 517.794 0.565443 -0.760906 0
M  V30 5388 H 517.5 2.54266 -2.42985 0
M  V30 5389 H 517.374 3.62226 -1.05225 0
M  V30 5390 H 519.761 2.93127 -0.340713 0
M  V30 5391 H 519.842 1.86517 -1.75057 0
M  V30 5392 H 519.486 3.88557 -3.27087 0
M  V30 5393 H 519.416 4.93634 -1.83394 0
M  V30 5394 H 521.907 3.38162 -1.68687 0
M  V30 5395 H 522.22 6.61357 -3.99784 0
M  V30 5396 H 520.565 5.95135 -3.58942 0
M  V30 5397 H 523.756 4.15048 -2.16456 0
M  V30 5398 H 523.929 5.62439 -3.21818 0
M  V30 5399 N 517.335 0.585699 1.46312 0
M  V30 5400 C 518.265 -0.133556 2.33118 0
M  V30 5401 C 519.246 -0.880707 1.45525 0
M  V30 5402 O 520.431 -0.855579 1.74337 0
M  V30 5403 C 517.561 -1.14585 3.27853 0
M  V30 5404 C 516.515 -0.513341 4.2491 0
M  V30 5405 C 515.841 -1.63231 5.09175 0
M  V30 5406 C 517.141 0.551413 5.19381 0
M  V30 5407 H 518.835 0.59121 2.93505 0
M  V30 5408 H 516.381 0.285761 1.41136 0
M  V30 5409 H 518.334 -1.65741 3.87438 0
M  V30 5410 H 517.058 -1.90093 2.65579 0
M  V30 5411 H 515.717 -0.0228349 3.66593 0
M  V30 5412 H 515.365 -2.37713 4.43285 0
M  V30 5413 H 515.065 -1.21473 5.74907 0
M  V30 5414 H 516.589 -2.14658 5.71624 0
M  V30 5415 H 518.003 0.124804 5.73164 0
M  V30 5416 H 516.4 0.889486 5.93471 0
M  V30 5417 H 517.47 1.43655 4.63132 0
M  V30 5418 N 518.813 -1.54241 0.323641 0
M  V30 5419 C 519.776 -2.22997 -0.529602 0
M  V30 5420 C 520.776 -1.22345 -1.04347 0
M  V30 5421 O 521.966 -1.46924 -0.935889 0
M  V30 5422 C 519.098 -2.93409 -1.73562 0
M  V30 5423 H 520.291 -2.99815 0.0714518 0
M  V30 5424 H 517.844 -1.56121 0.0747258 0
M  V30 5425 H 518.579 -2.20729 -2.37591 0
M  V30 5426 H 518.364 -3.67217 -1.37456 0
M  V30 5427 H 519.854 -3.45794 -2.34128 0
M  V30 5428 N 520.291 -0.0518155 -1.57515 0
M  V30 5429 C 521.238 0.922352 -2.11569 0
M  V30 5430 C 522.208 1.30842 -1.02321 0
M  V30 5431 O 523.393 1.39778 -1.29872 0
M  V30 5432 C 520.533 2.19167 -2.6657 0
M  V30 5433 C 519.646 1.86003 -3.89906 0
M  V30 5434 C 518.781 3.07398 -4.33221 0
M  V30 5435 C 517.82 2.70158 -5.49255 0
M  V30 5436 N 516.957 3.84248 -5.8762 0
M  V30 5437 H 521.797 0.454506 -2.94514 0
M  V30 5438 H 519.334 0.212718 -1.45554 0
M  V30 5439 H 521.292 2.93443 -2.96559 0
M  V30 5440 H 519.922 2.63528 -1.86421 0
M  V30 5441 H 518.974 1.01874 -3.66505 0
M  V30 5442 H 520.286 1.54592 -4.74239 0
M  V30 5443 H 519.44 3.89972 -4.64765 0
M  V30 5444 H 518.179 3.41988 -3.477 0
M  V30 5445 H 517.184 1.86001 -5.17382 0
M  V30 5446 H 518.409 2.36759 -6.36492 0
M  V30 5447 H 516.355 4.18638 -5.05053 0
M  V30 5448 H 516.272 3.56538 -6.66646 0
M  V30 5449 H 517.54 4.6746 -6.2378 0
M  V30 5450 N 521.769 1.56035 0.221574 0
M  V30 5451 C 522.701 1.889 1.29805 0
M  V30 5452 C 523.714 0.777269 1.43047 0
M  V30 5453 O 524.903 1.05557 1.43945 0
M  V30 5454 C 522.003 2.0825 2.67367 0
M  V30 5455 C 521.176 3.39267 2.76073 0
M  V30 5456 C 520.235 3.48049 3.94649 0
M  V30 5457 O 519.261 4.2108 3.82988 0
M  V30 5458 N 520.463 2.79191 5.08953 0
M  V30 5459 H 523.228 2.81831 1.01938 0
M  V30 5460 H 520.789 1.5658 0.411612 0
M  V30 5461 H 522.781 2.11441 3.45072 0
M  V30 5462 H 521.351 1.21944 2.87834 0
M  V30 5463 H 520.571 3.48175 1.84846 0
M  V30 5464 H 521.859 4.25575 2.7886 0
M  V30 5465 H 521.257 2.19635 5.21322 0
M  V30 5466 H 519.814 2.88043 5.84701 0
M  V30 5467 N 523.247 -0.488276 1.49845 0
M  V30 5468 C 524.472 -1.26997 1.63971 0
M  V30 5469 C 524.897 -1.85427 0.315994 0
M  V30 5470 O 524.255 -1.66475 -0.718032 0
M  V30 5471 C 524.303 -2.36689 2.72049 0
M  V30 5472 O 523.407 -3.40882 2.32107 0
M  V30 5473 H 522.748 -0.374376 0.548396 0
M  V30 5474 H 525.278 -0.583104 1.96115 0
M  V30 5475 H 525.288 -2.82262 2.94605 0
M  V30 5476 H 523.963 -1.93529 3.68129 0
M  V30 5477 H 522.54 -3.01139 2.19931 0
M  V30 5478 N 524.725 -1.39134 -0.740242 0
M  V30 5479 C 526.141 -1.20623 -1.0451 0
M  V30 5480 C 526.341 -0.0641651 -2.01398 0
M  V30 5481 O 525.397 0.585843 -2.4561 0
M  V30 5482 C 526.71 -2.53815 -1.6124 0
M  V30 5483 C 528.258 -2.60615 -1.73346 0
M  V30 5484 C 528.733 -3.94015 -2.33486 0
M  V30 5485 N 530.224 -3.95627 -2.40902 0
M  V30 5486 C 530.959 -4.95616 -2.88361 0
M  V30 5487 N 530.455 -6.06003 -3.35756 0
M  V30 5488 N 532.248 -4.82998 -2.87523 0
M  V30 5489 H 524.399 -2.12176 -0.0975576 0
M  V30 5490 H 526.662 -0.942066 -0.105904 0
M  V30 5491 H 526.368 -3.37911 -0.975144 0
M  V30 5492 H 526.242 -2.73162 -2.6012 0
M  V30 5493 H 528.629 -1.76906 -2.36195 0
M  V30 5494 H 528.71 -2.45123 -0.731336 0
M  V30 5495 H 528.354 -4.78153 -1.71267 0
M  V30 5496 H 528.284 -4.06825 -3.34366 0
M  V30 5497 H 530.775 -3.15903 -2.07398 0
M  V30 5498 H 531.088 -6.78215 -3.70464 0
M  V30 5499 H 529.433 -6.09604 -3.33778 0
M  V30 5500 H 532.624 -3.95866 -2.49816 0
M  V30 5501 H 532.797 -5.61072 -3.24196 0
M  V30 5502 N 526.204 0.969867 -1.24223 0
M  V30 5503 C 527.154 2.04913 -0.999732 0
M  V30 5504 C 528.138 1.60795 0.0580636 0
M  V30 5505 O 529.33 1.76317 -0.155392 0
M  V30 5506 C 526.459 3.37942 -0.604154 0
M  V30 5507 C 525.545 3.88628 -1.69791 0
M  V30 5508 N 525.936 4.12274 -2.93025 0
M  V30 5509 C 524.234 4.17268 -1.57492 0
M  V30 5510 C 524.935 4.53808 -3.63914 0
M  V30 5511 N 523.911 4.58855 -2.91468 0
M  V30 5512 H 527.713 2.21168 -1.93551 0
M  V30 5513 H 525.227 1.15349 -1.14317 0
M  V30 5514 H 527.224 4.14863 -0.411665 0
M  V30 5515 H 525.884 3.23075 0.324465 0
M  V30 5516 H 526.895 3.99789 -3.29225 0
M  V30 5517 H 523.572 4.11346 -0.714175 0
M  V30 5518 H 524.962 4.80534 -4.69614 0
M  V30 5519 N 527.682 1.05563 1.17022 0
M  V30 5520 C 528.612 0.681026 2.23348 0
M  V30 5521 C 529.593 -0.322983 1.67005 0
M  V30 5522 O 530.778 -0.199746 1.9317 0
M  V30 5523 C 527.908 0.0589053 3.4725 0
M  V30 5524 C 526.862 0.988082 4.16438 0
M  V30 5525 C 526.188 0.229646 5.34207 0
M  V30 5526 C 527.488 2.31388 4.68249 0
M  V30 5527 H 529.182 1.56993 2.54938 0
M  V30 5528 H 526.728 0.756302 1.2254 0
M  V30 5529 H 528.681 -0.214982 4.20851 0
M  V30 5530 H 527.405 -0.864968 3.14938 0
M  V30 5531 H 526.064 1.24659 3.44754 0
M  V30 5532 H 525.712 -0.697111 4.98146 0
M  V30 5533 H 525.412 0.848815 5.81437 0
M  V30 5534 H 526.936 -0.0368694 6.10589 0
M  V30 5535 H 528.35 2.09964 5.33468 0
M  V30 5536 H 526.747 2.88736 5.26072 0
M  V30 5537 H 527.817 2.94982 3.84855 0
M  V30 5538 N 529.16 -1.33526 0.837174 0
M  V30 5539 C 530.07 -2.33023 0.271568 0
M  V30 5540 C 531.086 -1.63272 -0.601514 0
M  V30 5541 O 532.262 -1.94939 -0.506038 0
M  V30 5542 C 529.327 -3.42382 -0.545448 0
M  V30 5543 C 528.388 -4.27857 0.351709 0
M  V30 5544 C 527.621 -5.31994 -0.426409 0
M  V30 5545 O 527.844 -5.45763 -1.65828 0
M  V30 5546 O 526.778 -6.01572 0.1987 0
M  V30 5547 H 530.604 -2.83256 1.09545 0
M  V30 5548 H 528.189 -1.36837 0.599655 0
M  V30 5549 H 530.071 -4.09122 -1.00979 0
M  V30 5550 H 528.746 -2.94369 -1.34641 0
M  V30 5551 H 527.653 -3.6399 0.863853 0
M  V30 5552 H 528.986 -4.79349 1.1174 0
M  V30 5553 N 530.638 -0.59345 -1.46 0
M  V30 5554 C 531.884 -0.0832754 -2.02629 0
M  V30 5555 C 532.217 1.27749 -1.46266 0
M  V30 5556 O 531.492 1.8395 -0.631866 0
M  V30 5557 C 531.775 -0.0290756 -3.60088 0
M  V30 5558 C 531.628 -1.41951 -4.26814 0
M  V30 5559 C 532.947 0.666055 -4.35031 0
M  V30 5560 H 530.066 -0.031736 -0.736316 0
M  V30 5561 H 532.708 -0.762711 -1.74019 0
M  V30 5562 H 530.858 0.549532 -3.84594 0
M  V30 5563 H 532.53 -2.04411 -4.13538 0
M  V30 5564 H 530.773 -1.98422 -3.8576 0
M  V30 5565 H 531.444 -1.33395 -5.3564 0
M  V30 5566 H 533.92 0.174401 -4.15734 0
M  V30 5567 H 532.796 0.673041 -5.44758 0
M  V30 5568 H 533.057 1.72946 -4.06869 0
M  V30 5569 N 532.116 1.54067 -0.331816 0
M  V30 5570 C 533.048 2.22139 0.564538 0
M  V30 5571 C 534.061 1.22408 1.07332 0
M  V30 5572 O 535.25 1.4883 0.985481 0
M  V30 5573 C 532.35 2.87876 1.78831 0
M  V30 5574 C 531.523 4.13817 1.41682 0
M  V30 5575 C 530.582 4.63072 2.49901 0
M  V30 5576 O 529.608 5.27562 2.13699 0
M  V30 5577 N 530.81 4.38001 3.80967 0
M  V30 5578 H 533.575 2.99694 -0.0183736 0
M  V30 5579 H 531.136 1.61153 -0.155396 0
M  V30 5580 H 533.128 3.17747 2.50637 0
M  V30 5581 H 531.698 2.13977 2.27887 0
M  V30 5582 H 530.918 3.9062 0.530044 0
M  V30 5583 H 532.206 4.95762 1.14443 0
M  V30 5584 H 531.604 3.864 4.13173 0
M  V30 5585 H 530.161 4.72507 4.48977 0
M  V30 5586 N 533.594 0.0601682 1.57485 0
M  V30 5587 C 534.843 -0.611101 1.9222 0
M  V30 5588 C 535.156 -1.71469 0.941159 0
M  V30 5589 O 536.362 -2.44473 1.18089 0
M  V30 5590 C 534.818 -1.13832 3.41424 0
M  V30 5591 C 534.426 -0.0663596 4.47951 0
M  V30 5592 C 536.17 -1.78432 3.85178 0
M  V30 5593 C 534.077 -0.606965 5.88277 0
M  V30 5594 H 533.007 -0.232033 0.71741 0
M  V30 5595 H 535.658 0.130518 1.83035 0
M  V30 5596 H 534.04 -1.93254 3.45643 0
M  V30 5597 H 535.214 0.707682 4.55333 0
M  V30 5598 H 533.529 0.482715 4.13593 0
M  V30 5599 H 536.126 -2.1989 4.87394 0
M  V30 5600 H 536.469 -2.63966 3.21913 0
M  V30 5601 H 537.002 -1.05651 3.83514 0
M  V30 5602 H 533.741 0.21095 6.5516 0
M  V30 5603 H 533.261 -1.34879 5.84438 0
M  V30 5604 H 534.94 -1.08704 6.37803 0
M  V30 5605 N 535.072 -1.5615 -0.213296 0
M  V30 5606 C 536.002 -1.96109 -1.26742 0
M  V30 5607 C 536.983 -0.830448 -1.48451 0
M  V30 5608 O 538.168 -1.09339 -1.60495 0
M  V30 5609 C 535.298 -2.28492 -2.61551 0
M  V30 5610 C 534.252 -3.44124 -2.54485 0
M  V30 5611 C 533.578 -3.62134 -3.93399 0
M  V30 5612 C 534.878 -4.78855 -2.08556 0
M  V30 5613 H 536.572 -2.84412 -0.935434 0
M  V30 5614 H 534.118 -1.36836 -0.44854 0
M  V30 5615 H 536.071 -2.55039 -3.3546 0
M  V30 5616 H 534.795 -1.37052 -2.96453 0
M  V30 5617 H 533.454 -3.17639 -1.83033 0
M  V30 5618 H 533.102 -2.68055 -4.25623 0
M  V30 5619 H 532.802 -4.39913 -3.89551 0
M  V30 5620 H 534.326 -3.91038 -4.68958 0
M  V30 5621 H 535.74 -5.04552 -2.72213 0
M  V30 5622 H 534.137 -5.59975 -2.1575 0
M  V30 5623 H 535.207 -4.73657 -1.03811 0
M  V30 5624 N 536.55 0.480323 -1.50102 0
M  V30 5625 C 537.513 1.56181 -1.6775 0
M  V30 5626 C 538.513 1.51156 -0.548503 0
M  V30 5627 O 539.703 1.5394 -0.815363 0
M  V30 5628 C 536.835 2.95823 -1.69415 0
M  V30 5629 H 538.028 1.41855 -2.6423 0
M  V30 5630 H 535.581 0.70605 -1.39444 0
M  V30 5631 H 536.316 3.15604 -0.745948 0
M  V30 5632 H 536.101 3.00878 -2.51425 0
M  V30 5633 H 537.591 3.74359 -1.85054 0
M  V30 5634 N 538.028 1.39524 0.732853 0
M  V30 5635 C 539.305 1.27373 1.48444 0
M  V30 5636 C 539.685 -0.115725 2.10783 0
M  V30 5637 O 539.033 -1.12713 1.98766 0
M  V30 5638 C 539.243 2.39966 2.53412 0
M  V30 5639 C 540.591 2.79384 3.19733 0
M  V30 5640 O 541.615 2.39431 2.63725 0
M  V30 5641 O 540.474 3.48353 4.21085 0
M  V30 5642 H 537.568 0.499272 0.659285 0
M  V30 5643 H 540.114 1.51403 0.766496 0
M  V30 5644 H 538.886 3.32845 2.05742 0
M  V30 5645 H 538.509 2.17612 3.32762 0
M  V30 5646 N 539.506 -0.963266 1.24736 0
M  V30 5647 C 540.438 -2.06162 1.0015 0
M  V30 5648 C 541.451 -1.62771 -0.0305905 0
M  V30 5649 O 542.64 -1.77296 0.206966 0
M  V30 5650 C 539.74 -3.35333 0.490385 0
M  V30 5651 C 538.913 -4.07609 1.58663 0
M  V30 5652 C 537.972 -5.15052 1.0774 0
M  V30 5653 O 536.998 -5.4098 1.77002 0
M  V30 5654 N 538.2 -5.80436 -0.0858605 0
M  V30 5655 H 540.965 -2.27825 1.94719 0
M  V30 5656 H 538.526 -1.13121 1.15825 0
M  V30 5657 H 540.518 -4.04477 0.134371 0
M  V30 5658 H 539.088 -3.10507 -0.361155 0
M  V30 5659 H 538.308 -3.32681 2.11463 0
M  V30 5660 H 539.596 -4.52656 2.32336 0
M  V30 5661 H 538.994 -5.6178 -0.664806 0
M  V30 5662 H 537.551 -6.50674 -0.382981 0
M  V30 5663 N 540.985 -1.06182 -1.16461 0
M  V30 5664 C 542.215 -0.797425 -1.9059 0
M  V30 5665 C 542.623 0.651845 -1.77616 0
M  V30 5666 O 541.966 1.45788 -1.11766 0
M  V30 5667 C 542.028 -1.11128 -3.41893 0
M  V30 5668 C 541.692 -2.55874 -3.78652 0
M  V30 5669 C 542.689 -3.54104 -3.80665 0
M  V30 5670 C 540.374 -2.91144 -4.09317 0
M  V30 5671 C 542.368 -4.85645 -4.12829 0
M  V30 5672 C 540.055 -4.22885 -4.41148 0
M  V30 5673 C 541.053 -5.19945 -4.42883 0
M  V30 5674 O 540.741 -6.49322 -4.73959 0
M  V30 5675 H 540.473 -0.288709 -0.611247 0
M  V30 5676 H 543.027 -1.41841 -1.4856 0
M  V30 5677 H 541.257 -0.433217 -3.84266 0
M  V30 5678 H 542.946 -0.831306 -3.97296 0
M  V30 5679 H 543.712 -3.28197 -3.57088 0
M  V30 5680 H 539.591 -2.16252 -4.07131 0
M  V30 5681 H 543.135 -5.61398 -4.14099 0
M  V30 5682 H 539.032 -4.48551 -4.6419 0
M  V30 5683 H 539.8 -6.54294 -4.91774 0
M  V30 5684 N 542.463 1.3308 -0.844243 0
M  V30 5685 C 543.711 1.97215 -0.441676 0
M  V30 5686 C 544.032 1.67185 1.0037 0
M  V30 5687 O 543.302 0.973588 1.69994 0
M  V30 5688 H 541.882 0.72959 -0.160335 0
M  V30 5689 H 544.544 1.62348 -1.07838 0
M  V30 5690 H 543.64 3.06698 -0.57815 0
M  V30 5691 N 543.941 0.601185 1.45683 0
M  V30 5692 C 544.889 -0.133955 2.32214 0
M  V30 5693 C 545.883 -0.866034 1.45589 0
M  V30 5694 O 547.089 -0.782326 1.6211 0
M  V30 5695 H 543.464 -0.0620613 0.749435 0
M  V30 5696 H 545.435 0.614389 2.92007 0
M  V30 5697 C 544.184 -1.12216 3.29094 0
M  V30 5698 H 543.507 -0.568273 3.95741 0
M  V30 5699 H 544.947 -1.60659 3.92383 0
M  V30 5700 C 543.406 -2.19251 2.55794 0
M  V30 5701 O 543.936 -3.26894 2.33459 0
M  V30 5702 N 542.142 -1.9436 2.16039 0
M  V30 5703 H 541.689 -1.06829 2.34404 0
M  V30 5704 H 541.647 -2.66181 1.67318 0
M  V30 5705 N 545.419 -1.53889 0.339982 0
M  V30 5706 C 546.382 -2.23547 -0.50592 0
M  V30 5707 C 547.382 -1.23445 -1.03044 0
M  V30 5708 O 548.572 -1.47909 -0.920253 0
M  V30 5709 C 545.704 -2.95234 -1.7044 0
M  V30 5710 H 546.897 -2.99722 0.103247 0
M  V30 5711 H 544.45 -1.56033 0.0912804 0
M  V30 5712 H 545.185 -2.23236 -2.35236 0
M  V30 5713 H 544.97 -3.68654 -1.33553 0
M  V30 5714 H 546.46 -3.48258 -2.30447 0
M  V30 5715 N 546.897 -0.0685191 -1.57451 0
M  V30 5716 C 548.146 0.600898 -1.92541 0
M  V30 5717 C 548.459 1.70967 -0.950239 0
M  V30 5718 O 549.665 2.43844 -1.19384 0
M  V30 5719 C 548.121 1.12019 -3.42023 0
M  V30 5720 C 547.729 0.0426028 -4.4798 0
M  V30 5721 C 549.473 1.76386 -3.86119 0
M  V30 5722 C 547.38 0.575759 -5.88591 0
M  V30 5723 H 546.31 0.228225 -0.71863 0
M  V30 5724 H 548.961 -0.140223 -1.82963 0
M  V30 5725 H 547.343 1.91418 -3.46663 0
M  V30 5726 H 548.517 -0.73182 -4.54952 0
M  V30 5727 H 546.832 -0.504642 -4.13331 0
M  V30 5728 H 549.429 2.17302 -4.88553 0
M  V30 5729 H 549.772 2.62255 -3.23308 0
M  V30 5730 H 550.305 1.03615 -3.84069 0
M  V30 5731 H 547.044 -0.245691 -6.55039 0
M  V30 5732 H 546.564 1.31778 -5.85145 0
M  V30 5733 H 548.243 1.0532 -6.3837 0
M  V30 5734 N 548.375 1.56261 0.205012 0
M  V30 5735 C 549.6 1.84491 0.947512 0
M  V30 5736 C 550.025 0.650894 1.76479 0
M  V30 5737 O 549.383 -0.40035 1.76824 0
M  V30 5738 C 549.431 3.10863 1.82747 0
M  V30 5739 O 548.535 2.90719 2.925 0
M  V30 5740 H 547.876 0.607783 0.267386 0
M  V30 5741 H 550.406 2.03485 0.213323 0
M  V30 5742 H 550.416 3.41399 2.23407 0
M  V30 5743 H 549.091 3.97392 1.2269 0
M  V30 5744 H 547.668 2.71457 2.55667 0
M  V30 5745 N 549.853 -0.472356 1.50355 0
M  V30 5746 C 550.783 -1.57859 1.72055 0
M  V30 5747 C 551.764 -1.60283 0.569505 0
M  V30 5748 O 552.949 -1.7657 0.808503 0
M  V30 5749 C 550.079 -2.96191 1.81351 0
M  V30 5750 C 549.033 -3.08633 2.96529 0
M  V30 5751 C 548.359 -4.486 2.90968 0
M  V30 5752 C 549.659 -2.85969 4.37057 0
M  V30 5753 H 551.353 -1.39953 2.64676 0
M  V30 5754 H 548.899 -0.671846 1.27367 0
M  V30 5755 H 550.852 -3.73507 1.95117 0
M  V30 5756 H 549.576 -3.15251 0.853502 0
M  V30 5757 H 548.235 -2.33749 2.82413 0
M  V30 5758 H 547.883 -4.64577 1.92815 0
M  V30 5759 H 547.583 -4.57861 3.68289 0
M  V30 5760 H 549.107 -5.27938 3.0678 0
M  V30 5761 H 550.521 -3.53036 4.51706 0
M  V30 5762 H 548.918 -3.06677 5.15819 0
M  V30 5763 H 549.988 -1.81838 4.49514 0
M  V30 5764 N 551.331 -1.39911 -0.725443 0
M  V30 5765 C 552.578 -1.37654 -1.48518 0
M  V30 5766 C 552.906 0.0243982 -1.94485 0
M  V30 5767 O 552.161 1.00708 -1.67799 0
M  V30 5768 C 552.46 -2.30368 -2.7325 0
M  V30 5769 C 552.126 -3.77817 -2.461 0
M  V30 5770 C 550.788 -4.17991 -2.38405 0
M  V30 5771 C 553.14 -4.71036 -2.23103 0
M  V30 5772 C 550.468 -5.49433 -2.05768 0
M  V30 5773 C 552.82 -6.02766 -1.9198 0
M  V30 5774 C 551.484 -6.41993 -1.82761 0
M  V30 5775 H 550.754 -0.503713 -0.543465 0
M  V30 5776 H 553.401 -1.7249 -0.831822 0
M  V30 5777 H 551.706 -1.88683 -3.43375 0
M  V30 5778 H 553.403 -2.2591 -3.31309 0
M  V30 5779 H 549.993 -3.45982 -2.52972 0
M  V30 5780 H 554.177 -4.40823 -2.2801 0
M  V30 5781 H 549.433 -5.78738 -1.9716 0
M  V30 5782 H 553.607 -6.74519 -1.73197 0
M  V30 5783 H 551.234 -7.43761 -1.57237 0
M  V30 5784 N 552.809 0.956637 -1.25245 0
M  V30 5785 C 554.057 1.69764 -1.09657 0
M  V30 5786 C 554.378 1.91583 0.363464 0
M  V30 5787 O 553.648 1.50149 1.25825 0
M  V30 5788 H 552.228 0.629097 -0.402798 0
M  V30 5789 H 554.89 1.15026 -1.57337 0
M  V30 5790 H 553.986 2.67769 -1.60331 0
M  V30 5791 N 554.287 1.06798 1.15896 0
M  V30 5792 C 555.703 0.792423 1.38538 0
M  V30 5793 C 555.903 -0.60592 1.92174 0
M  V30 5794 O 554.959 -1.36561 2.12385 0
M  V30 5795 C 556.272 1.86157 2.36149 0
M  V30 5796 C 557.82 1.88567 2.49823 0
M  V30 5797 C 558.295 2.9455 3.5072 0
M  V30 5798 N 559.786 2.93616 3.58251 0
M  V30 5799 C 560.521 3.72267 4.36125 0
M  V30 5800 N 560.017 4.60751 5.17379 0
M  V30 5801 N 561.81 3.60637 4.31158 0
M  V30 5802 H 553.961 1.96993 0.794198 0
M  V30 5803 H 556.224 0.853942 0.411688 0
M  V30 5804 H 555.93 2.86603 2.03843 0
M  V30 5805 H 555.804 1.71692 3.3586 0
M  V30 5806 H 558.191 0.887765 2.8143 0
M  V30 5807 H 558.272 2.0711 1.5013 0
M  V30 5808 H 557.916 3.94537 3.19849 0
M  V30 5809 H 557.846 2.73255 4.50155 0
M  V30 5810 H 560.337 2.29472 3.00252 0
M  V30 5811 H 560.65 5.17408 5.74028 0
M  V30 5812 H 558.995 4.64803 5.16704 0
M  V30 5813 H 562.186 2.90892 3.66742 0
M  V30 5814 H 562.359 4.22176 4.91601 0
M  V30 5815 N 555.766 -1.3263 0.851289 0
M  V30 5816 C 557.043 -1.91982 0.374448 0
M  V30 5817 C 557.423 -1.77568 -1.14161 0
M  V30 5818 O 556.771 -1.1717 -1.96172 0
M  V30 5819 C 556.981 -3.38862 0.835088 0
M  V30 5820 C 558.329 -4.15999 0.850309 0
M  V30 5821 O 559.353 -3.47566 0.779505 0
M  V30 5822 O 558.212 -5.38189 0.949481 0
M  V30 5823 H 555.306 -0.819846 0.10854 0
M  V30 5824 H 557.852 -1.41422 0.937966 0
M  V30 5825 H 556.624 -3.43281 1.87814 0
M  V30 5826 H 556.247 -3.96821 0.248833 0
M  V30 5827 N 557.244 -0.608902 -1.45362 0
M  V30 5828 C 558.484 -0.10763 -2.04116 0
M  V30 5829 C 558.848 1.23883 -1.46686 0
M  V30 5830 O 560.049 1.83091 -1.96803 0
M  V30 5831 C 558.32 -0.0703351 -3.57331 0
M  V30 5832 S 559.879 0.369554 -4.37241 0
M  V30 5833 H 556.697 -0.0502123 -0.709225 0
M  V30 5834 H 559.299 -0.8073 -1.78053 0
M  V30 5835 H 558.003 -1.05379 -3.9664 0
M  V30 5836 H 557.534 0.651287 -3.87971 0
M  V30 5837 H 559.549 1.61878 -4.69052 0
M  V30 5838 N 558.722 1.53707 -0.348139 0
M  V30 5839 C 559.947 2.05877 0.250883 0
M  V30 5840 C 560.372 1.22115 1.43072 0
M  V30 5841 O 559.73 0.235986 1.79758 0
M  V30 5842 C 559.778 3.54886 0.639416 0
M  V30 5843 O 558.882 3.73948 1.73888 0
M  V30 5844 H 558.223 0.662754 0.040653 0
M  V30 5845 H 560.753 1.98303 -0.503685 0
M  V30 5846 H 560.763 3.97601 0.915295 0
M  V30 5847 H 559.438 4.153 -0.223386 0
M  V30 5848 H 558.015 3.43134 1.45991 0
M  V30 5849 N 560.2 0.0768682 1.57412 0
M  V30 5850 C 561.446 -0.591961 1.93968 0
M  V30 5851 C 561.779 -1.68954 0.9575 0
M  V30 5852 O 561.054 -1.94496 -0.0124675 0
M  V30 5853 C 561.337 -1.16418 3.40762 0
M  V30 5854 C 561.19 -0.0728933 4.49741 0
M  V30 5855 C 562.509 -2.06814 3.88479 0
M  V30 5856 H 559.628 -0.213716 0.705333 0
M  V30 5857 H 562.27 0.14387 1.89455 0
M  V30 5858 H 560.42 -1.79128 3.4474 0
M  V30 5859 H 562.092 0.560446 4.57883 0
M  V30 5860 H 560.335 0.595859 4.29688 0
M  V30 5861 H 561.006 -0.513755 5.49604 0
M  V30 5862 H 563.482 -1.54033 3.8654 0
M  V30 5863 H 562.358 -2.43785 4.91793 0
M  V30 5864 H 562.619 -2.97844 3.26713 0
M  V30 5865 N 561.678 -1.56367 -0.196722 0
M  V30 5866 C 562.61 -1.90941 -1.26784 0
M  V30 5867 C 563.623 -0.799928 -1.41792 0
M  V30 5868 O 564.812 -1.07833 -1.42247 0
M  V30 5869 C 561.912 -2.12477 -2.6402 0
M  V30 5870 C 561.085 -3.43616 -2.70641 0
M  V30 5871 C 560.144 -3.54284 -3.89062 0
M  V30 5872 O 559.17 -4.2712 -3.76241 0
M  V30 5873 N 560.372 -2.87252 -5.04447 0
M  V30 5874 H 563.137 -2.83417 -0.974417 0
M  V30 5875 H 560.698 -1.57215 -0.386649 0
M  V30 5876 H 562.69 -2.16904 -3.41665 0
M  V30 5877 H 561.26 -1.26508 -2.85857 0
M  V30 5878 H 560.48 -3.51072 -1.79283 0
M  V30 5879 H 561.768 -4.29958 -2.72054 0
M  V30 5880 H 561.166 -2.27901 -5.17762 0
M  V30 5881 H 559.723 -2.97308 -5.80044 0
M  V30 5882 N 563.156 0.464375 -1.50603 0
M  V30 5883 C 564.572 0.798684 -1.38178 0
M  V30 5884 C 564.772 1.96568 -0.44308 0
M  V30 5885 O 563.828 2.52252 0.111814 0
M  V30 5886 C 565.141 1.10444 -2.79683 0
M  V30 5887 C 566.689 1.2105 -2.88645 0
M  V30 5888 C 567.164 1.54934 -4.30998 0
M  V30 5889 N 568.655 1.61913 -4.3398 0
M  V30 5890 C 569.39 1.8965 -5.41129 0
M  V30 5891 N 568.886 2.15361 -6.58477 0
M  V30 5892 N 570.679 1.91207 -5.28579 0
M  V30 5893 H 562.83 -0.304603 -2.10204 0
M  V30 5894 H 565.093 -0.0737804 -0.945125 0
M  V30 5895 H 564.799 0.319934 -3.50242 0
M  V30 5896 H 564.673 2.03896 -3.17342 0
M  V30 5897 H 567.06 1.98567 -2.18301 0
M  V30 5898 H 567.141 0.255613 -2.5452 0
M  V30 5899 H 566.785 0.779549 -5.01882 0
M  V30 5900 H 566.715 2.51584 -4.62615 0
M  V30 5901 H 569.206 1.44055 -3.49366 0
M  V30 5902 H 569.519 2.35818 -7.35941 0
M  V30 5903 H 567.864 2.1274 -6.6164 0
M  V30 5904 H 571.055 1.70622 -4.35897 0
M  V30 5905 H 571.228 2.12488 -6.12171 0
M  V30 5906 N 564.634 1.40294 0.718013 0
M  V30 5907 C 566.05 1.2227 1.02577 0
M  V30 5908 C 566.25 0.0961976 2.0127 0
M  V30 5909 O 565.306 -0.546695 2.46511 0
M  V30 5910 C 566.619 2.56348 1.57182 0
M  V30 5911 C 568.167 2.6334 1.69178 0
M  V30 5912 C 568.642 3.9768 2.27188 0
M  V30 5913 N 570.133 3.99409 2.34578 0
M  V30 5914 C 570.868 5.00141 2.8044 0
M  V30 5915 N 570.364 6.11268 3.26073 0
M  V30 5916 N 572.157 4.87511 2.79802 0
M  V30 5917 H 564.308 2.12304 0.0637899 0
M  V30 5918 H 566.571 0.943632 0.0909036 0
M  V30 5919 H 566.277 3.3942 0.921262 0
M  V30 5920 H 566.151 2.77266 2.55741 0
M  V30 5921 H 568.538 1.80641 2.33351 0
M  V30 5922 H 568.619 2.46255 0.692247 0
M  V30 5923 H 568.263 4.80817 1.63638 0
M  V30 5924 H 568.193 4.12093 3.27852 0
M  V30 5925 H 570.684 3.19162 2.02346 0
M  V30 5926 H 570.997 6.84023 3.59628 0
M  V30 5927 H 569.342 6.14837 3.24038 0
M  V30 5928 H 572.533 3.9979 2.43487 0
M  V30 5929 H 572.706 5.66158 3.15228 0
M  V30 5930 N 566.112 -0.949982 1.2575 0
M  V30 5931 C 567.062 -2.03297 1.03221 0
M  V30 5932 C 568.046 -1.60867 -0.0324751 0
M  V30 5933 O 569.238 -1.76047 0.183423 0
M  V30 5934 C 566.367 -3.36938 0.657841 0
M  V30 5935 C 565.453 -3.85878 1.75952 0
M  V30 5936 N 565.844 -4.0756 2.99547 0
M  V30 5937 C 564.142 -4.14709 1.64111 0
M  V30 5938 C 564.843 -4.47961 3.71087 0
M  V30 5939 N 563.819 -4.5416 2.98731 0
M  V30 5940 H 567.621 -2.1806 1.97045 0
M  V30 5941 H 565.135 -1.13516 1.16138 0
M  V30 5942 H 567.132 -4.14155 0.477614 0
M  V30 5943 H 565.792 -3.2355 -0.273025 0
M  V30 5944 H 566.803 -3.94501 3.35544 0
M  V30 5945 H 563.48 -4.10158 0.779527 0
M  V30 5946 H 564.87 -4.73002 4.77199 0
M  V30 5947 N 567.59 -1.07411 -1.15328 0
M  V30 5948 C 568.522 -0.652924 -2.19703 0
M  V30 5949 C 569.535 0.294869 -1.60107 0
M  V30 5950 O 570.724 0.0840932 -1.78302 0
M  V30 5951 C 567.824 0.061434 -3.38844 0
M  V30 5952 C 566.997 -0.902696 -4.27984 0
M  V30 5953 C 566.056 -0.225521 -5.25717 0
M  V30 5954 O 565.082 -0.86676 -5.62562 0
M  V30 5955 N 566.284 1.02858 -5.71315 0
M  V30 5956 H 569.049 -1.55081 -2.56457 0
M  V30 5957 H 566.61 -0.958883 -1.30449 0
M  V30 5958 H 568.602 0.525145 -4.01278 0
M  V30 5959 H 567.172 0.861269 -3.00501 0
M  V30 5960 H 566.392 -1.54551 -3.6264 0
M  V30 5961 H 567.68 -1.55636 -4.84412 0
M  V30 5962 H 567.078 1.56948 -5.43492 0
M  V30 5963 H 565.635 1.43596 -6.35786 0
M  V30 5964 N 569.068 1.32177 -0.85831 0
M  V30 5965 C 570.015 2.28794 -0.303607 0
M  V30 5966 C 570.985 1.55213 0.591453 0
M  V30 5967 O 572.17 1.83418 0.525585 0
M  V30 5968 C 569.31 3.41475 0.49889 0
M  V30 5969 C 568.423 4.2993 -0.422373 0
M  V30 5970 C 567.558 5.29743 0.393111 0
M  V30 5971 C 566.597 6.09842 -0.525317 0
M  V30 5972 N 565.734 7.01643 0.253208 0
M  V30 5973 H 570.574 2.75631 -1.13276 0
M  V30 5974 H 568.111 1.35606 -0.570026 0
M  V30 5975 H 570.069 4.05531 0.979826 0
M  V30 5976 H 568.699 2.95779 1.29284 0
M  V30 5977 H 567.751 3.66422 -1.02171 0
M  V30 5978 H 569.063 4.85899 -1.12709 0
M  V30 5979 H 568.217 5.9942 0.937056 0
M  V30 5980 H 566.956 4.744 1.13117 0
M  V30 5981 H 565.961 5.39066 -1.08112 0
M  V30 5982 H 567.186 6.6727 -1.26205 0
M  V30 5983 H 565.132 6.48725 0.974295 0
M  V30 5984 H 565.049 7.54981 -0.392398 0
M  V30 5985 H 566.317 7.756 0.778761 0
M  V30 5986 N 570.547 0.616602 1.45037 0
M  V30 5987 C 571.796 0.112861 2.01384 0
M  V30 5988 C 572.109 -1.26758 1.48969 0
M  V30 5989 O 573.315 -1.86454 1.9735 0
M  V30 5990 C 571.771 0.151057 3.59583 0
M  V30 5991 C 571.379 1.53191 4.20995 0
M  V30 5992 C 573.123 -0.296974 4.2346 0
M  V30 5993 C 571.03 1.526 5.71373 0
M  V30 5994 H 569.96 0.0384254 0.75302 0
M  V30 5995 H 572.611 0.773262 1.66412 0
M  V30 5996 H 570.993 -0.57617 3.91786 0
M  V30 5997 H 572.167 2.28156 4.00352 0
M  V30 5998 H 570.482 1.92279 3.69348 0
M  V30 5999 H 573.079 -0.320712 5.33737 0
M  V30 6000 H 573.422 -1.32145 3.9477 0
M  V30 6001 H 573.955 0.377279 3.96007 0
M  V30 6002 H 570.694 2.52837 6.04776 0
M  V30 6003 H 570.214 0.819064 5.94181 0
M  V30 6004 H 571.893 1.25357 6.3474 0
M  V30 6005 N 572.025 -1.5352 0.356285 0
M  V30 6006 C 573.274 -2.00298 -0.237373 0
M  V30 6007 C 573.587 -1.24784 -1.50627 0
M  V30 6008 O 574.793 -1.62103 -2.17795 0
M  V30 6009 C 573.249 -3.56771 -0.473545 0
M  V30 6010 C 572.857 -4.41154 0.780183 0
M  V30 6011 C 574.601 -4.1193 -1.02537 0
M  V30 6012 C 572.508 -5.89161 0.514108 0
M  V30 6013 H 571.438 -0.748307 -0.092478 0
M  V30 6014 H 574.089 -1.77283 0.473588 0
M  V30 6015 H 572.471 -3.75902 -1.24553 0
M  V30 6016 H 573.645 -4.33797 1.55425 0
M  V30 6017 H 571.96 -3.97052 1.25455 0
M  V30 6018 H 574.557 -5.20133 -1.2396 0
M  V30 6019 H 574.9 -3.65943 -1.98473 0
M  V30 6020 H 575.433 -3.96561 -0.313775 0
M  V30 6021 H 572.172 -6.39408 1.44355 0
M  V30 6022 H 571.692 -5.9939 -0.221632 0
M  V30 6023 H 573.371 -6.46857 0.136122 0
M  V30 6024 N 573.503 -0.0852151 -1.57369 0
M  V30 6025 C 574.413 0.891712 -2.16992 0
M  V30 6026 C 575.429 1.3174 -1.13669 0
M  V30 6027 O 576.605 1.38735 -1.45995 0
M  V30 6028 C 573.67 2.13635 -2.73059 0
M  V30 6029 C 572.731 1.7658 -3.91303 0
M  V30 6030 C 571.964 2.95111 -4.44686 0
M  V30 6031 O 572.187 4.09539 -3.97032 0
M  V30 6032 O 571.121 2.74149 -5.35841 0
M  V30 6033 H 574.947 0.414477 -3.00858 0
M  V30 6034 H 572.532 0.138598 -1.48756 0
M  V30 6035 H 574.414 2.86595 -3.08935 0
M  V30 6036 H 573.089 2.6043 -1.92244 0
M  V30 6037 H 571.996 1.00831 -3.60255 0
M  V30 6038 H 573.329 1.34557 -4.7345 0
M  V30 6039 N 574.981 1.5647 0.188427 0
M  V30 6040 C 575.891 1.98285 1.2538 0
M  V30 6041 C 576.907 0.891535 1.49424 0
M  V30 6042 O 578.083 1.19782 1.61908 0
M  V30 6043 C 575.148 2.31965 2.57669 0
M  V30 6044 C 574.209 3.54838 2.41638 0
M  V30 6045 C 573.442 3.86901 3.67618 0
M  V30 6046 O 573.665 3.20163 4.72072 0
M  V30 6047 O 572.599 4.80309 3.62749 0
M  V30 6048 H 576.425 2.89145 0.928912 0
M  V30 6049 H 574.01 1.44112 0.393955 0
M  V30 6050 H 575.892 2.54673 3.35737 0
M  V30 6051 H 574.567 1.44271 2.89771 0
M  V30 6052 H 573.474 3.37369 1.61658 0
M  V30 6053 H 574.807 4.43019 2.14465 0
M  V30 6054 N 576.459 -0.456382 1.50847 0
M  V30 6055 C 577.422 -1.53493 1.70213 0
M  V30 6056 C 578.422 -1.50264 0.572481 0
M  V30 6057 O 579.612 -1.52623 0.839751 0
M  V30 6058 C 576.744 -2.93091 1.741 0
M  V30 6059 H 577.937 -1.37633 2.66453 0
M  V30 6060 H 575.49 -0.683776 1.4055 0
M  V30 6061 H 576.225 -3.14378 0.796063 0
M  V30 6062 H 576.01 -2.9684 2.5618 0
M  V30 6063 H 577.5 -3.71368 1.90987 0
M  V30 6064 N 577.937 -1.40673 -0.710563 0
M  V30 6065 C 579.348 -1.34975 -1.28991 0
M  V30 6066 C 579.699 -0.0256272 -1.96183 0
M  V30 6067 O 578.824 0.876339 -1.97862 0
M  V30 6068 C 579.419 -2.44467 -2.34567 0
M  V30 6069 C 577.978 -2.42213 -2.88114 0
M  V30 6070 C 577.125 -2.25085 -1.61963 0
M  V30 6071 H 580.076 -1.50406 -0.506343 0
M  V30 6072 H 580.097 -2.12663 -3.15523 0
M  V30 6073 H 579.609 -3.40825 -1.85634 0
M  V30 6074 H 577.71 -1.49568 -3.41263 0
M  V30 6075 H 577.823 -3.37983 -3.39565 0
M  V30 6076 H 576.187 -1.72691 -1.87216 0
M  V30 6077 H 576.97 -3.23449 -1.15047 0
M  V30 6078 N 579.415 0.9433 -1.26252 0
M  V30 6079 C 580.378 2.02326 -1.07689 0
M  V30 6080 C 581.378 1.60779 -0.0259174 0
M  V30 6081 O 582.568 1.72108 -0.269134 0
M  V30 6082 C 579.7 3.34886 -0.63752 0
M  V30 6083 H 580.893 2.20225 -2.0357 0
M  V30 6084 H 578.446 1.12197 -1.08819 0
M  V30 6085 H 579.181 3.22684 0.323377 0
M  V30 6086 H 578.966 3.66393 -1.39637 0
M  V30 6087 H 580.456 4.14231 -0.529418 0
M  V30 6088 N 580.893 1.08022 1.14757 0
M  V30 6089 C 582.121 0.828847 1.89572 0
M  V30 6090 C 582.536 -0.618621 1.78377 0
M  V30 6091 O 581.893 -1.42482 1.1404 0
M  V30 6092 C 581.944 1.23677 3.39685 0
M  V30 6093 O 581.665 2.62746 3.50566 0
M  V30 6094 C 583.166 1.01569 4.31507 0
M  V30 6095 H 580.386 0.299196 0.600602 0
M  V30 6096 H 582.93 1.43846 1.45357 0
M  V30 6097 H 581.085 0.671347 3.81539 0
M  V30 6098 H 581.499 2.79573 4.43778 0
M  V30 6099 H 582.973 1.35055 5.35223 0
M  V30 6100 H 583.45 -0.0475433 4.39174 0
M  V30 6101 H 584.056 1.56636 3.95405 0
M  V30 6102 N 582.371 -1.3172 0.865308 0
M  V30 6103 C 583.62 -1.96145 0.470098 0
M  V30 6104 C 583.933 -1.69182 -0.981674 0
M  V30 6105 O 585.139 -2.27431 -1.48281 0
M  V30 6106 C 583.595 -3.51129 0.789732 0
M  V30 6107 C 583.203 -3.86938 2.25795 0
M  V30 6108 C 584.947 -4.2197 0.462765 0
M  V30 6109 C 582.854 -5.35012 2.52024 0
M  V30 6110 H 581.784 -0.734105 0.172065 0
M  V30 6111 H 584.435 -1.49959 1.05757 0
M  V30 6112 H 582.817 -3.95781 0.131571 0
M  V30 6113 H 583.991 -3.5326 2.95879 0
M  V30 6114 H 582.306 -3.29149 2.55049 0
M  V30 6115 H 584.903 -5.30904 0.636019 0
M  V30 6116 H 585.246 -4.12005 -0.59645 0
M  V30 6117 H 585.779 -3.82936 1.07727 0
M  V30 6118 H 582.518 -5.50008 3.56611 0
M  V30 6119 H 582.038 -5.70058 1.8653 0
M  V30 6120 H 583.717 -6.0222 2.36515 0
M  V30 6121 N 583.85 -0.624285 -1.44708 0
M  V30 6122 C 584.812 0.0749638 -2.29077 0
M  V30 6123 C 585.812 0.778965 -1.40673 0
M  V30 6124 O 587.003 0.624591 -1.62618 0
M  V30 6125 C 584.135 1.11663 -3.22094 0
M  V30 6126 H 585.327 -0.667013 -2.92388 0
M  V30 6127 H 582.88 -0.384098 -1.51507 0
M  V30 6128 H 583.615 1.88881 -2.63618 0
M  V30 6129 H 583.401 0.61583 -3.87234 0
M  V30 6130 H 584.891 1.60585 -3.8549 0
M  V30 6131 N 585.328 1.53329 -0.364422 0
M  V30 6132 C 586.556 2.05657 0.226424 0
M  V30 6133 C 586.971 1.23801 1.42544 0
M  V30 6134 O 586.328 0.27839 1.80364 0
M  V30 6135 C 586.379 3.56125 0.621056 0
M  V30 6136 O 586.1 4.34879 -0.530304 0
M  V30 6137 C 587.601 4.24706 1.27041 0
M  V30 6138 H 584.821 0.669806 0.0400056 0
M  V30 6139 H 587.365 1.97714 -0.522456 0
M  V30 6140 H 585.52 3.64223 1.31985 0
M  V30 6141 H 585.934 5.24073 -0.211546 0
M  V30 6142 H 587.408 5.3131 1.49711 0
M  V30 6143 H 587.885 3.78354 2.23036 0
M  V30 6144 H 588.491 4.20858 0.613079 0
M  V30 6145 N 586.806 0.0935595 1.57322 0
M  V30 6146 C 588.217 -0.435807 1.81542 0
M  V30 6147 C 588.568 -1.68263 1.00907 0
M  V30 6148 O 587.693 -2.15087 0.237983 0
M  V30 6149 C 588.288 -0.797436 3.29282 0
M  V30 6150 C 586.847 -1.27155 3.54272 0
M  V30 6151 C 585.994 -0.267455 2.76007 0
M  V30 6152 H 588.945 0.31902 1.5546 0
M  V30 6153 H 588.966 -1.6571 3.42521 0
M  V30 6154 H 588.478 0.110206 3.87943 0
M  V30 6155 H 586.579 -2.19696 3.00939 0
M  V30 6156 H 586.692 -1.23445 4.62923 0
M  V30 6157 H 585.056 -0.749282 2.43429 0
M  V30 6158 H 585.839 0.632839 3.37417 0
M  V30 6159 N 588.284 -1.56567 -0.180126 0
M  V30 6160 C 589.247 -1.94852 -1.20686 0
M  V30 6161 C 590.247 -0.831212 -1.3765 0
M  V30 6162 O 591.437 -1.09841 -1.35206 0
M  V30 6163 C 588.569 -2.23565 -2.57355 0
M  V30 6164 H 589.762 -2.86722 -0.879225 0
M  V30 6165 H 587.315 -1.50489 -0.422237 0
M  V30 6166 H 588.05 -1.34381 -2.95148 0
M  V30 6167 H 587.835 -3.04999 -2.46411 0
M  V30 6168 H 589.325 -2.54137 -3.31367 0
M  V30 6169 N 589.762 0.448376 -1.51087 0
M  V30 6170 C 591.008 1.20049 -1.6345 0
M  V30 6171 C 591.341 1.91121 -0.344444 0
M  V30 6172 O 590.616 1.83125 0.655396 0
M  V30 6173 C 590.899 2.22624 -2.83038 0
M  V30 6174 C 590.752 1.55708 -4.21989 0
M  V30 6175 C 592.071 3.23718 -2.98152 0
M  V30 6176 H 589.19 0.435085 -0.59487 0
M  V30 6177 H 591.832 0.491183 -1.83541 0
M  V30 6178 H 589.982 2.83117 -2.66039 0
M  V30 6179 H 591.654 0.986367 -4.50631 0
M  V30 6180 H 589.897 0.859647 -4.25197 0
M  V30 6181 H 590.568 2.30357 -5.01637 0
M  V30 6182 H 593.044 2.73269 -3.13788 0
M  V30 6183 H 591.92 3.92795 -3.83411 0
M  V30 6184 H 592.181 3.89179 -2.09743 0
M  V30 6185 N 591.24 1.41047 0.703093 0
M  V30 6186 C 592.487 1.4 1.46309 0
M  V30 6187 C 592.815 0.00654574 1.94499 0
M  V30 6188 O 592.07 -0.980255 1.6938 0
M  V30 6189 C 592.369 2.34686 2.6955 0
M  V30 6190 C 592.035 3.81684 2.40058 0
M  V30 6191 C 590.697 4.21731 2.31725 0
M  V30 6192 C 593.049 4.74525 2.15581 0
M  V30 6193 C 590.377 5.52637 1.97001 0
M  V30 6194 C 592.729 6.05744 1.82366 0
M  V30 6195 C 591.393 6.44819 1.72524 0
M  V30 6196 H 590.663 0.512295 0.535382 0
M  V30 6197 H 593.31 1.73792 0.804275 0
M  V30 6198 H 591.615 1.94122 3.40329 0
M  V30 6199 H 593.312 2.31152 3.27673 0
M  V30 6200 H 589.902 3.49963 2.47435 0
M  V30 6201 H 594.086 4.44395 2.20968 0
M  V30 6202 H 589.342 5.81802 1.87928 0
M  V30 6203 H 593.516 6.77189 1.62444 0
M  V30 6204 H 591.143 7.46168 1.45385 0
M  V30 6205 N 592.718 -0.936591 1.26751 0
M  V30 6206 C 593.628 -2.06949 1.10496 0
M  V30 6207 C 594.644 -1.7396 0.037271 0
M  V30 6208 O 595.82 -1.99941 0.241944 0
M  V30 6209 C 592.885 -3.38612 0.744491 0
M  V30 6210 C 591.946 -3.85355 1.89209 0
M  V30 6211 C 591.179 -5.10735 1.54873 0
M  V30 6212 O 591.402 -5.68602 0.452546 0
M  V30 6213 O 590.336 -5.52632 2.38499 0
M  V30 6214 H 594.162 -2.23571 2.05547 0
M  V30 6215 H 591.747 -1.05428 1.05855 0
M  V30 6216 H 593.629 -4.17711 0.556396 0
M  V30 6217 H 592.304 -3.23218 -0.176582 0
M  V30 6218 H 591.211 -3.07182 2.13518 0
M  V30 6219 H 592.544 -4.05277 2.79305 0
M  V30 6220 N 594.196 -1.08629 -1.14182 0
M  V30 6221 C 595.146 -0.687882 -2.17376 0
M  V30 6222 C 596.13 0.293632 -1.58198 0
M  V30 6223 O 597.322 0.105292 -1.76687 0
M  V30 6224 C 594.451 -0.101184 -3.43151 0
M  V30 6225 C 593.537 -1.10862 -4.09354 0
M  V30 6226 N 593.928 -2.29285 -4.50846 0
M  V30 6227 C 592.226 -0.944897 -4.35876 0
M  V30 6228 C 592.927 -2.93305 -5.02342 0
M  V30 6229 N 591.903 -2.20903 -4.96692 0
M  V30 6230 H 595.705 -1.58963 -2.472 0
M  V30 6231 H 593.219 -0.961329 -1.3089 0
M  V30 6232 H 595.216 0.202209 -4.16409 0
M  V30 6233 H 593.876 0.795522 -3.14804 0
M  V30 6234 H 594.887 -2.66927 -4.43813 0
M  V30 6235 H 591.564 -0.102186 -4.17375 0
M  V30 6236 H 592.954 -3.93932 -5.44304 0
M  V30 6237 N 595.674 1.31259 -0.872281 0
M  V30 6238 C 596.607 2.26544 -0.274394 0
M  V30 6239 C 597.585 1.51213 0.597776 0
M  V30 6240 O 598.769 1.80277 0.550687 0
M  V30 6241 C 595.896 3.33139 0.611256 0
M  V30 6242 C 594.942 4.26077 -0.189876 0
M  V30 6243 S 595.775 5.11971 -1.56989 0
M  V30 6244 C 596.931 6.2208 -0.690427 0
M  V30 6245 H 597.164 2.76908 -1.0821 0
M  V30 6246 H 594.697 1.3906 -0.670939 0
M  V30 6247 H 596.655 3.95024 1.11654 0
M  V30 6248 H 595.316 2.81525 1.39294 0
M  V30 6249 H 594.509 5.01657 0.485433 0
M  V30 6250 H 594.111 3.68701 -0.627339 0
M  V30 6251 H 596.403 6.77429 0.098001 0
M  V30 6252 H 597.346 6.93768 -1.41742 0
M  V30 6253 H 597.754 5.63915 -0.256953 0
M  V30 6254 N 597.152 0.631951 1.44375 0
M  V30 6255 C 598.062 -0.073674 2.34484 0
M  V30 6256 C 599.078 -0.834825 1.52665 0
M  V30 6257 O 600.254 -0.786902 1.85391 0
M  V30 6258 C 597.319 -1.04247 3.30656 0
M  V30 6259 C 596.38 -0.280602 4.28382 0
M  V30 6260 C 595.613 -1.20325 5.19959 0
M  V30 6261 O 595.836 -2.44199 5.15484 0
M  V30 6262 O 594.77 -0.687128 5.97965 0
M  V30 6263 H 598.596 0.667477 2.96274 0
M  V30 6264 H 596.181 0.392144 1.44162 0
M  V30 6265 H 598.063 -1.59981 3.89851 0
M  V30 6266 H 596.738 -1.76422 2.71398 0
M  V30 6267 H 595.645 0.319804 3.72731 0
M  V30 6268 H 596.978 0.401144 4.90563 0
M  V30 6269 N 598.631 -1.53133 0.372548 0
M  V30 6270 C 599.563 -2.23557 -0.505444 0
M  V30 6271 C 600.576 -1.25211 -1.04049 0
M  V30 6272 O 601.765 -1.51391 -0.945675 0
M  V30 6273 C 598.865 -2.92516 -1.71136 0
M  V30 6274 C 598.038 -4.17428 -1.30661 0
M  V30 6275 C 597.097 -4.69535 -2.37536 0
M  V30 6276 O 596.123 -5.33042 -1.99637 0
M  V30 6277 N 597.325 -4.47947 -3.6922 0
M  V30 6278 H 600.09 -2.9954 0.0978259 0
M  V30 6279 H 597.651 -1.60684 0.198068 0
M  V30 6280 H 599.643 -3.24281 -2.42124 0
M  V30 6281 H 598.213 -2.19944 -2.22134 0
M  V30 6282 H 597.433 -3.91888 -0.426292 0
M  V30 6283 H 598.721 -4.98622 -1.01259 0
M  V30 6284 H 598.119 -3.97219 -4.02783 0
M  V30 6285 H 596.676 -4.84245 -4.36292 0
M  V30 6286 N 600.109 -0.101901 -1.5727 0
M  V30 6287 C 601.349 0.563489 -1.96479 0
M  V30 6288 C 601.713 1.64926 -0.983021 0
M  V30 6289 O 602.914 2.37234 -1.26386 0
M  V30 6290 C 601.185 1.09809 -3.40113 0
M  V30 6291 S 602.744 1.7744 -4.01323 0
M  V30 6292 H 599.562 0.183675 -0.686866 0
M  V30 6293 H 602.164 -0.182922 -1.94642 0
M  V30 6294 H 600.868 0.296447 -4.09328 0
M  V30 6295 H 600.399 1.88018 -3.45562 0
M  V30 6296 H 602.414 3.0591 -3.90683 0
M  V30 6297 N 601.587 1.56661 0.17182 0
M  V30 6298 C 602.55 1.9549 1.19651 0
M  V30 6299 C 603.55 0.838501 1.37207 0
M  V30 6300 O 604.74 1.10556 1.34622 0
M  V30 6301 C 601.872 2.24927 2.56166 0
M  V30 6302 H 603.065 2.87184 0.864007 0
M  V30 6303 H 600.618 1.50711 0.41425 0
M  V30 6304 H 601.353 1.35944 2.94431 0
M  V30 6305 H 601.138 3.06301 2.4479 0
M  V30 6306 H 602.628 2.55891 3.30014 0
M  V30 6307 N 603.065 -0.440357 1.51323 0
M  V30 6308 C 604.311 -1.19181 1.64085 0
M  V30 6309 C 604.644 -1.90936 0.354575 0
M  V30 6310 O 603.919 -1.8347 -0.645675 0
M  V30 6311 C 604.202 -2.2112 2.84215 0
M  V30 6312 C 604.055 -1.53468 4.22809 0
M  V30 6313 C 605.374 -3.22133 2.99864 0
M  V30 6314 H 602.493 -0.431924 0.597169 0
M  V30 6315 H 605.135 -0.481443 1.83799 0
M  V30 6316 H 603.285 -2.81703 2.67537 0
M  V30 6317 H 604.957 -0.962455 4.51148 0
M  V30 6318 H 603.2 -0.837086 4.25647 0
M  V30 6319 H 603.871 -2.27694 5.02852 0
M  V30 6320 H 606.347 -2.71601 3.15233 0
M  V30 6321 H 605.223 -3.90756 3.85488 0
M  V30 6322 H 605.484 -3.88061 2.11804 0
M  V30 6323 N 604.543 -1.41418 -0.695603 0
M  V30 6324 C 605.49 -1.43264 -1.80954 0
M  V30 6325 C 606.46 -0.287016 -1.63601 0
M  V30 6326 O 607.645 -0.488054 -1.84452 0
M  V30 6327 C 604.785 -1.32054 -3.18835 0
M  V30 6328 C 603.898 -2.56485 -3.4762 0
M  V30 6329 C 603.033 -2.3757 -4.75115 0
M  V30 6330 C 602.072 -3.57477 -4.96867 0
M  V30 6331 N 601.209 -3.37632 -6.15588 0
M  V30 6332 H 606.049 -2.38467 -1.78711 0
M  V30 6333 H 603.586 -1.18415 -0.872715 0
M  V30 6334 H 605.544 -1.23558 -3.98484 0
M  V30 6335 H 604.174 -0.404592 -3.20254 0
M  V30 6336 H 603.226 -2.75432 -2.62376 0
M  V30 6337 H 604.538 -3.45678 -3.59594 0
M  V30 6338 H 603.692 -2.2654 -5.62818 0
M  V30 6339 H 602.431 -1.45834 -4.65386 0
M  V30 6340 H 601.436 -3.68961 -4.07612 0
M  V30 6341 H 602.661 -4.50167 -5.08455 0
M  V30 6342 H 600.607 -2.48596 -6.07072 0
M  V30 6343 H 600.524 -4.20401 -6.2833 0
M  V30 6344 H 601.792 -3.30375 -7.06026 0
M  V30 6345 N 606.021 0.929856 -1.27246 0
M  V30 6346 C 606.951 2.04722 -1.12299 0
M  V30 6347 C 607.932 1.70082 -0.0250464 0
M  V30 6348 O 609.117 1.93176 -0.199141 0
M  V30 6349 C 606.247 3.38721 -0.767145 0
M  V30 6350 C 605.201 3.87466 -1.81808 0
M  V30 6351 C 604.527 5.18246 -1.31626 0
M  V30 6352 C 605.827 4.11095 -3.22177 0
M  V30 6353 H 607.521 2.17485 -2.05769 0
M  V30 6354 H 605.067 1.04503 -0.990715 0
M  V30 6355 H 607.02 4.16366 -0.649413 0
M  V30 6356 H 605.744 3.25967 0.203259 0
M  V30 6357 H 604.403 3.12012 -1.92468 0
M  V30 6358 H 604.051 5.01881 -0.335378 0
M  V30 6359 H 603.751 5.51829 -2.01887 0
M  V30 6360 H 605.275 5.98462 -1.21143 0
M  V30 6361 H 606.689 4.79316 -3.1453 0
M  V30 6362 H 605.086 4.55982 -3.90129 0
M  V30 6363 H 606.156 3.16468 -3.67391 0
M  V30 6364 N 607.499 1.09233 1.13605 0
M  V30 6365 C 608.462 0.733553 2.17144 0
M  V30 6366 C 609.462 -0.235873 1.59061 0
M  V30 6367 O 610.652 -0.0143167 1.74194 0
M  V30 6368 C 607.784 0.084471 3.40795 0
M  V30 6369 H 608.977 1.65049 2.50397 0
M  V30 6370 H 606.53 0.891264 1.28399 0
M  V30 6371 H 607.265 -0.843795 3.1313 0
M  V30 6372 H 607.05 0.781985 3.84223 0
M  V30 6373 H 608.54 -0.151216 4.17326 0
M  V30 6374 N 608.977 -1.30795 0.87923 0
M  V30 6375 C 609.924 -2.28282 0.339968 0
M  V30 6376 C 610.894 -1.56134 -0.566685 0
M  V30 6377 O 612.079 -1.84231 -0.496338 0
M  V30 6378 C 609.219 -3.42225 -0.444501 0
M  V30 6379 C 608.332 -4.29204 0.490717 0
M  V30 6380 C 607.467 -5.30302 -0.308784 0
M  V30 6381 C 606.506 -6.08929 0.622272 0
M  V30 6382 N 605.643 -7.01957 -0.14155 0
M  V30 6383 H 610.483 -2.73794 1.17647 0
M  V30 6384 H 608.02 -1.34682 0.591527 0
M  V30 6385 H 609.978 -4.07038 -0.915186 0
M  V30 6386 H 608.608 -2.97799 -1.24562 0
M  V30 6387 H 607.66 -3.6475 1.07988 0
M  V30 6388 H 608.972 -4.84045 1.20425 0
M  V30 6389 H 608.126 -6.00835 -0.841575 0
M  V30 6390 H 606.865 -4.7614 -1.05556 0
M  V30 6391 H 605.87 -5.37278 1.16674 0
M  V30 6392 H 607.095 -6.65178 1.36804 0
M  V30 6393 H 605.041 -6.50192 -0.870966 0
M  V30 6394 H 604.958 -7.54261 0.51246 0
M  V30 6395 H 606.226 -7.76741 -0.655271 0
M  V30 6396 N 610.455 -0.639598 -1.44038 0
M  V30 6397 C 611.388 0.109736 -2.27936 0
M  V30 6398 C 612.366 0.843095 -1.39035 0
M  V30 6399 O 613.55 0.845456 -1.68476 0
M  V30 6400 C 610.677 1.16173 -3.18153 0
M  V30 6401 C 609.723 0.527954 -4.2322 0
M  V30 6402 S 610.556 -0.688318 -5.31058 0
M  V30 6403 C 611.712 0.363481 -6.24844 0
M  V30 6404 H 611.945 -0.601986 -2.91142 0
M  V30 6405 H 609.478 -0.42802 -1.48349 0
M  V30 6406 H 611.436 1.76372 -3.7068 0
M  V30 6407 H 610.097 1.84569 -2.54151 0
M  V30 6408 H 609.29 1.32054 -4.86393 0
M  V30 6409 H 608.892 0.000396444 -3.74 0
M  V30 6410 H 611.184 1.23362 -6.66174 0
M  V30 6411 H 612.127 -0.23288 -7.07717 0
M  V30 6412 H 612.535 0.693179 -5.60228 0
M  V30 6413 N 611.933 1.52934 -0.380664 0
M  V30 6414 C 613.179 2.01765 0.20458 0
M  V30 6415 C 613.512 1.26696 1.47179 0
M  V30 6416 O 612.787 0.364936 1.91046 0
M  V30 6417 C 613.07 3.56869 0.481269 0
M  V30 6418 C 612.923 4.42617 -0.800629 0
M  V30 6419 C 614.242 4.2121 1.27554 0
M  V30 6420 H 611.361 0.733388 0.0728803 0
M  V30 6421 H 614.003 1.83068 -0.50853 0
M  V30 6422 H 612.153 3.72932 1.08875 0
M  V30 6423 H 613.825 4.38323 -1.43773 0
M  V30 6424 H 612.068 4.09977 -1.4178 0
M  V30 6425 H 612.739 5.49134 -0.561791 0
M  V30 6426 H 615.215 4.09072 0.761514 0
M  V30 6427 H 614.091 5.29732 1.43788 0
M  V30 6428 H 614.352 3.78269 2.28833 0
M  V30 6429 N 613.412 0.11024 1.57214 0
M  V30 6430 C 614.66 -0.548783 1.94506 0
M  V30 6431 C 614.981 -1.67772 0.99386 0
M  V30 6432 O 614.251 -1.9584 0.0485841 0
M  V30 6433 H 612.831 -0.205715 0.718116 0
M  V30 6434 H 615.493 0.177127 1.94093 0
M  V30 6435 H 614.589 -0.949096 2.97319 0
M  V30 6436 N 614.89 -1.56749 -0.16351 0
M  V30 6437 C 616.12 -1.86307 -0.892936 0
M  V30 6438 C 616.528 -0.6945 -1.75992 0
M  V30 6439 O 615.871 0.345384 -1.80424 0
M  V30 6440 C 615.933 -3.10372 -1.81409 0
M  V30 6441 C 615.597 -4.42913 -1.12593 0
M  V30 6442 C 616.594 -5.17608 -0.487661 0
M  V30 6443 C 614.279 -4.89646 -1.12035 0
M  V30 6444 C 616.273 -6.3723 0.14699 0
M  V30 6445 C 613.96 -6.09197 -0.481883 0
M  V30 6446 C 614.958 -6.82834 0.150678 0
M  V30 6447 O 614.646 -8.00116 0.779065 0
M  V30 6448 H 614.378 -0.622126 -0.264452 0
M  V30 6449 H 616.932 -2.04728 -0.166063 0
M  V30 6450 H 615.162 -2.87917 -2.58148 0
M  V30 6451 H 616.851 -3.26312 -2.41403 0
M  V30 6452 H 617.617 -4.8258 -0.483888 0
M  V30 6453 H 613.496 -4.32265 -1.60212 0
M  V30 6454 H 617.04 -6.94646 0.641325 0
M  V30 6455 H 612.937 -6.43688 -0.483266 0
M  V30 6456 H 613.705 -8.15678 0.679089 0
M  V30 6457 N 616.368 0.432326 -1.51554 0
M  V30 6458 C 617.614 1.18309 -1.64714 0
M  V30 6459 C 617.947 1.90745 -0.364696 0
M  V30 6460 O 617.222 1.8381 0.635936 0
M  V30 6461 C 617.505 2.1961 -2.85383 0
M  V30 6462 C 617.358 1.51223 -4.23617 0
M  V30 6463 C 618.677 3.20538 -3.01569 0
M  V30 6464 H 615.796 0.428751 -0.599451 0
M  V30 6465 H 618.438 0.471689 -1.84052 0
M  V30 6466 H 616.588 2.8028 -2.69027 0
M  V30 6467 H 618.26 0.938516 -4.51652 0
M  V30 6468 H 616.503 0.814501 -4.26085 0
M  V30 6469 H 617.174 2.25024 -5.04052 0
M  V30 6470 H 619.65 2.69926 -3.16669 0
M  V30 6471 H 618.526 3.88706 -3.87555 0
M  V30 6472 H 618.787 3.86933 -2.13859 0
M  V30 6473 N 617.846 1.41785 0.688094 0
M  V30 6474 C 619.071 1.45117 1.48175 0
M  V30 6475 C 619.496 0.060129 1.88004 0
M  V30 6476 O 618.854 -0.938385 1.55126 0
M  V30 6477 C 618.902 2.37224 2.71583 0
M  V30 6478 O 618.006 1.83443 3.69354 0
M  V30 6479 H 617.347 0.492208 0.445676 0
M  V30 6480 H 619.877 1.86329 0.845145 0
M  V30 6481 H 619.887 2.53353 3.19806 0
M  V30 6482 H 618.562 3.38293 2.41931 0
M  V30 6483 H 617.139 1.76802 3.28322 0
M  V30 6484 N 619.324 -0.923095 1.27737 0
M  V30 6485 C 620.287 -2.00587 1.10894 0
M  V30 6486 C 621.287 -1.60718 0.0514927 0
M  V30 6487 O 622.477 -1.71658 0.296481 0
M  V30 6488 C 619.609 -3.33829 0.690717 0
M  V30 6489 H 620.802 -2.16959 2.07048 0
M  V30 6490 H 618.355 -1.10451 1.1059 0
M  V30 6491 H 619.09 -3.23157 -0.272 0
M  V30 6492 H 618.875 -3.64125 1.45448 0
M  V30 6493 H 620.365 -4.13336 0.595252 0
M  V30 6494 N 620.802 -1.09834 -1.13024 0
M  V30 6495 C 622.05 -0.835297 -1.8403 0
M  V30 6496 C 622.371 0.640944 -1.84165 0
M  V30 6497 O 621.641 1.46517 -1.30037 0
M  V30 6498 H 620.221 -0.306018 -0.681441 0
M  V30 6499 H 622.883 -1.38734 -1.36891 0
M  V30 6500 H 621.979 -1.19258 -2.88416 0
M  V30 6501 N 622.28 1.30327 -0.886154 0
M  V30 6502 C 623.508 2.00254 -0.520176 0
M  V30 6503 C 623.923 1.66419 0.891637 0
M  V30 6504 O 623.28 0.901951 1.58654 0
M  V30 6505 C 623.331 3.54916 -0.686775 0
M  V30 6506 O 623.052 3.87547 -2.04301 0
M  V30 6507 C 624.553 4.42115 -0.323945 0
M  V30 6508 H 621.773 0.640204 -0.200947 0
M  V30 6509 H 624.317 1.66183 -1.19178 0
M  V30 6510 H 622.472 3.8735 -0.0625273 0
M  V30 6511 H 622.886 4.82247 -2.06249 0
M  V30 6512 H 624.36 5.49808 -0.491407 0
M  V30 6513 H 624.837 4.32953 0.73811 0
M  V30 6514 H 625.443 4.15129 -0.924565 0
M  V30 6515 N 623.758 0.647228 1.43697 0
M  V30 6516 C 625.004 0.158422 2.0218 0
M  V30 6517 C 625.337 -1.22233 1.50907 0
M  V30 6518 O 624.612 -1.81478 0.699702 0
M  V30 6519 C 624.895 0.1627 3.59732 0
M  V30 6520 C 624.748 1.57694 4.21251 0
M  V30 6521 C 626.067 -0.504138 4.37203 0
M  V30 6522 H 623.186 0.059042 0.734631 0
M  V30 6523 H 625.828 0.826772 1.71069 0
M  V30 6524 H 623.978 -0.406414 3.86368 0
M  V30 6525 H 625.65 2.19618 4.05667 0
M  V30 6526 H 623.893 2.12603 3.7813 0
M  V30 6527 H 624.564 1.53183 5.3032 0
M  V30 6528 H 627.04 -0.0199841 4.16095 0
M  V30 6529 H 625.916 -0.470394 5.46881 0
M  V30 6530 H 626.177 -1.57726 4.13007 0
M  V30 6531 N 625.236 -1.5273 0.388769 0
M  V30 6532 C 626.146 -2.30165 -0.453993 0
M  V30 6533 C 627.162 -1.37058 -1.07197 0
M  V30 6534 O 628.338 -1.70127 -1.0779 0
M  V30 6535 C 625.403 -3.09303 -1.56628 0
M  V30 6536 C 624.464 -4.18117 -0.973467 0
M  V30 6537 C 623.697 -4.93472 -2.03275 0
M  V30 6538 O 623.92 -4.68913 -3.24772 0
M  V30 6539 O 622.854 -5.78833 -1.65034 0
M  V30 6540 H 626.68 -3.03185 0.176816 0
M  V30 6541 H 624.265 -1.4862 0.152501 0
M  V30 6542 H 626.147 -3.58648 -2.21246 0
M  V30 6543 H 624.822 -2.39098 -2.18206 0
M  V30 6544 H 623.729 -3.7297 -0.290556 0
M  V30 6545 H 625.062 -4.90556 -0.401908 0
M  V30 6546 N 626.714 -0.118576 -1.57153 0
M  V30 6547 C 627.944 0.546466 -1.99242 0
M  V30 6548 C 628.352 1.60791 -0.997148 0
M  V30 6549 O 627.695 1.83691 0.0181745 0
M  V30 6550 C 627.757 1.23167 -3.37743 0
M  V30 6551 C 627.421 0.318226 -4.55891 0
M  V30 6552 C 628.418 -0.442988 -5.18009 0
M  V30 6553 C 626.103 0.229421 -5.01776 0
M  V30 6554 C 628.097 -1.28074 -6.244 0
M  V30 6555 C 625.784 -0.611966 -6.08028 0
M  V30 6556 C 626.782 -1.36568 -6.69207 0
M  V30 6557 O 626.47 -2.1931 -7.73407 0
M  V30 6558 H 626.202 0.149297 -0.659307 0
M  V30 6559 H 628.756 -0.201603 -2.04408 0
M  V30 6560 H 626.986 2.0268 -3.29329 0
M  V30 6561 H 628.675 1.79358 -3.64123 0
M  V30 6562 H 629.441 -0.38425 -4.83475 0
M  V30 6563 H 625.32 0.805771 -4.53903 0
M  V30 6564 H 628.864 -1.86952 -6.72082 0
M  V30 6565 H 624.761 -0.6721 -6.41991 0
M  V30 6566 H 625.529 -2.12247 -7.90502 0
M  V30 6567 N 628.193 1.56834 0.155195 0
M  V30 6568 C 629.123 2.00678 1.19376 0
M  V30 6569 C 630.104 0.884973 1.45266 0
M  V30 6570 O 631.289 1.1522 1.56326 0
M  V30 6571 C 628.419 2.38042 2.5289 0
M  V30 6572 C 627.373 3.53332 2.41538 0
M  V30 6573 C 626.699 3.76485 3.79688 0
M  V30 6574 C 627.999 4.86265 1.9064 0
M  V30 6575 H 629.693 2.87688 0.829232 0
M  V30 6576 H 627.239 1.38407 0.397445 0
M  V30 6577 H 629.192 2.67314 3.25763 0
M  V30 6578 H 627.916 1.4796 2.91162 0
M  V30 6579 H 626.575 3.24213 1.71117 0
M  V30 6580 H 626.223 2.83667 4.15382 0
M  V30 6581 H 625.923 4.54068 3.72956 0
M  V30 6582 H 627.447 4.08174 4.54122 0
M  V30 6583 H 628.861 5.14308 2.53299 0
M  V30 6584 H 627.258 5.67597 1.94818 0
M  V30 6585 H 628.328 4.77184 0.861596 0
M  V30 6586 N 629.671 -0.424282 1.51781 0
M  V30 6587 C 630.901 -1.19297 1.68677 0
M  V30 6588 C 631.309 -1.85152 0.389258 0
M  V30 6589 O 630.652 -1.72067 -0.643311 0
M  V30 6590 C 630.714 -2.30929 2.75521 0
M  V30 6591 C 630.378 -1.85335 4.17732 0
M  V30 6592 C 631.375 -1.34951 5.0208 0
M  V30 6593 C 629.06 -1.92629 4.63896 0
M  V30 6594 C 631.054 -0.924636 6.30658 0
M  V30 6595 C 628.741 -1.49754 5.92467 0
M  V30 6596 C 629.739 -0.997543 6.75676 0
M  V30 6597 O 629.427 -0.57492 8.01842 0
M  V30 6598 H 629.159 -0.36512 0.568914 0
M  V30 6599 H 631.713 -0.507327 1.99036 0
M  V30 6600 H 629.943 -3.02811 2.40505 0
M  V30 6601 H 631.632 -2.92748 2.81165 0
M  V30 6602 H 632.398 -1.287 4.67612 0
M  V30 6603 H 628.277 -2.30491 3.99243 0
M  V30 6604 H 631.821 -0.533682 6.95556 0
M  V30 6605 H 627.718 -1.55679 6.26446 0
M  V30 6606 H 628.486 -0.699597 8.15505 0
M  V30 6607 N 631.149 -1.42148 -0.680565 0
M  V30 6608 C 632.374 -1.45901 -1.47403 0
M  V30 6609 C 632.799 -0.0700985 -1.87969 0
M  V30 6610 O 632.157 0.930145 -1.55621 0
M  V30 6611 C 632.205 -2.38661 -2.70321 0
M  V30 6612 O 631.309 -1.85399 -3.68376 0
M  V30 6613 H 630.65 -0.494565 -0.443059 0
M  V30 6614 H 633.18 -1.86774 -0.835251 0
M  V30 6615 H 633.19 -2.55046 -3.18458 0
M  V30 6616 H 631.865 -3.39571 -2.40134 0
M  V30 6617 H 630.442 -1.78541 -3.2738 0
M  V30 6618 N 632.627 0.916307 -1.28225 0
M  V30 6619 C 633.559 2.02303 -1.07732 0
M  V30 6620 C 634.572 1.62773 -0.0298421 0
M  V30 6621 O 635.761 1.76406 -0.272626 0
M  V30 6622 C 632.861 3.33282 -0.614504 0
M  V30 6623 C 632.034 4.01439 -1.73682 0
M  V30 6624 C 631.093 5.10698 -1.26781 0
M  V30 6625 O 630.119 5.34038 -1.96958 0
M  V30 6626 N 631.321 5.80355 -0.129624 0
M  V30 6627 H 634.086 2.20442 -2.03041 0
M  V30 6628 H 631.647 1.08744 -1.19943 0
M  V30 6629 H 633.639 4.03699 -0.284397 0
M  V30 6630 H 632.209 3.11633 0.245664 0
M  V30 6631 H 631.429 3.24604 -2.23665 0
M  V30 6632 H 632.717 4.43721 -2.48976 0
M  V30 6633 H 632.115 5.6386 0.455847 0
M  V30 6634 H 630.672 6.51647 0.141224 0
M  V30 6635 N 634.105 1.10431 1.1244 0
M  V30 6636 C 635.382 0.758797 1.80282 0
M  V30 6637 C 635.762 -0.754727 1.97147 0
M  V30 6638 O 635.11 -1.68094 1.54779 0
M  V30 6639 C 635.32 1.50982 3.14651 0
M  V30 6640 C 636.668 1.68232 3.8985 0
M  V30 6641 O 637.692 1.47319 3.24308 0
M  V30 6642 O 636.551 2.02905 5.07437 0
M  V30 6643 H 633.645 0.273756 0.780376 0
M  V30 6644 H 636.191 1.20713 1.19275 0
M  V30 6645 H 634.963 2.53989 2.97666 0
M  V30 6646 H 634.586 1.05435 3.83366 0
M  V30 6647 N 635.583 -1.29855 0.893053 0
M  V30 6648 C 636.831 -1.9544 0.514566 0
M  V30 6649 C 637.152 -1.70795 -0.940959 0
M  V30 6650 O 636.422 -1.03601 -1.66264 0
M  V30 6651 H 635.002 -0.723137 0.187302 0
M  V30 6652 H 637.664 -1.58234 1.13789 0
M  V30 6653 H 636.76 -3.04341 0.691581 0
M  V30 6654 N 637.061 -0.65484 -1.43351 0
M  V30 6655 C 638.286 -0.175046 -2.0666 0
M  V30 6656 C 638.711 1.15104 -1.4877 0
M  V30 6657 O 638.069 1.71144 -0.598279 0
M  V30 6658 C 638.117 -0.0991544 -3.60464 0
M  V30 6659 O 637.221 0.938169 -4.01587 0
M  V30 6660 H 636.562 -0.0956148 -0.65708 0
M  V30 6661 H 639.092 -0.898222 -1.83829 0
M  V30 6662 H 639.102 0.083632 -4.07914 0
M  V30 6663 H 637.777 -1.06719 -4.01975 0
M  V30 6664 H 636.354 0.72804 -3.65724 0
M  V30 6665 N 638.539 1.52521 -0.396863 0
M  V30 6666 C 639.786 2.01672 0.182898 0
M  V30 6667 C 640.114 1.28302 1.46181 0
M  V30 6668 O 639.369 0.374118 1.92091 0
M  V30 6669 C 639.668 3.5403 0.489677 0
M  V30 6670 C 639.334 4.45456 -0.698581 0
M  V30 6671 C 637.996 4.70166 -1.02454 0
M  V30 6672 C 640.348 4.99354 -1.49316 0
M  V30 6673 C 637.676 5.46024 -2.1465 0
M  V30 6674 C 640.028 5.76439 -2.60579 0
M  V30 6675 C 638.692 5.99426 -2.93675 0
M  V30 6676 H 637.962 0.737971 0.066927 0
M  V30 6677 H 640.609 1.83853 -0.535764 0
M  V30 6678 H 638.914 3.69963 1.28976 0
M  V30 6679 H 640.611 3.8956 0.951018 0
M  V30 6680 H 637.201 4.26392 -0.434525 0
M  V30 6681 H 641.385 4.80182 -1.25457 0
M  V30 6682 H 636.641 5.62046 -2.40654 0
M  V30 6683 H 640.815 6.17202 -3.22544 0
M  V30 6684 H 638.442 6.57988 -3.80731 0
M  V30 6685 N 640.017 0.126909 1.57088 0
M  V30 6686 C 641.247 -0.535892 1.99529 0
M  V30 6687 C 641.655 -1.60259 1.00566 0
M  V30 6688 O 640.998 -1.83698 -0.00843269 0
M  V30 6689 C 641.06 -1.21374 3.38391 0
M  V30 6690 C 640.724 -0.294044 4.56053 0
M  V30 6691 C 641.721 0.470454 5.17767 0
M  V30 6692 C 639.406 -0.202808 5.0189 0
M  V30 6693 C 641.4 1.31384 6.23712 0
M  V30 6694 C 639.087 0.644203 6.07695 0
M  V30 6695 C 640.085 1.40115 6.68473 0
M  V30 6696 O 639.773 2.23408 7.72233 0
M  V30 6697 H 639.505 -0.145799 0.66009 0
M  V30 6698 H 642.059 0.212441 2.04298 0
M  V30 6699 H 640.289 -2.00931 3.30399 0
M  V30 6700 H 641.978 -1.77424 3.65069 0
M  V30 6701 H 642.744 0.409884 4.83265 0
M  V30 6702 H 638.623 -0.781688 4.54324 0
M  V30 6703 H 642.167 1.90514 6.71081 0
M  V30 6704 H 638.064 0.706137 6.41626 0
M  V30 6705 H 638.832 2.16436 7.89365 0
M  V30 6706 N 641.495 -1.56914 -0.146875 0
M  V30 6707 C 642.742 -1.83356 -0.859467 0
M  V30 6708 C 643.07 -0.707811 -1.81164 0
M  V30 6709 O 642.325 0.303155 -1.93338 0
M  V30 6710 C 642.624 -3.16128 -1.66727 0
M  V30 6711 C 642.29 -4.42586 -0.861881 0
M  V30 6712 C 640.952 -4.76929 -0.639687 0
M  V30 6713 C 643.304 -5.20344 -0.298643 0
M  V30 6714 C 640.632 -5.86491 0.156451 0
M  V30 6715 C 642.984 -6.30742 0.484536 0
M  V30 6716 C 641.648 -6.63635 0.717306 0
M  V30 6717 H 640.918 -0.670947 -0.314501 0
M  V30 6718 H 643.565 -1.91104 -0.123108 0
M  V30 6719 H 641.87 -3.03831 -2.47374 0
M  V30 6720 H 643.567 -3.33802 -2.2221 0
M  V30 6721 H 640.157 -4.15662 -1.04513 0
M  V30 6722 H 644.341 -4.94186 -0.457585 0
M  V30 6723 H 639.597 -6.10419 0.346292 0
M  V30 6724 H 643.771 -6.90188 0.928105 0
M  V30 6725 H 641.398 -7.48367 1.33607 0
M  V30 6726 N 642.974 0.416227 -1.52004 0
M  V30 6727 C 643.904 1.51365 -1.77795 0
M  V30 6728 C 644.885 1.58059 -0.628601 0
M  V30 6729 O 646.07 1.73447 -0.873478 0
M  V30 6730 C 643.2 2.89256 -1.92219 0
M  V30 6731 C 642.154 2.97415 -3.0778 0
M  V30 6732 C 641.48 4.37492 -3.07417 0
M  V30 6733 C 642.78 2.69551 -4.47369 0
M  V30 6734 H 644.474 1.30033 -2.69688 0
M  V30 6735 H 642.02 0.624112 -1.29772 0
M  V30 6736 H 643.973 3.66008 -2.08845 0
M  V30 6737 H 642.697 3.11866 -0.969917 0
M  V30 6738 H 641.356 2.23107 -2.90893 0
M  V30 6739 H 641.004 4.571 -2.09925 0
M  V30 6740 H 640.704 4.43877 -3.85029 0
M  V30 6741 H 642.228 5.16188 -3.26162 0
M  V30 6742 H 643.642 3.36028 -4.64497 0
M  V30 6743 H 642.039 2.87321 -5.26846 0
M  V30 6744 H 643.109 1.65029 -4.55953 0
M  V30 6745 N 644.452 1.42507 0.673017 0
M  V30 6746 C 645.362 1.4853 1.81593 0
M  V30 6747 C 646.378 0.373907 1.69935 0
M  V30 6748 O 647.554 0.625078 1.91454 0
M  V30 6749 C 644.619 1.387 3.17747 0
M  V30 6750 C 643.68 2.60346 3.41348 0
M  V30 6751 C 642.913 2.50975 4.71007 0
M  V30 6752 O 643.136 1.54659 5.49033 0
M  V30 6753 O 642.07 3.41138 4.95892 0
M  V30 6754 H 645.896 2.45001 1.79467 0
M  V30 6755 H 643.481 1.2429 0.82899 0
M  V30 6756 H 645.363 1.35586 3.98992 0
M  V30 6757 H 644.038 0.453555 3.20507 0
M  V30 6758 H 642.945 2.69034 2.59945 0
M  V30 6759 H 644.278 3.52595 3.43421 0
M  V30 6760 N 645.93 -0.909495 1.28709 0
M  V30 6761 C 646.86 -2.0291 1.15542 0
M  V30 6762 C 647.841 -1.7002 0.0521017 0
M  V30 6763 O 649.026 -1.92835 0.229849 0
M  V30 6764 C 646.156 -3.37458 0.820935 0
M  V30 6765 C 645.11 -3.84524 1.87949 0
M  V30 6766 C 644.436 -5.16086 1.39854 0
M  V30 6767 C 645.736 -4.05918 3.28676 0
M  V30 6768 H 647.43 -2.14183 2.09203 0
M  V30 6769 H 644.976 -1.02913 1.00722 0
M  V30 6770 H 646.929 -4.1528 0.715571 0
M  V30 6771 H 645.653 -3.26249 -0.151374 0
M  V30 6772 H 644.312 -3.08911 1.97408 0
M  V30 6773 H 643.96 -5.01284 0.41518 0
M  V30 6774 H 643.66 -5.48547 2.1064 0
M  V30 6775 H 645.184 -5.96459 1.30649 0
M  V30 6776 H 646.598 -4.74252 3.22115 0
M  V30 6777 H 644.995 -4.49717 3.97334 0
M  V30 6778 H 646.065 -3.10583 3.72379 0
M  V30 6779 N 647.408 -1.11026 -1.11852 0
M  V30 6780 C 648.356 -0.759643 -2.19846 0
M  V30 6781 C 649.35 0.246964 -1.6759 0
M  V30 6782 O 650.556 0.106693 -1.79684 0
M  V30 6783 H 646.931 -0.22775 -0.716683 0
M  V30 6784 H 648.902 -1.6792 -2.46669 0
M  V30 6785 C 647.651 -0.214364 -3.47039 0
M  V30 6786 H 646.974 -0.980175 -3.87599 0
M  V30 6787 H 648.414 -0.00717047 -4.23999 0
M  V30 6788 C 646.873 1.05436 -3.19976 0
M  V30 6789 O 647.403 2.13483 -3.40276 0
M  V30 6790 N 645.609 0.975436 -2.7374 0
M  V30 6791 H 645.156 0.0960853 -2.57421 0
M  V30 6792 H 645.114 1.82501 -2.5601 0
M  V30 6793 N 648.886 1.2938 -0.899927 0
M  V30 6794 C 650.297 1.77644 -0.574427 0
M  V30 6795 C 650.648 1.73824 0.909928 0
M  V30 6796 O 649.773 1.32429 1.71147 0
M  V30 6797 C 650.368 3.22573 -1.03595 0
M  V30 6798 C 648.927 3.68614 -0.76161 0
M  V30 6799 C 648.074 2.49483 -1.21052 0
M  V30 6800 H 651.025 1.16038 -1.08263 0
M  V30 6801 H 651.046 3.78684 -0.371337 0
M  V30 6802 H 650.558 3.25321 -2.11631 0
M  V30 6803 H 648.659 3.7134 0.306127 0
M  V30 6804 H 648.772 4.59402 -1.35965 0
M  V30 6805 H 647.136 2.46798 -0.629515 0
M  V30 6806 H 647.919 2.54959 -2.29893 0
M  V30 6807 N 650.364 0.662433 1.43002 0
M  V30 6808 C 651.78 0.330835 1.56133 0
M  V30 6809 C 651.98 -1.16454 1.64441 0
M  V30 6810 O 651.036 -1.94964 1.60453 0
M  V30 6811 C 652.349 1.05029 2.81761 0
M  V30 6812 C 653.897 1.03142 2.95518 0
M  V30 6813 C 654.372 1.73196 4.2399 0
M  V30 6814 N 655.863 1.70004 4.30875 0
M  V30 6815 C 656.598 2.21074 5.29069 0
M  V30 6816 N 656.094 2.80473 6.33488 0
M  V30 6817 N 657.887 2.1152 5.20784 0
M  V30 6818 H 650.038 1.63272 1.35853 0
M  V30 6819 H 652.301 0.687149 0.653092 0
M  V30 6820 H 652.007 2.10542 2.81718 0
M  V30 6821 H 651.881 0.607664 3.72273 0
M  V30 6822 H 654.268 -0.0153339 2.95096 0
M  V30 6823 H 654.349 1.51282 2.0627 0
M  V30 6824 H 653.993 2.77833 4.25172 0
M  V30 6825 H 653.923 1.22515 5.1215 0
M  V30 6826 H 656.414 1.26667 3.56039 0
M  V30 6827 H 656.727 3.17094 7.04749 0
M  V30 6828 H 655.072 2.84538 6.34085 0
M  V30 6829 H 658.263 1.64814 4.38126 0
M  V30 6830 H 658.436 2.51629 5.97149 0
M  V30 6831 N 651.842 -1.52309 0.404946 0
M  V30 6832 C 652.772 -2.29805 -0.41376 0
M  V30 6833 C 653.753 -1.3384 -1.0498 0
M  V30 6834 O 654.938 -1.62745 -1.05961 0
M  V30 6835 C 652.068 -3.11639 -1.53292 0
M  V30 6836 C 651.022 -4.15616 -1.02211 0
M  V30 6837 C 650.348 -4.8577 -2.23455 0
M  V30 6838 C 651.648 -5.2224 -0.0790725 0
M  V30 6839 H 653.342 -2.98493 0.232878 0
M  V30 6840 H 650.888 -1.43552 0.113441 0
M  V30 6841 H 652.841 -3.64618 -2.11262 0
M  V30 6842 H 651.565 -2.40712 -2.20738 0
M  V30 6843 H 650.224 -3.63641 -0.46484 0
M  V30 6844 H 649.872 -4.11376 -2.89445 0
M  V30 6845 H 649.572 -5.56058 -1.89929 0
M  V30 6846 H 651.096 -5.4156 -2.82038 0
M  V30 6847 H 652.51 -5.70485 -0.567438 0
M  V30 6848 H 650.907 -5.99867 0.167167 0
M  V30 6849 H 651.977 -4.77078 0.867447 0
M  V30 6850 N 653.32 -0.135238 -1.57019 0
M  V30 6851 C 654.252 0.839675 -2.13265 0
M  V30 6852 C 655.265 1.21887 -1.07923 0
M  V30 6853 O 656.454 1.16499 -1.35241 0
M  V30 6854 C 653.554 2.13647 -2.63075 0
M  V30 6855 C 652.727 1.92646 -3.92691 0
M  V30 6856 C 651.786 3.06205 -4.27931 0
M  V30 6857 O 650.812 2.78409 -4.96465 0
M  V30 6858 N 652.014 4.33072 -3.86561 0
M  V30 6859 H 654.779 0.359026 -2.97542 0
M  V30 6860 H 652.34 0.0486979 -1.61827 0
M  V30 6861 H 654.332 2.88641 -2.8367 0
M  V30 6862 H 652.902 2.5301 -1.83588 0
M  V30 6863 H 652.122 1.01754 -3.80841 0
M  V30 6864 H 653.41 1.75939 -4.77413 0
M  V30 6865 H 652.808 4.58526 -3.31316 0
M  V30 6866 H 651.365 5.04885 -4.12231 0
M  V30 6867 N 654.798 1.5699 0.138552 0
M  V30 6868 C 656.044 1.84081 0.85099 0
M  V30 6869 C 656.377 0.718107 1.80435 0
M  V30 6870 O 655.652 -0.277633 1.92508 0
M  V30 6871 C 655.935 3.21699 1.61808 0
M  V30 6872 C 655.788 4.44544 0.685633 0
M  V30 6873 C 657.107 3.5664 2.57868 0
M  V30 6874 H 654.226 0.669592 0.307922 0
M  V30 6875 H 656.868 1.89646 0.11588 0
M  V30 6876 H 655.018 3.17086 2.24474 0
M  V30 6877 H 656.69 4.61248 0.0693179 0
M  V30 6878 H 654.933 4.338 -0.00421993 0
M  V30 6879 H 655.604 5.3746 1.25858 0
M  V30 6880 H 658.08 3.61918 2.05316 0
M  V30 6881 H 656.956 4.53946 3.08584 0
M  V30 6882 H 657.217 2.83036 3.39622 0
M  V30 6883 N 656.276 -0.40816 1.52223 0
M  V30 6884 C 657.186 -1.52202 1.78526 0
M  V30 6885 C 658.202 -1.60546 0.670892 0
M  V30 6886 O 659.378 -1.77242 0.956404 0
M  V30 6887 C 656.443 -2.87928 1.93128 0
M  V30 6888 C 655.504 -2.89463 3.17033 0
M  V30 6889 C 654.737 -4.18715 3.30929 0
M  V30 6890 O 654.96 -5.12662 2.50067 0
M  V30 6891 O 653.894 -4.27125 4.24084 0
M  V30 6892 H 657.72 -1.32911 2.73072 0
M  V30 6893 H 655.305 -0.594112 1.37079 0
M  V30 6894 H 657.187 -3.68426 2.04549 0
M  V30 6895 H 655.862 -3.07285 1.01772 0
M  V30 6896 H 654.769 -2.07815 3.11069 0
M  V30 6897 H 656.102 -2.75055 4.08174 0
M  V30 6898 N 657.755 -1.42862 -0.66545 0
M  V30 6899 C 658.705 -1.43521 -1.7716 0
M  V30 6900 C 659.689 -0.305267 -1.57978 0
M  V30 6901 O 660.881 -0.548176 -1.68297 0
M  V30 6902 C 658.01 -1.34914 -3.15679 0
M  V30 6903 C 657.096 -2.5289 -3.40452 0
M  V30 6904 N 657.487 -3.78284 -3.3576 0
M  V30 6905 C 655.785 -2.47351 -3.71124 0
M  V30 6906 C 656.486 -4.56701 -3.60276 0
M  V30 6907 N 655.462 -3.87249 -3.81496 0
M  V30 6908 H 659.264 -2.38357 -1.7194 0
M  V30 6909 H 656.778 -1.37342 -0.866653 0
M  V30 6910 H 658.775 -1.33468 -3.94958 0
M  V30 6911 H 657.435 -0.410881 -3.2209 0
M  V30 6912 H 658.446 -4.10746 -3.15448 0
M  V30 6913 H 655.123 -1.62152 -3.84725 0
M  V30 6914 H 656.513 -5.65704 -3.6253 0
M  V30 6915 N 659.233 0.902656 -1.29189 0
M  V30 6916 C 660.644 1.46809 -1.15343 0
M  V30 6917 C 660.995 1.94568 0.252517 0
M  V30 6918 O 660.12 1.83454 1.14777 0
M  V30 6919 C 660.715 2.66829 -2.08776 0
M  V30 6920 C 659.274 3.19518 -1.98961 0
M  V30 6921 C 658.421 1.92212 -1.99874 0
M  V30 6922 H 661.372 0.714282 -1.41717 0
M  V30 6923 H 661.393 3.42465 -1.65826 0
M  V30 6924 H 660.905 2.32039 -3.11094 0
M  V30 6925 H 659.006 3.59008 -0.99721 0
M  V30 6926 H 659.119 3.84016 -2.86477 0
M  V30 6927 H 657.483 2.0979 -1.44431 0
M  V30 6928 H 658.266 1.59702 -3.03891 0
M  V30 6929 N 660.711 1.11618 1.11262 0
M  V30 6930 C 661.951 0.876154 1.8467 0
M  V30 6931 C 662.315 -0.587551 1.82789 0
M  V30 6932 O 663.516 -0.944411 2.51663 0
M  V30 6933 C 661.787 1.42461 3.2778 0
M  V30 6934 S 663.346 1.32185 4.18417 0
M  V30 6935 H 660.164 0.31628 0.636779 0
M  V30 6936 H 662.766 1.42404 1.33946 0
M  V30 6937 H 661.47 2.48367 3.26714 0
M  V30 6938 H 661.001 0.873844 3.83572 0
M  V30 6939 H 663.016 0.287607 4.95366 0
M  V30 6940 N 662.189 -1.289 0.906776 0
M  V30 6941 C 663.417 -1.99401 0.551969 0
M  V30 6942 C 663.832 -1.67816 -0.865048 0
M  V30 6943 O 663.189 -0.927078 -1.57199 0
M  V30 6944 C 663.24 -3.53779 0.743152 0
M  V30 6945 O 662.961 -3.84248 2.1044 0
M  V30 6946 C 664.462 -4.41543 0.39424 0
M  V30 6947 H 661.682 -0.636926 0.211106 0
M  V30 6948 H 664.226 -1.64266 1.21807 0
M  V30 6949 H 662.381 -3.87201 0.124143 0
M  V30 6950 H 662.795 -4.78904 2.13895 0
M  V30 6951 H 664.269 -5.48957 0.578814 0
M  V30 6952 H 664.746 -4.34073 -0.669137 0
M  V30 6953 H 665.352 -4.13605 0.990491 0
M  V30 6954 N 663.667 -0.670007 -1.42649 0
M  V30 6955 C 664.577 0.0114788 -2.34597 0
M  V30 6956 C 665.593 0.794055 -1.54825 0
M  V30 6957 O 666.769 0.737472 -1.87412 0
M  V30 6958 C 663.834 0.954436 -3.33304 0
M  V30 6959 C 662.895 0.166925 -4.28975 0
M  V30 6960 C 662.128 1.06497 -5.22967 0
M  V30 6961 O 662.351 2.30446 -5.21777 0
M  V30 6962 O 661.285 0.528347 -5.99577 0
M  V30 6963 H 665.111 -0.745794 -2.944 0
M  V30 6964 H 662.696 -0.430228 -1.43071 0
M  V30 6965 H 664.578 1.49589 -3.93956 0
M  V30 6966 H 663.253 1.69164 -2.7598 0
M  V30 6967 H 662.16 -0.418515 -3.71752 0
M  V30 6968 H 663.493 -0.531067 -4.89327 0
M  V30 6969 N 665.145 1.52092 -0.413018 0
M  V30 6970 C 666.078 2.23613 0.455234 0
M  V30 6971 C 667.056 1.2459 1.04481 0
M  V30 6972 O 668.24 1.53653 1.09193 0
M  V30 6973 C 665.367 2.96775 1.63224 0
M  V30 6974 C 664.413 4.10261 1.16568 0
M  V30 6975 S 665.246 5.35348 0.127633 0
M  V30 6976 C 666.402 6.1204 1.30987 0
M  V30 6977 H 666.635 2.96911 -0.152042 0
M  V30 6978 H 664.168 1.53134 -0.197343 0
M  V30 6979 H 666.126 3.39532 2.30713 0
M  V30 6980 H 664.787 2.23113 2.21087 0
M  V30 6981 H 663.98 4.6064 2.04515 0
M  V30 6982 H 663.582 3.6964 0.569386 0
M  V30 6983 H 665.874 6.39651 2.23276 0
M  V30 6984 H 666.817 7.03022 0.846533 0
M  V30 6985 H 667.225 5.43161 1.53743 0
M  V30 6986 N 666.623 0.143563 1.56945 0
M  V30 6987 C 667.869 -0.50916 1.96304 0
M  V30 6988 C 668.202 -1.64741 1.0283 0
M  V30 6989 O 667.477 -1.94374 0.0700361 0
M  V30 6990 C 667.76 -1.0186 3.45393 0
M  V30 6991 C 667.613 0.117923 4.49645 0
M  V30 6992 C 668.932 -1.90151 3.96901 0
M  V30 6993 H 666.051 -0.183608 0.713763 0
M  V30 6994 H 668.693 0.224095 1.88674 0
M  V30 6995 H 666.843 -1.64345 3.52027 0
M  V30 6996 H 668.515 0.754145 4.55094 0
M  V30 6997 H 666.758 0.777568 4.26774 0
M  V30 6998 H 667.429 -0.280187 5.51288 0
M  V30 6999 H 669.905 -1.375 3.92725 0
M  V30 7000 H 668.781 -2.22707 5.0169 0
M  V30 7001 H 669.042 -2.83718 3.39052 0
M  V30 7002 N 668.101 -1.57061 -0.130224 0
M  V30 7003 C 669.064 -1.98593 -1.14426 0
M  V30 7004 C 670.064 -0.874584 -1.34936 0
M  V30 7005 O 671.254 -1.14086 -1.31643 0
M  V30 7006 C 668.386 -2.31639 -2.50112 0
M  V30 7007 H 669.579 -2.89374 -0.787561 0
M  V30 7008 H 667.132 -1.51756 -0.374146 0
M  V30 7009 H 667.867 -1.43703 -2.90723 0
M  V30 7010 H 667.652 -3.12684 -2.36583 0
M  V30 7011 H 669.142 -2.64551 -3.23114 0
M  V30 7012 N 669.579 0.400081 -1.52437 0
M  V30 7013 C 670.856 1.15973 -1.57511 0
M  V30 7014 C 671.236 2.0798 -0.361572 0
M  V30 7015 O 670.584 2.19032 0.650929 0
M  V30 7016 C 670.794 1.92912 -2.90837 0
M  V30 7017 C 672.142 2.48662 -3.44169 0
M  V30 7018 O 673.166 2.03081 -2.92637 0
M  V30 7019 O 672.025 3.31894 -4.34176 0
M  V30 7020 H 669.119 0.530023 -0.634827 0
M  V30 7021 H 671.665 0.40613 -1.64769 0
M  V30 7022 H 670.437 1.25564 -3.70607 0
M  V30 7023 H 670.06 2.75257 -2.86913 0
M  V30 7024 N 671.057 1.43213 0.657864 0
M  V30 7025 C 672.303 1.44798 1.41991 0
M  V30 7026 C 672.636 0.070256 1.94073 0
M  V30 7027 O 671.911 -0.908177 1.71995 0
M  V30 7028 C 672.194 2.4865 2.60471 0
M  V30 7029 C 672.047 3.95679 2.13911 0
M  V30 7030 C 673.366 2.49292 3.62686 0
M  V30 7031 H 670.485 0.527244 0.514959 0
M  V30 7032 H 673.127 1.74733 0.74621 0
M  V30 7033 H 671.277 2.23254 3.17946 0
M  V30 7034 H 672.949 4.32116 1.61472 0
M  V30 7035 H 671.192 4.08733 1.45325 0
M  V30 7036 H 671.863 4.6395 2.99089 0
M  V30 7037 H 674.339 2.71917 3.14961 0
M  V30 7038 H 673.215 3.23907 4.43143 0
M  V30 7039 H 673.476 1.52502 4.14964 0
M  V30 7040 N 672.536 -0.895792 1.29666 0
M  V30 7041 C 673.484 -2.02173 1.15017 0
M  V30 7042 C 674.478 -1.69276 0.0647651 0
M  V30 7043 O 675.684 -1.7859 0.224846 0
M  V30 7044 H 672.059 -0.662719 0.355397 0
M  V30 7045 H 674.03 -2.11666 2.10334 0
M  V30 7046 C 672.779 -3.37212 0.847555 0
M  V30 7047 H 672.102 -3.6303 1.67479 0
M  V30 7048 H 673.542 -4.16668 0.785106 0
M  V30 7049 C 672.001 -3.33891 -0.44929 0
M  V30 7050 O 672.531 -3.73673 -1.47415 0
M  V30 7051 N 670.737 -2.86991 -0.456547 0
M  V30 7052 H 670.284 -2.54813 0.377925 0
M  V30 7053 H 670.242 -2.85152 -1.32423 0
M  V30 7054 N 674.014 -1.12206 -1.10668 0
M  V30 7055 C 674.944 -0.810086 -2.18997 0
M  V30 7056 C 675.925 0.225065 -1.68604 0
M  V30 7057 O 677.11 0.086783 -1.94006 0
M  V30 7058 C 674.24 -0.261262 -3.46316 0
M  V30 7059 C 673.194 -1.2292 -4.09969 0
M  V30 7060 C 672.52 -0.540713 -5.31959 0
M  V30 7061 C 673.82 -2.58295 -4.53962 0
M  V30 7062 H 675.514 -1.7159 -2.45352 0
M  V30 7063 H 673.06 -0.82646 -1.17922 0
M  V30 7064 H 675.013 -0.0307522 -4.21389 0
M  V30 7065 H 673.737 0.679879 -3.19445 0
M  V30 7066 H 672.396 -1.44548 -3.369 0
M  V30 7067 H 672.044 0.405492 -5.01363 0
M  V30 7068 H 671.744 -1.18637 -5.75499 0
M  V30 7069 H 673.268 -0.319184 -6.09765 0
M  V30 7070 H 674.682 -2.40709 -5.20319 0
M  V30 7071 H 673.079 -3.18916 -5.08343 0
M  V30 7072 H 674.149 -3.16918 -3.67002 0
M  V30 7073 N 675.492 1.28418 -0.913599 0
M  V30 7074 C 676.903 1.77024 -0.593237 0
M  V30 7075 C 677.254 1.74779 0.891441 0
M  V30 7076 O 676.379 1.34237 1.69733 0
M  V30 7077 C 676.974 3.21456 -1.07011 0
M  V30 7078 C 675.533 3.67786 -0.800664 0
M  V30 7079 C 674.68 2.48185 -1.23691 0
M  V30 7080 H 677.631 1.14883 -1.09487 0
M  V30 7081 H 677.652 3.78269 -0.411481 0
M  V30 7082 H 677.164 3.23058 -2.1507 0
M  V30 7083 H 675.265 3.71644 0.266725 0
M  V30 7084 H 675.378 4.57934 -1.4083 0
M  V30 7085 H 673.742 2.46116 -0.655655 0
M  V30 7086 H 674.525 2.52506 -2.32585 0
M  V30 7087 N 676.97 0.677563 1.42291 0
M  V30 7088 C 677.933 0.0101085 2.29198 0
M  V30 7089 C 678.933 -0.726219 1.43467 0
M  V30 7090 O 680.123 -0.563807 1.64824 0
M  V30 7091 C 677.255 -0.996316 3.26016 0
M  V30 7092 H 678.448 0.775071 2.89711 0
M  V30 7093 H 676.001 0.440065 1.49977 0
M  V30 7094 H 676.736 -1.78967 2.70446 0
M  V30 7095 H 676.521 -0.471687 3.89253 0
M  V30 7096 H 678.011 -1.46167 3.91184 0
M  V30 7097 N 678.448 -1.51871 0.421078 0
M  V30 7098 C 679.411 -2.25914 -0.386712 0
M  V30 7099 C 680.411 -1.28733 -0.963555 0
M  V30 7100 O 681.601 -1.52579 -0.840556 0
M  V30 7101 C 678.733 -3.03853 -1.54551 0
M  V30 7102 H 679.926 -2.98754 0.261978 0
M  V30 7103 H 677.479 -1.5533 0.173862 0
M  V30 7104 H 678.214 -2.35392 -2.23072 0
M  V30 7105 H 677.999 -3.75215 -1.13824 0
M  V30 7106 H 679.489 -3.59984 -2.11663 0
M  V30 7107 N 679.926 -0.151884 -1.56866 0
M  V30 7108 C 680.858 0.817008 -2.14144 0
M  V30 7109 C 681.871 1.20735 -1.0921 0
M  V30 7110 O 683.06 1.15058 -1.36469 0
M  V30 7111 C 680.16 2.10844 -2.65326 0
M  V30 7112 C 679.333 1.88471 -3.94712 0
M  V30 7113 C 678.392 3.01649 -4.31155 0
M  V30 7114 O 677.418 2.73127 -4.9939 0
M  V30 7115 N 678.62 4.28947 -3.91132 0
M  V30 7116 H 681.385 0.327448 -2.97906 0
M  V30 7117 H 678.946 0.0315313 -1.61869 0
M  V30 7118 H 680.938 2.85616 -2.86715 0
M  V30 7119 H 679.508 2.51049 -1.86262 0
M  V30 7120 H 678.728 0.977088 -3.81899 0
M  V30 7121 H 680.016 1.70866 -4.79252 0
M  V30 7122 H 679.414 4.54986 -3.36161 0
M  V30 7123 H 677.971 5.00484 -4.17563 0
M  V30 7124 N 681.404 1.57128 0.121893 0
M  V30 7125 C 682.334 2.03165 1.15092 0
M  V30 7126 C 683.315 0.915587 1.43356 0
M  V30 7127 O 684.5 1.1851 1.53847 0
M  V30 7128 C 681.63 2.43352 2.47784 0
M  V30 7129 C 680.584 3.58376 2.33989 0
M  V30 7130 C 679.91 3.84454 3.71617 0
M  V30 7131 C 681.21 4.90199 1.80283 0
M  V30 7132 H 682.904 2.89382 0.768023 0
M  V30 7133 H 680.45 1.39218 0.367998 0
M  V30 7134 H 682.403 2.74163 3.20019 0
M  V30 7135 H 681.127 1.54103 2.87958 0
M  V30 7136 H 679.786 3.2777 1.64202 0
M  V30 7137 H 679.434 2.92414 4.09271 0
M  V30 7138 H 679.134 4.61877 3.6324 0
M  V30 7139 H 680.658 4.17714 4.45362 0
M  V30 7140 H 682.072 5.19565 2.42333 0
M  V30 7141 H 680.469 5.71601 1.82735 0
M  V30 7142 H 681.539 4.78904 0.760184 0
M  V30 7143 N 682.882 -0.391992 1.52647 0
M  V30 7144 C 683.814 -1.49811 1.73463 0
M  V30 7145 C 684.827 -1.50734 0.615078 0
M  V30 7146 O 686.016 -1.5469 0.890696 0
M  V30 7147 C 683.116 -2.88667 1.77552 0
M  V30 7148 C 682.289 -3.11743 3.06815 0
M  V30 7149 C 681.348 -4.30564 3.02491 0
M  V30 7150 O 680.374 -4.27014 3.76361 0
M  V30 7151 N 681.576 -5.36593 2.21468 0
M  V30 7152 H 684.341 -1.32343 2.68897 0
M  V30 7153 H 681.902 -0.581475 1.51098 0
M  V30 7154 H 683.894 -3.66251 1.7217 0
M  V30 7155 H 682.464 -2.99508 0.895181 0
M  V30 7156 H 681.684 -2.2205 3.25711 0
M  V30 7157 H 682.972 -3.24013 3.92292 0
M  V30 7158 H 682.37 -5.42332 1.60913 0
M  V30 7159 H 680.927 -6.12855 2.21928 0
M  V30 7160 N 684.36 -1.4356 -0.65026 0
M  V30 7161 C 685.609 -1.44619 -1.406 0
M  V30 7162 C 685.922 -0.0752645 -1.95455 0
M  V30 7163 O 687.128 0.0366832 -2.71475 0
M  V30 7164 C 685.584 -2.54511 -2.54465 0
M  V30 7165 C 685.192 -3.97723 -2.06204 0
M  V30 7166 C 686.936 -2.64768 -3.31811 0
M  V30 7167 C 684.843 -4.99075 -3.17298 0
M  V30 7168 H 683.773 -0.537983 -0.52829 0
M  V30 7169 H 686.424 -1.69559 -0.701561 0
M  V30 7170 H 684.806 -2.22777 -3.27393 0
M  V30 7171 H 685.98 -4.38932 -1.40267 0
M  V30 7172 H 684.295 -3.91538 -1.41729 0
M  V30 7173 H 686.892 -3.37664 -4.14593 0
M  V30 7174 H 687.235 -1.69936 -3.80036 0
M  V30 7175 H 687.768 -2.95817 -2.65964 0
M  V30 7176 H 684.507 -5.95469 -2.74038 0
M  V30 7177 H 684.027 -4.62476 -3.81937 0
M  V30 7178 H 685.706 -5.21913 -3.82382 0
M  V30 7179 N 685.838 0.888903 -1.30139 0
M  V30 7180 C 686.801 1.97576 -1.16174 0
M  V30 7181 C 687.801 1.60525 -0.094086 0
M  V30 7182 O 688.991 1.70812 -0.341889 0
M  V30 7183 C 686.123 3.3188 -0.778983 0
M  V30 7184 H 687.316 2.11393 -2.12728 0
M  V30 7185 H 684.869 1.0748 -1.1348 0
M  V30 7186 H 685.604 3.23765 0.186225 0
M  V30 7187 H 685.389 3.60141 -1.55051 0
M  V30 7188 H 686.879 4.11612 -0.704631 0
M  V30 7189 N 687.317 1.12792 1.10072 0
M  V30 7190 C 688.25 0.742921 2.15768 0
M  V30 7191 C 689.228 -0.267714 1.60381 0
M  V30 7192 O 690.412 -0.160782 1.87813 0
M  V30 7193 C 687.539 0.100244 3.38552 0
M  V30 7194 C 686.585 1.07831 4.12644 0
M  V30 7195 S 687.418 2.60765 4.6772 0
M  V30 7196 C 688.574 1.97838 5.9381 0
M  V30 7197 H 688.807 1.63822 2.48092 0
M  V30 7198 H 686.34 0.947385 1.21918 0
M  V30 7199 H 688.298 -0.264175 4.09649 0
M  V30 7200 H 686.959 -0.772223 3.04459 0
M  V30 7201 H 686.152 0.576325 5.00694 0
M  V30 7202 H 685.754 1.38586 3.47376 0
M  V30 7203 H 688.046 1.32341 6.64449 0
M  V30 7204 H 688.989 2.83943 6.48677 0
M  V30 7205 H 689.397 1.43267 5.46017 0
M  V30 7206 N 688.795 -1.27931 0.920396 0
M  V30 7207 C 690.043 -1.94304 0.555906 0
M  V30 7208 C 690.364 -1.72753 -0.904519 0
M  V30 7209 O 689.634 -1.07104 -1.64029 0
M  V30 7210 H 688.214 -0.719001 0.202599 0
M  V30 7211 H 690.876 -1.55785 1.1712 0
M  V30 7212 H 689.972 -3.02806 0.755981 0
M  V30 7213 N 690.273 -0.685099 -1.4193 0
M  V30 7214 C 691.522 -0.208816 -2.00616 0
M  V30 7215 C 691.835 1.19506 -1.54847 0
M  V30 7216 O 693.041 1.76826 -2.06021 0
M  V30 7217 C 691.497 -0.322446 -3.58453 0
M  V30 7218 C 691.105 -1.73102 -4.13206 0
M  V30 7219 C 692.849 0.0945979 -4.24395 0
M  V30 7220 C 690.756 -1.79687 -5.63442 0
M  V30 7221 H 689.686 -0.0743092 -0.750329 0
M  V30 7222 H 692.337 -0.851778 -1.62533 0
M  V30 7223 H 690.719 0.388588 -3.94089 0
M  V30 7224 H 691.893 -2.46997 -3.8901 0
M  V30 7225 H 690.208 -2.09682 -3.59753 0
M  V30 7226 H 692.805 0.0656937 -5.3466 0
M  V30 7227 H 693.148 1.1316 -4.00625 0
M  V30 7228 H 693.681 -0.56579 -3.93756 0
M  V30 7229 H 690.42 -2.81404 -5.92024 0
M  V30 7230 H 689.94 -1.10162 -5.89597 0
M  V30 7231 H 691.619 -1.55498 -6.28036 0
M  V30 7232 N 691.751 1.51645 -0.429126 0
M  V30 7233 C 693.162 1.86665 0.0359003 0
M  V30 7234 C 693.513 1.34677 1.42676 0
M  V30 7235 O 692.638 0.694195 2.04963 0
M  V30 7236 C 693.233 3.38724 0.0719221 0
M  V30 7237 C 691.792 3.7331 0.481336 0
M  V30 7238 C 690.939 2.75313 -0.331329 0
M  V30 7239 H 693.89 1.44987 -0.645333 0
M  V30 7240 H 693.911 3.7011 0.883118 0
M  V30 7241 H 693.423 3.76532 -0.940495 0
M  V30 7242 H 691.524 3.41088 1.49966 0
M  V30 7243 H 691.637 4.78631 0.211837 0
M  V30 7244 H 690.001 2.53839 0.209204 0
M  V30 7245 H 690.784 3.15963 -1.34247 0
M  V30 7246 N 693.229 0.160201 1.56784 0
M  V30 7247 C 694.159 -0.770264 2.2043 0
M  V30 7248 C 695.14 -1.24736 1.15651 0
M  V30 7249 O 696.325 -1.30253 1.44041 0
M  V30 7250 C 693.455 -2.00427 2.83631 0
M  V30 7251 C 692.409 -1.66345 3.94352 0
M  V30 7252 C 691.735 -2.97119 4.4455 0
M  V30 7253 C 693.035 -0.899972 5.14488 0
M  V30 7254 H 694.729 -0.239783 2.98438 0
M  V30 7255 H 692.275 -0.113891 1.43549 0
M  V30 7256 H 694.228 -2.66012 3.26827 0
M  V30 7257 H 692.952 -2.5587 2.02973 0
M  V30 7258 H 691.611 -1.03133 3.51794 0
M  V30 7259 H 691.259 -3.5058 3.60698 0
M  V30 7260 H 690.959 -2.75073 5.19238 0
M  V30 7261 H 692.483 -3.63753 4.90425 0
M  V30 7262 H 693.897 -1.45818 5.54446 0
M  V30 7263 H 692.294 -0.778968 5.95023 0
M  V30 7264 H 693.364 0.105827 4.84785 0
M  V30 7265 N 694.707 -1.5719 -0.113559 0
M  V30 7266 C 695.937 -1.89053 -0.833212 0
M  V30 7267 C 696.345 -0.750139 -1.73694 0
M  V30 7268 O 695.688 0.287808 -1.81431 0
M  V30 7269 C 695.75 -3.15986 -1.71443 0
M  V30 7270 C 695.414 -4.46271 -0.984449 0
M  V30 7271 C 696.411 -5.18897 -0.322741 0
M  V30 7272 C 694.096 -4.92963 -0.964011 0
M  V30 7273 C 696.09 -6.3644 0.349646 0
M  V30 7274 C 693.777 -6.10422 -0.287828 0
M  V30 7275 C 694.775 -6.82009 0.36784 0
M  V30 7276 O 694.463 -7.97233 1.03322 0
M  V30 7277 H 694.195 -0.630225 -0.244526 0
M  V30 7278 H 696.749 -2.05152 -0.100847 0
M  V30 7279 H 694.979 -2.95984 -2.48858 0
M  V30 7280 H 696.668 -3.33826 -2.309 0
M  V30 7281 H 697.434 -4.83875 -0.330114 0
M  V30 7282 H 693.313 -4.37143 -1.46379 0
M  V30 7283 H 696.857 -6.92254 0.861996 0
M  V30 7284 H 692.754 -6.449 -0.278237 0
M  V30 7285 H 693.522 -8.13105 0.938247 0
M  V30 7286 N 696.185 0.383891 -1.52853 0
M  V30 7287 C 697.601 0.724316 -1.42218 0
M  V30 7288 C 697.801 1.93943 -0.546654 0
M  V30 7289 O 696.857 2.5249 -0.0220562 0
M  V30 7290 C 698.17 0.954635 -2.85144 0
M  V30 7291 C 699.718 1.05579 -2.94656 0
M  V30 7292 C 700.193 1.3187 -4.38605 0
M  V30 7293 N 701.684 1.38681 -4.41952 0
M  V30 7294 C 702.419 1.60699 -5.50421 0
M  V30 7295 N 701.915 1.80154 -6.68967 0
M  V30 7296 N 703.708 1.6292 -5.37972 0
M  V30 7297 H 695.859 -0.4156 -2.08294 0
M  V30 7298 H 698.122 -0.123776 -0.939885 0
M  V30 7299 H 697.828 0.133829 -3.51445 0
M  V30 7300 H 697.702 1.86788 -3.27704 0
M  V30 7301 H 700.089 1.86716 -2.2852 0
M  V30 7302 H 700.17 0.120338 -2.55517 0
M  V30 7303 H 699.814 0.512416 -5.05309 0
M  V30 7304 H 699.744 2.26708 -4.75301 0
M  V30 7305 H 702.235 1.25334 -3.56511 0
M  V30 7306 H 702.548 1.96476 -7.47407 0
M  V30 7307 H 700.893 1.77368 -6.71986 0
M  V30 7308 H 704.084 1.47276 -4.44328 0
M  V30 7309 H 704.257 1.79739 -6.22574 0
M  V30 7310 N 697.663 1.43903 0.642637 0
M  V30 7311 C 698.912 1.45362 1.39831 0
M  V30 7312 C 699.225 0.0856289 1.95412 0
M  V30 7313 O 700.431 -0.0222856 2.71491 0
M  V30 7314 C 698.887 2.55857 2.53111 0
M  V30 7315 C 698.495 3.98811 2.04092 0
M  V30 7316 C 700.239 2.66524 3.30402 0
M  V30 7317 C 698.146 5.00751 3.14647 0
M  V30 7318 H 697.076 0.540777 0.52543 0
M  V30 7319 H 699.727 1.69929 0.692559 0
M  V30 7320 H 698.109 2.2451 3.26207 0
M  V30 7321 H 699.283 4.3967 1.37938 0
M  V30 7322 H 697.598 3.92284 1.39651 0
M  V30 7323 H 700.195 3.39858 4.12796 0
M  V30 7324 H 700.538 1.71949 3.79129 0
M  V30 7325 H 701.071 2.97224 2.64392 0
M  V30 7326 H 697.81 5.96914 2.70876 0
M  V30 7327 H 697.33 4.64495 3.79479 0
M  V30 7328 H 699.009 5.23933 3.79609 0
M  V30 7329 N 699.141 -0.881989 1.30609 0
M  V30 7330 C 700.088 -1.98803 1.17244 0
M  V30 7331 C 701.058 -1.65987 0.0611905 0
M  V30 7332 O 702.243 -1.89385 0.231911 0
M  V30 7333 C 699.383 -3.33867 0.87333 0
M  V30 7334 C 698.496 -3.79354 2.06675 0
M  V30 7335 C 697.631 -5.03078 1.70547 0
M  V30 7336 C 696.67 -5.40981 2.86366 0
M  V30 7337 N 695.807 -6.55886 2.50514 0
M  V30 7338 H 700.647 -2.09566 2.11863 0
M  V30 7339 H 698.184 -1.02607 1.05405 0
M  V30 7340 H 700.142 -4.11612 0.680519 0
M  V30 7341 H 698.772 -3.2278 -0.0359983 0
M  V30 7342 H 697.824 -2.97492 2.37071 0
M  V30 7343 H 699.136 -4.03382 2.93401 0
M  V30 7344 H 698.29 -5.88457 1.47658 0
M  V30 7345 H 697.029 -4.80927 0.809947 0
M  V30 7346 H 696.034 -4.54127 3.09917 0
M  V30 7347 H 697.259 -5.65104 3.76609 0
M  V30 7348 H 695.205 -6.35306 1.63471 0
M  V30 7349 H 695.122 -6.79799 3.30771 0
M  V30 7350 H 696.39 -7.44489 2.30989 0
M  V30 7351 N 700.619 -1.13374 -1.09472 0
M  V30 7352 C 701.896 -0.806329 -1.78207 0
M  V30 7353 C 702.276 0.702191 -1.99079 0
M  V30 7354 O 701.624 1.63931 -1.59182 0
M  V30 7355 C 701.834 -1.59271 -3.10538 0
M  V30 7356 C 703.182 -1.78509 -3.85253 0
M  V30 7357 O 704.206 -1.55866 -3.20288 0
M  V30 7358 O 703.065 -2.16287 -5.01879 0
M  V30 7359 H 700.159 -0.29435 -0.772843 0
M  V30 7360 H 702.705 -1.23833 -1.16033 0
M  V30 7361 H 701.477 -2.61792 -2.90828 0
M  V30 7362 H 701.1 -1.15562 -3.80436 0
M  V30 7363 N 702.098 1.27442 -0.927168 0
M  V30 7364 C 703.347 1.93679 -0.563146 0
M  V30 7365 C 703.66 1.73673 0.899837 0
M  V30 7366 O 704.866 2.34247 1.37262 0
M  V30 7367 C 703.322 3.46961 -0.95636 0
M  V30 7368 C 702.93 3.75724 -2.43999 0
M  V30 7369 C 704.674 4.19282 -0.663565 0
M  V30 7370 C 702.581 5.22378 -2.77263 0
M  V30 7371 H 701.511 0.725059 -0.206894 0
M  V30 7372 H 704.162 1.44743 -1.12791 0
M  V30 7373 H 702.544 3.94703 -0.320254 0
M  V30 7374 H 703.718 3.38741 -3.12396 0
M  V30 7375 H 702.033 3.16605 -2.70463 0
M  V30 7376 H 704.63 5.27265 -0.888596 0
M  V30 7377 H 704.973 4.14382 0.399198 0
M  V30 7378 H 705.506 3.7736 -1.25875 0
M  V30 7379 H 702.245 5.32367 -3.82446 0
M  V30 7380 H 701.765 5.6051 -2.13516 0
M  V30 7381 H 703.444 5.9025 -2.64979 0
M  V30 7382 N 703.576 0.692616 1.41565 0
M  V30 7383 C 704.992 0.363878 1.55397 0
M  V30 7384 C 705.192 -1.1294 1.66874 0
M  V30 7385 O 704.248 -1.91517 1.64552 0
M  V30 7386 C 705.561 1.10982 2.7947 0
M  V30 7387 C 707.109 1.09387 2.93263 0
M  V30 7388 C 707.584 1.8215 4.20221 0
M  V30 7389 N 709.075 1.79105 4.27172 0
M  V30 7390 C 709.81 2.32247 5.2426 0
M  V30 7391 N 709.306 2.93847 6.27396 0
M  V30 7392 N 711.099 2.22519 5.1618 0
M  V30 7393 H 703.25 1.66116 1.3236 0
M  V30 7394 H 705.513 0.700848 0.63837 0
M  V30 7395 H 705.219 2.1647 2.77188 0
M  V30 7396 H 705.093 0.686492 3.709 0
M  V30 7397 H 707.48 0.0472638 2.95062 0
M  V30 7398 H 707.561 1.55623 2.03015 0
M  V30 7399 H 707.205 2.86789 4.19183 0
M  V30 7400 H 707.135 1.33351 5.09436 0
M  V30 7401 H 709.626 1.34191 3.53272 0
M  V30 7402 H 709.939 3.31972 6.97864 0
M  V30 7403 H 708.284 2.97924 6.27906 0
M  V30 7404 H 711.475 1.7407 4.34531 0
M  V30 7405 H 711.648 2.64239 5.91677 0
M  V30 7406 N 705.054 -1.51416 0.437162 0
M  V30 7407 C 705.987 -2.24309 -0.419602 0
M  V30 7408 C 706.965 -1.26236 -1.02485 0
M  V30 7409 O 708.149 -1.5537 -1.06735 0
M  V30 7410 C 705.276 -2.99335 -1.58482 0
M  V30 7411 C 704.322 -4.12064 -1.10027 0
M  V30 7412 S 705.155 -5.35483 -0.0424476 0
M  V30 7413 C 706.311 -6.14047 -1.21234 0
M  V30 7414 H 706.544 -2.96632 0.199259 0
M  V30 7415 H 704.077 -1.528 0.22168 0
M  V30 7416 H 706.035 -3.43159 -2.25282 0
M  V30 7417 H 704.696 -2.26602 -2.17509 0
M  V30 7418 H 703.889 -4.63836 -1.97161 0
M  V30 7419 H 703.491 -3.70499 -0.510507 0
M  V30 7420 H 705.783 -6.43123 -2.13072 0
M  V30 7421 H 706.726 -7.04279 -0.734582 0
M  V30 7422 H 707.134 -5.45538 -1.45082 0
M  V30 7423 N 706.532 -0.168513 -1.56696 0
M  V30 7424 C 707.465 0.801477 -2.13662 0
M  V30 7425 C 708.443 1.22786 -1.06594 0
M  V30 7426 O 709.627 1.32014 -1.34554 0
M  V30 7427 C 706.754 2.07896 -2.6739 0
M  V30 7428 C 705.8 1.79681 -3.86803 0
M  V30 7429 S 706.633 0.968556 -5.26668 0
M  V30 7430 C 707.789 2.25676 -5.83799 0
M  V30 7431 H 708.022 0.317121 -2.95604 0
M  V30 7432 H 705.555 0.0461132 -1.54331 0
M  V30 7433 H 707.513 2.81272 -2.98992 0
M  V30 7434 H 706.174 2.53445 -1.85539 0
M  V30 7435 H 705.367 2.74461 -4.22714 0
M  V30 7436 H 704.969 1.14402 -3.56073 0
M  V30 7437 H 707.261 3.2116 -5.96542 0
M  V30 7438 H 708.204 1.94238 -6.80939 0
M  V30 7439 H 708.612 2.37308 -5.12197 0
M  V30 7440 N 708.01 1.57248 0.105221 0
M  V30 7441 C 709.24 1.89492 0.823175 0
M  V30 7442 C 709.648 0.75934 1.73294 0
M  V30 7443 O 708.991 -0.278182 1.81581 0
M  V30 7444 C 709.053 3.16891 1.69765 0
M  V30 7445 C 708.717 4.46787 0.960769 0
M  V30 7446 C 709.714 5.19061 0.295218 0
M  V30 7447 C 707.399 4.93467 0.937854 0
M  V30 7448 C 709.393 6.36246 -0.383393 0
M  V30 7449 C 707.08 6.10566 0.255452 0
M  V30 7450 C 708.078 6.81804 -0.404003 0
M  V30 7451 O 707.766 7.96673 -1.07549 0
M  V30 7452 H 707.498 0.631512 0.24118 0
M  V30 7453 H 710.052 2.05203 0.0899655 0
M  V30 7454 H 708.282 2.973 2.47285 0
M  V30 7455 H 709.971 3.35046 2.29126 0
M  V30 7456 H 710.737 4.84044 0.304448 0
M  V30 7457 H 706.616 4.37913 1.44058 0
M  V30 7458 H 710.16 6.91787 -0.898696 0
M  V30 7459 H 706.057 6.45039 0.244032 0
M  V30 7460 H 706.825 8.12596 -0.981355 0
M  V30 7461 N 709.488 -0.375779 1.53054 0
M  V30 7462 C 710.736 -1.11727 1.68409 0
M  V30 7463 C 711.057 -1.90127 0.43323 0
M  V30 7464 O 710.327 -1.87945 -0.552595 0
M  V30 7465 H 708.907 -0.415451 0.620813 0
M  V30 7466 H 711.569 -0.424869 1.90213 0
M  V30 7467 H 710.665 -1.8128 2.54055 0
M  V30 7468 N 710.966 -1.44241 -0.634997 0
M  V30 7469 C 712.212 -1.47038 -1.39669 0
M  V30 7470 C 712.545 -0.101122 -1.93937 0
M  V30 7471 O 711.82 0.880699 -1.73418 0
M  V30 7472 C 712.103 -2.52763 -2.56482 0
M  V30 7473 C 711.956 -3.99032 -2.07589 0
M  V30 7474 C 713.275 -2.55031 -3.58674 0
M  V30 7475 H 710.394 -0.53537 -0.506506 0
M  V30 7476 H 713.036 -1.75898 -0.718317 0
M  V30 7477 H 711.186 -2.28284 -3.14354 0
M  V30 7478 H 712.858 -4.3463 -1.54577 0
M  V30 7479 H 711.101 -4.10994 -1.38804 0
M  V30 7480 H 711.772 -4.68649 -2.91671 0
M  V30 7481 H 714.248 -2.76893 -3.10595 0
M  V30 7482 H 713.124 -3.30916 -4.37934 0
M  V30 7483 H 713.385 -1.59085 -4.12486 0
M  V30 7484 N 712.444 0.87505 -1.31075 0
M  V30 7485 C 713.669 1.66583 -1.23551 0
M  V30 7486 C 714.094 1.87067 0.19686 0
M  V30 7487 O 713.452 1.40877 1.1412 0
M  V30 7488 C 713.5 3.01401 -1.97965 0
M  V30 7489 O 712.604 3.90923 -1.31351 0
M  V30 7490 H 711.945 0.508645 -0.426821 0
M  V30 7491 H 714.475 1.09139 -1.7306 0
M  V30 7492 H 714.485 3.51374 -2.07366 0
M  V30 7493 H 713.16 2.85812 -3.02133 0
M  V30 7494 H 711.737 3.49369 -1.30368 0
M  V30 7495 N 713.922 1.13953 1.08869 0
M  V30 7496 C 715.333 0.916649 1.62648 0
M  V30 7497 C 715.684 -0.545589 1.88462 0
M  V30 7498 O 714.809 -1.41351 1.63856 0
M  V30 7499 C 715.404 1.65751 2.95486 0
M  V30 7500 C 713.963 1.48034 3.46068 0
M  V30 7501 C 713.11 1.68305 2.20383 0
M  V30 7502 H 716.061 1.292 0.921572 0
M  V30 7503 H 716.082 1.11794 3.63707 0
M  V30 7504 H 715.594 2.72171 2.76667 0
M  V30 7505 H 713.695 0.439416 3.7 0
M  V30 7506 H 713.808 2.24719 4.23129 0
M  V30 7507 H 712.172 1.10833 2.29321 0
M  V30 7508 H 712.955 2.76057 2.04077 0
M  V30 7509 N 715.4 -1.26948 0.933913 0
M  V30 7510 C 716.646 -1.94716 0.587985 0
M  V30 7511 C 717.001 -1.71994 -0.862312 0
M  V30 7512 O 716.294 -1.04208 -1.60783 0
M  V30 7513 C 716.488 -3.46963 0.857406 0
M  V30 7514 C 716.317 -3.84489 2.33234 0
M  V30 7515 C 715.087 -4.07621 2.98618 0
M  V30 7516 C 717.285 -3.93602 3.31031 0
M  V30 7517 N 715.267 -4.31976 4.362 0
M  V30 7518 C 716.638 -4.22404 4.53845 0
M  V30 7519 C 718.693 -3.76201 3.26155 0
M  V30 7520 C 717.396 -4.35615 5.72391 0
M  V30 7521 C 719.422 -3.90641 4.4402 0
M  V30 7522 C 718.784 -4.19835 5.65613 0
M  V30 7523 H 714.883 -0.735586 0.2654 0
M  V30 7524 H 717.467 -1.53181 1.20182 0
M  V30 7525 H 715.638 -3.87442 0.27268 0
M  V30 7526 H 717.37 -4.01921 0.47348 0
M  V30 7527 H 714.125 -4.02696 2.49264 0
M  V30 7528 H 714.549 -4.48199 5.07392 0
M  V30 7529 H 719.191 -3.52665 2.3321 0
M  V30 7530 H 716.909 -4.57975 6.65796 0
M  V30 7531 H 720.495 -3.78589 4.41771 0
M  V30 7532 H 719.375 -4.30765 6.55295 0
M  V30 7533 N 716.879 -0.700114 -1.41195 0
M  V30 7534 C 718.127 -0.232546 -2.00758 0
M  V30 7535 C 718.448 1.1734 -1.55745 0
M  V30 7536 O 717.718 1.79262 -0.790058 0
M  V30 7537 H 716.298 -0.0829845 -0.742376 0
M  V30 7538 H 718.96 -0.902289 -1.72756 0
M  V30 7539 H 718.056 -0.253521 -3.11069 0
M  V30 7540 N 718.357 1.51182 -0.445186 0
M  V30 7541 C 719.634 1.9478 0.178965 0
M  V30 7542 C 720.014 1.38428 1.59376 0
M  V30 7543 O 719.362 0.574552 2.21159 0
M  V30 7544 C 719.572 3.48683 0.148711 0
M  V30 7545 C 720.92 4.23152 0.35042 0
M  V30 7546 O 721.944 3.55479 0.226474 0
M  V30 7547 O 720.803 5.4322 0.597893 0
M  V30 7548 H 717.897 0.817387 0.12573 0
M  V30 7549 H 720.443 1.62051 -0.503729 0
M  V30 7550 H 719.215 3.82176 -0.84009 0
M  V30 7551 H 718.838 3.87875 0.873979 0
M  V30 7552 N 719.835 0.176821 1.56605 0
M  V30 7553 C 721.06 -0.47599 2.01864 0
M  V30 7554 C 721.485 -1.55645 1.05623 0
M  V30 7555 O 720.843 -1.81263 0.0366729 0
M  V30 7556 C 720.891 -1.02619 3.4569 0
M  V30 7557 O 719.995 -2.13996 3.52533 0
M  V30 7558 H 719.336 -0.113363 0.654251 0
M  V30 7559 H 721.866 0.28233 2.02643 0
M  V30 7560 H 721.876 -1.34742 3.85109 0
M  V30 7561 H 720.551 -0.235138 4.15235 0
M  V30 7562 H 719.128 -1.82876 3.24978 0
M  V30 7563 N 721.313 -1.57302 -0.09688 0
M  V30 7564 C 722.724 -1.7496 -0.651595 0
M  V30 7565 C 723.075 -0.798746 -1.79205 0
M  V30 7566 O 722.2 0.0231858 -2.16388 0
M  V30 7567 C 722.795 -3.17259 -1.18878 0
M  V30 7568 C 721.354 -3.36348 -1.68958 0
M  V30 7569 C 720.501 -2.70766 -0.598413 0
M  V30 7570 H 723.452 -1.58173 0.12918 0
M  V30 7571 H 723.473 -3.20033 -2.05814 0
M  V30 7572 H 722.985 -3.8644 -0.358523 0
M  V30 7573 H 721.086 -2.72243 -2.5439 0
M  V30 7574 H 721.199 -4.44654 -1.7838 0
M  V30 7575 H 719.563 -2.32615 -1.03743 0
M  V30 7576 H 720.346 -3.42586 0.221238 0
M  V30 7577 N 722.791 0.367657 -1.53252 0
M  V30 7578 C 724.04 1.10782 -1.68554 0
M  V30 7579 C 724.353 1.90523 -0.442765 0
M  V30 7580 O 725.559 2.6729 -0.47629 0
M  V30 7581 C 724.015 2.01863 -2.97959 0
M  V30 7582 C 723.623 1.27443 -4.29491 0
M  V30 7583 C 725.367 2.75883 -3.22628 0
M  V30 7584 C 723.274 2.17414 -5.49987 0
M  V30 7585 H 722.204 0.417272 -0.628013 0
M  V30 7586 H 724.855 0.368971 -1.79752 0
M  V30 7587 H 723.237 2.7947 -2.80558 0
M  V30 7588 H 724.411 0.549138 -4.57516 0
M  V30 7589 H 722.726 0.652935 -4.11249 0
M  V30 7590 H 725.323 3.43421 -4.09837 0
M  V30 7591 H 725.666 3.41138 -2.38601 0
M  V30 7592 H 726.199 2.0536 -3.40693 0
M  V30 7593 H 722.938 1.5674 -6.36485 0
M  V30 7594 H 722.458 2.87799 -5.26243 0
M  V30 7595 H 724.137 2.77019 -5.84696 0
M  V30 7596 N 724.269 1.44576 0.627338 0
M  V30 7597 C 725.546 1.38033 1.38586 0
M  V30 7598 C 725.926 0.0409468 2.1106 0
M  V30 7599 O 725.274 -0.976582 2.0658 0
M  V30 7600 C 725.484 2.58102 2.34913 0
M  V30 7601 C 726.832 3.02332 2.98129 0
M  V30 7602 O 727.856 2.58334 2.45238 0
M  V30 7603 O 726.715 3.78628 3.94085 0
M  V30 7604 H 723.809 0.546801 0.620434 0
M  V30 7605 H 726.355 1.56672 0.652077 0
M  V30 7606 H 725.127 3.4719 1.80485 0
M  V30 7607 H 724.75 2.41696 3.15703 0
M  V30 7608 N 725.747 -0.868086 1.31537 0
M  V30 7609 C 726.994 -1.62127 1.2133 0
M  V30 7610 C 727.322 -1.93158 -0.2281 0
M  V30 7611 O 726.577 -1.5632 -1.1774 0
M  V30 7612 C 726.876 -2.95889 2.0046 0
M  V30 7613 C 726.542 -2.84343 3.49943 0
M  V30 7614 C 725.204 -2.80901 3.90702 0
M  V30 7615 C 727.556 -2.71243 4.45058 0
M  V30 7616 C 724.884 -2.6222 5.24841 0
M  V30 7617 C 727.236 -2.54098 5.79325 0
M  V30 7618 C 725.9 -2.4904 6.19302 0
M  V30 7619 H 725.17 -0.593265 0.443979 0
M  V30 7620 H 727.817 -1.00803 1.62822 0
M  V30 7621 H 726.122 -3.61259 1.51655 0
M  V30 7622 H 727.819 -3.53161 1.89942 0
M  V30 7623 H 724.409 -2.8784 3.17563 0
M  V30 7624 H 728.593 -2.72956 4.14498 0
M  V30 7625 H 723.849 -2.56731 5.54887 0
M  V30 7626 H 728.023 -2.42938 6.52652 0
M  V30 7627 H 725.65 -2.34324 7.23185 0
M  V30 7628 N 727.225 -1.14528 -1.08264 0
M  V30 7629 C 728.135 -0.84728 -2.18765 0
M  V30 7630 C 729.151 0.172826 -1.7314 0
M  V30 7631 O 730.327 0.000985336 -2.014 0
M  V30 7632 C 727.392 -0.330633 -3.4512 0
M  V30 7633 C 726.453 -1.41348 -4.05363 0
M  V30 7634 C 725.686 -0.921387 -5.25686 0
M  V30 7635 O 725.909 0.236587 -5.69909 0
M  V30 7636 O 724.843 -1.70101 -5.77364 0
M  V30 7637 H 728.669 -1.7708 -2.46731 0
M  V30 7638 H 726.254 -0.923661 -1.17426 0
M  V30 7639 H 728.136 -0.0485053 -4.21372 0
M  V30 7640 H 726.811 0.565147 -3.18728 0
M  V30 7641 H 725.718 -1.74908 -3.30693 0
M  V30 7642 H 727.051 -2.28383 -4.36007 0
M  V30 7643 N 728.703 1.26451 -0.940633 0
M  V30 7644 C 729.98 1.88947 -0.505811 0
M  V30 7645 C 730.36 1.85011 1.01657 0
M  V30 7646 O 729.708 1.30406 1.87634 0
M  V30 7647 C 729.918 3.32304 -1.06654 0
M  V30 7648 C 731.266 4.09153 -1.13486 0
M  V30 7649 O 732.29 3.41371 -1.01708 0
M  V30 7650 O 731.149 5.30369 -1.31797 0
M  V30 7651 H 728.243 0.810422 -0.164759 0
M  V30 7652 H 730.789 1.34625 -1.03316 0
M  V30 7653 H 729.561 3.29527 -2.11015 0
M  V30 7654 H 729.184 3.94164 -0.521603 0
M  V30 7655 N 730.181 0.707592 1.40822 0
M  V30 7656 C 731.406 0.251626 2.05868 0
M  V30 7657 C 731.831 -1.09503 1.5294 0
M  V30 7658 O 731.189 -1.68806 0.661385 0
M  V30 7659 C 731.237 0.23287 3.59847 0
M  V30 7660 O 730.341 -0.788477 4.04792 0
M  V30 7661 H 729.682 0.119936 0.653078 0
M  V30 7662 H 732.212 0.96583 1.80369 0
M  V30 7663 H 732.222 0.0678204 4.07944 0
M  V30 7664 H 730.897 1.21565 3.97737 0
M  V30 7665 H 729.474 -0.591802 3.68174 0
M  V30 7666 N 731.66 -1.50943 0.453197 0
M  V30 7667 C 732.623 -2.26684 -0.338705 0
M  V30 7668 C 733.623 -1.30748 -0.936032 0
M  V30 7669 O 734.813 -1.54327 -0.808002 0
M  V30 7670 C 731.945 -3.07063 -1.48071 0
M  V30 7671 H 733.138 -2.98131 0.325289 0
M  V30 7672 H 730.691 -1.54926 0.206771 0
M  V30 7673 H 731.426 -2.4007 -2.18029 0
M  V30 7674 H 731.211 -3.77545 -1.0584 0
M  V30 7675 H 732.701 -3.64393 -2.0398 0
M  V30 7676 N 733.138 -0.185124 -1.56509 0
M  V30 7677 C 734.088 0.752315 -2.15231 0
M  V30 7678 C 735.072 1.18327 -1.0903 0
M  V30 7679 O 736.264 1.14333 -1.35119 0
M  V30 7680 C 733.393 1.97583 -2.80742 0
M  V30 7681 C 732.479 1.56623 -3.94119 0
M  V30 7682 N 732.87 0.867008 -4.98314 0
M  V30 7683 C 731.168 1.85626 -4.05535 0
M  V30 7684 C 731.869 0.663228 -5.77907 0
M  V30 7685 N 730.845 1.20891 -5.29987 0
M  V30 7686 H 734.647 0.209267 -2.93154 0
M  V30 7687 H 732.161 0.0150444 -1.62393 0
M  V30 7688 H 734.158 2.65779 -3.21197 0
M  V30 7689 H 732.818 2.52369 -2.04303 0
M  V30 7690 H 733.829 0.52355 -5.15247 0
M  V30 7691 H 730.506 2.41992 -3.40215 0
M  V30 7692 H 731.896 0.109273 -6.71811 0
M  V30 7693 N 734.616 1.57351 0.0885366 0
M  V30 7694 C 735.862 1.86696 0.791996 0
M  V30 7695 C 736.195 0.775148 1.78059 0
M  V30 7696 O 735.47 -0.216247 1.93294 0
M  V30 7697 C 735.753 3.26684 1.51491 0
M  V30 7698 C 735.606 4.465 0.543858 0
M  V30 7699 C 736.925 3.64664 2.46391 0
M  V30 7700 H 734.044 0.679049 0.286463 0
M  V30 7701 H 736.686 1.89919 0.0554866 0
M  V30 7702 H 734.836 3.24067 2.14273 0
M  V30 7703 H 736.508 4.61235 -0.0774597 0
M  V30 7704 H 734.751 4.33567 -0.142228 0
M  V30 7705 H 735.422 5.41192 1.08696 0
M  V30 7706 H 737.898 3.68267 1.93698 0
M  V30 7707 H 736.774 4.63534 2.93986 0
M  V30 7708 H 737.035 2.93698 3.30445 0
M  V30 7709 N 736.094 -0.359525 1.53444 0
M  V30 7710 C 737.505 -0.936009 1.61542 0
M  V30 7711 C 737.856 -1.90069 0.486633 0
M  V30 7712 O 736.981 -2.12929 -0.386047 0
M  V30 7713 C 737.576 -1.70441 2.92806 0
M  V30 7714 C 736.135 -2.23015 3.03218 0
M  V30 7715 C 735.282 -1.04438 2.56881 0
M  V30 7716 H 738.233 -0.138134 1.58098 0
M  V30 7717 H 738.254 -2.56609 2.80948 0
M  V30 7718 H 737.766 -1.00205 3.74941 0
M  V30 7719 H 735.867 -2.96475 2.25684 0
M  V30 7720 H 735.98 -2.50481 4.08407 0
M  V30 7721 H 734.344 -1.41314 2.11902 0
M  V30 7722 H 735.127 -0.356905 3.4144 0
M  V30 7723 N 737.572 -1.44907 -0.619662 0
M  V30 7724 C 738.812 -1.49822 -1.39042 0
M  V30 7725 C 739.176 -0.131803 -1.91547 0
M  V30 7726 O 740.377 -0.0556413 -2.68742 0
M  V30 7727 C 738.648 -2.53805 -2.5163 0
M  V30 7728 S 740.207 -2.77855 -3.3962 0
M  V30 7729 H 737.025 -0.529774 -0.474195 0
M  V30 7730 H 739.627 -1.81907 -0.716236 0
M  V30 7731 H 738.331 -3.51772 -2.11387 0
M  V30 7732 H 737.862 -2.23331 -3.23863 0
M  V30 7733 H 739.877 -2.10319 -4.49422 0
M  V30 7734 N 739.05 0.861098 -1.31996 0
M  V30 7735 C 740.461 1.43065 -1.19955 0
M  V30 7736 C 740.812 1.95273 0.190489 0
M  V30 7737 O 739.937 1.87012 1.08882 0
M  V30 7738 C 740.532 2.60052 -2.1716 0
M  V30 7739 C 739.091 3.13026 -2.09026 0
M  V30 7740 C 738.238 1.85756 -2.05888 0
M  V30 7741 H 741.189 0.668834 -1.43918 0
M  V30 7742 H 741.21 3.37016 -1.76637 0
M  V30 7743 H 740.722 2.22024 -3.18319 0
M  V30 7744 H 738.823 3.55653 -1.11092 0
M  V30 7745 H 738.936 3.74707 -2.98549 0
M  V30 7746 H 737.3 2.05088 -1.51033 0
M  V30 7747 H 738.083 1.49954 -3.08818 0
M  V30 7748 N 740.528 1.15101 1.07655 0
M  V30 7749 C 741.944 0.893004 1.32279 0
M  V30 7750 C 742.144 -0.461701 1.96139 0
M  V30 7751 O 741.2 -1.20431 2.21929 0
M  V30 7752 C 742.513 2.03161 2.21689 0
M  V30 7753 C 744.061 2.06579 2.35147 0
M  V30 7754 C 744.536 3.19754 3.27905 0
M  V30 7755 N 746.027 3.19382 3.35484 0
M  V30 7756 C 746.762 4.03592 4.07309 0
M  V30 7757 N 746.258 4.97859 4.81776 0
M  V30 7758 N 748.051 3.91626 4.03219 0
M  V30 7759 H 740.202 2.02341 0.645886 0
M  V30 7760 H 742.465 0.882127 0.347211 0
M  V30 7761 H 742.171 3.00934 1.82021 0
M  V30 7762 H 742.045 1.96132 3.22199 0
M  V30 7763 H 744.432 1.09408 2.74069 0
M  V30 7764 H 744.513 2.17676 1.34353 0
M  V30 7765 H 744.157 4.17175 2.89702 0
M  V30 7766 H 744.087 3.05893 4.28645 0
M  V30 7767 H 746.578 2.51112 2.82403 0
M  V30 7768 H 746.891 5.58563 5.34067 0
M  V30 7769 H 745.236 5.0185 4.80803 0
M  V30 7770 H 748.427 3.17295 3.44154 0
M  V30 7771 H 748.6 4.57479 4.5893 0
M  V30 7772 N 742.006 -1.2595 0.947325 0
M  V30 7773 C 743.254 -1.93081 0.596996 0
M  V30 7774 C 743.575 -1.74632 -0.867672 0
M  V30 7775 O 742.845 -1.1056 -1.6172 0
M  V30 7776 H 741.425 -0.714542 0.217805 0
M  V30 7777 H 744.087 -1.53265 1.20398 0
M  V30 7778 H 743.183 -3.01134 0.82004 0
M  V30 7779 N 743.484 -0.715051 -1.40445 0
M  V30 7780 C 744.434 -0.038591 -2.27967 0
M  V30 7781 C 745.418 0.733099 -1.43229 0
M  V30 7782 O 746.61 0.605388 -1.66325 0
M  V30 7783 C 743.739 0.882801 -3.31755 0
M  V30 7784 C 742.825 0.106325 -4.23967 0
M  V30 7785 N 743.216 -0.910143 -4.97544 0
M  V30 7786 C 741.514 0.33896 -4.4471 0
M  V30 7787 C 742.215 -1.37665 -5.65175 0
M  V30 7788 N 741.191 -0.698905 -5.39088 0
M  V30 7789 H 744.993 -0.81765 -2.82297 0
M  V30 7790 H 742.507 -0.547591 -1.5289 0
M  V30 7791 H 744.504 1.38273 -3.93302 0
M  V30 7792 H 743.164 1.66124 -2.78985 0
M  V30 7793 H 744.175 -1.29097 -5.01552 0
M  V30 7794 H 740.852 1.09377 -4.02918 0
M  V30 7795 H 742.242 -2.22122 -6.34123 0
M  V30 7796 N 744.962 1.50701 -0.461195 0
M  V30 7797 C 746.208 2.02566 0.0973411 0
M  V30 7798 C 746.541 1.3432 1.40257 0
M  V30 7799 O 745.816 0.465692 1.88843 0
M  V30 7800 C 746.099 3.58919 0.291423 0
M  V30 7801 C 745.952 4.37751 -1.03413 0
M  V30 7802 C 747.271 4.27379 1.05048 0
M  V30 7803 H 744.39 0.73622 0.0339026 0
M  V30 7804 H 747.032 1.80115 -0.604855 0
M  V30 7805 H 745.182 3.78179 0.889539 0
M  V30 7806 H 746.854 4.30085 -1.66806 0
M  V30 7807 H 745.097 4.01885 -1.63313 0
M  V30 7808 H 745.768 5.45384 -0.852085 0
M  V30 7809 H 748.244 4.12534 0.543603 0
M  V30 7810 H 747.12 5.36609 1.15506 0
M  V30 7811 H 747.381 3.89868 2.0846 0
M  V30 7812 N 746.441 0.193421 1.56409 0
M  V30 7813 C 747.69 -0.445995 1.96707 0
M  V30 7814 C 748.003 -1.62876 1.08309 0
M  V30 7815 O 749.209 -2.33586 1.38383 0
M  V30 7816 C 747.665 -0.844863 3.49843 0
M  V30 7817 C 747.273 0.31352 4.46902 0
M  V30 7818 C 749.017 -1.45146 3.98915 0
M  V30 7819 C 746.924 -0.106214 5.91305 0
M  V30 7820 H 745.854 -0.170398 0.734493 0
M  V30 7821 H 748.505 0.285172 1.81271 0
M  V30 7822 H 746.887 -1.63265 3.60778 0
M  V30 7823 H 748.061 1.09103 4.47698 0
M  V30 7824 H 746.376 0.8315 4.08014 0
M  V30 7825 H 748.973 -1.77792 5.04276 0
M  V30 7826 H 749.316 -2.35734 3.43126 0
M  V30 7827 H 749.849 -0.727675 3.91088 0
M  V30 7828 H 746.588 0.765442 6.51016 0
M  V30 7829 H 746.108 -0.848623 5.93766 0
M  V30 7830 H 747.787 -0.542588 6.44721 0
M  V30 7831 N 747.919 -1.57396 -0.0801906 0
M  V30 7832 C 748.882 -2.02133 -1.0805 0
M  V30 7833 C 749.882 -0.91707 -1.32085 0
M  V30 7834 O 751.072 -1.18217 -1.27947 0
M  V30 7835 C 748.204 -2.39479 -2.42616 0
M  V30 7836 H 749.397 -2.91733 -0.6951 0
M  V30 7837 H 746.95 -1.52869 -0.325677 0
M  V30 7838 H 747.685 -1.52879 -2.86004 0
M  V30 7839 H 747.47 -3.20052 -2.26515 0
M  V30 7840 H 748.96 -2.74697 -3.14534 0
M  V30 7841 N 749.397 0.351382 -1.53633 0
M  V30 7842 C 750.36 1.41403 -1.80383 0
M  V30 7843 C 751.36 1.45963 -0.674635 0
M  V30 7844 O 752.55 1.46476 -0.942895 0
M  V30 7845 C 749.682 2.80401 -1.93876 0
M  V30 7846 H 750.875 1.18951 -2.75301 0
M  V30 7847 H 748.428 0.58533 -1.44926 0
M  V30 7848 H 749.163 3.08147 -1.01074 0
M  V30 7849 H 748.948 2.78488 -2.7602 0
M  V30 7850 H 750.438 3.57329 -2.16116 0
M  V30 7851 N 750.875 1.45233 0.611969 0
M  V30 7852 C 752.291 1.29542 0.932251 0
M  V30 7853 C 752.491 0.24523 2.00002 0
M  V30 7854 O 751.547 -0.362333 2.49887 0
M  V30 7855 C 752.86 2.67301 1.37733 0
M  V30 7856 C 754.408 2.75163 1.49178 0
M  V30 7857 C 754.883 4.13437 1.97064 0
M  V30 7858 N 756.374 4.15709 2.04304 0
M  V30 7859 C 757.109 5.19566 2.42568 0
M  V30 7860 N 756.605 6.33771 2.79832 0
M  V30 7861 N 758.398 5.06923 2.42869 0
M  V30 7862 H 750.549 2.12192 -0.0938679 0
M  V30 7863 H 752.812 0.947775 0.0206569 0
M  V30 7864 H 752.518 3.45318 0.666951 0
M  V30 7865 H 752.392 2.95472 2.3447 0
M  V30 7866 H 754.779 1.97453 2.19309 0
M  V30 7867 H 754.86 2.50712 0.507674 0
M  V30 7868 H 754.504 4.91631 1.27521 0
M  V30 7869 H 754.434 4.35277 2.9638 0
M  V30 7870 H 756.925 3.33293 1.78113 0
M  V30 7871 H 757.238 7.08815 3.07898 0
M  V30 7872 H 755.583 6.37179 2.77538 0
M  V30 7873 H 758.774 4.1675 2.1316 0
M  V30 7874 H 758.947 5.87981 2.72364 0
M  V30 7875 N 752.353 -0.854086 1.3245 0
M  V30 7876 C 753.602 -1.60318 1.22397 0
M  V30 7877 C 753.915 -1.9444 -0.212664 0
M  V30 7878 O 755.121 -2.67991 -0.435066 0
M  V30 7879 C 753.577 -2.8909 2.1437 0
M  V30 7880 C 753.185 -2.62391 3.63119 0
M  V30 7881 C 754.929 -3.67104 2.13155 0
M  V30 7882 C 752.836 -3.87167 4.47052 0
M  V30 7883 H 751.766 -0.601586 0.454544 0
M  V30 7884 H 754.417 -0.943023 1.57415 0
M  V30 7885 H 752.799 -3.56567 1.72268 0
M  V30 7886 H 753.973 -2.03222 4.13567 0
M  V30 7887 H 752.288 -1.97706 3.66471 0
M  V30 7888 H 754.885 -4.59696 2.731 0
M  V30 7889 H 755.228 -4.00876 1.12268 0
M  V30 7890 H 755.761 -3.06533 2.5354 0
M  V30 7891 H 752.5 -3.58536 5.48755 0
M  V30 7892 H 752.02 -4.45729 4.01355 0
M  V30 7893 H 753.699 -4.549 4.60081 0
M  V30 7894 N 753.831 -1.1567 -1.07043 0
M  V30 7895 C 755.059 -0.957471 -1.83412 0
M  V30 7896 C 755.474 0.494271 -1.82215 0
M  V30 7897 O 754.831 1.34288 -1.23584 0
M  V30 7898 C 754.882 -1.46784 -3.30359 0
M  V30 7899 O 754.603 -2.86271 -3.31633 0
M  V30 7900 C 756.104 -1.31054 -4.23485 0
M  V30 7901 H 753.324 -0.33986 -0.578564 0
M  V30 7902 H 755.868 -1.53518 -1.35102 0
M  V30 7903 H 754.023 -0.932586 -3.76007 0
M  V30 7904 H 754.437 -3.0948 -4.23465 0
M  V30 7905 H 755.911 -1.71605 -5.24648 0
M  V30 7906 H 756.388 -0.255107 -4.38458 0
M  V30 7907 H 756.994 -1.83503 -3.83676 0
M  V30 7908 N 755.309 1.25446 -0.953992 0
M  V30 7909 C 756.534 1.97755 -0.625129 0
M  V30 7910 C 756.959 1.70437 0.795787 0
M  V30 7911 O 756.317 0.95992 1.53803 0
M  V30 7912 C 756.365 3.49463 -0.889251 0
M  V30 7913 O 755.469 4.12387 0.0322757 0
M  V30 7914 H 754.81 0.61998 -0.237742 0
M  V30 7915 H 757.34 1.59582 -1.28041 0
M  V30 7916 H 757.35 3.99772 -0.815263 0
M  V30 7917 H 756.025 3.68676 -1.92487 0
M  V30 7918 H 754.602 3.72782 -0.0938625 0
M  V30 7919 N 756.787 0.722489 1.40064 0
M  V30 7920 C 757.697 0.0755984 2.34478 0
M  V30 7921 C 758.713 -0.736046 1.57665 0
M  V30 7922 O 759.889 -0.667407 1.9002 0
M  V30 7923 C 756.954 -0.830075 3.36616 0
M  V30 7924 C 756.015 -0.00759884 4.29299 0
M  V30 7925 C 755.248 -0.870139 5.26559 0
M  V30 7926 O 755.471 -2.10921 5.2997 0
M  V30 7927 O 754.405 -0.305454 6.01124 0
M  V30 7928 H 758.231 0.854545 2.9143 0
M  V30 7929 H 755.816 0.483032 1.41376 0
M  V30 7930 H 757.698 -1.34864 3.99236 0
M  V30 7931 H 756.373 -1.58805 2.82069 0
M  V30 7932 H 755.28 0.556199 3.69942 0
M  V30 7933 H 756.613 0.712312 4.87018 0
M  V30 7934 N 758.265 -1.50454 0.469181 0
M  V30 7935 C 759.213 -2.30101 -0.340033 0
M  V30 7936 C 760.207 -1.37306 -0.992135 0
M  V30 7937 O 761.413 -1.54506 -0.923458 0
M  V30 7938 H 757.788 -0.740941 -0.128495 0
M  V30 7939 H 759.759 -2.96315 0.352144 0
M  V30 7940 C 758.508 -3.17804 -1.41052 0
M  V30 7941 H 757.831 -3.89115 -0.918124 0
M  V30 7942 H 759.271 -3.76533 -1.94934 0
M  V30 7943 C 757.73 -2.35272 -2.4114 0
M  V30 7944 O 758.26 -2.03448 -3.4637 0
M  V30 7945 N 756.466 -1.97889 -2.1281 0
M  V30 7946 H 756.013 -2.2397 -1.27261 0
M  V30 7947 H 755.971 -1.42971 -2.80012 0
M  V30 7948 N 759.743 -0.201713 -1.56304 0
M  V30 7949 C 761.154 0.309711 -1.84113 0
M  V30 7950 C 761.505 1.60912 -1.12258 0
M  V30 7951 O 760.63 2.12937 -0.385587 0
M  V30 7952 C 761.225 0.568706 -3.33993 0
M  V30 7953 C 759.784 1.02448 -3.6219 0
M  V30 7954 C 758.931 0.0766842 -2.77194 0
M  V30 7955 H 761.882 -0.425356 -1.52893 0
M  V30 7956 H 761.903 1.41721 -3.53122 0
M  V30 7957 H 761.415 -0.37719 -3.86263 0
M  V30 7958 H 759.516 1.98443 -3.15359 0
M  V30 7959 H 759.629 0.912619 -4.70328 0
M  V30 7960 H 757.993 0.579809 -2.48013 0
M  V30 7961 H 758.776 -0.863774 -3.32256 0
M  V30 7962 N 761.222 1.57436 0.0718424 0
M  V30 7963 C 762.499 1.78312 0.804006 0
M  V30 7964 C 762.879 0.789273 1.9579 0
M  V30 7965 O 762.227 -0.177605 2.27809 0
M  V30 7966 C 762.437 3.24798 1.277 0
M  V30 7967 C 763.785 3.88627 1.71039 0
M  V30 7968 O 764.809 3.28689 1.37266 0
M  V30 7969 O 763.668 4.94073 2.33567 0
M  V30 7970 H 760.762 0.73178 0.385262 0
M  V30 7971 H 763.308 1.69621 0.0519219 0
M  V30 7972 H 762.08 3.88688 0.45134 0
M  V30 7973 H 761.703 3.38213 2.0904 0
M  V30 7974 N 762.7 -0.34323 1.53817 0
M  V30 7975 C 763.61 -1.44493 1.84821 0
M  V30 7976 C 764.626 -1.57556 0.738381 0
M  V30 7977 O 765.802 -1.73026 1.03072 0
M  V30 7978 C 762.867 -2.79478 2.05166 0
M  V30 7979 C 761.928 -2.75756 3.29025 0
M  V30 7980 C 761.161 -4.04302 3.4839 0
M  V30 7981 O 761.384 -5.01595 2.71586 0
M  V30 7982 O 760.318 -4.08754 4.41819 0
M  V30 7983 H 764.144 -1.21209 2.78464 0
M  V30 7984 H 761.729 -0.535437 1.39476 0
M  V30 7985 H 763.611 -3.59419 2.19991 0
M  V30 7986 H 762.286 -3.02692 1.14713 0
M  V30 7987 H 761.193 -1.94434 3.19603 0
M  V30 7988 H 762.526 -2.57495 4.19472 0
M  V30 7989 N 764.178 -1.45556 -0.604258 0
M  V30 7990 C 765.426 -1.4945 -1.36048 0
M  V30 7991 C 765.747 -0.138933 -1.94504 0
M  V30 7992 O 765.017 0.832097 -1.7735 0
M  V30 7993 H 763.597 -0.550381 -0.505064 0
M  V30 7994 H 766.259 -1.81535 -0.709308 0
M  V30 7995 H 765.355 -2.23519 -2.17821 0
M  V30 7996 N 765.656 0.84705 -1.32902 0
M  V30 7997 C 766.903 1.60176 -1.23894 0
M  V30 7998 C 767.231 1.93496 0.197341 0
M  V30 7999 O 766.486 1.58173 1.15238 0
M  V30 8000 C 766.785 2.92663 -2.05142 0
M  V30 8001 C 766.451 2.7874 -3.54422 0
M  V30 8002 C 765.113 2.7465 -3.95121 0
M  V30 8003 C 767.465 2.64128 -4.49317 0
M  V30 8004 C 764.793 2.53837 -5.28946 0
M  V30 8005 C 767.145 2.44849 -5.83294 0
M  V30 8006 C 765.809 2.39156 -6.23186 0
M  V30 8007 H 765.079 0.586127 -0.453361 0
M  V30 8008 H 767.726 0.981994 -1.64405 0
M  V30 8009 H 766.031 3.588 -1.57383 0
M  V30 8010 H 767.728 3.50095 -1.95537 0
M  V30 8011 H 764.318 2.82751 -3.22102 0
M  V30 8012 H 768.502 2.66327 -4.18788 0
M  V30 8013 H 763.758 2.4787 -5.58901 0
M  V30 8014 H 767.932 2.32524 -6.56434 0
M  V30 8015 H 765.559 2.22789 -7.26821 0
M  V30 8016 N 767.134 1.16236 1.06428 0
M  V30 8017 C 768.081 0.86769 2.13869 0
M  V30 8018 C 769.051 -0.183298 1.65086 0
M  V30 8019 O 770.236 -0.0488002 1.90738 0
M  V30 8020 C 767.376 0.373427 3.43074 0
M  V30 8021 C 766.489 1.48708 4.05598 0
M  V30 8022 C 765.624 0.947977 5.22673 0
M  V30 8023 C 764.663 2.03793 5.77178 0
M  V30 8024 N 763.8 1.51451 6.85571 0
M  V30 8025 H 768.64 1.78781 2.38414 0
M  V30 8026 H 766.177 0.891892 1.16977 0
M  V30 8027 H 768.135 0.0685035 4.17144 0
M  V30 8028 H 766.765 -0.509752 3.1875 0
M  V30 8029 H 765.817 1.908 3.29089 0
M  V30 8030 H 767.129 2.30964 4.42105 0
M  V30 8031 H 766.283 0.596154 6.03764 0
M  V30 8032 H 765.022 0.0947081 4.87608 0
M  V30 8033 H 764.027 2.39847 4.94726 0
M  V30 8034 H 765.252 2.89514 6.14295 0
M  V30 8035 H 763.198 0.683755 6.52427 0
M  V30 8036 H 763.115 2.27325 7.21013 0
M  V30 8037 H 764.383 1.19123 7.70344 0
M  V30 8038 N 768.612 -1.24939 0.960631 0
M  V30 8039 C 770.023 -1.74701 0.658529 0
M  V30 8040 C 770.374 -1.77967 -0.825959 0
M  V30 8041 O 769.499 -1.40444 -1.64634 0
M  V30 8042 C 770.094 -3.17263 1.18867 0
M  V30 8043 C 768.653 -3.64561 0.936614 0
M  V30 8044 C 767.8 -2.43423 1.32817 0
M  V30 8045 H 770.751 -1.10741 1.13676 0
M  V30 8046 H 770.772 -3.76481 0.551589 0
M  V30 8047 H 770.284 -3.14854 2.26912 0
M  V30 8048 H 768.385 -3.72378 -0.128608 0
M  V30 8049 H 768.498 -4.52392 1.57729 0
M  V30 8050 H 766.862 -2.43513 0.746548 0
M  V30 8051 H 767.645 -2.437 2.41796 0
M  V30 8052 N 770.09 -0.729906 -1.39679 0
M  V30 8053 C 771.315 -0.284345 -2.05442 0
M  V30 8054 C 771.74 1.07056 -1.54663 0
M  V30 8055 O 771.098 1.67732 -0.688157 0
M  V30 8056 C 771.146 -0.290089 -3.59431 0
M  V30 8057 O 770.25 0.723978 -4.05995 0
M  V30 8058 H 769.591 -0.130311 -0.651088 0
M  V30 8059 H 772.121 -0.994403 -1.78809 0
M  V30 8060 H 772.131 -0.132712 -4.07784 0
M  V30 8061 H 770.806 -1.27877 -3.95753 0
M  V30 8062 H 769.383 0.533154 -3.69069 0
M  V30 8063 N 771.568 1.50203 -0.477153 0
M  V30 8064 C 772.793 2.07263 0.0754986 0
M  V30 8065 C 773.218 1.33801 1.32208 0
M  V30 8066 O 772.576 0.387482 1.77111 0
M  V30 8067 C 772.624 3.59028 0.336348 0
M  V30 8068 O 771.728 3.87339 1.4157 0
M  V30 8069 H 771.069 0.663815 -0.015662 0
M  V30 8070 H 773.599 1.93321 -0.669936 0
M  V30 8071 H 773.609 4.03927 0.575034 0
M  V30 8072 H 772.284 4.11912 -0.574551 0
M  V30 8073 H 770.861 3.54272 1.16385 0
M  V30 8074 N 773.046 0.209999 1.56195 0
M  V30 8075 C 774.294 -0.423974 1.97603 0
M  V30 8076 C 774.615 -1.61112 1.09854 0
M  V30 8077 O 773.885 -1.95134 0.173032 0
M  V30 8078 H 772.465 -0.159629 0.729745 0
M  V30 8079 H 775.127 0.300205 1.92574 0
M  V30 8080 H 774.223 -0.75809 3.02753 0
M  V30 8081 N 774.524 -1.57472 -0.0634922 0
M  V30 8082 C 775.752 -1.91887 -0.773767 0
M  V30 8083 C 776.167 -0.806733 -1.70696 0
M  V30 8084 O 775.524 0.219383 -1.81177 0
M  V30 8085 C 775.575 -3.26092 -1.56034 0
M  V30 8086 O 775.296 -4.33029 -0.66464 0
M  V30 8087 C 776.797 -3.74573 -2.37087 0
M  V30 8088 H 774.017 -0.634074 -0.219525 0
M  V30 8089 H 776.561 -2.04476 -0.0312828 0
M  V30 8090 H 774.716 -3.15004 -2.25502 0
M  V30 8091 H 775.13 -5.10291 -1.21258 0
M  V30 8092 H 776.604 -4.71084 -2.87722 0
M  V30 8093 H 777.081 -3.04003 -3.16984 0
M  V30 8094 H 777.687 -3.88631 -1.72759 0
M  V30 8095 N 776.003 0.335068 -1.53997 0
M  V30 8096 C 777.249 1.07594 -1.71905 0
M  V30 8097 C 777.582 1.88039 -0.485264 0
M  V30 8098 O 776.857 1.87482 0.517752 0
M  V30 8099 C 777.14 2.01016 -2.98772 0
M  V30 8100 C 776.993 1.23977 -4.32377 0
M  V30 8101 C 778.312 3.0071 -3.21343 0
M  V30 8102 H 775.431 0.38976 -0.625505 0
M  V30 8103 H 778.073 0.353684 -1.86679 0
M  V30 8104 H 776.223 2.62603 -2.86307 0
M  V30 8105 H 777.895 0.649383 -4.56706 0
M  V30 8106 H 776.138 0.541878 -4.30402 0
M  V30 8107 H 776.809 1.92512 -5.17342 0
M  V30 8108 H 779.285 2.4924 -3.33194 0
M  V30 8109 H 778.161 3.63272 -4.11491 0
M  V30 8110 H 778.422 3.72549 -2.38033 0
M  V30 8111 N 777.481 1.45874 0.596531 0
M  V30 8112 C 778.413 1.51408 1.7207 0
M  V30 8113 C 779.426 0.403738 1.57714 0
M  V30 8114 O 780.615 0.671384 1.65393 0
M  V30 8115 C 777.715 1.3652 3.10186 0
M  V30 8116 C 776.888 2.61428 3.50677 0
M  V30 8117 C 775.947 2.40937 4.67799 0
M  V30 8118 O 774.973 3.14602 4.74357 0
M  V30 8119 N 776.175 1.4621 5.61785 0
M  V30 8120 H 778.94 2.48333 1.67782 0
M  V30 8121 H 776.501 1.41755 0.782129 0
M  V30 8122 H 778.493 1.20606 3.86311 0
M  V30 8123 H 777.063 0.478302 3.08919 0
M  V30 8124 H 776.283 2.92381 2.644 0
M  V30 8125 H 777.571 3.44432 3.74491 0
M  V30 8126 H 776.969 0.854382 5.59211 0
M  V30 8127 H 775.526 1.36264 6.37397 0
M  V30 8128 N 778.959 -0.83999 1.33349 0
M  V30 8129 C 779.869 -1.98182 1.25543 0
M  V30 8130 C 780.885 -1.73204 0.166208 0
M  V30 8131 O 782.061 -1.97596 0.389589 0
M  V30 8132 C 779.126 -3.32157 0.993614 0
M  V30 8133 C 778.187 -3.70258 2.17273 0
M  V30 8134 C 777.42 -4.9784 1.92331 0
M  V30 8135 O 777.643 -5.63679 0.873074 0
M  V30 8136 O 776.577 -5.33418 2.78835 0
M  V30 8137 H 780.403 -2.07708 2.21565 0
M  V30 8138 H 777.988 -0.972852 1.13384 0
M  V30 8139 H 779.87 -4.12433 0.864711 0
M  V30 8140 H 778.545 -3.23637 0.0636596 0
M  V30 8141 H 777.452 -2.90497 2.35716 0
M  V30 8142 H 778.785 -3.83442 3.08598 0
M  V30 8143 N 780.437 -1.16799 -1.0581 0
M  V30 8144 C 781.367 -0.902241 -2.15364 0
M  V30 8145 C 782.348 0.153351 -1.69407 0
M  V30 8146 O 783.533 0.00442032 -1.94199 0
M  V30 8147 C 780.663 -0.407911 -3.44896 0
M  V30 8148 C 779.617 -1.40197 -4.04387 0
M  V30 8149 C 778.943 -0.765848 -5.29187 0
M  V30 8150 C 780.243 -2.77316 -4.42598 0
M  V30 8151 H 781.937 -1.81841 -2.37853 0
M  V30 8152 H 779.483 -0.875731 -1.14311 0
M  V30 8153 H 781.436 -0.20945 -4.20879 0
M  V30 8154 H 780.16 0.54378 -3.22041 0
M  V30 8155 H 778.819 -1.58707 -3.30466 0
M  V30 8156 H 778.467 0.192482 -5.02632 0
M  V30 8157 H 778.167 -1.42939 -5.69949 0
M  V30 8158 H 779.691 -0.577519 -6.07863 0
M  V30 8159 H 781.105 -2.62561 -5.09642 0
M  V30 8160 H 779.502 -3.4019 -4.94359 0
M  V30 8161 H 780.572 -3.32199 -3.53231 0
M  V30 8162 N 781.915 1.24427 -0.967243 0
M  V30 8163 C 782.863 2.27403 -0.488927 0
M  V30 8164 C 783.857 1.63388 0.447302 0
M  V30 8165 O 785.063 1.77085 0.322643 0
M  V30 8166 H 781.438 0.738921 -0.139643 0
M  V30 8167 H 783.409 2.65122 -1.36942 0
M  V30 8168 C 782.158 3.4709 0.205787 0
M  V30 8169 H 781.481 3.96591 -0.50551 0
M  V30 8170 H 782.921 4.2099 0.504296 0
M  V30 8171 C 781.38 3.04923 1.43261 0
M  V30 8172 O 781.91 3.12043 2.52967 0
M  V30 8173 N 780.116 2.59976 1.29849 0
M  V30 8174 H 779.663 2.54382 0.405876 0
M  V30 8175 H 779.621 2.32128 2.12047 0
M  V30 8176 N 783.393 0.737304 1.3929 0
M  V30 8177 C 784.64 0.286257 2.00467 0
M  V30 8178 C 784.968 -1.1272 1.58507 0
M  V30 8179 O 784.223 -1.7832 0.806257 0
M  V30 8180 C 784.522 0.338438 3.55794 0
M  V30 8181 C 784.188 1.70524 4.17411 0
M  V30 8182 C 782.85 2.07934 4.33955 0
M  V30 8183 C 785.202 2.60256 4.51571 0
M  V30 8184 C 782.53 3.34578 4.81948 0
M  V30 8185 C 784.882 3.86275 5.00974 0
M  V30 8186 C 783.546 4.23774 5.15725 0
M  V30 8187 H 782.816 0.104749 0.733559 0
M  V30 8188 H 785.463 0.944598 1.66582 0
M  V30 8189 H 783.768 -0.403478 3.89717 0
M  V30 8190 H 785.465 -0.0287255 4.0099 0
M  V30 8191 H 782.055 1.40439 4.04938 0
M  V30 8192 H 786.239 2.32624 4.38406 0
M  V30 8193 H 781.495 3.63572 4.91554 0
M  V30 8194 H 785.669 4.5596 5.26378 0
M  V30 8195 H 783.296 5.21972 5.52674 0
M  V30 8196 N 784.871 -1.49948 0.485112 0
M  V30 8197 C 786.287 -1.58984 0.140096 0
M  V30 8198 C 786.487 -1.49194 -1.35438 0
M  V30 8199 O 785.543 -1.35765 -2.12894 0
M  V30 8200 C 786.856 -2.92372 0.702769 0
M  V30 8201 C 788.404 -3.05801 0.66745 0
M  V30 8202 C 788.879 -4.41785 1.20791 0
M  V30 8203 N 790.37 -4.48234 1.16792 0
M  V30 8204 C 791.105 -5.51871 1.55646 0
M  V30 8205 N 790.601 -6.62692 2.02016 0
M  V30 8206 N 792.394 -5.42494 1.47161 0
M  V30 8207 H 784.545 -1.54555 1.45693 0
M  V30 8208 H 786.808 -0.731206 0.603359 0
M  V30 8209 H 786.514 -3.05056 1.75025 0
M  V30 8210 H 786.388 -3.76885 0.154205 0
M  V30 8211 H 788.775 -2.92757 -0.371157 0
M  V30 8212 H 788.856 -2.23011 1.25298 0
M  V30 8213 H 788.5 -4.55579 2.24522 0
M  V30 8214 H 788.43 -5.23188 0.598464 0
M  V30 8215 H 790.921 -3.68718 0.827982 0
M  V30 8216 H 791.234 -7.3785 2.29775 0
M  V30 8217 H 789.579 -6.63775 2.05979 0
M  V30 8218 H 792.77 -4.54806 1.10765 0
M  V30 8219 H 792.943 -6.2314 1.77766 0
M  V30 8220 N 786.349 -0.21828 -1.56081 0
M  V30 8221 C 787.574 0.422302 -2.03055 0
M  V30 8222 C 787.999 1.5279 -1.09713 0
M  V30 8223 O 787.357 1.81102 -0.0847187 0
M  V30 8224 C 787.405 0.934177 -3.48289 0
M  V30 8225 O 786.509 2.04574 -3.58083 0
M  V30 8226 H 785.85 0.0959764 -0.657027 0
M  V30 8227 H 788.38 -0.335958 -2.01823 0
M  V30 8228 H 788.39 1.24484 -3.88546 0
M  V30 8229 H 787.065 0.124963 -4.15712 0
M  V30 8230 H 785.642 1.74196 -3.29712 0
M  V30 8231 N 787.827 1.57504 0.0551401 0
M  V30 8232 C 788.775 2.05884 1.08233 0
M  V30 8233 C 789.769 0.967383 1.39061 0
M  V30 8234 O 790.975 1.15242 1.38273 0
M  V30 8235 H 787.35 0.656673 0.366449 0
M  V30 8236 H 789.321 2.91273 0.648269 0
M  V30 8237 C 788.07 2.53221 2.38273 0
M  V30 8238 H 787.393 3.36809 2.15406 0
M  V30 8239 H 788.833 2.9081 3.08554 0
M  V30 8240 C 787.292 1.42218 3.05411 0
M  V30 8241 O 787.822 0.773638 3.9418 0
M  V30 8242 N 786.028 1.16316 2.66306 0
M  V30 8243 H 785.575 1.69237 1.94207 0
M  V30 8244 H 785.533 0.422534 3.11548 0
M  V30 8245 N 789.305 -0.326896 1.54172 0
M  V30 8246 C 790.252 -1.40216 1.83325 0
M  V30 8247 C 791.222 -1.51538 0.680107 0
M  V30 8248 O 792.407 -1.66811 0.926206 0
M  V30 8249 C 789.547 -2.76626 2.0633 0
M  V30 8250 C 788.66 -2.73963 3.34019 0
M  V30 8251 C 787.795 -4.02198 3.47002 0
M  V30 8252 C 786.834 -3.93828 4.68578 0
M  V30 8253 N 785.971 -5.13787 4.78506 0
M  V30 8254 H 790.811 -1.14656 2.7506 0
M  V30 8255 H 788.348 -0.555089 1.36225 0
M  V30 8256 H 790.306 -3.55922 2.17659 0
M  V30 8257 H 788.936 -3.00503 1.1789 0
M  V30 8258 H 787.988 -1.86677 3.31445 0
M  V30 8259 H 789.3 -2.6366 4.2342 0
M  V30 8260 H 788.454 -4.89923 3.57855 0
M  V30 8261 H 787.193 -4.15302 2.55687 0
M  V30 8262 H 786.198 -3.04487 4.57786 0
M  V30 8263 H 787.423 -3.82292 5.61275 0
M  V30 8264 H 785.369 -5.27403 3.90105 0
M  V30 8265 H 785.286 -5.05807 5.61868 0
M  V30 8266 H 786.554 -6.03236 4.93686 0
M  V30 8267 N 790.784 -1.46188 -0.588786 0
M  V30 8268 C 791.732 -1.56653 -1.71938 0
M  V30 8269 C 792.726 -0.435354 -1.6371 0
M  V30 8270 O 793.932 -0.611996 -1.69277 0
M  V30 8271 H 790.307 -0.492408 -0.568365 0
M  V30 8272 H 792.278 -2.51724 -1.60242 0
M  V30 8273 C 791.027 -1.56822 -3.10326 0
M  V30 8274 H 790.35 -2.43198 -3.17325 0
M  V30 8275 H 791.79 -1.68199 -3.89211 0
M  V30 8276 C 790.249 -0.295802 -3.35599 0
M  V30 8277 O 790.779 0.616515 -3.96941 0
M  V30 8278 N 788.985 -0.185609 -2.90007 0
M  V30 8279 H 788.532 -0.928914 -2.40269 0
M  V30 8280 H 788.49 0.664883 -3.07289 0
M  V30 8281 N 792.262 0.832906 -1.33792 0
M  V30 8282 C 793.508 1.59089 -1.25772 0
M  V30 8283 C 793.841 1.93414 0.174601 0
M  V30 8284 O 793.116 1.59195 1.11746 0
M  V30 8285 C 793.399 2.89699 -2.13885 0
M  V30 8286 C 793.252 2.62017 -3.65605 0
M  V30 8287 C 794.571 3.91182 -2.01654 0
M  V30 8288 H 791.69 0.577232 -0.458227 0
M  V30 8289 H 794.332 0.960227 -1.6395 0
M  V30 8290 H 792.482 3.4352 -1.81456 0
M  V30 8291 H 794.154 2.14582 -4.08353 0
M  V30 8292 H 792.397 1.95621 -3.87189 0
M  V30 8293 H 793.068 3.55112 -4.2261 0
M  V30 8294 H 795.544 3.46684 -2.30107 0
M  V30 8295 H 794.42 4.80391 -2.65548 0
M  V30 8296 H 794.681 4.30861 -0.990536 0
M  V30 8297 N 793.74 1.17359 1.05189 0
M  V30 8298 C 794.986 0.973414 1.78595 0
M  V30 8299 C 795.341 -0.492713 1.85984 0
M  V30 8300 O 794.634 -1.361 1.3486 0
M  V30 8301 C 794.828 1.54821 3.22126 0
M  V30 8302 C 794.657 3.06871 3.28725 0
M  V30 8303 C 793.427 3.75602 3.38011 0
M  V30 8304 C 795.625 4.04467 3.17665 0
M  V30 8305 N 793.607 5.15257 3.33741 0
M  V30 8306 C 794.978 5.30574 3.20766 0
M  V30 8307 C 797.033 3.96138 3.01627 0
M  V30 8308 C 795.736 6.49319 3.09479 0
M  V30 8309 C 797.762 5.14467 2.91681 0
M  V30 8310 C 797.124 6.3946 2.95416 0
M  V30 8311 H 793.223 0.410092 0.665844 0
M  V30 8312 H 795.807 1.48944 1.25395 0
M  V30 8313 H 793.978 1.05853 3.73697 0
M  V30 8314 H 795.71 1.28467 3.83768 0
M  V30 8315 H 792.465 3.26282 3.43273 0
M  V30 8316 H 792.889 5.88263 3.35076 0
M  V30 8317 H 797.531 3.00345 2.97578 0
M  V30 8318 H 795.249 7.45322 3.12283 0
M  V30 8319 H 798.835 5.09803 2.80343 0
M  V30 8320 H 797.715 7.29483 2.87792 0
M  V30 8321 N 795.218 -1.23913 0.973828 0
M  V30 8322 C 796.466 -1.91771 0.637817 0
M  V30 8323 C 796.787 -1.76434 -0.830435 0
M  V30 8324 O 796.057 -1.13965 -1.59339 0
M  V30 8325 H 794.637 -0.709761 0.232912 0
M  V30 8326 H 797.299 -1.50677 1.23622 0
M  V30 8327 H 796.395 -2.99327 0.883731 0
M  V30 8328 N 796.696 -0.74468 -1.38897 0
M  V30 8329 C 797.926 -0.306982 -2.04307 0
M  V30 8330 C 798.334 1.06652 -1.56275 0
M  V30 8331 O 797.677 1.68699 -0.72708 0
M  V30 8332 C 797.739 -0.241186 -3.5869 0
M  V30 8333 C 797.403 -1.55476 -4.2974 0
M  V30 8334 C 798.4 -2.50229 -4.55721 0
M  V30 8335 C 796.085 -1.82173 -4.68101 0
M  V30 8336 C 798.079 -3.69905 -5.19085 0
M  V30 8337 C 795.766 -3.02125 -5.31191 0
M  V30 8338 C 796.764 -3.95812 -5.56616 0
M  V30 8339 O 796.452 -5.13656 -6.18395 0
M  V30 8340 H 796.184 -0.130416 -0.663301 0
M  V30 8341 H 798.738 -1.01192 -1.78744 0
M  V30 8342 H 796.968 0.519925 -3.83189 0
M  V30 8343 H 798.657 0.165806 -4.05561 0
M  V30 8344 H 799.423 -2.30877 -4.26522 0
M  V30 8345 H 795.302 -1.10091 -4.47662 0
M  V30 8346 H 798.846 -4.43047 -5.38846 0
M  V30 8347 H 794.743 -3.21374 -5.59811 0
M  V30 8348 H 795.511 -5.14119 -6.36886 0
M  V30 8349 N 798.174 1.49689 -0.493057 0
M  V30 8350 C 799.421 2.02427 0.0542714 0
M  V30 8351 C 799.749 1.37339 1.37725 0
M  V30 8352 O 799.004 0.495523 1.89323 0
M  V30 8353 C 799.303 3.56427 0.263536 0
M  V30 8354 C 798.969 4.40111 -0.98046 0
M  V30 8355 C 797.631 4.62699 -1.32148 0
M  V30 8356 C 799.983 4.88847 -1.80771 0
M  V30 8357 C 797.311 5.31268 -2.48941 0
M  V30 8358 C 799.663 5.587 -2.96711 0
M  V30 8359 C 798.327 5.79536 -3.31202 0
M  V30 8360 H 797.597 0.740734 0.0198593 0
M  V30 8361 H 800.244 1.80073 -0.651603 0
M  V30 8362 H 798.549 3.77416 1.05186 0
M  V30 8363 H 800.246 3.94819 0.701348 0
M  V30 8364 H 796.836 4.22765 -0.704814 0
M  V30 8365 H 801.02 4.71231 -1.55741 0
M  V30 8366 H 796.276 5.45603 -2.75911 0
M  V30 8367 H 800.45 5.9544 -3.61143 0
M  V30 8368 H 798.077 6.32443 -4.21805 0
M  V30 8369 N 799.652 0.226554 1.55963 0
M  V30 8370 C 800.877 -0.411527 2.03276 0
M  V30 8371 C 801.302 -1.52206 1.10521 0
M  V30 8372 O 800.66 -1.81054 0.0943217 0
M  V30 8373 C 800.708 -0.915694 3.4878 0
M  V30 8374 O 799.812 -2.02672 3.59163 0
M  V30 8375 H 799.153 -0.0924907 0.657527 0
M  V30 8376 H 801.683 0.346656 2.01642 0
M  V30 8377 H 801.693 -1.22421 3.892 0
M  V30 8378 H 800.368 -0.102915 4.15773 0
M  V30 8379 H 798.945 -1.72445 3.30632 0
M  V30 8380 N 801.13 -1.57531 -0.0467866 0
M  V30 8381 C 802.376 -1.8873 -0.742218 0
M  V30 8382 C 802.709 -0.822084 -1.75941 0
M  V30 8383 O 801.984 0.164922 -1.938 0
M  V30 8384 C 802.267 -3.30586 -1.42776 0
M  V30 8385 C 802.12 -4.47785 -0.425285 0
M  V30 8386 C 803.439 -3.71068 -2.36636 0
M  V30 8387 H 800.558 -0.686406 -0.268359 0
M  V30 8388 H 803.2 -1.89999 -0.00511341 0
M  V30 8389 H 801.35 -3.29634 -2.05605 0
M  V30 8390 H 803.022 -4.60867 0.199721 0
M  V30 8391 H 801.265 -4.33037 0.25713 0
M  V30 8392 H 801.936 -5.43884 -0.943086 0
M  V30 8393 H 804.412 -3.73273 -1.83866 0
M  V30 8394 H 803.288 -4.71165 -2.81593 0
M  V30 8395 H 803.549 -3.02355 -3.22542 0
M  V30 8396 N 802.608 0.318715 -1.54344 0
M  V30 8397 C 803.571 1.37545 -1.83342 0
M  V30 8398 C 804.571 1.445 -0.705444 0
M  V30 8399 O 805.761 1.44443 -0.973752 0
M  V30 8400 C 802.893 2.76225 -1.99781 0
M  V30 8401 H 804.086 1.13084 -2.77762 0
M  V30 8402 H 801.639 0.554457 -1.46135 0
M  V30 8403 H 802.374 3.05934 -1.07588 0
M  V30 8404 H 802.159 2.7257 -2.81865 0
M  V30 8405 H 803.649 3.52664 -2.23647 0
M  V30 8406 N 804.086 1.46499 0.581025 0
M  V30 8407 C 805.049 1.5677 1.672 0
M  V30 8408 C 806.049 0.444716 1.54528 0
M  V30 8409 O 807.239 0.709074 1.59116 0
M  V30 8410 C 804.371 1.4896 3.06633 0
M  V30 8411 H 805.564 2.54 1.5945 0
M  V30 8412 H 803.117 1.34334 0.799003 0
M  V30 8413 H 803.852 0.530168 3.19937 0
M  V30 8414 H 803.637 2.30439 3.17239 0
M  V30 8415 H 805.127 1.59237 3.86048 0
M  V30 8416 N 805.565 -0.825799 1.34232 0
M  V30 8417 C 806.528 -1.91808 1.25468 0
M  V30 8418 C 807.528 -1.59893 0.170567 0
M  V30 8419 O 808.718 -1.68986 0.422996 0
M  V30 8420 C 805.85 -3.27786 0.93644 0
M  V30 8421 H 807.043 -2.01003 2.22571 0
M  V30 8422 H 804.596 -1.01944 1.18479 0
M  V30 8423 H 805.331 -3.24285 -0.0315408 0
M  V30 8424 H 805.116 -3.52333 1.72057 0
M  V30 8425 H 806.606 -4.07782 0.900214 0
M  V30 8426 N 807.043 -1.17915 -1.04565 0
M  V30 8427 C 808.291 -0.969505 -1.77327 0
M  V30 8428 C 808.612 0.502569 -1.88412 0
M  V30 8429 O 807.882 1.36467 -1.40547 0
M  V30 8430 H 806.462 -0.355723 -0.656864 0
M  V30 8431 H 809.124 -1.48506 -1.26223 0
M  V30 8432 H 808.22 -1.40324 -2.78775 0
M  V30 8433 N 808.521 1.23394 -0.980386 0
M  V30 8434 C 809.769 1.91431 -0.647978 0
M  V30 8435 C 810.09 1.76871 0.821066 0
M  V30 8436 O 809.36 1.14808 1.58732 0
M  V30 8437 H 807.94 0.708516 -0.236673 0
M  V30 8438 H 810.602 1.50019 -1.2442 0
M  V30 8439 H 809.698 2.98854 -0.899592 0
M  V30 8440 N 809.999 0.752036 1.385 0
M  V30 8441 C 810.929 0.138718 2.33088 0
M  V30 8442 C 811.91 -0.705318 1.54788 0
M  V30 8443 O 813.095 -0.646821 1.83112 0
M  V30 8444 C 810.225 -0.75641 3.38963 0
M  V30 8445 C 809.179 -0.0152239 4.27997 0
M  V30 8446 C 808.505 -1.0285 5.24715 0
M  V30 8447 C 809.805 1.15226 5.09431 0
M  V30 8448 H 811.499 0.928852 2.84627 0
M  V30 8449 H 809.045 0.448111 1.3685 0
M  V30 8450 H 810.998 -1.19513 4.04097 0
M  V30 8451 H 809.722 -1.57885 2.85902 0
M  V30 8452 H 808.381 0.404061 3.64366 0
M  V30 8453 H 808.029 -1.84496 4.67943 0
M  V30 8454 H 807.729 -0.537238 5.85139 0
M  V30 8455 H 809.253 -1.46657 5.92726 0
M  V30 8456 H 810.667 0.791161 5.67815 0
M  V30 8457 H 809.064 1.57428 5.79082 0
M  V30 8458 H 810.134 1.9659 4.43261 0
M  V30 8459 N 811.477 -1.49425 0.500989 0
M  V30 8460 C 812.427 -2.26061 -0.296698 0
M  V30 8461 C 813.411 -1.30906 -0.935541 0
M  V30 8462 O 814.603 -1.55628 -0.843142 0
M  V30 8463 C 811.732 -3.15189 -1.36055 0
M  V30 8464 C 810.818 -4.17806 -0.727952 0
M  V30 8465 N 811.209 -5.05516 0.169408 0
M  V30 8466 C 809.507 -4.34907 -0.988535 0
M  V30 8467 C 810.208 -5.79267 0.531509 0
M  V30 8468 N 809.184 -5.43507 -0.100564 0
M  V30 8469 H 812.986 -2.91246 0.394103 0
M  V30 8470 H 810.5 -1.59275 0.317065 0
M  V30 8471 H 812.497 -3.68724 -1.94547 0
M  V30 8472 H 811.157 -2.51556 -2.05303 0
M  V30 8473 H 812.168 -5.15075 0.540218 0
M  V30 8474 H 808.845 -3.82481 -1.67376 0
M  V30 8475 H 810.235 -6.59872 1.26564 0
M  V30 8476 N 812.955 -0.234822 -1.55841 0
M  V30 8477 C 813.865 0.680828 -2.24504 0
M  V30 8478 C 814.881 1.20306 -1.25708 0
M  V30 8479 O 816.057 1.24188 -1.58554 0
M  V30 8480 C 813.122 1.86636 -2.92178 0
M  V30 8481 C 812.183 1.3848 -4.06352 0
M  V30 8482 C 811.416 2.51382 -4.70789 0
M  V30 8483 O 811.639 3.69831 -4.34259 0
M  V30 8484 O 810.573 2.21828 -5.59532 0
M  V30 8485 H 814.399 0.12583 -3.03439 0
M  V30 8486 H 811.984 -0.00381817 -1.494 0
M  V30 8487 H 813.866 2.55845 -3.34845 0
M  V30 8488 H 812.541 2.40921 -2.16192 0
M  V30 8489 H 811.448 0.660341 -3.68226 0
M  V30 8490 H 812.781 0.888177 -4.8412 0
M  V30 8491 N 814.433 1.57553 0.0384317 0
M  V30 8492 C 815.68 1.88841 0.731116 0
M  V30 8493 C 816.008 0.83093 1.75857 0
M  V30 8494 O 815.263 -0.169248 1.94967 0
M  V30 8495 C 815.562 3.26862 1.44554 0
M  V30 8496 C 815.228 4.47472 0.554946 0
M  V30 8497 C 813.89 4.80203 0.309621 0
M  V30 8498 C 816.242 5.21165 -0.0605204 0
M  V30 8499 C 813.57 5.8402 -0.560101 0
M  V30 8500 C 815.922 6.25905 -0.91789 0
M  V30 8501 C 814.586 6.57117 -1.17277 0
M  V30 8502 H 813.856 0.691018 0.267534 0
M  V30 8503 H 816.503 1.91498 -0.00883195 0
M  V30 8504 H 814.808 3.2015 2.25856 0
M  V30 8505 H 816.505 3.48316 1.98688 0
M  V30 8506 H 813.095 4.21874 0.756304 0
M  V30 8507 H 817.279 4.96164 0.116064 0
M  V30 8508 H 812.535 6.06583 -0.765974 0
M  V30 8509 H 816.709 6.82155 -1.40136 0
M  V30 8510 H 814.336 7.37385 -1.84843 0
M  V30 8511 N 815.911 -0.310526 1.54511 0
M  V30 8512 C 816.874 -1.3657 1.84068 0
M  V30 8513 C 817.874 -1.44123 0.713097 0
M  V30 8514 O 819.064 -1.43924 0.981399 0
M  V30 8515 C 816.196 -2.75162 2.01243 0
M  V30 8516 H 817.389 -1.1161 2.78358 0
M  V30 8517 H 814.942 -0.546699 1.46427 0
M  V30 8518 H 815.677 -3.05359 1.09208 0
M  V30 8519 H 815.462 -2.71071 2.83307 0
M  V30 8520 H 816.952 -3.51473 2.25514 0
M  V30 8521 N 817.389 -1.46805 -0.573248 0
M  V30 8522 C 818.666 -1.43082 -1.33368 0
M  V30 8523 C 819.046 -0.119252 -2.10763 0
M  V30 8524 O 818.394 0.899239 -2.10062 0
M  V30 8525 C 818.604 -2.66643 -2.25172 0
M  V30 8526 C 819.952 -3.13188 -2.86702 0
M  V30 8527 O 820.976 -2.67258 -2.35482 0
M  V30 8528 O 819.835 -3.92994 -3.79761 0
M  V30 8529 H 816.929 -0.569451 -0.599712 0
M  V30 8530 H 819.475 -1.58984 -0.59348 0
M  V30 8531 H 818.247 -3.53649 -1.67475 0
M  V30 8532 H 817.87 -2.53247 -3.06516 0
M  V30 8533 N 818.867 0.818669 -1.34668 0
M  V30 8534 C 820.092 1.61193 -1.30505 0
M  V30 8535 C 820.517 1.87734 0.117341 0
M  V30 8536 O 819.875 1.45591 1.08042 0
M  V30 8537 C 819.923 2.92733 -2.1057 0
M  V30 8538 O 819.027 3.85 -1.47813 0
M  V30 8539 H 818.368 0.490085 -0.44801 0
M  V30 8540 H 820.898 1.01701 -1.77534 0
M  V30 8541 H 820.908 3.42262 -2.22082 0
M  V30 8542 H 819.583 2.7274 -3.13984 0
M  V30 8543 H 818.16 3.43525 -1.45069 0
M  V30 8544 N 820.346 1.18468 1.03938 0
M  V30 8545 C 821.278 0.870615 2.12021 0
M  V30 8546 C 822.291 -0.132318 1.62261 0
M  V30 8547 O 823.48 0.0956901 1.78243 0
M  V30 8548 C 820.58 0.279727 3.37744 0
M  V30 8549 C 819.753 1.32863 4.16733 0
M  V30 8550 C 818.812 0.753204 5.20781 0
M  V30 8551 O 817.838 1.42825 5.5099 0
M  V30 8552 N 819.04 -0.448664 5.78764 0
M  V30 8553 H 821.805 1.80091 2.39556 0
M  V30 8554 H 819.366 1.08524 1.20142 0
M  V30 8555 H 821.358 -0.118829 4.04526 0
M  V30 8556 H 819.928 -0.554621 3.07641 0
M  V30 8557 H 819.148 1.90245 3.45254 0
M  V30 8558 H 820.436 2.03574 4.66299 0
M  V30 8559 H 819.834 -1.01481 5.56523 0
M  V30 8560 H 818.391 -0.789125 6.47005 0
M  V30 8561 N 821.824 -1.22873 0.986916 0
M  V30 8562 C 823.071 -1.91462 0.659424 0
M  V30 8563 C 823.399 -1.76931 -0.807825 0
M  V30 8564 O 822.654 -1.12829 -1.59901 0
M  V30 8565 C 822.953 -3.43014 1.00379 0
M  V30 8566 C 822.619 -3.77731 2.46232 0
M  V30 8567 C 821.281 -3.86918 2.86091 0
M  V30 8568 C 823.633 -3.94343 3.40798 0
M  V30 8569 C 820.961 -4.10149 4.19518 0
M  V30 8570 C 823.313 -4.19076 4.73875 0
M  V30 8571 C 821.977 -4.26486 5.13484 0
M  V30 8572 H 821.247 -0.700611 0.2413 0
M  V30 8573 H 823.894 -1.45763 1.24199 0
M  V30 8574 H 822.199 -3.90329 0.339226 0
M  V30 8575 H 823.896 -3.94327 0.728518 0
M  V30 8576 H 820.486 -3.71159 2.14334 0
M  V30 8577 H 824.67 -3.86629 3.11178 0
M  V30 8578 H 819.926 -4.1411 4.49803 0
M  V30 8579 H 824.1 -4.30873 5.47102 0
M  V30 8580 H 821.727 -4.4424 6.16891 0
M  V30 8581 N 823.302 -0.75937 -1.38099 0
M  V30 8582 C 824.55 -0.317485 -1.99591 0
M  V30 8583 C 824.871 1.10628 -1.60581 0
M  V30 8584 O 824.141 1.7575 -0.865378 0
M  V30 8585 H 822.721 -0.114397 -0.738189 0
M  V30 8586 H 825.383 -0.974749 -1.68774 0
M  V30 8587 H 824.479 -0.385227 -3.09713 0
M  V30 8588 N 824.78 1.49157 -0.508906 0
M  V30 8589 C 825.73 2.26215 0.284705 0
M  V30 8590 C 826.714 1.31401 0.928586 0
M  V30 8591 O 827.906 1.56073 0.834877 0
M  V30 8592 C 825.035 3.15906 1.34382 0
M  V30 8593 C 824.121 4.18186 0.705785 0
M  V30 8594 N 824.512 5.05419 -0.196214 0
M  V30 8595 C 822.81 4.35425 0.965457 0
M  V30 8596 C 823.511 5.78977 -0.562222 0
M  V30 8597 N 822.487 5.43553 0.0717389 0
M  V30 8598 H 826.289 2.91033 -0.409543 0
M  V30 8599 H 823.803 1.59104 -0.325508 0
M  V30 8600 H 825.8 3.6975 1.92589 0
M  V30 8601 H 824.46 2.52642 2.03966 0
M  V30 8602 H 825.471 5.14781 -0.567526 0
M  V30 8603 H 822.148 3.83363 1.65346 0
M  V30 8604 H 823.538 6.59192 -1.30062 0
M  V30 8605 N 826.258 0.243083 1.55714 0
M  V30 8606 C 827.498 -0.384303 2.00755 0
M  V30 8607 C 827.862 -1.55406 1.12752 0
M  V30 8608 O 829.063 -2.24892 1.47231 0
M  V30 8609 C 827.334 -0.787419 3.48618 0
M  V30 8610 S 828.893 -1.40587 4.15669 0
M  V30 8611 H 825.711 -0.121088 0.700613 0
M  V30 8612 H 828.313 0.357423 1.92205 0
M  V30 8613 H 827.017 0.0732892 4.10335 0
M  V30 8614 H 826.548 -1.56142 3.61086 0
M  V30 8615 H 828.563 -2.69493 4.16639 0
M  V30 8616 N 827.736 -1.57571 -0.0300757 0
M  V30 8617 C 828.983 -1.89226 -0.721091 0
M  V30 8618 C 829.311 -0.840244 -1.75414 0
M  V30 8619 O 828.566 0.158906 -1.95054 0
M  V30 8620 C 828.865 -3.27624 -1.42818 0
M  V30 8621 C 828.531 -4.4776 -0.531208 0
M  V30 8622 C 827.193 -4.8036 -0.28415 0
M  V30 8623 C 829.545 -5.21125 0.0881582 0
M  V30 8624 C 826.873 -5.83715 0.591065 0
M  V30 8625 C 829.225 -6.2541 0.95107 0
M  V30 8626 C 827.889 -6.56486 1.2076 0
M  V30 8627 H 827.159 -0.692428 -0.263866 0
M  V30 8628 H 829.806 -1.91491 0.0189874 0
M  V30 8629 H 828.111 -3.21343 -2.24155 0
M  V30 8630 H 829.808 -3.49365 -1.96838 0
M  V30 8631 H 826.398 -4.2227 -0.73392 0
M  V30 8632 H 830.582 -4.96219 -0.0897496 0
M  V30 8633 H 825.838 -6.06168 0.798132 0
M  V30 8634 H 830.012 -6.81402 1.43751 0
M  V30 8635 H 827.639 -7.36395 1.88751 0
M  V30 8636 N 829.214 0.302327 -1.54673 0
M  V30 8637 C 830.439 1.06103 -1.78205 0
M  V30 8638 C 830.864 1.80204 -0.53926 0
M  V30 8639 O 830.222 1.73975 0.510142 0
M  V30 8640 C 830.27 2.01829 -2.98827 0
M  V30 8641 O 829.374 3.10108 -2.71858 0
M  V30 8642 H 828.715 0.30487 -0.589873 0
M  V30 8643 H 831.245 0.340153 -2.01753 0
M  V30 8644 H 831.255 2.44319 -3.2676 0
M  V30 8645 H 829.93 1.473 -3.88942 0
M  V30 8646 H 828.507 2.72142 -2.54937 0
M  V30 8647 N 830.692 1.47107 0.565454 0
M  V30 8648 C 831.938 1.54519 1.3227 0
M  V30 8649 C 832.293 0.201313 1.91344 0
M  V30 8650 O 831.586 -0.792058 1.74462 0
M  V30 8651 C 831.78 2.59309 2.45954 0
M  V30 8652 C 831.609 4.03756 1.98019 0
M  V30 8653 C 830.379 4.71293 1.8224 0
M  V30 8654 C 832.577 4.91029 1.52955 0
M  V30 8655 N 830.559 6.00288 1.28557 0
M  V30 8656 C 831.93 6.09986 1.10981 0
M  V30 8657 C 833.985 4.77539 1.4093 0
M  V30 8658 C 832.688 7.16943 0.581796 0
M  V30 8659 C 834.714 5.84584 0.895307 0
M  V30 8660 C 834.076 7.02725 0.485454 0
M  V30 8661 H 830.175 0.620177 0.476345 0
M  V30 8662 H 832.759 1.83814 0.641901 0
M  V30 8663 H 830.93 2.31896 3.11575 0
M  V30 8664 H 832.662 2.56614 3.1294 0
M  V30 8665 H 829.417 4.27074 2.04707 0
M  V30 8666 H 829.841 6.68991 1.03828 0
M  V30 8667 H 834.483 3.86574 1.71231 0
M  V30 8668 H 832.201 8.07661 0.266399 0
M  V30 8669 H 835.787 5.76191 0.805939 0
M  V30 8670 H 834.667 7.84144 0.0938828 0
M  V30 8671 N 832.17 -0.811516 1.35101 0
M  V30 8672 C 833.418 -1.56525 1.27845 0
M  V30 8673 C 833.739 -1.94435 -0.14829 0
M  V30 8674 O 833.009 -1.63203 -1.08359 0
M  V30 8675 H 831.589 -0.580433 0.47022 0
M  V30 8676 H 834.251 -0.968277 1.69146 0
M  V30 8677 H 833.347 -2.48291 1.89097 0
M  V30 8678 N 833.648 -1.19017 -1.03309 0
M  V30 8679 C 834.558 -0.939303 -2.14975 0
M  V30 8680 C 835.574 0.0992359 -1.73717 0
M  V30 8681 O 836.75 -0.0844362 -2.01223 0
M  V30 8682 C 833.815 -0.476712 -3.43407 0
M  V30 8683 C 832.876 -1.58413 -3.99003 0
M  V30 8684 C 832.109 -1.14352 -5.21305 0
M  V30 8685 O 832.332 -0.00534408 -5.704 0
M  V30 8686 O 831.266 -1.94436 -5.6963 0
M  V30 8687 H 835.092 -1.87386 -2.38998 0
M  V30 8688 H 832.677 -0.972635 -1.13403 0
M  V30 8689 H 834.559 -0.22718 -4.20787 0
M  V30 8690 H 833.234 0.429455 -3.20839 0
M  V30 8691 H 832.141 -1.88777 -3.22977 0
M  V30 8692 H 833.474 -2.4667 -4.25928 0
M  V30 8693 N 835.127 1.22348 -0.993418 0
M  V30 8694 C 836.075 2.26315 -0.537052 0
M  V30 8695 C 837.069 1.643 0.412545 0
M  V30 8696 O 838.275 1.77729 0.285008 0
M  V30 8697 H 834.65 0.735792 -0.155286 0
M  V30 8698 H 836.621 2.62157 -1.42535 0
M  V30 8699 C 835.37 3.47449 0.132118 0
M  V30 8700 H 834.693 3.9543 -0.589519 0
M  V30 8701 H 836.133 4.21965 0.414884 0
M  V30 8702 C 834.592 3.07893 1.36761 0
M  V30 8703 O 835.122 3.17338 2.46291 0
M  V30 8704 N 833.328 2.62672 1.24305 0
M  V30 8705 H 832.875 2.55186 0.351826 0
M  V30 8706 H 832.833 2.36574 2.07076 0
M  V30 8707 N 836.605 0.766683 1.37694 0
M  V30 8708 C 838.021 0.445739 1.53249 0
M  V30 8709 C 838.221 -1.03935 1.72626 0
M  V30 8710 O 837.277 -1.82525 1.74473 0
M  V30 8711 C 838.59 1.2564 2.73194 0
M  V30 8712 C 840.138 1.24779 2.87053 0
M  V30 8713 C 840.613 2.04169 4.09974 0
M  V30 8714 N 842.104 2.01497 4.17077 0
M  V30 8715 C 842.839 2.5971 5.11212 0
M  V30 8716 N 842.335 3.26691 6.10938 0
M  V30 8717 N 844.128 2.49568 5.03659 0
M  V30 8718 H 836.279 1.72899 1.23368 0
M  V30 8719 H 838.542 0.733701 0.600322 0
M  V30 8720 H 838.248 2.30859 2.65324 0
M  V30 8721 H 838.122 0.882133 3.6674 0
M  V30 8722 H 840.509 0.203603 2.94397 0
M  V30 8723 H 840.59 1.66166 1.9448 0
M  V30 8724 H 840.234 3.08606 4.03392 0
M  V30 8725 H 840.164 1.60167 5.01651 0
M  V30 8726 H 842.655 1.52728 3.45662 0
M  V30 8727 H 842.968 3.68497 6.79286 0
M  V30 8728 H 841.313 3.30789 6.11231 0
M  V30 8729 H 844.504 1.96859 4.24693 0
M  V30 8730 H 844.677 2.95231 5.76839 0
M  V30 8731 N 838.083 -1.48885 0.516809 0
M  V30 8732 C 838.993 -2.33185 -0.257293 0
M  V30 8733 C 840.009 -1.4565 -0.951952 0
M  V30 8734 O 841.185 -1.78651 -0.929834 0
M  V30 8735 C 838.25 -3.21465 -1.29851 0
M  V30 8736 C 837.311 -4.24863 -0.615608 0
M  V30 8737 C 836.544 -5.08925 -1.60722 0
M  V30 8738 O 836.767 -4.9475 -2.83863 0
M  V30 8739 O 835.701 -5.90737 -1.15384 0
M  V30 8740 H 839.527 -3.00596 0.433131 0
M  V30 8741 H 837.112 -1.46792 0.277908 0
M  V30 8742 H 838.994 -3.76108 -1.90055 0
M  V30 8743 H 837.669 -2.5673 -1.97158 0
M  V30 8744 H 836.576 -3.74091 0.0265829 0
M  V30 8745 H 837.909 -4.92198 0.0152871 0
M  V30 8746 N 839.561 -0.251338 -1.55583 0
M  V30 8747 C 840.471 0.656978 -2.25213 0
M  V30 8748 C 841.487 1.18966 -1.26977 0
M  V30 8749 O 842.663 1.22499 -1.59862 0
M  V30 8750 C 839.728 1.83527 -2.94141 0
M  V30 8751 C 838.789 1.34162 -4.07798 0
M  V30 8752 C 838.022 2.46375 -4.73429 0
M  V30 8753 O 838.245 3.65205 -4.38157 0
M  V30 8754 O 837.179 2.15881 -5.61853 0
M  V30 8755 H 841.005 0.0936395 -3.03556 0
M  V30 8756 H 838.59 -0.0196638 -1.49387 0
M  V30 8757 H 840.472 2.52279 -3.3754 0
M  V30 8758 H 839.147 2.38614 -2.18735 0
M  V30 8759 H 838.054 0.621249 -3.68906 0
M  V30 8760 H 839.387 0.836779 -4.85035 0
M  V30 8761 N 841.039 1.57585 0.0217189 0
M  V30 8762 C 842.002 2.06004 1.00474 0
M  V30 8763 C 843.002 0.965461 1.2859 0
M  V30 8764 O 844.192 1.22884 1.23471 0
M  V30 8765 C 841.324 2.48319 2.33561 0
M  V30 8766 H 842.517 2.94112 0.586346 0
M  V30 8767 H 840.07 1.53973 0.268716 0
M  V30 8768 H 840.805 1.63389 2.80133 0
M  V30 8769 H 840.59 3.28239 2.1448 0
M  V30 8770 H 842.08 2.86181 3.04122 0
M  V30 8771 N 842.517 -0.29412 1.54831 0
M  V30 8772 C 843.766 -1.02614 1.73647 0
M  V30 8773 C 844.079 -1.88193 0.533162 0
M  V30 8774 O 845.285 -2.64713 0.603275 0
M  V30 8775 C 843.741 -1.87417 3.07251 0
M  V30 8776 C 843.349 -1.06806 4.35082 0
M  V30 8777 C 845.093 -2.60176 3.35423 0
M  V30 8778 C 843 -1.90926 5.59733 0
M  V30 8779 H 841.93 -0.386834 0.647206 0
M  V30 8780 H 844.581 -0.282789 1.81308 0
M  V30 8781 H 842.963 -2.65765 2.93572 0
M  V30 8782 H 844.137 -0.330226 4.59615 0
M  V30 8783 H 842.452 -0.455979 4.13896 0
M  V30 8784 H 845.049 -3.23476 4.25755 0
M  V30 8785 H 845.392 -3.29365 2.54606 0
M  V30 8786 H 845.925 -1.88871 3.50103 0
M  V30 8787 H 842.664 -1.26194 6.43238 0
M  V30 8788 H 842.184 -2.62363 5.39375 0
M  V30 8789 H 843.863 -2.48807 5.97247 0
M  V30 8790 N 843.995 -1.47404 -0.557645 0
M  V30 8791 C 845.22 -1.57868 -1.34508 0
M  V30 8792 C 845.645 -0.229151 -1.86699 0
M  V30 8793 O 845.003 0.794908 -1.62944 0
M  V30 8794 C 845.051 -2.60712 -2.49122 0
M  V30 8795 O 844.155 -2.15952 -3.51338 0
M  V30 8796 H 843.496 -0.530335 -0.399551 0
M  V30 8797 H 846.026 -1.93181 -0.673954 0
M  V30 8798 H 846.036 -2.81118 -2.95697 0
M  V30 8799 H 844.711 -3.58701 -2.10491 0
M  V30 8800 H 843.288 -2.05644 -3.11071 0
M  V30 8801 N 845.473 0.80434 -1.35529 0
M  V30 8802 C 846.421 1.93769 -1.28671 0
M  V30 8803 C 847.415 1.68428 -0.181222 0
M  V30 8804 O 848.621 1.76617 -0.347338 0
M  V30 8805 H 844.996 0.636663 -0.400206 0
M  V30 8806 H 846.967 1.96673 -2.24415 0
M  V30 8807 C 845.716 3.30572 -1.07784 0
M  V30 8808 H 845.039 3.5063 -1.9209 0
M  V30 8809 H 846.479 4.1027 -1.07027 0
M  V30 8810 C 844.938 3.36193 0.218213 0
M  V30 8811 O 845.468 3.82941 1.21323 0
M  V30 8812 N 843.674 2.89455 0.257761 0
M  V30 8813 H 843.221 2.51604 -0.552562 0
M  V30 8814 H 843.179 2.93597 1.12465 0
M  V30 8815 N 846.951 1.19563 1.02676 0
M  V30 8816 C 847.884 0.878638 2.10607 0
M  V30 8817 C 848.862 -0.165176 1.61759 0
M  V30 8818 O 850.046 -0.041014 1.88455 0
M  V30 8819 C 847.173 0.315347 3.37229 0
M  V30 8820 C 846.219 1.33855 4.04951 0
M  V30 8821 S 847.052 2.89982 4.50189 0
M  V30 8822 C 848.208 2.35202 5.80027 0
M  V30 8823 H 848.441 1.79268 2.37171 0
M  V30 8824 H 845.974 1.023 1.15646 0
M  V30 8825 H 847.932 -0.00311911 4.105 0
M  V30 8826 H 846.593 -0.577035 3.08754 0
M  V30 8827 H 845.786 0.893581 4.96015 0
M  V30 8828 H 845.388 1.60397 3.37859 0
M  V30 8829 H 847.68 1.74329 6.54687 0
M  V30 8830 H 848.623 3.24622 6.29306 0
M  V30 8831 H 849.031 1.77702 5.35801 0
M  V30 8832 N 848.429 -1.21819 0.999893 0
M  V30 8833 C 849.675 -1.91035 0.680701 0
M  V30 8834 C 850.008 -1.77582 -0.786021 0
M  V30 8835 O 849.283 -1.14917 -1.56921 0
M  V30 8836 C 849.566 -3.43013 1.0961 0
M  V30 8837 C 849.419 -3.65481 2.6219 0
M  V30 8838 C 850.738 -4.35204 0.654616 0
M  V30 8839 H 847.857 -0.693748 0.248763 0
M  V30 8840 H 850.499 -1.43555 1.24466 0
M  V30 8841 H 848.649 -3.83581 0.616253 0
M  V30 8842 H 850.321 -3.34273 3.17899 0
M  V30 8843 H 848.564 -3.09522 3.03938 0
M  V30 8844 H 849.235 -4.71945 2.86307 0
M  V30 8845 H 851.711 -4.0219 1.06688 0
M  V30 8846 H 850.587 -5.40198 0.973492 0
M  V30 8847 H 850.848 -4.3986 -0.444458 0
M  V30 8848 N 849.908 -0.773975 -1.37286 0
M  V30 8849 C 851.154 -0.339809 -1.99933 0
M  V30 8850 C 851.487 1.0815 -1.61299 0
M  V30 8851 O 850.762 1.74442 -0.860252 0
M  V30 8852 C 851.045 -0.485919 -3.56806 0
M  V30 8853 C 850.898 -1.9498 -4.05343 0
M  V30 8854 C 852.217 0.108461 -4.39966 0
M  V30 8855 H 849.336 -0.124944 -0.726332 0
M  V30 8856 H 851.978 -0.977433 -1.6293 0
M  V30 8857 H 850.128 0.0569023 -3.88458 0
M  V30 8858 H 851.8 -2.5525 -3.84246 0
M  V30 8859 H 850.043 -2.45784 -3.57453 0
M  V30 8860 H 850.714 -2.00308 -5.14374 0
M  V30 8861 H 853.19 -0.354722 -4.14585 0
M  V30 8862 H 852.066 -0.0238926 -5.48895 0
M  V30 8863 H 852.327 1.19901 -4.25531 0
M  V30 8864 N 851.386 1.48609 -0.524698 0
M  V30 8865 C 852.349 2.28041 0.230166 0
M  V30 8866 C 853.349 1.35065 0.872584 0
M  V30 8867 O 854.539 1.58007 0.73345 0
M  V30 8868 C 851.671 3.13778 1.33252 0
M  V30 8869 H 852.864 2.96239 -0.467161 0
M  V30 8870 H 850.417 1.53763 -0.280452 0
M  V30 8871 H 851.152 2.502 2.06327 0
M  V30 8872 H 850.937 3.82165 0.877058 0
M  V30 8873 H 852.427 3.7371 1.86362 0
M  V30 8874 N 852.864 0.259585 1.55447 0
M  V30 8875 C 853.794 -0.62852 2.24882 0
M  V30 8876 C 854.775 -1.17128 1.23349 0
M  V30 8877 O 855.96 -1.20829 1.52033 0
M  V30 8878 C 853.09 -1.81983 2.95803 0
M  V30 8879 C 852.044 -1.40929 4.04132 0
M  V30 8880 C 851.37 -2.68246 4.62545 0
M  V30 8881 C 852.67 -0.570956 5.1917 0
M  V30 8882 H 854.364 -0.0495021 2.99359 0
M  V30 8883 H 851.91 -0.0223688 1.43983 0
M  V30 8884 H 853.863 -2.44689 3.43082 0
M  V30 8885 H 852.587 -2.42444 2.18835 0
M  V30 8886 H 851.246 -0.805519 3.57641 0
M  V30 8887 H 850.894 -3.26931 3.82263 0
M  V30 8888 H 850.594 -2.41495 5.35681 0
M  V30 8889 H 852.118 -3.31827 5.12565 0
M  V30 8890 H 853.532 -1.10262 5.62597 0
M  V30 8891 H 851.929 -0.398979 5.98772 0
M  V30 8892 H 852.999 0.413918 4.8313 0
M  V30 8893 N 854.342 -1.57594 -0.0133615 0
M  V30 8894 C 855.289 -2.07574 -1.00905 0
M  V30 8895 C 856.259 -0.968231 -1.34961 0
M  V30 8896 O 857.444 -1.23981 -1.45028 0
M  V30 8897 C 854.584 -2.5728 -2.30002 0
M  V30 8898 C 853.697 -3.81881 -2.01967 0
M  V30 8899 C 852.832 -4.20139 -3.25049 0
M  V30 8900 C 851.871 -5.37614 -2.92639 0
M  V30 8901 N 851.008 -5.71229 -4.08218 0
M  V30 8902 H 855.848 -2.92382 -0.575899 0
M  V30 8903 H 853.385 -1.4455 -0.272722 0
M  V30 8904 H 855.343 -2.84171 -3.05454 0
M  V30 8905 H 853.973 -1.75365 -2.71011 0
M  V30 8906 H 853.025 -3.61979 -1.16942 0
M  V30 8907 H 854.337 -4.67441 -1.74069 0
M  V30 8908 H 853.491 -4.48242 -4.08857 0
M  V30 8909 H 852.23 -3.33262 -3.56073 0
M  V30 8910 H 851.235 -5.09248 -2.07235 0
M  V30 8911 H 852.46 -6.26157 -2.62876 0
M  V30 8912 H 850.406 -4.8731 -4.39164 0
M  V30 8913 H 850.323 -6.51333 -3.83799 0
M  V30 8914 H 851.591 -6.03917 -4.92854 0
M  V30 8915 N 855.82 0.285905 -1.54985 0
M  V30 8916 C 856.73 1.37534 -1.90057 0
M  V30 8917 C 857.746 1.54707 -0.796348 0
M  V30 8918 O 858.922 1.69082 -1.09423 0
M  V30 8919 C 855.987 2.7167 -2.15398 0
M  V30 8920 C 855.048 2.63354 -3.39033 0
M  V30 8921 C 854.281 3.91093 -3.63155 0
M  V30 8922 O 854.504 4.91169 -2.90015 0
M  V30 8923 O 853.438 3.92075 -4.56685 0
M  V30 8924 H 857.264 1.10791 -2.8277 0
M  V30 8925 H 854.849 0.483303 -1.41367 0
M  V30 8926 H 856.731 3.51006 -2.33179 0
M  V30 8927 H 855.406 2.98226 -1.25868 0
M  V30 8928 H 854.313 1.82438 -3.26599 0
M  V30 8929 H 855.646 2.41749 -4.2874 0
M  V30 8930 N 857.298 1.47698 0.54982 0
M  V30 8931 C 858.228 1.63622 1.66583 0
M  V30 8932 C 859.209 0.485477 1.63025 0
M  V30 8933 O 860.394 0.715692 1.80531 0
M  V30 8934 C 857.524 1.65721 3.05211 0
M  V30 8935 C 856.478 2.80097 3.2362 0
M  V30 8936 C 855.804 2.67272 4.63109 0
M  V30 8937 C 857.104 4.21612 3.08286 0
M  V30 8938 H 858.798 2.57049 1.53512 0
M  V30 8939 H 856.344 1.23705 0.737099 0
M  V30 8940 H 858.297 1.75451 3.83138 0
M  V30 8941 H 857.021 0.688593 3.19258 0
M  V30 8942 H 855.68 2.69889 2.48104 0
M  V30 8943 H 855.328 1.68422 4.73965 0
M  V30 8944 H 855.028 3.44008 4.76374 0
M  V30 8945 H 856.552 2.78942 5.43161 0
M  V30 8946 H 857.966 4.32758 3.76024 0
M  V30 8947 H 856.363 4.99193 3.33057 0
M  V30 8948 H 857.433 4.39462 2.04942 0
M  V30 8949 N 858.776 -0.797141 1.35954 0
M  V30 8950 C 860.001 -1.59097 1.33053 0
M  V30 8951 C 860.426 -1.87897 -0.0874592 0
M  V30 8952 O 859.784 -1.47291 -1.05712 0
M  V30 8953 C 859.832 -2.89346 2.152 0
M  V30 8954 O 858.936 -3.826 1.5392 0
M  V30 8955 H 858.277 -0.482895 0.45575 0
M  V30 8956 H 860.807 -0.988633 1.79129 0
M  V30 8957 H 860.817 -3.38686 2.27499 0
M  V30 8958 H 859.492 -2.6771 3.18283 0
M  V30 8959 H 858.069 -3.41174 1.50516 0
M  V30 8960 N 860.254 -1.20106 -1.0204 0
M  V30 8961 C 861.503 -1.00316 -1.74985 0
M  V30 8962 C 861.816 0.465814 -1.89972 0
M  V30 8963 O 863.022 0.782749 -2.59972 0
M  V30 8964 C 861.478 -1.74608 -3.14706 0
M  V30 8965 C 861.086 -3.25573 -3.07744 0
M  V30 8966 C 862.83 -1.63172 -3.91887 0
M  V30 8967 C 860.737 -3.92419 -4.42449 0
M  V30 8968 H 859.667 -0.371728 -0.655999 0
M  V30 8969 H 862.318 -1.43688 -1.14131 0
M  V30 8970 H 860.7 -1.24021 -3.76078 0
M  V30 8971 H 861.874 -3.83345 -2.55702 0
M  V30 8972 H 860.189 -3.3738 -2.44057 0
M  V30 8973 H 862.786 -2.10457 -4.9154 0
M  V30 8974 H 863.129 -0.58728 -4.12137 0
M  V30 8975 H 863.662 -2.11152 -3.37135 0
M  V30 8976 H 860.401 -4.96998 -4.27403 0
M  V30 8977 H 859.921 -3.39436 -4.94513 0
M  V30 8978 H 861.6 -3.96453 -5.11306 0
M  V30 8979 N 861.732 1.21287 -1.00634 0
M  V30 8980 C 863.148 1.42467 -0.719389 0
M  V30 8981 C 863.348 1.88767 0.704927 0
M  V30 8982 O 862.404 2.05004 1.47409 0
M  V30 8983 C 863.717 2.455 -1.73639 0
M  V30 8984 C 865.265 2.59281 -1.75335 0
M  V30 8985 C 865.74 3.65547 -2.75934 0
M  V30 8986 N 867.231 3.73019 -2.74611 0
M  V30 8987 C 867.966 4.54873 -3.4911 0
M  V30 8988 N 867.462 5.40614 -4.33253 0
M  V30 8989 N 869.255 4.49309 -3.37754 0
M  V30 8990 H 861.406 0.895454 -1.92602 0
M  V30 8991 H 863.669 0.455491 -0.831404 0
M  V30 8992 H 863.375 2.18455 -2.75627 0
M  V30 8993 H 863.249 3.44325 -1.54014 0
M  V30 8994 H 865.636 2.85661 -0.740377 0
M  V30 8995 H 865.717 1.60685 -1.99032 0
M  V30 8996 H 865.361 3.39911 -3.77389 0
M  V30 8997 H 865.291 4.63741 -2.49503 0
M  V30 8998 H 867.782 3.11766 -2.13565 0
M  V30 8999 H 868.095 6.0013 -4.86892 0
M  V30 9000 H 866.44 5.40151 -4.37335 0
M  V30 9001 H 869.631 3.81357 -2.71449 0
M  V30 9002 H 869.804 5.12867 -3.9607 0
M  V30 9003 N 863.21 0.781244 1.36873 0
M  V30 9004 C 864.458 0.349198 1.9906 0
M  V30 9005 C 864.779 -1.0806 1.62321 0
M  V30 9006 O 864.049 -1.74351 0.893229 0
M  V30 9007 H 862.629 0.126126 0.736275 0
M  V30 9008 H 865.291 1.00148 1.67202 0
M  V30 9009 H 864.387 0.434451 3.09061 0
M  V30 9010 N 864.689 -1.48329 0.532571 0
M  V30 9011 C 865.966 -1.95492 -0.0650985 0
M  V30 9012 C 866.346 -1.47485 -1.51034 0
M  V30 9013 O 865.694 -0.702516 -2.17433 0
M  V30 9014 C 865.904 -3.48957 0.0548341 0
M  V30 9015 C 867.252 -4.24475 -0.103115 0
M  V30 9016 O 868.276 -3.56195 -0.0188343 0
M  V30 9017 O 867.135 -5.45781 -0.280164 0
M  V30 9018 H 864.229 -0.823327 -0.0778603 0
M  V30 9019 H 866.775 -1.58839 0.597353 0
M  V30 9020 H 865.547 -3.76628 1.06148 0
M  V30 9021 H 865.17 -3.92311 -0.64635 0
M  V30 9022 N 866.167 -0.267825 -1.55308 0
M  V30 9023 C 867.414 0.351036 -1.99434 0
M  V30 9024 C 867.742 1.56406 -1.15618 0
M  V30 9025 O 866.997 1.94548 -0.212045 0
M  V30 9026 C 867.296 0.784247 -3.48689 0
M  V30 9027 C 866.962 -0.323328 -4.49739 0
M  V30 9028 C 865.624 -0.627467 -4.77091 0
M  V30 9029 C 867.976 -1.07002 -5.10098 0
M  V30 9030 C 865.304 -1.682 -5.62073 0
M  V30 9031 C 867.656 -2.11422 -5.96224 0
M  V30 9032 C 866.32 -2.42479 -6.21901 0
M  V30 9033 H 865.59 0.128453 -0.729781 0
M  V30 9034 H 868.237 -0.380018 -1.87692 0
M  V30 9035 H 866.542 1.59485 -3.57871 0
M  V30 9036 H 868.239 1.2737 -3.80234 0
M  V30 9037 H 864.829 -0.0761528 -4.28532 0
M  V30 9038 H 869.013 -0.848302 -4.88996 0
M  V30 9039 H 864.269 -1.92772 -5.80215 0
M  V30 9040 H 868.443 -2.69759 -6.4203 0
M  V30 9041 H 866.07 -3.24328 -6.87543 0
M  V30 9042 N 867.645 1.57599 0.00500368 0
M  V30 9043 C 869.061 1.55463 0.361015 0
M  V30 9044 C 869.261 0.997051 1.75103 0
M  V30 9045 O 868.317 0.628661 2.44549 0
M  V30 9046 C 869.63 2.99734 0.240828 0
M  V30 9047 C 871.178 3.11399 0.316138 0
M  V30 9048 C 871.653 4.57446 0.22513 0
M  V30 9049 N 873.144 4.62334 0.283186 0
M  V30 9050 C 873.879 5.72914 0.23603 0
M  V30 9051 N 873.375 6.92659 0.139762 0
M  V30 9052 N 875.168 5.61364 0.287529 0
M  V30 9053 H 867.319 1.92185 -0.904359 0
M  V30 9054 H 869.582 0.882529 -0.34619 0
M  V30 9055 H 869.288 3.44348 -0.715343 0
M  V30 9056 H 869.162 3.63009 1.02491 0
M  V30 9057 H 871.549 2.66718 1.26275 0
M  V30 9058 H 871.63 2.50911 -0.497725 0
M  V30 9059 H 871.274 5.02801 -0.717917 0
M  V30 9060 H 871.204 5.15874 1.05742 0
M  V30 9061 H 873.695 3.7619 0.359123 0
M  V30 9062 H 874.008 7.72722 0.10954 0
M  V30 9063 H 872.353 6.9492 0.105462 0
M  V30 9064 H 875.544 4.66707 0.360897 0
M  V30 9065 H 875.717 6.47528 0.247313 0
M  V30 9066 N 869.123 -0.277682 1.55134 0
M  V30 9067 C 870.351 -1.02826 1.7954 0
M  V30 9068 C 870.766 -1.80105 0.566373 0
M  V30 9069 O 870.123 -1.76491 -0.464448 0
M  V30 9070 C 870.174 -1.99053 3.01762 0
M  V30 9071 O 869.895 -1.24906 4.19917 0
M  V30 9072 C 871.396 -2.85961 3.38735 0
M  V30 9073 H 868.616 -0.303958 0.598206 0
M  V30 9074 H 871.16 -0.309884 2.02138 0
M  V30 9075 H 869.315 -2.66359 2.81303 0
M  V30 9076 H 869.729 -1.89725 4.88983 0
M  V30 9077 H 871.203 -3.49286 4.27438 0
M  V30 9078 H 871.68 -3.55486 2.57928 0
M  V30 9079 H 872.286 -2.24152 3.61436 0
M  V30 9080 N 870.601 -1.47988 -0.541979 0
M  V30 9081 C 871.829 -1.59034 -1.32347 0
M  V30 9082 C 872.244 -0.246123 -1.87189 0
M  V30 9083 O 871.601 0.762889 -1.6579 0
M  V30 9084 C 871.652 -2.62759 -2.48274 0
M  V30 9085 O 871.373 -3.91963 -1.95695 0
M  V30 9086 C 872.874 -2.84133 -3.4027 0
M  V30 9087 H 870.094 -0.536574 -0.402901 0
M  V30 9088 H 872.638 -1.93725 -0.655045 0
M  V30 9089 H 870.793 -2.3096 -3.11025 0
M  V30 9090 H 871.207 -4.48769 -2.7149 0
M  V30 9091 H 872.681 -3.60538 -4.17991 0
M  V30 9092 H 873.158 -1.92512 -3.9476 0
M  V30 9093 H 873.764 -3.17188 -2.83322 0
M  V30 9094 N 872.079 0.78992 -1.36375 0
M  V30 9095 C 873.325 1.55007 -1.3077 0
M  V30 9096 C 873.658 1.93871 0.112979 0
M  V30 9097 O 872.933 1.6267 1.06625 0
M  V30 9098 C 873.216 2.82748 -2.22993 0
M  V30 9099 C 873.069 2.50253 -3.73756 0
M  V30 9100 C 874.388 3.84569 -2.13998 0
M  V30 9101 H 871.507 0.562362 -0.476359 0
M  V30 9102 H 874.149 0.907582 -1.66922 0
M  V30 9103 H 872.299 3.37573 -1.92292 0
M  V30 9104 H 873.971 2.01482 -4.14973 0
M  V30 9105 H 872.214 1.83203 -3.93216 0
M  V30 9106 H 872.885 3.41487 -4.33694 0
M  V30 9107 H 875.361 3.39188 -2.4102 0
M  V30 9108 H 874.237 4.717 -2.80697 0
M  V30 9109 H 874.498 4.27491 -1.12711 0
M  V30 9110 N 873.557 1.20646 1.01402 0
M  V30 9111 C 874.467 0.973385 2.13453 0
M  V30 9112 C 875.483 -0.0715865 1.73853 0
M  V30 9113 O 876.659 0.116438 2.01063 0
M  V30 9114 C 873.724 0.531285 3.42605 0
M  V30 9115 C 872.785 1.64741 3.96433 0
M  V30 9116 C 872.018 1.22631 5.1942 0
M  V30 9117 O 872.241 0.0960891 5.70319 0
M  V30 9118 O 871.175 2.03474 5.66465 0
M  V30 9119 H 875.001 1.91164 2.35987 0
M  V30 9120 H 872.586 0.990553 1.11841 0
M  V30 9121 H 874.468 0.294095 4.20373 0
M  V30 9122 H 873.143 -0.378358 3.21481 0
M  V30 9123 H 872.05 1.93891 3.19933 0
M  V30 9124 H 873.383 2.53415 4.2195 0
M  V30 9125 N 875.035 -1.20752 1.01276 0
M  V30 9126 C 876.265 -1.93725 0.717934 0
M  V30 9127 C 876.673 -1.74769 -0.724732 0
M  V30 9128 O 876.016 -1.05642 -1.50285 0
M  V30 9129 C 876.078 -3.46196 0.968954 0
M  V30 9130 C 875.742 -3.88909 2.39998 0
M  V30 9131 C 876.739 -3.94982 3.38061 0
M  V30 9132 C 874.424 -4.21006 2.7397 0
M  V30 9133 C 876.418 -4.32558 4.68159 0
M  V30 9134 C 874.105 -4.58257 4.04282 0
M  V30 9135 C 875.103 -4.64004 5.01187 0
M  V30 9136 O 874.791 -5.00403 6.29168 0
M  V30 9137 H 874.523 -0.622663 0.263186 0
M  V30 9138 H 877.077 -1.54299 1.35577 0
M  V30 9139 H 875.307 -3.85728 0.273952 0
M  V30 9140 H 876.996 -4.00394 0.666312 0
M  V30 9141 H 877.762 -3.70353 3.13151 0
M  V30 9142 H 873.641 -4.15725 1.99233 0
M  V30 9143 H 877.185 -4.36959 5.43795 0
M  V30 9144 H 873.082 -4.82341 4.28973 0
M  V30 9145 H 873.85 -5.18409 6.33399 0
M  V30 9146 N 876.513 -0.788492 -1.36457 0
M  V30 9147 C 877.443 -0.200468 -2.32638 0
M  V30 9148 C 878.424 0.664031 -1.56603 0
M  V30 9149 O 879.609 0.598045 -1.84762 0
M  V30 9150 C 876.739 0.666274 -3.40849 0
M  V30 9151 C 875.693 -0.0982574 -4.27887 0
M  V30 9152 C 875.019 0.889018 -5.27258 0
M  V30 9153 C 876.319 -1.28692 -5.06197 0
M  V30 9154 H 878.013 -1.00399 -2.82065 0
M  V30 9155 H 875.559 -0.484237 -1.35614 0
M  V30 9156 H 877.512 1.08757 -4.07124 0
M  V30 9157 H 876.236 1.50249 -2.89987 0
M  V30 9158 H 874.895 -0.500525 -3.63167 0
M  V30 9159 H 874.543 1.72024 -4.7267 0
M  V30 9160 H 874.243 0.381909 -5.86358 0
M  V30 9161 H 875.767 1.30891 -5.96406 0
M  V30 9162 H 877.181 -0.941429 -5.65517 0
M  V30 9163 H 875.578 -1.72726 -5.74705 0
M  V30 9164 H 876.648 -2.08273 -4.37893 0
M  V30 9165 N 877.991 1.48044 -0.54043 0
M  V30 9166 C 879.24 2.01698 -0.00809961 0
M  V30 9167 C 879.553 1.42184 1.34325 0
M  V30 9168 O 880.759 1.87398 1.96454 0
M  V30 9169 C 879.215 3.59882 0.035933 0
M  V30 9170 C 878.823 4.28384 -1.31115 0
M  V30 9171 C 880.567 4.21346 0.51654 0
M  V30 9172 C 878.474 5.78529 -1.22714 0
M  V30 9173 H 877.404 0.754 0.000742174 0
M  V30 9174 H 880.055 1.70204 -0.685775 0
M  V30 9175 H 878.437 3.88264 0.778906 0
M  V30 9176 H 879.611 4.11663 -2.07051 0
M  V30 9177 H 877.926 3.78837 -1.72834 0
M  V30 9178 H 880.523 5.31351 0.597529 0
M  V30 9179 H 880.866 3.87373 1.52473 0
M  V30 9180 H 881.399 3.97432 -0.171064 0
M  V30 9181 H 878.138 6.17093 -2.21081 0
M  V30 9182 H 877.658 5.97634 -0.50931 0
M  V30 9183 H 879.337 6.40395 -0.92216 0
M  V30 9184 N 879.47 0.276058 1.55163 0
M  V30 9185 C 880.417 -0.611006 2.22565 0
M  V30 9186 C 881.387 -1.14902 1.19945 0
M  V30 9187 O 882.572 -1.19815 1.48489 0
M  V30 9188 C 879.712 -1.78885 2.95117 0
M  V30 9189 C 878.825 -1.2846 4.12458 0
M  V30 9190 C 877.96 -2.42432 4.72652 0
M  V30 9191 C 876.999 -1.89015 5.82185 0
M  V30 9192 N 876.136 -2.96463 6.36439 0
M  V30 9193 H 880.976 -0.0295849 2.97985 0
M  V30 9194 H 878.513 -0.00283607 1.471 0
M  V30 9195 H 880.471 -2.48121 3.35398 0
M  V30 9196 H 879.101 -2.34229 2.22119 0
M  V30 9197 H 878.153 -0.485312 3.77292 0
M  V30 9198 H 879.465 -0.853358 4.91446 0
M  V30 9199 H 878.619 -3.19659 5.15658 0
M  V30 9200 H 877.358 -2.88872 3.92943 0
M  V30 9201 H 876.363 -1.10267 5.38629 0
M  V30 9202 H 877.588 -1.43509 6.63763 0
M  V30 9203 H 875.534 -3.42283 5.59623 0
M  V30 9204 H 875.451 -2.57759 7.10701 0
M  V30 9205 H 876.719 -3.73663 6.84103 0
M  V30 9206 N 880.948 -1.576 0.00335426 0
M  V30 9207 C 881.878 -2.11668 -0.985839 0
M  V30 9208 C 882.859 -1.02661 -1.35627 0
M  V30 9209 O 884.044 -1.30361 -1.43943 0
M  V30 9210 C 881.174 -2.62273 -2.27662 0
M  V30 9211 C 880.128 -3.75837 -2.0477 0
M  V30 9212 C 879.454 -4.12769 -3.39891 0
M  V30 9213 C 880.754 -5.02975 -1.40759 0
M  V30 9214 H 882.448 -2.9457 -0.535637 0
M  V30 9215 H 879.994 -1.41702 -0.256204 0
M  V30 9216 H 881.947 -2.98727 -2.97221 0
M  V30 9217 H 880.671 -1.76498 -2.74802 0
M  V30 9218 H 879.33 -3.39782 -1.37636 0
M  V30 9219 H 878.978 -3.24013 -3.8474 0
M  V30 9220 H 878.678 -4.89281 -3.25389 0
M  V30 9221 H 880.202 -4.51784 -4.1076 0
M  V30 9222 H 881.616 -5.37179 -2.00279 0
M  V30 9223 H 880.013 -5.84315 -1.36734 0
M  V30 9224 H 881.083 -4.83431 -0.377218 0
M  V30 9225 N 882.426 0.269451 -1.5528 0
M  V30 9226 C 883.356 1.33729 -1.91413 0
M  V30 9227 C 884.337 1.51348 -0.776391 0
M  V30 9228 O 885.522 1.64332 -1.03482 0
M  V30 9229 C 882.652 2.69618 -2.18914 0
M  V30 9230 C 881.606 2.66725 -3.34726 0
M  V30 9231 C 880.932 4.06199 -3.47716 0
M  V30 9232 C 882.232 2.25684 -4.71025 0
M  V30 9233 H 883.926 1.03736 -2.80854 0
M  V30 9234 H 881.472 0.497579 -1.3513 0
M  V30 9235 H 883.425 3.44436 -2.42779 0
M  V30 9236 H 882.149 3.01201 -1.26275 0
M  V30 9237 H 880.808 1.94365 -3.10834 0
M  V30 9238 H 880.456 4.3501 -2.52537 0
M  V30 9239 H 880.156 4.05157 -4.25583 0
M  V30 9240 H 881.68 4.8275 -3.73877 0
M  V30 9241 H 883.094 2.90225 -4.94411 0
M  V30 9242 H 881.491 2.35797 -5.51833 0
M  V30 9243 H 882.561 1.20819 -4.69607 0
M  V30 9244 N 883.904 1.48273 0.534124 0
M  V30 9245 C 884.814 1.65162 1.66609 0
M  V30 9246 C 885.83 0.534177 1.65598 0
M  V30 9247 O 887.006 0.804715 1.84625 0
M  V30 9248 C 884.071 1.68354 3.03081 0
M  V30 9249 C 883.132 2.91696 3.1498 0
M  V30 9250 C 882.365 2.94725 4.44941 0
M  V30 9251 O 882.588 2.06285 5.31792 0
M  V30 9252 O 881.522 3.8685 4.61119 0
M  V30 9253 H 885.348 2.60991 1.55298 0
M  V30 9254 H 882.933 1.31626 0.706749 0
M  V30 9255 H 884.815 1.72998 3.84252 0
M  V30 9256 H 883.49 0.756978 3.14725 0
M  V30 9257 H 882.397 2.92586 2.33119 0
M  V30 9258 H 883.73 3.83722 3.0825 0
M  V30 9259 N 885.382 -0.782676 1.36792 0
M  V30 9260 C 886.61 -1.57162 1.34565 0
M  V30 9261 C 887.025 -1.88664 -0.0715501 0
M  V30 9262 O 886.382 -1.50633 -1.03033 0
M  V30 9263 C 886.433 -2.88854 2.1736 0
M  V30 9264 O 886.154 -2.58707 3.53557 0
M  V30 9265 C 887.655 -3.83132 2.2299 0
M  V30 9266 H 884.875 -0.487245 0.461338 0
M  V30 9267 H 887.419 -0.970905 1.79982 0
M  V30 9268 H 885.574 -3.45377 1.7548 0
M  V30 9269 H 885.988 -3.42961 3.96835 0
M  V30 9270 H 887.462 -4.72575 2.85266 0
M  V30 9271 H 887.939 -4.21472 1.23524 0
M  V30 9272 H 888.545 -3.32541 2.65135 0
M  V30 9273 N 886.86 -1.21182 -1.00761 0
M  V30 9274 C 887.77 -0.984691 -2.12934 0
M  V30 9275 C 888.786 0.0623657 -1.73888 0
M  V30 9276 O 889.962 -0.1271 -2.00999 0
M  V30 9277 C 887.027 -0.549447 -3.42319 0
M  V30 9278 C 886.088 -1.66841 -3.95553 0
M  V30 9279 C 885.321 -1.25384 -5.18763 0
M  V30 9280 O 885.544 -0.126333 -5.7026 0
M  V30 9281 O 884.478 -2.06475 -5.65377 0
M  V30 9282 H 888.304 -1.92413 -2.3497 0
M  V30 9283 H 885.889 -0.99647 -1.11314 0
M  V30 9284 H 887.771 -0.316384 -4.20211 0
M  V30 9285 H 886.446 0.361304 -3.21677 0
M  V30 9286 H 885.353 -1.95585 -3.189 0
M  V30 9287 H 886.686 -2.55649 -4.206 0
M  V30 9288 N 888.338 1.20213 -1.01915 0
M  V30 9289 C 889.563 1.94163 -0.729076 0
M  V30 9290 C 889.988 1.74416 0.704323 0
M  V30 9291 O 889.346 1.0401 1.48498 0
M  V30 9292 C 889.394 3.44258 -1.07324 0
M  V30 9293 O 888.498 4.11979 -0.186367 0
M  V30 9294 H 887.839 0.606506 -0.270272 0
M  V30 9295 H 890.369 1.52571 -1.3632 0
M  V30 9296 H 890.379 3.94888 -1.02603 0
M  V30 9297 H 889.054 3.57954 -2.11759 0
M  V30 9298 H 887.631 3.7176 -0.291334 0
M  V30 9299 N 889.816 0.795718 1.36037 0
M  V30 9300 C 891.063 0.371024 1.99072 0
M  V30 9301 C 891.391 -1.05896 1.63145 0
M  V30 9302 O 890.646 -1.7474 0.881163 0
M  V30 9303 C 890.945 0.489038 3.54038 0
M  V30 9304 C 890.611 1.88075 4.09803 0
M  V30 9305 C 889.273 2.26152 4.24745 0
M  V30 9306 C 891.625 2.79174 4.40126 0
M  V30 9307 C 888.953 3.54718 4.67324 0
M  V30 9308 C 891.305 4.07175 4.8414 0
M  V30 9309 C 889.969 4.45266 4.97287 0
M  V30 9310 H 889.239 0.135767 0.728456 0
M  V30 9311 H 891.886 1.0144 1.62426 0
M  V30 9312 H 890.191 -0.237823 3.91078 0
M  V30 9313 H 891.888 0.141374 4.00751 0
M  V30 9314 H 888.478 1.57488 3.98617 0
M  V30 9315 H 892.662 2.51009 4.28145 0
M  V30 9316 H 887.918 3.84093 4.75691 0
M  V30 9317 H 892.092 4.77875 5.06565 0
M  V30 9318 H 889.719 5.44943 5.30038 0
M  V30 9319 N 891.294 -1.47756 0.548274 0
M  V30 9320 C 892.226 -2.27921 -0.24177 0
M  V30 9321 C 893.239 -1.36471 -0.887658 0
M  V30 9322 O 894.428 -1.6137 -0.763016 0
M  V30 9323 C 891.528 -3.10449 -1.35922 0
M  V30 9324 C 890.701 -4.298 -0.811808 0
M  V30 9325 C 889.76 -4.93994 -1.81264 0
M  V30 9326 O 888.786 -5.52657 -1.3623 0
M  V30 9327 N 889.988 -4.87882 -3.14566 0
M  V30 9328 H 892.753 -2.96365 0.445848 0
M  V30 9329 H 890.314 -1.57286 0.383769 0
M  V30 9330 H 892.306 -3.50261 -2.02729 0
M  V30 9331 H 890.876 -2.44306 -1.95021 0
M  V30 9332 H 890.096 -3.94186 0.0327929 0
M  V30 9333 H 891.384 -5.0702 -0.425272 0
M  V30 9334 H 890.782 -4.41405 -3.53805 0
M  V30 9335 H 889.339 -5.3174 -3.76956 0
M  V30 9336 N 892.772 -0.284283 -1.55015 0
M  V30 9337 C 893.705 0.640779 -2.19019 0
M  V30 9338 C 894.683 1.14541 -1.15409 0
M  V30 9339 O 895.867 1.21669 -1.43975 0
M  V30 9340 C 892.994 1.87488 -2.82074 0
M  V30 9341 C 892.04 1.50494 -3.99066 0
M  V30 9342 S 892.873 0.575218 -5.32402 0
M  V30 9343 C 894.029 1.81749 -5.98931 0
M  V30 9344 H 894.262 0.0969761 -2.97142 0
M  V30 9345 H 891.795 -0.0684929 -1.54248 0
M  V30 9346 H 893.753 2.58319 -3.19032 0
M  V30 9347 H 892.414 2.38984 -2.03828 0
M  V30 9348 H 891.607 2.42349 -4.41908 0
M  V30 9349 H 891.209 0.876741 -3.63578 0
M  V30 9350 H 893.501 2.76026 -6.18721 0
M  V30 9351 H 894.444 1.43192 -6.93471 0
M  V30 9352 H 894.852 1.98661 -5.28388 0
M  V30 9353 N 894.251 1.57596 -0.0117121 0
M  V30 9354 C 895.199 2.1029 0.994035 0
M  V30 9355 C 896.193 1.02549 1.34833 0
M  V30 9356 O 897.399 1.21003 1.3326 0
M  V30 9357 H 893.774 0.671624 0.338268 0
M  V30 9358 H 895.745 2.93761 0.524147 0
M  V30 9359 C 894.494 2.63099 2.27319 0
M  V30 9360 H 893.817 3.45642 2.00927 0
M  V30 9361 H 895.257 3.03635 2.95942 0
M  V30 9362 C 893.716 1.55044 2.99104 0
M  V30 9363 O 894.246 0.940127 3.90544 0
M  V30 9364 N 892.452 1.27506 2.61133 0
M  V30 9365 H 891.999 1.77322 1.86855 0
M  V30 9366 H 891.957 0.554292 3.09475 0
M  V30 9367 N 895.729 -0.261212 1.5542 0
M  V30 9368 C 897.145 -0.609012 1.47524 0
M  V30 9369 C 897.345 -1.88986 0.699042 0
M  V30 9370 O 896.401 -2.51517 0.222628 0
M  V30 9371 C 897.714 -0.725025 2.91828 0
M  V30 9372 C 899.262 -0.818302 3.02114 0
M  V30 9373 C 899.737 -0.965996 4.47697 0
M  V30 9374 N 901.228 -1.03123 4.51575 0
M  V30 9375 C 901.963 -1.16451 5.6145 0
M  V30 9376 N 901.459 -1.26425 6.81167 0
M  V30 9377 N 903.252 -1.19655 5.49217 0
M  V30 9378 H 895.403 0.579807 2.04333 0
M  V30 9379 H 897.666 0.198072 0.927077 0
M  V30 9380 H 897.372 0.145871 3.51397 0
M  V30 9381 H 897.246 -1.60156 3.41511 0
M  V30 9382 H 899.633 -1.67966 2.42634 0
M  V30 9383 H 899.714 0.0830895 2.55665 0
M  V30 9384 H 899.358 -0.109251 5.07782 0
M  V30 9385 H 899.288 -1.88221 4.91813 0
M  V30 9386 H 901.779 -0.966072 3.65343 0
M  V30 9387 H 902.092 -1.36462 7.60656 0
M  V30 9388 H 900.437 -1.23408 6.83956 0
M  V30 9389 H 903.628 -1.11501 4.54626 0
M  V30 9390 H 903.801 -1.29698 6.34888 0
M  V30 9391 N 897.207 -1.48554 -0.526253 0
M  V30 9392 C 898.456 -1.56014 -1.27837 0
M  V30 9393 C 898.769 -0.240643 -1.94114 0
M  V30 9394 O 899.975 -0.193525 -2.70809 0
M  V30 9395 C 898.431 -2.75161 -2.31979 0
M  V30 9396 C 898.039 -4.13768 -1.71755 0
M  V30 9397 C 899.783 -2.91936 -3.08178 0
M  V30 9398 C 897.69 -5.24171 -2.7386 0
M  V30 9399 H 896.62 -0.58082 -0.480795 0
M  V30 9400 H 899.271 -1.74895 -0.555335 0
M  V30 9401 H 897.653 -2.49722 -3.07335 0
M  V30 9402 H 898.827 -4.49241 -1.02563 0
M  V30 9403 H 897.142 -4.02141 -1.08036 0
M  V30 9404 H 899.739 -3.71586 -3.84484 0
M  V30 9405 H 900.082 -2.01533 -3.64267 0
M  V30 9406 H 900.615 -3.17294 -2.39937 0
M  V30 9407 H 897.354 -6.16552 -2.22586 0
M  V30 9408 H 896.874 -4.93181 -3.41368 0
M  V30 9409 H 898.553 -5.52442 -3.36774 0
M  V30 9410 N 898.685 0.775411 -1.37205 0
M  V30 9411 C 899.962 1.5229 -1.22748 0
M  V30 9412 C 900.342 2.10327 0.180487 0
M  V30 9413 O 899.69 1.95206 1.18772 0
M  V30 9414 C 899.9 2.60671 -2.3206 0
M  V30 9415 C 901.248 3.28173 -2.6942 0
M  V30 9416 O 902.272 2.70963 -2.31208 0
M  V30 9417 O 901.131 4.31598 -3.3524 0
M  V30 9418 H 898.225 0.674326 -0.478762 0
M  V30 9419 H 900.771 0.812691 -1.48975 0
M  V30 9420 H 899.543 2.1588 -3.26361 0
M  V30 9421 H 899.166 3.39296 -2.07277 0
M  V30 9422 N 900.163 1.21714 1.00117 0
M  V30 9423 C 901.391 1.06278 1.77518 0
M  V30 9424 C 901.806 -0.387193 1.84787 0
M  V30 9425 O 901.163 -1.26854 1.31203 0
M  V30 9426 C 901.214 1.65795 3.21239 0
M  V30 9427 O 900.935 3.05119 3.14378 0
M  V30 9428 C 902.436 1.55521 4.15124 0
M  V30 9429 H 899.656 0.373013 0.557765 0
M  V30 9430 H 902.2 1.61133 1.25922 0
M  V30 9431 H 900.355 1.15022 3.69931 0
M  V30 9432 H 900.769 3.33643 4.04701 0
M  V30 9433 H 902.243 2.01902 5.13751 0
M  V30 9434 H 902.72 0.510307 4.36225 0
M  V30 9435 H 903.326 2.0556 3.72324 0
M  V30 9436 N 901.641 -1.19671 1.02551 0
M  V30 9437 C 902.889 -1.88894 0.71858 0
M  V30 9438 C 903.21 -1.79797 -0.754856 0
M  V30 9439 O 902.48 -1.20621 -1.54362 0
M  V30 9440 H 901.06 -0.699244 0.262806 0
M  V30 9441 H 903.722 -1.45298 1.29902 0
M  V30 9442 H 902.818 -2.95309 1.00989 0
M  V30 9443 N 903.119 -0.802921 -1.35613 0
M  V30 9444 C 904.365 -0.391259 -1.99601 0
M  V30 9445 C 904.72 1.02922 -1.62557 0
M  V30 9446 O 904.013 1.70357 -0.876878 0
M  V30 9447 C 904.207 -0.507806 -3.53774 0
M  V30 9448 C 904.036 -1.93807 -4.05794 0
M  V30 9449 C 902.806 -2.56564 -4.3532 0
M  V30 9450 C 905.004 -2.90211 -4.24596 0
M  V30 9451 N 902.986 -3.91038 -4.73247 0
M  V30 9452 C 904.357 -4.09548 -4.65479 0
M  V30 9453 C 906.412 -2.87091 -4.06796 0
M  V30 9454 C 905.115 -5.26191 -4.90424 0
M  V30 9455 C 907.141 -4.02933 -4.32896 0
M  V30 9456 C 906.503 -5.21017 -4.74047 0
M  V30 9457 H 902.602 -0.190867 -0.758349 0
M  V30 9458 H 905.186 -1.04338 -1.64382 0
M  V30 9459 H 903.357 0.114306 -3.88232 0
M  V30 9460 H 905.089 -0.0710855 -4.04638 0
M  V30 9461 H 901.844 -2.07945 -4.25507 0
M  V30 9462 H 902.268 -4.60262 -4.96475 0
M  V30 9463 H 906.91 -1.96951 -3.74126 0
M  V30 9464 H 904.628 -6.16906 -5.2197 0
M  V30 9465 H 908.214 -4.01895 -4.2068 0
M  V30 9466 H 907.094 -6.09165 -4.93849 0
M  V30 9467 N 904.597 1.47463 -0.556102 0
M  V30 9468 C 905.527 2.32801 0.180497 0
M  V30 9469 C 906.508 1.43721 0.909848 0
M  V30 9470 O 907.693 1.72578 0.89053 0
M  V30 9471 C 904.823 3.25478 1.21167 0
M  V30 9472 C 903.777 4.2379 0.598846 0
M  V30 9473 C 903.103 5.05783 1.73457 0
M  V30 9474 C 904.403 5.20387 -0.446659 0
M  V30 9475 H 906.097 2.94636 -0.531956 0
M  V30 9476 H 903.643 1.41683 -0.257267 0
M  V30 9477 H 905.596 3.8402 1.73513 0
M  V30 9478 H 904.32 2.61695 1.95405 0
M  V30 9479 H 902.979 3.66472 0.0966897 0
M  V30 9480 H 902.627 4.38405 2.46596 0
M  V30 9481 H 902.327 5.72343 1.33031 0
M  V30 9482 H 903.851 5.67183 2.26131 0
M  V30 9483 H 905.265 5.73299 -0.00930019 0
M  V30 9484 H 903.662 5.95143 -0.769735 0
M  V30 9485 H 904.732 4.65932 -1.34295 0
M  V30 9486 N 906.075 0.2925 1.54862 0
M  V30 9487 C 907.352 -0.371946 1.92031 0
M  V30 9488 C 907.732 -1.72363 1.21878 0
M  V30 9489 O 907.08 -2.25779 0.351573 0
M  V30 9490 C 907.29 -0.495027 3.45471 0
M  V30 9491 C 908.638 -0.769855 4.17562 0
M  V30 9492 O 909.662 -0.579168 3.5146 0
M  V30 9493 O 908.521 -1.13561 5.34571 0
M  V30 9494 H 905.615 -0.206463 0.800813 0
M  V30 9495 H 908.161 0.339933 1.6626 0
M  V30 9496 H 906.933 0.455528 3.88639 0
M  V30 9497 H 906.556 -1.2557 3.7725 0
M  V30 9498 N 907.553 -1.57587 0.0200696 0
M  V30 9499 C 908.969 -1.56018 -0.336237 0
M  V30 9500 C 909.169 -1.02478 -1.73495 0
M  V30 9501 O 908.225 -0.667487 -2.43518 0
M  V30 9502 C 909.538 -3.00079 -0.193112 0
M  V30 9503 C 911.086 -3.11863 -0.266557 0
M  V30 9504 C 911.561 -4.57747 -0.152326 0
M  V30 9505 N 913.052 -4.62726 -0.209596 0
M  V30 9506 C 913.787 -5.73217 -0.144855 0
M  V30 9507 N 913.283 -6.92794 -0.0295487 0
M  V30 9508 N 915.076 -5.61751 -0.198184 0
M  V30 9509 H 907.227 -1.90722 0.93482 0
M  V30 9510 H 909.49 -0.876909 0.360186 0
M  V30 9511 H 909.196 -3.43167 0.770036 0
M  V30 9512 H 909.07 -3.64593 -0.967029 0
M  V30 9513 H 911.457 -2.68693 -1.22016 0
M  V30 9514 H 911.538 -2.50087 0.53758 0
M  V30 9515 H 911.182 -5.01595 0.797817 0
M  V30 9516 H 911.112 -5.17491 -0.97521 0
M  V30 9517 H 913.603 -3.76713 -0.299229 0
M  V30 9518 H 913.916 -7.72799 0.0134071 0
M  V30 9519 H 912.261 -6.95 0.00510737 0
M  V30 9520 H 915.452 -4.67222 -0.286603 0
M  V30 9521 H 915.625 -6.47839 -0.144266 0
M  V30 9522 N 909.032 0.252966 -1.55557 0
M  V30 9523 C 909.962 1.31691 -1.9282 0
M  V30 9524 C 910.943 1.50516 -0.7924 0
M  V30 9525 O 912.128 1.63225 -1.05219 0
M  V30 9526 C 909.258 2.67281 -2.21762 0
M  V30 9527 C 908.212 2.6316 -3.37536 0
M  V30 9528 C 907.538 4.02488 -3.52005 0
M  V30 9529 C 908.838 2.20675 -4.73392 0
M  V30 9530 H 910.532 1.00751 -2.81939 0
M  V30 9531 H 908.078 0.483219 -1.3565 0
M  V30 9532 H 910.031 3.41842 -2.46419 0
M  V30 9533 H 908.755 2.99845 -1.29463 0
M  V30 9534 H 907.414 1.91057 -3.12878 0
M  V30 9535 H 907.062 4.32307 -2.57137 0
M  V30 9536 H 906.762 4.00621 -4.29857 0
M  V30 9537 H 908.286 4.78758 -3.78977 0
M  V30 9538 H 909.7 2.84965 -4.97461 0
M  V30 9539 H 908.097 2.29931 -5.54303 0
M  V30 9540 H 909.167 1.15831 -4.70862 0
M  V30 9541 N 910.51 1.48831 0.518367 0
M  V30 9542 C 911.759 1.5669 1.27008 0
M  V30 9543 C 912.072 0.250934 1.93984 0
M  V30 9544 O 913.278 0.207884 2.70703 0
M  V30 9545 C 911.734 2.76387 2.30517 0
M  V30 9546 C 911.342 4.14673 1.69559 0
M  V30 9547 C 913.086 2.93566 3.06625 0
M  V30 9548 C 910.993 5.25616 2.71076 0
M  V30 9549 H 909.923 0.583362 0.477708 0
M  V30 9550 H 912.574 1.75187 0.546052 0
M  V30 9551 H 910.956 2.51348 3.06006 0
M  V30 9552 H 912.13 4.49779 1.00179 0
M  V30 9553 H 910.445 4.02708 1.05902 0
M  V30 9554 H 913.042 3.7362 3.82508 0
M  V30 9555 H 913.385 2.03462 3.63193 0
M  V30 9556 H 913.918 3.18562 2.38251 0
M  V30 9557 H 910.657 6.17723 2.19313 0
M  V30 9558 H 910.177 4.94985 3.38748 0
M  V30 9559 H 911.856 5.5422 3.3384 0
M  V30 9560 N 911.988 -0.768124 1.37614 0
M  V30 9561 C 912.951 -1.86314 1.3349 0
M  V30 9562 C 913.951 -1.59025 0.23823 0
M  V30 9563 O 915.141 -1.6704 0.494288 0
M  V30 9564 C 912.273 -3.23519 1.07462 0
M  V30 9565 H 913.466 -1.91382 2.30896 0
M  V30 9566 H 911.019 -0.968267 1.22696 0
M  V30 9567 H 911.754 -3.24127 0.106028 0
M  V30 9568 H 911.539 -3.44719 1.86846 0
M  V30 9569 H 913.029 -4.03597 1.07236 0
M  V30 9570 N 913.466 -1.22244 -0.994698 0
M  V30 9571 C 914.376 -1.00722 -2.11878 0
M  V30 9572 C 915.392 0.043919 -1.73945 0
M  V30 9573 O 916.568 -0.148411 -2.00852 0
M  V30 9574 C 913.633 -0.585723 -3.41717 0
M  V30 9575 C 912.694 -1.71027 -3.93762 0
M  V30 9576 C 911.927 -1.30879 -5.17403 0
M  V30 9577 O 912.15 -0.18681 -5.70094 0
M  V30 9578 O 911.084 -2.1246 -5.63156 0
M  V30 9579 H 914.91 -1.94894 -2.32916 0
M  V30 9580 H 912.495 -1.00822 -1.10251 0
M  V30 9581 H 914.377 -0.360935 -4.19851 0
M  V30 9582 H 913.052 0.327166 -3.22042 0
M  V30 9583 H 911.959 -1.98956 -3.16808 0
M  V30 9584 H 913.292 -2.60096 -4.17865 0
M  V30 9585 N 914.944 1.19125 -1.03184 0
M  V30 9586 C 915.891 2.2245 -0.6152 0
M  V30 9587 C 916.861 1.61869 0.372502 0
M  V30 9588 O 918.046 1.88901 0.268491 0
M  V30 9589 C 915.186 3.45091 0.0248027 0
M  V30 9590 C 914.299 4.20044 -1.0093 0
M  V30 9591 C 913.434 5.30119 -0.338744 0
M  V30 9592 C 912.473 5.96833 -1.35855 0
M  V30 9593 N 911.61 6.98464 -0.713594 0
M  V30 9594 H 916.45 2.57445 -1.50086 0
M  V30 9595 H 913.987 1.26485 -0.751005 0
M  V30 9596 H 915.945 4.15149 0.413131 0
M  V30 9597 H 914.575 3.10742 0.874028 0
M  V30 9598 H 913.627 3.48901 -1.51566 0
M  V30 9599 H 914.939 4.65796 -1.78425 0
M  V30 9600 H 914.093 6.0661 0.104269 0
M  V30 9601 H 912.832 4.85446 0.468382 0
M  V30 9602 H 911.837 5.1909 -1.81179 0
M  V30 9603 H 913.062 6.4359 -2.16722 0
M  V30 9604 H 911.008 6.55959 0.0733863 0
M  V30 9605 H 910.925 7.42422 -1.42638 0
M  V30 9606 H 912.193 7.78943 -0.294681 0
M  V30 9607 N 916.422 0.810101 1.35185 0
M  V30 9608 C 917.668 0.392698 1.98962 0
M  V30 9609 C 918.001 -1.03835 1.64109 0
M  V30 9610 O 917.276 -1.721 0.9062 0
M  V30 9611 C 917.559 0.580349 3.55393 0
M  V30 9612 C 917.412 2.05658 4.00031 0
M  V30 9613 C 918.731 0.00822618 4.40099 0
M  V30 9614 H 915.85 0.144157 0.722764 0
M  V30 9615 H 918.492 1.02029 1.60281 0
M  V30 9616 H 916.642 0.0461106 3.88473 0
M  V30 9617 H 918.314 2.65348 3.77344 0
M  V30 9618 H 916.557 2.55174 3.50811 0
M  V30 9619 H 917.228 2.13875 5.08883 0
M  V30 9620 H 919.704 0.464517 4.13499 0
M  V30 9621 H 918.58 0.169414 5.48638 0
M  V30 9622 H 918.841 -1.08576 4.2856 0
M  V30 9623 N 917.9 -1.47166 0.563914 0
M  V30 9624 C 918.832 -2.28165 -0.217583 0
M  V30 9625 C 919.845 -1.37405 -0.873134 0
M  V30 9626 O 921.034 -1.6217 -0.745857 0
M  V30 9627 C 918.134 -3.11873 -1.32621 0
M  V30 9628 C 917.307 -4.30637 -0.766177 0
M  V30 9629 C 916.366 -4.95889 -1.76014 0
M  V30 9630 O 915.392 -5.54071 -1.3036 0
M  V30 9631 N 916.594 -4.91191 -3.09373 0
M  V30 9632 H 919.359 -2.95876 0.477256 0
M  V30 9633 H 916.92 -1.5687 0.40043 0
M  V30 9634 H 918.912 -3.52392 -1.99003 0
M  V30 9635 H 917.482 -2.46361 -1.92419 0
M  V30 9636 H 916.702 -3.94129 0.0745998 0
M  V30 9637 H 917.99 -5.07442 -0.371472 0
M  V30 9638 H 917.388 -4.45133 -3.49104 0
M  V30 9639 H 915.945 -5.35708 -3.71295 0
M  V30 9640 N 919.378 -0.300708 -1.54705 0
M  V30 9641 C 920.341 0.562648 -2.22187 0
M  V30 9642 C 921.341 1.06152 -1.20782 0
M  V30 9643 O 922.531 0.957596 -1.45519 0
M  V30 9644 C 919.663 1.77899 -2.908 0
M  V30 9645 H 920.856 -0.0269361 -2.99888 0
M  V30 9646 H 918.409 -0.0515412 -1.56215 0
M  V30 9647 H 919.144 2.40841 -2.17177 0
M  V30 9648 H 918.929 1.42892 -3.65136 0
M  V30 9649 H 920.419 2.39236 -3.42281 0
M  V30 9650 N 920.856 1.57574 -0.0284266 0
M  V30 9651 C 921.766 2.13637 0.96936 0
M  V30 9652 C 922.782 1.08845 1.35752 0
M  V30 9653 O 923.958 1.40899 1.43908 0
M  V30 9654 C 921.023 2.65179 2.2334 0
M  V30 9655 C 920.084 3.84683 1.90572 0
M  V30 9656 C 919.317 4.33758 3.1095 0
M  V30 9657 O 919.54 3.82009 4.23586 0
M  V30 9658 O 918.474 5.2561 2.93288 0
M  V30 9659 H 922.3 2.99169 0.52267 0
M  V30 9660 H 919.885 1.48159 0.192135 0
M  V30 9661 H 921.767 2.98402 2.97547 0
M  V30 9662 H 920.442 1.82731 2.67191 0
M  V30 9663 H 919.349 3.56386 1.13753 0
M  V30 9664 H 920.682 4.68292 1.51538 0
M  V30 9665 N 922.334 -0.244713 1.55689 0
M  V30 9666 C 923.75 -0.593331 1.48161 0
M  V30 9667 C 923.95 -1.88234 0.719047 0
M  V30 9668 O 923.006 -2.51266 0.249292 0
M  V30 9669 C 924.319 -0.694032 2.92581 0
M  V30 9670 C 925.867 -0.786213 3.02965 0
M  V30 9671 C 926.342 -0.918457 4.48696 0
M  V30 9672 N 927.833 -0.983272 4.52643 0
M  V30 9673 C 928.568 -1.1049 5.62654 0
M  V30 9674 N 928.064 -1.19193 6.8247 0
M  V30 9675 N 929.857 -1.13823 5.50455 0
M  V30 9676 H 922.008 0.601446 2.03707 0
M  V30 9677 H 924.271 0.207894 0.924924 0
M  V30 9678 H 923.977 0.183133 3.51223 0
M  V30 9679 H 923.851 -1.56525 3.4319 0
M  V30 9680 H 926.238 -1.65383 2.44402 0
M  V30 9681 H 926.319 0.110202 2.55563 0
M  V30 9682 H 925.963 -0.0553881 5.0787 0
M  V30 9683 H 925.893 -1.82994 4.93782 0
M  V30 9684 H 928.384 -0.927269 3.66347 0
M  V30 9685 H 928.697 -1.28387 7.62061 0
M  V30 9686 H 927.042 -1.16147 6.85226 0
M  V30 9687 H 930.233 -1.06673 4.55783 0
M  V30 9688 H 930.406 -1.22957 6.36228 0
M  V30 9689 N 923.813 -1.49104 -0.510467 0
M  V30 9690 C 925.224 -1.51423 -1.09215 0
M  V30 9691 C 925.575 -0.295035 -1.93969 0
M  V30 9692 O 924.7 0.596064 -2.08029 0
M  V30 9693 C 925.295 -2.74387 -1.98739 0
M  V30 9694 C 923.854 -2.79515 -2.52088 0
M  V30 9695 C 923.001 -2.4521 -1.29488 0
M  V30 9696 H 925.952 -1.55938 -0.294807 0
M  V30 9697 H 925.973 -2.54012 -2.83298 0
M  V30 9698 H 925.485 -3.63105 -1.37026 0
M  V30 9699 H 923.586 -1.95054 -3.17466 0
M  V30 9700 H 923.699 -3.81447 -2.89887 0
M  V30 9701 H 922.063 -1.96785 -1.61703 0
M  V30 9702 H 922.846 -3.36192 -0.694978 0
M  V30 9703 N 925.291 0.760815 -1.38019 0
M  V30 9704 C 926.568 1.5098 -1.24356 0
M  V30 9705 C 926.948 2.10507 0.158169 0
M  V30 9706 O 926.296 1.96455 1.16695 0
M  V30 9707 C 926.506 2.58195 -2.34811 0
M  V30 9708 C 927.854 3.25297 -2.72886 0
M  V30 9709 O 928.878 2.68496 -2.34069 0
M  V30 9710 O 927.737 4.28018 -3.39799 0
M  V30 9711 H 924.831 0.66921 -0.485888 0
M  V30 9712 H 927.377 0.796844 -1.49828 0
M  V30 9713 H 926.149 2.12406 -3.28633 0
M  V30 9714 H 925.772 3.37079 -2.10864 0
M  V30 9715 N 926.769 1.22769 0.988202 0
M  V30 9716 C 927.997 1.08155 1.76381 0
M  V30 9717 C 928.412 -0.367573 1.85187 0
M  V30 9718 O 927.769 -1.25455 1.32541 0
M  V30 9719 C 927.82 1.69193 3.19462 0
M  V30 9720 O 927.541 3.08437 3.11125 0
M  V30 9721 C 929.042 1.59915 4.13451 0
M  V30 9722 H 926.262 0.378908 0.553778 0
M  V30 9723 H 928.806 1.6246 1.24206 0
M  V30 9724 H 926.961 1.18939 3.6869 0
M  V30 9725 H 927.375 3.37916 4.0114 0
M  V30 9726 H 928.849 2.07339 5.1158 0
M  V30 9727 H 929.326 0.556546 4.3566 0
M  V30 9728 H 929.932 2.09497 3.70123 0
M  V30 9729 N 928.247 -1.18576 1.03814 0
M  V30 9730 C 929.18 -2.20929 0.571463 0
M  V30 9731 C 930.158 -1.57788 -0.392636 0
M  V30 9732 O 931.342 -1.85974 -0.30754 0
M  V30 9733 C 928.469 -3.38295 -0.165504 0
M  V30 9734 C 927.515 -4.19828 0.751457 0
M  V30 9735 S 928.348 -4.86725 2.23291 0
M  V30 9736 C 929.504 -6.07494 1.50672 0
M  V30 9737 H 929.737 -2.60173 1.43866 0
M  V30 9738 H 927.27 -1.2897 0.84888 0
M  V30 9739 H 929.228 -4.06317 -0.584545 0
M  V30 9740 H 927.889 -2.97468 -1.00855 0
M  V30 9741 H 927.082 -5.03671 0.181986 0
M  V30 9742 H 926.684 -3.57172 1.10923 0
M  V30 9743 H 928.976 -6.72779 0.798377 0
M  V30 9744 H 929.919 -6.68942 2.3221 0
M  V30 9745 H 930.327 -5.55569 1.00016 0
M  V30 9746 N 929.725 -0.817259 -1.34754 0
M  V30 9747 C 930.655 -0.249769 -2.3216 0
M  V30 9748 C 931.636 0.630663 -1.57977 0
M  V30 9749 O 932.821 0.558719 -1.85989 0
M  V30 9750 C 929.951 0.593825 -3.42186 0
M  V30 9751 C 928.905 -0.188997 -4.27583 0
M  V30 9752 C 928.231 0.776979 -5.29025 0
M  V30 9753 C 929.531 -1.39401 -5.03354 0
M  V30 9754 H 931.225 -1.06359 -2.79872 0
M  V30 9755 H 928.771 -0.512894 -1.34556 0
M  V30 9756 H 930.724 1.00097 -4.09339 0
M  V30 9757 H 929.448 1.44064 -2.93109 0
M  V30 9758 H 928.107 -0.577445 -3.62024 0
M  V30 9759 H 927.755 1.61959 -4.76212 0
M  V30 9760 H 927.455 0.257448 -5.87036 0
M  V30 9761 H 928.979 1.18211 -5.99048 0
M  V30 9762 H 930.393 -1.06117 -5.63393 0
M  V30 9763 H 928.79 -1.84878 -5.70912 0
M  V30 9764 H 929.86 -2.17515 -4.33377 0
M  V30 9765 N 931.203 1.46865 -0.571711 0
M  V30 9766 C 932.451 2.0203 -0.0530022 0
M  V30 9767 C 932.772 1.44687 1.30731 0
M  V30 9768 O 932.042 0.627429 1.85581 0
M  V30 9769 H 930.622 0.746815 -0.0166035 0
M  V30 9770 H 933.284 1.80099 -0.745003 0
M  V30 9771 H 932.38 3.12091 0.0242538 0
M  V30 9772 N 932.681 0.308908 1.54543 0
M  V30 9773 C 933.927 -0.298478 2.00592 0
M  V30 9774 C 934.26 -1.52929 1.19692 0
M  V30 9775 O 933.535 -1.9254 0.27542 0
M  V30 9776 C 933.818 -0.647218 3.54236 0
M  V30 9777 C 933.671 0.593284 4.4587 0
M  V30 9778 C 934.99 -1.47064 4.14801 0
M  V30 9779 H 932.109 -0.107012 0.72919 0
M  V30 9780 H 934.751 0.422578 1.85241 0
M  V30 9781 H 932.901 -1.26153 3.67447 0
M  V30 9782 H 934.573 1.2317 4.44552 0
M  V30 9783 H 932.816 1.22501 4.16144 0
M  V30 9784 H 933.487 0.305018 5.51157 0
M  V30 9785 H 935.963 -0.951511 4.05075 0
M  V30 9786 H 934.839 -1.68343 5.22448 0
M  V30 9787 H 935.1 -2.4623 3.67183 0
M  V30 9788 N 934.159 -1.57557 0.0367827 0
M  V30 9789 C 935.405 -1.92399 -0.641133 0
M  V30 9790 C 935.738 -0.914191 -1.71336 0
M  V30 9791 O 935.013 0.0619616 -1.94401 0
M  V30 9792 C 935.296 -3.37689 -1.25052 0
M  V30 9793 C 935.149 -4.4941 -0.187326 0
M  V30 9794 C 936.468 -3.8309 -2.16634 0
M  V30 9795 H 933.587 -0.699666 -0.231597 0
M  V30 9796 H 936.229 -1.89759 0.0956083 0
M  V30 9797 H 934.379 -3.40069 -1.87843 0
M  V30 9798 H 936.051 -4.59161 0.443736 0
M  V30 9799 H 934.294 -4.31065 0.486313 0
M  V30 9800 H 934.965 -5.48119 -0.653459 0
M  V30 9801 H 937.441 -3.82494 -1.63821 0
M  V30 9802 H 936.317 -4.85429 -2.56222 0
M  V30 9803 H 936.578 -3.19028 -3.06062 0
M  V30 9804 N 935.637 0.236453 -1.55816 0
M  V30 9805 C 936.877 0.970249 -1.79904 0
M  V30 9806 C 937.241 1.8212 -0.607965 0
M  V30 9807 O 938.442 2.58759 -0.727833 0
M  V30 9808 C 936.713 1.79938 -3.088 0
M  V30 9809 S 938.272 2.59084 -3.54148 0
M  V30 9810 H 935.09 0.32618 -0.631765 0
M  V30 9811 H 937.692 0.237147 -1.94056 0
M  V30 9812 H 936.396 1.16412 -3.93544 0
M  V30 9813 H 935.927 2.57504 -2.97414 0
M  V30 9814 H 937.942 3.82315 -3.16306 0
M  V30 9815 N 937.115 1.49373 0.502552 0
M  V30 9816 C 938.363 1.58467 1.25429 0
M  V30 9817 C 938.684 0.272593 1.93085 0
M  V30 9818 O 937.954 -0.707947 1.82661 0
M  V30 9819 H 936.534 0.583866 0.46595 0
M  V30 9820 H 939.196 1.8599 0.582568 0
M  V30 9821 H 938.292 2.37993 2.01906 0
M  V30 9822 N 938.594 -0.753485 1.38421 0
M  V30 9823 C 939.557 -1.84888 1.35459 0
M  V30 9824 C 940.557 -1.58764 0.255083 0
M  V30 9825 O 941.747 -1.66507 0.511978 0
M  V30 9826 C 938.879 -3.22361 1.10888 0
M  V30 9827 H 940.072 -1.88922 2.32913 0
M  V30 9828 H 937.625 -0.955199 1.23716 0
M  V30 9829 H 938.36 -3.23996 0.1404 0
M  V30 9830 H 938.145 -3.42717 1.90492 0
M  V30 9831 H 939.635 -4.02437 1.1151 0
M  V30 9832 N 940.072 -1.23292 -0.981677 0
M  V30 9833 C 941.002 -1.03738 -2.09191 0
M  V30 9834 C 941.983 0.0453041 -1.7004 0
M  V30 9835 O 943.168 -0.119092 -1.93834 0
M  V30 9836 C 940.298 -0.626426 -3.41604 0
M  V30 9837 C 939.252 -1.65631 -3.94652 0
M  V30 9838 C 938.578 -1.10084 -5.23245 0
M  V30 9839 C 939.878 -3.04903 -4.24066 0
M  V30 9840 H 941.572 -1.966 -2.25807 0
M  V30 9841 H 939.118 -0.946656 -1.0851 0
M  V30 9842 H 941.071 -0.476689 -4.18695 0
M  V30 9843 H 939.795 0.337873 -3.24848 0
M  V30 9844 H 938.454 -1.79402 -3.19704 0
M  V30 9845 H 938.102 -0.127562 -5.02838 0
M  V30 9846 H 937.802 -1.78896 -5.59705 0
M  V30 9847 H 939.326 -0.962928 -6.02959 0
M  V30 9848 H 940.74 -2.94441 -4.91912 0
M  V30 9849 H 939.137 -3.70941 -4.71724 0
M  V30 9850 H 940.207 -3.53991 -3.31389 0
M  V30 9851 N 941.55 1.18024 -1.04442 0
M  V30 9852 C 942.5 2.19714 -0.609069 0
M  V30 9853 C 943.484 1.57037 0.350473 0
M  V30 9854 O 944.676 1.76192 0.16892 0
M  V30 9855 C 941.805 3.43293 0.0225911 0
M  V30 9856 C 940.891 4.13084 -0.960325 0
M  V30 9857 N 941.282 4.58819 -2.12883 0
M  V30 9858 C 939.58 4.38999 -0.787146 0
M  V30 9859 C 940.281 5.12589 -2.75004 0
M  V30 9860 N 939.257 5.04333 -2.02853 0
M  V30 9861 H 943.059 2.5277 -1.49948 0
M  V30 9862 H 940.573 1.34271 -0.913517 0
M  V30 9863 H 942.57 4.1541 0.352196 0
M  V30 9864 H 941.23 3.11731 0.908495 0
M  V30 9865 H 942.241 4.53148 -2.50754 0
M  V30 9866 H 938.918 4.17472 0.048348 0
M  V30 9867 H 940.308 5.58152 -3.74053 0
M  V30 9868 N 943.028 0.824394 1.34319 0
M  V30 9869 C 944.274 0.413779 1.98534 0
M  V30 9870 C 944.607 -1.02089 1.65201 0
M  V30 9871 O 943.882 -1.71129 0.924402 0
M  V30 9872 C 944.165 0.61801 3.54757 0
M  V30 9873 C 944.018 2.0989 3.97827 0
M  V30 9874 C 945.337 0.0549041 4.40066 0
M  V30 9875 H 942.456 0.151815 0.721194 0
M  V30 9876 H 945.098 1.03723 1.5919 0
M  V30 9877 H 943.248 0.0873107 3.88402 0
M  V30 9878 H 944.92 2.69335 3.74508 0
M  V30 9879 H 943.163 2.58881 3.48085 0
M  V30 9880 H 943.834 2.1926 5.06586 0
M  V30 9881 H 946.31 0.508348 4.12983 0
M  V30 9882 H 945.186 0.227595 5.48428 0
M  V30 9883 H 945.447 -1.04025 4.29687 0
M  V30 9884 N 944.506 -1.46559 0.579492 0
M  V30 9885 C 945.469 -2.28739 -0.145371 0
M  V30 9886 C 946.469 -1.38211 -0.821854 0
M  V30 9887 O 947.659 -1.6062 -0.674302 0
M  V30 9888 C 944.791 -3.18507 -1.21515 0
M  V30 9889 H 945.984 -2.94301 0.576786 0
M  V30 9890 H 943.537 -1.52616 0.337327 0
M  V30 9891 H 944.272 -2.57685 -1.96899 0
M  V30 9892 H 944.057 -3.85157 -0.734616 0
M  V30 9893 H 945.547 -3.80369 -1.72363 0
M  V30 9894 N 945.984 -0.3171 -1.54377 0
M  V30 9895 C 947.261 0.341348 -1.92598 0
M  V30 9896 C 947.641 1.70402 -1.24605 0
M  V30 9897 O 946.989 2.25191 -0.387448 0
M  V30 9898 C 947.199 0.440003 -3.46215 0
M  V30 9899 C 948.547 0.703327 -4.18734 0
M  V30 9900 O 949.571 0.523181 -3.52337 0
M  V30 9901 O 948.43 1.05042 -5.3631 0
M  V30 9902 H 945.524 0.193696 -0.803997 0
M  V30 9903 H 948.07 -0.366341 -1.65699 0
M  V30 9904 H 946.842 -0.517299 -3.87866 0
M  V30 9905 H 946.465 1.19553 -3.792 0
M  V30 9906 N 947.462 1.57535 -0.0451378 0
M  V30 9907 C 948.708 1.92736 0.630921 0
M  V30 9908 C 949.041 0.923265 1.70849 0
M  V30 9909 O 948.316 -0.0516512 1.94431 0
M  V30 9910 C 948.599 3.38348 1.23259 0
M  V30 9911 C 948.452 4.49503 0.16349 0
M  V30 9912 C 949.771 3.84233 2.14599 0
M  V30 9913 H 946.89 0.700884 0.227883 0
M  V30 9914 H 949.532 1.89706 -0.10567 0
M  V30 9915 H 947.682 3.41061 1.86037 0
M  V30 9916 H 949.354 4.58919 -0.46808 0
M  V30 9917 H 947.597 4.30802 -0.509166 0
M  V30 9918 H 948.268 5.48457 0.624382 0
M  V30 9919 H 950.744 3.83358 1.6179 0
M  V30 9920 H 949.62 4.86781 2.53644 0
M  V30 9921 H 949.881 3.20646 3.04366 0
M  V30 9922 N 948.94 -0.228186 1.55939 0
M  V30 9923 C 950.165 -0.974795 1.83064 0
M  V30 9924 C 950.59 -1.77426 0.624624 0
M  V30 9925 O 949.948 -1.76211 -0.426556 0
M  V30 9926 C 949.996 -1.87342 3.08116 0
M  V30 9927 O 949.1 -2.96784 2.86344 0
M  V30 9928 H 948.441 -0.276379 0.603747 0
M  V30 9929 H 950.971 -0.243507 2.03146 0
M  V30 9930 H 950.981 -2.28451 3.38045 0
M  V30 9931 H 949.656 -1.28575 3.95526 0
M  V30 9932 H 948.233 -2.59669 2.67631 0
M  V30 9933 N 950.418 -1.49637 -0.494624 0
M  V30 9934 C 951.348 -1.69692 -1.60396 0
M  V30 9935 C 952.329 -0.545648 -1.61111 0
M  V30 9936 O 953.514 -0.782202 -1.77751 0
M  V30 9937 C 950.644 -1.76934 -2.9885 0
M  V30 9938 C 949.598 -2.91915 -3.13001 0
M  V30 9939 C 948.924 -2.84276 -4.5287 0
M  V30 9940 C 950.224 -4.32764 -2.92426 0
M  V30 9941 H 951.918 -2.6257 -1.43866 0
M  V30 9942 H 949.464 -1.26355 -0.690679 0
M  V30 9943 H 951.417 -1.8955 -3.76362 0
M  V30 9944 H 950.141 -0.806609 -3.16483 0
M  V30 9945 H 948.8 -2.78911 -2.37916 0
M  V30 9946 H 948.448 -1.85897 -4.67388 0
M  V30 9947 H 948.148 -3.61452 -4.63278 0
M  V30 9948 H 949.672 -2.98909 -5.32434 0
M  V30 9949 H 951.086 -4.46415 -3.59703 0
M  V30 9950 H 949.483 -5.1121 -3.143 0
M  V30 9951 H 950.553 -4.46765 -1.88491 0
M  V30 9952 N 951.896 0.746133 -1.38819 0
M  V30 9953 C 953.312 1.0502 -1.20179 0
M  V30 9954 C 953.512 2.01423 -0.0556271 0
M  V30 9955 O 952.568 2.45359 0.59625 0
M  V30 9956 C 953.881 1.62315 -2.53129 0
M  V30 9957 C 955.429 1.74449 -2.59878 0
M  V30 9958 C 955.904 2.35155 -3.93022 0
M  V30 9959 N 957.395 2.42577 -3.94602 0
M  V30 9960 C 958.13 2.9046 -4.94389 0
M  V30 9961 N 957.626 3.38322 -6.04574 0
M  V30 9962 N 959.419 2.89568 -4.81775 0
M  V30 9963 H 951.57 0.106551 -2.12133 0
M  V30 9964 H 953.833 0.109897 -0.941609 0
M  V30 9965 H 953.539 0.98946 -3.37495 0
M  V30 9966 H 953.413 2.61276 -2.72057 0
M  V30 9967 H 955.8 2.36943 -1.75903 0
M  V30 9968 H 955.881 0.741721 -2.4481 0
M  V30 9969 H 955.525 1.73292 -4.77422 0
M  V30 9970 H 955.455 3.36088 -4.05404 0
M  V30 9971 H 957.946 2.08735 -3.15021 0
M  V30 9972 H 958.259 3.73336 -6.76639 0
M  V30 9973 H 956.604 3.3636 -6.08184 0
M  V30 9974 H 959.795 2.51492 -3.94803 0
M  V30 9975 H 959.968 3.26571 -5.59692 0
M  V30 9976 N 953.375 1.23811 0.975125 0
M  V30 9977 C 954.323 1.02149 2.0897 0
M  V30 9978 C 955.317 -0.0412172 1.6935 0
M  V30 9979 O 956.523 0.112726 1.79647 0
M  V30 9980 H 952.898 0.313259 0.683647 0
M  V30 9981 H 954.869 1.96686 2.24404 0
M  V30 9982 C 953.618 0.635023 3.41852 0
M  V30 9983 H 952.941 1.44449 3.72793 0
M  V30 9984 H 954.381 0.52301 4.20762 0
M  V30 9985 C 952.84 -0.657207 3.30428 0
M  V30 9986 O 953.37 -1.70494 3.63723 0
M  V30 9987 N 951.576 -0.635122 2.83575 0
M  V30 9988 H 951.123 0.21784 2.56677 0
M  V30 9989 H 951.081 -1.49995 2.76313 0
M  V30 9990 N 954.853 -1.17469 1.05066 0
M  V30 9991 C 956.078 -1.92162 0.780298 0
M  V30 9992 C 956.503 -1.76222 -0.657832 0
M  V30 9993 O 955.861 -1.0791 -1.45688 0
M  V30 9994 C 955.909 -3.41292 1.16414 0
M  V30 9995 O 955.013 -4.1134 0.295531 0
M  V30 9996 H 954.354 -0.599127 0.286257 0
M  V30 9997 H 956.884 -1.48903 1.40318 0
M  V30 9998 H 956.894 -3.92029 1.13036 0
M  V30 9999 H 955.569 -3.52214 2.21175 0
M  V30 10000 H 954.146 -3.70857 0.389797 0
M  V30 10001 N 956.331 -0.831506 -1.3388 0
M  V30 10002 C 957.577 -0.424302 -1.98312 0
M  V30 10003 C 957.91 1.01211 -1.65741 0
M  V30 10004 O 957.185 1.70636 -0.933464 0
M  V30 10005 C 957.468 -0.636815 -3.54424 0
M  V30 10006 C 957.321 -2.11997 -3.96708 0
M  V30 10007 C 958.64 -0.0782411 -4.4003 0
M  V30 10008 H 955.759 -0.155637 -0.720379 0
M  V30 10009 H 958.401 -1.04566 -1.58638 0
M  V30 10010 H 956.551 -0.107907 -3.8835 0
M  V30 10011 H 958.223 -2.71317 -3.73075 0
M  V30 10012 H 956.466 -2.60723 -3.46707 0
M  V30 10013 H 957.137 -2.21944 -5.05416 0
M  V30 10014 H 959.613 -0.530243 -4.12708 0
M  V30 10015 H 958.489 -0.256676 -5.483 0
M  V30 10016 H 958.75 1.01745 -4.30233 0
M  V30 10017 N 957.809 1.4625 -0.587256 0
M  V30 10018 C 959.034 2.07252 -0.0784517 0
M  V30 10019 C 959.459 1.43239 1.21919 0
M  V30 10020 O 958.817 0.517791 1.73749 0
M  V30 10021 C 958.865 3.60534 0.0691037 0
M  V30 10022 O 957.969 3.96773 1.12448 0
M  V30 10023 H 957.31 0.660825 -0.064859 0
M  V30 10024 H 959.84 1.87819 -0.811491 0
M  V30 10025 H 959.85 4.0708 0.273826 0
M  V30 10026 H 958.525 4.06516 -0.878514 0
M  V30 10027 H 957.102 3.6193 0.897852 0
M  V30 10028 N 959.287 0.325282 1.54207 0
M  V30 10029 C 960.235 -0.5554 2.25872 0
M  V30 10030 C 961.229 -1.11714 1.27344 0
M  V30 10031 O 962.435 -1.06498 1.45115 0
M  V30 10032 H 958.81 -0.19776 0.725531 0
M  V30 10033 H 960.781 0.0712858 2.98315 0
M  V30 10034 C 959.53 -1.70379 3.03095 0
M  V30 10035 H 958.853 -1.2808 3.78729 0
M  V30 10036 H 960.293 -2.29556 3.56483 0
M  V30 10037 C 958.752 -2.62242 2.11496 0
M  V30 10038 O 959.282 -3.64003 1.69895 0
M  V30 10039 N 957.488 -2.30515 1.7695 0
M  V30 10040 H 957.035 -1.47805 2.10978 0
M  V30 10041 H 956.993 -2.92241 1.15942 0
M  V30 10042 N 960.765 -1.57509 0.0534917 0
M  V30 10043 C 962.012 -1.92782 -0.619772 0
M  V30 10044 C 962.34 -0.932046 -1.70714 0
M  V30 10045 O 961.595 0.0552891 -1.95622 0
M  V30 10046 C 961.894 -3.34734 -1.25251 0
M  V30 10047 C 961.56 -4.49946 -0.293113 0
M  V30 10048 C 960.222 -4.81191 -0.0291223 0
M  V30 10049 C 962.574 -5.19925 0.364271 0
M  V30 10050 C 959.902 -5.79761 0.899649 0
M  V30 10051 C 962.254 -6.19489 1.28125 0
M  V30 10052 C 960.918 -6.49161 1.55389 0
M  V30 10053 H 960.188 -0.705441 -0.226791 0
M  V30 10054 H 962.835 -1.91121 0.120466 0
M  V30 10055 H 961.14 -3.32774 -2.06807 0
M  V30 10056 H 962.837 -3.59308 -1.78042 0
M  V30 10057 H 959.427 -4.25566 -0.509053 0
M  V30 10058 H 963.611 -4.95997 0.173411 0
M  V30 10059 H 958.867 -6.01085 1.11833 0
M  V30 10060 H 963.041 -6.72824 1.79669 0
M  V30 10061 H 960.668 -7.25354 2.2752 0
M  V30 10062 N 962.243 0.219913 -1.56058 0
M  V30 10063 C 963.173 1.27572 -1.9557 0
M  V30 10064 C 964.154 1.48801 -0.824148 0
M  V30 10065 O 965.339 1.60957 -1.08658 0
M  V30 10066 C 962.469 2.62517 -2.27381 0
M  V30 10067 C 961.423 2.55941 -3.43042 0
M  V30 10068 C 960.749 3.94931 -3.60463 0
M  V30 10069 C 962.049 2.10584 -4.77966 0
M  V30 10070 H 963.743 0.947482 -2.84013 0
M  V30 10071 H 961.289 0.454337 -1.36645 0
M  V30 10072 H 963.242 3.36538 -2.53615 0
M  V30 10073 H 961.966 2.97031 -1.35794 0
M  V30 10074 H 960.625 1.84377 -3.1686 0
M  V30 10075 H 960.273 4.26756 -2.66249 0
M  V30 10076 H 959.973 3.91413 -4.38258 0
M  V30 10077 H 961.497 4.70611 -3.89046 0
M  V30 10078 H 962.911 2.74349 -5.03394 0
M  V30 10079 H 961.308 2.18122 -5.59055 0
M  V30 10080 H 962.378 1.05818 -4.73213 0
M  V30 10081 N 963.721 1.49897 0.486681 0
M  V30 10082 C 964.671 1.6401 1.58381 0
M  V30 10083 C 965.655 0.495215 1.5309 0
M  V30 10084 O 966.847 0.748876 1.60377 0
M  V30 10085 C 963.976 1.72321 2.96918 0
M  V30 10086 C 963.062 2.92435 3.07152 0
M  V30 10087 N 963.453 4.16326 2.87238 0
M  V30 10088 C 961.751 2.90669 3.38271 0
M  V30 10089 C 962.452 4.97144 3.02031 0
M  V30 10090 N 961.428 4.3079 3.31544 0
M  V30 10091 H 965.23 2.57506 1.41661 0
M  V30 10092 H 962.744 1.46867 0.693106 0
M  V30 10093 H 964.741 1.80532 3.75784 0
M  V30 10094 H 963.401 0.799724 3.14697 0
M  V30 10095 H 964.412 4.46076 2.63128 0
M  V30 10096 H 961.089 2.07758 3.62137 0
M  V30 10097 H 962.479 6.05611 2.91006 0
M  V30 10098 N 965.199 -0.738761 1.39212 0
M  V30 10099 C 966.424 -1.5331 1.39681 0
M  V30 10100 C 966.849 -1.88098 -0.00768715 0
M  V30 10101 O 966.207 -1.51642 -0.993699 0
M  V30 10102 C 966.255 -2.79958 2.27279 0
M  V30 10103 O 965.359 -3.75727 1.70008 0
M  V30 10104 H 964.7 -0.463131 0.475821 0
M  V30 10105 H 967.23 -0.911768 1.83161 0
M  V30 10106 H 967.24 -3.28732 2.41659 0
M  V30 10107 H 965.915 -2.5397 3.29351 0
M  V30 10108 H 964.492 -3.34483 1.64851 0
M  V30 10109 N 966.677 -1.24326 -0.968545 0
M  V30 10110 C 967.607 -1.05951 -2.08079 0
M  V30 10111 C 968.588 0.0272666 -1.70078 0
M  V30 10112 O 969.773 -0.139644 -1.93697 0
M  V30 10113 C 966.903 -0.662623 -3.4092 0
M  V30 10114 C 965.857 -1.69807 -3.92873 0
M  V30 10115 C 965.183 -1.15628 -5.22048 0
M  V30 10116 C 966.483 -3.09383 -4.20808 0
M  V30 10117 H 968.177 -1.98984 -2.23709 0
M  V30 10118 H 965.723 -0.958112 -1.075 0
M  V30 10119 H 967.676 -0.521071 -4.18166 0
M  V30 10120 H 966.4 0.303399 -3.25188 0
M  V30 10121 H 965.059 -1.82783 -3.17783 0
M  V30 10122 H 964.707 -0.180888 -5.02675 0
M  V30 10123 H 964.407 -1.84822 -5.57776 0
M  V30 10124 H 965.931 -1.02683 -6.01904 0
M  V30 10125 H 967.345 -2.99642 -4.88761 0
M  V30 10126 H 965.742 -3.75923 -4.67763 0
M  V30 10127 H 966.812 -3.57486 -3.27616 0
M  V30 10128 N 968.156 1.1691 -1.05688 0
M  V30 10129 C 969.066 2.24735 -0.67315 0
M  V30 10130 C 970.082 1.71252 0.308043 0
M  V30 10131 O 971.258 2.00772 0.158889 0
M  V30 10132 C 968.323 3.4665 -0.059026 0
M  V30 10133 C 967.384 4.15198 -1.0913 0
M  V30 10134 C 966.617 5.31292 -0.50639 0
M  V30 10135 O 966.84 5.663 0.682692 0
M  V30 10136 O 965.774 5.88923 -1.2431 0
M  V30 10137 H 969.6 2.59855 -1.57191 0
M  V30 10138 H 967.185 1.24306 -0.828751 0
M  V30 10139 H 969.067 4.20455 0.282018 0
M  V30 10140 H 967.742 3.13316 0.813304 0
M  V30 10141 H 966.649 3.43389 -1.48442 0
M  V30 10142 H 967.982 4.52571 -1.93495 0
M  V30 10143 N 969.634 0.838594 1.33437 0
M  V30 10144 C 971.05 0.526347 1.50671 0
M  V30 10145 C 971.25 -0.946387 1.77893 0
M  V30 10146 O 970.306 -1.7302 1.83903 0
M  V30 10147 C 971.619 1.39945 2.6615 0
M  V30 10148 C 973.167 1.3982 2.80035 0
M  V30 10149 C 973.642 2.25614 3.98576 0
M  V30 10150 N 975.133 2.23322 4.0581 0
M  V30 10151 C 975.868 2.86443 4.96727 0
M  V30 10152 N 975.364 3.58616 5.92762 0
M  V30 10153 N 977.157 2.75915 4.89722 0
M  V30 10154 H 969.308 1.79195 1.1403 0
M  V30 10155 H 971.571 0.764491 0.560586 0
M  V30 10156 H 971.277 2.44599 2.52714 0
M  V30 10157 H 971.151 1.07529 3.61548 0
M  V30 10158 H 973.538 0.35937 2.92904 0
M  V30 10159 H 973.619 1.76241 1.85399 0
M  V30 10160 H 973.263 3.29555 3.86466 0
M  V30 10161 H 973.193 1.86533 4.92456 0
M  V30 10162 H 975.684 1.70836 3.37081 0
M  V30 10163 H 975.997 4.03987 6.58798 0
M  V30 10164 H 974.342 3.62724 5.92838 0
M  V30 10165 H 977.533 2.19094 4.13661 0
M  V30 10166 H 977.706 3.25393 5.60378 0
M  V30 10167 N 971.112 -1.45937 0.595003 0
M  V30 10168 C 972.36 -2.01921 0.0851368 0
M  V30 10169 C 972.681 -1.46748 -1.28413 0
M  V30 10170 O 971.951 -0.656873 -1.84559 0
M  V30 10171 H 970.531 -0.746457 0.0284826 0
M  V30 10172 H 973.193 -1.78891 0.773561 0
M  V30 10173 H 972.289 -3.1209 0.0254002 0
M  V30 10174 N 972.59 -0.333456 -1.54032 0
M  V30 10175 C 973.522 0.562174 -2.22199 0
M  V30 10176 C 974.535 1.07202 -1.22522 0
M  V30 10177 O 975.724 0.983897 -1.48935 0
M  V30 10178 C 972.824 1.78525 -2.88066 0
M  V30 10179 C 971.997 1.41242 -4.13968 0
M  V30 10180 C 971.056 2.49408 -4.63338 0
M  V30 10181 O 970.082 2.13138 -5.27789 0
M  V30 10182 N 971.284 3.805 -4.38406 0
M  V30 10183 H 974.049 -0.0215629 -2.99692 0
M  V30 10184 H 971.61 -0.157111 -1.61136 0
M  V30 10185 H 973.602 2.50298 -3.18014 0
M  V30 10186 H 972.172 2.2766 -2.14219 0
M  V30 10187 H 971.392 0.525887 -3.90676 0
M  V30 10188 H 972.68 1.13916 -4.95884 0
M  V30 10189 H 972.078 4.12761 -3.86839 0
M  V30 10190 H 970.635 4.48474 -4.72984 0
M  V30 10191 N 974.068 1.57479 -0.061844 0
M  V30 10192 C 975.314 1.93395 0.610443 0
M  V30 10193 C 975.647 0.941334 1.6986 0
M  V30 10194 O 974.922 -0.0310262 1.94475 0
M  V30 10195 C 975.205 3.39636 1.19664 0
M  V30 10196 C 975.058 4.49651 0.115805 0
M  V30 10197 C 976.377 3.86488 2.10512 0
M  V30 10198 H 973.496 0.703262 0.220436 0
M  V30 10199 H 976.138 1.89583 -0.125785 0
M  V30 10200 H 974.288 3.43015 1.82409 0
M  V30 10201 H 975.96 4.58397 -0.516728 0
M  V30 10202 H 974.203 4.30237 -0.55483 0
M  V30 10203 H 974.874 5.49089 0.566176 0
M  V30 10204 H 977.35 3.85052 1.57715 0
M  V30 10205 H 976.226 4.89444 2.48466 0
M  V30 10206 H 976.487 3.23856 3.00948 0
M  V30 10207 N 975.546 -0.211634 1.56173 0
M  V30 10208 C 976.476 -1.26533 1.96244 0
M  V30 10209 C 977.457 -1.48362 0.832028 0
M  V30 10210 O 978.642 -1.60378 1.0951 0
M  V30 10211 C 975.772 -2.61307 2.2877 0
M  V30 10212 C 974.726 -2.54119 3.44395 0
M  V30 10213 C 974.052 -3.93014 3.62552 0
M  V30 10214 C 975.352 -2.08046 4.79076 0
M  V30 10215 H 977.046 -0.932407 2.84511 0
M  V30 10216 H 974.592 -0.447084 1.36884 0
M  V30 10217 H 976.545 -3.35188 2.55396 0
M  V30 10218 H 975.269 -2.96307 1.37367 0
M  V30 10219 H 973.928 -1.82694 3.17834 0
M  V30 10220 H 973.576 -4.25338 2.68508 0
M  V30 10221 H 973.276 -3.89083 4.40327 0
M  V30 10222 H 974.8 -4.68542 3.91537 0
M  V30 10223 H 976.214 -2.71676 5.04842 0
M  V30 10224 H 974.611 -2.15154 5.60204 0
M  V30 10225 H 975.681 -1.03306 4.73768 0
M  V30 10226 N 977.024 -1.50153 -0.478725 0
M  V30 10227 C 978.435 -1.53706 -1.05978 0
M  V30 10228 C 978.786 -0.336112 -1.933 0
M  V30 10229 O 977.911 0.551803 -2.09246 0
M  V30 10230 C 978.506 -2.78541 -1.92874 0
M  V30 10231 C 977.065 -2.848 -2.46102 0
M  V30 10232 C 976.212 -2.47902 -1.24257 0
M  V30 10233 H 979.163 -1.56528 -0.261664 0
M  V30 10234 H 979.184 -2.59964 -2.77847 0
M  V30 10235 H 978.696 -3.6593 -1.29293 0
M  V30 10236 H 976.797 -2.01744 -3.13257 0
M  V30 10237 H 976.91 -3.87511 -2.81731 0
M  V30 10238 H 975.274 -2.0017 -1.57493 0
M  V30 10239 H 976.057 -3.3759 -0.62351 0
M  V30 10240 N 978.502 0.731368 -1.39602 0
M  V30 10241 C 979.465 1.8271 -1.38383 0
M  V30 10242 C 980.465 1.58338 -0.280309 0
M  V30 10243 O 981.655 1.65671 -0.538402 0
M  V30 10244 C 978.787 3.20556 -1.16002 0
M  V30 10245 H 979.98 1.85193 -2.35889 0
M  V30 10246 H 977.533 0.935396 -1.2522 0
M  V30 10247 H 978.268 3.23732 -0.191927 0
M  V30 10248 H 978.053 3.39643 -1.9592 0
M  V30 10249 H 979.543 4.00612 -1.17899 0
M  V30 10250 N 979.98 1.24838 0.961938 0
M  V30 10251 C 980.93 1.01276 2.04272 0
M  V30 10252 C 981.914 -0.0478239 1.60829 0
M  V30 10253 O 983.106 0.166616 1.76214 0
M  V30 10254 C 980.235 0.625659 3.37551 0
M  V30 10255 C 979.321 1.72262 3.87539 0
M  V30 10256 N 979.712 2.95644 4.104 0
M  V30 10257 C 978.01 1.60146 4.16256 0
M  V30 10258 C 978.711 3.66796 4.51482 0
M  V30 10259 N 977.687 2.94383 4.56989 0
M  V30 10260 H 981.489 1.94956 2.19931 0
M  V30 10261 H 979.003 1.15049 1.14619 0
M  V30 10262 H 981 0.438072 4.14592 0
M  V30 10263 H 979.66 -0.303887 3.23275 0
M  V30 10264 H 980.671 3.31764 3.97685 0
M  V30 10265 H 977.348 0.740353 4.10883 0
M  V30 10266 H 978.738 4.72664 4.77534 0
M  V30 10267 N 981.458 -1.16348 1.06306 0
M  V30 10268 C 982.686 -1.90782 0.800614 0
M  V30 10269 C 983.101 -1.77439 -0.645033 0
M  V30 10270 O 982.458 -1.11912 -1.4416 0
M  V30 10271 C 982.509 -3.41484 1.18621 0
M  V30 10272 O 982.23 -3.54428 2.57512 0
M  V30 10273 C 983.731 -4.32968 0.951525 0
M  V30 10274 H 980.951 -0.604977 0.290247 0
M  V30 10275 H 983.495 -1.47476 1.41672 0
M  V30 10276 H 981.65 -3.82493 0.614633 0
M  V30 10277 H 982.064 -4.4788 2.72954 0
M  V30 10278 H 983.538 -5.37169 1.27095 0
M  V30 10279 H 984.015 -4.39055 -0.112734 0
M  V30 10280 H 984.621 -3.97687 1.50749 0
M  V30 10281 N 982.937 -0.845659 -1.3299 0
M  V30 10282 C 983.867 -0.298957 -2.31578 0
M  V30 10283 C 984.848 0.597012 -1.59279 0
M  V30 10284 O 986.033 0.519142 -1.87132 0
M  V30 10285 C 983.163 0.521109 -3.43368 0
M  V30 10286 C 982.117 -0.279651 -4.27085 0
M  V30 10287 C 981.443 0.664591 -5.30554 0
M  V30 10288 C 982.743 -1.50046 -5.00283 0
M  V30 10289 H 984.437 -1.12272 -2.77552 0
M  V30 10290 H 981.983 -0.54132 -1.33438 0
M  V30 10291 H 983.936 0.913921 -4.1137 0
M  V30 10292 H 982.66 1.37815 -2.96099 0
M  V30 10293 H 981.319 -0.654106 -3.60717 0
M  V30 10294 H 980.967 1.51822 -4.79541 0
M  V30 10295 H 980.667 0.132871 -5.8745 0
M  V30 10296 H 982.191 1.05477 -6.01421 0
M  V30 10297 H 983.605 -1.18044 -5.61016 0
M  V30 10298 H 982.002 -1.96946 -5.66862 0
M  V30 10299 H 983.072 -2.26659 -4.28665 0
M  V30 10300 N 984.415 1.45619 -0.602734 0
M  V30 10301 C 985.345 2.33258 0.106342 0
M  V30 10302 C 986.326 1.46543 0.863664 0
M  V30 10303 O 987.511 1.75324 0.835175 0
M  V30 10304 C 984.641 3.29168 1.10751 0
M  V30 10305 C 983.595 4.25481 0.463717 0
M  V30 10306 C 982.921 5.11046 1.57278 0
M  V30 10307 C 984.221 5.18702 -0.61199 0
M  V30 10308 H 985.915 2.92795 -0.625423 0
M  V30 10309 H 983.461 1.40793 -0.302213 0
M  V30 10310 H 985.414 3.89346 1.61208 0
M  V30 10311 H 984.138 2.6778 1.8698 0
M  V30 10312 H 982.797 3.66595 -0.0199496 0
M  V30 10313 H 982.445 4.46029 2.32524 0
M  V30 10314 H 982.145 5.76286 1.14755 0
M  V30 10315 H 983.669 5.74091 2.07972 0
M  V30 10316 H 985.083 5.72979 -0.191686 0
M  V30 10317 H 983.48 5.92393 -0.958686 0
M  V30 10318 H 984.55 4.61424 -1.4905 0
M  V30 10319 N 985.893 0.34162 1.53853 0
M  V30 10320 C 986.841 -0.531412 2.26448 0
M  V30 10321 C 987.835 -1.10357 1.28521 0
M  V30 10322 O 989.041 -1.04953 1.46236 0
M  V30 10323 H 985.416 -0.190054 0.727588 0
M  V30 10324 H 987.387 0.102922 2.98222 0
M  V30 10325 C 986.136 -1.67154 3.04885 0
M  V30 10326 H 985.459 -1.24055 3.80066 0
M  V30 10327 H 986.899 -2.25762 3.58898 0
M  V30 10328 C 985.358 -2.59984 2.14266 0
M  V30 10329 O 985.888 -3.62181 1.73746 0
M  V30 10330 N 984.094 -2.28625 1.79385 0
M  V30 10331 H 983.641 -1.45559 2.12533 0
M  V30 10332 H 983.599 -2.90995 1.19035 0
M  V30 10333 N 987.371 -1.57444 0.0701946 0
M  V30 10334 C 988.599 -1.97754 -0.608358 0
M  V30 10335 C 989.014 -0.948496 -1.63245 0
M  V30 10336 O 988.371 0.065046 -1.82384 0
M  V30 10337 C 988.422 -3.38142 -1.27836 0
M  V30 10338 O 988.143 -4.37104 -0.295255 0
M  V30 10339 C 989.644 -3.93318 -2.04489 0
M  V30 10340 H 986.864 -0.650398 -0.164997 0
M  V30 10341 H 989.408 -2.04006 0.142124 0
M  V30 10342 H 987.563 -3.32982 -1.97994 0
M  V30 10343 H 987.977 -5.18732 -0.77574 0
M  V30 10344 H 989.451 -4.93774 -2.46762 0
M  V30 10345 H 989.928 -3.29774 -2.90079 0
M  V30 10346 H 990.534 -4.01875 -1.39201 0
M  V30 10347 N 988.849 0.203349 -1.56283 0
M  V30 10348 C 990.095 0.926381 -1.80405 0
M  V30 10349 C 990.428 1.8325 -0.642883 0
M  V30 10350 O 989.703 1.91196 0.356998 0
M  V30 10351 C 989.986 1.74972 -3.14733 0
M  V30 10352 C 989.839 0.868866 -4.41328 0
M  V30 10353 C 991.158 2.72394 -3.45672 0
M  V30 10354 H 988.277 0.335346 -0.656286 0
M  V30 10355 H 990.919 0.1942 -1.89005 0
M  V30 10356 H 989.069 2.37394 -3.07533 0
M  V30 10357 H 990.741 0.259986 -4.60567 0
M  V30 10358 H 988.984 0.175161 -4.33446 0
M  V30 10359 H 989.655 1.47975 -5.31796 0
M  V30 10360 H 992.131 2.20105 -3.53119 0
M  V30 10361 H 991.007 3.27091 -4.40798 0
M  V30 10362 H 991.268 3.51035 -2.6875 0
M  V30 10363 N 990.327 1.50405 0.470755 0
M  V30 10364 C 991.604 1.51929 1.23195 0
M  V30 10365 C 991.984 0.264159 2.09441 0
M  V30 10366 O 991.332 -0.752395 2.15757 0
M  V30 10367 C 991.542 2.81521 2.06269 0
M  V30 10368 C 992.89 3.32195 2.64446 0
M  V30 10369 O 993.914 2.82845 2.16511 0
M  V30 10370 O 992.773 4.18221 3.51786 0
M  V30 10371 H 989.867 0.609411 0.559059 0
M  V30 10372 H 992.413 1.62695 0.482549 0
M  V30 10373 H 991.185 3.64346 1.42715 0
M  V30 10374 H 990.808 2.7376 2.88342 0
M  V30 10375 N 991.805 -0.723954 1.39988 0
M  V30 10376 C 993.051 -1.48591 1.38017 0
M  V30 10377 C 993.384 -1.94189 -0.0203522 0
M  V30 10378 O 992.659 -1.67572 -0.987422 0
M  V30 10379 C 992.942 -2.71786 2.36229 0
M  V30 10380 C 992.795 -2.32136 3.8527 0
M  V30 10381 C 994.114 -3.73921 2.32102 0
M  V30 10382 H 991.233 -0.538993 0.502648 0
M  V30 10383 H 993.875 -0.826908 1.71062 0
M  V30 10384 H 992.025 -3.28015 2.0818 0
M  V30 10385 H 993.697 -1.81454 4.24113 0
M  V30 10386 H 991.94 -1.64234 4.01509 0
M  V30 10387 H 992.611 -3.20406 4.49493 0
M  V30 10388 H 995.087 -3.27303 2.56928 0
M  V30 10389 H 993.963 -4.5777 3.02882 0
M  V30 10390 H 994.224 -4.21627 1.32979 0
M  V30 10391 N 993.283 -1.25346 -0.955304 0
M  V30 10392 C 994.193 -1.07412 -2.08566 0
M  V30 10393 C 995.209 -0.0114424 -1.73996 0
M  V30 10394 O 996.385 -0.212236 -2.00279 0
M  V30 10395 C 993.45 -0.694141 -3.3968 0
M  V30 10396 C 992.511 -1.83468 -3.88121 0
M  V30 10397 C 991.744 -1.47274 -5.12978 0
M  V30 10398 O 991.967 -0.368086 -5.69211 0
M  V30 10399 O 990.901 -2.30269 -5.56111 0
M  V30 10400 H 994.727 -2.02206 -2.26598 0
M  V30 10401 H 992.312 -1.04279 -1.06988 0
M  V30 10402 H 994.194 -0.494325 -4.18491 0
M  V30 10403 H 992.869 0.224545 -3.2292 0
M  V30 10404 H 991.776 -2.08935 -3.10318 0
M  V30 10405 H 993.109 -2.73258 -4.09379 0
M  V30 10406 N 994.761 1.15782 -1.06922 0
M  V30 10407 C 995.691 2.22538 -0.707045 0
M  V30 10408 C 996.672 1.67371 0.303471 0
M  V30 10409 O 997.857 1.9339 0.177189 0
M  V30 10410 C 994.987 3.47158 -0.0994269 0
M  V30 10411 C 993.941 4.15257 -1.03661 0
M  V30 10412 C 993.267 5.33902 -0.291974 0
M  V30 10413 C 994.567 4.65516 -2.36837 0
M  V30 10414 H 996.261 2.53089 -1.59958 0
M  V30 10415 H 993.807 1.21649 -0.770552 0
M  V30 10416 H 995.76 4.21073 0.165852 0
M  V30 10417 H 994.484 3.15926 0.828155 0
M  V30 10418 H 993.143 3.43276 -1.28674 0
M  V30 10419 H 992.791 4.98926 0.638928 0
M  V30 10420 H 992.491 5.80407 -0.916613 0
M  V30 10421 H 994.015 6.1059 -0.0343915 0
M  V30 10422 H 995.429 5.30981 -2.16175 0
M  V30 10423 H 993.826 5.22666 -2.94856 0
M  V30 10424 H 994.896 3.81387 -2.99453 0
M  V30 10425 N 996.239 0.8527 1.3254 0
M  V30 10426 C 997.488 0.45136 1.96585 0
M  V30 10427 C 997.801 -0.997773 1.68237 0
M  V30 10428 O 999.007 -1.50445 2.26006 0
M  V30 10429 C 997.463 0.75619 3.51866 0
M  V30 10430 C 997.071 2.22092 3.89075 0
M  V30 10431 C 998.815 0.422478 4.22392 0
M  V30 10432 C 996.722 2.46908 5.37392 0
M  V30 10433 H 995.652 0.165052 0.735713 0
M  V30 10434 H 998.303 1.04321 1.50962 0
M  V30 10435 H 996.685 0.0937988 3.95889 0
M  V30 10436 H 997.859 2.92494 3.56067 0
M  V30 10437 H 996.174 2.51896 3.31568 0
M  V30 10438 H 998.771 0.58533 5.31487 0
M  V30 10439 H 999.114 -0.635737 4.11417 0
M  V30 10440 H 999.647 1.04068 3.83946 0
M  V30 10441 H 996.386 3.51346 5.53386 0
M  V30 10442 H 995.906 1.81082 5.71812 0
M  V30 10443 H 997.585 2.30758 6.0445 0
M  V30 10444 N 997.718 -1.45297 0.610449 0
M  V30 10445 C 998.948 -2.0629 0.113047 0
M  V30 10446 C 999.356 -1.45527 -1.20907 0
M  V30 10447 O 998.699 -0.564837 -1.74801 0
M  V30 10448 C 998.761 -3.59366 -0.0979692 0
M  V30 10449 C 998.425 -4.42481 1.14279 0
M  V30 10450 C 999.422 -4.77277 2.06161 0
M  V30 10451 C 997.107 -4.83187 1.37241 0
M  V30 10452 C 999.101 -5.51639 3.19333 0
M  V30 10453 C 996.788 -5.57303 2.50713 0
M  V30 10454 C 997.786 -5.91445 3.41587 0
M  V30 10455 O 997.474 -6.64056 4.53083 0
M  V30 10456 H 997.206 -0.67264 0.0673159 0
M  V30 10457 H 999.76 -1.87486 0.838937 0
M  V30 10458 H 997.99 -3.76582 -0.878783 0
M  V30 10459 H 999.679 -4.02193 -0.547327 0
M  V30 10460 H 1000.44 -4.46384 1.89647 0
M  V30 10461 H 996.324 -4.56045 0.67407 0
M  V30 10462 H 999.868 -5.78207 3.90286 0
M  V30 10463 H 995.765 -5.8761 2.67179 0
M  V30 10464 H 996.533 -6.82509 4.51801 0
M  V30 10465 N 999.196 -0.349774 -1.5367 0
M  V30 10466 C 1000.11 0.512421 -2.28935 0
M  V30 10467 C 1001.12 1.1065 -1.34286 0
M  V30 10468 O 1002.3 1.12084 -1.67329 0
M  V30 10469 C 999.363 1.64449 -3.05217 0
M  V30 10470 C 998.424 1.07956 -4.15505 0
M  V30 10471 C 997.657 2.15768 -4.88139 0
M  V30 10472 O 997.88 3.366 -4.60496 0
M  V30 10473 O 996.814 1.79712 -5.74445 0
M  V30 10474 H 1000.64 -0.0996001 -3.03537 0
M  V30 10475 H 998.225 -0.114629 -1.4896 0
M  V30 10476 H 1000.11 2.30302 -3.52901 0
M  V30 10477 H 998.782 2.24221 -2.33467 0
M  V30 10478 H 997.689 0.385381 -3.7211 0
M  V30 10479 H 999.022 0.526621 -4.89375 0
M  V30 10480 N 1000.67 1.57404 -0.0785433 0
M  V30 10481 C 1001.92 1.93361 0.58786 0
M  V30 10482 C 1002.24 0.959856 1.6974 0
M  V30 10483 O 1001.51 0.0091173 1.95898 0
M  V30 10484 H 1000.09 0.713825 0.220141 0
M  V30 10485 H 1002.75 1.94411 -0.137986 0
M  V30 10486 H 1001.85 2.95346 1.00881 0
M  V30 10487 N 1002.15 -0.195058 1.56388 0
M  V30 10488 C 1003.4 -0.9168 1.80894 0
M  V30 10489 C 1003.73 -1.82907 0.652592 0
M  V30 10490 O 1003.01 -1.91382 -0.346853 0
M  V30 10491 C 1003.29 -1.733 3.15657 0
M  V30 10492 C 1003.14 -0.845449 4.41783 0
M  V30 10493 C 1004.46 -2.70557 3.47112 0
M  V30 10494 H 1001.58 -0.331861 0.658056 0
M  V30 10495 H 1004.22 -0.184174 1.89105 0
M  V30 10496 H 1002.37 -2.3576 3.08787 0
M  V30 10497 H 1004.04 -0.235557 4.60698 0
M  V30 10498 H 1002.29 -0.152172 4.33533 0
M  V30 10499 H 1002.96 -1.45152 5.32574 0
M  V30 10500 H 1005.43 -2.1823 3.54281 0
M  V30 10501 H 1004.31 -3.24749 4.42526 0
M  V30 10502 H 1004.57 -3.49605 2.70608 0
M  V30 10503 N 1003.63 -1.50653 -0.462772 0
M  V30 10504 C 1004.58 -1.70122 -1.55971 0
M  V30 10505 C 1005.55 -0.542581 -1.56988 0
M  V30 10506 O 1006.73 -0.774114 -1.74391 0
M  V30 10507 C 1003.87 -1.80899 -2.93887 0
M  V30 10508 C 1002.98 -3.08318 -3.02595 0
M  V30 10509 C 1002.12 -3.09841 -4.31477 0
M  V30 10510 C 1001.16 -4.3168 -4.33957 0
M  V30 10511 N 1000.3 -4.30894 -5.54323 0
M  V30 10512 H 1005.14 -2.63768 -1.38674 0
M  V30 10513 H 1002.67 -1.30746 -0.674091 0
M  V30 10514 H 1004.63 -1.85128 -3.73876 0
M  V30 10515 H 1003.26 -0.906854 -3.098 0
M  V30 10516 H 1002.31 -3.13521 -2.15427 0
M  V30 10517 H 1003.62 -3.98282 -3.00288 0
M  V30 10518 H 1002.78 -3.12845 -5.1982 0
M  V30 10519 H 1001.52 -2.17722 -4.36404 0
M  V30 10520 H 1000.52 -4.28879 -3.4401 0
M  V30 10521 H 1001.75 -5.25035 -4.30715 0
M  V30 10522 H 999.694 -3.41633 -5.6002 0
M  V30 10523 H 999.611 -5.14636 -5.53792 0
M  V30 10524 H 1000.88 -4.38056 -6.44769 0
M  V30 10525 N 1005.11 0.71652 -1.4037 0
M  V30 10526 C 1006.34 1.50344 -1.41704 0
M  V30 10527 C 1006.75 1.89194 -0.0148011 0
M  V30 10528 O 1006.09 1.55916 0.971391 0
M  V30 10529 C 1006.15 2.80928 -2.2432 0
M  V30 10530 C 1005.82 2.64406 -3.72744 0
M  V30 10531 C 1006.81 2.31727 -4.65401 0
M  V30 10532 C 1004.5 2.807 -4.16549 0
M  V30 10533 C 1006.49 2.15551 -5.99847 0
M  V30 10534 C 1004.18 2.64141 -5.51065 0
M  V30 10535 C 1005.18 2.31614 -6.42529 0
M  V30 10536 O 1004.86 2.15179 -7.74566 0
M  V30 10537 H 1004.6 0.470574 -0.48532 0
M  V30 10538 H 1007.15 0.89152 -1.85043 0
M  V30 10539 H 1005.38 3.4445 -1.75759 0
M  V30 10540 H 1007.07 3.4264 -2.17607 0
M  V30 10541 H 1007.84 2.18773 -4.32855 0
M  V30 10542 H 1003.71 3.05005 -3.45677 0
M  V30 10543 H 1007.26 1.90084 -6.71203 0
M  V30 10544 H 1003.16 2.76679 -5.83197 0
M  V30 10545 H 1003.92 2.30106 -7.85489 0
M  V30 10546 N 1006.59 1.25851 0.948643 0
M  V30 10547 C 1007.83 1.11119 1.69648 0
M  V30 10548 C 1008.17 -0.345995 1.91093 0
M  V30 10549 O 1007.44 -1.25467 1.48621 0
M  V30 10550 C 1007.72 1.87261 3.0758 0
M  V30 10551 C 1007.58 3.40842 2.93507 0
M  V30 10552 C 1008.9 1.6605 4.07573 0
M  V30 10553 H 1006.01 0.405052 0.615713 0
M  V30 10554 H 1008.66 1.54756 1.10229 0
M  V30 10555 H 1006.81 1.50172 3.58303 0
M  V30 10556 H 1008.48 3.87641 2.50064 0
M  V30 10557 H 1006.72 3.68248 2.29294 0
M  V30 10558 H 1007.39 3.89339 3.91305 0
M  V30 10559 H 1009.87 1.98348 3.65783 0
M  V30 10560 H 1008.74 2.21753 5.02113 0
M  V30 10561 H 1009.01 0.603256 4.37965 0
M  V30 10562 N 1008.06 -1.15214 1.07534 0
M  V30 10563 C 1008.99 -2.2216 0.718837 0
M  V30 10564 C 1009.98 -1.6753 -0.29459 0
M  V30 10565 O 1011.16 -1.93481 -0.166931 0
M  V30 10566 C 1008.29 -3.471 0.117836 0
M  V30 10567 C 1007.24 -4.14701 1.05862 0
M  V30 10568 C 1006.57 -5.3374 0.320284 0
M  V30 10569 C 1007.87 -4.64254 2.39302 0
M  V30 10570 H 1009.56 -2.52237 1.61297 0
M  V30 10571 H 1007.11 -1.21239 0.776992 0
M  V30 10572 H 1009.06 -4.21156 -0.143519 0
M  V30 10573 H 1007.79 -3.16361 -0.811389 0
M  V30 10574 H 1006.45 -3.42589 1.30493 0
M  V30 10575 H 1006.09 -4.99257 -0.61246 0
M  V30 10576 H 1005.79 -5.79912 0.947381 0
M  V30 10577 H 1007.32 -6.10563 0.0667721 0
M  V30 10578 H 1008.73 -5.29827 2.18988 0
M  V30 10579 H 1007.13 -5.21095 2.97623 0
M  V30 10580 H 1008.2 -3.79793 3.01472 0
M  V30 10581 N 1009.54 -0.859717 -1.32086 0
M  V30 10582 C 1010.49 -0.306042 -2.28762 0
M  V30 10583 C 1011.46 0.589801 -1.55276 0
M  V30 10584 O 1012.64 0.523633 -1.83474 0
M  V30 10585 C 1009.78 0.495256 -3.41528 0
M  V30 10586 C 1008.9 -0.426947 -4.29885 0
M  V30 10587 C 1008.03 0.387474 -5.29785 0
M  V30 10588 C 1007.07 -0.531807 -6.09785 0
M  V30 10589 N 1006.21 0.245741 -7.0167 0
M  V30 10590 H 1011.05 -1.1357 -2.7551 0
M  V30 10591 H 1008.59 -0.571468 -1.35546 0
M  V30 10592 H 1010.54 0.97551 -4.05635 0
M  V30 10593 H 1009.17 1.28969 -2.95917 0
M  V30 10594 H 1008.23 -1.02561 -3.66313 0
M  V30 10595 H 1009.54 -1.13226 -4.85779 0
M  V30 10596 H 1008.69 0.930677 -5.99519 0
M  V30 10597 H 1007.43 1.12612 -4.74521 0
M  V30 10598 H 1006.44 -1.08685 -5.3895 0
M  V30 10599 H 1007.66 -1.26915 -6.67135 0
M  V30 10600 H 1005.61 0.967391 -6.48828 0
M  V30 10601 H 1005.52 -0.400432 -7.54939 0
M  V30 10602 H 1006.79 0.770507 -7.75683 0
M  V30 10603 N 1011.02 1.44971 -0.618145 0
M  V30 10604 C 1012.27 2.02458 -0.117656 0
M  V30 10605 C 1012.6 1.48413 1.25248 0
M  V30 10606 O 1011.87 0.662997 1.82851 0
M  V30 10607 C 1012.16 3.59987 -0.0901897 0
M  V30 10608 C 1012.01 4.24343 -1.49175 0
M  V30 10609 C 1013.33 4.36099 0.592121 0
M  V30 10610 H 1010.45 0.735672 -0.0442291 0
M  V30 10611 H 1013.09 1.727 -0.792138 0
M  V30 10612 H 1011.24 3.85471 0.484175 0
M  V30 10613 H 1012.91 4.10009 -2.114 0
M  V30 10614 H 1011.16 3.82337 -2.04941 0
M  V30 10615 H 1011.83 5.33298 -1.42468 0
M  V30 10616 H 1014.3 4.1597 0.103813 0
M  V30 10617 H 1013.18 5.45822 0.580481 0
M  V30 10618 H 1013.44 4.09746 1.66015 0
M  V30 10619 N 1012.5 0.357919 1.53482 0
M  V30 10620 C 1013.73 -0.23514 2.05559 0
M  V30 10621 C 1014.14 -1.43068 1.23195 0
M  V30 10622 O 1013.5 -1.80481 0.270741 0
M  V30 10623 C 1013.55 -0.636147 3.55859 0
M  V30 10624 O 1013.27 0.511864 4.35099 0
M  V30 10625 C 1014.77 -1.28841 4.24164 0
M  V30 10626 H 1011.99 -0.0428446 0.669631 0
M  V30 10627 H 1014.54 0.51407 1.97933 0
M  V30 10628 H 1012.69 -1.33528 3.63661 0
M  V30 10629 H 1013.1 0.189328 5.24158 0
M  V30 10630 H 1014.58 -1.51962 5.30671 0
M  V30 10631 H 1015.06 -2.24638 3.77405 0
M  V30 10632 H 1015.66 -0.630914 4.20594 0
M  V30 10633 N 1013.98 -1.5736 0.0868897 0
M  V30 10634 C 1015.39 -1.57304 -0.269762 0
M  V30 10635 C 1015.59 -1.09745 -1.68992 0
M  V30 10636 O 1014.65 -0.77017 -2.40468 0
M  V30 10637 C 1015.96 -3.00628 -0.0656646 0
M  V30 10638 C 1017.51 -3.12713 -0.134045 0
M  V30 10639 C 1017.98 -4.57981 0.0419569 0
M  V30 10640 N 1019.48 -4.63198 -0.0131501 0
M  V30 10641 C 1020.21 -5.73316 0.0983964 0
M  V30 10642 N 1019.71 -6.92296 0.264315 0
M  V30 10643 N 1021.5 -5.62086 0.0402517 0
M  V30 10644 H 1013.65 -1.86585 1.01487 0
M  V30 10645 H 1015.91 -0.860843 0.397055 0
M  V30 10646 H 1015.62 -3.39592 0.914891 0
M  V30 10647 H 1015.49 -3.68367 -0.811522 0
M  V30 10648 H 1017.88 -2.73627 -1.1051 0
M  V30 10649 H 1017.96 -2.47582 0.643167 0
M  V30 10650 H 1017.61 -4.9776 1.00984 0
M  V30 10651 H 1017.54 -5.21162 -0.754847 0
M  V30 10652 H 1020.03 -3.77644 -0.139183 0
M  V30 10653 H 1020.34 -7.72047 0.341165 0
M  V30 10654 H 1018.68 -6.94353 0.299876 0
M  V30 10655 H 1021.88 -4.68017 -0.0881801 0
M  V30 10656 H 1022.05 -6.47868 0.130635 0
M  V30 10657 N 1015.45 0.186762 -1.56489 0
M  V30 10658 C 1016.39 1.25565 -1.91745 0
M  V30 10659 C 1017.4 1.4128 -0.80894 0
M  V30 10660 O 1018.59 1.41558 -1.08737 0
M  V30 10661 C 1015.69 2.62662 -2.14154 0
M  V30 10662 C 1014.86 2.68448 -3.45333 0
M  V30 10663 C 1013.92 3.86798 -3.56754 0
M  V30 10664 O 1012.95 3.73514 -4.29507 0
M  V30 10665 N 1014.15 5.02607 -2.90459 0
M  V30 10666 H 1016.91 0.956351 -2.84032 0
M  V30 10667 H 1014.47 0.376631 -1.57458 0
M  V30 10668 H 1016.47 3.40277 -2.19075 0
M  V30 10669 H 1015.04 2.85046 -1.28326 0
M  V30 10670 H 1014.26 1.77044 -3.52206 0
M  V30 10671 H 1015.54 2.69311 -4.31682 0
M  V30 10672 H 1014.94 5.163 -2.31194 0
M  V30 10673 H 1013.5 5.78139 -3.00996 0
M  V30 10674 N 1016.93 1.50896 0.454776 0
M  V30 10675 C 1018.16 1.66759 1.23313 0
M  V30 10676 C 1018.58 0.35722 1.84677 0
M  V30 10677 O 1017.94 -0.680771 1.68033 0
M  V30 10678 C 1017.99 2.77254 2.3057 0
M  V30 10679 O 1017.09 2.39642 3.35627 0
M  V30 10680 H 1016.43 0.556599 0.362068 0
M  V30 10681 H 1018.96 1.97365 0.539274 0
M  V30 10682 H 1018.97 3.0082 2.75629 0
M  V30 10683 H 1017.65 3.72349 1.85281 0
M  V30 10684 H 1016.23 2.26584 2.96165 0
M  V30 10685 N 1018.41 -0.709066 1.40748 0
M  V30 10686 C 1019.82 -1.28847 1.35112 0
M  V30 10687 C 1020.17 -1.9618 0.0277149 0
M  V30 10688 O 1019.3 -1.97955 -0.874233 0
M  V30 10689 C 1019.89 -2.34306 2.44716 0
M  V30 10690 C 1018.45 -2.87856 2.4252 0
M  V30 10691 C 1017.6 -1.61723 2.25257 0
M  V30 10692 H 1020.55 -0.504742 1.50459 0
M  V30 10693 H 1020.57 -3.15297 2.12998 0
M  V30 10694 H 1020.08 -1.85271 3.41022 0
M  V30 10695 H 1018.18 -3.41103 1.49931 0
M  V30 10696 H 1018.3 -3.39205 3.38344 0
M  V30 10697 H 1016.66 -1.87032 1.7289 0
M  V30 10698 H 1017.44 -1.14703 3.23571 0
M  V30 10699 N 1019.89 -1.26353 -0.941956 0
M  V30 10700 C 1020.84 -1.07654 -2.06188 0
M  V30 10701 C 1021.83 -0.00369741 -1.694 0
M  V30 10702 O 1023.04 -0.160316 -1.79285 0
M  V30 10703 H 1019.41 -0.331274 -0.675101 0
M  V30 10704 H 1021.38 -2.02566 -2.19111 0
M  V30 10705 C 1020.13 -0.725436 -3.40048 0
M  V30 10706 H 1019.46 -1.54283 -3.68832 0
M  V30 10707 H 1020.9 -0.634383 -4.19227 0
M  V30 10708 C 1019.35 0.569369 -3.32054 0
M  V30 10709 O 1019.88 1.60791 -3.68116 0
M  V30 10710 N 1018.09 0.559714 -2.85159 0
M  V30 10711 H 1017.64 -0.285817 -2.56009 0
M  V30 10712 H 1017.6 1.42617 -2.80193 0
M  V30 10713 N 1021.37 1.14642 -1.08144 0
M  V30 10714 C 1022.59 1.90025 -0.830972 0
M  V30 10715 C 1023.02 1.77904 0.610879 0
M  V30 10716 O 1022.38 1.11735 1.42776 0
M  V30 10717 C 1022.42 3.38085 -1.25422 0
M  V30 10718 O 1021.53 4.10412 -0.404486 0
M  V30 10719 H 1020.87 0.591327 -0.302041 0
M  V30 10720 H 1023.4 1.4513 -1.44216 0
M  V30 10721 H 1023.41 3.88894 -1.23391 0
M  V30 10722 H 1022.08 3.46226 -2.30435 0
M  V30 10723 H 1020.66 3.69693 -0.487987 0
M  V30 10724 N 1022.85 0.866709 1.31628 0
M  V30 10725 C 1024.08 0.489679 2.00713 0
M  V30 10726 C 1024.48 -0.921492 1.65243 0
M  V30 10727 O 1023.83 -1.61467 0.876012 0
M  V30 10728 C 1023.89 0.563148 3.55062 0
M  V30 10729 C 1023.55 1.93535 4.13996 0
M  V30 10730 C 1024.55 2.90243 4.31341 0
M  V30 10731 C 1022.23 2.23578 4.49798 0
M  V30 10732 C 1024.23 4.15138 4.83673 0
M  V30 10733 C 1021.92 3.48723 5.01832 0
M  V30 10734 C 1022.91 4.44319 5.18719 0
M  V30 10735 O 1022.6 5.67247 5.69637 0
M  V30 10736 H 1022.33 0.189605 0.648865 0
M  V30 10737 H 1024.89 1.16874 1.68907 0
M  V30 10738 H 1023.12 -0.172815 3.86314 0
M  V30 10739 H 1024.81 0.200009 4.05407 0
M  V30 10740 H 1025.57 2.6834 4.04003 0
M  V30 10741 H 1021.45 1.49949 4.35932 0
M  V30 10742 H 1025 4.89762 4.96769 0
M  V30 10743 H 1020.89 3.70471 5.28603 0
M  V30 10744 H 1021.66 5.69372 5.88011 0
M  V30 10745 N 1024.32 -1.44642 0.625825 0
M  V30 10746 C 1025.57 -2.02393 0.128391 0
M  V30 10747 C 1025.9 -1.49075 -1.2446 0
M  V30 10748 O 1025.18 -0.672684 -1.82497 0
M  V30 10749 C 1025.46 -3.59934 0.109279 0
M  V30 10750 C 1025.31 -4.23546 1.51423 0
M  V30 10751 C 1026.63 -4.36406 -0.568985 0
M  V30 10752 H 1023.75 -0.735427 0.0481299 0
M  V30 10753 H 1026.39 -1.72277 0.801286 0
M  V30 10754 H 1024.54 -3.85722 -0.463726 0
M  V30 10755 H 1026.22 -4.08882 2.13572 0
M  V30 10756 H 1024.46 -3.81245 2.06966 0
M  V30 10757 H 1025.13 -5.32535 1.45294 0
M  V30 10758 H 1027.61 -4.1602 -0.0817516 0
M  V30 10759 H 1026.48 -5.46122 -0.551527 0
M  V30 10760 H 1026.74 -4.1062 -1.6384 0
M  V30 10761 N 1025.8 -0.366053 -1.5329 0
M  V30 10762 C 1027.05 0.223824 -2.01561 0
M  V30 10763 C 1027.38 1.48382 -1.25286 0
M  V30 10764 O 1026.66 1.91385 -0.34669 0
M  V30 10765 C 1026.94 0.5153 -3.56394 0
M  V30 10766 C 1026.79 -0.758357 -4.43361 0
M  V30 10767 C 1028.11 1.31568 -4.19974 0
M  V30 10768 H 1025.23 0.0798751 -0.732659 0
M  V30 10769 H 1027.87 -0.491038 -1.83545 0
M  V30 10770 H 1026.02 1.12429 -3.71876 0
M  V30 10771 H 1027.69 -1.39584 -4.39675 0
M  V30 10772 H 1025.94 -1.37862 -4.11311 0
M  V30 10773 H 1026.61 -0.509366 -5.49645 0
M  V30 10774 H 1029.08 0.800514 -4.08327 0
M  V30 10775 H 1027.96 1.48837 -5.28336 0
M  V30 10776 H 1028.22 2.32432 -3.76069 0
M  V30 10777 N 1027.28 1.57312 -0.0952337 0
M  V30 10778 C 1028.53 1.93533 0.568131 0
M  V30 10779 C 1028.84 0.979121 1.6933 0
M  V30 10780 O 1030.05 1.23506 2.41782 0
M  V30 10781 C 1028.5 3.43875 1.06198 0
M  V30 10782 C 1028.11 4.47988 -0.0334397 0
M  V30 10783 C 1029.86 3.89057 1.69807 0
M  V30 10784 C 1027.76 5.89483 0.475774 0
M  V30 10785 H 1026.69 0.7224 0.215995 0
M  V30 10786 H 1029.34 1.82699 -0.171257 0
M  V30 10787 H 1027.73 3.49862 1.85506 0
M  V30 10788 H 1028.9 4.53644 -0.808934 0
M  V30 10789 H 1027.21 4.12415 -0.574725 0
M  V30 10790 H 1029.81 4.92171 2.08978 0
M  V30 10791 H 1030.15 3.27713 2.5673 0
M  V30 10792 H 1030.69 3.85772 0.970815 0
M  V30 10793 H 1027.43 6.54528 -0.356837 0
M  V30 10794 H 1026.95 5.87297 1.21827 0
M  V30 10795 H 1028.63 6.40066 0.944697 0
M  V30 10796 N 1028.76 -0.17846 1.56586 0
M  V30 10797 C 1029.69 -1.2496 1.90946 0
M  V30 10798 C 1030.67 -1.43136 0.771424 0
M  V30 10799 O 1031.85 -1.58258 1.02405 0
M  V30 10800 C 1028.98 -2.61368 2.15417 0
M  V30 10801 C 1028.03 -2.59969 3.3811 0
M  V30 10802 S 1028.86 -2.09756 4.9271 0
M  V30 10803 C 1030.01 -3.47956 5.20267 0
M  V30 10804 H 1030.25 -0.956287 2.815 0
M  V30 10805 H 1027.78 -0.382709 1.49582 0
M  V30 10806 H 1029.74 -3.39882 2.30197 0
M  V30 10807 H 1028.4 -2.87903 1.25582 0
M  V30 10808 H 1027.59 -3.60309 3.52411 0
M  V30 10809 H 1027.19 -1.89547 3.2241 0
M  V30 10810 H 1029.49 -4.43914 5.11807 0
M  V30 10811 H 1030.43 -3.38536 6.21932 0
M  V30 10812 H 1030.84 -3.43637 4.47855 0
M  V30 10813 N 1030.24 -1.51135 -0.446768 0
M  V30 10814 C 1031.18 -1.72328 -1.56224 0
M  V30 10815 C 1032.18 -0.589411 -1.58815 0
M  V30 10816 O 1033.38 -0.770554 -1.62673 0
M  V30 10817 H 1029.76 -0.544339 -0.518844 0
M  V30 10818 H 1031.73 -2.65851 -1.3552 0
M  V30 10819 C 1030.48 -1.85686 -2.93966 0
M  V30 10820 H 1029.8 -2.72336 -2.927 0
M  V30 10821 H 1031.24 -2.0453 -3.71407 0
M  V30 10822 C 1029.7 -0.614328 -3.31252 0
M  V30 10823 O 1030.23 0.235369 -4.0101 0
M  V30 10824 N 1028.44 -0.461181 -2.86917 0
M  V30 10825 H 1027.98 -1.15369 -2.30321 0
M  V30 10826 H 1027.94 0.368966 -3.12227 0
M  V30 10827 N 1031.71 0.701592 -1.41122 0
M  V30 10828 C 1032.96 1.45871 -1.39879 0
M  V30 10829 C 1033.28 1.94999 -0.00668769 0
M  V30 10830 O 1032.55 1.71298 0.95047 0
M  V30 10831 H 1031.13 0.541231 -0.514857 0
M  V30 10832 H 1033.79 0.830803 -1.76306 0
M  V30 10833 H 1032.89 2.32479 -2.0823 0
M  V30 10834 N 1033.19 1.2685 0.935242 0
M  V30 10835 C 1034.42 1.15645 1.72165 0
M  V30 10836 C 1034.84 -0.283909 1.85945 0
M  V30 10837 O 1034.2 -1.20567 1.354 0
M  V30 10838 C 1034.25 1.83689 3.10307 0
M  V30 10839 O 1033.35 1.12972 3.96625 0
M  V30 10840 H 1032.69 0.402629 0.528002 0
M  V30 10841 H 1035.22 1.67781 1.17093 0
M  V30 10842 H 1035.23 1.90749 3.60664 0
M  V30 10843 H 1033.91 2.88472 2.99595 0
M  V30 10844 H 1032.48 1.13929 3.5507 0
M  V30 10845 N 1034.67 -1.14067 1.0875 0
M  V30 10846 C 1035.91 -1.8684 0.828873 0
M  V30 10847 C 1036.27 -1.81235 -0.633879 0
M  V30 10848 O 1037.48 -2.49178 -1.00815 0
M  V30 10849 C 1035.75 -3.31299 1.34073 0
M  V30 10850 S 1037.31 -4.21645 1.21494 0
M  V30 10851 H 1034.12 -0.644622 0.299972 0
M  V30 10852 H 1036.73 -1.37526 1.38949 0
M  V30 10853 H 1035.43 -3.32929 2.39972 0
M  V30 10854 H 1034.96 -3.85672 0.775944 0
M  V30 10855 H 1036.98 -4.95937 0.161446 0
M  V30 10856 N 1036.15 -0.873678 -1.31166 0
M  V30 10857 C 1037.39 -0.487178 -1.96861 0
M  V30 10858 C 1037.73 0.95887 -1.68877 0
M  V30 10859 O 1037 1.6758 -0.987279 0
M  V30 10860 C 1037.29 -0.74925 -3.52219 0
M  V30 10861 C 1037.14 -2.2451 -3.89763 0
M  V30 10862 C 1038.46 -0.218194 -4.39559 0
M  V30 10863 H 1035.58 -0.178477 -0.715063 0
M  V30 10864 H 1038.22 -1.0956 -1.55231 0
M  V30 10865 H 1036.37 -0.231403 -3.8781 0
M  V30 10866 H 1038.04 -2.83049 -3.64254 0
M  V30 10867 H 1036.28 -2.71621 -3.38237 0
M  V30 10868 H 1036.95 -2.37911 -4.98099 0
M  V30 10869 H 1039.43 -0.661274 -4.10812 0
M  V30 10870 H 1038.31 -0.430983 -5.47205 0
M  V30 10871 H 1038.57 0.880056 -4.33252 0
M  V30 10872 N 1037.63 1.44308 -0.633487 0
M  V30 10873 C 1038.54 2.34492 0.0711787 0
M  V30 10874 C 1039.55 1.52754 0.8332 0
M  V30 10875 O 1040.73 1.85475 0.784929 0
M  V30 10876 C 1037.79 3.30767 1.03895 0
M  V30 10877 C 1036.85 4.28412 0.276043 0
M  V30 10878 C 1036.09 5.20087 1.19772 0
M  V30 10879 O 1036.31 5.15743 2.4365 0
M  V30 10880 O 1035.24 5.98038 0.680764 0
M  V30 10881 H 1039.07 2.96203 -0.67063 0
M  V30 10882 H 1036.66 1.4412 -0.393678 0
M  V30 10883 H 1038.54 3.90021 1.59566 0
M  V30 10884 H 1037.21 2.71586 1.76133 0
M  V30 10885 H 1036.12 3.72696 -0.32377 0
M  V30 10886 H 1037.45 4.9052 -0.406364 0
M  V30 10887 N 1039.1 0.374177 1.53094 0
M  V30 10888 C 1040.35 -0.213131 2.01677 0
M  V30 10889 C 1040.68 -1.47715 1.26071 0
M  V30 10890 O 1039.96 -1.91199 0.356834 0
M  V30 10891 C 1040.24 -0.496392 3.56662 0
M  V30 10892 C 1040.09 0.781859 4.42953 0
M  V30 10893 C 1041.41 -1.29339 4.20666 0
M  V30 10894 H 1038.53 -0.0759885 0.733072 0
M  V30 10895 H 1041.17 0.500765 1.83282 0
M  V30 10896 H 1039.32 -1.10455 3.72467 0
M  V30 10897 H 1041 1.41914 4.38928 0
M  V30 10898 H 1039.24 1.40041 4.10574 0
M  V30 10899 H 1039.91 0.538508 5.49367 0
M  V30 10900 H 1042.39 -0.778848 4.08746 0
M  V30 10901 H 1041.26 -1.46033 5.29118 0
M  V30 10902 H 1041.52 -2.30435 3.77296 0
M  V30 10903 N 1040.58 -1.57259 0.103575 0
M  V30 10904 C 1041.86 -1.86143 -0.600852 0
M  V30 10905 C 1042.24 -1.00198 -1.85805 0
M  V30 10906 O 1041.59 -0.0766791 -2.28371 0
M  V30 10907 C 1041.8 -3.36978 -0.908108 0
M  V30 10908 C 1043.15 -4.05228 -1.26788 0
M  V30 10909 O 1044.17 -3.41908 -0.998859 0
M  V30 10910 O 1043.03 -5.16971 -1.7721 0
M  V30 10911 H 1040.12 -0.770064 -0.301547 0
M  V30 10912 H 1042.67 -1.69147 0.136914 0
M  V30 10913 H 1041.44 -3.91296 -0.0165615 0
M  V30 10914 H 1041.06 -3.5935 -1.70156 0
M  V30 10915 N 1042.06 0.170153 -1.56679 0
M  V30 10916 C 1043.31 0.887906 -1.8233 0
M  V30 10917 C 1043.64 1.81845 -0.681608 0
M  V30 10918 O 1042.91 1.9191 0.316362 0
M  V30 10919 C 1043.2 1.68256 -3.18374 0
M  V30 10920 C 1043.05 0.775059 -4.43072 0
M  V30 10921 C 1044.37 2.65001 -3.51372 0
M  V30 10922 H 1041.49 0.32135 -0.663252 0
M  V30 10923 H 1044.13 0.154065 -1.89374 0
M  V30 10924 H 1042.28 2.30817 -3.12499 0
M  V30 10925 H 1043.95 0.162234 -4.61015 0
M  V30 10926 H 1042.2 0.0831809 -4.3372 0
M  V30 10927 H 1042.87 1.36661 -5.34816 0
M  V30 10928 H 1045.34 2.12566 -3.57708 0
M  V30 10929 H 1044.22 3.17667 -4.47637 0
M  V30 10930 H 1044.48 3.45255 -2.76136 0
M  V30 10931 N 1043.54 1.5137 0.438746 0
M  V30 10932 C 1044.49 1.68966 1.53083 0
M  V30 10933 C 1045.47 0.543669 1.51437 0
M  V30 10934 O 1046.66 0.799519 1.57914 0
M  V30 10935 C 1043.79 1.8168 2.91286 0
M  V30 10936 C 1042.88 3.02059 2.97693 0
M  V30 10937 N 1043.27 4.25254 2.73848 0
M  V30 10938 C 1041.57 3.01284 3.28852 0
M  V30 10939 C 1042.27 5.06501 2.86062 0
M  V30 10940 N 1041.25 4.41119 3.17671 0
M  V30 10941 H 1045.05 2.61883 1.33397 0
M  V30 10942 H 1042.56 1.48997 0.64603 0
M  V30 10943 H 1044.56 1.92396 3.6985 0
M  V30 10944 H 1043.22 0.899438 3.11994 0
M  V30 10945 H 1044.23 4.54222 2.48803 0
M  V30 10946 H 1040.91 2.19174 3.55344 0
M  V30 10947 H 1042.3 6.14563 2.71592 0
M  V30 10948 N 1045.02 -0.694098 1.41492 0
M  V30 10949 C 1046.43 -1.00487 1.23994 0
M  V30 10950 C 1046.63 -2.01078 0.130346 0
M  V30 10951 O 1045.69 -2.47403 -0.504775 0
M  V30 10952 C 1047 -1.52808 2.58979 0
M  V30 10953 C 1048.55 -1.64684 2.66173 0
M  V30 10954 C 1049.02 -2.20406 4.01479 0
M  V30 10955 N 1050.52 -2.27765 4.03333 0
M  V30 10956 C 1051.25 -2.7191 5.04829 0
M  V30 10957 N 1050.75 -3.1565 6.16714 0
M  V30 10958 N 1052.54 -2.71487 4.9219 0
M  V30 10959 H 1044.69 -0.027746 2.12382 0
M  V30 10960 H 1046.95 -0.0748741 0.945039 0
M  V30 10961 H 1046.66 -0.863519 3.40934 0
M  V30 10962 H 1046.53 -2.50998 2.81566 0
M  V30 10963 H 1048.92 -2.30251 1.84576 0
M  V30 10964 H 1049 -0.65035 2.47395 0
M  V30 10965 H 1048.65 -1.55454 4.83525 0
M  V30 10966 H 1048.58 -3.2081 4.17599 0
M  V30 10967 H 1051.07 -1.96899 3.22551 0
M  V30 10968 H 1051.38 -3.47966 6.90029 0
M  V30 10969 H 1049.72 -3.13555 6.20248 0
M  V30 10970 H 1052.92 -2.36666 4.03865 0
M  V30 10971 H 1053.09 -3.05573 5.71427 0
M  V30 10972 N 1046.49 -1.27344 -0.928501 0
M  V30 10973 C 1047.42 -1.12517 -2.04602 0
M  V30 10974 C 1048.41 -0.0268563 -1.70079 0
M  V30 10975 O 1049.59 -0.201197 -1.93155 0
M  V30 10976 C 1046.72 -0.770749 -3.3864 0
M  V30 10977 C 1045.67 -1.8222 -3.87272 0
M  V30 10978 C 1045 -1.32178 -5.18105 0
M  V30 10979 C 1046.3 -3.22614 -4.10752 0
M  V30 10980 H 1047.99 -2.06 -2.17265 0
M  V30 10981 H 1045.54 -0.991827 -1.04397 0
M  V30 10982 H 1047.49 -0.653843 -4.16297 0
M  V30 10983 H 1046.22 0.19979 -3.25988 0
M  V30 10984 H 1044.88 -1.928 -3.11807 0
M  V30 10985 H 1044.52 -0.340719 -5.01845 0
M  V30 10986 H 1044.22 -2.02474 -5.51614 0
M  V30 10987 H 1045.75 -1.2178 -5.98333 0
M  V30 10988 H 1047.16 -3.1504 -4.78981 0
M  V30 10989 H 1045.56 -3.90614 -4.55566 0
M  V30 10990 H 1046.63 -3.67727 -3.16077 0
M  V30 10991 N 1047.97 1.13488 -1.09353 0
M  V30 10992 C 1049.2 1.89133 -0.85108 0
M  V30 10993 C 1049.62 1.78542 0.591976 0
M  V30 10994 O 1048.98 1.13243 1.41583 0
M  V30 10995 C 1049.03 3.36736 -1.29001 0
M  V30 10996 O 1048.13 4.09959 -0.447993 0
M  V30 10997 H 1047.47 0.58809 -0.308296 0
M  V30 10998 H 1050 1.43593 -1.45747 0
M  V30 10999 H 1050.01 3.87564 -1.27508 0
M  V30 11000 H 1048.69 3.43762 -2.34095 0
M  V30 11001 H 1047.27 3.69155 -0.52717 0
M  V30 11002 N 1049.45 0.880621 1.30701 0
M  V30 11003 C 1050.73 0.41712 1.91101 0
M  V30 11004 C 1051.11 -1.10177 1.80067 0
M  V30 11005 O 1050.46 -1.93513 1.21511 0
M  V30 11006 C 1050.67 0.910364 3.36917 0
M  V30 11007 C 1052.01 0.942764 4.14001 0
M  V30 11008 O 1053.04 0.856733 3.45743 0
M  V30 11009 O 1051.9 1.06913 5.3594 0
M  V30 11010 H 1048.99 0.126775 0.817225 0
M  V30 11011 H 1051.54 0.969236 1.39298 0
M  V30 11012 H 1050.31 1.95414 3.39012 0
M  V30 11013 H 1049.93 0.337164 3.96168 0
M  V30 11014 N 1050.93 -1.4397 0.641131 0
M  V30 11015 C 1052.18 -2.01548 0.149333 0
M  V30 11016 C 1052.5 -1.50759 -1.23679 0
M  V30 11017 O 1051.77 -0.715257 -1.82376 0
M  V30 11018 H 1050.35 -0.745173 0.0522161 0
M  V30 11019 H 1053.01 -1.7634 0.830082 0
M  V30 11020 H 1052.11 -3.11851 0.124676 0
M  V30 11021 N 1052.41 -0.382291 -1.52893 0
M  V30 11022 C 1053.66 0.201734 -2.01091 0
M  V30 11023 C 1053.98 1.47905 -1.2708 0
M  V30 11024 O 1053.25 1.92002 -0.38883 0
M  V30 11025 H 1051.83 0.0775373 -0.742965 0
M  V30 11026 H 1054.49 -0.512369 -1.88045 0
M  V30 11027 H 1053.58 0.416919 -3.09303 0
M  V30 11028 N 1053.89 1.57202 -0.111913 0
M  V30 11029 C 1054.82 2.17957 0.837683 0
M  V30 11030 C 1055.8 1.1176 1.28233 0
M  V30 11031 O 1056.98 1.39967 1.34621 0
M  V30 11032 C 1054.11 2.77333 2.09054 0
M  V30 11033 C 1053.07 3.8905 1.78393 0
M  V30 11034 C 1052.39 4.35203 3.10649 0
M  V30 11035 C 1053.69 5.11477 1.05775 0
M  V30 11036 H 1055.39 2.9756 0.331441 0
M  V30 11037 H 1052.93 1.43131 0.157979 0
M  V30 11038 H 1054.88 3.18492 2.75936 0
M  V30 11039 H 1053.61 1.95009 2.6199 0
M  V30 11040 H 1052.27 3.48456 1.13903 0
M  V30 11041 H 1051.92 3.49747 3.61506 0
M  V30 11042 H 1051.62 5.10534 2.9091 0
M  V30 11043 H 1053.14 4.79007 3.78661 0
M  V30 11044 H 1054.55 5.497 1.62798 0
M  V30 11045 H 1052.95 5.92346 0.961573 0
M  V30 11046 H 1054.02 4.84881 0.043297 0
M  V30 11047 N 1055.36 -0.161842 1.56767 0
M  V30 11048 C 1056.29 -1.20226 2.0017 0
M  V30 11049 C 1057.27 -1.4564 0.878807 0
M  V30 11050 O 1058.46 -1.56813 1.14557 0
M  V30 11051 C 1055.59 -2.53897 2.36968 0
M  V30 11052 C 1054.54 -2.43033 3.52305 0
M  V30 11053 C 1053.87 -3.81281 3.74872 0
M  V30 11054 C 1055.17 -1.927 4.85453 0
M  V30 11055 H 1056.86 -0.84142 2.87333 0
M  V30 11056 H 1054.41 -0.403309 1.38237 0
M  V30 11057 H 1056.36 -3.26893 2.6593 0
M  V30 11058 H 1055.09 -2.91787 1.46724 0
M  V30 11059 H 1053.75 -1.7249 3.23485 0
M  V30 11060 H 1053.39 -4.1658 2.81904 0
M  V30 11061 H 1053.09 -3.74877 4.52483 0
M  V30 11062 H 1054.62 -4.55848 4.06245 0
M  V30 11063 H 1056.03 -2.55477 5.13229 0
M  V30 11064 H 1054.43 -1.97222 5.66766 0
M  V30 11065 H 1055.5 -0.881816 4.76814 0
M  V30 11066 N 1056.84 -1.516 -0.430713 0
M  V30 11067 C 1057.77 -1.76342 -1.53054 0
M  V30 11068 C 1058.75 -0.61349 -1.58652 0
M  V30 11069 O 1059.94 -0.856888 -1.74273 0
M  V30 11070 C 1057.07 -1.8945 -2.91077 0
M  V30 11071 C 1056.02 -3.04928 -3.00339 0
M  V30 11072 C 1055.35 -3.03228 -4.40405 0
M  V30 11073 C 1056.65 -4.44777 -2.73808 0
M  V30 11074 H 1058.34 -2.68435 -1.326 0
M  V30 11075 H 1055.89 -1.29171 -0.636466 0
M  V30 11076 H 1057.84 -2.05343 -3.67984 0
M  V30 11077 H 1056.56 -0.940114 -3.12777 0
M  V30 11078 H 1055.22 -2.88751 -2.25872 0
M  V30 11079 H 1054.87 -2.05553 -4.59083 0
M  V30 11080 H 1054.57 -3.80776 -4.47531 0
M  V30 11081 H 1056.1 -3.21222 -5.19277 0
M  V30 11082 H 1057.51 -4.6127 -3.40445 0
M  V30 11083 H 1055.91 -5.2408 -2.92335 0
M  V30 11084 H 1056.98 -4.54358 -1.69372 0
M  V30 11085 N 1058.32 0.686584 -1.41858 0
M  V30 11086 C 1059.54 1.4802 -1.45275 0
M  V30 11087 C 1059.97 1.87997 -0.0621297 0
M  V30 11088 O 1059.33 1.55226 0.936733 0
M  V30 11089 C 1059.38 2.7133 -2.37513 0
M  V30 11090 O 1058.48 3.69159 -1.83836 0
M  V30 11091 H 1057.82 0.445152 -0.492682 0
M  V30 11092 H 1060.35 0.843161 -1.86419 0
M  V30 11093 H 1060.36 3.19537 -2.53693 0
M  V30 11094 H 1059.04 2.41571 -3.3855 0
M  V30 11095 H 1057.61 3.28134 -1.77151 0
M  V30 11096 N 1059.8 1.27835 0.921735 0
M  V30 11097 C 1061.03 1.17182 1.70153 0
M  V30 11098 C 1061.44 -0.273207 1.87217 0
M  V30 11099 O 1060.78 -1.19729 1.39322 0
M  V30 11100 C 1060.84 1.78969 3.11786 0
M  V30 11101 C 1060.5 3.28179 3.18037 0
M  V30 11102 C 1061.5 4.24729 2.99835 0
M  V30 11103 C 1059.19 3.68995 3.40805 0
M  V30 11104 C 1061.18 5.60071 3.04301 0
M  V30 11105 C 1058.87 5.04465 3.44904 0
M  V30 11106 C 1059.87 5.99813 3.2667 0
M  V30 11107 O 1059.55 7.32813 3.30515 0
M  V30 11108 H 1059.29 0.408079 0.538932 0
M  V30 11109 H 1061.84 1.69326 1.16266 0
M  V30 11110 H 1060.07 1.2131 3.6718 0
M  V30 11111 H 1061.76 1.62946 3.71757 0
M  V30 11112 H 1062.52 3.94533 2.8208 0
M  V30 11113 H 1058.4 2.9525 3.54045 0
M  V30 11114 H 1061.95 6.34471 2.89987 0
M  V30 11115 H 1057.84 5.34315 3.62185 0
M  V30 11116 H 1058.61 7.41338 3.4693 0
M  V30 11117 N 1061.28 -1.12907 1.09954 0
M  V30 11118 C 1062.55 -1.80602 0.751148 0
M  V30 11119 C 1062.93 -1.96826 -0.763077 0
M  V30 11120 O 1062.28 -1.54066 -1.68749 0
M  V30 11121 C 1062.49 -3.15289 1.49646 0
M  V30 11122 C 1063.84 -3.9056 1.66578 0
M  V30 11123 O 1064.86 -3.24929 1.45943 0
M  V30 11124 O 1063.72 -5.08292 2.00752 0
M  V30 11125 H 1060.82 -0.781529 0.270446 0
M  V30 11126 H 1063.36 -1.19786 1.20206 0
M  V30 11127 H 1062.13 -2.9874 2.52725 0
M  V30 11128 H 1061.76 -3.83809 1.03808 0
M  V30 11129 N 1062.75 -0.88754 -1.30232 0
M  V30 11130 C 1064 -0.506277 -1.95656 0
M  V30 11131 C 1064.32 0.948191 -1.70395 0
M  V30 11132 O 1063.59 1.66701 -1.02895 0
M  V30 11133 H 1062.17 -0.184235 -0.723924 0
M  V30 11134 H 1064.83 -1.13118 -1.58715 0
M  V30 11135 H 1063.93 -0.678673 -3.04632 0
M  V30 11136 N 1064.23 1.43628 -0.648757 0
M  V30 11137 C 1065.46 2.06732 -0.166284 0
M  V30 11138 C 1065.88 1.48281 1.15734 0
M  V30 11139 O 1065.24 0.591018 1.71396 0
M  V30 11140 C 1065.29 3.60502 -0.0838732 0
M  V30 11141 O 1064.39 4.01186 0.955185 0
M  V30 11142 H 1063.73 0.657479 -0.0928285 0
M  V30 11143 H 1066.26 1.84208 -0.890421 0
M  V30 11144 H 1066.27 4.07875 0.100923 0
M  V30 11145 H 1064.95 4.02424 -1.05014 0
M  V30 11146 H 1063.53 3.65412 0.743537 0
M  V30 11147 N 1065.71 0.390394 1.52688 0
M  V30 11148 C 1066.94 -0.194013 2.06491 0
M  V30 11149 C 1067.36 -1.3965 1.26014 0
M  V30 11150 O 1066.72 -1.79038 0.285468 0
M  V30 11151 C 1066.77 -0.541306 3.56514 0
M  V30 11152 O 1065.87 -1.63509 3.78601 0
M  V30 11153 H 1065.21 -0.0223608 0.663623 0
M  V30 11154 H 1067.74 0.558179 1.96839 0
M  V30 11155 H 1067.75 -0.805301 3.99974 0
M  V30 11156 H 1066.43 0.337828 4.14526 0
M  V30 11157 H 1065 -1.36473 3.4703 0
M  V30 11158 N 1067.19 -1.57141 0.120249 0
M  V30 11159 C 1068.42 -1.993 -0.544346 0
M  V30 11160 C 1068.83 -0.998858 -1.60684 0
M  V30 11161 O 1068.17 0.0162197 -1.83693 0
M  V30 11162 C 1068.23 -3.37874 -1.22808 0
M  V30 11163 C 1067.9 -4.55924 -0.313374 0
M  V30 11164 C 1068.89 -5.17962 0.448501 0
M  V30 11165 C 1066.58 -5.018 -0.224082 0
M  V30 11166 C 1068.57 -6.24264 1.28739 0
M  V30 11167 C 1066.26 -6.07963 0.618437 0
M  V30 11168 C 1067.26 -6.69061 1.3728 0
M  V30 11169 O 1066.94 -7.73173 2.20133 0
M  V30 11170 H 1066.68 -0.659466 -0.148596 0
M  V30 11171 H 1069.23 -2.04387 0.203779 0
M  V30 11172 H 1067.46 -3.29545 -2.02329 0
M  V30 11173 H 1069.15 -3.64314 -1.7897 0
M  V30 11174 H 1069.92 -4.83434 0.389395 0
M  V30 11175 H 1065.79 -4.53989 -0.80094 0
M  V30 11176 H 1069.34 -6.71883 1.87667 0
M  V30 11177 H 1065.24 -6.4192 0.678932 0
M  V30 11178 H 1066 -7.90276 2.13088 0
M  V30 11179 N 1068.67 0.153526 -1.5685 0
M  V30 11180 C 1069.89 0.882335 -1.87143 0
M  V30 11181 C 1070.31 1.75034 -0.707702 0
M  V30 11182 O 1069.67 1.79624 0.32273 0
M  V30 11183 C 1069.72 1.74444 -3.16625 0
M  V30 11184 O 1069.44 0.911419 -4.28515 0
M  V30 11185 C 1070.94 2.58139 -3.60388 0
M  V30 11186 H 1068.16 0.25546 -0.620469 0
M  V30 11187 H 1070.7 0.148275 -2.03962 0
M  V30 11188 H 1068.86 2.43163 -3.0158 0
M  V30 11189 H 1069.27 1.50268 -5.02513 0
M  V30 11190 H 1070.75 3.14215 -4.53842 0
M  V30 11191 H 1071.22 3.33865 -2.85361 0
M  V30 11192 H 1071.83 1.94721 -3.78105 0
M  V30 11193 N 1070.14 1.51827 0.422667 0
M  V30 11194 C 1071.37 1.69049 1.1929 0
M  V30 11195 C 1071.79 0.394095 1.84641 0
M  V30 11196 O 1071.14 -0.628731 1.71328 0
M  V30 11197 C 1071.2 2.81657 2.26609 0
M  V30 11198 O 1070.92 4.06275 1.63929 0
M  V30 11199 C 1072.42 3.10274 3.16615 0
M  V30 11200 H 1069.64 0.566894 0.358988 0
M  V30 11201 H 1072.18 1.98318 0.499029 0
M  V30 11202 H 1070.34 2.54945 2.91688 0
M  V30 11203 H 1070.75 4.68924 2.3497 0
M  V30 11204 H 1072.22 3.92613 3.88019 0
M  V30 11205 H 1072.7 2.23273 3.78214 0
M  V30 11206 H 1073.31 3.387 2.57221 0
M  V30 11207 N 1071.62 -0.679052 1.4222 0
M  V30 11208 C 1072.85 -1.46534 1.45641 0
M  V30 11209 C 1073.26 -1.89088 0.0649574 0
M  V30 11210 O 1072.6 -1.58436 -0.929712 0
M  V30 11211 C 1072.67 -2.74882 2.3169 0
M  V30 11212 C 1072.33 -2.5443 3.79624 0
M  V30 11213 C 1073.33 -2.19307 4.71382 0
M  V30 11214 C 1071.01 -2.69557 4.23845 0
M  V30 11215 C 1073.01 -1.99571 6.05351 0
M  V30 11216 C 1070.69 -2.49437 5.57875 0
M  V30 11217 C 1071.69 -2.14497 6.48444 0
M  V30 11218 O 1071.38 -1.94567 7.79999 0
M  V30 11219 H 1071.11 -0.457542 0.497626 0
M  V30 11220 H 1073.66 -0.842145 1.87342 0
M  V30 11221 H 1071.89 -3.39669 1.8483 0
M  V30 11222 H 1073.58 -3.3675 2.26615 0
M  V30 11223 H 1074.35 -2.0722 4.38503 0
M  V30 11224 H 1070.23 -2.95733 3.53642 0
M  V30 11225 H 1073.77 -1.72222 6.76007 0
M  V30 11226 H 1069.67 -2.61119 5.90328 0
M  V30 11227 H 1070.44 -2.092 7.91314 0
M  V30 11228 N 1073.1 -1.28322 -0.914942 0
M  V30 11229 C 1074.03 -1.06469 -2.01841 0
M  V30 11230 C 1075.01 0.0188681 -1.62589 0
M  V30 11231 O 1076.2 -0.128825 -1.88059 0
M  V30 11232 C 1073.32 -0.617685 -3.3302 0
M  V30 11233 C 1072.37 -1.6977 -3.91255 0
M  V30 11234 S 1073.2 -3.29337 -4.22253 0
M  V30 11235 C 1074.36 -2.86468 -5.56495 0
M  V30 11236 H 1074.59 -1.99893 -2.20068 0
M  V30 11237 H 1072.12 -1.12297 -1.05966 0
M  V30 11238 H 1074.08 -0.366481 -4.08861 0
M  V30 11239 H 1072.74 0.296709 -3.12695 0
M  V30 11240 H 1071.94 -1.33653 -4.85956 0
M  V30 11241 H 1071.54 -1.90164 -3.22046 0
M  V30 11242 H 1073.83 -2.32565 -6.36333 0
M  V30 11243 H 1074.77 -3.79962 -5.97523 0
M  V30 11244 H 1075.18 -2.2522 -5.17626 0
M  V30 11245 N 1074.58 1.12322 -1.10551 0
M  V30 11246 C 1075.53 2.18087 -0.755424 0
M  V30 11247 C 1076.5 1.6391 0.268805 0
M  V30 11248 O 1077.68 1.90227 0.147813 0
M  V30 11249 C 1074.82 3.4455 -0.194713 0
M  V30 11250 C 1073.93 4.12775 -1.27439 0
M  V30 11251 C 1073.07 5.26891 -0.675194 0
M  V30 11252 C 1072.11 5.86985 -1.73536 0
M  V30 11253 N 1071.24 6.92512 -1.15635 0
M  V30 11254 H 1076.08 2.47379 -1.66155 0
M  V30 11255 H 1073.62 1.21452 -0.829924 0
M  V30 11256 H 1075.58 4.16936 0.148275 0
M  V30 11257 H 1074.21 3.15671 0.674638 0
M  V30 11258 H 1073.26 3.38556 -1.73448 0
M  V30 11259 H 1074.57 4.53506 -2.07687 0
M  V30 11260 H 1073.73 6.06046 -0.281723 0
M  V30 11261 H 1072.47 4.87442 0.158708 0
M  V30 11262 H 1071.47 5.06517 -2.13825 0
M  V30 11263 H 1072.7 6.28505 -2.57213 0
M  V30 11264 H 1070.64 6.55098 -0.343928 0
M  V30 11265 H 1070.56 7.31848 -1.89565 0
M  V30 11266 H 1071.83 7.75492 -0.789463 0
M  V30 11267 N 1076.06 0.894434 1.2976 0
M  V30 11268 C 1076.97 0.372622 2.31622 0
M  V30 11269 C 1077.98 -0.52996 1.65733 0
M  V30 11270 O 1079.16 -0.420807 1.96955 0
M  V30 11271 C 1076.22 -0.396076 3.4443 0
M  V30 11272 C 1075.28 0.537394 4.25923 0
M  V30 11273 C 1074.52 -0.194713 5.33345 0
M  V30 11274 O 1074.74 -1.41943 5.52457 0
M  V30 11275 O 1073.67 0.460055 6.00139 0
M  V30 11276 H 1077.5 1.21756 2.78225 0
M  V30 11277 H 1075.09 0.65858 1.34101 0
M  V30 11278 H 1076.97 -0.830962 4.13126 0
M  V30 11279 H 1075.64 -1.21716 2.99945 0
M  V30 11280 H 1074.55 1.02129 3.5989 0
M  V30 11281 H 1075.88 1.32475 4.74037 0
M  V30 11282 N 1077.53 -1.43282 0.656365 0
M  V30 11283 C 1078.44 -2.34576 -0.033864 0
M  V30 11284 C 1079.46 -1.5406 -0.808793 0
M  V30 11285 O 1080.64 -1.867 -0.755322 0
M  V30 11286 C 1077.7 -3.32378 -0.986197 0
M  V30 11287 C 1076.76 -4.28797 -0.207851 0
M  V30 11288 C 1076 -5.21927 -1.11482 0
M  V30 11289 O 1076.22 -5.19554 -2.35414 0
M  V30 11290 O 1075.15 -5.99045 -0.585536 0
M  V30 11291 H 1078.98 -2.95099 0.717668 0
M  V30 11292 H 1076.56 -1.43475 0.416556 0
M  V30 11293 H 1078.45 -3.9251 -1.53341 0
M  V30 11294 H 1077.12 -2.74354 -1.7179 0
M  V30 11295 H 1076.03 -3.72134 0.383022 0
M  V30 11296 H 1077.36 -4.89811 0.48435 0
M  V30 11297 N 1079.01 -0.398486 -1.52479 0
M  V30 11298 C 1080.26 0.181019 -2.0199 0
M  V30 11299 C 1080.59 1.45691 -1.28405 0
M  V30 11300 O 1079.87 1.90607 -0.387207 0
M  V30 11301 C 1080.15 0.439587 -3.57407 0
M  V30 11302 C 1080 -0.85223 -4.41653 0
M  V30 11303 C 1081.32 1.2263 -4.2267 0
M  V30 11304 H 1078.44 0.0643164 -0.734188 0
M  V30 11305 H 1081.08 -0.52986 -1.82462 0
M  V30 11306 H 1079.23 1.04516 -3.74177 0
M  V30 11307 H 1080.91 -1.48879 -4.36615 0
M  V30 11308 H 1079.15 -1.46555 -4.08294 0
M  V30 11309 H 1079.82 -0.625839 -5.48441 0
M  V30 11310 H 1082.3 0.713722 -4.09933 0
M  V30 11311 H 1081.17 1.37596 -5.31374 0
M  V30 11312 H 1081.43 2.24403 -3.80914 0
M  V30 11313 N 1080.49 1.57075 -0.12858 0
M  V30 11314 C 1081.77 1.87075 0.571162 0
M  V30 11315 C 1082.15 1.03141 1.84188 0
M  V30 11316 O 1081.5 0.113001 2.2822 0
M  V30 11317 C 1081.71 3.3838 0.854383 0
M  V30 11318 C 1083.05 4.07194 1.20326 0
M  V30 11319 O 1084.08 3.43454 0.944338 0
M  V30 11320 O 1082.94 5.19725 1.68963 0
M  V30 11321 H 1080.03 0.774764 0.289258 0
M  V30 11322 H 1082.58 1.68908 -0.163806 0
M  V30 11323 H 1081.35 3.91273 -0.0456925 0
M  V30 11324 H 1080.97 3.62012 1.64418 0
M  V30 11325 N 1081.97 -0.145205 1.5693 0
M  V30 11326 C 1083.39 -0.497905 1.51635 0
M  V30 11327 C 1083.59 -1.8328 0.837301 0
M  V30 11328 O 1082.64 -2.49172 0.408584 0
M  V30 11329 C 1083.95 -0.506557 2.96403 0
M  V30 11330 C 1085.5 -0.591947 3.07352 0
M  V30 11331 C 1085.98 -0.631244 4.53629 0
M  V30 11332 N 1087.47 -0.693417 4.5798 0
M  V30 11333 C 1088.2 -0.744836 5.68542 0
M  V30 11334 N 1087.7 -0.755492 6.88668 0
M  V30 11335 N 1089.49 -0.785854 5.5658 0
M  V30 11336 H 1081.64 0.729779 1.99469 0
M  V30 11337 H 1083.91 0.266295 0.90983 0
M  V30 11338 H 1083.61 0.406127 3.49347 0
M  V30 11339 H 1083.49 -1.34383 3.5245 0
M  V30 11340 H 1085.87 -1.49505 2.54425 0
M  V30 11341 H 1085.95 0.272507 2.54344 0
M  V30 11342 H 1085.6 0.26771 5.07194 0
M  V30 11343 H 1085.53 -1.51221 5.0442 0
M  V30 11344 H 1088.02 -0.692408 3.71503 0
M  V30 11345 H 1088.33 -0.796624 7.68683 0
M  V30 11346 H 1086.68 -0.723339 6.91226 0
M  V30 11347 H 1089.87 -0.774712 4.61645 0
M  V30 11348 H 1090.04 -0.822461 6.42759 0
M  V30 11349 N 1083.45 -1.52049 -0.414609 0
M  V30 11350 C 1084.68 -1.69433 -1.18221 0
M  V30 11351 C 1085.09 -0.40104 -1.84901 0
M  V30 11352 O 1084.43 0.632342 -1.72474 0
M  V30 11353 C 1084.49 -2.76986 -2.2917 0
M  V30 11354 C 1084.15 -4.18903 -1.82671 0
M  V30 11355 C 1085.15 -5.02929 -1.31751 0
M  V30 11356 C 1082.84 -4.65113 -1.89672 0
M  V30 11357 C 1084.83 -6.31234 -0.884461 0
M  V30 11358 C 1082.52 -5.93408 -1.45978 0
M  V30 11359 C 1083.52 -6.76297 -0.9545 0
M  V30 11360 O 1083.2 -8.02191 -0.523852 0
M  V30 11361 H 1082.94 -0.571228 -0.36149 0
M  V30 11362 H 1085.49 -1.99355 -0.494643 0
M  V30 11363 H 1083.72 -2.42428 -3.01273 0
M  V30 11364 H 1085.41 -2.83023 -2.90951 0
M  V30 11365 H 1086.17 -4.68422 -1.2572 0
M  V30 11366 H 1082.05 -4.00702 -2.27945 0
M  V30 11367 H 1085.6 -6.95881 -0.489383 0
M  V30 11368 H 1081.49 -6.27424 -1.51687 0
M  V30 11369 H 1082.26 -8.15934 -0.647656 0
M  V30 11370 N 1084.93 0.6715 -1.42579 0
M  V30 11371 C 1086.34 0.985019 -1.25577 0
M  V30 11372 C 1086.54 2.00845 -0.162319 0
M  V30 11373 O 1085.6 2.48175 0.465352 0
M  V30 11374 C 1086.91 1.48668 -2.61377 0
M  V30 11375 C 1088.46 1.60429 -2.68759 0
M  V30 11376 C 1088.93 2.13991 -4.04935 0
M  V30 11377 N 1090.42 2.21319 -4.06906 0
M  V30 11378 C 1091.16 2.63845 -5.09091 0
M  V30 11379 N 1090.66 3.05799 -6.21658 0
M  V30 11380 N 1092.45 2.63623 -4.96447 0
M  V30 11381 H 1084.6 -0.00604561 -2.12399 0
M  V30 11382 H 1086.86 0.0598299 -0.94611 0
M  V30 11383 H 1086.57 0.80917 -3.42265 0
M  V30 11384 H 1086.44 2.46487 -2.85524 0
M  V30 11385 H 1088.83 2.27286 -1.88216 0
M  V30 11386 H 1088.91 0.610909 -2.48398 0
M  V30 11387 H 1088.55 1.47741 -4.85937 0
M  V30 11388 H 1088.48 3.14126 -4.2265 0
M  V30 11389 H 1090.98 1.91743 -3.25643 0
M  V30 11390 H 1091.29 3.36944 -6.95477 0
M  V30 11391 H 1089.63 3.03648 -6.25158 0
M  V30 11392 H 1092.82 2.30211 -4.07579 0
M  V30 11393 H 1093 2.96444 -5.76216 0
M  V30 11394 N 1086.4 1.28806 0.908124 0
M  V30 11395 C 1087.65 1.15663 1.65242 0
M  V30 11396 C 1087.97 -0.292883 1.93395 0
M  V30 11397 O 1089.17 -0.545509 2.65963 0
M  V30 11398 C 1087.63 2.02233 2.97707 0
M  V30 11399 C 1087.24 3.51958 2.77181 0
M  V30 11400 C 1088.98 1.97792 3.75604 0
M  V30 11401 C 1086.89 4.3066 4.05322 0
M  V30 11402 H 1085.82 0.42928 0.619867 0
M  V30 11403 H 1088.47 1.5338 1.00731 0
M  V30 11404 H 1086.85 1.57377 3.63385 0
M  V30 11405 H 1088.02 4.0481 2.20149 0
M  V30 11406 H 1086.34 3.57983 2.12691 0
M  V30 11407 H 1088.94 2.53858 4.70596 0
M  V30 11408 H 1089.28 0.955956 4.05175 0
M  V30 11409 H 1089.81 2.40648 3.16755 0
M  V30 11410 H 1086.55 5.3346 3.8092 0
M  V30 11411 H 1086.07 3.8258 4.61944 0
M  V30 11412 H 1087.75 4.40878 4.73535 0
M  V30 11413 N 1087.88 -1.11734 1.11145 0
M  V30 11414 C 1089.11 -1.87215 0.880811 0
M  V30 11415 C 1089.52 -1.80016 -0.569195 0
M  V30 11416 O 1088.88 -1.17926 -1.39283 0
M  V30 11417 C 1088.93 -3.36146 1.32998 0
M  V30 11418 O 1088.65 -3.43187 2.72313 0
M  V30 11419 C 1090.15 -4.28542 1.1343 0
M  V30 11420 H 1087.37 -0.592123 0.315645 0
M  V30 11421 H 1089.92 -1.41335 1.478 0
M  V30 11422 H 1088.07 -3.79542 0.776308 0
M  V30 11423 H 1088.49 -4.359 2.91705 0
M  V30 11424 H 1089.96 -5.31295 1.49764 0
M  V30 11425 H 1090.44 -4.39138 0.0735859 0
M  V30 11426 H 1091.04 -3.90935 1.67481 0
M  V30 11427 N 1089.36 -0.901303 -1.29284 0
M  V30 11428 C 1090.61 -0.52401 -1.94774 0
M  V30 11429 C 1090.92 0.934645 -1.71825 0
M  V30 11430 O 1092.13 1.41953 -2.31434 0
M  V30 11431 C 1090.58 -0.886262 -3.48817 0
M  V30 11432 C 1090.19 -2.3638 -3.80564 0
M  V30 11433 C 1091.94 -0.578955 -4.20533 0
M  V30 11434 C 1089.84 -2.66682 -5.27858 0
M  V30 11435 H 1088.77 -0.192244 -0.72908 0
M  V30 11436 H 1091.42 -1.09852 -1.46986 0
M  V30 11437 H 1089.81 -0.240666 -3.95268 0
M  V30 11438 H 1090.98 -3.05508 -3.44966 0
M  V30 11439 H 1089.29 -2.64029 -3.2199 0
M  V30 11440 H 1091.89 -0.782185 -5.28948 0
M  V30 11441 H 1092.23 0.482605 -4.13493 0
M  V30 11442 H 1092.77 -1.18246 -3.79819 0
M  V30 11443 H 1089.51 -3.71643 -5.39965 0
M  V30 11444 H 1089.03 -2.02179 -5.64698 0
M  V30 11445 H 1090.71 -2.53033 -5.95469 0
M  V30 11446 N 1090.84 1.42931 -0.663954 0
M  V30 11447 C 1092.09 2.01284 -0.181379 0
M  V30 11448 C 1092.41 1.52708 1.21265 0
M  V30 11449 O 1091.68 0.744181 1.81215 0
M  V30 11450 H 1090.26 0.744248 -0.0640646 0
M  V30 11451 H 1092.92 1.74997 -0.858031 0
M  V30 11452 H 1092.01 3.11613 -0.174273 0
M  V30 11453 N 1092.32 0.406567 1.52266 0
M  V30 11454 C 1093.26 -0.43489 2.28498 0
M  V30 11455 C 1094.26 -1.04806 1.33086 0
M  V30 11456 O 1095.46 -0.986557 1.50556 0
M  V30 11457 H 1091.84 -0.159023 0.734994 0
M  V30 11458 H 1093.81 0.229316 2.97518 0
M  V30 11459 C 1092.56 -1.54073 3.117 0
M  V30 11460 H 1091.88 -1.07824 3.84986 0
M  V30 11461 H 1093.32 -2.10337 3.6815 0
M  V30 11462 C 1091.78 -2.50662 2.251 0
M  V30 11463 O 1092.31 -3.54486 1.88951 0
M  V30 11464 N 1090.52 -2.20811 1.8892 0
M  V30 11465 H 1090.06 -1.36413 2.18516 0
M  V30 11466 H 1090.02 -2.85684 1.3127 0
M  V30 11467 N 1093.79 -1.57004 0.136909 0
M  V30 11468 C 1094.74 -2.16246 -0.806607 0
M  V30 11469 C 1095.71 -1.09246 -1.25118 0
M  V30 11470 O 1096.9 -1.3724 -1.32551 0
M  V30 11471 C 1094.04 -2.78031 -2.04433 0
M  V30 11472 C 1093.15 -3.99393 -1.64649 0
M  V30 11473 C 1092.28 -4.49208 -2.83524 0
M  V30 11474 C 1091.32 -5.63059 -2.40064 0
M  V30 11475 N 1090.46 -6.07537 -3.51913 0
M  V30 11476 H 1095.3 -2.9654 -0.294596 0
M  V30 11477 H 1092.84 -1.46491 -0.133705 0
M  V30 11478 H 1094.8 -3.11992 -2.76978 0
M  V30 11479 H 1093.43 -2.00398 -2.53062 0
M  V30 11480 H 1092.48 -3.71477 -0.819077 0
M  V30 11481 H 1093.79 -4.81904 -1.28723 0
M  V30 11482 H 1092.94 -4.85171 -3.64271 0
M  V30 11483 H 1091.68 -3.65683 -3.22688 0
M  V30 11484 H 1090.69 -5.26682 -1.57754 0
M  V30 11485 H 1091.91 -6.48362 -2.01997 0
M  V30 11486 H 1089.86 -5.2695 -3.90717 0
M  V30 11487 H 1089.78 -6.84949 -3.1997 0
M  V30 11488 H 1091.04 -6.48143 -4.33048 0
M  V30 11489 N 1095.27 0.136881 -1.57004 0
M  V30 11490 C 1096.5 0.862436 -1.88068 0
M  V30 11491 C 1096.92 1.74274 -0.726227 0
M  V30 11492 O 1096.27 1.79956 0.30366 0
M  V30 11493 C 1096.32 1.71076 -3.18458 0
M  V30 11494 O 1096.04 0.865918 -4.29457 0
M  V30 11495 C 1097.55 2.54302 -3.63105 0
M  V30 11496 H 1094.77 0.248865 -0.623143 0
M  V30 11497 H 1097.31 0.126633 -2.04108 0
M  V30 11498 H 1095.46 2.39951 -3.04142 0
M  V30 11499 H 1095.88 1.4493 -5.04079 0
M  V30 11500 H 1097.35 3.09384 -4.57149 0
M  V30 11501 H 1097.83 3.3082 -2.88886 0
M  V30 11502 H 1098.44 1.907 -3.80149 0
M  V30 11503 N 1096.75 1.52266 0.40654 0
M  V30 11504 C 1097.99 1.6813 1.16239 0
M  V30 11505 C 1098.35 0.403791 1.87706 0
M  V30 11506 O 1099.56 0.438566 2.65198 0
M  V30 11507 C 1097.83 2.87115 2.12837 0
M  V30 11508 S 1099.39 3.23475 2.96495 0
M  V30 11509 H 1096.2 0.59202 0.393743 0
M  V30 11510 H 1098.81 1.90266 0.449325 0
M  V30 11511 H 1097.51 3.78337 1.59026 0
M  V30 11512 H 1097.04 2.6726 2.88679 0
M  V30 11513 H 1099.06 2.72299 4.14811 0
M  V30 11514 N 1098.23 -0.663929 1.42933 0
M  V30 11515 C 1099.47 -1.42603 1.44195 0
M  V30 11516 C 1099.81 -1.94101 0.0620284 0
M  V30 11517 O 1099.08 -1.71609 -0.91546 0
M  V30 11518 C 1099.37 -2.61522 2.47544 0
M  V30 11519 C 1099.22 -2.15587 3.94769 0
M  V30 11520 C 1100.54 -3.6374 2.47753 0
M  V30 11521 H 1097.66 -0.517189 0.525056 0
M  V30 11522 H 1100.3 -0.75361 1.74415 0
M  V30 11523 H 1098.45 -3.1889 2.21904 0
M  V30 11524 H 1100.12 -1.63303 4.31428 0
M  V30 11525 H 1098.36 -1.47057 4.08114 0
M  V30 11526 H 1099.03 -3.01053 4.62678 0
M  V30 11527 H 1101.51 -3.16111 2.70579 0
M  V30 11528 H 1100.39 -4.44512 3.22025 0
M  V30 11529 H 1100.65 -4.15607 1.50742 0
M  V30 11530 N 1099.71 -1.29285 -0.901281 0
M  V30 11531 C 1100.95 -1.17165 -1.65162 0
M  V30 11532 C 1101.28 0.277184 -1.92515 0
M  V30 11533 O 1100.54 1.2168 -1.53273 0
M  V30 11534 C 1100.84 -1.92865 -3.00895 0
M  V30 11535 C 1100.5 -3.42593 -2.93157 0
M  V30 11536 C 1099.16 -3.83426 -2.90754 0
M  V30 11537 C 1101.52 -4.38011 -2.82481 0
M  V30 11538 C 1098.84 -5.17997 -2.75492 0
M  V30 11539 C 1101.2 -5.7267 -2.68759 0
M  V30 11540 C 1099.86 -6.12764 -2.64721 0
M  V30 11541 H 1099.13 -0.428737 -0.604372 0
M  V30 11542 H 1101.78 -1.60204 -1.04914 0
M  V30 11543 H 1100.08 -1.42412 -3.65001 0
M  V30 11544 H 1101.78 -1.80893 -3.57881 0
M  V30 11545 H 1098.37 -3.10134 -2.95829 0
M  V30 11546 H 1102.55 -4.07417 -2.83416 0
M  V30 11547 H 1097.81 -5.48173 -2.70769 0
M  V30 11548 H 1101.98 -6.46258 -2.59469 0
M  V30 11549 H 1099.61 -7.16987 -2.52652 0
M  V30 11550 N 1101.18 1.11143 -1.11736 0
M  V30 11551 C 1102.09 2.20851 -0.791331 0
M  V30 11552 C 1103.11 1.72644 0.216833 0
M  V30 11553 O 1104.29 2.01332 0.0522401 0
M  V30 11554 C 1101.35 3.4585 -0.242694 0
M  V30 11555 C 1100.41 4.08829 -1.30986 0
M  V30 11556 C 1099.65 5.27861 -0.787305 0
M  V30 11557 O 1099.87 5.69122 0.381549 0
M  V30 11558 O 1098.8 5.81506 -1.55352 0
M  V30 11559 H 1102.63 2.51158 -1.70744 0
M  V30 11560 H 1100.21 1.19739 -0.893478 0
M  V30 11561 H 1102.1 4.21359 0.0587472 0
M  V30 11562 H 1100.77 3.17187 0.646079 0
M  V30 11563 H 1099.68 3.35037 -1.66436 0
M  V30 11564 H 1101.01 4.41678 -2.17213 0
M  V30 11565 N 1102.66 0.908147 1.28804 0
M  V30 11566 C 1103.61 0.390734 2.27468 0
M  V30 11567 C 1104.58 -0.531765 1.57358 0
M  V30 11568 O 1105.76 -0.455177 1.85291 0
M  V30 11569 C 1102.9 -0.368159 3.43131 0
M  V30 11570 C 1102.02 0.586202 4.28004 0
M  V30 11571 C 1101.15 -0.190581 5.30858 0
M  V30 11572 C 1100.19 0.757758 6.07391 0
M  V30 11573 N 1099.33 0.0148488 7.02098 0
M  V30 11574 H 1104.17 1.23717 2.71105 0
M  V30 11575 H 1101.71 0.621382 1.33331 0
M  V30 11576 H 1103.66 -0.824289 4.08976 0
M  V30 11577 H 1102.29 -1.17898 3.00499 0
M  V30 11578 H 1101.35 1.16086 3.62254 0
M  V30 11579 H 1102.66 1.31177 4.81242 0
M  V30 11580 H 1101.81 -0.707528 6.0256 0
M  V30 11581 H 1100.55 -0.949234 4.78373 0
M  V30 11582 H 1099.56 1.28613 5.34545 0
M  V30 11583 H 1100.78 1.51588 6.61965 0
M  V30 11584 H 1098.73 -0.725916 6.51971 0
M  V30 11585 H 1098.64 0.680347 7.52932 0
M  V30 11586 H 1099.91 -0.482086 7.78008 0
M  V30 11587 N 1104.14 -1.42577 0.671525 0
M  V30 11588 C 1105.05 -2.34598 -0.00898225 0
M  V30 11589 C 1106.07 -1.54909 -0.792407 0
M  V30 11590 O 1107.24 -1.87491 -0.735477 0
M  V30 11591 C 1104.31 -3.33405 -0.950888 0
M  V30 11592 C 1103.37 -4.28993 -0.16236 0
M  V30 11593 C 1102.6 -5.2308 -1.0594 0
M  V30 11594 O 1102.82 -5.22022 -2.2989 0
M  V30 11595 O 1101.76 -5.99632 -0.521966 0
M  V30 11596 H 1105.58 -2.94321 0.748927 0
M  V30 11597 H 1103.17 -1.43025 0.43175 0
M  V30 11598 H 1105.05 -3.94115 -1.49169 0
M  V30 11599 H 1103.73 -2.7616 -1.68871 0
M  V30 11600 H 1102.63 -3.71707 0.42247 0
M  V30 11601 H 1103.97 -4.8927 0.536274 0
M  V30 11602 N 1105.62 -0.414636 -1.52048 0
M  V30 11603 C 1106.57 0.422766 -2.28726 0
M  V30 11604 C 1107.56 1.04099 -1.3364 0
M  V30 11605 O 1108.77 0.978559 -1.51077 0
M  V30 11606 H 1105.14 0.155123 -0.735827 0
M  V30 11607 H 1107.11 -0.245091 -2.97392 0
M  V30 11608 C 1105.86 1.52418 -3.12513 0
M  V30 11609 H 1105.18 1.05781 -3.85552 0
M  V30 11610 H 1106.62 2.08382 -3.6926 0
M  V30 11611 C 1105.08 2.49465 -2.26426 0
M  V30 11612 O 1105.61 3.53479 -1.90829 0
M  V30 11613 N 1103.82 2.19806 -1.90088 0
M  V30 11614 H 1103.37 1.35253 -2.19236 0
M  V30 11615 H 1103.32 2.84984 -1.32783 0
M  V30 11616 N 1107.1 1.56929 -0.145233 0
M  V30 11617 C 1108.37 1.8767 0.551288 0
M  V30 11618 C 1108.75 1.05089 1.83083 0
M  V30 11619 O 1108.1 0.137201 2.28088 0
M  V30 11620 C 1108.31 3.39268 0.818445 0
M  V30 11621 C 1109.66 4.08447 1.16 0
M  V30 11622 O 1110.68 3.44436 0.907857 0
M  V30 11623 O 1109.54 5.21488 1.63441 0
M  V30 11624 H 1106.64 0.777788 0.281024 0
M  V30 11625 H 1109.18 1.68724 -0.181712 0
M  V30 11626 H 1107.95 3.91203 -0.0871897 0
M  V30 11627 H 1107.58 3.63735 1.60569 0
M  V30 11628 N 1108.58 -0.128553 1.57075 0
M  V30 11629 C 1109.99 -0.686713 1.73612 0
M  V30 11630 C 1110.34 -1.80778 0.762478 0
M  V30 11631 O 1109.46 -2.16297 -0.0667779 0
M  V30 11632 C 1110.06 -1.25246 3.148 0
M  V30 11633 C 1108.62 -1.757 3.32876 0
M  V30 11634 C 1107.76 -0.652844 2.69506 0
M  V30 11635 H 1110.71 0.0972859 1.58402 0
M  V30 11636 H 1110.74 -2.1222 3.15821 0
M  V30 11637 H 1110.25 -0.436308 3.8564 0
M  V30 11638 H 1108.35 -2.59824 2.67063 0
M  V30 11639 H 1108.46 -1.87302 4.4097 0
M  V30 11640 H 1106.83 -1.08408 2.30477 0
M  V30 11641 H 1107.61 0.15217 3.42963 0
M  V30 11642 N 1110.05 -1.5248 -0.398459 0
M  V30 11643 C 1111.28 -1.71221 -1.17039 0
M  V30 11644 C 1111.7 -0.425515 -1.83224 0
M  V30 11645 O 1111.06 0.617938 -1.70444 0
M  V30 11646 C 1111.11 -2.8562 -2.20121 0
M  V30 11647 O 1110.21 -2.51934 -3.26501 0
M  V30 11648 H 1109.55 -0.569654 -0.34116 0
M  V30 11649 H 1112.08 -1.99231 -0.465652 0
M  V30 11650 H 1112.09 -3.10842 -2.64275 0
M  V30 11651 H 1110.77 -3.78969 -1.71334 0
M  V30 11652 H 1109.35 -2.3742 -2.87552 0
M  V30 11653 N 1111.53 0.65634 -1.43283 0
M  V30 11654 C 1112.78 1.41837 -1.44949 0
M  V30 11655 C 1113.11 1.94065 -0.0723212 0
M  V30 11656 O 1112.39 1.72092 0.906346 0
M  V30 11657 C 1112.67 2.60206 -2.48927 0
M  V30 11658 C 1112.52 2.1349 -3.95907 0
M  V30 11659 C 1113.84 3.62421 -2.49678 0
M  V30 11660 H 1110.96 0.514398 -0.527792 0
M  V30 11661 H 1113.6 0.74435 -1.74813 0
M  V30 11662 H 1111.75 3.17708 -2.23592 0
M  V30 11663 H 1113.42 1.61012 -4.32288 0
M  V30 11664 H 1111.67 1.4489 -4.08888 0
M  V30 11665 H 1112.34 2.98596 -4.64268 0
M  V30 11666 H 1114.81 3.14671 -2.72252 0
M  V30 11667 H 1113.69 4.42798 -3.24378 0
M  V30 11668 H 1113.95 4.14802 -1.52944 0
M  V30 11669 N 1113.01 1.29761 0.894412 0
M  V30 11670 C 1113.94 1.09666 2.00121 0
M  V30 11671 C 1114.92 0.00700077 1.62598 0
M  V30 11672 O 1116.1 0.158728 1.87831 0
M  V30 11673 C 1113.23 0.670588 3.31995 0
M  V30 11674 C 1112.28 1.75974 3.88504 0
M  V30 11675 S 1113.11 3.36013 4.1696 0
M  V30 11676 C 1114.27 2.95285 5.51867 0
M  V30 11677 H 1114.5 2.03369 2.1686 0
M  V30 11678 H 1112.03 1.13968 1.04166 0
M  V30 11679 H 1113.99 0.431481 4.08226 0
M  V30 11680 H 1112.65 -0.246924 3.13128 0
M  V30 11681 H 1111.84 1.41367 4.83768 0
M  V30 11682 H 1111.45 1.95264 3.1898 0
M  V30 11683 H 1113.74 2.42659 6.32553 0
M  V30 11684 H 1114.68 3.8942 5.91403 0
M  V30 11685 H 1115.09 2.33426 5.13977 0
M  V30 11686 N 1114.49 -1.10549 1.12324 0
M  V30 11687 C 1115.9 -1.34508 0.85905 0
M  V30 11688 C 1116.1 -1.94901 -0.511468 0
M  V30 11689 O 1115.16 -2.18793 -1.2604 0
M  V30 11690 C 1116.47 -2.26788 1.97453 0
M  V30 11691 C 1118.02 -2.40328 2.00528 0
M  V30 11692 C 1118.5 -3.35936 3.11305 0
M  V30 11693 N 1119.99 -3.43504 3.1074 0
M  V30 11694 C 1120.72 -4.17449 3.93096 0
M  V30 11695 N 1120.22 -4.9429 4.85437 0
M  V30 11696 N 1122.01 -4.13055 3.81237 0
M  V30 11697 H 1114.16 -0.697171 2.00632 0
M  V30 11698 H 1116.42 -0.369548 0.873005 0
M  V30 11699 H 1116.13 -1.89621 2.96204 0
M  V30 11700 H 1116 -3.27086 1.87869 0
M  V30 11701 H 1118.39 -2.76765 1.02397 0
M  V30 11702 H 1118.47 -1.39849 2.14186 0
M  V30 11703 H 1118.12 -3.00225 4.09667 0
M  V30 11704 H 1118.05 -4.36291 2.94886 0
M  V30 11705 H 1120.54 -2.88702 2.43843 0
M  V30 11706 H 1120.85 -5.48109 5.4479 0
M  V30 11707 H 1119.2 -4.93419 4.89452 0
M  V30 11708 H 1122.39 -3.52117 3.08433 0
M  V30 11709 H 1122.56 -4.70424 4.45651 0
M  V30 11710 N 1115.97 -0.914965 -1.28321 0
M  V30 11711 C 1117.19 -0.564023 -1.99583 0
M  V30 11712 C 1117.62 0.847821 -1.6791 0
M  V30 11713 O 1116.97 1.56682 -0.912171 0
M  V30 11714 C 1117.02 -0.781368 -3.52033 0
M  V30 11715 O 1116.13 0.159072 -4.12093 0
M  V30 11716 H 1115.47 -0.218565 -0.626997 0
M  V30 11717 H 1118 -1.23074 -1.63444 0
M  V30 11718 H 1118.01 -0.691946 -4.0209 0
M  V30 11719 H 1116.68 -1.81059 -3.7442 0
M  V30 11720 H 1115.26 0.0208145 -3.72894 0
M  V30 11721 N 1117.44 1.42219 -0.679077 0
M  V30 11722 C 1118.85 1.8459 -0.279877 0
M  V30 11723 C 1119.21 1.56839 1.17881 0
M  V30 11724 O 1118.33 1.03039 1.90294 0
M  V30 11725 C 1118.93 3.35072 -0.501185 0
M  V30 11726 C 1117.48 3.76076 -0.156065 0
M  V30 11727 C 1116.63 2.65763 -0.791549 0
M  V30 11728 H 1119.58 1.32005 -0.880932 0
M  V30 11729 H 1119.6 3.79708 0.245349 0
M  V30 11730 H 1119.12 3.55239 -1.56291 0
M  V30 11731 H 1117.22 3.61516 0.90205 0
M  V30 11732 H 1117.33 4.75334 -0.599572 0
M  V30 11733 H 1115.69 2.53726 -0.222514 0
M  V30 11734 H 1116.48 2.88751 -1.85682 0
M  V30 11735 N 1118.92 0.422693 1.51826 0
M  V30 11736 C 1120.15 -0.15017 2.06856 0
M  V30 11737 C 1120.57 -1.36946 1.28948 0
M  V30 11738 O 1119.93 -1.78393 0.32338 0
M  V30 11739 C 1119.98 -0.465563 3.57582 0
M  V30 11740 O 1119.08 -1.55442 3.81984 0
M  V30 11741 H 1118.42 -0.00827931 0.663948 0
M  V30 11742 H 1120.95 0.599806 1.95611 0
M  V30 11743 H 1120.96 -0.720279 4.01592 0
M  V30 11744 H 1119.64 0.425679 4.13716 0
M  V30 11745 H 1118.21 -1.29081 3.49846 0
M  V30 11746 N 1120.4 -1.5685 0.153553 0
M  V30 11747 C 1121.36 -2.15894 -0.769564 0
M  V30 11748 C 1122.36 -1.10239 -1.17064 0
M  V30 11749 O 1123.55 -1.35845 -1.09049 0
M  V30 11750 C 1120.68 -2.72738 -2.04516 0
M  V30 11751 H 1121.88 -2.98807 -0.255842 0
M  V30 11752 H 1119.43 -1.56005 -0.0959279 0
M  V30 11753 H 1120.17 -1.9351 -2.60239 0
M  V30 11754 H 1119.95 -3.50042 -1.76672 0
M  V30 11755 H 1121.44 -3.18208 -2.70432 0
M  V30 11756 N 1121.88 0.120221 -1.57141 0
M  V30 11757 C 1123.13 0.826586 -1.84423 0
M  V30 11758 C 1123.45 1.80473 -0.738553 0
M  V30 11759 O 1122.72 1.94454 0.23755 0
M  V30 11760 H 1121.3 0.308246 -0.680436 0
M  V30 11761 H 1123.96 0.107835 -1.94601 0
M  V30 11762 H 1123.05 1.37256 -2.80298 0
M  V30 11763 N 1123.36 1.52689 0.390367 0
M  V30 11764 C 1124.3 1.7737 1.47677 0
M  V30 11765 C 1125.27 0.616864 1.54221 0
M  V30 11766 O 1126.46 0.856437 1.70499 0
M  V30 11767 C 1123.6 1.94715 2.84921 0
M  V30 11768 C 1122.71 3.22405 2.8754 0
M  V30 11769 C 1121.85 3.30074 4.16202 0
M  V30 11770 C 1120.89 4.51893 4.12867 0
M  V30 11771 N 1120.02 4.56851 5.33134 0
M  V30 11772 H 1124.86 2.70084 1.25932 0
M  V30 11773 H 1122.4 1.33813 0.610943 0
M  V30 11774 H 1124.36 2.02755 3.64618 0
M  V30 11775 H 1122.99 1.05363 3.0512 0
M  V30 11776 H 1122.04 3.23442 2.00223 0
M  V30 11777 H 1123.35 4.12156 2.80943 0
M  V30 11778 H 1122.51 3.3729 5.04302 0
M  V30 11779 H 1121.24 2.38295 4.25519 0
M  V30 11780 H 1120.25 4.44803 3.23156 0
M  V30 11781 H 1121.47 5.44987 4.05174 0
M  V30 11782 H 1119.42 3.67963 5.43083 0
M  V30 11783 H 1119.34 5.40472 5.28607 0
M  V30 11784 H 1120.61 4.6832 6.23134 0
M  V30 11785 N 1124.83 -0.648732 1.43629 0
M  V30 11786 C 1125.76 -1.77298 1.51947 0
M  V30 11787 C 1126.75 -1.65942 0.373785 0
M  V30 11788 O 1127.93 -1.8497 0.591596 0
M  V30 11789 C 1125.06 -3.15749 1.44638 0
M  V30 11790 C 1124.01 -3.41872 2.57502 0
M  V30 11791 C 1123.34 -4.8017 2.35246 0
M  V30 11792 C 1124.64 -3.36173 3.99731 0
M  V30 11793 H 1126.33 -1.70594 2.46045 0
M  V30 11794 H 1123.88 -0.819306 1.1842 0
M  V30 11795 H 1125.83 -3.94156 1.4906 0
M  V30 11796 H 1124.56 -3.23194 0.470466 0
M  V30 11797 H 1123.22 -2.65838 2.5244 0
M  V30 11798 H 1122.86 -4.84297 1.35887 0
M  V30 11799 H 1122.56 -4.9861 3.10906 0
M  V30 11800 H 1124.09 -5.6083 2.41459 0
M  V30 11801 H 1125.5 -4.0451 4.06257 0
M  V30 11802 H 1123.9 -3.66148 4.75453 0
M  V30 11803 H 1124.97 -2.34277 4.24549 0
M  V30 11804 N 1126.31 -1.30234 -0.887518 0
M  V30 11805 C 1127.56 -1.18277 -1.63381 0
M  V30 11806 C 1127.87 0.262079 -1.93836 0
M  V30 11807 O 1129.08 0.503127 -2.66797 0
M  V30 11808 C 1127.54 -2.06944 -2.94452 0
M  V30 11809 C 1127.14 -3.56323 -2.71547 0
M  V30 11810 C 1128.89 -2.03743 -3.7241 0
M  V30 11811 C 1126.8 -4.37054 -3.98419 0
M  V30 11812 H 1125.73 -0.439087 -0.612959 0
M  V30 11813 H 1128.38 -1.54964 -0.982779 0
M  V30 11814 H 1126.76 -1.63138 -3.60835 0
M  V30 11815 H 1127.93 -4.08261 -2.13681 0
M  V30 11816 H 1126.25 -3.61321 -2.06969 0
M  V30 11817 H 1128.84 -2.61312 -4.66497 0
M  V30 11818 H 1129.19 -1.02029 -4.03603 0
M  V30 11819 H 1129.72 -2.45657 -3.12886 0
M  V30 11820 H 1126.46 -5.39453 -3.72385 0
M  V30 11821 H 1125.98 -3.89881 -4.55799 0
M  V30 11822 H 1127.66 -4.48356 -4.66462 0
M  V30 11823 N 1127.79 1.09952 -1.12909 0
M  V30 11824 C 1128.72 2.16257 -0.759305 0
M  V30 11825 C 1129.74 1.61355 0.216427 0
M  V30 11826 O 1130.92 1.785 -0.00297224 0
M  V30 11827 C 1128.02 3.38741 -0.103908 0
M  V30 11828 C 1127.2 4.23072 -1.11037 0
M  V30 11829 C 1126.26 5.23991 -0.481667 0
M  V30 11830 O 1125.28 5.57665 -1.14011 0
M  V30 11831 N 1126.48 5.75652 0.748698 0
M  V30 11832 H 1129.25 2.48588 -1.67405 0
M  V30 11833 H 1126.81 1.25617 -1.02137 0
M  V30 11834 H 1128.8 4.03362 0.328799 0
M  V30 11835 H 1127.37 3.04344 0.713677 0
M  V30 11836 H 1126.59 3.5467 -1.72054 0
M  V30 11837 H 1127.88 4.76244 -1.79078 0
M  V30 11838 H 1127.28 5.505 1.30253 0
M  V30 11839 H 1125.84 6.42033 1.12415 0
M  V30 11840 N 1129.27 0.921757 1.27833 0
M  V30 11841 C 1130.5 0.574368 1.98455 0
M  V30 11842 C 1130.91 -0.850577 1.69002 0
M  V30 11843 O 1130.25 -1.57607 0.943708 0
M  V30 11844 C 1130.31 0.713235 3.52354 0
M  V30 11845 C 1129.98 2.1092 4.05415 0
M  V30 11846 C 1130.97 3.08276 4.18643 0
M  V30 11847 C 1128.66 2.42454 4.3991 0
M  V30 11848 C 1130.65 4.35279 4.6563 0
M  V30 11849 C 1128.34 3.69694 4.8659 0
M  V30 11850 C 1129.34 4.6592 4.99407 0
M  V30 11851 O 1129.02 5.90896 5.45066 0
M  V30 11852 H 1128.76 0.216955 0.640239 0
M  V30 11853 H 1131.31 1.23932 1.63798 0
M  V30 11854 H 1129.54 -0.00881115 3.86699 0
M  V30 11855 H 1131.23 0.371776 4.04194 0
M  V30 11856 H 1132 2.85234 3.92258 0
M  V30 11857 H 1127.87 1.68303 4.2918 0
M  V30 11858 H 1131.42 5.10391 4.75549 0
M  V30 11859 H 1127.32 3.92557 5.12415 0
M  V30 11860 H 1128.08 5.938 5.63333 0
M  V30 11861 N 1130.75 -1.41857 0.686609 0
M  V30 11862 C 1132 -2.00594 0.21095 0
M  V30 11863 C 1132.31 -1.54974 -1.19341 0
M  V30 11864 O 1133.51 -2.0621 -1.76607 0
M  V30 11865 C 1131.97 -3.58418 0.326261 0
M  V30 11866 C 1131.58 -4.13022 1.73542 0
M  V30 11867 C 1133.32 -4.24404 -0.0900816 0
M  V30 11868 C 1131.23 -5.6325 1.80287 0
M  V30 11869 H 1130.16 -0.75025 0.0751077 0
M  V30 11870 H 1132.81 -1.62442 0.853508 0
M  V30 11871 H 1131.19 -3.9413 -0.384394 0
M  V30 11872 H 1132.37 -3.88747 2.47411 0
M  V30 11873 H 1130.68 -3.5953 2.10065 0
M  V30 11874 H 1133.28 -5.34666 -0.060004 0
M  V30 11875 H 1133.62 -4.00745 -1.12733 0
M  V30 11876 H 1134.15 -3.93695 0.569979 0
M  V30 11877 H 1130.89 -5.91724 2.82034 0
M  V30 11878 H 1130.41 -5.89479 1.1079 0
M  V30 11879 H 1132.09 -6.2787 1.56167 0
M  V30 11880 N 1132.22 -0.430739 -1.51599 0
M  V30 11881 C 1133.47 0.138133 -2.02329 0
M  V30 11882 C 1133.8 1.42934 -1.31466 0
M  V30 11883 O 1133.08 1.89743 -0.427551 0
M  V30 11884 C 1133.36 0.363677 -3.58259 0
M  V30 11885 C 1133.21 -0.94572 -4.39746 0
M  V30 11886 C 1134.53 1.13637 -4.25176 0
M  V30 11887 H 1131.65 0.0487287 -0.735387 0
M  V30 11888 H 1134.29 -0.568444 -1.81297 0
M  V30 11889 H 1132.44 0.965552 -3.7631 0
M  V30 11890 H 1134.12 -1.58107 -4.33359 0
M  V30 11891 H 1132.36 -1.55183 -4.05094 0
M  V30 11892 H 1133.03 -0.742031 -5.4699 0
M  V30 11893 H 1135.51 0.626608 -4.11355 0
M  V30 11894 H 1134.38 1.26294 -5.34173 0
M  V30 11895 H 1134.64 2.16273 -3.85588 0
M  V30 11896 N 1133.7 1.56767 -0.161869 0
M  V30 11897 C 1134.61 2.21083 0.784814 0
M  V30 11898 C 1135.63 1.19959 1.26039 0
M  V30 11899 O 1136.8 1.52588 1.31449 0
M  V30 11900 C 1133.87 2.83153 2.00063 0
M  V30 11901 C 1132.93 3.9945 1.57285 0
M  V30 11902 C 1132.16 4.5855 2.7307 0
M  V30 11903 O 1132.39 4.16534 3.89686 0
M  V30 11904 O 1131.32 5.48575 2.47688 0
M  V30 11905 H 1135.15 3.02522 0.267243 0
M  V30 11906 H 1132.73 1.49255 0.0658783 0
M  V30 11907 H 1134.61 3.22546 2.71186 0
M  V30 11908 H 1133.29 2.04718 2.50744 0
M  V30 11909 H 1132.2 3.64745 0.831393 0
M  V30 11910 H 1133.53 4.7945 1.11304 0
M  V30 11911 N 1135.18 -0.111886 1.57202 0
M  V30 11912 C 1136.46 -0.849125 1.76208 0
M  V30 11913 C 1136.84 -1.97735 0.73919 0
M  V30 11914 O 1136.19 -2.27283 -0.235523 0
M  V30 11915 C 1136.4 -1.35924 3.21443 0
M  V30 11916 C 1137.74 -1.80874 3.84148 0
M  V30 11917 O 1138.77 -1.45587 3.25089 0
M  V30 11918 O 1137.63 -2.46065 4.87969 0
M  V30 11919 H 1134.72 -0.403761 0.721738 0
M  V30 11920 H 1137.27 -0.0950726 1.69433 0
M  V30 11921 H 1136.04 -0.550113 3.87414 0
M  V30 11922 H 1135.66 -2.17579 3.32784 0
M  V30 11923 N 1136.66 -1.52894 -0.382264 0
M  V30 11924 C 1137.91 -1.67933 -1.1244 0
M  V30 11925 C 1138.23 -0.425166 -1.90309 0
M  V30 11926 O 1137.5 0.560557 -1.87709 0
M  V30 11927 H 1136.08 -0.619047 -0.418079 0
M  V30 11928 H 1138.74 -1.90031 -0.432928 0
M  V30 11929 H 1137.84 -2.53285 -1.82355 0
M  V30 11930 N 1138.14 0.641106 -1.43971 0
M  V30 11931 C 1139.39 1.39807 -1.4594 0
M  V30 11932 C 1139.71 1.94795 -0.0893874 0
M  V30 11933 O 1138.98 1.75175 0.876962 0
M  V30 11934 H 1137.56 0.518908 -0.537349 0
M  V30 11935 H 1140.22 0.755278 -1.79671 0
M  V30 11936 H 1139.31 2.23439 -2.17903 0
M  V30 11937 N 1139.62 1.30703 0.880598 0
M  V30 11938 C 1140.57 1.14062 1.97418 0
M  V30 11939 C 1141.55 0.0545541 1.60807 0
M  V30 11940 O 1142.74 0.278344 1.74798 0
M  V30 11941 C 1139.87 0.839062 3.32888 0
M  V30 11942 C 1138.96 1.96559 3.75799 0
M  V30 11943 N 1139.35 3.21145 3.90768 0
M  V30 11944 C 1137.65 1.86294 4.05229 0
M  V30 11945 C 1138.35 3.94766 4.27241 0
M  V30 11946 N 1137.32 3.2285 4.37343 0
M  V30 11947 H 1141.12 2.08548 2.07087 0
M  V30 11948 H 1138.64 1.22106 1.0707 0
M  V30 11949 H 1140.64 0.700851 4.10967 0
M  V30 11950 H 1139.3 -0.0976808 3.24553 0
M  V30 11951 H 1140.31 3.56384 3.75781 0
M  V30 11952 H 1136.98 1.00016 4.05343 0
M  V30 11953 H 1138.37 5.02076 4.46508 0
M  V30 11954 N 1141.09 -1.09351 1.1349 0
M  V30 11955 C 1142.34 -1.81812 0.898452 0
M  V30 11956 C 1142.67 -1.85525 -0.573959 0
M  V30 11957 O 1141.95 -1.32403 -1.42477 0
M  V30 11958 C 1142.23 -3.27921 1.48794 0
M  V30 11959 C 1142.08 -3.32476 3.02952 0
M  V30 11960 C 1143.4 -4.24625 1.15678 0
M  V30 11961 H 1140.52 -0.660074 0.327829 0
M  V30 11962 H 1143.16 -1.28091 1.40331 0
M  V30 11963 H 1141.31 -3.738 1.05858 0
M  V30 11964 H 1142.99 -2.94994 3.54649 0
M  V30 11965 H 1141.23 -2.72037 3.37903 0
M  V30 11966 H 1141.9 -4.35409 3.39298 0
M  V30 11967 H 1144.38 -3.87036 1.52781 0
M  V30 11968 H 1143.25 -5.25194 1.59571 0
M  V30 11969 H 1143.51 -4.42044 0.0705933 0
M  V30 11970 N 1142.57 -0.928524 -1.27343 0
M  V30 11971 C 1143.82 -0.569392 -1.9433 0
M  V30 11972 C 1144.15 0.889481 -1.7297 0
M  V30 11973 O 1143.4 1.6499 -1.05247 0
M  V30 11974 C 1143.7 -0.84269 -3.47323 0
M  V30 11975 C 1143.37 -2.28344 -3.88806 0
M  V30 11976 C 1142.03 -2.67731 -3.99842 0
M  V30 11977 C 1144.38 -3.22031 -4.09811 0
M  V30 11978 C 1141.71 -3.99928 -4.29272 0
M  V30 11979 C 1144.06 -4.5381 -4.40725 0
M  V30 11980 C 1142.72 -4.93031 -4.49975 0
M  V30 11981 H 1141.99 -0.208355 -0.711104 0
M  V30 11982 H 1144.64 -1.17264 -1.51398 0
M  V30 11983 H 1142.95 -0.156775 -3.91486 0
M  V30 11984 H 1144.64 -0.543779 -3.97296 0
M  V30 11985 H 1141.23 -1.96787 -3.80753 0
M  V30 11986 H 1145.42 -2.92803 -4.00724 0
M  V30 11987 H 1140.67 -4.29996 -4.34642 0
M  V30 11988 H 1144.85 -5.26407 -4.55926 0
M  V30 11989 H 1142.47 -5.95497 -4.72533 0
M  V30 11990 N 1144.05 1.41491 -0.694123 0
M  V30 11991 C 1145.01 2.2917 -0.0368562 0
M  V30 11992 C 1146.01 1.44305 0.709426 0
M  V30 11993 O 1147.2 1.6547 0.544533 0
M  V30 11994 C 1144.33 3.27156 0.958201 0
M  V30 11995 H 1145.53 2.88787 -0.808829 0
M  V30 11996 H 1143.08 1.49453 -0.457538 0
M  V30 11997 H 1143.82 2.72516 1.75799 0
M  V30 11998 H 1143.6 3.89776 0.426227 0
M  V30 11999 H 1145.09 3.92863 1.41592 0
M  V30 12000 N 1145.53 0.438773 1.51369 0
M  V30 12001 C 1146.78 -0.126962 2.01701 0
M  V30 12002 C 1147.1 -1.43086 1.32481 0
M  V30 12003 O 1146.37 -1.90427 0.459823 0
M  V30 12004 H 1144.95 -0.0499092 0.745331 0
M  V30 12005 H 1147.61 0.581808 1.86013 0
M  V30 12006 H 1146.7 -0.301836 3.10637 0
M  V30 12007 N 1147.01 -1.56678 0.170181 0
M  V30 12008 C 1147.94 -2.15083 -0.791961 0
M  V30 12009 C 1148.95 -1.10612 -1.19452 0
M  V30 12010 O 1150.14 -1.37803 -1.13457 0
M  V30 12011 C 1147.24 -2.67769 -2.07733 0
M  V30 12012 C 1146.41 -3.96885 -1.83851 0
M  V30 12013 C 1145.47 -4.34646 -2.96596 0
M  V30 12014 O 1144.5 -5.02543 -2.67281 0
M  V30 12015 N 1145.7 -3.96112 -4.24353 0
M  V30 12016 H 1148.46 -2.98268 -0.292658 0
M  V30 12017 H 1146.03 -1.61895 -0.0126383 0
M  V30 12018 H 1148.02 -2.90029 -2.8225 0
M  V30 12019 H 1146.59 -1.89179 -2.48858 0
M  V30 12020 H 1145.81 -3.83013 -0.932452 0
M  V30 12021 H 1147.1 -4.81213 -1.65261 0
M  V30 12022 H 1146.49 -3.41448 -4.51032 0
M  V30 12023 H 1145.05 -4.23375 -4.95577 0
M  V30 12024 N 1148.48 0.103547 -1.57259 0
M  V30 12025 C 1149.72 0.814289 -1.8748 0
M  V30 12026 C 1150.09 1.76312 -0.760126 0
M  V30 12027 O 1151.29 2.51659 -0.944514 0
M  V30 12028 C 1149.56 1.53119 -3.22938 0
M  V30 12029 S 1151.12 2.28138 -3.74831 0
M  V30 12030 H 1147.94 0.271464 -0.657136 0
M  V30 12031 H 1150.54 0.07183 -1.95368 0
M  V30 12032 H 1149.24 0.826397 -4.01994 0
M  V30 12033 H 1148.77 2.31372 -3.18167 0
M  V30 12034 H 1150.79 3.54132 -3.4757 0
M  V30 12035 N 1149.96 1.53094 0.37415 0
M  V30 12036 C 1151.19 1.72508 1.13687 0
M  V30 12037 C 1151.6 0.449922 1.83773 0
M  V30 12038 O 1150.94 -0.586391 1.74089 0
M  V30 12039 C 1151 2.82965 2.21746 0
M  V30 12040 C 1150.67 4.23599 1.71501 0
M  V30 12041 C 1151.67 5.06245 1.1837 0
M  V30 12042 C 1149.35 4.69978 1.77273 0
M  V30 12043 C 1151.34 6.33357 0.71679 0
M  V30 12044 C 1149.03 5.9707 1.30194 0
M  V30 12045 C 1150.03 6.7859 0.774856 0
M  V30 12046 O 1149.72 8.03298 0.310981 0
M  V30 12047 H 1149.45 0.580611 0.346218 0
M  V30 12048 H 1152 2.00596 0.441614 0
M  V30 12049 H 1150.23 2.5033 2.9474 0
M  V30 12050 H 1151.92 2.90638 2.83345 0
M  V30 12051 H 1152.69 4.71591 1.13256 0
M  V30 12052 H 1148.57 4.06605 2.17241 0
M  V30 12053 H 1152.11 6.96934 0.30471 0
M  V30 12054 H 1148.01 6.31225 1.34999 0
M  V30 12055 H 1148.78 8.17364 0.431098 0
M  V30 12056 N 1151.44 -0.633461 1.44309 0
M  V30 12057 C 1152.4 -1.72743 1.50641 0
M  V30 12058 C 1153.4 -1.56031 0.388718 0
M  V30 12059 O 1154.59 -1.61568 0.651251 0
M  V30 12060 C 1151.72 -3.11804 1.37809 0
M  V30 12061 H 1152.92 -1.68503 2.48086 0
M  V30 12062 H 1150.47 -0.846912 1.31366 0
M  V30 12063 H 1151.21 -3.2164 0.414483 0
M  V30 12064 H 1150.99 -3.2534 2.18852 0
M  V30 12065 H 1152.48 -3.91538 1.45216 0
M  V30 12066 N 1152.92 -1.31168 -0.873655 0
M  V30 12067 C 1153.83 -1.20458 -2.01313 0
M  V30 12068 C 1154.84 -0.122074 -1.73571 0
M  V30 12069 O 1156.02 -0.339176 -1.98523 0
M  V30 12070 C 1153.09 -0.90876 -3.34578 0
M  V30 12071 C 1152.15 -2.07779 -3.75668 0
M  V30 12072 C 1151.38 -1.79599 -5.02573 0
M  V30 12073 O 1151.6 -0.729338 -5.65718 0
M  V30 12074 O 1150.54 -2.65169 -5.40341 0
M  V30 12075 H 1154.36 -2.16207 -2.13279 0
M  V30 12076 H 1151.95 -1.10871 -1.00139 0
M  V30 12077 H 1153.83 -0.759469 -4.145 0
M  V30 12078 H 1152.5 0.0187249 -3.23695 0
M  V30 12079 H 1151.41 -2.28247 -2.96402 0
M  V30 12080 H 1152.74 -2.9874 -3.91172 0
M  V30 12081 N 1154.4 1.08748 -1.14068 0
M  V30 12082 C 1155.65 1.8044 -0.901352 0
M  V30 12083 C 1155.96 1.86995 0.573791 0
M  V30 12084 O 1157.16 2.55065 0.930275 0
M  V30 12085 C 1155.62 3.24185 -1.56308 0
M  V30 12086 C 1155.23 3.25875 -3.07424 0
M  V30 12087 C 1156.97 4.00584 -1.40473 0
M  V30 12088 C 1154.88 4.64186 -3.66449 0
M  V30 12089 H 1153.81 0.676201 -0.333569 0
M  V30 12090 H 1156.46 1.22169 -1.3692 0
M  V30 12091 H 1154.84 3.82561 -1.0229 0
M  V30 12092 H 1156.02 2.77225 -3.6808 0
M  V30 12093 H 1154.33 2.62969 -3.22856 0
M  V30 12094 H 1156.93 5.02781 -1.81976 0
M  V30 12095 H 1157.27 4.14823 -0.350408 0
M  V30 12096 H 1157.8 3.48668 -1.91508 0
M  V30 12097 H 1154.54 4.5515 -4.71719 0
M  V30 12098 H 1154.06 5.13132 -3.10574 0
M  V30 12099 H 1155.74 5.33161 -3.66536 0
M  V30 12100 N 1155.87 0.935264 1.26849 0
M  V30 12101 C 1156.78 0.446122 2.30319 0
M  V30 12102 C 1157.8 -0.476965 1.67335 0
M  V30 12103 O 1158.98 -0.357934 1.98194 0
M  V30 12104 C 1156.04 -0.286297 3.45516 0
M  V30 12105 C 1155.1 0.672626 4.23998 0
M  V30 12106 C 1154.34 -0.0249345 5.33694 0
M  V30 12107 O 1154.56 -1.24296 5.56693 0
M  V30 12108 O 1153.49 0.650752 5.98372 0
M  V30 12109 H 1157.32 1.30546 2.74211 0
M  V30 12110 H 1154.9 0.70091 1.31938 0
M  V30 12111 H 1156.79 -0.699109 4.1556 0
M  V30 12112 H 1155.46 -1.12112 3.03665 0
M  V30 12113 H 1154.37 1.13527 3.56458 0
M  V30 12114 H 1155.7 1.47489 4.69583 0
M  V30 12115 N 1157.35 -1.41121 0.701616 0
M  V30 12116 C 1158.6 -2.01428 0.235495 0
M  V30 12117 C 1158.93 -1.55463 -1.16382 0
M  V30 12118 O 1158.21 -0.768477 -1.78675 0
M  V30 12119 C 1158.49 -3.58849 0.299919 0
M  V30 12120 C 1158.34 -4.14924 1.73661 0
M  V30 12121 C 1159.66 -4.38809 -0.336856 0
M  V30 12122 H 1156.78 -0.731842 0.0870456 0
M  V30 12123 H 1159.42 -1.67787 0.891479 0
M  V30 12124 H 1157.57 -3.87638 -0.258611 0
M  V30 12125 H 1159.24 -3.96987 2.34945 0
M  V30 12126 H 1157.49 -3.69738 2.26884 0
M  V30 12127 H 1158.16 -5.24085 1.73318 0
M  V30 12128 H 1160.63 -4.15868 0.138886 0
M  V30 12129 H 1159.51 -5.48278 -0.261264 0
M  V30 12130 H 1159.77 -4.18728 -1.41843 0
M  V30 12131 N 1158.83 -0.446794 -1.51134 0
M  V30 12132 C 1159.76 0.405311 -2.24572 0
M  V30 12133 C 1160.74 1.01679 -1.26886 0
M  V30 12134 O 1161.93 1.05743 -1.56047 0
M  V30 12135 C 1159.05 1.56573 -3.00338 0
M  V30 12136 C 1158.1 1.07401 -4.12756 0
M  V30 12137 S 1158.93 0.00835038 -5.35499 0
M  V30 12138 C 1160.09 1.17321 -6.14806 0
M  V30 12139 H 1160.32 -0.218143 -2.96499 0
M  V30 12140 H 1157.85 -0.231405 -1.52656 0
M  V30 12141 H 1159.81 2.23092 -3.44587 0
M  V30 12142 H 1158.47 2.16062 -2.27982 0
M  V30 12143 H 1157.67 1.94204 -4.65082 0
M  V30 12144 H 1157.27 0.486906 -3.70817 0
M  V30 12145 H 1159.56 2.08972 -6.44466 0
M  V30 12146 H 1160.5 0.689723 -7.04733 0
M  V30 12147 H 1160.91 1.41605 -5.4645 0
M  V30 12148 N 1160.31 1.56586 -0.178487 0
M  V30 12149 C 1161.26 2.18309 0.74899 0
M  V30 12150 C 1162.23 1.12525 1.22178 0
M  V30 12151 O 1163.41 1.40706 1.28866 0
M  V30 12152 C 1160.55 2.83353 1.9699 0
M  V30 12153 C 1159.66 4.03618 1.54002 0
M  V30 12154 C 1158.8 4.56567 2.71514 0
M  V30 12155 C 1157.84 5.69226 2.25051 0
M  V30 12156 N 1156.97 6.16654 3.35682 0
M  V30 12157 H 1161.81 2.97217 0.21587 0
M  V30 12158 H 1159.35 1.46794 0.0948182 0
M  V30 12159 H 1161.31 3.19226 2.68609 0
M  V30 12160 H 1159.94 2.07037 2.4766 0
M  V30 12161 H 1158.99 3.73518 0.720298 0
M  V30 12162 H 1160.3 4.85148 1.15901 0
M  V30 12163 H 1159.46 4.94659 3.5128 0
M  V30 12164 H 1158.2 3.7411 3.12879 0
M  V30 12165 H 1157.2 5.30679 1.43734 0
M  V30 12166 H 1158.43 6.5349 1.84736 0
M  V30 12167 H 1156.37 5.37124 3.76609 0
M  V30 12168 H 1156.29 6.93192 3.01697 0
M  V30 12169 H 1157.56 6.59397 4.15711 0
M  V30 12170 N 1161.79 -0.095206 1.57312 0
M  V30 12171 C 1162.72 -1.14662 1.97301 0
M  V30 12172 C 1163.7 -1.38845 0.846212 0
M  V30 12173 O 1164.88 -1.52607 1.1065 0
M  V30 12174 C 1162.01 -2.49582 2.28968 0
M  V30 12175 C 1161.05 -2.41681 3.51415 0
M  V30 12176 S 1161.89 -1.83343 5.03136 0
M  V30 12177 C 1163.04 -3.19888 5.3798 0
M  V30 12178 H 1163.28 -0.805726 2.86174 0
M  V30 12179 H 1160.81 -0.302881 1.514 0
M  V30 12180 H 1162.77 -3.27202 2.47889 0
M  V30 12181 H 1161.43 -2.80841 1.40667 0
M  V30 12182 H 1160.62 -3.41122 3.71015 0
M  V30 12183 H 1160.22 -1.7219 3.32004 0
M  V30 12184 H 1162.52 -4.16161 5.34618 0
M  V30 12185 H 1163.46 -3.05093 6.39002 0
M  V30 12186 H 1163.87 -3.19414 4.6544 0
M  V30 12187 N 1163.26 -1.53291 -0.366026 0
M  V30 12188 C 1164.51 -1.69702 -1.11036 0
M  V30 12189 C 1164.84 -0.44728 -1.88979 0
M  V30 12190 O 1164.12 0.55542 -1.86401 0
M  V30 12191 C 1164.4 -2.94661 -2.06995 0
M  V30 12192 C 1164.25 -4.29791 -1.32663 0
M  V30 12193 C 1165.57 -3.15219 -3.07123 0
M  V30 12194 H 1162.69 -0.617525 -0.402284 0
M  V30 12195 H 1165.33 -1.85929 -0.391223 0
M  V30 12196 H 1163.48 -2.80958 -2.68318 0
M  V30 12197 H 1165.16 -4.55305 -0.741266 0
M  V30 12198 H 1163.4 -4.29223 -0.628484 0
M  V30 12199 H 1164.07 -5.13359 -2.02896 0
M  V30 12200 H 1166.55 -3.28105 -2.55903 0
M  V30 12201 H 1165.42 -4.04088 -3.71489 0
M  V30 12202 H 1165.68 -2.30479 -3.77269 0
M  V30 12203 N 1164.74 0.6258 -1.44643 0
M  V30 12204 C 1165.68 1.75056 -1.46392 0
M  V30 12205 C 1166.65 1.59376 -0.322179 0
M  V30 12206 O 1167.84 1.81187 -0.519956 0
M  V30 12207 C 1164.96 3.12689 -1.30166 0
M  V30 12208 C 1164.01 3.47005 -2.47972 0
M  V30 12209 S 1164.84 3.43885 -4.10491 0
M  V30 12210 C 1166 4.84129 -3.96698 0
M  V30 12211 H 1166.23 1.73306 -2.41562 0
M  V30 12212 H 1163.77 0.800879 -1.32005 0
M  V30 12213 H 1165.72 3.9211 -1.21492 0
M  V30 12214 H 1164.38 3.11972 -0.364982 0
M  V30 12215 H 1163.58 4.47171 -2.32496 0
M  V30 12216 H 1163.18 2.75059 -2.53414 0
M  V30 12217 H 1165.47 5.73488 -3.60718 0
M  V30 12218 H 1166.41 5.0466 -4.96713 0
M  V30 12219 H 1166.82 4.58954 -3.28666 0
M  V30 12220 N 1166.22 1.31629 0.866686 0
M  V30 12221 C 1167.45 1.24474 1.65269 0
M  V30 12222 C 1167.86 -0.18939 1.87848 0
M  V30 12223 O 1167.22 -1.12251 1.43895 0
M  V30 12224 C 1167.27 1.98872 3.01881 0
M  V30 12225 O 1166.99 3.36687 2.8031 0
M  V30 12226 C 1168.49 1.98595 3.96327 0
M  V30 12227 H 1165.71 0.429966 0.515141 0
M  V30 12228 H 1168.26 1.73559 1.08156 0
M  V30 12229 H 1166.41 1.53539 3.55675 0
M  V30 12230 H 1166.83 3.74612 3.67105 0
M  V30 12231 H 1168.3 2.55156 4.89489 0
M  V30 12232 H 1168.78 0.969257 4.28371 0
M  V30 12233 H 1169.38 2.43821 3.4847 0
M  V30 12234 N 1167.7 -1.08142 1.14644 0
M  V30 12235 C 1168.63 -2.17139 0.858667 0
M  V30 12236 C 1169.61 -1.69064 -0.187452 0
M  V30 12237 O 1170.8 -1.94151 -0.0435458 0
M  V30 12238 C 1167.93 -3.45648 0.33834 0
M  V30 12239 C 1166.88 -4.07129 1.32021 0
M  V30 12240 C 1166.21 -5.30623 0.659075 0
M  V30 12241 C 1167.51 -4.48095 2.68343 0
M  V30 12242 H 1169.2 -2.41468 1.77012 0
M  V30 12243 H 1166.75 -1.16052 0.852523 0
M  V30 12244 H 1168.7 -4.21216 0.124611 0
M  V30 12245 H 1167.42 -3.2088 -0.608553 0
M  V30 12246 H 1166.08 -3.33596 1.52016 0
M  V30 12247 H 1165.73 -5.02142 -0.293711 0
M  V30 12248 H 1165.43 -5.72714 1.31427 0
M  V30 12249 H 1166.95 -6.08903 0.454933 0
M  V30 12250 H 1168.37 -5.14828 2.5224 0
M  V30 12251 H 1166.76 -5.01113 3.30161 0
M  V30 12252 H 1167.83 -3.59852 3.25015 0
M  V30 12253 N 1169.18 -0.941978 -1.26351 0
M  V30 12254 C 1170.41 -0.606748 -1.97803 0
M  V30 12255 C 1170.82 0.818441 -1.70138 0
M  V30 12256 O 1170.18 1.54583 -0.970076 0
M  V30 12257 C 1170.23 -0.840431 -3.51595 0
M  V30 12258 O 1169.95 -2.20957 -3.78299 0
M  V30 12259 C 1171.45 -0.515855 -4.40288 0
M  V30 12260 H 1168.67 -0.228591 -0.630862 0
M  V30 12261 H 1171.21 -1.2629 -1.60845 0
M  V30 12262 H 1169.37 -0.230875 -3.86711 0
M  V30 12263 H 1169.78 -2.2702 -4.72824 0
M  V30 12264 H 1171.26 -0.72998 -5.47152 0
M  V30 12265 H 1171.73 0.549178 -4.35753 0
M  V30 12266 H 1172.34 -1.10417 -4.10717 0
M  V30 12267 N 1170.66 1.40747 -0.709091 0
M  V30 12268 C 1171.62 2.29118 -0.0611607 0
M  V30 12269 C 1172.62 1.45049 0.694081 0
M  V30 12270 O 1173.81 1.66039 0.526952 0
M  V30 12271 C 1170.94 3.28154 0.923447 0
M  V30 12272 H 1172.13 2.87913 -0.839413 0
M  V30 12273 H 1169.69 1.4896 -0.473363 0
M  V30 12274 H 1170.42 2.74366 1.72899 0
M  V30 12275 H 1170.21 3.90207 0.384862 0
M  V30 12276 H 1171.7 3.94343 1.37417 0
M  V30 12277 N 1172.13 0.454803 1.50895 0
M  V30 12278 C 1173.38 -0.105927 2.02523 0
M  V30 12279 C 1173.71 -1.40825 1.33724 0
M  V30 12280 O 1172.99 -1.89038 0.457683 0
M  V30 12281 C 1173.27 -0.306635 3.58792 0
M  V30 12282 C 1173.12 1.01556 4.38185 0
M  V30 12283 C 1174.44 -1.06858 4.2693 0
M  V30 12284 H 1171.56 -0.0370232 0.736069 0
M  V30 12285 H 1174.2 0.597215 1.8037 0
M  V30 12286 H 1172.35 -0.905563 3.77799 0
M  V30 12287 H 1174.03 1.64981 4.30789 0
M  V30 12288 H 1172.27 1.61608 4.02574 0
M  V30 12289 H 1172.94 0.828959 5.4574 0
M  V30 12290 H 1175.42 -0.561086 4.123 0
M  V30 12291 H 1174.29 -1.1778 5.36115 0
M  V30 12292 H 1174.55 -2.10111 3.8898 0
M  V30 12293 N 1173.61 -1.56489 0.186789 0
M  V30 12294 C 1174.52 -2.22304 -0.749543 0
M  V30 12295 C 1175.54 -1.21949 -1.24115 0
M  V30 12296 O 1176.71 -1.5466 -1.29005 0
M  V30 12297 C 1173.78 -2.863 -1.95533 0
M  V30 12298 C 1172.84 -4.01901 -1.5091 0
M  V30 12299 C 1172.07 -4.62837 -2.6574 0
M  V30 12300 O 1172.3 -4.22681 -3.8301 0
M  V30 12301 O 1171.23 -5.52446 -2.38929 0
M  V30 12302 H 1175.06 -3.02909 -0.21908 0
M  V30 12303 H 1172.64 -1.49341 -0.0421249 0
M  V30 12304 H 1174.52 -3.2682 -2.6602 0
M  V30 12305 H 1173.2 -2.08681 -2.47455 0
M  V30 12306 H 1172.1 -3.66021 -0.773261 0
M  V30 12307 H 1173.44 -4.8116 -1.03663 0
M  V30 12308 N 1175.09 0.086862 -1.5736 0
M  V30 12309 C 1176.31 0.806017 -1.91097 0
M  V30 12310 C 1176.74 1.71082 -0.78183 0
M  V30 12311 O 1176.1 1.79335 0.266175 0
M  V30 12312 C 1176.15 1.5884 -3.23732 0
M  V30 12313 O 1175.25 2.69798 -3.11902 0
M  V30 12314 H 1174.59 0.220899 -0.626179 0
M  V30 12315 H 1177.12 0.059619 -2.04513 0
M  V30 12316 H 1177.13 1.97088 -3.5724 0
M  V30 12317 H 1175.81 0.924426 -4.05496 0
M  V30 12318 H 1174.38 2.34519 -2.89923 0
M  V30 12319 N 1176.57 1.53483 0.357892 0
M  V30 12320 C 1177.82 1.69701 1.09754 0
M  V30 12321 C 1178.14 0.455389 1.89608 0
M  V30 12322 O 1177.41 -0.530623 1.88577 0
M  V30 12323 H 1175.99 0.62562 0.408178 0
M  V30 12324 H 1178.65 1.90696 0.402641 0
M  V30 12325 H 1177.74 2.56154 1.78302 0
M  V30 12326 N 1178.05 -0.61812 1.44973 0
M  V30 12327 C 1179.29 -1.38882 1.4997 0
M  V30 12328 C 1179.65 -1.91533 0.133841 0
M  V30 12329 O 1180.85 -2.68736 0.0585012 0
M  V30 12330 C 1179.12 -2.5136 2.54073 0
M  V30 12331 S 1180.68 -3.39324 2.78216 0
M  V30 12332 H 1177.5 -0.473631 0.530278 0
M  V30 12333 H 1180.1 -0.714299 1.81984 0
M  V30 12334 H 1178.8 -2.11012 3.51997 0
M  V30 12335 H 1178.34 -3.23625 2.23675 0
M  V30 12336 H 1180.35 -4.49198 2.10797 0
M  V30 12337 N 1179.52 -1.32087 -0.859693 0
M  V30 12338 C 1180.77 -1.21716 -1.60836 0
M  V30 12339 C 1181.09 0.220904 -1.94349 0
M  V30 12340 O 1182.29 0.446422 -2.67805 0
M  V30 12341 C 1180.75 -2.13143 -2.89997 0
M  V30 12342 C 1180.36 -3.62003 -2.63928 0
M  V30 12343 C 1182.1 -2.11596 -3.68004 0
M  V30 12344 C 1180.01 -4.45407 -3.89059 0
M  V30 12345 H 1178.94 -0.45199 -0.603507 0
M  V30 12346 H 1181.59 -1.57013 -0.949687 0
M  V30 12347 H 1179.97 -1.70755 -3.57294 0
M  V30 12348 H 1181.14 -4.12701 -2.04974 0
M  V30 12349 H 1179.46 -3.6563 -1.99258 0
M  V30 12350 H 1182.06 -2.71149 -4.6085 0
M  V30 12351 H 1182.4 -1.10568 -4.01348 0
M  V30 12352 H 1182.93 -2.52238 -3.07605 0
M  V30 12353 H 1179.67 -5.4723 -3.60859 0
M  V30 12354 H 1179.19 -3.99462 -4.47427 0
M  V30 12355 H 1180.87 -4.58149 -4.56846 0
M  V30 12356 N 1181 1.07532 -1.15215 0
M  V30 12357 C 1181.95 2.12909 -0.815714 0
M  V30 12358 C 1182.94 1.59662 0.1992 0
M  V30 12359 O 1184.13 1.77 0.000215597 0
M  V30 12360 C 1181.26 3.41945 -0.304717 0
M  V30 12361 C 1180.34 4.0205 -1.34968 0
M  V30 12362 N 1180.73 4.36439 -2.55646 0
M  V30 12363 C 1179.03 4.29498 -1.20199 0
M  V30 12364 C 1179.73 4.84044 -3.22609 0
M  V30 12365 N 1178.71 4.82702 -2.5 0
M  V30 12366 H 1182.51 2.37327 -1.73358 0
M  V30 12367 H 1180.02 1.24952 -1.03734 0
M  V30 12368 H 1182.02 4.16875 -0.0453503 0
M  V30 12369 H 1180.68 3.18971 0.607235 0
M  V30 12370 H 1181.69 4.27184 -2.92804 0
M  V30 12371 H 1178.37 4.16032 -0.349781 0
M  V30 12372 H 1179.76 5.19959 -4.2555 0
M  V30 12373 N 1182.48 0.948665 1.2585 0
M  V30 12374 C 1183.71 0.616334 1.97193 0
M  V30 12375 C 1184.12 -0.814538 1.70769 0
M  V30 12376 O 1183.46 -1.55569 0.976926 0
M  V30 12377 C 1183.52 0.787814 3.50762 0
M  V30 12378 C 1183.19 2.19472 4.0085 0
M  V30 12379 C 1184.18 3.17087 4.12009 0
M  V30 12380 C 1181.87 2.51731 4.34669 0
M  V30 12381 C 1183.86 4.45058 4.56292 0
M  V30 12382 C 1181.55 3.79932 4.78639 0
M  V30 12383 C 1182.55 4.76408 4.89412 0
M  V30 12384 O 1182.24 6.02325 5.32409 0
M  V30 12385 H 1181.97 0.230487 0.635493 0
M  V30 12386 H 1184.52 1.27379 1.61133 0
M  V30 12387 H 1182.75 0.0732154 3.86631 0
M  V30 12388 H 1184.44 0.457427 4.03314 0
M  V30 12389 H 1185.21 2.9349 3.8612 0
M  V30 12390 H 1181.09 1.77369 4.25513 0
M  V30 12391 H 1184.63 5.20363 4.64616 0
M  V30 12392 H 1180.53 4.03338 5.03973 0
M  V30 12393 H 1181.3 6.05615 5.50611 0
M  V30 12394 N 1183.96 -1.40369 0.716545 0
M  V30 12395 C 1185.2 -2.01167 0.256846 0
M  V30 12396 C 1185.54 -1.56689 -1.14727 0
M  V30 12397 O 1184.81 -0.787384 -1.7785 0
M  V30 12398 C 1185.1 -3.58511 0.337963 0
M  V30 12399 C 1184.95 -4.13059 1.78052 0
M  V30 12400 C 1186.27 -4.39142 -0.290295 0
M  V30 12401 H 1183.39 -0.730877 0.0948028 0
M  V30 12402 H 1186.03 -1.66833 0.909225 0
M  V30 12403 H 1184.18 -3.87891 -0.217482 0
M  V30 12404 H 1185.85 -3.94472 2.39143 0
M  V30 12405 H 1184.09 -3.67311 2.30793 0
M  V30 12406 H 1184.76 -5.22217 1.78867 0
M  V30 12407 H 1187.24 -4.15697 0.182987 0
M  V30 12408 H 1186.12 -5.48524 -0.203097 0
M  V30 12409 H 1186.38 -4.20209 -1.37394 0
M  V30 12410 N 1185.44 -0.462799 -1.50652 0
M  V30 12411 C 1186.38 0.335664 -2.28346 0
M  V30 12412 C 1187.35 0.994541 -1.33034 0
M  V30 12413 O 1188.54 1.00857 -1.61964 0
M  V30 12414 C 1185.68 1.41648 -3.1469 0
M  V30 12415 C 1184.79 0.773207 -4.25024 0
M  V30 12416 C 1183.93 1.83121 -4.98638 0
M  V30 12417 C 1182.97 1.16774 -6.00858 0
M  V30 12418 N 1182.1 2.16823 -6.67782 0
M  V30 12419 H 1186.94 -0.333202 -2.96131 0
M  V30 12420 H 1184.48 -0.176166 -1.46041 0
M  V30 12421 H 1186.44 2.05468 -3.63096 0
M  V30 12422 H 1185.07 2.05462 -2.48968 0
M  V30 12423 H 1184.12 0.0226444 -3.80393 0
M  V30 12424 H 1185.43 0.249061 -4.98178 0
M  V30 12425 H 1184.59 2.54543 -5.5072 0
M  V30 12426 H 1183.32 2.38915 -4.25172 0
M  V30 12427 H 1182.33 0.439112 -5.48044 0
M  V30 12428 H 1183.55 0.616809 -6.76293 0
M  V30 12429 H 1181.5 2.71649 -5.97112 0
M  V30 12430 H 1181.42 1.69371 -7.36783 0
M  V30 12431 H 1182.69 2.8765 -7.24484 0
M  V30 12432 N 1186.91 1.56388 -0.195085 0
M  V30 12433 C 1188.33 1.58788 0.160758 0
M  V30 12434 C 1188.53 1.21125 1.61031 0
M  V30 12435 O 1187.59 0.933994 2.34591 0
M  V30 12436 C 1188.9 3.00366 -0.141588 0
M  V30 12437 C 1190.45 3.12893 -0.0816947 0
M  V30 12438 C 1190.92 4.56604 -0.35735 0
M  V30 12439 N 1192.41 4.62188 -0.305968 0
M  V30 12440 C 1193.15 5.71276 -0.493108 0
M  V30 12441 N 1192.64 6.8883 -0.740595 0
M  V30 12442 N 1194.44 5.60473 -0.427365 0
M  V30 12443 H 1186.59 1.79151 -1.14099 0
M  V30 12444 H 1188.85 0.831446 -0.455413 0
M  V30 12445 H 1188.56 3.32483 -1.14666 0
M  V30 12446 H 1188.43 3.73082 0.555834 0
M  V30 12447 H 1190.82 2.80589 0.913978 0
M  V30 12448 H 1190.9 2.42564 -0.812193 0
M  V30 12449 H 1190.54 4.8962 -1.35034 0
M  V30 12450 H 1190.47 5.25124 0.394036 0
M  V30 12451 H 1192.96 3.77705 -0.121298 0
M  V30 12452 H 1193.28 7.67862 -0.872201 0
M  V30 12453 H 1191.62 6.90637 -0.777488 0
M  V30 12454 H 1194.81 4.67513 -0.234436 0
M  V30 12455 H 1194.99 6.45429 -0.576627 0
M  V30 12456 N 1188.39 -0.0785156 1.57404 0
M  V30 12457 C 1189.8 -0.631132 1.75709 0
M  V30 12458 C 1190.15 -1.78261 0.819605 0
M  V30 12459 O 1189.28 -2.164 0.00206912 0
M  V30 12460 C 1189.87 -1.15168 3.18625 0
M  V30 12461 C 1188.43 -1.65021 3.38297 0
M  V30 12462 C 1187.58 -0.566773 2.71446 0
M  V30 12463 H 1190.53 0.147631 1.58012 0
M  V30 12464 H 1190.55 -2.02065 3.22413 0
M  V30 12465 H 1190.06 -0.313399 3.86833 0
M  V30 12466 H 1188.17 -2.51196 2.75194 0
M  V30 12467 H 1188.28 -1.73179 4.46706 0
M  V30 12468 H 1186.64 -1.01021 2.33809 0
M  V30 12469 H 1187.43 0.261204 3.42305 0
M  V30 12470 N 1189.87 -1.5367 -0.349747 0
M  V30 12471 C 1191.12 -1.70281 -1.08853 0
M  V30 12472 C 1191.44 -0.465438 -1.89364 0
M  V30 12473 O 1190.71 0.520615 -1.88856 0
M  V30 12474 H 1189.29 -0.627775 -0.404854 0
M  V30 12475 H 1191.95 -1.90906 -0.392523 0
M  V30 12476 H 1191.05 -2.57096 -1.76941 0
M  V30 12477 N 1191.35 0.610423 -1.45298 0
M  V30 12478 C 1192.31 1.70324 -1.5337 0
M  V30 12479 C 1193.31 1.55393 -0.413492 0
M  V30 12480 O 1194.5 1.60512 -0.676872 0
M  V30 12481 C 1191.63 3.09572 -1.42752 0
M  V30 12482 H 1192.83 1.64535 -2.50736 0
M  V30 12483 H 1190.38 0.825906 -1.32697 0
M  V30 12484 H 1191.11 3.2094 -0.465601 0
M  V30 12485 H 1190.9 3.21817 -2.24 0
M  V30 12486 H 1192.39 3.89178 -1.51427 0
M  V30 12487 N 1192.83 1.32541 0.852676 0
M  V30 12488 C 1193.79 1.21578 1.94297 0
M  V30 12489 C 1194.79 0.138318 1.60204 0
M  V30 12490 O 1195.98 0.388864 1.69804 0
M  V30 12491 C 1193.11 0.870209 3.29606 0
M  V30 12492 H 1194.3 2.18476 2.05446 0
M  V30 12493 H 1191.86 1.16401 1.0431 0
M  V30 12494 H 1192.59 -0.0968698 3.24155 0
M  V30 12495 H 1192.38 1.64924 3.55728 0
M  V30 12496 H 1193.87 0.817874 4.09513 0
M  V30 12497 N 1194.3 -1.0692 1.15784 0
M  V30 12498 C 1195.23 -2.16216 0.881649 0
M  V30 12499 C 1196.22 -1.69253 -0.16951 0
M  V30 12500 O 1197.4 -1.94186 -0.0229511 0
M  V30 12501 C 1194.53 -3.4527 0.374982 0
M  V30 12502 C 1193.48 -4.05706 1.36332 0
M  V30 12503 C 1192.81 -5.29894 0.715317 0
M  V30 12504 C 1194.11 -4.45224 2.7308 0
M  V30 12505 H 1195.8 -2.39577 1.79563 0
M  V30 12506 H 1193.35 -1.15141 0.864784 0
M  V30 12507 H 1195.3 -4.2106 0.169279 0
M  V30 12508 H 1194.03 -3.21508 -0.574485 0
M  V30 12509 H 1192.69 -3.31965 1.55546 0
M  V30 12510 H 1192.33 -5.02425 -0.240436 0
M  V30 12511 H 1192.03 -5.71287 1.37494 0
M  V30 12512 H 1193.56 -6.08386 0.519489 0
M  V30 12513 H 1194.97 -5.12124 2.57686 0
M  V30 12514 H 1193.37 -4.97583 3.35457 0
M  V30 12515 H 1194.44 -3.56384 3.28813 0
M  V30 12516 N 1195.78 -0.955326 -1.25345 0
M  V30 12517 C 1197.06 -0.527828 -1.88344 0
M  V30 12518 C 1197.44 0.994911 -1.86185 0
M  V30 12519 O 1196.79 1.86099 -1.32587 0
M  V30 12520 C 1197 -1.10525 -3.31037 0
M  V30 12521 C 1198.35 -1.18253 -4.07801 0
M  V30 12522 O 1199.37 -1.05685 -3.4016 0
M  V30 12523 O 1198.23 -1.37978 -5.28795 0
M  V30 12524 H 1195.32 -0.174206 -0.808444 0
M  V30 12525 H 1197.87 -1.0488 -1.3341 0
M  V30 12526 H 1196.64 -2.14847 -3.27042 0
M  V30 12527 H 1196.26 -0.567568 -3.93528 0
M  V30 12528 N 1197.26 1.39987 -0.723979 0
M  V30 12529 C 1198.67 1.83606 -0.338461 0
M  V30 12530 C 1199.02 1.6051 1.12831 0
M  V30 12531 O 1198.15 1.09041 1.8692 0
M  V30 12532 C 1198.74 3.33308 -0.607533 0
M  V30 12533 C 1197.3 3.75389 -0.275632 0
M  V30 12534 C 1196.45 2.6311 -0.875699 0
M  V30 12535 H 1199.4 1.29135 -0.922483 0
M  V30 12536 H 1199.42 3.80297 0.124424 0
M  V30 12537 H 1198.93 3.50087 -1.67514 0
M  V30 12538 H 1197.03 3.64203 0.786579 0
M  V30 12539 H 1197.15 4.73185 -0.750492 0
M  V30 12540 H 1195.51 2.5289 -0.303122 0
M  V30 12541 H 1196.29 2.82698 -1.94774 0
M  V30 12542 N 1198.74 0.470782 1.50404 0
M  V30 12543 C 1199.99 -0.0841494 2.01925 0
M  V30 12544 C 1200.31 -1.40244 1.35487 0
M  V30 12545 O 1199.58 -1.89409 0.500111 0
M  V30 12546 H 1198.16 -0.0340884 0.746222 0
M  V30 12547 H 1200.82 0.621133 1.84738 0
M  V30 12548 H 1199.92 -0.235877 3.11207 0
M  V30 12549 N 1200.22 -1.56282 0.203376 0
M  V30 12550 C 1201.46 -1.99712 -0.43527 0
M  V30 12551 C 1201.82 -1.0876 -1.58225 0
M  V30 12552 O 1203.02 -1.4146 -2.28566 0
M  V30 12553 C 1201.29 -3.46501 -0.875885 0
M  V30 12554 S 1202.85 -4.11957 -1.5112 0
M  V30 12555 H 1199.67 -0.697305 -0.138879 0
M  V30 12556 H 1202.27 -1.93052 0.308392 0
M  V30 12557 H 1200.98 -4.10388 -0.0311623 0
M  V30 12558 H 1200.51 -3.56996 -1.65281 0
M  V30 12559 H 1202.52 -4.09645 -2.80009 0
M  V30 12560 N 1201.7 0.070167 -1.57444 0
M  V30 12561 C 1202.94 0.770153 -1.87607 0
M  V30 12562 C 1203.27 1.77143 -0.795875 0
M  V30 12563 O 1202.55 1.93533 0.193674 0
M  V30 12564 C 1202.83 1.47668 -3.2843 0
M  V30 12565 C 1202.69 0.491712 -4.47104 0
M  V30 12566 C 1204 2.42118 -3.67514 0
M  V30 12567 H 1201.12 0.278519 -0.682346 0
M  V30 12568 H 1203.77 0.0333184 -1.89971 0
M  V30 12569 H 1201.92 2.10476 -3.26546 0
M  V30 12570 H 1203.59 -0.131283 -4.61113 0
M  V30 12571 H 1201.83 -0.192817 -4.33371 0
M  V30 12572 H 1202.5 1.02372 -5.42424 0
M  V30 12573 H 1204.98 1.89387 -3.70502 0
M  V30 12574 H 1203.85 2.88556 -4.66933 0
M  V30 12575 H 1204.11 3.26995 -2.97534 0
M  V30 12576 N 1203.17 1.53854 0.341593 0
M  V30 12577 C 1204.1 1.84966 1.42513 0
M  V30 12578 C 1205.08 0.704944 1.54805 0
M  V30 12579 O 1206.27 0.957036 1.68981 0
M  V30 12580 C 1203.4 2.06099 2.79536 0
M  V30 12581 C 1202.35 3.21919 2.82049 0
M  V30 12582 C 1201.68 3.28389 4.21977 0
M  V30 12583 C 1202.98 4.59984 2.4741 0
M  V30 12584 H 1204.67 2.7571 1.16724 0
M  V30 12585 H 1202.22 1.32662 0.560073 0
M  V30 12586 H 1204.17 2.26448 3.55386 0
M  V30 12587 H 1202.9 1.12087 3.06764 0
M  V30 12588 H 1201.56 3.01429 2.08653 0
M  V30 12589 H 1201.2 2.3197 4.46317 0
M  V30 12590 H 1200.9 4.0622 4.24569 0
M  V30 12591 H 1202.43 3.50951 4.99666 0
M  V30 12592 H 1203.84 4.80334 3.12973 0
M  V30 12593 H 1202.24 5.40233 2.61282 0
M  V30 12594 H 1203.31 4.6346 1.42594 0
M  V30 12595 N 1204.65 -0.602709 1.4562 0
M  V30 12596 C 1205.61 -1.69508 1.54271 0
M  V30 12597 C 1206.61 -1.55171 0.421727 0
M  V30 12598 O 1207.8 -1.60151 0.685375 0
M  V30 12599 C 1204.94 -3.0881 1.44392 0
M  V30 12600 H 1206.13 -1.63203 2.51605 0
M  V30 12601 H 1203.68 -0.818857 1.33133 0
M  V30 12602 H 1204.42 -3.20689 0.482614 0
M  V30 12603 H 1204.2 -3.20625 2.25704 0
M  V30 12604 H 1205.69 -3.8837 1.53488 0
M  V30 12605 N 1206.13 -1.32992 -0.845635 0
M  V30 12606 C 1207.08 -1.22682 -1.95494 0
M  V30 12607 C 1208.05 -0.106942 -1.65755 0
M  V30 12608 O 1209.23 -0.28405 -1.88674 0
M  V30 12609 C 1206.37 -0.965068 -3.31331 0
M  V30 12610 C 1205.48 -2.17058 -3.7351 0
M  V30 12611 C 1204.62 -1.84355 -4.98183 0
M  V30 12612 C 1203.66 -3.01176 -5.32878 0
M  V30 12613 N 1202.8 -2.68506 -6.48729 0
M  V30 12614 H 1207.64 -2.17562 -2.03644 0
M  V30 12615 H 1205.17 -1.08194 -0.996613 0
M  V30 12616 H 1207.13 -0.793771 -4.09579 0
M  V30 12617 H 1205.76 -0.0530285 -3.22756 0
M  V30 12618 H 1204.81 -2.45185 -2.90841 0
M  V30 12619 H 1206.12 -3.04413 -3.95138 0
M  V30 12620 H 1205.28 -1.6383 -5.84162 0
M  V30 12621 H 1204.02 -0.942264 -4.78511 0
M  V30 12622 H 1203.02 -3.22323 -4.45408 0
M  V30 12623 H 1204.25 -3.9205 -5.54503 0
M  V30 12624 H 1202.19 -1.80929 -6.30556 0
M  V30 12625 H 1202.11 -3.49392 -6.70419 0
M  V30 12626 H 1203.38 -2.51432 -7.37836 0
M  V30 12627 N 1207.61 1.06304 -1.1635 0
M  V30 12628 C 1208.54 2.13209 -0.81346 0
M  V30 12629 C 1209.52 1.61174 0.21484 0
M  V30 12630 O 1210.7 1.8824 0.0989458 0
M  V30 12631 C 1207.83 3.38039 -0.211498 0
M  V30 12632 C 1206.88 4.08875 -1.21339 0
M  V30 12633 S 1207.71 4.58894 -2.76001 0
M  V30 12634 C 1208.86 5.86985 -2.17254 0
M  V30 12635 H 1209.1 2.42572 -1.7189 0
M  V30 12636 H 1206.63 1.18737 -0.986957 0
M  V30 12637 H 1208.59 4.10296 0.129349 0
M  V30 12638 H 1207.25 3.06834 0.671705 0
M  V30 12639 H 1206.44 4.98528 -0.740631 0
M  V30 12640 H 1206.04 3.42632 -1.49932 0
M  V30 12641 H 1208.34 6.59738 -1.54115 0
M  V30 12642 H 1209.28 6.38991 -3.05117 0
M  V30 12643 H 1209.69 5.41012 -1.61141 0
M  V30 12644 N 1209.09 0.96196 1.24836 0
M  V30 12645 C 1210.02 0.445329 2.24832 0
M  V30 12646 C 1211.03 -0.442797 1.56663 0
M  V30 12647 O 1212.22 -0.249896 1.76742 0
M  V30 12648 C 1209.32 -0.376953 3.36797 0
M  V30 12649 C 1208.49 0.499908 4.34534 0
M  V30 12650 C 1207.55 -0.265402 5.2553 0
M  V30 12651 O 1206.58 0.338707 5.68191 0
M  V30 12652 N 1207.78 -1.55654 5.59243 0
M  V30 12653 H 1210.54 1.30505 2.69793 0
M  V30 12654 H 1208.11 0.833137 1.38818 0
M  V30 12655 H 1210.1 -0.896831 3.94638 0
M  V30 12656 H 1208.67 -1.13757 2.91167 0
M  V30 12657 H 1207.89 1.20082 3.75465 0
M  V30 12658 H 1209.18 1.09814 4.96808 0
M  V30 12659 H 1208.57 -2.06916 5.265 0
M  V30 12660 H 1207.13 -2.02223 6.19636 0
M  V30 12661 N 1210.56 -1.39601 0.731392 0
M  V30 12662 C 1211.49 -2.33268 0.1041 0
M  V30 12663 C 1212.47 -1.53724 -0.728219 0
M  V30 12664 O 1213.66 -1.82131 -0.673933 0
M  V30 12665 C 1210.79 -3.37802 -0.806646 0
M  V30 12666 C 1209.74 -4.27928 -0.0787588 0
M  V30 12667 C 1209.07 -5.23131 -1.10628 0
M  V30 12668 C 1210.37 -5.11086 1.07651 0
M  V30 12669 H 1212.06 -2.85975 0.886496 0
M  V30 12670 H 1209.61 -1.375 0.427746 0
M  V30 12671 H 1211.56 -4.02278 -1.25499 0
M  V30 12672 H 1210.29 -2.83527 -1.62112 0
M  V30 12673 H 1208.95 -3.64926 0.349926 0
M  V30 12674 H 1208.59 -4.65152 -1.91422 0
M  V30 12675 H 1208.29 -5.84277 -0.624043 0
M  V30 12676 H 1209.82 -5.90483 -1.5544 0
M  V30 12677 H 1211.23 -5.68927 0.706781 0
M  V30 12678 H 1209.63 -5.81356 1.48814 0
M  V30 12679 H 1210.7 -4.46131 1.89988 0
M  V30 12680 N 1212.04 -0.478751 -1.50152 0
M  V30 12681 C 1213.32 0.135533 -1.9513 0
M  V30 12682 C 1213.7 1.56253 -1.41944 0
M  V30 12683 O 1213.05 2.19824 -0.623673 0
M  V30 12684 C 1213.26 0.0710037 -3.48928 0
M  V30 12685 C 1214.61 0.256075 -4.23827 0
M  V30 12686 O 1215.63 0.147234 -3.55896 0
M  V30 12687 O 1214.49 0.476741 -5.44417 0
M  V30 12688 H 1211.58 0.107491 -0.819985 0
M  V30 12689 H 1214.13 -0.539701 -1.60889 0
M  V30 12690 H 1212.9 -0.925012 -3.80209 0
M  V30 12691 H 1212.52 0.787362 -3.89726 0
M  V30 12692 N 1213.52 1.56172 -0.211661 0
M  V30 12693 C 1214.47 2.21206 0.719063 0
M  V30 12694 C 1215.46 1.18835 1.20725 0
M  V30 12695 O 1216.67 1.36939 1.16823 0
M  V30 12696 H 1213.04 0.709129 0.250279 0
M  V30 12697 H 1215.01 2.98038 0.147022 0
M  V30 12698 C 1213.76 2.89826 1.92084 0
M  V30 12699 H 1213.09 3.68351 1.55428 0
M  V30 12700 H 1214.53 3.38744 2.55006 0
M  V30 12701 C 1212.99 1.91756 2.77004 0
M  V30 12702 O 1213.52 1.42826 3.75451 0
M  V30 12703 N 1211.72 1.59622 2.42836 0
M  V30 12704 H 1211.27 1.99606 1.62835 0
M  V30 12705 H 1211.23 0.942641 2.99936 0
M  V30 12706 N 1215 -0.0618163 1.57479 0
M  V30 12707 C 1216.41 -0.612461 1.76368 0
M  V30 12708 C 1216.76 -1.77381 0.838466 0
M  V30 12709 O 1215.89 -2.16386 0.0250211 0
M  V30 12710 C 1216.48 -1.11782 3.19829 0
M  V30 12711 C 1215.04 -1.61424 3.40028 0
M  V30 12712 C 1214.19 -0.53795 2.72032 0
M  V30 12713 H 1217.14 0.164382 1.57846 0
M  V30 12714 H 1217.16 -1.98634 3.24538 0
M  V30 12715 H 1216.67 -0.272353 3.87143 0
M  V30 12716 H 1214.77 -2.48263 2.77842 0
M  V30 12717 H 1214.88 -1.68431 4.48517 0
M  V30 12718 H 1213.25 -0.985355 2.34868 0
M  V30 12719 H 1214.03 0.297495 3.42009 0
M  V30 12720 N 1216.48 -1.54033 -0.333429 0
M  V30 12721 C 1217.7 -1.76031 -1.09672 0
M  V30 12722 C 1218.13 -0.502844 -1.81254 0
M  V30 12723 O 1217.48 0.54509 -1.72912 0
M  V30 12724 C 1217.53 -2.947 -2.07809 0
M  V30 12725 O 1216.64 -2.65555 -3.15522 0
M  V30 12726 H 1215.98 -0.583611 -0.316692 0
M  V30 12727 H 1218.51 -2.01026 -0.380732 0
M  V30 12728 H 1218.52 -3.21771 -2.50853 0
M  V30 12729 H 1217.19 -3.85895 -1.55106 0
M  V30 12730 H 1215.77 -2.49403 -2.77223 0
M  V30 12731 N 1217.95 0.594978 -1.45938 0
M  V30 12732 C 1218.9 1.70489 -1.5557 0
M  V30 12733 C 1219.87 1.61193 -0.400751 0
M  V30 12734 O 1221.06 1.80587 -0.615882 0
M  V30 12735 C 1218.2 3.08817 -1.54033 0
M  V30 12736 C 1217.31 3.28827 -2.80173 0
M  V30 12737 C 1216.44 4.57333 -2.70222 0
M  V30 12738 C 1215.48 4.70644 -3.91357 0
M  V30 12739 N 1214.62 5.90463 -3.79865 0
M  V30 12740 H 1219.46 1.61593 -2.50383 0
M  V30 12741 H 1217 0.787747 -1.24229 0
M  V30 12742 H 1218.96 3.88865 -1.51129 0
M  V30 12743 H 1217.59 3.1664 -0.627617 0
M  V30 12744 H 1216.64 2.42467 -2.9311 0
M  V30 12745 H 1217.95 3.34534 -3.69985 0
M  V30 12746 H 1217.1 5.45593 -2.65354 0
M  V30 12747 H 1215.84 4.54045 -1.7803 0
M  V30 12748 H 1214.85 3.80805 -3.9657 0
M  V30 12749 H 1216.07 4.75721 -4.8463 0
M  V30 12750 H 1214.02 5.88196 -2.90451 0
M  V30 12751 H 1213.94 5.97385 -4.63322 0
M  V30 12752 H 1215.2 6.81187 -3.78952 0
M  V30 12753 N 1219.43 1.33438 0.838571 0
M  V30 12754 C 1220.68 1.25097 1.5962 0
M  V30 12755 C 1221.01 -0.182798 1.93338 0
M  V30 12756 O 1220.29 -1.1242 1.5872 0
M  V30 12757 C 1220.57 2.12655 2.90603 0
M  V30 12758 C 1220.42 3.64491 2.63565 0
M  V30 12759 C 1221.74 1.99994 3.92033 0
M  V30 12760 H 1218.86 0.455776 0.579169 0
M  V30 12761 H 1221.5 1.63542 0.967169 0
M  V30 12762 H 1219.65 1.79998 3.44286 0
M  V30 12763 H 1221.32 4.0744 2.16312 0
M  V30 12764 H 1219.57 3.86356 1.9726 0
M  V30 12765 H 1220.24 4.21101 3.569 0
M  V30 12766 H 1222.71 2.28635 3.47657 0
M  V30 12767 H 1221.59 2.63509 4.81512 0
M  V30 12768 H 1221.85 0.972263 4.31277 0
M  V30 12769 N 1220.91 -1.05686 1.16912 0
M  V30 12770 C 1221.84 -2.1329 0.839044 0
M  V30 12771 C 1222.86 -1.62047 -0.156392 0
M  V30 12772 O 1224.04 -1.78366 0.0692192 0
M  V30 12773 C 1221.14 -3.38122 0.229558 0
M  V30 12774 C 1220.32 -4.18659 1.26662 0
M  V30 12775 C 1219.38 -5.21842 0.675811 0
M  V30 12776 O 1218.4 -5.53049 1.3463 0
M  V30 12777 N 1219.6 -5.78034 -0.534532 0
M  V30 12778 H 1222.37 -2.42203 1.76515 0
M  V30 12779 H 1219.93 -1.2174 1.06729 0
M  V30 12780 H 1221.92 -4.04305 -0.178868 0
M  V30 12781 H 1220.49 -3.06783 -0.60023 0
M  V30 12782 H 1219.71 -3.4804 1.85099 0
M  V30 12783 H 1221 -4.6927 1.9663 0
M  V30 12784 H 1220.4 -5.54955 -1.09731 0
M  V30 12785 H 1218.96 -6.45763 -0.885087 0
M  V30 12786 N 1222.39 -0.968567 -1.24324 0
M  V30 12787 C 1223.32 -0.457247 -2.24593 0
M  V30 12788 C 1224.33 0.434483 -1.56895 0
M  V30 12789 O 1225.52 0.240519 -1.76872 0
M  V30 12790 C 1222.62 0.359086 -3.36992 0
M  V30 12791 C 1221.8 -0.522945 -4.34263 0
M  V30 12792 C 1220.85 0.237528 -5.25664 0
M  V30 12793 O 1219.88 -0.368835 -5.68004 0
M  V30 12794 N 1221.08 1.52686 -5.6006 0
M  V30 12795 H 1223.85 -1.31934 -2.69098 0
M  V30 12796 H 1221.41 -0.840488 -1.38374 0
M  V30 12797 H 1223.4 0.87589 -3.95108 0
M  V30 12798 H 1221.97 1.12212 -2.91766 0
M  V30 12799 H 1221.19 -1.22071 -3.74823 0
M  V30 12800 H 1222.48 -1.12447 -4.96219 0
M  V30 12801 H 1221.88 2.0412 -5.2759 0
M  V30 12802 H 1220.43 1.98934 -6.207 0
M  V30 12803 N 1223.87 1.39211 -0.738786 0
M  V30 12804 C 1224.83 2.28937 -0.109746 0
M  V30 12805 C 1225.83 1.46488 0.663157 0
M  V30 12806 O 1227.02 1.67119 0.491614 0
M  V30 12807 C 1224.15 3.30039 0.853633 0
M  V30 12808 H 1225.34 2.86068 -0.900295 0
M  V30 12809 H 1222.9 1.47922 -0.504853 0
M  V30 12810 H 1223.63 2.77971 1.6704 0
M  V30 12811 H 1223.42 3.90935 0.302007 0
M  V30 12812 H 1224.91 3.97169 1.29022 0
M  V30 12813 N 1225.34 0.486708 1.49896 0
M  V30 12814 C 1226.25 -0.304222 2.32619 0
M  V30 12815 C 1227.27 -0.981103 1.43702 0
M  V30 12816 O 1228.45 -0.965639 1.76741 0
M  V30 12817 C 1225.51 -1.36301 3.18783 0
M  V30 12818 C 1224.57 -0.701082 4.23537 0
M  V30 12819 C 1223.81 -1.70943 5.05583 0
M  V30 12820 O 1224.03 -2.93773 4.88931 0
M  V30 12821 O 1222.96 -1.27263 5.88292 0
M  V30 12822 H 1226.79 0.37248 3.01407 0
M  V30 12823 H 1224.37 0.248277 1.47323 0
M  V30 12824 H 1226.26 -1.97594 3.72202 0
M  V30 12825 H 1224.93 -2.0229 2.52706 0
M  V30 12826 H 1223.84 -0.0487926 3.74068 0
M  V30 12827 H 1225.17 -0.0838817 4.92129 0
M  V30 12828 N 1226.82 -1.56058 0.219941 0
M  V30 12829 C 1227.75 -2.2321 -0.685547 0
M  V30 12830 C 1228.73 -1.20328 -1.20229 0
M  V30 12831 O 1229.92 -1.48909 -1.24659 0
M  V30 12832 C 1227.05 -2.91076 -1.89452 0
M  V30 12833 C 1226 -4.00415 -1.51169 0
M  V30 12834 C 1225.33 -4.55569 -2.79931 0
M  V30 12835 C 1226.63 -5.17549 -0.702896 0
M  V30 12836 H 1228.32 -2.99136 -0.125671 0
M  V30 12837 H 1225.87 -1.43879 -0.0590043 0
M  V30 12838 H 1227.82 -3.36744 -2.53341 0
M  V30 12839 H 1226.55 -2.12594 -2.47934 0
M  V30 12840 H 1225.21 -3.55475 -0.896275 0
M  V30 12841 H 1224.85 -3.73819 -3.36553 0
M  V30 12842 H 1224.55 -5.29361 -2.55049 0
M  V30 12843 H 1226.08 -5.03955 -3.44764 0
M  V30 12844 H 1227.49 -5.59608 -1.24544 0
M  V30 12845 H 1225.89 -5.97563 -0.551234 0
M  V30 12846 H 1226.96 -4.84027 0.29083 0
M  V30 12847 N 1228.3 0.053464 -1.57509 0
M  V30 12848 C 1229.25 1.06886 -2.01394 0
M  V30 12849 C 1230.24 1.33441 -0.899013 0
M  V30 12850 O 1231.43 1.33435 -1.16293 0
M  V30 12851 C 1228.56 2.37731 -2.47667 0
M  V30 12852 C 1227.64 2.14371 -3.65931 0
M  V30 12853 N 1228.03 1.60994 -4.79494 0
M  V30 12854 C 1226.33 2.44766 -3.72835 0
M  V30 12855 C 1227.03 1.52875 -5.61252 0
M  V30 12856 N 1226.01 1.99576 -5.05638 0
M  V30 12857 H 1229.81 0.649779 -2.86627 0
M  V30 12858 H 1227.32 0.260224 -1.60302 0
M  V30 12859 H 1229.32 3.11256 -2.77354 0
M  V30 12860 H 1227.98 2.80339 -1.63829 0
M  V30 12861 H 1228.99 1.296 -5.01422 0
M  V30 12862 H 1225.67 2.90616 -2.99748 0
M  V30 12863 H 1227.06 1.12303 -6.62448 0
M  V30 12864 N 1229.78 1.54207 0.325255 0
M  V30 12865 C 1231.01 1.76293 1.08298 0
M  V30 12866 C 1231.42 0.510722 1.81761 0
M  V30 12867 O 1230.78 -0.5185 1.7498 0
M  V30 12868 C 1230.83 2.95498 2.08238 0
M  V30 12869 O 1230.55 4.15877 1.37759 0
M  V30 12870 C 1232.05 3.29781 2.96242 0
M  V30 12871 H 1229.27 0.588576 0.322209 0
M  V30 12872 H 1231.82 2.0109 0.371896 0
M  V30 12873 H 1229.97 2.72979 2.74884 0
M  V30 12874 H 1230.39 4.82918 2.04672 0
M  V30 12875 H 1231.86 4.16495 3.62265 0
M  V30 12876 H 1232.34 2.46874 3.63249 0
M  V30 12877 H 1232.94 3.54372 2.3516 0
M  V30 12878 N 1231.26 -0.58723 1.46251 0
M  V30 12879 C 1232.51 -1.34294 1.51028 0
M  V30 12880 C 1232.83 -1.94329 0.161623 0
M  V30 12881 O 1232.1 -1.78309 -0.811342 0
M  V30 12882 H 1230.68 -0.498607 0.556238 0
M  V30 12883 H 1233.34 -0.688074 1.8235 0
M  V30 12884 H 1232.43 -2.15197 2.26045 0
M  V30 12885 N 1232.74 -1.33881 -0.831482 0
M  V30 12886 C 1233.96 -1.28961 -1.62431 0
M  V30 12887 C 1234.39 0.135249 -1.87613 0
M  V30 12888 O 1233.74 1.09426 -1.44553 0
M  V30 12889 C 1233.79 -2.07767 -2.94729 0
M  V30 12890 O 1232.9 -1.44133 -3.86393 0
M  V30 12891 H 1232.24 -0.443313 -0.494337 0
M  V30 12892 H 1234.77 -1.76555 -1.0339 0
M  V30 12893 H 1234.78 -2.18806 -3.44366 0
M  V30 12894 H 1233.45 -3.11367 -2.75724 0
M  V30 12895 H 1232.03 -1.41784 -3.44894 0
M  V30 12896 N 1234.21 1.05064 -1.1747 0
M  V30 12897 C 1235.14 2.14786 -0.915936 0
M  V30 12898 C 1236.12 1.69502 0.142561 0
M  V30 12899 O 1237.31 1.94198 -0.00794522 0
M  V30 12900 C 1234.44 3.44629 -0.429864 0
M  V30 12901 C 1233.39 4.03486 -1.42769 0
M  V30 12902 C 1232.72 5.28689 -0.799528 0
M  V30 12903 C 1234.02 4.40823 -2.80129 0
M  V30 12904 H 1235.71 2.3669 -1.83352 0
M  V30 12905 H 1233.26 1.13751 -0.882992 0
M  V30 12906 H 1235.21 4.20737 -0.236245 0
M  V30 12907 H 1233.94 3.22381 0.523263 0
M  V30 12908 H 1232.6 3.29449 -1.60808 0
M  V30 12909 H 1232.24 5.02744 0.160474 0
M  V30 12910 H 1231.94 5.69028 -1.46565 0
M  V30 12911 H 1233.47 6.07483 -0.616212 0
M  V30 12912 H 1234.88 5.07959 -2.65801 0
M  V30 12913 H 1233.28 4.92183 -3.43331 0
M  V30 12914 H 1234.35 3.51108 -3.34441 0
M  V30 12915 N 1235.69 0.975146 1.23809 0
M  V30 12916 C 1237.1 0.678873 1.7392 0
M  V30 12917 C 1237.45 -0.805133 1.78919 0
M  V30 12918 O 1236.58 -1.62984 1.42356 0
M  V30 12919 C 1237.17 1.22562 3.15854 0
M  V30 12920 C 1235.73 0.979096 3.63443 0
M  V30 12921 C 1234.88 1.35649 2.41857 0
M  V30 12922 H 1237.83 1.14961 1.09406 0
M  V30 12923 H 1237.85 0.595489 3.75811 0
M  V30 12924 H 1237.36 2.30571 3.12184 0
M  V30 12925 H 1235.46 -0.0851407 3.72503 0
M  V30 12926 H 1235.58 1.62998 4.5052 0
M  V30 12927 H 1233.94 0.774916 2.42626 0
M  V30 12928 H 1234.72 2.44624 2.40861 0
M  V30 12929 N 1237.17 -1.38817 0.746158 0
M  V30 12930 C 1238.59 -1.53894 0.42294 0
M  V30 12931 C 1238.79 -1.71064 -1.06486 0
M  V30 12932 O 1237.84 -1.71744 -1.85095 0
M  V30 12933 C 1239.15 -2.75029 1.2157 0
M  V30 12934 C 1240.7 -2.88873 1.20504 0
M  V30 12935 C 1241.18 -4.1296 1.9806 0
M  V30 12936 N 1242.67 -4.20022 1.95283 0
M  V30 12937 C 1243.4 -5.15011 2.52093 0
M  V30 12938 N 1242.9 -6.1572 3.17586 0
M  V30 12939 N 1244.69 -5.07308 2.42064 0
M  V30 12940 H 1236.84 -1.25921 1.71049 0
M  V30 12941 H 1239.11 -0.611148 0.724708 0
M  V30 12942 H 1238.81 -2.68722 2.26895 0
M  V30 12943 H 1238.69 -3.68009 0.827593 0
M  V30 12944 H 1241.07 -2.94667 0.159877 0
M  V30 12945 H 1241.15 -1.96925 1.63261 0
M  V30 12946 H 1240.8 -4.07929 3.02583 0
M  V30 12947 H 1240.73 -5.03974 1.52702 0
M  V30 12948 H 1243.22 -3.47892 1.4758 0
M  V30 12949 H 1243.53 -6.84682 3.58373 0
M  V30 12950 H 1241.88 -6.16075 3.21678 0
M  V30 12951 H 1245.07 -4.27569 1.90532 0
M  V30 12952 H 1245.24 -5.81158 2.86635 0
M  V30 12953 N 1238.65 -0.49465 -1.49636 0
M  V30 12954 C 1239.9 0.0539277 -2.01628 0
M  V30 12955 C 1240.21 1.38634 -1.37986 0
M  V30 12956 O 1241.42 2.02123 -1.81269 0
M  V30 12957 C 1239.87 0.146582 -3.59601 0
M  V30 12958 C 1239.48 -1.1788 -4.32213 0
M  V30 12959 C 1241.22 0.645862 -4.19558 0
M  V30 12960 C 1239.13 -1.04866 -5.82028 0
M  V30 12961 H 1238.06 0.0239278 -0.75362 0
M  V30 12962 H 1240.71 -0.633112 -1.72232 0
M  V30 12963 H 1239.09 0.897931 -3.85685 0
M  V30 12964 H 1240.27 -1.94295 -4.17835 0
M  V30 12965 H 1238.58 -1.61102 -3.83973 0
M  V30 12966 H 1241.18 0.76064 -5.29262 0
M  V30 12967 H 1241.52 1.64313 -3.82501 0
M  V30 12968 H 1242.06 -0.04877 -3.9777 0
M  V30 12969 H 1238.79 -2.02 -6.23599 0
M  V30 12970 H 1238.31 -0.325293 -5.98917 0
M  V30 12971 H 1239.99 -0.724799 -6.42927 0
M  V30 12972 N 1240.13 1.55939 -0.228214 0
M  V30 12973 C 1241.06 2.17874 0.711589 0
M  V30 12974 C 1242.07 1.14969 1.15265 0
M  V30 12975 O 1243.26 1.41919 1.08265 0
M  V30 12976 C 1240.36 2.75294 1.97652 0
M  V30 12977 C 1239.53 4.03435 1.68994 0
M  V30 12978 C 1238.59 4.45354 2.8026 0
M  V30 12979 O 1237.62 5.12117 2.48445 0
M  V30 12980 N 1238.82 4.11588 4.0936 0
M  V30 12981 H 1241.58 2.99148 0.181757 0
M  V30 12982 H 1239.15 1.6183 -0.0474567 0
M  V30 12983 H 1241.14 3.00305 2.71292 0
M  V30 12984 H 1239.71 1.98285 2.41665 0
M  V30 12985 H 1238.93 3.8621 0.789657 0
M  V30 12986 H 1240.22 4.87015 1.47287 0
M  V30 12987 H 1239.61 3.57953 4.38048 0
M  V30 12988 H 1238.17 4.41477 4.79522 0
M  V30 12989 N 1241.6 -0.0451101 1.57535 0
M  V30 12990 C 1242.83 -0.755068 1.93167 0
M  V30 12991 C 1243.25 -1.68949 0.826915 0
M  V30 12992 O 1242.61 -1.79978 -0.218534 0
M  V30 12993 C 1242.66 -1.50201 3.27829 0
M  V30 12994 O 1241.76 -2.61434 3.18945 0
M  V30 12995 H 1241.11 -0.204219 0.631815 0
M  V30 12996 H 1243.64 -0.00537504 2.04599 0
M  V30 12997 H 1243.65 -1.87547 3.6234 0
M  V30 12998 H 1242.32 -0.816591 4.07805 0
M  V30 12999 H 1240.9 -2.26749 2.96039 0
M  V30 13000 N 1243.08 -1.54377 -0.317073 0
M  V30 13001 C 1244.31 -1.76865 -1.07362 0
M  V30 13002 C 1244.73 -0.520354 -1.81488 0
M  V30 13003 O 1244.08 0.509213 -1.75252 0
M  V30 13004 C 1244.13 -2.96598 -2.06668 0
M  V30 13005 O 1243.85 -4.16602 -1.35552 0
M  V30 13006 C 1245.36 -3.31348 -2.94489 0
M  V30 13007 H 1242.58 -0.590277 -0.319083 0
M  V30 13008 H 1245.12 -2.01284 -0.361227 0
M  V30 13009 H 1243.27 -2.74433 -2.73432 0
M  V30 13010 H 1243.69 -4.83996 -2.02108 0
M  V30 13011 H 1245.16 -4.1841 -3.60051 0
M  V30 13012 H 1245.64 -2.48797 -3.61935 0
M  V30 13013 H 1246.25 -3.55614 -2.33278 0
M  V30 13014 N 1244.56 0.579466 -1.4656 0
M  V30 13015 C 1245.52 1.67033 -1.56948 0
M  V30 13016 C 1246.52 1.54481 -0.446361 0
M  V30 13017 O 1247.71 1.5904 -0.710767 0
M  V30 13018 C 1244.85 3.06474 -1.49286 0
M  V30 13019 H 1246.04 1.59179 -2.54169 0
M  V30 13020 H 1243.59 0.797573 -1.34419 0
M  V30 13021 H 1244.33 3.1988 -0.533572 0
M  V30 13022 H 1244.11 3.16993 -2.30776 0
M  V30 13023 H 1245.6 3.85879 -1.59648 0
M  V30 13024 N 1246.04 1.3432 0.824371 0
M  V30 13025 C 1246.97 1.2842 1.95014 0
M  V30 13026 C 1247.95 0.161925 1.69328 0
M  V30 13027 O 1249.13 0.354052 1.90945 0
M  V30 13028 C 1246.26 1.03741 3.31444 0
M  V30 13029 C 1245.22 2.12419 3.71567 0
M  V30 13030 C 1244.54 1.72931 5.05963 0
M  V30 13031 C 1245.84 3.54235 3.83817 0
M  V30 13032 H 1247.54 2.22614 2.00209 0
M  V30 13033 H 1245.08 1.07165 0.961856 0
M  V30 13034 H 1247.04 0.982586 4.09784 0
M  V30 13035 H 1245.76 0.0598892 3.26545 0
M  V30 13036 H 1244.42 2.16968 2.955 0
M  V30 13037 H 1244.07 0.738433 4.9755 0
M  V30 13038 H 1243.77 2.45668 5.3378 0
M  V30 13039 H 1245.29 1.68941 5.86763 0
M  V30 13040 H 1246.71 3.52106 4.52432 0
M  V30 13041 H 1245.1 4.25581 4.23085 0
M  V30 13042 H 1246.17 3.91682 2.85856 0
M  V30 13043 N 1247.52 -1.0444 1.18026 0
M  V30 13044 C 1248.93 -1.29766 0.929143 0
M  V30 13045 C 1249.13 -1.97338 -0.407436 0
M  V30 13046 O 1248.19 -2.25166 -1.14265 0
M  V30 13047 C 1249.5 -2.16002 2.09197 0
M  V30 13048 C 1251.05 -2.29361 2.12985 0
M  V30 13049 C 1251.52 -3.18962 3.28675 0
M  V30 13050 N 1253.02 -3.26549 3.28512 0
M  V30 13051 C 1253.75 -3.96025 4.14671 0
M  V30 13052 N 1253.25 -4.67863 5.10956 0
M  V30 13053 N 1255.04 -3.92266 4.02597 0
M  V30 13054 H 1247.19 -0.58984 2.04046 0
M  V30 13055 H 1249.45 -0.322752 0.891367 0
M  V30 13056 H 1249.16 -1.73653 3.05839 0
M  V30 13057 H 1249.03 -3.16667 2.04943 0
M  V30 13058 H 1251.42 -2.70948 1.16924 0
M  V30 13059 H 1251.5 -1.28299 2.21298 0
M  V30 13060 H 1251.15 -2.78087 4.25006 0
M  V30 13061 H 1251.08 -4.20047 3.17598 0
M  V30 13062 H 1253.57 -2.75371 2.58804 0
M  V30 13063 H 1253.88 -5.1846 5.73079 0
M  V30 13064 H 1252.22 -4.6678 5.14919 0
M  V30 13065 H 1255.42 -3.35273 3.26665 0
M  V30 13066 H 1255.59 -4.4614 4.69961 0
M  V30 13067 N 1248.99 -0.981699 -1.2329 0
M  V30 13068 C 1250.24 -0.650015 -1.91361 0
M  V30 13069 C 1250.56 0.819184 -1.76959 0
M  V30 13070 O 1249.83 1.5861 -1.14977 0
M  V30 13071 H 1248.41 -0.237427 -0.708264 0
M  V30 13072 H 1251.08 -1.24579 -1.49887 0
M  V30 13073 H 1250.17 -0.902772 -2.98758 0
M  V30 13074 N 1250.47 1.3842 -0.753509 0
M  V30 13075 C 1251.38 2.34252 -0.127811 0
M  V30 13076 C 1252.4 1.59266 0.700743 0
M  V30 13077 O 1253.57 1.9146 0.624914 0
M  V30 13078 C 1250.64 3.38382 0.754886 0
M  V30 13079 C 1249.7 4.2921 -0.0880312 0
M  V30 13080 C 1248.93 5.28367 0.75263 0
M  V30 13081 O 1249.16 5.34537 1.99064 0
M  V30 13082 O 1248.09 6.01656 0.171475 0
M  V30 13083 H 1251.92 2.89454 -0.91925 0
M  V30 13084 H 1249.5 1.40265 -0.514404 0
M  V30 13085 H 1251.38 4.02141 1.25938 0
M  V30 13086 H 1250.06 2.85536 1.52482 0
M  V30 13087 H 1248.97 3.68611 -0.638468 0
M  V30 13088 H 1250.3 4.85311 -0.82062 0
M  V30 13089 N 1251.95 0.502579 1.49372 0
M  V30 13090 C 1252.9 -0.275004 2.29156 0
M  V30 13091 C 1253.87 -0.95892 1.35624 0
M  V30 13092 O 1255.05 -0.965276 1.64581 0
M  V30 13093 C 1252.19 -1.33255 3.18335 0
M  V30 13094 C 1251.31 -0.660248 4.26925 0
M  V30 13095 C 1250.44 -1.69837 5.03318 0
M  V30 13096 C 1249.48 -1.00802 6.03743 0
M  V30 13097 N 1248.62 -1.99042 6.73295 0
M  V30 13098 H 1253.46 0.411599 2.95144 0
M  V30 13099 H 1250.99 0.214824 1.45523 0
M  V30 13100 H 1252.95 -1.95769 3.68416 0
M  V30 13101 H 1251.58 -1.98789 2.54328 0
M  V30 13102 H 1250.63 0.0782181 3.8032 0
M  V30 13103 H 1251.95 -0.11689 4.98663 0
M  V30 13104 H 1251.1 -2.39852 5.57275 0
M  V30 13105 H 1249.84 -2.27558 4.31357 0
M  V30 13106 H 1248.84 -0.293654 5.49015 0
M  V30 13107 H 1250.07 -0.437285 6.77691 0
M  V30 13108 H 1248.01 -2.55722 6.04104 0
M  V30 13109 H 1247.93 -1.49776 7.41015 0
M  V30 13110 H 1249.2 -2.6834 7.31856 0
M  V30 13111 N 1253.43 -1.55816 0.23648 0
M  V30 13112 C 1254.36 -2.23924 -0.661834 0
M  V30 13113 C 1255.34 -1.21597 -1.18946 0
M  V30 13114 O 1256.52 -1.50222 -1.23073 0
M  V30 13115 C 1253.65 -2.93069 -1.86355 0
M  V30 13116 C 1252.61 -4.01996 -1.46913 0
M  V30 13117 C 1251.93 -4.58512 -2.75083 0
M  V30 13118 C 1253.23 -5.18265 -0.647964 0
M  V30 13119 H 1254.93 -2.99253 -0.0939368 0
M  V30 13120 H 1252.47 -1.43934 -0.0437407 0
M  V30 13121 H 1254.43 -3.39412 -2.49755 0
M  V30 13122 H 1253.15 -2.15212 -2.45665 0
M  V30 13123 H 1251.81 -3.56406 -0.858522 0
M  V30 13124 H 1251.46 -3.77368 -3.3257 0
M  V30 13125 H 1251.16 -5.32037 -2.49421 0
M  V30 13126 H 1252.68 -5.07583 -3.39399 0
M  V30 13127 H 1254.1 -5.60898 -1.18602 0
M  V30 13128 H 1252.49 -5.98114 -0.487823 0
M  V30 13129 H 1253.56 -4.83691 0.342151 0
M  V30 13130 N 1254.91 0.036755 -1.57557 0
M  V30 13131 C 1255.86 1.04744 -2.02516 0
M  V30 13132 C 1256.84 1.3248 -0.913116 0
M  V30 13133 O 1258.03 1.32194 -1.17702 0
M  V30 13134 C 1255.16 2.3509 -2.50175 0
M  V30 13135 C 1254.25 2.10478 -3.68185 0
M  V30 13136 N 1254.64 1.55899 -4.81175 0
M  V30 13137 C 1252.94 2.40797 -3.7541 0
M  V30 13138 C 1253.64 1.46913 -5.62842 0
M  V30 13139 N 1252.61 1.94202 -5.07727 0
M  V30 13140 H 1256.42 0.619342 -2.873 0
M  V30 13141 H 1253.93 0.243208 -1.60569 0
M  V30 13142 H 1255.93 3.08297 -2.8064 0
M  V30 13143 H 1254.59 2.78586 -1.66793 0
M  V30 13144 H 1255.6 1.24275 -5.02769 0
M  V30 13145 H 1252.27 2.8742 -3.02813 0
M  V30 13146 H 1253.66 1.0527 -6.63602 0
M  V30 13147 N 1256.39 1.54543 0.308881 0
M  V30 13148 C 1257.8 1.45581 0.654088 0
M  V30 13149 C 1258 0.640597 1.91046 0
M  V30 13150 O 1257.06 0.14518 2.52082 0
M  V30 13151 C 1258.37 2.89461 0.814422 0
M  V30 13152 C 1259.92 2.99455 0.910817 0
M  V30 13153 C 1260.39 4.44515 1.10321 0
M  V30 13154 N 1261.88 4.4819 1.1696 0
M  V30 13155 C 1262.62 5.57604 1.33661 0
M  V30 13156 N 1262.12 6.76957 1.47311 0
M  V30 13157 N 1263.91 5.45278 1.36487 0
M  V30 13158 H 1256.06 2.06019 -0.516699 0
M  V30 13159 H 1258.32 0.932729 -0.169471 0
M  V30 13160 H 1258.03 3.5168 -0.0377455 0
M  V30 13161 H 1257.9 3.36425 1.70582 0
M  V30 13162 H 1260.29 2.37355 1.75348 0
M  V30 13163 H 1260.37 2.558 -0.00443172 0
M  V30 13164 H 1260.01 5.07206 0.265346 0
M  V30 13165 H 1259.94 4.85793 2.03256 0
M  V30 13166 H 1262.44 3.62199 1.07796 0
M  V30 13167 H 1262.75 7.561 1.59788 0
M  V30 13168 H 1261.09 6.79837 1.44382 0
M  V30 13169 H 1264.28 4.50983 1.25429 0
M  V30 13170 H 1264.46 6.30599 1.4916 0
M  V30 13171 N 1257.86 -0.571685 1.46866 0
M  V30 13172 C 1259.11 -1.33145 1.52972 0
M  V30 13173 C 1259.44 -1.93314 0.185344 0
M  V30 13174 O 1258.72 -1.77083 -0.80447 0
M  V30 13175 C 1259 -2.4525 2.63675 0
M  V30 13176 C 1258.85 -1.90044 4.0768 0
M  V30 13177 C 1260.17 -3.47247 2.70384 0
M  V30 13178 H 1257.29 -0.482751 0.556885 0
M  V30 13179 H 1259.93 -0.641163 1.78855 0
M  V30 13180 H 1258.08 -3.04132 2.41735 0
M  V30 13181 H 1259.76 -1.35535 4.4094 0
M  V30 13182 H 1258 -1.20805 4.1664 0
M  V30 13183 H 1258.67 -2.71019 4.80887 0
M  V30 13184 H 1261.15 -2.98263 2.90135 0
M  V30 13185 H 1260.02 -4.23132 3.49643 0
M  V30 13186 H 1260.28 -4.05179 1.76868 0
M  V30 13187 N 1259.34 -1.34755 -0.817236 0
M  V30 13188 C 1260.59 -1.27432 -1.57377 0
M  V30 13189 C 1260.92 0.15419 -1.93888 0
M  V30 13190 O 1260.17 1.11686 -1.60701 0
M  V30 13191 C 1260.47 -2.11611 -2.8802 0
M  V30 13192 C 1260.14 -3.60543 -2.70776 0
M  V30 13193 C 1258.8 -4.01141 -2.6578 0
M  V30 13194 C 1261.15 -4.55089 -2.54053 0
M  V30 13195 C 1258.48 -5.34469 -2.41991 0
M  V30 13196 C 1260.83 -5.88603 -2.31795 0
M  V30 13197 C 1259.49 -6.28358 -2.25215 0
M  V30 13198 H 1258.76 -0.466305 -0.575882 0
M  V30 13199 H 1261.41 -1.66552 -0.945128 0
M  V30 13200 H 1259.72 -1.65336 -3.55206 0
M  V30 13201 H 1261.41 -2.03287 -3.45652 0
M  V30 13202 H 1258 -3.2832 -2.75506 0
M  V30 13203 H 1262.19 -4.24617 -2.56932 0
M  V30 13204 H 1257.44 -5.64284 -2.35359 0
M  V30 13205 H 1261.62 -6.61451 -2.17844 0
M  V30 13206 H 1259.24 -7.31604 -2.06543 0
M  V30 13207 N 1260.82 1.03812 -1.18578 0
M  V30 13208 C 1261.77 2.10206 -0.883037 0
M  V30 13209 C 1262.75 1.60215 0.148303 0
M  V30 13210 O 1263.95 1.76911 -0.0560957 0
M  V30 13211 C 1261.07 3.40802 -0.41335 0
M  V30 13212 C 1260.16 3.97553 -1.47691 0
M  V30 13213 N 1260.55 4.28085 -2.69401 0
M  V30 13214 C 1258.85 4.25456 -1.33802 0
M  V30 13215 C 1259.55 4.73535 -3.37845 0
M  V30 13216 N 1258.53 4.74504 -2.6523 0
M  V30 13217 H 1262.33 2.31692 -1.80821 0
M  V30 13218 H 1259.84 1.21589 -1.07656 0
M  V30 13219 H 1261.84 4.1652 -0.177953 0
M  V30 13220 H 1260.5 3.20742 0.505449 0
M  V30 13221 H 1261.51 4.17653 -3.06246 0
M  V30 13222 H 1258.19 4.14709 -0.481961 0
M  V30 13223 H 1259.58 5.06157 -4.41876 0
M  V30 13224 N 1262.3 0.988223 1.22768 0
M  V30 13225 C 1263.53 0.678757 1.95132 0
M  V30 13226 C 1263.94 -0.759797 1.73274 0
M  V30 13227 O 1263.28 -1.52383 1.02592 0
M  V30 13228 C 1263.34 0.899007 3.48078 0
M  V30 13229 C 1263 2.32114 3.93665 0
M  V30 13230 C 1264 3.30034 4.01713 0
M  V30 13231 C 1261.69 2.65432 4.2644 0
M  V30 13232 C 1263.68 4.59349 4.41902 0
M  V30 13233 C 1261.37 3.94967 4.66309 0
M  V30 13234 C 1262.37 4.91737 4.74008 0
M  V30 13235 O 1262.05 6.18958 5.12977 0
M  V30 13236 H 1261.79 0.250588 0.627839 0
M  V30 13237 H 1264.34 1.32441 1.56999 0
M  V30 13238 H 1262.57 0.196182 3.86202 0
M  V30 13239 H 1264.26 0.585507 4.01655 0
M  V30 13240 H 1265.02 3.05626 3.76587 0
M  V30 13241 H 1260.9 1.90816 4.19655 0
M  V30 13242 H 1264.45 5.34881 4.47826 0
M  V30 13243 H 1260.34 4.19168 4.90886 0
M  V30 13244 H 1261.11 6.22826 5.31065 0
M  V30 13245 N 1263.78 -1.38018 0.760839 0
M  V30 13246 C 1265.02 -2.00248 0.320716 0
M  V30 13247 C 1265.35 -1.60259 -1.09684 0
M  V30 13248 O 1264.63 -0.843567 -1.75255 0
M  V30 13249 C 1264.91 -3.57254 0.451849 0
M  V30 13250 C 1264.77 -4.07185 1.91103 0
M  V30 13251 C 1266.08 -4.39843 -0.150439 0
M  V30 13252 H 1263.2 -0.727491 0.118007 0
M  V30 13253 H 1265.85 -1.63855 0.961842 0
M  V30 13254 H 1264 -3.88386 -0.0939672 0
M  V30 13255 H 1265.67 -3.86665 2.51571 0
M  V30 13256 H 1263.91 -3.59782 2.42362 0
M  V30 13257 H 1264.58 -5.16262 1.9539 0
M  V30 13258 H 1267.06 -4.14905 0.315145 0
M  V30 13259 H 1265.93 -5.48893 -0.0284853 0
M  V30 13260 H 1266.19 -4.24367 -1.23956 0
M  V30 13261 N 1265.25 -0.510493 -1.49103 0
M  V30 13262 C 1266.18 0.251999 -2.32136 0
M  V30 13263 C 1267.16 0.953613 -1.40855 0
M  V30 13264 O 1268.35 0.943178 -1.69758 0
M  V30 13265 C 1265.48 1.31118 -3.21598 0
M  V30 13266 C 1264.43 0.72888 -4.21748 0
M  V30 13267 C 1263.76 1.88928 -5.0021 0
M  V30 13268 C 1265.06 -0.286425 -5.21514 0
M  V30 13269 H 1266.75 -0.441102 -2.96133 0
M  V30 13270 H 1264.3 -0.213577 -1.42407 0
M  V30 13271 H 1266.25 1.8524 -3.78503 0
M  V30 13272 H 1264.98 2.0336 -2.55563 0
M  V30 13273 H 1263.64 0.209336 -3.66002 0
M  V30 13274 H 1263.28 2.59961 -4.30615 0
M  V30 13275 H 1262.98 1.50568 -5.67981 0
M  V30 13276 H 1264.51 2.43465 -5.59962 0
M  V30 13277 H 1265.92 0.166997 -5.73057 0
M  V30 13278 H 1264.32 -0.586361 -5.97228 0
M  V30 13279 H 1265.39 -1.19904 -4.69842 0
M  V30 13280 N 1266.73 1.55688 -0.24474 0
M  V30 13281 C 1268.01 1.90796 0.430821 0
M  V30 13282 C 1268.39 1.1652 1.76029 0
M  V30 13283 O 1267.74 0.281978 2.26753 0
M  V30 13284 C 1267.95 3.43786 0.601027 0
M  V30 13285 C 1269.29 4.14998 0.897894 0
M  V30 13286 O 1270.32 3.49513 0.68697 0
M  V30 13287 O 1269.18 5.30826 1.29945 0
M  V30 13288 H 1266.27 0.794086 0.230991 0
M  V30 13289 H 1268.82 1.67227 -0.288646 0
M  V30 13290 H 1267.59 3.89856 -0.335804 0
M  V30 13291 H 1267.21 3.73211 1.37112 0
M  V30 13292 N 1268.21 -0.0283989 1.57574 0
M  V30 13293 C 1269.16 -1.04723 2.07692 0
M  V30 13294 C 1270.15 -1.37399 0.990847 0
M  V30 13295 O 1271.36 -1.36297 1.17572 0
M  V30 13296 H 1267.73 -0.355251 0.662798 0
M  V30 13297 H 1269.7 -0.598737 2.92331 0
M  V30 13298 C 1268.45 -2.33941 2.57229 0
M  V30 13299 H 1267.78 -2.09659 3.40416 0
M  V30 13300 H 1269.22 -3.03574 2.96005 0
M  V30 13301 C 1267.67 -3.02953 1.47381 0
M  V30 13302 O 1268.2 -3.9281 0.840431 0
M  V30 13303 N 1266.41 -2.64294 1.20819 0
M  V30 13304 H 1265.96 -1.91307 1.72509 0
M  V30 13305 H 1265.92 -3.10786 0.475353 0
M  V30 13306 N 1269.69 -1.54705 -0.300681 0
M  V30 13307 C 1270.62 -1.88679 -1.37559 0
M  V30 13308 C 1271.6 -0.74574 -1.52881 0
M  V30 13309 O 1272.78 -1.0015 -1.66384 0
M  V30 13310 C 1269.91 -2.13438 -2.73974 0
M  V30 13311 C 1268.87 -3.29284 -2.73415 0
M  V30 13312 C 1268.19 -3.39462 -4.13122 0
M  V30 13313 C 1269.49 -4.66382 -2.35128 0
M  V30 13314 H 1271.19 -2.78707 -1.09373 0
M  V30 13315 H 1268.73 -1.341 -0.524704 0
M  V30 13316 H 1270.69 -2.35791 -3.49257 0
M  V30 13317 H 1269.41 -1.20181 -3.03684 0
M  V30 13318 H 1268.07 -3.06855 -2.00588 0
M  V30 13319 H 1267.72 -2.43721 -4.4001 0
M  V30 13320 H 1267.42 -4.17334 -4.1365 0
M  V30 13321 H 1268.94 -3.64075 -4.90185 0
M  V30 13322 H 1270.36 -4.88463 -3.00128 0
M  V30 13323 H 1268.75 -5.4697 -2.46867 0
M  V30 13324 H 1269.82 -4.67078 -1.30256 0
M  V30 13325 N 1271.17 0.563888 -1.47167 0
M  V30 13326 C 1272.41 1.32331 -1.53676 0
M  V30 13327 C 1272.75 1.93213 -0.195593 0
M  V30 13328 O 1272.02 1.77508 0.795068 0
M  V30 13329 C 1272.3 2.43848 -2.64972 0
M  V30 13330 C 1272.16 1.8788 -4.08682 0
M  V30 13331 C 1273.48 3.45809 -2.72221 0
M  V30 13332 H 1270.59 0.479791 -0.559437 0
M  V30 13333 H 1273.24 0.631669 -1.79192 0
M  V30 13334 H 1271.39 3.02846 -2.43345 0
M  V30 13335 H 1273.06 1.33195 -4.41652 0
M  V30 13336 H 1271.3 1.18593 -4.17275 0
M  V30 13337 H 1271.97 2.68465 -4.82318 0
M  V30 13338 H 1274.45 2.9672 -2.91713 0
M  V30 13339 H 1273.32 4.21272 -3.51882 0
M  V30 13340 H 1273.59 4.04236 -1.79014 0
M  V30 13341 N 1272.64 1.35187 0.810078 0
M  V30 13342 C 1273.59 1.27848 1.94313 0
M  V30 13343 C 1274.59 0.174081 1.68503 0
M  V30 13344 O 1275.79 0.339848 1.76763 0
M  V30 13345 H 1272.17 0.397504 0.638353 0
M  V30 13346 H 1274.14 2.23579 1.97623 0
M  V30 13347 C 1272.89 1.06382 3.31026 0
M  V30 13348 H 1272.21 1.90601 3.51441 0
M  V30 13349 H 1273.65 1.05287 4.1072 0
M  V30 13350 C 1272.11 -0.232462 3.36097 0
M  V30 13351 O 1272.64 -1.22946 3.82423 0
M  V30 13352 N 1270.85 -0.270028 2.89343 0
M  V30 13353 H 1270.39 0.541891 2.51836 0
M  V30 13354 H 1270.35 -1.13708 2.93117 0
M  V30 13355 N 1274.12 -1.03182 1.19127 0
M  V30 13356 C 1275.37 -1.76794 0.993563 0
M  V30 13357 C 1275.7 -1.88306 -0.474809 0
M  V30 13358 O 1274.98 -1.39769 -1.35258 0
M  V30 13359 C 1275.26 -3.19573 1.65968 0
M  V30 13360 C 1275.11 -3.1595 3.2015 0
M  V30 13361 C 1276.43 -4.17897 1.38023 0
M  V30 13362 H 1273.55 -0.641768 0.362357 0
M  V30 13363 H 1276.19 -1.20472 1.46924 0
M  V30 13364 H 1274.34 -3.67663 1.25524 0
M  V30 13365 H 1276.01 -2.7578 3.69788 0
M  V30 13366 H 1274.26 -2.53743 3.51848 0
M  V30 13367 H 1274.93 -4.16811 3.61901 0
M  V30 13368 H 1277.4 -3.78394 1.73082 0
M  V30 13369 H 1276.28 -5.15997 1.87186 0
M  V30 13370 H 1276.54 -4.41048 0.304812 0
M  V30 13371 N 1275.6 -0.99472 -1.22242 0
M  V30 13372 C 1276.53 -0.491445 -2.22845 0
M  V30 13373 C 1277.51 0.449265 -1.5627 0
M  V30 13374 O 1278.7 0.374386 -1.84745 0
M  V30 13375 C 1275.82 0.287355 -3.37479 0
M  V30 13376 C 1274.87 -0.599617 -4.22264 0
M  V30 13377 S 1275.7 -2.05599 -4.94459 0
M  V30 13378 C 1276.86 -1.28673 -6.12531 0
M  V30 13379 H 1277.09 -1.34393 -2.6519 0
M  V30 13380 H 1274.62 -0.801833 -1.31947 0
M  V30 13381 H 1276.58 0.730646 -4.03945 0
M  V30 13382 H 1275.24 1.11514 -2.93638 0
M  V30 13383 H 1274.44 -0.000289277 -5.04 0
M  V30 13384 H 1274.04 -0.979748 -3.60939 0
M  V30 13385 H 1276.33 -0.555315 -6.7522 0
M  V30 13386 H 1277.27 -2.07943 -6.76879 0
M  V30 13387 H 1277.68 -0.79922 -5.58814 0
M  V30 13388 N 1277.08 1.37613 -0.768148 0
M  V30 13389 C 1278.03 2.3218 -0.13974 0
M  V30 13390 C 1279.02 1.54754 0.689023 0
M  V30 13391 O 1280.23 1.70177 0.586489 0
M  V30 13392 H 1276.6 0.751536 -0.0264001 0
M  V30 13393 H 1278.57 2.82768 -0.953139 0
M  V30 13394 C 1277.32 3.39997 0.727829 0
M  V30 13395 H 1276.64 3.99676 0.0994851 0
M  V30 13396 H 1278.08 4.08538 1.13456 0
M  V30 13397 C 1276.54 2.79778 1.87686 0
M  V30 13398 O 1277.07 2.70241 2.97208 0
M  V30 13399 N 1275.28 2.37373 1.67637 0
M  V30 13400 H 1274.83 2.4533 0.785552 0
M  V30 13401 H 1274.78 1.97426 2.44684 0
M  V30 13402 N 1278.56 0.518393 1.4883 0
M  V30 13403 C 1279.8 -0.019866 2.0209 0
M  V30 13404 C 1280.13 -1.35863 1.3988 0
M  V30 13405 O 1279.4 -1.87722 0.560117 0
M  V30 13406 H 1277.98 -0.0103306 0.746929 0
M  V30 13407 H 1280.64 0.679591 1.82668 0
M  V30 13408 H 1279.73 -0.136749 3.118 0
M  V30 13409 N 1280.03 -1.55556 0.252993 0
M  V30 13410 C 1281.26 -2.03196 -0.37348 0
M  V30 13411 C 1281.67 -1.13145 -1.51641 0
M  V30 13412 O 1281.02 -0.139519 -1.83169 0
M  V30 13413 C 1281.08 -3.47066 -0.937308 0
M  V30 13414 C 1280.74 -4.5694 0.0741513 0
M  V30 13415 C 1281.74 -5.12297 0.885862 0
M  V30 13416 C 1279.42 -5.01894 0.202003 0
M  V30 13417 C 1281.42 -6.11107 1.81182 0
M  V30 13418 C 1279.1 -6.00534 1.13146 0
M  V30 13419 C 1280.1 -6.5502 1.93489 0
M  V30 13420 O 1279.79 -7.51735 2.84868 0
M  V30 13421 H 1279.52 -0.669687 -0.092171 0
M  V30 13422 H 1282.08 -2.01924 0.376264 0
M  V30 13423 H 1280.31 -3.45507 -1.73672 0
M  V30 13424 H 1282 -3.78171 -1.47451 0
M  V30 13425 H 1282.76 -4.78395 0.797707 0
M  V30 13426 H 1278.64 -4.59144 -0.413301 0
M  V30 13427 H 1282.18 -6.53561 2.43935 0
M  V30 13428 H 1278.08 -6.33856 1.22052 0
M  V30 13429 H 1278.85 -7.69373 2.79298 0
M  V30 13430 N 1281.51 0.0200419 -1.57587 0
M  V30 13431 C 1282.75 0.713765 -1.91533 0
M  V30 13432 C 1283.12 1.72035 -0.852516 0
M  V30 13433 O 1284.32 2.46299 -1.07658 0
M  V30 13434 C 1282.59 1.35786 -3.30601 0
M  V30 13435 S 1284.15 2.07948 -3.86397 0
M  V30 13436 H 1280.97 0.236249 -0.670602 0
M  V30 13437 H 1283.57 -0.0318313 -1.95474 0
M  V30 13438 H 1282.27 0.612147 -4.05809 0
M  V30 13439 H 1281.8 2.14181 -3.29985 0
M  V30 13440 H 1283.82 3.3521 -3.65853 0
M  V30 13441 N 1282.99 1.54862 0.292472 0
M  V30 13442 C 1283.92 1.89406 1.36556 0
M  V30 13443 C 1284.9 0.753838 1.52484 0
M  V30 13444 O 1286.09 1.01031 1.6585 0
M  V30 13445 C 1283.22 2.14888 2.72838 0
M  V30 13446 C 1282.17 3.3073 2.71665 0
M  V30 13447 C 1281.5 3.41648 4.11316 0
M  V30 13448 C 1282.8 4.67622 2.32651 0
M  V30 13449 H 1284.49 2.79284 1.07894 0
M  V30 13450 H 1282.04 1.34377 0.517585 0
M  V30 13451 H 1283.99 2.3764 3.48002 0
M  V30 13452 H 1282.71 1.2179 3.03042 0
M  V30 13453 H 1281.37 3.07915 1.98958 0
M  V30 13454 H 1281.02 2.46051 4.38711 0
M  V30 13455 H 1280.72 4.19522 4.11431 0
M  V30 13456 H 1282.24 3.6667 4.88248 0
M  V30 13457 H 1283.66 4.90048 2.97533 0
M  V30 13458 H 1282.06 5.48272 2.43963 0
M  V30 13459 H 1283.13 4.67762 1.27777 0
M  V30 13460 N 1284.47 -0.556076 1.47464 0
M  V30 13461 C 1285.88 -1.1382 1.47993 0
M  V30 13462 C 1286.23 -1.94785 0.235249 0
M  V30 13463 O 1285.36 -2.06098 -0.659752 0
M  V30 13464 C 1285.95 -2.07082 2.68146 0
M  V30 13465 C 1284.51 -2.60564 2.71631 0
M  V30 13466 C 1283.66 -1.36967 2.41113 0
M  V30 13467 H 1286.61 -0.34262 1.54957 0
M  V30 13468 H 1286.63 -2.90975 2.45181 0
M  V30 13469 H 1286.14 -1.48127 3.5872 0
M  V30 13470 H 1284.24 -3.23314 1.852 0
M  V30 13471 H 1284.35 -3.0148 3.72353 0
M  V30 13472 H 1282.72 -1.67678 1.91719 0
M  V30 13473 H 1283.5 -0.79803 3.33896 0
M  V30 13474 N 1285.95 -1.35615 -0.802897 0
M  V30 13475 C 1287.22 -1.19655 -1.54732 0
M  V30 13476 C 1287.6 0.222827 -2.09921 0
M  V30 13477 O 1286.95 1.2268 -1.92774 0
M  V30 13478 C 1287.16 -2.26761 -2.65293 0
M  V30 13479 C 1288.51 -2.62754 -3.33535 0
M  V30 13480 O 1289.53 -2.25702 -2.75567 0
M  V30 13481 O 1288.39 -3.26476 -4.38264 0
M  V30 13482 H 1285.49 -0.465079 -0.683835 0
M  V30 13483 H 1288.03 -1.47307 -0.84254 0
M  V30 13484 H 1286.81 -3.21946 -2.22411 0
M  V30 13485 H 1286.43 -2.00399 -3.43404 0
M  V30 13486 N 1287.43 1.02549 -1.19673 0
M  V30 13487 C 1288.84 1.57454 -1.00325 0
M  V30 13488 C 1289.19 1.91136 0.442889 0
M  V30 13489 O 1288.31 1.7126 1.32284 0
M  V30 13490 C 1288.91 2.86091 -1.81486 0
M  V30 13491 C 1287.47 3.37557 -1.6653 0
M  V30 13492 C 1286.61 2.1096 -1.79975 0
M  V30 13493 H 1289.56 0.850364 -1.33994 0
M  V30 13494 H 1289.59 3.5713 -1.31296 0
M  V30 13495 H 1289.1 2.61546 -2.86733 0
M  V30 13496 H 1287.2 3.67083 -0.638834 0
M  V30 13497 H 1287.31 4.1036 -2.47269 0
M  V30 13498 H 1285.68 2.22993 -1.23071 0
M  V30 13499 H 1286.46 1.88852 -2.86688 0
M  V30 13500 N 1288.9 1.00119 1.21713 0
M  V30 13501 C 1290.15 0.681723 1.9068 0
M  V30 13502 C 1290.48 -0.787121 1.77861 0
M  V30 13503 O 1289.73 -1.58573 1.14687 0
M  V30 13504 C 1290.03 1.04376 3.41819 0
M  V30 13505 C 1289.7 2.50624 3.74831 0
M  V30 13506 C 1288.36 2.90587 3.83552 0
M  V30 13507 C 1290.71 3.45377 3.90339 0
M  V30 13508 C 1288.04 4.24276 4.05225 0
M  V30 13509 C 1290.39 4.78734 4.13517 0
M  V30 13510 C 1289.06 5.18427 4.20464 0
M  V30 13511 H 1288.33 0.24946 0.697747 0
M  V30 13512 H 1290.97 1.25892 1.44304 0
M  V30 13513 H 1289.28 0.384756 3.89906 0
M  V30 13514 H 1290.98 0.774488 3.9345 0
M  V30 13515 H 1287.57 2.18651 3.68632 0
M  V30 13516 H 1291.75 3.15669 3.82971 0
M  V30 13517 H 1287.01 4.54605 4.08833 0
M  V30 13518 H 1291.18 5.52094 4.24459 0
M  V30 13519 H 1288.81 6.22034 4.3701 0
M  V30 13520 N 1290.38 -1.37203 0.775435 0
M  V30 13521 C 1291.63 -1.99601 0.341431 0
M  V30 13522 C 1291.96 -1.61555 -1.08306 0
M  V30 13523 O 1291.21 -0.855126 -1.76029 0
M  V30 13524 C 1291.51 -3.54725 0.436426 0
M  V30 13525 C 1291.18 -4.1255 1.8197 0
M  V30 13526 C 1289.84 -4.28056 2.19822 0
M  V30 13527 C 1292.19 -4.44222 2.7261 0
M  V30 13528 C 1289.52 -4.72538 3.47742 0
M  V30 13529 C 1291.87 -4.90131 3.99943 0
M  V30 13530 C 1290.53 -5.03842 4.37835 0
M  V30 13531 H 1289.8 -0.730391 0.124938 0
M  V30 13532 H 1292.45 -1.63914 0.990177 0
M  V30 13533 H 1290.76 -3.90681 -0.295852 0
M  V30 13534 H 1292.45 -4.00916 0.0818664 0
M  V30 13535 H 1289.04 -4.00911 1.51553 0
M  V30 13536 H 1293.23 -4.31824 2.44625 0
M  V30 13537 H 1288.48 -4.81341 3.76989 0
M  V30 13538 H 1292.66 -5.13604 4.70302 0
M  V30 13539 H 1290.28 -5.3807 5.37015 0
M  V30 13540 N 1291.86 -0.526279 -1.48553 0
M  V30 13541 C 1293.08 0.00731432 -2.07399 0
M  V30 13542 C 1293.51 1.27737 -1.38075 0
M  V30 13543 O 1292.87 1.75741 -0.445503 0
M  V30 13544 C 1292.92 0.218126 -3.5994 0
M  V30 13545 O 1292.02 1.28759 -3.91784 0
M  V30 13546 H 1291.36 -0.0374784 -0.662941 0
M  V30 13547 H 1293.89 -0.733133 -1.91014 0
M  V30 13548 H 1293.9 0.44192 -4.056 0
M  V30 13549 H 1292.58 -0.709668 -4.09801 0
M  V30 13550 H 1291.15 1.04674 -3.57907 0
M  V30 13551 N 1293.34 1.5542 -0.261239 0
M  V30 13552 C 1294.56 2.04142 0.366144 0
M  V30 13553 C 1294.99 1.13884 1.49706 0
M  V30 13554 O 1294.35 0.134629 1.80799 0
M  V30 13555 C 1294.39 3.50733 0.837774 0
M  V30 13556 O 1293.5 3.63588 1.94621 0
M  V30 13557 H 1292.84 0.659424 0.077821 0
M  V30 13558 H 1295.37 2.0082 -0.391487 0
M  V30 13559 H 1295.38 3.91831 1.13721 0
M  V30 13560 H 1294.05 4.15899 0.0102742 0
M  V30 13561 H 1292.63 3.34391 1.65037 0
M  V30 13562 N 1294.82 -0.0116844 1.57596 0
M  V30 13563 C 1295.76 -1.00684 2.07681 0
M  V30 13564 C 1296.73 -1.34858 0.969666 0
M  V30 13565 O 1297.92 -1.44896 1.24136 0
M  V30 13566 C 1295.06 -2.29729 2.57524 0
M  V30 13567 C 1294.17 -2.0156 3.82096 0
M  V30 13568 C 1293.31 -3.24601 4.20485 0
M  V30 13569 C 1292.34 -2.92066 5.37925 0
M  V30 13570 N 1291.48 -4.0761 5.71663 0
M  V30 13571 H 1296.32 -0.572787 2.92443 0
M  V30 13572 H 1293.86 -0.271184 1.44579 0
M  V30 13573 H 1295.82 -3.05152 2.84496 0
M  V30 13574 H 1294.45 -2.70824 1.75653 0
M  V30 13575 H 1293.5 -1.16556 3.62103 0
M  V30 13576 H 1294.81 -1.73572 4.67626 0
M  V30 13577 H 1293.96 -4.08379 4.48677 0
M  V30 13578 H 1292.7 -3.55718 3.3364 0
M  V30 13579 H 1291.71 -2.06693 5.09468 0
M  V30 13580 H 1292.93 -2.62209 6.26437 0
M  V30 13581 H 1290.88 -4.38645 4.87777 0
M  V30 13582 H 1290.8 -3.83105 6.51741 0
M  V30 13583 H 1292.06 -4.92211 6.04441 0
M  V30 13584 N 1296.29 -1.55015 -0.284256 0
M  V30 13585 C 1297.54 -1.7535 -1.01884 0
M  V30 13586 C 1297.87 -0.546825 -1.86342 0
M  V30 13587 O 1297.15 0.455832 -1.89083 0
M  V30 13588 C 1297.43 -3.05219 -1.91084 0
M  V30 13589 C 1297.28 -4.36219 -1.09694 0
M  V30 13590 C 1298.6 -3.31056 -2.89983 0
M  V30 13591 H 1295.72 -0.637981 -0.368984 0
M  V30 13592 H 1298.36 -1.87741 -0.292116 0
M  V30 13593 H 1296.51 -2.94786 -2.53048 0
M  V30 13594 H 1298.19 -4.58594 -0.498876 0
M  V30 13595 H 1296.43 -4.31951 -0.400078 0
M  V30 13596 H 1297.1 -5.23392 -1.75399 0
M  V30 13597 H 1299.58 -3.41209 -2.38151 0
M  V30 13598 H 1298.45 -4.23212 -3.49547 0
M  V30 13599 H 1298.71 -2.50153 -3.64521 0
M  V30 13600 N 1297.77 0.548248 -1.47757 0
M  V30 13601 C 1298.72 1.65453 -1.60916 0
M  V30 13602 C 1299.69 1.59836 -0.451831 0
M  V30 13603 O 1300.87 1.78536 -0.673023 0
M  V30 13604 C 1298.01 3.0376 -1.6378 0
M  V30 13605 C 1297.13 3.19747 -2.90492 0
M  V30 13606 C 1296.26 4.48505 -2.84635 0
M  V30 13607 C 1295.3 4.57956 -4.06132 0
M  V30 13608 N 1294.44 5.78079 -3.98458 0
M  V30 13609 H 1299.28 1.53545 -2.55398 0
M  V30 13610 H 1296.81 0.747826 -1.26673 0
M  V30 13611 H 1298.77 3.8386 -1.63424 0
M  V30 13612 H 1297.4 3.14483 -0.728036 0
M  V30 13613 H 1296.45 2.3302 -3.00676 0
M  V30 13614 H 1297.77 3.22594 -3.8044 0
M  V30 13615 H 1296.92 5.36875 -2.82577 0
M  V30 13616 H 1295.66 4.48151 -1.92385 0
M  V30 13617 H 1294.66 3.67995 -4.08484 0
M  V30 13618 H 1295.89 4.60062 -4.9952 0
M  V30 13619 H 1293.84 5.78657 -3.09017 0
M  V30 13620 H 1293.75 5.82342 -4.82093 0
M  V30 13621 H 1295.02 6.68786 -4.00431 0
M  V30 13622 N 1299.25 1.36039 0.795694 0
M  V30 13623 C 1300.53 1.20474 1.54096 0
M  V30 13624 C 1300.91 -0.211691 2.10036 0
M  V30 13625 O 1300.25 -1.21656 1.93422 0
M  V30 13626 C 1300.46 2.28164 2.64087 0
M  V30 13627 C 1301.81 2.64519 3.32137 0
M  V30 13628 O 1302.84 2.2716 2.74366 0
M  V30 13629 O 1301.7 3.28796 4.36527 0
M  V30 13630 H 1298.79 0.468699 0.681359 0
M  V30 13631 H 1301.34 1.47752 0.834716 0
M  V30 13632 H 1300.11 3.23121 2.20701 0
M  V30 13633 H 1299.73 2.02217 3.42336 0
M  V30 13634 N 1300.73 -1.01913 1.20215 0
M  V30 13635 C 1301.97 -1.75843 1.0223 0
M  V30 13636 C 1302.33 -1.87272 -0.441237 0
M  V30 13637 O 1301.62 -1.38562 -1.32329 0
M  V30 13638 C 1301.82 -3.17734 1.63646 0
M  V30 13639 C 1301.65 -3.20138 3.15819 0
M  V30 13640 C 1300.42 -3.27524 3.84781 0
M  V30 13641 C 1302.61 -3.0639 4.13073 0
M  V30 13642 N 1300.6 -3.19405 5.24265 0
M  V30 13643 C 1301.97 -3.06013 5.39218 0
M  V30 13644 C 1304.02 -2.90588 4.04306 0
M  V30 13645 C 1302.72 -2.91455 6.57607 0
M  V30 13646 C 1304.75 -2.77383 5.22315 0
M  V30 13647 C 1304.11 -2.77669 6.47363 0
M  V30 13648 H 1300.21 -0.654282 0.428298 0
M  V30 13649 H 1302.8 -1.2124 1.52345 0
M  V30 13650 H 1300.97 -3.70636 1.16118 0
M  V30 13651 H 1302.7 -3.8008 1.39002 0
M  V30 13652 H 1299.45 -3.34145 3.35625 0
M  V30 13653 H 1299.88 -3.18726 5.97279 0
M  V30 13654 H 1304.52 -2.89182 3.08438 0
M  V30 13655 H 1302.24 -2.9161 7.53651 0
M  V30 13656 H 1305.82 -2.66177 5.1734 0
M  V30 13657 H 1304.7 -2.67566 7.37142 0
M  V30 13658 N 1302.21 -1.00763 -1.2118 0
M  V30 13659 C 1303.45 -0.692851 -1.90598 0
M  V30 13660 C 1303.79 0.774698 -1.78079 0
M  V30 13661 O 1303.06 1.56186 -1.15914 0
M  V30 13662 C 1303.34 -1.11792 -3.42308 0
M  V30 13663 C 1303.2 -2.64511 -3.63805 0
M  V30 13664 C 1304.52 -0.682314 -4.34779 0
M  V30 13665 H 1301.63 -0.253175 -0.69215 0
M  V30 13666 H 1304.28 -1.25378 -1.4276 0
M  V30 13667 H 1302.43 -0.640665 -3.83181 0
M  V30 13668 H 1304.1 -3.20021 -3.32242 0
M  V30 13669 H 1302.34 -3.05903 -3.0758 0
M  V30 13670 H 1303.01 -2.89306 -4.70113 0
M  V30 13671 H 1305.49 -1.09247 -4.01503 0
M  V30 13672 H 1304.36 -1.00787 -5.39568 0
M  V30 13673 H 1304.63 0.416441 -4.40134 0
M  V30 13674 N 1303.68 1.3679 -0.7827 0
M  V30 13675 C 1304.59 2.33928 -0.17747 0
M  V30 13676 C 1305.61 1.60716 0.666802 0
M  V30 13677 O 1306.79 1.92742 0.584162 0
M  V30 13678 C 1303.85 3.39907 0.68294 0
M  V30 13679 C 1302.91 4.28926 -0.179053 0
M  V30 13680 C 1302.15 5.29844 0.640386 0
M  V30 13681 O 1302.37 5.38639 1.87681 0
M  V30 13682 O 1301.3 6.01884 0.0438164 0
M  V30 13683 H 1305.13 2.87439 -0.980441 0
M  V30 13684 H 1302.71 1.39142 -0.54404 0
M  V30 13685 H 1304.6 4.04722 1.17379 0
M  V30 13686 H 1303.27 2.88706 1.46391 0
M  V30 13687 H 1302.18 3.67174 -0.716512 0
M  V30 13688 H 1303.51 4.83461 -0.923377 0
M  V30 13689 N 1305.16 0.53415 1.48272 0
M  V30 13690 C 1306.58 0.192291 1.58437 0
M  V30 13691 C 1306.78 -1.3046 1.53566 0
M  V30 13692 O 1305.83 -2.08316 1.42692 0
M  V30 13693 C 1307.15 0.798515 2.89904 0
M  V30 13694 C 1308.7 0.76763 3.03441 0
M  V30 13695 C 1309.17 1.3525 4.37574 0
M  V30 13696 N 1310.66 1.31466 4.44152 0
M  V30 13697 C 1311.4 1.73706 5.46456 0
M  V30 13698 N 1310.89 2.23695 6.55692 0
M  V30 13699 N 1312.69 1.64918 5.37363 0
M  V30 13700 H 1304.84 1.50696 1.49681 0
M  V30 13701 H 1307.1 0.627073 0.710973 0
M  V30 13702 H 1306.81 1.8496 2.99136 0
M  V30 13703 H 1306.68 0.278033 3.76174 0
M  V30 13704 H 1309.07 -0.274704 2.93819 0
M  V30 13705 H 1309.15 1.32562 2.18771 0
M  V30 13706 H 1308.79 2.39379 4.47951 0
M  V30 13707 H 1308.72 0.770153 5.20938 0
M  V30 13708 H 1311.21 0.948761 3.65796 0
M  V30 13709 H 1311.53 2.5391 7.29897 0
M  V30 13710 H 1309.87 2.27691 6.56644 0
M  V30 13711 H 1313.06 1.25658 4.50919 0
M  V30 13712 H 1313.23 1.98157 6.16958 0
M  V30 13713 N 1306.64 -1.55279 0.269478 0
M  V30 13714 C 1307.57 -2.25278 -0.614188 0
M  V30 13715 C 1308.55 -1.24092 -1.1634 0
M  V30 13716 O 1309.74 -1.52799 -1.19858 0
M  V30 13717 C 1306.87 -2.96956 -1.80096 0
M  V30 13718 C 1305.82 -4.05021 -1.38353 0
M  V30 13719 C 1305.15 -4.64244 -2.65295 0
M  V30 13720 C 1306.45 -5.19523 -0.537886 0
M  V30 13721 H 1308.14 -2.99385 -0.0304397 0
M  V30 13722 H 1305.69 -1.43994 -0.0132004 0
M  V30 13723 H 1307.64 -3.44633 -2.42499 0
M  V30 13724 H 1306.36 -2.20374 -2.41045 0
M  V30 13725 H 1305.02 -3.58146 -0.78273 0
M  V30 13726 H 1304.67 -3.84337 -3.2449 0
M  V30 13727 H 1304.37 -5.37208 -2.38079 0
M  V30 13728 H 1305.89 -5.14668 -3.28557 0
M  V30 13729 H 1307.31 -5.63287 -1.06677 0
M  V30 13730 H 1305.71 -5.99014 -0.360845 0
M  V30 13731 H 1306.78 -4.82857 0.444672 0
M  V30 13732 N 1308.12 0.00332656 -1.576 0
M  V30 13733 C 1309.05 1.02964 -2.03651 0
M  V30 13734 C 1310.03 1.33675 -0.925724 0
M  V30 13735 O 1311.21 1.45896 -1.19359 0
M  V30 13736 C 1308.34 2.35808 -2.4313 0
M  V30 13737 C 1307.39 2.20781 -3.64908 0
M  V30 13738 S 1308.22 1.53697 -5.12969 0
M  V30 13739 C 1309.38 2.87978 -5.55715 0
M  V30 13740 H 1309.61 0.637508 -2.90384 0
M  V30 13741 H 1307.14 0.214095 -1.52908 0
M  V30 13742 H 1309.1 3.12193 -2.66544 0
M  V30 13743 H 1307.76 2.72162 -1.56802 0
M  V30 13744 H 1306.95 3.1891 -3.90272 0
M  V30 13745 H 1306.56 1.5254 -3.41478 0
M  V30 13746 H 1308.85 3.84283 -5.57972 0
M  V30 13747 H 1309.79 2.67318 -6.55703 0
M  V30 13748 H 1310.2 2.91735 -4.83271 0
M  V30 13749 N 1309.6 1.55164 0.276031 0
M  V30 13750 C 1310.54 1.87836 1.34113 0
M  V30 13751 C 1311.51 0.729562 1.4922 0
M  V30 13752 O 1312.7 0.980549 1.63676 0
M  V30 13753 C 1309.84 2.15313 2.69693 0
M  V30 13754 C 1308.95 3.42845 2.62833 0
M  V30 13755 C 1308.09 3.60038 3.90572 0
M  V30 13756 C 1307.13 4.81273 3.7821 0
M  V30 13757 N 1306.26 4.95139 4.97777 0
M  V30 13758 H 1311.1 2.78681 1.0555 0
M  V30 13759 H 1308.64 1.37976 0.510001 0
M  V30 13760 H 1310.6 2.29243 3.48573 0
M  V30 13761 H 1309.23 1.27706 2.96464 0
M  V30 13762 H 1308.28 3.37403 1.75679 0
M  V30 13763 H 1309.59 4.3186 2.49597 0
M  V30 13764 H 1308.75 3.73769 4.77893 0
M  V30 13765 H 1307.48 2.69203 4.06671 0
M  V30 13766 H 1306.49 4.67549 2.89271 0
M  V30 13767 H 1307.71 5.7354 3.63632 0
M  V30 13768 H 1305.66 4.07234 5.14292 0
M  V30 13769 H 1305.58 5.78194 4.8706 0
M  V30 13770 H 1306.85 5.13253 5.86679 0
M  V30 13771 N 1311.07 -0.540404 1.48045 0
M  V30 13772 C 1312.3 -1.32177 1.59175 0
M  V30 13773 C 1312.72 -1.87163 0.248115 0
M  V30 13774 O 1312.07 -1.65871 -0.761124 0
M  V30 13775 C 1312.13 -2.47995 2.63023 0
M  V30 13776 O 1311.85 -1.95278 3.92171 0
M  V30 13777 C 1313.35 -3.39967 2.84495 0
M  V30 13778 H 1310.57 -0.40233 0.537002 0
M  V30 13779 H 1313.11 -0.652983 1.93795 0
M  V30 13780 H 1311.27 -3.10779 2.31291 0
M  V30 13781 H 1311.68 -2.71012 4.49058 0
M  V30 13782 H 1313.15 -4.17607 3.60982 0
M  V30 13783 H 1313.63 -3.94555 1.92932 0
M  V30 13784 H 1314.24 -2.82985 3.1749 0
M  V30 13785 N 1312.55 -1.36459 -0.788468 0
M  V30 13786 C 1313.48 -1.33545 -1.91541 0
M  V30 13787 C 1314.46 -0.206762 -1.68839 0
M  V30 13788 O 1315.65 -0.404553 -1.89939 0
M  V30 13789 C 1312.78 -1.12492 -3.28577 0
M  V30 13790 C 1311.73 -2.22196 -3.65805 0
M  V30 13791 C 1311.06 -1.86285 -5.01201 0
M  V30 13792 C 1312.36 -3.64286 -3.7429 0
M  V30 13793 H 1314.05 -2.27844 -1.94236 0
M  V30 13794 H 1311.6 -1.09677 -0.933105 0
M  V30 13795 H 1313.55 -1.09089 -4.07035 0
M  V30 13796 H 1312.28 -0.146446 -3.26272 0
M  V30 13797 H 1310.93 -2.24727 -2.89644 0
M  V30 13798 H 1310.58 -0.87009 -4.95417 0
M  V30 13799 H 1310.28 -2.59734 -5.27079 0
M  V30 13800 H 1311.81 -1.84439 -5.82078 0
M  V30 13801 H 1313.22 -3.63977 -4.42937 0
M  V30 13802 H 1311.62 -4.36648 -4.11653 0
M  V30 13803 H 1312.69 -3.99123 -2.75371 0
M  V30 13804 N 1314.03 1.01274 -1.20754 0
M  V30 13805 C 1315.45 1.27256 -0.963221 0
M  V30 13806 C 1315.65 1.98349 0.354972 0
M  V30 13807 O 1314.7 2.28116 1.08255 0
M  V30 13808 C 1316.02 2.1038 -2.14851 0
M  V30 13809 C 1317.56 2.23633 -2.18991 0
M  V30 13810 C 1318.04 3.10136 -3.37016 0
M  V30 13811 N 1319.53 3.17724 -3.37054 0
M  V30 13812 C 1320.26 3.84891 -4.25025 0
M  V30 13813 N 1319.76 4.54152 -5.23181 0
M  V30 13814 N 1321.55 3.81454 -4.12855 0
M  V30 13815 H 1313.7 0.535534 -2.05538 0
M  V30 13816 H 1315.97 0.299006 -0.899611 0
M  V30 13817 H 1315.67 1.65484 -3.10335 0
M  V30 13818 H 1315.55 3.11122 -2.13267 0
M  V30 13819 H 1317.93 2.67753 -1.24067 0
M  V30 13820 H 1318.02 1.22387 -2.24622 0
M  V30 13821 H 1317.66 2.66721 -4.32229 0
M  V30 13822 H 1317.59 4.11478 -3.28623 0
M  V30 13823 H 1320.08 2.68412 -2.66014 0
M  V30 13824 H 1320.39 5.03084 -5.86623 0
M  V30 13825 H 1318.74 4.52964 -5.27113 0
M  V30 13826 H 1321.93 3.26494 -3.35439 0
M  V30 13827 H 1322.1 4.33523 -4.81624 0
M  V30 13828 N 1315.51 1.01404 1.20644 0
M  V30 13829 C 1316.79 0.617088 1.85611 0
M  V30 13830 C 1317.17 -0.904947 1.9072 0
M  V30 13831 O 1316.51 -1.79562 1.41315 0
M  V30 13832 C 1316.72 1.26193 3.25386 0
M  V30 13833 C 1318.07 1.37575 4.01694 0
M  V30 13834 O 1319.1 1.21795 3.34731 0
M  V30 13835 O 1317.96 1.6305 5.2161 0
M  V30 13836 H 1315.05 0.212579 0.799211 0
M  V30 13837 H 1317.6 1.11126 1.28254 0
M  V30 13838 H 1316.37 2.30206 3.16419 0
M  V30 13839 H 1315.99 0.754679 3.90372 0
M  V30 13840 N 1316.99 -1.36373 0.789944 0
M  V30 13841 C 1318.4 -1.81783 0.425677 0
M  V30 13842 C 1318.75 -1.65711 -1.05045 0
M  V30 13843 O 1317.87 -1.17835 -1.81505 0
M  V30 13844 C 1318.47 -3.3003 0.765866 0
M  V30 13845 C 1317.03 -3.73647 0.454421 0
M  V30 13846 C 1316.18 -2.58632 1.00023 0
M  V30 13847 H 1319.13 -1.24587 0.983044 0
M  V30 13848 H 1319.15 -3.80457 0.0571624 0
M  V30 13849 H 1318.66 -3.41696 1.84026 0
M  V30 13850 H 1316.76 -3.67541 -0.611918 0
M  V30 13851 H 1316.87 -4.69066 0.975401 0
M  V30 13852 H 1315.24 -2.51156 0.423434 0
M  V30 13853 H 1316.02 -2.73083 2.0804 0
M  V30 13854 N 1318.47 -0.542005 -1.47987 0
M  V30 13855 C 1319.69 -0.0146835 -2.07395 0
M  V30 13856 C 1320.12 1.26266 -1.39422 0
M  V30 13857 O 1319.47 1.75259 -0.464118 0
M  V30 13858 C 1319.52 0.179937 -3.60151 0
M  V30 13859 O 1318.63 1.24596 -3.93128 0
M  V30 13860 H 1317.97 -0.0445076 -0.662507 0
M  V30 13861 H 1320.5 -0.753352 -1.90226 0
M  V30 13862 H 1320.51 0.398876 -4.06046 0
M  V30 13863 H 1319.18 -0.753093 -4.09025 0
M  V30 13864 H 1317.76 1.00872 -3.58997 0
M  V30 13865 N 1319.94 1.55134 -0.277709 0
M  V30 13866 C 1320.87 2.256 0.602232 0
M  V30 13867 C 1321.85 1.24708 1.15681 0
M  V30 13868 O 1323.04 1.53433 1.19046 0
M  V30 13869 C 1320.17 2.97907 1.78519 0
M  V30 13870 C 1319.12 4.0575 1.36203 0
M  V30 13871 C 1318.45 4.65644 2.62829 0
M  V30 13872 C 1319.75 5.19801 0.510327 0
M  V30 13873 H 1321.44 2.99396 0.0145622 0
M  V30 13874 H 1318.99 1.43999 0.00556389 0
M  V30 13875 H 1320.94 3.45915 2.40668 0
M  V30 13876 H 1319.67 2.21649 2.39873 0
M  V30 13877 H 1318.33 3.58557 0.763726 0
M  V30 13878 H 1317.97 3.86053 3.22447 0
M  V30 13879 H 1317.67 5.38463 2.35227 0
M  V30 13880 H 1319.2 5.16403 3.25823 0
M  V30 13881 H 1320.61 5.63845 1.03689 0
M  V30 13882 H 1319.01 5.99197 0.329073 0
M  V30 13883 H 1320.08 4.82614 -0.470273 0
M  V30 13884 N 1321.42 0.00503138 1.57599 0
M  V30 13885 C 1322.83 -0.537106 1.78807 0
M  V30 13886 C 1323.18 -1.73666 0.912945 0
M  V30 13887 O 1322.31 -2.16085 0.116775 0
M  V30 13888 C 1322.9 -0.98116 3.24282 0
M  V30 13889 C 1321.46 -1.46857 3.46569 0
M  V30 13890 C 1320.61 -0.422088 2.74069 0
M  V30 13891 H 1323.56 0.231182 1.57007 0
M  V30 13892 H 1323.58 -1.8469 3.32671 0
M  V30 13893 H 1323.09 -0.107907 3.8795 0
M  V30 13894 H 1321.19 -2.36255 2.88122 0
M  V30 13895 H 1321.31 -1.49256 4.55258 0
M  V30 13896 H 1319.67 -0.884853 2.38836 0
M  V30 13897 H 1320.45 0.442285 3.40439 0
M  V30 13898 N 1322.9 -1.55308 -0.267798 0
M  V30 13899 C 1323.83 -1.91555 -1.33525 0
M  V30 13900 C 1324.81 -0.778001 -1.51265 0
M  V30 13901 O 1326 -1.03657 -1.64222 0
M  V30 13902 C 1323.13 -2.19201 -2.69385 0
M  V30 13903 C 1322.08 -3.3501 -2.66369 0
M  V30 13904 C 1321.41 -3.48148 -4.05829 0
M  V30 13905 C 1322.71 -4.71265 -2.25182 0
M  V30 13906 H 1324.4 -2.80965 -1.03437 0
M  V30 13907 H 1321.95 -1.35183 -0.496141 0
M  V30 13908 H 1323.9 -2.43146 -3.44177 0
M  V30 13909 H 1322.62 -1.26596 -3.01067 0
M  V30 13910 H 1321.28 -3.11041 -1.94034 0
M  V30 13911 H 1320.93 -2.53 -4.34741 0
M  V30 13912 H 1320.63 -4.26014 -4.04704 0
M  V30 13913 H 1322.15 -3.74391 -4.82352 0
M  V30 13914 H 1323.57 -4.94719 -2.89699 0
M  V30 13915 H 1321.96 -5.52084 -2.3521 0
M  V30 13916 H 1323.03 -4.69735 -1.20319 0
M  V30 13917 N 1324.38 0.532545 -1.4833 0
M  V30 13918 C 1325.31 1.64662 -1.65555 0
M  V30 13919 C 1326.29 1.62447 -0.50447 0
M  V30 13920 O 1327.47 1.79684 -0.736712 0
M  V30 13921 C 1324.6 3.03256 -1.69272 0
M  V30 13922 C 1323.56 3.20329 -2.83854 0
M  V30 13923 C 1322.88 4.59958 -2.72659 0
M  V30 13924 C 1324.18 3.03345 -4.25181 0
M  V30 13925 H 1325.88 1.50502 -2.58823 0
M  V30 13926 H 1323.42 0.722612 -1.24556 0
M  V30 13927 H 1325.38 3.81064 -1.79911 0
M  V30 13928 H 1324.1 3.18433 -0.725805 0
M  V30 13929 H 1322.76 2.44937 -2.72766 0
M  V30 13930 H 1322.41 4.71967 -1.73942 0
M  V30 13931 H 1322.11 4.72327 -3.49544 0
M  V30 13932 H 1323.63 5.39869 -2.85262 0
M  V30 13933 H 1325.05 3.70948 -4.37116 0
M  V30 13934 H 1323.44 3.27208 -5.03045 0
M  V30 13935 H 1324.51 1.998 -4.41824 0
M  V30 13936 N 1325.86 1.36875 0.78122 0
M  V30 13937 C 1326.77 1.3404 1.92537 0
M  V30 13938 C 1327.78 0.241354 1.72318 0
M  V30 13939 O 1328.96 0.475128 1.95715 0
M  V30 13940 C 1326.02 1.13708 3.27523 0
M  V30 13941 C 1325.08 2.33165 3.60462 0
M  V30 13942 C 1324.32 2.13793 4.89007 0
M  V30 13943 O 1324.54 1.11732 5.5935 0
M  V30 13944 O 1323.47 3.01762 5.20791 0
M  V30 13945 H 1327.3 2.30386 1.97879 0
M  V30 13946 H 1324.88 1.17506 0.922637 0
M  V30 13947 H 1326.77 1.0432 4.08283 0
M  V30 13948 H 1325.44 0.204306 3.23055 0
M  V30 13949 H 1324.35 2.48123 2.79974 0
M  V30 13950 H 1325.68 3.24977 3.69663 0
M  V30 13951 N 1327.33 -1.00632 1.21289 0
M  V30 13952 C 1328.26 -2.11238 0.995021 0
M  V30 13953 C 1329.24 -1.69914 -0.0795537 0
M  V30 13954 O 1330.43 -1.94035 0.0800152 0
M  V30 13955 C 1327.56 -3.42797 0.557475 0
M  V30 13956 C 1326.51 -3.97909 1.57646 0
M  V30 13957 C 1325.84 -5.25357 0.995197 0
M  V30 13958 C 1327.14 -4.30123 2.96297 0
M  V30 13959 H 1328.83 -2.29722 1.9201 0
M  V30 13960 H 1326.38 -1.10395 0.924602 0
M  V30 13961 H 1328.33 -4.19571 0.392236 0
M  V30 13962 H 1327.06 -3.24101 -0.403253 0
M  V30 13963 H 1325.72 -3.23254 1.72924 0
M  V30 13964 H 1325.36 -5.02993 0.026227 0
M  V30 13965 H 1325.06 -5.63196 1.67583 0
M  V30 13966 H 1326.59 -6.04777 0.841251 0
M  V30 13967 H 1328 -4.97744 2.8447 0
M  V30 13968 H 1326.4 -4.79101 3.61361 0
M  V30 13969 H 1327.47 -3.38454 3.47242 0
M  V30 13970 N 1328.81 -1.02043 -1.20104 0
M  V30 13971 C 1329.74 -0.552093 -2.22451 0
M  V30 13972 C 1330.76 0.367547 -1.58597 0
M  V30 13973 O 1331.95 0.165285 -1.77733 0
M  V30 13974 C 1329.05 0.215833 -3.38212 0
M  V30 13975 C 1328.22 -0.70666 -4.31654 0
M  V30 13976 C 1327.28 0.0143628 -5.26198 0
M  V30 13977 O 1326.3 -0.609413 -5.65928 0
M  V30 13978 N 1327.51 1.28794 -5.66032 0
M  V30 13979 H 1330.27 -1.43229 -2.6326 0
M  V30 13980 H 1327.83 -0.89842 -1.34685 0
M  V30 13981 H 1329.82 0.707523 -3.98467 0
M  V30 13982 H 1328.39 0.997358 -2.96263 0
M  V30 13983 H 1327.61 -1.37859 -3.69308 0
M  V30 13984 H 1328.9 -1.33392 -4.91003 0
M  V30 13985 H 1328.3 1.8156 -5.35773 0
M  V30 13986 H 1326.86 1.72429 -6.28579 0
M  V30 13987 N 1330.29 1.35952 -0.797165 0
M  V30 13988 C 1331.57 1.93335 -0.2968 0
M  V30 13989 C 1331.95 1.72825 1.21222 0
M  V30 13990 O 1331.3 1.09172 2.00733 0
M  V30 13991 C 1331.51 3.41951 -0.697894 0
M  V30 13992 C 1332.85 4.19087 -0.682026 0
M  V30 13993 O 1333.88 3.50424 -0.638849 0
M  V30 13994 O 1332.74 5.41577 -0.73189 0
M  V30 13995 H 1329.83 0.823554 -0.0754223 0
M  V30 13996 H 1332.38 1.45086 -0.88023 0
M  V30 13997 H 1331.15 3.50569 -1.73831 0
M  V30 13998 H 1330.77 3.97501 -0.088764 0
M  V30 13999 N 1331.77 0.549846 1.47697 0
M  V30 14000 C 1333.02 0.0209424 2.01689 0
M  V30 14001 C 1333.33 -1.33417 1.43036 0
M  V30 14002 O 1334.54 -1.95257 1.88646 0
M  V30 14003 C 1332.99 -0.0130171 3.59898 0
M  V30 14004 C 1332.6 1.3384 4.2754 0
M  V30 14005 C 1334.34 -0.489701 4.21666 0
M  V30 14006 C 1332.25 1.26395 5.77735 0
M  V30 14007 H 1331.18 0.00405885 0.753989 0
M  V30 14008 H 1333.83 0.696599 1.69764 0
M  V30 14009 H 1332.21 -0.754168 3.88752 0
M  V30 14010 H 1333.39 2.09668 4.10336 0
M  V30 14011 H 1331.7 1.75242 3.77729 0
M  V30 14012 H 1334.3 -0.563684 5.31721 0
M  V30 14013 H 1334.64 -1.50004 3.88336 0
M  V30 14014 H 1335.18 0.196366 3.97315 0
M  V30 14015 H 1331.92 2.25005 6.15673 0
M  V30 14016 H 1331.44 0.547353 5.97297 0
M  V30 14017 H 1333.11 0.962918 6.39794 0
M  V30 14018 N 1333.25 -1.54984 0.285932 0
M  V30 14019 C 1334.18 -2.19087 -0.638448 0
M  V30 14020 C 1335.16 -1.1553 -1.14418 0
M  V30 14021 O 1336.34 -1.44105 -1.21516 0
M  V30 14022 C 1333.47 -2.82273 -1.87188 0
M  V30 14023 C 1332.51 -3.99226 -1.5007 0
M  V30 14024 S 1333.35 -5.32463 -0.569552 0
M  V30 14025 C 1334.5 -5.99124 -1.81112 0
M  V30 14026 H 1334.74 -2.97152 -0.0938139 0
M  V30 14027 H 1332.27 -1.54241 0.0701344 0
M  V30 14028 H 1334.23 -3.19307 -2.57979 0
M  V30 14029 H 1332.89 -2.04082 -2.38767 0
M  V30 14030 H 1332.08 -4.42166 -2.41878 0
M  V30 14031 H 1331.68 -3.63671 -0.872871 0
M  V30 14032 H 1333.98 -6.19015 -2.75367 0
M  V30 14033 H 1334.92 -6.93623 -1.42454 0
M  V30 14034 H 1335.33 -5.28599 -1.98098 0
M  V30 14035 N 1334.72 -0.0133892 -1.57594 0
M  V30 14036 C 1335.95 0.679255 -1.95432 0
M  V30 14037 C 1336.37 1.66558 -0.889028 0
M  V30 14038 O 1335.72 1.82031 0.130755 0
M  V30 14039 C 1335.78 1.39943 -3.33314 0
M  V30 14040 O 1335.5 0.452643 -4.35755 0
M  V30 14041 C 1337 2.18535 -3.85691 0
M  V30 14042 H 1334.22 0.188337 -0.644026 0
M  V30 14043 H 1336.76 -0.0684861 -2.04385 0
M  V30 14044 H 1334.92 2.0987 -3.25628 0
M  V30 14045 H 1335.33 0.962243 -5.15598 0
M  V30 14046 H 1336.8 2.64403 -4.84557 0
M  V30 14047 H 1337.28 3.01779 -3.19102 0
M  V30 14048 H 1337.89 1.53598 -3.96595 0
M  V30 14049 N 1336.2 1.55448 0.259558 0
M  V30 14050 C 1337.43 1.81063 1.01148 0
M  V30 14051 C 1337.85 0.58875 1.78649 0
M  V30 14052 O 1337.21 -0.461971 1.75315 0
M  V30 14053 C 1337.26 3.04279 1.93512 0
M  V30 14054 O 1336.36 2.80307 3.02493 0
M  V30 14055 H 1335.7 0.598056 0.288487 0
M  V30 14056 H 1338.23 2.02614 0.284387 0
M  V30 14057 H 1338.24 3.33373 2.35215 0
M  V30 14058 H 1336.92 3.92856 1.36518 0
M  V30 14059 H 1335.5 2.62345 2.65008 0
M  V30 14060 N 1337.68 -0.524672 1.4861 0
M  V30 14061 C 1338.93 -1.28211 1.5713 0
M  V30 14062 C 1339.26 -1.92626 0.246751 0
M  V30 14063 O 1338.53 -1.79553 -0.747725 0
M  V30 14064 C 1338.82 -2.36737 2.71344 0
M  V30 14065 C 1338.67 -1.76978 4.1352 0
M  V30 14066 C 1339.99 -3.3847 2.81294 0
M  V30 14067 H 1337.11 -0.46479 0.571961 0
M  V30 14068 H 1339.75 -0.583937 1.80804 0
M  V30 14069 H 1337.9 -2.96287 2.51289 0
M  V30 14070 H 1339.57 -1.21438 4.45029 0
M  V30 14071 H 1337.82 -1.07488 4.20272 0
M  V30 14072 H 1338.49 -2.55583 4.89266 0
M  V30 14073 H 1340.96 -2.88882 2.99477 0
M  V30 14074 H 1339.84 -4.11795 3.62928 0
M  V30 14075 H 1340.1 -3.99347 1.89669 0
M  V30 14076 N 1339.16 -1.37287 -0.77395 0
M  V30 14077 C 1340.38 -1.35734 -1.56815 0
M  V30 14078 C 1340.81 0.0555546 -1.88018 0
M  V30 14079 O 1340.17 1.03197 -1.49064 0
M  V30 14080 C 1340.21 -2.2008 -2.85652 0
M  V30 14081 O 1339.32 -1.60391 -3.79932 0
M  V30 14082 H 1338.66 -0.463881 -0.47509 0
M  V30 14083 H 1341.19 -1.80781 -0.958087 0
M  V30 14084 H 1341.2 -2.33215 -3.34776 0
M  V30 14085 H 1339.87 -3.22781 -2.6227 0
M  V30 14086 H 1338.45 -1.56285 -3.3857 0
M  V30 14087 N 1340.64 0.999871 -1.21821 0
M  V30 14088 C 1341.88 1.73497 -1.0365 0
M  V30 14089 C 1342.21 1.90194 0.430271 0
M  V30 14090 O 1341.48 1.45655 1.31002 0
M  V30 14091 H 1340.06 0.642804 -0.380541 0
M  V30 14092 H 1342.72 1.20461 -1.53216 0
M  V30 14093 H 1341.81 2.73215 -1.50864 0
M  V30 14094 N 1342.11 1.02678 1.19562 0
M  V30 14095 C 1343.53 0.743467 1.41226 0
M  V30 14096 C 1343.73 -0.672786 1.89936 0
M  V30 14097 O 1342.79 -1.43908 2.07477 0
M  V30 14098 C 1344.1 1.77781 2.42517 0
M  V30 14099 C 1345.65 1.79711 2.56267 0
M  V30 14100 C 1346.12 2.82099 3.60811 0
M  V30 14101 N 1347.61 2.80902 3.68304 0
M  V30 14102 C 1348.35 3.5678 4.48882 0
M  V30 14103 N 1347.84 4.42367 5.33182 0
M  V30 14104 N 1349.64 3.45331 4.43512 0
M  V30 14105 H 1341.79 1.94094 0.862635 0
M  V30 14106 H 1344.05 0.839015 0.441313 0
M  V30 14107 H 1343.76 2.79295 2.13745 0
M  V30 14108 H 1343.63 1.59836 3.41661 0
M  V30 14109 H 1346.02 0.788756 2.84364 0
M  V30 14110 H 1346.1 2.01731 1.57284 0
M  V30 14111 H 1345.74 3.83104 3.33457 0
M  V30 14112 H 1345.67 2.57338 4.5944 0
M  V30 14113 H 1348.16 2.18826 3.08097 0
M  V30 14114 H 1348.48 4.97008 5.9178 0
M  V30 14115 H 1346.82 4.4644 5.3265 0
M  V30 14116 H 1350.01 2.77883 3.76695 0
M  V30 14117 H 1350.19 4.04718 5.06071 0
M  V30 14118 N 1343.59 -1.35528 0.804364 0
M  V30 14119 C 1344.84 -1.98084 0.380196 0
M  V30 14120 C 1345.15 -1.64531 -1.05778 0
M  V30 14121 O 1346.36 -2.20435 -1.58495 0
M  V30 14122 C 1344.82 -3.54364 0.628848 0
M  V30 14123 C 1344.42 -3.96828 2.07921 0
M  V30 14124 C 1346.17 -4.23641 0.269927 0
M  V30 14125 C 1344.08 -5.45944 2.27374 0
M  V30 14126 H 1343.01 -0.741185 0.138422 0
M  V30 14127 H 1345.66 -1.54624 0.988107 0
M  V30 14128 H 1344.04 -3.9597 -0.0489837 0
M  V30 14129 H 1345.21 -3.6638 2.79467 0
M  V30 14130 H 1343.53 -3.40433 2.39779 0
M  V30 14131 H 1346.12 -5.33251 0.393344 0
M  V30 14132 H 1346.47 -4.08858 -0.783644 0
M  V30 14133 H 1347 -3.87448 0.901588 0
M  V30 14134 H 1343.74 -5.65693 3.31168 0
M  V30 14135 H 1343.26 -5.77969 1.6035 0
M  V30 14136 H 1344.94 -6.12376 2.08817 0
M  V30 14137 N 1345.07 -0.557671 -1.47404 0
M  V30 14138 C 1346.48 -0.124411 -1.86285 0
M  V30 14139 C 1346.83 1.30593 -1.46424 0
M  V30 14140 O 1345.96 1.9825 -0.867515 0
M  V30 14141 C 1346.55 -0.219005 -3.38091 0
M  V30 14142 C 1345.11 0.159221 -3.76063 0
M  V30 14143 C 1344.26 -0.566355 -2.71455 0
M  V30 14144 H 1347.21 -0.767367 -1.38914 0
M  V30 14145 H 1347.23 0.562267 -3.76323 0
M  V30 14146 H 1346.74 -1.26013 -3.67073 0
M  V30 14147 H 1344.84 1.20144 -3.52698 0
M  V30 14148 H 1344.96 -0.199662 -4.78684 0
M  V30 14149 H 1343.32 -0.00938921 -2.54698 0
M  V30 14150 H 1344.1 -1.60865 -3.03278 0
M  V30 14151 N 1346.55 1.54831 -0.294147 0
M  V30 14152 C 1347.96 1.85627 0.199866 0
M  V30 14153 C 1348.31 1.21613 1.53964 0
M  V30 14154 O 1347.44 0.511317 2.10272 0
M  V30 14155 C 1348.03 3.3678 0.369428 0
M  V30 14156 C 1346.59 3.67633 0.807663 0
M  V30 14157 C 1345.74 2.7716 -0.0880078 0
M  V30 14158 H 1348.69 1.50099 -0.515371 0
M  V30 14159 H 1348.71 3.60913 1.20508 0
M  V30 14160 H 1348.22 3.83342 -0.605831 0
M  V30 14161 H 1346.32 3.26583 1.79372 0
M  V30 14162 H 1346.44 4.74916 0.631799 0
M  V30 14163 H 1344.8 2.51017 0.431553 0
M  V30 14164 H 1345.58 3.26542 -1.0595 0
M  V30 14165 N 1348.03 0.0217466 1.57585 0
M  V30 14166 C 1348.98 -0.980624 2.10918 0
M  V30 14167 C 1349.97 -1.34178 1.03406 0
M  V30 14168 O 1351.18 -1.32487 1.21849 0
M  V30 14169 H 1347.55 -0.333984 0.673764 0
M  V30 14170 H 1349.52 -0.505431 2.94088 0
M  V30 14171 C 1348.27 -2.25639 2.64542 0
M  V30 14172 H 1347.59 -1.98722 3.46914 0
M  V30 14173 H 1349.03 -2.94003 3.05513 0
M  V30 14174 C 1347.49 -2.98111 1.56945 0
M  V30 14175 O 1348.02 -3.89937 0.964975 0
M  V30 14176 N 1346.23 -2.60316 1.29166 0
M  V30 14177 H 1345.78 -1.85722 1.78508 0
M  V30 14178 H 1345.73 -3.09116 0.573987 0
M  V30 14179 N 1349.51 -1.55583 -0.251311 0
M  V30 14180 C 1350.75 -1.77471 -0.981418 0
M  V30 14181 C 1351.08 -0.586228 -1.85141 0
M  V30 14182 O 1350.36 0.415623 -1.90007 0
M  V30 14183 C 1350.64 -3.09204 -1.84567 0
M  V30 14184 C 1350.5 -4.38448 -1.00417 0
M  V30 14185 C 1351.81 -3.37133 -2.82895 0
M  V30 14186 H 1348.93 -0.645664 -0.355369 0
M  V30 14187 H 1351.58 -1.88318 -0.252228 0
M  V30 14188 H 1349.73 -3.00087 -2.46738 0
M  V30 14189 H 1351.4 -4.5955 -0.40149 0
M  V30 14190 H 1349.64 -4.32703 -0.308365 0
M  V30 14191 H 1350.31 -5.26995 -1.64258 0
M  V30 14192 H 1352.79 -3.46183 -2.3086 0
M  V30 14193 H 1351.66 -4.30531 -3.40491 0
M  V30 14194 H 1351.92 -2.57829 -3.59133 0
M  V30 14195 N 1350.98 0.516783 -1.48886 0
M  V30 14196 C 1351.89 1.6467 -1.67095 0
M  V30 14197 C 1352.91 1.64963 -0.553466 0
M  V30 14198 O 1354.09 1.83673 -0.826206 0
M  V30 14199 C 1351.15 3.01095 -1.71879 0
M  V30 14200 C 1350.21 3.11554 -2.95352 0
M  V30 14201 C 1349.44 4.41471 -2.99898 0
M  V30 14202 O 1349.67 5.29348 -2.12477 0
M  V30 14203 O 1348.6 4.56573 -3.92205 0
M  V30 14204 H 1352.43 1.52242 -2.62785 0
M  V30 14205 H 1350.01 0.69134 -1.32442 0
M  V30 14206 H 1351.89 3.82207 -1.77471 0
M  V30 14207 H 1350.57 3.1382 -0.793656 0
M  V30 14208 H 1349.48 2.29689 -2.95286 0
M  V30 14209 H 1350.81 3.03751 -3.87294 0
M  V30 14210 N 1352.46 1.37696 0.766659 0
M  V30 14211 C 1353.41 1.33871 1.88009 0
M  V30 14212 C 1354.38 0.2034 1.6485 0
M  V30 14213 O 1355.56 0.393569 1.86697 0
M  V30 14214 C 1352.7 1.1566 3.25141 0
M  V30 14215 C 1351.82 2.38465 3.6022 0
M  V30 14216 C 1350.95 2.13087 4.86587 0
M  V30 14217 C 1349.99 3.31732 5.14413 0
M  V30 14218 N 1349.13 3.05872 6.3197 0
M  V30 14219 H 1353.97 2.29065 1.90613 0
M  V30 14220 H 1351.5 1.13821 0.931837 0
M  V30 14221 H 1353.46 1.03122 4.04255 0
M  V30 14222 H 1352.09 0.241115 3.21898 0
M  V30 14223 H 1351.14 2.61725 2.76051 0
M  V30 14224 H 1352.46 3.26933 3.76718 0
M  V30 14225 H 1351.61 1.97609 5.73616 0
M  V30 14226 H 1350.35 1.21965 4.72203 0
M  V30 14227 H 1349.35 3.47743 4.25858 0
M  V30 14228 H 1350.58 4.23712 5.30702 0
M  V30 14229 H 1348.53 2.17384 6.18935 0
M  V30 14230 H 1348.44 3.87885 6.48908 0
M  V30 14231 H 1349.71 2.94023 7.21922 0
M  V30 14232 N 1353.94 -0.993397 1.22349 0
M  V30 14233 C 1355.16 -1.77373 1.07488 0
M  V30 14234 C 1355.59 -1.84418 -0.37034 0
M  V30 14235 O 1354.95 -1.29629 -1.26752 0
M  V30 14236 C 1355 -3.18538 1.69014 0
M  V30 14237 O 1354.1 -4.01463 0.943474 0
M  V30 14238 H 1353.44 -0.546209 0.37756 0
M  V30 14239 H 1355.97 -1.24792 1.62136 0
M  V30 14240 H 1355.98 -3.6917 1.73717 0
M  V30 14241 H 1354.66 -3.12725 2.74182 0
M  V30 14242 H 1353.23 -3.59998 0.972415 0
M  V30 14243 N 1355.42 -1.03311 -1.19015 0
M  V30 14244 C 1356.67 -0.727266 -1.88132 0
M  V30 14245 C 1356.98 0.747488 -1.80754 0
M  V30 14246 O 1358.19 1.16654 -2.45161 0
M  V30 14247 C 1356.64 -1.25056 -3.37474 0
M  V30 14248 C 1356.25 -2.7534 -3.534 0
M  V30 14249 C 1357.99 -1.02091 -4.12041 0
M  V30 14250 C 1355.9 -3.21066 -4.96659 0
M  V30 14251 H 1354.83 -0.268349 -0.704631 0
M  V30 14252 H 1357.48 -1.24795 -1.3453 0
M  V30 14253 H 1355.86 -0.65777 -3.90499 0
M  V30 14254 H 1357.04 -3.40311 -3.10684 0
M  V30 14255 H 1355.35 -2.96633 -2.92229 0
M  V30 14256 H 1357.95 -1.33777 -5.17695 0
M  V30 14257 H 1358.29 0.0421413 -4.16279 0
M  V30 14258 H 1358.83 -1.57792 -3.65166 0
M  V30 14259 H 1355.56 -4.26719 -4.97586 0
M  V30 14260 H 1355.08 -2.60826 -5.4012 0
M  V30 14261 H 1356.76 -3.14651 -5.65335 0
M  V30 14262 N 1356.9 1.35099 -0.81154 0
M  V30 14263 C 1357.84 2.29717 -0.223372 0
M  V30 14264 C 1358.81 1.53049 0.645396 0
M  V30 14265 O 1360 1.81467 0.589436 0
M  V30 14266 C 1357.14 3.3952 0.618057 0
M  V30 14267 C 1356.25 4.31145 -0.271693 0
M  V30 14268 C 1355.39 5.28044 0.578214 0
M  V30 14269 C 1354.42 6.11306 -0.311628 0
M  V30 14270 N 1353.56 7.00328 0.498539 0
M  V30 14271 H 1358.4 2.79426 -1.03563 0
M  V30 14272 H 1355.94 1.37518 -0.522231 0
M  V30 14273 H 1357.9 4.01854 1.12111 0
M  V30 14274 H 1356.53 2.91075 1.39554 0
M  V30 14275 H 1355.58 3.69773 -0.892885 0
M  V30 14276 H 1356.89 4.89545 -0.956392 0
M  V30 14277 H 1356.04 5.95774 1.1462 0
M  V30 14278 H 1354.78 4.70152 1.29646 0
M  V30 14279 H 1353.79 5.42518 -0.891849 0
M  V30 14280 H 1355.01 6.71277 -1.02781 0
M  V30 14281 H 1352.96 6.44919 1.20067 0
M  V30 14282 H 1352.88 7.55892 -0.12801 0
M  V30 14283 H 1354.14 7.72401 1.04965 0
M  V30 14284 N 1358.37 0.56548 1.47106 0
M  V30 14285 C 1359.32 -0.177564 2.30116 0
M  V30 14286 C 1360.29 -0.900534 1.39569 0
M  V30 14287 O 1361.48 -0.894603 1.68527 0
M  V30 14288 C 1358.62 -1.19633 3.237 0
M  V30 14289 C 1357.73 -0.47858 4.29341 0
M  V30 14290 C 1356.86 -1.48336 5.10068 0
M  V30 14291 C 1355.9 -0.751049 6.07475 0
M  V30 14292 N 1355.04 -1.70306 6.81132 0
M  V30 14293 H 1359.88 0.536409 2.93132 0
M  V30 14294 H 1357.42 0.276352 1.44481 0
M  V30 14295 H 1359.37 -1.79967 3.76388 0
M  V30 14296 H 1358 -1.87823 2.6253 0
M  V30 14297 H 1357.06 0.239454 3.79646 0
M  V30 14298 H 1358.37 0.0947147 4.9871 0
M  V30 14299 H 1357.52 -2.16 5.66947 0
M  V30 14300 H 1356.26 -2.09058 4.4062 0
M  V30 14301 H 1355.27 -0.0605336 5.49767 0
M  V30 14302 H 1356.49 -0.14946 6.78936 0
M  V30 14303 H 1354.44 -2.2987 6.14407 0
M  V30 14304 H 1354.35 -1.18213 7.46701 0
M  V30 14305 H 1355.62 -2.37058 7.42579 0
M  V30 14306 N 1359.85 -1.54672 0.302354 0
M  V30 14307 C 1360.76 -2.27251 -0.582578 0
M  V30 14308 C 1361.78 -1.30819 -1.14727 0
M  V30 14309 O 1362.95 -1.63803 -1.17177 0
M  V30 14310 C 1360.02 -3.00016 -1.73757 0
M  V30 14311 C 1359.08 -4.11988 -1.20682 0
M  V30 14312 C 1358.31 -4.81273 -2.30676 0
M  V30 14313 O 1358.54 -4.49927 -3.50602 0
M  V30 14314 O 1357.47 -5.68647 -1.97291 0
M  V30 14315 H 1361.3 -3.03699 0.00621365 0
M  V30 14316 H 1358.88 -1.49242 0.0687684 0
M  V30 14317 H 1360.76 -3.45652 -2.41045 0
M  V30 14318 H 1359.44 -2.26462 -2.31294 0
M  V30 14319 H 1358.35 -3.70749 -0.499625 0
M  V30 14320 H 1359.68 -4.87524 -0.676858 0
M  V30 14321 N 1361.33 -0.0301034 -1.57571 0
M  V30 14322 C 1362.26 0.986212 -2.05789 0
M  V30 14323 C 1363.24 1.31682 -0.95387 0
M  V30 14324 O 1364.43 1.43332 -1.22427 0
M  V30 14325 C 1361.55 2.30598 -2.48077 0
M  V30 14326 C 1360.6 2.12991 -3.69509 0
M  V30 14327 S 1361.43 1.42782 -5.16114 0
M  V30 14328 C 1362.59 2.76126 -5.61699 0
M  V30 14329 H 1362.82 0.575769 -2.91671 0
M  V30 14330 H 1360.35 0.181613 -1.53328 0
M  V30 14331 H 1362.31 3.06469 -2.73107 0
M  V30 14332 H 1360.97 2.68775 -1.62539 0
M  V30 14333 H 1360.17 3.1056 -3.96949 0
M  V30 14334 H 1359.77 1.45263 -3.44637 0
M  V30 14335 H 1362.06 3.72361 -5.65998 0
M  V30 14336 H 1363 2.53349 -6.61226 0
M  V30 14337 H 1363.41 2.81418 -4.89351 0
M  V30 14338 N 1362.81 1.55714 0.243056 0
M  V30 14339 C 1363.77 1.89832 1.28438 0
M  V30 14340 C 1364.77 0.775083 1.40887 0
M  V30 14341 O 1365.96 1.04304 1.39521 0
M  V30 14342 C 1363.09 2.13016 2.66153 0
M  V30 14343 H 1364.29 2.82947 0.994022 0
M  V30 14344 H 1361.84 1.48665 0.482521 0
M  V30 14345 H 1362.57 1.22381 3.00322 0
M  V30 14346 H 1362.36 2.94824 2.58498 0
M  V30 14347 H 1363.85 2.40581 3.41336 0
M  V30 14348 N 1364.29 -0.50888 1.49158 0
M  V30 14349 C 1365.22 -1.62778 1.61356 0
M  V30 14350 C 1366.23 -1.55039 0.496653 0
M  V30 14351 O 1367.42 -1.61115 0.768386 0
M  V30 14352 C 1364.52 -3.01534 1.54694 0
M  V30 14353 C 1363.69 -3.34539 2.81785 0
M  V30 14354 C 1362.75 -4.5267 2.68283 0
M  V30 14355 O 1361.78 -4.54844 3.42207 0
M  V30 14356 N 1362.98 -5.52115 1.79303 0
M  V30 14357 H 1365.75 -1.52744 2.57855 0
M  V30 14358 H 1363.31 -0.696597 1.46148 0
M  V30 14359 H 1365.3 -3.7847 1.43327 0
M  V30 14360 H 1363.87 -3.05535 0.660849 0
M  V30 14361 H 1363.09 -2.46576 3.07561 0
M  V30 14362 H 1364.38 -3.53384 3.66057 0
M  V30 14363 H 1363.77 -5.53153 1.18485 0
M  V30 14364 H 1362.33 -6.28184 1.73863 0
M  V30 14365 N 1365.76 -1.381 -0.759346 0
M  V30 14366 C 1366.99 -1.37014 -1.54631 0
M  V30 14367 C 1367.4 0.0433843 -1.8915 0
M  V30 14368 O 1366.75 1.01888 -1.52855 0
M  V30 14369 C 1366.81 -2.15575 -2.87693 0
M  V30 14370 C 1366.47 -3.64438 -2.75743 0
M  V30 14371 C 1367.47 -4.58055 -2.45929 0
M  V30 14372 C 1365.15 -4.0772 -2.93376 0
M  V30 14373 C 1367.15 -5.92935 -2.33894 0
M  V30 14374 C 1364.83 -5.42682 -2.80961 0
M  V30 14375 C 1365.83 -6.35103 -2.51262 0
M  V30 14376 O 1365.52 -7.67583 -2.38896 0
M  V30 14377 H 1365.25 -0.47062 -0.485276 0
M  V30 14378 H 1367.81 -1.82214 -0.948 0
M  V30 14379 H 1366.04 -1.65084 -3.49691 0
M  V30 14380 H 1367.73 -2.06968 -3.49169 0
M  V30 14381 H 1368.49 -4.25923 -2.3198 0
M  V30 14382 H 1364.37 -3.36135 -3.15491 0
M  V30 14383 H 1367.91 -6.65041 -2.10634 0
M  V30 14384 H 1363.81 -5.74413 -2.94482 0
M  V30 14385 H 1364.58 -7.78042 -2.54152 0
M  V30 14386 N 1367.24 0.986894 -1.22875 0
M  V30 14387 C 1368.21 2.0597 -1.00544 0
M  V30 14388 C 1369.21 1.60771 0.0303509 0
M  V30 14389 O 1370.4 1.72945 -0.208753 0
M  V30 14390 C 1367.53 3.36911 -0.519962 0
M  V30 14391 H 1368.72 2.27213 -1.9574 0
M  V30 14392 H 1366.27 1.15935 -1.04827 0
M  V30 14393 H 1367.01 3.21355 0.436078 0
M  V30 14394 H 1366.79 3.71054 -1.26732 0
M  V30 14395 H 1368.28 4.15829 -0.384166 0
M  V30 14396 N 1368.72 1.0394 1.18466 0
M  V30 14397 C 1369.95 0.761926 1.92897 0
M  V30 14398 C 1370.37 -0.674618 1.75586 0
M  V30 14399 O 1369.73 -1.46711 1.06515 0
M  V30 14400 C 1369.78 1.13152 3.42387 0
M  V30 14401 O 1368.88 0.256266 4.11603 0
M  V30 14402 H 1368.22 0.280527 0.601831 0
M  V30 14403 H 1370.75 1.3889 1.50235 0
M  V30 14404 H 1370.76 1.0929 3.9309 0
M  V30 14405 H 1369.44 2.17804 3.54308 0
M  V30 14406 H 1368.01 0.354392 3.71212 0
M  V30 14407 N 1370.2 -1.34667 0.818693 0
M  V30 14408 C 1371.15 -2.31501 0.225816 0
M  V30 14409 C 1372.14 -1.57205 -0.631112 0
M  V30 14410 O 1373.35 -1.72237 -0.522924 0
M  V30 14411 H 1369.72 -0.750039 0.0542747 0
M  V30 14412 H 1371.69 -2.79036 1.05743 0
M  V30 14413 C 1370.44 -3.42464 -0.60114 0
M  V30 14414 H 1369.76 -3.9977 0.0489207 0
M  V30 14415 H 1371.2 -4.12468 -0.982154 0
M  V30 14416 C 1369.66 -2.86551 -1.77173 0
M  V30 14417 O 1370.19 -2.81085 -2.86974 0
M  V30 14418 N 1368.4 -2.43432 -1.58712 0
M  V30 14419 H 1367.95 -2.48077 -0.693958 0
M  V30 14420 H 1367.9 -2.06371 -2.37188 0
M  V30 14421 N 1371.68 -0.573274 -1.46804 0
M  V30 14422 C 1372.93 -0.0530267 -2.0163 0
M  V30 14423 C 1373.24 1.31124 -1.45141 0
M  V30 14424 O 1374.44 1.92231 -1.91728 0
M  V30 14425 C 1372.9 -0.0442411 -3.59873 0
M  V30 14426 C 1372.51 -1.40625 -4.25357 0
M  V30 14427 C 1374.25 0.422556 -4.22392 0
M  V30 14428 C 1372.16 -1.3557 -5.75652 0
M  V30 14429 H 1371.09 -0.0160537 -0.753829 0
M  V30 14430 H 1373.74 -0.723518 -1.68634 0
M  V30 14431 H 1372.12 0.692225 -3.89903 0
M  V30 14432 H 1373.3 -2.1617 -4.06949 0
M  V30 14433 H 1371.61 -1.81229 -3.74893 0
M  V30 14434 H 1374.21 0.479021 -5.3255 0
M  V30 14435 H 1374.55 1.43806 -3.90673 0
M  V30 14436 H 1375.08 -0.259551 -3.96952 0
M  V30 14437 H 1371.82 -2.34772 -6.12015 0
M  V30 14438 H 1371.34 -0.642309 -5.96351 0
M  V30 14439 H 1373.02 -1.06458 -6.38182 0
M  V30 14440 N 1373.15 1.5451 -0.310553 0
M  V30 14441 C 1374.38 2.04739 0.29824 0
M  V30 14442 C 1374.8 1.18737 1.46788 0
M  V30 14443 O 1374.15 0.215114 1.81228 0
M  V30 14444 C 1374.21 3.53734 0.745274 0
M  V30 14445 O 1373.93 4.36468 -0.377826 0
M  V30 14446 C 1375.43 4.20001 1.41823 0
M  V30 14447 H 1372.65 0.667997 0.0634159 0
M  V30 14448 H 1375.19 1.9942 -0.452961 0
M  V30 14449 H 1373.35 3.59383 1.44648 0
M  V30 14450 H 1373.76 5.24492 -0.0280567 0
M  V30 14451 H 1375.23 5.25747 1.68209 0
M  V30 14452 H 1375.71 3.70319 2.36137 0
M  V30 14453 H 1376.32 4.18455 0.759951 0
M  V30 14454 N 1374.63 0.0384594 1.57553 0
M  V30 14455 C 1375.86 -0.651613 1.96898 0
M  V30 14456 C 1376.28 -1.64328 0.915308 0
M  V30 14457 O 1375.64 -1.80883 -0.122824 0
M  V30 14458 C 1375.69 -1.32613 3.3533 0
M  V30 14459 O 1374.79 -2.44159 3.32355 0
M  V30 14460 H 1374.13 -0.170441 0.641752 0
M  V30 14461 H 1376.66 0.103086 2.0434 0
M  V30 14462 H 1376.67 -1.68076 3.71772 0
M  V30 14463 H 1375.35 -0.599275 4.1156 0
M  V30 14464 H 1373.93 -2.10738 3.07642 0
M  V30 14465 N 1376.11 -1.55841 -0.234795 0
M  V30 14466 C 1377.36 -1.78502 -0.96254 0
M  V30 14467 C 1377.69 -0.605832 -1.84508 0
M  V30 14468 O 1376.97 0.395446 -1.90438 0
M  V30 14469 C 1377.25 -3.11144 -1.81277 0
M  V30 14470 C 1377.1 -4.39488 -0.957607 0
M  V30 14471 C 1378.42 -3.40114 -2.79304 0
M  V30 14472 H 1375.54 -0.649397 -0.348501 0
M  V30 14473 H 1378.18 -1.88575 -0.23224 0
M  V30 14474 H 1376.33 -3.02687 -2.43542 0
M  V30 14475 H 1378 -4.59949 -0.352726 0
M  V30 14476 H 1376.25 -4.33005 -0.262454 0
M  V30 14477 H 1376.92 -5.28707 -1.58659 0
M  V30 14478 H 1379.39 -3.48612 -2.27175 0
M  V30 14479 H 1378.27 -4.34118 -3.35906 0
M  V30 14480 H 1378.53 -2.61623 -3.56378 0
M  V30 14481 N 1377.59 0.500963 -1.49426 0
M  V30 14482 C 1378.52 1.61114 -1.69011 0
M  V30 14483 C 1379.5 1.61341 -0.538813 0
M  V30 14484 O 1380.69 1.78081 -0.77466 0
M  V30 14485 C 1377.82 2.99598 -1.75666 0
M  V30 14486 C 1376.77 3.14236 -2.90585 0
M  V30 14487 C 1376.1 4.54071 -2.82354 0
M  V30 14488 C 1377.4 2.94258 -4.3152 0
M  V30 14489 H 1379.09 1.44978 -2.61957 0
M  V30 14490 H 1376.64 0.69603 -1.26061 0
M  V30 14491 H 1378.59 3.77163 -1.87953 0
M  V30 14492 H 1377.31 3.16822 -0.793186 0
M  V30 14493 H 1375.97 2.39096 -2.779 0
M  V30 14494 H 1375.62 4.68172 -1.83914 0
M  V30 14495 H 1375.32 4.64806 -3.59485 0
M  V30 14496 H 1376.84 5.33696 -2.96649 0
M  V30 14497 H 1378.26 3.61592 -4.44886 0
M  V30 14498 H 1376.65 3.16464 -5.09873 0
M  V30 14499 H 1377.72 1.90383 -4.45962 0
M  V30 14500 N 1379.07 1.38501 0.752011 0
M  V30 14501 C 1380.31 1.36212 1.52399 0
M  V30 14502 C 1380.67 -0.0472831 1.91942 0
M  V30 14503 O 1381.87 -0.195055 2.68091 0
M  V30 14504 C 1380.14 2.2925 2.74188 0
M  V30 14505 S 1381.7 2.44995 3.64037 0
M  V30 14506 H 1378.52 0.483276 0.521503 0
M  V30 14507 H 1381.12 1.74441 0.882647 0
M  V30 14508 H 1379.83 3.30541 2.4325 0
M  V30 14509 H 1379.36 1.92176 3.43266 0
M  V30 14510 H 1381.37 1.67519 4.67067 0
M  V30 14511 N 1380.55 -0.980364 1.23396 0
M  V30 14512 C 1381.48 -2.07522 0.972991 0
M  V30 14513 C 1382.49 -1.62714 -0.0530191 0
M  V30 14514 O 1383.68 -1.77564 0.182513 0
M  V30 14515 C 1380.78 -3.35977 0.444126 0
M  V30 14516 C 1379.95 -4.09756 1.53031 0
M  V30 14517 C 1379.01 -5.16488 1.00631 0
M  V30 14518 O 1378.04 -5.43368 1.69529 0
M  V30 14519 N 1379.24 -5.80263 -0.165842 0
M  V30 14520 H 1382 -2.30487 1.91561 0
M  V30 14521 H 1379.57 -1.14706 1.14255 0
M  V30 14522 H 1381.56 -4.04624 0.078617 0
M  V30 14523 H 1380.13 -3.0998 -0.403912 0
M  V30 14524 H 1379.35 -3.35564 2.06858 0
M  V30 14525 H 1380.64 -4.55815 2.26076 0
M  V30 14526 H 1380.03 -5.60811 -0.742162 0
M  V30 14527 H 1378.59 -6.50084 -0.472614 0
M  V30 14528 N 1382.02 -1.04567 -1.17913 0
M  V30 14529 C 1383.27 -0.752023 -1.88018 0
M  V30 14530 C 1383.6 0.720567 -1.8066 0
M  V30 14531 O 1382.85 1.54207 -1.20493 0
M  V30 14532 C 1383.15 -1.1699 -3.3771 0
M  V30 14533 C 1382.82 -2.64363 -3.65271 0
M  V30 14534 C 1381.48 -3.04622 -3.72503 0
M  V30 14535 C 1383.83 -3.59626 -3.77251 0
M  V30 14536 C 1381.16 -4.39023 -3.89199 0
M  V30 14537 C 1383.51 -4.93752 -3.95465 0
M  V30 14538 C 1382.18 -5.33675 -4.00933 0
M  V30 14539 H 1381.45 -0.275185 -0.688008 0
M  V30 14540 H 1384.09 -1.31161 -1.39532 0
M  V30 14541 H 1382.4 -0.529202 -3.8821 0
M  V30 14542 H 1384.1 -0.919981 -3.90304 0
M  V30 14543 H 1380.69 -2.32182 -3.60263 0
M  V30 14544 H 1384.87 -3.29665 -3.70992 0
M  V30 14545 H 1380.13 -4.69466 -3.91679 0
M  V30 14546 H 1384.3 -5.67467 -4.03676 0
M  V30 14547 H 1381.93 -6.37825 -4.13623 0
M  V30 14548 N 1383.5 1.34231 -0.825823 0
M  V30 14549 C 1384.91 1.8059 -0.473724 0
M  V30 14550 C 1385.26 1.68438 1.00614 0
M  V30 14551 O 1384.39 1.22606 1.78317 0
M  V30 14552 C 1384.98 3.27884 -0.853099 0
M  V30 14553 C 1383.54 3.72311 -0.553327 0
M  V30 14554 C 1382.69 2.55889 -1.06845 0
M  V30 14555 H 1385.64 1.21937 -1.01573 0
M  V30 14556 H 1385.66 3.80172 -0.158014 0
M  V30 14557 H 1385.17 3.36696 -1.93021 0
M  V30 14558 H 1383.27 3.69034 0.514256 0
M  V30 14559 H 1383.39 4.66315 -1.09942 0
M  V30 14560 H 1381.75 2.49945 -0.489874 0
M  V30 14561 H 1382.53 2.67471 -2.15207 0
M  V30 14562 N 1384.98 0.581051 1.46498 0
M  V30 14563 C 1386.2 0.0696654 2.07283 0
M  V30 14564 C 1386.63 -1.22525 1.42721 0
M  V30 14565 O 1385.99 -1.73967 0.510421 0
M  V30 14566 C 1386.04 -0.0843864 3.60501 0
M  V30 14567 O 1385.14 -1.14129 3.96293 0
M  V30 14568 H 1384.48 0.0620572 0.661094 0
M  V30 14569 H 1387.01 0.803522 1.88161 0
M  V30 14570 H 1387.02 -0.29108 4.0696 0
M  V30 14571 H 1385.7 0.861274 4.06884 0
M  V30 14572 H 1384.27 -0.913186 3.61546 0
M  V30 14573 N 1386.46 -1.54343 0.318742 0
M  V30 14574 C 1387.39 -2.21652 -0.583351 0
M  V30 14575 C 1388.4 -1.21494 -1.08366 0
M  V30 14576 O 1389.59 -1.4799 -0.998064 0
M  V30 14577 C 1386.69 -2.86349 -1.81266 0
M  V30 14578 C 1385.86 -4.12601 -1.45186 0
M  V30 14579 C 1384.92 -4.60937 -2.53818 0
M  V30 14580 O 1383.95 -5.25731 -2.18164 0
M  V30 14581 N 1385.15 -4.34755 -3.84667 0
M  V30 14582 H 1387.92 -2.99699 -0.00703539 0
M  V30 14583 H 1385.48 -1.61278 0.141728 0
M  V30 14584 H 1387.47 -3.15611 -2.53321 0
M  V30 14585 H 1386.04 -2.12037 -2.29693 0
M  V30 14586 H 1385.26 -3.90157 -0.563143 0
M  V30 14587 H 1386.55 -4.94774 -1.18642 0
M  V30 14588 H 1385.95 -3.82883 -4.16434 0
M  V30 14589 H 1384.5 -4.68683 -4.52967 0
M  V30 14590 N 1387.94 -0.0468143 -1.5753 0
M  V30 14591 C 1388.87 0.958157 -2.08211 0
M  V30 14592 C 1389.88 1.27757 -1.00906 0
M  V30 14593 O 1391.07 1.23913 -1.28483 0
M  V30 14594 C 1388.17 2.28088 -2.50657 0
M  V30 14595 C 1387.34 2.14403 -3.81248 0
M  V30 14596 C 1386.4 3.29761 -4.10054 0
M  V30 14597 O 1385.43 3.05859 -4.8004 0
M  V30 14598 N 1386.63 4.54104 -3.61621 0
M  V30 14599 H 1389.39 0.525612 -2.95055 0
M  V30 14600 H 1386.96 0.139532 -1.61298 0
M  V30 14601 H 1388.95 3.04121 -2.67007 0
M  V30 14602 H 1387.52 2.62924 -1.69085 0
M  V30 14603 H 1386.74 1.22988 -3.74523 0
M  V30 14604 H 1388.03 2.02482 -4.66775 0
M  V30 14605 H 1387.42 4.76414 -3.05034 0
M  V30 14606 H 1385.98 5.27246 -3.83217 0
M  V30 14607 N 1389.41 1.55964 0.226527 0
M  V30 14608 C 1390.66 1.77944 0.94967 0
M  V30 14609 C 1390.98 0.614478 1.85697 0
M  V30 14610 O 1392.18 0.717793 2.6184 0
M  V30 14611 C 1390.64 3.15108 1.73881 0
M  V30 14612 C 1390.25 4.39314 0.877894 0
M  V30 14613 C 1391.99 3.46418 2.45347 0
M  V30 14614 C 1389.9 5.67505 1.6641 0
M  V30 14615 H 1388.83 0.663412 0.35833 0
M  V30 14616 H 1391.48 1.82366 0.203695 0
M  V30 14617 H 1389.86 3.04849 2.52751 0
M  V30 14618 H 1391.03 4.60616 0.130089 0
M  V30 14619 H 1389.35 4.15487 0.2756 0
M  V30 14620 H 1391.95 4.39416 3.0466 0
M  V30 14621 H 1392.29 2.68685 3.17985 0
M  V30 14622 H 1392.82 3.57984 1.73471 0
M  V30 14623 H 1389.56 6.48116 0.981089 0
M  V30 14624 H 1389.08 5.50272 2.38665 0
M  V30 14625 H 1390.76 6.075 2.22605 0
M  V30 14626 N 1390.89 -0.493031 1.4969 0
M  V30 14627 C 1391.86 -1.57598 1.6642 0
M  V30 14628 C 1392.86 -1.51615 0.535668 0
M  V30 14629 O 1394.05 -1.54626 0.802283 0
M  V30 14630 C 1391.18 -2.97249 1.66901 0
M  V30 14631 H 1392.37 -1.4409 2.63017 0
M  V30 14632 H 1389.92 -0.717846 1.3884 0
M  V30 14633 H 1390.66 -3.16225 0.719164 0
M  V30 14634 H 1390.44 -3.02999 2.48865 0
M  V30 14635 H 1391.93 -3.75914 1.81874 0
M  V30 14636 N 1392.37 -1.38898 -0.744656 0
M  V30 14637 C 1393.32 -1.36974 -1.87992 0
M  V30 14638 C 1394.31 -0.254277 -1.67481 0
M  V30 14639 O 1395.52 -0.423797 -1.7494 0
M  V30 14640 H 1391.89 -0.427508 -0.618661 0
M  V30 14641 H 1393.86 -2.32754 -1.86731 0
M  V30 14642 C 1392.61 -1.22054 -3.25573 0
M  V30 14643 H 1391.94 -2.07152 -3.41947 0
M  V30 14644 H 1393.38 -1.24763 -4.05228 0
M  V30 14645 C 1391.84 0.0718413 -3.36823 0
M  V30 14646 O 1392.37 1.0456 -3.87853 0
M  V30 14647 N 1390.57 0.131672 -2.90302 0
M  V30 14648 H 1390.12 -0.661428 -2.48964 0
M  V30 14649 H 1390.08 0.995936 -2.98209 0
M  V30 14650 N 1393.85 0.973806 -1.23914 0
M  V30 14651 C 1395.1 1.71027 -1.06923 0
M  V30 14652 C 1395.41 1.91612 0.392947 0
M  V30 14653 O 1396.62 2.62771 0.682927 0
M  V30 14654 C 1395.07 3.07811 -1.86496 0
M  V30 14655 C 1394.68 2.9509 -3.37085 0
M  V30 14656 C 1396.42 3.85371 -1.78015 0
M  V30 14657 C 1394.33 4.27145 -4.09024 0
M  V30 14658 H 1393.26 0.641329 -0.396501 0
M  V30 14659 H 1395.91 1.08562 -1.47941 0
M  V30 14660 H 1394.29 3.71069 -1.38288 0
M  V30 14661 H 1395.47 2.4088 -3.92827 0
M  V30 14662 H 1393.78 2.30999 -3.46451 0
M  V30 14663 H 1396.38 4.83147 -2.2907 0
M  V30 14664 H 1396.72 4.09594 -0.744196 0
M  V30 14665 H 1397.26 3.28827 -2.23869 0
M  V30 14666 H 1394 4.08117 -5.12953 0
M  V30 14667 H 1393.52 4.81194 -3.58068 0
M  V30 14668 H 1395.19 4.95798 -4.15685 0
M  V30 14669 N 1395.33 1.05191 1.17357 0
M  V30 14670 C 1396.26 0.673931 2.23563 0
M  V30 14671 C 1397.24 -0.328284 1.66902 0
M  V30 14672 O 1398.42 -0.205878 1.93106 0
M  V30 14673 C 1395.55 0.0478801 3.47267 0
M  V30 14674 C 1394.51 0.974855 4.1675 0
M  V30 14675 C 1393.83 0.212684 5.34277 0
M  V30 14676 C 1395.13 2.299 4.68981 0
M  V30 14677 H 1396.83 1.56183 2.55436 0
M  V30 14678 H 1394.37 0.752408 1.2278 0
M  V30 14679 H 1396.33 -0.228343 4.20781 0
M  V30 14680 H 1395.05 -0.874963 3.14662 0
M  V30 14681 H 1393.71 1.23564 3.45148 0
M  V30 14682 H 1393.36 -0.712924 4.97922 0
M  V30 14683 H 1393.06 0.830351 5.81703 0
M  V30 14684 H 1394.58 -0.056255 6.10574 0
M  V30 14685 H 1395.99 2.08269 5.34132 0
M  V30 14686 H 1394.39 2.87064 5.26986 0
M  V30 14687 H 1395.46 2.93759 3.8579 0
M  V30 14688 N 1396.8 -1.33791 0.83293 0
M  V30 14689 C 1398.08 -1.9248 0.347955 0
M  V30 14690 C 1398.46 -1.75978 -1.16597 0
M  V30 14691 O 1397.81 -1.14456 -1.97768 0
M  V30 14692 C 1398.02 -3.3998 0.78831 0
M  V30 14693 C 1399.37 -4.17131 0.7929 0
M  V30 14694 O 1400.39 -3.48607 0.731533 0
M  V30 14695 O 1399.25 -5.39446 0.875223 0
M  V30 14696 H 1396.34 -0.821264 0.0972309 0
M  V30 14697 H 1398.89 -1.42702 0.918387 0
M  V30 14698 H 1397.66 -3.45836 1.83065 0
M  V30 14699 H 1397.29 -3.97126 0.194123 0
M  V30 14700 N 1398.28 -0.588812 -1.46187 0
M  V30 14701 C 1399.51 -0.0806571 -2.07243 0
M  V30 14702 C 1399.93 1.21766 -1.43369 0
M  V30 14703 O 1399.29 1.73694 -0.51964 0
M  V30 14704 C 1399.34 0.065267 -3.60541 0
M  V30 14705 O 1398.44 1.12026 -3.96893 0
M  V30 14706 H 1397.78 -0.0655622 -0.660755 0
M  V30 14707 H 1400.31 -0.813489 -1.87733 0
M  V30 14708 H 1400.32 0.269494 -4.07109 0
M  V30 14709 H 1399 -0.88284 -4.06422 0
M  V30 14710 H 1397.58 0.894 -3.62025 0
M  V30 14711 N 1399.76 1.54172 -0.326923 0
M  V30 14712 C 1400.71 2.21189 0.553126 0
M  V30 14713 C 1401.69 1.19356 1.07903 0
M  V30 14714 O 1402.89 1.44972 1.01549 0
M  V30 14715 C 1400.02 2.97573 1.71188 0
M  V30 14716 C 1399.1 4.06748 1.20071 0
M  V30 14717 N 1399.49 5.0414 0.409473 0
M  V30 14718 C 1397.79 4.20759 1.47913 0
M  V30 14719 C 1398.49 5.81546 0.134036 0
M  V30 14720 N 1397.47 5.38796 0.721097 0
M  V30 14721 H 1401.27 2.93841 -0.0586462 0
M  V30 14722 H 1398.78 1.61855 -0.132947 0
M  V30 14723 H 1400.78 3.44072 2.35415 0
M  V30 14724 H 1399.44 2.26443 2.32709 0
M  V30 14725 H 1400.45 5.17874 0.0520181 0
M  V30 14726 H 1397.13 3.60844 2.09995 0
M  V30 14727 H 1398.52 6.70013 -0.503156 0
M  V30 14728 N 1401.24 0.0551678 1.57503 0
M  V30 14729 C 1402.2 -0.903065 2.10659 0
M  V30 14730 C 1403.2 -1.23728 1.02703 0
M  V30 14731 O 1404.39 -1.17331 1.2876 0
M  V30 14732 C 1401.52 -2.21171 2.59415 0
M  V30 14733 H 1402.72 -0.442197 2.96622 0
M  V30 14734 H 1400.27 -0.193297 1.551 0
M  V30 14735 H 1401 -2.71831 1.76858 0
M  V30 14736 H 1400.79 -1.98216 3.38309 0
M  V30 14737 H 1402.28 -2.89802 3.00674 0
M  V30 14738 N 1402.72 -1.56081 -0.218252 0
M  V30 14739 C 1403.68 -1.91851 -1.25402 0
M  V30 14740 C 1404.68 -0.797399 -1.39636 0
M  V30 14741 O 1405.87 -1.06511 -1.37844 0
M  V30 14742 C 1403 -2.17223 -2.6273 0
M  V30 14743 H 1404.19 -2.84493 -0.948882 0
M  V30 14744 H 1401.75 -1.49414 -0.458809 0
M  V30 14745 H 1402.48 -1.27144 -2.98337 0
M  V30 14746 H 1402.27 -2.98899 -2.53775 0
M  V30 14747 H 1403.76 -2.45981 -3.37466 0
M  V30 14748 N 1404.2 0.485086 -1.49949 0
M  V30 14749 C 1405.42 1.26179 -1.63971 0
M  V30 14750 C 1405.84 1.86113 -0.317408 0
M  V30 14751 O 1405.2 1.68581 0.699038 0
M  V30 14752 C 1405.25 2.38062 -2.72046 0
M  V30 14753 O 1404.97 1.80588 -3.99149 0
M  V30 14754 C 1406.47 3.29174 -2.96916 0
M  V30 14755 H 1403.69 0.382122 -0.551565 0
M  V30 14756 H 1406.23 0.580607 -1.96085 0
M  V30 14757 H 1404.39 3.0198 -2.42666 0
M  V30 14758 H 1404.8 2.54159 -4.58807 0
M  V30 14759 H 1406.28 4.03922 -3.76233 0
M  V30 14760 H 1406.75 3.87123 -2.07443 0
M  V30 14761 H 1407.36 2.71006 -3.27774 0
M  V30 14762 N 1405.67 1.39291 0.737279 0
M  V30 14763 C 1406.6 1.40562 1.86452 0
M  V30 14764 C 1407.58 0.269283 1.67955 0
M  V30 14765 O 1408.77 0.474769 1.88307 0
M  V30 14766 C 1405.9 1.2461 3.24175 0
M  V30 14767 C 1404.85 2.35619 3.57306 0
M  V30 14768 C 1404.18 2.04758 4.93941 0
M  V30 14769 C 1405.48 3.77927 3.60512 0
M  V30 14770 H 1407.17 2.34896 1.85646 0
M  V30 14771 H 1404.72 1.13065 0.891756 0
M  V30 14772 H 1406.67 1.2412 4.02706 0
M  V30 14773 H 1405.4 0.267438 3.25503 0
M  V30 14774 H 1404.06 2.35322 2.81104 0
M  V30 14775 H 1403.7 1.05336 4.91847 0
M  V30 14776 H 1403.4 2.79117 5.17076 0
M  V30 14777 H 1404.93 2.05915 5.74832 0
M  V30 14778 H 1406.34 3.80166 4.29123 0
M  V30 14779 H 1404.74 4.51626 3.95164 0
M  V30 14780 H 1405.81 4.09068 2.60368 0
M  V30 14781 N 1407.15 -0.967221 1.24429 0
M  V30 14782 C 1408.1 -2.08315 1.03478 0
M  V30 14783 C 1409.09 -1.69373 -0.0304332 0
M  V30 14784 O 1410.3 -1.79571 0.124162 0
M  V30 14785 H 1406.67 -0.681638 0.317605 0
M  V30 14786 H 1408.65 -2.23148 1.9811 0
M  V30 14787 C 1407.39 -3.41441 0.656778 0
M  V30 14788 H 1406.72 -3.71865 1.4682 0
M  V30 14789 H 1408.16 -4.2042 0.549791 0
M  V30 14790 C 1406.62 -3.30839 -0.636154 0
M  V30 14791 O 1407.15 -3.64802 -1.68175 0
M  V30 14792 N 1405.35 -2.83973 -0.617052 0
M  V30 14793 H 1404.9 -2.56533 0.234179 0
M  V30 14794 H 1404.86 -2.77262 -1.48233 0
M  V30 14795 N 1408.63 -1.05812 -1.16797 0
M  V30 14796 C 1410.05 -0.780649 -1.39205 0
M  V30 14797 C 1410.25 0.622191 -1.91653 0
M  V30 14798 O 1409.3 1.38357 -2.11219 0
M  V30 14799 C 1410.61 -1.84148 -2.37718 0
M  V30 14800 C 1412.16 -1.86442 -2.51413 0
M  V30 14801 C 1412.64 -2.91566 -3.53204 0
M  V30 14802 N 1414.13 -2.90568 -3.60727 0
M  V30 14803 C 1414.86 -3.68556 -4.39265 0
M  V30 14804 N 1414.36 -4.56348 -5.21266 0
M  V30 14805 N 1416.15 -3.56969 -4.342 0
M  V30 14806 H 1408.3 -1.96313 -0.810871 0
M  V30 14807 H 1410.57 -0.850421 -0.418913 0
M  V30 14808 H 1410.27 -2.84864 -2.06265 0
M  V30 14809 H 1410.15 -1.68838 -3.37303 0
M  V30 14810 H 1412.53 -0.863873 -2.82172 0
M  V30 14811 H 1412.61 -2.0583 -1.5188 0
M  V30 14812 H 1412.26 -3.91811 -3.23182 0
M  V30 14813 H 1412.19 -2.69429 -4.52455 0
M  V30 14814 H 1414.68 -2.26918 -3.02186 0
M  V30 14815 H 1414.99 -5.12523 -5.78394 0
M  V30 14816 H 1413.34 -4.60406 -5.20626 0
M  V30 14817 H 1416.53 -2.87772 -3.69195 0
M  V30 14818 H 1416.7 -4.17993 -4.95162 0
M  V30 14819 N 1410.11 1.33347 -0.840014 0
M  V30 14820 C 1411.05 2.29191 -0.272048 0
M  V30 14821 C 1412.02 1.54383 0.612787 0
M  V30 14822 O 1413.21 1.82676 0.550812 0
M  V30 14823 C 1410.35 3.40755 0.545901 0
M  V30 14824 C 1409.46 4.30471 -0.363084 0
M  V30 14825 C 1408.6 5.29151 0.466078 0
M  V30 14826 C 1407.64 6.10508 -0.441225 0
M  V30 14827 N 1406.77 7.01228 0.349877 0
M  V30 14828 H 1411.61 2.77166 -1.09467 0
M  V30 14829 H 1409.15 1.36379 -0.551284 0
M  V30 14830 H 1411.11 4.04142 1.03562 0
M  V30 14831 H 1409.74 2.9397 1.33348 0
M  V30 14832 H 1408.79 3.67795 -0.971119 0
M  V30 14833 H 1410.1 4.87406 -1.06002 0
M  V30 14834 H 1409.26 5.98072 1.01957 0
M  V30 14835 H 1408 4.72796 1.19644 0
M  V30 14836 H 1407 5.40504 -1.00672 0
M  V30 14837 H 1408.23 6.68946 -1.16997 0
M  V30 14838 H 1406.17 6.4732 1.0636 0
M  V30 14839 H 1406.09 7.5545 -0.288317 0
M  V30 14840 H 1407.36 7.74453 0.885573 0
M  V30 14841 N 1411.59 0.596556 1.45873 0
M  V30 14842 C 1412.81 0.0916466 2.07197 0
M  V30 14843 C 1413.24 -1.21004 1.44012 0
M  V30 14844 O 1412.59 -1.73415 0.528844 0
M  V30 14845 C 1412.64 -0.0461457 3.6057 0
M  V30 14846 O 1411.75 -1.09919 3.97481 0
M  V30 14847 H 1411.09 0.0690655 0.660398 0
M  V30 14848 H 1413.62 0.823434 1.87299 0
M  V30 14849 H 1413.63 -0.2479 4.07246 0
M  V30 14850 H 1412.3 0.904381 4.05948 0
M  V30 14851 H 1410.88 -0.874788 3.62494 0
M  V30 14852 N 1413.06 -1.53996 0.335095 0
M  V30 14853 C 1413.97 -2.28436 -0.534244 0
M  V30 14854 C 1414.99 -1.33224 -1.11926 0
M  V30 14855 O 1416.17 -1.66252 -1.13676 0
M  V30 14856 C 1413.23 -3.03634 -1.67354 0
M  V30 14857 C 1412.29 -4.14455 -1.11916 0
M  V30 14858 C 1411.52 -4.86058 -2.20416 0
M  V30 14859 O 1411.75 -4.57263 -3.40979 0
M  V30 14860 O 1410.68 -5.72704 -1.85185 0
M  V30 14861 H 1414.51 -3.03618 0.0706314 0
M  V30 14862 H 1412.09 -1.49062 0.100409 0
M  V30 14863 H 1413.97 -3.50687 -2.33659 0
M  V30 14864 H 1412.65 -2.31317 -2.26438 0
M  V30 14865 H 1411.56 -3.71725 -0.420871 0
M  V30 14866 H 1412.89 -4.8885 -0.573295 0
M  V30 14867 N 1414.54 -0.0635198 -1.57472 0
M  V30 14868 C 1415.96 0.293084 -1.56886 0
M  V30 14869 C 1416.16 1.70603 -1.07224 0
M  V30 14870 O 1415.21 2.41584 -0.734388 0
M  V30 14871 C 1416.53 0.110286 -3.00498 0
M  V30 14872 C 1418.07 0.180453 -3.12479 0
M  V30 14873 C 1418.55 0.0260354 -4.57993 0
M  V30 14874 N 1420.04 0.0819109 -4.63128 0
M  V30 14875 C 1420.78 -0.0132764 -5.73398 0
M  V30 14876 N 1420.27 -0.161514 -6.92612 0
M  V30 14877 N 1422.06 0.0431948 -5.62083 0
M  V30 14878 H 1414.22 -0.98706 -1.88072 0
M  V30 14879 H 1416.48 -0.384232 -0.866643 0
M  V30 14880 H 1416.18 -0.864378 -3.40913 0
M  V30 14881 H 1416.06 0.866117 -3.67122 0
M  V30 14882 H 1418.45 1.1456 -2.71956 0
M  V30 14883 H 1418.53 -0.606342 -2.4851 0
M  V30 14884 H 1418.17 -0.935839 -4.99204 0
M  V30 14885 H 1418.1 0.832131 -5.19984 0
M  V30 14886 H 1420.59 0.195229 -3.77395 0
M  V30 14887 H 1420.9 -0.226517 -7.72468 0
M  V30 14888 H 1419.25 -0.196766 -6.94721 0
M  V30 14889 H 1422.44 0.157648 -4.67834 0
M  V30 14890 H 1422.61 -0.0344435 -6.47991 0
M  V30 14891 N 1416.02 1.56195 0.209972 0
M  V30 14892 C 1416.93 1.96539 1.28101 0
M  V30 14893 C 1417.95 0.870858 1.50639 0
M  V30 14894 O 1419.12 1.17539 1.63544 0
M  V30 14895 C 1416.19 2.28392 2.60841 0
M  V30 14896 C 1415.25 3.51474 2.46505 0
M  V30 14897 C 1414.48 3.81798 3.72915 0
M  V30 14898 O 1414.7 3.13627 4.76439 0
M  V30 14899 O 1413.64 4.75264 3.69334 0
M  V30 14900 H 1417.46 2.87838 0.968671 0
M  V30 14901 H 1415.05 1.43556 0.413777 0
M  V30 14902 H 1416.93 2.50022 3.39215 0
M  V30 14903 H 1415.61 1.40264 2.91732 0
M  V30 14904 H 1414.51 3.35109 1.66292 0
M  V30 14905 H 1415.85 4.40021 2.2055 0
M  V30 14906 N 1417.5 -0.477127 1.50204 0
M  V30 14907 C 1418.74 -1.23147 1.6113 0
M  V30 14908 C 1419.08 -1.91743 0.307909 0
M  V30 14909 O 1418.35 -1.81841 -0.690223 0
M  V30 14910 C 1418.63 -2.27985 2.78738 0
M  V30 14911 C 1418.49 -1.63733 4.18941 0
M  V30 14912 C 1419.81 -3.29349 2.9192 0
M  V30 14913 H 1416.93 -0.446358 0.586459 0
M  V30 14914 H 1419.57 -0.52612 1.8257 0
M  V30 14915 H 1417.72 -2.88143 2.60588 0
M  V30 14916 H 1419.39 -1.07218 4.48667 0
M  V30 14917 H 1417.63 -0.940634 4.23479 0
M  V30 14918 H 1418.3 -2.39888 4.9715 0
M  V30 14919 H 1420.78 -2.79208 3.08516 0
M  V30 14920 H 1419.66 -4.0004 3.75845 0
M  V30 14921 H 1419.92 -3.93111 2.02278 0
M  V30 14922 N 1418.98 -1.3968 -0.729882 0
M  V30 14923 C 1420.22 -1.37182 -1.48954 0
M  V30 14924 C 1420.55 0.0305728 -1.94476 0
M  V30 14925 O 1419.81 1.0124 -1.67478 0
M  V30 14926 C 1420.11 -2.29499 -2.7398 0
M  V30 14927 C 1419.77 -3.77034 -2.47298 0
M  V30 14928 C 1418.43 -4.17232 -2.39731 0
M  V30 14929 C 1420.79 -4.70325 -2.24597 0
M  V30 14930 C 1418.11 -5.48777 -2.07511 0
M  V30 14931 C 1420.47 -6.02153 -1.93893 0
M  V30 14932 C 1419.13 -6.41409 -1.84798 0
M  V30 14933 H 1418.4 -0.501985 -0.545061 0
M  V30 14934 H 1421.05 -1.72226 -0.837294 0
M  V30 14935 H 1419.35 -1.87592 -3.43972 0
M  V30 14936 H 1421.05 -2.24857 -3.32024 0
M  V30 14937 H 1417.64 -3.45177 -2.54069 0
M  V30 14938 H 1421.82 -4.40097 -2.29408 0
M  V30 14939 H 1417.08 -5.78109 -1.98996 0
M  V30 14940 H 1421.25 -6.73966 -1.75337 0
M  V30 14941 H 1418.88 -7.43258 -1.59598 0
M  V30 14942 N 1420.45 0.960609 -1.2494 0
M  V30 14943 C 1421.7 1.70448 -1.09333 0
M  V30 14944 C 1422.03 1.91012 0.366687 0
M  V30 14945 O 1421.28 1.4743 1.28697 0
M  V30 14946 C 1421.58 3.09564 -1.78619 0
M  V30 14947 C 1421.25 3.08819 -3.28545 0
M  V30 14948 C 1419.91 3.08323 -3.69446 0
M  V30 14949 C 1422.26 3.02606 -4.24357 0
M  V30 14950 C 1419.59 2.99356 -5.04582 0
M  V30 14951 C 1421.94 2.9518 -5.5951 0
M  V30 14952 C 1420.61 2.93017 -5.99748 0
M  V30 14953 H 1419.88 0.623714 -0.400078 0
M  V30 14954 H 1422.52 1.12273 -1.55136 0
M  V30 14955 H 1420.83 3.71247 -1.2523 0
M  V30 14956 H 1422.53 3.6593 -1.64001 0
M  V30 14957 H 1419.12 3.09974 -2.95997 0
M  V30 14958 H 1423.3 3.02113 -3.93753 0
M  V30 14959 H 1418.56 2.96046 -5.34946 0
M  V30 14960 H 1422.73 2.89333 -6.3345 0
M  V30 14961 H 1420.36 2.85824 -7.04421 0
M  V30 14962 N 1421.93 1.0643 1.16234 0
M  V30 14963 C 1422.87 0.620534 2.19601 0
M  V30 14964 C 1423.84 -0.35739 1.58624 0
M  V30 14965 O 1425.03 -0.266037 1.86613 0
M  V30 14966 C 1422.15 -0.0901061 3.3858 0
M  V30 14967 C 1421.2 0.844789 4.1805 0
M  V30 14968 S 1422.03 2.34077 4.81631 0
M  V30 14969 C 1423.19 1.64167 6.03987 0
M  V30 14970 H 1423.42 1.49626 2.56903 0
M  V30 14971 H 1420.96 0.877398 1.27048 0
M  V30 14972 H 1422.91 -0.493891 4.07518 0
M  V30 14973 H 1421.57 -0.942042 2.9964 0
M  V30 14974 H 1420.77 0.294135 5.03141 0
M  V30 14975 H 1420.37 1.18852 3.54613 0
M  V30 14976 H 1422.66 0.948043 6.70834 0
M  V30 14977 H 1423.6 2.47054 6.63604 0
M  V30 14978 H 1424.01 1.12366 5.53203 0
M  V30 14979 N 1423.41 -1.329 0.847073 0
M  V30 14980 C 1424.36 -2.3097 0.27487 0
M  V30 14981 C 1425.35 -1.58508 -0.597625 0
M  V30 14982 O 1426.56 -1.73307 -0.486273 0
M  V30 14983 H 1422.93 -0.748719 0.0701719 0
M  V30 14984 H 1424.9 -2.7673 1.11638 0
M  V30 14985 C 1423.65 -3.43662 -0.528363 0
M  V30 14986 H 1422.98 -3.99576 0.133707 0
M  V30 14987 H 1424.42 -4.14458 -0.894443 0
M  V30 14988 C 1422.88 -2.90244 -1.71055 0
M  V30 14989 O 1423.41 -2.87109 -2.80947 0
M  V30 14990 N 1421.61 -2.46743 -1.53512 0
M  V30 14991 H 1421.16 -2.49493 -0.641181 0
M  V30 14992 H 1421.12 -2.11356 -2.32757 0
M  V30 14993 N 1424.89 -0.604284 -1.45555 0
M  V30 14994 C 1426.12 -0.104452 -2.06636 0
M  V30 14995 C 1426.53 1.20976 -1.44949 0
M  V30 14996 O 1425.89 1.73616 -0.562468 0
M  V30 14997 C 1425.94 0.0451646 -3.61472 0
M  V30 14998 O 1425.66 -1.21705 -4.20856 0
M  V30 14999 C 1427.16 0.57684 -4.39531 0
M  V30 15000 H 1424.38 -0.067326 -0.667614 0
M  V30 15001 H 1426.93 -0.831079 -1.86851 0
M  V30 15002 H 1425.08 0.722104 -3.80611 0
M  V30 15003 H 1425.49 -1.04462 -5.13992 0
M  V30 15004 H 1426.97 0.630627 -5.48386 0
M  V30 15005 H 1427.45 1.59842 -4.09081 0
M  V30 15006 H 1428.05 -0.0659444 -4.25249 0
M  V30 15007 N 1426.37 1.53816 -0.343257 0
M  V30 15008 C 1427.3 2.22552 0.548015 0
M  V30 15009 C 1428.31 1.23202 1.06419 0
M  V30 15010 O 1429.5 1.49559 0.974394 0
M  V30 15011 C 1426.6 2.89197 1.76687 0
M  V30 15012 C 1425.77 4.14859 1.38603 0
M  V30 15013 C 1424.83 4.64917 2.46453 0
M  V30 15014 O 1423.86 5.29135 2.09773 0
M  V30 15015 N 1425.06 4.4082 3.77701 0
M  V30 15016 H 1427.83 2.99672 -0.040645 0
M  V30 15017 H 1425.39 1.61033 -0.167368 0
M  V30 15018 H 1427.38 3.19601 2.48268 0
M  V30 15019 H 1425.95 2.15664 2.26291 0
M  V30 15020 H 1425.17 3.91003 0.501001 0
M  V30 15021 H 1426.46 4.96599 1.10756 0
M  V30 15022 H 1425.85 3.8946 4.1029 0
M  V30 15023 H 1424.41 4.7583 4.45453 0
M  V30 15024 N 1427.84 0.0718701 1.57436 0
M  V30 15025 C 1429.07 -0.609701 1.98236 0
M  V30 15026 C 1429.49 -1.6235 0.949959 0
M  V30 15027 O 1428.85 -1.81103 -0.0844281 0
M  V30 15028 C 1428.9 -1.2547 3.38068 0
M  V30 15029 O 1428 -2.37055 3.37459 0
M  V30 15030 H 1427.35 -0.15679 0.645223 0
M  V30 15031 H 1429.88 0.146407 2.04076 0
M  V30 15032 H 1429.89 -1.60152 3.75254 0
M  V30 15033 H 1428.56 -0.511842 4.12738 0
M  V30 15034 H 1427.14 -2.04165 3.12043 0
M  V30 15035 N 1429.32 -1.56304 -0.201686 0
M  V30 15036 C 1430.57 -1.79433 -0.921241 0
M  V30 15037 C 1430.88 -0.643943 -1.84696 0
M  V30 15038 O 1432.09 -0.759359 -2.60665 0
M  V30 15039 C 1430.55 -3.17835 -1.68846 0
M  V30 15040 C 1430.15 -4.40655 -0.807892 0
M  V30 15041 C 1431.9 -3.50277 -2.39805 0
M  V30 15042 C 1429.81 -5.7008 -1.5736 0
M  V30 15043 H 1428.74 -0.669029 -0.34773 0
M  V30 15044 H 1431.39 -1.82667 -0.174657 0
M  V30 15045 H 1429.77 -3.08832 -2.47869 0
M  V30 15046 H 1430.94 -4.60765 -0.0567923 0
M  V30 15047 H 1429.26 -4.15873 -0.209465 0
M  V30 15048 H 1431.85 -4.44207 -2.97631 0
M  V30 15049 H 1432.2 -2.7371 -3.1367 0
M  V30 15050 H 1432.73 -3.60698 -1.67754 0
M  V30 15051 H 1429.47 -6.49595 -0.877855 0
M  V30 15052 H 1428.99 -5.53999 -2.2988 0
M  V30 15053 H 1430.67 -6.10964 -2.12912 0
M  V30 15054 N 1430.8 0.469154 -1.50455 0
M  V30 15055 C 1432.05 1.2229 -1.6178 0
M  V30 15056 C 1432.38 1.91577 -0.318073 0
M  V30 15057 O 1431.65 1.82205 0.68057 0
M  V30 15058 C 1431.94 2.26504 -2.79943 0
M  V30 15059 C 1431.79 1.61509 -4.19804 0
M  V30 15060 C 1433.11 3.27796 -2.93662 0
M  V30 15061 H 1430.23 0.443241 -0.588817 0
M  V30 15062 H 1432.87 0.516431 -1.82847 0
M  V30 15063 H 1431.02 2.86757 -2.62112 0
M  V30 15064 H 1432.69 1.04838 -4.49229 0
M  V30 15065 H 1430.94 0.918162 -4.23972 0
M  V30 15066 H 1431.61 2.37248 -4.98415 0
M  V30 15067 H 1434.08 2.77568 -3.09992 0
M  V30 15068 H 1432.96 3.98041 -3.77961 0
M  V30 15069 H 1433.22 3.92033 -2.04359 0
M  V30 15070 N 1432.28 1.40065 0.722464 0
M  V30 15071 C 1433.21 1.35695 1.84715 0
M  V30 15072 C 1434.22 0.263522 1.60653 0
M  V30 15073 O 1435.41 0.523382 1.70655 0
M  V30 15074 C 1432.51 1.08722 3.20987 0
M  V30 15075 C 1431.69 2.29586 3.72302 0
M  V30 15076 C 1430.74 1.98879 4.87169 0
M  V30 15077 O 1429.77 2.71681 5.00178 0
M  V30 15078 N 1430.97 0.962554 5.72464 0
M  V30 15079 H 1433.74 2.32621 1.88964 0
M  V30 15080 H 1431.3 1.3433 0.903723 0
M  V30 15081 H 1433.29 0.861772 3.95418 0
M  V30 15082 H 1431.86 0.204869 3.11928 0
M  V30 15083 H 1431.08 2.68004 2.8908 0
M  V30 15084 H 1432.37 3.10176 4.03322 0
M  V30 15085 H 1431.77 0.359452 5.64557 0
M  V30 15086 H 1430.32 0.797003 6.46909 0
M  V30 15087 N 1433.76 -0.95397 1.25448 0
M  V30 15088 C 1434.69 -2.06828 1.08372 0
M  V30 15089 C 1435.67 -1.70098 -0.00741585 0
M  V30 15090 O 1436.85 -1.93521 0.16224 0
M  V30 15091 C 1433.98 -3.40124 0.702365 0
M  V30 15092 C 1432.94 -3.90865 1.74381 0
M  V30 15093 C 1432.26 -5.20663 1.21712 0
M  V30 15094 C 1433.56 -4.17169 3.14273 0
M  V30 15095 H 1435.26 -2.21372 2.01581 0
M  V30 15096 H 1432.8 -1.06374 0.970592 0
M  V30 15097 H 1434.76 -4.17529 0.569837 0
M  V30 15098 H 1433.48 -3.2552 -0.265428 0
M  V30 15099 H 1432.14 -3.15628 1.86479 0
M  V30 15100 H 1431.79 -5.02429 0.23954 0
M  V30 15101 H 1431.49 -5.55581 1.91319 0
M  V30 15102 H 1433.01 -6.00665 1.097 0
M  V30 15103 H 1434.43 -4.85231 3.05325 0
M  V30 15104 H 1432.82 -4.63344 3.81356 0
M  V30 15105 H 1433.89 -3.23421 3.61285 0
M  V30 15106 N 1435.24 -1.07045 -1.15668 0
M  V30 15107 C 1436.48 -0.792908 -1.86657 0
M  V30 15108 C 1436.81 0.679213 -1.81935 0
M  V30 15109 O 1436.09 1.49822 -1.2403 0
M  V30 15110 C 1436.37 -1.2978 -3.35901 0
M  V30 15111 C 1436.23 -2.83424 -3.49272 0
M  V30 15112 C 1437.54 -0.911821 -4.30551 0
M  V30 15113 H 1434.66 -0.289509 -0.677756 0
M  V30 15114 H 1437.31 -1.32769 -1.35913 0
M  V30 15115 H 1435.46 -0.84288 -3.79246 0
M  V30 15116 H 1437.13 -3.37182 -3.14811 0
M  V30 15117 H 1435.37 -3.21777 -2.90933 0
M  V30 15118 H 1436.04 -3.13819 -4.54116 0
M  V30 15119 H 1438.52 -1.30376 -3.95147 0
M  V30 15120 H 1437.39 -1.29247 -5.33467 0
M  V30 15121 H 1437.65 0.18255 -4.41723 0
M  V30 15122 N 1436.71 1.32449 -0.85411 0
M  V30 15123 C 1437.65 2.2777 -0.255605 0
M  V30 15124 C 1438.66 1.52407 0.572355 0
M  V30 15125 O 1439.85 1.74031 0.396935 0
M  V30 15126 C 1436.95 3.32461 0.657496 0
M  V30 15127 C 1436.12 4.37193 -0.134492 0
M  V30 15128 C 1435.18 5.21465 0.704288 0
M  V30 15129 O 1434.21 5.69033 0.138001 0
M  V30 15130 N 1435.41 5.44254 2.01911 0
M  V30 15131 H 1438.17 2.79769 -1.07468 0
M  V30 15132 H 1435.73 1.45304 -0.714038 0
M  V30 15133 H 1437.73 3.85748 1.22396 0
M  V30 15134 H 1436.3 2.80625 1.37726 0
M  V30 15135 H 1435.52 3.84198 -0.882378 0
M  V30 15136 H 1436.8 5.04256 -0.678508 0
M  V30 15137 H 1436.2 5.07336 2.50252 0
M  V30 15138 H 1434.76 6.00538 2.53371 0
M  V30 15139 N 1438.19 0.611994 1.45232 0
M  V30 15140 C 1439.61 0.276005 1.57195 0
M  V30 15141 C 1439.81 -1.22136 1.60266 0
M  V30 15142 O 1438.86 -2.00459 1.53533 0
M  V30 15143 C 1440.18 0.951064 2.85263 0
M  V30 15144 C 1441.72 0.927398 2.98945 0
M  V30 15145 C 1442.2 1.58255 4.2979 0
M  V30 15146 N 1443.69 1.54825 4.36559 0
M  V30 15147 C 1444.43 2.02428 5.3648 0
M  V30 15148 N 1443.92 2.58137 6.42913 0
M  V30 15149 N 1445.71 1.9317 5.27865 0
M  V30 15150 H 1437.87 1.58418 1.41483 0
M  V30 15151 H 1440.13 0.663879 0.676734 0
M  V30 15152 H 1439.83 2.00557 2.88912 0
M  V30 15153 H 1439.71 0.477044 3.74171 0
M  V30 15154 H 1442.1 -0.118571 2.94862 0
M  V30 15155 H 1442.18 1.43973 2.11437 0
M  V30 15156 H 1441.82 2.62787 4.34632 0
M  V30 15157 H 1441.75 1.04521 5.16123 0
M  V30 15158 H 1444.24 1.14133 3.60253 0
M  V30 15159 H 1444.55 2.92243 7.15412 0
M  V30 15160 H 1442.9 2.62179 6.43652 0
M  V30 15161 H 1446.09 1.49384 4.43624 0
M  V30 15162 H 1446.26 2.30582 6.05587 0
M  V30 15163 N 1439.67 -1.53632 0.351409 0
M  V30 15164 C 1440.9 -2.0516 -0.243498 0
M  V30 15165 C 1441.31 -1.22559 -1.44138 0
M  V30 15166 O 1440.65 -0.255726 -1.81911 0
M  V30 15167 C 1440.71 -3.52324 -0.71469 0
M  V30 15168 C 1440.38 -4.55543 0.364598 0
M  V30 15169 C 1441.37 -5.05626 1.20987 0
M  V30 15170 C 1439.06 -4.99593 0.520779 0
M  V30 15171 C 1441.05 -5.98347 2.1968 0
M  V30 15172 C 1438.74 -5.92123 1.51109 0
M  V30 15173 C 1439.74 -6.41389 2.34754 0
M  V30 15174 O 1439.43 -7.32097 3.32098 0
M  V30 15175 H 1439.16 -0.674193 -0.0493948 0
M  V30 15176 H 1441.71 -1.99123 0.503919 0
M  V30 15177 H 1439.94 -3.55852 -1.51348 0
M  V30 15178 H 1441.63 -3.86783 -1.23102 0
M  V30 15179 H 1442.4 -4.72353 1.10033 0
M  V30 15180 H 1438.28 -4.60843 -0.120466 0
M  V30 15181 H 1441.82 -6.36724 2.85005 0
M  V30 15182 H 1437.72 -6.24811 1.62116 0
M  V30 15183 H 1438.48 -7.50053 3.27662 0
M  V30 15184 N 1441.15 -0.0802183 -1.57396 0
M  V30 15185 C 1442.56 0.276428 -1.57188 0
M  V30 15186 C 1442.76 1.69456 -1.09027 0
M  V30 15187 O 1441.82 2.40792 -0.75997 0
M  V30 15188 C 1443.13 0.0784079 -3.00598 0
M  V30 15189 C 1444.68 0.1473 -3.12653 0
M  V30 15190 C 1445.16 -0.0225423 -4.57994 0
M  V30 15191 N 1446.65 0.0327854 -4.63188 0
M  V30 15192 C 1447.38 -0.0740922 -5.73352 0
M  V30 15193 N 1446.88 -0.234966 -6.92401 0
M  V30 15194 N 1448.67 -0.0164241 -5.62098 0
M  V30 15195 H 1440.82 -1.00695 -1.87014 0
M  V30 15196 H 1443.08 -0.393402 -0.862519 0
M  V30 15197 H 1442.79 -0.900488 -3.39977 0
M  V30 15198 H 1442.66 0.82713 -3.6802 0
M  V30 15199 H 1445.05 1.11669 -2.73156 0
M  V30 15200 H 1445.13 -0.632666 -2.47853 0
M  V30 15201 H 1444.78 -0.988733 -4.98183 0
M  V30 15202 H 1444.71 0.776933 -5.20837 0
M  V30 15203 H 1447.2 0.15519 -3.77581 0
M  V30 15204 H 1447.51 -0.308435 -7.72184 0
M  V30 15205 H 1445.86 -0.270439 -6.94474 0
M  V30 15206 H 1449.05 0.108019 -4.67975 0
M  V30 15207 H 1449.22 -0.10317 -6.47918 0
M  V30 15208 N 1442.63 1.56409 0.193394 0
M  V30 15209 C 1443.85 1.8519 0.933775 0
M  V30 15210 C 1444.28 0.663991 1.75991 0
M  V30 15211 O 1443.63 -0.387198 1.77117 0
M  V30 15212 C 1443.68 3.12212 1.80432 0
M  V30 15213 O 1442.79 2.92884 2.90332 0
M  V30 15214 H 1442.13 0.609754 0.262862 0
M  V30 15215 H 1444.66 2.03638 0.198195 0
M  V30 15216 H 1444.67 3.4305 2.20864 0
M  V30 15217 H 1443.34 3.98292 1.19733 0
M  V30 15218 H 1441.92 2.73349 2.53643 0
M  V30 15219 N 1444.1 -0.461169 1.50702 0
M  V30 15220 C 1445.35 -1.21012 1.61866 0
M  V30 15221 C 1445.67 -1.9226 0.325736 0
M  V30 15222 O 1444.94 -1.84543 -0.657306 0
M  V30 15223 H 1443.52 -0.449671 0.596494 0
M  V30 15224 H 1446.18 -0.531056 1.87525 0
M  V30 15225 H 1445.28 -1.95266 2.4347 0
M  V30 15226 N 1445.58 -1.40446 -0.715026 0
M  V30 15227 C 1446.83 -1.38059 -1.47046 0
M  V30 15228 C 1447.14 0.0139125 -1.95595 0
M  V30 15229 O 1448.35 0.160398 -2.71026 0
M  V30 15230 C 1446.81 -2.42646 -2.65802 0
M  V30 15231 C 1446.41 -3.8791 -2.2412 0
M  V30 15232 C 1448.16 -2.49367 -3.43535 0
M  V30 15233 C 1446.06 -4.84092 -3.39719 0
M  V30 15234 H 1444.99 -0.513341 -0.552265 0
M  V30 15235 H 1447.65 -1.66185 -0.778126 0
M  V30 15236 H 1446.03 -2.07621 -3.37208 0
M  V30 15237 H 1447.2 -4.32082 -1.6013 0
M  V30 15238 H 1445.52 -3.8467 -1.5943 0
M  V30 15239 H 1448.11 -3.18414 -4.29554 0
M  V30 15240 H 1448.46 -1.52436 -3.87388 0
M  V30 15241 H 1448.99 -2.83386 -2.79173 0
M  V30 15242 H 1445.73 -5.82358 -3.00898 0
M  V30 15243 H 1445.25 -4.44584 -4.02623 0
M  V30 15244 H 1446.93 -5.03939 -4.05776 0
M  V30 15245 N 1447.06 0.947303 -1.25952 0
M  V30 15246 C 1448.48 1.21972 -1.02932 0
M  V30 15247 C 1448.68 1.99951 0.249333 0
M  V30 15248 O 1447.73 2.33534 0.960108 0
M  V30 15249 C 1449.04 1.98695 -2.257 0
M  V30 15250 C 1450.59 2.11711 -2.30538 0
M  V30 15251 C 1451.07 2.91835 -3.52982 0
M  V30 15252 N 1452.56 2.99411 -3.53422 0
M  V30 15253 C 1453.29 3.6182 -4.4483 0
M  V30 15254 N 1452.79 4.25781 -5.46519 0
M  V30 15255 N 1454.58 3.59033 -4.32495 0
M  V30 15256 H 1446.73 0.42583 -2.08088 0
M  V30 15257 H 1449 0.250899 -0.914196 0
M  V30 15258 H 1448.7 1.48801 -3.18671 0
M  V30 15259 H 1448.58 2.9938 -2.29459 0
M  V30 15260 H 1450.96 2.608 -1.38085 0
M  V30 15261 H 1451.04 1.10308 -2.30794 0
M  V30 15262 H 1450.69 2.43435 -4.4576 0
M  V30 15263 H 1450.62 3.9348 -3.49973 0
M  V30 15264 H 1453.11 2.53934 -2.79868 0
M  V30 15265 H 1453.42 4.71281 -6.12466 0
M  V30 15266 H 1451.77 4.24386 -5.50383 0
M  V30 15267 H 1454.96 3.08254 -3.52274 0
M  V30 15268 H 1455.13 4.07384 -5.03927 0
M  V30 15269 N 1448.54 1.07657 1.15099 0
M  V30 15270 C 1449.79 0.800025 1.85591 0
M  V30 15271 C 1450.11 -0.675973 1.82909 0
M  V30 15272 O 1449.38 -1.48971 1.27218 0
M  V30 15273 H 1447.96 0.292958 0.687157 0
M  V30 15274 H 1450.62 1.36096 1.39513 0
M  V30 15275 H 1449.72 1.13733 2.90639 0
M  V30 15276 N 1450.02 -1.31994 0.861122 0
M  V30 15277 C 1450.97 -2.26248 0.282123 0
M  V30 15278 C 1451.95 -1.50246 -0.57575 0
M  V30 15279 O 1453.14 -1.71845 -0.424075 0
M  V30 15280 C 1450.27 -3.39293 -0.523011 0
M  V30 15281 C 1449.36 -4.22673 0.34761 0
M  V30 15282 N 1449.75 -4.8496 1.43692 0
M  V30 15283 C 1448.05 -4.45785 0.138488 0
M  V30 15284 C 1448.75 -5.47215 1.97307 0
M  V30 15285 N 1447.72 -5.28525 1.27132 0
M  V30 15286 H 1451.53 -2.71936 1.11481 0
M  V30 15287 H 1449.04 -1.46158 0.707928 0
M  V30 15288 H 1451.04 -4.05832 -0.954269 0
M  V30 15289 H 1449.7 -2.95149 -1.35341 0
M  V30 15290 H 1450.71 -4.84873 1.81985 0
M  V30 15291 H 1447.38 -4.12303 -0.656677 0
M  V30 15292 H 1448.77 -6.06737 2.88652 0
M  V30 15293 N 1451.49 -0.619688 -1.44906 0
M  V30 15294 C 1452.43 0.141137 -2.27763 0
M  V30 15295 C 1453.41 0.862176 -1.3786 0
M  V30 15296 O 1454.59 0.868593 -1.67295 0
M  V30 15297 C 1451.72 1.20547 -3.16522 0
M  V30 15298 C 1450.76 0.586228 -4.22452 0
M  V30 15299 S 1451.6 -0.615067 -5.31956 0
M  V30 15300 C 1452.75 0.449556 -6.24283 0
M  V30 15301 H 1452.98 -0.561806 -2.91944 0
M  V30 15302 H 1450.52 -0.407535 -1.48925 0
M  V30 15303 H 1452.48 1.81463 -3.68214 0
M  V30 15304 H 1451.14 1.88054 -2.51584 0
M  V30 15305 H 1450.33 1.38744 -4.84527 0
M  V30 15306 H 1449.93 0.0519375 -3.73964 0
M  V30 15307 H 1452.22 1.32531 -6.64411 0
M  V30 15308 H 1453.17 -0.135328 -7.07971 0
M  V30 15309 H 1453.57 0.770319 -5.59219 0
M  V30 15310 N 1452.97 1.53444 -0.359552 0
M  V30 15311 C 1453.92 2.25544 0.48977 0
M  V30 15312 C 1454.89 1.25982 1.08248 0
M  V30 15313 O 1456.07 1.54751 1.1161 0
M  V30 15314 C 1453.21 3.04358 1.62666 0
M  V30 15315 C 1452.33 4.18801 1.0597 0
M  V30 15316 C 1451.46 4.85069 2.1652 0
M  V30 15317 C 1450.5 5.91554 1.57259 0
M  V30 15318 N 1449.64 6.51537 2.61617 0
M  V30 15319 H 1454.48 2.97709 -0.13158 0
M  V30 15320 H 1452.02 1.469 -0.0767056 0
M  V30 15321 H 1453.97 3.48324 2.29623 0
M  V30 15322 H 1452.6 2.34459 2.21876 0
M  V30 15323 H 1451.66 3.79364 0.280599 0
M  V30 15324 H 1452.97 4.95341 0.586383 0
M  V30 15325 H 1452.12 5.32187 2.9131 0
M  V30 15326 H 1450.86 4.07988 2.67202 0
M  V30 15327 H 1449.87 5.43803 0.809818 0
M  V30 15328 H 1451.09 6.70552 1.07409 0
M  V30 15329 H 1449.04 5.77312 3.11523 0
M  V30 15330 H 1448.95 7.23599 2.18954 0
M  V30 15331 H 1450.22 7.03306 3.36127 0
M  V30 15332 N 1454.45 0.0885642 1.57351 0
M  V30 15333 C 1455.41 -0.858178 2.12528 0
M  V30 15334 C 1456.41 -1.21522 1.05304 0
M  V30 15335 O 1457.6 -1.14573 1.3122 0
M  V30 15336 C 1454.74 -2.15619 2.64048 0
M  V30 15337 H 1455.93 -0.37918 2.97493 0
M  V30 15338 H 1453.48 -0.160354 1.55475 0
M  V30 15339 H 1454.22 -2.68018 1.82584 0
M  V30 15340 H 1454 -1.90995 3.42437 0
M  V30 15341 H 1455.49 -2.83359 3.06753 0
M  V30 15342 N 1455.93 -1.56509 -0.185096 0
M  V30 15343 C 1457.17 -1.81474 -0.905263 0
M  V30 15344 C 1457.51 -0.664225 -1.82488 0
M  V30 15345 O 1456.78 0.33466 -1.91599 0
M  V30 15346 C 1457.07 -3.16754 -1.71287 0
M  V30 15347 C 1456.92 -4.42312 -0.817302 0
M  V30 15348 C 1458.24 -3.48828 -2.68342 0
M  V30 15349 H 1455.36 -0.660155 -0.327664 0
M  V30 15350 H 1458 -1.89219 -0.172129 0
M  V30 15351 H 1456.15 -3.10282 -2.33789 0
M  V30 15352 H 1457.82 -4.60839 -0.206218 0
M  V30 15353 H 1456.06 -4.33621 -0.124564 0
M  V30 15354 H 1456.73 -5.33487 -1.41758 0
M  V30 15355 H 1459.21 -3.55663 -2.15969 0
M  V30 15356 H 1458.09 -4.44585 -3.21924 0
M  V30 15357 H 1458.35 -2.72829 -3.47875 0
M  V30 15358 N 1457.41 0.45317 -1.50944 0
M  V30 15359 C 1458.65 1.20568 -1.63068 0
M  V30 15360 C 1458.99 1.91229 -0.338375 0
M  V30 15361 O 1458.26 1.82916 0.661207 0
M  V30 15362 C 1458.54 2.23522 -2.8233 0
M  V30 15363 C 1458.4 1.57047 -4.21493 0
M  V30 15364 C 1459.72 3.24663 -2.97123 0
M  V30 15365 H 1456.83 0.436971 -0.593486 0
M  V30 15366 H 1459.48 0.497008 -1.83384 0
M  V30 15367 H 1457.63 2.83961 -2.65139 0
M  V30 15368 H 1459.3 1.00067 -4.50316 0
M  V30 15369 H 1457.54 0.873143 -4.24922 0
M  V30 15370 H 1458.21 2.31949 -5.00903 0
M  V30 15371 H 1460.69 2.74264 -3.12919 0
M  V30 15372 H 1459.56 3.9401 -3.82161 0
M  V30 15373 H 1459.83 3.89843 -2.08506 0
M  V30 15374 N 1458.88 1.40823 0.707568 0
M  V30 15375 C 1459.82 1.36132 1.83149 0
M  V30 15376 C 1460.8 0.230423 1.60959 0
M  V30 15377 O 1461.98 0.415391 1.83866 0
M  V30 15378 C 1459.11 1.12055 3.19627 0
M  V30 15379 C 1458.15 2.27703 3.6063 0
M  V30 15380 S 1458.99 3.90134 3.66818 0
M  V30 15381 C 1460.14 3.68336 5.06043 0
M  V30 15382 H 1460.37 2.31246 1.86849 0
M  V30 15383 H 1457.91 1.27204 0.875126 0
M  V30 15384 H 1459.87 0.988486 3.98421 0
M  V30 15385 H 1458.53 0.185809 3.1355 0
M  V30 15386 H 1457.72 2.06519 4.59746 0
M  V30 15387 H 1457.32 2.37254 2.89114 0
M  V30 15388 H 1459.61 3.27299 5.93196 0
M  V30 15389 H 1460.56 4.67012 5.32265 0
M  V30 15390 H 1460.96 3.01856 4.77015 0
M  V30 15391 N 1460.36 -0.94061 1.26453 0
M  V30 15392 C 1461.64 -1.66421 1.02779 0
M  V30 15393 C 1462.02 -2.06429 -0.441614 0
M  V30 15394 O 1461.37 -1.78854 -1.42209 0
M  V30 15395 C 1461.58 -2.87599 1.97707 0
M  V30 15396 C 1462.93 -3.59237 2.26349 0
M  V30 15397 O 1463.95 -2.97704 1.95577 0
M  V30 15398 O 1462.81 -4.70068 2.78744 0
M  V30 15399 H 1459.9 -0.728813 0.390846 0
M  V30 15400 H 1462.45 -0.99229 1.37665 0
M  V30 15401 H 1461.22 -2.54929 2.96862 0
M  V30 15402 H 1460.84 -3.62516 1.63303 0
M  V30 15403 N 1461.84 -1.08266 -1.14527 0
M  V30 15404 C 1462.77 -0.732968 -2.21698 0
M  V30 15405 C 1463.75 0.283917 -1.67714 0
M  V30 15406 O 1464.94 0.154607 -1.93584 0
M  V30 15407 C 1462.07 -0.139935 -3.47018 0
M  V30 15408 C 1461.02 -1.08501 -4.14019 0
M  V30 15409 C 1460.35 -0.354263 -5.33525 0
M  V30 15410 C 1461.65 -2.42254 -4.62721 0
M  V30 15411 H 1463.34 -1.629 -2.51205 0
M  V30 15412 H 1460.89 -0.784696 -1.20742 0
M  V30 15413 H 1462.84 0.1167 -4.21238 0
M  V30 15414 H 1461.56 0.791228 -3.16871 0
M  V30 15415 H 1460.22 -1.32672 -3.41751 0
M  V30 15416 H 1459.87 0.580658 -4.99637 0
M  V30 15417 H 1459.57 -0.984287 -5.79297 0
M  V30 15418 H 1461.09 -0.105648 -6.10509 0
M  V30 15419 H 1462.51 -2.22357 -5.28422 0
M  V30 15420 H 1460.91 -3.00935 -5.1919 0
M  V30 15421 H 1461.98 -3.03884 -3.77866 0
M  V30 15422 N 1463.32 1.31536 -0.86811 0
M  V30 15423 C 1464.25 2.31037 -0.33822 0
M  V30 15424 C 1465.23 1.60269 0.569892 0
M  V30 15425 O 1466.42 1.87987 0.487305 0
M  V30 15426 C 1463.55 3.44203 0.462753 0
M  V30 15427 C 1462.5 4.26549 -0.3521 0
M  V30 15428 C 1461.83 5.31605 0.574443 0
M  V30 15429 C 1463.13 4.97665 -1.58516 0
M  V30 15430 H 1464.82 2.75607 -1.16967 0
M  V30 15431 H 1462.37 1.325 -0.56389 0
M  V30 15432 H 1464.32 4.12862 0.843967 0
M  V30 15433 H 1463.04 2.98396 1.32769 0
M  V30 15434 H 1461.7 3.59555 -0.715237 0
M  V30 15435 H 1461.35 4.82048 1.43661 0
M  V30 15436 H 1461.05 5.87591 0.0331436 0
M  V30 15437 H 1462.57 6.03124 0.952541 0
M  V30 15438 H 1463.99 5.58931 -1.27549 0
M  V30 15439 H 1462.38 5.63437 -2.06539 0
M  V30 15440 H 1463.45 4.24756 -2.33902 0
M  V30 15441 N 1464.8 0.627364 1.44575 0
M  V30 15442 C 1466.21 0.292662 1.56894 0
M  V30 15443 C 1466.41 -1.20429 1.61552 0
M  V30 15444 O 1465.47 -1.98819 1.55651 0
M  V30 15445 C 1466.78 0.981267 2.84239 0
M  V30 15446 C 1468.33 0.959053 2.97945 0
M  V30 15447 C 1468.81 1.62805 4.28087 0
M  V30 15448 N 1470.3 1.59446 4.34892 0
M  V30 15449 C 1471.03 2.08107 5.34302 0
M  V30 15450 N 1470.53 2.64942 6.40139 0
M  V30 15451 N 1472.32 1.98758 5.25787 0
M  V30 15452 H 1464.47 1.5991 1.39795 0
M  V30 15453 H 1466.73 0.671019 0.669655 0
M  V30 15454 H 1466.44 2.0361 2.86768 0
M  V30 15455 H 1466.31 0.516703 3.73644 0
M  V30 15456 H 1468.7 -0.0872902 2.94971 0
M  V30 15457 H 1468.78 1.46207 2.09898 0
M  V30 15458 H 1468.43 2.67382 4.31821 0
M  V30 15459 H 1468.36 1.09989 5.14985 0
M  V30 15460 H 1470.85 1.17947 3.59022 0
M  V30 15461 H 1471.16 2.99814 7.12272 0
M  V30 15462 H 1469.51 2.68991 6.40835 0
M  V30 15463 H 1472.7 1.54081 4.42014 0
M  V30 15464 H 1472.87 2.36992 6.03107 0
M  V30 15465 N 1466.28 -1.53251 0.367684 0
M  V30 15466 C 1467.21 -2.23396 -0.512539 0
M  V30 15467 C 1468.22 -1.2488 -1.04446 0
M  V30 15468 O 1469.41 -1.5109 -0.950477 0
M  V30 15469 C 1466.51 -2.91971 -1.72064 0
M  V30 15470 C 1465.68 -4.17011 -1.31986 0
M  V30 15471 C 1464.74 -4.68779 -2.39025 0
M  V30 15472 O 1463.77 -5.32405 -2.01328 0
M  V30 15473 N 1464.97 -4.46773 -3.7064 0
M  V30 15474 H 1467.73 -2.9957 0.0883152 0
M  V30 15475 H 1465.3 -1.60746 0.192966 0
M  V30 15476 H 1467.29 -3.23511 -2.43152 0
M  V30 15477 H 1465.86 -2.19237 -2.22831 0
M  V30 15478 H 1465.08 -3.91751 -0.438732 0
M  V30 15479 H 1466.37 -4.98298 -1.02842 0
M  V30 15480 H 1465.76 -3.95938 -4.04042 0
M  V30 15481 H 1464.32 -4.82857 -4.37827 0
M  V30 15482 N 1467.75 -0.0969077 -1.57302 0
M  V30 15483 C 1468.98 0.573872 -1.9847 0
M  V30 15484 C 1469.39 1.62149 -0.974894 0
M  V30 15485 O 1468.73 1.83649 0.0434873 0
M  V30 15486 C 1468.8 1.2781 -3.36013 0
M  V30 15487 C 1468.46 0.381022 -4.55409 0
M  V30 15488 C 1469.46 -0.371559 -5.18571 0
M  V30 15489 C 1467.14 0.29855 -5.01412 0
M  V30 15490 C 1469.14 -1.19457 -6.26106 0
M  V30 15491 C 1466.82 -0.528116 -6.08814 0
M  V30 15492 C 1467.82 -1.27333 -6.71026 0
M  V30 15493 O 1467.51 -2.08631 -7.76356 0
M  V30 15494 H 1467.24 0.158369 -0.657187 0
M  V30 15495 H 1469.8 -0.173415 -2.04667 0
M  V30 15496 H 1468.03 2.07199 -3.26505 0
M  V30 15497 H 1469.71 1.84359 -3.61617 0
M  V30 15498 H 1470.48 -0.317586 -4.83959 0
M  V30 15499 H 1466.36 0.868247 -4.5275 0
M  V30 15500 H 1469.9 -1.77673 -6.74595 0
M  V30 15501 H 1465.8 -0.583563 -6.42857 0
M  V30 15502 H 1466.57 -2.01333 -7.93352 0
M  V30 15503 N 1469.23 1.56605 0.176793 0
M  V30 15504 C 1470.16 1.99014 1.2213 0
M  V30 15505 C 1471.14 0.86487 1.46472 0
M  V30 15506 O 1472.33 1.13055 1.57899 0
M  V30 15507 C 1469.46 2.34534 2.56146 0
M  V30 15508 C 1468.41 3.4997 2.46384 0
M  V30 15509 C 1467.74 3.71217 3.8484 0
M  V30 15510 C 1469.04 4.83592 1.97323 0
M  V30 15511 H 1470.73 2.86517 0.8688 0
M  V30 15512 H 1468.28 1.37846 0.416481 0
M  V30 15513 H 1470.23 2.62799 3.29416 0
M  V30 15514 H 1468.95 1.43933 2.93174 0
M  V30 15515 H 1467.61 3.21824 1.75569 0
M  V30 15516 H 1467.26 2.77916 4.19251 0
M  V30 15517 H 1466.96 4.48885 3.79178 0
M  V30 15518 H 1468.49 4.01877 4.59704 0
M  V30 15519 H 1469.9 5.10768 2.60363 0
M  V30 15520 H 1468.3 5.64858 2.02622 0
M  V30 15521 H 1469.37 4.75951 0.927275 0
M  V30 15522 N 1470.71 -0.445159 1.51182 0
M  V30 15523 C 1472.13 -0.781023 1.39184 0
M  V30 15524 C 1472.33 -1.95988 0.468076 0
M  V30 15525 O 1471.38 -2.52374 -0.0796822 0
M  V30 15526 C 1472.69 -1.06874 2.81067 0
M  V30 15527 C 1474.24 -1.17364 2.90163 0
M  V30 15528 C 1474.72 -1.49433 4.32936 0
M  V30 15529 N 1476.21 -1.56373 4.36006 0
M  V30 15530 C 1476.94 -1.82743 5.435 0
M  V30 15531 N 1476.44 -2.06958 6.61166 0
M  V30 15532 N 1478.23 -1.84461 5.30971 0
M  V30 15533 H 1470.38 0.331347 2.098 0
M  V30 15534 H 1472.65 0.0858102 0.944108 0
M  V30 15535 H 1472.35 -0.275306 3.50621 0
M  V30 15536 H 1472.23 -1.99839 3.19913 0
M  V30 15537 H 1474.61 -1.95771 2.20812 0
M  V30 15538 H 1474.69 -0.22318 2.54825 0
M  V30 15539 H 1474.34 -0.715573 5.02834 0
M  V30 15540 H 1474.27 -2.45673 4.65782 0
M  V30 15541 H 1476.76 -1.39595 3.51172 0
M  V30 15542 H 1477.07 -2.26427 7.38885 0
M  V30 15543 H 1475.42 -2.04297 6.64295 0
M  V30 15544 H 1478.61 -1.65057 4.38034 0
M  V30 15545 H 1478.78 -2.04675 6.14827 0
M  V30 15546 N 1472.19 -1.41197 -0.700089 0
M  V30 15547 C 1473.43 -1.40519 -1.46227 0
M  V30 15548 C 1473.77 -0.0126108 -1.94196 0
M  V30 15549 O 1473.04 0.958837 -1.69223 0
M  V30 15550 C 1473.32 -2.40808 -2.67738 0
M  V30 15551 C 1473.18 -3.89154 -2.25563 0
M  V30 15552 C 1474.5 -2.38415 -3.69927 0
M  V30 15553 H 1471.62 -0.511724 -0.530384 0
M  V30 15554 H 1474.26 -1.72441 -0.797754 0
M  V30 15555 H 1472.41 -2.13717 -3.24434 0
M  V30 15556 H 1474.08 -4.27132 -1.74229 0
M  V30 15557 H 1472.32 -4.04239 -1.57395 0
M  V30 15558 H 1472.99 -4.54866 -3.12731 0
M  V30 15559 H 1475.47 -2.62447 -3.22895 0
M  V30 15560 H 1474.35 -3.10609 -4.52563 0
M  V30 15561 H 1474.61 -1.40116 -4.19309 0
M  V30 15562 N 1473.67 0.933891 -1.2695 0
M  V30 15563 C 1474.58 2.06713 -1.10936 0
M  V30 15564 C 1475.59 1.73952 -0.0409734 0
M  V30 15565 O 1476.77 1.9989 -0.246199 0
M  V30 15566 C 1473.83 3.38453 -0.751696 0
M  V30 15567 C 1472.89 3.84951 -1.90029 0
M  V30 15568 C 1472.13 5.10404 -1.55959 0
M  V30 15569 O 1472.35 5.68504 -0.464646 0
M  V30 15570 O 1471.28 5.52123 -2.39675 0
M  V30 15571 H 1475.11 2.23133 -2.06023 0
M  V30 15572 H 1472.69 1.05202 -1.06079 0
M  V30 15573 H 1474.58 4.17591 -0.565285 0
M  V30 15574 H 1473.25 3.23255 0.169703 0
M  V30 15575 H 1472.16 3.06727 -2.14172 0
M  V30 15576 H 1473.49 4.04681 -2.80167 0
M  V30 15577 N 1475.14 1.08871 1.13951 0
M  V30 15578 C 1476.37 0.842913 1.88951 0
M  V30 15579 C 1476.79 -0.605348 1.78832 0
M  V30 15580 O 1476.14 -1.41631 1.15095 0
M  V30 15581 C 1476.19 1.26198 3.38757 0
M  V30 15582 O 1475.92 2.65344 3.48603 0
M  V30 15583 C 1477.42 1.04773 4.30741 0
M  V30 15584 H 1474.64 0.303651 0.598362 0
M  V30 15585 H 1477.18 1.44922 1.44284 0
M  V30 15586 H 1475.34 0.699682 3.81029 0
M  V30 15587 H 1475.75 2.82863 4.41688 0
M  V30 15588 H 1477.22 1.39029 5.34205 0
M  V30 15589 H 1477.7 -0.0149046 4.39197 0
M  V30 15590 H 1478.31 1.5957 3.9423 0
M  V30 15591 N 1476.62 -1.31073 0.875073 0
M  V30 15592 C 1477.55 -2.27335 0.291809 0
M  V30 15593 C 1478.57 -1.53298 -0.548036 0
M  V30 15594 O 1479.76 -1.7464 -0.369198 0
M  V30 15595 C 1476.86 -3.33465 -0.604521 0
M  V30 15596 C 1476.03 -4.36924 0.204029 0
M  V30 15597 C 1475.09 -5.2252 -0.621238 0
M  V30 15598 O 1474.11 -5.6918 -0.0474551 0
M  V30 15599 N 1475.32 -5.47397 -1.93227 0
M  V30 15600 H 1478.08 -2.78024 1.11906 0
M  V30 15601 H 1475.64 -1.44149 0.737064 0
M  V30 15602 H 1477.63 -3.87646 -1.16243 0
M  V30 15603 H 1476.2 -2.8278 -1.33244 0
M  V30 15604 H 1475.42 -3.82745 0.943389 0
M  V30 15605 H 1476.71 -5.03112 0.758644 0
M  V30 15606 H 1476.11 -5.11253 -2.4215 0
M  V30 15607 H 1474.67 -6.04493 -2.43785 0
M  V30 15608 N 1478.1 -0.635022 -1.4424 0
M  V30 15609 C 1479.35 -0.141067 -2.02008 0
M  V30 15610 C 1479.68 1.23849 -1.49973 0
M  V30 15611 O 1478.93 1.83666 -0.675673 0
M  V30 15612 C 1479.23 -0.081191 -3.57308 0
M  V30 15613 C 1478.9 -1.40004 -4.28614 0
M  V30 15614 C 1477.56 -1.76125 -4.4781 0
M  V30 15615 C 1479.91 -2.27041 -4.6915 0
M  V30 15616 C 1477.24 -2.98982 -5.04804 0
M  V30 15617 C 1479.59 -3.49173 -5.27504 0
M  V30 15618 C 1478.25 -3.85512 -5.44919 0
M  V30 15619 H 1477.52 -0.05162 -0.7392 0
M  V30 15620 H 1480.17 -0.822112 -1.72955 0
M  V30 15621 H 1478.48 0.68324 -3.85797 0
M  V30 15622 H 1480.17 0.317584 -3.9974 0
M  V30 15623 H 1476.76 -1.10897 -4.14005 0
M  V30 15624 H 1480.95 -2.0043 -4.54028 0
M  V30 15625 H 1476.2 -3.27208 -5.16473 0
M  V30 15626 H 1480.38 -4.16847 -5.57864 0
M  V30 15627 H 1478 -4.80793 -5.88848 0
M  V30 15628 N 1479.58 1.53054 -0.375806 0
M  V30 15629 C 1480.51 2.23664 0.500685 0
M  V30 15630 C 1481.52 1.25432 1.03782 0
M  V30 15631 O 1482.71 1.51592 0.942451 0
M  V30 15632 C 1479.81 2.9288 1.70513 0
M  V30 15633 C 1478.99 4.17706 1.29772 0
M  V30 15634 C 1478.04 4.7004 2.36536 0
M  V30 15635 O 1477.07 5.33466 1.98502 0
M  V30 15636 N 1478.27 4.48732 3.68266 0
M  V30 15637 H 1481.04 2.99519 -0.104201 0
M  V30 15638 H 1478.6 1.60641 -0.201488 0
M  V30 15639 H 1480.59 3.24795 2.41433 0
M  V30 15640 H 1479.16 2.20416 2.21665 0
M  V30 15641 H 1478.38 3.91978 0.41795 0
M  V30 15642 H 1479.67 4.98837 1.00197 0
M  V30 15643 H 1479.07 3.98075 4.01936 0
M  V30 15644 H 1477.62 4.85172 4.3526 0
M  V30 15645 N 1481.06 0.105248 1.57248 0
M  V30 15646 C 1482 -0.867443 2.1582 0
M  V30 15647 C 1483 -1.28508 1.10373 0
M  V30 15648 O 1484.2 -1.25842 1.287 0
M  V30 15649 H 1480.58 -0.2978 0.690521 0
M  V30 15650 H 1482.55 -0.348831 2.96354 0
M  V30 15651 C 1481.3 -2.11299 2.7613 0
M  V30 15652 H 1480.62 -1.80054 3.5696 0
M  V30 15653 H 1482.06 -2.77395 3.20668 0
M  V30 15654 C 1480.52 -2.89372 1.72527 0
M  V30 15655 O 1481.05 -3.84274 1.17032 0
M  V30 15656 N 1479.26 -2.53103 1.42784 0
M  V30 15657 H 1478.8 -1.75998 1.88102 0
M  V30 15658 H 1478.76 -3.05639 0.737035 0
M  V30 15659 N 1482.53 -1.56697 -0.168486 0
M  V30 15660 C 1483.78 -1.81794 -0.882907 0
M  V30 15661 C 1484.1 -0.682707 -1.82658 0
M  V30 15662 O 1483.37 0.297234 -1.93632 0
M  V30 15663 H 1481.95 -0.670636 -0.329024 0
M  V30 15664 H 1484.62 -1.94178 -0.167625 0
M  V30 15665 H 1483.71 -2.75945 -1.45811 0
M  V30 15666 N 1484.01 0.437135 -1.51416 0
M  V30 15667 C 1484.96 1.52903 -1.69129 0
M  V30 15668 C 1485.95 1.51379 -0.54528 0
M  V30 15669 O 1487.14 1.57828 -0.8012 0
M  V30 15670 C 1484.27 2.91092 -1.8199 0
M  V30 15671 C 1483.35 2.97372 -3.02375 0
M  V30 15672 N 1483.74 2.73395 -4.25545 0
M  V30 15673 C 1482.04 3.28532 -3.01634 0
M  V30 15674 C 1482.74 2.85523 -5.06805 0
M  V30 15675 N 1481.72 3.17201 -4.41457 0
M  V30 15676 H 1485.52 1.33118 -2.62025 0
M  V30 15677 H 1483.04 0.644444 -1.49066 0
M  V30 15678 H 1485.03 3.69645 -1.9279 0
M  V30 15679 H 1483.69 3.11898 -0.902757 0
M  V30 15680 H 1484.7 2.4832 -4.54486 0
M  V30 15681 H 1481.38 3.5511 -2.19552 0
M  V30 15682 H 1482.77 2.70938 -6.14852 0
M  V30 15683 N 1485.49 1.41566 0.692592 0
M  V30 15684 C 1486.72 1.44236 1.47917 0
M  V30 15685 C 1487.13 0.0469112 1.89142 0
M  V30 15686 O 1486.47 -0.944788 1.57542 0
M  V30 15687 C 1486.53 2.29056 2.7708 0
M  V30 15688 C 1486.2 3.77179 2.58041 0
M  V30 15689 C 1487.19 4.69267 2.23795 0
M  V30 15690 C 1484.88 4.21253 2.73589 0
M  V30 15691 C 1486.87 6.03419 2.05338 0
M  V30 15692 C 1484.56 5.55469 2.54749 0
M  V30 15693 C 1485.56 6.46368 2.20675 0
M  V30 15694 O 1485.25 7.78107 2.02002 0
M  V30 15695 H 1484.98 0.493237 0.462269 0
M  V30 15696 H 1487.53 1.8653 0.859984 0
M  V30 15697 H 1485.76 1.8158 3.41417 0
M  V30 15698 H 1487.45 2.23392 3.38897 0
M  V30 15699 H 1488.22 4.36506 2.11395 0
M  V30 15700 H 1484.1 3.50804 2.99094 0
M  V30 15701 H 1487.64 6.74333 1.78665 0
M  V30 15702 H 1483.54 5.87809 2.66741 0
M  V30 15703 H 1484.31 7.89282 2.16741 0
M  V30 15704 N 1486.97 -0.927146 1.27443 0
M  V30 15705 C 1488.25 -1.65322 1.04538 0
M  V30 15706 C 1488.63 -2.06886 -0.419694 0
M  V30 15707 O 1487.97 -1.80352 -1.40304 0
M  V30 15708 C 1488.18 -2.85486 2.00746 0
M  V30 15709 C 1489.53 -3.56816 2.30147 0
M  V30 15710 O 1490.56 -2.95613 1.98724 0
M  V30 15711 O 1489.41 -4.67085 2.83714 0
M  V30 15712 H 1486.51 -0.724627 0.398554 0
M  V30 15713 H 1489.05 -0.977633 1.3871 0
M  V30 15714 H 1487.83 -2.51766 2.99549 0
M  V30 15715 H 1487.45 -3.60763 1.67139 0
M  V30 15716 N 1488.45 -1.09474 -1.13372 0
M  V30 15717 C 1489.39 -0.73458 -2.18798 0
M  V30 15718 C 1490.36 0.284433 -1.63647 0
M  V30 15719 O 1491.55 0.165958 -1.90077 0
M  V30 15720 C 1488.69 -0.161826 -3.4472 0
M  V30 15721 C 1487.8 -1.23494 -4.13973 0
M  V30 15722 C 1486.94 -0.624886 -5.27512 0
M  V30 15723 C 1485.98 -1.67927 -5.88614 0
M  V30 15724 N 1485.11 -1.09021 -6.93584 0
M  V30 15725 H 1489.95 -1.63787 -2.48954 0
M  V30 15726 H 1487.49 -0.818297 -1.22239 0
M  V30 15727 H 1489.45 0.188053 -4.16776 0
M  V30 15728 H 1488.08 0.70473 -3.15013 0
M  V30 15729 H 1487.13 -1.70209 -3.40196 0
M  V30 15730 H 1488.44 -2.0335 -4.55467 0
M  V30 15731 H 1487.6 -0.22388 -6.06287 0
M  V30 15732 H 1486.33 0.205214 -4.87268 0
M  V30 15733 H 1485.34 -2.08982 -5.08534 0
M  V30 15734 H 1486.56 -2.51204 -6.3093 0
M  V30 15735 H 1484.51 -0.281401 -6.55396 0
M  V30 15736 H 1484.43 -1.82573 -7.33623 0
M  V30 15737 H 1485.7 -0.715428 -7.7621 0
M  V30 15738 N 1489.92 1.30607 -0.882012 0
M  V30 15739 C 1491.16 1.98047 -0.505626 0
M  V30 15740 C 1491.53 1.68123 0.927287 0
M  V30 15741 O 1492.73 2.28872 1.40964 0
M  V30 15742 C 1491 3.49021 -0.769367 0
M  V30 15743 S 1492.56 4.36003 -0.494641 0
M  V30 15744 H 1489.38 0.685625 -0.188252 0
M  V30 15745 H 1491.98 1.58776 -1.14064 0
M  V30 15746 H 1490.68 3.68291 -1.8108 0
M  V30 15747 H 1490.21 3.93211 -0.121801 0
M  V30 15748 H 1492.23 4.91683 0.668004 0
M  V30 15749 N 1491.4 0.642663 1.43901 0
M  V30 15750 C 1492.65 0.152003 2.0223 0
M  V30 15751 C 1492.98 -1.22711 1.50518 0
M  V30 15752 O 1492.26 -1.817 0.693937 0
M  V30 15753 C 1492.54 0.151278 3.59782 0
M  V30 15754 C 1492.39 1.56356 4.2175 0
M  V30 15755 C 1493.71 -0.518016 4.37041 0
M  V30 15756 H 1490.83 0.0567094 0.734815 0
M  V30 15757 H 1493.47 0.821337 1.7133 0
M  V30 15758 H 1491.62 -0.418679 3.86237 0
M  V30 15759 H 1493.29 2.18329 4.06362 0
M  V30 15760 H 1491.54 2.11401 3.78803 0
M  V30 15761 H 1492.21 1.51499 5.30803 0
M  V30 15762 H 1494.68 -0.0331947 4.16087 0
M  V30 15763 H 1493.56 -0.487754 5.46729 0
M  V30 15764 H 1493.82 -1.59036 4.12504 0
M  V30 15765 N 1492.88 -1.52852 0.383918 0
M  V30 15766 C 1494.13 -2.0151 -0.199989 0
M  V30 15767 C 1494.46 -1.27058 -1.47263 0
M  V30 15768 O 1493.71 -0.357819 -1.92401 0
M  V30 15769 C 1494.01 -3.53602 -0.519674 0
M  V30 15770 C 1493.68 -4.46032 0.660789 0
M  V30 15771 C 1492.34 -4.71018 0.984646 0
M  V30 15772 C 1494.69 -5.00602 1.45077 0
M  V30 15773 C 1492.02 -5.47824 2.10013 0
M  V30 15774 C 1494.37 -5.78627 2.55682 0
M  V30 15775 C 1493.03 -6.01894 2.88582 0
M  V30 15776 H 1492.3 -0.737377 -0.0731812 0
M  V30 15777 H 1494.95 -1.843 0.520157 0
M  V30 15778 H 1493.26 -3.68856 -1.32108 0
M  V30 15779 H 1494.95 -3.88739 -0.984011 0
M  V30 15780 H 1491.54 -4.26745 0.398359 0
M  V30 15781 H 1495.73 -4.81228 1.21381 0
M  V30 15782 H 1490.98 -5.64066 2.3588 0
M  V30 15783 H 1495.16 -6.19914 3.173 0
M  V30 15784 H 1492.78 -6.61192 3.75138 0
M  V30 15785 N 1494.36 -0.113586 -1.5719 0
M  V30 15786 C 1495.32 0.824258 -2.13866 0
M  V30 15787 C 1496.32 1.19831 -1.07224 0
M  V30 15788 O 1497.51 1.12471 -1.33026 0
M  V30 15789 C 1494.64 2.11391 -2.67445 0
M  V30 15790 H 1495.84 0.331803 -2.98059 0
M  V30 15791 H 1493.39 0.135599 -1.55711 0
M  V30 15792 H 1494.13 2.65079 -1.86824 0
M  V30 15793 H 1493.91 1.85523 -3.45433 0
M  V30 15794 H 1495.4 2.78443 -3.11222 0
M  V30 15795 N 1495.84 1.56784 0.160173 0
M  V30 15796 C 1496.77 2.00298 1.20012 0
M  V30 15797 C 1497.75 0.880356 1.45546 0
M  V30 15798 O 1498.93 1.14724 1.56691 0
M  V30 15799 C 1496.06 2.37238 2.53645 0
M  V30 15800 C 1495.02 3.52563 2.42658 0
M  V30 15801 C 1494.34 3.75278 3.80881 0
M  V30 15802 C 1495.64 4.85657 1.92183 0
M  V30 15803 H 1497.34 2.87423 0.838362 0
M  V30 15804 H 1494.88 1.3828 0.401838 0
M  V30 15805 H 1496.84 2.66278 3.2661 0
M  V30 15806 H 1495.56 1.47035 2.9163 0
M  V30 15807 H 1494.22 3.23669 1.72146 0
M  V30 15808 H 1493.87 2.82347 4.1628 0
M  V30 15809 H 1493.57 4.52882 3.74396 0
M  V30 15810 H 1495.09 4.0673 4.55415 0
M  V30 15811 H 1496.51 5.13501 2.54931 0
M  V30 15812 H 1494.9 5.66975 1.96619 0
M  V30 15813 H 1495.97 4.76908 0.876742 0
M  V30 15814 N 1497.32 -0.429099 1.51646 0
M  V30 15815 C 1498.73 -0.766217 1.40005 0
M  V30 15816 C 1498.93 -1.95481 0.488837 0
M  V30 15817 O 1497.99 -2.52445 -0.0529101 0
M  V30 15818 C 1499.3 -1.03886 2.82185 0
M  V30 15819 C 1500.85 -1.1428 2.91392 0
M  V30 15820 C 1501.32 -1.44833 4.34497 0
M  V30 15821 N 1502.81 -1.5174 4.37641 0
M  V30 15822 C 1503.55 -1.76968 5.45408 0
M  V30 15823 N 1503.05 -1.99934 6.63324 0
M  V30 15824 N 1504.84 -1.78819 5.32898 0
M  V30 15825 H 1496.99 0.35358 2.09436 0
M  V30 15826 H 1499.25 0.0958189 0.943145 0
M  V30 15827 H 1498.96 -0.238103 3.50893 0
M  V30 15828 H 1498.83 -1.96434 3.22015 0
M  V30 15829 H 1501.22 -1.93418 2.22876 0
M  V30 15830 H 1501.3 -0.19614 2.55047 0
M  V30 15831 H 1500.94 -0.662201 5.03565 0
M  V30 15832 H 1500.87 -2.40718 4.68361 0
M  V30 15833 H 1503.37 -1.35862 3.52633 0
M  V30 15834 H 1503.68 -2.18578 7.41245 0
M  V30 15835 H 1502.02 -1.97239 6.66425 0
M  V30 15836 H 1505.21 -1.60402 4.3976 0
M  V30 15837 H 1505.39 -1.98142 6.16963 0
M  V30 15838 N 1498.79 -1.41931 -0.685074 0
M  V30 15839 C 1499.7 -1.46985 -1.82846 0
M  V30 15840 C 1500.72 -0.359487 -1.70246 0
M  V30 15841 O 1501.9 -0.608824 -1.91977 0
M  V30 15842 C 1498.96 -1.36001 -3.18912 0
M  V30 15843 C 1498.02 -2.57442 -3.43543 0
M  V30 15844 C 1497.25 -2.46972 -4.73118 0
M  V30 15845 O 1497.48 -1.49999 -5.50324 0
M  V30 15846 O 1496.41 -3.36922 -4.98766 0
M  V30 15847 H 1500.24 -2.4347 -1.81538 0
M  V30 15848 H 1497.82 -1.23583 -0.839497 0
M  V30 15849 H 1499.7 -1.32198 -4.00127 0
M  V30 15850 H 1498.38 -0.426366 -3.2088 0
M  V30 15851 H 1497.29 -2.66821 -2.62217 0
M  V30 15852 H 1498.62 -3.49671 -3.46398 0
M  V30 15853 N 1500.27 0.920374 -1.27933 0
M  V30 15854 C 1501.18 2.05525 -1.13123 0
M  V30 15855 C 1502.2 1.73899 -0.059421 0
M  V30 15856 O 1503.37 1.99617 -0.267386 0
M  V30 15857 C 1500.44 3.37637 -0.787551 0
M  V30 15858 C 1499.5 3.82914 -1.94101 0
M  V30 15859 C 1498.73 5.08721 -1.61364 0
M  V30 15860 O 1498.96 5.6798 -0.524918 0
M  V30 15861 O 1497.89 5.4955 -2.45517 0
M  V30 15862 H 1501.72 2.20935 -2.08378 0
M  V30 15863 H 1499.3 1.04071 -1.07189 0
M  V30 15864 H 1501.18 4.16968 -0.609544 0
M  V30 15865 H 1499.86 3.23417 0.135407 0
M  V30 15866 H 1498.76 3.04438 -2.17413 0
M  V30 15867 H 1500.1 4.01687 -2.84444 0
M  V30 15868 N 1501.75 1.10074 1.1279 0
M  V30 15869 C 1502.7 0.740977 2.20482 0
M  V30 15870 C 1503.69 -0.261163 1.67375 0
M  V30 15871 O 1504.9 -0.121923 1.79587 0
M  V30 15872 H 1501.27 0.221666 0.718588 0
M  V30 15873 H 1503.24 1.65823 2.48083 0
M  V30 15874 C 1501.99 0.184934 3.47208 0
M  V30 15875 H 1501.32 0.947278 3.88416 0
M  V30 15876 H 1502.76 -0.0287769 4.2399 0
M  V30 15877 C 1501.21 -1.08145 3.19071 0
M  V30 15878 O 1501.74 -2.1636 3.38454 0
M  V30 15879 N 1499.95 -0.998609 2.72903 0
M  V30 15880 H 1499.5 -0.117906 2.5733 0
M  V30 15881 H 1499.46 -1.84664 2.54453 0
M  V30 15882 N 1503.23 -1.30138 0.888926 0
M  V30 15883 C 1504.17 -2.28023 0.356923 0
M  V30 15884 C 1505.14 -1.56551 -0.555066 0
M  V30 15885 O 1506.33 -1.84595 -0.482633 0
M  V30 15886 C 1503.47 -3.42546 -0.419056 0
M  V30 15887 C 1502.58 -4.28827 0.5226 0
M  V30 15888 C 1501.72 -5.30517 -0.269366 0
M  V30 15889 C 1500.76 -6.08449 0.667507 0
M  V30 15890 N 1499.89 -7.02043 -0.08938 0
M  V30 15891 H 1504.73 -2.72912 1.19678 0
M  V30 15892 H 1502.27 -1.34239 0.60152 0
M  V30 15893 H 1504.23 -4.07707 -0.884911 0
M  V30 15894 H 1502.86 -2.98716 -1.22346 0
M  V30 15895 H 1501.91 -3.63938 1.10695 0
M  V30 15896 H 1503.22 -4.83136 1.24018 0
M  V30 15897 H 1502.38 -6.01444 -0.796901 0
M  V30 15898 H 1501.12 -4.76911 -1.02014 0
M  V30 15899 H 1500.12 -5.36396 1.20664 0
M  V30 15900 H 1501.35 -6.64143 1.41744 0
M  V30 15901 H 1499.29 -6.50822 -0.822622 0
M  V30 15902 H 1499.21 -7.53859 0.568499 0
M  V30 15903 H 1500.48 -7.77206 -0.597529 0
M  V30 15904 N 1504.71 -0.650285 -1.43559 0
M  V30 15905 C 1505.93 -0.168483 -2.06715 0
M  V30 15906 C 1506.36 1.15576 -1.48404 0
M  V30 15907 O 1505.71 1.71333 -0.592842 0
M  V30 15908 C 1505.76 -0.0877095 -3.60493 0
M  V30 15909 O 1504.87 0.950915 -4.01287 0
M  V30 15910 H 1504.21 -0.0935281 -0.65738 0
M  V30 15911 H 1506.74 -0.892381 -1.84113 0
M  V30 15912 H 1506.75 0.0965825 -4.07886 0
M  V30 15913 H 1505.42 -1.05442 -4.02312 0
M  V30 15914 H 1504 0.739648 -3.65491 0
M  V30 15915 N 1506.18 1.52647 -0.392018 0
M  V30 15916 C 1507.46 1.94034 0.247004 0
M  V30 15917 C 1507.84 1.32767 1.64122 0
M  V30 15918 O 1507.19 0.496822 2.23033 0
M  V30 15919 C 1507.4 3.47949 0.270615 0
M  V30 15920 C 1508.75 4.21666 0.498256 0
M  V30 15921 O 1509.77 3.54469 0.350708 0
M  V30 15922 O 1508.63 5.40795 0.787586 0
M  V30 15923 H 1505.72 0.812487 0.154251 0
M  V30 15924 H 1508.27 1.63715 -0.446723 0
M  V30 15925 H 1507.04 3.84881 -0.705862 0
M  V30 15926 H 1506.66 3.8458 1.00915 0
M  V30 15927 N 1507.66 0.121921 1.57128 0
M  V30 15928 C 1508.6 -0.864553 2.11189 0
M  V30 15929 C 1509.57 -1.25896 1.02902 0
M  V30 15930 O 1510.76 -1.3595 1.30575 0
M  V30 15931 C 1507.88 -2.15742 2.611 0
M  V30 15932 C 1506.93 -1.91085 3.81299 0
M  V30 15933 S 1507.76 -1.12448 5.23561 0
M  V30 15934 C 1508.92 -2.42908 5.76842 0
M  V30 15935 H 1509.15 -0.404737 2.94532 0
M  V30 15936 H 1506.69 -0.091909 1.54126 0
M  V30 15937 H 1508.64 -2.90024 2.9051 0
M  V30 15938 H 1507.3 -2.58841 1.77933 0
M  V30 15939 H 1506.5 -2.86889 4.1438 0
M  V30 15940 H 1506.1 -1.24922 3.5252 0
M  V30 15941 H 1508.39 -3.38728 5.86745 0
M  V30 15942 H 1509.33 -2.14367 6.74872 0
M  V30 15943 H 1509.74 -2.52409 5.04926 0
M  V30 15944 N 1509.14 -1.56867 -0.151857 0
M  V30 15945 C 1510.09 -1.98842 -1.20685 0
M  V30 15946 C 1511.08 -0.88007 -1.44745 0
M  V30 15947 O 1512.29 -1.06524 -1.45095 0
M  V30 15948 H 1508.66 -0.632904 -0.406123 0
M  V30 15949 H 1510.63 -2.86737 -0.826095 0
M  V30 15950 C 1509.38 -2.38095 -2.53389 0
M  V30 15951 H 1508.71 -3.2293 -2.35703 0
M  V30 15952 H 1510.15 -2.71292 -3.25847 0
M  V30 15953 C 1508.61 -1.23175 -3.13575 0
M  V30 15954 O 1509.14 -0.529864 -3.9819 0
M  V30 15955 N 1507.34 -0.997255 -2.72953 0
M  V30 15956 H 1506.89 -1.56979 -2.04243 0
M  V30 15957 H 1506.85 -0.23022 -3.13556 0
M  V30 15958 N 1510.62 0.421051 -1.51871 0
M  V30 15959 C 1511.85 1.1911 -1.69175 0
M  V30 15960 C 1512.26 1.84599 -0.39606 0
M  V30 15961 O 1511.62 1.71395 0.626907 0
M  V30 15962 C 1511.67 2.26309 -2.81898 0
M  V30 15963 O 1511.39 1.63496 -4.06449 0
M  V30 15964 C 1512.89 3.16285 -3.10611 0
M  V30 15965 H 1510.11 0.358385 -0.567275 0
M  V30 15966 H 1512.66 0.496919 -1.98371 0
M  V30 15967 H 1510.81 2.91416 -2.55255 0
M  V30 15968 H 1511.22 2.3447 -4.69174 0
M  V30 15969 H 1512.7 3.87601 -3.93026 0
M  V30 15970 H 1513.18 3.77976 -2.23676 0
M  V30 15971 H 1513.78 2.5686 -3.38973 0
M  V30 15972 N 1512.1 1.42293 0.677538 0
M  V30 15973 C 1513.34 1.42827 1.43973 0
M  V30 15974 C 1513.68 0.0435041 1.94151 0
M  V30 15975 O 1512.95 -0.931794 1.70727 0
M  V30 15976 C 1513.23 2.45037 2.63873 0
M  V30 15977 C 1513.09 3.92694 2.19344 0
M  V30 15978 C 1514.41 2.4427 3.66087 0
M  V30 15979 H 1511.52 0.520097 0.522176 0
M  V30 15980 H 1514.17 1.73688 0.770219 0
M  V30 15981 H 1512.32 2.18851 3.20993 0
M  V30 15982 H 1513.99 4.2985 1.67412 0
M  V30 15983 H 1512.23 4.06692 1.50944 0
M  V30 15984 H 1512.9 4.59784 3.05455 0
M  V30 15985 H 1515.38 2.67551 3.18678 0
M  V30 15986 H 1514.25 3.17769 4.47564 0
M  V30 15987 H 1514.52 1.46769 4.17027 0
M  V30 15988 N 1513.57 -0.913576 1.28419 0
M  V30 15989 C 1514.5 -2.03275 1.14897 0
M  V30 15990 C 1515.49 -1.70036 0.0467034 0
M  V30 15991 O 1516.67 -1.92907 0.223725 0
M  V30 15992 C 1513.8 -3.37717 0.810217 0
M  V30 15993 C 1512.75 -3.85119 1.86728 0
M  V30 15994 C 1512.08 -5.16527 1.38215 0
M  V30 15995 C 1513.38 -4.06959 3.27386 0
M  V30 15996 H 1515.07 -2.14847 2.08522 0
M  V30 15997 H 1512.62 -1.03233 1.00394 0
M  V30 15998 H 1514.57 -4.15505 0.702382 0
M  V30 15999 H 1513.3 -3.26199 -0.161732 0
M  V30 16000 H 1511.96 -3.09536 1.96426 0
M  V30 16001 H 1511.6 -5.01413 0.399263 0
M  V30 16002 H 1511.3 -5.49213 2.08898 0
M  V30 16003 H 1512.83 -5.96871 1.28754 0
M  V30 16004 H 1514.24 -4.75272 3.20608 0
M  V30 16005 H 1512.64 -4.50977 3.95904 0
M  V30 16006 H 1513.71 -3.11764 3.71391 0
M  V30 16007 N 1515.05 -1.1067 -1.12204 0
M  V30 16008 C 1516 -0.752659 -2.20086 0
M  V30 16009 C 1516.99 0.252284 -1.67511 0
M  V30 16010 O 1518.2 0.112398 -1.79649 0
M  V30 16011 H 1514.58 -0.225473 -0.717402 0
M  V30 16012 H 1516.55 -1.67136 -2.472 0
M  V30 16013 C 1515.3 -0.203345 -3.47105 0
M  V30 16014 H 1514.62 -0.967864 -3.87908 0
M  V30 16015 H 1516.06 0.00629123 -4.24 0
M  V30 16016 C 1514.52 1.06452 -3.1964 0
M  V30 16017 O 1515.05 2.14562 -3.39597 0
M  V30 16018 N 1513.25 0.984122 -2.73429 0
M  V30 16019 H 1512.8 0.104258 -2.57389 0
M  V30 16020 H 1512.76 1.83312 -2.55429 0
M  V30 16021 N 1516.53 1.29665 -0.895815 0
M  V30 16022 C 1517.76 1.99572 -0.534267 0
M  V30 16023 C 1518.17 1.67254 0.884455 0
M  V30 16024 O 1517.51 0.911762 1.59476 0
M  V30 16025 C 1517.57 3.53719 -0.642099 0
M  V30 16026 C 1517.24 4.09583 -2.02709 0
M  V30 16027 C 1518.23 4.24769 -2.99779 0
M  V30 16028 C 1515.92 4.44706 -2.33542 0
M  V30 16029 C 1517.91 4.74305 -4.25809 0
M  V30 16030 C 1515.6 4.93939 -3.59815 0
M  V30 16031 C 1516.6 5.08693 -4.55763 0
M  V30 16032 O 1516.29 5.5686 -5.79795 0
M  V30 16033 H 1516.02 0.644481 -0.204012 0
M  V30 16034 H 1518.57 1.66262 -1.20607 0
M  V30 16035 H 1516.8 3.86603 0.0867197 0
M  V30 16036 H 1518.49 4.04861 -0.290265 0
M  V30 16037 H 1519.26 3.97925 -2.77273 0
M  V30 16038 H 1515.14 4.32483 -1.59622 0
M  V30 16039 H 1518.68 4.85736 -5.00706 0
M  V30 16040 H 1514.58 5.2022 -3.82154 0
M  V30 16041 H 1515.35 5.75182 -5.82329 0
M  V30 16042 N 1518.01 0.657889 1.43212 0
M  V30 16043 C 1519.26 0.170493 2.00978 0
M  V30 16044 C 1519.57 -1.22439 1.52539 0
M  V30 16045 O 1520.78 -1.80725 2.02609 0
M  V30 16046 C 1519.23 0.253982 3.59003 0
M  V30 16047 C 1518.84 1.65185 4.16435 0
M  V30 16048 C 1520.58 -0.17557 4.24137 0
M  V30 16049 C 1518.49 1.68902 5.66768 0
M  V30 16050 H 1517.42 0.0599767 0.751611 0
M  V30 16051 H 1520.07 0.820606 1.64129 0
M  V30 16052 H 1518.45 -0.463723 3.93275 0
M  V30 16053 H 1519.63 2.39529 3.93653 0
M  V30 16054 H 1517.94 2.02779 3.63689 0
M  V30 16055 H 1520.54 -0.167714 5.34437 0
M  V30 16056 H 1520.88 -1.20784 3.98393 0
M  V30 16057 H 1521.42 0.490544 3.94764 0
M  V30 16058 H 1518.16 2.70055 5.97286 0
M  V30 16059 H 1517.68 0.988906 5.91592 0
M  V30 16060 H 1519.35 1.43485 6.30889 0
M  V30 16061 N 1519.49 -1.52437 0.400108 0
M  V30 16062 C 1520.73 -2.01711 -0.178605 0
M  V30 16063 C 1521.06 -1.28613 -1.45908 0
M  V30 16064 O 1520.32 -0.378206 -1.92011 0
M  V30 16065 C 1520.62 -3.54133 -0.482141 0
M  V30 16066 C 1520.28 -4.45306 0.70806 0
M  V30 16067 C 1518.94 -4.69947 1.03455 0
M  V30 16068 C 1521.3 -4.99035 1.50379 0
M  V30 16069 C 1518.62 -5.45566 2.15812 0
M  V30 16070 C 1520.98 -5.75883 2.61805 0
M  V30 16071 C 1519.64 -5.98799 2.9495 0
M  V30 16072 H 1518.91 -0.738112 -0.0653562 0
M  V30 16073 H 1521.56 -1.83738 0.539676 0
M  V30 16074 H 1519.86 -3.70237 -1.28188 0
M  V30 16075 H 1521.56 -3.89761 -0.942725 0
M  V30 16076 H 1518.15 -4.26298 0.443599 0
M  V30 16077 H 1522.33 -4.79913 1.26479 0
M  V30 16078 H 1517.59 -5.61532 2.4185 0
M  V30 16079 H 1521.76 -6.16514 3.23857 0
M  V30 16080 H 1519.39 -6.57176 3.8213 0
M  V30 16081 N 1520.96 -0.130252 -1.57061 0
M  V30 16082 C 1522.19 0.535707 -2.00362 0
M  V30 16083 C 1522.61 1.58712 -1.00956 0
M  V30 16084 O 1521.97 1.81292 0.0171546 0
M  V30 16085 C 1522.02 1.12836 -3.42491 0
M  V30 16086 O 1521.12 2.24367 -3.46025 0
M  V30 16087 H 1520.47 0.132735 -0.650598 0
M  V30 16088 H 1523 -0.222047 -2.03392 0
M  V30 16089 H 1523.01 1.46115 -3.80939 0
M  V30 16090 H 1521.68 0.358304 -4.14354 0
M  V30 16091 H 1520.26 1.92443 -3.19406 0
M  V30 16092 N 1522.44 1.56945 0.143535 0
M  V30 16093 C 1523.39 1.94945 1.18239 0
M  V30 16094 C 1524.38 0.821157 1.38368 0
M  V30 16095 O 1525.57 1.08465 1.39873 0
M  V30 16096 C 1522.7 2.33653 2.51518 0
M  V30 16097 C 1521.78 3.53061 2.34966 0
M  V30 16098 N 1522.18 4.69493 1.88176 0
M  V30 16099 C 1520.47 3.58213 2.65706 0
M  V30 16100 C 1521.17 5.51581 1.84751 0
M  V30 16101 N 1520.15 4.93386 2.28192 0
M  V30 16102 H 1523.95 2.82438 0.81278 0
M  V30 16103 H 1521.47 1.58549 0.351555 0
M  V30 16104 H 1523.46 2.59083 3.26621 0
M  V30 16105 H 1522.12 1.47513 2.89257 0
M  V30 16106 H 1523.13 4.93182 1.5809 0
M  V30 16107 H 1519.81 2.82622 3.07297 0
M  V30 16108 H 1521.2 6.54934 1.50038 0
M  V30 16109 N 1523.92 -0.412991 1.52093 0
M  V30 16110 C 1524.88 -1.48555 1.7454 0
M  V30 16111 C 1525.88 -1.48563 0.615283 0
M  V30 16112 O 1527.07 -1.50155 0.883119 0
M  V30 16113 C 1524.21 -2.87984 1.82423 0
M  V30 16114 H 1525.4 -1.29945 2.70285 0
M  V30 16115 H 1522.95 -0.643241 1.4245 0
M  V30 16116 H 1523.69 -3.11969 0.885777 0
M  V30 16117 H 1523.47 -2.89381 2.64577 0
M  V30 16118 H 1524.96 -3.65745 2.01545 0
M  V30 16119 N 1525.4 -1.4265 -0.669982 0
M  V30 16120 C 1526.33 -1.42457 -1.79551 0
M  V30 16121 C 1527.34 -0.322966 -1.59564 0
M  V30 16122 O 1528.53 -0.586359 -1.68594 0
M  V30 16123 C 1525.63 -1.20561 -3.16731 0
M  V30 16124 C 1524.81 -2.43246 -3.63525 0
M  V30 16125 C 1523.87 -2.16823 -4.79452 0
M  V30 16126 O 1522.89 -2.90058 -4.8975 0
M  V30 16127 N 1524.09 -1.17436 -5.68497 0
M  V30 16128 H 1526.86 -2.39474 -1.80201 0
M  V30 16129 H 1524.42 -1.37591 -0.853244 0
M  V30 16130 H 1526.41 -1.00794 -3.91947 0
M  V30 16131 H 1524.98 -0.320497 -3.10953 0
M  V30 16132 H 1524.2 -2.78549 -2.78934 0
M  V30 16133 H 1525.49 -3.24931 -3.91532 0
M  V30 16134 H 1524.89 -0.568736 -5.62834 0
M  V30 16135 H 1523.44 -1.03655 -6.43505 0
M  V30 16136 N 1526.88 0.906753 -1.28902 0
M  V30 16137 C 1528.12 1.65903 -1.16636 0
M  V30 16138 C 1528.46 1.92127 0.282981 0
M  V30 16139 O 1527.73 1.52666 1.20513 0
M  V30 16140 C 1528.01 3.01257 -1.97272 0
M  V30 16141 C 1527.87 2.82143 -3.50308 0
M  V30 16142 C 1529.19 4.01893 -1.7936 0
M  V30 16143 H 1526.31 0.602063 -0.425076 0
M  V30 16144 H 1528.95 1.05081 -1.58297 0
M  V30 16145 H 1527.1 3.53172 -1.61871 0
M  V30 16146 H 1528.77 2.37184 -3.95653 0
M  V30 16147 H 1527.01 2.17063 -3.75588 0
M  V30 16148 H 1527.68 3.78293 -4.01993 0
M  V30 16149 H 1530.16 3.59064 -2.10267 0
M  V30 16150 H 1529.04 4.9455 -2.38141 0
M  V30 16151 H 1529.3 4.35745 -0.746923 0
M  V30 16152 N 1528.36 1.11264 1.11616 0
M  V30 16153 C 1529.58 0.882802 1.87121 0
M  V30 16154 C 1530 -0.567279 1.80076 0
M  V30 16155 O 1529.36 -1.39158 1.18074 0
M  V30 16156 C 1529.41 1.33355 3.36004 0
M  V30 16157 O 1529.13 2.72678 3.42897 0
M  V30 16158 C 1530.63 1.13886 4.28421 0
M  V30 16159 H 1527.85 0.316275 0.591786 0
M  V30 16160 H 1530.39 1.4795 1.41177 0
M  V30 16161 H 1528.55 0.780347 3.79459 0
M  V30 16162 H 1528.96 2.92168 4.35589 0
M  V30 16163 H 1530.44 1.50329 5.31136 0
M  V30 16164 H 1530.91 0.078259 4.3913 0
M  V30 16165 H 1531.52 1.67896 3.90757 0
M  V30 16166 N 1529.83 -1.29188 0.902679 0
M  V30 16167 C 1530.78 -2.27632 0.381088 0
M  V30 16168 C 1531.75 -1.57131 -0.538431 0
M  V30 16169 O 1532.94 -1.85096 -0.463027 0
M  V30 16170 C 1530.08 -3.42971 -0.382701 0
M  V30 16171 C 1529.19 -4.28249 0.568054 0
M  V30 16172 C 1528.32 -5.30772 -0.213082 0
M  V30 16173 C 1527.36 -6.07707 0.732004 0
M  V30 16174 N 1526.5 -7.02098 -0.0149139 0
M  V30 16175 H 1531.34 -2.71628 1.22566 0
M  V30 16176 H 1528.88 -1.33594 0.615724 0
M  V30 16177 H 1530.83 -4.08623 -0.841619 0
M  V30 16178 H 1529.46 -2.99997 -1.19171 0
M  V30 16179 H 1528.52 -3.62743 1.14549 0
M  V30 16180 H 1529.83 -4.81794 1.29136 0
M  V30 16181 H 1528.98 -6.02255 -0.733065 0
M  V30 16182 H 1527.72 -4.77966 -0.969504 0
M  V30 16183 H 1526.73 -5.35086 1.26346 0
M  V30 16184 H 1527.95 -6.62602 1.4878 0
M  V30 16185 H 1525.9 -6.51658 -0.753548 0
M  V30 16186 H 1525.81 -7.53214 0.648423 0
M  V30 16187 H 1527.08 -7.77796 -0.515062 0
M  V30 16188 N 1531.31 -0.665475 -1.42861 0
M  V30 16189 C 1532.26 0.0186204 -2.30792 0
M  V30 16190 C 1533.23 0.802249 -1.45441 0
M  V30 16191 O 1534.41 0.776383 -1.7429 0
M  V30 16192 C 1531.55 0.970499 -3.31173 0
M  V30 16193 C 1530.67 0.18168 -4.31618 0
M  V30 16194 C 1529.8 1.12846 -5.19075 0
M  V30 16195 C 1528.84 0.330788 -6.11206 0
M  V30 16196 N 1527.98 1.2298 -6.91246 0
M  V30 16197 H 1532.82 -0.737068 -2.88741 0
M  V30 16198 H 1530.35 -0.375225 -1.42234 0
M  V30 16199 H 1532.31 1.53611 -3.87891 0
M  V30 16200 H 1530.94 1.69292 -2.74845 0
M  V30 16201 H 1529.99 -0.500415 -3.77094 0
M  V30 16202 H 1531.31 -0.438041 -4.96873 0
M  V30 16203 H 1530.46 1.76431 -5.8048 0
M  V30 16204 H 1529.2 1.78208 -4.53975 0
M  V30 16205 H 1528.2 -0.318333 -5.48878 0
M  V30 16206 H 1529.43 -0.318599 -6.78352 0
M  V30 16207 H 1527.38 1.86999 -6.28783 0
M  V30 16208 H 1527.29 0.664933 -7.5307 0
M  V30 16209 H 1528.56 1.85341 -7.57145 0
M  V30 16210 N 1532.79 1.52222 -0.408187 0
M  V30 16211 C 1533.74 2.28544 0.432458 0
M  V30 16212 C 1534.73 1.33198 1.04665 0
M  V30 16213 O 1535.94 1.50661 0.984954 0
M  V30 16214 H 1532.31 0.735162 0.158241 0
M  V30 16215 H 1534.28 2.97493 -0.232482 0
M  V30 16216 C 1533.03 3.11864 1.53741 0
M  V30 16217 H 1532.36 3.851 1.07414 0
M  V30 16218 H 1533.8 3.68374 2.09945 0
M  V30 16219 C 1532.25 2.25367 2.50423 0
M  V30 16220 O 1532.78 1.89329 3.54285 0
M  V30 16221 N 1530.99 1.89155 2.2061 0
M  V30 16222 H 1530.54 2.18661 1.36181 0
M  V30 16223 H 1530.5 1.31574 2.85544 0
M  V30 16224 N 1534.27 0.138579 1.5699 0
M  V30 16225 C 1535.2 -0.800568 2.19347 0
M  V30 16226 C 1536.18 -1.26318 1.13921 0
M  V30 16227 O 1537.36 -1.32226 1.42232 0
M  V30 16228 C 1534.49 -2.04317 2.80842 0
M  V30 16229 C 1533.45 -1.71764 3.92022 0
M  V30 16230 C 1532.77 -3.03217 4.40413 0
M  V30 16231 C 1534.07 -0.970789 5.13199 0
M  V30 16232 H 1535.77 -0.280888 2.98079 0
M  V30 16233 H 1533.31 -0.133663 1.43378 0
M  V30 16234 H 1535.27 -2.70491 3.2313 0
M  V30 16235 H 1533.99 -2.58643 1.99428 0
M  V30 16236 H 1532.65 -1.07972 3.50339 0
M  V30 16237 H 1532.3 -3.55517 3.55832 0
M  V30 16238 H 1532 -2.82203 5.15398 0
M  V30 16239 H 1533.52 -3.70477 4.85365 0
M  V30 16240 H 1534.94 -1.53445 5.52384 0
M  V30 16241 H 1533.33 -0.860895 5.93893 0
M  V30 16242 H 1534.4 0.0390088 4.84884 0
M  V30 16243 N 1535.75 -1.57019 -0.13521 0
M  V30 16244 C 1536.68 -2.02182 -1.16811 0
M  V30 16245 C 1537.66 -0.9034 -1.44127 0
M  V30 16246 O 1538.84 -1.17202 -1.54846 0
M  V30 16247 C 1535.97 -2.41243 -2.49838 0
M  V30 16248 C 1534.93 -3.56379 -2.37018 0
M  V30 16249 C 1534.25 -3.8129 -3.74863 0
M  V30 16250 C 1535.55 -4.88653 -1.84432 0
M  V30 16251 H 1537.25 -2.8872 -0.792529 0
M  V30 16252 H 1534.79 -1.38901 -0.379788 0
M  V30 16253 H 1536.74 -2.7144 -3.22332 0
M  V30 16254 H 1535.47 -1.51656 -2.89254 0
M  V30 16255 H 1534.13 -3.26366 -1.66975 0
M  V30 16256 H 1533.78 -2.88934 -4.11735 0
M  V30 16257 H 1533.48 -4.58781 -3.67143 0
M  V30 16258 H 1535 -4.13924 -4.48887 0
M  V30 16259 H 1536.41 -5.17492 -2.46729 0
M  V30 16260 H 1534.81 -5.70032 -1.87574 0
M  V30 16261 H 1535.88 -4.78242 -0.800759 0
M  V30 16262 N 1537.22 0.404919 -1.52309 0
M  V30 16263 C 1538.47 1.15319 -1.66822 0
M  V30 16264 C 1538.8 1.90056 -0.399041 0
M  V30 16265 O 1538.08 1.84927 0.602679 0
M  V30 16266 C 1538.36 2.14426 -2.89298 0
M  V30 16267 C 1538.21 1.43558 -4.26276 0
M  V30 16268 C 1539.53 3.15046 -3.07301 0
M  V30 16269 H 1536.65 0.417869 -0.607087 0
M  V30 16270 H 1539.29 0.438414 -1.84873 0
M  V30 16271 H 1537.44 2.75382 -2.74039 0
M  V30 16272 H 1539.12 0.856899 -4.53271 0
M  V30 16273 H 1537.36 0.737515 -4.27485 0
M  V30 16274 H 1538.03 2.15895 -5.08029 0
M  V30 16275 H 1540.51 2.6417 -3.21486 0
M  V30 16276 H 1539.38 3.81652 -3.94503 0
M  V30 16277 H 1539.64 3.83012 -2.20803 0
M  V30 16278 N 1538.7 1.43003 0.662408 0
M  V30 16279 C 1539.93 1.47555 1.45035 0
M  V30 16280 C 1540.35 0.0906083 1.88582 0
M  V30 16281 O 1539.7 -0.897271 1.58919 0
M  V30 16282 C 1539.75 2.41345 2.69137 0
M  V30 16283 O 1539.47 3.74453 2.27413 0
M  V30 16284 C 1540.98 2.55045 3.62584 0
M  V30 16285 H 1538.2 0.501448 0.44586 0
M  V30 16286 H 1540.74 1.8765 0.812879 0
M  V30 16287 H 1538.89 2.0447 3.29045 0
M  V30 16288 H 1539.31 4.24801 3.07643 0
M  V30 16289 H 1540.78 3.24766 4.46353 0
M  V30 16290 H 1541.26 1.59235 4.09318 0
M  V30 16291 H 1541.87 2.92693 3.08563 0
M  V30 16292 N 1540.18 -0.899904 1.29381 0
M  V30 16293 C 1541.11 -2.00584 1.08817 0
M  V30 16294 C 1542.09 -1.626 0.000108013 0
M  V30 16295 O 1543.28 -1.87896 0.150764 0
M  V30 16296 C 1540.4 -3.32276 0.656508 0
M  V30 16297 C 1539.45 -3.89247 1.74325 0
M  V30 16298 S 1540.28 -4.18381 3.34242 0
M  V30 16299 C 1541.44 -5.53114 2.92943 0
M  V30 16300 H 1541.67 -2.1772 2.02448 0
M  V30 16301 H 1539.2 -1.04648 1.13526 0
M  V30 16302 H 1541.16 -4.08405 0.414172 0
M  V30 16303 H 1539.82 -3.1302 -0.260196 0
M  V30 16304 H 1539.02 -4.84363 1.39315 0
M  V30 16305 H 1538.62 -3.19805 1.9391 0
M  V30 16306 H 1540.91 -6.33576 2.39976 0
M  V30 16307 H 1541.85 -5.93048 3.8691 0
M  V30 16308 H 1542.26 -5.14962 2.31245 0
M  V30 16309 N 1541.66 -1.11854 -1.11024 0
M  V30 16310 C 1542.59 -0.803129 -2.19253 0
M  V30 16311 C 1543.57 0.230417 -1.68532 0
M  V30 16312 O 1544.75 0.0929421 -1.93977 0
M  V30 16313 C 1541.88 -0.250265 -3.46397 0
M  V30 16314 C 1540.84 -1.21617 -4.10357 0
M  V30 16315 C 1540.16 -0.523821 -5.32128 0
M  V30 16316 C 1541.46 -2.56852 -4.54779 0
M  V30 16317 H 1543.16 -1.7081 -2.45895 0
M  V30 16318 H 1540.7 -0.822712 -1.18184 0
M  V30 16319 H 1542.66 -0.0173732 -4.21396 0
M  V30 16320 H 1541.38 0.690018 -3.19228 0
M  V30 16321 H 1540.04 -1.43477 -3.37357 0
M  V30 16322 H 1539.69 0.421408 -5.01232 0
M  V30 16323 H 1539.39 -1.16809 -5.75873 0
M  V30 16324 H 1540.91 -0.299823 -6.09863 0
M  V30 16325 H 1542.33 -2.39056 -5.21081 0
M  V30 16326 H 1540.72 -3.17301 -5.09353 0
M  V30 16327 H 1541.79 -3.15751 -3.68007 0
M  V30 16328 N 1543.14 1.28707 -0.909517 0
M  V30 16329 C 1544.39 1.94437 -0.536401 0
M  V30 16330 C 1544.7 1.72416 0.923685 0
M  V30 16331 O 1545.9 2.32333 1.40477 0
M  V30 16332 C 1544.36 3.48246 -0.908455 0
M  V30 16333 C 1543.97 3.79051 -2.38798 0
M  V30 16334 C 1545.71 4.20156 -0.605721 0
M  V30 16335 C 1543.62 5.2615 -2.70038 0
M  V30 16336 H 1542.55 0.727842 -0.196882 0
M  V30 16337 H 1545.2 1.46283 -1.10786 0
M  V30 16338 H 1543.58 3.95107 -0.265829 0
M  V30 16339 H 1544.76 3.43014 -3.07698 0
M  V30 16340 H 1543.07 3.20303 -2.66074 0
M  V30 16341 H 1545.67 5.28439 -0.815849 0
M  V30 16342 H 1546.01 4.13792 0.456266 0
M  V30 16343 H 1546.54 3.79059 -1.20662 0
M  V30 16344 H 1543.28 5.37587 -3.75073 0
M  V30 16345 H 1542.8 5.63399 -2.05771 0
M  V30 16346 H 1544.48 5.93846 -2.56819 0
M  V30 16347 N 1544.61 0.673042 1.42506 0
M  V30 16348 C 1545.89 0.123606 1.95209 0
M  V30 16349 C 1546.27 -1.36118 1.61354 0
M  V30 16350 O 1545.62 -2.0965 0.908793 0
M  V30 16351 C 1545.83 0.39088 3.46804 0
M  V30 16352 C 1547.18 0.306445 4.23493 0
M  V30 16353 O 1548.2 0.32453 3.54719 0
M  V30 16354 O 1547.06 0.247127 5.45941 0
M  V30 16355 H 1544.15 0.00184868 0.826998 0
M  V30 16356 H 1546.7 0.74765 1.52343 0
M  V30 16357 H 1545.47 1.41951 3.64645 0
M  V30 16358 H 1545.1 -0.265259 3.96714 0
M  V30 16359 N 1546.09 -1.52004 0.416254 0
M  V30 16360 C 1547.02 -2.24913 -0.441208 0
M  V30 16361 C 1548.04 -1.28139 -1.0042 0
M  V30 16362 O 1549.23 -1.54037 -0.901928 0
M  V30 16363 C 1546.33 -2.97298 -1.62688 0
M  V30 16364 C 1545.5 -4.20999 -1.18652 0
M  V30 16365 C 1544.56 -4.76146 -2.2399 0
M  V30 16366 O 1543.58 -5.38541 -1.84288 0
M  V30 16367 N 1544.79 -4.58338 -3.56239 0
M  V30 16368 H 1547.55 -2.99137 0.183576 0
M  V30 16369 H 1545.11 -1.60051 0.244008 0
M  V30 16370 H 1547.1 -3.31082 -2.32737 0
M  V30 16371 H 1545.67 -2.26216 -2.15744 0
M  V30 16372 H 1544.89 -3.92948 -0.313877 0
M  V30 16373 H 1546.18 -5.01318 -0.869365 0
M  V30 16374 H 1545.58 -4.08592 -3.91241 0
M  V30 16375 H 1544.14 -4.96542 -4.22244 0
M  V30 16376 N 1547.57 -0.146903 -1.56914 0
M  V30 16377 C 1548.5 0.788924 -2.19769 0
M  V30 16378 C 1549.48 1.25712 -1.14589 0
M  V30 16379 O 1550.67 1.3147 -1.42931 0
M  V30 16380 C 1547.8 2.02824 -2.81921 0
M  V30 16381 C 1546.75 1.69683 -3.92927 0
M  V30 16382 C 1546.08 3.00877 -4.42015 0
M  V30 16383 C 1547.38 0.943559 -5.13706 0
M  V30 16384 H 1549.07 0.265076 -2.98224 0
M  V30 16385 H 1546.62 0.126057 -1.43447 0
M  V30 16386 H 1548.57 2.68773 -3.2456 0
M  V30 16387 H 1547.29 2.57581 -2.00797 0
M  V30 16388 H 1545.95 1.06112 -3.50907 0
M  V30 16389 H 1545.6 3.53625 -3.57713 0
M  V30 16390 H 1545.3 2.79466 -5.16888 0
M  V30 16391 H 1546.82 3.67897 -4.87323 0
M  V30 16392 H 1548.24 1.50513 -5.5319 0
M  V30 16393 H 1546.64 0.829387 -5.94341 0
M  V30 16394 H 1547.71 -0.0647228 -4.84857 0
M  V30 16395 N 1549.05 1.57088 0.126881 0
M  V30 16396 C 1550.29 1.8625 0.842031 0
M  V30 16397 C 1550.65 0.733868 1.77421 0
M  V30 16398 O 1551.85 0.907051 2.53034 0
M  V30 16399 C 1550.12 3.2063 1.57897 0
M  V30 16400 S 1551.68 3.71403 2.33677 0
M  V30 16401 H 1548.5 0.653034 0.28119 0
M  V30 16402 H 1551.1 1.9524 0.100825 0
M  V30 16403 H 1549.81 4.00722 0.885982 0
M  V30 16404 H 1549.34 3.14698 2.3607 0
M  V30 16405 H 1551.35 3.42274 3.59253 0
M  V30 16406 N 1550.53 -0.396836 1.52522 0
M  V30 16407 C 1551.77 -1.14037 1.66853 0
M  V30 16408 C 1552.1 -1.90706 0.406987 0
M  V30 16409 O 1551.37 -1.87165 -0.578443 0
M  V30 16410 H 1549.95 -0.423967 0.615029 0
M  V30 16411 H 1552.61 -0.451042 1.89609 0
M  V30 16412 H 1551.7 -1.84763 2.51533 0
M  V30 16413 N 1552.01 -1.43353 -0.654814 0
M  V30 16414 C 1553.42 -1.26718 -0.970297 0
M  V30 16415 C 1553.62 -0.185747 -2.00642 0
M  V30 16416 O 1552.68 0.436357 -2.48701 0
M  V30 16417 C 1553.99 -2.63095 -1.45608 0
M  V30 16418 C 1555.54 -2.70613 -1.57281 0
M  V30 16419 C 1556.01 -4.07404 -2.0925 0
M  V30 16420 N 1557.5 -4.09461 -2.16555 0
M  V30 16421 C 1558.24 -5.12135 -2.57885 0
M  V30 16422 N 1557.74 -6.25185 -2.98523 0
M  V30 16423 N 1559.53 -4.9949 -2.57811 0
M  V30 16424 H 1551.68 -2.12378 0.0308331 0
M  V30 16425 H 1553.94 -0.946744 -0.0487843 0
M  V30 16426 H 1553.65 -3.43186 -0.769171 0
M  V30 16427 H 1553.52 -2.88381 -2.43138 0
M  V30 16428 H 1555.91 -1.90855 -2.25074 0
M  V30 16429 H 1555.99 -2.49094 -0.581879 0
M  V30 16430 H 1555.63 -4.87628 -1.4206 0
M  V30 16431 H 1555.56 -4.26287 -3.09172 0
M  V30 16432 H 1558.06 -3.27858 -1.87929 0
M  V30 16433 H 1558.37 -6.99362 -3.28804 0
M  V30 16434 H 1556.71 -6.28659 -2.96332 0
M  V30 16435 H 1559.9 -4.10238 -2.25438 0
M  V30 16436 H 1560.08 -5.79637 -2.89699 0
M  V30 16437 N 1553.48 0.89303 -1.29857 0
M  V30 16438 C 1554.76 1.62492 -1.08884 0
M  V30 16439 C 1555.14 2.07926 0.364695 0
M  V30 16440 O 1554.49 1.84009 1.35473 0
M  V30 16441 C 1554.7 2.80063 -2.08245 0
M  V30 16442 C 1556.05 3.50589 -2.39526 0
M  V30 16443 O 1557.07 2.90241 -2.06492 0
M  V30 16444 O 1555.93 4.59399 -2.95998 0
M  V30 16445 H 1553.02 0.713805 -0.417626 0
M  V30 16446 H 1555.57 0.940513 -1.41253 0
M  V30 16447 H 1554.34 2.43735 -3.06119 0
M  V30 16448 H 1553.96 3.56205 -1.76645 0
M  V30 16449 N 1554.96 1.12442 1.10429 0
M  V30 16450 C 1556.37 0.894147 1.63896 0
M  V30 16451 C 1556.72 -0.571509 1.87692 0
M  V30 16452 O 1555.85 -1.43595 1.61893 0
M  V30 16453 C 1556.44 1.61664 2.97742 0
M  V30 16454 C 1555 1.43251 3.48075 0
M  V30 16455 C 1554.15 1.65252 2.22682 0
M  V30 16456 H 1557.1 1.27918 0.939289 0
M  V30 16457 H 1557.12 1.06771 3.65213 0
M  V30 16458 H 1556.63 2.68333 2.80391 0
M  V30 16459 H 1554.73 0.388385 3.7057 0
M  V30 16460 H 1554.85 2.18866 4.26186 0
M  V30 16461 H 1553.21 1.07663 2.30827 0
M  V30 16462 H 1553.99 2.73219 2.07862 0
M  V30 16463 N 1556.44 -1.28223 0.91633 0
M  V30 16464 C 1557.67 -1.98986 0.566772 0
M  V30 16465 C 1558.08 -1.68455 -0.852553 0
M  V30 16466 O 1557.44 -0.938734 -1.56506 0
M  V30 16467 C 1557.49 -3.53217 0.769423 0
M  V30 16468 O 1557.21 -3.82674 2.1329 0
M  V30 16469 C 1558.71 -4.41238 0.427043 0
M  V30 16470 H 1555.93 -0.63534 0.215834 0
M  V30 16471 H 1558.48 -1.63357 1.23024 0
M  V30 16472 H 1556.63 -3.87098 0.152915 0
M  V30 16473 H 1557.05 -4.77302 2.17448 0
M  V30 16474 H 1558.52 -5.48512 0.619594 0
M  V30 16475 H 1559 -4.34558 -0.63686 0
M  V30 16476 H 1559.6 -4.12858 1.0212 0
M  V30 16477 N 1557.92 -0.68059 -1.42147 0
M  V30 16478 C 1558.85 -0.0199376 -2.33491 0
M  V30 16479 C 1559.83 0.783164 -1.50999 0
M  V30 16480 O 1561.01 0.739154 -1.79583 0
M  V30 16481 C 1558.14 0.927902 -3.34675 0
M  V30 16482 C 1557.1 0.232979 -4.27365 0
M  V30 16483 C 1556.42 1.29415 -5.18802 0
M  V30 16484 C 1557.72 -0.891559 -5.14634 0
M  V30 16485 H 1559.42 -0.782823 -2.88985 0
M  V30 16486 H 1556.96 -0.377898 -1.38953 0
M  V30 16487 H 1558.92 1.3992 -3.97493 0
M  V30 16488 H 1557.64 1.72228 -2.77498 0
M  V30 16489 H 1556.3 -0.21814 -3.6595 0
M  V30 16490 H 1555.95 2.08067 -4.57949 0
M  V30 16491 H 1555.65 0.834274 -5.81647 0
M  V30 16492 H 1557.17 1.76627 -5.84496 0
M  V30 16493 H 1558.59 -0.501219 -5.71105 0
M  V30 16494 H 1556.98 -1.27759 -5.86343 0
M  V30 16495 H 1558.05 -1.73781 -4.5269 0
M  V30 16496 N 1559.4 1.51781 -0.424309 0
M  V30 16497 C 1560.62 2.06387 0.145548 0
M  V30 16498 C 1561.04 1.29299 1.37576 0
M  V30 16499 O 1560.4 0.348952 1.79133 0
M  V30 16500 C 1560.45 3.58288 0.48083 0
M  V30 16501 O 1560.17 4.32463 -0.700546 0
M  V30 16502 C 1561.67 4.29364 1.10278 0
M  V30 16503 H 1558.89 0.67086 0.0136908 0
M  V30 16504 H 1561.43 1.95511 -0.599639 0
M  V30 16505 H 1559.59 3.69122 1.17591 0
M  V30 16506 H 1560 5.22839 -0.417035 0
M  V30 16507 H 1561.48 5.36776 1.28747 0
M  V30 16508 H 1561.95 3.86815 2.08017 0
M  V30 16509 H 1562.56 4.2294 0.447458 0
M  V30 16510 N 1560.87 0.155222 1.56834 0
M  V30 16511 C 1562.15 -0.539327 1.88018 0
M  V30 16512 C 1562.53 -1.8241 1.06253 0
M  V30 16513 O 1561.88 -2.27996 0.151721 0
M  V30 16514 C 1562.09 -0.796826 3.39782 0
M  V30 16515 C 1563.44 -1.13397 4.09178 0
M  V30 16516 O 1564.46 -0.885907 3.45007 0
M  V30 16517 O 1563.32 -1.60117 5.22518 0
M  V30 16518 H 1560.41 -0.276066 0.779562 0
M  V30 16519 H 1562.96 0.192451 1.68605 0
M  V30 16520 H 1561.73 0.112097 3.91139 0
M  V30 16521 H 1561.35 -1.5825 3.6475 0
M  V30 16522 N 1562.35 -1.57153 -0.118549 0
M  V30 16523 C 1563.26 -2.03673 -1.16424 0
M  V30 16524 C 1564.28 -0.957203 -1.45305 0
M  V30 16525 O 1565.45 -1.26874 -1.56413 0
M  V30 16526 C 1562.52 -2.43211 -2.47082 0
M  V30 16527 C 1561.58 -3.65248 -2.25593 0
M  V30 16528 C 1560.81 -4.02891 -3.50021 0
M  V30 16529 O 1561.04 -3.40871 -4.57344 0
M  V30 16530 O 1559.97 -4.95989 -3.40996 0
M  V30 16531 H 1563.8 -2.92996 -0.799206 0
M  V30 16532 H 1561.38 -1.45724 -0.329376 0
M  V30 16533 H 1563.26 -2.69374 -3.24061 0
M  V30 16534 H 1561.94 -1.57034 -2.83058 0
M  V30 16535 H 1560.84 -3.44234 -1.46471 0
M  V30 16536 H 1562.18 -4.52131 -1.94521 0
M  V30 16537 N 1563.83 0.388742 -1.5273 0
M  V30 16538 C 1564.76 1.48133 -1.80496 0
M  V30 16539 C 1565.74 1.56899 -0.657008 0
M  V30 16540 O 1566.93 1.71844 -0.904621 0
M  V30 16541 C 1564.06 2.85742 -1.97405 0
M  V30 16542 C 1563.01 2.91815 -3.13094 0
M  V30 16543 C 1562.34 4.31876 -3.15258 0
M  V30 16544 C 1563.64 2.61438 -4.52159 0
M  V30 16545 H 1565.33 1.25147 -2.7199 0
M  V30 16546 H 1562.88 0.600603 -1.30877 0
M  V30 16547 H 1564.83 3.62182 -2.15412 0
M  V30 16548 H 1563.55 3.10065 -1.02601 0
M  V30 16549 H 1562.21 2.17824 -2.9487 0
M  V30 16550 H 1561.86 4.53239 -2.18135 0
M  V30 16551 H 1561.56 4.3686 -3.92972 0
M  V30 16552 H 1563.08 5.10221 -3.3542 0
M  V30 16553 H 1564.5 3.27596 -4.70483 0
M  V30 16554 H 1562.89 2.77771 -5.31943 0
M  V30 16555 H 1563.96 1.56778 -4.58856 0
M  V30 16556 N 1565.31 1.43698 0.647203 0
M  V30 16557 C 1566.24 1.52135 1.77136 0
M  V30 16558 C 1567.22 0.375551 1.65902 0
M  V30 16559 O 1568.4 0.593564 1.84907 0
M  V30 16560 C 1565.53 1.44974 3.15594 0
M  V30 16561 C 1564.49 2.57866 3.41598 0
M  V30 16562 C 1563.81 2.35757 4.7992 0
M  V30 16563 C 1565.11 4.00089 3.35747 0
M  V30 16564 H 1566.81 2.46227 1.70332 0
M  V30 16565 H 1564.35 1.18507 0.818046 0
M  V30 16566 H 1566.31 1.4948 3.93997 0
M  V30 16567 H 1565.03 0.473905 3.23143 0
M  V30 16568 H 1563.69 2.52722 2.65569 0
M  V30 16569 H 1563.34 1.36403 4.84152 0
M  V30 16570 H 1563.04 3.11436 4.98278 0
M  V30 16571 H 1564.56 2.42055 5.60572 0
M  V30 16572 H 1565.98 4.06687 4.04078 0
M  V30 16573 H 1564.37 4.75842 3.65642 0
M  V30 16574 H 1565.44 4.24798 2.33825 0
M  V30 16575 N 1566.79 -0.886131 1.30328 0
M  V30 16576 C 1567.73 -2.01312 1.16516 0
M  V30 16577 C 1568.73 -1.69223 0.0773431 0
M  V30 16578 O 1569.93 -1.78418 0.238111 0
M  V30 16579 H 1566.31 -0.66006 0.360312 0
M  V30 16580 H 1568.28 -2.10097 2.11901 0
M  V30 16581 C 1567.03 -3.36573 0.872592 0
M  V30 16582 H 1566.35 -3.61775 1.70172 0
M  V30 16583 H 1567.79 -4.16073 0.816049 0
M  V30 16584 C 1566.25 -3.34215 -0.424465 0
M  V30 16585 O 1566.78 -3.74758 -1.44634 0
M  V30 16586 N 1564.99 -2.87323 -0.435207 0
M  V30 16587 H 1564.53 -2.54525 0.396851 0
M  V30 16588 H 1564.49 -2.86128 -1.303 0
M  V30 16589 N 1568.26 -1.13026 -1.09832 0
M  V30 16590 C 1569.51 -0.884093 -1.81292 0
M  V30 16591 C 1569.83 0.591608 -1.86439 0
M  V30 16592 O 1571.03 0.954571 -2.54166 0
M  V30 16593 C 1569.49 -1.53207 -3.25662 0
M  V30 16594 C 1569.1 -3.043 -3.28794 0
M  V30 16595 C 1570.84 -1.36644 -4.01906 0
M  V30 16596 C 1568.75 -3.62003 -4.67662 0
M  V30 16597 H 1567.68 -0.327101 -0.679353 0
M  V30 16598 H 1570.33 -1.35748 -1.2347 0
M  V30 16599 H 1568.71 -0.986353 -3.83519 0
M  V30 16600 H 1569.88 -3.65418 -2.80725 0
M  V30 16601 H 1568.2 -3.20332 -2.66038 0
M  V30 16602 H 1570.8 -1.7717 -5.04495 0
M  V30 16603 H 1571.14 -0.310809 -4.15138 0
M  V30 16604 H 1571.67 -1.88172 -3.5048 0
M  V30 16605 H 1568.41 -4.67354 -4.59631 0
M  V30 16606 H 1567.93 -3.05663 -5.16072 0
M  V30 16607 H 1569.61 -3.61432 -5.36634 0
M  V30 16608 N 1569.74 1.27735 -0.923117 0
M  V30 16609 C 1570.67 2.29395 -0.435907 0
M  V30 16610 C 1571.65 1.62542 0.501403 0
M  V30 16611 O 1572.84 1.89884 0.407135 0
M  V30 16612 C 1569.97 3.45856 0.316348 0
M  V30 16613 C 1568.92 4.24672 -0.532697 0
M  V30 16614 C 1568.25 5.33563 0.348454 0
M  V30 16615 C 1569.55 4.90494 -1.79481 0
M  V30 16616 H 1571.24 2.70398 -1.28551 0
M  V30 16617 H 1568.79 1.29989 -0.619581 0
M  V30 16618 H 1570.74 4.1607 0.668098 0
M  V30 16619 H 1569.47 3.03758 1.19994 0
M  V30 16620 H 1568.12 3.56198 -0.867093 0
M  V30 16621 H 1567.77 4.87708 1.23086 0
M  V30 16622 H 1567.47 5.87202 -0.216104 0
M  V30 16623 H 1569 6.06622 0.695878 0
M  V30 16624 H 1570.41 5.53019 -1.5114 0
M  V30 16625 H 1568.81 5.5417 -2.30251 0
M  V30 16626 H 1569.88 4.14454 -2.51707 0
M  V30 16627 N 1571.22 0.688118 1.41784 0
M  V30 16628 C 1572.45 0.22475 2.05676 0
M  V30 16629 C 1572.86 -1.1232 1.51755 0
M  V30 16630 O 1572.22 -1.70041 0.662735 0
M  V30 16631 C 1572.27 0.165661 3.6112 0
M  V30 16632 O 1571.99 1.46035 4.13044 0
M  V30 16633 C 1573.49 -0.319599 4.42146 0
M  V30 16634 H 1570.71 0.106135 0.662553 0
M  V30 16635 H 1573.26 0.938605 1.81688 0
M  V30 16636 H 1571.41 -0.498968 3.84173 0
M  V30 16637 H 1571.83 1.34252 5.07027 0
M  V30 16638 H 1573.3 -0.30983 5.5113 0
M  V30 16639 H 1573.78 -1.3572 4.17704 0
M  V30 16640 H 1574.38 0.313764 4.24141 0
M  V30 16641 N 1572.7 -1.51554 0.432352 0
M  V30 16642 C 1573.61 -2.31371 -0.387885 0
M  V30 16643 C 1574.62 -1.40072 -1.03227 0
M  V30 16644 O 1575.8 -1.73145 -1.02873 0
M  V30 16645 C 1572.87 -3.13662 -1.47705 0
M  V30 16646 C 1571.93 -4.20734 -0.853315 0
M  V30 16647 C 1571.16 -4.99092 -1.89058 0
M  V30 16648 O 1571.38 -4.78022 -3.11209 0
M  V30 16649 O 1570.32 -5.83322 -1.48389 0
M  V30 16650 H 1574.14 -3.02554 0.263578 0
M  V30 16651 H 1571.73 -1.48122 0.195004 0
M  V30 16652 H 1573.61 -3.64837 -2.10884 0
M  V30 16653 H 1572.28 -2.45249 -2.11269 0
M  V30 16654 H 1571.19 -3.73649 -0.183616 0
M  V30 16655 H 1572.52 -4.91506 -0.261244 0
M  V30 16656 N 1574.18 -0.163538 -1.56749 0
M  V30 16657 C 1575.11 0.765571 -2.20593 0
M  V30 16658 C 1576.09 1.24489 -1.15916 0
M  V30 16659 O 1577.27 1.29946 -1.44318 0
M  V30 16660 C 1574.4 1.99823 -2.84057 0
M  V30 16661 C 1573.36 1.65506 -3.94705 0
M  V30 16662 C 1572.68 2.96172 -4.45181 0
M  V30 16663 C 1573.98 0.88902 -5.14678 0
M  V30 16664 H 1575.68 0.233431 -2.98489 0
M  V30 16665 H 1573.22 0.110836 -1.43573 0
M  V30 16666 H 1575.18 2.65316 -3.27392 0
M  V30 16667 H 1573.9 2.55437 -2.03517 0
M  V30 16668 H 1572.56 1.02384 -3.52013 0
M  V30 16669 H 1572.21 3.49811 -3.61443 0
M  V30 16670 H 1571.91 2.73968 -5.19823 0
M  V30 16671 H 1573.43 3.62708 -4.91198 0
M  V30 16672 H 1574.84 1.44637 -5.54755 0
M  V30 16673 H 1573.24 0.766302 -5.95187 0
M  V30 16674 H 1574.31 -0.116145 -4.84761 0
M  V30 16675 N 1575.65 1.57214 0.110213 0
M  V30 16676 C 1576.88 1.89505 0.830391 0
M  V30 16677 C 1577.3 0.755702 1.73016 0
M  V30 16678 O 1576.65 -0.273072 1.80445 0
M  V30 16679 C 1576.71 3.21316 1.65646 0
M  V30 16680 O 1576.43 4.30865 0.7929 0
M  V30 16681 C 1577.93 3.67369 2.48102 0
M  V30 16682 H 1575.15 0.627277 0.238252 0
M  V30 16683 H 1577.69 2.04293 0.0919716 0
M  V30 16684 H 1575.85 3.08171 2.34754 0
M  V30 16685 H 1576.26 5.06466 1.36353 0
M  V30 16686 H 1577.73 4.62335 3.0158 0
M  V30 16687 H 1578.21 2.94459 3.25869 0
M  V30 16688 H 1578.82 3.83331 1.8422 0
M  V30 16689 N 1577.13 -0.380637 1.52934 0
M  V30 16690 C 1578.06 -1.48518 1.74571 0
M  V30 16691 C 1579.08 -1.50272 0.626263 0
M  V30 16692 O 1580.27 -1.54023 0.902167 0
M  V30 16693 C 1577.37 -2.87339 1.79693 0
M  V30 16694 C 1576.54 -3.09454 3.09123 0
M  V30 16695 C 1575.6 -4.28305 3.05682 0
M  V30 16696 O 1574.62 -4.24205 3.79524 0
M  V30 16697 N 1575.83 -5.34932 2.2545 0
M  V30 16698 H 1578.59 -1.30341 2.69873 0
M  V30 16699 H 1576.15 -0.57023 1.51526 0
M  V30 16700 H 1578.14 -3.64961 1.74887 0
M  V30 16701 H 1576.71 -2.98835 0.917414 0
M  V30 16702 H 1575.93 -2.19623 3.27352 0
M  V30 16703 H 1577.22 -3.21089 3.94689 0
M  V30 16704 H 1576.62 -5.41121 1.64939 0
M  V30 16705 H 1575.18 -6.11189 2.26476 0
M  V30 16706 N 1578.61 -1.44039 -0.639573 0
M  V30 16707 C 1579.54 -1.53073 -1.76327 0
M  V30 16708 C 1580.52 -0.384344 -1.65701 0
M  V30 16709 O 1581.71 -0.603362 -1.84589 0
M  V30 16710 C 1578.84 -1.46646 -3.14821 0
M  V30 16711 C 1577.79 -2.59673 -3.40226 0
M  V30 16712 C 1577.12 -2.38298 -4.78663 0
M  V30 16713 C 1578.42 -4.01864 -3.33621 0
M  V30 16714 H 1580.11 -2.47126 -1.69023 0
M  V30 16715 H 1577.66 -1.1894 -0.811749 0
M  V30 16716 H 1579.61 -1.51567 -3.93199 0
M  V30 16717 H 1578.33 -0.491035 -3.22888 0
M  V30 16718 H 1576.99 -2.54127 -2.64225 0
M  V30 16719 H 1576.64 -1.38968 -4.83422 0
M  V30 16720 H 1576.34 -3.14074 -4.9662 0
M  V30 16721 H 1577.86 -2.45025 -5.59281 0
M  V30 16722 H 1579.28 -4.08824 -4.01915 0
M  V30 16723 H 1577.68 -4.77775 -3.63113 0
M  V30 16724 H 1578.75 -4.26033 -2.31569 0
M  V30 16725 N 1580.09 0.879207 -1.30796 0
M  V30 16726 C 1581.31 1.66975 -1.23021 0
M  V30 16727 C 1581.74 1.87004 0.202798 0
M  V30 16728 O 1581.1 1.40514 1.14566 0
M  V30 16729 C 1581.14 3.02028 -1.97007 0
M  V30 16730 O 1580.25 3.91338 -1.30109 0
M  V30 16731 H 1579.59 0.509998 -0.425204 0
M  V30 16732 H 1582.12 1.09688 -1.72713 0
M  V30 16733 H 1582.13 3.5203 -2.06249 0
M  V30 16734 H 1580.8 2.8677 -3.01224 0
M  V30 16735 H 1579.38 3.49781 -1.29258 0
M  V30 16736 N 1581.57 1.13606 1.09231 0
M  V30 16737 C 1582.51 0.815279 2.15921 0
M  V30 16738 C 1583.48 -0.223501 1.64589 0
M  V30 16739 O 1584.67 -0.0952982 1.90562 0
M  V30 16740 C 1581.81 0.289655 3.43882 0
M  V30 16741 C 1580.92 1.38773 4.09104 0
M  V30 16742 C 1580.06 0.820238 5.24829 0
M  V30 16743 C 1579.1 1.89658 5.81976 0
M  V30 16744 N 1578.23 1.34688 6.8906 0
M  V30 16745 H 1583.07 1.72914 2.42703 0
M  V30 16746 H 1580.61 0.863101 1.19117 0
M  V30 16747 H 1582.57 -0.0332398 4.17187 0
M  V30 16748 H 1581.2 -0.587329 3.17412 0
M  V30 16749 H 1580.25 1.82718 3.33644 0
M  V30 16750 H 1581.56 2.20114 4.47606 0
M  V30 16751 H 1580.72 0.448745 6.05038 0
M  V30 16752 H 1579.46 -0.0242261 4.87694 0
M  V30 16753 H 1578.46 2.27712 5.00427 0
M  V30 16754 H 1579.69 2.74448 6.21172 0
M  V30 16755 H 1577.63 0.524453 6.539 0
M  V30 16756 H 1577.55 2.09675 7.26342 0
M  V30 16757 H 1578.82 1.00302 7.7302 0
M  V30 16758 N 1583.05 -1.27244 0.929878 0
M  V30 16759 C 1584.27 -1.98373 0.587845 0
M  V30 16760 C 1584.69 -1.69349 -0.834638 0
M  V30 16761 O 1584.05 -0.955281 -1.55501 0
M  V30 16762 C 1584.1 -3.52381 0.806843 0
M  V30 16763 O 1583.82 -3.8039 2.17337 0
M  V30 16764 C 1585.32 -4.40761 0.473818 0
M  V30 16765 H 1582.54 -0.633015 0.22256 0
M  V30 16766 H 1585.08 -1.62043 1.2475 0
M  V30 16767 H 1583.24 -3.86914 0.193963 0
M  V30 16768 H 1583.65 -4.74968 2.22498 0
M  V30 16769 H 1585.13 -5.47824 0.677736 0
M  V30 16770 H 1585.6 -4.35209 -0.590734 0
M  V30 16771 H 1586.21 -4.11751 1.06493 0
M  V30 16772 N 1584.52 -0.695628 -1.41417 0
M  V30 16773 C 1585.75 -0.235654 -2.05554 0
M  V30 16774 C 1586.17 1.11513 -1.52349 0
M  V30 16775 O 1585.52 1.69688 -0.671743 0
M  V30 16776 C 1585.57 -0.184809 -3.61027 0
M  V30 16777 O 1585.3 -1.48224 -4.12264 0
M  V30 16778 C 1586.8 0.296147 -4.4231 0
M  V30 16779 H 1584.02 -0.109648 -0.661981 0
M  V30 16780 H 1586.56 -0.948227 -1.81187 0
M  V30 16781 H 1584.72 0.478588 -3.84432 0
M  V30 16782 H 1585.13 -1.36939 -5.06308 0
M  V30 16783 H 1586.6 0.280597 -5.51286 0
M  V30 16784 H 1587.08 1.33503 -4.18418 0
M  V30 16785 H 1587.69 -0.336253 -4.23969 0
M  V30 16786 N 1586 1.51322 -0.440383 0
M  V30 16787 C 1586.95 2.2941 0.383883 0
M  V30 16788 C 1587.94 1.35388 1.01816 0
M  V30 16789 O 1589.15 1.52716 0.952775 0
M  V30 16790 H 1585.52 0.738354 0.142611 0
M  V30 16791 H 1587.5 2.96933 -0.295532 0
M  V30 16792 C 1586.24 3.15055 1.47091 0
M  V30 16793 H 1585.57 3.87292 0.992214 0
M  V30 16794 H 1587.01 3.72744 2.02084 0
M  V30 16795 C 1585.47 2.30628 2.45586 0
M  V30 16796 O 1586 1.96801 3.50189 0
M  V30 16797 N 1584.2 1.93792 2.16548 0
M  V30 16798 H 1583.75 2.215 1.31512 0
M  V30 16799 H 1583.71 1.37601 2.82689 0
M  V30 16800 N 1587.48 0.171848 1.5666 0
M  V30 16801 C 1588.44 -0.744316 2.16778 0
M  V30 16802 C 1589.44 -1.15769 1.11598 0
M  V30 16803 O 1590.63 -1.07456 1.37109 0
M  V30 16804 C 1587.76 -2.01319 2.75106 0
M  V30 16805 H 1588.96 -0.220952 2.99085 0
M  V30 16806 H 1586.51 -0.0777149 1.56107 0
M  V30 16807 H 1587.25 -2.57963 1.96534 0
M  V30 16808 H 1587.03 -1.72575 3.5208 0
M  V30 16809 H 1588.52 -2.667 3.21342 0
M  V30 16810 N 1588.96 -1.5727 -0.101874 0
M  V30 16811 C 1589.9 -2.01577 -1.12406 0
M  V30 16812 C 1590.87 -0.890883 -1.40187 0
M  V30 16813 O 1592.06 -1.15638 -1.51764 0
M  V30 16814 C 1589.2 -2.43952 -2.44093 0
M  V30 16815 C 1588.31 -3.69932 -2.23101 0
M  V30 16816 C 1587.45 -4.01215 -3.48138 0
M  V30 16817 C 1586.49 -5.20325 -3.22379 0
M  V30 16818 N 1585.62 -5.47394 -4.39664 0
M  V30 16819 H 1590.46 -2.88685 -0.739244 0
M  V30 16820 H 1588 -1.42789 -0.353497 0
M  V30 16821 H 1589.96 -2.66563 -3.20936 0
M  V30 16822 H 1588.59 -1.59863 -2.80435 0
M  V30 16823 H 1587.64 -3.54838 -1.37092 0
M  V30 16824 H 1588.95 -4.56924 -2.00054 0
M  V30 16825 H 1588.11 -4.24566 -4.33392 0
M  V30 16826 H 1586.85 -3.12732 -3.74233 0
M  V30 16827 H 1585.85 -4.96802 -2.35517 0
M  V30 16828 H 1587.08 -6.10401 -2.97637 0
M  V30 16829 H 1585.02 -4.61869 -4.65847 0
M  V30 16830 H 1584.94 -6.28743 -4.19783 0
M  V30 16831 H 1586.21 -5.75276 -5.26002 0
M  V30 16832 N 1590.44 0.372521 -1.53134 0
M  V30 16833 C 1591.68 1.11754 -1.6923 0
M  V30 16834 C 1592.01 1.89167 -0.439265 0
M  V30 16835 O 1591.29 1.86164 0.563317 0
M  V30 16836 C 1591.57 2.08242 -2.93781 0
M  V30 16837 C 1591.43 1.34484 -4.29225 0
M  V30 16838 C 1592.74 3.08457 -3.13914 0
M  V30 16839 H 1589.86 0.404898 -0.615814 0
M  V30 16840 H 1592.51 0.399101 -1.85761 0
M  V30 16841 H 1590.66 2.69507 -2.79818 0
M  V30 16842 H 1592.33 0.76056 -4.54987 0
M  V30 16843 H 1590.57 0.646673 -4.28953 0
M  V30 16844 H 1591.24 2.05071 -5.12494 0
M  V30 16845 H 1593.72 2.57292 -3.27017 0
M  V30 16846 H 1592.59 3.73198 -4.0251 0
M  V30 16847 H 1592.85 3.78243 -2.28878 0
M  V30 16848 N 1591.91 1.44376 0.631925 0
M  V30 16849 C 1592.88 1.50825 1.72582 0
M  V30 16850 C 1593.88 0.390379 1.55989 0
M  V30 16851 O 1595.07 0.65297 1.61499 0
M  V30 16852 C 1592.2 1.38141 3.11657 0
M  V30 16853 H 1593.39 2.48265 1.68239 0
M  V30 16854 H 1590.94 1.31456 0.845514 0
M  V30 16855 H 1591.68 0.417905 3.21596 0
M  V30 16856 H 1591.46 2.19198 3.25107 0
M  V30 16857 H 1592.95 1.45633 3.91383 0
M  V30 16858 N 1593.39 -0.872258 1.31261 0
M  V30 16859 C 1594.32 -1.99517 1.21306 0
M  V30 16860 C 1595.3 -1.69801 0.100775 0
M  V30 16861 O 1596.49 -1.92098 0.284984 0
M  V30 16862 C 1593.62 -3.34968 0.917249 0
M  V30 16863 C 1592.57 -3.78984 1.98885 0
M  V30 16864 C 1591.9 -5.11869 1.54578 0
M  V30 16865 C 1593.2 -3.96338 3.40167 0
M  V30 16866 H 1594.89 -2.08104 2.15251 0
M  V30 16867 H 1592.44 -0.999865 1.03628 0
M  V30 16868 H 1594.39 -4.1306 0.834217 0
M  V30 16869 H 1593.11 -3.26549 -0.0578721 0
M  V30 16870 H 1591.77 -3.0313 2.06174 0
M  V30 16871 H 1591.42 -4.99889 0.558581 0
M  V30 16872 H 1591.12 -5.4229 2.26265 0
M  V30 16873 H 1592.65 -5.92472 1.47678 0
M  V30 16874 H 1594.06 -4.64831 3.35566 0
M  V30 16875 H 1592.46 -4.38153 4.10051 0
M  V30 16876 H 1593.53 -2.9979 3.81122 0
M  V30 16877 N 1594.87 -1.14184 -1.08627 0
M  V30 16878 C 1596.29 -0.881757 -1.33031 0
M  V30 16879 C 1596.49 0.478313 -1.95741 0
M  V30 16880 O 1595.54 1.22308 -2.209 0
M  V30 16881 C 1596.85 -2.01274 -2.23404 0
M  V30 16882 C 1598.4 -2.04578 -2.3689 0
M  V30 16883 C 1598.88 -3.16962 -3.30604 0
M  V30 16884 N 1600.37 -3.16526 -3.3818 0
M  V30 16885 C 1601.1 -4.00124 -4.10716 0
M  V30 16886 N 1600.6 -4.93757 -4.8598 0
M  V30 16887 N 1602.39 -3.88193 -4.06525 0
M  V30 16888 H 1594.54 -2.01787 -0.663017 0
M  V30 16889 H 1596.81 -0.879152 -0.354677 0
M  V30 16890 H 1596.51 -2.9938 -1.84566 0
M  V30 16891 H 1596.39 -1.93393 -3.2385 0
M  V30 16892 H 1598.77 -1.0708 -2.74987 0
M  V30 16893 H 1598.85 -2.16529 -1.36194 0
M  V30 16894 H 1598.5 -4.14704 -2.93228 0
M  V30 16895 H 1598.43 -3.02248 -4.31223 0
M  V30 16896 H 1600.92 -2.48708 -2.84522 0
M  V30 16897 H 1601.23 -5.54015 -5.38783 0
M  V30 16898 H 1599.58 -4.97756 -4.8504 0
M  V30 16899 H 1602.77 -3.14365 -3.46831 0
M  V30 16900 H 1602.94 -4.53571 -4.62793 0
M  V30 16901 N 1596.35 1.26749 -0.936613 0
M  V30 16902 C 1597.31 2.24794 -0.447243 0
M  V30 16903 C 1598.31 1.54688 0.439135 0
M  V30 16904 O 1599.5 1.72553 0.238957 0
M  V30 16905 C 1596.63 3.39036 0.355958 0
M  V30 16906 H 1597.83 2.696 -1.31361 0
M  V30 16907 H 1595.38 1.38825 -0.718143 0
M  V30 16908 H 1596.11 2.99625 1.24077 0
M  V30 16909 H 1595.9 3.91101 -0.279691 0
M  V30 16910 H 1597.39 4.11887 0.688421 0
M  V30 16911 N 1597.83 0.703118 1.41046 0
M  V30 16912 C 1599.24 0.375417 1.55122 0
M  V30 16913 C 1599.44 -1.11696 1.67709 0
M  V30 16914 O 1598.5 -1.90289 1.65971 0
M  V30 16915 C 1599.81 1.13056 2.78638 0
M  V30 16916 C 1601.36 1.11564 2.92442 0
M  V30 16917 C 1601.83 1.85268 4.18855 0
M  V30 16918 N 1603.33 1.82275 4.25829 0
M  V30 16919 C 1604.06 2.36137 5.2252 0
M  V30 16920 N 1603.56 2.98502 6.25195 0
M  V30 16921 N 1605.35 2.26349 5.14512 0
M  V30 16922 H 1597.5 1.67096 1.31121 0
M  V30 16923 H 1599.76 0.705573 0.633144 0
M  V30 16924 H 1599.47 2.18524 2.75572 0
M  V30 16925 H 1599.34 0.714037 3.7038 0
M  V30 16926 H 1601.73 0.0691901 2.95019 0
M  V30 16927 H 1601.81 1.57128 2.01853 0
M  V30 16928 H 1601.46 2.89896 4.1704 0
M  V30 16929 H 1601.39 1.37133 5.08431 0
M  V30 16930 H 1603.88 1.36812 3.52265 0
M  V30 16931 H 1604.19 3.37149 6.95378 0
M  V30 16932 H 1602.53 3.02582 6.25675 0
M  V30 16933 H 1605.73 1.77294 4.33226 0
M  V30 16934 H 1605.9 2.68629 5.89697 0
M  V30 16935 N 1599.3 -1.51086 0.448402 0
M  V30 16936 C 1600.24 -2.25799 -0.393401 0
M  V30 16937 C 1601.25 -1.30241 -0.976792 0
M  V30 16938 O 1602.44 -1.55916 -0.869051 0
M  V30 16939 C 1599.54 -3.00682 -1.56345 0
M  V30 16940 C 1598.71 -4.23421 -1.09695 0
M  V30 16941 C 1597.77 -4.8079 -2.1384 0
M  V30 16942 O 1596.8 -5.42329 -1.72823 0
M  V30 16943 N 1598 -4.65792 -3.46437 0
M  V30 16944 H 1600.76 -2.98681 0.246986 0
M  V30 16945 H 1598.32 -1.59497 0.277902 0
M  V30 16946 H 1600.32 -3.35945 -2.25662 0
M  V30 16947 H 1598.89 -2.30741 -2.10897 0
M  V30 16948 H 1598.11 -3.93526 -0.230457 0
M  V30 16949 H 1599.39 -5.03049 -0.762832 0
M  V30 16950 H 1598.79 -4.16799 -3.82486 0
M  V30 16951 H 1597.35 -5.05386 -4.11616 0
M  V30 16952 N 1600.78 -0.180154 -1.56567 0
M  V30 16953 C 1602.03 0.463205 -1.97439 0
M  V30 16954 C 1602.36 1.62296 -1.06647 0
M  V30 16955 O 1601.64 1.94157 -0.115382 0
M  V30 16956 C 1601.92 0.937709 -3.47677 0
M  V30 16957 C 1601.77 -0.222835 -4.49248 0
M  V30 16958 C 1603.09 1.80836 -4.01231 0
M  V30 16959 H 1600.21 0.166899 -0.717854 0
M  V30 16960 H 1602.85 -0.268069 -1.88099 0
M  V30 16961 H 1601 1.56084 -3.55767 0
M  V30 16962 H 1602.67 -0.860155 -4.5321 0
M  V30 16963 H 1600.92 -0.876962 -4.24843 0
M  V30 16964 H 1601.59 0.151444 -5.51792 0
M  V30 16965 H 1604.06 1.28297 -3.95827 0
M  V30 16966 H 1602.94 2.10937 -5.06751 0
M  V30 16967 H 1603.2 2.75728 -3.45581 0
M  V30 16968 N 1602.26 1.57322 0.0935319 0
M  V30 16969 C 1603.19 2.05208 1.11409 0
M  V30 16970 C 1604.17 0.941295 1.41681 0
M  V30 16971 O 1605.36 1.21266 1.51684 0
M  V30 16972 C 1602.49 2.47782 2.43354 0
M  V30 16973 C 1601.44 3.62538 2.27486 0
M  V30 16974 C 1600.77 3.91095 3.64622 0
M  V30 16975 C 1602.07 4.93371 1.71412 0
M  V30 16976 H 1603.76 2.9072 0.715702 0
M  V30 16977 H 1601.31 1.3986 0.342827 0
M  V30 16978 H 1603.26 2.79891 3.15022 0
M  V30 16979 H 1601.98 1.59272 2.85132 0
M  V30 16980 H 1600.64 3.30679 1.58263 0
M  V30 16981 H 1600.29 2.99749 4.0393 0
M  V30 16982 H 1599.99 4.68353 3.5485 0
M  V30 16983 H 1601.51 4.25679 4.37755 0
M  V30 16984 H 1602.93 5.23851 2.32922 0
M  V30 16985 H 1601.33 5.74804 1.72395 0
M  V30 16986 H 1602.4 4.80197 0.67368 0
M  V30 16987 N 1603.74 -0.364395 1.53329 0
M  V30 16988 C 1604.99 -1.10423 1.68789 0
M  V30 16989 C 1605.3 -1.90428 0.446819 0
M  V30 16990 O 1606.51 -2.67188 0.481978 0
M  V30 16991 C 1604.96 -2.01228 2.98388 0
M  V30 16992 C 1604.57 -1.26529 4.29761 0
M  V30 16993 C 1606.31 -2.75196 3.23214 0
M  V30 16994 C 1604.22 -2.16243 5.50448 0
M  V30 16995 H 1603.15 -0.415935 0.628899 0
M  V30 16996 H 1605.8 -0.365145 1.7983 0
M  V30 16997 H 1604.18 -2.78872 2.81152 0
M  V30 16998 H 1605.36 -0.5394 4.57632 0
M  V30 16999 H 1603.67 -0.644181 4.11387 0
M  V30 17000 H 1606.27 -3.42548 4.10567 0
M  V30 17001 H 1606.61 -3.40629 2.39327 0
M  V30 17002 H 1607.15 -2.04635 3.4113 0
M  V30 17003 H 1603.89 -1.55385 6.36817 0
M  V30 17004 H 1603.41 -2.86678 5.26855 0
M  V30 17005 H 1605.08 -2.75774 5.85284 0
M  V30 17006 N 1605.22 -1.44709 -0.62426 0
M  V30 17007 C 1606.18 -1.51738 -1.7178 0
M  V30 17008 C 1607.18 -0.398646 -1.5578 0
M  V30 17009 O 1608.37 -0.661525 -1.61151 0
M  V30 17010 C 1605.5 -1.39792 -3.1092 0
M  V30 17011 H 1606.69 -2.49154 -1.6692 0
M  V30 17012 H 1604.25 -1.31903 -0.838531 0
M  V30 17013 H 1604.98 -0.434955 -3.2137 0
M  V30 17014 H 1604.77 -2.20919 -3.2394 0
M  V30 17015 H 1606.26 -1.47706 -3.90606 0
M  V30 17016 N 1606.69 0.865285 -1.31722 0
M  V30 17017 C 1607.92 1.65661 -1.24785 0
M  V30 17018 C 1608.34 1.87208 0.182952 0
M  V30 17019 O 1607.7 1.41721 1.1307 0
M  V30 17020 C 1607.75 2.99921 -2.00199 0
M  V30 17021 O 1606.85 3.89936 -1.34253 0
M  V30 17022 H 1606.2 0.505459 -0.430589 0
M  V30 17023 H 1608.73 1.0785 -1.73867 0
M  V30 17024 H 1608.74 3.49823 -2.09971 0
M  V30 17025 H 1607.41 2.83559 -3.04249 0
M  V30 17026 H 1605.99 3.4839 -1.32961 0
M  V30 17027 N 1608.17 1.14759 1.0802 0
M  V30 17028 C 1609.12 0.806682 2.13253 0
M  V30 17029 C 1610.11 -0.205966 1.59576 0
M  V30 17030 O 1611.3 -0.00771878 1.76998 0
M  V30 17031 C 1608.43 0.290219 3.42071 0
M  V30 17032 C 1607.51 1.33262 4.02619 0
M  V30 17033 N 1607.9 2.53793 4.37519 0
M  V30 17034 C 1606.2 1.18377 4.30003 0
M  V30 17035 C 1606.9 3.20554 4.85407 0
M  V30 17036 N 1605.88 2.47951 4.83757 0
M  V30 17037 H 1609.68 1.72351 2.3806 0
M  V30 17038 H 1607.2 1.03203 1.25391 0
M  V30 17039 H 1609.19 0.0276782 4.16891 0
M  V30 17040 H 1607.85 -0.620751 3.18711 0
M  V30 17041 H 1608.86 2.9099 4.28422 0
M  V30 17042 H 1605.54 0.332142 4.16177 0
M  V30 17043 H 1606.93 4.23342 5.21758 0
M  V30 17044 N 1609.65 -1.26251 0.943322 0
M  V30 17045 C 1610.58 -2.28673 0.472347 0
M  V30 17046 C 1611.56 -1.63319 -0.475481 0
M  V30 17047 O 1612.75 -1.90508 -0.376875 0
M  V30 17048 C 1609.88 -3.46316 -0.261286 0
M  V30 17049 C 1608.83 -4.23771 0.600192 0
M  V30 17050 C 1608.16 -5.3405 -0.263525 0
M  V30 17051 C 1609.46 -4.87576 1.87262 0
M  V30 17052 H 1611.15 -2.68319 1.32836 0
M  V30 17053 H 1608.7 -1.28987 0.640182 0
M  V30 17054 H 1610.65 -4.1708 -0.601821 0
M  V30 17055 H 1609.37 -3.05629 -1.15146 0
M  V30 17056 H 1608.03 -3.54774 0.923651 0
M  V30 17057 H 1607.68 -4.89604 -1.15312 0
M  V30 17058 H 1607.38 -5.86784 0.309495 0
M  V30 17059 H 1608.9 -6.07652 -0.599281 0
M  V30 17060 H 1610.32 -5.50544 1.59919 0
M  V30 17061 H 1608.72 -5.50437 2.39038 0
M  V30 17062 H 1609.79 -4.10397 2.58268 0
M  V30 17063 N 1611.13 -0.710588 -1.40671 0
M  V30 17064 C 1612.54 -0.320926 -1.83921 0
M  V30 17065 C 1612.89 1.14358 -1.59426 0
M  V30 17066 O 1612.02 1.87952 -1.07252 0
M  V30 17067 C 1612.61 -0.5757 -3.33873 0
M  V30 17068 C 1611.17 -0.239799 -3.75635 0
M  V30 17069 C 1610.32 -0.850552 -2.63934 0
M  V30 17070 H 1613.27 -0.910118 -1.3001 0
M  V30 17071 H 1613.29 0.160707 -3.8016 0
M  V30 17072 H 1612.8 -1.64166 -3.51669 0
M  V30 17073 H 1610.9 0.821297 -3.63436 0
M  V30 17074 H 1611.02 -0.705306 -4.7388 0
M  V30 17075 H 1609.38 -0.278977 -2.53168 0
M  V30 17076 H 1610.16 -1.92068 -2.84543 0
M  V30 17077 N 1612.61 1.50847 -0.456408 0
M  V30 17078 C 1613.83 2.07139 0.104054 0
M  V30 17079 C 1614.26 1.31966 1.34039 0
M  V30 17080 O 1613.62 0.363038 1.77628 0
M  V30 17081 C 1613.66 3.5853 0.385794 0
M  V30 17082 O 1612.77 3.85351 1.46895 0
M  V30 17083 H 1612.11 0.663968 -0.00651246 0
M  V30 17084 H 1614.64 1.94226 -0.64323 0
M  V30 17085 H 1614.65 4.03097 0.630644 0
M  V30 17086 H 1613.32 4.12665 -0.51773 0
M  V30 17087 H 1611.9 3.52635 1.21256 0
M  V30 17088 N 1614.09 0.188454 1.56469 0
M  V30 17089 C 1615.32 -0.457182 2.01478 0
M  V30 17090 C 1615.72 -1.5619 1.06777 0
M  V30 17091 O 1615.07 -1.8359 0.063659 0
M  V30 17092 C 1615.13 -1.08002 3.42893 0
M  V30 17093 C 1614.79 -0.114858 4.56856 0
M  V30 17094 C 1615.79 0.673269 5.15522 0
M  V30 17095 C 1613.47 -0.00570411 5.023 0
M  V30 17096 C 1615.47 1.55758 6.18076 0
M  V30 17097 C 1613.16 0.882173 6.04699 0
M  V30 17098 C 1614.15 1.66239 6.6246 0
M  V30 17099 O 1613.84 2.5354 7.62871 0
M  V30 17100 H 1613.57 -0.119784 0.665303 0
M  V30 17101 H 1616.13 0.292446 2.03307 0
M  V30 17102 H 1614.36 -1.87811 3.3803 0
M  V30 17103 H 1616.05 -1.62962 3.7175 0
M  V30 17104 H 1616.81 0.599207 4.81284 0
M  V30 17105 H 1612.69 -0.602804 4.57042 0
M  V30 17106 H 1616.24 2.16701 6.63088 0
M  V30 17107 H 1612.13 0.957375 6.38361 0
M  V30 17108 H 1612.9 2.47245 7.80264 0
M  V30 17109 N 1615.56 -1.5737 -0.0851874 0
M  V30 17110 C 1616.47 -2.06097 -1.12078 0
M  V30 17111 C 1617.49 -0.987809 -1.43242 0
M  V30 17112 O 1618.67 -1.30163 -1.53686 0
M  V30 17113 C 1615.73 -2.48397 -2.41867 0
M  V30 17114 C 1614.79 -3.69951 -2.17795 0
M  V30 17115 C 1614.02 -4.10225 -3.41396 0
M  V30 17116 O 1614.25 -3.50495 -4.5001 0
M  V30 17117 O 1613.18 -5.03111 -3.30399 0
M  V30 17118 H 1617.01 -2.94625 -0.736877 0
M  V30 17119 H 1614.59 -1.4639 -0.298392 0
M  V30 17120 H 1616.47 -2.76187 -3.18274 0
M  V30 17121 H 1615.15 -1.63003 -2.79664 0
M  V30 17122 H 1614.06 -3.47263 -1.39136 0
M  V30 17123 H 1615.39 -4.56156 -1.84886 0
M  V30 17124 N 1617.04 0.356258 -1.53521 0
M  V30 17125 C 1617.97 1.44271 -1.83598 0
M  V30 17126 C 1618.95 1.5547 -0.690141 0
M  V30 17127 O 1620.14 1.69886 -0.940868 0
M  V30 17128 C 1617.27 2.8149 -2.03422 0
M  V30 17129 C 1616.22 2.85108 -3.19213 0
M  V30 17130 C 1615.55 4.25091 -3.24348 0
M  V30 17131 C 1616.85 2.51788 -4.57602 0
M  V30 17132 H 1618.54 1.1935 -2.74583 0
M  V30 17133 H 1616.09 0.572707 -1.32121 0
M  V30 17134 H 1618.04 3.57531 -2.23046 0
M  V30 17135 H 1616.76 3.07819 -1.09155 0
M  V30 17136 H 1615.42 2.1152 -2.99424 0
M  V30 17137 H 1615.07 4.4851 -2.277 0
M  V30 17138 H 1614.77 4.28426 -4.0215 0
M  V30 17139 H 1616.3 5.02992 -3.46167 0
M  V30 17140 H 1617.71 3.17542 -4.77326 0
M  V30 17141 H 1616.11 2.66426 -5.37715 0
M  V30 17142 H 1617.18 1.4701 -4.62078 0
M  V30 17143 N 1618.52 1.45038 0.616577 0
M  V30 17144 C 1619.94 1.29246 0.936359 0
M  V30 17145 C 1620.14 0.238879 2.00079 0
M  V30 17146 O 1619.19 -0.370265 2.4977 0
M  V30 17147 C 1620.5 2.66863 1.38581 0
M  V30 17148 C 1622.05 2.74688 1.50051 0
M  V30 17149 C 1622.53 4.12809 1.98375 0
M  V30 17150 N 1624.02 4.15058 2.05623 0
M  V30 17151 C 1624.75 5.18793 2.44216 0
M  V30 17152 N 1624.25 6.3288 2.81843 0
M  V30 17153 N 1626.04 5.06149 2.44477 0
M  V30 17154 H 1618.19 2.12221 -0.0871304 0
M  V30 17155 H 1620.46 0.947705 0.0236659 0
M  V30 17156 H 1620.16 3.45105 0.677911 0
M  V30 17157 H 1620.04 2.94726 2.35407 0
M  V30 17158 H 1622.42 1.96756 2.19934 0
M  V30 17159 H 1622.5 2.50549 0.515631 0
M  V30 17160 H 1622.15 4.91223 1.29082 0
M  V30 17161 H 1622.08 4.34334 2.97761 0
M  V30 17162 H 1624.57 3.32726 1.79171 0
M  V30 17163 H 1624.88 7.07834 3.10147 0
M  V30 17164 H 1623.23 6.36295 2.7956 0
M  V30 17165 H 1626.42 4.16071 2.14482 0
M  V30 17166 H 1626.59 5.87114 2.74229 0
M  V30 17167 N 1620 -0.858287 1.32179 0
M  V30 17168 C 1620.95 -1.95454 1.17396 0
M  V30 17169 C 1621.93 -1.60692 0.0818403 0
M  V30 17170 O 1623.12 -1.743 0.307973 0
M  V30 17171 C 1620.25 -3.31416 0.895443 0
M  V30 17172 C 1619.34 -3.72409 2.0291 0
M  V30 17173 N 1619.73 -3.8526 3.27732 0
M  V30 17174 C 1618.03 -4.02009 1.93145 0
M  V30 17175 C 1618.73 -4.20479 4.01961 0
M  V30 17176 N 1617.7 -4.318 3.30227 0
M  V30 17177 H 1621.51 -2.03518 2.12033 0
M  V30 17178 H 1619.02 -1.04982 1.23905 0
M  V30 17179 H 1621.02 -4.09718 0.770504 0
M  V30 17180 H 1619.68 -3.24672 -0.0425798 0
M  V30 17181 H 1620.69 -3.69677 3.62711 0
M  V30 17182 H 1617.37 -4.03587 1.06882 0
M  V30 17183 H 1618.76 -4.37921 5.09583 0
M  V30 17184 N 1621.48 -1.1533 -1.07409 0
M  V30 17185 C 1622.42 -0.845328 -2.16696 0
M  V30 17186 C 1623.42 0.181009 -1.6843 0
M  V30 17187 O 1624.62 0.0361013 -1.79964 0
M  V30 17188 H 1621 -0.255698 -0.707193 0
M  V30 17189 H 1622.97 -1.7747 -2.39889 0
M  V30 17190 C 1621.72 -0.350381 -3.4593 0
M  V30 17191 H 1621.04 -1.13152 -3.83454 0
M  V30 17192 H 1622.48 -0.173547 -4.23645 0
M  V30 17193 C 1620.94 0.927991 -3.23867 0
M  V30 17194 O 1621.47 1.99965 -3.48392 0
M  V30 17195 N 1619.68 0.867266 -2.77357 0
M  V30 17196 H 1619.22 -0.00500352 -2.576 0
M  V30 17197 H 1619.18 1.72314 -2.62974 0
M  V30 17198 N 1622.95 1.25748 -0.950004 0
M  V30 17199 C 1623.89 2.25247 -0.423855 0
M  V30 17200 C 1624.9 1.56233 0.457726 0
M  V30 17201 O 1626.09 1.76496 0.266749 0
M  V30 17202 C 1623.19 3.36422 0.409074 0
M  V30 17203 C 1622.36 4.34991 -0.458421 0
M  V30 17204 C 1621.42 5.25253 0.315537 0
M  V30 17205 O 1620.45 5.68489 -0.284474 0
M  V30 17206 N 1621.65 5.57732 1.60983 0
M  V30 17207 H 1624.41 2.71026 -1.27925 0
M  V30 17208 H 1621.97 1.39607 -0.819853 0
M  V30 17209 H 1623.97 3.93764 0.934447 0
M  V30 17210 H 1622.54 2.90068 1.1653 0
M  V30 17211 H 1621.76 3.76594 -1.16494 0
M  V30 17212 H 1623.04 4.97833 -1.05068 0
M  V30 17213 H 1622.44 5.24502 2.1193 0
M  V30 17214 H 1621 6.17678 2.08126 0
M  V30 17215 N 1624.43 0.718038 1.40292 0
M  V30 17216 C 1625.68 0.258986 2.0114 0
M  V30 17217 C 1626.01 -1.1456 1.56811 0
M  V30 17218 O 1625.29 -1.77766 0.789276 0
M  V30 17219 C 1625.57 0.341778 3.58474 0
M  V30 17220 C 1625.42 1.78492 4.12869 0
M  V30 17221 C 1626.74 -0.285622 4.39172 0
M  V30 17222 H 1623.86 0.0955806 0.730776 0
M  V30 17223 H 1626.5 0.911 1.66736 0
M  V30 17224 H 1624.65 -0.213354 3.87914 0
M  V30 17225 H 1626.32 2.39562 3.94218 0
M  V30 17226 H 1624.57 2.31183 3.67065 0
M  V30 17227 H 1625.24 1.79423 5.22026 0
M  V30 17228 H 1627.71 0.187411 4.15678 0
M  V30 17229 H 1626.59 -0.19726 5.48545 0
M  V30 17230 H 1626.85 -1.36947 4.20355 0
M  V30 17231 N 1625.91 -1.50602 0.464402 0
M  V30 17232 C 1626.82 -2.32142 -0.338721 0
M  V30 17233 C 1627.84 -1.4223 -1.00233 0
M  V30 17234 O 1629.01 -1.75288 -0.99177 0
M  V30 17235 C 1626.08 -3.16725 -1.41019 0
M  V30 17236 C 1625.14 -4.22449 -0.76388 0
M  V30 17237 C 1624.37 -5.0299 -1.78429 0
M  V30 17238 O 1624.59 -4.84516 -3.00999 0
M  V30 17239 O 1623.53 -5.86338 -1.35982 0
M  V30 17240 H 1627.35 -3.01927 0.327695 0
M  V30 17241 H 1624.94 -1.47675 0.226379 0
M  V30 17242 H 1626.82 -3.69228 -2.03097 0
M  V30 17243 H 1625.5 -2.49675 -2.06019 0
M  V30 17244 H 1624.4 -3.73955 -0.104318 0
M  V30 17245 H 1625.74 -4.9195 -0.156929 0
M  V30 17246 N 1627.39 -0.19675 -1.56367 0
M  V30 17247 C 1628.61 0.450245 -2.02454 0
M  V30 17248 C 1629.04 1.54287 -1.07597 0
M  V30 17249 O 1628.4 1.81202 -0.0597529 0
M  V30 17250 C 1628.44 0.982087 -3.46969 0
M  V30 17251 O 1627.55 2.09489 -3.5523 0
M  V30 17252 H 1626.89 0.105022 -0.655642 0
M  V30 17253 H 1629.42 -0.308112 -2.02267 0
M  V30 17254 H 1629.43 1.29826 -3.86793 0
M  V30 17255 H 1628.1 0.18224 -4.15501 0
M  V30 17256 H 1626.68 1.78723 -3.27281 0
M  V30 17257 N 1628.87 1.57413 0.0768405 0
M  V30 17258 C 1630.12 1.86186 0.775741 0
M  V30 17259 C 1630.43 0.788676 1.78995 0
M  V30 17260 O 1631.63 0.964095 2.53806 0
M  V30 17261 C 1630.09 3.30247 1.43055 0
M  V30 17262 C 1629.7 4.45682 0.45517 0
M  V30 17263 C 1631.44 3.68225 2.11211 0
M  V30 17264 C 1629.35 5.80782 1.11561 0
M  V30 17265 H 1628.28 0.694546 0.293466 0
M  V30 17266 H 1630.93 1.83477 0.0289478 0
M  V30 17267 H 1629.31 3.27552 2.22544 0
M  V30 17268 H 1630.49 4.59759 -0.309535 0
M  V30 17269 H 1628.8 4.16222 -0.121671 0
M  V30 17270 H 1631.4 4.66454 2.6139 0
M  V30 17271 H 1631.74 2.9777 2.90928 0
M  V30 17272 H 1632.27 3.72888 1.38561 0
M  V30 17273 H 1629.01 6.54517 0.358877 0
M  V30 17274 H 1628.53 5.70515 1.8513 0
M  V30 17275 H 1630.21 6.25951 1.63689 0
M  V30 17276 N 1630.34 -0.348112 1.53707 0
M  V30 17277 C 1631.59 -1.08886 1.70734 0
M  V30 17278 C 1631.92 -1.88782 0.468142 0
M  V30 17279 O 1631.17 -1.8781 -0.550081 0
M  V30 17280 C 1631.47 -2.06123 2.91973 0
M  V30 17281 C 1631.14 -1.42574 4.27766 0
M  V30 17282 C 1629.8 -1.24971 4.64689 0
M  V30 17283 C 1632.15 -0.967538 5.12141 0
M  V30 17284 C 1629.48 -0.601597 5.83607 0
M  V30 17285 C 1631.83 -0.33335 6.31721 0
M  V30 17286 C 1630.5 -0.144967 6.67343 0
M  V30 17287 H 1629.77 -0.398444 0.624759 0
M  V30 17288 H 1632.41 -0.368657 1.87918 0
M  V30 17289 H 1630.72 -2.84509 2.69373 0
M  V30 17290 H 1632.42 -2.63423 3.0234 0
M  V30 17291 H 1629.01 -1.57271 3.98702 0
M  V30 17292 H 1633.19 -1.0914 4.84151 0
M  V30 17293 H 1628.45 -0.444216 6.09784 0
M  V30 17294 H 1632.62 0.0298081 6.96394 0
M  V30 17295 H 1630.25 0.359291 7.5935 0
M  V30 17296 N 1631.82 -1.45363 -0.608876 0
M  V30 17297 C 1632.75 -1.56778 -1.7304 0
M  V30 17298 C 1633.73 -0.419405 -1.64848 0
M  V30 17299 O 1634.92 -0.64238 -1.83268 0
M  V30 17300 C 1632.05 -1.5329 -3.1164 0
M  V30 17301 C 1631 -2.66832 -3.34641 0
M  V30 17302 C 1630.33 -2.48398 -4.735 0
M  V30 17303 C 1631.63 -4.0885 -3.25021 0
M  V30 17304 H 1633.32 -2.50656 -1.63743 0
M  V30 17305 H 1630.87 -1.20635 -0.786338 0
M  V30 17306 H 1632.82 -1.59873 -3.89895 0
M  V30 17307 H 1631.55 -0.559414 -3.21773 0
M  V30 17308 H 1630.2 -2.59675 -2.58775 0
M  V30 17309 H 1629.85 -1.49191 -4.80366 0
M  V30 17310 H 1629.55 -3.24537 -4.89846 0
M  V30 17311 H 1631.08 -2.56833 -5.53958 0
M  V30 17312 H 1632.49 -4.17257 -3.93153 0
M  V30 17313 H 1630.89 -4.85369 -3.52897 0
M  V30 17314 H 1631.96 -4.30849 -2.2248 0
M  V30 17315 N 1633.3 0.851265 -1.32632 0
M  V30 17316 C 1634.53 1.64328 -1.26535 0
M  V30 17317 C 1634.95 1.87392 0.163086 0
M  V30 17318 O 1634.31 1.42913 1.1156 0
M  V30 17319 C 1634.36 2.97781 -2.03369 0
M  V30 17320 O 1633.46 3.8849 -1.38381 0
M  V30 17321 H 1632.8 0.500864 -0.435926 0
M  V30 17322 H 1635.33 1.06 -1.75001 0
M  V30 17323 H 1635.34 3.47576 -2.1367 0
M  V30 17324 H 1634.02 2.80316 -3.07239 0
M  V30 17325 H 1632.59 3.4696 -1.36649 0
M  V30 17326 N 1634.78 1.15898 1.06796 0
M  V30 17327 C 1635.74 0.863427 2.12315 0
M  V30 17328 C 1636.74 -0.139326 1.60195 0
M  V30 17329 O 1637.93 0.0909705 1.73962 0
M  V30 17330 C 1635.06 0.290251 3.39662 0
M  V30 17331 H 1636.26 1.79879 2.39966 0
M  V30 17332 H 1633.81 0.967223 1.22778 0
M  V30 17333 H 1634.54 -0.653037 3.17657 0
M  V30 17334 H 1634.33 1.01273 3.78796 0
M  V30 17335 H 1635.82 0.10124 4.17477 0
M  V30 17336 N 1636.26 -1.25243 0.956659 0
M  V30 17337 C 1637.51 -1.92312 0.608196 0
M  V30 17338 C 1637.82 -1.75726 -0.859058 0
M  V30 17339 O 1639.02 -2.37386 -1.31757 0
M  V30 17340 C 1637.48 -3.44634 1.03708 0
M  V30 17341 C 1637.09 -3.69927 2.52702 0
M  V30 17342 C 1638.83 -4.17619 0.761242 0
M  V30 17343 C 1636.74 -5.15765 2.8938 0
M  V30 17344 H 1635.67 -0.720033 0.22376 0
M  V30 17345 H 1638.32 -1.42071 1.16138 0
M  V30 17346 H 1636.7 -3.93848 0.412287 0
M  V30 17347 H 1637.88 -3.31357 3.20217 0
M  V30 17348 H 1636.19 -3.10207 2.77778 0
M  V30 17349 H 1638.79 -5.25047 1.01141 0
M  V30 17350 H 1639.13 -4.152 -0.302375 0
M  V30 17351 H 1639.66 -3.74319 1.34648 0
M  V30 17352 H 1636.4 -5.23296 3.94767 0
M  V30 17353 H 1635.92 -5.55374 2.26539 0
M  V30 17354 H 1637.6 -5.83905 2.78683 0
M  V30 17355 N 1637.73 -0.725468 -1.3991 0
M  V30 17356 C 1639.01 -0.195971 -1.94616 0
M  V30 17357 C 1639.39 1.30035 -1.66295 0
M  V30 17358 O 1638.74 2.06133 -0.985977 0
M  V30 17359 C 1638.95 -0.519325 -3.45115 0
M  V30 17360 C 1640.3 -0.46341 -4.22064 0
M  V30 17361 O 1641.32 -0.455958 -3.5327 0
M  V30 17362 O 1640.18 -0.449579 -5.44648 0
M  V30 17363 H 1637.27 -0.0325409 -0.82636 0
M  V30 17364 H 1639.82 -0.803676 -1.49463 0
M  V30 17365 H 1638.59 -1.55386 -3.59125 0
M  V30 17366 H 1638.22 0.117838 -3.97425 0
M  V30 17367 N 1639.21 1.50354 -0.472382 0
M  V30 17368 C 1640.15 2.25227 0.367135 0
M  V30 17369 C 1641.12 1.28594 0.99511 0
M  V30 17370 O 1642.31 1.57819 1.03079 0
M  V30 17371 C 1639.43 3.02952 1.51452 0
M  V30 17372 C 1638.48 4.14519 1.0038 0
M  V30 17373 S 1639.31 5.35436 -0.082542 0
M  V30 17374 C 1640.47 6.16709 1.06869 0
M  V30 17375 H 1640.7 2.96086 -0.268437 0
M  V30 17376 H 1638.24 1.52241 -0.257282 0
M  V30 17377 H 1640.19 3.48324 2.17212 0
M  V30 17378 H 1638.85 2.31617 2.12161 0
M  V30 17379 H 1638.05 4.68311 1.86282 0
M  V30 17380 H 1637.65 3.7159 0.423896 0
M  V30 17381 H 1639.94 6.4792 1.98004 0
M  V30 17382 H 1640.88 7.05802 0.570008 0
M  V30 17383 H 1641.29 5.48775 1.3231 0
M  V30 17384 N 1640.69 0.205039 1.56261 0
M  V30 17385 C 1641.92 -0.435787 2.01952 0
M  V30 17386 C 1642.33 -1.55048 1.08428 0
M  V30 17387 O 1641.67 -1.83512 0.0831276 0
M  V30 17388 C 1641.73 -1.04359 3.4402 0
M  V30 17389 C 1641.4 -0.0663955 4.56952 0
M  V30 17390 C 1642.4 0.727909 5.14779 0
M  V30 17391 C 1640.08 0.0475718 5.02277 0
M  V30 17392 C 1642.07 1.62305 6.16389 0
M  V30 17393 C 1639.76 0.94626 6.03729 0
M  V30 17394 C 1640.76 1.73256 6.6066 0
M  V30 17395 O 1640.45 2.61617 7.60139 0
M  V30 17396 H 1640.18 -0.112721 0.666536 0
M  V30 17397 H 1642.73 0.313993 2.02986 0
M  V30 17398 H 1640.96 -1.84215 3.40003 0
M  V30 17399 H 1642.65 -1.5901 3.73458 0
M  V30 17400 H 1643.42 0.65022 4.80622 0
M  V30 17401 H 1639.3 -0.554295 4.57656 0
M  V30 17402 H 1642.84 2.23722 6.60753 0
M  V30 17403 H 1638.74 1.02503 6.3731 0
M  V30 17404 H 1639.51 2.55507 7.77598 0
M  V30 17405 N 1642.17 -1.57451 -0.0684915 0
M  V30 17406 C 1643.42 -1.87041 -0.765505 0
M  V30 17407 C 1643.74 -0.797489 -1.77947 0
M  V30 17408 O 1643.01 0.17349 -1.9513 0
M  V30 17409 H 1641.59 -0.690203 -0.285708 0
M  V30 17410 H 1644.25 -1.94851 -0.0437957 0
M  V30 17411 H 1643.35 -2.8466 -1.27966 0
M  V30 17412 N 1643.65 0.339955 -1.5389 0
M  V30 17413 C 1644.6 1.41838 -1.78511 0
M  V30 17414 C 1645.58 1.47604 -0.640447 0
M  V30 17415 O 1646.77 1.52414 -0.899951 0
M  V30 17416 C 1643.9 2.78929 -2.00134 0
M  V30 17417 C 1642.99 2.7754 -3.20675 0
M  V30 17418 N 1643.38 2.45779 -4.42071 0
M  V30 17419 C 1641.68 3.08684 -3.21917 0
M  V30 17420 C 1642.38 2.52714 -5.23938 0
M  V30 17421 N 1641.35 2.88484 -4.60736 0
M  V30 17422 H 1645.16 1.16185 -2.6996 0
M  V30 17423 H 1642.67 0.548339 -1.52863 0
M  V30 17424 H 1644.67 3.56637 -2.15907 0
M  V30 17425 H 1643.33 3.05525 -1.09929 0
M  V30 17426 H 1644.34 2.18913 -4.69358 0
M  V30 17427 H 1641.02 3.40429 -2.41691 0
M  V30 17428 H 1642.41 2.31287 -6.30838 0
M  V30 17429 N 1645.13 1.45684 0.601159 0
M  V30 17430 C 1646.06 1.50861 1.7255 0
M  V30 17431 C 1647.07 0.398728 1.57842 0
M  V30 17432 O 1648.26 0.66613 1.65605 0
M  V30 17433 C 1645.36 1.35535 3.10618 0
M  V30 17434 C 1644.53 2.60313 3.51505 0
M  V30 17435 C 1643.59 2.39451 4.68561 0
M  V30 17436 O 1642.62 3.13094 4.75353 0
M  V30 17437 N 1643.82 1.44426 5.62247 0
M  V30 17438 H 1646.58 2.47799 1.6857 0
M  V30 17439 H 1644.15 1.41505 0.786626 0
M  V30 17440 H 1646.14 1.19379 3.86692 0
M  V30 17441 H 1644.71 0.468492 3.09069 0
M  V30 17442 H 1643.93 2.9154 2.65327 0
M  V30 17443 H 1645.22 3.43242 3.75583 0
M  V30 17444 H 1644.61 0.836624 5.59479 0
M  V30 17445 H 1643.17 1.34239 6.37827 0
M  V30 17446 N 1646.6 -0.84422 1.33082 0
M  V30 17447 C 1647.85 -1.59912 1.24235 0
M  V30 17448 C 1648.18 -1.93538 -0.193223 0
M  V30 17449 O 1647.43 -1.58418 -1.14901 0
M  V30 17450 C 1647.73 -2.92225 2.05765 0
M  V30 17451 C 1647.4 -2.77985 3.55014 0
M  V30 17452 C 1646.06 -2.73809 3.95705 0
M  V30 17453 C 1648.41 -2.63171 4.49878 0
M  V30 17454 C 1645.74 -2.5271 5.29485 0
M  V30 17455 C 1648.09 -2.43607 5.83814 0
M  V30 17456 C 1646.76 -2.37829 6.23693 0
M  V30 17457 H 1646.03 -0.58516 0.454608 0
M  V30 17458 H 1648.67 -0.978493 1.64614 0
M  V30 17459 H 1646.98 -3.58465 1.58146 0
M  V30 17460 H 1648.68 -3.49678 1.96281 0
M  V30 17461 H 1645.27 -2.82065 3.22703 0
M  V30 17462 H 1649.45 -2.65435 4.19354 0
M  V30 17463 H 1644.71 -2.4668 5.59427 0
M  V30 17464 H 1648.88 -2.31126 6.56927 0
M  V30 17465 H 1646.51 -2.21241 7.27294 0
M  V30 17466 N 1648.08 -1.16463 -1.0618 0
M  V30 17467 C 1649.32 -0.957536 -1.80584 0
M  V30 17468 C 1649.69 0.505554 -1.85225 0
M  V30 17469 O 1650.89 0.831384 -2.5562 0
M  V30 17470 C 1649.16 -1.56919 -3.21109 0
M  V30 17471 S 1650.72 -1.5069 -4.12114 0
M  V30 17472 H 1647.53 -0.344329 -0.62206 0
M  V30 17473 H 1650.14 -1.48228 -1.2747 0
M  V30 17474 H 1648.84 -2.62672 -3.15328 0
M  V30 17475 H 1648.37 -1.04382 -3.79299 0
M  V30 17476 H 1650.39 -0.507956 -4.93593 0
M  V30 17477 N 1649.56 1.24734 -0.963288 0
M  V30 17478 C 1650.81 1.91987 -0.618386 0
M  V30 17479 C 1651.12 1.76179 0.849726 0
M  V30 17480 O 1652.33 2.38082 1.30496 0
M  V30 17481 C 1650.78 3.44079 -1.05534 0
M  V30 17482 C 1650.39 3.68582 -2.5466 0
M  V30 17483 C 1652.14 4.17209 -0.783378 0
M  V30 17484 C 1650.04 5.14223 -2.92111 0
M  V30 17485 H 1648.97 0.718836 -0.227575 0
M  V30 17486 H 1651.62 1.41453 -1.1689 0
M  V30 17487 H 1650.01 3.93624 -0.433168 0
M  V30 17488 H 1651.18 3.29655 -3.2197 0
M  V30 17489 H 1649.49 3.08729 -2.79419 0
M  V30 17490 H 1652.09 5.24503 -1.03924 0
M  V30 17491 H 1652.43 4.15355 0.280352 0
M  V30 17492 H 1652.97 3.736 -1.36631 0
M  V30 17493 H 1649.71 5.21195 -3.97537 0
M  V30 17494 H 1649.23 5.54164 -2.29482 0
M  V30 17495 H 1650.91 5.82419 -2.81775 0
M  V30 17496 N 1651.04 0.732878 1.39523 0
M  V30 17497 C 1651.95 0.0930216 2.34416 0
M  V30 17498 C 1652.96 -0.724309 1.58208 0
M  V30 17499 O 1654.14 -0.653267 1.90511 0
M  V30 17500 C 1651.2 -0.805036 3.37224 0
M  V30 17501 C 1650.27 0.0243049 4.29293 0
M  V30 17502 C 1649.5 -0.830984 5.27191 0
M  V30 17503 O 1649.72 -2.06977 5.31523 0
M  V30 17504 O 1648.66 -0.260772 6.01335 0
M  V30 17505 H 1652.48 0.876179 2.90786 0
M  V30 17506 H 1650.07 0.493525 1.41013 0
M  V30 17507 H 1651.95 -1.31894 4.00228 0
M  V30 17508 H 1650.62 -1.56704 2.83241 0
M  V30 17509 H 1649.53 0.583677 3.69519 0
M  V30 17510 H 1650.86 0.748485 4.86476 0
M  V30 17511 N 1652.52 -1.50101 0.480349 0
M  V30 17512 C 1653.46 -2.30347 -0.322924 0
M  V30 17513 C 1654.46 -1.3804 -0.981904 0
M  V30 17514 O 1655.66 -1.55188 -0.91195 0
M  V30 17515 H 1652.04 -0.741875 -0.122985 0
M  V30 17516 H 1654.01 -2.96045 0.374155 0
M  V30 17517 C 1652.76 -3.18844 -1.38686 0
M  V30 17518 H 1652.08 -3.89787 -0.889181 0
M  V30 17519 H 1653.52 -3.77971 -1.9213 0
M  V30 17520 C 1651.98 -2.37058 -2.39385 0
M  V30 17521 O 1652.51 -2.06016 -3.44848 0
M  V30 17522 N 1650.72 -1.99465 -2.11334 0
M  V30 17523 H 1650.26 -2.24909 -1.25593 0
M  V30 17524 H 1650.22 -1.45048 -2.78942 0
M  V30 17525 N 1653.99 -0.213323 -1.5615 0
M  V30 17526 C 1654.92 0.695003 -2.22917 0
M  V30 17527 C 1655.9 1.20738 -1.19818 0
M  V30 17528 O 1657.09 1.25289 -1.48379 0
M  V30 17529 C 1654.22 1.90685 -2.9027 0
M  V30 17530 C 1653.17 1.52865 -3.9977 0
M  V30 17531 C 1652.5 2.81859 -4.54378 0
M  V30 17532 C 1653.8 0.724829 -5.17246 0
M  V30 17533 H 1655.49 0.138351 -2.9908 0
M  V30 17534 H 1653.04 0.0651029 -1.43853 0
M  V30 17535 H 1654.99 2.54766 -3.35667 0
M  V30 17536 H 1653.72 2.48833 -2.11541 0
M  V30 17537 H 1652.38 0.911336 -3.55092 0
M  V30 17538 H 1652.02 3.38135 -3.72389 0
M  V30 17539 H 1651.72 2.57291 -5.28275 0
M  V30 17540 H 1653.25 3.46897 -5.02489 0
M  V30 17541 H 1654.66 1.26915 -5.59076 0
M  V30 17542 H 1653.06 0.57656 -5.97324 0
M  V30 17543 H 1654.13 -0.270309 -4.84146 0
M  V30 17544 N 1655.47 1.57485 0.0601405 0
M  V30 17545 C 1656.4 2.01233 1.09717 0
M  V30 17546 C 1657.42 0.92008 1.34307 0
M  V30 17547 O 1658.61 1.19783 1.32342 0
M  V30 17548 C 1655.71 2.3461 2.44564 0
M  V30 17549 C 1654.88 3.65828 2.39768 0
M  V30 17550 C 1653.94 3.86743 3.56814 0
M  V30 17551 O 1652.96 4.5819 3.37714 0
M  V30 17552 N 1654.17 3.29988 4.77586 0
M  V30 17553 H 1656.93 2.9081 0.724526 0
M  V30 17554 H 1654.49 1.5998 0.248613 0
M  V30 17555 H 1656.48 2.45764 3.21531 0
M  V30 17556 H 1655.05 1.50862 2.73787 0
M  V30 17557 H 1654.27 3.65319 1.48107 0
M  V30 17558 H 1655.56 4.51966 2.33675 0
M  V30 17559 H 1654.96 2.72018 4.96007 0
M  V30 17560 H 1653.52 3.46573 5.52024 0
M  V30 17561 N 1656.95 -0.331789 1.54068 0
M  V30 17562 C 1657.9 -1.40798 1.82879 0
M  V30 17563 C 1658.87 -1.51753 0.675292 0
M  V30 17564 O 1660.05 -1.67105 0.920905 0
M  V30 17565 C 1657.19 -2.7728 2.0545 0
M  V30 17566 C 1656.31 -2.75022 3.33147 0
M  V30 17567 C 1655.44 -4.03297 3.45723 0
M  V30 17568 C 1654.48 -3.95314 4.67326 0
M  V30 17569 N 1653.62 -5.15303 4.76872 0
M  V30 17570 H 1658.46 -1.15529 2.74695 0
M  V30 17571 H 1655.99 -0.559411 1.36048 0
M  V30 17572 H 1657.95 -3.56611 2.16528 0
M  V30 17573 H 1656.58 -3.00875 1.16935 0
M  V30 17574 H 1655.63 -1.87729 3.30851 0
M  V30 17575 H 1656.95 -2.65003 4.22581 0
M  V30 17576 H 1656.1 -4.91057 3.56297 0
M  V30 17577 H 1654.84 -4.16112 2.54367 0
M  V30 17578 H 1653.84 -3.05939 4.56817 0
M  V30 17579 H 1655.07 -3.84072 5.60058 0
M  V30 17580 H 1653.01 -5.28639 3.88429 0
M  V30 17581 H 1652.93 -5.07588 5.60259 0
M  V30 17582 H 1654.2 -6.04801 4.91769 0
M  V30 17583 N 1658.43 -1.46001 -0.593424 0
M  V30 17584 C 1659.36 -1.58605 -1.71367 0
M  V30 17585 C 1660.34 -0.436866 -1.64394 0
M  V30 17586 O 1661.52 -0.661782 -1.82576 0
M  V30 17587 C 1658.65 -1.56587 -3.09996 0
M  V30 17588 C 1657.61 -2.70366 -3.31792 0
M  V30 17589 C 1656.93 -2.53406 -4.70839 0
M  V30 17590 C 1658.23 -4.12274 -3.20667 0
M  V30 17591 H 1659.93 -2.52379 -1.61076 0
M  V30 17592 H 1657.47 -1.21462 -0.773499 0
M  V30 17593 H 1659.43 -1.64 -3.88178 0
M  V30 17594 H 1658.15 -0.593511 -3.21162 0
M  V30 17595 H 1656.81 -2.62405 -2.56006 0
M  V30 17596 H 1656.46 -1.54278 -4.78756 0
M  V30 17597 H 1656.16 -3.29715 -4.86376 0
M  V30 17598 H 1657.68 -2.62694 -5.51203 0
M  V30 17599 H 1659.1 -4.21404 -3.88705 0
M  V30 17600 H 1657.49 -4.89085 -3.47729 0
M  V30 17601 H 1658.56 -4.33184 -2.17898 0
M  V30 17602 N 1659.91 0.83715 -1.33527 0
M  V30 17603 C 1661.16 1.58747 -1.24428 0
M  V30 17604 C 1661.47 1.94696 0.187885 0
M  V30 17605 O 1662.67 2.68524 0.400903 0
M  V30 17606 C 1661.13 2.86337 -2.18035 0
M  V30 17607 C 1660.74 2.57745 -3.66431 0
M  V30 17608 C 1662.48 3.6436 -2.17812 0
M  V30 17609 C 1660.39 3.81443 -4.51946 0
M  V30 17610 H 1659.32 0.595749 -0.462168 0
M  V30 17611 H 1661.97 0.922901 -1.58603 0
M  V30 17612 H 1660.35 3.54344 -1.76795 0
M  V30 17613 H 1661.53 1.97939 -4.16121 0
M  V30 17614 H 1659.84 1.93023 -3.68959 0
M  V30 17615 H 1662.44 4.56181 -2.78932 0
M  V30 17616 H 1662.78 3.99414 -1.17364 0
M  V30 17617 H 1663.31 3.03279 -2.57423 0
M  V30 17618 H 1660.05 3.51519 -5.53276 0
M  V30 17619 H 1659.57 4.40582 -4.06998 0
M  V30 17620 H 1661.25 4.49004 -4.65837 0
M  V30 17621 N 1661.38 1.17024 1.05561 0
M  V30 17622 C 1662.31 0.906823 2.15172 0
M  V30 17623 C 1663.3 -0.149745 1.6944 0
M  V30 17624 O 1664.48 -0.000287092 1.942 0
M  V30 17625 C 1661.61 0.415251 3.44809 0
M  V30 17626 C 1660.56 1.41058 4.04088 0
M  V30 17627 C 1659.89 0.777109 5.29023 0
M  V30 17628 C 1661.19 2.78258 4.42007 0
M  V30 17629 H 1662.88 1.82347 2.37466 0
M  V30 17630 H 1660.43 0.878162 1.14124 0
M  V30 17631 H 1662.38 0.218407 4.20834 0
M  V30 17632 H 1661.11 -0.536924 3.22156 0
M  V30 17633 H 1659.77 1.5941 3.30127 0
M  V30 17634 H 1659.41 -0.181784 5.02671 0
M  V30 17635 H 1659.11 1.44151 5.69644 0
M  V30 17636 H 1660.64 0.590455 6.07738 0
M  V30 17637 H 1662.05 2.63645 5.09082 0
M  V30 17638 H 1660.45 3.41241 4.93634 0
M  V30 17639 H 1661.52 3.3295 3.52523 0
M  V30 17640 N 1662.86 -1.24221 0.969889 0
M  V30 17641 C 1664.09 -1.96943 0.650262 0
M  V30 17642 C 1664.51 -1.71437 -0.774018 0
M  V30 17643 O 1663.87 -0.979428 -1.52568 0
M  V30 17644 C 1663.92 -3.48303 0.933682 0
M  V30 17645 O 1663.02 -4.12395 0.0202425 0
M  V30 17646 H 1662.36 -0.616902 0.245618 0
M  V30 17647 H 1664.89 -1.57939 1.30063 0
M  V30 17648 H 1664.9 -3.98701 0.866106 0
M  V30 17649 H 1663.58 -3.66194 1.97166 0
M  V30 17650 H 1662.16 -3.72632 0.141327 0
M  V30 17651 N 1664.34 -0.740267 -1.39132 0
M  V30 17652 C 1665.25 -0.105452 -2.34363 0
M  V30 17653 C 1666.27 0.715908 -1.5859 0
M  V30 17654 O 1667.44 0.643155 -1.90855 0
M  V30 17655 C 1664.51 0.787141 -3.37646 0
M  V30 17656 C 1663.57 -0.047071 -4.29274 0
M  V30 17657 C 1662.8 0.803014 -5.27624 0
M  V30 17658 O 1663.02 2.04155 -5.32613 0
M  V30 17659 O 1661.96 0.228879 -6.01465 0
M  V30 17660 H 1665.78 -0.891588 -2.90318 0
M  V30 17661 H 1663.37 -0.500996 -1.40749 0
M  V30 17662 H 1665.25 1.29769 -4.00921 0
M  V30 17663 H 1663.93 1.552 -2.84068 0
M  V30 17664 H 1662.83 -0.603265 -3.69204 0
M  V30 17665 H 1664.17 -0.774273 -4.86072 0
M  V30 17666 N 1665.82 1.49844 -0.488302 0
M  V30 17667 C 1667.05 2.06819 0.0578807 0
M  V30 17668 C 1667.46 1.35018 1.31969 0
M  V30 17669 O 1666.82 0.424614 1.77492 0
M  V30 17670 C 1666.87 3.60005 0.328435 0
M  V30 17671 O 1666.59 4.29102 -0.883338 0
M  V30 17672 C 1668.09 4.33655 0.919675 0
M  V30 17673 H 1665.31 0.670837 -0.014775 0
M  V30 17674 H 1667.86 1.92792 -0.682022 0
M  V30 17675 H 1666.01 3.73777 1.0183 0
M  V30 17676 H 1666.42 5.206 -0.638414 0
M  V30 17677 H 1667.9 5.41753 1.05864 0
M  V30 17678 H 1668.38 3.95289 1.91424 0
M  V30 17679 H 1668.98 4.24457 0.267672 0
M  V30 17680 N 1667.3 0.221601 1.56034 0
M  V30 17681 C 1668.52 -0.417979 2.03145 0
M  V30 17682 C 1668.95 -1.52556 1.10038 0
M  V30 17683 O 1668.3 -1.81084 0.0885729 0
M  V30 17684 C 1668.35 -0.926762 3.48487 0
M  V30 17685 O 1667.46 -2.03811 3.58518 0
M  V30 17686 H 1666.8 -0.0945778 0.65723 0
M  V30 17687 H 1669.33 0.340252 2.01751 0
M  V30 17688 H 1669.34 -1.23656 3.8881 0
M  V30 17689 H 1668.01 -0.116115 4.15738 0
M  V30 17690 H 1666.59 -1.73494 3.30082 0
M  V30 17691 N 1668.77 -1.57515 -0.0517878 0
M  V30 17692 C 1670.02 -1.87396 -0.746022 0
M  V30 17693 C 1670.34 -0.817053 -1.77718 0
M  V30 17694 O 1671.54 -1.00435 -2.5224 0
M  V30 17695 C 1670 -3.32481 -1.37783 0
M  V30 17696 C 1669.61 -4.46349 -0.384208 0
M  V30 17697 C 1671.35 -3.71539 -2.05327 0
M  V30 17698 C 1669.26 -5.82484 -1.02307 0
M  V30 17699 H 1668.19 -0.699127 -0.282379 0
M  V30 17700 H 1670.84 -1.835 0.000245524 0
M  V30 17701 H 1669.22 -3.31051 -2.17304 0
M  V30 17702 H 1670.39 -4.59209 0.382639 0
M  V30 17703 H 1668.71 -4.15976 0.187873 0
M  V30 17704 H 1671.31 -4.70553 -2.53936 0
M  V30 17705 H 1671.65 -3.02361 -2.86153 0
M  V30 17706 H 1672.18 -3.75046 -1.32611 0
M  V30 17707 H 1668.92 -6.55005 -0.254704 0
M  V30 17708 H 1668.44 -5.73388 -1.7603 0
M  V30 17709 H 1670.12 -6.28476 -1.5371 0
M  V30 17710 N 1670.25 0.323614 -1.54242 0
M  V30 17711 C 1671.5 1.06156 -1.72444 0
M  V30 17712 C 1671.83 1.88013 -0.498116 0
M  V30 17713 O 1671.08 1.88661 0.520133 0
M  V30 17714 C 1671.38 2.01452 -2.95215 0
M  V30 17715 C 1671.05 1.3575 -4.2998 0
M  V30 17716 C 1669.71 1.17563 -4.66618 0
M  V30 17717 C 1672.06 0.885938 -5.13615 0
M  V30 17718 C 1669.39 0.508674 -5.84491 0
M  V30 17719 C 1671.74 0.232807 -6.32171 0
M  V30 17720 C 1670.41 0.0387807 -6.67489 0
M  V30 17721 H 1669.68 0.388454 -0.631019 0
M  V30 17722 H 1672.32 0.338714 -1.88481 0
M  V30 17723 H 1670.63 2.80188 -2.73865 0
M  V30 17724 H 1672.33 2.5858 -3.06492 0
M  V30 17725 H 1668.92 1.50908 -4.01154 0
M  V30 17726 H 1673.1 1.01424 -4.85826 0
M  V30 17727 H 1668.36 0.347149 -6.10414 0
M  V30 17728 H 1672.53 -0.140594 -6.96258 0
M  V30 17729 H 1670.16 -0.480052 -7.58683 0
M  V30 17730 N 1671.73 1.46313 0.585673 0
M  V30 17731 C 1673.01 1.41946 1.34576 0
M  V30 17732 C 1673.39 0.101379 2.10856 0
M  V30 17733 O 1672.74 -0.917016 2.09292 0
M  V30 17734 C 1672.95 2.64724 2.27425 0
M  V30 17735 C 1674.29 3.10746 2.89347 0
M  V30 17736 O 1675.32 2.65252 2.37739 0
M  V30 17737 O 1674.18 3.8976 3.83079 0
M  V30 17738 H 1671.27 0.564346 0.604519 0
M  V30 17739 H 1673.82 1.58475 0.606937 0
M  V30 17740 H 1672.59 3.52217 1.70467 0
M  V30 17741 H 1672.21 2.50639 3.08652 0
M  V30 17742 N 1673.21 -0.830057 1.33969 0
M  V30 17743 C 1674.46 -1.58821 1.26111 0
M  V30 17744 C 1674.79 -1.9345 -0.170484 0
M  V30 17745 O 1674.06 -1.59433 -1.11407 0
M  V30 17746 C 1674.35 -2.89243 2.14501 0
M  V30 17747 C 1674.2 -2.61239 3.66162 0
M  V30 17748 C 1675.52 -3.90752 2.02487 0
M  V30 17749 H 1672.64 -0.576255 0.459455 0
M  V30 17750 H 1675.28 -0.956736 1.64154 0
M  V30 17751 H 1673.43 -3.43133 1.82186 0
M  V30 17752 H 1675.1 -2.13713 4.08809 0
M  V30 17753 H 1673.34 -1.94796 3.87604 0
M  V30 17754 H 1674.02 -3.54212 4.23365 0
M  V30 17755 H 1676.49 -3.46194 2.30844 0
M  V30 17756 H 1675.37 -4.79825 2.6657 0
M  V30 17757 H 1675.63 -4.30649 0.999704 0
M  V30 17758 N 1674.69 -1.17582 -1.04939 0
M  V30 17759 C 1675.62 -0.918221 -2.14688 0
M  V30 17760 C 1676.6 0.140757 -1.69517 0
M  V30 17761 O 1677.78 -0.0100118 -1.94197 0
M  V30 17762 C 1674.91 -0.433531 -3.44584 0
M  V30 17763 C 1673.87 -1.43199 -4.03334 0
M  V30 17764 C 1673.19 -0.805154 -5.28603 0
M  V30 17765 C 1674.49 -2.80598 -4.40525 0
M  V30 17766 H 1676.19 -1.83604 -2.36495 0
M  V30 17767 H 1673.73 -0.884202 -1.13657 0
M  V30 17768 H 1675.69 -0.240722 -4.20712 0
M  V30 17769 H 1674.41 0.519832 -3.22437 0
M  V30 17770 H 1673.07 -1.61158 -3.29277 0
M  V30 17771 H 1672.72 0.155124 -5.02761 0
M  V30 17772 H 1672.42 -1.4717 -5.68871 0
M  V30 17773 H 1673.94 -0.622677 -6.07417 0
M  V30 17774 H 1675.36 -2.66341 -5.07676 0
M  V30 17775 H 1673.75 -3.43854 -4.91817 0
M  V30 17776 H 1674.82 -3.34815 -3.50752 0
M  V30 17777 N 1676.17 1.23705 -0.976463 0
M  V30 17778 C 1677.58 1.73848 -0.680723 0
M  V30 17779 C 1677.93 1.79005 0.803228 0
M  V30 17780 O 1677.05 1.42529 1.62832 0
M  V30 17781 C 1677.65 3.15724 -1.22898 0
M  V30 17782 C 1676.21 3.63338 -0.982963 0
M  V30 17783 C 1675.35 2.41712 -1.35906 0
M  V30 17784 H 1678.3 1.09284 -1.15077 0
M  V30 17785 H 1678.33 3.75748 -0.599487 0
M  V30 17786 H 1677.84 3.11938 -2.30903 0
M  V30 17787 H 1675.94 3.72512 0.0811766 0
M  V30 17788 H 1676.05 4.50347 -1.63477 0
M  V30 17789 H 1674.42 2.42543 -0.777498 0
M  V30 17790 H 1675.2 2.40601 -2.4488 0
M  V30 17791 N 1677.64 0.747635 1.38738 0
M  V30 17792 C 1678.59 0.105258 2.32362 0
M  V30 17793 C 1679.59 -0.711921 1.53714 0
M  V30 17794 O 1680.79 -0.611687 1.69288 0
M  V30 17795 H 1677.17 0.0152406 0.751846 0
M  V30 17796 H 1679.14 0.911057 2.84152 0
M  V30 17797 C 1677.89 -0.778221 3.38879 0
M  V30 17798 H 1677.21 -0.158806 3.99484 0
M  V30 17799 H 1678.65 -1.19509 4.06809 0
M  V30 17800 C 1677.11 -1.91819 2.76961 0
M  V30 17801 O 1677.64 -3.01187 2.65799 0
M  V30 17802 N 1675.84 -1.71143 2.34859 0
M  V30 17803 H 1675.39 -0.821885 2.44137 0
M  V30 17804 H 1675.35 -2.47588 1.93772 0
M  V30 17805 N 1679.12 -1.49583 0.496242 0
M  V30 17806 C 1680.37 -2.02438 -0.049963 0
M  V30 17807 C 1680.7 -1.37632 -1.37433 0
M  V30 17808 O 1679.95 -0.499552 -1.89217 0
M  V30 17809 C 1680.25 -3.56482 -0.255949 0
M  V30 17810 C 1679.92 -4.39901 0.989824 0
M  V30 17811 C 1678.58 -4.62417 1.33132 0
M  V30 17812 C 1680.93 -4.88461 1.81811 0
M  V30 17813 C 1678.26 -5.30737 2.50071 0
M  V30 17814 C 1680.61 -5.58067 2.97899 0
M  V30 17815 C 1679.27 -5.7883 3.32434 0
M  V30 17816 H 1678.54 -0.740774 -0.0182828 0
M  V30 17817 H 1681.19 -1.79934 0.655434 0
M  V30 17818 H 1679.5 -3.77639 -1.04383 0
M  V30 17819 H 1681.19 -3.94967 -0.692943 0
M  V30 17820 H 1677.78 -4.22614 0.713811 0
M  V30 17821 H 1681.97 -4.70898 1.56743 0
M  V30 17822 H 1677.22 -5.45015 2.77072 0
M  V30 17823 H 1681.4 -5.9467 3.6241 0
M  V30 17824 H 1679.02 -6.31544 4.23151 0
M  V30 17825 N 1680.6 -0.229873 -1.55915 0
M  V30 17826 C 1681.85 0.399565 -1.98519 0
M  V30 17827 C 1682.17 1.59179 -1.1177 0
M  V30 17828 O 1681.43 1.95007 -0.16454 0
M  V30 17829 C 1681.73 0.869043 -3.46673 0
M  V30 17830 C 1681.39 -0.21356 -4.50394 0
M  V30 17831 C 1680.06 -0.510939 -4.7848 0
M  V30 17832 C 1682.41 -0.945307 -5.12556 0
M  V30 17833 C 1679.74 -1.54444 -5.66007 0
M  V30 17834 C 1682.09 -1.9682 -6.01203 0
M  V30 17835 C 1680.75 -2.27241 -6.27629 0
M  V30 17836 H 1680.02 0.146211 -0.726432 0
M  V30 17837 H 1682.67 -0.334135 -1.88562 0
M  V30 17838 H 1680.97 1.68165 -3.53875 0
M  V30 17839 H 1682.67 1.36605 -3.77015 0
M  V30 17840 H 1679.26 0.0283699 -4.28591 0
M  V30 17841 H 1683.45 -0.728806 -4.9092 0
M  V30 17842 H 1678.7 -1.78566 -5.84743 0
M  V30 17843 H 1682.88 -2.54023 -6.48418 0
M  V30 17844 H 1680.5 -3.07465 -6.95248 0
M  V30 17845 N 1682.08 1.5754 0.0434337 0
M  V30 17846 C 1683.31 1.92577 0.748182 0
M  V30 17847 C 1683.72 0.826758 1.7018 0
M  V30 17848 O 1683.06 -0.206713 1.82533 0
M  V30 17849 C 1683.12 3.23309 1.57199 0
M  V30 17850 C 1682.78 4.50213 0.784705 0
M  V30 17851 C 1683.78 5.1982 0.091305 0
M  V30 17852 C 1681.47 4.96767 0.74349 0
M  V30 17853 C 1683.46 6.34251 -0.632768 0
M  V30 17854 C 1681.15 6.11098 0.0156621 0
M  V30 17855 C 1682.15 6.79694 -0.67124 0
M  V30 17856 O 1681.83 7.91839 -1.38728 0
M  V30 17857 H 1681.57 0.64049 0.216213 0
M  V30 17858 H 1684.12 2.05398 0.00937223 0
M  V30 17859 H 1682.35 3.06775 2.35428 0
M  V30 17860 H 1684.04 3.43779 2.15802 0
M  V30 17861 H 1684.8 4.84865 0.11427 0
M  V30 17862 H 1680.68 4.43229 1.26763 0
M  V30 17863 H 1684.23 6.87728 -1.16947 0
M  V30 17864 H 1680.12 6.45499 -0.00927628 0
M  V30 17865 H 1680.89 8.08119 -1.29947 0
M  V30 17866 N 1683.56 -0.31543 1.54411 0
M  V30 17867 C 1684.51 -1.3898 1.80745 0
M  V30 17868 C 1685.49 -1.46567 0.663849 0
M  V30 17869 O 1686.68 -1.50963 0.924084 0
M  V30 17870 C 1683.81 -2.7571 2.04546 0
M  V30 17871 C 1682.9 -2.72403 3.2505 0
M  V30 17872 N 1683.29 -2.38715 4.45925 0
M  V30 17873 C 1681.59 -3.03523 3.26787 0
M  V30 17874 C 1682.29 -2.44346 5.27892 0
M  V30 17875 N 1681.26 -2.81118 4.65268 0
M  V30 17876 H 1685.06 -1.11875 2.71774 0
M  V30 17877 H 1682.58 -0.523951 1.53716 0
M  V30 17878 H 1684.58 -3.53156 2.21554 0
M  V30 17879 H 1683.24 -3.03738 1.14775 0
M  V30 17880 H 1684.25 -2.11419 4.72782 0
M  V30 17881 H 1680.92 -3.3654 2.47076 0
M  V30 17882 H 1682.31 -2.21221 6.34437 0
M  V30 17883 N 1685.03 -1.46622 -0.577906 0
M  V30 17884 C 1686.26 -1.56 -1.36671 0
M  V30 17885 C 1686.68 -0.2034 -1.86997 0
M  V30 17886 O 1686.04 0.817288 -1.61834 0
M  V30 17887 C 1686.09 -2.57254 -2.52691 0
M  V30 17888 O 1685.19 -2.1109 -3.54281 0
M  V30 17889 H 1684.54 -0.524779 -0.406821 0
M  V30 17890 H 1687.07 -1.92234 -0.700512 0
M  V30 17891 H 1687.08 -2.77016 -2.99543 0
M  V30 17892 H 1685.75 -3.55766 -2.15415 0
M  V30 17893 H 1684.33 -2.01337 -3.13875 0
M  V30 17894 N 1686.51 0.822941 -1.34408 0
M  V30 17895 C 1687.46 1.95524 -1.25988 0
M  V30 17896 C 1688.45 1.68662 -0.157994 0
M  V30 17897 O 1689.66 1.77079 -0.322966 0
M  V30 17898 H 1686.04 0.642117 -0.391394 0
M  V30 17899 H 1688.01 1.99747 -2.21683 0
M  V30 17900 C 1686.76 3.32026 -1.03218 0
M  V30 17901 H 1686.08 3.53244 -1.87239 0
M  V30 17902 H 1687.52 4.11706 -1.01363 0
M  V30 17903 C 1685.98 3.3586 0.264523 0
M  V30 17904 O 1686.51 3.81232 1.26589 0
M  V30 17905 N 1684.71 2.89072 0.297626 0
M  V30 17906 H 1684.26 2.52341 -0.517836 0
M  V30 17907 H 1684.22 2.92019 1.165 0
M  V30 17908 N 1687.99 1.18137 1.04314 0
M  V30 17909 C 1688.92 0.863879 2.12296 0
M  V30 17910 C 1689.94 -0.137469 1.62219 0
M  V30 17911 O 1691.12 0.0900306 1.78273 0
M  V30 17912 C 1688.22 0.269002 3.37831 0
M  V30 17913 C 1687.4 1.3154 4.17152 0
M  V30 17914 C 1686.46 0.736666 5.21018 0
M  V30 17915 O 1685.48 1.41075 5.5144 0
M  V30 17916 N 1686.68 -0.467037 5.78618 0
M  V30 17917 H 1689.45 1.7933 2.40127 0
M  V30 17918 H 1687.01 1.08142 1.20486 0
M  V30 17919 H 1689 -0.131671 4.04486 0
M  V30 17920 H 1687.57 -0.564386 3.07463 0
M  V30 17921 H 1686.79 1.89148 3.45856 0
M  V30 17922 H 1688.08 2.02093 4.66943 0
M  V30 17923 H 1687.48 -1.03247 5.56198 0
M  V30 17924 H 1686.04 -0.809663 6.46752 0
M  V30 17925 N 1689.47 -1.23186 0.98301 0
M  V30 17926 C 1690.71 -1.91955 0.65431 0
M  V30 17927 C 1691.05 -1.76482 -0.810419 0
M  V30 17928 O 1690.32 -1.12744 -1.5849 0
M  V30 17929 C 1690.61 -3.4449 1.04873 0
M  V30 17930 C 1690.46 -3.6906 2.57128 0
M  V30 17931 C 1691.78 -4.36065 0.594578 0
M  V30 17932 H 1688.9 -0.69711 0.239179 0
M  V30 17933 H 1691.54 -1.45257 1.22476 0
M  V30 17934 H 1689.69 -3.84394 0.563333 0
M  V30 17935 H 1691.36 -3.38622 3.13262 0
M  V30 17936 H 1689.6 -3.13681 2.99644 0
M  V30 17937 H 1690.27 -4.75846 2.79776 0
M  V30 17938 H 1692.75 -4.03622 1.01136 0
M  V30 17939 H 1691.63 -5.41489 0.898955 0
M  V30 17940 H 1691.89 -4.39206 -0.505033 0
M  V30 17941 N 1690.95 -0.754982 -1.38339 0
M  V30 17942 C 1692.19 -0.312224 -2.00382 0
M  V30 17943 C 1692.53 1.10362 -1.59793 0
M  V30 17944 O 1691.8 1.75611 -0.83613 0
M  V30 17945 C 1692.08 -0.436701 -3.57442 0
M  V30 17946 C 1691.94 -1.89376 -4.07991 0
M  V30 17947 C 1693.26 0.169083 -4.39775 0
M  V30 17948 H 1690.37 -0.114922 -0.727985 0
M  V30 17949 H 1693.02 -0.954887 -1.64262 0
M  V30 17950 H 1691.17 0.11043 -3.88343 0
M  V30 17951 H 1692.84 -2.4993 -3.87728 0
M  V30 17952 H 1691.08 -2.40834 -3.60807 0
M  V30 17953 H 1691.75 -1.932 -5.17086 0
M  V30 17954 H 1694.23 -0.297554 -4.15035 0
M  V30 17955 H 1693.1 0.0517531 -5.48876 0
M  V30 17956 H 1693.37 1.25754 -4.23838 0
M  V30 17957 N 1692.42 1.49318 -0.504168 0
M  V30 17958 C 1693.84 1.58793 -0.160331 0
M  V30 17959 C 1694.04 1.50906 1.33527 0
M  V30 17960 O 1693.1 1.38466 2.11148 0
M  V30 17961 C 1694.41 2.91454 -0.739945 0
M  V30 17962 C 1695.96 3.04926 -0.706338 0
M  V30 17963 C 1696.43 4.4021 -1.26407 0
M  V30 17964 N 1697.92 4.46711 -1.22491 0
M  V30 17965 C 1698.66 5.49844 -1.62661 0
M  V30 17966 N 1698.15 6.60066 -2.10439 0
M  V30 17967 N 1699.95 5.40576 -1.54058 0
M  V30 17968 H 1692.1 1.52687 -1.4765 0
M  V30 17969 H 1694.36 0.723463 -0.612622 0
M  V30 17970 H 1694.07 3.02802 -1.78896 0
M  V30 17971 H 1693.94 3.76658 -0.202187 0
M  V30 17972 H 1696.33 2.93206 0.333845 0
M  V30 17973 H 1696.41 2.21398 -1.28128 0
M  V30 17974 H 1696.05 4.52683 -2.30305 0
M  V30 17975 H 1695.98 5.22384 -0.665041 0
M  V30 17976 H 1698.47 3.67634 -0.874869 0
M  V30 17977 H 1698.79 7.34865 -2.39153 0
M  V30 17978 H 1697.13 6.61098 -2.14415 0
M  V30 17979 H 1700.32 4.53359 -1.16548 0
M  V30 17980 H 1700.5 6.20826 -1.85687 0
M  V30 17981 N 1693.9 0.238138 1.5579 0
M  V30 17982 C 1694.84 -0.705517 2.1702 0
M  V30 17983 C 1695.81 -1.17917 1.11957 0
M  V30 17984 O 1697 -1.2589 1.403 0
M  V30 17985 C 1694.12 -1.9578 2.76384 0
M  V30 17986 C 1693.17 -1.62275 3.94422 0
M  V30 17987 S 1694 -0.733018 5.30459 0
M  V30 17988 C 1695.16 -1.9945 5.93271 0
M  V30 17989 H 1695.39 -0.185146 2.96723 0
M  V30 17990 H 1692.93 0.0226713 1.54383 0
M  V30 17991 H 1694.88 -2.67676 3.11223 0
M  V30 17992 H 1693.54 -2.44929 1.96643 0
M  V30 17993 H 1692.74 -2.55361 4.34519 0
M  V30 17994 H 1692.34 -0.98429 3.60815 0
M  V30 17995 H 1694.63 -2.94272 6.10254 0
M  V30 17996 H 1695.57 -1.63716 6.88914 0
M  V30 17997 H 1695.98 -2.14259 5.22258 0
M  V30 17998 N 1695.38 -1.57561 -0.0350783 0
M  V30 17999 C 1696.34 -2.05145 -1.02217 0
M  V30 18000 C 1697.34 -0.954524 -1.29404 0
M  V30 18001 O 1698.53 -1.21833 -1.24509 0
M  V30 18002 C 1695.67 -2.4633 -2.35658 0
M  V30 18003 H 1696.86 -2.93605 -0.61126 0
M  V30 18004 H 1694.41 -1.53739 -0.28176 0
M  V30 18005 H 1695.15 -1.61008 -2.81508 0
M  V30 18006 H 1694.93 -3.26408 -2.17256 0
M  V30 18007 H 1696.42 -2.83592 -3.06537 0
M  V30 18008 N 1696.86 0.307236 -1.54576 0
M  V30 18009 C 1697.82 1.36178 -1.84359 0
M  V30 18010 C 1698.82 1.43971 -0.716163 0
M  V30 18011 O 1700.01 1.43715 -0.98446 0
M  V30 18012 C 1697.14 2.74733 -2.01828 0
M  V30 18013 H 1698.34 1.11017 -2.78595 0
M  V30 18014 H 1695.89 0.543582 -1.46543 0
M  V30 18015 H 1696.62 3.05126 -1.09858 0
M  V30 18016 H 1696.41 2.70468 -2.83883 0
M  V30 18017 H 1697.9 3.50992 -2.26261 0
M  V30 18018 N 1698.34 1.46926 0.570122 0
M  V30 18019 C 1699.27 1.61311 1.68822 0
M  V30 18020 C 1700.25 0.462964 1.63678 0
M  V30 18021 O 1701.43 0.690745 1.815 0
M  V30 18022 C 1698.56 1.61499 3.07466 0
M  V30 18023 C 1697.52 2.7561 3.27449 0
M  V30 18024 C 1696.84 2.60865 4.66748 0
M  V30 18025 C 1698.14 4.17324 3.14067 0
M  V30 18026 H 1699.84 2.54909 1.5704 0
M  V30 18027 H 1697.38 1.22677 0.754077 0
M  V30 18028 H 1699.34 1.70155 3.8552 0
M  V30 18029 H 1698.06 0.64453 3.20177 0
M  V30 18030 H 1696.72 2.66444 2.51799 0
M  V30 18031 H 1696.37 1.61875 4.76241 0
M  V30 18032 H 1696.07 3.37411 4.81069 0
M  V30 18033 H 1697.59 2.7143 5.46954 0
M  V30 18034 H 1699 4.27534 3.81952 0
M  V30 18035 H 1697.4 4.94555 3.39905 0
M  V30 18036 H 1698.47 4.36596 2.10979 0
M  V30 18037 N 1699.82 -0.815801 1.34842 0
M  V30 18038 C 1700.73 -1.95886 1.29097 0
M  V30 18039 C 1701.74 -1.72876 0.197422 0
M  V30 18040 O 1702.92 -1.96861 0.425166 0
M  V30 18041 C 1699.98 -3.30311 1.05336 0
M  V30 18042 C 1699.04 -3.66279 2.23916 0
M  V30 18043 C 1698.28 -4.9429 2.01279 0
M  V30 18044 O 1698.5 -5.62012 0.974603 0
M  V30 18045 O 1697.43 -5.28302 2.88411 0
M  V30 18046 H 1701.26 -2.03678 2.25276 0
M  V30 18047 H 1698.84 -0.952243 1.1512 0
M  V30 18048 H 1700.73 -4.10806 0.938961 0
M  V30 18049 H 1699.4 -3.2347 0.122024 0
M  V30 18050 H 1698.31 -2.86198 2.40918 0
M  V30 18051 H 1699.64 -3.77814 3.15464 0
M  V30 18052 N 1701.29 -1.18689 -1.03686 0
M  V30 18053 C 1702.54 -0.98606 -1.77214 0
M  V30 18054 C 1702.87 0.482788 -1.88103 0
M  V30 18055 O 1702.15 1.3585 -1.39194 0
M  V30 18056 C 1702.43 -1.64611 -3.20274 0
M  V30 18057 C 1702.28 -3.18808 -3.17304 0
M  V30 18058 C 1703.6 -1.36251 -4.18478 0
M  V30 18059 H 1700.72 -0.359634 -0.643298 0
M  V30 18060 H 1703.36 -1.46412 -1.21094 0
M  V30 18061 H 1701.51 -1.23964 -3.68192 0
M  V30 18062 H 1703.19 -3.68615 -2.77346 0
M  V30 18063 H 1701.43 -3.50769 -2.55232 0
M  V30 18064 H 1702.1 -3.60131 -4.18341 0
M  V30 18065 H 1704.58 -1.71476 -3.79124 0
M  V30 18066 H 1703.45 -1.84997 -5.16786 0
M  V30 18067 H 1703.71 -0.286113 -4.41173 0
M  V30 18068 N 1702.77 1.22662 -0.989529 0
M  V30 18069 C 1704 1.9506 -0.680833 0
M  V30 18070 C 1704.41 1.73354 0.757953 0
M  V30 18071 O 1703.75 1.02755 1.52273 0
M  V30 18072 C 1703.81 3.47982 -0.902711 0
M  V30 18073 C 1703.48 3.93418 -2.32533 0
M  V30 18074 C 1704.48 4.01362 -3.30462 0
M  V30 18075 C 1702.16 4.26157 -2.65886 0
M  V30 18076 C 1704.15 4.41413 -4.59819 0
M  V30 18077 C 1701.84 4.65888 -3.95463 0
M  V30 18078 C 1702.84 4.73484 -4.92241 0
M  V30 18079 O 1702.53 5.12318 -6.19504 0
M  V30 18080 H 1702.26 0.627572 -0.251256 0
M  V30 18081 H 1704.81 1.56858 -1.32608 0
M  V30 18082 H 1703.04 3.86181 -0.200292 0
M  V30 18083 H 1704.73 4.01592 -0.589781 0
M  V30 18084 H 1705.5 3.76262 -3.06026 0
M  V30 18085 H 1701.38 4.19451 -1.91263 0
M  V30 18086 H 1704.92 4.47257 -5.35357 0
M  V30 18087 H 1700.82 4.90439 -4.1969 0
M  V30 18088 H 1701.59 5.30402 -6.23391 0
M  V30 18089 N 1704.25 0.762308 1.37937 0
M  V30 18090 C 1705.5 0.322846 2.00214 0
M  V30 18091 C 1705.83 -1.09513 1.60376 0
M  V30 18092 O 1705.1 -1.75165 0.845432 0
M  V30 18093 C 1705.39 0.455651 3.57206 0
M  V30 18094 C 1705.24 1.91537 4.06981 0
M  V30 18095 C 1706.56 -0.145758 4.39859 0
M  V30 18096 H 1703.68 0.118781 0.727365 0
M  V30 18097 H 1706.32 0.963585 1.63753 0
M  V30 18098 H 1704.47 -0.0898341 3.88396 0
M  V30 18099 H 1706.14 2.51983 3.86397 0
M  V30 18100 H 1704.38 2.42744 3.59524 0
M  V30 18101 H 1705.06 1.9594 5.16054 0
M  V30 18102 H 1707.53 0.31956 4.14871 0
M  V30 18103 H 1706.41 -0.0226441 5.48895 0
M  V30 18104 H 1706.67 -1.23504 4.24499 0
M  V30 18105 N 1705.73 -1.49049 0.51208 0
M  V30 18106 C 1707.14 -1.58705 0.16875 0
M  V30 18107 C 1707.34 -1.51612 -1.32725 0
M  V30 18108 O 1706.4 -1.39583 -2.10411 0
M  V30 18109 C 1707.71 -2.91057 0.755391 0
M  V30 18110 C 1709.26 -3.04547 0.722499 0
M  V30 18111 C 1709.74 -4.39534 1.2874 0
M  V30 18112 N 1711.23 -4.46055 1.24858 0
M  V30 18113 C 1711.96 -5.48974 1.65575 0
M  V30 18114 N 1711.46 -6.58941 2.13937 0
M  V30 18115 N 1713.25 -5.39752 1.56922 0
M  V30 18116 H 1705.4 -1.51902 1.48457 0
M  V30 18117 H 1707.66 -0.720204 0.61645 0
M  V30 18118 H 1707.37 -3.01849 1.80499 0
M  V30 18119 H 1707.24 -3.76545 0.222159 0
M  V30 18120 H 1709.63 -2.93378 -0.318291 0
M  V30 18121 H 1709.71 -2.20715 1.293 0
M  V30 18122 H 1709.36 -4.51455 2.32703 0
M  V30 18123 H 1709.29 -5.22024 0.692735 0
M  V30 18124 H 1711.78 -3.67164 0.894354 0
M  V30 18125 H 1712.09 -7.33586 2.43046 0
M  V30 18126 H 1710.44 -6.59952 2.17918 0
M  V30 18127 H 1713.63 -4.52734 1.18951 0
M  V30 18128 H 1713.8 -6.19832 1.88977 0
M  V30 18129 N 1707.21 -0.246397 -1.55662 0
M  V30 18130 C 1708.62 0.108465 -1.59231 0
M  V30 18131 C 1708.82 1.56961 -1.26354 0
M  V30 18132 O 1707.88 2.31393 -1.01062 0
M  V30 18133 C 1709.19 -0.240265 -2.99739 0
M  V30 18134 C 1710.74 -0.184523 -3.12456 0
M  V30 18135 C 1711.21 -0.507279 -4.55182 0
M  V30 18136 N 1712.7 -0.457761 -4.60933 0
M  V30 18137 C 1713.44 -0.680664 -5.69346 0
M  V30 18138 N 1712.94 -0.966667 -6.86023 0
M  V30 18139 N 1714.73 -0.611405 -5.58765 0
M  V30 18140 H 1706.88 -1.19928 -1.75303 0
M  V30 18141 H 1709.14 -0.482503 -0.816024 0
M  V30 18142 H 1708.85 -1.25535 -3.28533 0
M  V30 18143 H 1708.72 0.432872 -3.74708 0
M  V30 18144 H 1711.11 0.821232 -2.83443 0
M  V30 18145 H 1711.19 -0.891504 -2.39762 0
M  V30 18146 H 1710.83 -1.51059 -4.84916 0
M  V30 18147 H 1710.76 0.221174 -5.26135 0
M  V30 18148 H 1713.26 -0.245414 -3.77102 0
M  V30 18149 H 1713.57 -1.12419 -7.6458 0
M  V30 18150 H 1711.91 -1.00413 -6.87708 0
M  V30 18151 H 1715.1 -0.388018 -4.66489 0
M  V30 18152 H 1715.28 -0.788519 -6.43185 0
M  V30 18153 N 1708.68 1.57577 0.026722 0
M  V30 18154 C 1709.65 2.05684 1.01127 0
M  V30 18155 C 1710.65 0.961373 1.28896 0
M  V30 18156 O 1711.84 1.22491 1.23861 0
M  V30 18157 C 1708.97 2.47576 2.34348 0
M  V30 18158 H 1710.16 2.93925 0.595681 0
M  V30 18159 H 1707.71 1.53887 0.273603 0
M  V30 18160 H 1708.45 1.62498 2.80651 0
M  V30 18161 H 1708.23 3.27556 2.15521 0
M  V30 18162 H 1709.72 2.85214 3.05029 0
M  V30 18163 N 1710.16 -0.299034 1.54737 0
M  V30 18164 C 1711.39 -1.05138 1.77847 0
M  V30 18165 C 1711.8 -1.81359 0.53902 0
M  V30 18166 O 1711.14 -1.76742 -0.500783 0
M  V30 18167 C 1711.2 -2.07681 2.93443 0
M  V30 18168 C 1710.87 -1.50636 4.3146 0
M  V30 18169 C 1711.87 -0.935378 5.11416 0
M  V30 18170 C 1709.55 -1.5414 4.78065 0
M  V30 18171 C 1711.54 -0.407022 6.36099 0
M  V30 18172 C 1709.23 -1.00917 6.0271 0
M  V30 18173 C 1710.23 -0.442956 6.81562 0
M  V30 18174 O 1709.92 0.081192 8.03859 0
M  V30 18175 H 1709.65 -0.317487 0.596807 0
M  V30 18176 H 1712.2 -0.343249 2.02512 0
M  V30 18177 H 1710.43 -2.82179 2.64408 0
M  V30 18178 H 1712.12 -2.68832 3.04112 0
M  V30 18179 H 1712.89 -0.901197 4.76554 0
M  V30 18180 H 1708.77 -1.9715 4.16717 0
M  V30 18181 H 1712.31 0.035577 6.97591 0
M  V30 18182 H 1708.21 -1.04051 6.37059 0
M  V30 18183 H 1708.98 -0.031922 8.18494 0
M  V30 18184 N 1711.64 -1.47227 -0.562322 0
M  V30 18185 C 1712.89 -1.52851 -1.31604 0
M  V30 18186 C 1713.2 -0.193236 -1.94643 0
M  V30 18187 O 1714.41 -0.127429 -2.71201 0
M  V30 18188 C 1712.86 -2.69422 -2.3862 0
M  V30 18189 C 1712.47 -4.09457 -1.81794 0
M  V30 18190 C 1714.22 -2.84334 -3.15205 0
M  V30 18191 C 1712.12 -5.17337 -2.8656 0
M  V30 18192 H 1711.05 -0.568923 -0.494816 0
M  V30 18193 H 1713.7 -1.73489 -0.597819 0
M  V30 18194 H 1712.09 -2.42153 -3.13333 0
M  V30 18195 H 1713.26 -4.46606 -1.13487 0
M  V30 18196 H 1711.57 -3.99387 -1.17811 0
M  V30 18197 H 1714.17 -3.621 -3.93431 0
M  V30 18198 H 1714.51 -1.9259 -3.69073 0
M  V30 18199 H 1715.05 -3.11348 -2.47603 0
M  V30 18200 H 1711.79 -6.1094 -2.37554 0
M  V30 18201 H 1711.31 -4.8471 -3.53293 0
M  V30 18202 H 1712.99 -5.44065 -3.50146 0
M  V30 18203 N 1713.12 0.808639 -1.35273 0
M  V30 18204 C 1714.08 1.90195 -1.279 0
M  V30 18205 C 1715.08 1.59663 -0.190915 0
M  V30 18206 O 1716.27 1.68434 -0.444482 0
M  V30 18207 C 1713.4 3.26567 -0.978106 0
M  V30 18208 H 1714.6 1.98152 -2.25113 0
M  V30 18209 H 1712.15 1.00426 -1.19767 0
M  V30 18210 H 1712.88 3.24299 -0.00975789 0
M  V30 18211 H 1712.67 3.50114 -1.7653 0
M  V30 18212 H 1714.16 4.06602 -0.95207 0
M  V30 18213 N 1714.6 1.19237 1.03055 0
M  V30 18214 C 1715.83 1.01769 1.79796 0
M  V30 18215 C 1716.23 -0.436738 1.8409 0
M  V30 18216 O 1715.58 -1.31514 1.28257 0
M  V30 18217 C 1715.64 1.50866 3.26312 0
M  V30 18218 C 1715.3 2.98949 3.45657 0
M  V30 18219 C 1716.3 3.96725 3.36014 0
M  V30 18220 C 1713.99 3.37605 3.71925 0
M  V30 18221 C 1715.98 5.31151 3.5236 0
M  V30 18222 C 1713.67 4.7219 3.87918 0
M  V30 18223 C 1714.66 5.68772 3.78137 0
M  V30 18224 O 1714.35 7.00919 3.9366 0
M  V30 18225 H 1714.08 0.359119 0.572721 0
M  V30 18226 H 1716.64 1.58449 1.30702 0
M  V30 18227 H 1714.87 0.885599 3.76423 0
M  V30 18228 H 1716.56 1.29633 3.84643 0
M  V30 18229 H 1717.32 3.68206 3.15672 0
M  V30 18230 H 1713.2 2.62982 3.78631 0
M  V30 18231 H 1716.75 6.06521 3.44643 0
M  V30 18232 H 1712.64 5.00405 4.07756 0
M  V30 18233 H 1713.41 7.07968 4.10761 0
M  V30 18234 N 1716.07 -1.22136 0.99602 0
M  V30 18235 C 1716.98 -2.27869 0.557927 0
M  V30 18236 C 1718 -1.69462 -0.394781 0
M  V30 18237 O 1719.18 -1.99704 -0.26084 0
M  V30 18238 C 1716.24 -3.46501 -0.117434 0
M  V30 18239 C 1715.3 -4.20213 0.878627 0
M  V30 18240 C 1714.54 -5.33181 0.2354 0
M  V30 18241 O 1714.76 -5.62093 -0.969954 0
M  V30 18242 O 1713.69 -5.94486 0.941828 0
M  V30 18243 H 1717.52 -2.67517 1.43765 0
M  V30 18244 H 1715.1 -1.28362 0.764428 0
M  V30 18245 H 1716.99 -4.18476 -0.49559 0
M  V30 18246 H 1715.66 -3.08772 -0.971674 0
M  V30 18247 H 1714.57 -3.50497 1.30777 0
M  V30 18248 H 1715.9 -4.6183 1.70217 0
M  V30 18249 N 1717.55 -0.769612 -1.37531 0
M  V30 18250 C 1718.48 -0.168389 -2.32892 0
M  V30 18251 C 1719.46 0.685549 -1.55673 0
M  V30 18252 O 1720.65 0.62345 -1.8392 0
M  V30 18253 C 1717.78 0.713183 -3.39898 0
M  V30 18254 C 1716.73 -0.0392808 -4.27982 0
M  V30 18255 C 1716.06 0.961596 -5.25982 0
M  V30 18256 C 1717.36 -1.21704 -5.07923 0
M  V30 18257 H 1719.05 -0.965022 -2.83421 0
M  V30 18258 H 1716.6 -0.465502 -1.36268 0
M  V30 18259 H 1718.55 1.14358 -4.05586 0
M  V30 18260 H 1717.28 1.54231 -2.87889 0
M  V30 18261 H 1715.93 -0.450429 -3.63822 0
M  V30 18262 H 1715.58 1.78522 -4.70254 0
M  V30 18263 H 1715.28 0.462679 -5.85776 0
M  V30 18264 H 1716.81 1.39097 -5.94545 0
M  V30 18265 H 1718.22 -0.863405 -5.66761 0
M  V30 18266 H 1716.62 -1.6479 -5.77031 0
M  V30 18267 H 1717.69 -2.02219 -4.40722 0
M  V30 18268 N 1719.03 1.48775 -0.519977 0
M  V30 18269 C 1719.98 2.31123 0.261738 0
M  V30 18270 C 1720.97 1.40595 0.94496 0
M  V30 18271 O 1722.18 1.57552 0.870484 0
M  V30 18272 H 1718.55 0.744875 0.103272 0
M  V30 18273 H 1720.52 2.94949 -0.452514 0
M  V30 18274 C 1719.27 3.22409 1.30184 0
M  V30 18275 H 1718.6 3.92007 0.785524 0
M  V30 18276 H 1720.04 3.82932 1.82042 0
M  V30 18277 C 1718.5 2.43321 2.33016 0
M  V30 18278 O 1719.03 2.15087 3.39265 0
M  V30 18279 N 1717.23 2.04998 2.05971 0
M  V30 18280 H 1716.78 2.2816 1.19586 0
M  V30 18281 H 1716.74 1.52393 2.74998 0
M  V30 18282 N 1720.51 0.254649 1.55529 0
M  V30 18283 C 1721.73 -0.374795 2.03985 0
M  V30 18284 C 1722.16 -1.50188 1.13249 0
M  V30 18285 O 1721.52 -1.80855 0.126963 0
M  V30 18286 C 1721.56 -0.852635 3.50375 0
M  V30 18287 O 1720.67 -1.9616 3.6276 0
M  V30 18288 H 1720.01 -0.0806157 0.659088 0
M  V30 18289 H 1722.54 0.38297 2.00984 0
M  V30 18290 H 1722.55 -1.15381 3.91345 0
M  V30 18291 H 1721.22 -0.0279044 4.15891 0
M  V30 18292 H 1719.8 -1.66453 3.33688 0
M  V30 18293 N 1721.99 -1.57589 -0.0183649 0
M  V30 18294 C 1723.23 -1.90038 -0.708056 0
M  V30 18295 C 1723.57 -0.853686 -1.7443 0
M  V30 18296 O 1722.84 0.12994 -1.94065 0
M  V30 18297 C 1723.12 -3.33107 -1.3679 0
M  V30 18298 C 1722.98 -4.48479 -0.344448 0
M  V30 18299 C 1724.3 -3.75276 -2.29904 0
M  V30 18300 H 1721.41 -0.691134 -0.255934 0
M  V30 18301 H 1724.06 -1.89978 0.0291579 0
M  V30 18302 H 1722.21 -3.33289 -1.99626 0
M  V30 18303 H 1723.88 -4.60432 0.282816 0
M  V30 18304 H 1722.12 -4.32503 0.335196 0
M  V30 18305 H 1722.79 -5.45497 -0.844832 0
M  V30 18306 H 1725.27 -3.76529 -1.77103 0
M  V30 18307 H 1724.14 -4.76168 -2.73049 0
M  V30 18308 H 1724.41 -3.08124 -3.17036 0
M  V30 18309 N 1723.46 0.290824 -1.54893 0
M  V30 18310 C 1724.4 1.38087 -1.82933 0
M  V30 18311 C 1725.41 1.46365 -0.712811 0
M  V30 18312 O 1726.6 1.48501 -0.990432 0
M  V30 18313 C 1723.7 2.76374 -1.9614 0
M  V30 18314 C 1722.87 2.90905 -3.26639 0
M  V30 18315 C 1721.93 4.09754 -3.30134 0
M  V30 18316 O 1720.96 4.01356 -4.03611 0
M  V30 18317 N 1722.16 5.20878 -2.56254 0
M  V30 18318 H 1724.92 1.14385 -2.77013 0
M  V30 18319 H 1722.48 0.480916 -1.54592 0
M  V30 18320 H 1724.48 3.54144 -1.95868 0
M  V30 18321 H 1723.05 2.92978 -1.09008 0
M  V30 18322 H 1722.27 2.00164 -3.396 0
M  V30 18323 H 1723.55 2.97531 -4.12738 0
M  V30 18324 H 1722.95 5.30584 -1.96207 0
M  V30 18325 H 1721.51 5.96945 -2.61725 0
M  V30 18326 N 1724.94 1.47523 0.554506 0
M  V30 18327 C 1725.89 1.5662 1.65693 0
M  V30 18328 C 1726.88 0.424914 1.55188 0
M  V30 18329 O 1728.07 0.674989 1.63624 0
M  V30 18330 C 1725.2 1.58607 3.04465 0
M  V30 18331 C 1724.28 2.78129 3.20164 0
M  V30 18332 N 1724.67 4.028 3.05918 0
M  V30 18333 C 1722.97 2.74947 3.5117 0
M  V30 18334 C 1723.67 4.82859 3.24379 0
M  V30 18335 N 1722.65 4.15228 3.50837 0
M  V30 18336 H 1726.45 2.50781 1.53252 0
M  V30 18337 H 1723.97 1.43554 0.759335 0
M  V30 18338 H 1725.96 1.63214 3.83623 0
M  V30 18339 H 1724.62 0.655437 3.18016 0
M  V30 18340 H 1725.63 4.33618 2.83189 0
M  V30 18341 H 1722.31 1.91034 3.71231 0
M  V30 18342 H 1723.7 5.91716 3.1831 0
M  V30 18343 N 1726.42 -0.801453 1.357 0
M  V30 18344 C 1727.84 -1.09776 1.1585 0
M  V30 18345 C 1728.04 -2.01484 -0.0255653 0
M  V30 18346 O 1727.09 -2.42758 -0.694613 0
M  V30 18347 C 1728.41 -1.72381 2.46385 0
M  V30 18348 C 1729.95 -1.84777 2.52639 0
M  V30 18349 C 1730.43 -2.50797 3.83229 0
M  V30 18350 N 1731.92 -2.58277 3.84509 0
M  V30 18351 C 1732.65 -3.10141 4.82286 0
M  V30 18352 N 1732.15 -3.62404 5.90454 0
M  V30 18353 N 1733.94 -3.08742 4.69718 0
M  V30 18354 H 1726.09 -0.191926 2.11531 0
M  V30 18355 H 1728.36 -0.147742 0.936417 0
M  V30 18356 H 1728.06 -1.12462 3.33234 0
M  V30 18357 H 1727.94 -2.72024 2.6131 0
M  V30 18358 H 1730.32 -2.43837 1.66215 0
M  V30 18359 H 1730.41 -0.839745 2.41624 0
M  V30 18360 H 1730.05 -1.92385 4.70053 0
M  V30 18361 H 1729.98 -3.52147 3.91535 0
M  V30 18362 H 1732.47 -2.21257 3.06356 0
M  V30 18363 H 1732.78 -4.00293 6.61049 0
M  V30 18364 H 1731.13 -3.60588 5.94139 0
M  V30 18365 H 1734.32 -2.67193 3.84351 0
M  V30 18366 H 1734.49 -3.48854 5.46081 0
M  V30 18367 N 1727.9 -1.19782 -1.02421 0
M  V30 18368 C 1728.83 -0.897544 -2.10895 0
M  V30 18369 C 1729.84 0.111644 -1.62417 0
M  V30 18370 O 1731.03 -0.118381 -1.78107 0
M  V30 18371 C 1728.13 -0.322714 -3.3736 0
M  V30 18372 C 1727.31 -1.38159 -4.15007 0
M  V30 18373 C 1726.36 -0.819462 -5.1978 0
M  V30 18374 O 1725.39 -1.4983 -5.49126 0
M  V30 18375 N 1726.59 0.374925 -5.79288 0
M  V30 18376 H 1729.36 -1.83127 -2.37243 0
M  V30 18377 H 1726.92 -1.10045 -1.1875 0
M  V30 18378 H 1728.91 0.0673046 -4.04644 0
M  V30 18379 H 1727.48 0.5154 -3.08322 0
M  V30 18380 H 1726.7 -1.94627 -3.42803 0
M  V30 18381 H 1727.99 -2.09496 -4.63669 0
M  V30 18382 H 1727.39 0.943856 -5.5777 0
M  V30 18383 H 1725.94 0.706668 -6.47958 0
M  V30 18384 N 1729.38 1.21606 -1.00248 0
M  V30 18385 C 1730.31 2.26159 -0.580911 0
M  V30 18386 C 1731.29 1.65402 0.397017 0
M  V30 18387 O 1732.47 1.92089 0.285552 0
M  V30 18388 C 1729.6 3.47168 0.0957564 0
M  V30 18389 C 1728.56 4.20425 -0.801695 0
M  V30 18390 C 1727.88 5.34699 0.00842241 0
M  V30 18391 C 1729.18 4.78086 -2.10311 0
M  V30 18392 H 1730.88 2.61675 -1.45487 0
M  V30 18393 H 1728.42 1.25786 -0.700995 0
M  V30 18394 H 1730.38 4.19477 0.402141 0
M  V30 18395 H 1729.1 3.10775 1.00433 0
M  V30 18396 H 1727.76 3.49963 -1.09187 0
M  V30 18397 H 1727.41 4.94548 0.918206 0
M  V30 18398 H 1727.11 5.84639 -0.589105 0
M  V30 18399 H 1728.63 6.09819 0.30868 0
M  V30 18400 H 1730.05 5.42287 -1.86004 0
M  V30 18401 H 1728.44 5.38405 -2.65028 0
M  V30 18402 H 1729.51 3.97607 -2.77555 0
M  V30 18403 N 1730.86 0.776895 1.37121 0
M  V30 18404 C 1731.8 0.164838 2.30211 0
M  V30 18405 C 1732.77 -0.684137 1.51356 0
M  V30 18406 O 1733.96 -0.635428 1.79908 0
M  V30 18407 C 1731.1 -0.704263 3.37837 0
M  V30 18408 C 1730.21 0.161881 4.31697 0
M  V30 18409 C 1729.35 -0.712411 5.26401 0
M  V30 18410 C 1728.38 0.155953 6.11901 0
M  V30 18411 N 1727.52 -0.676607 6.98832 0
M  V30 18412 H 1732.36 0.964185 2.81971 0
M  V30 18413 H 1729.9 0.487065 1.38802 0
M  V30 18414 H 1731.86 -1.22302 3.98871 0
M  V30 18415 H 1730.49 -1.46916 2.87429 0
M  V30 18416 H 1729.54 0.798491 3.71925 0
M  V30 18417 H 1730.85 0.831496 4.91821 0
M  V30 18418 H 1730 -1.29745 5.92664 0
M  V30 18419 H 1728.74 -1.41569 4.66701 0
M  V30 18420 H 1727.75 0.753493 5.44612 0
M  V30 18421 H 1728.97 0.856645 6.73675 0
M  V30 18422 H 1726.92 -1.36441 6.41654 0
M  V30 18423 H 1726.84 -0.0644017 7.55973 0
M  V30 18424 H 1728.1 -1.24588 7.69479 0
M  V30 18425 N 1732.33 -1.48497 0.527859 0
M  V30 18426 C 1733.61 -1.9547 -0.0713049 0
M  V30 18427 C 1733.99 -1.47005 -1.51502 0
M  V30 18428 O 1733.34 -0.695609 -2.17655 0
M  V30 18429 C 1733.55 -3.48973 0.0437547 0
M  V30 18430 C 1734.9 -4.2444 -0.116591 0
M  V30 18431 O 1735.92 -3.56187 -0.0301431 0
M  V30 18432 O 1734.78 -5.4569 -0.297491 0
M  V30 18433 H 1731.87 -0.823075 -0.080474 0
M  V30 18434 H 1734.42 -1.59028 0.592307 0
M  V30 18435 H 1733.19 -3.76963 1.04952 0
M  V30 18436 H 1732.81 -3.92104 -0.658803 0
M  V30 18437 N 1733.81 -0.262893 -1.55392 0
M  V30 18438 C 1734.76 0.645946 -2.23451 0
M  V30 18439 C 1735.75 1.16753 -1.2274 0
M  V30 18440 O 1736.96 1.12257 -1.40706 0
M  V30 18441 H 1733.33 0.226829 -0.716975 0
M  V30 18442 H 1735.31 0.0489539 -2.9836 0
M  V30 18443 C 1734.05 1.82451 -2.95985 0
M  V30 18444 H 1733.38 1.43233 -3.73262 0
M  V30 18445 H 1734.82 2.43731 -3.46945 0
M  V30 18446 C 1733.28 2.7055 -2.0076 0
M  V30 18447 O 1733.81 3.70552 -1.55093 0
M  V30 18448 N 1732.01 2.37457 -1.67519 0
M  V30 18449 H 1731.56 1.56184 -2.04852 0
M  V30 18450 H 1731.52 2.96675 -1.04074 0
M  V30 18451 N 1735.29 1.57597 0.0100073 0
M  V30 18452 C 1736.52 1.94402 0.708192 0
M  V30 18453 C 1736.93 0.864205 1.6786 0
M  V30 18454 O 1736.29 -0.157763 1.81817 0
M  V30 18455 C 1736.34 3.312 1.44876 0
M  V30 18456 O 1736.06 4.35035 0.517281 0
M  V30 18457 C 1737.56 3.82404 2.24237 0
M  V30 18458 H 1734.78 0.64116 0.197877 0
M  V30 18459 H 1737.33 2.04464 -0.0381373 0
M  V30 18460 H 1735.48 3.22476 2.1468 0
M  V30 18461 H 1735.9 5.14113 1.03868 0
M  V30 18462 H 1737.37 4.80578 2.71567 0
M  V30 18463 H 1737.85 3.14587 3.06483 0
M  V30 18464 H 1738.45 3.94271 1.59469 0
M  V30 18465 N 1736.77 -0.282606 1.55045 0
M  V30 18466 C 1738.01 -1.02323 1.76945 0
M  V30 18467 C 1738.37 -1.83845 0.553631 0
M  V30 18468 O 1739.57 -2.60805 0.650695 0
M  V30 18469 C 1737.84 -1.89026 3.03322 0
M  V30 18470 S 1739.4 -2.69484 3.463 0
M  V30 18471 H 1736.22 -0.344792 0.621804 0
M  V30 18472 H 1738.82 -0.294652 1.93267 0
M  V30 18473 H 1737.53 -1.28043 3.89914 0
M  V30 18474 H 1737.06 -2.6622 2.89638 0
M  V30 18475 H 1739.07 -3.91537 3.04817 0
M  V30 18476 N 1738.25 -1.47815 -0.546675 0
M  V30 18477 C 1739.49 -1.5521 -1.30529 0
M  V30 18478 C 1739.82 -0.218129 -1.92971 0
M  V30 18479 O 1739.1 0.774298 -1.78423 0
M  V30 18480 C 1739.38 -2.67799 -2.40739 0
M  V30 18481 C 1739.24 -4.10847 -1.83097 0
M  V30 18482 C 1740.55 -2.76238 -3.42608 0
M  V30 18483 H 1737.67 -0.564998 -0.473229 0
M  V30 18484 H 1740.32 -1.79917 -0.610713 0
M  V30 18485 H 1738.47 -2.46863 -2.99985 0
M  V30 18486 H 1740.14 -4.43177 -1.28031 0
M  V30 18487 H 1738.38 -4.1863 -1.13716 0
M  V30 18488 H 1739.05 -4.85418 -2.62818 0
M  V30 18489 H 1741.53 -2.95156 -2.93296 0
M  V30 18490 H 1740.4 -3.56774 -4.17137 0
M  V30 18491 H 1740.66 -1.83719 -4.02119 0
M  V30 18492 N 1739.72 0.794246 -1.36123 0
M  V30 18493 C 1740.97 1.55421 -1.30277 0
M  V30 18494 C 1741.3 1.93834 0.119134 0
M  V30 18495 O 1740.58 1.6233 1.07141 0
M  V30 18496 C 1740.86 2.83454 -2.22094 0
M  V30 18497 C 1740.71 2.51439 -3.72959 0
M  V30 18498 C 1742.03 3.85246 -2.12776 0
M  V30 18499 H 1739.15 0.563871 -0.474572 0
M  V30 18500 H 1741.79 0.912877 -1.66633 0
M  V30 18501 H 1739.94 3.38182 -1.9122 0
M  V30 18502 H 1741.62 2.02799 -4.14331 0
M  V30 18503 H 1739.86 1.84451 -3.92632 0
M  V30 18504 H 1740.53 3.42863 -4.32608 0
M  V30 18505 H 1743.01 3.39952 -2.39942 0
M  V30 18506 H 1741.88 4.72588 -2.79198 0
M  V30 18507 H 1742.14 4.27847 -1.11353 0
M  V30 18508 N 1741.2 1.20323 1.01785 0
M  V30 18509 C 1742.11 0.966603 2.13761 0
M  V30 18510 C 1743.13 -0.0771059 1.73829 0
M  V30 18511 O 1744.3 0.110054 2.01099 0
M  V30 18512 C 1741.37 0.520405 3.42772 0
M  V30 18513 C 1740.43 1.63482 3.96954 0
M  V30 18514 C 1739.66 1.20981 5.19807 0
M  V30 18515 O 1739.89 0.0779814 5.70347 0
M  V30 18516 O 1738.82 2.01674 5.67108 0
M  V30 18517 H 1742.65 1.90414 2.36593 0
M  V30 18518 H 1740.23 0.986997 1.12155 0
M  V30 18519 H 1742.11 0.280747 4.20464 0
M  V30 18520 H 1740.79 -0.388563 3.21359 0
M  V30 18521 H 1739.69 1.92874 3.20547 0
M  V30 18522 H 1741.03 2.52074 4.22752 0
M  V30 18523 N 1742.68 -1.21073 1.00892 0
M  V30 18524 C 1743.93 -1.90242 0.693851 0
M  V30 18525 C 1744.25 -1.78359 -0.77578 0
M  V30 18526 O 1743.51 -1.15694 -1.57839 0
M  V30 18527 C 1743.81 -3.41148 1.0655 0
M  V30 18528 C 1743.47 -3.73228 2.53005 0
M  V30 18529 C 1742.14 -3.81694 2.93024 0
M  V30 18530 C 1744.49 -3.88132 3.47855 0
M  V30 18531 C 1741.82 -4.02515 4.26847 0
M  V30 18532 C 1744.17 -4.10461 4.81357 0
M  V30 18533 C 1742.83 -4.17155 5.21093 0
M  V30 18534 H 1742.1 -0.696144 0.253898 0
M  V30 18535 H 1744.75 -1.43499 1.26808 0
M  V30 18536 H 1743.05 -3.89653 0.409575 0
M  V30 18537 H 1744.75 -3.92949 0.799525 0
M  V30 18538 H 1741.34 -3.67233 2.20994 0
M  V30 18539 H 1745.53 -3.80954 3.18101 0
M  V30 18540 H 1740.78 -4.0593 4.57199 0
M  V30 18541 H 1744.96 -4.20935 5.54785 0
M  V30 18542 H 1742.58 -4.33041 6.24804 0
M  V30 18543 N 1744.16 -0.784156 -1.36707 0
M  V30 18544 C 1745.09 -0.136944 -2.28791 0
M  V30 18545 C 1746.1 0.65075 -1.49228 0
M  V30 18546 O 1747.29 0.486799 -1.71734 0
M  V30 18547 C 1744.39 0.829306 -3.28597 0
M  V30 18548 C 1743.57 0.09279 -4.37302 0
M  V30 18549 C 1742.62 0.974213 -5.17103 0
M  V30 18550 O 1741.65 0.433399 -5.67548 0
M  V30 18551 N 1742.85 2.29909 -5.33031 0
M  V30 18552 H 1745.62 -0.927906 -2.84974 0
M  V30 18553 H 1743.18 -0.637596 -1.48816 0
M  V30 18554 H 1745.17 1.42268 -3.78869 0
M  V30 18555 H 1743.74 1.52117 -2.73092 0
M  V30 18556 H 1742.96 -0.681615 -3.88262 0
M  V30 18557 H 1744.25 -0.415655 -5.07099 0
M  V30 18558 H 1743.65 2.76268 -4.93652 0
M  V30 18559 H 1742.2 2.84224 -5.86566 0
M  V30 18560 N 1745.64 1.48215 -0.535727 0
M  V30 18561 C 1746.88 2.025 -0.00372753 0
M  V30 18562 C 1747.21 1.41227 1.33735 0
M  V30 18563 O 1746.47 0.549544 1.87826 0
M  V30 18564 C 1746.77 3.57036 0.161344 0
M  V30 18565 C 1746.43 4.37122 -1.10611 0
M  V30 18566 C 1745.09 4.58724 -1.45346 0
M  V30 18567 C 1747.45 4.83469 -1.94698 0
M  V30 18568 C 1744.77 5.2392 -2.64055 0
M  V30 18569 C 1747.13 5.49973 -3.1259 0
M  V30 18570 C 1745.79 5.69812 -3.47664 0
M  V30 18571 H 1745.06 0.740999 -0.001364 0
M  V30 18572 H 1747.71 1.78133 -0.70291 0
M  V30 18573 H 1746.01 3.80274 0.943337 0
M  V30 18574 H 1747.71 3.96666 0.587981 0
M  V30 18575 H 1744.3 4.20573 -0.825608 0
M  V30 18576 H 1748.48 4.66577 -1.69173 0
M  V30 18577 H 1743.74 5.37477 -2.91424 0
M  V30 18578 H 1747.91 5.84852 -3.78049 0
M  V30 18579 H 1745.54 6.20103 -4.39746 0
M  V30 18580 N 1747.11 0.27113 1.5525 0
M  V30 18581 C 1748.05 -0.659325 2.18468 0
M  V30 18582 C 1749.03 -1.15515 1.14433 0
M  V30 18583 O 1750.21 -1.22885 1.42939 0
M  V30 18584 C 1747.34 -1.89873 2.80474 0
M  V30 18585 C 1746.38 -1.53872 3.97776 0
M  V30 18586 S 1747.22 -0.620335 5.31895 0
M  V30 18587 C 1748.37 -1.86821 5.97368 0
M  V30 18588 H 1748.6 -0.122165 2.97049 0
M  V30 18589 H 1746.14 0.0554132 1.54301 0
M  V30 18590 H 1748.1 -2.61014 3.16831 0
M  V30 18591 H 1746.76 -2.40703 2.01794 0
M  V30 18592 H 1745.95 -2.46087 4.39838 0
M  V30 18593 H 1745.55 -0.907534 3.62822 0
M  V30 18594 H 1747.84 -2.81261 6.16359 0
M  V30 18595 H 1748.79 -1.49066 6.92232 0
M  V30 18596 H 1749.19 -2.03133 5.26685 0
M  V30 18597 N 1748.59 -1.576 -0.00164943 0
M  V30 18598 C 1749.52 -2.11354 -0.992554 0
M  V30 18599 C 1750.5 -1.0223 -1.35952 0
M  V30 18600 O 1751.69 -1.29904 -1.44356 0
M  V30 18601 C 1748.82 -2.61549 -2.28494 0
M  V30 18602 C 1747.77 -3.75185 -2.05962 0
M  V30 18603 C 1747.1 -4.11688 -3.412 0
M  V30 18604 C 1748.4 -5.02526 -1.42355 0
M  V30 18605 H 1750.09 -2.94398 -0.544986 0
M  V30 18606 H 1747.64 -1.4162 -0.260702 0
M  V30 18607 H 1749.59 -2.97782 -2.98168 0
M  V30 18608 H 1748.32 -1.75625 -2.75361 0
M  V30 18609 H 1746.97 -3.39343 -1.38714 0
M  V30 18610 H 1746.62 -3.22789 -3.85767 0
M  V30 18611 H 1746.32 -4.88246 -3.2694 0
M  V30 18612 H 1747.85 -4.50478 -4.12192 0
M  V30 18613 H 1749.26 -5.3654 -2.01984 0
M  V30 18614 H 1747.66 -5.83878 -1.38589 0
M  V30 18615 H 1748.73 -4.83308 -0.392565 0
M  V30 18616 N 1750.07 0.274379 -1.55193 0
M  V30 18617 C 1751.48 0.845522 -1.66457 0
M  V30 18618 C 1751.83 1.87097 -0.590684 0
M  V30 18619 O 1750.96 2.14733 0.268065 0
M  V30 18620 C 1751.55 1.54039 -3.01757 0
M  V30 18621 C 1750.11 2.05958 -3.15053 0
M  V30 18622 C 1749.26 0.901169 -2.62248 0
M  V30 18623 H 1752.21 0.0507599 -1.58619 0
M  V30 18624 H 1752.23 2.40729 -2.94669 0
M  V30 18625 H 1751.74 0.793807 -3.79895 0
M  V30 18626 H 1749.84 2.83582 -2.41686 0
M  V30 18627 H 1749.96 2.27584 -4.21595 0
M  V30 18628 H 1748.32 1.29416 -2.19371 0
M  V30 18629 H 1749.1 0.168116 -3.42888 0
M  V30 18630 N 1751.55 1.48103 0.538828 0
M  V30 18631 C 1752.78 1.59316 1.32008 0
M  V30 18632 C 1753.19 0.250107 1.87136 0
M  V30 18633 O 1752.55 -0.759358 1.65952 0
M  V30 18634 C 1752.6 2.63287 2.47714 0
M  V30 18635 O 1752.32 3.92379 1.9486 0
M  V30 18636 C 1753.82 2.84856 3.39664 0
M  V30 18637 H 1751.04 0.53743 0.401758 0
M  V30 18638 H 1753.59 1.93864 0.65092 0
M  V30 18639 H 1751.74 2.31621 3.10532 0
M  V30 18640 H 1752.15 4.49346 2.70534 0
M  V30 18641 H 1753.63 3.61426 4.17223 0
M  V30 18642 H 1754.11 1.93352 3.9435 0
M  V30 18643 H 1754.71 3.17791 2.82647 0
M  V30 18644 N 1753.03 -0.787016 1.36542 0
M  V30 18645 C 1754.25 -1.58103 1.34231 0
M  V30 18646 C 1754.68 -1.87956 -0.0734932 0
M  V30 18647 O 1754.03 -1.48073 -1.04615 0
M  V30 18648 C 1754.08 -2.87739 2.17345 0
M  V30 18649 O 1753.19 -3.81445 1.56759 0
M  V30 18650 H 1752.53 -0.479495 0.459326 0
M  V30 18651 H 1755.06 -0.975294 1.79859 0
M  V30 18652 H 1755.07 -3.36986 2.3001 0
M  V30 18653 H 1753.74 -2.65338 3.20264 0
M  V30 18654 H 1752.32 -3.40046 1.53047 0
M  V30 18655 N 1754.5 -1.20861 -1.01145 0
M  V30 18656 C 1755.45 -0.929642 -2.08187 0
M  V30 18657 C 1756.44 0.112578 -1.60506 0
M  V30 18658 O 1757.63 -0.0954894 -1.76742 0
M  V30 18659 C 1754.76 -0.489163 -3.39797 0
M  V30 18660 C 1753.85 -1.5651 -3.94164 0
M  V30 18661 N 1754.24 -2.7887 -4.21978 0
M  V30 18662 C 1752.53 -1.43246 -4.2237 0
M  V30 18663 C 1753.24 -3.48309 -4.65892 0
M  V30 18664 N 1752.21 -2.75734 -4.68478 0
M  V30 18665 H 1756.01 -1.85937 -2.27606 0
M  V30 18666 H 1753.53 -1.10338 -1.19161 0
M  V30 18667 H 1755.52 -0.27069 -4.1602 0
M  V30 18668 H 1754.18 0.433877 -3.21788 0
M  V30 18669 H 1755.2 -3.15473 -4.10727 0
M  V30 18670 H 1751.87 -0.57422 -4.13532 0
M  V30 18671 H 1753.26 -4.53042 -4.96188 0
M  V30 18672 N 1755.98 1.20536 -1.01532 0
M  V30 18673 C 1757.39 1.71594 -0.735687 0
M  V30 18674 C 1757.74 1.81469 0.745873 0
M  V30 18675 O 1756.87 1.47638 1.58215 0
M  V30 18676 C 1757.46 3.11654 -1.3288 0
M  V30 18677 C 1756.02 3.60027 -1.09806 0
M  V30 18678 C 1755.17 2.37266 -1.43528 0
M  V30 18679 H 1758.12 1.05568 -1.18495 0
M  V30 18680 H 1758.14 3.7365 -0.718725 0
M  V30 18681 H 1757.65 3.04434 -2.4071 0
M  V30 18682 H 1755.76 3.72581 -0.0373763 0
M  V30 18683 H 1755.87 4.44918 -1.77722 0
M  V30 18684 H 1754.23 2.39947 -0.854268 0
M  V30 18685 H 1755.02 2.32688 -2.5241 0
M  V30 18686 N 1757.46 0.791395 1.36289 0
M  V30 18687 C 1758.41 0.179128 2.31909 0
M  V30 18688 C 1759.4 -0.662657 1.55901 0
M  V30 18689 O 1760.61 -0.55752 1.71148 0
M  V30 18690 H 1756.98 0.0391522 0.75098 0
M  V30 18691 H 1758.95 1.001 2.8111 0
M  V30 18692 C 1757.7 -0.670016 3.41183 0
M  V30 18693 H 1757.03 -0.0316331 3.99787 0
M  V30 18694 H 1758.47 -1.06506 4.10405 0
M  V30 18695 C 1756.93 -1.8291 2.82923 0
M  V30 18696 O 1757.46 -2.92579 2.75247 0
M  V30 18697 N 1755.66 -1.63584 2.40185 0
M  V30 18698 H 1755.21 -0.743799 2.46628 0
M  V30 18699 H 1755.17 -2.41298 2.01551 0
M  V30 18700 N 1758.94 -1.47929 0.54358 0
M  V30 18701 C 1760.36 -1.58312 0.202376 0
M  V30 18702 C 1760.56 -1.54394 -1.29479 0
M  V30 18703 O 1759.61 -1.44015 -2.07403 0
M  V30 18704 C 1760.92 -2.89389 0.816958 0
M  V30 18705 C 1762.47 -3.02946 0.786935 0
M  V30 18706 C 1762.95 -4.36704 1.38034 0
M  V30 18707 N 1764.44 -4.43306 1.34291 0
M  V30 18708 C 1765.17 -5.45339 1.77182 0
M  V30 18709 N 1764.67 -6.54255 2.27866 0
M  V30 18710 N 1766.46 -5.36302 1.68336 0
M  V30 18711 H 1758.61 -1.48719 1.51646 0
M  V30 18712 H 1760.88 -0.706966 0.631587 0
M  V30 18713 H 1760.58 -2.97953 1.86861 0
M  V30 18714 H 1760.46 -3.75989 0.30198 0
M  V30 18715 H 1762.84 -2.93988 -0.25599 0
M  V30 18716 H 1762.92 -2.17923 1.33953 0
M  V30 18717 H 1762.57 -4.46418 2.42226 0
M  V30 18718 H 1762.5 -5.20437 0.803308 0
M  V30 18719 H 1764.99 -3.65185 0.972033 0
M  V30 18720 H 1765.3 -7.28265 2.58552 0
M  V30 18721 H 1763.65 -6.55181 2.31868 0
M  V30 18722 H 1766.84 -4.50109 1.28527 0
M  V30 18723 H 1767.01 -6.15684 2.02082 0
M  V30 18724 N 1760.42 -0.27936 -1.55104 0
M  V30 18725 C 1761.67 0.335541 -1.99295 0
M  V30 18726 C 1761.99 1.56059 -1.16921 0
M  V30 18727 O 1761.26 1.9417 -0.259773 0
M  V30 18728 H 1759.84 0.126968 -0.736131 0
M  V30 18729 H 1762.5 -0.385679 -1.91046 0
M  V30 18730 H 1761.59 0.622493 -3.05829 0
M  V30 18731 N 1761.9 1.57599 -0.0067085 0
M  V30 18732 C 1762.84 2.09973 1.00071 0
M  V30 18733 C 1763.84 1.02121 1.35158 0
M  V30 18734 O 1765.04 1.20579 1.33644 0
M  V30 18735 H 1761.42 0.670547 0.340398 0
M  V30 18736 H 1763.39 2.93593 0.533471 0
M  V30 18737 C 1762.14 2.62376 2.28153 0
M  V30 18738 H 1761.46 3.45002 2.02024 0
M  V30 18739 H 1762.9 3.02694 2.96905 0
M  V30 18740 C 1761.36 1.54093 2.99595 0
M  V30 18741 O 1761.89 0.927722 3.9084 0
M  V30 18742 N 1760.1 1.26676 2.61537 0
M  V30 18743 H 1759.64 1.76728 1.87417 0
M  V30 18744 H 1759.6 0.544464 3.0965 0
M  V30 18745 N 1763.37 -0.266145 1.55336 0
M  V30 18746 C 1764.62 -0.994648 1.7547 0
M  V30 18747 C 1764.94 -1.87201 0.56702 0
M  V30 18748 O 1766.14 -2.63582 0.650924 0
M  V30 18749 C 1764.6 -1.81844 3.10581 0
M  V30 18750 C 1764.21 -0.989413 4.36938 0
M  V30 18751 C 1765.95 -2.54084 3.40061 0
M  V30 18752 C 1763.86 -1.80799 5.63086 0
M  V30 18753 H 1762.79 -0.375097 0.654078 0
M  V30 18754 H 1765.44 -0.25004 1.81788 0
M  V30 18755 H 1763.82 -2.60427 2.98318 0
M  V30 18756 H 1764.99 -0.247271 4.60136 0
M  V30 18757 H 1763.31 -0.38125 4.14651 0
M  V30 18758 H 1765.91 -3.15744 4.3152 0
M  V30 18759 H 1766.25 -3.2472 2.60505 0
M  V30 18760 H 1766.78 -1.82526 3.53453 0
M  V30 18761 H 1763.52 -1.14571 6.4541 0
M  V30 18762 H 1763.04 -2.52592 5.4402 0
M  V30 18763 H 1764.72 -2.37994 6.01638 0
M  V30 18764 N 1764.85 -1.48386 -0.530967 0
M  V30 18765 C 1766.26 -1.49904 -1.11291 0
M  V30 18766 C 1766.61 -0.268276 -1.94357 0
M  V30 18767 O 1765.74 0.624676 -2.07188 0
M  V30 18768 C 1766.33 -2.71622 -2.02501 0
M  V30 18769 C 1764.89 -2.76015 -2.55916 0
M  V30 18770 C 1764.04 -2.43403 -1.32855 0
M  V30 18771 H 1766.99 -1.55517 -0.316269 0
M  V30 18772 H 1767.01 -2.50084 -2.86772 0
M  V30 18773 H 1766.52 -3.61182 -1.42017 0
M  V30 18774 H 1764.62 -1.9066 -3.20124 0
M  V30 18775 H 1764.74 -3.77416 -2.95116 0
M  V30 18776 H 1763.1 -1.94537 -1.644 0
M  V30 18777 H 1763.88 -3.35202 -0.741242 0
M  V30 18778 N 1766.33 0.779763 -1.36958 0
M  V30 18779 C 1767.56 1.56875 -1.34899 0
M  V30 18780 C 1767.97 1.88679 0.0675345 0
M  V30 18781 O 1767.33 1.50852 1.02712 0
M  V30 18782 C 1767.38 2.88391 -2.17975 0
M  V30 18783 O 1767.1 2.57954 -3.54107 0
M  V30 18784 C 1768.6 3.82657 -2.23805 0
M  V30 18785 H 1765.82 0.486262 -0.462374 0
M  V30 18786 H 1768.37 0.967072 -1.80189 0
M  V30 18787 H 1766.52 3.45003 -1.76215 0
M  V30 18788 H 1766.94 3.42115 -3.97564 0
M  V30 18789 H 1768.41 4.71967 -2.86272 0
M  V30 18790 H 1768.89 4.21208 -1.24421 0
M  V30 18791 H 1769.49 3.31976 -2.65843 0
M  V30 18792 N 1767.81 1.21396 1.00503 0
M  V30 18793 C 1768.74 0.997268 2.11132 0
M  V30 18794 C 1769.72 -0.0777455 1.69922 0
M  V30 18795 O 1770.9 0.08208 1.94026 0
M  V30 18796 C 1768.03 0.561122 3.42737 0
M  V30 18797 C 1766.99 1.58069 3.97741 0
M  V30 18798 C 1766.31 1.00079 5.25251 0
M  V30 18799 C 1767.61 2.96754 4.29807 0
M  V30 18800 H 1769.31 1.92255 2.29518 0
M  V30 18801 H 1766.85 0.925776 1.10297 0
M  V30 18802 H 1768.81 0.396701 4.19529 0
M  V30 18803 H 1767.53 -0.399804 3.24144 0
M  V30 18804 H 1766.19 1.73268 3.23069 0
M  V30 18805 H 1765.84 0.0315797 5.0299 0
M  V30 18806 H 1765.54 1.68182 5.63017 0
M  V30 18807 H 1767.06 0.847687 6.04687 0
M  V30 18808 H 1768.48 2.85 4.97441 0
M  V30 18809 H 1766.87 3.61871 4.78717 0
M  V30 18810 H 1767.94 3.47602 3.38084 0
M  V30 18811 N 1769.29 -1.19996 1.0217 0
M  V30 18812 C 1770.23 -2.25 0.589726 0
M  V30 18813 C 1771.23 -1.65218 -0.374086 0
M  V30 18814 O 1772.43 -1.78346 -0.243449 0
M  V30 18815 H 1768.81 -0.731968 0.172416 0
M  V30 18816 H 1770.78 -2.58759 1.48615 0
M  V30 18817 C 1769.53 -3.47663 -0.0509896 0
M  V30 18818 H 1768.85 -3.93946 0.681649 0
M  V30 18819 H 1770.29 -4.22819 -0.316287 0
M  V30 18820 C 1768.75 -3.11001 -1.29538 0
M  V30 18821 O 1769.28 -3.23 -2.38818 0
M  V30 18822 N 1767.49 -2.65502 -1.18141 0
M  V30 18823 H 1767.03 -2.55938 -0.292172 0
M  V30 18824 H 1766.99 -2.41342 -2.01498 0
M  V30 18825 N 1770.76 -0.798611 -1.35867 0
M  V30 18826 C 1772.18 -0.481385 -1.52167 0
M  V30 18827 C 1772.38 0.99878 -1.75005 0
M  V30 18828 O 1771.44 1.78404 -1.78685 0
M  V30 18829 C 1772.75 -1.31982 -2.70188 0
M  V30 18830 C 1774.3 -1.31445 -2.84062 0
M  V30 18831 C 1774.77 -2.13682 -4.05098 0
M  V30 18832 N 1776.26 -2.11176 -4.12261 0
M  V30 18833 C 1777 -2.71571 -5.05012 0
M  V30 18834 N 1776.49 -3.40861 -6.03147 0
M  V30 18835 N 1778.29 -2.61255 -4.97697 0
M  V30 18836 H 1770.44 -1.75731 -1.19299 0
M  V30 18837 H 1772.7 -0.747512 -0.583034 0
M  V30 18838 H 1772.41 -2.36989 -2.59864 0
M  V30 18839 H 1772.28 -0.967488 -3.64581 0
M  V30 18840 H 1774.67 -0.272258 -2.93841 0
M  V30 18841 H 1774.75 -1.7066 -1.90549 0
M  V30 18842 H 1774.39 -3.17937 -3.96079 0
M  V30 18843 H 1774.32 -1.71832 -4.97776 0
M  V30 18844 H 1776.81 -1.60754 -3.42004 0
M  V30 18845 H 1777.13 -3.84251 -6.705 0
M  V30 18846 H 1775.47 -3.44964 -6.03345 0
M  V30 18847 H 1778.66 -2.06717 -4.19983 0
M  V30 18848 H 1778.84 -3.08613 -5.69791 0
M  V30 18849 N 1772.24 1.47639 -0.551417 0
M  V30 18850 C 1773.17 2.26857 0.247231 0
M  V30 18851 C 1774.15 1.33688 0.925546 0
M  V30 18852 O 1775.34 1.63061 0.945688 0
M  V30 18853 C 1772.46 3.10554 1.35181 0
M  V30 18854 C 1771.51 4.19257 0.782657 0
M  V30 18855 S 1772.34 5.34246 -0.366249 0
M  V30 18856 C 1773.5 6.21507 0.740284 0
M  V30 18857 H 1773.73 2.94246 -0.425008 0
M  V30 18858 H 1771.26 1.50663 -0.33762 0
M  V30 18859 H 1773.22 3.59348 1.98442 0
M  V30 18860 H 1771.88 2.42537 1.99586 0
M  V30 18861 H 1771.08 4.77527 1.61196 0
M  V30 18862 H 1770.68 3.73315 0.226329 0
M  V30 18863 H 1772.97 6.57505 1.6338 0
M  V30 18864 H 1773.91 7.07831 0.195076 0
M  V30 18865 H 1774.32 5.55017 1.03035 0
M  V30 18866 N 1773.72 0.287581 1.54954 0
M  V30 18867 C 1774.95 -0.331442 2.04735 0
M  V30 18868 C 1775.37 -1.47752 1.16409 0
M  V30 18869 O 1774.73 -1.80545 0.165297 0
M  V30 18870 C 1774.78 -0.778123 3.52105 0
M  V30 18871 O 1773.88 -1.88422 3.66839 0
M  V30 18872 H 1773.22 -0.0666173 0.66065 0
M  V30 18873 H 1775.75 0.425516 2.00126 0
M  V30 18874 H 1775.76 -1.07054 3.93705 0
M  V30 18875 H 1774.44 0.0603184 4.15856 0
M  V30 18876 H 1773.01 -1.59338 3.37144 0
M  V30 18877 N 1775.2 -1.57593 0.0150662 0
M  V30 18878 C 1776.45 -1.91214 -0.666599 0
M  V30 18879 C 1776.77 -0.890139 -1.72936 0
M  V30 18880 O 1776.03 0.102976 -1.95429 0
M  V30 18881 C 1776.33 -3.3158 -1.33376 0
M  V30 18882 C 1775.99 -4.49098 -0.402748 0
M  V30 18883 C 1774.66 -4.80977 -0.146455 0
M  V30 18884 C 1777.01 -5.20659 0.237376 0
M  V30 18885 C 1774.34 -5.81783 0.758003 0
M  V30 18886 C 1776.69 -6.22429 1.1298 0
M  V30 18887 C 1775.35 -6.52758 1.39513 0
M  V30 18888 H 1774.62 -0.699701 -0.243926 0
M  V30 18889 H 1777.27 -1.91358 0.073824 0
M  V30 18890 H 1775.57 -3.27632 -2.1486 0
M  V30 18891 H 1777.27 -3.54859 -1.86751 0
M  V30 18892 H 1773.86 -4.24198 -0.612678 0
M  V30 18893 H 1778.04 -4.96272 0.052408 0
M  V30 18894 H 1773.3 -6.03634 0.971415 0
M  V30 18895 H 1777.47 -6.77005 1.63208 0
M  V30 18896 H 1775.1 -7.30687 2.09764 0
M  V30 18897 N 1776.68 0.257904 -1.55475 0
M  V30 18898 C 1777.9 1.00955 -1.81171 0
M  V30 18899 C 1778.33 1.78586 -0.590651 0
M  V30 18900 O 1777.68 1.75365 0.460105 0
M  V30 18901 C 1777.73 1.93188 -3.04485 0
M  V30 18902 O 1776.84 3.02194 -2.80628 0
M  V30 18903 H 1776.18 0.28785 -0.598363 0
M  V30 18904 H 1778.71 0.28223 -2.02644 0
M  V30 18905 H 1778.72 2.3486 -3.33624 0
M  V30 18906 H 1777.39 1.361 -3.93001 0
M  V30 18907 H 1775.97 2.64729 -2.62627 0
M  V30 18908 N 1778.15 1.48666 0.52309 0
M  V30 18909 C 1779.38 1.60965 1.30787 0
M  V30 18910 C 1779.8 0.272663 1.86113 0
M  V30 18911 O 1779.16 -0.756662 1.64755 0
M  V30 18912 C 1779.21 2.66455 2.42969 0
M  V30 18913 O 1778.31 2.24094 3.46202 0
M  V30 18914 H 1777.66 0.539516 0.387064 0
M  V30 18915 H 1780.19 1.94702 0.628683 0
M  V30 18916 H 1780.2 2.87942 2.89056 0
M  V30 18917 H 1778.87 3.63516 2.02062 0
M  V30 18918 H 1777.45 2.12848 3.06186 0
M  V30 18919 N 1779.63 -0.772489 1.37369 0
M  V30 18920 C 1780.58 -1.90713 1.33158 0
M  V30 18921 C 1781.57 -1.67959 0.220482 0
M  V30 18922 O 1782.78 -1.75758 0.388465 0
M  V30 18923 H 1779.16 -0.627149 0.414956 0
M  V30 18924 H 1781.13 -1.91382 2.28944 0
M  V30 18925 C 1779.88 -3.27966 1.1547 0
M  V30 18926 H 1779.2 -3.46052 2.00221 0
M  V30 18927 H 1780.64 -4.0766 1.16574 0
M  V30 18928 C 1779.1 -3.3661 -0.139688 0
M  V30 18929 O 1779.63 -3.85668 -1.12353 0
M  V30 18930 N 1777.83 -2.89977 -0.190134 0
M  V30 18931 H 1777.38 -2.50246 0.611134 0
M  V30 18932 H 1777.34 -2.96142 -1.05582 0
M  V30 18933 N 1781.11 -1.21927 -0.998575 0
M  V30 18934 C 1782.04 -1.00845 -2.106 0
M  V30 18935 C 1783.02 0.068733 -1.69961 0
M  V30 18936 O 1784.21 -0.0923686 -1.9398 0
M  V30 18937 C 1781.34 -0.57929 -3.42435 0
M  V30 18938 C 1780.29 -1.60177 -3.96897 0
M  V30 18939 C 1779.62 -1.02863 -5.24713 0
M  V30 18940 C 1780.92 -2.9903 -4.28227 0
M  V30 18941 H 1782.61 -1.93469 -2.28495 0
M  V30 18942 H 1780.16 -0.931612 -1.09804 0
M  V30 18943 H 1782.11 -0.418944 -4.19312 0
M  V30 18944 H 1780.83 0.382608 -3.24351 0
M  V30 18945 H 1779.49 -1.74979 -3.22146 0
M  V30 18946 H 1779.14 -0.058254 -5.02966 0
M  V30 18947 H 1778.84 -1.71166 -5.62117 0
M  V30 18948 H 1780.36 -0.879743 -6.04229 0
M  V30 18949 H 1781.78 -2.87634 -4.95923 0
M  V30 18950 H 1780.18 -3.64404 -4.76791 0
M  V30 18951 H 1781.25 -3.4939 -3.36236 0
M  V30 18952 N 1782.59 1.19452 -1.02805 0
M  V30 18953 C 1783.54 2.24684 -0.60165 0
M  V30 18954 C 1784.53 1.65414 0.365319 0
M  V30 18955 O 1785.74 1.78473 0.233988 0
M  V30 18956 H 1782.11 0.731043 -0.176296 0
M  V30 18957 H 1784.08 2.57967 -1.49985 0
M  V30 18958 C 1782.83 3.47685 0.0325515 0
M  V30 18959 H 1782.15 3.93579 -0.702532 0
M  V30 18960 H 1783.59 4.2298 0.29386 0
M  V30 18961 C 1782.05 3.11684 1.27887 0
M  V30 18962 O 1782.58 3.24262 2.37101 0
M  V30 18963 N 1780.79 2.66124 1.16731 0
M  V30 18964 H 1780.34 2.56089 0.278595 0
M  V30 18965 H 1780.29 2.42407 2.00215 0
M  V30 18966 N 1784.07 0.805805 1.35442 0
M  V30 18967 C 1785.02 0.188328 2.27221 0
M  V30 18968 C 1786 -0.637384 1.47737 0
M  V30 18969 O 1787.19 -0.49477 1.69944 0
M  V30 18970 C 1784.32 -0.662862 3.3684 0
M  V30 18971 C 1783.41 0.172537 4.23749 0
M  V30 18972 N 1783.8 1.23516 4.90487 0
M  V30 18973 C 1782.1 -0.0459629 4.45976 0
M  V30 18974 C 1782.8 1.74511 5.54906 0
M  V30 18975 N 1781.77 1.05168 5.3333 0
M  V30 18976 H 1785.58 1.00141 2.76313 0
M  V30 18977 H 1783.09 0.646886 1.4896 0
M  V30 18978 H 1785.09 -1.12126 4.01539 0
M  V30 18979 H 1783.75 -1.4743 2.893 0
M  V30 18980 H 1784.76 1.6178 4.91983 0
M  V30 18981 H 1781.43 -0.826604 4.09235 0
M  V30 18982 H 1782.82 2.63317 6.18154 0
M  V30 18983 N 1785.54 -1.47344 0.559239 0
M  V30 18984 C 1786.77 -2.0656 0.040802 0
M  V30 18985 C 1787.18 -1.41208 -1.25925 0
M  V30 18986 O 1786.53 -0.503333 -1.7667 0
M  V30 18987 C 1786.59 -3.58804 -0.223642 0
M  V30 18988 C 1786.25 -4.46208 0.987275 0
M  V30 18989 C 1787.25 -4.84198 1.89336 0
M  V30 18990 C 1784.93 -4.87693 1.20252 0
M  V30 18991 C 1786.93 -5.62474 2.99837 0
M  V30 18992 C 1784.61 -5.65733 2.31061 0
M  V30 18993 C 1785.61 -6.03034 3.20684 0
M  V30 18994 O 1785.3 -6.79502 4.29572 0
M  V30 18995 H 1785.03 -0.674583 0.0437408 0
M  V30 18996 H 1787.59 -1.90306 0.772827 0
M  V30 18997 H 1785.82 -3.73277 -1.01 0
M  V30 18998 H 1787.51 -4.00032 -0.687709 0
M  V30 18999 H 1788.27 -4.52746 1.73913 0
M  V30 19000 H 1784.15 -4.58124 0.514098 0
M  V30 19001 H 1787.69 -5.91508 3.69817 0
M  V30 19002 H 1783.59 -5.96598 2.46456 0
M  V30 19003 H 1784.36 -6.97898 4.27645 0
M  V30 19004 N 1787.02 -0.295795 -1.54799 0
M  V30 19005 C 1788.27 0.314384 -1.9964 0
M  V30 19006 C 1788.59 1.5481 -1.1857 0
M  V30 19007 O 1787.86 1.93884 -0.280353 0
M  V30 19008 H 1786.44 0.119153 -0.737436 0
M  V30 19009 H 1789.1 -0.40592 -1.90626 0
M  V30 19010 H 1788.2 0.59002 -3.06472 0
M  V30 19011 N 1788.5 1.57583 -0.0234236 0
M  V30 19012 C 1789.43 2.05369 0.994927 0
M  V30 19013 C 1790.41 0.948279 1.32085 0
M  V30 19014 O 1791.6 1.21818 1.43849 0
M  V30 19015 C 1788.72 2.47098 2.31647 0
M  V30 19016 C 1787.77 3.68603 2.14555 0
M  V30 19017 S 1788.6 5.15504 1.44968 0
M  V30 19018 C 1789.76 5.60523 2.78504 0
M  V30 19019 H 1789.99 2.91425 0.588129 0
M  V30 19020 H 1787.52 1.5325 0.188111 0
M  V30 19021 H 1789.48 2.71805 3.07624 0
M  V30 19022 H 1788.14 1.61398 2.69461 0
M  V30 19023 H 1787.34 3.95629 3.1224 0
M  V30 19024 H 1786.94 3.44018 1.46722 0
M  V30 19025 H 1789.23 5.64414 3.74757 0
M  V30 19026 H 1790.17 6.60146 2.5615 0
M  V30 19027 H 1790.58 4.88153 2.8349 0
M  V30 19028 N 1789.98 -0.249655 1.5561 0
M  V30 19029 C 1791.21 -0.995707 1.81365 0
M  V30 19030 C 1791.62 -1.79054 0.598767 0
M  V30 19031 O 1790.98 -1.773 -0.432538 0
M  V30 19032 C 1791.03 -1.93577 3.05303 0
M  V30 19033 O 1790.75 -1.17311 4.22102 0
M  V30 19034 C 1792.25 -2.79804 3.43838 0
M  V30 19035 H 1789.47 -0.293118 0.603591 0
M  V30 19036 H 1792.02 -0.273374 2.02665 0
M  V30 19037 H 1790.17 -2.61242 2.86062 0
M  V30 19038 H 1790.59 -1.80875 4.92326 0
M  V30 19039 H 1792.06 -3.4152 4.33668 0
M  V30 19040 H 1792.54 -3.50776 2.64298 0
M  V30 19041 H 1793.14 -2.17596 3.6542 0
M  V30 19042 N 1791.46 -1.48941 -0.515198 0
M  V30 19043 C 1792.41 -1.60958 -1.61482 0
M  V30 19044 C 1793.39 -0.46591 -1.54007 0
M  V30 19045 O 1794.58 -0.718134 -1.61777 0
M  V30 19046 C 1791.71 -1.66623 -3.00153 0
M  V30 19047 C 1790.8 -2.8652 -3.12677 0
M  V30 19048 N 1791.19 -4.10769 -2.95131 0
M  V30 19049 C 1789.49 -2.84161 -3.43756 0
M  V30 19050 C 1790.19 -4.9129 -3.11463 0
M  V30 19051 N 1789.16 -4.24384 -3.39704 0
M  V30 19052 H 1792.97 -2.54756 -1.46549 0
M  V30 19053 H 1790.48 -1.45517 -0.721007 0
M  V30 19054 H 1792.48 -1.73328 -3.79161 0
M  V30 19055 H 1791.14 -0.739523 -3.16166 0
M  V30 19056 H 1792.15 -4.40974 -2.71593 0
M  V30 19057 H 1788.83 -2.00809 -3.66035 0
M  V30 19058 H 1790.22 -5.99948 -3.0251 0
M  V30 19059 N 1792.94 0.765193 -1.37777 0
M  V30 19060 C 1794.18 1.52623 -1.33545 0
M  V30 19061 C 1794.51 1.94043 0.077992 0
M  V30 19062 O 1793.79 1.64566 1.03673 0
M  V30 19063 C 1794.07 2.78679 -2.28057 0
M  V30 19064 C 1793.93 2.43471 -3.78209 0
M  V30 19065 C 1795.24 3.80646 -2.20899 0
M  V30 19066 H 1792.36 0.553678 -0.486425 0
M  V30 19067 H 1795.01 0.877326 -1.68532 0
M  V30 19068 H 1793.16 3.3405 -1.9835 0
M  V30 19069 H 1794.83 1.93965 -4.1854 0
M  V30 19070 H 1793.07 1.76081 -3.96457 0
M  V30 19071 H 1793.74 3.33609 -4.39783 0
M  V30 19072 H 1796.22 3.34786 -2.47099 0
M  V30 19073 H 1795.09 4.6656 -2.89159 0
M  V30 19074 H 1795.35 4.25389 -1.20403 0
M  V30 19075 N 1794.41 1.22455 0.992094 0
M  V30 19076 C 1795.38 0.996703 2.06394 0
M  V30 19077 C 1796.38 -0.0371659 1.60757 0
M  V30 19078 O 1797.57 0.20142 1.73032 0
M  V30 19079 C 1794.7 0.505675 3.37129 0
M  V30 19080 H 1795.89 1.94776 2.28041 0
M  V30 19081 H 1793.44 1.04335 1.16378 0
M  V30 19082 H 1794.18 -0.449697 3.21167 0
M  V30 19083 H 1793.96 1.25158 3.71588 0
M  V30 19084 H 1795.45 0.366535 4.15988 0
M  V30 19085 N 1795.89 -1.18905 1.03437 0
M  V30 19086 C 1797.12 -1.93219 0.753743 0
M  V30 19087 C 1797.54 -1.75299 -0.682055 0
M  V30 19088 O 1796.9 -1.05892 -1.47161 0
M  V30 19089 C 1796.95 -3.42864 1.117 0
M  V30 19090 O 1796.05 -4.11708 0.238816 0
M  V30 19091 H 1795.39 -0.603015 0.277973 0
M  V30 19092 H 1797.92 -1.50823 1.38252 0
M  V30 19093 H 1797.93 -3.9355 1.07623 0
M  V30 19094 H 1796.61 -3.55228 2.163 0
M  V30 19095 H 1795.18 -3.71359 0.338652 0
M  V30 19096 N 1797.37 -0.812977 -1.35013 0
M  V30 19097 C 1798.62 -0.396932 -1.98878 0
M  V30 19098 C 1798.95 1.03486 -1.6433 0
M  V30 19099 O 1798.22 1.71906 -0.90986 0
M  V30 19100 C 1798.51 -0.587911 -3.55268 0
M  V30 19101 C 1798.36 -2.06509 -3.99592 0
M  V30 19102 C 1799.68 -0.017593 -4.40096 0
M  V30 19103 H 1796.8 -0.145695 -0.722455 0
M  V30 19104 H 1799.44 -1.0237 -1.60064 0
M  V30 19105 H 1797.59 -0.0543785 -3.88462 0
M  V30 19106 H 1799.26 -2.6615 -3.76778 0
M  V30 19107 H 1797.5 -2.55921 -3.50267 0
M  V30 19108 H 1798.18 -2.14958 -5.08426 0
M  V30 19109 H 1800.65 -0.473317 -4.13399 0
M  V30 19110 H 1799.53 -0.18109 -5.48601 0
M  V30 19111 H 1799.79 1.07664 -4.2879 0
M  V30 19112 N 1798.85 1.47045 -0.567045 0
M  V30 19113 C 1800.07 2.0734 -0.0498828 0
M  V30 19114 C 1800.5 1.41545 1.23881 0
M  V30 19115 O 1799.86 0.493798 1.74446 0
M  V30 19116 C 1799.9 3.60404 0.118782 0
M  V30 19117 O 1799.01 3.95186 1.17905 0
M  V30 19118 H 1798.35 0.661656 -0.055746 0
M  V30 19119 H 1800.88 1.8892 -0.78553 0
M  V30 19120 H 1800.89 4.06664 0.3299 0
M  V30 19121 H 1799.56 4.07688 -0.822409 0
M  V30 19122 H 1798.14 3.60658 0.947644 0
M  V30 19123 N 1800.33 0.304 1.5464 0
M  V30 19124 C 1801.6 -0.357665 1.92302 0
M  V30 19125 C 1801.98 -1.71453 1.23155 0
M  V30 19126 O 1801.33 -2.25512 0.368342 0
M  V30 19127 C 1801.54 -0.469339 3.4583 0
M  V30 19128 C 1802.89 -0.738803 4.18123 0
M  V30 19129 O 1803.91 -0.553033 3.51881 0
M  V30 19130 O 1802.77 -1.09585 5.354 0
M  V30 19131 H 1799.87 -0.200506 0.802326 0
M  V30 19132 H 1802.41 0.352279 1.66003 0
M  V30 19133 H 1801.18 0.484397 3.8829 0
M  V30 19134 H 1800.81 -1.22763 3.78173 0
M  V30 19135 N 1801.8 -1.57568 0.0317802 0
M  V30 19136 C 1803.05 -1.92194 -0.647238 0
M  V30 19137 C 1803.38 -0.908747 -1.71626 0
M  V30 19138 O 1802.66 0.0681334 -1.94381 0
M  V30 19139 C 1802.94 -3.3729 -1.26124 0
M  V30 19140 C 1802.79 -4.49348 -0.201594 0
M  V30 19141 C 1804.11 -3.824 -2.17849 0
M  V30 19142 H 1801.23 -0.698927 -0.233817 0
M  V30 19143 H 1803.87 -1.89789 0.0895831 0
M  V30 19144 H 1802.02 -3.39471 -1.88922 0
M  V30 19145 H 1803.7 -4.59299 0.429155 0
M  V30 19146 H 1801.94 -4.31218 0.472624 0
M  V30 19147 H 1802.61 -5.47908 -0.670859 0
M  V30 19148 H 1805.09 -3.81972 -1.65034 0
M  V30 19149 H 1803.96 -4.84614 -2.57761 0
M  V30 19150 H 1804.22 -3.18054 -3.07073 0
M  V30 19151 N 1803.28 0.241399 -1.5574 0
M  V30 19152 C 1804.21 1.30255 -1.93793 0
M  V30 19153 C 1805.19 1.49923 -0.803563 0
M  V30 19154 O 1806.38 1.62439 -1.06429 0
M  V30 19155 C 1803.51 2.65625 -2.23742 0
M  V30 19156 C 1802.46 2.60645 -3.39483 0
M  V30 19157 C 1801.79 3.99861 -3.54986 0
M  V30 19158 C 1803.09 2.17151 -4.75019 0
M  V30 19159 H 1804.78 0.986532 -2.8268 0
M  V30 19160 H 1802.33 0.473125 -1.36006 0
M  V30 19161 H 1804.28 3.40001 -2.48953 0
M  V30 19162 H 1803.01 2.98874 -1.31688 0
M  V30 19163 H 1801.66 1.88727 -3.14289 0
M  V30 19164 H 1801.31 4.30385 -2.60342 0
M  V30 19165 H 1801.01 3.97415 -4.32822 0
M  V30 19166 H 1802.54 4.75928 -3.82524 0
M  V30 19167 H 1803.95 2.8126 -4.99565 0
M  V30 19168 H 1802.35 2.25805 -5.55996 0
M  V30 19169 H 1803.42 1.12329 -4.7171 0
M  V30 19170 N 1804.76 1.49212 0.507292 0
M  V30 19171 C 1805.69 1.68326 1.61829 0
M  V30 19172 C 1806.67 0.531969 1.61568 0
M  V30 19173 O 1807.86 0.767104 1.78407 0
M  V30 19174 C 1804.99 1.74394 3.0034 0
M  V30 19175 C 1803.94 2.89251 3.15465 0
M  V30 19176 C 1803.27 2.80426 4.55264 0
M  V30 19177 C 1804.57 4.30269 2.96085 0
M  V30 19178 H 1806.26 2.6134 1.46087 0
M  V30 19179 H 1803.81 1.25765 0.701367 0
M  V30 19180 H 1805.76 1.86353 3.77956 0
M  V30 19181 H 1804.48 0.779748 3.17155 0
M  V30 19182 H 1803.14 2.76884 2.40272 0
M  V30 19183 H 1802.79 1.81928 4.68947 0
M  V30 19184 H 1802.49 3.57511 4.66326 0
M  V30 19185 H 1804.01 2.94384 5.34949 0
M  V30 19186 H 1805.43 4.4335 3.63475 0
M  V30 19187 H 1803.83 5.08527 3.18623 0
M  V30 19188 H 1804.9 4.45151 1.92272 0
M  V30 19189 N 1806.24 -0.757876 1.38181 0
M  V30 19190 C 1807.52 -1.50715 1.24677 0
M  V30 19191 C 1807.9 -2.1054 -0.153689 0
M  V30 19192 O 1807.24 -1.96703 -1.16276 0
M  V30 19193 C 1807.45 -2.57695 2.3536 0
M  V30 19194 C 1808.8 -3.24716 2.73578 0
M  V30 19195 O 1809.83 -2.67997 2.3464 0
M  V30 19196 O 1808.68 -4.27294 3.40709 0
M  V30 19197 H 1805.78 -0.668175 0.487311 0
M  V30 19198 H 1808.32 -0.793653 1.49997 0
M  V30 19199 H 1807.1 -2.11706 3.29084 0
M  V30 19200 H 1806.72 -3.36629 2.11581 0
M  V30 19201 N 1807.72 -1.22979 -0.985586 0
M  V30 19202 C 1808.66 -1.00374 -2.09828 0
M  V30 19203 C 1809.66 0.0555734 -1.69309 0
M  V30 19204 O 1810.86 -0.0974909 -1.79736 0
M  V30 19205 H 1807.24 -0.307451 -0.686278 0
M  V30 19206 H 1809.21 -1.94776 -2.26064 0
M  V30 19207 C 1807.96 -0.606018 -3.42378 0
M  V30 19208 H 1807.28 -1.41284 -3.74004 0
M  V30 19209 H 1808.72 -0.487318 -4.2119 0
M  V30 19210 C 1807.18 0.685197 -3.29859 0
M  V30 19211 O 1807.71 1.73572 -3.62265 0
M  V30 19212 N 1805.92 0.65914 -2.83026 0
M  V30 19213 H 1805.46 -0.196071 -2.56853 0
M  V30 19214 H 1805.42 1.52332 -2.75031 0
M  V30 19215 N 1809.19 1.18355 -1.04066 0
M  V30 19216 C 1810.42 1.92816 -0.763979 0
M  V30 19217 C 1810.84 1.75658 0.672749 0
M  V30 19218 O 1810.2 1.06671 1.46598 0
M  V30 19219 C 1810.25 3.42267 -1.13516 0
M  V30 19220 O 1809.35 4.11576 -0.260646 0
M  V30 19221 H 1808.7 0.601532 -0.281167 0
M  V30 19222 H 1811.23 1.50087 -1.3905 0
M  V30 19223 H 1811.24 3.92973 -1.09709 0
M  V30 19224 H 1809.91 3.54076 -2.18181 0
M  V30 19225 H 1808.49 3.71174 -0.358342 0
M  V30 19226 N 1810.67 0.820125 1.3458 0
M  V30 19227 C 1811.92 0.406871 1.9837 0
M  V30 19228 C 1812.25 -1.02936 1.65028 0
M  V30 19229 O 1811.5 -1.73122 0.912538 0
M  V30 19230 C 1811.8 0.552817 3.53099 0
M  V30 19231 C 1811.47 1.95436 4.06344 0
M  V30 19232 C 1810.13 2.33776 4.20597 0
M  V30 19233 C 1812.48 2.87068 4.35019 0
M  V30 19234 C 1809.81 3.6309 4.6085 0
M  V30 19235 C 1812.16 4.15841 4.76716 0
M  V30 19236 C 1810.83 4.54163 4.89175 0
M  V30 19237 H 1810.1 0.148884 0.725889 0
M  V30 19238 H 1812.74 1.04353 1.6057 0
M  V30 19239 H 1811.05 -0.167245 3.91443 0
M  V30 19240 H 1812.74 0.213635 4.00431 0
M  V30 19241 H 1809.33 1.64652 3.95712 0
M  V30 19242 H 1813.52 2.5869 4.23548 0
M  V30 19243 H 1808.77 3.92611 4.68686 0
M  V30 19244 H 1812.95 4.86934 4.97863 0
M  V30 19245 H 1810.58 5.54415 5.20123 0
M  V30 19246 N 1812.15 -1.46743 0.574835 0
M  V30 19247 C 1813.38 -2.06805 0.0627992 0
M  V30 19248 C 1813.79 -1.42482 -1.23872 0
M  V30 19249 O 1813.15 -0.527375 -1.74714 0
M  V30 19250 C 1813.2 -3.61307 -0.117983 0
M  V30 19251 O 1812.92 -4.23222 1.13201 0
M  V30 19252 C 1814.42 -4.3828 -0.665277 0
M  V30 19253 H 1811.64 -0.668835 0.0538616 0
M  V30 19254 H 1814.19 -1.88488 0.793265 0
M  V30 19255 H 1812.34 -3.79078 -0.798641 0
M  V30 19256 H 1812.76 -5.15992 0.940853 0
M  V30 19257 H 1814.23 -5.47004 -0.740985 0
M  V30 19258 H 1814.71 -4.05777 -1.68052 0
M  V30 19259 H 1815.31 -4.25295 -0.0197462 0
M  V30 19260 N 1813.63 -0.312197 -1.54477 0
M  V30 19261 C 1815.04 0.178189 -1.85848 0
M  V30 19262 C 1815.39 1.52534 -1.23401 0
M  V30 19263 O 1814.52 2.09661 -0.535822 0
M  V30 19264 C 1815.11 0.330099 -3.37188 0
M  V30 19265 C 1813.67 0.764703 -3.6855 0
M  V30 19266 C 1812.82 -0.120348 -2.77039 0
M  V30 19267 H 1815.77 -0.532853 -1.49487 0
M  V30 19268 H 1815.79 1.16287 -3.62295 0
M  V30 19269 H 1815.3 -0.650527 -3.82609 0
M  V30 19270 H 1813.4 1.75548 -3.28654 0
M  V30 19271 H 1813.51 0.576331 -4.75621 0
M  V30 19272 H 1811.88 0.402229 -2.51504 0
M  V30 19273 H 1812.66 -1.09753 -3.25283 0
M  V30 19274 N 1815.11 1.57549 -0.040136 0
M  V30 19275 C 1816.52 1.79959 0.497142 0
M  V30 19276 C 1816.87 0.951403 1.71589 0
M  V30 19277 O 1815.99 0.16488 2.15771 0
M  V30 19278 C 1816.59 3.26387 0.908682 0
M  V30 19279 C 1815.15 3.49754 1.39101 0
M  V30 19280 C 1814.29 2.74941 0.360933 0
M  V30 19281 H 1817.25 1.56453 -0.266099 0
M  V30 19282 H 1817.27 3.36702 1.77234 0
M  V30 19283 H 1816.78 3.88094 0.0214628 0
M  V30 19284 H 1814.88 2.93313 2.29778 0
M  V30 19285 H 1814.99 4.58469 1.39078 0
M  V30 19286 H 1813.36 2.40747 0.831432 0
M  V30 19287 H 1814.14 3.39369 -0.51801 0
M  V30 19288 N 1816.58 -0.233136 1.55866 0
M  V30 19289 C 1817.82 -0.966418 1.8011 0
M  V30 19290 C 1818.19 -1.8199 0.61184 0
M  V30 19291 O 1819.39 -2.58603 0.733339 0
M  V30 19292 C 1817.66 -1.7928 3.09182 0
M  V30 19293 S 1819.22 -2.5833 3.54698 0
M  V30 19294 H 1816.04 -0.324835 0.632458 0
M  V30 19295 H 1818.64 -0.233016 1.94106 0
M  V30 19296 H 1817.34 -1.15574 3.9379 0
M  V30 19297 H 1816.87 -2.56871 2.97961 0
M  V30 19298 H 1818.89 -3.81641 3.17119 0
M  V30 19299 N 1818.06 -1.49479 -0.499372 0
M  V30 19300 C 1819 -1.6239 -1.61748 0
M  V30 19301 C 1820.01 -0.506515 -1.5472 0
M  V30 19302 O 1821.2 -0.778629 -1.60623 0
M  V30 19303 C 1818.3 -1.56611 -3.00543 0
M  V30 19304 C 1817.47 -2.83909 -3.32738 0
M  V30 19305 C 1816.53 -2.7116 -4.50953 0
M  V30 19306 O 1815.56 -3.45097 -4.52656 0
M  V30 19307 N 1816.76 -1.82815 -5.50962 0
M  V30 19308 H 1819.52 -2.58823 -1.51099 0
M  V30 19309 H 1817.08 -1.46588 -0.687277 0
M  V30 19310 H 1819.08 -1.45734 -3.7755 0
M  V30 19311 H 1817.65 -0.68029 -3.05108 0
M  V30 19312 H 1816.87 -3.09125 -2.44613 0
M  V30 19313 H 1818.15 -3.68299 -3.51046 0
M  V30 19314 H 1817.55 -1.22005 -5.52387 0
M  V30 19315 H 1816.11 -1.77859 -6.27064 0
M  V30 19316 N 1819.54 0.750537 -1.38581 0
M  V30 19317 C 1820.96 1.05401 -1.19845 0
M  V30 19318 C 1821.16 2.0144 -0.0492317 0
M  V30 19319 O 1820.21 2.45169 0.604037 0
M  V30 19320 C 1821.53 1.63117 -2.52613 0
M  V30 19321 C 1823.07 1.75274 -2.59322 0
M  V30 19322 C 1823.55 2.36401 -3.92273 0
M  V30 19323 N 1825.04 2.43829 -3.9383 0
M  V30 19324 C 1825.78 2.92028 -4.93465 0
M  V30 19325 N 1825.27 3.4024 -6.03497 0
M  V30 19326 N 1827.06 2.91096 -4.80853 0
M  V30 19327 H 1819.22 0.113286 -2.12098 0
M  V30 19328 H 1821.48 0.112886 -0.941255 0
M  V30 19329 H 1821.18 1.00017 -3.37179 0
M  V30 19330 H 1821.06 2.62138 -2.71226 0
M  V30 19331 H 1823.45 2.375 -1.7515 0
M  V30 19332 H 1823.53 0.74949 -2.44574 0
M  V30 19333 H 1823.17 1.74807 -4.7687 0
M  V30 19334 H 1823.1 3.37373 -4.04335 0
M  V30 19335 H 1825.59 2.09734 -3.14357 0
M  V30 19336 H 1825.9 3.75482 -6.7545 0
M  V30 19337 H 1824.25 3.38289 -6.07113 0
M  V30 19338 H 1827.44 2.52744 -3.94003 0
M  V30 19339 H 1827.61 3.28346 -5.58653 0
M  V30 19340 N 1821.02 1.235 0.979051 0
M  V30 19341 C 1821.95 0.960606 2.06997 0
M  V30 19342 C 1822.93 -0.101573 1.62282 0
M  V30 19343 O 1824.11 0.0329696 1.88471 0
M  V30 19344 C 1821.24 0.447437 3.35732 0
M  V30 19345 C 1820.29 1.49643 3.99386 0
M  V30 19346 S 1821.12 3.07425 4.38464 0
M  V30 19347 C 1822.28 2.57782 5.7035 0
M  V30 19348 H 1822.51 1.88437 2.29954 0
M  V30 19349 H 1820.04 1.0676 1.11543 0
M  V30 19350 H 1822 0.157968 4.10196 0
M  V30 19351 H 1820.66 -0.455431 3.10781 0
M  V30 19352 H 1819.85 1.08754 4.92127 0
M  V30 19353 H 1819.46 1.73531 3.31305 0
M  V30 19354 H 1821.75 1.99886 6.47342 0
M  V30 19355 H 1822.69 3.49067 6.16083 0
M  V30 19356 H 1823.1 1.9859 5.28415 0
M  V30 19357 N 1822.5 -1.17802 1.04693 0
M  V30 19358 C 1823.75 -1.87567 0.752534 0
M  V30 19359 C 1824.07 -1.81129 -0.722303 0
M  V30 19360 O 1823.34 -1.23385 -1.52161 0
M  V30 19361 H 1821.92 -0.69439 0.275376 0
M  V30 19362 H 1824.58 -1.42932 1.32501 0
M  V30 19363 H 1823.67 -2.9344 1.06299 0
M  V30 19364 N 1823.98 -0.827251 -1.34143 0
M  V30 19365 C 1825.22 -0.41656 -1.9776 0
M  V30 19366 C 1825.54 1.02488 -1.65895 0
M  V30 19367 O 1824.81 1.71219 -0.951891 0
M  V30 19368 H 1823.39 -0.151044 -0.73157 0
M  V30 19369 H 1826.06 -1.05765 -1.63706 0
M  V30 19370 H 1825.15 -0.539101 -3.07409 0
M  V30 19371 N 1825.45 1.46436 -0.582609 0
M  V30 19372 C 1826.39 2.2733 0.199056 0
M  V30 19373 C 1827.36 1.35621 0.896981 0
M  V30 19374 O 1828.55 1.65031 0.910887 0
M  V30 19375 C 1825.68 3.13352 1.28563 0
M  V30 19376 C 1824.72 4.20823 0.69355 0
M  V30 19377 S 1825.55 5.33349 -0.479488 0
M  V30 19378 C 1826.71 6.22937 0.608287 0
M  V30 19379 H 1826.94 2.93279 -0.487326 0
M  V30 19380 H 1824.48 1.49913 -0.369502 0
M  V30 19381 H 1826.43 3.63476 1.90775 0
M  V30 19382 H 1825.1 2.46716 1.94396 0
M  V30 19383 H 1824.29 4.80839 1.5103 0
M  V30 19384 H 1823.89 3.73711 0.147092 0
M  V30 19385 H 1826.18 6.60823 1.49397 0
M  V30 19386 H 1827.13 7.08086 0.0448907 0
M  V30 19387 H 1827.53 5.57078 0.912387 0
M  V30 19388 N 1826.93 0.320385 1.54309 0
M  V30 19389 C 1828.18 -0.283562 2.00808 0
M  V30 19390 C 1828.51 -1.52036 1.20826 0
M  V30 19391 O 1827.79 -1.9233 0.289721 0
M  V30 19392 C 1828.07 -0.620875 3.54707 0
M  V30 19393 C 1827.92 0.626403 4.45417 0
M  V30 19394 C 1829.24 -1.43978 4.15883 0
M  V30 19395 H 1826.36 -0.10159 0.729965 0
M  V30 19396 H 1829 0.436332 1.84922 0
M  V30 19397 H 1827.15 -1.23419 3.68375 0
M  V30 19398 H 1828.82 1.2647 4.43625 0
M  V30 19399 H 1827.07 1.2559 4.15222 0
M  V30 19400 H 1827.74 0.345969 5.50915 0
M  V30 19401 H 1830.21 -0.921381 4.05771 0
M  V30 19402 H 1829.09 -1.64456 5.23685 0
M  V30 19403 H 1829.35 -2.43494 3.69003 0
M  V30 19404 N 1828.41 -1.57525 0.0484906 0
M  V30 19405 C 1829.63 -1.97309 -0.639062 0
M  V30 19406 C 1830.06 -0.925753 -1.63742 0
M  V30 19407 O 1829.42 0.111304 -1.80958 0
M  V30 19408 C 1829.47 -3.36168 -1.30475 0
M  V30 19409 O 1828.57 -3.33903 -2.42038 0
M  V30 19410 H 1827.91 -0.642824 -0.166351 0
M  V30 19411 H 1830.44 -2.0427 0.116095 0
M  V30 19412 H 1830.45 -3.72835 -1.65705 0
M  V30 19413 H 1829.13 -4.11933 -0.573057 0
M  V30 19414 H 1827.7 -3.08978 -2.08775 0
M  V30 19415 N 1829.89 0.224867 -1.55988 0
M  V30 19416 C 1831.13 0.949747 -1.78846 0
M  V30 19417 C 1831.46 1.84465 -0.616678 0
M  V30 19418 O 1830.72 1.91587 0.399098 0
M  V30 19419 C 1831.02 1.8227 -3.07429 0
M  V30 19420 C 1830.68 1.08131 -4.37743 0
M  V30 19421 C 1829.34 0.876497 -4.7315 0
M  V30 19422 C 1831.7 0.557505 -5.1821 0
M  V30 19423 C 1829.02 0.13593 -5.86543 0
M  V30 19424 C 1831.38 -0.169702 -6.32372 0
M  V30 19425 C 1830.04 -0.385796 -6.66384 0
M  V30 19426 H 1829.31 0.347537 -0.654446 0
M  V30 19427 H 1831.96 0.218162 -1.90253 0
M  V30 19428 H 1830.26 2.62204 -2.91129 0
M  V30 19429 H 1831.96 2.38564 -3.22317 0
M  V30 19430 H 1828.55 1.25091 -4.09939 0
M  V30 19431 H 1832.73 0.703218 -4.91293 0
M  V30 19432 H 1827.99 -0.0417543 -6.11386 0
M  V30 19433 H 1832.16 -0.583104 -6.93955 0
M  V30 19434 H 1829.79 -0.961574 -7.54094 0
M  V30 19435 N 1831.37 1.49742 0.491438 0
M  V30 19436 C 1832.78 1.36717 0.823454 0
M  V30 19437 C 1832.98 0.407587 1.97335 0
M  V30 19438 O 1832.04 -0.157251 2.5201 0
M  V30 19439 C 1833.35 2.77647 1.15466 0
M  V30 19440 C 1834.9 2.86417 1.26231 0
M  V30 19441 C 1835.37 4.28136 1.62676 0
M  V30 19442 N 1836.86 4.30992 1.69707 0
M  V30 19443 C 1837.6 5.37624 1.9937 0
M  V30 19444 N 1837.1 6.54489 2.27192 0
M  V30 19445 N 1838.89 5.25048 2.00701 0
M  V30 19446 H 1831.04 2.10719 -0.266676 0
M  V30 19447 H 1833.3 0.946301 -0.0567377 0
M  V30 19448 H 1833.01 3.49608 0.382994 0
M  V30 19449 H 1832.88 3.13617 2.09582 0
M  V30 19450 H 1835.27 2.14687 2.02468 0
M  V30 19451 H 1835.35 2.54018 0.301434 0
M  V30 19452 H 1834.99 5.00396 0.869859 0
M  V30 19453 H 1834.92 4.58007 2.59879 0
M  V30 19454 H 1837.42 3.46713 1.50327 0
M  V30 19455 H 1837.73 7.31572 2.49041 0
M  V30 19456 H 1836.07 6.57699 2.24627 0
M  V30 19457 H 1839.26 4.32751 1.78449 0
M  V30 19458 H 1839.44 6.08242 2.23484 0
M  V30 19459 N 1832.84 -0.743177 1.38977 0
M  V30 19460 C 1834.07 -1.53243 1.39011 0
M  V30 19461 C 1834.49 -1.88792 -0.0174858 0
M  V30 19462 O 1833.84 -1.53523 -0.986766 0
M  V30 19463 C 1833.9 -2.8251 2.25544 0
M  V30 19464 O 1833.62 -2.48474 3.60821 0
M  V30 19465 C 1835.12 -3.76588 2.33872 0
M  V30 19466 H 1832.34 -0.473832 0.475104 0
M  V30 19467 H 1834.88 -0.918958 1.82689 0
M  V30 19468 H 1833.04 -3.4021 1.853 0
M  V30 19469 H 1833.45 -3.31454 4.06495 0
M  V30 19470 H 1834.92 -4.64211 2.98684 0
M  V30 19471 H 1835.4 -4.17761 1.35544 0
M  V30 19472 H 1836.01 -3.24811 2.74551 0
M  V30 19473 N 1834.32 -1.24018 -0.972487 0
M  V30 19474 C 1835.57 -1.07702 -1.71484 0
M  V30 19475 C 1835.9 0.384897 -1.90654 0
M  V30 19476 O 1835.15 1.30098 -1.46195 0
M  V30 19477 C 1835.45 -1.75657 -3.11255 0
M  V30 19478 C 1835.12 -3.25583 -3.1194 0
M  V30 19479 C 1833.78 -3.66487 -3.11834 0
M  V30 19480 C 1836.13 -4.2145 -3.06642 0
M  V30 19481 C 1833.46 -5.01703 -3.04157 0
M  V30 19482 C 1835.81 -5.56668 -3.00506 0
M  V30 19483 C 1834.48 -5.96924 -2.98726 0
M  V30 19484 H 1833.75 -0.394108 -0.627503 0
M  V30 19485 H 1836.39 -1.54057 -1.13748 0
M  V30 19486 H 1834.7 -1.21682 -3.72425 0
M  V30 19487 H 1836.39 -1.60502 -3.67478 0
M  V30 19488 H 1832.98 -2.93026 -3.12784 0
M  V30 19489 H 1837.17 -3.90852 -3.05856 0
M  V30 19490 H 1832.42 -5.32096 -3.01137 0
M  V30 19491 H 1836.6 -6.30661 -2.95365 0
M  V30 19492 H 1834.23 -7.01661 -2.92532 0
M  V30 19493 N 1835.8 1.17245 -1.05316 0
M  V30 19494 C 1836.71 2.24948 -0.666011 0
M  V30 19495 C 1837.73 1.71153 0.313478 0
M  V30 19496 O 1838.9 2.00721 0.165262 0
M  V30 19497 C 1835.97 3.46667 -0.0480198 0
M  V30 19498 C 1835.03 4.15542 -1.07812 0
M  V30 19499 C 1834.26 5.3145 -0.48952 0
M  V30 19500 O 1834.48 5.6608 0.700668 0
M  V30 19501 O 1833.42 5.89315 -1.22439 0
M  V30 19502 H 1837.24 2.60353 -1.56365 0
M  V30 19503 H 1834.83 1.24569 -0.8248 0
M  V30 19504 H 1836.71 4.20364 0.295366 0
M  V30 19505 H 1835.39 3.13056 0.823248 0
M  V30 19506 H 1834.29 3.43858 -1.47351 0
M  V30 19507 H 1835.63 4.53183 -1.92057 0
M  V30 19508 N 1837.28 0.834353 1.33702 0
M  V30 19509 C 1838.56 0.350003 1.92443 0
M  V30 19510 C 1838.94 -1.1641 1.76102 0
M  V30 19511 O 1838.28 -1.97646 1.14666 0
M  V30 19512 C 1838.49 0.791928 3.39896 0
M  V30 19513 C 1839.84 0.797338 4.17046 0
M  V30 19514 O 1840.87 0.735242 3.48529 0
M  V30 19515 O 1839.72 0.880963 5.39353 0
M  V30 19516 H 1836.82 0.0981048 0.82116 0
M  V30 19517 H 1839.36 0.919905 1.42604 0
M  V30 19518 H 1838.14 1.83433 3.45641 0
M  V30 19519 H 1837.76 0.198349 3.97105 0
M  V30 19520 N 1838.76 -1.46125 0.590367 0
M  V30 19521 C 1840 -2.02346 0.0788814 0
M  V30 19522 C 1840.33 -1.46093 -1.28402 0
M  V30 19523 O 1839.59 -0.618875 -1.85657 0
M  V30 19524 C 1839.89 -3.57388 -0.0287217 0
M  V30 19525 C 1839.55 -4.32716 1.26758 0
M  V30 19526 C 1838.21 -4.53014 1.62271 0
M  V30 19527 C 1840.57 -4.7591 2.12507 0
M  V30 19528 C 1837.89 -5.13759 2.83318 0
M  V30 19529 C 1840.25 -5.37992 3.32787 0
M  V30 19530 C 1838.91 -5.56516 3.68573 0
M  V30 19531 H 1838.18 -0.740438 0.0288647 0
M  V30 19532 H 1840.83 -1.75402 0.768538 0
M  V30 19533 H 1839.13 -3.83513 -0.801551 0
M  V30 19534 H 1840.83 -3.98575 -0.440356 0
M  V30 19535 H 1837.42 -4.17219 0.981133 0
M  V30 19536 H 1841.6 -4.59977 1.86373 0
M  V30 19537 H 1836.86 -5.26291 3.11172 0
M  V30 19538 H 1841.03 -5.70418 3.99495 0
M  V30 19539 H 1838.66 -6.03355 4.62458 0
M  V30 19540 N 1840.23 -0.328564 -1.54137 0
M  V30 19541 C 1841.48 0.272909 -2.00955 0
M  V30 19542 C 1841.81 1.51393 -1.2163 0
M  V30 19543 O 1841.09 1.92174 -0.299916 0
M  V30 19544 C 1841.37 0.602055 -3.55031 0
M  V30 19545 C 1841.22 -0.650016 -4.45078 0
M  V30 19546 C 1842.54 1.4177 -4.1664 0
M  V30 19547 H 1839.66 0.0977177 -0.730493 0
M  V30 19548 H 1842.3 -0.446133 -1.84688 0
M  V30 19549 H 1840.45 1.21464 -3.69024 0
M  V30 19550 H 1842.13 -1.28821 -4.42948 0
M  V30 19551 H 1840.37 -1.2779 -4.1455 0
M  V30 19552 H 1841.04 -0.375181 -5.50724 0
M  V30 19553 H 1843.52 0.899849 -4.06254 0
M  V30 19554 H 1842.39 1.61676 -5.24549 0
M  V30 19555 H 1842.65 2.41534 -3.70289 0
M  V30 19556 N 1841.71 1.57497 -0.0568439 0
M  V30 19557 C 1843.13 1.5676 0.299732 0
M  V30 19558 C 1843.33 1.065 1.71056 0
M  V30 19559 O 1842.38 0.72414 2.41893 0
M  V30 19560 C 1843.7 3.00448 0.123023 0
M  V30 19561 C 1845.25 3.124 0.193697 0
M  V30 19562 C 1845.72 4.57977 0.0454499 0
M  V30 19563 N 1847.21 4.63089 0.101543 0
M  V30 19564 C 1847.95 5.73399 0.0110306 0
M  V30 19565 N 1847.44 6.92674 -0.132152 0
M  V30 19566 N 1849.24 5.6206 0.0670216 0
M  V30 19567 H 1841.39 1.88488 -0.979078 0
M  V30 19568 H 1843.65 0.868264 -0.380554 0
M  V30 19569 H 1843.36 3.41276 -0.849919 0
M  V30 19570 H 1843.23 3.66751 0.881672 0
M  V30 19571 H 1845.62 2.71468 1.15712 0
M  V30 19572 H 1845.7 2.48765 -0.595802 0
M  V30 19573 H 1845.34 4.99596 -0.914669 0
M  V30 19574 H 1845.27 5.19626 0.854166 0
M  V30 19575 H 1847.76 3.77309 0.211226 0
M  V30 19576 H 1848.08 7.72557 -0.193769 0
M  V30 19577 H 1846.42 6.94799 -0.167314 0
M  V30 19578 H 1849.61 4.67763 0.177478 0
M  V30 19579 H 1849.78 6.48 -0.00697432 0
M  V30 19580 N 1843.19 -0.216591 1.56105 0
M  V30 19581 C 1844.44 -0.938321 1.78545 0
M  V30 19582 C 1844.75 -1.85302 0.62629 0
M  V30 19583 O 1845.96 -2.61377 0.734451 0
M  V30 19584 C 1844.41 -1.71871 3.16209 0
M  V30 19585 C 1844.02 -0.849904 4.39864 0
M  V30 19586 C 1845.77 -2.43136 3.47973 0
M  V30 19587 C 1843.67 -1.62793 5.68553 0
M  V30 19588 H 1842.6 -0.354098 0.66568 0
M  V30 19589 H 1845.25 -0.192079 1.82492 0
M  V30 19590 H 1843.64 -2.50804 3.06453 0
M  V30 19591 H 1844.81 -0.100757 4.6069 0
M  V30 19592 H 1843.13 -0.249139 4.15654 0
M  V30 19593 H 1845.72 -3.01856 4.41347 0
M  V30 19594 H 1846.07 -3.16267 2.70704 0
M  V30 19595 H 1846.6 -1.71189 3.59081 0
M  V30 19596 H 1843.34 -0.939801 6.48728 0
M  V30 19597 H 1842.86 -2.35156 5.5178 0
M  V30 19598 H 1844.54 -2.18733 6.08905 0
M  V30 19599 N 1844.67 -1.5 -0.48349 0
M  V30 19600 C 1845.92 -1.60369 -1.23645 0
M  V30 19601 C 1846.24 -0.298319 -1.92199 0
M  V30 19602 O 1845.5 0.715001 -1.82171 0
M  V30 19603 C 1845.8 -2.72475 -2.31283 0
M  V30 19604 C 1845.46 -4.13384 -1.80068 0
M  V30 19605 C 1844.13 -4.51727 -1.65821 0
M  V30 19606 C 1846.48 -5.01501 -1.41937 0
M  V30 19607 C 1843.81 -5.7594 -1.11847 0
M  V30 19608 C 1846.16 -6.2625 -0.894093 0
M  V30 19609 C 1844.82 -6.63406 -0.738151 0
M  V30 19610 H 1844.09 -0.58683 -0.452451 0
M  V30 19611 H 1846.74 -1.83893 -0.534393 0
M  V30 19612 H 1845.04 -2.42991 -3.07348 0
M  V30 19613 H 1846.74 -2.77703 -2.89278 0
M  V30 19614 H 1843.33 -3.83128 -1.92122 0
M  V30 19615 H 1847.51 -4.7252 -1.51784 0
M  V30 19616 H 1842.77 -6.03413 -0.985001 0
M  V30 19617 H 1846.94 -6.93897 -0.589916 0
M  V30 19618 H 1844.57 -7.59536 -0.317755 0
M  V30 19619 N 1846.15 0.735796 -1.39369 0
M  V30 19620 C 1847.42 1.48712 -1.27059 0
M  V30 19621 C 1847.8 2.10758 0.120174 0
M  V30 19622 O 1847.15 1.98528 1.13132 0
M  V30 19623 C 1847.36 2.53918 -2.3943 0
M  V30 19624 C 1848.71 3.20322 -2.78709 0
M  V30 19625 O 1849.73 2.6423 -2.38874 0
M  V30 19626 O 1848.59 4.21819 -3.47463 0
M  V30 19627 H 1845.69 0.660337 -0.497879 0
M  V30 19628 H 1848.23 0.76969 -1.51241 0
M  V30 19629 H 1847 2.06444 -3.3241 0
M  V30 19630 H 1846.63 3.33221 -2.16909 0
M  V30 19631 N 1847.63 1.24532 0.965897 0
M  V30 19632 C 1848.54 1.0564 2.09469 0
M  V30 19633 C 1849.55 -0.00330962 1.74 0
M  V30 19634 O 1850.73 0.195248 2.00451 0
M  V30 19635 C 1847.79 0.665318 3.40256 0
M  V30 19636 C 1846.85 1.80171 3.89663 0
M  V30 19637 C 1846.09 1.42919 5.14208 0
M  V30 19638 O 1846.31 0.319815 5.69503 0
M  V30 19639 O 1845.24 2.25546 5.58044 0
M  V30 19640 H 1849.07 2.00277 2.28304 0
M  V30 19641 H 1846.65 1.03368 1.07868 0
M  V30 19642 H 1848.54 0.458827 4.18895 0
M  V30 19643 H 1847.21 -0.251914 3.22718 0
M  V30 19644 H 1846.12 2.06296 3.12078 0
M  V30 19645 H 1847.45 2.69778 4.11681 0
M  V30 19646 N 1849.1 -1.16685 1.05936 0
M  V30 19647 C 1850.35 -1.87405 0.775061 0
M  V30 19648 C 1850.68 -1.81279 -0.696543 0
M  V30 19649 O 1849.96 -1.22595 -1.50999 0
M  V30 19650 C 1850.24 -3.37124 1.26569 0
M  V30 19651 C 1850.09 -3.5196 2.80078 0
M  V30 19652 C 1851.41 -4.31401 0.870695 0
M  V30 19653 H 1848.53 -0.680488 0.283028 0
M  V30 19654 H 1851.17 -1.37174 1.31466 0
M  V30 19655 H 1849.32 -3.80033 0.806653 0
M  V30 19656 H 1851 -3.18014 3.34163 0
M  V30 19657 H 1849.24 -2.9399 3.18986 0
M  V30 19658 H 1849.91 -4.5709 3.09471 0
M  V30 19659 H 1852.39 -3.96373 1.266 0
M  V30 19660 H 1851.26 -5.34676 1.2415 0
M  V30 19661 H 1851.52 -4.41529 -0.224692 0
M  V30 19662 N 1850.58 -0.841432 -1.33258 0
M  V30 19663 C 1851.51 -0.221485 -2.27123 0
M  V30 19664 C 1852.49 0.632879 -1.49778 0
M  V30 19665 O 1853.68 0.592581 -1.78943 0
M  V30 19666 C 1850.8 0.688784 -3.31622 0
M  V30 19667 C 1849.85 -0.0904563 -4.26404 0
M  V30 19668 S 1850.68 -1.45006 -5.15493 0
M  V30 19669 C 1851.84 -0.545159 -6.23521 0
M  V30 19670 H 1852.07 -1.01723 -2.79356 0
M  V30 19671 H 1849.6 -0.638326 -1.40587 0
M  V30 19672 H 1851.56 1.20836 -3.92312 0
M  V30 19673 H 1850.22 1.45821 -2.78199 0
M  V30 19674 H 1849.42 0.602296 -5.00388 0
M  V30 19675 H 1849.02 -0.541181 -3.70064 0
M  V30 19676 H 1851.31 0.255962 -6.77016 0
M  V30 19677 H 1852.25 -1.25524 -6.96885 0
M  V30 19678 H 1852.66 -0.125368 -5.64361 0
M  V30 19679 N 1852.06 1.4581 -0.598108 0
M  V30 19680 C 1853.31 2.01902 -0.0894342 0
M  V30 19681 C 1853.63 1.47021 1.281 0
M  V30 19682 O 1852.9 0.6608 1.84419 0
M  V30 19683 H 1851.48 0.746394 -0.0300712 0
M  V30 19684 H 1854.14 1.78726 -0.777367 0
M  V30 19685 H 1853.24 3.12084 -0.0320424 0
M  V30 19686 N 1853.54 0.336733 1.53961 0
M  V30 19687 C 1854.78 -0.26229 2.0271 0
M  V30 19688 C 1855.14 -1.48309 1.21936 0
M  V30 19689 O 1856.34 -2.15584 1.60552 0
M  V30 19690 C 1854.61 -0.575319 3.52739 0
M  V30 19691 S 1856.17 -1.15212 4.23405 0
M  V30 19692 H 1852.99 -0.0785306 0.70665 0
M  V30 19693 H 1855.59 0.472914 1.89694 0
M  V30 19694 H 1854.3 0.32111 4.09142 0
M  V30 19695 H 1853.83 -1.34037 3.69862 0
M  V30 19696 H 1855.84 -2.43824 4.32162 0
M  V30 19697 N 1855.02 -1.57465 0.0651956 0
M  V30 19698 C 1856.26 -1.93238 -0.605428 0
M  V30 19699 C 1856.59 -0.944707 -1.70016 0
M  V30 19700 O 1855.85 0.0407499 -1.95658 0
M  V30 19701 C 1856.14 -3.35656 -1.2276 0
M  V30 19702 C 1855.81 -4.50152 -0.259667 0
M  V30 19703 C 1854.47 -4.812 0.0066384 0
M  V30 19704 C 1856.82 -5.1964 0.4029 0
M  V30 19705 C 1854.15 -5.79077 0.942709 0
M  V30 19706 C 1856.5 -6.1852 1.32725 0
M  V30 19707 C 1855.17 -6.47989 1.60209 0
M  V30 19708 H 1854.44 -0.707107 -0.221542 0
M  V30 19709 H 1857.09 -1.91026 0.134666 0
M  V30 19710 H 1855.39 -3.34301 -2.04328 0
M  V30 19711 H 1857.09 -3.60621 -1.75367 0
M  V30 19712 H 1853.68 -4.25933 -0.477412 0
M  V30 19713 H 1857.86 -4.95854 0.210267 0
M  V30 19714 H 1853.12 -6.00238 1.16296 0
M  V30 19715 H 1857.29 -6.7147 1.84664 0
M  V30 19716 H 1854.92 -7.23643 2.32904 0
M  V30 19717 N 1856.49 0.20831 -1.56217 0
M  V30 19718 C 1857.72 0.951404 -1.84291 0
M  V30 19719 C 1858.14 1.76616 -0.647168 0
M  V30 19720 O 1857.5 1.7674 0.404081 0
M  V30 19721 C 1857.55 1.83403 -3.10477 0
M  V30 19722 O 1856.65 2.93113 -2.90101 0
M  V30 19723 H 1855.99 0.268668 -0.607218 0
M  V30 19724 H 1858.52 0.217618 -2.03439 0
M  V30 19725 H 1858.53 2.24127 -3.40927 0
M  V30 19726 H 1857.21 1.23528 -3.97132 0
M  V30 19727 H 1855.79 2.5624 -2.70916 0
M  V30 19728 N 1857.97 1.50255 0.475528 0
M  V30 19729 C 1859.25 1.51537 1.23676 0
M  V30 19730 C 1859.63 0.257508 2.09524 0
M  V30 19731 O 1858.98 -0.759242 2.15517 0
M  V30 19732 C 1859.19 2.80865 2.07162 0
M  V30 19733 C 1860.53 3.31353 2.655 0
M  V30 19734 O 1861.56 2.82156 2.17408 0
M  V30 19735 O 1860.42 4.17102 3.53112 0
M  V30 19736 H 1857.51 0.607633 0.560991 0
M  V30 19737 H 1860.06 1.62541 0.487712 0
M  V30 19738 H 1858.83 3.63891 1.43871 0
M  V30 19739 H 1858.45 2.72844 2.89209 0
M  V30 19740 N 1859.45 -0.728395 1.39758 0
M  V30 19741 C 1860.67 -1.52268 1.40816 0
M  V30 19742 C 1861.1 -1.88099 0.00629167 0
M  V30 19743 O 1860.46 -1.52376 -0.982402 0
M  V30 19744 C 1860.51 -2.78262 2.29353 0
M  V30 19745 O 1859.61 -3.74453 1.72796 0
M  V30 19746 H 1858.95 -0.459582 0.47925 0
M  V30 19747 H 1861.48 -0.898132 1.83833 0
M  V30 19748 H 1861.49 -3.26927 2.44096 0
M  V30 19749 H 1860.17 -2.51515 3.31229 0
M  V30 19750 H 1858.74 -3.33248 1.67332 0
M  V30 19751 N 1860.93 -1.25042 -0.959279 0
M  V30 19752 C 1862.34 -1.08692 -1.51799 0
M  V30 19753 C 1862.69 0.338893 -1.93251 0
M  V30 19754 O 1861.81 1.22831 -1.78162 0
M  V30 19755 C 1862.41 -1.9669 -2.7586 0
M  V30 19756 C 1860.97 -1.84538 -3.28059 0
M  V30 19757 C 1860.12 -1.91119 -2.0092 0
M  V30 19758 H 1863.07 -1.38396 -0.776669 0
M  V30 19759 H 1863.09 -1.50414 -3.49508 0
M  V30 19760 H 1862.6 -3.00455 -2.45659 0
M  V30 19761 H 1860.7 -0.836383 -3.63091 0
M  V30 19762 H 1860.81 -2.69095 -3.96389 0
M  V30 19763 H 1859.18 -1.34948 -2.16012 0
M  V30 19764 H 1859.96 -2.9648 -1.73074 0
M  V30 19765 N 1862.41 1.16121 -1.06553 0
M  V30 19766 C 1863.82 1.68319 -0.807804 0
M  V30 19767 C 1864.17 1.8447 0.668234 0
M  V30 19768 O 1863.29 1.54215 1.51811 0
M  V30 19769 C 1863.89 3.05738 -1.45979 0
M  V30 19770 C 1862.45 3.55046 -1.24977 0
M  V30 19771 C 1861.59 2.30965 -1.53462 0
M  V30 19772 H 1864.55 1.00447 -1.22866 0
M  V30 19773 H 1864.57 3.70266 -0.876556 0
M  V30 19774 H 1864.08 2.93951 -2.53405 0
M  V30 19775 H 1862.18 3.72087 -0.195367 0
M  V30 19776 H 1862.29 4.36979 -1.96433 0
M  V30 19777 H 1860.66 2.36107 -0.955268 0
M  V30 19778 H 1861.44 2.21773 -2.62052 0
M  V30 19779 N 1863.88 0.848487 1.3281 0
M  V30 19780 C 1864.82 0.245947 2.27877 0
M  V30 19781 C 1865.83 -0.578811 1.52163 0
M  V30 19782 O 1867.02 -0.404308 1.73861 0
M  V30 19783 C 1864.12 -0.671584 3.32179 0
M  V30 19784 C 1863.29 0.115958 4.37246 0
M  V30 19785 C 1862.35 -0.726387 5.21162 0
M  V30 19786 O 1861.38 -0.162121 5.68969 0
M  V30 19787 N 1862.58 -2.04216 5.43393 0
M  V30 19788 H 1865.34 1.06281 2.80222 0
M  V30 19789 H 1862.9 0.707872 1.45605 0
M  V30 19790 H 1864.9 -1.2403 3.85225 0
M  V30 19791 H 1863.47 -1.38914 2.80039 0
M  V30 19792 H 1862.69 0.866084 3.84568 0
M  V30 19793 H 1863.97 0.657126 5.04539 0
M  V30 19794 H 1863.37 -2.52401 5.06271 0
M  V30 19795 H 1861.93 -2.55914 5.99459 0
M  V30 19796 N 1865.36 -1.4549 0.605832 0
M  V30 19797 C 1866.59 -2.07135 0.104838 0
M  V30 19798 C 1867.01 -1.4478 -1.20085 0
M  V30 19799 O 1866.37 -0.539875 -1.73075 0
M  V30 19800 C 1866.42 -3.60593 -0.0231858 0
M  V30 19801 O 1865.52 -3.98173 -1.07386 0
M  V30 19802 H 1864.86 -0.659945 0.0732691 0
M  V30 19803 H 1867.39 -1.8677 0.835343 0
M  V30 19804 H 1867.4 -4.07396 -0.221964 0
M  V30 19805 H 1866.08 -4.05364 0.930211 0
M  V30 19806 H 1864.66 -3.63044 -0.851689 0
M  V30 19807 N 1866.84 -0.344893 -1.5378 0
M  V30 19808 C 1868.25 0.138727 -1.86184 0
M  V30 19809 C 1868.6 1.49882 -1.26609 0
M  V30 19810 O 1867.73 2.08478 -0.580174 0
M  V30 19811 C 1868.32 0.258502 -3.37812 0
M  V30 19812 C 1866.88 0.686356 -3.70089 0
M  V30 19813 C 1866.03 -0.179085 -2.76721 0
M  V30 19814 H 1868.98 -0.564442 -1.48323 0
M  V30 19815 H 1869 1.08576 -3.6468 0
M  V30 19816 H 1868.51 -0.731538 -3.81143 0
M  V30 19817 H 1866.61 1.68537 -3.32304 0
M  V30 19818 H 1866.73 0.475315 -4.76736 0
M  V30 19819 H 1865.09 0.348791 -2.523 0
M  V30 19820 H 1865.87 -1.16628 -3.22882 0
M  V30 19821 N 1868.32 1.57428 -0.0735454 0
M  V30 19822 C 1869.55 1.97883 0.604148 0
M  V30 19823 C 1869.96 0.951968 1.63043 0
M  V30 19824 O 1869.32 -0.0611641 1.82397 0
M  V30 19825 C 1869.37 3.38414 1.27116 0
M  V30 19826 O 1869.09 4.37166 0.285951 0
M  V30 19827 C 1870.59 3.93753 2.03651 0
M  V30 19828 H 1867.81 0.650747 0.163613 0
M  V30 19829 H 1870.36 2.03975 -0.146466 0
M  V30 19830 H 1868.51 3.33403 1.97285 0
M  V30 19831 H 1868.92 5.18896 0.764698 0
M  V30 19832 H 1870.4 4.94298 2.45711 0
M  V30 19833 H 1870.88 3.30391 2.89376 0
M  V30 19834 H 1871.48 4.0217 1.38345 0
M  V30 19835 N 1869.8 -0.200022 1.56326 0
M  V30 19836 C 1871.04 -0.921174 1.80335 0
M  V30 19837 C 1871.37 -1.83461 0.645946 0
M  V30 19838 O 1870.63 -1.92198 -0.368568 0
M  V30 19839 C 1870.93 -1.77356 3.1029 0
M  V30 19840 C 1870.59 -1.01153 4.39407 0
M  V30 19841 C 1869.25 -0.801112 4.74485 0
M  V30 19842 C 1871.61 -0.474992 5.19031 0
M  V30 19843 C 1868.93 -0.0425991 5.86685 0
M  V30 19844 C 1871.29 0.270286 6.32022 0
M  V30 19845 C 1869.95 0.491763 6.65686 0
M  V30 19846 H 1869.22 -0.337082 0.659892 0
M  V30 19847 H 1871.87 -0.187867 1.90576 0
M  V30 19848 H 1870.17 -2.57539 2.95264 0
M  V30 19849 H 1871.87 -2.33406 3.26071 0
M  V30 19850 H 1868.46 -1.18553 4.11877 0
M  V30 19851 H 1872.64 -0.624969 4.92349 0
M  V30 19852 H 1867.9 0.139015 6.11242 0
M  V30 19853 H 1872.07 0.693432 6.92939 0
M  V30 19854 H 1869.7 1.08142 7.52469 0
M  V30 19855 N 1871.27 -1.50505 -0.467553 0
M  V30 19856 C 1872.69 -1.54489 -1.04833 0
M  V30 19857 C 1873.04 -0.350468 -1.93044 0
M  V30 19858 O 1872.16 0.536238 -2.09651 0
M  V30 19859 C 1872.76 -2.79967 -1.90799 0
M  V30 19860 C 1871.32 -2.86621 -2.43979 0
M  V30 19861 C 1870.46 -2.48819 -1.22412 0
M  V30 19862 H 1873.41 -1.56718 -0.250025 0
M  V30 19863 H 1873.43 -2.62022 -2.75907 0
M  V30 19864 H 1872.95 -3.66881 -1.2657 0
M  V30 19865 H 1871.05 -2.04066 -3.11749 0
M  V30 19866 H 1871.16 -3.89594 -2.78843 0
M  V30 19867 H 1869.52 -2.01335 -1.56001 0
M  V30 19868 H 1870.31 -3.38044 -0.598405 0
M  V30 19869 N 1872.75 0.720973 -1.40142 0
M  V30 19870 C 1873.66 1.86527 -1.42284 0
M  V30 19871 C 1874.68 1.71106 -0.316044 0
M  V30 19872 O 1875.85 1.93465 -0.55977 0
M  V30 19873 C 1872.92 3.2227 -1.27841 0
M  V30 19874 C 1871.98 3.49984 -2.48616 0
M  V30 19875 C 1871.21 4.7925 -2.34852 0
M  V30 19876 O 1871.44 5.53963 -1.35945 0
M  V30 19877 O 1870.37 5.07179 -3.24119 0
M  V30 19878 H 1874.2 1.87675 -2.38771 0
M  V30 19879 H 1871.78 0.870677 -1.21407 0
M  V30 19880 H 1873.66 4.03362 -1.21973 0
M  V30 19881 H 1872.34 3.21861 -0.344566 0
M  V30 19882 H 1871.25 2.68922 -2.60061 0
M  V30 19883 H 1872.58 3.55184 -3.40742 0
M  V30 19884 N 1874.23 1.25549 0.952634 0
M  V30 19885 C 1875.19 1.06186 2.03119 0
M  V30 19886 C 1876.19 0.0139966 1.60794 0
M  V30 19887 O 1877.38 0.256367 1.72303 0
M  V30 19888 C 1874.52 0.612674 3.35349 0
M  V30 19889 H 1875.71 2.01932 2.21729 0
M  V30 19890 H 1873.26 1.07984 1.13 0
M  V30 19891 H 1874 -0.347292 3.22435 0
M  V30 19892 H 1873.78 1.36917 3.67418 0
M  V30 19893 H 1875.27 0.498693 4.14612 0
M  V30 19894 N 1875.71 -1.15554 1.07168 0
M  V30 19895 C 1876.96 -1.85928 0.792151 0
M  V30 19896 C 1877.28 -1.82621 -0.68372 0
M  V30 19897 O 1876.55 -1.26585 -1.49509 0
M  V30 19898 H 1875.13 -0.688393 0.290043 0
M  V30 19899 H 1877.79 -1.40089 1.35503 0
M  V30 19900 H 1876.89 -2.91119 1.125 0
M  V30 19901 N 1877.19 -0.855519 -1.32358 0
M  V30 19902 C 1878.14 -0.27253 -2.26365 0
M  V30 19903 C 1879.12 0.582114 -1.50001 0
M  V30 19904 O 1880.31 0.431356 -1.71663 0
M  V30 19905 C 1877.44 0.53739 -3.39068 0
M  V30 19906 C 1876.53 -0.329689 -4.22817 0
M  V30 19907 N 1876.92 -1.41635 -4.85565 0
M  V30 19908 C 1875.22 -0.11959 -4.4584 0
M  V30 19909 C 1875.92 -1.94986 -5.48047 0
M  V30 19910 N 1874.89 -1.2489 -5.29059 0
M  V30 19911 H 1878.7 -1.10327 -2.72406 0
M  V30 19912 H 1876.21 -0.701726 -1.46457 0
M  V30 19913 H 1878.21 0.971464 -4.05423 0
M  V30 19914 H 1876.87 1.36591 -2.94572 0
M  V30 19915 H 1877.88 -1.79928 -4.8564 0
M  V30 19916 H 1874.56 0.674149 -4.12021 0
M  V30 19917 H 1875.95 -2.86078 -6.07955 0
M  V30 19918 N 1878.67 1.45167 -0.61354 0
M  V30 19919 C 1879.89 2.06565 -0.117608 0
M  V30 19920 C 1880.31 1.45716 1.20051 0
M  V30 19921 O 1879.67 0.573512 1.73254 0
M  V30 19922 C 1879.72 3.61493 0.0221474 0
M  V30 19923 O 1879.44 4.20072 -1.24383 0
M  V30 19924 C 1880.94 4.39889 0.548841 0
M  V30 19925 H 1878.16 0.667172 -0.0715756 0
M  V30 19926 H 1880.7 1.86318 -0.84296 0
M  V30 19927 H 1878.86 3.81063 0.697854 0
M  V30 19928 H 1879.27 5.13317 -1.07733 0
M  V30 19929 H 1880.75 5.48776 0.595696 0
M  V30 19930 H 1881.22 4.1009 1.57234 0
M  V30 19931 H 1881.83 4.25198 -0.0930203 0
M  V30 19932 N 1880.14 0.353044 1.53595 0
M  V30 19933 C 1881.37 -0.244309 2.05956 0
M  V30 19934 C 1881.79 -1.42681 1.22571 0
M  V30 19935 O 1881.15 -1.79681 0.241723 0
M  V30 19936 C 1881.2 -0.628083 3.55088 0
M  V30 19937 O 1880.3 -1.72693 3.74501 0
M  V30 19938 H 1879.64 -0.038537 0.662881 0
M  V30 19939 H 1882.17 0.510013 1.98141 0
M  V30 19940 H 1882.18 -0.902597 3.97891 0
M  V30 19941 H 1880.86 0.236643 4.15226 0
M  V30 19942 H 1879.44 -1.44895 3.43599 0
M  V30 19943 N 1881.62 -1.57387 0.0818932 0
M  V30 19944 C 1882.55 -2.16318 -0.879124 0
M  V30 19945 C 1883.53 -1.09293 -1.30342 0
M  V30 19946 O 1884.72 -1.37373 -1.37267 0
M  V30 19947 C 1881.85 -2.73293 -2.14308 0
M  V30 19948 C 1880.8 -3.85575 -1.85785 0
M  V30 19949 C 1880.13 -4.29195 -3.18897 0
M  V30 19950 C 1881.43 -5.09365 -1.15517 0
M  V30 19951 H 1883.12 -2.96873 -0.388166 0
M  V30 19952 H 1880.67 -1.42803 -0.185265 0
M  V30 19953 H 1882.62 -3.13168 -2.81964 0
M  V30 19954 H 1881.34 -1.89974 -2.65664 0
M  V30 19955 H 1880 -3.46219 -1.20532 0
M  V30 19956 H 1879.65 -3.42784 -3.68114 0
M  V30 19957 H 1879.35 -5.04889 -3.006 0
M  V30 19958 H 1880.88 -4.71694 -3.87734 0
M  V30 19959 H 1882.29 -5.46493 -1.73259 0
M  V30 19960 H 1880.69 -5.90403 -1.07444 0
M  V30 19961 H 1881.76 -4.8471 -0.135822 0
M  V30 19962 N 1883.1 0.191729 -1.56429 0
M  V30 19963 C 1884.33 0.926363 -1.84667 0
M  V30 19964 C 1884.74 1.77215 -0.662674 0
M  V30 19965 O 1884.08 1.79772 0.377839 0
M  V30 19966 C 1884.14 1.86973 -3.07053 0
M  V30 19967 C 1883.81 1.20556 -4.40812 0
M  V30 19968 C 1884.8 0.580852 -5.16645 0
M  V30 19969 C 1882.49 1.20841 -4.87548 0
M  V30 19970 C 1884.48 -0.0321402 -6.37392 0
M  V30 19971 C 1882.17 0.59158 -6.0823 0
M  V30 19972 C 1883.17 -0.0276096 -6.82994 0
M  V30 19973 O 1882.86 -0.634761 -8.0139 0
M  V30 19974 H 1882.59 0.27562 -0.61726 0
M  V30 19975 H 1885.14 0.202927 -2.04395 0
M  V30 19976 H 1883.37 2.63295 -2.83219 0
M  V30 19977 H 1885.06 2.47244 -3.21909 0
M  V30 19978 H 1885.83 0.570769 -4.8163 0
M  V30 19979 H 1881.71 1.67975 -4.29308 0
M  V30 19980 H 1885.25 -0.516048 -6.95689 0
M  V30 19981 H 1881.15 0.599177 -6.42713 0
M  V30 19982 H 1881.91 -0.531997 -8.16769 0
M  V30 19983 N 1884.58 1.50751 0.459565 0
M  V30 19984 C 1885.85 1.5284 1.22062 0
M  V30 19985 C 1886.23 0.279716 2.09239 0
M  V30 19986 O 1885.58 -0.73634 2.16311 0
M  V30 19987 C 1885.79 2.83046 2.04171 0
M  V30 19988 C 1887.14 3.34151 2.6197 0
M  V30 19989 O 1888.16 2.84446 2.14403 0
M  V30 19990 O 1887.02 4.20824 3.48668 0
M  V30 19991 H 1884.12 0.613549 0.554515 0
M  V30 19992 H 1886.66 1.63049 0.470445 0
M  V30 19993 H 1885.44 3.65397 1.40004 0
M  V30 19994 H 1885.06 2.75896 2.86299 0
M  V30 19995 N 1886.06 -0.713531 1.40522 0
M  V30 19996 C 1886.97 -1.8577 1.43272 0
M  V30 19997 C 1887.98 -1.70936 0.325113 0
M  V30 19998 O 1889.16 -1.93165 0.570022 0
M  V30 19999 C 1886.22 -3.21587 1.29548 0
M  V30 20000 C 1885.28 -3.4866 2.50469 0
M  V30 20001 C 1884.52 -4.77998 2.3739 0
M  V30 20002 O 1884.74 -5.53234 1.38881 0
M  V30 20003 O 1883.67 -5.05453 3.26804 0
M  V30 20004 H 1887.5 -1.86406 2.39763 0
M  V30 20005 H 1885.08 -0.864226 1.21867 0
M  V30 20006 H 1886.97 -4.02709 1.2411 0
M  V30 20007 H 1885.64 -3.21674 0.36163 0
M  V30 20008 H 1884.55 -2.67539 2.61483 0
M  V30 20009 H 1885.88 -3.53372 3.42621 0
M  V30 20010 N 1887.53 -1.26053 -0.945962 0
M  V30 20011 C 1888.81 -1.02072 -1.66855 0
M  V30 20012 C 1889.19 0.45036 -2.0624 0
M  V30 20013 O 1888.54 1.42966 -1.7825 0
M  V30 20014 C 1888.75 -1.96486 -2.88434 0
M  V30 20015 C 1890.1 -2.24825 -3.60193 0
M  V30 20016 O 1891.12 -1.94314 -2.98531 0
M  V30 20017 O 1889.98 -2.76749 -4.71245 0
M  V30 20018 H 1887.07 -0.387753 -0.730463 0
M  V30 20019 H 1889.62 -1.37243 -0.998117 0
M  V30 20020 H 1888.39 -2.95779 -2.56185 0
M  V30 20021 H 1888.01 -1.61765 -3.63205 0
M  V30 20022 N 1889.01 1.14984 -1.07779 0
M  V30 20023 C 1889.96 2.19864 -0.702018 0
M  V30 20024 C 1890.93 1.63206 0.308695 0
M  V30 20025 O 1892.11 1.8981 0.194157 0
M  V30 20026 C 1889.25 3.44923 -0.110634 0
M  V30 20027 C 1888.37 4.1576 -1.17335 0
M  V30 20028 C 1887.5 5.28381 -0.546508 0
M  V30 20029 C 1886.54 5.91042 -1.59171 0
M  V30 20030 N 1885.68 6.95126 -0.987129 0
M  V30 20031 H 1890.52 2.51358 -1.60073 0
M  V30 20032 H 1888.05 1.2344 -0.80006 0
M  V30 20033 H 1890.01 4.16451 0.249903 0
M  V30 20034 H 1888.64 3.13932 0.751416 0
M  V30 20035 H 1887.69 3.42685 -1.6514 0
M  V30 20036 H 1889.01 4.58436 -1.96566 0
M  V30 20037 H 1888.16 6.06552 -0.133852 0
M  V30 20038 H 1886.9 4.8691 0.277527 0
M  V30 20039 H 1885.9 5.1158 -2.01409 0
M  V30 20040 H 1887.13 6.3459 -2.4181 0
M  V30 20041 H 1885.08 6.55742 -0.184076 0
M  V30 20042 H 1884.99 7.36253 -1.71662 0
M  V30 20043 H 1886.26 7.77186 -0.60012 0
M  V30 20044 N 1890.49 0.862526 1.31902 0
M  V30 20045 C 1891.74 0.470471 1.97267 0
M  V30 20046 C 1892.07 -0.973153 1.68058 0
M  V30 20047 O 1891.34 -1.68411 0.973035 0
M  V30 20048 C 1891.63 0.719362 3.52842 0
M  V30 20049 C 1891.48 2.21198 3.91652 0
M  V30 20050 C 1892.8 0.18092 4.39728 0
M  V30 20051 H 1889.92 0.172408 0.71655 0
M  V30 20052 H 1892.56 1.0824 1.56154 0
M  V30 20053 H 1890.71 0.198516 3.87992 0
M  V30 20054 H 1892.38 2.79951 3.66641 0
M  V30 20055 H 1890.62 2.68744 3.40528 0
M  V30 20056 H 1891.3 2.33679 5.00098 0
M  V30 20057 H 1893.77 0.626421 4.11358 0
M  V30 20058 H 1892.65 0.384575 5.47551 0
M  V30 20059 H 1892.91 -0.916756 4.3249 0
M  V30 20060 N 1891.97 -1.4484 0.62123 0
M  V30 20061 C 1893.38 -1.85568 0.205284 0
M  V30 20062 C 1893.73 -1.51963 -1.24104 0
M  V30 20063 O 1892.86 -0.952887 -1.94291 0
M  V30 20064 C 1893.45 -3.3682 0.365788 0
M  V30 20065 C 1892.01 -3.764 0.00442911 0
M  V30 20066 C 1891.16 -2.68736 0.683839 0
M  V30 20067 H 1894.11 -1.35447 0.827036 0
M  V30 20068 H 1894.13 -3.78411 -0.398123 0
M  V30 20069 H 1893.64 -3.61247 1.41853 0
M  V30 20070 H 1891.74 -3.57588 -1.04696 0
M  V30 20071 H 1891.85 -4.77363 0.407588 0
M  V30 20072 H 1890.22 -2.54417 0.120114 0
M  V30 20073 H 1891 -2.95997 1.73898 0
M  V30 20074 N 1893.45 -0.361184 -1.53405 0
M  V30 20075 C 1894.86 -0.00994785 -1.59597 0
M  V30 20076 C 1895.06 1.47156 -1.37649 0
M  V30 20077 O 1894.12 2.23259 -1.17947 0
M  V30 20078 C 1895.43 -0.461942 -2.97131 0
M  V30 20079 C 1896.98 -0.415787 -3.10226 0
M  V30 20080 C 1897.45 -0.843524 -4.50165 0
M  V30 20081 N 1898.95 -0.798408 -4.56267 0
M  V30 20082 C 1899.68 -1.10112 -5.62728 0
M  V30 20083 N 1899.18 -1.47288 -6.76962 0
M  V30 20084 N 1900.97 -1.0242 -5.5269 0
M  V30 20085 H 1893.12 -1.32601 -1.65924 0
M  V30 20086 H 1895.38 -0.541705 -0.777985 0
M  V30 20087 H 1895.09 -1.49559 -3.18316 0
M  V30 20088 H 1894.96 0.15373 -3.76887 0
M  V30 20089 H 1897.35 0.608719 -2.88754 0
M  V30 20090 H 1897.43 -1.0669 -2.32489 0
M  V30 20091 H 1897.08 -1.86612 -4.72375 0
M  V30 20092 H 1897.01 -0.16971 -5.26326 0
M  V30 20093 H 1899.5 -0.524463 -3.74243 0
M  V30 20094 H 1899.81 -1.68824 -7.54134 0
M  V30 20095 H 1898.15 -1.51149 -6.78365 0
M  V30 20096 H 1901.35 -0.732979 -4.62326 0
M  V30 20097 H 1901.52 -1.26344 -6.35564 0
M  V30 20098 N 1894.92 1.57341 -0.0902386 0
M  V30 20099 C 1896.2 1.85627 0.616611 0
M  V30 20100 C 1896.58 0.986193 1.86648 0
M  V30 20101 O 1895.93 0.0573148 2.28428 0
M  V30 20102 C 1896.14 3.36196 0.936645 0
M  V30 20103 C 1897.49 4.04139 1.30219 0
M  V30 20104 O 1898.51 3.41049 1.02781 0
M  V30 20105 O 1897.37 5.1545 1.81586 0
M  V30 20106 H 1894.46 0.76748 0.308065 0
M  V30 20107 H 1897.01 1.69257 -0.122568 0
M  V30 20108 H 1895.78 3.91268 0.0497354 0
M  V30 20109 H 1895.41 3.57895 1.73197 0
M  V30 20110 N 1896.4 -0.183431 1.56529 0
M  V30 20111 C 1897.31 -1.24746 1.98684 0
M  V30 20112 C 1898.33 -1.49139 0.8963 0
M  V30 20113 O 1899.5 -1.61525 1.20298 0
M  V30 20114 C 1896.57 -2.56927 2.32786 0
M  V30 20115 C 1895.63 -2.40503 3.55607 0
M  V30 20116 C 1894.86 -3.66381 3.88073 0
M  V30 20117 O 1895.09 -4.71048 3.21668 0
M  V30 20118 O 1894.02 -3.61214 4.81465 0
M  V30 20119 H 1897.85 -0.919676 2.8944 0
M  V30 20120 H 1895.43 -0.389352 1.44237 0
M  V30 20121 H 1897.31 -3.34923 2.55744 0
M  V30 20122 H 1895.99 -2.89309 1.45196 0
M  V30 20123 H 1894.9 -1.6058 3.37883 0
M  V30 20124 H 1896.23 -2.1305 4.43701 0
M  V30 20125 N 1897.88 -1.50992 -0.451564 0
M  V30 20126 C 1899.29 -1.55592 -1.03189 0
M  V30 20127 C 1899.64 -0.370923 -1.92662 0
M  V30 20128 O 1898.77 0.513972 -2.10208 0
M  V30 20129 C 1899.36 -2.81975 -1.87818 0
M  V30 20130 C 1897.92 -2.89192 -2.40925 0
M  V30 20131 C 1897.07 -2.50103 -1.19766 0
M  V30 20132 H 1900.02 -1.56974 -0.233388 0
M  V30 20133 H 1900.04 -2.64934 -2.73112 0
M  V30 20134 H 1899.55 -3.68203 -1.22672 0
M  V30 20135 H 1897.65 -2.07362 -3.09567 0
M  V30 20136 H 1897.77 -3.92529 -2.74696 0
M  V30 20137 H 1896.13 -2.02978 -1.53857 0
M  V30 20138 H 1896.91 -3.3866 -0.562517 0
M  V30 20139 N 1899.36 0.706069 -1.40899 0
M  V30 20140 C 1900.61 1.46164 -1.38993 0
M  V30 20141 C 1900.92 1.956 0.00145788 0
M  V30 20142 O 1902.13 2.71122 0.143137 0
M  V30 20143 C 1900.58 2.64252 -2.44334 0
M  V30 20144 C 1900.19 2.21646 -3.89329 0
M  V30 20145 C 1901.93 3.41941 -2.51549 0
M  V30 20146 C 1899.84 3.36629 -4.86245 0
M  V30 20147 H 1898.77 0.548985 -0.516847 0
M  V30 20148 H 1901.42 0.767528 -1.66677 0
M  V30 20149 H 1899.8 3.3588 -2.09764 0
M  V30 20150 H 1900.98 1.57376 -4.33093 0
M  V30 20151 H 1899.29 1.56978 -3.85677 0
M  V30 20152 H 1901.89 4.27518 -3.21142 0
M  V30 20153 H 1902.23 3.86409 -1.54899 0
M  V30 20154 H 1902.77 2.77363 -2.85158 0
M  V30 20155 H 1899.51 2.97183 -5.84262 0
M  V30 20156 H 1899.03 3.99784 -4.47139 0
M  V30 20157 H 1900.7 4.02559 -5.06513 0
M  V30 20158 N 1900.84 1.26553 0.939264 0
M  V30 20159 C 1901.79 1.04944 2.02412 0
M  V30 20160 C 1902.77 -0.0188072 1.60889 0
M  V30 20161 O 1903.96 0.198373 1.75885 0
M  V30 20162 C 1901.09 0.686442 3.36367 0
M  V30 20163 C 1900.18 1.79224 3.84369 0
M  V30 20164 N 1900.57 3.02998 4.05001 0
M  V30 20165 C 1898.87 1.67628 4.133 0
M  V30 20166 C 1899.57 3.7488 4.44792 0
M  V30 20167 N 1898.54 3.02578 4.51605 0
M  V30 20168 H 1902.35 1.98891 2.16379 0
M  V30 20169 H 1899.86 1.17098 1.12525 0
M  V30 20170 H 1901.86 0.512782 4.13734 0
M  V30 20171 H 1900.52 -0.245528 3.2377 0
M  V30 20172 H 1901.53 3.38883 3.91636 0
M  V30 20173 H 1898.2 0.814344 4.09481 0
M  V30 20174 H 1899.59 4.812 4.68931 0
M  V30 20175 N 1902.31 -1.14411 1.08387 0
M  V30 20176 C 1903.56 -1.84792 0.808372 0
M  V30 20177 C 1903.88 -1.83833 -0.668195 0
M  V30 20178 O 1905.08 -2.50001 -1.05885 0
M  V30 20179 C 1903.54 -3.31718 1.3961 0
M  V30 20180 C 1903.15 -3.41095 2.90444 0
M  V30 20181 C 1904.89 -4.07213 1.19908 0
M  V30 20182 C 1902.8 -4.82231 3.42356 0
M  V30 20183 H 1901.73 -0.692298 0.29873 0
M  V30 20184 H 1904.38 -1.28977 1.30526 0
M  V30 20185 H 1902.76 -3.8727 0.826924 0
M  V30 20186 H 1903.93 -2.95595 3.53497 0
M  V30 20187 H 1902.25 -2.79056 3.09058 0
M  V30 20188 H 1904.85 -5.11389 1.56158 0
M  V30 20189 H 1905.19 -4.16068 0.138882 0
M  V30 20190 H 1905.72 -3.57961 1.73519 0
M  V30 20191 H 1902.46 -4.78563 4.47948 0
M  V30 20192 H 1901.98 -5.2827 2.84062 0
M  V30 20193 H 1903.66 -5.5112 3.38933 0
M  V30 20194 N 1903.79 -0.869509 -1.31443 0
M  V30 20195 C 1904.72 -0.340679 -2.31001 0
M  V30 20196 C 1905.7 0.568186 -1.6033 0
M  V30 20197 O 1906.89 0.485305 -1.88038 0
M  V30 20198 C 1904.02 0.45909 -3.44252 0
M  V30 20199 C 1902.97 -0.356639 -4.26512 0
M  V30 20200 C 1902.3 0.568786 -5.31666 0
M  V30 20201 C 1903.6 -1.59045 -4.97496 0
M  V30 20202 H 1905.29 -1.1726 -2.75482 0
M  V30 20203 H 1902.84 -0.5653 -1.3244 0
M  V30 20204 H 1904.79 0.839573 -4.12952 0
M  V30 20205 H 1903.52 1.32451 -2.98537 0
M  V30 20206 H 1902.17 -0.719063 -3.59479 0
M  V30 20207 H 1901.82 1.43148 -4.82201 0
M  V30 20208 H 1901.52 0.0268906 -5.87594 0
M  V30 20209 H 1903.05 0.946122 -6.03225 0
M  V30 20210 H 1904.46 -1.28144 -5.58795 0
M  V30 20211 H 1902.86 -2.07139 -5.63217 0
M  V30 20212 H 1903.93 -2.34354 -4.24507 0
M  V30 20213 N 1905.27 1.44508 -0.628902 0
M  V30 20214 C 1906.22 2.32427 0.0895754 0
M  V30 20215 C 1907.21 1.47217 0.838067 0
M  V30 20216 O 1908.42 1.63575 0.751218 0
M  V30 20217 H 1904.79 0.750483 0.0477349 0
M  V30 20218 H 1906.76 2.9078 -0.670054 0
M  V30 20219 C 1905.51 3.31177 1.0591 0
M  V30 20220 H 1904.84 3.96754 0.492578 0
M  V30 20221 H 1906.28 3.9538 1.53135 0
M  V30 20222 C 1904.74 2.59936 2.14325 0
M  V30 20223 O 1905.27 2.3966 3.22375 0
M  V30 20224 N 1903.47 2.19712 1.90197 0
M  V30 20225 H 1903.02 2.36402 1.02332 0
M  V30 20226 H 1902.98 1.72371 2.62936 0
M  V30 20227 N 1906.75 0.369315 1.53212 0
M  V30 20228 C 1908 -0.219533 2.01608 0
M  V30 20229 C 1908.33 -1.48115 1.25601 0
M  V30 20230 O 1907.6 -1.91311 0.350762 0
M  V30 20231 C 1907.89 -0.507713 3.56503 0
M  V30 20232 C 1907.74 0.767792 4.43199 0
M  V30 20233 C 1909.06 -1.30674 4.20253 0
M  V30 20234 H 1906.18 -0.0783156 0.732827 0
M  V30 20235 H 1908.82 0.494943 1.8344 0
M  V30 20236 H 1906.97 -1.11637 3.72115 0
M  V30 20237 H 1908.64 1.4052 4.39377 0
M  V30 20238 H 1906.88 1.38737 4.11017 0
M  V30 20239 H 1907.56 0.521063 5.49535 0
M  V30 20240 H 1910.03 -0.791822 4.08497 0
M  V30 20241 H 1908.91 -1.47712 5.28652 0
M  V30 20242 H 1909.17 -2.31631 3.76562 0
M  V30 20243 N 1908.23 -1.57291 0.0985816 0
M  V30 20244 C 1909.19 -2.1307 -0.844628 0
M  V30 20245 C 1910.19 -1.06076 -1.20849 0
M  V30 20246 O 1911.38 -1.31947 -1.13735 0
M  V30 20247 C 1908.51 -2.65416 -2.13933 0
M  V30 20248 H 1909.71 -2.97729 -0.36023 0
M  V30 20249 H 1907.26 -1.55574 -0.150451 0
M  V30 20250 H 1907.99 -1.84287 -2.6685 0
M  V30 20251 H 1907.78 -3.43647 -1.88811 0
M  V30 20252 H 1909.27 -3.08551 -2.814 0
M  V30 20253 N 1909.71 0.175127 -1.56624 0
M  V30 20254 C 1910.95 0.890653 -1.8097 0
M  V30 20255 C 1911.27 1.83577 -0.675199 0
M  V30 20256 O 1912.47 2.59338 -0.803492 0
M  V30 20257 C 1910.93 1.63427 -3.20655 0
M  V30 20258 C 1910.54 0.732982 -4.41963 0
M  V30 20259 C 1912.28 2.33825 -3.54297 0
M  V30 20260 C 1910.19 1.47661 -5.72669 0
M  V30 20261 H 1909.12 0.336324 -0.674835 0
M  V30 20262 H 1911.77 0.143627 -1.82937 0
M  V30 20263 H 1910.15 2.42591 -3.12994 0
M  V30 20264 H 1911.33 -0.0214223 -4.60795 0
M  V30 20265 H 1909.64 0.138848 -4.16168 0
M  V30 20266 H 1912.24 2.90048 -4.49195 0
M  V30 20267 H 1912.58 3.08979 -2.78994 0
M  V30 20268 H 1913.11 1.61608 -3.63494 0
M  V30 20269 H 1909.85 0.767472 -6.50992 0
M  V30 20270 H 1909.37 2.20444 -5.57821 0
M  V30 20271 H 1911.05 2.02512 -6.1449 0
M  V30 20272 N 1911.18 1.5123 0.44355 0
M  V30 20273 C 1912.13 1.72095 1.53792 0
M  V30 20274 C 1913.1 0.562529 1.56284 0
M  V30 20275 O 1914.29 0.796259 1.73391 0
M  V30 20276 C 1911.43 1.84627 2.9156 0
M  V30 20277 C 1910.54 3.12147 2.98644 0
M  V30 20278 C 1909.67 3.1531 4.27496 0
M  V30 20279 C 1908.71 4.37171 4.28425 0
M  V30 20280 N 1907.85 4.37919 5.48791 0
M  V30 20281 H 1912.69 2.65512 1.35304 0
M  V30 20282 H 1910.23 1.31593 0.657387 0
M  V30 20283 H 1912.18 1.89874 3.71488 0
M  V30 20284 H 1910.81 0.946232 3.0862 0
M  V30 20285 H 1909.87 3.16239 2.11417 0
M  V30 20286 H 1911.18 4.02074 2.95192 0
M  V30 20287 H 1910.33 3.19439 5.15794 0
M  V30 20288 H 1909.07 2.23261 4.33596 0
M  V30 20289 H 1908.08 4.33225 3.38521 0
M  V30 20290 H 1909.3 5.30477 4.23994 0
M  V30 20291 H 1907.25 3.48737 5.55624 0
M  V30 20292 H 1907.16 5.21647 5.47193 0
M  V30 20293 H 1908.43 4.46232 6.39138 0
M  V30 20294 N 1912.66 -0.698586 1.41271 0
M  V30 20295 C 1913.89 -1.48743 1.43816 0
M  V30 20296 C 1914.3 -1.88752 0.0425858 0
M  V30 20297 O 1913.66 -1.56584 -0.937425 0
M  V30 20298 C 1913.71 -2.75192 2.34418 0
M  V30 20299 O 1913.43 -2.36869 3.68544 0
M  V30 20300 C 1914.93 -3.68957 2.45735 0
M  V30 20301 H 1912.15 -0.458477 0.489938 0
M  V30 20302 H 1914.7 -0.860372 1.85521 0
M  V30 20303 H 1912.85 -3.34142 1.9603 0
M  V30 20304 H 1913.27 -3.18354 4.16834 0
M  V30 20305 H 1914.74 -4.54473 3.13302 0
M  V30 20306 H 1915.22 -4.13237 1.48767 0
M  V30 20307 H 1915.82 -3.15912 2.84745 0
M  V30 20308 N 1914.14 -1.27049 -0.93254 0
M  V30 20309 C 1915.42 -1.03836 -1.65763 0
M  V30 20310 C 1915.8 0.428461 -2.06706 0
M  V30 20311 O 1915.14 1.41067 -1.79756 0
M  V30 20312 C 1915.35 -1.99534 -2.86334 0
M  V30 20313 C 1916.7 -2.28632 -3.57788 0
M  V30 20314 O 1917.73 -1.97469 -2.96453 0
M  V30 20315 O 1916.59 -2.81732 -4.68284 0
M  V30 20316 H 1913.68 -0.395479 -0.72631 0
M  V30 20317 H 1916.23 -1.38294 -0.983504 0
M  V30 20318 H 1915 -2.98479 -2.53033 0
M  V30 20319 H 1914.62 -1.65608 -3.61469 0
M  V30 20320 N 1915.62 1.13835 -1.08993 0
M  V30 20321 C 1916.86 1.86663 -0.832848 0
M  V30 20322 C 1917.22 1.81369 0.630021 0
M  V30 20323 O 1918.42 2.49392 1.00285 0
M  V30 20324 C 1916.69 3.31013 -1.34778 0
M  V30 20325 S 1918.25 4.21386 -1.22391 0
M  V30 20326 H 1915.07 0.643982 -0.301344 0
M  V30 20327 H 1917.67 1.3723 -1.39241 0
M  V30 20328 H 1916.38 3.32418 -2.4068 0
M  V30 20329 H 1915.91 3.85506 -0.78415 0
M  V30 20330 H 1917.92 4.95902 -0.172001 0
M  V30 20331 N 1917.1 0.876467 1.3098 0
M  V30 20332 C 1918.37 0.411051 1.91232 0
M  V30 20333 C 1918.75 -1.10748 1.79717 0
M  V30 20334 O 1918.1 -1.93898 1.20896 0
M  V30 20335 C 1918.31 0.899663 3.37205 0
M  V30 20336 C 1919.66 0.929615 4.14299 0
M  V30 20337 O 1920.68 0.845752 3.46014 0
M  V30 20338 O 1919.54 1.05211 5.36277 0
M  V30 20339 H 1916.64 0.12418 0.817624 0
M  V30 20340 H 1919.18 0.964808 1.39605 0
M  V30 20341 H 1917.95 1.94336 3.39631 0
M  V30 20342 H 1917.58 0.324585 3.96273 0
M  V30 20343 N 1918.57 -1.44173 0.636557 0
M  V30 20344 C 1919.82 -2.01209 0.140639 0
M  V30 20345 C 1920.14 -1.50704 -1.2469 0
M  V30 20346 O 1921.34 -1.99904 -1.83713 0
M  V30 20347 C 1919.8 -3.5934 0.20066 0
M  V30 20348 C 1919.41 -4.18841 1.58985 0
M  V30 20349 C 1921.15 -4.23829 -0.238514 0
M  V30 20350 C 1919.06 -5.69213 1.60469 0
M  V30 20351 H 1917.99 -0.752418 0.0488124 0
M  V30 20352 H 1920.64 -1.65329 0.796151 0
M  V30 20353 H 1919.02 -3.92544 -0.522054 0
M  V30 20354 H 1920.19 -3.97165 2.33658 0
M  V30 20355 H 1918.51 -3.66659 1.97357 0
M  V30 20356 H 1921.11 -5.34129 -0.247033 0
M  V30 20357 H 1921.45 -3.96556 -1.26685 0
M  V30 20358 H 1921.98 -3.95449 0.431887 0
M  V30 20359 H 1918.72 -6.01229 2.61158 0
M  V30 20360 H 1918.24 -5.92995 0.900975 0
M  V30 20361 H 1919.92 -6.3295 1.34104 0
M  V30 20362 N 1920.05 -0.377435 -1.53014 0
M  V30 20363 C 1920.96 0.471045 -2.29822 0
M  V30 20364 C 1921.98 1.0821 -1.36259 0
M  V30 20365 O 1923.15 1.09048 -1.69324 0
M  V30 20366 C 1920.22 1.58917 -3.08134 0
M  V30 20367 C 1919.28 1.00444 -4.17384 0
M  V30 20368 C 1918.51 2.06928 -4.91952 0
M  V30 20369 O 1918.74 3.2824 -4.66492 0
M  V30 20370 O 1917.67 1.69321 -5.77593 0
M  V30 20371 H 1921.5 -0.154333 -3.03308 0
M  V30 20372 H 1919.08 -0.141478 -1.48729 0
M  V30 20373 H 1920.96 2.23899 -3.56997 0
M  V30 20374 H 1919.64 2.19973 -2.37473 0
M  V30 20375 H 1918.54 0.3182 -3.72744 0
M  V30 20376 H 1919.88 0.438266 -4.90245 0
M  V30 20377 N 1921.53 1.57237 -0.106922 0
M  V30 20378 C 1922.81 1.8627 0.596889 0
M  V30 20379 C 1923.19 1.00593 1.85591 0
M  V30 20380 O 1922.54 0.0815394 2.28354 0
M  V30 20381 C 1922.75 3.37171 0.900934 0
M  V30 20382 C 1924.09 4.05497 1.25926 0
M  V30 20383 O 1925.12 3.4212 0.99158 0
M  V30 20384 O 1923.98 5.17347 1.76109 0
M  V30 20385 H 1921.07 0.770704 0.299907 0
M  V30 20386 H 1923.62 1.69117 -0.140513 0
M  V30 20387 H 1922.39 3.91299 0.00823337 0
M  V30 20388 H 1922.01 3.59712 1.69391 0
M  V30 20389 N 1923.01 -0.166818 1.56715 0
M  V30 20390 C 1924.29 -0.910255 1.73129 0
M  V30 20391 C 1924.67 -2.002 0.669555 0
M  V30 20392 O 1924.01 -2.2632 -0.314899 0
M  V30 20393 C 1924.22 -1.47087 3.16491 0
M  V30 20394 C 1925.57 -1.94204 3.77584 0
M  V30 20395 O 1926.6 -1.56872 3.19796 0
M  V30 20396 O 1925.45 -2.62988 4.79061 0
M  V30 20397 H 1922.55 -0.428766 0.70717 0
M  V30 20398 H 1925.09 -0.154295 1.68997 0
M  V30 20399 H 1923.87 -0.685322 3.85252 0
M  V30 20400 H 1923.49 -2.29089 3.24967 0
M  V30 20401 N 1924.49 -1.51463 -0.435524 0
M  V30 20402 C 1925.9 -1.39679 -0.772145 0
M  V30 20403 C 1926.1 -0.480546 -1.95686 0
M  V30 20404 O 1925.16 0.063611 -2.5242 0
M  V30 20405 C 1926.47 -2.81742 -1.05082 0
M  V30 20406 C 1928.02 -2.90905 -1.15514 0
M  V30 20407 C 1928.49 -4.33879 -1.46674 0
M  V30 20408 N 1929.99 -4.36993 -1.53594 0
M  V30 20409 C 1930.72 -5.44653 -1.79279 0
M  V30 20410 N 1930.22 -6.6247 -2.02744 0
M  V30 20411 N 1932.01 -5.32135 -1.81076 0
M  V30 20412 H 1924.16 -2.09584 0.344699 0
M  V30 20413 H 1926.42 -0.943543 0.0918199 0
M  V30 20414 H 1926.13 -3.50789 -0.252975 0
M  V30 20415 H 1926 -3.21179 -1.97798 0
M  V30 20416 H 1928.39 -2.22054 -1.94361 0
M  V30 20417 H 1928.47 -2.54961 -0.20695 0
M  V30 20418 H 1928.12 -5.03279 -0.683541 0
M  V30 20419 H 1928.05 -4.67337 -2.42702 0
M  V30 20420 H 1930.54 -3.52054 -1.37356 0
M  V30 20421 H 1930.85 -7.40311 -2.21718 0
M  V30 20422 H 1929.19 -6.65582 -2.00063 0
M  V30 20423 H 1932.39 -4.39076 -1.62264 0
M  V30 20424 H 1932.56 -6.16118 -2.00756 0
M  V30 20425 N 1925.96 0.691085 -1.4164 0
M  V30 20426 C 1926.89 1.8173 -1.46616 0
M  V30 20427 C 1927.88 1.66979 -0.324357 0
M  V30 20428 O 1929.06 1.86644 -0.536424 0
M  V30 20429 C 1926.19 3.19903 -1.35201 0
M  V30 20430 C 1925.14 3.49366 -2.47239 0
M  V30 20431 C 1924.47 4.86942 -2.20887 0
M  V30 20432 C 1925.77 3.47891 -3.89575 0
M  V30 20433 H 1927.46 1.77823 -2.40872 0
M  V30 20434 H 1925.01 0.8541 -1.15936 0
M  V30 20435 H 1926.96 3.98407 -1.37293 0
M  V30 20436 H 1925.69 3.24448 -0.374312 0
M  V30 20437 H 1924.35 2.73215 -2.44436 0
M  V30 20438 H 1923.99 4.88118 -1.2145 0
M  V30 20439 H 1923.69 5.0762 -2.95966 0
M  V30 20440 H 1925.22 5.67751 -2.24703 0
M  V30 20441 H 1926.63 4.16392 -3.94069 0
M  V30 20442 H 1925.03 3.80101 -4.64374 0
M  V30 20443 H 1926.1 2.46778 -4.17407 0
M  V30 20444 N 1927.44 1.27542 0.925789 0
M  V30 20445 C 1928.41 1.10471 2.0082 0
M  V30 20446 C 1929.41 0.0481002 1.60728 0
M  V30 20447 O 1930.6 0.292857 1.71721 0
M  V30 20448 C 1927.73 0.683669 3.33974 0
M  V30 20449 H 1928.92 2.0659 2.17395 0
M  V30 20450 H 1926.47 1.10357 1.10684 0
M  V30 20451 H 1927.21 -0.278821 3.23099 0
M  V30 20452 H 1926.99 1.44679 3.64431 0
M  V30 20453 H 1928.48 0.586526 4.13461 0
M  V30 20454 N 1928.92 -1.13255 1.09595 0
M  V30 20455 C 1929.88 -2.16909 0.740481 0
M  V30 20456 C 1930.88 -1.59135 -0.230794 0
M  V30 20457 O 1932.07 -1.74198 -0.00875551 0
M  V30 20458 C 1929.21 -3.40767 0.0953504 0
M  V30 20459 H 1930.4 -2.49869 1.65848 0
M  V30 20460 H 1927.95 -1.28113 0.895358 0
M  V30 20461 H 1928.69 -3.13398 -0.833794 0
M  V30 20462 H 1928.47 -3.83972 0.794247 0
M  V30 20463 H 1929.96 -4.17372 -0.137892 0
M  V30 20464 N 1930.4 -0.883401 -1.30514 0
M  V30 20465 C 1931.33 -0.293631 -2.26303 0
M  V30 20466 C 1932.31 0.584908 -1.51715 0
M  V30 20467 O 1933.49 0.535352 -1.80738 0
M  V30 20468 C 1930.62 0.582932 -3.33646 0
M  V30 20469 C 1929.67 -0.226068 -4.259 0
M  V30 20470 S 1930.5 -1.61333 -5.10619 0
M  V30 20471 C 1931.66 -0.743252 -6.21471 0
M  V30 20472 H 1931.89 -1.10559 -2.75978 0
M  V30 20473 H 1929.42 -0.682729 -1.38485 0
M  V30 20474 H 1931.38 1.08294 -3.95958 0
M  V30 20475 H 1930.04 1.36897 -2.82698 0
M  V30 20476 H 1929.23 0.442796 -5.02051 0
M  V30 20477 H 1928.84 -0.65864 -3.68155 0
M  V30 20478 H 1931.13 0.0404453 -6.77488 0
M  V30 20479 H 1932.07 -1.47631 -6.92539 0
M  V30 20480 H 1932.48 -0.304852 -5.63676 0
M  V30 20481 N 1931.88 1.43833 -0.644194 0
M  V30 20482 C 1933.12 2.01914 -0.153927 0
M  V30 20483 C 1933.45 1.50758 1.22891 0
M  V30 20484 O 1932.71 0.687354 1.83232 0
M  V30 20485 C 1933.01 3.57249 -0.103941 0
M  V30 20486 C 1932.67 4.27713 -1.42731 0
M  V30 20487 C 1931.33 4.46679 -1.78972 0
M  V30 20488 C 1933.69 4.67695 -2.30024 0
M  V30 20489 C 1931.01 5.0289 -3.0219 0
M  V30 20490 C 1933.37 5.2527 -3.52525 0
M  V30 20491 C 1932.03 5.42453 -3.88974 0
M  V30 20492 H 1931.3 0.738856 -0.0563257 0
M  V30 20493 H 1933.95 1.72428 -0.833108 0
M  V30 20494 H 1932.25 3.86224 0.65866 0
M  V30 20495 H 1933.95 3.99935 0.292124 0
M  V30 20496 H 1930.54 4.1329 -1.1353 0
M  V30 20497 H 1934.72 4.52743 -2.03317 0
M  V30 20498 H 1929.98 5.14379 -3.3049 0
M  V30 20499 H 1934.15 5.55198 -4.2039 0
M  V30 20500 H 1931.78 5.85775 -4.84532 0
M  V30 20501 N 1933.35 0.385544 1.52811 0
M  V30 20502 C 1934.77 0.0353371 1.59561 0
M  V30 20503 C 1934.97 -1.44948 1.39973 0
M  V30 20504 O 1934.03 -2.21354 1.21484 0
M  V30 20505 C 1935.34 0.509155 2.96358 0
M  V30 20506 C 1936.89 0.465088 3.09525 0
M  V30 20507 C 1937.36 0.915035 4.48766 0
M  V30 20508 N 1938.85 0.870895 4.54939 0
M  V30 20509 C 1939.59 1.1905 5.60905 0
M  V30 20510 N 1939.08 1.58039 6.74534 0
M  V30 20511 N 1940.88 1.112 5.50991 0
M  V30 20512 H 1933.03 1.35224 1.63793 0
M  V30 20513 H 1935.29 0.554013 0.769268 0
M  V30 20514 H 1935 1.54604 3.15896 0
M  V30 20515 H 1934.87 -0.0937516 3.77083 0
M  V30 20516 H 1937.26 -0.562704 2.89685 0
M  V30 20517 H 1937.34 1.10375 2.30762 0
M  V30 20518 H 1936.98 1.94104 4.69346 0
M  V30 20519 H 1936.91 0.253422 5.2599 0
M  V30 20520 H 1939.4 0.583936 3.73361 0
M  V30 20521 H 1939.72 1.808 7.51353 0
M  V30 20522 H 1938.06 1.61922 6.75874 0
M  V30 20523 H 1941.25 0.806438 4.61101 0
M  V30 20524 H 1941.43 1.3644 6.33473 0
M  V30 20525 N 1934.83 -1.57178 0.115259 0
M  V30 20526 C 1935.74 -2.18656 -0.850101 0
M  V30 20527 C 1936.76 -1.16164 -1.29545 0
M  V30 20528 O 1937.93 -1.48619 -1.35921 0
M  V30 20529 C 1935 -2.77089 -2.0838 0
M  V30 20530 C 1934.06 -3.94604 -1.69074 0
M  V30 20531 C 1933.29 -4.50242 -2.86563 0
M  V30 20532 O 1933.52 -4.04782 -4.0188 0
M  V30 20533 O 1932.45 -5.4098 -2.63864 0
M  V30 20534 H 1936.28 -3.01595 -0.356934 0
M  V30 20535 H 1933.86 -1.48993 -0.110158 0
M  V30 20536 H 1935.74 -3.14353 -2.80642 0
M  V30 20537 H 1934.42 -1.97184 -2.56711 0
M  V30 20538 H 1933.33 -3.62116 -0.939308 0
M  V30 20539 H 1934.66 -4.75934 -1.25489 0
M  V30 20540 N 1936.31 0.158505 -1.56801 0
M  V30 20541 C 1937.56 0.873038 -1.82714 0
M  V30 20542 C 1937.89 1.81683 -0.694361 0
M  V30 20543 O 1937.14 1.93108 0.31748 0
M  V30 20544 C 1937.44 1.69067 -3.14883 0
M  V30 20545 C 1937.11 0.894671 -4.41935 0
M  V30 20546 C 1935.77 0.675029 -4.76442 0
M  V30 20547 C 1938.12 0.337213 -5.20108 0
M  V30 20548 C 1935.45 -0.112965 -5.86591 0
M  V30 20549 C 1937.8 -0.43776 -6.31084 0
M  V30 20550 C 1936.46 -0.668085 -6.64148 0
M  V30 20551 H 1935.73 0.319467 -0.668597 0
M  V30 20552 H 1938.38 0.137273 -1.91007 0
M  V30 20553 H 1936.69 2.4962 -3.01988 0
M  V30 20554 H 1938.38 2.24679 -3.32145 0
M  V30 20555 H 1934.97 1.07592 -4.14876 0
M  V30 20556 H 1939.16 0.494212 -4.93833 0
M  V30 20557 H 1934.41 -0.301026 -6.10658 0
M  V30 20558 H 1938.59 -0.876909 -6.90857 0
M  V30 20559 H 1936.21 -1.28055 -7.49337 0
M  V30 20560 N 1937.79 1.51692 0.427485 0
M  V30 20561 C 1939.02 1.68669 1.19827 0
M  V30 20562 C 1939.43 0.388231 1.84765 0
M  V30 20563 O 1938.79 -0.634167 1.71127 0
M  V30 20564 C 1938.84 2.80936 2.27502 0
M  V30 20565 O 1938.56 4.05752 1.65218 0
M  V30 20566 C 1940.06 3.09267 3.17599 0
M  V30 20567 H 1937.28 0.565751 0.360786 0
M  V30 20568 H 1939.83 1.98158 0.505323 0
M  V30 20569 H 1937.98 2.54018 2.92496 0
M  V30 20570 H 1938.4 4.68175 2.36457 0
M  V30 20571 H 1939.87 3.91379 3.89264 0
M  V30 20572 H 1940.35 2.22071 3.78921 0
M  V30 20573 H 1940.95 3.37881 2.58295 0
M  V30 20574 N 1939.27 -0.683564 1.42004 0
M  V30 20575 C 1940.2 -1.80902 1.40737 0
M  V30 20576 C 1941.21 -1.59865 0.307725 0
M  V30 20577 O 1942.4 -1.69146 0.570244 0
M  V30 20578 C 1939.5 -3.17867 1.17533 0
M  V30 20579 C 1938.67 -3.65829 2.39766 0
M  V30 20580 C 1937.73 -4.81499 2.12238 0
M  V30 20581 O 1936.76 -4.92495 2.85371 0
M  V30 20582 N 1937.96 -5.69592 1.12006 0
M  V30 20583 H 1940.73 -1.82478 2.37744 0
M  V30 20584 H 1938.29 -0.866335 1.36771 0
M  V30 20585 H 1940.28 -3.92891 0.970489 0
M  V30 20586 H 1938.85 -3.11244 0.290811 0
M  V30 20587 H 1938.07 -2.81579 2.75874 0
M  V30 20588 H 1939.36 -3.94615 3.2118 0
M  V30 20589 H 1938.76 -5.63351 0.515003 0
M  V30 20590 H 1937.31 -6.44465 0.975098 0
M  V30 20591 N 1940.75 -1.28031 -0.919012 0
M  V30 20592 C 1941.68 -1.07305 -2.0253 0
M  V30 20593 C 1942.69 -0.0264063 -1.62779 0
M  V30 20594 O 1943.88 -0.268902 -1.76463 0
M  V30 20595 C 1940.98 -0.607467 -3.33411 0
M  V30 20596 C 1940.15 -1.72834 -4.01805 0
M  V30 20597 C 1939.21 -1.25703 -5.10965 0
M  V30 20598 O 1938.24 -1.9583 -5.34452 0
M  V30 20599 N 1939.44 -0.117374 -5.80381 0
M  V30 20600 H 1942.2 -2.02575 -2.2087 0
M  V30 20601 H 1939.77 -1.19713 -1.08997 0
M  V30 20602 H 1941.76 -0.275875 -4.03759 0
M  V30 20603 H 1940.33 0.252241 -3.11581 0
M  V30 20604 H 1939.55 -2.22979 -3.25075 0
M  V30 20605 H 1940.84 -2.48038 -4.44246 0
M  V30 20606 H 1940.23 0.467747 -5.63763 0
M  V30 20607 H 1938.79 0.154978 -6.51616 0
M  V30 20608 N 1942.22 1.12672 -1.10194 0
M  V30 20609 C 1943.17 2.20403 -0.743323 0
M  V30 20610 C 1944.17 1.67402 0.259382 0
M  V30 20611 O 1945.37 1.79599 0.120012 0
M  V30 20612 H 1941.75 0.718351 -0.22243 0
M  V30 20613 H 1943.72 2.47907 -1.66087 0
M  V30 20614 C 1942.47 3.47188 -0.188629 0
M  V30 20615 H 1941.79 3.88315 -0.951411 0
M  V30 20616 H 1943.23 4.23993 0.0242649 0
M  V30 20617 C 1941.69 3.19186 1.07806 0
M  V30 20618 O 1942.22 3.38684 2.16 0
M  V30 20619 N 1940.42 2.73009 0.995705 0
M  V30 20620 H 1939.97 2.57342 0.115168 0
M  V30 20621 H 1939.93 2.54649 1.84394 0
M  V30 20622 N 1943.7 0.89031 1.30043 0
M  V30 20623 C 1944.65 0.35935 2.27985 0
M  V30 20624 C 1945.62 -0.5534 1.5661 0
M  V30 20625 O 1946.8 -0.480669 1.84646 0
M  V30 20626 C 1943.94 -0.41541 3.42591 0
M  V30 20627 C 1943.06 0.527163 4.28771 0
M  V30 20628 C 1942.19 -0.26372 5.30545 0
M  V30 20629 C 1941.23 0.673982 6.08378 0
M  V30 20630 N 1940.37 -0.081909 7.02052 0
M  V30 20631 H 1945.21 1.19969 2.72785 0
M  V30 20632 H 1942.74 0.602948 1.34175 0
M  V30 20633 H 1944.7 -0.880572 4.07801 0
M  V30 20634 H 1943.33 -1.22028 2.98846 0
M  V30 20635 H 1942.38 1.11083 3.6382 0
M  V30 20636 H 1943.7 1.24532 4.83004 0
M  V30 20637 H 1942.85 -0.7905 6.01528 0
M  V30 20638 H 1941.59 -1.01507 4.7702 0
M  V30 20639 H 1940.59 1.21234 5.36267 0
M  V30 20640 H 1941.82 1.42451 6.63991 0
M  V30 20641 H 1939.77 -0.815696 6.50909 0
M  V30 20642 H 1939.68 0.576521 7.53799 0
M  V30 20643 H 1940.95 -0.589258 7.7727 0
M  V30 20644 N 1945.18 -1.43489 0.651812 0
M  V30 20645 C 1946.14 -2.29179 -0.0311937 0
M  V30 20646 C 1947.14 -1.42135 -0.751953 0
M  V30 20647 O 1948.33 -1.63781 -0.593416 0
M  V30 20648 C 1945.46 -3.24168 -1.0549 0
M  V30 20649 H 1946.66 -2.91061 0.722741 0
M  V30 20650 H 1944.21 -1.50746 0.412968 0
M  V30 20651 H 1944.95 -2.67177 -1.83812 0
M  V30 20652 H 1944.73 -3.88339 -0.541752 0
M  V30 20653 H 1946.22 -3.88487 -1.53193 0
M  V30 20654 N 1946.66 -0.393643 -1.52605 0
M  V30 20655 C 1947.89 0.1871 -2.06052 0
M  V30 20656 C 1948.3 1.40154 -1.26501 0
M  V30 20657 O 1947.66 1.798 -0.31279 0
M  V30 20658 C 1947.71 0.552918 -3.57246 0
M  V30 20659 O 1947.43 -0.613274 -4.33786 0
M  V30 20660 C 1948.93 1.18906 -4.27055 0
M  V30 20661 H 1946.15 0.0272042 -0.670448 0
M  V30 20662 H 1948.69 -0.560126 -1.9668 0
M  V30 20663 H 1946.85 1.25004 -3.66678 0
M  V30 20664 H 1947.26 -0.311611 -5.23574 0
M  V30 20665 H 1948.74 1.39535 -5.34073 0
M  V30 20666 H 1949.21 2.15768 -3.82545 0
M  V30 20667 H 1949.82 0.532579 -4.21952 0
M  V30 20668 N 1948.14 1.57115 -0.123593 0
M  V30 20669 C 1949.07 2.18573 0.821462 0
M  V30 20670 C 1950.05 1.1271 1.27399 0
M  V30 20671 O 1951.23 1.40964 1.33577 0
M  V30 20672 C 1948.36 2.78879 2.06987 0
M  V30 20673 C 1947.32 3.90365 1.75497 0
M  V30 20674 C 1946.64 4.37499 3.07406 0
M  V30 20675 C 1947.94 5.12249 1.01972 0
M  V30 20676 H 1949.64 2.97798 0.309319 0
M  V30 20677 H 1947.18 1.43244 0.147338 0
M  V30 20678 H 1949.13 3.20534 2.73562 0
M  V30 20679 H 1947.86 1.96951 2.60534 0
M  V30 20680 H 1946.52 3.49293 1.1131 0
M  V30 20681 H 1946.17 3.52424 3.58896 0
M  V30 20682 H 1945.87 5.12682 2.87108 0
M  V30 20683 H 1947.39 4.81808 3.75091 0
M  V30 20684 H 1948.8 5.50894 1.58709 0
M  V30 20685 H 1947.2 5.93044 0.917526 0
M  V30 20686 H 1948.27 4.84899 0.00726173 0
M  V30 20687 N 1949.61 -0.150187 1.56883 0
M  V30 20688 C 1950.86 -0.864615 1.83446 0
M  V30 20689 C 1951.19 -1.80963 0.70471 0
M  V30 20690 O 1950.47 -1.92297 -0.291897 0
M  V30 20691 C 1950.75 -1.64188 3.20491 0
M  V30 20692 C 1950.6 -0.718573 4.44023 0
M  V30 20693 C 1951.92 -2.60505 3.54719 0
M  V30 20694 H 1949.04 -0.312878 0.66729 0
M  V30 20695 H 1951.68 -0.129937 1.89555 0
M  V30 20696 H 1949.83 -2.26819 3.15413 0
M  V30 20697 H 1951.51 -0.103513 4.61184 0
M  V30 20698 H 1949.75 -0.0279419 4.33791 0
M  V30 20699 H 1950.42 -1.29839 5.36513 0
M  V30 20700 H 1952.9 -2.07993 3.60386 0
M  V30 20701 H 1951.77 -3.11941 4.51646 0
M  V30 20702 H 1952.03 -3.41711 2.8051 0
M  V30 20703 N 1951.09 -1.51916 -0.419434 0
M  V30 20704 C 1952.37 -1.56023 -1.17967 0
M  V30 20705 C 1952.75 -0.335094 -2.08423 0
M  V30 20706 O 1952.1 0.678731 -2.18187 0
M  V30 20707 C 1952.31 -2.8836 -1.96595 0
M  V30 20708 C 1953.66 -3.40979 -2.53019 0
M  V30 20709 O 1954.68 -2.90031 -2.06786 0
M  V30 20710 O 1953.54 -4.2992 -3.37388 0
M  V30 20711 H 1950.63 -0.628035 -0.538053 0
M  V30 20712 H 1953.18 -1.64239 -0.42705 0
M  V30 20713 H 1951.95 -3.6898 -1.30267 0
M  V30 20714 H 1951.57 -2.83389 -2.78884 0
M  V30 20715 N 1952.57 0.676023 -1.42365 0
M  V30 20716 C 1953.52 1.78219 -1.42204 0
M  V30 20717 C 1954.5 1.582 -0.293546 0
M  V30 20718 O 1955.7 1.68699 -0.535684 0
M  V30 20719 C 1952.83 3.1667 -1.3257 0
M  V30 20720 C 1951.91 3.42317 -2.50359 0
M  V30 20721 N 1952.3 3.38555 -3.75784 0
M  V30 20722 C 1950.6 3.72948 -2.44593 0
M  V30 20723 C 1951.3 3.63652 -4.54018 0
M  V30 20724 N 1950.28 3.84357 -3.8441 0
M  V30 20725 H 1954.08 1.73702 -2.37075 0
M  V30 20726 H 1951.59 0.876812 -1.36696 0
M  V30 20727 H 1953.59 3.95937 -1.30536 0
M  V30 20728 H 1952.25 3.22386 -0.38699 0
M  V30 20729 H 1953.26 3.18485 -4.08396 0
M  V30 20730 H 1949.94 3.85916 -1.59295 0
M  V30 20731 H 1951.33 3.66715 -5.63001 0
M  V30 20732 N 1954.05 1.28517 0.912209 0
M  V30 20733 C 1955.3 1.15532 1.65822 0
M  V30 20734 C 1955.62 -0.296177 1.92738 0
M  V30 20735 O 1954.89 -1.20492 1.54462 0
M  V30 20736 H 1953.47 0.424573 0.614611 0
M  V30 20737 H 1956.13 1.61267 1.09448 0
M  V30 20738 H 1955.23 1.69606 2.61993 0
M  V30 20739 N 1955.53 -1.12086 1.1079 0
M  V30 20740 C 1956.78 -1.83036 0.847387 0
M  V30 20741 C 1957.09 -1.85209 -0.629051 0
M  V30 20742 O 1958.29 -2.52191 -1.00559 0
M  V30 20743 C 1956.75 -3.28682 1.46615 0
M  V30 20744 C 1956.36 -3.34858 2.97614 0
M  V30 20745 C 1958.1 -4.04578 1.28519 0
M  V30 20746 C 1956.01 -4.7486 3.52508 0
M  V30 20747 H 1954.94 -0.685806 0.313347 0
M  V30 20748 H 1957.59 -1.2618 1.33233 0
M  V30 20749 H 1955.97 -3.85429 0.908883 0
M  V30 20750 H 1957.15 -2.8803 3.59688 0
M  V30 20751 H 1955.46 -2.72438 3.14907 0
M  V30 20752 H 1958.06 -5.07962 1.6697 0
M  V30 20753 H 1958.4 -4.1568 0.227105 0
M  V30 20754 H 1958.93 -3.542 1.81073 0
M  V30 20755 H 1955.67 -4.68954 4.57999 0
M  V30 20756 H 1955.19 -5.22125 2.95203 0
M  V30 20757 H 1956.87 -5.43807 3.50546 0
M  V30 20758 N 1957 -0.897194 -1.29569 0
M  V30 20759 C 1958.42 -0.592933 -1.48177 0
M  V30 20760 C 1958.62 0.866214 -1.81931 0
M  V30 20761 O 1957.68 1.64658 -1.91427 0
M  V30 20762 C 1958.99 -1.5166 -2.59653 0
M  V30 20763 C 1960.54 -1.52153 -2.73529 0
M  V30 20764 C 1961.01 -2.43142 -3.88131 0
M  V30 20765 N 1962.5 -2.41175 -3.9546 0
M  V30 20766 C 1963.24 -3.08283 -4.83476 0
M  V30 20767 N 1962.73 -3.84662 -5.76201 0
M  V30 20768 N 1964.53 -2.97453 -4.76946 0
M  V30 20769 H 1956.68 -1.84096 -1.05935 0
M  V30 20770 H 1958.94 -0.788701 -0.52598 0
M  V30 20771 H 1958.65 -2.55612 -2.41569 0
M  V30 20772 H 1958.52 -1.23526 -3.564 0
M  V30 20773 H 1960.91 -0.489472 -2.91012 0
M  V30 20774 H 1960.99 -1.84324 -1.77365 0
M  V30 20775 H 1960.63 -3.46441 -3.71404 0
M  V30 20776 H 1960.56 -2.08282 -4.83659 0
M  V30 20777 H 1963.05 -1.8568 -3.29137 0
M  V30 20778 H 1963.37 -4.32929 -6.4015 0
M  V30 20779 H 1961.71 -3.88769 -5.76094 0
M  V30 20780 H 1964.9 -2.37301 -4.03492 0
M  V30 20781 H 1965.08 -3.50029 -5.45329 0
M  V30 20782 N 1958.48 1.43142 -0.659413 0
M  V30 20783 C 1959.9 1.56203 -0.327538 0
M  V30 20784 C 1960.1 1.64194 1.16801 0
M  V30 20785 O 1959.15 1.60041 1.95303 0
M  V30 20786 C 1960.47 2.81982 -1.04434 0
M  V30 20787 C 1962.02 2.95735 -1.02518 0
M  V30 20788 C 1962.49 4.24354 -1.723 0
M  V30 20789 N 1963.98 4.31232 -1.69094 0
M  V30 20790 C 1964.72 5.29534 -2.19957 0
M  V30 20791 N 1964.21 6.34078 -2.79135 0
M  V30 20792 N 1966.01 5.21229 -2.10421 0
M  V30 20793 H 1958.16 1.36198 -1.62984 0
M  V30 20794 H 1960.42 0.654541 -0.685769 0
M  V30 20795 H 1960.13 2.82162 -2.09947 0
M  V30 20796 H 1960 3.72401 -0.599805 0
M  V30 20797 H 1962.39 2.95092 0.0215626 0
M  V30 20798 H 1962.47 2.06589 -1.50846 0
M  V30 20799 H 1962.11 4.25758 -2.76935 0
M  V30 20800 H 1962.04 5.12408 -1.21433 0
M  V30 20801 H 1964.53 3.56306 -1.25915 0
M  V30 20802 H 1964.85 7.05417 -3.15606 0
M  V30 20803 H 1963.19 6.34684 -2.83199 0
M  V30 20804 H 1966.38 4.38473 -1.63888 0
M  V30 20805 H 1966.55 5.97679 -2.50368 0
M  V30 20806 N 1959.96 0.40173 1.52394 0
M  V30 20807 C 1960.89 -0.41861 2.29717 0
M  V30 20808 C 1961.87 -1.05263 1.33618 0
M  V30 20809 O 1963.06 -1.06304 1.62521 0
M  V30 20810 C 1960.19 -1.5395 3.11314 0
M  V30 20811 C 1959.14 -1.03088 4.154 0
M  V30 20812 C 1958.47 -2.2448 4.85297 0
M  V30 20813 C 1959.77 -0.0900956 5.22222 0
M  V30 20814 H 1961.46 0.226577 2.98541 0
M  V30 20815 H 1959.01 0.110411 1.43576 0
M  V30 20816 H 1960.96 -2.12031 3.64171 0
M  V30 20817 H 1959.68 -2.21246 2.40246 0
M  V30 20818 H 1958.34 -0.472515 3.63542 0
M  V30 20819 H 1957.99 -2.90313 4.10764 0
M  V30 20820 H 1957.69 -1.91103 5.55656 0
M  V30 20821 H 1959.21 -2.83181 5.40963 0
M  V30 20822 H 1960.63 -0.579479 5.70364 0
M  V30 20823 H 1959.03 0.154505 5.99901 0
M  V30 20824 H 1960.1 0.857375 4.7726 0
M  V30 20825 N 1961.44 -1.57047 0.131923 0
M  V30 20826 C 1962.67 -1.99989 -0.530289 0
M  V30 20827 C 1963.08 -1.01182 -1.59397 0
M  V30 20828 O 1962.44 -0.00657368 -1.82499 0
M  V30 20829 C 1962.49 -3.42898 -1.14469 0
M  V30 20830 O 1962.21 -4.37926 -0.123503 0
M  V30 20831 C 1963.71 -4.0104 -1.88897 0
M  V30 20832 H 1960.93 -0.656371 -0.139348 0
M  V30 20833 H 1963.48 -2.03291 0.222069 0
M  V30 20834 H 1961.63 -3.40495 -1.84775 0
M  V30 20835 H 1962.04 -5.21376 -0.571587 0
M  V30 20836 H 1963.52 -5.03077 -2.27196 0
M  V30 20837 H 1964 -3.40903 -2.76915 0
M  V30 20838 H 1964.6 -4.07027 -1.23324 0
M  V30 20839 N 1962.92 0.141865 -1.5696 0
M  V30 20840 C 1964.16 0.853609 -1.83629 0
M  V30 20841 C 1964.49 1.80937 -0.713591 0
M  V30 20842 O 1963.75 1.93433 0.296981 0
M  V30 20843 C 1964.05 1.65717 -3.16658 0
M  V30 20844 C 1963.71 0.847748 -4.42859 0
M  V30 20845 C 1962.37 0.624458 -4.77131 0
M  V30 20846 C 1964.73 0.282029 -5.20436 0
M  V30 20847 C 1962.05 -0.175174 -5.86438 0
M  V30 20848 C 1964.41 -0.50467 -6.30584 0
M  V30 20849 C 1963.07 -0.738489 -6.63402 0
M  V30 20850 H 1962.34 0.312358 -0.671948 0
M  V30 20851 H 1964.99 0.117006 -1.91142 0
M  V30 20852 H 1963.29 2.46403 -3.04619 0
M  V30 20853 H 1964.99 2.21144 -3.34509 0
M  V30 20854 H 1961.58 1.03185 -4.15994 0
M  V30 20855 H 1965.76 0.441806 -4.9433 0
M  V30 20856 H 1961.02 -0.365778 -6.10305 0
M  V30 20857 H 1965.19 -0.950134 -6.89888 0
M  V30 20858 H 1962.82 -1.35995 -7.47937 0
M  V30 20859 N 1964.39 1.52136 0.411372 0
M  V30 20860 C 1965.32 1.78277 1.50796 0
M  V30 20861 C 1966.31 0.633643 1.57857 0
M  V30 20862 O 1967.49 0.879011 1.73168 0
M  V30 20863 C 1964.62 1.93142 2.88641 0
M  V30 20864 C 1963.57 3.08727 2.96431 0
M  V30 20865 C 1962.9 3.08812 4.36508 0
M  V30 20866 C 1964.2 4.48228 2.68122 0
M  V30 20867 H 1965.89 2.70102 1.29171 0
M  V30 20868 H 1963.44 1.29971 0.619965 0
M  V30 20869 H 1965.39 2.10012 3.65339 0
M  V30 20870 H 1964.12 0.979869 3.11554 0
M  V30 20871 H 1962.78 2.91604 2.22177 0
M  V30 20872 H 1962.42 2.11383 4.56428 0
M  V30 20873 H 1962.12 3.86444 4.42645 0
M  V30 20874 H 1963.65 3.27809 5.15144 0
M  V30 20875 H 1965.06 4.65568 3.34544 0
M  V30 20876 H 1963.46 5.27761 2.85638 0
M  V30 20877 H 1964.53 4.56478 1.63572 0
M  V30 20878 N 1965.87 -0.668464 1.42721 0
M  V30 20879 C 1967.12 -1.43061 1.43741 0
M  V30 20880 C 1967.45 -1.9412 0.0558656 0
M  V30 20881 O 1966.73 -1.71317 -0.920904 0
M  V30 20882 C 1967.01 -2.62307 2.46712 0
M  V30 20883 C 1966.86 -2.16839 3.94082 0
M  V30 20884 C 1968.18 -3.64525 2.46596 0
M  V30 20885 H 1965.3 -0.518854 0.523412 0
M  V30 20886 H 1967.94 -0.759144 1.74175 0
M  V30 20887 H 1966.09 -3.19593 2.20891 0
M  V30 20888 H 1967.77 -1.64672 4.30907 0
M  V30 20889 H 1966.01 -1.48352 4.07645 0
M  V30 20890 H 1966.68 -3.02521 4.6172 0
M  V30 20891 H 1969.16 -3.16968 2.69574 0
M  V30 20892 H 1968.03 -4.45532 3.20613 0
M  V30 20893 H 1968.29 -4.16084 1.49421 0
M  V30 20894 N 1967.35 -1.28999 -0.905381 0
M  V30 20895 C 1968.31 -1.13652 -1.99038 0
M  V30 20896 C 1969.31 -0.0736646 -1.60631 0
M  V30 20897 O 1970.5 -0.320139 -1.71233 0
M  V30 20898 C 1967.64 -0.736715 -3.32844 0
M  V30 20899 H 1968.83 -2.10022 -2.14081 0
M  V30 20900 H 1966.38 -1.12104 -1.08915 0
M  V30 20901 H 1967.12 0.227383 -3.23502 0
M  V30 20902 H 1966.9 -1.50459 -3.62084 0
M  V30 20903 H 1968.39 -0.65223 -4.12475 0
M  V30 20904 N 1968.83 1.11497 -1.11383 0
M  V30 20905 C 1969.76 2.17283 -0.729431 0
M  V30 20906 C 1970.77 1.61041 0.238642 0
M  V30 20907 O 1971.96 1.78487 0.0216271 0
M  V30 20908 C 1969.06 3.38852 -0.057216 0
M  V30 20909 C 1968.24 4.24562 -1.05196 0
M  V30 20910 C 1967.3 5.24605 -0.40941 0
M  V30 20911 O 1966.32 5.59183 -1.06315 0
M  V30 20912 N 1967.52 5.74565 0.827957 0
M  V30 20913 H 1970.29 2.50871 -1.63963 0
M  V30 20914 H 1967.85 1.27013 -1.00396 0
M  V30 20915 H 1969.84 4.02871 0.384356 0
M  V30 20916 H 1968.41 3.03332 0.755551 0
M  V30 20917 H 1967.63 3.57008 -1.6715 0
M  V30 20918 H 1968.92 4.78667 -1.72498 0
M  V30 20919 H 1968.32 5.48653 1.37827 0
M  V30 20920 H 1966.87 6.40423 1.21252 0
M  V30 20921 N 1970.31 0.904053 1.29092 0
M  V30 20922 C 1971.25 0.38351 2.27591 0
M  V30 20923 C 1972.22 -0.536758 1.57188 0
M  V30 20924 O 1973.41 -0.461057 1.85146 0
M  V30 20925 C 1970.55 -0.379051 3.43012 0
M  V30 20926 C 1969.66 0.572611 4.28188 0
M  V30 20927 C 1968.8 -0.207434 5.30795 0
M  V30 20928 C 1967.84 0.73847 6.07629 0
M  V30 20929 N 1966.97 -0.00744238 7.021 0
M  V30 20930 H 1971.81 1.22855 2.71497 0
M  V30 20931 H 1969.35 0.617145 1.33528 0
M  V30 20932 H 1971.31 -0.83727 4.08712 0
M  V30 20933 H 1969.94 -1.18851 3.00124 0
M  V30 20934 H 1968.99 1.14935 3.62621 0
M  V30 20935 H 1970.3 1.29648 4.81656 0
M  V30 20936 H 1969.46 -0.726655 6.02333 0
M  V30 20937 H 1968.2 -0.964417 4.78069 0
M  V30 20938 H 1967.2 1.26915 5.34951 0
M  V30 20939 H 1968.43 1.49485 6.62443 0
M  V30 20940 H 1966.37 -0.746612 6.51737 0
M  V30 20941 H 1966.29 0.656439 7.53145 0
M  V30 20942 H 1967.56 -0.506785 7.77851 0
M  V30 20943 N 1971.79 -1.4279 0.666995 0
M  V30 20944 C 1973.06 -1.9526 0.11533 0
M  V30 20945 C 1973.44 -1.60776 -1.36801 0
M  V30 20946 O 1972.79 -0.899897 -2.10034 0
M  V30 20947 C 1973 -3.46967 0.376175 0
M  V30 20948 C 1974.35 -4.23619 0.28849 0
M  V30 20949 O 1975.37 -3.54853 0.30949 0
M  V30 20950 O 1974.23 -5.46041 0.223982 0
M  V30 20951 H 1971.33 -0.826998 -0.00165705 0
M  V30 20952 H 1973.87 -1.52658 0.741186 0
M  V30 20953 H 1972.64 -3.65243 1.40404 0
M  V30 20954 H 1972.27 -3.96598 -0.282074 0
M  V30 20955 N 1973.26 -0.409806 -1.52179 0
M  V30 20956 C 1974.51 0.165758 -2.0182 0
M  V30 20957 C 1974.84 1.45086 -1.29539 0
M  V30 20958 O 1974.09 1.91766 -0.390424 0
M  V30 20959 C 1974.39 0.459582 -3.54433 0
M  V30 20960 C 1974.06 -0.7364 -4.44846 0
M  V30 20961 C 1972.72 -1.06445 -4.69279 0
M  V30 20962 C 1975.07 -1.53553 -4.98067 0
M  V30 20963 C 1972.4 -2.19281 -5.44181 0
M  V30 20964 C 1974.75 -2.65467 -5.74204 0
M  V30 20965 C 1973.42 -2.98757 -5.96909 0
M  V30 20966 H 1972.69 0.0606551 -0.738513 0
M  V30 20967 H 1975.33 -0.551364 -1.83391 0
M  V30 20968 H 1973.64 1.25828 -3.71045 0
M  V30 20969 H 1975.34 0.917888 -3.90353 0
M  V30 20970 H 1971.93 -0.470734 -4.26007 0
M  V30 20971 H 1976.11 -1.29532 -4.79098 0
M  V30 20972 H 1971.37 -2.4542 -5.59981 0
M  V30 20973 H 1975.54 -3.27776 -6.14439 0
M  V30 20974 H 1973.17 -3.86307 -6.5473 0
M  V30 20975 N 1974.74 1.56975 -0.14025 0
M  V30 20976 C 1976.16 1.58129 0.216215 0
M  V30 20977 C 1976.36 1.15417 1.6517 0
M  V30 20978 O 1975.41 0.851345 2.37715 0
M  V30 20979 C 1976.73 3.00678 -0.0364108 0
M  V30 20980 C 1978.27 3.12988 0.0278286 0
M  V30 20981 C 1978.75 4.57574 -0.197378 0
M  V30 20982 N 1980.24 4.62976 -0.144073 0
M  V30 20983 C 1980.98 5.72651 -0.292931 0
M  V30 20984 N 1980.47 6.91 -0.499138 0
M  V30 20985 N 1982.26 5.61625 -0.231008 0
M  V30 20986 H 1974.42 1.83033 -1.07762 0
M  V30 20987 H 1976.68 0.846871 -0.426044 0
M  V30 20988 H 1976.38 3.36291 -1.02963 0
M  V30 20989 H 1976.26 3.70909 0.686026 0
M  V30 20990 H 1978.65 2.7722 1.01159 0
M  V30 20991 H 1978.73 2.45257 -0.726829 0
M  V30 20992 H 1978.37 4.94045 -1.17821 0
M  V30 20993 H 1978.3 5.23424 0.577522 0
M  V30 20994 H 1980.79 3.77898 0.0109252 0
M  V30 20995 H 1981.1 7.70444 -0.603012 0
M  V30 20996 H 1979.45 6.92935 -0.535376 0
M  V30 20997 H 1982.64 4.68047 -0.0707224 0
M  V30 20998 H 1982.81 6.47052 -0.350455 0
M  V30 20999 N 1976.22 -0.133539 1.57033 0
M  V30 21000 C 1977.17 -1.16445 1.99272 0
M  V30 21001 C 1978.14 -1.41954 0.862458 0
M  V30 21002 O 1979.32 -1.54063 1.12557 0
M  V30 21003 C 1976.46 -2.48958 2.38985 0
M  V30 21004 C 1975.57 -2.30509 3.65362 0
M  V30 21005 C 1974.71 -3.56151 3.94119 0
M  V30 21006 C 1973.75 -3.32796 5.13725 0
M  V30 21007 N 1972.89 -4.50603 5.38425 0
M  V30 21008 H 1977.73 -0.797257 2.87137 0
M  V30 21009 H 1975.26 -0.382194 1.42048 0
M  V30 21010 H 1977.22 -3.26242 2.60043 0
M  V30 21011 H 1975.85 -2.83599 1.54181 0
M  V30 21012 H 1974.9 -1.44214 3.52004 0
M  V30 21013 H 1976.21 -2.0922 4.52801 0
M  V30 21014 H 1975.37 -4.41858 4.15748 0
M  V30 21015 H 1974.11 -3.80458 3.05128 0
M  V30 21016 H 1973.11 -2.45478 4.91956 0
M  V30 21017 H 1974.34 -3.09875 6.0428 0
M  V30 21018 H 1972.28 -4.75058 4.5239 0
M  V30 21019 H 1972.2 -4.32365 6.20158 0
M  V30 21020 H 1973.47 -5.37486 5.64561 0
M  V30 21021 N 1977.7 -1.52352 -0.403298 0
M  V30 21022 C 1978.63 -1.72347 -1.51093 0
M  V30 21023 C 1979.64 -0.603886 -1.51186 0
M  V30 21024 O 1980.83 -0.879203 -1.55346 0
M  V30 21025 C 1977.93 -1.75407 -2.89975 0
M  V30 21026 C 1977.1 -3.04495 -3.14009 0
M  V30 21027 C 1976.16 -2.9929 -4.32795 0
M  V30 21028 O 1975.19 -3.73185 -4.29792 0
M  V30 21029 N 1976.39 -2.17484 -5.3822 0
M  V30 21030 H 1979.16 -2.67908 -1.34333 0
M  V30 21031 H 1976.72 -1.50662 -0.592661 0
M  V30 21032 H 1978.71 -1.6945 -3.67517 0
M  V30 21033 H 1977.28 -0.87295 -3.00164 0
M  V30 21034 H 1976.5 -3.24056 -2.24458 0
M  V30 21035 H 1977.79 -3.89879 -3.26913 0
M  V30 21036 H 1977.19 -1.56888 -5.4351 0
M  V30 21037 H 1975.74 -2.17378 -6.14484 0
M  V30 21038 N 1979.18 0.660885 -1.43074 0
M  V30 21039 C 1980.42 1.42296 -1.44498 0
M  V30 21040 C 1980.75 1.94087 -0.0661594 0
M  V30 21041 O 1980.03 1.71803 0.911806 0
M  V30 21042 C 1980.31 2.60995 -2.481 0
M  V30 21043 C 1980.17 2.14746 -3.95227 0
M  V30 21044 C 1981.48 3.63212 -2.48526 0
M  V30 21045 H 1978.6 0.516071 -0.526156 0
M  V30 21046 H 1981.25 0.749896 -1.74575 0
M  V30 21047 H 1979.4 3.18417 -2.22583 0
M  V30 21048 H 1981.07 1.62384 -4.31774 0
M  V30 21049 H 1979.31 1.46188 -4.08426 0
M  V30 21050 H 1979.98 3.00068 -4.63318 0
M  V30 21051 H 1982.46 3.15534 -2.71251 0
M  V30 21052 H 1981.33 4.43825 -3.22971 0
M  V30 21053 H 1981.59 4.15285 -1.51626 0
M  V30 21054 N 1980.65 1.29477 0.898527 0
M  V30 21055 C 1981.6 1.1459 2.02415 0
M  V30 21056 C 1982.6 0.0611919 1.69289 0
M  V30 21057 O 1983.8 0.221075 1.78637 0
M  V30 21058 H 1980.18 0.353997 0.663468 0
M  V30 21059 H 1982.15 2.09886 2.12109 0
M  V30 21060 C 1980.9 0.840435 3.3739 0
M  V30 21061 H 1980.22 1.66712 3.63383 0
M  V30 21062 H 1981.66 0.77631 4.16833 0
M  V30 21063 C 1980.12 -0.456337 3.33795 0
M  V30 21064 O 1980.65 -1.48204 3.73361 0
M  V30 21065 N 1978.86 -0.462604 2.86894 0
M  V30 21066 H 1978.4 0.372545 2.54892 0
M  V30 21067 H 1978.36 -1.33024 2.84872 0
M  V30 21068 N 1982.13 -1.10905 1.11972 0
M  V30 21069 C 1983.36 -1.86284 0.893402 0
M  V30 21070 C 1983.77 -1.80704 -0.560594 0
M  V30 21071 O 1983.11 -1.19041 -1.3991 0
M  V30 21072 C 1983.18 -3.35793 1.28386 0
M  V30 21073 C 1982.84 -3.65137 2.74816 0
M  V30 21074 C 1983.84 -3.62148 3.73021 0
M  V30 21075 C 1981.52 -3.93967 3.11601 0
M  V30 21076 C 1983.52 -3.87575 5.06028 0
M  V30 21077 C 1981.2 -4.19051 4.44791 0
M  V30 21078 C 1982.2 -4.15844 5.41814 0
M  V30 21079 O 1981.89 -4.40294 6.72604 0
M  V30 21080 H 1981.62 -0.59576 0.319447 0
M  V30 21081 H 1984.17 -1.41148 1.49219 0
M  V30 21082 H 1982.4 -3.81563 0.628247 0
M  V30 21083 H 1984.09 -3.9255 1.03245 0
M  V30 21084 H 1984.86 -3.3992 3.45948 0
M  V30 21085 H 1980.74 -3.95596 2.36695 0
M  V30 21086 H 1984.28 -3.84987 5.81748 0
M  V30 21087 H 1980.18 -4.40757 4.71596 0
M  V30 21088 H 1980.95 -4.57833 6.78477 0
M  V30 21089 N 1983.61 -0.910886 -1.2861 0
M  V30 21090 C 1984.52 -0.402088 -2.31129 0
M  V30 21091 C 1985.54 0.508811 -1.66394 0
M  V30 21092 O 1986.71 0.395691 -1.97475 0
M  V30 21093 C 1983.78 0.352182 -3.44907 0
M  V30 21094 C 1982.84 -0.59159 -4.25204 0
M  V30 21095 C 1982.07 0.126778 -5.33549 0
M  V30 21096 O 1982.29 1.34897 -5.54219 0
M  V30 21097 O 1981.23 -0.536442 -5.99505 0
M  V30 21098 H 1985.05 -1.25289 -2.76652 0
M  V30 21099 H 1982.64 -0.675604 -1.33251 0
M  V30 21100 H 1984.52 0.778285 -4.14151 0
M  V30 21101 H 1983.2 1.17886 -3.01471 0
M  V30 21102 H 1982.1 -1.06703 -3.5856 0
M  V30 21103 H 1983.44 -1.38501 -4.72312 0
M  V30 21104 N 1985.09 1.42434 -0.674558 0
M  V30 21105 C 1986.33 2.01841 -0.197012 0
M  V30 21106 C 1986.67 1.53214 1.19328 0
M  V30 21107 O 1985.94 0.734239 1.80109 0
M  V30 21108 C 1986.23 3.59356 -0.231383 0
M  V30 21109 C 1986.08 4.18162 -1.65711 0
M  V30 21110 C 1987.4 4.38086 0.420535 0
M  V30 21111 H 1984.52 0.733369 -0.0730636 0
M  V30 21112 H 1987.16 1.69458 -0.859297 0
M  V30 21113 H 1985.31 3.87074 0.332539 0
M  V30 21114 H 1986.98 4.01398 -2.27327 0
M  V30 21115 H 1985.22 3.74 -2.19787 0
M  V30 21116 H 1985.89 5.27297 -1.63285 0
M  V30 21117 H 1988.37 4.16057 -0.0594985 0
M  V30 21118 H 1987.25 5.47679 0.365847 0
M  V30 21119 H 1987.51 4.15945 1.49808 0
M  V30 21120 N 1986.57 0.417871 1.51959 0
M  V30 21121 C 1987.84 -0.214034 1.94425 0
M  V30 21122 C 1988.22 -1.61845 1.35534 0
M  V30 21123 O 1987.57 -2.22158 0.534606 0
M  V30 21124 C 1987.78 -0.211518 3.48358 0
M  V30 21125 C 1989.13 -0.426614 4.22451 0
M  V30 21126 O 1990.15 -0.290493 3.55013 0
M  V30 21127 O 1989.01 -0.695682 5.42054 0
M  V30 21128 H 1986.11 -0.140439 0.814988 0
M  V30 21129 H 1988.65 0.474446 1.62933 0
M  V30 21130 H 1987.42 0.771087 3.83627 0
M  V30 21131 H 1987.05 -0.943731 3.86238 0
M  V30 21132 N 1988.04 -1.56898 0.148573 0
M  V30 21133 C 1989.46 -1.58241 -0.207826 0
M  V30 21134 C 1989.66 -1.16291 -1.64556 0
M  V30 21135 O 1988.72 -0.863939 -2.3726 0
M  V30 21136 C 1990.03 -3.00654 0.0523559 0
M  V30 21137 C 1991.58 -3.12998 -0.0112297 0
M  V30 21138 C 1992.05 -4.57463 0.221641 0
M  V30 21139 N 1993.54 -4.62893 0.168624 0
M  V30 21140 C 1994.28 -5.72488 0.323296 0
M  V30 21141 N 1993.77 -6.90725 0.535776 0
M  V30 21142 N 1995.57 -5.61495 0.26079 0
M  V30 21143 H 1987.72 -1.82459 1.08731 0
M  V30 21144 H 1989.98 -0.8446 0.430529 0
M  V30 21145 H 1989.69 -3.3574 1.04745 0
M  V30 21146 H 1989.56 -3.71268 -0.666346 0
M  V30 21147 H 1991.95 -2.77752 -0.996873 0
M  V30 21148 H 1992.03 -2.44868 0.739826 0
M  V30 21149 H 1991.67 -4.93413 1.20439 0
M  V30 21150 H 1991.6 -5.23722 -0.549756 0
M  V30 21151 H 1994.09 -3.77899 0.00911581 0
M  V30 21152 H 1994.41 -7.70113 0.643862 0
M  V30 21153 H 1992.75 -6.92641 0.572117 0
M  V30 21154 H 1995.94 -4.68002 0.095543 0
M  V30 21155 H 1996.12 -6.46857 0.384765 0
M  V30 21156 N 1989.52 0.125209 -1.57102 0
M  V30 21157 C 1990.94 0.478555 -1.52256 0
M  V30 21158 C 1991.14 1.82199 -0.860573 0
M  V30 21159 O 1990.19 2.48632 -0.440282 0
M  V30 21160 C 1991.51 0.46877 -2.97024 0
M  V30 21161 C 1993.06 0.552759 -3.0808 0
M  V30 21162 C 1993.53 0.573425 -4.54396 0
M  V30 21163 N 1995.02 0.635039 -4.58826 0
M  V30 21164 C 1995.76 0.672375 -5.69444 0
M  V30 21165 N 1995.25 0.667732 -6.89575 0
M  V30 21166 N 1997.05 0.714913 -5.57535 0
M  V30 21167 H 1989.2 -0.755121 -1.98524 0
M  V30 21168 H 1991.46 -0.27786 -0.906365 0
M  V30 21169 H 1991.17 -0.450582 -3.48802 0
M  V30 21170 H 1991.04 1.29884 -3.54133 0
M  V30 21171 H 1993.43 1.46253 -2.56308 0
M  V30 21172 H 1993.51 -0.304874 -2.53977 0
M  V30 21173 H 1993.15 -0.332277 -5.06812 0
M  V30 21174 H 1993.08 1.44786 -5.06305 0
M  V30 21175 H 1995.57 0.645043 -3.72354 0
M  V30 21176 H 1995.89 0.698672 -7.69635 0
M  V30 21177 H 1994.23 0.635256 -6.92091 0
M  V30 21178 H 1997.42 0.715861 -4.62594 0
M  V30 21179 H 1997.59 0.740542 -6.43755 0
M  V30 21180 N 1991 1.52564 0.395213 0
M  V30 21181 C 1992.25 1.67305 1.14085 0
M  V30 21182 C 1992.58 0.409869 1.90132 0
M  V30 21183 O 1991.83 -0.607574 1.8603 0
M  V30 21184 C 1992.13 2.85496 2.15004 0
M  V30 21185 C 1991.8 4.23179 1.55661 0
M  V30 21186 C 1990.46 4.60626 1.39202 0
M  V30 21187 C 1992.81 5.08923 1.12457 0
M  V30 21188 C 1990.14 5.81482 0.780775 0
M  V30 21189 C 1992.49 6.30397 0.527451 0
M  V30 21190 C 1991.15 6.66581 0.350111 0
M  V30 21191 H 1990.42 0.612211 0.417467 0
M  V30 21192 H 1993.07 1.86695 0.426269 0
M  V30 21193 H 1991.38 2.60496 2.92658 0
M  V30 21194 H 1993.07 2.94096 2.72595 0
M  V30 21195 H 1989.66 3.93678 1.69457 0
M  V30 21196 H 1993.85 4.80566 1.23976 0
M  V30 21197 H 1989.1 6.0813 0.631518 0
M  V30 21198 H 1993.28 6.96156 0.184351 0
M  V30 21199 H 1990.9 7.60096 -0.125616 0
M  V30 21200 N 1992.48 -0.653289 1.43422 0
M  V30 21201 C 1993.43 -1.75934 1.45021 0
M  V30 21202 C 1994.41 -1.57713 0.318677 0
M  V30 21203 O 1995.6 -1.67826 0.562454 0
M  V30 21204 C 1992.73 -3.14521 1.37591 0
M  V30 21205 C 1991.82 -3.38291 2.55773 0
M  V30 21206 N 1992.21 -3.32534 3.81123 0
M  V30 21207 C 1990.51 -3.6901 2.50495 0
M  V30 21208 C 1991.21 -3.56383 4.59746 0
M  V30 21209 N 1990.19 -3.78192 3.90476 0
M  V30 21210 H 1993.99 -1.69909 2.39809 0
M  V30 21211 H 1991.5 -0.854954 1.38074 0
M  V30 21212 H 1993.5 -3.9381 1.36819 0
M  V30 21213 H 1992.16 -3.21729 0.438229 0
M  V30 21214 H 1993.17 -3.11948 4.13412 0
M  V30 21215 H 1989.85 -3.83333 1.65415 0
M  V30 21216 H 1991.24 -3.57711 5.68764 0
M  V30 21217 N 1993.96 -1.29952 -0.891648 0
M  V30 21218 C 1995.37 -1.08138 -1.17381 0
M  V30 21219 C 1995.57 0.162165 -2.00846 0
M  V30 21220 O 1994.63 0.857667 -2.37488 0
M  V30 21221 C 1995.94 -2.34125 -1.88695 0
M  V30 21222 C 1997.49 -2.39524 -2.01487 0
M  V30 21223 C 1997.96 -3.65336 -2.76213 0
M  V30 21224 N 1999.46 -3.66105 -2.83762 0
M  V30 21225 C 2000.19 -4.6014 -3.42139 0
M  V30 21226 N 1999.69 -5.64513 -4.01617 0
M  V30 21227 N 2001.48 -4.47695 -3.3989 0
M  V30 21228 H 1993.63 -2.09742 -0.334958 0
M  V30 21229 H 1995.89 -0.924239 -0.210916 0
M  V30 21230 H 1995.6 -3.24839 -1.34805 0
M  V30 21231 H 1995.47 -2.42258 -2.89121 0
M  V30 21232 H 1997.86 -1.49293 -2.5455 0
M  V30 21233 H 1997.94 -2.35371 -1.0017 0
M  V30 21234 H 1997.59 -4.55922 -2.23824 0
M  V30 21235 H 1997.52 -3.66749 -3.77893 0
M  V30 21236 H 2000.01 -2.90643 -2.41526 0
M  V30 21237 H 2000.32 -6.32376 -4.44207 0
M  V30 21238 H 1998.66 -5.68313 -4.00056 0
M  V30 21239 H 2001.86 -3.65343 -2.92647 0
M  V30 21240 H 2002.03 -5.21162 -3.85089 0
M  V30 21241 N 1995.44 1.1031 -1.12559 0
M  V30 21242 C 1996.35 2.20257 -0.807721 0
M  V30 21243 C 1997.36 1.728 0.203997 0
M  V30 21244 O 1998.54 2.01365 0.0372766 0
M  V30 21245 C 1995.6 3.4566 -0.26839 0
M  V30 21246 C 1994.66 4.07844 -1.3402 0
M  V30 21247 C 1993.9 5.27261 -0.826511 0
M  V30 21248 O 1994.12 5.6939 0.339244 0
M  V30 21249 O 1993.05 5.80335 -1.5967 0
M  V30 21250 H 1996.88 2.49882 -1.72606 0
M  V30 21251 H 1994.46 1.19071 -0.902352 0
M  V30 21252 H 1996.35 4.21391 0.0274321 0
M  V30 21253 H 1995.02 3.17658 0.622489 0
M  V30 21254 H 1993.93 3.33791 -1.68921 0
M  V30 21255 H 1995.26 4.40051 -2.20489 0
M  V30 21256 N 1996.91 0.917694 1.28125 0
M  V30 21257 C 1998.16 0.552896 1.94806 0
M  V30 21258 C 1998.49 -0.904113 1.72209 0
M  V30 21259 O 1997.74 -1.65876 1.03844 0
M  V30 21260 C 1998.04 0.813214 3.48025 0
M  V30 21261 C 1997.71 2.25039 3.90728 0
M  V30 21262 C 1996.37 2.64331 4.02098 0
M  V30 21263 C 1998.72 3.18545 4.12527 0
M  V30 21264 C 1996.05 3.96274 4.32647 0
M  V30 21265 C 1998.4 4.50058 4.44557 0
M  V30 21266 C 1997.07 4.89198 4.54138 0
M  V30 21267 H 1996.34 0.202319 0.712845 0
M  V30 21268 H 1998.98 1.15976 1.52387 0
M  V30 21269 H 1997.29 0.123579 3.91605 0
M  V30 21270 H 1998.99 0.510076 3.97743 0
M  V30 21271 H 1995.58 1.93551 3.82408 0
M  V30 21272 H 1999.76 2.89395 4.03192 0
M  V30 21273 H 1995.02 4.26295 4.38272 0
M  V30 21274 H 1999.19 5.22523 4.60372 0
M  V30 21275 H 1996.82 5.91469 4.77565 0
M  V30 21276 N 1998.39 -1.42074 0.682102 0
M  V30 21277 C 1999.8 -1.8453 0.283805 0
M  V30 21278 C 2000.15 -1.5709 -1.17547 0
M  V30 21279 O 1999.28 -1.03444 -1.90075 0
M  V30 21280 C 1999.87 -3.34965 0.508316 0
M  V30 21281 C 1998.43 -3.76042 0.164069 0
M  V30 21282 C 1997.58 -2.65594 0.797204 0
M  V30 21283 H 2000.53 -1.31817 0.88374 0
M  V30 21284 H 2000.55 -3.7976 -0.237267 0
M  V30 21285 H 2000.06 -3.54905 1.57047 0
M  V30 21286 H 1998.16 -3.61707 -0.894353 0
M  V30 21287 H 1998.28 -4.75205 0.609688 0
M  V30 21288 H 1996.64 -2.53678 0.227913 0
M  V30 21289 H 1997.42 -2.88355 1.86296 0
M  V30 21290 N 1999.87 -0.425924 -1.51735 0
M  V30 21291 C 2000.82 0.391248 -2.2746 0
M  V30 21292 C 2001.79 1.02669 -1.30569 0
M  V30 21293 O 2002.97 1.04777 -1.59457 0
M  V30 21294 C 2000.11 1.4928 -3.11142 0
M  V30 21295 C 1999.22 0.876622 -4.23012 0
M  V30 21296 C 1998.36 1.95227 -4.94024 0
M  V30 21297 C 1997.4 1.31392 -5.97832 0
M  V30 21298 N 1996.54 2.33043 -6.62296 0
M  V30 21299 H 2001.38 -0.26089 -2.96856 0
M  V30 21300 H 1998.91 -0.1405 -1.46427 0
M  V30 21301 H 2000.87 2.14262 -3.57977 0
M  V30 21302 H 1999.5 2.11473 -2.43884 0
M  V30 21303 H 1998.55 0.115399 -3.80225 0
M  V30 21304 H 1999.86 0.370471 -4.97422 0
M  V30 21305 H 1999.02 2.67897 -5.44349 0
M  V30 21306 H 1997.76 2.49212 -4.19219 0
M  V30 21307 H 1996.76 0.572626 -5.4681 0
M  V30 21308 H 1997.99 0.781544 -6.74588 0
M  V30 21309 H 1995.93 2.86129 -5.9031 0
M  V30 21310 H 1995.85 1.87287 -7.32434 0
M  V30 21311 H 1997.12 3.05231 -7.17255 0
M  V30 21312 N 2001.35 1.56817 -0.156891 0
M  V30 21313 C 2002.59 1.96439 0.491735 0
M  V30 21314 C 2002.92 1.04222 1.64219 0
M  V30 21315 O 2002.18 0.0733934 1.95562 0
M  V30 21316 C 2002.48 3.42242 1.02981 0
M  V30 21317 C 2002.14 4.509 -0.00322619 0
M  V30 21318 C 2000.8 4.80342 -0.28718 0
M  V30 21319 C 2003.16 5.16407 -0.70518 0
M  V30 21320 C 2000.48 5.72595 -1.27872 0
M  V30 21321 C 2002.84 6.09729 -1.68561 0
M  V30 21322 C 2001.5 6.37546 -1.97716 0
M  V30 21323 H 2000.77 0.718821 0.179939 0
M  V30 21324 H 2003.42 1.89916 -0.24581 0
M  V30 21325 H 2001.72 3.45646 1.8449 0
M  V30 21326 H 2003.42 3.70232 1.54043 0
M  V30 21327 H 2000.01 4.27992 0.228269 0
M  V30 21328 H 2004.19 4.93785 -0.499006 0
M  V30 21329 H 1999.45 5.92436 -1.51094 0
M  V30 21330 H 2003.62 6.59562 -2.23498 0
M  V30 21331 H 2001.25 7.08833 -2.74698 0
M  V30 21332 N 2002.83 -0.116876 1.57166 0
M  V30 21333 C 2004.07 -0.824288 1.84964 0
M  V30 21334 C 2004.4 -1.79779 0.742287 0
M  V30 21335 O 2003.66 -1.93881 -0.26617 0
M  V30 21336 C 2003.95 -1.60659 3.19255 0
M  V30 21337 C 2003.62 -0.777185 4.44152 0
M  V30 21338 C 2002.28 -0.548471 4.78064 0
M  V30 21339 C 2004.63 -0.199197 5.20819 0
M  V30 21340 C 2001.96 0.26845 5.86086 0
M  V30 21341 C 2004.31 0.604927 6.29701 0
M  V30 21342 C 2002.98 0.843937 6.62143 0
M  V30 21343 H 2002.25 -0.301628 0.676832 0
M  V30 21344 H 2004.9 -0.0865824 1.91304 0
M  V30 21345 H 2003.2 -2.41526 3.08501 0
M  V30 21346 H 2004.9 -2.15794 3.37985 0
M  V30 21347 H 2001.49 -0.965541 4.17583 0
M  V30 21348 H 2005.67 -0.363107 4.9497 0
M  V30 21349 H 2000.93 0.462826 6.09646 0
M  V30 21350 H 2005.1 1.05977 6.88289 0
M  V30 21351 H 2002.73 1.47877 7.45679 0
M  V30 21352 N 2004.3 -1.52772 -0.387116 0
M  V30 21353 C 2005.53 -1.71787 -1.15312 0
M  V30 21354 C 2005.95 -0.437082 -1.83671 0
M  V30 21355 O 2005.3 0.588573 -1.72749 0
M  V30 21356 C 2005.35 -2.86869 -2.19974 0
M  V30 21357 O 2005.08 -4.0999 -1.54402 0
M  V30 21358 C 2006.58 -3.17579 -3.09287 0
M  V30 21359 H 2003.8 -0.575118 -0.345659 0
M  V30 21360 H 2006.34 -1.99428 -0.452607 0
M  V30 21361 H 2004.5 -2.61684 -2.85658 0
M  V30 21362 H 2004.91 -4.7428 -2.23961 0
M  V30 21363 H 2006.38 -4.01562 -3.7875 0
M  V30 21364 H 2006.86 -2.3204 -3.729 0
M  V30 21365 H 2007.47 -3.44611 -2.49246 0
M  V30 21366 N 2005.78 0.645673 -1.43767 0
M  V30 21367 C 2007.03 1.40547 -1.45783 0
M  V30 21368 C 2007.36 1.94314 -0.0849322 0
M  V30 21369 O 2006.61 1.73193 0.911191 0
M  V30 21370 C 2006.91 2.59872 -2.45359 0
M  V30 21371 C 2006.58 2.2448 -3.91049 0
M  V30 21372 C 2005.24 2.1454 -4.30728 0
M  V30 21373 C 2007.59 1.9628 -4.82829 0
M  V30 21374 C 2004.92 1.74567 -5.60128 0
M  V30 21375 C 2007.27 1.57804 -6.12602 0
M  V30 21376 C 2005.93 1.46395 -6.51249 0
M  V30 21377 H 2005.2 0.5143 -0.533458 0
M  V30 21378 H 2007.85 0.733575 -1.76892 0
M  V30 21379 H 2006.16 3.32229 -2.07681 0
M  V30 21380 H 2007.85 3.1809 -2.44171 0
M  V30 21381 H 2004.44 2.33129 -3.59651 0
M  V30 21382 H 2008.63 2.02877 -4.5294 0
M  V30 21383 H 2003.88 1.64326 -5.88903 0
M  V30 21384 H 2008.06 1.35018 -6.83186 0
M  V30 21385 H 2005.68 1.15193 -7.51422 0
M  V30 21386 N 2007.26 1.30423 0.884744 0
M  V30 21387 C 2008.68 1.08759 1.16806 0
M  V30 21388 C 2008.88 -0.151512 2.0093 0
M  V30 21389 O 2007.93 -0.84506 2.37939 0
M  V30 21390 C 2009.24 2.35123 1.87451 0
M  V30 21391 C 2010.79 2.40589 2.00214 0
M  V30 21392 C 2011.27 3.66796 2.74271 0
M  V30 21393 N 2012.76 3.67605 2.81817 0
M  V30 21394 C 2013.49 4.61948 3.39694 0
M  V30 21395 N 2012.99 5.66635 3.98618 0
M  V30 21396 N 2014.78 4.49492 3.37511 0
M  V30 21397 H 2006.93 2.09917 0.32383 0
M  V30 21398 H 2009.2 0.925345 0.206011 0
M  V30 21399 H 2008.9 3.25549 1.33081 0
M  V30 21400 H 2008.78 2.43788 2.87832 0
M  V30 21401 H 2011.16 1.50641 2.53754 0
M  V30 21402 H 2011.24 2.35899 0.989199 0
M  V30 21403 H 2010.89 4.57103 2.21403 0
M  V30 21404 H 2010.82 3.68748 3.75942 0
M  V30 21405 H 2013.31 2.9192 2.39981 0
M  V30 21406 H 2013.62 6.34723 4.40847 0
M  V30 21407 H 2011.97 5.70427 3.97037 0
M  V30 21408 H 2015.16 3.6689 2.90705 0
M  V30 21409 H 2015.33 5.23197 3.8232 0
M  V30 21410 N 2008.74 -1.09711 1.13142 0
M  V30 21411 C 2009.7 -2.14443 0.809114 0
M  V30 21412 C 2010.7 -1.59789 -0.18005 0
M  V30 21413 O 2011.89 -1.74137 0.0466686 0
M  V30 21414 C 2009.02 -3.40291 0.203714 0
M  V30 21415 H 2010.22 -2.44466 1.73713 0
M  V30 21416 H 2007.77 -1.252 0.935663 0
M  V30 21417 H 2008.5 -3.15892 -0.733667 0
M  V30 21418 H 2008.29 -3.8125 0.916003 0
M  V30 21419 H 2009.78 -4.176 -0.00503851 0
M  V30 21420 N 2010.22 -0.924476 -1.27637 0
M  V30 21421 C 2011.63 -0.62423 -1.46886 0
M  V30 21422 C 2011.83 0.827429 -1.83728 0
M  V30 21423 O 2010.89 1.6056 -1.94876 0
M  V30 21424 C 2012.2 -1.57134 -2.56378 0
M  V30 21425 C 2013.75 -1.57921 -2.7024 0
M  V30 21426 C 2014.22 -2.5132 -3.82886 0
M  V30 21427 N 2015.72 -2.49509 -3.90256 0
M  V30 21428 C 2016.45 -3.18469 -4.76828 0
M  V30 21429 N 2015.95 -3.96797 -5.67912 0
M  V30 21430 N 2017.74 -3.07503 -4.7053 0
M  V30 21431 H 2009.89 -1.86302 -1.02006 0
M  V30 21432 H 2012.15 -0.79968 -0.509132 0
M  V30 21433 H 2011.86 -2.60679 -2.36092 0
M  V30 21434 H 2011.73 -1.31058 -3.537 0
M  V30 21435 H 2014.12 -0.55109 -2.89909 0
M  V30 21436 H 2014.2 -1.88045 -1.73415 0
M  V30 21437 H 2013.85 -3.54241 -3.63972 0
M  V30 21438 H 2013.78 -2.18494 -4.79132 0
M  V30 21439 H 2016.27 -1.9262 -3.25124 0
M  V30 21440 H 2016.58 -4.4641 -6.30823 0
M  V30 21441 H 2014.92 -4.00901 -5.67718 0
M  V30 21442 H 2018.12 -2.45806 -3.98368 0
M  V30 21443 H 2018.29 -3.61517 -5.37782 0
M  V30 21444 N 2011.69 1.41711 -0.689627 0
M  V30 21445 C 2012.97 1.95052 -0.146379 0
M  V30 21446 C 2013.35 1.62932 1.34225 0
M  V30 21447 O 2012.7 0.933198 2.08575 0
M  V30 21448 C 2012.91 3.46324 -0.431327 0
M  V30 21449 C 2014.26 4.23106 -0.355847 0
M  V30 21450 O 2015.28 3.54316 -0.365905 0
M  V30 21451 O 2014.14 5.45615 -0.310824 0
M  V30 21452 H 2011.23 0.82692 -0.0115 0
M  V30 21453 H 2013.78 1.5146 -0.765378 0
M  V30 21454 H 2012.55 3.62963 -1.46197 0
M  V30 21455 H 2012.18 3.96997 0.218942 0
M  V30 21456 N 2013.17 0.433965 1.51507 0
M  V30 21457 C 2014.12 -0.37918 2.27664 0
M  V30 21458 C 2015.09 -1.01975 1.31112 0
M  V30 21459 O 2016.27 -1.0393 1.6001 0
M  V30 21460 C 2013.41 -1.47628 3.1193 0
M  V30 21461 C 2012.53 -0.854176 4.23471 0
M  V30 21462 C 2011.66 -1.92604 4.95053 0
M  V30 21463 C 2010.7 -1.28219 5.9852 0
M  V30 21464 N 2009.84 -2.29527 6.63522 0
M  V30 21465 H 2014.68 0.276629 2.96713 0
M  V30 21466 H 2012.22 0.148264 1.46351 0
M  V30 21467 H 2014.17 -2.1236 3.59109 0
M  V30 21468 H 2012.8 -2.10176 2.45002 0
M  V30 21469 H 2011.86 -0.0952329 3.80281 0
M  V30 21470 H 2013.17 -0.344086 4.97612 0
M  V30 21471 H 2012.32 -2.65006 5.45762 0
M  V30 21472 H 2011.06 -2.46985 4.20535 0
M  V30 21473 H 2010.07 -0.543619 5.47106 0
M  V30 21474 H 2011.29 -0.745758 6.74993 0
M  V30 21475 H 2009.24 -2.82995 5.91819 0
M  V30 21476 H 2009.15 -1.834 7.33417 0
M  V30 21477 H 2010.42 -3.01423 7.18863 0
M  V30 21478 N 2014.65 -1.56732 0.165206 0
M  V30 21479 C 2015.9 -1.96697 -0.481311 0
M  V30 21480 C 2016.23 -1.05092 -1.63664 0
M  V30 21481 O 2015.48 -0.0837635 -1.95521 0
M  V30 21482 C 2015.78 -3.42783 -1.01165 0
M  V30 21483 C 2015.45 -4.50892 0.0271385 0
M  V30 21484 C 2014.11 -4.80183 0.31265 0
M  V30 21485 C 2016.46 -5.16026 0.732556 0
M  V30 21486 C 2013.79 -5.71909 1.30907 0
M  V30 21487 C 2016.14 -6.08827 1.71792 0
M  V30 21488 C 2014.8 -6.36488 2.01094 0
M  V30 21489 H 2014.07 -0.719765 -0.176124 0
M  V30 21490 H 2016.72 -1.89783 0.255878 0
M  V30 21491 H 2015.03 -3.46619 -1.82654 0
M  V30 21492 H 2016.72 -3.71044 -1.52078 0
M  V30 21493 H 2013.31 -4.28107 -0.205569 0
M  V30 21494 H 2017.5 -4.93513 0.525186 0
M  V30 21495 H 2012.75 -5.91626 1.54234 0
M  V30 21496 H 2016.93 -6.58367 2.26993 0
M  V30 21497 H 2014.55 -7.07367 2.78454 0
M  V30 21498 N 2016.13 0.10854 -1.57226 0
M  V30 21499 C 2017.04 1.15125 -2.0441 0
M  V30 21500 C 2018.05 1.44693 -0.966436 0
M  V30 21501 O 2019.23 1.55601 -1.27868 0
M  V30 21502 C 2016.3 2.45528 -2.44779 0
M  V30 21503 C 2015.36 2.23263 -3.66677 0
M  V30 21504 C 2014.59 3.47448 -4.05112 0
M  V30 21505 O 2014.81 4.55164 -3.43776 0
M  V30 21506 O 2013.75 3.37831 -4.9815 0
M  V30 21507 H 2017.57 0.780533 -2.93498 0
M  V30 21508 H 2015.16 0.320091 -1.45931 0
M  V30 21509 H 2017.04 3.22339 -2.71432 0
M  V30 21510 H 2015.71 2.82052 -1.58834 0
M  V30 21511 H 2014.62 1.44276 -3.4516 0
M  V30 21512 H 2015.95 1.91638 -4.53361 0
M  V30 21513 N 2017.61 1.52975 0.379009 0
M  V30 21514 C 2018.52 1.81401 1.48764 0
M  V30 21515 C 2019.53 0.701435 1.59235 0
M  V30 21516 O 2020.71 0.990085 1.75383 0
M  V30 21517 C 2017.77 1.98593 2.84186 0
M  V30 21518 C 2016.83 3.22504 2.83354 0
M  V30 21519 C 2016.07 3.38866 4.12317 0
M  V30 21520 O 2016.29 2.59814 5.07792 0
M  V30 21521 O 2015.22 4.32165 4.18947 0
M  V30 21522 H 2019.05 2.75561 1.27671 0
M  V30 21523 H 2016.64 1.38189 0.56782 0
M  V30 21524 H 2018.52 2.11549 3.64451 0
M  V30 21525 H 2017.19 1.07622 3.05285 0
M  V30 21526 H 2016.1 3.14982 2.01835 0
M  V30 21527 H 2017.43 4.13353 2.67208 0
M  V30 21528 N 2019.08 -0.63804 1.44107 0
M  V30 21529 C 2020.36 -1.39606 1.37002 0
M  V30 21530 C 2020.74 -2.11085 0.0252978 0
M  V30 21531 O 2020.09 -2.0585 -0.991871 0
M  V30 21532 C 2020.3 -2.3682 2.56353 0
M  V30 21533 C 2021.65 -3.00362 3.00113 0
M  V30 21534 O 2022.67 -2.47147 2.56509 0
M  V30 21535 O 2021.53 -3.96881 3.75696 0
M  V30 21536 H 2018.62 -0.624471 0.542186 0
M  V30 21537 H 2021.17 -0.663674 1.56184 0
M  V30 21538 H 2019.94 -1.83054 3.45842 0
M  V30 21539 H 2019.57 -3.17487 2.39349 0
M  V30 21540 N 2020.56 -1.3089 -0.877815 0
M  V30 21541 C 2021.98 -1.09377 -1.16228 0
M  V30 21542 C 2022.18 0.140854 -2.01007 0
M  V30 21543 O 2021.23 0.83243 -2.38384 0
M  V30 21544 C 2022.55 -2.36114 -1.86201 0
M  V30 21545 C 2024.1 -2.41648 -1.98936 0
M  V30 21546 C 2024.57 -3.68245 -2.72322 0
M  V30 21547 N 2026.06 -3.69094 -2.79863 0
M  V30 21548 C 2026.8 -4.63743 -3.37239 0
M  V30 21549 N 2026.29 -5.68741 -3.95607 0
M  V30 21550 N 2028.09 -4.51275 -3.35122 0
M  V30 21551 H 2020.24 -2.10086 -0.312693 0
M  V30 21552 H 2022.5 -0.926425 -0.201101 0
M  V30 21553 H 2022.21 -3.26251 -1.31352 0
M  V30 21554 H 2022.08 -2.45311 -2.86535 0
M  V30 21555 H 2024.47 -1.51985 -2.52952 0
M  V30 21556 H 2024.55 -2.36421 -0.976675 0
M  V30 21557 H 2024.19 -4.58271 -2.18976 0
M  V30 21558 H 2024.12 -3.70736 -3.73982 0
M  V30 21559 H 2026.61 -2.93189 -2.3843 0
M  V30 21560 H 2026.93 -6.37052 -4.37475 0
M  V30 21561 H 2025.27 -5.72525 -3.94006 0
M  V30 21562 H 2028.46 -3.68426 -2.88755 0
M  V30 21563 H 2028.63 -5.25217 -3.7954 0
M  V30 21564 N 2022.04 1.0911 -1.13723 0
M  V30 21565 C 2023.29 1.80725 -0.895618 0
M  V30 21566 C 2023.6 1.86812 0.579725 0
M  V30 21567 O 2024.81 2.54768 0.938368 0
M  V30 21568 C 2023.26 3.24679 -1.55278 0
M  V30 21569 C 2022.87 3.26849 -3.06388 0
M  V30 21570 C 2024.62 4.01028 -1.392 0
M  V30 21571 C 2022.52 4.65347 -3.64974 0
M  V30 21572 H 2021.45 0.677257 -0.33142 0
M  V30 21573 H 2024.1 1.22603 -1.36531 0
M  V30 21574 H 2022.49 3.82883 -1.01075 0
M  V30 21575 H 2023.66 2.78393 -3.67198 0
M  V30 21576 H 2021.98 2.63993 -3.2202 0
M  V30 21577 H 2024.57 5.03356 -1.80379 0
M  V30 21578 H 2024.92 4.14932 -0.337236 0
M  V30 21579 H 2025.45 3.49274 -1.904 0
M  V30 21580 H 2022.19 4.56646 -4.70271 0
M  V30 21581 H 2021.71 5.14115 -3.08943 0
M  V30 21582 H 2023.39 5.34322 -3.64841 0
M  V30 21583 N 2023.52 0.931232 1.27145 0
M  V30 21584 C 2024.75 0.5891 1.98023 0
M  V30 21585 C 2025.16 -0.837994 1.6963 0
M  V30 21586 O 2024.5 -1.56901 0.955394 0
M  V30 21587 C 2024.56 0.7394 3.51814 0
M  V30 21588 C 2024.23 2.13927 4.03837 0
M  V30 21589 C 2025.22 3.11379 4.1634 0
M  V30 21590 C 2022.91 2.45717 4.38097 0
M  V30 21591 C 2024.9 4.38727 4.62382 0
M  V30 21592 C 2022.59 3.733 4.83829 0
M  V30 21593 C 2023.59 4.69618 4.95931 0
M  V30 21594 O 2023.27 5.94931 5.40659 0
M  V30 21595 H 2023.01 0.221707 0.638609 0
M  V30 21596 H 2025.56 1.25146 1.62873 0
M  V30 21597 H 2023.79 0.0199268 3.86695 0
M  V30 21598 H 2025.48 0.401803 4.03906 0
M  V30 21599 H 2026.25 2.88141 3.90128 0
M  V30 21600 H 2022.12 1.71488 4.27917 0
M  V30 21601 H 2025.67 5.13911 4.71743 0
M  V30 21602 H 2021.57 3.96355 5.09483 0
M  V30 21603 H 2022.33 5.9797 5.58905 0
M  V30 21604 N 2025 -1.41343 0.697132 0
M  V30 21605 C 2026.41 -1.5528 0.368838 0
M  V30 21606 C 2026.61 -1.67234 -1.12406 0
M  V30 21607 O 2025.67 -1.65163 -1.90991 0
M  V30 21608 C 2026.98 -2.79114 1.11873 0
M  V30 21609 C 2028.53 -2.92913 1.10323 0
M  V30 21610 C 2029.01 -4.19637 1.83491 0
M  V30 21611 N 2030.5 -4.26598 1.80468 0
M  V30 21612 C 2031.23 -5.23516 2.33919 0
M  V30 21613 N 2030.73 -6.26455 2.95849 0
M  V30 21614 N 2032.52 -5.15467 2.24166 0
M  V30 21615 H 2024.67 -1.31829 1.66538 0
M  V30 21616 H 2026.93 -0.636129 0.702882 0
M  V30 21617 H 2026.64 -2.76496 2.17354 0
M  V30 21618 H 2026.51 -3.70679 0.69833 0
M  V30 21619 H 2028.9 -2.95046 0.0566834 0
M  V30 21620 H 2028.98 -2.02517 1.56271 0
M  V30 21621 H 2028.63 -4.18265 2.88126 0
M  V30 21622 H 2028.56 -5.09008 1.34976 0
M  V30 21623 H 2031.05 -3.52842 1.35318 0
M  V30 21624 H 2031.36 -6.96801 3.34198 0
M  V30 21625 H 2029.71 -6.26952 2.99927 0
M  V30 21626 H 2032.9 -4.33973 1.75456 0
M  V30 21627 H 2033.07 -5.90831 2.66126 0
M  V30 21628 N 2026.48 -0.441993 -1.51275 0
M  V30 21629 C 2027.43 0.385139 -2.24724 0
M  V30 21630 C 2028.41 0.986167 -1.27136 0
M  V30 21631 O 2029.6 0.903536 -1.52201 0
M  V30 21632 C 2026.73 1.48313 -3.09609 0
M  V30 21633 C 2025.82 0.891271 -4.14629 0
M  V30 21634 N 2026.21 0.0290039 -5.05792 0
M  V30 21635 C 2024.51 1.15836 -4.30695 0
M  V30 21636 C 2025.21 -0.303891 -5.80906 0
M  V30 21637 N 2024.18 0.313669 -5.42694 0
M  V30 21638 H 2027.98 -0.279563 -2.92567 0
M  V30 21639 H 2025.5 -0.254348 -1.60396 0
M  V30 21640 H 2027.5 2.0886 -3.60809 0
M  V30 21641 H 2026.16 2.15012 -2.4331 0
M  V30 21642 H 2027.17 -0.337771 -5.16797 0
M  V30 21643 H 2023.84 1.8225 -3.75621 0
M  V30 21644 H 2025.23 -1.00584 -6.64329 0
M  V30 21645 N 2027.95 1.56642 -0.173515 0
M  V30 21646 C 2028.88 2.21076 0.751509 0
M  V30 21647 C 2029.86 1.16706 1.23749 0
M  V30 21648 O 2031.05 1.45142 1.29025 0
M  V30 21649 C 2028.18 2.85323 1.9801 0
M  V30 21650 C 2027.13 3.95751 1.62989 0
M  V30 21651 C 2026.46 4.47058 2.93332 0
M  V30 21652 C 2027.76 5.15234 0.856231 0
M  V30 21653 H 2029.45 2.98631 0.21442 0
M  V30 21654 H 2027 1.4364 0.101692 0
M  V30 21655 H 2028.95 3.29075 2.63226 0
M  V30 21656 H 2027.68 2.0514 2.54136 0
M  V30 21657 H 2026.34 3.52658 1.00141 0
M  V30 21658 H 2025.98 3.63663 3.47503 0
M  V30 21659 H 2025.68 5.21556 2.70652 0
M  V30 21660 H 2027.21 4.93497 3.59573 0
M  V30 21661 H 2028.62 5.55665 1.41102 0
M  V30 21662 H 2027.02 5.95663 0.728389 0
M  V30 21663 H 2028.09 4.84677 -0.147009 0
M  V30 21664 N 2029.43 -0.1002 1.57281 0
M  V30 21665 C 2030.34 -1.14039 2.05018 0
M  V30 21666 C 2031.36 -1.44178 0.974096 0
M  V30 21667 O 2032.53 -1.54921 1.28691 0
M  V30 21668 C 2029.6 -2.44226 2.46078 0
M  V30 21669 C 2028.66 -2.21315 3.67856 0
M  V30 21670 C 2027.89 -3.45295 4.06948 0
M  V30 21671 O 2028.12 -4.53334 3.46185 0
M  V30 21672 O 2027.05 -3.35185 4.99935 0
M  V30 21673 H 2030.88 -0.764957 2.93908 0
M  V30 21674 H 2028.46 -0.312347 1.46098 0
M  V30 21675 H 2030.34 -3.20895 2.73138 0
M  V30 21676 H 2029.02 -2.81206 1.60327 0
M  V30 21677 H 2027.92 -1.42444 3.4592 0
M  V30 21678 H 2029.26 -1.89231 4.54371 0
M  V30 21679 N 2030.91 -1.53174 -0.370891 0
M  V30 21680 C 2032.32 -1.60843 -0.94796 0
M  V30 21681 C 2032.67 -0.472528 -1.90425 0
M  V30 21682 O 2031.8 0.401822 -2.12637 0
M  V30 21683 C 2032.39 -2.91534 -1.72607 0
M  V30 21684 C 2030.95 -3.01557 -2.25257 0
M  V30 21685 C 2030.1 -2.561 -1.0634 0
M  V30 21686 H 2033.05 -1.57991 -0.149852 0
M  V30 21687 H 2033.07 -2.79038 -2.58685 0
M  V30 21688 H 2032.58 -3.74188 -1.02982 0
M  V30 21689 H 2030.68 -2.23479 -2.9814 0
M  V30 21690 H 2030.8 -4.06538 -2.53502 0
M  V30 21691 H 2029.16 -2.10849 -1.42881 0
M  V30 21692 H 2029.94 -3.41166 -0.38221 0
M  V30 21693 N 2032.39 0.630389 -1.44443 0
M  V30 21694 C 2033.35 1.72422 -1.51008 0
M  V30 21695 C 2034.35 1.55948 -0.392038 0
M  V30 21696 O 2035.54 1.61429 -0.654688 0
M  V30 21697 C 2032.67 3.1151 -1.38472 0
M  V30 21698 H 2033.87 1.67975 -2.48444 0
M  V30 21699 H 2031.42 0.844115 -1.31546 0
M  V30 21700 H 2032.15 3.21551 -0.421327 0
M  V30 21701 H 2031.94 3.24874 -2.19544 0
M  V30 21702 H 2033.43 3.91228 -1.46049 0
M  V30 21703 N 2033.87 1.31354 0.870861 0
M  V30 21704 C 2034.8 1.21518 1.99388 0
M  V30 21705 C 2035.78 0.102582 1.6979 0
M  V30 21706 O 2036.96 0.287028 1.92067 0
M  V30 21707 C 2034.09 0.920813 3.34871 0
M  V30 21708 C 2033.05 1.99289 3.78772 0
M  V30 21709 C 2032.37 1.55123 5.11704 0
M  V30 21710 C 2033.67 3.40589 3.95975 0
M  V30 21711 H 2035.37 2.15473 2.07875 0
M  V30 21712 H 2032.91 1.03734 0.998761 0
M  V30 21713 H 2034.86 0.838612 4.12971 0
M  V30 21714 H 2033.59 -0.0543971 3.26555 0
M  V30 21715 H 2032.25 2.06496 3.0291 0
M  V30 21716 H 2031.9 0.563901 4.99829 0
M  V30 21717 H 2031.6 2.26842 5.42048 0
M  V30 21718 H 2033.12 1.48308 5.92315 0
M  V30 21719 H 2034.53 3.36061 4.64474 0
M  V30 21720 H 2032.93 4.10517 4.37716 0
M  V30 21721 H 2034 3.8144 2.99385 0
M  V30 21722 N 2035.34 -1.08505 1.143 0
M  V30 21723 C 2036.31 -2.13573 0.831813 0
M  V30 21724 C 2037.31 -1.59971 -0.163092 0
M  V30 21725 O 2038.5 -1.74078 0.0651356 0
M  V30 21726 C 2035.63 -3.40056 0.239795 0
M  V30 21727 H 2036.82 -2.4261 1.76297 0
M  V30 21728 H 2034.37 -1.24201 0.94889 0
M  V30 21729 H 2035.11 -3.16652 -0.700121 0
M  V30 21730 H 2034.89 -3.80257 0.956388 0
M  V30 21731 H 2036.38 -4.17582 0.0392538 0
M  V30 21732 N 2036.82 -0.937962 -1.26649 0
M  V30 21733 C 2038.07 -0.583818 -1.93902 0
M  V30 21734 C 2038.4 0.876602 -1.73626 0
M  V30 21735 O 2037.65 1.64203 -1.0647 0
M  V30 21736 C 2037.95 -0.868478 -3.46687 0
M  V30 21737 C 2037.62 -2.31227 -3.87098 0
M  V30 21738 C 2036.28 -2.70695 -3.97841 0
M  V30 21739 C 2038.63 -3.25068 -4.07407 0
M  V30 21740 C 2035.96 -4.03107 -4.26288 0
M  V30 21741 C 2038.31 -4.57073 -4.37341 0
M  V30 21742 C 2036.97 -4.96361 -4.46298 0
M  V30 21743 H 2036.24 -0.213634 -0.709536 0
M  V30 21744 H 2038.89 -1.18386 -1.50522 0
M  V30 21745 H 2037.2 -0.185864 -3.91359 0
M  V30 21746 H 2038.89 -0.573289 -3.96881 0
M  V30 21747 H 2035.48 -1.99611 -3.7928 0
M  V30 21748 H 2039.67 -2.95773 -3.98537 0
M  V30 21749 H 2034.92 -4.33214 -4.31434 0
M  V30 21750 H 2039.1 -5.29781 -4.52001 0
M  V30 21751 H 2036.72 -5.98992 -4.68095 0
M  V30 21752 N 2038.3 1.40971 -0.704618 0
M  V30 21753 C 2039.23 2.29199 -0.00575899 0
M  V30 21754 C 2040.24 1.45259 0.735102 0
M  V30 21755 O 2041.43 1.68666 0.584302 0
M  V30 21756 C 2038.53 3.23311 1.01604 0
M  V30 21757 C 2037.71 4.36053 0.342951 0
M  V30 21758 C 2036.77 5.10679 1.26861 0
M  V30 21759 O 2035.79 5.64136 0.757556 0
M  V30 21760 N 2036.99 5.18997 2.60043 0
M  V30 21761 H 2039.76 2.89818 -0.763264 0
M  V30 21762 H 2037.32 1.52222 -0.551367 0
M  V30 21763 H 2039.31 3.70104 1.63722 0
M  V30 21764 H 2037.88 2.63937 1.675 0
M  V30 21765 H 2037.1 3.91527 -0.458254 0
M  V30 21766 H 2038.39 5.08647 -0.124708 0
M  V30 21767 H 2037.79 4.77029 3.04072 0
M  V30 21768 H 2036.34 5.69336 3.17333 0
M  V30 21769 N 2039.78 0.45001 1.51039 0
M  V30 21770 C 2040.71 -0.345315 2.30933 0
M  V30 21771 C 2041.69 -1.00959 1.36899 0
M  V30 21772 O 2042.87 -1.0108 1.6582 0
M  V30 21773 C 2040 -1.43968 3.16055 0
M  V30 21774 C 2038.96 -0.898198 4.18469 0
M  V30 21775 C 2038.28 -2.08927 4.92193 0
M  V30 21776 C 2039.58 0.0760911 5.22245 0
M  V30 21777 H 2041.28 0.321441 2.97669 0
M  V30 21778 H 2038.82 0.156032 1.43152 0
M  V30 21779 H 2040.78 -2.00338 3.70732 0
M  V30 21780 H 2039.5 -2.1349 2.47163 0
M  V30 21781 H 2038.16 -0.356617 3.64861 0
M  V30 21782 H 2037.81 -2.77098 4.19792 0
M  V30 21783 H 2037.51 -1.73328 5.61454 0
M  V30 21784 H 2039.03 -2.65827 5.49698 0
M  V30 21785 H 2040.45 -0.397728 5.71919 0
M  V30 21786 H 2038.84 0.345281 5.99106 0
M  V30 21787 H 2039.91 1.00878 4.74291 0
M  V30 21788 N 2041.26 -1.56548 0.18182 0
M  V30 21789 C 2042.17 -2.22065 -0.756597 0
M  V30 21790 C 2043.18 -1.21554 -1.24501 0
M  V30 21791 O 2044.36 -1.5425 -1.29495 0
M  V30 21792 C 2041.42 -2.85678 -1.9644 0
M  V30 21793 C 2040.48 -4.0142 -1.52185 0
M  V30 21794 C 2039.72 -4.61991 -2.67209 0
M  V30 21795 O 2039.94 -4.21463 -3.8435 0
M  V30 21796 O 2038.87 -5.51685 -2.40682 0
M  V30 21797 H 2042.7 -3.02838 -0.228696 0
M  V30 21798 H 2040.29 -1.49326 -0.0468661 0
M  V30 21799 H 2042.17 -3.25973 -2.67057 0
M  V30 21800 H 2040.84 -2.07894 -2.48116 0
M  V30 21801 H 2039.75 -3.65774 -0.784878 0
M  V30 21802 H 2041.08 -4.80828 -1.0519 0
M  V30 21803 N 2042.73 0.0918577 -1.57332 0
M  V30 21804 C 2043.66 1.11191 -2.05326 0
M  V30 21805 C 2044.65 1.41581 -0.942802 0
M  V30 21806 O 2045.83 1.51555 -1.21428 0
M  V30 21807 C 2042.96 2.4309 -2.48041 0
M  V30 21808 C 2041.91 2.271 -3.6278 0
M  V30 21809 C 2041.24 3.64205 -3.91482 0
M  V30 21810 C 2042.54 1.70886 -4.93554 0
M  V30 21811 H 2044.23 0.712608 -2.90796 0
M  V30 21812 H 2041.78 0.341338 -1.39896 0
M  V30 21813 H 2043.73 3.14724 -2.80226 0
M  V30 21814 H 2042.46 2.84962 -1.59575 0
M  V30 21815 H 2041.12 1.57911 -3.30847 0
M  V30 21816 H 2040.76 4.03611 -3.00179 0
M  V30 21817 H 2040.46 3.54352 -4.68731 0
M  V30 21818 H 2041.99 4.37302 -4.26145 0
M  V30 21819 H 2043.4 2.32364 -5.24099 0
M  V30 21820 H 2041.8 1.71783 -5.74987 0
M  V30 21821 H 2042.87 0.668569 -4.80269 0
M  V30 21822 N 2044.21 1.53368 0.362763 0
M  V30 21823 C 2045.16 1.80679 1.46485 0
M  V30 21824 C 2046.15 0.676074 1.55324 0
M  V30 21825 O 2047.36 0.859068 1.58177 0
M  V30 21826 H 2043.74 0.572116 0.488044 0
M  V30 21827 H 2045.71 2.72919 1.20656 0
M  V30 21828 C 2044.46 2.01611 2.83281 0
M  V30 21829 H 2043.78 2.88059 2.7724 0
M  V30 21830 H 2045.22 2.24696 3.59566 0
M  V30 21831 C 2043.68 0.796023 3.27361 0
M  V30 21832 O 2044.21 -0.0139218 4.01698 0
M  V30 21833 N 2042.41 0.618665 2.83938 0
M  V30 21834 H 2041.96 1.27892 2.2361 0
M  V30 21835 H 2041.92 -0.196265 3.13787 0
M  V30 21836 N 2045.69 -0.62272 1.44776 0
M  V30 21837 C 2047.11 -0.941829 1.28848 0
M  V30 21838 C 2047.31 -2.00178 0.230395 0
M  V30 21839 O 2046.36 -2.49611 -0.38085 0
M  V30 21840 C 2047.68 -1.39711 2.66273 0
M  V30 21841 C 2049.22 -1.51214 2.7405 0
M  V30 21842 C 2049.7 -2.00123 4.11964 0
M  V30 21843 N 2051.19 -2.07381 4.14183 0
M  V30 21844 C 2051.92 -2.46413 5.17753 0
M  V30 21845 N 2051.42 -2.84523 6.31679 0
M  V30 21846 N 2053.21 -2.46621 5.05109 0
M  V30 21847 H 2045.36 0.0781334 2.12256 0
M  V30 21848 H 2047.63 -0.0276831 0.947596 0
M  V30 21849 H 2047.33 -0.692534 3.44814 0
M  V30 21850 H 2047.21 -2.36654 2.93726 0
M  V30 21851 H 2049.59 -2.20767 1.95822 0
M  V30 21852 H 2049.68 -0.526248 2.50328 0
M  V30 21853 H 2049.32 -1.31163 4.90672 0
M  V30 21854 H 2049.25 -2.99599 4.33068 0
M  V30 21855 H 2051.74 -1.8058 3.31963 0
M  V30 21856 H 2052.05 -3.13144 7.06513 0
M  V30 21857 H 2050.4 -2.82254 6.35104 0
M  V30 21858 H 2053.59 -2.16244 4.15158 0
M  V30 21859 H 2053.76 -2.76715 5.85946 0
M  V30 21860 N 2047.17 -1.31814 -0.863883 0
M  V30 21861 C 2048.1 -1.14307 -1.97507 0
M  V30 21862 C 2049.08 -0.0449482 -1.62538 0
M  V30 21863 O 2050.26 -0.202523 -1.87409 0
M  V30 21864 C 2047.39 -0.74789 -3.3034 0
M  V30 21865 C 2046.44 -1.84993 -3.84291 0
M  V30 21866 S 2047.27 -3.45653 -4.09004 0
M  V30 21867 C 2048.43 -3.08085 -5.44825 0
M  V30 21868 H 2048.66 -2.08375 -2.12054 0
M  V30 21869 H 2046.19 -1.16369 -1.01478 0
M  V30 21870 H 2048.15 -0.52664 -4.07108 0
M  V30 21871 H 2046.81 0.173775 -3.13619 0
M  V30 21872 H 2046 -1.5262 -4.80337 0
M  V30 21873 H 2045.61 -2.02655 -3.14336 0
M  V30 21874 H 2047.9 -2.57356 -6.26717 0
M  V30 21875 H 2048.84 -4.03117 -5.82153 0
M  V30 21876 H 2049.25 -2.45359 -5.08389 0
M  V30 21877 N 2048.65 1.07897 -1.14873 0
M  V30 21878 C 2050.06 1.32467 -0.89021 0
M  V30 21879 C 2050.26 1.96041 0.46584 0
M  V30 21880 O 2049.32 2.21675 1.20899 0
M  V30 21881 C 2050.63 2.22118 -2.02692 0
M  V30 21882 C 2052.18 2.35583 -2.06082 0
M  V30 21883 C 2052.65 3.28579 -3.19061 0
M  V30 21884 N 2054.15 3.36158 -3.18673 0
M  V30 21885 C 2054.88 4.0816 -4.02731 0
M  V30 21886 N 2054.38 4.82826 -4.96841 0
M  V30 21887 N 2056.17 4.04045 -3.90774 0
M  V30 21888 H 2048.32 0.650155 -2.02205 0
M  V30 21889 H 2050.58 0.349072 -0.881393 0
M  V30 21890 H 2050.29 1.82656 -3.00549 0
M  V30 21891 H 2050.16 3.22612 -1.95452 0
M  V30 21892 H 2052.55 2.743 -1.08829 0
M  V30 21893 H 2052.63 1.34812 -2.17392 0
M  V30 21894 H 2052.28 2.90582 -4.16563 0
M  V30 21895 H 2052.21 4.2929 -3.04988 0
M  V30 21896 H 2054.7 2.82932 -2.50515 0
M  V30 21897 H 2055.01 5.35244 -5.57434 0
M  V30 21898 H 2053.35 4.81861 -5.00834 0
M  V30 21899 H 2056.55 3.44823 -3.16567 0
M  V30 21900 H 2056.72 4.59895 -4.56509 0
M  V30 21901 N 2050.12 0.944665 1.2615 0
M  V30 21902 C 2051.07 0.44787 2.28247 0
M  V30 21903 C 2052.07 -0.476672 1.62555 0
M  V30 21904 O 2053.27 -0.3545 1.76475 0
M  V30 21905 H 2049.65 0.126306 0.741317 0
M  V30 21906 H 2051.62 1.32142 2.67546 0
M  V30 21907 C 2050.37 -0.268298 3.46663 0
M  V30 21908 H 2049.69 0.433964 3.97438 0
M  V30 21909 H 2051.13 -0.580074 4.20013 0
M  V30 21910 C 2049.59 -1.48732 3.02292 0
M  V30 21911 O 2050.12 -2.58549 3.07434 0
M  V30 21912 N 2048.33 -1.34513 2.57594 0
M  V30 21913 H 2047.87 -0.451649 2.5361 0
M  V30 21914 H 2047.83 -2.16196 2.28269 0
M  V30 21915 N 2051.6 -1.40596 0.712085 0
M  V30 21916 C 2052.85 -2.0095 0.250087 0
M  V30 21917 C 2053.18 -1.5645 -1.15558 0
M  V30 21918 O 2052.43 -0.773994 -1.79744 0
M  V30 21919 C 2052.73 -3.56346 0.27427 0
M  V30 21920 C 2052.4 -4.20416 1.62975 0
M  V30 21921 C 2051.06 -4.37632 2.0008 0
M  V30 21922 C 2053.41 -4.56187 2.52076 0
M  V30 21923 C 2050.74 -4.87899 3.2584 0
M  V30 21924 C 2053.09 -5.07853 3.77185 0
M  V30 21925 C 2051.76 -5.23277 4.14412 0
M  V30 21926 H 2051.03 -0.735327 0.0915134 0
M  V30 21927 H 2053.67 -1.68257 0.914427 0
M  V30 21928 H 2051.98 -3.88927 -0.473638 0
M  V30 21929 H 2053.67 -4.00873 -0.100977 0
M  V30 21930 H 2050.26 -4.07403 1.3312 0
M  V30 21931 H 2054.45 -4.42527 2.24686 0
M  V30 21932 H 2049.7 -4.98026 3.54655 0
M  V30 21933 H 2053.88 -5.34509 4.46401 0
M  V30 21934 H 2051.51 -5.6199 5.11929 0
M  V30 21935 N 2053.08 -0.458013 -1.50798 0
M  V30 21936 C 2054.36 0.162411 -1.94925 0
M  V30 21937 C 2054.74 1.58194 -1.39777 0
M  V30 21938 O 2054.09 2.20663 -0.59332 0
M  V30 21939 C 2054.3 0.119083 -3.48797 0
M  V30 21940 C 2055.64 0.314458 -4.23434 0
M  V30 21941 O 2056.67 0.196266 -3.55659 0
M  V30 21942 O 2055.53 0.551722 -5.43708 0
M  V30 21943 H 2052.62 0.118781 -0.818425 0
M  V30 21944 H 2055.17 -0.517478 -1.61618 0
M  V30 21945 H 2053.94 -0.872528 -3.81448 0
M  V30 21946 H 2053.56 0.840995 -3.88604 0
M  V30 21947 N 2054.56 1.56449 -0.190119 0
M  V30 21948 C 2055.49 2.21861 0.728019 0
M  V30 21949 C 2056.47 1.18012 1.22504 0
M  V30 21950 O 2057.66 1.46503 1.27478 0
M  V30 21951 C 2054.79 2.87407 1.94973 0
M  V30 21952 C 2053.74 3.97457 1.58782 0
M  V30 21953 C 2053.07 4.50144 2.88573 0
M  V30 21954 C 2054.37 5.16113 0.801535 0
M  V30 21955 H 2056.06 2.98842 0.182734 0
M  V30 21956 H 2053.61 1.4374 0.0864508 0
M  V30 21957 H 2055.56 3.31848 2.59721 0
M  V30 21958 H 2054.28 2.07824 2.51946 0
M  V30 21959 H 2052.94 3.537 0.96395 0
M  V30 21960 H 2052.59 3.67328 3.43626 0
M  V30 21961 H 2052.29 5.24398 2.65105 0
M  V30 21962 H 2053.81 4.97283 3.54318 0
M  V30 21963 H 2055.23 5.5713 1.35201 0
M  V30 21964 H 2053.62 5.96402 0.66517 0
M  V30 21965 H 2054.69 4.84494 -0.198407 0
M  V30 21966 N 2056.04 -0.0835127 1.57379 0
M  V30 21967 C 2057.27 -0.798106 1.90887 0
M  V30 21968 C 2057.68 -1.71709 0.78496 0
M  V30 21969 O 2057.04 -1.80883 -0.242406 0
M  V30 21970 C 2057.09 -1.60168 3.24081 0
M  V30 21971 O 2056.81 -0.719655 4.32149 0
M  V30 21972 C 2058.31 -2.41831 3.71527 0
M  V30 21973 H 2055.53 -0.227571 0.631231 0
M  V30 21974 H 2058.07 -0.0572834 2.0442 0
M  V30 21975 H 2056.23 -2.2949 3.12111 0
M  V30 21976 H 2056.64 -1.27737 5.08708 0
M  V30 21977 H 2058.12 -2.93689 4.67387 0
M  V30 21978 H 2058.59 -3.20824 2.99948 0
M  V30 21979 H 2059.2 -1.77687 3.86403 0
M  V30 21980 N 2057.52 -1.53558 -0.354624 0
M  V30 21981 C 2058.48 -1.80084 -1.41783 0
M  V30 21982 C 2059.48 -0.671552 -1.46105 0
M  V30 21983 O 2060.67 -0.939801 -1.46674 0
M  V30 21984 C 2057.8 -1.93284 -2.8081 0
M  V30 21985 H 2058.99 -2.75049 -1.19532 0
M  V30 21986 H 2056.55 -1.44802 -0.588388 0
M  V30 21987 H 2057.28 -1.00423 -3.0836 0
M  V30 21988 H 2057.07 -2.75432 -2.7907 0
M  V30 21989 H 2058.56 -2.15361 -3.57784 0
M  V30 21990 N 2058.99 0.615033 -1.45104 0
M  V30 21991 C 2060.24 1.37029 -1.48007 0
M  V30 21992 C 2060.56 1.95213 -0.122939 0
M  V30 21993 O 2061.76 2.71484 -0.0295763 0
M  V30 21994 C 2060.22 2.48178 -2.60645 0
M  V30 21995 C 2059.83 1.96437 -4.02637 0
M  V30 21996 C 2061.57 3.25251 -2.72786 0
M  V30 21997 C 2059.48 3.05024 -5.0667 0
M  V30 21998 H 2058.41 0.515004 -0.550715 0
M  V30 21999 H 2061.06 0.659974 -1.71221 0
M  V30 22000 H 2059.44 3.2186 -2.307 0
M  V30 22001 H 2060.61 1.29514 -4.42225 0
M  V30 22002 H 2058.93 1.32132 -3.9488 0
M  V30 22003 H 2061.53 4.06229 -3.47681 0
M  V30 22004 H 2061.87 3.75776 -1.7916 0
M  V30 22005 H 2062.4 2.58666 -3.0222 0
M  V30 22006 H 2059.14 2.59425 -6.01979 0
M  V30 22007 H 2058.66 3.70538 -4.71658 0
M  V30 22008 H 2060.34 3.69532 -5.31089 0
M  V30 22009 N 2060.47 1.3227 0.85688 0
M  V30 22010 C 2061.88 1.20411 1.42682 0
M  V30 22011 C 2062.23 -0.184254 1.95333 0
M  V30 22012 O 2061.36 -1.08285 1.87359 0
M  V30 22013 C 2061.95 2.17989 2.59358 0
M  V30 22014 C 2060.51 2.10024 3.12357 0
M  V30 22015 C 2059.66 2.0648 1.85098 0
M  V30 22016 H 2062.61 1.4413 0.664236 0
M  V30 22017 H 2062.63 1.77712 3.3645 0
M  V30 22018 H 2062.14 3.19026 2.21007 0
M  V30 22019 H 2060.24 1.12227 3.55297 0
M  V30 22020 H 2060.36 2.99744 3.73752 0
M  V30 22021 H 2058.72 1.51687 2.04605 0
M  V30 22022 H 2059.5 3.09296 1.48967 0
M  V30 22023 N 2061.95 -1.07287 1.15444 0
M  V30 22024 C 2063.19 -1.8149 0.940261 0
M  V30 22025 C 2063.55 -1.84734 -0.523206 0
M  V30 22026 O 2064.75 -2.54815 -0.855738 0
M  V30 22027 C 2063.03 -3.22592 1.53848 0
M  V30 22028 S 2064.58 -4.13533 1.4675 0
M  V30 22029 H 2061.4 -0.625317 0.338377 0
M  V30 22030 H 2064 -1.28879 1.47005 0
M  V30 22031 H 2062.71 -3.1782 2.59651 0
M  V30 22032 H 2062.24 -3.80278 1.00758 0
M  V30 22033 H 2064.25 -4.94055 0.460833 0
M  V30 22034 N 2063.43 -0.951342 -1.25647 0
M  V30 22035 C 2064.39 -0.473447 -2.24257 0
M  V30 22036 C 2065.39 0.421053 -1.5519 0
M  V30 22037 O 2066.58 0.218803 -1.7282 0
M  V30 22038 C 2063.71 0.316367 -3.39429 0
M  V30 22039 H 2064.91 -1.34499 -2.68049 0
M  V30 22040 H 2062.46 -0.734296 -1.37978 0
M  V30 22041 H 2063.19 1.20572 -3.01053 0
M  V30 22042 H 2062.98 -0.325315 -3.90748 0
M  V30 22043 H 2064.47 0.640306 -4.12662 0
M  V30 22044 N 2064.91 1.40216 -0.719531 0
M  V30 22045 C 2065.85 2.32527 -0.0584211 0
M  V30 22046 C 2066.85 1.52249 0.742746 0
M  V30 22047 O 2068.05 1.68021 0.64567 0
M  V30 22048 H 2064.43 0.752 -8.96276e-05 0
M  V30 22049 H 2066.4 2.8593 -0.853622 0
M  V30 22050 C 2065.15 3.37242 0.846339 0
M  V30 22051 H 2064.47 3.99083 0.23926 0
M  V30 22052 H 2065.91 4.04319 1.2768 0
M  V30 22053 C 2064.37 2.7304 1.9736 0
M  V30 22054 O 2064.9 2.59677 3.06481 0
M  V30 22055 N 2063.11 2.31363 1.7584 0
M  V30 22056 H 2062.65 2.42431 0.870906 0
M  V30 22057 H 2062.61 1.88744 2.51442 0
M  V30 22058 N 2066.38 0.466004 1.50553 0
M  V30 22059 C 2067.33 -0.349338 2.25308 0
M  V30 22060 C 2068.32 -0.965816 1.28689 0
M  V30 22061 O 2069.51 -0.879208 1.53619 0
M  V30 22062 C 2066.64 -1.43369 3.1193 0
M  V30 22063 C 2065.72 -0.825194 4.15994 0
M  V30 22064 N 2066.12 0.0514669 5.05774 0
M  V30 22065 C 2064.41 -1.08969 4.32483 0
M  V30 22066 C 2065.11 0.39627 5.80349 0
M  V30 22067 N 2064.09 -0.227292 5.43125 0
M  V30 22068 H 2067.89 0.326072 2.92086 0
M  V30 22069 H 2065.41 0.279833 1.59971 0
M  V30 22070 H 2067.4 -2.03093 3.64086 0
M  V30 22071 H 2066.06 -2.11114 2.467 0
M  V30 22072 H 2067.07 0.419946 5.16195 0
M  V30 22073 H 2063.75 -1.76251 3.78473 0
M  V30 22074 H 2065.14 1.1114 6.62644 0
M  V30 22075 N 2067.86 -1.56346 0.198413 0
M  V30 22076 C 2068.81 -2.19245 -0.721128 0
M  V30 22077 C 2069.78 -1.14072 -1.20735 0
M  V30 22078 O 2070.96 -1.42336 -1.27063 0
M  V30 22079 C 2068.1 -2.85839 -1.93365 0
M  V30 22080 C 2067.22 -4.05546 -1.48849 0
M  V30 22081 C 2066.35 -4.59988 -2.65678 0
M  V30 22082 C 2065.39 -5.72046 -2.17784 0
M  V30 22083 N 2064.53 -6.20879 -3.27802 0
M  V30 22084 H 2069.37 -2.97468 -0.178003 0
M  V30 22085 H 2066.9 -1.46903 -0.076117 0
M  V30 22086 H 2068.86 -3.2262 -2.64522 0
M  V30 22087 H 2067.49 -2.10174 -2.45004 0
M  V30 22088 H 2066.54 -3.74405 -0.672674 0
M  V30 22089 H 2067.86 -4.86584 -1.09713 0
M  V30 22090 H 2067.01 -4.99092 -3.44952 0
M  V30 22091 H 2065.75 -3.78064 -3.08089 0
M  V30 22092 H 2064.75 -5.32467 -1.36964 0
M  V30 22093 H 2065.98 -6.5579 -1.76399 0
M  V30 22094 H 2063.93 -5.41876 -3.69738 0
M  V30 22095 H 2063.84 -6.96977 -2.92845 0
M  V30 22096 H 2065.11 -6.64637 -4.07281 0
M  V30 22097 N 2069.34 0.0751653 -1.57421 0
M  V30 22098 C 2070.27 1.12141 -1.98745 0
M  V30 22099 C 2071.25 1.37756 -0.863825 0
M  V30 22100 O 2072.44 1.51186 -1.12584 0
M  V30 22101 C 2069.56 2.46646 -2.32128 0
M  V30 22102 C 2068.61 2.37186 -3.54465 0
M  V30 22103 S 2069.44 1.76921 -5.0543 0
M  V30 22104 C 2070.6 3.13011 -5.4201 0
M  V30 22105 H 2070.83 0.769218 -2.87176 0
M  V30 22106 H 2068.36 0.283576 -1.51774 0
M  V30 22107 H 2070.32 3.24019 -2.52036 0
M  V30 22108 H 2068.98 2.79027 -1.44232 0
M  V30 22109 H 2068.18 3.3637 -3.75329 0
M  V30 22110 H 2067.78 1.67948 -3.3417 0
M  V30 22111 H 2070.07 4.09319 -5.39874 0
M  V30 22112 H 2071.01 2.96931 -6.42836 0
M  V30 22113 H 2071.42 3.13461 -4.6947 0
M  V30 22114 N 2070.82 1.53744 0.346476 0
M  V30 22115 C 2071.77 1.77908 1.42593 0
M  V30 22116 C 2072.75 0.634184 1.47875 0
M  V30 22117 O 2073.94 0.893482 1.52794 0
M  V30 22118 C 2071.07 1.9895 2.79775 0
M  V30 22119 C 2070.16 3.19496 2.78897 0
M  V30 22120 N 2070.55 4.41025 2.47651 0
M  V30 22121 C 2068.85 3.20605 3.10046 0
M  V30 22122 C 2069.55 5.22862 2.54932 0
M  V30 22123 N 2068.53 4.59509 2.90434 0
M  V30 22124 H 2072.33 2.69465 1.17328 0
M  V30 22125 H 2069.84 1.52629 0.554814 0
M  V30 22126 H 2071.84 2.14394 3.57549 0
M  V30 22127 H 2070.5 1.08632 3.05989 0
M  V30 22128 H 2071.51 4.68426 2.20901 0
M  V30 22129 H 2068.19 2.40246 3.4145 0
M  V30 22130 H 2069.58 6.29851 2.33959 0
M  V30 22131 N 2072.3 -0.607329 1.45428 0
M  V30 22132 C 2073.23 -1.72873 1.56962 0
M  V30 22133 C 2074.21 -1.64804 0.421159 0
M  V30 22134 O 2075.39 -1.83199 0.64433 0
M  V30 22135 C 2072.52 -3.11476 1.53622 0
M  V30 22136 C 2071.48 -3.34357 2.67188 0
M  V30 22137 C 2070.8 -4.73236 2.48902 0
M  V30 22138 C 2072.1 -3.24586 4.09196 0
M  V30 22139 H 2073.8 -1.63477 2.5083 0
M  V30 22140 H 2071.34 -0.785054 1.20718 0
M  V30 22141 H 2073.3 -3.89725 1.60288 0
M  V30 22142 H 2072.02 -3.21714 0.562838 0
M  V30 22143 H 2070.68 -2.58499 2.5995 0
M  V30 22144 H 2070.33 -4.80206 1.49702 0
M  V30 22145 H 2070.03 -4.895 3.25059 0
M  V30 22146 H 2071.55 -5.53684 2.57422 0
M  V30 22147 H 2072.96 -3.92709 4.17676 0
M  V30 22148 H 2071.36 -3.52381 4.85745 0
M  V30 22149 H 2072.43 -2.22022 4.31085 0
M  V30 22150 N 2073.77 -1.32722 -0.849853 0
M  V30 22151 C 2075 -1.26385 -1.63433 0
M  V30 22152 C 2075.41 0.169573 -1.88439 0
M  V30 22153 O 2074.76 1.11866 -1.45711 0
M  V30 22154 C 2074.82 -1.95887 -3.01444 0
M  V30 22155 C 2074.48 -3.45215 -2.99459 0
M  V30 22156 C 2075.48 -4.40614 -2.75962 0
M  V30 22157 C 2073.16 -3.87223 -3.19943 0
M  V30 22158 C 2075.16 -5.75996 -2.72959 0
M  V30 22159 C 2072.84 -5.22713 -3.16566 0
M  V30 22160 C 2073.84 -6.16911 -2.93104 0
M  V30 22161 O 2073.53 -7.49921 -2.8961 0
M  V30 22162 H 2073.26 -0.437171 -0.515614 0
M  V30 22163 H 2075.82 -1.75479 -1.06754 0
M  V30 22164 H 2074.05 -1.41369 -3.59933 0
M  V30 22165 H 2075.74 -1.83194 -3.62208 0
M  V30 22166 H 2076.5 -4.09484 -2.59899 0
M  V30 22167 H 2072.38 -3.14321 -3.37229 0
M  V30 22168 H 2075.92 -6.49494 -2.54566 0
M  V30 22169 H 2071.82 -5.53471 -3.32175 0
M  V30 22170 H 2072.59 -7.59338 -3.0553 0
M  V30 22171 N 2075.25 1.06673 -1.16011 0
M  V30 22172 C 2076.18 2.16027 -0.886249 0
M  V30 22173 C 2077.16 1.69289 0.165907 0
M  V30 22174 O 2078.35 1.94191 0.0188181 0
M  V30 22175 C 2075.48 3.45189 -0.382329 0
M  V30 22176 C 2074.43 4.05415 -1.37195 0
M  V30 22177 C 2073.76 5.2974 -0.726594 0
M  V30 22178 C 2075.06 4.44642 -2.74027 0
M  V30 22179 H 2076.75 2.39195 -1.80073 0
M  V30 22180 H 2074.3 1.14957 -0.867232 0
M  V30 22181 H 2076.25 4.21023 -0.17824 0
M  V30 22182 H 2074.98 3.21629 0.567641 0
M  V30 22183 H 2073.63 3.31634 -1.56252 0
M  V30 22184 H 2073.28 5.02475 0.229742 0
M  V30 22185 H 2072.98 5.70993 -1.38709 0
M  V30 22186 H 2074.51 6.08274 -0.532437 0
M  V30 22187 H 2075.92 5.11574 -2.58775 0
M  V30 22188 H 2074.32 4.96868 -3.36515 0
M  V30 22189 H 2075.39 3.55684 -3.29571 0
M  V30 22190 N 2076.73 0.957992 1.25141 0
M  V30 22191 C 2077.98 0.613378 1.92567 0
M  V30 22192 C 2078.3 -0.852805 1.75363 0
M  V30 22193 O 2077.57 -1.60775 1.11929 0
M  V30 22194 H 2076.15 0.223867 0.712666 0
M  V30 22195 H 2078.81 1.21696 1.52237 0
M  V30 22196 H 2077.91 0.845594 3.00427 0
M  V30 22197 N 2078.21 -1.39832 0.726957 0
M  V30 22198 C 2079.17 -2.29022 0.0903329 0
M  V30 22199 C 2080.17 -1.45921 -0.675553 0
M  V30 22200 O 2081.36 -1.66696 -0.505765 0
M  V30 22201 C 2078.49 -3.29304 -0.881584 0
M  V30 22202 H 2079.69 -2.86821 0.87601 0
M  V30 22203 H 2077.24 -1.48345 0.492294 0
M  V30 22204 H 2077.97 -2.76545 -1.69391 0
M  V30 22205 H 2077.76 -3.90665 -0.33514 0
M  V30 22206 H 2079.25 -3.96061 -1.32384 0
M  V30 22207 N 2079.69 -0.473982 -1.50304 0
M  V30 22208 C 2080.65 0.307394 -2.27129 0
M  V30 22209 C 2081.65 0.917901 -1.32027 0
M  V30 22210 O 2082.84 0.78663 -1.55428 0
M  V30 22211 C 2079.97 1.4382 -3.09077 0
M  V30 22212 H 2081.16 -0.366396 -2.97653 0
M  V30 22213 H 2078.72 -0.228128 -1.54626 0
M  V30 22214 H 2079.45 2.14696 -2.43056 0
M  V30 22215 H 2079.24 1.0062 -3.7897 0
M  V30 22216 H 2080.73 1.98932 -3.67173 0
M  V30 22217 N 2081.16 1.56239 -0.206702 0
M  V30 22218 C 2082.11 2.19624 0.709491 0
M  V30 22219 C 2083.08 1.1471 1.20128 0
M  V30 22220 O 2084.27 1.43008 1.26307 0
M  V30 22221 C 2081.41 2.8686 1.91847 0
M  V30 22222 C 2080.52 4.0633 1.46696 0
M  V30 22223 C 2079.65 4.6139 2.63235 0
M  V30 22224 C 2078.69 5.73193 2.14747 0
M  V30 22225 N 2077.83 6.22608 3.24505 0
M  V30 22226 H 2082.67 2.97558 0.162225 0
M  V30 22227 H 2080.21 1.46941 0.0683253 0
M  V30 22228 H 2082.17 3.24019 2.62807 0
M  V30 22229 H 2080.8 2.1147 2.43886 0
M  V30 22230 H 2079.85 3.74757 0.652809 0
M  V30 22231 H 2081.16 4.87159 1.07131 0
M  V30 22232 H 2080.31 5.00914 3.42301 0
M  V30 22233 H 2079.05 3.79693 3.0608 0
M  V30 22234 H 2078.06 5.33186 1.34139 0
M  V30 22235 H 2079.28 6.56716 1.72919 0
M  V30 22236 H 2077.23 5.43829 3.66859 0
M  V30 22237 H 2077.15 6.98521 2.89145 0
M  V30 22238 H 2078.41 6.66788 4.0375 0
M  V30 22239 N 2082.64 -0.0668159 1.57458 0
M  V30 22240 C 2083.89 -0.766159 1.87771 0
M  V30 22241 C 2084.22 -1.76973 0.799644 0
M  V30 22242 O 2083.5 -1.93574 -0.189554 0
M  V30 22243 C 2083.78 -1.46969 3.28743 0
M  V30 22244 C 2083.63 -0.482195 4.47208 0
M  V30 22245 C 2084.95 -2.41336 3.68029 0
M  V30 22246 H 2082.07 -0.277066 0.682937 0
M  V30 22247 H 2084.71 -0.0292751 1.89977 0
M  V30 22248 H 2082.86 -2.09781 3.26993 0
M  V30 22249 H 2084.53 0.141096 4.61084 0
M  V30 22250 H 2082.78 0.202041 4.33329 0
M  V30 22251 H 2083.45 -1.01218 5.42641 0
M  V30 22252 H 2085.92 -1.88598 3.70905 0
M  V30 22253 H 2084.8 -2.87562 4.67546 0
M  V30 22254 H 2085.06 -3.26361 2.98229 0
M  V30 22255 N 2084.12 -1.53926 -0.338317 0
M  V30 22256 C 2085.03 -1.85282 -1.43902 0
M  V30 22257 C 2086.05 -0.743407 -1.5732 0
M  V30 22258 O 2087.22 -1.03624 -1.72697 0
M  V30 22259 C 2084.29 -2.06058 -2.78821 0
M  V30 22260 C 2083.35 -3.29903 -2.74704 0
M  V30 22261 C 2082.58 -3.49679 -4.03188 0
M  V30 22262 O 2082.81 -2.73186 -5.00725 0
M  V30 22263 O 2081.74 -4.43121 -4.07342 0
M  V30 22264 H 2085.57 -2.78849 -1.2032 0
M  V30 22265 H 2083.15 -1.39646 -0.530982 0
M  V30 22266 H 2085.03 -2.21138 -3.58714 0
M  V30 22267 H 2083.71 -1.15679 -3.02325 0
M  V30 22268 H 2082.61 -3.20222 -1.93413 0
M  V30 22269 H 2083.95 -4.20292 -2.56155 0
M  V30 22270 N 2085.6 0.599608 -1.45748 0
M  V30 22271 C 2086.85 1.3604 -1.50403 0
M  V30 22272 C 2087.18 1.93632 -0.148419 0
M  V30 22273 O 2086.45 1.75516 0.838118 0
M  V30 22274 C 2086.74 2.50237 -2.58946 0
M  V30 22275 C 2086.59 1.9779 -4.03979 0
M  V30 22276 C 2087.91 3.52344 -2.63708 0
M  V30 22277 H 2085.03 0.49329 -0.547571 0
M  V30 22278 H 2087.67 0.675178 -1.77599 0
M  V30 22279 H 2085.82 3.0869 -2.35888 0
M  V30 22280 H 2087.49 1.43925 -4.38273 0
M  V30 22281 H 2085.73 1.28734 -4.14258 0
M  V30 22282 H 2086.41 2.80147 -4.75628 0
M  V30 22283 H 2088.88 3.03746 -2.8439 0
M  V30 22284 H 2087.76 4.29728 -3.41504 0
M  V30 22285 H 2088.02 4.08481 -1.69103 0
M  V30 22286 N 2087.08 1.33171 0.842803 0
M  V30 22287 C 2088.33 1.24159 1.59464 0
M  V30 22288 C 2088.65 -0.193595 1.94037 0
M  V30 22289 O 2087.92 -1.12135 1.60632 0
M  V30 22290 H 2086.5 0.456555 0.591241 0
M  V30 22291 H 2089.16 1.66842 1.00746 0
M  V30 22292 H 2088.25 1.83255 2.52634 0
M  V30 22293 N 2088.56 -1.06056 1.16576 0
M  V30 22294 C 2089.78 -1.82592 0.973019 0
M  V30 22295 C 2090.2 -1.82629 -0.478773 0
M  V30 22296 O 2089.56 -1.2472 -1.33233 0
M  V30 22297 C 2089.61 -3.291 1.49585 0
M  V30 22298 O 2089.33 -3.29189 2.89078 0
M  V30 22299 C 2090.83 -4.22357 1.34647 0
M  V30 22300 H 2088.05 -0.575656 0.344763 0
M  V30 22301 H 2090.59 -1.33793 1.5466 0
M  V30 22302 H 2088.75 -3.75202 0.964496 0
M  V30 22303 H 2089.16 -4.2082 3.13066 0
M  V30 22304 H 2090.64 -5.23171 1.76056 0
M  V30 22305 H 2091.11 -4.38226 0.292348 0
M  V30 22306 H 2091.72 -3.82103 1.86755 0
M  V30 22307 N 2090.03 -0.964615 -1.24631 0
M  V30 22308 C 2090.94 -0.499755 -2.29215 0
M  V30 22309 C 2091.96 0.43778 -1.68403 0
M  V30 22310 O 2093.14 0.311579 -1.98975 0
M  V30 22311 C 2090.2 0.205579 -3.4609 0
M  V30 22312 C 2089.26 -0.771401 -4.22313 0
M  V30 22313 C 2088.49 -0.0996328 -5.33607 0
M  V30 22314 O 2088.72 1.11269 -5.59442 0
M  V30 22315 O 2087.65 -0.79023 -5.9669 0
M  V30 22316 H 2091.48 -1.3691 -2.71089 0
M  V30 22317 H 2089.06 -0.731512 -1.30266 0
M  V30 22318 H 2090.94 0.601929 -4.17079 0
M  V30 22319 H 2089.62 1.04994 -3.06199 0
M  V30 22320 H 2088.53 -1.21815 -3.53712 0
M  V30 22321 H 2089.86 -1.58408 -4.66012 0
M  V30 22322 N 2091.51 1.39445 -0.734362 0
M  V30 22323 C 2092.76 2.00824 -0.282443 0
M  V30 22324 C 2093.09 1.58137 1.12722 0
M  V30 22325 O 2092.37 0.809969 1.76833 0
M  V30 22326 C 2092.65 3.58051 -0.38359 0
M  V30 22327 C 2092.5 4.10758 -1.83298 0
M  V30 22328 C 2093.82 4.39476 0.234349 0
M  V30 22329 H 2090.94 0.729611 -0.104103 0
M  V30 22330 H 2093.58 1.65661 -0.930397 0
M  V30 22331 H 2091.73 3.88136 0.168068 0
M  V30 22332 H 2093.4 3.91395 -2.44147 0
M  V30 22333 H 2091.65 3.64342 -2.35451 0
M  V30 22334 H 2092.32 5.19897 -1.85503 0
M  V30 22335 H 2094.79 4.15431 -0.235909 0
M  V30 22336 H 2093.67 5.48738 0.133228 0
M  V30 22337 H 2093.93 4.21924 1.32032 0
M  V30 22338 N 2092.99 0.481946 1.5005 0
M  V30 22339 C 2094.22 -0.0666474 2.06793 0
M  V30 22340 C 2094.63 -1.3254 1.34457 0
M  V30 22341 O 2093.99 -1.7767 0.417087 0
M  V30 22342 C 2094.04 -0.343693 3.59862 0
M  V30 22343 O 2093.76 0.86514 4.29473 0
M  V30 22344 C 2095.26 -0.93805 4.33261 0
M  V30 22345 H 2092.48 0.0119311 0.670894 0
M  V30 22346 H 2095.03 0.673843 1.93079 0
M  V30 22347 H 2093.18 -1.03413 3.73342 0
M  V30 22348 H 2093.6 0.616339 5.20866 0
M  V30 22349 H 2095.07 -1.0816 5.413 0
M  V30 22350 H 2095.55 -1.93098 3.94474 0
M  V30 22351 H 2096.15 -0.285663 4.2434 0
M  V30 22352 N 2094.47 -1.56127 0.214985 0
M  V30 22353 C 2095.74 -1.8994 -0.467153 0
M  V30 22354 C 2096.12 -1.13139 -1.78221 0
M  V30 22355 O 2095.47 -0.238654 -2.2725 0
M  V30 22356 C 2095.68 -3.42576 -0.666524 0
M  V30 22357 C 2097.03 -4.13209 -0.976927 0
M  V30 22358 O 2098.05 -3.48138 -0.753545 0
M  V30 22359 O 2096.91 -5.2825 -1.40052 0
M  V30 22360 H 2094.01 -0.789533 -0.246102 0
M  V30 22361 H 2096.55 -1.67748 0.256681 0
M  V30 22362 H 2095.33 -3.90426 0.261344 0
M  V30 22363 H 2094.95 -3.70526 -1.44209 0
M  V30 22364 N 2095.95 0.0584645 -1.57492 0
M  V30 22365 C 2097.18 0.766524 -1.91854 0
M  V30 22366 C 2097.58 1.70962 -0.810481 0
M  V30 22367 O 2096.93 1.82328 0.224122 0
M  V30 22368 C 2096.99 1.60277 -3.21794 0
M  V30 22369 C 2096.65 0.827629 -4.49443 0
M  V30 22370 C 2097.65 0.140903 -5.19709 0
M  V30 22371 C 2095.33 0.790858 -4.96035 0
M  V30 22372 C 2097.33 -0.572217 -6.34826 0
M  V30 22373 C 2095.02 0.0739737 -6.11055 0
M  V30 22374 C 2096.01 -0.606351 -6.80303 0
M  V30 22375 O 2095.7 -1.31166 -7.93127 0
M  V30 22376 H 2095.43 0.222315 -0.638398 0
M  V30 22377 H 2097.99 0.0289713 -2.0538 0
M  V30 22378 H 2096.22 2.38344 -3.04514 0
M  V30 22379 H 2097.91 2.19073 -3.41705 0
M  V30 22380 H 2098.67 0.160531 -4.84734 0
M  V30 22381 H 2094.55 1.30987 -4.41999 0
M  V30 22382 H 2098.1 -1.10379 -6.88812 0
M  V30 22383 H 2093.99 0.0523191 -6.45479 0
M  V30 22384 H 2094.76 -1.2223 -8.09322 0
M  V30 22385 N 2097.42 1.54103 0.330149 0
M  V30 22386 C 2098.84 1.44666 0.674089 0
M  V30 22387 C 2099.04 0.614208 1.91911 0
M  V30 22388 O 2098.1 0.110427 2.52258 0
M  V30 22389 C 2099.41 2.88311 0.854235 0
M  V30 22390 C 2100.96 2.98171 0.951998 0
M  V30 22391 C 2101.43 4.42952 1.16436 0
M  V30 22392 N 2102.92 4.46536 1.23125 0
M  V30 22393 C 2103.66 5.55709 1.41333 0
M  V30 22394 N 2103.15 6.74863 1.56626 0
M  V30 22395 N 2104.95 5.43345 1.43988 0
M  V30 22396 H 2097.1 2.06712 -0.488258 0
M  V30 22397 H 2099.36 0.934976 -0.1566 0
M  V30 22398 H 2099.07 3.51698 0.0107232 0
M  V30 22399 H 2098.94 3.34042 1.75202 0
M  V30 22400 H 2101.33 2.34916 1.78602 0
M  V30 22401 H 2101.41 2.55781 0.0308205 0
M  V30 22402 H 2101.05 5.06793 0.335219 0
M  V30 22403 H 2100.98 4.82946 2.09931 0
M  V30 22404 H 2103.47 3.60679 1.12777 0
M  V30 22405 H 2103.79 7.53826 1.70193 0
M  V30 22406 H 2102.13 6.77783 1.53737 0
M  V30 22407 H 2105.32 4.49211 1.31632 0
M  V30 22408 H 2105.5 6.28484 1.57836 0
M  V30 22409 N 2098.9 -0.59187 1.46064 0
M  V30 22410 C 2100.15 -1.3504 1.50899 0
M  V30 22411 C 2100.48 -1.93865 0.156992 0
M  V30 22412 O 2099.73 -1.76455 -0.846284 0
M  V30 22413 C 2100.03 -2.50587 2.54835 0
M  V30 22414 C 2099.7 -2.09811 3.99111 0
M  V30 22415 C 2098.36 -1.98406 4.38393 0
M  V30 22416 C 2100.71 -1.78225 4.89781 0
M  V30 22417 C 2098.04 -1.53658 5.66221 0
M  V30 22418 C 2100.39 -1.34959 6.18036 0
M  V30 22419 C 2099.06 -1.22123 6.56233 0
M  V30 22420 H 2098.33 -0.494146 0.552178 0
M  V30 22421 H 2100.97 -0.667418 1.79493 0
M  V30 22422 H 2099.28 -3.24292 2.19868 0
M  V30 22423 H 2100.97 -3.08809 2.55809 0
M  V30 22424 H 2097.56 -2.1962 3.68056 0
M  V30 22425 H 2101.75 -1.85927 4.60158 0
M  V30 22426 H 2097 -1.42356 5.94596 0
M  V30 22427 H 2101.18 -1.09569 6.87726 0
M  V30 22428 H 2098.81 -0.872249 7.55179 0
M  V30 22429 N 2100.38 -1.33616 -0.835729 0
M  V30 22430 C 2101.63 -1.25251 -1.59118 0
M  V30 22431 C 2101.96 0.180895 -1.93657 0
M  V30 22432 O 2101.21 1.1389 -1.59146 0
M  V30 22433 C 2101.51 -2.07621 -2.90909 0
M  V30 22434 C 2101.18 -3.56777 -2.75719 0
M  V30 22435 C 2099.84 -3.9744 -2.71283 0
M  V30 22436 C 2102.19 -4.51545 -2.60301 0
M  V30 22437 C 2099.52 -5.31083 -2.49334 0
M  V30 22438 C 2101.87 -5.85353 -2.39885 0
M  V30 22439 C 2100.53 -6.25195 -2.33853 0
M  V30 22440 H 2099.8 -0.458325 -0.582254 0
M  V30 22441 H 2102.45 -1.65234 -0.967991 0
M  V30 22442 H 2100.76 -1.60426 -3.5745 0
M  V30 22443 H 2102.45 -1.98504 -3.48421 0
M  V30 22444 H 2099.04 -3.24492 -2.80005 0
M  V30 22445 H 2103.23 -4.21036 -2.62759 0
M  V30 22446 H 2098.48 -5.60987 -2.43113 0
M  V30 22447 H 2102.66 -6.58386 -2.26939 0
M  V30 22448 H 2100.28 -7.28688 -2.16606 0
M  V30 22449 N 2101.86 1.05436 -1.17136 0
M  V30 22450 C 2103.1 1.78658 -0.959644 0
M  V30 22451 C 2103.44 1.87366 0.510659 0
M  V30 22452 O 2102.71 1.37162 1.37901 0
M  V30 22453 C 2103 3.22682 -1.59839 0
M  V30 22454 C 2102.85 3.22002 -3.14062 0
M  V30 22455 C 2104.17 4.20454 -1.30023 0
M  V30 22456 H 2101.29 0.648566 -0.350044 0
M  V30 22457 H 2103.93 1.23254 -1.44598 0
M  V30 22458 H 2102.08 3.69992 -1.18484 0
M  V30 22459 H 2103.75 2.82787 -3.64457 0
M  V30 22460 H 2101.99 2.60411 -3.46941 0
M  V30 22461 H 2102.66 4.23642 -3.53881 0
M  V30 22462 H 2105.14 3.81628 -1.65829 0
M  V30 22463 H 2104.02 5.19475 -1.77304 0
M  V30 22464 H 2104.28 4.41549 -0.220588 0
M  V30 22465 N 2103.34 0.971211 1.24118 0
M  V30 22466 C 2104.75 0.678316 1.44468 0
M  V30 22467 C 2104.95 -0.75867 1.86672 0
M  V30 22468 O 2104.01 -1.53217 2.00701 0
M  V30 22469 C 2105.32 1.66541 2.50369 0
M  V30 22470 C 2106.87 1.67842 2.64193 0
M  V30 22471 C 2107.34 2.65358 3.73295 0
M  V30 22472 N 2108.84 2.63821 3.80727 0
M  V30 22473 C 2109.57 3.35947 4.6468 0
M  V30 22474 N 2109.07 4.17602 5.52794 0
M  V30 22475 N 2110.86 3.24755 4.58793 0
M  V30 22476 H 2103.01 1.8996 0.950216 0
M  V30 22477 H 2105.27 0.818026 0.479101 0
M  V30 22478 H 2104.98 2.69261 2.26255 0
M  V30 22479 H 2104.85 1.44095 3.48592 0
M  V30 22480 H 2107.24 0.658308 2.87664 0
M  V30 22481 H 2107.32 1.94351 1.66316 0
M  V30 22482 H 2106.97 3.67505 3.50574 0
M  V30 22483 H 2106.9 2.36127 4.70693 0
M  V30 22484 H 2109.39 2.04554 3.17751 0
M  V30 22485 H 2109.7 4.69515 6.13821 0
M  V30 22486 H 2108.04 4.21695 5.52447 0
M  V30 22487 H 2111.24 2.60422 3.8897 0
M  V30 22488 H 2111.41 3.81228 5.23994 0
M  V30 22489 N 2104.81 -1.39054 0.741747 0
M  V30 22490 C 2105.78 -2.28913 0.114619 0
M  V30 22491 C 2106.78 -1.46629 -0.660038 0
M  V30 22492 O 2107.97 -1.67223 -0.488056 0
M  V30 22493 C 2105.1 -3.3022 -0.846607 0
M  V30 22494 H 2106.29 -2.85875 0.906381 0
M  V30 22495 H 2103.85 -1.47814 0.508001 0
M  V30 22496 H 2104.58 -2.78326 -1.66448 0
M  V30 22497 H 2104.37 -3.90999 -0.293686 0
M  V30 22498 H 2105.86 -3.97443 -1.28176 0
M  V30 22499 N 2106.29 -0.489897 -1.49792 0
M  V30 22500 C 2107.54 0.0603289 -2.0161 0
M  V30 22501 C 2107.85 1.39071 -1.37545 0
M  V30 22502 O 2109.06 2.02698 -1.80626 0
M  V30 22503 C 2107.52 0.157998 -3.59553 0
M  V30 22504 C 2107.12 -1.16507 -4.32585 0
M  V30 22505 C 2108.87 0.65918 -4.19351 0
M  V30 22506 C 2106.78 -1.03017 -5.82358 0
M  V30 22507 H 2105.71 0.0263203 -0.75354 0
M  V30 22508 H 2108.36 -0.627641 -1.72432 0
M  V30 22509 H 2106.74 0.910172 -3.85398 0
M  V30 22510 H 2107.91 -1.92967 -4.1845 0
M  V30 22511 H 2106.23 -1.59883 -3.84482 0
M  V30 22512 H 2108.82 0.77744 -5.29018 0
M  V30 22513 H 2109.17 1.65527 -3.81977 0
M  V30 22514 H 2109.7 -0.0361409 -3.97784 0
M  V30 22515 H 2106.44 -2.00019 -6.24238 0
M  V30 22516 H 2105.96 -0.306276 -5.99018 0
M  V30 22517 H 2107.64 -0.704383 -6.43154 0
M  V30 22518 N 2107.77 1.56011 -0.223262 0
M  V30 22519 C 2109.02 1.97523 0.40834 0
M  V30 22520 C 2109.33 1.11401 1.60777 0
M  V30 22521 O 2110.54 1.4282 2.309 0
M  V30 22522 C 2108.99 3.51393 0.777885 0
M  V30 22523 C 2108.6 4.46221 -0.398826 0
M  V30 22524 C 2110.35 4.01614 1.37499 0
M  V30 22525 C 2108.25 5.914 -0.00675168 0
M  V30 22526 H 2107.18 0.737614 0.156337 0
M  V30 22527 H 2109.83 1.80693 -0.319744 0
M  V30 22528 H 2108.22 3.6383 1.56344 0
M  V30 22529 H 2109.39 4.45532 -1.17635 0
M  V30 22530 H 2107.71 4.06351 -0.909284 0
M  V30 22531 H 2110.3 5.0758 1.68127 0
M  V30 22532 H 2110.65 3.47566 2.29137 0
M  V30 22533 H 2111.18 3.92406 0.65284 0
M  V30 22534 H 2107.92 6.49435 -0.889654 0
M  V30 22535 H 2107.44 5.95279 0.735052 0
M  V30 22536 H 2109.12 6.4564 0.419339 0
M  V30 22537 N 2109.25 -0.0501116 1.5752 0
M  V30 22538 C 2110.66 -0.405366 1.54366 0
M  V30 22539 C 2110.86 -1.77885 0.946523 0
M  V30 22540 O 2109.92 -2.46248 0.558406 0
M  V30 22541 C 2111.23 -0.326523 2.98922 0
M  V30 22542 C 2112.78 -0.40514 3.10367 0
M  V30 22543 C 2113.26 -0.355974 4.56615 0
M  V30 22544 N 2114.75 -0.415404 4.61334 0
M  V30 22545 C 2115.48 -0.39992 5.72004 0
M  V30 22546 N 2114.98 -0.337966 6.91975 0
M  V30 22547 N 2116.77 -0.448091 5.60311 0
M  V30 22548 H 2108.92 0.848979 1.94695 0
M  V30 22549 H 2111.19 0.320787 0.892076 0
M  V30 22550 H 2110.89 0.616487 3.46255 0
M  V30 22551 H 2110.77 -1.12839 3.59927 0
M  V30 22552 H 2113.15 -1.33858 2.62995 0
M  V30 22553 H 2113.23 0.425702 2.52233 0
M  V30 22554 H 2112.88 0.573705 5.04649 0
M  V30 22555 H 2112.81 -1.20464 5.12636 0
M  V30 22556 H 2115.3 -0.466654 3.75008 0
M  V30 22557 H 2115.61 -0.330673 7.72092 0
M  V30 22558 H 2113.96 -0.304327 6.94333 0
M  V30 22559 H 2117.15 -0.494336 4.65482 0
M  V30 22560 H 2117.32 -0.432555 6.46555 0
M  V30 22561 N 2110.73 -1.54276 -0.321972 0
M  V30 22562 C 2111.68 -1.80154 -1.39745 0
M  V30 22563 C 2112.66 -0.65763 -1.46847 0
M  V30 22564 O 2113.85 -0.917677 -1.51353 0
M  V30 22565 C 2110.98 -2.03375 -2.76574 0
M  V30 22566 C 2110.07 -3.23892 -2.73779 0
M  V30 22567 N 2110.46 -4.44909 -2.40603 0
M  V30 22568 C 2108.76 -3.25497 -3.04906 0
M  V30 22569 C 2109.46 -5.26851 -2.46582 0
M  V30 22570 N 2108.43 -4.64072 -2.83087 0
M  V30 22571 H 2112.24 -2.71297 -1.13026 0
M  V30 22572 H 2109.75 -1.53492 -0.530462 0
M  V30 22573 H 2111.75 -2.20055 -3.54092 0
M  V30 22574 H 2110.41 -1.13487 -3.04222 0
M  V30 22575 H 2111.42 -4.71881 -2.13421 0
M  V30 22576 H 2108.09 -2.45648 -3.37585 0
M  V30 22577 H 2109.48 -6.33494 -2.23909 0
M  V30 22578 N 2112.2 0.584116 -1.46376 0
M  V30 22579 C 2113.43 1.37331 -1.55419 0
M  V30 22580 C 2113.85 1.87082 -0.195472 0
M  V30 22581 O 2113.21 1.61486 0.824141 0
M  V30 22582 C 2113.26 2.53779 -2.56181 0
M  V30 22583 O 2112.36 3.55172 -2.09586 0
M  V30 22584 H 2111.71 0.409042 -0.523049 0
M  V30 22585 H 2114.24 0.708655 -1.91936 0
M  V30 22586 H 2114.25 3.00715 -2.75744 0
M  V30 22587 H 2112.92 2.16921 -3.5485 0
M  V30 22588 H 2111.5 3.14726 -2.00005 0
M  V30 22589 N 2113.68 1.34058 0.828631 0
M  V30 22590 C 2114.96 1.1668 1.56988 0
M  V30 22591 C 2115.34 -0.262846 2.09457 0
M  V30 22592 O 2114.69 -1.26337 1.90398 0
M  V30 22593 C 2114.9 2.21657 2.69572 0
M  V30 22594 C 2116.25 2.56341 3.38489 0
M  V30 22595 O 2117.27 2.20402 2.79824 0
M  V30 22596 O 2116.13 3.18053 4.44415 0
M  V30 22597 H 2113.22 0.451944 0.692586 0
M  V30 22598 H 2115.77 1.45672 0.870498 0
M  V30 22599 H 2114.54 3.17643 2.28515 0
M  V30 22600 H 2114.16 1.93809 3.47166 0
M  V30 22601 N 2115.16 -1.04814 1.17694 0
M  V30 22602 C 2116.09 -2.1459 0.920505 0
M  V30 22603 C 2117.07 -1.69531 -0.138953 0
M  V30 22604 O 2118.26 -1.94196 0.0120784 0
M  V30 22605 C 2115.39 -3.44537 0.437198 0
M  V30 22606 C 2114.34 -4.03181 1.43628 0
M  V30 22607 C 2113.67 -5.28517 0.810779 0
M  V30 22608 C 2114.97 -4.40226 2.81066 0
M  V30 22609 H 2116.66 -2.363 1.83856 0
M  V30 22610 H 2114.21 -1.13563 0.885411 0
M  V30 22611 H 2116.16 -4.20686 0.245199 0
M  V30 22612 H 2114.88 -3.22492 -0.516401 0
M  V30 22613 H 2113.54 -3.29106 1.61508 0
M  V30 22614 H 2113.19 -5.02777 -0.149773 0
M  V30 22615 H 2112.89 -5.68714 1.47776 0
M  V30 22616 H 2114.42 -6.0735 0.62914 0
M  V30 22617 H 2115.83 -5.07393 2.66881 0
M  V30 22618 H 2114.23 -4.91451 3.44377 0
M  V30 22619 H 2115.3 -3.50396 3.35188 0
M  V30 22620 N 2116.64 -0.977779 -1.23601 0
M  V30 22621 C 2117.89 -0.646167 -1.9223 0
M  V30 22622 C 2118.22 0.817893 -1.76137 0
M  V30 22623 O 2117.49 1.58966 -1.12071 0
M  V30 22624 C 2117.78 -1.03412 -3.44932 0
M  V30 22625 C 2117.63 -2.55561 -3.70147 0
M  V30 22626 C 2118.95 -0.576087 -4.36313 0
M  V30 22627 H 2116.07 -0.236222 -0.698118 0
M  V30 22628 H 2118.71 -1.21859 -1.45775 0
M  V30 22629 H 2116.86 -0.547033 -3.84629 0
M  V30 22630 H 2118.53 -3.11824 -3.39947 0
M  V30 22631 H 2116.77 -2.98312 -3.14949 0
M  V30 22632 H 2117.45 -2.77756 -4.77028 0
M  V30 22633 H 2119.92 -0.994237 -4.04047 0
M  V30 22634 H 2118.8 -0.875993 -5.41865 0
M  V30 22635 H 2119.06 0.523647 -4.38988 0
M  V30 22636 N 2118.12 1.38658 -0.749111 0
M  V30 22637 C 2119.35 2.04504 -0.313958 0
M  V30 22638 C 2119.76 1.56495 1.05616 0
M  V30 22639 O 2119.12 0.736036 1.66999 0
M  V30 22640 C 2119.17 3.60059 -0.322507 0
M  V30 22641 O 2118.89 4.06304 -1.63855 0
M  V30 22642 C 2120.39 4.43118 0.127067 0
M  V30 22643 H 2117.61 0.657312 -0.134841 0
M  V30 22644 H 2120.15 1.77435 -1.01671 0
M  V30 22645 H 2118.31 3.85979 0.331471 0
M  V30 22646 H 2118.72 5.00711 -1.56169 0
M  V30 22647 H 2120.2 5.51956 0.0699241 0
M  V30 22648 H 2120.67 4.2321 1.17431 0
M  V30 22649 H 2121.28 4.22376 -0.49787 0
M  V30 22650 N 2119.6 0.497834 1.49531 0
M  V30 22651 C 2120.54 -0.282279 2.29067 0
M  V30 22652 C 2121.51 -0.963221 1.35319 0
M  V30 22653 O 2122.7 -0.970497 1.64274 0
M  V30 22654 C 2119.84 -1.34265 3.1791 0
M  V30 22655 C 2118.95 -0.673799 4.26713 0
M  V30 22656 C 2118.09 -1.71434 5.02776 0
M  V30 22657 C 2117.12 -1.02719 6.0342 0
M  V30 22658 N 2116.26 -2.01178 6.7266 0
M  V30 22659 H 2121.1 0.402227 2.95273 0
M  V30 22660 H 2118.64 0.210203 1.4559 0
M  V30 22661 H 2120.6 -1.96938 3.67792 0
M  V30 22662 H 2119.23 -1.99596 2.53695 0
M  V30 22663 H 2118.28 0.0661428 3.80342 0
M  V30 22664 H 2119.59 -0.132722 4.98623 0
M  V30 22665 H 2118.74 -2.4162 5.56511 0
M  V30 22666 H 2117.48 -2.28926 4.30632 0
M  V30 22667 H 2116.49 -0.311083 5.48919 0
M  V30 22668 H 2117.71 -0.458799 6.77548 0
M  V30 22669 H 2115.66 -2.57639 6.0329 0
M  V30 22670 H 2115.58 -1.52128 7.40536 0
M  V30 22671 H 2116.84 -2.70663 7.31001 0
M  V30 22672 N 2121.07 -1.5589 0.231532 0
M  V30 22673 C 2121.98 -2.24359 -0.685566 0
M  V30 22674 C 2123 -1.25454 -1.20571 0
M  V30 22675 O 2124.18 -1.58292 -1.24522 0
M  V30 22676 C 2121.24 -2.91783 -1.87252 0
M  V30 22677 C 2120.3 -4.06059 -1.39337 0
M  V30 22678 C 2119.53 -4.70258 -2.52375 0
M  V30 22679 O 2119.76 -4.33477 -3.70747 0
M  V30 22680 O 2118.69 -5.59063 -2.23008 0
M  V30 22681 H 2122.52 -3.03412 -0.132235 0
M  V30 22682 H 2120.1 -1.494 0.000664697 0
M  V30 22683 H 2121.98 -3.34305 -2.56551 0
M  V30 22684 H 2120.66 -2.15683 -2.41377 0
M  V30 22685 H 2119.57 -3.68086 -0.668112 0
M  V30 22686 H 2120.9 -4.83932 -0.898393 0
M  V30 22687 N 2122.55 0.0417572 -1.57545 0
M  V30 22688 C 2123.51 1.03085 -2.0471 0
M  V30 22689 C 2124.51 1.29808 -0.94903 0
M  V30 22690 O 2125.7 1.25024 -1.21304 0
M  V30 22691 C 2122.84 2.367 -2.45329 0
M  V30 22692 H 2124.03 0.623701 -2.93343 0
M  V30 22693 H 2121.58 0.288275 -1.53619 0
M  V30 22694 H 2122.32 2.82188 -1.59813 0
M  V30 22695 H 2122.1 2.18637 -3.25485 0
M  V30 22696 H 2123.59 3.07737 -2.8229 0
M  V30 22697 N 2124.03 1.54445 0.313786 0
M  V30 22698 C 2125.25 1.77413 1.07421 0
M  V30 22699 C 2125.68 0.525885 1.80599 0
M  V30 22700 O 2125.04 -0.523027 1.73592 0
M  V30 22701 C 2125.09 2.97322 2.04039 0
M  V30 22702 O 2124.19 2.69552 3.12115 0
M  V30 22703 H 2123.53 0.587597 0.309235 0
M  V30 22704 H 2126.06 2.01495 0.355102 0
M  V30 22705 H 2126.07 3.2494 2.46735 0
M  V30 22706 H 2124.75 3.87839 1.5018 0
M  V30 22707 H 2123.32 2.52913 2.74025 0
M  V30 22708 N 2125.51 -0.576345 1.46683 0
M  V30 22709 C 2126.75 -1.33432 1.52323 0
M  V30 22710 C 2127.08 -1.93688 0.177545 0
M  V30 22711 O 2126.34 -1.77343 -0.827521 0
M  V30 22712 C 2126.64 -2.4787 2.57479 0
M  V30 22713 C 2126.3 -2.05566 4.01314 0
M  V30 22714 C 2124.96 -1.93745 4.40473 0
M  V30 22715 C 2127.32 -1.7302 4.91644 0
M  V30 22716 C 2124.64 -1.47644 5.67819 0
M  V30 22717 C 2127 -1.28396 6.19433 0
M  V30 22718 C 2125.66 -1.15156 6.57492 0
M  V30 22719 H 2124.93 -0.488262 0.557388 0
M  V30 22720 H 2127.58 -0.648342 1.80191 0
M  V30 22721 H 2125.88 -3.21942 2.23295 0
M  V30 22722 H 2127.58 -3.06078 2.5907 0
M  V30 22723 H 2124.17 -2.15704 3.70364 0
M  V30 22724 H 2128.35 -1.81036 4.62104 0
M  V30 22725 H 2123.61 -1.36041 5.96073 0
M  V30 22726 H 2127.78 -1.02268 6.8885 0
M  V30 22727 H 2125.41 -0.792103 7.56062 0
M  V30 22728 N 2126.99 -1.34495 -0.82151 0
M  V30 22729 C 2127.9 -1.28265 -1.96431 0
M  V30 22730 C 2128.91 -0.190092 -1.72959 0
M  V30 22731 O 2130.09 -0.416817 -1.9704 0
M  V30 22732 C 2127.15 -1.03935 -3.30754 0
M  V30 22733 C 2126.21 -2.22361 -3.67225 0
M  V30 22734 C 2125.45 -1.99182 -4.95139 0
M  V30 22735 O 2125.67 -0.950771 -5.6242 0
M  V30 22736 O 2124.6 -2.86169 -5.2952 0
M  V30 22737 H 2128.43 -2.2441 -2.04631 0
M  V30 22738 H 2126.01 -1.14716 -0.957114 0
M  V30 22739 H 2127.9 -0.921538 -4.112 0
M  V30 22740 H 2126.57 -0.108311 -3.23519 0
M  V30 22741 H 2125.48 -2.39702 -2.87217 0
M  V30 22742 H 2126.81 -3.1386 -3.79147 0
M  V30 22743 N 2128.46 1.04188 -1.18248 0
M  V30 22744 C 2129.69 1.80759 -1.00049 0
M  V30 22745 C 2130.1 1.83665 0.454284 0
M  V30 22746 O 2129.45 1.26996 1.32732 0
M  V30 22747 C 2129.51 3.27737 -1.47745 0
M  V30 22748 C 2129.17 3.48494 -2.95637 0
M  V30 22749 C 2130.17 3.39784 -3.93501 0
M  V30 22750 C 2127.85 3.7513 -3.3404 0
M  V30 22751 C 2129.85 3.57413 -5.27764 0
M  V30 22752 C 2127.53 3.92406 -4.68467 0
M  V30 22753 C 2128.53 3.83547 -5.65137 0
M  V30 22754 O 2128.22 4.0033 -6.97131 0
M  V30 22755 H 2127.95 0.576122 -0.353638 0
M  V30 22756 H 2130.51 1.32208 -1.57195 0
M  V30 22757 H 2128.74 3.77251 -0.84964 0
M  V30 22758 H 2130.43 3.85862 -1.25956 0
M  V30 22759 H 2131.19 3.19172 -3.65177 0
M  V30 22760 H 2127.07 3.81123 -2.59357 0
M  V30 22761 H 2130.61 3.50415 -6.03204 0
M  V30 22762 H 2126.51 4.12512 -4.96492 0
M  V30 22763 H 2127.28 4.17497 -7.04016 0
M  V30 22764 N 2129.94 0.98432 1.23081 0
M  V30 22765 C 2130.87 0.547274 2.26996 0
M  V30 22766 C 2131.85 -0.421528 1.64794 0
M  V30 22767 O 2133.04 -0.314036 1.91644 0
M  V30 22768 C 2130.17 -0.147283 3.46988 0
M  V30 22769 C 2129.12 0.739194 4.21568 0
M  V30 22770 C 2128.45 -0.0877981 5.34628 0
M  V30 22771 C 2129.75 2.03191 4.81156 0
M  V30 22772 H 2131.44 1.41586 2.63806 0
M  V30 22773 H 2128.99 0.682245 1.26813 0
M  V30 22774 H 2130.94 -0.464368 4.18834 0
M  V30 22775 H 2129.67 -1.05035 3.09249 0
M  V30 22776 H 2128.32 1.03979 3.51545 0
M  V30 22777 H 2127.97 -0.99152 4.93131 0
M  V30 22778 H 2127.67 0.50225 5.8545 0
M  V30 22779 H 2129.2 -0.399175 6.09294 0
M  V30 22780 H 2130.61 1.77933 5.44989 0
M  V30 22781 H 2129.01 2.57006 5.4228 0
M  V30 22782 H 2130.08 2.71622 4.01684 0
M  V30 22783 N 2131.42 -1.38259 0.756453 0
M  V30 22784 C 2132.35 -2.2902 0.0908208 0
M  V30 22785 C 2133.37 -1.47887 -0.680684 0
M  V30 22786 O 2134.55 -1.70718 -0.521301 0
M  V30 22787 C 2131.65 -3.26859 -0.895342 0
M  V30 22788 C 2130.83 -4.37026 -0.180877 0
M  V30 22789 C 2129.89 -5.15035 -1.0782 0
M  V30 22790 O 2128.91 -5.66559 -0.547658 0
M  V30 22791 N 2130.11 -5.28291 -2.40602 0
M  V30 22792 H 2132.88 -2.86785 0.870302 0
M  V30 22793 H 2130.44 -1.50071 0.607483 0
M  V30 22794 H 2132.43 -3.75926 -1.49873 0
M  V30 22795 H 2131 -2.69972 -1.57588 0
M  V30 22796 H 2130.22 -3.89557 0.603252 0
M  V30 22797 H 2131.51 -5.07834 0.313403 0
M  V30 22798 H 2130.91 -4.87986 -2.86158 0
M  V30 22799 H 2129.47 -5.80721 -2.95984 0
M  V30 22800 N 2132.9 -0.505757 -1.49264 0
M  V30 22801 C 2133.85 0.28378 -2.30862 0
M  V30 22802 C 2134.84 0.958332 -1.39687 0
M  V30 22803 O 2136.05 0.885479 -1.56714 0
M  V30 22804 H 2132.42 0.110376 -0.743856 0
M  V30 22805 H 2134.39 -0.424349 -2.95367 0
M  V30 22806 C 2133.14 1.33255 -3.21152 0
M  V30 22807 H 2132.46 0.822894 -3.9124 0
M  V30 22808 H 2133.9 1.85687 -3.81177 0
M  V30 22809 C 2132.36 2.35327 -2.41087 0
M  V30 22810 O 2132.89 3.41302 -2.1184 0
M  V30 22811 N 2131.1 2.07918 -2.03023 0
M  V30 22812 H 2130.65 1.21758 -2.27009 0
M  V30 22813 H 2130.6 2.7644 -1.49762 0
M  V30 22814 N 2134.38 1.55765 -0.239796 0
M  V30 22815 C 2135.29 2.2472 0.673658 0
M  V30 22816 C 2136.3 1.26091 1.19904 0
M  V30 22817 O 2137.48 1.5895 1.23681 0
M  V30 22818 C 2134.54 2.92772 1.85702 0
M  V30 22819 C 2133.6 4.06792 1.37182 0
M  V30 22820 C 2132.84 4.7159 2.49878 0
M  V30 22821 O 2133.06 4.35437 3.68443 0
M  V30 22822 O 2131.99 5.60237 2.2004 0
M  V30 22823 H 2135.82 3.03478 0.116142 0
M  V30 22824 H 2133.41 1.49398 -0.00858773 0
M  V30 22825 H 2135.29 3.3566 2.54774 0
M  V30 22826 H 2133.96 2.1696 2.40229 0
M  V30 22827 H 2132.87 3.68435 0.648582 0
M  V30 22828 H 2134.2 4.84401 0.872717 0
M  V30 22829 N 2135.85 -0.0334016 1.57565 0
M  V30 22830 C 2137.1 -0.723651 1.887 0
M  V30 22831 C 2137.42 -1.76126 0.836929 0
M  V30 22832 O 2136.69 -1.95468 -0.12998 0
M  V30 22833 H 2135.27 -0.270263 0.696396 0
M  V30 22834 H 2137.94 -0.000381018 1.949 0
M  V30 22835 H 2137.03 -1.21594 2.87439 0
M  V30 22836 N 2137.33 -1.54609 -0.305591 0
M  V30 22837 C 2138.24 -1.88292 -1.3994 0
M  V30 22838 C 2139.26 -0.77661 -1.55707 0
M  V30 22839 O 2140.43 -1.07264 -1.7046 0
M  V30 22840 C 2137.5 -2.11925 -2.74388 0
M  V30 22841 C 2136.56 -3.35656 -2.67644 0
M  V30 22842 C 2135.79 -3.58152 -3.9568 0
M  V30 22843 O 2136.02 -2.83746 -4.94818 0
M  V30 22844 O 2134.95 -4.51662 -3.97851 0
M  V30 22845 H 2138.78 -2.81339 -1.14378 0
M  V30 22846 H 2136.36 -1.40741 -0.501242 0
M  V30 22847 H 2138.24 -2.28697 -3.53943 0
M  V30 22848 H 2136.92 -1.22065 -2.99803 0
M  V30 22849 H 2135.83 -3.24253 -1.86577 0
M  V30 22850 H 2137.16 -4.25631 -2.47182 0
M  V30 22851 N 2138.81 0.568558 -1.46987 0
M  V30 22852 C 2140.23 0.893359 -1.32254 0
M  V30 22853 C 2140.43 1.99185 -0.304531 0
M  V30 22854 O 2139.48 2.50853 0.287946 0
M  V30 22855 C 2140.8 1.29733 -2.71275 0
M  V30 22856 C 2142.34 1.40939 -2.79473 0
M  V30 22857 C 2142.82 1.84696 -4.19108 0
M  V30 22858 N 2144.31 1.91866 -4.21594 0
M  V30 22859 C 2145.04 2.27028 -5.26542 0
M  V30 22860 N 2144.54 2.60882 -6.41804 0
M  V30 22861 N 2146.33 2.27704 -5.13914 0
M  V30 22862 H 2138.48 -0.156857 -2.1182 0
M  V30 22863 H 2140.75 -0.00750539 -0.94797 0
M  V30 22864 H 2140.45 0.564082 -3.47147 0
M  V30 22865 H 2140.33 2.2559 -3.02306 0
M  V30 22866 H 2142.71 2.13347 -2.0388 0
M  V30 22867 H 2142.8 0.432977 -2.52109 0
M  V30 22868 H 2142.44 1.12862 -4.95202 0
M  V30 22869 H 2142.37 2.8332 -4.43889 0
M  V30 22870 H 2144.86 1.68135 -3.38436 0
M  V30 22871 H 2145.17 2.86707 -7.17648 0
M  V30 22872 H 2143.52 2.58488 -6.45142 0
M  V30 22873 H 2146.71 2.00687 -4.22898 0
M  V30 22874 H 2146.88 2.54778 -5.95812 0
M  V30 22875 N 2140.29 1.34929 0.814366 0
M  V30 22876 C 2141.22 1.29866 1.94055 0
M  V30 22877 C 2142.2 0.174504 1.69203 0
M  V30 22878 O 2143.38 0.368232 1.90677 0
M  V30 22879 C 2140.51 1.06201 3.30664 0
M  V30 22880 C 2139.47 2.15174 3.69978 0
M  V30 22881 C 2138.79 1.76686 5.04664 0
M  V30 22882 C 2140.09 3.57077 3.81174 0
M  V30 22883 H 2141.79 2.24095 1.98549 0
M  V30 22884 H 2139.33 1.07877 0.953865 0
M  V30 22885 H 2141.29 1.01301 4.09043 0
M  V30 22886 H 2140.01 0.0841549 3.26492 0
M  V30 22887 H 2138.67 2.19158 2.9388 0
M  V30 22888 H 2138.32 0.775388 4.96988 0
M  V30 22889 H 2138.02 2.49628 5.3194 0
M  V30 22890 H 2139.54 1.73297 5.85492 0
M  V30 22891 H 2140.96 3.55458 4.49803 0
M  V30 22892 H 2139.35 4.28713 4.19911 0
M  V30 22893 H 2140.42 3.93795 2.82937 0
M  V30 22894 N 2141.77 -1.0356 1.18799 0
M  V30 22895 C 2142.7 -2.13602 0.943213 0
M  V30 22896 C 2143.68 -1.69669 -0.120965 0
M  V30 22897 O 2144.86 -1.94173 0.0326748 0
M  V30 22898 C 2141.99 -3.44054 0.473716 0
M  V30 22899 C 2140.95 -4.01635 1.47896 0
M  V30 22900 C 2140.27 -5.27628 0.866789 0
M  V30 22901 C 2141.57 -4.3722 2.8572 0
M  V30 22902 H 2143.27 -2.34336 1.86351 0
M  V30 22903 H 2140.81 -1.12617 0.897406 0
M  V30 22904 H 2142.77 -4.20402 0.289804 0
M  V30 22905 H 2141.49 -3.23021 -0.482167 0
M  V30 22906 H 2140.15 -3.27374 1.6499 0
M  V30 22907 H 2139.8 -5.02908 -0.0964386 0
M  V30 22908 H 2139.5 -5.67115 1.53799 0
M  V30 22909 H 2141.02 -6.06649 0.693523 0
M  V30 22910 H 2142.43 -5.04533 2.72248 0
M  V30 22911 H 2140.83 -4.87771 3.49571 0
M  V30 22912 H 2141.9 -3.46821 3.38885 0
M  V30 22913 N 2143.25 -0.990834 -1.22557 0
M  V30 22914 C 2144.18 -0.559304 -2.26703 0
M  V30 22915 C 2145.16 0.412782 -1.65016 0
M  V30 22916 O 2146.34 0.303868 -1.91808 0
M  V30 22917 C 2143.47 0.12888 -3.47061 0
M  V30 22918 C 2142.43 -0.76154 -4.2117 0
M  V30 22919 C 2141.75 0.0594442 -5.34667 0
M  V30 22920 C 2143.05 -2.0574 -4.80071 0
M  V30 22921 H 2144.75 -1.42983 -2.63052 0
M  V30 22922 H 2142.29 -0.68896 -1.26449 0
M  V30 22923 H 2144.24 0.44215 -4.19074 0
M  V30 22924 H 2142.97 1.03394 -3.09802 0
M  V30 22925 H 2141.63 -1.05842 -3.50989 0
M  V30 22926 H 2141.28 0.965355 -4.9365 0
M  V30 22927 H 2140.98 -0.533291 -5.85175 0
M  V30 22928 H 2142.5 0.366857 -6.09497 0
M  V30 22929 H 2143.91 -1.80821 -5.44037 0
M  V30 22930 H 2142.31 -2.59878 -5.4091 0
M  V30 22931 H 2143.38 -2.73748 -4.00237 0
M  V30 22932 N 2144.72 1.37856 -0.763775 0
M  V30 22933 C 2145.63 2.3415 -0.145216 0
M  V30 22934 C 2146.65 1.59782 0.688888 0
M  V30 22935 O 2147.83 1.91919 0.610668 0
M  V30 22936 C 2144.89 3.38934 0.729718 0
M  V30 22937 C 2143.95 4.29132 -0.119926 0
M  V30 22938 C 2143.18 5.28911 0.713343 0
M  V30 22939 O 2143.41 5.36002 1.95086 0
M  V30 22940 O 2142.34 6.01767 0.126758 0
M  V30 22941 H 2146.17 2.88763 -0.940736 0
M  V30 22942 H 2143.75 1.39879 -0.524814 0
M  V30 22943 H 2145.63 4.03066 1.22946 0
M  V30 22944 H 2144.31 2.86661 1.50356 0
M  V30 22945 H 2143.22 3.68127 -0.665843 0
M  V30 22946 H 2144.55 4.84688 -0.856664 0
M  V30 22947 N 2146.2 0.513665 1.48994 0
M  V30 22948 C 2147.16 -0.247066 2.27864 0
M  V30 22949 C 2148.16 -0.882574 1.34415 0
M  V30 22950 O 2149.35 -0.745145 1.57459 0
M  V30 22951 C 2146.49 -1.35575 3.12782 0
M  V30 22952 H 2147.68 0.445185 2.96577 0
M  V30 22953 H 2145.23 0.269045 1.53967 0
M  V30 22954 H 2145.97 -2.08176 2.48663 0
M  V30 22955 H 2145.75 -0.905368 3.81504 0
M  V30 22956 H 2147.24 -1.89127 3.72318 0
M  V30 22957 N 2147.68 -1.55636 0.248053 0
M  V30 22958 C 2148.61 -2.17465 -0.691684 0
M  V30 22959 C 2149.59 -1.12706 -1.17201 0
M  V30 22960 O 2150.77 -1.41099 -1.24994 0
M  V30 22961 C 2147.9 -2.77625 -1.94016 0
M  V30 22962 C 2146.95 -3.95448 -1.5976 0
M  V30 22963 S 2147.78 -5.30915 -0.699227 0
M  V30 22964 C 2148.94 -5.94529 -1.95668 0
M  V30 22965 H 2149.17 -2.96835 -0.166248 0
M  V30 22966 H 2146.7 -1.54366 0.032501 0
M  V30 22967 H 2148.66 -3.12921 -2.65689 0
M  V30 22968 H 2147.32 -1.98199 -2.43672 0
M  V30 22969 H 2146.51 -4.36136 -2.52589 0
M  V30 22970 H 2146.12 -3.61435 -0.961295 0
M  V30 22971 H 2148.41 -6.12116 -2.9038 0
M  V30 22972 H 2149.35 -6.89943 -1.59326 0
M  V30 22973 H 2149.76 -5.23612 -2.10929 0
M  V30 22974 N 2149.16 0.0250451 -1.5758 0
M  V30 22975 C 2150.43 0.750684 -1.80621 0
M  V30 22976 C 2150.81 1.93359 -0.847083 0
M  V30 22977 O 2150.16 2.28236 0.109857 0
M  V30 22978 C 2150.37 1.17995 -3.28448 0
M  V30 22979 C 2151.72 1.5942 -3.93536 0
M  V30 22980 O 2152.74 1.27442 -3.32621 0
M  V30 22981 O 2151.6 2.18788 -5.00793 0
M  V30 22982 H 2148.7 0.363355 -0.742901 0
M  V30 22983 H 2151.24 0.00151411 -1.697 0
M  V30 22984 H 2150.02 0.335683 -3.89857 0
M  V30 22985 H 2149.64 1.98901 -3.44273 0
M  V30 22986 N 2150.64 1.54769 0.297388 0
M  V30 22987 C 2151.55 1.89032 1.38939 0
M  V30 22988 C 2152.56 0.784856 1.55293 0
M  V30 22989 O 2153.74 1.08166 1.69888 0
M  V30 22990 C 2150.8 2.13378 2.7326 0
M  V30 22991 C 2149.86 3.37071 2.6586 0
M  V30 22992 C 2149.1 3.60246 3.93775 0
M  V30 22993 O 2149.32 2.86366 4.93306 0
M  V30 22994 O 2148.25 4.53765 3.9545 0
M  V30 22995 H 2152.08 2.81941 1.12884 0
M  V30 22996 H 2149.66 1.41004 0.493771 0
M  V30 22997 H 2151.55 2.30571 3.52725 0
M  V30 22998 H 2150.22 1.23654 2.99151 0
M  V30 22999 H 2149.13 3.25238 1.84855 0
M  V30 23000 H 2150.46 4.26936 2.44921 0
M  V30 23001 N 2152.11 -0.560755 1.47286 0
M  V30 23002 C 2153.04 -1.67792 1.62383 0
M  V30 23003 C 2154.02 -1.6338 0.473377 0
M  V30 23004 O 2155.21 -1.81057 0.702288 0
M  V30 23005 C 2152.34 -3.06431 1.63454 0
M  V30 23006 C 2151.29 -3.25688 2.7769 0
M  V30 23007 C 2150.62 -4.65078 2.63831 0
M  V30 23008 C 2151.92 -3.11404 4.19315 0
M  V30 23009 H 2153.61 -1.55414 2.55904 0
M  V30 23010 H 2151.16 -0.746251 1.23155 0
M  V30 23011 H 2153.11 -3.84428 1.72606 0
M  V30 23012 H 2151.84 -3.1976 0.664904 0
M  V30 23013 H 2150.5 -2.50098 2.68042 0
M  V30 23014 H 2150.14 -4.75201 1.64904 0
M  V30 23015 H 2149.84 -4.78911 3.40467 0
M  V30 23016 H 2151.37 -5.45214 2.74907 0
M  V30 23017 H 2152.78 -3.79222 4.29958 0
M  V30 23018 H 2151.18 -3.36749 4.9671 0
M  V30 23019 H 2152.25 -2.08195 4.3793 0
M  V30 23020 N 2153.59 -1.35359 -0.807199 0
M  V30 23021 C 2154.5 -1.30342 -1.9506 0
M  V30 23022 C 2155.52 -0.208425 -1.72747 0
M  V30 23023 O 2156.69 -0.437692 -1.96586 0
M  V30 23024 C 2153.76 -1.07437 -3.29633 0
M  V30 23025 C 2152.82 -2.26243 -3.64846 0
M  V30 23026 C 2152.05 -2.04423 -4.92998 0
M  V30 23027 O 2152.28 -1.01037 -5.6138 0
M  V30 23028 O 2151.21 -2.91769 -5.26455 0
M  V30 23029 H 2155.04 -2.26568 -2.02239 0
M  V30 23030 H 2152.62 -1.15724 -0.944893 0
M  V30 23031 H 2154.5 -0.9651 -4.102 0
M  V30 23032 H 2153.18 -0.142618 -3.23386 0
M  V30 23033 H 2152.08 -2.42735 -2.84659 0
M  V30 23034 H 2153.42 -3.17864 -3.75797 0
M  V30 23035 N 2155.07 1.02928 -1.19346 0
M  V30 23036 C 2156.32 1.76582 -0.997324 0
M  V30 23037 C 2156.65 1.88407 0.470801 0
M  V30 23038 O 2155.92 1.40057 1.34961 0
M  V30 23039 C 2156.21 3.19219 -1.66647 0
M  V30 23040 C 2156.06 3.15268 -3.20822 0
M  V30 23041 C 2157.38 4.17602 -1.38912 0
M  V30 23042 H 2154.5 0.640995 -0.363722 0
M  V30 23043 H 2157.14 1.20159 -1.4718 0
M  V30 23044 H 2155.29 3.67395 -1.26306 0
M  V30 23045 H 2156.96 2.74993 -3.70374 0
M  V30 23046 H 2155.2 2.52994 -3.52387 0
M  V30 23047 H 2155.88 4.1604 -3.62788 0
M  V30 23048 H 2158.35 3.78025 -1.73887 0
M  V30 23049 H 2157.23 5.15597 -1.88283 0
M  V30 23050 H 2157.49 4.40982 -0.314198 0
M  V30 23051 N 2156.55 0.997319 1.2203 0
M  V30 23052 C 2157.51 0.556352 2.22345 0
M  V30 23053 C 2158.51 -0.363165 1.56645 0
M  V30 23054 O 2159.7 -0.154511 1.73513 0
M  V30 23055 C 2156.83 -0.190172 3.40369 0
M  V30 23056 H 2158.03 1.44355 2.62872 0
M  V30 23057 H 2155.58 0.784999 1.35157 0
M  V30 23058 H 2156.31 -1.09315 3.05321 0
M  V30 23059 H 2156.1 0.470115 3.89272 0
M  V30 23060 H 2157.59 -0.486708 4.14754 0
M  V30 23061 N 2158.03 -1.37449 0.771075 0
M  V30 23062 C 2159.27 -1.99708 0.335092 0
M  V30 23063 C 2159.6 -1.6121 -1.08819 0
M  V30 23064 O 2158.86 -0.849533 -1.76299 0
M  V30 23065 C 2159.16 -3.54862 0.425162 0
M  V30 23066 C 2158.82 -4.13126 1.8066 0
M  V30 23067 C 2157.48 -4.28752 2.18462 0
M  V30 23068 C 2159.84 -4.45085 2.71198 0
M  V30 23069 C 2157.16 -4.7364 3.4624 0
M  V30 23070 C 2159.52 -4.91398 3.98385 0
M  V30 23071 C 2158.18 -5.0523 4.36233 0
M  V30 23072 H 2157.45 -0.730784 0.122619 0
M  V30 23073 H 2160.1 -1.64227 0.984968 0
M  V30 23074 H 2158.4 -3.90585 -0.308255 0
M  V30 23075 H 2160.1 -4.0094 0.0691372 0
M  V30 23076 H 2156.69 -4.0139 1.50279 0
M  V30 23077 H 2160.87 -4.32599 2.43253 0
M  V30 23078 H 2156.13 -4.82535 3.75459 0
M  V30 23079 H 2160.3 -5.15094 4.68669 0
M  V30 23080 H 2157.93 -5.39772 5.35304 0
M  V30 23081 N 2159.5 -0.52156 -1.4872 0
M  V30 23082 C 2160.45 0.259278 -2.3115 0
M  V30 23083 C 2161.45 0.943463 -1.40695 0
M  V30 23084 O 2162.65 0.868807 -1.57644 0
M  V30 23085 H 2159.03 0.10248 -0.744984 0
M  V30 23086 H 2161 -0.455653 -2.94901 0
M  V30 23087 C 2159.75 1.29841 -3.22547 0
M  V30 23088 H 2159.07 0.781352 -3.9209 0
M  V30 23089 H 2160.51 1.81634 -3.83125 0
M  V30 23090 C 2158.97 2.32757 -2.43569 0
M  V30 23091 O 2159.5 3.39036 -2.15448 0
M  V30 23092 N 2157.71 2.05753 -2.05217 0
M  V30 23093 H 2157.25 1.19343 -2.28287 0
M  V30 23094 H 2157.21 2.74836 -1.52685 0
M  V30 23095 N 2160.98 1.55502 -0.256304 0
M  V30 23096 C 2161.93 2.23175 0.655412 0
M  V30 23097 C 2162.92 1.22244 1.17272 0
M  V30 23098 O 2164.13 1.40229 1.12853 0
M  V30 23099 H 2160.51 0.716007 0.229866 0
M  V30 23100 H 2162.48 2.98336 0.0616012 0
M  V30 23101 C 2161.23 2.95209 1.83704 0
M  V30 23102 H 2160.55 3.72651 1.44814 0
M  V30 23103 H 2161.99 3.45909 2.452 0
M  V30 23104 C 2160.45 1.99611 2.71398 0
M  V30 23105 O 2160.98 1.53521 3.71207 0
M  V30 23106 N 2159.18 1.66511 2.38165 0
M  V30 23107 H 2158.73 2.04188 1.57051 0
M  V30 23108 H 2158.69 1.02816 2.97113 0
M  V30 23109 N 2162.46 -0.0166879 1.57591 0
M  V30 23110 C 2163.69 -0.716426 1.941 0
M  V30 23111 C 2164.1 -1.68225 0.857081 0
M  V30 23112 O 2163.46 -1.81748 -0.165469 0
M  V30 23113 C 2163.51 -1.46279 3.30583 0
M  V30 23114 O 2163.23 -0.535718 4.34812 0
M  V30 23115 C 2164.73 -2.25856 3.8145 0
M  V30 23116 H 2161.95 -0.200593 0.640315 0
M  V30 23117 H 2164.5 0.0294696 2.04479 0
M  V30 23118 H 2162.65 -2.16045 3.21564 0
M  V30 23119 H 2163.07 -1.06046 5.13668 0
M  V30 23120 H 2164.54 -2.73602 4.79423 0
M  V30 23121 H 2165.02 -3.07813 3.13285 0
M  V30 23122 H 2165.62 -1.61139 3.93592 0
M  V30 23123 N 2163.94 -1.54924 -0.289176 0
M  V30 23124 C 2164.89 -1.87462 -1.37698 0
M  V30 23125 C 2165.88 -0.749411 -1.51922 0
M  V30 23126 O 2167.09 -0.933558 -1.53898 0
M  V30 23127 H 2163.46 -0.59475 -0.460192 0
M  V30 23128 H 2165.43 -2.78365 -1.07498 0
M  V30 23129 C 2164.18 -2.14897 -2.7334 0
M  V30 23130 H 2163.5 -3.00958 -2.63181 0
M  V30 23131 H 2164.94 -2.41596 -3.48436 0
M  V30 23132 C 2163.4 -0.951304 -3.2319 0
M  V30 23133 O 2163.93 -0.177749 -4.01307 0
M  V30 23134 N 2162.14 -0.753431 -2.80663 0
M  V30 23135 H 2161.69 -1.38415 -2.17253 0
M  V30 23136 H 2161.64 0.0463293 -3.14366 0
M  V30 23137 N 2165.42 0.552936 -1.47582 0
M  V30 23138 C 2166.66 1.31186 -1.54655 0
M  V30 23139 C 2167 1.93062 -0.209946 0
M  V30 23140 O 2166.27 1.78093 0.781854 0
M  V30 23141 C 2166.55 2.41873 -2.66776 0
M  V30 23142 C 2166.41 1.84837 -4.10067 0
M  V30 23143 C 2167.73 3.43776 -2.74784 0
M  V30 23144 H 2164.84 0.47562 -0.562987 0
M  V30 23145 H 2167.49 0.618335 -1.79657 0
M  V30 23146 H 2165.64 3.01029 -2.45589 0
M  V30 23147 H 2167.31 1.29909 -4.4263 0
M  V30 23148 H 2165.55 1.15489 -4.18144 0
M  V30 23149 H 2166.22 2.64874 -4.84299 0
M  V30 23150 H 2168.7 2.94544 -2.9391 0
M  V30 23151 H 2167.57 4.18646 -3.55003 0
M  V30 23152 H 2167.84 4.02894 -1.82013 0
M  V30 23153 N 2166.89 1.35785 0.800009 0
M  V30 23154 C 2168.31 1.15967 1.09653 0
M  V30 23155 C 2168.51 -0.0234211 2.01486 0
M  V30 23156 O 2167.57 -0.692029 2.42832 0
M  V30 23157 C 2168.88 2.46568 1.72118 0
M  V30 23158 C 2170.43 2.52835 1.84509 0
M  V30 23159 C 2170.9 3.83496 2.50389 0
M  V30 23160 N 2172.39 3.84783 2.57868 0
M  V30 23161 C 2173.13 4.82616 3.09628 0
M  V30 23162 N 2172.62 5.90839 3.61775 0
M  V30 23163 N 2174.42 4.70046 3.08242 0
M  V30 23164 H 2166.57 2.11551 0.189675 0
M  V30 23165 H 2168.83 0.936573 0.146746 0
M  V30 23166 H 2168.54 3.33354 1.12108 0
M  V30 23167 H 2168.41 2.61599 2.71746 0
M  V30 23168 H 2170.8 1.66474 2.4366 0
M  V30 23169 H 2170.88 2.41713 0.837173 0
M  V30 23170 H 2170.52 4.70258 1.91885 0
M  V30 23171 H 2170.45 3.9191 3.5173 0
M  V30 23172 H 2172.94 3.06591 2.2093 0
M  V30 23173 H 2173.26 6.61475 3.99589 0
M  V30 23174 H 2171.6 5.94522 3.59956 0
M  V30 23175 H 2174.79 3.84635 2.66784 0
M  V30 23176 H 2174.97 5.46452 3.48273 0
M  V30 23177 N 2168.37 -1.02294 1.19891 0
M  V30 23178 C 2169.6 -1.79404 1.03062 0
M  V30 23179 C 2170.02 -1.84059 -0.420428 0
M  V30 23180 O 2169.37 -1.28896 -1.29198 0
M  V30 23181 C 2169.42 -3.24174 1.59979 0
M  V30 23182 O 2169.14 -3.19825 2.99405 0
M  V30 23183 C 2170.65 -4.17859 1.48016 0
M  V30 23184 H 2167.87 -0.564396 0.362902 0
M  V30 23185 H 2170.41 -1.28805 1.58838 0
M  V30 23186 H 2168.56 -3.71943 1.08338 0
M  V30 23187 H 2168.98 -4.10647 3.26296 0
M  V30 23188 H 2170.45 -5.17305 1.92611 0
M  V30 23189 H 2170.93 -4.37074 0.431619 0
M  V30 23190 H 2171.54 -3.75968 1.98817 0
M  V30 23191 N 2169.85 -1.00378 -1.21499 0
M  V30 23192 C 2171.13 -0.601329 -1.86127 0
M  V30 23193 C 2171.51 0.921083 -1.89945 0
M  V30 23194 O 2170.86 1.80753 -1.39787 0
M  V30 23195 C 2171.07 -1.2343 -3.26445 0
M  V30 23196 C 2172.41 -1.34165 -4.02846 0
M  V30 23197 O 2173.44 -1.18952 -3.35751 0
M  V30 23198 O 2172.3 -1.58622 -5.22973 0
M  V30 23199 H 2169.39 -0.205796 -0.800985 0
M  V30 23200 H 2171.94 -1.10035 -1.29192 0
M  V30 23201 H 2170.71 -2.27515 -3.18359 0
M  V30 23202 H 2170.33 -0.721556 -3.90998 0
M  V30 23203 N 2171.33 1.37038 -0.778354 0
M  V30 23204 C 2172.57 2.01365 -0.350935 0
M  V30 23205 C 2172.93 1.60448 1.05454 0
M  V30 23206 O 2174.13 2.17284 1.58244 0
M  V30 23207 C 2172.4 3.53926 -0.497118 0
M  V30 23208 S 2173.96 4.38523 -0.15594 0
M  V30 23209 H 2170.78 0.698132 -0.134659 0
M  V30 23210 H 2173.38 1.67122 -1.01442 0
M  V30 23211 H 2172.09 3.81193 -1.52052 0
M  V30 23212 H 2171.62 3.92976 0.182687 0
M  V30 23213 H 2173.63 4.85044 1.04629 0
M  V30 23214 N 2172.81 0.529439 1.48441 0
M  V30 23215 C 2173.76 -0.247016 2.31285 0
M  V30 23216 C 2174.75 -0.935988 1.41194 0
M  V30 23217 O 2175.96 -0.860435 1.58103 0
M  V30 23218 H 2172.33 -0.0985275 0.745517 0
M  V30 23219 H 2174.3 0.471286 2.94655 0
M  V30 23220 C 2173.05 -1.28129 3.23231 0
M  V30 23221 H 2172.37 -0.760547 3.92499 0
M  V30 23222 H 2173.81 -1.796 3.84083 0
M  V30 23223 C 2172.27 -2.31462 2.448 0
M  V30 23224 O 2172.8 -3.37888 2.17243 0
M  V30 23225 N 2171.01 -2.04662 2.06305 0
M  V30 23226 H 2170.56 -1.18131 2.28917 0
M  V30 23227 H 2170.51 -2.74022 1.5414 0
M  V30 23228 N 2174.29 -1.55364 0.264547 0
M  V30 23229 C 2175.24 -2.18781 -0.641787 0
M  V30 23230 C 2176.22 -1.14912 -1.12624 0
M  V30 23231 O 2177.41 -1.40763 -1.07307 0
M  V30 23232 C 2174.54 -2.90435 -1.83037 0
M  V30 23233 C 2173.63 -4.0158 -1.3636 0
M  V30 23234 N 2174.02 -5.02081 -0.612243 0
M  V30 23235 C 2172.32 -4.14458 -1.64744 0
M  V30 23236 C 2173.02 -5.80533 -0.368214 0
M  V30 23237 N 2171.99 -5.35454 -0.937575 0
M  V30 23238 H 2175.79 -2.93839 -0.0597811 0
M  V30 23239 H 2173.31 -1.62259 0.067633 0
M  V30 23240 H 2175.31 -3.34309 -2.49085 0
M  V30 23241 H 2173.97 -2.16884 -2.41643 0
M  V30 23242 H 2174.98 -5.17244 -0.260611 0
M  V30 23243 H 2171.65 -3.52091 -2.24361 0
M  V30 23244 H 2173.04 -6.71497 0.23282 0
M  V30 23245 N 2175.76 0.00833021 -1.57598 0
M  V30 23246 C 2177.01 0.69406 -1.89382 0
M  V30 23247 C 2177.33 1.75397 -0.865751 0
M  V30 23248 O 2178.53 2.49374 -1.07353 0
M  V30 23249 C 2176.99 1.28562 -3.36154 0
M  V30 23250 C 2176.6 0.260972 -4.47239 0
M  V30 23251 C 2178.34 1.95003 -3.7706 0
M  V30 23252 C 2176.25 0.862051 -5.85083 0
M  V30 23253 H 2175.18 0.262992 -0.706648 0
M  V30 23254 H 2177.83 -0.0508492 -1.8343 0
M  V30 23255 H 2176.21 2.08092 -3.36918 0
M  V30 23256 H 2177.38 -0.50913 -4.57979 0
M  V30 23257 H 2175.7 -0.302516 -4.153 0
M  V30 23258 H 2178.3 2.40863 -4.77377 0
M  V30 23259 H 2178.64 2.77706 -3.10137 0
M  V30 23260 H 2179.17 1.22218 -3.7856 0
M  V30 23261 H 2175.91 0.0739761 -6.55458 0
M  V30 23262 H 2175.43 1.60151 -5.78024 0
M  V30 23263 H 2177.11 1.3632 -6.32476 0
M  V30 23264 N 2177.24 1.55075 0.280956 0
M  V30 23265 C 2178.49 1.75306 1.01361 0
M  V30 23266 C 2178.82 0.549775 1.86568 0
M  V30 23267 O 2178.07 -0.467908 1.90024 0
M  V30 23268 C 2178.37 3.00658 1.93234 0
M  V30 23269 C 2178.04 4.3356 1.23841 0
M  V30 23270 C 2176.7 4.69683 1.0465 0
M  V30 23271 C 2179.05 5.15863 0.743962 0
M  V30 23272 C 2176.38 5.85671 0.347296 0
M  V30 23273 C 2178.73 6.32573 0.0583841 0
M  V30 23274 C 2177.39 6.67342 -0.145308 0
M  V30 23275 H 2176.66 0.641491 0.370905 0
M  V30 23276 H 2179.31 1.89343 0.286608 0
M  V30 23277 H 2177.62 2.81488 2.72529 0
M  V30 23278 H 2179.31 3.13507 2.50029 0
M  V30 23279 H 2175.9 4.05163 1.39788 0
M  V30 23280 H 2180.09 4.88438 0.879877 0
M  V30 23281 H 2175.34 6.11139 0.178683 0
M  V30 23282 H 2179.52 6.95606 -0.332548 0
M  V30 23283 H 2177.14 7.5707 -0.689091 0
M  V30 23284 N 2178.72 -0.545102 1.47873 0
M  V30 23285 C 2179.65 -1.6606 1.64153 0
M  V30 23286 C 2180.63 -1.62869 0.490679 0
M  V30 23287 O 2181.82 -1.80302 0.721451 0
M  V30 23288 C 2178.95 -3.04681 1.66694 0
M  V30 23289 C 2177.9 -3.22724 2.81128 0
M  V30 23290 C 2177.23 -4.62253 2.68749 0
M  V30 23291 C 2178.53 -3.06939 4.22594 0
M  V30 23292 H 2180.22 -1.52691 2.57538 0
M  V30 23293 H 2177.77 -0.733146 1.23939 0
M  V30 23294 H 2179.72 -3.82576 1.76674 0
M  V30 23295 H 2178.44 -3.19037 0.698781 0
M  V30 23296 H 2177.1 -2.47241 2.7068 0
M  V30 23297 H 2176.75 -4.73425 1.69935 0
M  V30 23298 H 2176.45 -4.75273 3.45527 0
M  V30 23299 H 2177.97 -5.42268 2.80674 0
M  V30 23300 H 2179.39 -3.7464 4.33956 0
M  V30 23301 H 2177.78 -3.31461 5.00253 0
M  V30 23302 H 2178.85 -2.03538 4.40114 0
M  V30 23303 N 2180.2 -1.36208 -0.792797 0
M  V30 23304 C 2181.15 -1.30313 -1.92669 0
M  V30 23305 C 2182.14 -0.195525 -1.68268 0
M  V30 23306 O 2183.35 -0.362331 -1.76316 0
M  V30 23307 H 2179.72 -0.4056 -0.63324 0
M  V30 23308 H 2181.69 -2.26078 -1.9476 0
M  V30 23309 C 2180.44 -1.10589 -3.29644 0
M  V30 23310 H 2179.76 -1.95061 -3.48986 0
M  V30 23311 H 2181.2 -1.10509 -4.09345 0
M  V30 23312 C 2179.66 0.189643 -3.36366 0
M  V30 23313 O 2180.19 1.18066 -3.83958 0
M  V30 23314 N 2178.4 0.23316 -2.89663 0
M  V30 23315 H 2177.95 -0.573917 -2.51125 0
M  V30 23316 H 2177.9 1.09966 -2.94542 0
M  V30 23317 N 2181.68 1.01656 -1.20431 0
M  V30 23318 C 2182.92 1.75255 -1.01449 0
M  V30 23319 C 2183.25 1.89142 0.453379 0
M  V30 23320 O 2182.51 1.4141 1.35284 0
M  V30 23321 C 2182.8 3.17385 -1.64322 0
M  V30 23322 C 2182.47 3.23475 -3.14126 0
M  V30 23323 C 2181.13 3.24844 -3.55007 0
M  V30 23324 C 2183.48 3.21636 -4.10122 0
M  V30 23325 C 2180.81 3.22046 -4.90411 0
M  V30 23326 C 2183.16 3.20379 -5.45472 0
M  V30 23327 C 2181.83 3.20052 -5.85767 0
M  V30 23328 H 2181.1 0.641303 -0.37123 0
M  V30 23329 H 2183.75 1.19228 -1.49857 0
M  V30 23330 H 2182.05 3.7657 -1.08177 0
M  V30 23331 H 2183.75 3.73025 -1.4715 0
M  V30 23332 H 2180.34 3.23145 -2.81559 0
M  V30 23333 H 2184.52 3.19748 -3.79572 0
M  V30 23334 H 2179.78 3.20123 -5.20894 0
M  V30 23335 H 2183.95 3.17908 -6.19602 0
M  V30 23336 H 2181.58 3.17638 -6.90659 0
M  V30 23337 N 2183.15 1.01021 1.20965 0
M  V30 23338 C 2184.4 0.696906 1.9045 0
M  V30 23339 C 2184.73 -0.770906 1.78243 0
M  V30 23340 O 2184.01 -1.55939 1.16246 0
M  V30 23341 C 2184.29 1.1252 3.42069 0
M  V30 23342 C 2184.14 2.65285 3.63241 0
M  V30 23343 C 2185.46 0.691566 4.34632 0
M  V30 23344 H 2182.58 0.254648 0.691609 0
M  V30 23345 H 2185.22 1.25681 1.42493 0
M  V30 23346 H 2183.37 0.648818 3.83044 0
M  V30 23347 H 2185.05 3.20727 3.3156 0
M  V30 23348 H 2183.29 3.06557 3.06929 0
M  V30 23349 H 2183.96 2.90306 4.69496 0
M  V30 23350 H 2186.44 1.10101 4.01269 0
M  V30 23351 H 2185.31 1.01935 5.39352 0
M  V30 23352 H 2185.57 -0.407073 4.40222 0
M  V30 23353 N 2184.63 -1.36623 0.78561 0
M  V30 23354 C 2186.04 -1.81917 0.419903 0
M  V30 23355 C 2186.39 -1.65376 -1.0557 0
M  V30 23356 O 2185.52 -1.17258 -1.81878 0
M  V30 23357 C 2186.11 -3.30272 0.755384 0
M  V30 23358 C 2184.67 -3.73789 0.442556 0
M  V30 23359 C 2183.82 -2.58948 0.992018 0
M  V30 23360 H 2186.77 -1.24899 0.979084 0
M  V30 23361 H 2186.79 -3.80473 0.0450829 0
M  V30 23362 H 2186.3 -3.42278 1.8294 0
M  V30 23363 H 2184.4 -3.67345 -0.623584 0
M  V30 23364 H 2184.52 -4.69373 0.960503 0
M  V30 23365 H 2182.88 -2.51289 0.415458 0
M  V30 23366 H 2183.66 -2.73742 2.07172 0
M  V30 23367 N 2186.11 -0.537304 -1.48158 0
M  V30 23368 C 2187.34 -0.0101482 -2.06898 0
M  V30 23369 C 2187.75 1.27458 -1.39283 0
M  V30 23370 O 2187.11 1.76 -0.48274 0
M  V30 23371 C 2187.16 0.209896 -3.6089 0
M  V30 23372 O 2186.88 -1.02394 -4.25966 0
M  V30 23373 C 2188.38 0.776601 -4.36444 0
M  V30 23374 H 2185.6 -0.0368227 -0.669989 0
M  V30 23375 H 2188.15 -0.745039 -1.90445 0
M  V30 23376 H 2186.3 0.894855 -3.76923 0
M  V30 23377 H 2186.72 -0.809231 -5.1822 0
M  V30 23378 H 2188.19 0.879955 -5.44941 0
M  V30 23379 H 2188.67 1.78324 -4.01369 0
M  V30 23380 H 2189.27 0.127975 -4.25107 0
M  V30 23381 N 2187.59 1.55221 -0.272782 0
M  V30 23382 C 2188.83 1.99841 0.345178 0
M  V30 23383 C 2189.17 1.16093 1.55679 0
M  V30 23384 O 2188.44 0.230441 1.9313 0
M  V30 23385 C 2188.73 3.5263 0.729656 0
M  V30 23386 C 2188.58 4.47133 -0.489138 0
M  V30 23387 C 2189.9 4.11259 1.56698 0
M  V30 23388 H 2187.02 0.726495 0.123989 0
M  V30 23389 H 2189.66 1.86176 -0.379262 0
M  V30 23390 H 2187.81 3.64405 1.34689 0
M  V30 23391 H 2189.48 4.47304 -1.12769 0
M  V30 23392 H 2187.72 4.18888 -1.12762 0
M  V30 23393 H 2188.39 5.51718 -0.176396 0
M  V30 23394 H 2190.87 4.02745 1.04572 0
M  V30 23395 H 2189.75 5.1838 1.80481 0
M  V30 23396 H 2190.01 3.61341 2.54726 0
M  V30 23397 N 2189.07 2.77022e-05 1.576 0
M  V30 23398 C 2190.32 -0.684007 1.89748 0
M  V30 23399 C 2190.63 -1.74935 0.875041 0
M  V30 23400 O 2191.83 -2.48802 1.08674 0
M  V30 23401 C 2190.29 -1.26778 3.36831 0
M  V30 23402 C 2189.9 -0.23725 4.47371 0
M  V30 23403 C 2191.64 -1.93 3.78089 0
M  V30 23404 C 2189.55 -0.831011 5.85532 0
M  V30 23405 H 2188.48 -0.259241 0.708033 0
M  V30 23406 H 2191.13 0.0605762 1.834 0
M  V30 23407 H 2189.51 -2.06303 3.38017 0
M  V30 23408 H 2190.69 0.53341 4.57702 0
M  V30 23409 H 2189 0.324536 4.15133 0
M  V30 23410 H 2191.6 -2.38328 4.78648 0
M  V30 23411 H 2191.94 -2.76058 3.11605 0
M  V30 23412 H 2192.47 -1.20209 3.79203 0
M  V30 23413 H 2189.21 -0.0392145 6.55488 0
M  V30 23414 H 2188.73 -1.57083 5.78865 0
M  V30 23415 H 2190.41 -1.32963 6.3319 0
M  V30 23416 N 2190.54 -1.55222 -0.272728 0
M  V30 23417 C 2191.48 -1.83048 -1.36266 0
M  V30 23418 C 2192.46 -0.683547 -1.47534 0
M  V30 23419 O 2193.64 -0.926574 -1.64155 0
M  V30 23420 C 2190.77 -1.99234 -2.73904 0
M  V30 23421 C 2189.81 -3.21788 -2.79919 0
M  V30 23422 S 2190.65 -4.79138 -2.39137 0
M  V30 23423 C 2191.8 -4.98297 -3.78749 0
M  V30 23424 H 2192.03 -2.75209 -1.1246 0
M  V30 23425 H 2189.57 -1.46997 -0.472372 0
M  V30 23426 H 2191.53 -2.09244 -3.53167 0
M  V30 23427 H 2190.19 -1.07961 -2.94963 0
M  V30 23428 H 2189.38 -3.30001 -3.8094 0
M  V30 23429 H 2188.98 -3.1037 -2.08677 0
M  V30 23430 H 2191.27 -4.84055 -4.74022 0
M  V30 23431 H 2192.22 -6.00345 -3.75488 0
M  V30 23432 H 2192.62 -4.26277 -3.70065 0
M  V30 23433 N 2192.02 0.537252 -1.4816 0
M  V30 23434 C 2193.3 1.29837 -1.46294 0
M  V30 23435 C 2193.68 2.10409 -0.17065 0
M  V30 23436 O 2193.03 2.12194 0.847709 0
M  V30 23437 C 2193.24 2.18598 -2.72058 0
M  V30 23438 C 2194.59 2.78974 -3.20092 0
M  V30 23439 O 2195.61 2.28889 -2.72925 0
M  V30 23440 O 2194.47 3.70057 -4.02144 0
M  V30 23441 H 2191.56 0.585637 -0.583916 0
M  V30 23442 H 2194.11 0.554506 -1.60385 0
M  V30 23443 H 2192.88 1.58795 -3.57631 0
M  V30 23444 H 2192.5 3.00244 -2.60651 0
M  V30 23445 N 2193.5 1.36626 0.785562 0
M  V30 23446 C 2194.91 1.27805 1.36098 0
M  V30 23447 C 2195.26 -0.080453 1.96035 0
M  V30 23448 O 2194.39 -0.982008 1.92836 0
M  V30 23449 C 2194.98 2.3143 2.47438 0
M  V30 23450 C 2193.54 2.26286 3.00785 0
M  V30 23451 C 2192.69 2.16002 1.73892 0
M  V30 23452 H 2195.64 1.47449 0.586902 0
M  V30 23453 H 2195.66 1.95297 3.26557 0
M  V30 23454 H 2195.17 3.30293 2.03785 0
M  V30 23455 H 2193.27 1.30903 3.48848 0
M  V30 23456 H 2193.39 3.19134 3.57338 0
M  V30 23457 H 2191.75 1.62319 1.96277 0
M  V30 23458 H 2192.53 3.16757 1.32362 0
M  V30 23459 N 2194.98 -1.01016 1.20969 0
M  V30 23460 C 2196.2 -1.78837 1.05034 0
M  V30 23461 C 2196.63 -1.8389 -0.39572 0
M  V30 23462 O 2195.99 -1.2787 -1.28527 0
M  V30 23463 C 2196.03 -3.20837 1.64608 0
M  V30 23464 O 2195.14 -4.02725 0.888059 0
M  V30 23465 H 2194.48 -0.55136 0.369997 0
M  V30 23466 H 2197.01 -1.27015 1.60401 0
M  V30 23467 H 2197.02 -3.71529 1.68613 0
M  V30 23468 H 2195.69 -3.16474 2.69846 0
M  V30 23469 H 2194.27 -3.61304 0.922711 0
M  V30 23470 N 2196.46 -1.01661 -1.20428 0
M  V30 23471 C 2197.4 -0.586861 -2.23214 0
M  V30 23472 C 2198.37 0.393056 -1.61382 0
M  V30 23473 O 2199.56 0.292492 -1.88545 0
M  V30 23474 C 2196.7 0.0686858 -3.45032 0
M  V30 23475 C 2195.81 -0.955798 -4.21294 0
M  V30 23476 C 2194.95 -0.271301 -5.30507 0
M  V30 23477 C 2193.99 -1.28254 -5.98513 0
M  V30 23478 N 2193.12 -0.624713 -6.99315 0
M  V30 23479 H 2197.96 -1.468 -2.59333 0
M  V30 23480 H 2195.5 -0.734859 -1.27429 0
M  V30 23481 H 2197.46 0.465892 -4.14591 0
M  V30 23482 H 2196.09 0.913474 -3.09605 0
M  V30 23483 H 2195.14 -1.47116 -3.508 0
M  V30 23484 H 2196.45 -1.72487 -4.68027 0
M  V30 23485 H 2195.61 0.181403 -6.06429 0
M  V30 23486 H 2194.34 0.530078 -4.84811 0
M  V30 23487 H 2193.35 -1.74563 -5.21352 0
M  V30 23488 H 2194.57 -2.0852 -6.46294 0
M  V30 23489 H 2192.52 0.156798 -6.55813 0
M  V30 23490 H 2192.44 -1.33185 -7.44176 0
M  V30 23491 H 2193.71 -0.195599 -7.79255 0
M  V30 23492 N 2197.93 1.36205 -0.792844 0
M  V30 23493 C 2199.18 1.984 -0.363388 0
M  V30 23494 C 2199.5 1.63628 1.07169 0
M  V30 23495 O 2200.7 2.19083 1.60358 0
M  V30 23496 C 2199.16 3.54884 -0.598782 0
M  V30 23497 C 2198.77 3.98577 -2.0455 0
M  V30 23498 C 2200.51 4.23855 -0.234001 0
M  V30 23499 C 2198.42 5.47852 -2.22737 0
M  V30 23500 H 2197.35 0.742332 -0.132133 0
M  V30 23501 H 2200 1.55457 -0.974963 0
M  V30 23502 H 2198.38 3.95914 0.0825526 0
M  V30 23503 H 2199.55 3.68737 -2.76351 0
M  V30 23504 H 2197.87 3.42454 -2.36885 0
M  V30 23505 H 2200.47 5.33566 -0.348121 0
M  V30 23506 H 2200.81 4.08179 0.818279 0
M  V30 23507 H 2201.34 3.88199 -0.868707 0
M  V30 23508 H 2198.08 5.6848 -3.2636 0
M  V30 23509 H 2197.6 5.79308 -1.55444 0
M  V30 23510 H 2199.28 6.14124 -2.03618 0
M  V30 23511 N 2199.41 0.545154 1.47871 0
M  V30 23512 C 2200.32 -0.212705 2.33634 0
M  V30 23513 C 2201.34 -0.923957 1.47442 0
M  V30 23514 O 2202.51 -0.89554 1.80394 0
M  V30 23515 C 2199.58 -1.23687 3.23886 0
M  V30 23516 C 2198.64 -0.534342 4.25962 0
M  V30 23517 C 2197.87 -1.50971 5.11902 0
M  V30 23518 O 2198.1 -2.74361 5.00082 0
M  V30 23519 O 2197.03 -1.0408 5.92833 0
M  V30 23520 H 2200.86 0.490469 2.99713 0
M  V30 23521 H 2198.44 0.305896 1.46235 0
M  V30 23522 H 2200.32 -1.82836 3.7967 0
M  V30 23523 H 2199 -1.92218 2.6045 0
M  V30 23524 H 2197.91 0.0980336 3.73972 0
M  V30 23525 H 2199.24 0.1093 4.92079 0
M  V30 23526 N 2200.89 -1.55074 0.28101 0
M  V30 23527 C 2201.8 -2.26427 -0.61384 0
M  V30 23528 C 2202.82 -1.29226 -1.16519 0
M  V30 23529 O 2203.99 -1.62173 -1.19423 0
M  V30 23530 C 2201.06 -2.97593 -1.77875 0
M  V30 23531 C 2200.12 -4.10286 -1.26348 0
M  V30 23532 C 2199.35 -4.78049 -2.37287 0
M  V30 23533 O 2199.57 -4.45053 -3.56769 0
M  V30 23534 O 2198.51 -5.65874 -2.05109 0
M  V30 23535 H 2202.33 -3.03679 -0.0356398 0
M  V30 23536 H 2199.92 -1.49322 0.0481948 0
M  V30 23537 H 2201.8 -3.42297 -2.45785 0
M  V30 23538 H 2200.48 -2.23253 -2.34393 0
M  V30 23539 H 2199.38 -3.70025 -0.55067 0
M  V30 23540 H 2200.72 -4.86545 -0.743979 0
M  V30 23541 N 2202.37 -0.00838561 -1.57598 0
M  V30 23542 C 2203.59 0.689069 -1.95619 0
M  V30 23543 C 2204.02 1.66045 -0.883782 0
M  V30 23544 O 2203.38 1.80616 0.15732 0
M  V30 23545 C 2203.43 1.38988 -3.32738 0
M  V30 23546 O 2202.53 2.50458 -3.27635 0
M  V30 23547 H 2201.87 0.182657 -0.638383 0
M  V30 23548 H 2204.4 -0.064072 -2.045 0
M  V30 23549 H 2204.41 1.7514 -3.68497 0
M  V30 23550 H 2203.09 0.677706 -4.10341 0
M  V30 23551 H 2201.66 2.16571 -3.03565 0
M  V30 23552 N 2203.85 1.55365 0.264492 0
M  V30 23553 C 2205.09 1.76633 0.996429 0
M  V30 23554 C 2205.43 0.570511 1.85631 0
M  V30 23555 O 2204.7 -0.431717 1.89648 0
M  V30 23556 C 2204.98 3.07628 1.87182 0
M  V30 23557 C 2204.84 4.37581 1.0413 0
M  V30 23558 C 2206.16 3.34722 2.85743 0
M  V30 23559 H 2203.28 0.642628 0.36083 0
M  V30 23560 H 2205.92 1.88098 0.268185 0
M  V30 23561 H 2204.07 2.97985 2.49274 0
M  V30 23562 H 2205.74 4.59193 0.440436 0
M  V30 23563 H 2203.98 4.32426 0.345039 0
M  V30 23564 H 2204.65 5.25583 1.6872 0
M  V30 23565 H 2207.13 3.44214 2.33787 0
M  V30 23566 H 2206.01 4.27629 3.44129 0
M  V30 23567 H 2206.27 2.54775 3.61306 0
M  V30 23568 N 2205.33 -0.529387 1.48443 0
M  V30 23569 C 2206.74 -0.85798 1.34577 0
M  V30 23570 C 2206.94 -1.98308 0.357235 0
M  V30 23571 O 2206 -2.51528 -0.221335 0
M  V30 23572 C 2207.31 -1.22495 2.74619 0
M  V30 23573 C 2208.86 -1.33479 2.83112 0
M  V30 23574 C 2209.33 -1.73519 4.23858 0
M  V30 23575 N 2210.82 -1.8062 4.26533 0
M  V30 23576 C 2211.56 -2.12987 5.32376 0
M  V30 23577 N 2211.06 -2.43774 6.48495 0
M  V30 23578 N 2212.85 -2.13998 5.1977 0
M  V30 23579 H 2205 0.212962 2.1133 0
M  V30 23580 H 2207.26 0.0326365 0.947438 0
M  V30 23581 H 2206.97 -0.471843 3.4852 0
M  V30 23582 H 2206.84 -2.17495 3.08181 0
M  V30 23583 H 2209.23 -2.07866 2.09465 0
M  V30 23584 H 2209.31 -0.365983 2.53168 0
M  V30 23585 H 2208.95 -0.996925 4.9802 0
M  V30 23586 H 2208.88 -2.71451 4.51245 0
M  V30 23587 H 2211.38 -1.59102 3.42775 0
M  V30 23588 H 2211.69 -2.67579 7.24998 0
M  V30 23589 H 2210.03 -2.41293 6.51769 0
M  V30 23590 H 2213.22 -1.89404 4.2807 0
M  V30 23591 H 2213.4 -2.38891 6.02358 0
M  V30 23592 N 2206.8 -1.37041 -0.778305 0
M  V30 23593 C 2208.03 -1.35235 -1.57246 0
M  V30 23594 C 2208.45 0.0615238 -1.87999 0
M  V30 23595 O 2207.81 1.0367 -1.48736 0
M  V30 23596 C 2207.86 -2.19172 -2.86349 0
M  V30 23597 O 2206.96 -1.59184 -3.80439 0
M  V30 23598 H 2206.3 -0.46237 -0.47656 0
M  V30 23599 H 2208.83 -1.80476 -0.963821 0
M  V30 23600 H 2208.84 -2.32151 -3.35514 0
M  V30 23601 H 2207.52 -3.21947 -2.63293 0
M  V30 23602 H 2206.1 -1.55209 -3.39064 0
M  V30 23603 N 2208.28 1.00373 -1.21503 0
M  V30 23604 C 2209.21 2.0889 -0.918706 0
M  V30 23605 C 2210.19 1.62045 0.134248 0
M  V30 23606 O 2211.38 1.88499 0.00500942 0
M  V30 23607 C 2208.5 3.36565 -0.379704 0
M  V30 23608 C 2207.55 4.0232 -1.41566 0
M  V30 23609 S 2208.38 4.44568 -2.98528 0
M  V30 23610 C 2209.54 5.75428 -2.46238 0
M  V30 23611 H 2209.77 2.33704 -1.83766 0
M  V30 23612 H 2207.3 1.13671 -1.04491 0
M  V30 23613 H 2209.26 4.10431 -0.0752917 0
M  V30 23614 H 2207.92 3.098 0.517954 0
M  V30 23615 H 2207.12 4.94218 -0.988163 0
M  V30 23616 H 2206.72 3.34734 -1.66821 0
M  V30 23617 H 2209.01 6.51238 -1.86803 0
M  V30 23618 H 2209.95 6.22991 -3.36583 0
M  V30 23619 H 2210.36 5.32309 -1.87904 0
M  V30 23620 N 2209.76 1.02298 1.19887 0
M  V30 23621 C 2211.01 0.717066 1.897 0
M  V30 23622 C 2211.34 -0.751958 1.79051 0
M  V30 23623 O 2210.61 -1.54698 1.17894 0
M  V30 23624 C 2210.9 1.16142 3.40856 0
M  V30 23625 C 2210.75 2.69123 3.60407 0
M  V30 23626 C 2212.07 0.737625 4.33875 0
M  V30 23627 H 2209.19 0.261969 0.68887 0
M  V30 23628 H 2211.83 1.27186 1.41152 0
M  V30 23629 H 2209.98 0.689409 3.82334 0
M  V30 23630 H 2211.65 3.24226 3.28139 0
M  V30 23631 H 2209.89 3.09795 3.0366 0
M  V30 23632 H 2210.57 2.95269 4.66391 0
M  V30 23633 H 2213.04 1.14351 4.00079 0
M  V30 23634 H 2211.92 1.0765 5.3824 0
M  V30 23635 H 2212.18 -0.360359 4.40629 0
M  V30 23636 N 2211.24 -1.35782 0.800057 0
M  V30 23637 C 2212.17 -2.27696 0.151539 0
M  V30 23638 C 2213.15 -1.47761 -0.678637 0
M  V30 23639 O 2214.33 -1.77037 -0.647327 0
M  V30 23640 C 2211.46 -3.29348 -0.790434 0
M  V30 23641 C 2210.51 -4.26481 -0.0407082 0
M  V30 23642 S 2211.34 -5.19709 1.29086 0
M  V30 23643 C 2212.49 -6.24903 0.353165 0
M  V30 23644 H 2212.73 -2.82352 0.930846 0
M  V30 23645 H 2210.26 -1.42484 0.594792 0
M  V30 23646 H 2212.22 -3.88411 -1.32843 0
M  V30 23647 H 2210.88 -2.73584 -1.54307 0
M  V30 23648 H 2210.07 -4.983 -0.755883 0
M  V30 23649 H 2209.67 -3.71553 0.427128 0
M  V30 23650 H 2211.97 -6.75909 -0.464028 0
M  V30 23651 H 2212.91 -7.00416 1.04035 0
M  V30 23652 H 2213.32 -5.64479 -0.0482352 0
M  V30 23653 N 2212.72 -0.552988 -1.4758 0
M  V30 23654 C 2214.13 -0.212452 -1.5818 0
M  V30 23655 C 2214.33 1.28493 -1.55215 0
M  V30 23656 O 2213.39 2.06482 -1.45333 0
M  V30 23657 C 2214.7 -0.835368 -2.88863 0
M  V30 23658 C 2216.25 -0.806209 -3.02439 0
M  V30 23659 C 2216.72 -1.40812 -4.35817 0
M  V30 23660 N 2218.21 -1.37111 -4.42442 0
M  V30 23661 C 2218.95 -1.80651 -5.44199 0
M  V30 23662 N 2218.45 -2.32027 -6.5279 0
M  V30 23663 N 2220.24 -1.71747 -5.35219 0
M  V30 23664 H 2212.39 -1.5259 -1.4775 0
M  V30 23665 H 2214.65 -0.636076 -0.70293 0
M  V30 23666 H 2214.36 -1.88754 -2.96757 0
M  V30 23667 H 2214.23 -0.325914 -3.75789 0
M  V30 23668 H 2216.62 0.237265 -2.94145 0
M  V30 23669 H 2216.7 -1.35338 -2.17065 0
M  V30 23670 H 2216.34 -2.45064 -4.44866 0
M  V30 23671 H 2216.27 -0.83643 -5.19915 0
M  V30 23672 H 2218.77 -0.995266 -3.64558 0
M  V30 23673 H 2219.08 -2.63184 -7.26604 0
M  V30 23674 H 2217.42 -2.36035 -6.53691 0
M  V30 23675 H 2220.61 -1.3139 -4.49282 0
M  V30 23676 H 2220.79 -2.05998 -6.14385 0
M  V30 23677 N 2214.19 1.54923 -0.28923 0
M  V30 23678 C 2215.42 2.04013 0.325953 0
M  V30 23679 C 2215.83 1.16653 1.48959 0
M  V30 23680 O 2215.17 0.182232 1.82794 0
M  V30 23681 C 2215.24 3.49159 0.85605 0
M  V30 23682 C 2214.9 4.56642 -0.180778 0
M  V30 23683 C 2215.9 5.1009 -1.00519 0
M  V30 23684 C 2213.58 5.01285 -0.319086 0
M  V30 23685 C 2215.58 6.06712 -1.95396 0
M  V30 23686 C 2213.26 5.9773 -1.27132 0
M  V30 23687 C 2214.26 6.50325 -2.08724 0
M  V30 23688 O 2213.95 7.44882 -3.02335 0
M  V30 23689 H 2213.68 0.671656 0.0765158 0
M  V30 23690 H 2216.24 2.00991 -0.423289 0
M  V30 23691 H 2214.47 3.49466 1.65561 0
M  V30 23692 H 2216.15 3.81509 1.38584 0
M  V30 23693 H 2216.92 4.76403 -0.909143 0
M  V30 23694 H 2212.8 4.59983 0.306027 0
M  V30 23695 H 2216.34 6.47689 -2.59122 0
M  V30 23696 H 2212.24 6.30835 -1.36812 0
M  V30 23697 H 2213.01 7.62645 -2.97178 0
M  V30 23698 N 2215.67 0.0167433 1.57591 0
M  V30 23699 C 2216.92 -0.663251 1.90907 0
M  V30 23700 C 2217.24 -1.73375 0.892539 0
M  V30 23701 O 2216.51 -1.95783 -0.0677279 0
M  V30 23702 H 2215.09 -0.247971 0.704641 0
M  V30 23703 H 2217.75 0.0616251 1.94803 0
M  V30 23704 H 2216.85 -1.12387 2.91162 0
M  V30 23705 N 2217.15 -1.55503 -0.256249 0
M  V30 23706 C 2218.38 -1.81278 -1.00762 0
M  V30 23707 C 2218.8 -0.592551 -1.78523 0
M  V30 23708 O 2218.16 0.458239 -1.75413 0
M  V30 23709 C 2218.21 -3.0469 -1.92864 0
M  V30 23710 O 2217.31 -2.8095 -3.01896 0
M  V30 23711 H 2216.65 -0.598669 -0.287213 0
M  V30 23712 H 2219.18 -2.02674 -0.280074 0
M  V30 23713 H 2219.19 -3.33873 -2.34505 0
M  V30 23714 H 2217.87 -3.93145 -1.35682 0
M  V30 23715 H 2216.44 -2.62909 -2.64449 0
M  V30 23716 N 2218.63 0.521507 -1.48721 0
M  V30 23717 C 2220.04 0.850831 -1.3503 0
M  V30 23718 C 2220.24 1.98116 -0.367746 0
M  V30 23719 O 2219.3 2.51642 0.207993 0
M  V30 23720 C 2220.61 1.21036 -2.75265 0
M  V30 23721 C 2222.16 1.31976 -2.83816 0
M  V30 23722 C 2222.64 1.71269 -4.24772 0
M  V30 23723 N 2224.13 1.78356 -4.27485 0
M  V30 23724 C 2224.86 2.10161 -5.33498 0
M  V30 23725 N 2224.36 2.40332 -6.49779 0
M  V30 23726 N 2226.15 2.11239 -5.20898 0
M  V30 23727 H 2218.3 -0.224167 -2.11214 0
M  V30 23728 H 2220.57 -0.0376605 -0.947252 0
M  V30 23729 H 2220.27 0.453354 -3.48766 0
M  V30 23730 H 2220.15 2.15858 -3.0933 0
M  V30 23731 H 2222.53 2.06752 -2.10565 0
M  V30 23732 H 2222.61 0.352552 -2.53359 0
M  V30 23733 H 2222.26 0.9705 -4.98542 0
M  V30 23734 H 2222.19 2.69054 -4.52678 0
M  V30 23735 H 2224.68 1.57282 -3.43614 0
M  V30 23736 H 2224.99 2.6373 -7.26406 0
M  V30 23737 H 2223.34 2.37833 -6.53039 0
M  V30 23738 H 2226.53 1.87131 -4.29068 0
M  V30 23739 H 2226.7 2.35694 -6.03616 0
M  V30 23740 N 2220.11 1.37452 0.771027 0
M  V30 23741 C 2221.04 1.35974 1.89825 0
M  V30 23742 C 2222.02 0.228246 1.68562 0
M  V30 23743 O 2223.2 0.428708 1.89409 0
M  V30 23744 C 2220.33 1.16668 3.27118 0
M  V30 23745 C 2219.29 2.26836 3.62946 0
M  V30 23746 C 2218.61 1.92652 4.98788 0
M  V30 23747 C 2219.91 3.69023 3.6962 0
M  V30 23748 H 2221.61 2.30299 1.91319 0
M  V30 23749 H 2219.15 1.10857 0.919062 0
M  V30 23750 H 2221.11 1.14263 4.05613 0
M  V30 23751 H 2219.83 0.187983 3.26059 0
M  V30 23752 H 2218.49 2.28397 2.86759 0
M  V30 23753 H 2218.14 0.933108 4.94269 0
M  V30 23754 H 2217.84 2.66425 5.23729 0
M  V30 23755 H 2219.36 1.91836 5.79682 0
M  V30 23756 H 2220.77 3.69588 4.38266 0
M  V30 23757 H 2219.17 4.41855 4.06059 0
M  V30 23758 H 2220.24 4.02597 2.70266 0
M  V30 23759 N 2221.58 -0.997276 1.22033 0
M  V30 23760 C 2222.83 -1.7397 1.05385 0
M  V30 23761 C 2223.19 -1.88038 -0.407386 0
M  V30 23762 O 2222.48 -1.40927 -1.29808 0
M  V30 23763 C 2222.67 -3.1473 1.6935 0
M  V30 23764 C 2222.5 -3.14389 3.21542 0
M  V30 23765 C 2221.27 -3.2053 3.90626 0
M  V30 23766 C 2223.47 -2.98889 4.18533 0
M  V30 23767 N 2221.45 -3.09897 5.29941 0
M  V30 23768 C 2222.82 -2.96237 5.4465 0
M  V30 23769 C 2224.88 -2.83248 4.09481 0
M  V30 23770 C 2223.58 -2.79546 6.62757 0
M  V30 23771 C 2225.61 -2.67916 5.27233 0
M  V30 23772 C 2224.97 -2.65947 6.52266 0
M  V30 23773 H 2221.07 -0.64645 0.44003 0
M  V30 23774 H 2223.65 -1.18472 1.54507 0
M  V30 23775 H 2221.82 -3.68481 1.22784 0
M  V30 23776 H 2223.55 -3.77511 1.45835 0
M  V30 23777 H 2220.31 -3.28037 3.41597 0
M  V30 23778 H 2220.73 -3.07901 6.02931 0
M  V30 23779 H 2225.38 -2.83571 3.13603 0
M  V30 23780 H 2223.09 -2.77969 7.58788 0
M  V30 23781 H 2226.68 -2.56802 5.22057 0
M  V30 23782 H 2225.56 -2.54226 7.41848 0
M  V30 23783 N 2223.06 -1.02932 -1.19343 0
M  V30 23784 C 2224.01 -0.610503 -2.22579 0
M  V30 23785 C 2224.98 0.375917 -1.6179 0
M  V30 23786 O 2226.16 0.272478 -1.88844 0
M  V30 23787 C 2223.3 0.0320867 -3.45085 0
M  V30 23788 C 2222.42 -1.00043 -4.20256 0
M  V30 23789 C 2221.55 -0.327553 -5.30189 0
M  V30 23790 C 2220.59 -1.34595 -5.97119 0
M  V30 23791 N 2219.73 -0.698849 -6.98613 0
M  V30 23792 H 2224.57 -1.49542 -2.57762 0
M  V30 23793 H 2222.11 -0.748333 -1.26643 0
M  V30 23794 H 2224.06 0.421893 -4.15061 0
M  V30 23795 H 2222.69 0.880585 -3.10557 0
M  V30 23796 H 2221.75 -1.50829 -3.4922 0
M  V30 23797 H 2223.06 -1.77441 -4.66172 0
M  V30 23798 H 2222.21 0.117073 -6.06587 0
M  V30 23799 H 2220.95 0.478627 -4.85346 0
M  V30 23800 H 2219.96 -1.80083 -5.19471 0
M  V30 23801 H 2221.18 -2.15363 -6.44046 0
M  V30 23802 H 2219.13 0.0872318 -6.55942 0
M  V30 23803 H 2219.04 -1.41071 -7.42721 0
M  V30 23804 H 2220.31 -0.278239 -7.79003 0
M  V30 23805 N 2224.54 1.35356 -0.807246 0
M  V30 23806 C 2225.47 2.32339 -0.23255 0
M  V30 23807 C 2226.45 1.57505 0.642358 0
M  V30 23808 O 2227.64 1.8557 0.572493 0
M  V30 23809 C 2224.77 3.41736 0.619178 0
M  V30 23810 C 2223.72 4.27711 -0.157291 0
M  V30 23811 C 2223.05 5.28434 0.81618 0
M  V30 23812 C 2224.35 5.04373 -1.35665 0
M  V30 23813 H 2226.04 2.80652 -1.04281 0
M  V30 23814 H 2223.59 1.34933 -0.502904 0
M  V30 23815 H 2225.54 4.08586 1.03129 0
M  V30 23816 H 2224.26 2.92033 1.46233 0
M  V30 23817 H 2222.92 3.62442 -0.550589 0
M  V30 23818 H 2222.57 4.74998 1.65486 0
M  V30 23819 H 2222.27 5.86829 0.300964 0
M  V30 23820 H 2223.79 5.98155 1.22649 0
M  V30 23821 H 2225.21 5.64165 -1.01937 0
M  V30 23822 H 2223.61 5.72267 -1.8064 0
M  V30 23823 H 2224.68 4.34977 -2.14296 0
M  V30 23824 N 2226.02 0.560807 1.47284 0
M  V30 23825 C 2227.43 0.220837 1.58065 0
M  V30 23826 C 2227.63 -1.27668 1.55894 0
M  V30 23827 O 2226.69 -2.05708 1.46426 0
M  V30 23828 C 2228 0.850676 2.88416 0
M  V30 23829 C 2229.55 0.822237 3.02007 0
M  V30 23830 C 2230.03 1.43121 4.35064 0
M  V30 23831 N 2231.52 1.39456 4.41708 0
M  V30 23832 C 2232.25 1.83534 5.43234 0
M  V30 23833 N 2231.75 2.35485 6.51551 0
M  V30 23834 N 2233.54 1.74583 5.34301 0
M  V30 23835 H 2225.69 1.53371 1.46939 0
M  V30 23836 H 2227.96 0.639795 0.699547 0
M  V30 23837 H 2227.66 1.90326 2.95752 0
M  V30 23838 H 2227.54 0.345839 3.75611 0
M  V30 23839 H 2229.92 -0.221663 2.94266 0
M  V30 23840 H 2230 1.36487 2.16345 0
M  V30 23841 H 2229.65 2.4742 4.43561 0
M  V30 23842 H 2229.58 0.86399 5.19464 0
M  V30 23843 H 2232.07 1.01459 3.64026 0
M  V30 23844 H 2232.38 2.67034 7.25198 0
M  V30 23845 H 2230.73 2.39498 6.5243 0
M  V30 23846 H 2233.92 1.33771 4.48579 0
M  V30 23847 H 2234.09 2.09253 6.13284 0
M  V30 23848 N 2227.5 -1.54768 0.297442 0
M  V30 23849 C 2228.74 -2.00365 -0.313341 0
M  V30 23850 C 2229.08 -1.18555 -1.53812 0
M  V30 23851 O 2228.35 -0.261137 -1.92739 0
M  V30 23852 C 2228.63 -3.53746 -0.673463 0
M  V30 23853 C 2228.49 -4.46298 0.560211 0
M  V30 23854 C 2229.81 -4.137 -1.50136 0
M  V30 23855 H 2226.92 -0.728376 -0.112415 0
M  V30 23856 H 2229.57 -1.85549 0.408833 0
M  V30 23857 H 2227.72 -3.66502 -1.28874 0
M  V30 23858 H 2229.39 -4.45453 1.19871 0
M  V30 23859 H 2227.63 -4.17041 1.19412 0
M  V30 23860 H 2228.3 -5.51368 0.264147 0
M  V30 23861 H 2230.78 -4.04358 -0.981517 0
M  V30 23862 H 2229.65 -5.21186 -1.72212 0
M  V30 23863 H 2229.92 -3.65347 -2.48945 0
M  V30 23864 N 2228.97 -0.0251005 -1.5758 0
M  V30 23865 C 2229.9 0.956538 -2.13008 0
M  V30 23866 C 2230.89 1.34198 -1.04523 0
M  V30 23867 O 2232.07 1.42131 -1.32335 0
M  V30 23868 C 2229.2 2.24022 -2.6539 0
M  V30 23869 C 2228.15 1.99565 -3.78626 0
M  V30 23870 C 2227.48 3.34163 -4.1742 0
M  V30 23871 C 2228.78 1.33805 -5.0487 0
M  V30 23872 H 2230.47 0.494939 -2.95281 0
M  V30 23873 H 2228.02 0.236627 -1.42043 0
M  V30 23874 H 2229.97 2.93071 -3.02799 0
M  V30 23875 H 2228.7 2.7234 -1.80273 0
M  V30 23876 H 2227.36 1.32935 -3.41649 0
M  V30 23877 H 2227 3.80232 -3.29291 0
M  V30 23878 H 2226.7 3.18606 -4.93724 0
M  V30 23879 H 2228.23 4.04486 -4.57409 0
M  V30 23880 H 2229.64 1.92848 -5.39891 0
M  V30 23881 H 2228.04 1.28659 -5.86146 0
M  V30 23882 H 2229.11 0.310476 -4.83905 0
M  V30 23883 N 2230.45 1.55637 0.247999 0
M  V30 23884 C 2231.38 1.86672 1.3299 0
M  V30 23885 C 2232.4 0.752903 1.44344 0
M  V30 23886 O 2233.59 1.03101 1.45714 0
M  V30 23887 C 2230.69 2.03687 2.7086 0
M  V30 23888 C 2229.86 3.34537 2.81786 0
M  V30 23889 C 2228.92 3.41308 4.00494 0
M  V30 23890 O 2227.94 4.14526 3.90073 0
M  V30 23891 N 2229.15 2.70521 5.13613 0
M  V30 23892 H 2231.91 2.80062 1.06702 0
M  V30 23893 H 2229.47 1.5586 0.438101 0
M  V30 23894 H 2231.46 2.05559 3.48608 0
M  V30 23895 H 2230.03 1.17046 2.8986 0
M  V30 23896 H 2229.25 3.44991 1.90723 0
M  V30 23897 H 2230.54 4.20786 2.86036 0
M  V30 23898 H 2229.94 2.10765 5.24971 0
M  V30 23899 H 2228.5 2.78087 5.895 0
M  V30 23900 N 2231.93 -0.513613 1.48996 0
M  V30 23901 C 2232.89 -1.59876 1.64232 0
M  V30 23902 C 2233.89 -1.52339 0.514723 0
M  V30 23903 O 2235.08 -1.55716 0.780898 0
M  V30 23904 C 2232.22 -2.99521 1.62788 0
M  V30 23905 H 2233.41 -1.47701 2.61007 0
M  V30 23906 H 2230.96 -0.736912 1.37838 0
M  V30 23907 H 2231.7 -3.17186 0.675516 0
M  V30 23908 H 2231.48 -3.064 2.44666 0
M  V30 23909 H 2232.97 -3.78385 1.76676 0
M  V30 23910 N 2233.41 -1.37859 -0.763727 0
M  V30 23911 C 2234.32 -1.36481 -1.90814 0
M  V30 23912 C 2235.34 -0.263278 -1.71997 0
M  V30 23913 O 2236.51 -0.500013 -1.95094 0
M  V30 23914 C 2233.58 -1.1787 -3.26048 0
M  V30 23915 C 2232.64 -2.37736 -3.57463 0
M  V30 23916 C 2231.87 -2.20003 -4.86245 0
M  V30 23917 O 2232.09 -1.18846 -5.57882 0
M  V30 23918 O 2231.03 -3.0837 -5.16906 0
M  V30 23919 H 2234.85 -2.32887 -1.94929 0
M  V30 23920 H 2232.44 -1.18672 -0.907598 0
M  V30 23921 H 2234.32 -1.09511 -4.06922 0
M  V30 23922 H 2233 -0.245429 -3.22768 0
M  V30 23923 H 2231.9 -2.51668 -2.76792 0
M  V30 23924 H 2233.24 -3.29658 -3.65494 0
M  V30 23925 N 2234.89 0.990791 -1.22561 0
M  V30 23926 C 2235.82 2.09954 -1.02184 0
M  V30 23927 C 2236.8 1.70001 0.0579095 0
M  V30 23928 O 2237.98 1.93917 -0.104718 0
M  V30 23929 C 2235.11 3.42059 -0.601083 0
M  V30 23930 C 2234.07 3.95869 -1.627 0
M  V30 23931 C 2233.39 5.24047 -1.06202 0
M  V30 23932 C 2234.69 4.26315 -3.0175 0
M  V30 23933 H 2236.39 2.27259 -1.9492 0
M  V30 23934 H 2233.93 1.09209 -0.938585 0
M  V30 23935 H 2235.89 4.19037 -0.445634 0
M  V30 23936 H 2234.61 3.24588 0.361948 0
M  V30 23937 H 2233.27 3.21025 -1.77027 0
M  V30 23938 H 2232.92 5.02919 -0.0902787 0
M  V30 23939 H 2232.62 5.61016 -1.74741 0
M  V30 23940 H 2234.14 6.03657 -0.918198 0
M  V30 23941 H 2235.56 4.94081 -2.90786 0
M  V30 23942 H 2233.95 4.74461 -3.67433 0
M  V30 23943 H 2235.02 3.34004 -3.51524 0
M  V30 23944 N 2236.37 1.03564 1.18795 0
M  V30 23945 C 2237.31 0.622298 2.22252 0
M  V30 23946 C 2238.28 -0.367332 1.61987 0
M  V30 23947 O 2239.47 -0.262459 1.88986 0
M  V30 23948 C 2236.61 -0.0137855 3.45097 0
M  V30 23949 C 2235.72 1.0227 4.1972 0
M  V30 23950 C 2234.86 0.355666 5.30008 0
M  V30 23951 C 2233.89 1.3776 5.96396 0
M  V30 23952 N 2233.03 0.735888 6.98233 0
M  V30 23953 H 2237.87 1.50907 2.56965 0
M  V30 23954 H 2235.41 0.755039 1.26244 0
M  V30 23955 H 2237.37 -0.399875 4.15279 0
M  V30 23956 H 2236 -0.864103 3.11019 0
M  V30 23957 H 2235.05 1.52679 3.48415 0
M  V30 23958 H 2236.36 1.79911 4.65224 0
M  V30 23959 H 2235.51 -0.0849028 6.06641 0
M  V30 23960 H 2234.25 -0.452882 4.85593 0
M  V30 23961 H 2233.26 1.82836 5.18509 0
M  V30 23962 H 2234.48 2.18776 6.42895 0
M  V30 23963 H 2232.43 -0.0524444 6.55979 0
M  V30 23964 H 2232.35 1.45008 7.41963 0
M  V30 23965 H 2233.61 0.319547 7.78845 0
M  V30 23966 N 2237.84 -1.34926 0.814413 0
M  V30 23967 C 2239.09 -1.97796 0.394906 0
M  V30 23968 C 2239.41 -1.65313 -1.04552 0
M  V30 23969 O 2240.61 -2.21607 -1.56852 0
M  V30 23970 C 2239.07 -3.53886 0.655165 0
M  V30 23971 C 2238.68 -3.95272 2.10865 0
M  V30 23972 C 2240.42 -4.23429 0.301403 0
M  V30 23973 C 2238.33 -5.4424 2.31425 0
M  V30 23974 H 2237.26 -0.740136 0.143926 0
M  V30 23975 H 2239.91 -1.53886 0.999571 0
M  V30 23976 H 2238.29 -3.95995 -0.0195557 0
M  V30 23977 H 2239.46 -3.64293 2.82183 0
M  V30 23978 H 2237.78 -3.38642 2.42303 0
M  V30 23979 H 2240.38 -5.32944 0.432962 0
M  V30 23980 H 2240.72 -4.09429 -0.753238 0
M  V30 23981 H 2241.25 -3.86768 0.930356 0
M  V30 23982 H 2237.99 -5.63216 3.35363 0
M  V30 23983 H 2237.51 -5.76761 1.6464 0
M  V30 23984 H 2239.19 -6.10807 2.13362 0
M  V30 23985 N 2239.32 -0.56861 -1.46985 0
M  V30 23986 C 2240.27 0.185608 -2.31858 0
M  V30 23987 C 2241.26 0.898224 -1.43626 0
M  V30 23988 O 2242.47 0.818214 -1.60329 0
M  V30 23989 H 2238.84 0.0787267 -0.747868 0
M  V30 23990 H 2240.82 -0.549243 -2.93302 0
M  V30 23991 C 2239.56 1.19514 -3.26515 0
M  V30 23992 H 2238.89 0.656215 -3.94378 0
M  V30 23993 H 2240.33 1.69353 -3.8871 0
M  V30 23994 C 2238.79 2.2489 -2.50851 0
M  V30 23995 O 2239.32 3.3201 -2.26125 0
M  V30 23996 N 2237.52 1.9912 -2.11659 0
M  V30 23997 H 2237.07 1.1202 -2.31968 0
M  V30 23998 H 2237.03 2.69839 -1.61351 0
M  V30 23999 N 2240.8 1.54608 -0.305646 0
M  V30 24000 C 2242.05 1.9941 0.303063 0
M  V30 24001 C 2242.36 1.19767 1.54646 0
M  V30 24002 O 2243.57 1.54859 2.23005 0
M  V30 24003 C 2242.02 3.55022 0.590525 0
M  V30 24004 C 2241.63 4.4348 -0.634797 0
M  V30 24005 C 2243.38 4.08338 1.16017 0
M  V30 24006 C 2241.28 5.90532 -0.32023 0
M  V30 24007 H 2240.21 0.744864 0.117018 0
M  V30 24008 H 2242.86 1.78744 -0.415076 0
M  V30 24009 H 2241.25 3.71606 1.36838 0
M  V30 24010 H 2242.42 4.3867 -1.41086 0
M  V30 24011 H 2240.73 4.0096 -1.1234 0
M  V30 24012 H 2243.33 5.15778 1.40985 0
M  V30 24013 H 2243.67 3.59223 2.10391 0
M  V30 24014 H 2244.21 3.95315 0.443916 0
M  V30 24015 H 2240.95 6.43806 -1.23265 0
M  V30 24016 H 2240.47 5.98338 0.418474 0
M  V30 24017 H 2242.15 6.46955 0.0765103 0
M  V30 24018 N 2242.28 0.033457 1.57564 0
M  V30 24019 C 2243.69 -0.32297 1.56298 0
M  V30 24020 C 2243.89 -1.72618 1.03949 0
M  V30 24021 O 2242.95 -2.42942 0.688151 0
M  V30 24022 C 2244.26 -0.167612 3.00232 0
M  V30 24023 C 2245.81 -0.240052 3.12078 0
M  V30 24024 C 2246.29 -0.113432 4.5786 0
M  V30 24025 N 2247.78 -0.170277 4.62887 0
M  V30 24026 C 2248.51 -0.096151 5.73319 0
M  V30 24027 N 2248.01 0.0293099 6.92794 0
M  V30 24028 N 2249.8 -0.150453 5.61899 0
M  V30 24029 H 2241.95 0.950989 1.89921 0
M  V30 24030 H 2244.21 0.367623 0.873818 0
M  V30 24031 H 2243.92 0.799162 3.425 0
M  V30 24032 H 2243.79 -0.936019 3.65402 0
M  V30 24033 H 2246.18 -1.19729 2.6972 0
M  V30 24034 H 2246.26 0.558807 2.49622 0
M  V30 24035 H 2245.91 0.840403 5.00899 0
M  V30 24036 H 2245.84 -0.931211 5.18301 0
M  V30 24037 H 2248.33 -0.267214 3.76954 0
M  V30 24038 H 2248.64 0.0790611 7.7276 0
M  V30 24039 H 2246.99 0.0641521 6.9497 0
M  V30 24040 H 2250.18 -0.246899 4.67448 0
M  V30 24041 H 2250.35 -0.0892226 6.47939 0
M  V30 24042 N 2243.76 -1.55766 -0.239741 0
M  V30 24043 C 2244.69 -1.93932 -1.30049 0
M  V30 24044 C 2245.67 -0.805158 -1.49837 0
M  V30 24045 O 2246.85 -1.06602 -1.62326 0
M  V30 24046 C 2243.98 -2.24024 -2.65387 0
M  V30 24047 C 2242.94 -3.3976 -2.60283 0
M  V30 24048 C 2242.26 -3.55412 -3.99483 0
M  V30 24049 C 2243.56 -4.7525 -2.16645 0
M  V30 24050 H 2245.26 -2.82785 -0.983523 0
M  V30 24051 H 2242.8 -1.36056 -0.471677 0
M  V30 24052 H 2244.75 -2.49314 -3.39736 0
M  V30 24053 H 2243.48 -1.32006 -2.98734 0
M  V30 24054 H 2242.14 -3.1449 -1.88392 0
M  V30 24055 H 2241.79 -2.608 -4.30107 0
M  V30 24056 H 2241.49 -4.33245 -3.96954 0
M  V30 24057 H 2243.01 -3.8303 -4.75521 0
M  V30 24058 H 2244.42 -4.99864 -2.80729 0
M  V30 24059 H 2242.82 -5.56236 -2.25213 0
M  V30 24060 H 2243.89 -4.71829 -1.11827 0
M  V30 24061 N 2245.23 0.505704 -1.49266 0
M  V30 24062 C 2246.46 1.28426 -1.62217 0
M  V30 24063 C 2246.88 1.86533 -0.29173 0
M  V30 24064 O 2246.23 1.67602 0.722204 0
M  V30 24065 C 2246.28 2.41788 -2.68739 0
M  V30 24066 O 2246.01 1.86071 -3.96622 0
M  V30 24067 C 2247.51 3.33235 -2.92352 0
M  V30 24068 H 2244.73 0.389687 -0.546246 0
M  V30 24069 H 2247.27 0.607575 -1.95266 0
M  V30 24070 H 2245.43 3.05296 -2.38481 0
M  V30 24071 H 2245.84 2.60457 -4.55261 0
M  V30 24072 H 2247.31 4.09068 -3.70631 0
M  V30 24073 H 2247.79 3.89945 -2.02088 0
M  V30 24074 H 2248.4 2.75498 -3.24008 0
M  V30 24075 N 2246.71 1.38262 0.756405 0
M  V30 24076 C 2248.12 1.30663 1.33357 0
M  V30 24077 C 2248.47 -0.038853 1.96162 0
M  V30 24078 O 2247.6 -0.940884 1.94875 0
M  V30 24079 C 2248.19 2.36627 2.42473 0
M  V30 24080 C 2246.75 2.32615 2.95917 0
M  V30 24081 C 2245.9 2.19642 1.69272 0
M  V30 24082 H 2248.85 1.48661 0.555494 0
M  V30 24083 H 2248.87 2.0218 3.22341 0
M  V30 24084 H 2248.38 3.34541 1.96733 0
M  V30 24085 H 2246.49 1.38273 3.45993 0
M  V30 24086 H 2246.6 3.26642 3.50488 0
M  V30 24087 H 2244.96 1.66446 1.9279 0
M  V30 24088 H 2245.75 3.19493 1.25614 0
M  V30 24089 N 2248.19 -0.984277 1.23084 0
M  V30 24090 C 2249.42 -1.76035 1.08717 0
M  V30 24091 C 2249.83 -1.85304 -0.361659 0
M  V30 24092 O 2249.19 -1.32941 -1.25032 0
M  V30 24093 C 2249.24 -3.1892 1.70212 0
M  V30 24094 O 2248.96 -3.10138 3.09428 0
M  V30 24095 C 2250.46 -4.12939 1.61235 0
M  V30 24096 H 2247.68 -0.552565 0.380674 0
M  V30 24097 H 2250.23 -1.23686 1.62856 0
M  V30 24098 H 2248.38 -3.68308 1.20116 0
M  V30 24099 H 2248.8 -4.00059 3.39195 0
M  V30 24100 H 2250.27 -5.10916 2.08971 0
M  V30 24101 H 2250.75 -4.3548 0.570452 0
M  V30 24102 H 2251.35 -3.69452 2.10678 0
M  V30 24103 N 2249.67 -1.04192 -1.18244 0
M  V30 24104 C 2250.92 -0.744576 -1.87884 0
M  V30 24105 C 2251.24 0.729975 -1.80821 0
M  V30 24106 O 2250.51 1.52682 -1.22739 0
M  V30 24107 H 2249.09 -0.27243 -0.695551 0
M  V30 24108 H 2251.75 -1.31894 -1.43492 0
M  V30 24109 H 2250.85 -1.05054 -2.93888 0
M  V30 24110 N 2251.15 1.34492 -0.821557 0
M  V30 24111 C 2252.09 2.29544 -0.240437 0
M  V30 24112 C 2253.06 1.53524 0.634004 0
M  V30 24113 O 2254.25 1.819 0.575934 0
M  V30 24114 C 2251.39 3.3997 0.592809 0
M  V30 24115 C 2250.5 4.30931 -0.303726 0
M  V30 24116 C 2249.64 5.28459 0.538956 0
M  V30 24117 C 2248.68 6.11058 -0.357049 0
M  V30 24118 N 2247.81 7.00679 0.44648 0
M  V30 24119 H 2252.65 2.78648 -1.05637 0
M  V30 24120 H 2250.19 1.37126 -0.532437 0
M  V30 24121 H 2252.15 4.02676 1.09122 0
M  V30 24122 H 2250.78 2.92104 1.37387 0
M  V30 24123 H 2249.83 3.69099 -0.92034 0
M  V30 24124 H 2251.14 4.88821 -0.992747 0
M  V30 24125 H 2250.3 5.9661 1.1019 0
M  V30 24126 H 2249.03 4.71103 1.26149 0
M  V30 24127 H 2248.04 5.41841 -0.932142 0
M  V30 24128 H 2249.26 6.70495 -1.07767 0
M  V30 24129 H 2247.21 6.45793 1.15271 0
M  V30 24130 H 2247.13 7.55776 -0.184181 0
M  V30 24131 H 2248.4 7.73159 0.992216 0
M  V30 24132 N 2252.62 0.576397 1.46681 0
M  V30 24133 C 2253.59 -0.150199 2.28707 0
M  V30 24134 C 2254.59 -0.82477 1.38037 0
M  V30 24135 O 2255.78 -0.677691 1.60477 0
M  V30 24136 C 2252.91 -1.22187 3.1825 0
M  V30 24137 H 2254.1 0.570573 2.94422 0
M  V30 24138 H 2251.66 0.334105 1.52687 0
M  V30 24139 H 2252.39 -1.97442 2.57269 0
M  V30 24140 H 2252.18 -0.742744 3.85001 0
M  V30 24141 H 2253.67 -1.73166 3.80004 0
M  V30 24142 N 2254.1 -1.54444 0.313841 0
M  V30 24143 C 2255.35 -1.99568 -0.292484 0
M  V30 24144 C 2255.66 -1.20585 -1.54009 0
M  V30 24145 O 2256.87 -1.56039 -2.2218 0
M  V30 24146 C 2255.33 -3.5533 -0.571689 0
M  V30 24147 C 2254.93 -4.43137 0.658307 0
M  V30 24148 C 2256.68 -4.08948 -1.1385 0
M  V30 24149 C 2254.59 -5.90354 0.351543 0
M  V30 24150 H 2253.52 -0.745474 -0.113066 0
M  V30 24151 H 2256.17 -1.78521 0.42455 0
M  V30 24152 H 2254.55 -3.72327 -1.34865 0
M  V30 24153 H 2255.72 -4.37916 1.43411 0
M  V30 24154 H 2254.04 -4.00358 1.14465 0
M  V30 24155 H 2256.63 -5.16519 -1.38247 0
M  V30 24156 H 2256.98 -3.60334 -2.08483 0
M  V30 24157 H 2257.51 -3.95545 -0.422945 0
M  V30 24158 H 2254.25 -6.43143 1.26678 0
M  V30 24159 H 2253.77 -5.98552 -0.386737 0
M  V30 24160 H 2255.45 -6.46986 -0.0421997 0
M  V30 24161 N 2255.58 -0.0418125 -1.57545 0
M  V30 24162 C 2256.99 0.495227 -1.80012 0
M  V30 24163 C 2257.34 1.71488 -0.953229 0
M  V30 24164 O 2256.47 2.15753 -0.167176 0
M  V30 24165 C 2257.06 0.905208 -3.26483 0
M  V30 24166 C 2255.62 1.38728 -3.49902 0
M  V30 24167 C 2254.77 0.358007 -2.74979 0
M  V30 24168 H 2257.72 -0.267763 -1.56425 0
M  V30 24169 H 2257.74 1.76876 -3.36891 0
M  V30 24170 H 2257.25 0.0173328 -3.88096 0
M  V30 24171 H 2255.35 2.29466 -2.93558 0
M  V30 24172 H 2255.47 1.3859 -4.58617 0
M  V30 24173 H 2253.83 0.828869 -2.40836 0
M  V30 24174 H 2254.61 -0.521621 -3.39314 0
M  V30 24175 N 2257.06 1.55891 0.231477 0
M  V30 24176 C 2258.31 1.77642 0.955315 0
M  V30 24177 C 2258.62 0.608579 1.85892 0
M  V30 24178 O 2259.83 0.709476 2.62066 0
M  V30 24179 C 2258.28 3.14555 1.74881 0
M  V30 24180 C 2257.89 4.39033 0.891838 0
M  V30 24181 C 2259.63 3.45637 2.46445 0
M  V30 24182 C 2257.54 5.66974 1.68211 0
M  V30 24183 H 2256.47 0.662271 0.360434 0
M  V30 24184 H 2259.12 1.823 0.209484 0
M  V30 24185 H 2257.5 3.04045 2.53717 0
M  V30 24186 H 2258.68 4.60573 0.144712 0
M  V30 24187 H 2256.99 4.15397 0.28879 0
M  V30 24188 H 2259.59 4.38447 3.06053 0
M  V30 24189 H 2259.93 2.67674 3.18836 0
M  V30 24190 H 2260.47 3.57431 1.74607 0
M  V30 24191 H 2257.21 6.47802 1.00166 0
M  V30 24192 H 2256.73 5.49511 2.40411 0
M  V30 24193 H 2258.4 6.0679 2.24533 0
M  V30 24194 N 2258.54 -0.497781 1.49532 0
M  V30 24195 C 2259.95 -0.829242 1.36366 0
M  V30 24196 C 2260.15 -1.97506 0.399218 0
M  V30 24197 O 2259.21 -2.51941 -0.167933 0
M  V30 24198 C 2260.52 -1.16642 2.77155 0
M  V30 24199 C 2262.07 -1.27444 2.85879 0
M  V30 24200 C 2262.54 -1.64489 4.27443 0
M  V30 24201 N 2264.04 -1.71532 4.30268 0
M  V30 24202 C 2264.77 -2.01647 5.36774 0
M  V30 24203 N 2264.27 -2.29964 6.5352 0
M  V30 24204 N 2266.06 -2.02925 5.24193 0
M  V30 24205 H 2258.21 0.257741 2.1083 0
M  V30 24206 H 2260.47 0.0527257 0.946533 0
M  V30 24207 H 2260.18 -0.397811 3.49443 0
M  V30 24208 H 2260.05 -2.10909 3.12725 0
M  V30 24209 H 2262.44 -2.03376 2.13827 0
M  V30 24210 H 2262.52 -0.3122 2.53888 0
M  V30 24211 H 2262.17 -0.891063 5.00022 0
M  V30 24212 H 2262.1 -2.61819 4.56901 0
M  V30 24213 H 2264.59 -1.51796 3.46073 0
M  V30 24214 H 2264.9 -2.5214 7.3051 0
M  V30 24215 H 2263.24 -2.27414 6.56741 0
M  V30 24216 H 2266.44 -1.80281 4.31991 0
M  V30 24217 H 2266.61 -2.26061 6.0729 0
M  V30 24218 N 2260.01 -1.38661 -0.749062 0
M  V30 24219 C 2260.94 -1.38976 -1.87637 0
M  V30 24220 C 2261.93 -0.255034 -1.68177 0
M  V30 24221 O 2263.11 -0.458787 -1.88703 0
M  V30 24222 C 2260.24 -1.21857 -3.2522 0
M  V30 24223 C 2259.19 -2.32581 -3.59291 0
M  V30 24224 C 2258.52 -2.00563 -4.9566 0
M  V30 24225 C 2259.82 -3.74857 -3.63703 0
M  V30 24226 H 2261.51 -2.33313 -1.87631 0
M  V30 24227 H 2259.06 -1.12305 -0.90131 0
M  V30 24228 H 2261.01 -1.20702 -4.03744 0
M  V30 24229 H 2259.74 -0.239832 -3.25718 0
M  V30 24230 H 2258.4 -2.3293 -2.83089 0
M  V30 24231 H 2258.04 -1.01162 -4.92722 0
M  V30 24232 H 2257.74 -2.74723 -5.19424 0
M  V30 24233 H 2259.27 -2.01034 -5.76557 0
M  V30 24234 H 2260.68 -3.76514 -4.32331 0
M  V30 24235 H 2259.08 -4.48259 -3.98978 0
M  V30 24236 H 2260.15 -4.06846 -2.63826 0
M  V30 24237 N 2261.49 0.977736 -1.23605 0
M  V30 24238 C 2262.74 1.71939 -1.06974 0
M  V30 24239 C 2263.07 1.90489 0.392975 0
M  V30 24240 O 2262.32 1.45642 1.30717 0
M  V30 24241 C 2262.62 3.11996 -1.74336 0
M  V30 24242 C 2262.29 3.13317 -3.24258 0
M  V30 24243 C 2260.95 3.13385 -3.65162 0
M  V30 24244 C 2263.3 3.08425 -4.20147 0
M  V30 24245 C 2260.63 3.06281 -5.00409 0
M  V30 24246 C 2262.98 3.02863 -5.55389 0
M  V30 24247 C 2261.65 3.01254 -5.95653 0
M  V30 24248 H 2260.92 0.629168 -0.391444 0
M  V30 24249 H 2263.56 1.144 -1.53574 0
M  V30 24250 H 2261.87 3.72938 -1.20102 0
M  V30 24251 H 2263.57 3.68155 -1.58943 0
M  V30 24252 H 2260.16 3.14024 -2.91697 0
M  V30 24253 H 2264.34 3.07511 -3.89552 0
M  V30 24254 H 2259.6 3.0339 -5.30815 0
M  V30 24255 H 2263.77 2.98035 -6.29403 0
M  V30 24256 H 2261.4 2.95504 -7.00415 0
M  V30 24257 N 2262.97 1.04818 1.1769 0
M  V30 24258 C 2263.9 0.66683 2.23776 0
M  V30 24259 C 2264.88 -0.333581 1.66797 0
M  V30 24260 O 2266.07 -0.212008 1.93039 0
M  V30 24261 C 2263.2 0.0368544 3.4728 0
M  V30 24262 C 2262.15 0.961619 4.17057 0
M  V30 24263 C 2261.48 0.19572 5.34342 0
M  V30 24264 C 2262.78 2.2841 4.69709 0
M  V30 24265 H 2264.47 1.55371 2.5593 0
M  V30 24266 H 2262.02 0.748506 1.23018 0
M  V30 24267 H 2263.97 -0.241701 4.20706 0
M  V30 24268 H 2262.69 -0.884949 3.14382 0
M  V30 24269 H 2261.35 1.22468 3.45539 0
M  V30 24270 H 2261 -0.728729 4.97693 0
M  V30 24271 H 2260.7 0.811878 5.81964 0
M  V30 24272 H 2262.23 -0.0756399 6.10553 0
M  V30 24273 H 2263.64 2.06572 5.34791 0
M  V30 24274 H 2262.04 2.8539 5.27895 0
M  V30 24275 H 2263.11 2.92532 3.86721 0
M  V30 24276 N 2264.45 -1.34055 0.828678 0
M  V30 24277 C 2265.68 -2.02326 0.432656 0
M  V30 24278 C 2266.09 -1.62387 -0.963119 0
M  V30 24279 O 2265.45 -0.83215 -1.62424 0
M  V30 24280 C 2265.5 -3.57566 0.531883 0
M  V30 24281 O 2265.22 -3.9606 1.87265 0
M  V30 24282 C 2266.72 -4.43105 0.1315 0
M  V30 24283 H 2263.94 -0.648332 0.172934 0
M  V30 24284 H 2266.49 -1.71206 1.11843 0
M  V30 24285 H 2264.64 -3.87255 -0.10587 0
M  V30 24286 H 2265.06 -4.90754 1.85096 0
M  V30 24287 H 2266.53 -5.51424 0.252001 0
M  V30 24288 H 2267.01 -4.29337 -0.92557 0
M  V30 24289 H 2267.61 -4.18755 0.74328 0
M  V30 24290 N 2265.93 -0.584167 -1.46374 0
M  V30 24291 C 2266.88 0.161006 -2.32042 0
M  V30 24292 C 2267.87 0.88294 -1.4457 0
M  V30 24293 O 2269.08 0.801163 -1.61187 0
M  V30 24294 H 2265.45 0.0707902 -0.748661 0
M  V30 24295 H 2267.42 -0.58032 -2.92703 0
M  V30 24296 C 2266.17 1.16044 -3.27764 0
M  V30 24297 H 2265.49 0.61435 -3.95052 0
M  V30 24298 H 2266.93 1.65221 -3.90484 0
M  V30 24299 C 2265.39 2.22216 -2.53222 0
M  V30 24300 O 2265.92 3.29593 -2.29634 0
M  V30 24301 N 2264.13 1.96864 -2.13759 0
M  V30 24302 H 2263.68 1.09553 -2.33143 0
M  V30 24303 H 2263.63 2.68112 -1.64204 0
M  V30 24304 N 2267.41 1.54275 -0.322027 0
M  V30 24305 C 2268.32 2.27975 0.553591 0
M  V30 24306 C 2269.33 1.3227 1.13052 0
M  V30 24307 O 2270.51 1.65282 1.15081 0
M  V30 24308 C 2267.57 3.02204 1.69922 0
M  V30 24309 C 2266.63 4.13492 1.15426 0
M  V30 24310 C 2265.87 4.84172 2.24529 0
M  V30 24311 O 2266.09 4.54356 3.44844 0
M  V30 24312 O 2265.02 5.71114 1.90034 0
M  V30 24313 H 2268.85 3.03667 -0.0448878 0
M  V30 24314 H 2266.43 1.49142 -0.087768 0
M  V30 24315 H 2268.32 3.48694 2.36624 0
M  V30 24316 H 2266.99 2.29389 2.28391 0
M  V30 24317 H 2265.9 3.71355 0.452371 0
M  V30 24318 H 2267.23 4.88346 0.614719 0
M  V30 24319 N 2268.88 0.0501669 1.5752 0
M  V30 24320 C 2270.11 -0.636962 1.97377 0
M  V30 24321 C 2270.53 -1.63643 0.927495 0
M  V30 24322 O 2269.89 -1.8097 -0.109378 0
M  V30 24323 C 2269.94 -1.30117 3.36306 0
M  V30 24324 O 2269.04 -2.41683 3.3416 0
M  V30 24325 H 2268.38 -0.165667 0.643001 0
M  V30 24326 H 2270.91 0.118269 2.04258 0
M  V30 24327 H 2270.92 -1.65309 3.73011 0
M  V30 24328 H 2269.6 -0.568673 4.11994 0
M  V30 24329 H 2268.18 -2.08446 3.092 0
M  V30 24330 N 2270.36 -1.56011 -0.223207 0
M  V30 24331 C 2271.61 -1.78594 -0.945971 0
M  V30 24332 C 2271.93 -0.618381 -1.84935 0
M  V30 24333 O 2271.2 0.364799 -1.92473 0
M  V30 24334 H 2269.78 -0.658713 -0.352287 0
M  V30 24335 H 2272.44 -1.93472 -0.23546 0
M  V30 24336 H 2271.54 -2.70675 -1.55376 0
M  V30 24337 N 2271.84 0.489844 -1.49794 0
M  V30 24338 C 2273.07 1.26515 -1.63333 0
M  V30 24339 C 2273.48 1.86669 -0.308425 0
M  V30 24340 O 2272.82 1.69109 0.717482 0
M  V30 24341 C 2272.88 2.42685 -2.65225 0
M  V30 24342 C 2272.55 2.03314 -4.09283 0
M  V30 24343 C 2273.54 1.56643 -4.95741 0
M  V30 24344 C 2271.23 2.12608 -4.55086 0
M  V30 24345 C 2273.22 1.19784 -6.26044 0
M  V30 24346 C 2270.91 1.7536 -5.85399 0
M  V30 24347 C 2271.91 1.29024 -6.70702 0
M  V30 24348 O 2271.6 0.922849 -7.98585 0
M  V30 24349 H 2271.33 0.389499 -0.552509 0
M  V30 24350 H 2273.88 0.593347 -1.96643 0
M  V30 24351 H 2272.11 3.12977 -2.27117 0
M  V30 24352 H 2273.8 3.0469 -2.68177 0
M  V30 24353 H 2274.57 1.489 -4.61577 0
M  V30 24354 H 2270.45 2.47624 -3.88848 0
M  V30 24355 H 2273.99 0.83546 -6.92579 0
M  V30 24356 H 2269.89 1.82757 -6.19088 0
M  V30 24357 H 2270.65 1.05335 -8.11694 0
M  V30 24358 N 2273.32 1.39056 0.741698 0
M  V30 24359 C 2274.55 1.38972 1.52873 0
M  V30 24360 C 2274.96 -0.0192933 1.8919 0
M  V30 24361 O 2274.3 -0.999329 1.5414 0
M  V30 24362 C 2274.36 2.19221 2.84925 0
M  V30 24363 C 2274.02 3.67919 2.7108 0
M  V30 24364 C 2275.02 4.6115 2.40076 0
M  V30 24365 C 2272.71 4.11423 2.8816 0
M  V30 24366 C 2274.7 5.95866 2.26325 0
M  V30 24367 C 2272.39 5.46216 2.74028 0
M  V30 24368 C 2273.39 6.38252 2.43154 0
M  V30 24369 O 2273.07 7.70563 2.29102 0
M  V30 24370 H 2272.81 0.476762 0.479243 0
M  V30 24371 H 2275.36 1.83407 0.924719 0
M  V30 24372 H 2273.59 1.69524 3.47561 0
M  V30 24373 H 2275.28 2.11398 3.46505 0
M  V30 24374 H 2276.04 4.28842 2.26537 0
M  V30 24375 H 2271.92 3.40125 3.11185 0
M  V30 24376 H 2275.47 6.67669 2.02148 0
M  V30 24377 H 2271.36 5.78117 2.87143 0
M  V30 24378 H 2272.13 7.81215 2.44223 0
M  V30 24379 N 2274.8 -0.971167 1.24121 0
M  V30 24380 C 2275.73 -2.08302 1.05511 0
M  V30 24381 C 2276.71 -1.70072 -0.0308565 0
M  V30 24382 O 2277.89 -1.93726 0.135556 0
M  V30 24383 C 2275.02 -3.41059 0.655425 0
M  V30 24384 C 2273.98 -3.93231 1.68978 0
M  V30 24385 C 2273.3 -5.22291 1.14525 0
M  V30 24386 C 2274.6 -4.2146 3.08494 0
M  V30 24387 H 2276.3 -2.24129 1.98511 0
M  V30 24388 H 2273.84 -1.07702 0.95584 0
M  V30 24389 H 2275.79 -4.18275 0.512243 0
M  V30 24390 H 2274.52 -3.25123 -0.310263 0
M  V30 24391 H 2273.18 -3.18168 1.82111 0
M  V30 24392 H 2272.83 -5.02712 0.170277 0
M  V30 24393 H 2272.53 -5.58165 1.83645 0
M  V30 24394 H 2274.05 -6.0212 1.01412 0
M  V30 24395 H 2275.46 -4.89393 2.98609 0
M  V30 24396 H 2273.86 -4.68555 3.74935 0
M  V30 24397 H 2274.93 -3.2837 3.56793 0
M  V30 24398 N 2276.27 -1.05441 -1.17133 0
M  V30 24399 C 2277.55 -0.679731 -1.83409 0
M  V30 24400 C 2277.93 0.839692 -1.93681 0
M  V30 24401 O 2277.28 1.74662 -1.47328 0
M  V30 24402 C 2277.49 -1.37164 -3.20916 0
M  V30 24403 C 2278.84 -1.5113 -3.96793 0
M  V30 24404 O 2279.86 -1.33086 -3.30404 0
M  V30 24405 O 2278.72 -1.8066 -5.15775 0
M  V30 24406 H 2275.81 -0.239583 -0.791536 0
M  V30 24407 H 2278.36 -1.15415 -1.24408 0
M  V30 24408 H 2277.13 -2.40813 -3.08423 0
M  V30 24409 H 2276.76 -0.886742 -3.87586 0
M  V30 24410 N 2277.75 1.33613 -0.835776 0
M  V30 24411 C 2279 1.97143 -0.426324 0
M  V30 24412 C 2279.31 1.66955 1.01909 0
M  V30 24413 O 2280.52 2.24074 1.53307 0
M  V30 24414 C 2278.98 3.52799 -0.711383 0
M  V30 24415 C 2278.58 3.91867 -2.17127 0
M  V30 24416 C 2280.33 4.22896 -0.368729 0
M  V30 24417 C 2278.24 5.40489 -2.40054 0
M  V30 24418 H 2277.17 0.737753 -0.155683 0
M  V30 24419 H 2279.82 1.52276 -1.02393 0
M  V30 24420 H 2278.2 3.95976 -0.0434462 0
M  V30 24421 H 2279.37 3.59758 -2.87942 0
M  V30 24422 H 2277.69 3.34744 -2.4766 0
M  V30 24423 H 2280.28 5.32188 -0.517694 0
M  V30 24424 H 2280.63 4.10575 0.688006 0
M  V30 24425 H 2281.16 3.85239 -0.99177 0
M  V30 24426 H 2277.9 5.57809 -3.44281 0
M  V30 24427 H 2277.42 5.74069 -1.73795 0
M  V30 24428 H 2279.1 6.07336 -2.23053 0
M  V30 24429 N 2279.23 0.591922 1.46062 0
M  V30 24430 C 2280.46 0.0850678 2.07225 0
M  V30 24431 C 2280.88 -1.21461 1.43628 0
M  V30 24432 O 2280.24 -1.73583 0.523336 0
M  V30 24433 C 2280.29 -0.0575933 3.60554 0
M  V30 24434 O 2279.39 -1.11181 3.9713 0
M  V30 24435 H 2278.73 0.0669684 0.660614 0
M  V30 24436 H 2281.26 0.817483 1.87559 0
M  V30 24437 H 2281.27 -0.260829 4.07165 0
M  V30 24438 H 2279.95 0.891488 4.06233 0
M  V30 24439 H 2278.52 -0.886292 3.62214 0
M  V30 24440 N 2280.71 -1.54102 0.330204 0
M  V30 24441 C 2281.64 -2.27514 -0.525313 0
M  V30 24442 C 2282.62 -1.28562 -1.11381 0
M  V30 24443 O 2283.8 -1.57385 -1.1377 0
M  V30 24444 C 2280.93 -3.03794 -1.68305 0
M  V30 24445 C 2279.89 -4.10139 -1.22353 0
M  V30 24446 C 2279.21 -4.74297 -2.46873 0
M  V30 24447 C 2280.51 -5.21234 -0.333605 0
M  V30 24448 H 2282.21 -2.99273 0.0870656 0
M  V30 24449 H 2279.75 -1.43935 0.0433146 0
M  V30 24450 H 2281.71 -3.53884 -2.28788 0
M  V30 24451 H 2280.43 -2.29663 -2.32212 0
M  V30 24452 H 2279.09 -3.60942 -0.641586 0
M  V30 24453 H 2278.74 -3.96775 -3.09159 0
M  V30 24454 H 2278.44 -5.46136 -2.16815 0
M  V30 24455 H 2279.96 -5.27164 -3.08107 0
M  V30 24456 H 2281.38 -5.6704 -0.844913 0
M  V30 24457 H 2279.77 -5.99969 -0.125507 0
M  V30 24458 H 2280.84 -4.8074 0.633808 0
M  V30 24459 N 2282.19 -0.0585199 -1.57491 0
M  V30 24460 C 2283.42 0.622099 -1.97011 0
M  V30 24461 C 2283.82 1.64479 -0.935063 0
M  V30 24462 O 2283.17 1.83488 0.0882581 0
M  V30 24463 C 2283.23 1.35966 -3.32797 0
M  V30 24464 C 2282.89 0.491963 -4.54344 0
M  V30 24465 C 2283.89 -0.244992 -5.19322 0
M  V30 24466 C 2281.58 0.420733 -5.00535 0
M  V30 24467 C 2283.57 -1.04154 -6.28833 0
M  V30 24468 C 2281.26 -0.379496 -6.09921 0
M  V30 24469 C 2282.25 -1.10931 -6.73931 0
M  V30 24470 O 2281.94 -1.89637 -7.81213 0
M  V30 24471 H 2281.67 0.174348 -0.65313 0
M  V30 24472 H 2284.23 -0.123454 -2.05029 0
M  V30 24473 H 2282.46 2.151 -3.21355 0
M  V30 24474 H 2284.15 1.93122 -3.57013 0
M  V30 24475 H 2284.91 -0.199475 -4.8459 0
M  V30 24476 H 2280.79 0.978395 -4.50498 0
M  V30 24477 H 2284.34 -1.61169 -6.78727 0
M  V30 24478 H 2280.23 -0.426625 -6.44089 0
M  V30 24479 H 2281 -1.81927 -7.98026 0
M  V30 24480 N 2283.66 1.56128 0.21493 0
M  V30 24481 C 2284.61 1.92954 1.26639 0
M  V30 24482 C 2285.58 0.787555 1.46242 0
M  V30 24483 O 2286.77 1.04402 1.59702 0
M  V30 24484 C 2283.91 2.2573 2.61036 0
M  V30 24485 C 2283.02 3.52895 2.49177 0
M  V30 24486 C 2282.15 3.75087 3.76143 0
M  V30 24487 C 2281.19 4.95744 3.59033 0
M  V30 24488 N 2280.33 5.14291 4.77963 0
M  V30 24489 H 2285.17 2.82608 0.945334 0
M  V30 24490 H 2282.71 1.39871 0.455465 0
M  V30 24491 H 2284.67 2.42745 3.39309 0
M  V30 24492 H 2283.3 1.39241 2.91225 0
M  V30 24493 H 2282.35 3.44037 1.62304 0
M  V30 24494 H 2283.66 4.41322 2.32458 0
M  V30 24495 H 2282.81 3.92234 4.62858 0
M  V30 24496 H 2281.55 2.84954 3.95794 0
M  V30 24497 H 2280.56 4.7854 2.70701 0
M  V30 24498 H 2281.78 5.87368 3.40846 0
M  V30 24499 H 2279.73 4.27102 4.97916 0
M  V30 24500 H 2279.65 5.96862 4.63996 0
M  V30 24501 H 2280.91 5.35879 5.66086 0
M  V30 24502 N 2285.14 -0.481893 1.50052 0
M  V30 24503 C 2286.05 -1.60725 1.70893 0
M  V30 24504 C 2287.07 -1.63626 0.591817 0
M  V30 24505 O 2288.24 -1.81695 0.868849 0
M  V30 24506 C 2285.31 -2.97002 1.7886 0
M  V30 24507 C 2284.37 -3.04576 3.02543 0
M  V30 24508 C 2283.6 -4.34352 3.1012 0
M  V30 24509 O 2283.83 -5.24245 2.24774 0
M  V30 24510 O 2282.76 -4.47294 4.02755 0
M  V30 24511 H 2286.59 -1.46067 2.66267 0
M  V30 24512 H 2284.17 -0.660241 1.34019 0
M  V30 24513 H 2286.05 -3.77961 1.86343 0
M  V30 24514 H 2284.73 -3.11882 0.866683 0
M  V30 24515 H 2283.64 -2.22734 3.00567 0
M  V30 24516 H 2284.97 -2.94629 3.94277 0
M  V30 24517 N 2286.62 -1.39448 -0.734313 0
M  V30 24518 C 2287.87 -1.36911 -1.4961 0
M  V30 24519 C 2288.2 0.0347488 -1.94169 0
M  V30 24520 O 2287.47 0.999818 -1.66835 0
M  V30 24521 C 2287.76 -2.34208 -2.7353 0
M  V30 24522 C 2287.61 -3.83538 -2.34986 0
M  V30 24523 C 2288.93 -2.29324 -3.75631 0
M  V30 24524 H 2286.05 -0.498638 -0.542705 0
M  V30 24525 H 2288.69 -1.70444 -0.839567 0
M  V30 24526 H 2286.84 -2.05742 -3.29549 0
M  V30 24527 H 2288.51 -4.22756 -1.84593 0
M  V30 24528 H 2286.76 -4.00281 -1.67206 0
M  V30 24529 H 2287.43 -4.47105 -3.2373 0
M  V30 24530 H 2289.9 -2.54495 -3.29198 0
M  V30 24531 H 2288.78 -2.9948 -4.60003 0
M  V30 24532 H 2289.04 -1.29849 -4.22601 0
M  V30 24533 N 2288.1 0.964571 -1.24635 0
M  V30 24534 C 2289.33 1.74283 -1.11504 0
M  V30 24535 C 2289.74 1.85856 0.332133 0
M  V30 24536 O 2289.1 1.34913 1.22901 0
M  V30 24537 C 2289.15 3.16172 -1.75264 0
M  V30 24538 O 2288.87 3.05176 -3.14323 0
M  V30 24539 C 2290.37 4.10321 -1.67784 0
M  V30 24540 H 2287.59 0.546439 -0.389417 0
M  V30 24541 H 2290.14 1.2108 -1.64803 0
M  V30 24542 H 2288.29 3.66351 -1.2596 0
M  V30 24543 H 2288.7 3.94612 -3.45517 0
M  V30 24544 H 2290.18 5.07527 -2.17073 0
M  V30 24545 H 2290.66 4.34517 -0.639661 0
M  V30 24546 H 2291.26 3.66054 -2.16529 0
M  V30 24547 N 2289.58 1.0606 1.16572 0
M  V30 24548 C 2290.85 0.689448 1.83046 0
M  V30 24549 C 2291.23 -0.829409 1.94124 0
M  V30 24550 O 2290.58 -1.73878 1.48252 0
M  V30 24551 C 2290.79 1.38864 3.20184 0
M  V30 24552 C 2292.14 1.53232 3.95986 0
M  V30 24553 O 2293.16 1.34836 3.29693 0
M  V30 24554 O 2292.02 1.83393 5.1481 0
M  V30 24555 H 2289.12 0.243778 0.790254 0
M  V30 24556 H 2291.66 1.16073 1.23795 0
M  V30 24557 H 2290.43 2.42445 3.07142 0
M  V30 24558 H 2290.06 0.907284 3.8711 0
M  V30 24559 N 2291.06 -1.33168 0.84285 0
M  V30 24560 C 2292.28 -2.02389 0.453164 0
M  V30 24561 C 2292.71 -1.62981 -0.939077 0
M  V30 24562 O 2292.06 -0.824429 -1.61471 0
M  V30 24563 C 2292.11 -3.55804 0.586156 0
M  V30 24564 O 2291.22 -4.1059 -0.385957 0
M  V30 24565 H 2290.56 -0.63809 0.183675 0
M  V30 24566 H 2293.09 -1.69979 1.13878 0
M  V30 24567 H 2293.1 -4.05292 0.46928 0
M  V30 24568 H 2291.77 -3.8383 1.60147 0
M  V30 24569 H 2290.35 -3.72213 -0.226305 0
M  V30 24570 N 2292.53 -0.599659 -1.45746 0
M  V30 24571 C 2293.95 -0.262668 -1.57424 0
M  V30 24572 C 2294.15 1.2349 -1.59224 0
M  V30 24573 O 2293.21 2.01753 -1.51828 0
M  V30 24574 C 2294.52 -0.926845 -2.8606 0
M  V30 24575 C 2296.07 -0.90202 -2.99721 0
M  V30 24576 C 2296.54 -1.54606 -4.31116 0
M  V30 24577 N 2298.03 -1.51118 -4.37856 0
M  V30 24578 C 2298.77 -1.97873 -5.38177 0
M  V30 24579 N 2298.26 -2.52677 -6.45078 0
M  V30 24580 N 2300.06 -1.88688 -5.29484 0
M  V30 24581 H 2292.21 -1.57213 -1.42821 0
M  V30 24582 H 2294.47 -0.658117 -0.682338 0
M  V30 24583 H 2294.18 -1.981 -2.90602 0
M  V30 24584 H 2294.05 -0.445304 -3.74562 0
M  V30 24585 H 2296.44 0.143565 -2.94751 0
M  V30 24586 H 2296.52 -1.42175 -2.1265 0
M  V30 24587 H 2296.16 -2.59093 -4.36845 0
M  V30 24588 H 2296.09 -1.00141 -5.16991 0
M  V30 24589 H 2298.58 -1.11074 -3.61208 0
M  V30 24590 H 2298.9 -2.86167 -7.17864 0
M  V30 24591 H 2297.24 -2.56712 -6.45851 0
M  V30 24592 H 2300.43 -1.45617 -4.44874 0
M  V30 24593 H 2300.61 -2.2544 -6.0752 0
M  V30 24594 N 2294.01 1.53925 -0.338371 0
M  V30 24595 C 2295.24 2.05244 0.261262 0
M  V30 24596 C 2295.65 1.21366 1.44623 0
M  V30 24597 O 2295.01 0.247768 1.8081 0
M  V30 24598 C 2295.06 3.55021 0.68135 0
M  V30 24599 O 2294.78 4.35715 -0.456491 0
M  V30 24600 C 2296.28 4.22491 1.34224 0
M  V30 24601 H 2293.5 0.669032 0.0513568 0
M  V30 24602 H 2296.05 1.98571 -0.488857 0
M  V30 24603 H 2294.2 3.61933 1.38142 0
M  V30 24604 H 2294.62 5.24357 -0.122656 0
M  V30 24605 H 2296.09 5.28695 1.58698 0
M  V30 24606 H 2296.57 3.74518 2.29419 0
M  V30 24607 H 2297.17 4.19758 0.68435 0
M  V30 24608 N 2295.49 0.0668712 1.57458 0
M  V30 24609 C 2296.45 -0.887385 2.11325 0
M  V30 24610 C 2297.45 -1.22962 1.0362 0
M  V30 24611 O 2298.64 -1.16371 1.29628 0
M  V30 24612 C 2295.77 -2.19237 2.61051 0
M  V30 24613 H 2296.97 -0.420142 2.96942 0
M  V30 24614 H 2294.52 -0.181765 1.5524 0
M  V30 24615 H 2295.26 -2.70509 1.78873 0
M  V30 24616 H 2295.04 -1.95696 3.39773 0
M  V30 24617 H 2296.53 -2.87559 3.02819 0
M  V30 24618 N 2296.97 -1.56239 -0.206647 0
M  V30 24619 C 2297.9 -1.90132 -1.27994 0
M  V30 24620 C 2298.91 -0.790908 -1.42297 0
M  V30 24621 O 2300.1 -1.06928 -1.42929 0
M  V30 24622 C 2297.2 -2.10796 -2.65364 0
M  V30 24623 C 2296.37 -3.41891 -2.72818 0
M  V30 24624 C 2295.43 -3.51806 -3.91304 0
M  V30 24625 O 2294.46 -4.24722 -3.78946 0
M  V30 24626 N 2295.66 -2.84043 -5.0626 0
M  V30 24627 H 2298.43 -2.82793 -0.992394 0
M  V30 24628 H 2295.99 -1.56967 -0.396624 0
M  V30 24629 H 2297.98 -2.1473 -3.43035 0
M  V30 24630 H 2296.55 -1.2469 -2.86655 0
M  V30 24631 H 2295.77 -3.49926 -1.81509 0
M  V30 24632 H 2297.06 -4.28222 -2.74779 0
M  V30 24633 H 2296.46 -2.24609 -5.19199 0
M  V30 24634 H 2295.01 -2.93619 -5.8192 0
M  V30 24635 N 2298.45 0.473929 -1.50305 0
M  V30 24636 C 2299.69 1.22298 -1.60394 0
M  V30 24637 C 2300.01 1.93153 -0.308445 0
M  V30 24638 O 2301.21 2.69966 -0.288204 0
M  V30 24639 C 2299.67 2.22205 -2.83113 0
M  V30 24640 C 2299.28 1.57166 -4.19527 0
M  V30 24641 C 2301.02 2.9777 -3.02545 0
M  V30 24642 C 2298.93 2.55343 -5.33436 0
M  V30 24643 H 2297.86 0.460169 -0.597294 0
M  V30 24644 H 2300.51 0.493772 -1.76732 0
M  V30 24645 H 2298.89 2.98405 -2.60327 0
M  V30 24646 H 2300.07 0.867744 -4.52556 0
M  V30 24647 H 2298.38 0.938931 -4.05676 0
M  V30 24648 H 2300.98 3.71241 -3.84817 0
M  V30 24649 H 2301.32 3.56989 -2.14161 0
M  V30 24650 H 2301.85 2.28683 -3.25498 0
M  V30 24651 H 2298.59 2.00867 -6.23965 0
M  V30 24652 H 2298.11 3.23895 -5.04829 0
M  V30 24653 H 2299.79 3.1723 -5.63892 0
M  V30 24654 N 2299.92 1.39835 0.726907 0
M  V30 24655 C 2300.86 1.33595 1.85007 0
M  V30 24656 C 2301.83 0.20822 1.61261 0
M  V30 24657 O 2303.02 0.390013 1.84421 0
M  V30 24658 C 2300.15 1.07639 3.21141 0
M  V30 24659 C 2299.19 2.22711 3.63733 0
M  V30 24660 S 2300.02 3.85042 3.7216 0
M  V30 24661 C 2301.18 3.61327 5.11071 0
M  V30 24662 H 2301.41 2.28649 1.90018 0
M  V30 24663 H 2298.95 1.25986 0.892573 0
M  V30 24664 H 2300.9 0.933486 3.99745 0
M  V30 24665 H 2299.57 0.142581 3.13776 0
M  V30 24666 H 2298.76 2.00163 4.62548 0
M  V30 24667 H 2298.36 2.33247 2.92356 0
M  V30 24668 H 2300.65 3.19094 5.9765 0
M  V30 24669 H 2301.6 4.59632 5.3865 0
M  V30 24670 H 2302 2.95254 4.81129 0
M  V30 24671 N 2301.4 -0.957948 1.25144 0
M  V30 24672 C 2302.65 -1.70215 1.09695 0
M  V30 24673 C 2302.98 -1.9109 -0.362621 0
M  V30 24674 O 2302.23 -1.47703 -1.28383 0
M  V30 24675 C 2302.53 -3.09183 1.79277 0
M  V30 24676 C 2302.2 -3.08119 3.29201 0
M  V30 24677 C 2300.86 -3.07536 3.70101 0
M  V30 24678 C 2303.21 -3.01702 4.25 0
M  V30 24679 C 2300.54 -2.98281 5.05218 0
M  V30 24680 C 2302.89 -2.93989 5.60137 0
M  V30 24681 C 2301.55 -2.9174 6.0037 0
M  V30 24682 H 2300.82 -0.622861 0.401404 0
M  V30 24683 H 2303.47 -1.11942 1.55374 0
M  V30 24684 H 2301.78 -3.7098 1.2602 0
M  V30 24685 H 2303.47 -3.6558 1.6478 0
M  V30 24686 H 2300.06 -3.09343 2.96656 0
M  V30 24687 H 2304.25 -3.01274 3.94395 0
M  V30 24688 H 2299.5 -2.94906 5.35575 0
M  V30 24689 H 2303.68 -2.87984 6.34065 0
M  V30 24690 H 2301.3 -2.84324 7.05028 0
M  V30 24691 N 2302.88 -1.06677 -1.16008 0
M  V30 24692 C 2303.81 -0.63896 -2.20113 0
M  V30 24693 C 2304.82 0.305029 -1.59917 0
M  V30 24694 O 2306.01 0.0954133 -1.78245 0
M  V30 24695 C 2303.11 0.0829487 -3.38798 0
M  V30 24696 C 2302.29 -0.875502 -4.28548 0
M  V30 24697 C 2301.35 -0.192134 -5.25849 0
M  V30 24698 O 2300.37 -0.83102 -5.63101 0
M  V30 24699 N 2301.57 1.06483 -5.7065 0
M  V30 24700 H 2304.34 -1.53449 -2.57436 0
M  V30 24701 H 2301.9 -0.95058 -1.31056 0
M  V30 24702 H 2303.89 0.550615 -4.00937 0
M  V30 24703 H 2302.46 0.880333 -2.99948 0
M  V30 24704 H 2301.68 -1.52245 -3.63614 0
M  V30 24705 H 2302.97 -1.52557 -4.8539 0
M  V30 24706 H 2302.37 1.60396 -5.42485 0
M  V30 24707 H 2300.92 1.4763 -6.34861 0
M  V30 24708 N 2304.36 1.32719 -0.8499 0
M  V30 24709 C 2305.32 2.27279 -0.296162 0
M  V30 24710 C 2306.32 1.51411 0.541432 0
M  V30 24711 O 2307.51 1.70573 0.353628 0
M  V30 24712 C 2304.64 3.35903 0.58152 0
M  V30 24713 H 2305.84 2.77769 -1.13069 0
M  V30 24714 H 2303.39 1.4331 -0.623855 0
M  V30 24715 H 2304.12 2.90673 1.43804 0
M  V30 24716 H 2303.91 3.92096 -0.0179503 0
M  V30 24717 H 2305.4 4.06371 0.961879 0
M  V30 24718 N 2305.84 0.60738 1.45426 0
M  V30 24719 C 2307.07 0.108692 2.06314 0
M  V30 24720 C 2307.47 -1.21214 1.45271 0
M  V30 24721 O 2306.82 -1.7492 0.561146 0
M  V30 24722 C 2306.88 -0.105554 3.59345 0
M  V30 24723 C 2306.54 1.13344 4.42721 0
M  V30 24724 C 2307.54 2.05153 4.77711 0
M  V30 24725 C 2305.23 1.36221 4.83476 0
M  V30 24726 C 2307.22 3.18167 5.52312 0
M  V30 24727 C 2304.91 2.49536 5.5783 0
M  V30 24728 C 2305.9 3.40337 5.92165 0
M  V30 24729 O 2305.59 4.5168 6.65011 0
M  V30 24730 H 2305.32 0.065896 0.672781 0
M  V30 24731 H 2307.88 0.834978 1.87663 0
M  V30 24732 H 2306.11 -0.88673 3.76396 0
M  V30 24733 H 2307.8 -0.555815 4.02076 0
M  V30 24734 H 2308.56 1.88705 4.46784 0
M  V30 24735 H 2304.44 0.664442 4.56187 0
M  V30 24736 H 2307.99 3.89064 5.79029 0
M  V30 24737 H 2303.88 2.65938 5.88173 0
M  V30 24738 H 2304.65 4.5036 6.83461 0
M  V30 24739 N 2307.31 -1.53743 0.34653 0
M  V30 24740 C 2308.56 -2.00565 -0.248577 0
M  V30 24741 C 2308.88 -1.23596 -1.50828 0
M  V30 24742 O 2308.15 -0.343946 -1.92857 0
M  V30 24743 H 2306.73 -0.740955 -0.0948434 0
M  V30 24744 H 2309.4 -1.89188 0.468375 0
M  V30 24745 H 2308.49 -3.08246 -0.48894 0
M  V30 24746 N 2308.79 -0.0752207 -1.5742 0
M  V30 24747 C 2310.07 0.634296 -1.8503 0
M  V30 24748 C 2310.45 1.8758 -0.968338 0
M  V30 24749 O 2309.8 2.28472 -0.035515 0
M  V30 24750 C 2310.01 0.968683 -3.35287 0
M  V30 24751 C 2311.36 1.3407 -4.02878 0
M  V30 24752 O 2312.38 1.06031 -3.40053 0
M  V30 24753 O 2311.24 1.86497 -5.13694 0
M  V30 24754 H 2308.33 0.315374 -0.764505 0
M  V30 24755 H 2310.88 -0.106412 -1.69366 0
M  V30 24756 H 2309.65 0.0870688 -3.91203 0
M  V30 24757 H 2309.27 1.76604 -3.56226 0
M  V30 24758 N 2310.27 1.56347 0.198358 0
M  V30 24759 C 2311.22 1.94286 1.24585 0
M  V30 24760 C 2312.19 0.803022 1.45399 0
M  V30 24761 O 2313.37 1.0609 1.58586 0
M  V30 24762 C 2310.51 2.28486 2.58627 0
M  V30 24763 C 2309.63 3.55518 2.4542 0
M  V30 24764 C 2308.76 3.79055 3.72143 0
M  V30 24765 C 2307.8 4.99524 3.53754 0
M  V30 24766 N 2306.94 5.19332 4.72482 0
M  V30 24767 H 2311.78 2.83595 0.915307 0
M  V30 24768 H 2309.31 1.40346 0.440604 0
M  V30 24769 H 2311.27 2.4633 3.36715 0
M  V30 24770 H 2309.9 1.42322 2.89731 0
M  V30 24771 H 2308.95 3.45739 1.58646 0
M  V30 24772 H 2310.27 4.43762 2.27764 0
M  V30 24773 H 2309.42 3.97121 4.58672 0
M  V30 24774 H 2308.16 2.89135 3.92749 0
M  V30 24775 H 2307.16 4.81384 2.65611 0
M  V30 24776 H 2308.39 5.9095 3.34597 0
M  V30 24777 H 2306.33 4.32359 4.93358 0
M  V30 24778 H 2306.25 6.01749 4.57639 0
M  V30 24779 H 2307.52 5.41853 5.60371 0
M  V30 24780 N 2311.75 -0.465951 1.50554 0
M  V30 24781 C 2312.68 -1.5809 1.65952 0
M  V30 24782 C 2313.69 -1.53553 0.540854 0
M  V30 24783 O 2314.88 -1.58848 0.814215 0
M  V30 24784 C 2311.98 -2.9698 1.63267 0
M  V30 24785 C 2311.16 -3.26331 2.9125 0
M  V30 24786 C 2310.21 -4.44801 2.81138 0
M  V30 24787 O 2309.24 -4.44856 3.55094 0
M  V30 24788 N 2310.44 -5.46753 1.95042 0
M  V30 24789 H 2313.21 -1.45296 2.62124 0
M  V30 24790 H 2310.77 -0.654454 1.48083 0
M  V30 24791 H 2312.76 -3.7421 1.54108 0
M  V30 24792 H 2311.33 -3.03517 0.748086 0
M  V30 24793 H 2310.55 -2.37666 3.14497 0
M  V30 24794 H 2311.84 -3.42755 3.76028 0
M  V30 24795 H 2311.24 -5.49532 1.34279 0
M  V30 24796 H 2309.79 -6.22947 1.91783 0
M  V30 24797 N 2313.23 -1.40218 -0.719481 0
M  V30 24798 C 2314.47 -1.38012 -1.47638 0
M  V30 24799 C 2314.8 0.0181108 -1.94992 0
M  V30 24800 O 2314.07 0.972177 -1.70075 0
M  V30 24801 H 2312.65 -0.507932 -0.547735 0
M  V30 24802 H 2315.31 -1.75235 -0.853156 0
M  V30 24803 H 2314.4 -2.05257 -2.35109 0
M  V30 24804 N 2314.7 0.951297 -1.25651 0
M  V30 24805 C 2316.12 1.51104 -1.09656 0
M  V30 24806 C 2316.47 1.93463 0.326581 0
M  V30 24807 O 2315.59 1.7894 1.21694 0
M  V30 24808 C 2316.19 2.74602 -1.98442 0
M  V30 24809 C 2314.75 3.26877 -1.86623 0
M  V30 24810 C 2313.89 1.99699 -1.92394 0
M  V30 24811 H 2316.84 0.767841 -1.38888 0
M  V30 24812 H 2316.86 3.48543 -1.52636 0
M  V30 24813 H 2316.38 2.43741 -3.02013 0
M  V30 24814 H 2314.48 3.62552 -0.859485 0
M  V30 24815 H 2314.59 3.94668 -2.71614 0
M  V30 24816 H 2312.95 2.15148 -1.36321 0
M  V30 24817 H 2313.74 1.71183 -2.97576 0
M  V30 24818 N 2316.18 1.07291 1.1544 0
M  V30 24819 C 2317.11 0.714146 2.22311 0
M  V30 24820 C 2318.09 -0.298126 1.67467 0
M  V30 24821 O 2319.28 -0.171014 1.93446 0
M  V30 24822 C 2316.41 0.110509 3.47124 0
M  V30 24823 C 2315.36 1.04987 4.14924 0
M  V30 24824 C 2314.69 0.309018 5.33806 0
M  V30 24825 C 2315.99 2.38322 4.64758 0
M  V30 24826 H 2317.68 1.60765 2.52577 0
M  V30 24827 H 2315.23 0.774431 1.21402 0
M  V30 24828 H 2317.18 -0.152408 4.21124 0
M  V30 24829 H 2315.91 -0.818065 3.16189 0
M  V30 24830 H 2314.56 1.2977 3.42864 0
M  V30 24831 H 2314.21 -0.622997 4.99127 0
M  V30 24832 H 2313.91 0.935138 5.80111 0
M  V30 24833 H 2315.44 0.0538844 6.10576 0
M  V30 24834 H 2316.85 2.17869 5.30289 0
M  V30 24835 H 2315.25 2.96523 5.21722 0
M  V30 24836 H 2316.32 3.00669 3.80429 0
M  V30 24837 N 2317.66 -1.32267 0.856927 0
M  V30 24838 C 2318.61 -2.26336 0.274939 0
M  V30 24839 C 2319.59 -1.50063 -0.580517 0
M  V30 24840 O 2320.79 -1.71709 -0.429529 0
M  V30 24841 C 2317.92 -3.39125 -0.533781 0
M  V30 24842 C 2317 -4.22781 0.334189 0
M  V30 24843 N 2317.39 -4.85414 1.42152 0
M  V30 24844 C 2315.69 -4.45827 0.124334 0
M  V30 24845 C 2316.39 -5.47839 1.95569 0
M  V30 24846 N 2315.37 -5.28926 1.25453 0
M  V30 24847 H 2319.17 -2.72289 1.10617 0
M  V30 24848 H 2316.68 -1.46382 0.703284 0
M  V30 24849 H 2318.68 -4.05527 -0.967149 0
M  V30 24850 H 2317.34 -2.94718 -1.36278 0
M  V30 24851 H 2318.35 -4.85448 1.80445 0
M  V30 24852 H 2315.03 -4.12093 -0.669764 0
M  V30 24853 H 2316.42 -6.0765 2.86724 0
M  V30 24854 N 2319.14 -0.615084 -1.45102 0
M  V30 24855 C 2320.39 -0.112991 -2.01784 0
M  V30 24856 C 2320.71 1.26376 -1.48506 0
M  V30 24857 O 2319.98 1.83635 -0.682277 0
M  V30 24858 H 2318.56 -0.0387799 -0.745993 0
M  V30 24859 H 2321.22 -0.798172 -1.77807 0
M  V30 24860 H 2320.32 -0.0684618 -3.12025 0
M  V30 24861 N 2320.62 1.53557 -0.354678 0
M  V30 24862 C 2321.55 2.21713 0.540234 0
M  V30 24863 C 2322.53 1.20512 1.09159 0
M  V30 24864 O 2323.71 1.49374 1.14977 0
M  V30 24865 C 2320.84 2.90331 1.7443 0
M  V30 24866 C 2319.89 4.05514 1.32139 0
M  V30 24867 S 2320.72 5.34471 0.33183 0
M  V30 24868 C 2321.87 6.06596 1.54247 0
M  V30 24869 H 2322.11 2.97275 -0.0386299 0
M  V30 24870 H 2319.64 1.53775 -0.138763 0
M  V30 24871 H 2321.6 3.3048 2.43501 0
M  V30 24872 H 2320.26 2.14514 2.2944 0
M  V30 24873 H 2319.45 4.525 2.21944 0
M  V30 24874 H 2319.05 3.67198 0.710027 0
M  V30 24875 H 2321.35 6.30665 2.47523 0
M  V30 24876 H 2322.29 6.99279 1.11419 0
M  V30 24877 H 2322.7 5.36898 1.74358 0
M  V30 24878 N 2322.1 0.083568 1.57378 0
M  V30 24879 C 2323.03 -0.876822 2.16412 0
M  V30 24880 C 2324.01 -1.30226 1.09431 0
M  V30 24881 O 2325.19 -1.37121 1.37519 0
M  V30 24882 C 2322.32 -2.14017 2.73521 0
M  V30 24883 C 2321.28 -1.85375 3.85772 0
M  V30 24884 C 2320.6 -3.1844 4.29534 0
M  V30 24885 C 2321.9 -1.14975 5.09488 0
M  V30 24886 H 2323.6 -0.385006 2.96914 0
M  V30 24887 H 2321.14 -0.183745 1.42823 0
M  V30 24888 H 2323.09 -2.81631 3.13468 0
M  V30 24889 H 2321.82 -2.65462 1.90257 0
M  V30 24890 H 2320.48 -1.20163 3.46347 0
M  V30 24891 H 2320.13 -3.67749 3.43176 0
M  V30 24892 H 2319.83 -3.00063 5.05209 0
M  V30 24893 H 2321.35 -3.87231 4.72106 0
M  V30 24894 H 2322.76 -1.72677 5.46677 0
M  V30 24895 H 2321.16 -1.06816 5.90517 0
M  V30 24896 H 2322.23 -0.130663 4.84724 0
M  V30 24897 N 2323.57 -1.5645 -0.190064 0
M  V30 24898 C 2324.82 -1.80112 -0.907881 0
M  V30 24899 C 2325.14 -0.657651 -1.84213 0
M  V30 24900 O 2326.34 -0.778709 -2.60093 0
M  V30 24901 C 2324.8 -3.19081 -1.66479 0
M  V30 24902 C 2324.41 -4.41244 -0.775122 0
M  V30 24903 C 2326.15 -3.52049 -2.37195 0
M  V30 24904 C 2324.06 -5.71234 -1.53119 0
M  V30 24905 H 2322.99 -0.671595 -0.342748 0
M  V30 24906 H 2325.64 -1.82792 -0.161077 0
M  V30 24907 H 2324.02 -3.10665 -2.45567 0
M  V30 24908 H 2325.19 -4.60794 -0.0225488 0
M  V30 24909 H 2323.51 -4.16017 -0.178553 0
M  V30 24910 H 2326.11 -4.46407 -2.94321 0
M  V30 24911 H 2326.45 -2.76033 -3.11627 0
M  V30 24912 H 2326.98 -3.61935 -1.65069 0
M  V30 24913 H 2323.72 -6.5023 -0.829556 0
M  V30 24914 H 2323.24 -5.55692 -2.25757 0
M  V30 24915 H 2324.92 -6.1253 -2.08366 0
M  V30 24916 N 2325.05 0.45796 -1.50799 0
M  V30 24917 C 2326 1.57497 -1.71165 0
M  V30 24918 C 2326.99 1.59248 -0.57762 0
M  V30 24919 O 2328.2 1.6324 -0.758472 0
M  V30 24920 H 2324.57 0.522866 -0.540477 0
M  V30 24921 H 2326.55 1.37487 -2.64839 0
M  V30 24922 C 2325.29 2.95334 -1.83502 0
M  V30 24923 H 2324.62 2.94711 -2.70158 0
M  V30 24924 H 2326.06 3.72913 -2.01771 0
M  V30 24925 C 2324.52 3.31698 -0.589752 0
M  V30 24926 O 2325.05 4.00824 0.265093 0
M  V30 24927 N 2323.25 2.87251 -0.439896 0
M  V30 24928 H 2322.8 2.3117 -1.13659 0
M  V30 24929 H 2322.76 3.11945 0.392105 0
M  V30 24930 N 2326.53 1.40598 0.712035 0
M  V30 24931 C 2327.76 1.4239 1.50109 0
M  V30 24932 C 2328.17 0.0245727 1.88784 0
M  V30 24933 O 2327.53 -0.952324 1.55683 0
M  V30 24934 C 2327.58 2.31781 2.77416 0
M  V30 24935 O 2327.3 3.66267 2.40375 0
M  V30 24936 C 2328.8 2.42203 3.71285 0
M  V30 24937 H 2326.02 0.485541 0.463132 0
M  V30 24938 H 2328.57 1.84691 0.878035 0
M  V30 24939 H 2326.72 1.92833 3.35997 0
M  V30 24940 H 2327.14 4.13778 3.22317 0
M  V30 24941 H 2328.61 3.08951 4.57442 0
M  V30 24942 H 2329.09 1.44817 4.14638 0
M  V30 24943 H 2329.69 2.81718 3.18614 0
M  V30 24944 N 2328.01 -0.94462 1.26153 0
M  V30 24945 C 2329.42 -1.5052 1.10456 0
M  V30 24946 C 2329.77 -1.93633 -0.316316 0
M  V30 24947 O 2328.89 -1.79583 -1.20743 0
M  V30 24948 C 2329.49 -2.73546 1.99896 0
M  V30 24949 C 2328.05 -3.25883 1.88354 0
M  V30 24950 C 2327.2 -1.98676 1.9345 0
M  V30 24951 H 2330.15 -0.760465 1.39293 0
M  V30 24952 H 2330.17 -3.47729 1.54483 0
M  V30 24953 H 2329.68 -2.42136 3.03301 0
M  V30 24954 H 2327.78 -3.62091 0.8787 0
M  V30 24955 H 2327.89 -3.93222 2.73703 0
M  V30 24956 H 2326.26 -2.14422 1.3746 0
M  V30 24957 H 2327.04 -1.69602 2.98479 0
M  V30 24958 N 2329.49 -1.07901 -1.1487 0
M  V30 24959 C 2330.72 -0.825664 -1.89384 0
M  V30 24960 C 2331.12 0.625375 -1.78566 0
M  V30 24961 O 2330.47 1.44111 -1.1392 0
M  V30 24962 C 2330.53 -1.16197 -3.40204 0
M  V30 24963 C 2330.19 -2.61474 -3.74807 0
M  V30 24964 C 2331.19 -3.59723 -3.7536 0
M  V30 24965 C 2328.87 -2.97196 -4.04945 0
M  V30 24966 C 2330.87 -4.91727 -4.05566 0
M  V30 24967 C 2328.56 -4.29395 -4.34814 0
M  V30 24968 C 2329.55 -5.2647 -4.35107 0
M  V30 24969 O 2329.24 -6.56294 -4.64256 0
M  V30 24970 H 2328.97 -0.297761 -0.606889 0
M  V30 24971 H 2331.53 -1.44034 -1.46436 0
M  V30 24972 H 2329.76 -0.490282 -3.83579 0
M  V30 24973 H 2331.45 -0.890263 -3.96017 0
M  V30 24974 H 2332.21 -3.33468 -3.5217 0
M  V30 24975 H 2328.09 -2.2228 -4.03872 0
M  V30 24976 H 2331.64 -5.67491 -4.05709 0
M  V30 24977 H 2327.53 -4.554 -4.57472 0
M  V30 24978 H 2328.3 -6.61531 -4.81995 0
M  V30 24979 N 2330.96 1.31811 -0.863929 0
M  V30 24980 C 2332.21 1.97217 -0.47257 0
M  V30 24981 C 2332.54 1.68161 0.971364 0
M  V30 24982 O 2331.82 0.974827 1.68307 0
M  V30 24983 C 2332.1 3.52765 -0.723116 0
M  V30 24984 C 2331.95 3.91417 -2.21614 0
M  V30 24985 C 2333.27 4.39708 -0.185599 0
M  V30 24986 H 2330.39 0.716366 -0.173171 0
M  V30 24987 H 2333.03 1.56039 -1.08406 0
M  V30 24988 H 2331.18 3.87971 -0.202645 0
M  V30 24989 H 2332.86 3.66343 -2.80341 0
M  V30 24990 H 2331.1 3.40241 -2.69106 0
M  V30 24991 H 2331.77 4.99849 -2.34212 0
M  V30 24992 H 2334.25 4.11291 -0.630798 0
M  V30 24993 H 2333.12 5.4751 -0.390402 0
M  V30 24994 H 2333.38 4.32588 0.912153 0
M  V30 24995 N 2332.44 0.62277 1.44773 0
M  V30 24996 C 2333.67 0.130758 2.06486 0
M  V30 24997 C 2334.08 -1.19121 1.46478 0
M  V30 24998 O 2333.44 -1.72886 0.584532 0
M  V30 24999 C 2333.49 0.00087075 3.615 0
M  V30 25000 O 2333.21 1.27055 4.19272 0
M  V30 25001 C 2334.71 -0.520821 4.4023 0
M  V30 25002 H 2331.93 0.0758223 0.666702 0
M  V30 25003 H 2334.48 0.854807 1.85778 0
M  V30 25004 H 2332.63 -0.673576 3.81499 0
M  V30 25005 H 2333.05 1.10999 5.1262 0
M  V30 25006 H 2334.52 -0.560741 5.49145 0
M  V30 25007 H 2335 -1.5462 4.11083 0
M  V30 25008 H 2335.6 0.120092 4.2513 0
M  V30 25009 N 2333.92 -1.53367 0.362817 0
M  V30 25010 C 2334.87 -2.25647 -0.484968 0
M  V30 25011 C 2335.84 -1.26212 -1.0798 0
M  V30 25012 O 2337.02 -1.54988 -1.11281 0
M  V30 25013 C 2334.16 -3.04703 -1.62018 0
M  V30 25014 C 2333.27 -4.19026 -1.05079 0
M  V30 25015 C 2332.41 -4.85529 -2.15488 0
M  V30 25016 C 2331.45 -5.91887 -1.56 0
M  V30 25017 N 2330.59 -6.52093 -2.60229 0
M  V30 25018 H 2335.43 -2.97681 0.137916 0
M  V30 25019 H 2332.96 -1.46883 0.0798319 0
M  V30 25020 H 2334.92 -3.48811 -2.28881 0
M  V30 25021 H 2333.55 -2.34931 -2.21376 0
M  V30 25022 H 2332.6 -3.79423 -0.272524 0
M  V30 25023 H 2333.91 -4.95465 -0.575839 0
M  V30 25024 H 2333.07 -5.32806 -2.90177 0
M  V30 25025 H 2331.81 -4.08556 -2.66333 0
M  V30 25026 H 2330.81 -5.43974 -0.798243 0
M  V30 25027 H 2332.04 -6.70779 -1.05982 0
M  V30 25028 H 2329.98 -5.77974 -3.10294 0
M  V30 25029 H 2329.9 -7.24063 -2.17413 0
M  V30 25030 H 2331.17 -7.0402 -3.34629 0
M  V30 25031 N 2335.4 -0.091913 -1.57332 0
M  V30 25032 C 2336.68 0.614636 -1.85692 0
M  V30 25033 C 2337.06 1.86543 -0.988179 0
M  V30 25034 O 2336.4 2.28422 -0.0597456 0
M  V30 25035 C 2336.61 0.933067 -3.36296 0
M  V30 25036 C 2337.96 1.29789 -4.04277 0
M  V30 25037 O 2338.99 1.02418 -3.41158 0
M  V30 25038 O 2337.84 1.81038 -5.15643 0
M  V30 25039 H 2334.94 0.307248 -0.767807 0
M  V30 25040 H 2337.48 -0.124369 -1.69244 0
M  V30 25041 H 2336.26 0.0455716 -3.91273 0
M  V30 25042 H 2335.88 1.72816 -3.58079 0
M  V30 25043 N 2336.88 1.56548 0.181765 0
M  V30 25044 C 2337.81 1.98625 1.22761 0
M  V30 25045 C 2338.79 0.860215 1.46746 0
M  V30 25046 O 2339.97 1.12553 1.58257 0
M  V30 25047 C 2337.1 2.3372 2.5689 0
M  V30 25048 C 2336.06 3.49186 2.47494 0
M  V30 25049 C 2335.38 3.69993 3.86017 0
M  V30 25050 C 2336.68 4.82963 1.98857 0
M  V30 25051 H 2338.38 2.8624 0.877892 0
M  V30 25052 H 2335.92 1.37713 0.420856 0
M  V30 25053 H 2337.88 2.61752 3.30248 0
M  V30 25054 H 2336.6 1.43002 2.93629 0
M  V30 25055 H 2335.26 3.21265 1.7659 0
M  V30 25056 H 2334.91 2.76584 4.20132 0
M  V30 25057 H 2334.61 4.47679 3.80601 0
M  V30 25058 H 2336.13 4.00415 4.60977 0
M  V30 25059 H 2337.54 5.09939 2.61983 0
M  V30 25060 H 2335.94 5.64212 2.04414 0
M  V30 25061 H 2337.01 4.75654 0.942381 0
M  V30 25062 N 2338.35 -0.449957 1.5104 0
M  V30 25063 C 2339.28 -1.55284 1.74382 0
M  V30 25064 C 2340.27 -1.59419 0.593264 0
M  V30 25065 O 2341.45 -1.75349 0.834656 0
M  V30 25066 C 2338.58 -2.93463 1.85734 0
M  V30 25067 C 2337.53 -3.04192 3.01083 0
M  V30 25068 C 2336.86 -4.44226 2.97603 0
M  V30 25069 C 2338.16 -2.79442 4.41259 0
M  V30 25070 H 2339.85 -1.36003 2.66727 0
M  V30 25071 H 2337.4 -0.652842 1.28351 0
M  V30 25072 H 2339.35 -3.70566 2.00646 0
M  V30 25073 H 2338.08 -3.13947 0.900262 0
M  V30 25074 H 2336.74 -2.29526 2.85855 0
M  V30 25075 H 2336.38 -4.61659 1.99699 0
M  V30 25076 H 2336.08 -4.52337 3.75054 0
M  V30 25077 H 2337.61 -5.2332 3.14592 0
M  V30 25078 H 2339.02 -3.46284 4.56903 0
M  V30 25079 H 2337.42 -2.98976 5.2032 0
M  V30 25080 H 2338.49 -1.75137 4.52167 0
M  V30 25081 N 2339.83 -1.40974 -0.704569 0
M  V30 25082 C 2340.76 -1.38036 -1.82972 0
M  V30 25083 C 2341.78 -0.283959 -1.60304 0
M  V30 25084 O 2342.97 -0.545072 -1.69974 0
M  V30 25085 C 2340.07 -1.12801 -3.19576 0
M  V30 25086 C 2339.24 -2.34309 -3.69348 0
M  V30 25087 C 2338.3 -2.05066 -4.84597 0
M  V30 25088 O 2337.32 -2.78029 -4.96678 0
M  V30 25089 N 2338.53 -1.03538 -5.71192 0
M  V30 25090 H 2341.29 -2.35009 -1.85987 0
M  V30 25091 H 2338.85 -1.3547 -0.886543 0
M  V30 25092 H 2340.84 -0.912057 -3.94289 0
M  V30 25093 H 2339.41 -0.244574 -3.11642 0
M  V30 25094 H 2338.63 -2.71664 -2.85644 0
M  V30 25095 H 2339.92 -3.15287 -3.99339 0
M  V30 25096 H 2339.32 -0.431317 -5.64053 0
M  V30 25097 H 2337.88 -0.879319 -6.45841 0
M  V30 25098 N 2341.31 0.937917 -1.26653 0
M  V30 25099 C 2342.54 1.72409 -1.15282 0
M  V30 25100 C 2342.96 1.85885 0.287833 0
M  V30 25101 O 2342.32 1.35145 1.20853 0
M  V30 25102 C 2342.37 3.10694 -1.83034 0
M  V30 25103 O 2341.47 3.96862 -1.12135 0
M  V30 25104 H 2340.81 0.528851 -0.401513 0
M  V30 25105 H 2343.34 1.17447 -1.67533 0
M  V30 25106 H 2343.35 3.61066 -1.89987 0
M  V30 25107 H 2342.03 3.00203 -2.87839 0
M  V30 25108 H 2340.6 3.5531 -1.13179 0
M  V30 25109 N 2342.79 1.08509 1.14296 0
M  V30 25110 C 2343.74 0.716003 2.19413 0
M  V30 25111 C 2344.71 -0.298297 1.634 0
M  V30 25112 O 2345.89 -0.182067 1.89929 0
M  V30 25113 C 2343.03 0.132594 3.44845 0
M  V30 25114 C 2342.14 1.1998 4.15005 0
M  V30 25115 C 2341.28 0.580141 5.28023 0
M  V30 25116 C 2340.32 1.62931 5.90017 0
M  V30 25117 N 2339.45 1.03137 6.94483 0
M  V30 25118 H 2344.29 1.6167 2.50333 0
M  V30 25119 H 2341.83 0.807904 1.22928 0
M  V30 25120 H 2343.79 -0.223381 4.16602 0
M  V30 25121 H 2342.42 -0.731412 3.14405 0
M  V30 25122 H 2341.47 1.67319 3.41626 0
M  V30 25123 H 2342.78 1.99481 4.57175 0
M  V30 25124 H 2341.94 0.172471 6.06455 0
M  V30 25125 H 2340.68 -0.246518 4.87077 0
M  V30 25126 H 2339.68 2.04663 5.10287 0
M  V30 25127 H 2340.91 2.45846 6.33037 0
M  V30 25128 H 2338.85 0.225826 6.55611 0
M  V30 25129 H 2338.77 1.76347 7.35145 0
M  V30 25130 H 2340.04 0.649594 7.76789 0
M  V30 25131 N 2344.27 -1.31351 0.870907 0
M  V30 25132 C 2345.68 -1.49342 0.562958 0
M  V30 25133 C 2345.88 -1.80149 -0.902693 0
M  V30 25134 O 2344.94 -1.8807 -1.68481 0
M  V30 25135 C 2346.25 -2.62656 1.46398 0
M  V30 25136 C 2347.8 -2.76539 1.46612 0
M  V30 25137 C 2348.27 -3.92951 2.35273 0
M  V30 25138 N 2349.77 -4.00239 2.33158 0
M  V30 25139 C 2350.5 -4.89589 2.9848 0
M  V30 25140 N 2350 -5.83834 3.72975 0
M  V30 25141 N 2351.79 -4.82843 2.87784 0
M  V30 25142 H 2343.94 -1.09623 1.81925 0
M  V30 25143 H 2346.2 -0.541763 0.777944 0
M  V30 25144 H 2345.91 -2.4667 2.50693 0
M  V30 25145 H 2345.78 -3.58817 1.1632 0
M  V30 25146 H 2348.17 -2.91939 0.430741 0
M  V30 25147 H 2348.25 -1.81043 1.80713 0
M  V30 25148 H 2347.9 -3.78309 3.38888 0
M  V30 25149 H 2347.83 -4.87757 1.98495 0
M  V30 25150 H 2350.32 -3.32811 1.79011 0
M  V30 25151 H 2350.63 -6.48743 4.19943 0
M  V30 25152 H 2348.97 -5.8381 3.77083 0
M  V30 25153 H 2352.17 -4.08191 2.29123 0
M  V30 25154 H 2352.34 -5.52271 3.38971 0
M  V30 25155 N 2345.74 -0.630439 -1.44441 0
M  V30 25156 C 2346.99 -0.134652 -2.02052 0
M  V30 25157 C 2347.32 1.24324 -1.49579 0
M  V30 25158 O 2346.57 1.83879 -0.669838 0
M  V30 25159 C 2346.87 -0.0698463 -3.57332 0
M  V30 25160 C 2346.54 -1.38643 -4.29056 0
M  V30 25161 C 2345.2 -1.74702 -4.48367 0
M  V30 25162 C 2347.55 -2.25551 -4.69868 0
M  V30 25163 C 2344.88 -2.97378 -5.0575 0
M  V30 25164 C 2347.23 -3.47497 -5.2861 0
M  V30 25165 C 2345.9 -3.8378 -5.4614 0
M  V30 25166 H 2345.17 -0.0492728 -0.73936 0
M  V30 25167 H 2347.81 -0.816617 -1.73216 0
M  V30 25168 H 2346.12 0.695485 -3.85578 0
M  V30 25169 H 2347.82 0.330273 -3.99638 0
M  V30 25170 H 2344.41 -1.09582 -4.14355 0
M  V30 25171 H 2348.59 -1.98987 -4.54662 0
M  V30 25172 H 2343.85 -3.25567 -5.1751 0
M  V30 25173 H 2348.02 -4.15073 -5.59184 0
M  V30 25174 H 2345.65 -4.78921 -5.90372 0
M  V30 25175 N 2347.22 1.53172 -0.370945 0
M  V30 25176 C 2348.15 2.23504 0.507783 0
M  V30 25177 C 2349.17 1.25102 1.0418 0
M  V30 25178 O 2350.36 1.51292 0.947259 0
M  V30 25179 C 2347.46 2.92337 1.71442 0
M  V30 25180 C 2346.63 4.17291 1.31098 0
M  V30 25181 C 2345.69 4.69286 2.38027 0
M  V30 25182 O 2344.71 5.32833 2.00195 0
M  V30 25183 N 2345.92 4.47561 3.69689 0
M  V30 25184 H 2348.68 2.9955 -0.0946908 0
M  V30 25185 H 2346.24 1.60704 -0.196386 0
M  V30 25186 H 2348.23 3.24027 2.42463 0
M  V30 25187 H 2346.8 2.19711 2.22364 0
M  V30 25188 H 2346.02 3.91843 0.430393 0
M  V30 25189 H 2347.31 4.98516 1.01781 0
M  V30 25190 H 2346.71 3.96797 4.03198 0
M  V30 25191 H 2345.27 4.83788 4.36798 0
M  V30 25192 N 2348.7 0.100255 1.57281 0
M  V30 25193 C 2349.66 -0.842361 2.13159 0
M  V30 25194 C 2350.66 -1.20736 1.06205 0
M  V30 25195 O 2351.85 -1.13595 1.32068 0
M  V30 25196 C 2348.99 -2.13651 2.65643 0
M  V30 25197 H 2350.18 -0.357061 2.97767 0
M  V30 25198 H 2347.73 -0.148796 1.5559 0
M  V30 25199 H 2348.47 -2.66654 1.8457 0
M  V30 25200 H 2348.25 -1.88445 3.43847 0
M  V30 25201 H 2349.74 -2.81071 3.08851 0
M  V30 25202 N 2350.18 -1.56643 -0.17346 0
M  V30 25203 C 2351.11 -1.92804 -1.23932 0
M  V30 25204 C 2352.12 -0.820914 -1.40588 0
M  V30 25205 O 2353.31 -1.09936 -1.40629 0
M  V30 25206 C 2350.41 -2.16378 -2.60833 0
M  V30 25207 C 2349.59 -3.47601 -2.65504 0
M  V30 25208 C 2348.65 -3.60027 -3.83754 0
M  V30 25209 O 2347.67 -4.32665 -3.69851 0
M  V30 25210 N 2348.87 -2.94718 -5.00122 0
M  V30 25211 H 2351.64 -2.84834 -0.932186 0
M  V30 25212 H 2349.2 -1.57773 -0.36324 0
M  V30 25213 H 2351.19 -2.21958 -3.38403 0
M  V30 25214 H 2349.76 -1.30743 -2.83946 0
M  V30 25215 H 2348.98 -3.53697 -1.74045 0
M  V30 25216 H 2350.27 -4.33954 -2.65634 0
M  V30 25217 H 2349.67 -2.35572 -5.14318 0
M  V30 25218 H 2348.22 -3.05896 -5.75561 0
M  V30 25219 N 2351.66 0.44194 -1.51277 0
M  V30 25220 C 2352.88 1.21892 -1.67801 0
M  V30 25221 C 2353.31 1.84367 -0.372896 0
M  V30 25222 O 2352.67 1.68606 0.666471 0
M  V30 25223 C 2352.71 2.28206 -2.79203 0
M  V30 25224 O 2351.82 3.33579 -2.42485 0
M  V30 25225 H 2351.16 0.357326 -0.559655 0
M  V30 25226 H 2353.69 0.522487 -1.97816 0
M  V30 25227 H 2353.7 2.73064 -3.03151 0
M  V30 25228 H 2352.37 1.82111 -3.7391 0
M  V30 25229 H 2350.95 2.9423 -2.29092 0
M  V30 25230 N 2353.14 1.41345 0.697083 0
M  V30 25231 C 2354.07 1.45845 1.8235 0
M  V30 25232 C 2355.05 0.317276 1.67115 0
M  V30 25233 O 2356.23 0.528507 1.8687 0
M  V30 25234 C 2353.36 1.33843 3.20474 0
M  V30 25235 C 2352.32 2.45756 3.50411 0
M  V30 25236 C 2351.64 2.18821 4.87874 0
M  V30 25237 C 2352.94 3.88097 3.4954 0
M  V30 25238 H 2354.64 2.40116 1.78842 0
M  V30 25239 H 2352.18 1.15573 0.859007 0
M  V30 25240 H 2354.13 1.35603 3.98986 0
M  V30 25241 H 2352.86 0.360555 3.24604 0
M  V30 25242 H 2351.52 2.43276 2.74249 0
M  V30 25243 H 2351.17 1.1938 4.88628 0
M  V30 25244 H 2350.87 2.93812 5.0887 0
M  V30 25245 H 2352.39 2.22294 5.68698 0
M  V30 25246 H 2353.8 3.923 4.18059 0
M  V30 25247 H 2352.2 4.62758 3.82067 0
M  V30 25248 H 2353.27 4.16357 2.48545 0
M  V30 25249 N 2354.61 -0.931187 1.27148 0
M  V30 25250 C 2355.86 -1.67518 1.13058 0
M  V30 25251 C 2356.18 -1.92277 -0.324757 0
M  V30 25252 O 2355.45 -1.52656 -1.22772 0
M  V30 25253 H 2354.03 -0.620846 0.415402 0
M  V30 25254 H 2356.69 -1.1183 1.59624 0
M  V30 25255 H 2355.79 -2.64482 1.65698 0
M  V30 25256 N 2356.09 -1.09114 -1.13719 0
M  V30 25257 C 2357.32 -0.846932 -1.88771 0
M  V30 25258 C 2357.73 0.60154 -1.78961 0
M  V30 25259 O 2357.09 1.41386 -1.15397 0
M  V30 25260 C 2357.14 -1.26919 -3.38488 0
M  V30 25261 O 2356.86 -2.66085 -3.48038 0
M  V30 25262 C 2358.36 -1.0569 -4.30517 0
M  V30 25263 H 2355.58 -0.304924 -0.597714 0
M  V30 25264 H 2358.13 -1.45229 -1.43975 0
M  V30 25265 H 2356.28 -0.70779 -3.80879 0
M  V30 25266 H 2356.7 -2.83803 -4.41085 0
M  V30 25267 H 2358.17 -1.40166 -5.33908 0
M  V30 25268 H 2358.65 0.00555696 -4.392 0
M  V30 25269 H 2359.25 -1.60409 -3.9389 0
M  V30 25270 N 2357.57 1.30887 -0.877861 0
M  V30 25271 C 2358.8 2.00581 -0.507449 0
M  V30 25272 C 2359.21 1.65849 0.902186 0
M  V30 25273 O 2358.57 0.891859 1.59224 0
M  V30 25274 C 2358.62 3.55345 -0.664224 0
M  V30 25275 O 2358.34 3.88837 -2.01836 0
M  V30 25276 C 2359.84 4.42312 -0.295865 0
M  V30 25277 H 2357.06 0.641467 -0.196878 0
M  V30 25278 H 2359.61 1.66937 -1.1812 0
M  V30 25279 H 2357.76 3.87381 -0.03793 0
M  V30 25280 H 2358.18 4.83546 -2.03182 0
M  V30 25281 H 2359.65 5.50109 -0.456485 0
M  V30 25282 H 2360.13 4.32476 0.765586 0
M  V30 25283 H 2360.73 4.15707 -0.898186 0
M  V30 25284 N 2359.05 0.638091 1.44105 0
M  V30 25285 C 2360.28 0.15243 2.06037 0
M  V30 25286 C 2360.69 -1.18105 1.4781 0
M  V30 25287 O 2360.03 -1.7369 0.598123 0
M  V30 25288 C 2360.09 -0.0293082 3.59488 0
M  V30 25289 C 2359.75 1.2271 4.40217 0
M  V30 25290 C 2360.75 2.1524 4.73252 0
M  V30 25291 C 2358.44 1.46446 4.80478 0
M  V30 25292 C 2360.43 3.29811 5.45439 0
M  V30 25293 C 2358.12 2.61313 5.52412 0
M  V30 25294 C 2359.12 3.52822 5.84813 0
M  V30 25295 O 2358.8 4.65685 6.55281 0
M  V30 25296 H 2358.54 0.0801518 0.671231 0
M  V30 25297 H 2361.09 0.874596 1.85849 0
M  V30 25298 H 2359.32 -0.806692 3.78192 0
M  V30 25299 H 2361.01 -0.470404 4.03165 0
M  V30 25300 H 2361.77 1.98139 4.4268 0
M  V30 25301 H 2357.65 0.761056 4.54675 0
M  V30 25302 H 2361.2 4.01259 5.70646 0
M  V30 25303 H 2357.09 2.78354 5.824 0
M  V30 25304 H 2357.86 4.64756 6.73754 0
M  V30 25305 N 2360.53 -1.52973 0.379063 0
M  V30 25306 C 2361.77 -2.00629 -0.207577 0
M  V30 25307 C 2362.09 -1.27008 -1.48756 0
M  V30 25308 O 2363.29 -1.65322 -2.15362 0
M  V30 25309 C 2361.75 -3.57435 -0.420467 0
M  V30 25310 C 2361.36 -4.39946 0.845664 0
M  V30 25311 C 2363.1 -4.13409 -0.964029 0
M  V30 25312 C 2361.01 -5.88332 0.601616 0
M  V30 25313 H 2359.94 -0.749599 -0.0813459 0
M  V30 25314 H 2362.59 -1.7656 0.499884 0
M  V30 25315 H 2360.97 -3.77712 -1.18952 0
M  V30 25316 H 2362.15 -4.31439 1.61855 0
M  V30 25317 H 2360.46 -3.95143 1.31343 0
M  V30 25318 H 2363.06 -5.21918 -1.16216 0
M  V30 25319 H 2363.4 -3.68852 -1.93012 0
M  V30 25320 H 2363.93 -3.96983 -0.2548 0
M  V30 25321 H 2360.67 -6.37191 1.53842 0
M  V30 25322 H 2360.19 -5.99654 -0.132523 0
M  V30 25323 H 2361.87 -6.46583 0.232247 0
M  V30 25324 N 2362 -0.108595 -1.57225 0
M  V30 25325 C 2363.23 0.559107 -1.98891 0
M  V30 25326 C 2363.64 1.6142 -0.986918 0
M  V30 25327 O 2362.98 1.83676 0.0298382 0
M  V30 25328 C 2363.05 1.25309 -3.36954 0
M  V30 25329 C 2362.71 0.347168 -4.55679 0
M  V30 25330 C 2363.71 -0.410087 -5.1828 0
M  V30 25331 C 2361.39 0.261279 -5.0162 0
M  V30 25332 C 2363.39 -1.24107 -6.25201 0
M  V30 25333 C 2361.07 -0.573345 -6.08404 0
M  V30 25334 C 2362.07 -1.32316 -6.70061 0
M  V30 25335 O 2361.76 -2.14394 -7.74784 0
M  V30 25336 H 2361.49 0.153481 -0.658346 0
M  V30 25337 H 2364.05 -0.18862 -2.04532 0
M  V30 25338 H 2362.28 2.04767 -3.28036 0
M  V30 25339 H 2363.96 1.81666 -3.62977 0
M  V30 25340 H 2364.73 -0.353542 -4.8371 0
M  V30 25341 H 2360.61 0.834577 -4.53383 0
M  V30 25342 H 2364.15 -1.82681 -6.73256 0
M  V30 25343 H 2360.05 -0.631321 -6.42405 0
M  V30 25344 H 2360.82 -2.07223 -7.91834 0
M  V30 25345 N 2363.48 1.56732 0.16515 0
M  V30 25346 C 2364.76 1.73226 0.908412 0
M  V30 25347 C 2365.14 0.671685 2.00129 0
M  V30 25348 O 2364.49 -0.312491 2.26353 0
M  V30 25349 C 2364.7 3.16647 1.4675 0
M  V30 25350 C 2366.04 3.77791 1.93802 0
M  V30 25351 O 2367.07 3.19963 1.56531 0
M  V30 25352 O 2365.93 4.79341 2.62478 0
M  V30 25353 H 2363.02 0.707626 0.428013 0
M  V30 25354 H 2365.57 1.69013 0.152496 0
M  V30 25355 H 2364.34 3.85325 0.681222 0
M  V30 25356 H 2363.96 3.25211 2.28743 0
M  V30 25357 N 2364.96 -0.433911 1.51509 0
M  V30 25358 C 2366.21 -1.18002 1.6358 0
M  V30 25359 C 2366.52 -1.92267 0.359548 0
M  V30 25360 O 2367.73 -2.69107 0.359679 0
M  V30 25361 C 2366.18 -2.14621 2.88905 0
M  V30 25362 C 2365.79 -1.45988 4.23546 0
M  V30 25363 C 2367.54 -2.89644 3.10333 0
M  V30 25364 C 2365.44 -2.4111 5.40018 0
M  V30 25365 H 2364.37 -0.444171 0.609285 0
M  V30 25366 H 2367.02 -0.446741 1.77979 0
M  V30 25367 H 2365.41 -2.91398 2.68147 0
M  V30 25368 H 2366.58 -0.747452 4.54697 0
M  V30 25369 H 2364.89 -0.831043 4.08023 0
M  V30 25370 H 2367.49 -3.60908 3.94525 0
M  V30 25371 H 2367.84 -3.51185 2.2355 0
M  V30 25372 H 2368.37 -2.19972 3.31447 0
M  V30 25373 H 2365.11 -1.84253 6.29072 0
M  V30 25374 H 2364.63 -3.10397 5.13239 0
M  V30 25375 H 2366.31 -3.02167 5.72105 0
M  V30 25376 N 2366.44 -1.41713 -0.689577 0
M  V30 25377 C 2367.85 -1.36877 -1.26971 0
M  V30 25378 C 2368.2 -0.0547825 -1.96124 0
M  V30 25379 O 2367.33 0.846835 -1.99142 0
M  V30 25380 C 2367.92 -2.47926 -2.30907 0
M  V30 25381 C 2366.48 -2.46469 -2.84482 0
M  V30 25382 C 2365.63 -2.27468 -1.58599 0
M  V30 25383 H 2368.58 -1.51142 -0.483933 0
M  V30 25384 H 2368.6 -2.17329 -3.12328 0
M  V30 25385 H 2368.11 -3.43546 -1.80548 0
M  V30 25386 H 2366.21 -1.54623 -3.39002 0
M  V30 25387 H 2366.32 -3.42992 -3.34504 0
M  V30 25388 H 2364.69 -1.75455 -1.84629 0
M  V30 25389 H 2365.47 -3.25123 -1.10227 0
M  V30 25390 N 2367.92 0.924431 -1.2764 0
M  V30 25391 C 2368.83 2.05883 -1.12469 0
M  V30 25392 C 2369.84 1.73916 -0.0538995 0
M  V30 25393 O 2371.02 1.99701 -0.261047 0
M  V30 25394 C 2368.08 3.37885 -0.776827 0
M  V30 25395 C 2367.14 3.83528 -1.92885 0
M  V30 25396 C 2366.38 5.09231 -1.59748 0
M  V30 25397 O 2366.6 5.68143 -0.506882 0
M  V30 25398 O 2365.53 5.50327 -2.43771 0
M  V30 25399 H 2369.36 2.21596 -2.07675 0
M  V30 25400 H 2366.95 1.04411 -1.06858 0
M  V30 25401 H 2368.83 4.1716 -0.596303 0
M  V30 25402 H 2367.5 3.23372 0.145675 0
M  V30 25403 H 2366.41 3.05127 -2.16445 0
M  V30 25404 H 2367.74 4.02588 -2.83167 0
M  V30 25405 N 2369.39 1.09715 1.13139 0
M  V30 25406 C 2370.33 0.683175 2.17734 0
M  V30 25407 C 2371.31 -0.311813 1.59582 0
M  V30 25408 O 2372.49 -0.212481 1.87299 0
M  V30 25409 C 2369.62 0.00690277 3.38699 0
M  V30 25410 C 2368.66 0.964175 4.15459 0
M  V30 25411 S 2369.5 2.47776 4.74729 0
M  V30 25412 C 2370.65 1.81398 5.99037 0
M  V30 25413 H 2370.88 1.56922 2.52513 0
M  V30 25414 H 2368.42 0.913426 1.24483 0
M  V30 25415 H 2370.38 -0.376972 4.08765 0
M  V30 25416 H 2369.04 -0.855837 3.02216 0
M  V30 25417 H 2368.23 0.438118 5.02092 0
M  V30 25418 H 2367.83 1.2896 3.51063 0
M  V30 25419 H 2370.12 1.13979 6.67844 0
M  V30 25420 H 2371.07 2.65958 6.56256 0
M  V30 25421 H 2371.47 1.28165 5.49758 0
M  V30 25422 N 2370.87 -1.30419 0.88479 0
M  V30 25423 C 2372.12 -1.9615 0.50314 0
M  V30 25424 C 2372.45 -1.69853 -0.947647 0
M  V30 25425 O 2371.7 -0.995891 -1.68465 0
M  V30 25426 C 2372 -3.49982 0.72438 0
M  V30 25427 C 2371.67 -3.96328 2.15022 0
M  V30 25428 C 2370.33 -4.08694 2.54013 0
M  V30 25429 C 2372.68 -4.205 3.07944 0
M  V30 25430 C 2370.01 -4.42592 3.85135 0
M  V30 25431 C 2372.36 -4.55867 4.38598 0
M  V30 25432 C 2371.03 -4.66441 4.77482 0
M  V30 25433 H 2370.3 -0.717763 0.184112 0
M  V30 25434 H 2372.94 -1.55289 1.12061 0
M  V30 25435 H 2371.25 -3.91793 0.0238775 0
M  V30 25436 H 2372.94 -3.98912 0.408687 0
M  V30 25437 H 2369.53 -3.8721 1.83757 0
M  V30 25438 H 2373.72 -4.10427 2.79041 0
M  V30 25439 H 2368.97 -4.48979 4.15004 0
M  V30 25440 H 2373.15 -4.73521 5.10638 0
M  V30 25441 H 2370.78 -4.92463 5.79124 0
M  V30 25442 N 2372.35 -0.645724 -1.43764 0
M  V30 25443 C 2373.77 -0.312618 -1.56508 0
M  V30 25444 C 2373.97 1.18362 -1.63072 0
M  V30 25445 O 2373.02 1.96821 -1.5817 0
M  V30 25446 C 2374.34 -1.01738 -2.82966 0
M  V30 25447 C 2375.88 -0.996917 -2.96699 0
M  V30 25448 C 2376.36 -1.68243 -4.25979 0
M  V30 25449 N 2377.85 -1.64971 -4.32826 0
M  V30 25450 C 2378.58 -2.14894 -5.31609 0
M  V30 25451 N 2378.08 -2.73072 -6.36713 0
M  V30 25452 N 2379.87 -2.05437 -5.23213 0
M  V30 25453 H 2372.02 -1.61677 -1.37747 0
M  V30 25454 H 2374.29 -0.679492 -0.661055 0
M  V30 25455 H 2373.99 -2.07245 -2.84152 0
M  V30 25456 H 2373.87 -0.564243 -3.72956 0
M  V30 25457 H 2376.25 0.04972 -2.95058 0
M  V30 25458 H 2376.34 -1.48868 -2.08019 0
M  V30 25459 H 2375.98 -2.7286 -4.28381 0
M  V30 25460 H 2375.91 -1.16538 -5.13543 0
M  V30 25461 H 2378.4 -1.2251 -3.57491 0
M  V30 25462 H 2378.71 -3.08861 -7.08396 0
M  V30 25463 H 2377.06 -2.7713 -6.37357 0
M  V30 25464 H 2380.25 -1.59697 -4.40016 0
M  V30 25465 H 2380.42 -2.44653 -6.00041 0
M  V30 25466 N 2373.83 1.5277 -0.38717 0
M  V30 25467 C 2374.76 2.2403 0.484049 0
M  V30 25468 C 2375.77 1.262 1.02847 0
M  V30 25469 O 2376.96 1.52288 0.931159 0
M  V30 25470 C 2374.06 2.94139 1.68332 0
M  V30 25471 C 2373.24 4.18658 1.26664 0
M  V30 25472 C 2372.29 4.71784 2.33036 0
M  V30 25473 O 2371.32 5.34926 1.94532 0
M  V30 25474 N 2372.52 4.51457 3.64921 0
M  V30 25475 H 2375.29 2.99433 -0.126457 0
M  V30 25476 H 2372.85 1.60487 -0.21342 0
M  V30 25477 H 2374.84 3.26581 2.39013 0
M  V30 25478 H 2373.41 2.22057 2.20021 0
M  V30 25479 H 2372.63 3.92278 0.388809 0
M  V30 25480 H 2373.92 4.99567 0.964876 0
M  V30 25481 H 2373.32 4.01051 3.98967 0
M  V30 25482 H 2371.87 4.88393 4.31643 0
M  V30 25483 N 2375.31 0.116931 1.57166 0
M  V30 25484 C 2376.53 -0.552675 1.99901 0
M  V30 25485 C 2376.96 -1.59562 0.996067 0
M  V30 25486 O 2376.31 -1.81271 -0.0325241 0
M  V30 25487 C 2376.36 -1.15736 3.41522 0
M  V30 25488 O 2375.47 -2.27292 3.4411 0
M  V30 25489 H 2374.81 -0.138246 0.649449 0
M  V30 25490 H 2377.34 0.204795 2.03572 0
M  V30 25491 H 2377.35 -1.49339 3.79686 0
M  V30 25492 H 2376.02 -0.393421 4.14035 0
M  V30 25493 H 2374.6 -1.95144 3.17763 0
M  V30 25494 N 2376.78 -1.56818 -0.156836 0
M  V30 25495 C 2377.71 -2.00553 -1.19586 0
M  V30 25496 C 2378.7 -0.883452 -1.45359 0
M  V30 25497 O 2379.88 -1.15057 -1.56447 0
M  V30 25498 C 2377.01 -2.37777 -2.53139 0
M  V30 25499 C 2375.96 -3.53079 -2.41907 0
M  V30 25500 C 2375.29 -3.76088 -3.80082 0
M  V30 25501 C 2376.59 -4.86065 -1.91149 0
M  V30 25502 H 2378.28 -2.87601 -0.832243 0
M  V30 25503 H 2375.83 -1.38365 -0.398894 0
M  V30 25504 H 2377.78 -2.66972 -3.26042 0
M  V30 25505 H 2376.51 -1.47655 -2.91317 0
M  V30 25506 H 2375.17 -3.24034 -1.71457 0
M  V30 25507 H 2374.81 -2.83233 -4.15678 0
M  V30 25508 H 2374.51 -4.53677 -3.73431 0
M  V30 25509 H 2376.04 -4.07698 -4.54549 0
M  V30 25510 H 2377.45 -5.14042 -2.53837 0
M  V30 25511 H 2375.85 -5.67392 -1.95412 0
M  V30 25512 H 2376.92 -4.77094 -0.866589 0
M  V30 25513 N 2378.26 0.425871 -1.51737 0
M  V30 25514 C 2379.51 1.17133 -1.64203 0
M  V30 25515 C 2379.82 1.92074 -0.369739 0
M  V30 25516 O 2381.03 2.68912 -0.373945 0
M  V30 25517 C 2379.49 2.13086 -2.90039 0
M  V30 25518 C 2379.09 1.4374 -4.24315 0
M  V30 25519 C 2380.84 2.87994 -3.11865 0
M  V30 25520 C 2378.75 2.38243 -5.41289 0
M  V30 25521 H 2377.68 0.440933 -0.611632 0
M  V30 25522 H 2380.33 0.437296 -1.78213 0
M  V30 25523 H 2378.71 2.89972 -2.69689 0
M  V30 25524 H 2379.88 0.723328 -4.55087 0
M  V30 25525 H 2378.2 0.809393 -4.08458 0
M  V30 25526 H 2380.79 3.5881 -3.96433 0
M  V30 25527 H 2381.14 3.49995 -2.2541 0
M  V30 25528 H 2381.67 2.18212 -3.32609 0
M  V30 25529 H 2378.41 1.80914 -6.3004 0
M  V30 25530 H 2377.93 3.07671 -5.14878 0
M  V30 25531 H 2379.61 2.99129 -5.73699 0
M  V30 25532 N 2379.74 1.42077 0.682052 0
M  V30 25533 C 2380.69 1.44987 1.79576 0
M  V30 25534 C 2381.66 0.302643 1.6332 0
M  V30 25535 O 2382.84 0.505665 1.83977 0
M  V30 25536 C 2379.98 1.35096 3.17558 0
M  V30 25537 C 2379.1 2.59797 3.45152 0
M  V30 25538 C 2378.23 2.42101 4.72822 0
M  V30 25539 C 2377.27 3.6221 4.93427 0
M  V30 25540 N 2376.41 3.43502 6.12332 0
M  V30 25541 H 2381.25 2.40164 1.76423 0
M  V30 25542 H 2378.78 1.19244 0.861355 0
M  V30 25543 H 2380.74 1.27361 3.97284 0
M  V30 25544 H 2379.37 0.435189 3.19853 0
M  V30 25545 H 2378.42 2.77928 2.59731 0
M  V30 25546 H 2379.74 3.491 3.56273 0
M  V30 25547 H 2378.89 2.3191 5.60627 0
M  V30 25548 H 2377.63 1.50276 4.6397 0
M  V30 25549 H 2376.63 3.72841 4.04066 0
M  V30 25550 H 2377.86 4.55007 5.04128 0
M  V30 25551 H 2375.8 2.54388 6.04668 0
M  V30 25552 H 2375.72 4.26388 6.24283 0
M  V30 25553 H 2376.99 3.37109 7.02835 0
M  V30 25554 N 2381.22 -0.917649 1.28129 0
M  V30 25555 C 2382.15 -2.03639 1.14251 0
M  V30 25556 C 2383.13 -1.7005 0.0413047 0
M  V30 25557 O 2384.32 -1.92977 0.217599 0
M  V30 25558 C 2381.45 -3.37973 0.799491 0
M  V30 25559 C 2380.4 -3.8571 1.85504 0
M  V30 25560 C 2379.73 -5.16964 1.36575 0
M  V30 25561 C 2381.03 -4.07997 3.26092 0
M  V30 25562 H 2382.72 -2.15508 2.07839 0
M  V30 25563 H 2380.27 -1.03551 1.00066 0
M  V30 25564 H 2382.22 -4.15726 0.689187 0
M  V30 25565 H 2380.94 -3.26146 -0.172088 0
M  V30 25566 H 2379.6 -3.10158 1.95442 0
M  V30 25567 H 2379.25 -5.01537 0.383341 0
M  V30 25568 H 2378.95 -5.49874 2.07153 0
M  V30 25569 H 2380.47 -5.97277 1.26859 0
M  V30 25570 H 2381.89 -4.76287 3.19098 0
M  V30 25571 H 2380.28 -4.52231 3.9447 0
M  V30 25572 H 2381.35 -3.12941 3.70399 0
M  V30 25573 N 2382.7 -1.10314 -1.12555 0
M  V30 25574 C 2383.94 -0.855934 -1.84514 0
M  V30 25575 C 2384.3 0.611904 -1.8241 0
M  V30 25576 O 2383.59 1.44533 -1.25781 0
M  V30 25577 C 2383.79 -1.33675 -3.3146 0
M  V30 25578 C 2383.61 -2.8498 -3.47874 0
M  V30 25579 C 2382.38 -3.52967 -3.61583 0
M  V30 25580 C 2384.58 -3.83087 -3.43145 0
M  V30 25581 N 2382.56 -4.92606 -3.6635 0
M  V30 25582 C 2383.94 -5.0873 -3.54392 0
M  V30 25583 C 2385.99 -3.75812 -3.26603 0
M  V30 25584 C 2384.69 -6.27956 -3.50804 0
M  V30 25585 C 2386.72 -4.94536 -3.24326 0
M  V30 25586 C 2386.08 -6.19027 -3.36133 0
M  V30 25587 H 2382.18 -0.366194 -0.69096 0
M  V30 25588 H 2384.76 -1.40527 -1.3476 0
M  V30 25589 H 2382.94 -0.814753 -3.79758 0
M  V30 25590 H 2384.67 -1.03392 -3.9127 0
M  V30 25591 H 2381.42 -3.03411 -3.63647 0
M  V30 25592 H 2381.85 -5.65373 -3.72401 0
M  V30 25593 H 2386.49 -2.80482 -3.1637 0
M  V30 25594 H 2384.21 -7.23577 -3.59808 0
M  V30 25595 H 2387.79 -4.90615 -3.1271 0
M  V30 25596 H 2386.67 -7.09354 -3.34345 0
M  V30 25597 N 2384.18 1.29948 -0.891694 0
M  V30 25598 C 2385.09 2.317 -0.367732 0
M  V30 25599 C 2386.1 1.65621 0.533457 0
M  V30 25600 O 2387.28 1.96866 0.424963 0
M  V30 25601 C 2384.34 3.44346 0.403345 0
M  V30 25602 C 2383.4 4.26036 -0.528403 0
M  V30 25603 C 2382.64 5.33302 0.20597 0
M  V30 25604 O 2382.86 5.52156 1.43109 0
M  V30 25605 O 2381.79 6.00235 -0.447386 0
M  V30 25606 H 2385.62 2.78481 -1.21168 0
M  V30 25607 H 2383.2 1.3424 -0.655748 0
M  V30 25608 H 2385.09 4.1295 0.83968 0
M  V30 25609 H 2383.76 2.99687 1.22349 0
M  V30 25610 H 2382.67 3.60104 -1.01369 0
M  V30 25611 H 2384 4.74316 -1.31474 0
M  V30 25612 N 2385.65 0.653339 1.4342 0
M  V30 25613 C 2386.88 0.172883 2.06678 0
M  V30 25614 C 2387.3 -1.1526 1.4865 0
M  V30 25615 O 2386.66 -1.71207 0.596487 0
M  V30 25616 C 2386.71 0.0953818 3.60474 0
M  V30 25617 O 2385.81 -0.942372 4.01489 0
M  V30 25618 H 2385.15 0.0949271 0.657179 0
M  V30 25619 H 2387.68 0.896297 1.83923 0
M  V30 25620 H 2387.69 -0.0879011 4.07905 0
M  V30 25621 H 2386.37 1.06298 4.02086 0
M  V30 25622 H 2384.95 -0.731867 3.65648 0
M  V30 25623 N 2387.13 -1.52563 0.395266 0
M  V30 25624 C 2388.06 -2.23068 -0.481261 0
M  V30 25625 C 2389.04 -1.23364 -1.05925 0
M  V30 25626 O 2390.23 -1.5237 -1.10976 0
M  V30 25627 C 2387.35 -2.94853 -1.66671 0
M  V30 25628 C 2386.4 -4.08875 -1.21341 0
M  V30 25629 S 2387.23 -5.35163 -0.190008 0
M  V30 25630 C 2388.39 -6.10472 -1.3811 0
M  V30 25631 H 2388.62 -2.97068 0.117433 0
M  V30 25632 H 2386.15 -1.53353 0.179485 0
M  V30 25633 H 2388.11 -3.3682 -2.34654 0
M  V30 25634 H 2386.77 -2.20522 -2.23672 0
M  V30 25635 H 2385.97 -4.58226 -2.09869 0
M  V30 25636 H 2385.57 -3.68952 -0.612421 0
M  V30 25637 H 2387.86 -6.37006 -2.30715 0
M  V30 25638 H 2388.8 -7.01987 -0.928398 0
M  V30 25639 H 2389.21 -5.41332 -1.60062 0
M  V30 25640 N 2388.61 -0.125265 -1.57101 0
M  V30 25641 C 2389.83 0.542066 -2.00191 0
M  V30 25642 C 2390.26 1.59032 -1.00452 0
M  V30 25643 O 2389.62 1.81286 0.0229104 0
M  V30 25644 C 2389.67 1.13923 -3.42131 0
M  V30 25645 O 2388.77 2.25464 -3.45311 0
M  V30 25646 H 2388.11 0.1348 -0.650173 0
M  V30 25647 H 2390.64 -0.215588 -2.03461 0
M  V30 25648 H 2390.65 1.47324 -3.80473 0
M  V30 25649 H 2389.33 0.371458 -4.14238 0
M  V30 25650 H 2387.9 1.93456 -3.18793 0
M  V30 25651 N 2390.09 1.56899 0.148518 0
M  V30 25652 C 2391.32 1.87424 0.876356 0
M  V30 25653 C 2391.73 0.713287 1.74807 0
M  V30 25654 O 2391.09 -0.316994 1.79726 0
M  V30 25655 C 2391.14 3.17181 1.73432 0
M  V30 25656 O 2390.86 4.28803 0.897734 0
M  V30 25657 C 2392.36 3.6121 2.56987 0
M  V30 25658 H 2389.58 0.621281 0.253478 0
M  V30 25659 H 2392.12 2.04008 0.141762 0
M  V30 25660 H 2390.28 3.02355 2.42199 0
M  V30 25661 H 2390.69 5.02991 1.48663 0
M  V30 25662 H 2392.17 4.54843 3.12765 0
M  V30 25663 H 2392.64 2.86425 3.32952 0
M  V30 25664 H 2393.25 3.78725 1.93513 0
M  V30 25665 N 2391.57 -0.417818 1.51961 0
M  V30 25666 C 2392.5 -1.5273 1.70898 0
M  V30 25667 C 2393.51 -1.51755 0.589432 0
M  V30 25668 O 2394.7 -1.56178 0.864339 0
M  V30 25669 C 2391.8 -2.91636 1.72632 0
M  V30 25670 C 2390.97 -3.169 3.01485 0
M  V30 25671 C 2390.03 -4.35631 2.95147 0
M  V30 25672 O 2389.06 -4.33334 3.69067 0
M  V30 25673 N 2390.26 -5.40271 2.12338 0
M  V30 25674 H 2393.02 -1.36883 2.66614 0
M  V30 25675 H 2390.59 -0.607011 1.5009 0
M  V30 25676 H 2392.58 -3.69117 1.65935 0
M  V30 25677 H 2391.15 -3.00983 0.844268 0
M  V30 25678 H 2390.37 -2.2754 3.21899 0
M  V30 25679 H 2391.66 -3.30618 3.86742 0
M  V30 25680 H 2391.05 -5.44982 1.51694 0
M  V30 25681 H 2389.61 -6.1653 2.11504 0
M  V30 25682 N 2393.04 -1.42436 -0.674508 0
M  V30 25683 C 2394.01 -1.45635 -1.76984 0
M  V30 25684 C 2395.01 -0.343898 -1.5708 0
M  V30 25685 O 2396.2 -0.604738 -1.63366 0
M  V30 25686 C 2393.33 -1.28828 -3.1562 0
M  V30 25687 H 2394.52 -2.43161 -1.75535 0
M  V30 25688 H 2392.07 -1.28888 -0.884167 0
M  V30 25689 H 2392.81 -0.322249 -3.22695 0
M  V30 25690 H 2392.59 -2.0945 -3.31471 0
M  V30 25691 H 2394.08 -1.33949 -3.95534 0
M  V30 25692 N 2394.52 0.910841 -1.28614 0
M  V30 25693 C 2395.77 1.66026 -1.15937 0
M  V30 25694 C 2396.1 1.92304 0.291449 0
M  V30 25695 O 2395.35 1.52366 1.22813 0
M  V30 25696 C 2395.65 3.02317 -1.90629 0
M  V30 25697 C 2395.32 2.95689 -3.4041 0
M  V30 25698 C 2393.98 2.93588 -3.8126 0
M  V30 25699 C 2396.33 2.85721 -4.35905 0
M  V30 25700 C 2393.66 2.79325 -5.15941 0
M  V30 25701 C 2396.01 2.72997 -5.70662 0
M  V30 25702 C 2394.67 2.69256 -6.10784 0
M  V30 25703 H 2393.94 0.607534 -0.424245 0
M  V30 25704 H 2396.59 1.06098 -1.59422 0
M  V30 25705 H 2394.9 3.66047 -1.39702 0
M  V30 25706 H 2396.59 3.59212 -1.78235 0
M  V30 25707 H 2393.18 2.9812 -3.07933 0
M  V30 25708 H 2397.37 2.86429 -4.05305 0
M  V30 25709 H 2392.62 2.74826 -5.46151 0
M  V30 25710 H 2396.8 2.64253 -6.44316 0
M  V30 25711 H 2394.42 2.57961 -7.15094 0
M  V30 25712 N 2396 1.10909 1.11969 0
M  V30 25713 C 2396.93 0.784511 2.19927 0
M  V30 25714 C 2397.91 -0.244697 1.68331 0
M  V30 25715 O 2399.1 -0.109384 1.93892 0
M  V30 25716 C 2396.23 0.220888 3.46597 0
M  V30 25717 C 2395.18 1.18134 4.11374 0
M  V30 25718 C 2394.51 0.478688 5.32553 0
M  V30 25719 C 2395.81 2.52987 4.56941 0
M  V30 25720 H 2397.5 1.68719 2.47334 0
M  V30 25721 H 2395.05 0.812663 1.18877 0
M  V30 25722 H 2397 -0.0183538 4.21396 0
M  V30 25723 H 2395.72 -0.717057 3.18631 0
M  V30 25724 H 2394.38 1.40612 3.38561 0
M  V30 25725 H 2394.03 -0.463888 5.00856 0
M  V30 25726 H 2393.73 1.11922 5.76842 0
M  V30 25727 H 2395.25 0.248107 6.10096 0
M  V30 25728 H 2396.67 2.3463 5.23089 0
M  V30 25729 H 2395.07 3.12971 5.12025 0
M  V30 25730 H 2396.14 3.1262 3.70671 0
M  V30 25731 N 2397.48 -1.29474 0.898573 0
M  V30 25732 C 2398.89 -1.77704 0.572568 0
M  V30 25733 C 2399.24 -1.73729 -0.911747 0
M  V30 25734 O 2398.37 -1.3225 -1.71286 0
M  V30 25735 C 2398.96 -3.22682 1.03257 0
M  V30 25736 C 2397.52 -3.68694 0.757752 0
M  V30 25737 C 2396.67 -2.49609 1.20791 0
M  V30 25738 H 2399.62 -1.16151 1.08141 0
M  V30 25739 H 2399.64 -3.78722 0.367374 0
M  V30 25740 H 2399.15 -3.25543 2.11291 0
M  V30 25741 H 2397.25 -3.71308 -0.310014 0
M  V30 25742 H 2397.36 -4.59544 1.35484 0
M  V30 25743 H 2395.73 -2.46864 0.626931 0
M  V30 25744 H 2396.51 -2.55199 2.29626 0
M  V30 25745 N 2398.96 -0.660936 -1.43071 0
M  V30 25746 C 2400.18 -0.183841 -2.06584 0
M  V30 25747 C 2400.61 1.1447 -1.49259 0
M  V30 25748 O 2399.96 1.70888 -0.605558 0
M  V30 25749 C 2400.01 -0.114497 -3.60418 0
M  V30 25750 O 2399.12 0.921067 -4.01983 0
M  V30 25751 H 2398.46 -0.0984109 -0.656667 0
M  V30 25752 H 2400.99 -0.906039 -1.83445 0
M  V30 25753 H 2401 0.0662677 -4.07946 0
M  V30 25754 H 2399.67 -1.08429 -4.01517 0
M  V30 25755 H 2398.25 0.712466 -3.66031 0
M  V30 25756 N 2400.43 1.52351 -0.403352 0
M  V30 25757 C 2401.85 1.86578 0.0675454 0
M  V30 25758 C 2402.2 1.32239 1.44939 0
M  V30 25759 O 2401.32 0.659343 2.06111 0
M  V30 25760 C 2401.92 3.38553 0.129344 0
M  V30 25761 C 2400.48 3.7244 0.544564 0
M  V30 25762 C 2399.62 2.75836 -0.2846 0
M  V30 25763 H 2402.57 1.4606 -0.620657 0
M  V30 25764 H 2402.59 3.68559 0.945746 0
M  V30 25765 H 2402.11 3.78072 -0.876516 0
M  V30 25766 H 2400.21 3.38496 1.55728 0
M  V30 25767 H 2400.32 4.78203 0.292961 0
M  V30 25768 H 2398.68 2.53448 0.252214 0
M  V30 25769 H 2399.47 3.18194 -1.2887 0
M  V30 25770 N 2401.91 0.133594 1.57033 0
M  V30 25771 C 2403.32 -0.389432 1.82593 0
M  V30 25772 C 2403.67 -1.65638 1.05159 0
M  V30 25773 O 2402.8 -2.14412 0.292682 0
M  V30 25774 C 2403.39 -0.713319 3.31206 0
M  V30 25775 C 2401.95 -1.18092 3.57395 0
M  V30 25776 C 2401.1 -0.197078 2.76599 0
M  V30 25777 H 2404.05 0.358508 1.54598 0
M  V30 25778 H 2404.07 -1.56933 3.4663 0
M  V30 25779 H 2403.58 0.208968 3.87537 0
M  V30 25780 H 2401.69 -2.11961 3.06437 0
M  V30 25781 H 2401.8 -1.11616 4.65917 0
M  V30 25782 H 2400.16 -0.687045 2.45259 0
M  V30 25783 H 2400.95 0.718563 3.35696 0
M  V30 25784 N 2403.39 -1.56975 -0.140195 0
M  V30 25785 C 2404.32 -2.0181 -1.17452 0
M  V30 25786 C 2405.3 -0.898819 -1.44413 0
M  V30 25787 O 2406.49 -1.1671 -1.55218 0
M  V30 25788 C 2403.62 -2.40449 -2.50603 0
M  V30 25789 C 2402.57 -3.55625 -2.38149 0
M  V30 25790 C 2401.9 -3.80098 -3.76072 0
M  V30 25791 C 2403.2 -4.88065 -1.85983 0
M  V30 25792 H 2404.89 -2.88467 -0.801692 0
M  V30 25793 H 2402.44 -1.3878 -0.384196 0
M  V30 25794 H 2404.39 -2.70416 -3.23193 0
M  V30 25795 H 2403.11 -1.50737 -2.89734 0
M  V30 25796 H 2401.77 -3.25834 -1.6801 0
M  V30 25797 H 2401.42 -2.87625 -4.12651 0
M  V30 25798 H 2401.12 -4.57613 -3.68598 0
M  V30 25799 H 2402.64 -4.12496 -4.50199 0
M  V30 25800 H 2404.06 -5.16706 -2.48371 0
M  V30 25801 H 2402.46 -5.69433 -1.89383 0
M  V30 25802 H 2403.53 -4.77986 -0.815938 0
M  V30 25803 N 2404.87 0.409753 -1.5218 0
M  V30 25804 C 2406.28 0.988587 -1.58379 0
M  V30 25805 C 2406.63 1.91566 -0.423913 0
M  V30 25806 O 2405.76 2.11545 0.455807 0
M  V30 25807 C 2406.35 1.79971 -2.87047 0
M  V30 25808 C 2404.91 2.32858 -2.95726 0
M  V30 25809 C 2404.06 1.12823 -2.53311 0
M  V30 25810 H 2407.01 0.190011 -1.57558 0
M  V30 25811 H 2407.03 2.65703 -2.72364 0
M  V30 25812 H 2406.54 1.12471 -3.71446 0
M  V30 25813 H 2404.64 3.03731 -2.1582 0
M  V30 25814 H 2404.75 2.63766 -3.99955 0
M  V30 25815 H 2403.12 1.482 -2.07144 0
M  V30 25816 H 2403.9 0.468911 -3.40083 0
M  V30 25817 N 2406.35 1.42792 0.666944 0
M  V30 25818 C 2407.57 1.47303 1.46002 0
M  V30 25819 C 2408 0.0880648 1.87894 0
M  V30 25820 O 2407.35 -0.915225 1.56503 0
M  V30 25821 C 2407.4 2.41234 2.68027 0
M  V30 25822 O 2406.51 1.88913 3.66587 0
M  V30 25823 H 2405.85 0.498778 0.438311 0
M  V30 25824 H 2408.38 1.87564 0.817358 0
M  V30 25825 H 2408.39 2.58079 3.16006 0
M  V30 25826 H 2407.06 3.41851 2.36877 0
M  V30 25827 H 2405.64 1.81662 3.25658 0
M  V30 25828 N 2407.82 -0.904008 1.29095 0
M  V30 25829 C 2409.1 -1.63409 1.07503 0
M  V30 25830 C 2409.48 -2.07609 -0.38231 0
M  V30 25831 O 2408.83 -1.82854 -1.37028 0
M  V30 25832 C 2409.04 -2.81818 2.05863 0
M  V30 25833 C 2410.39 -3.52607 2.36545 0
M  V30 25834 O 2411.41 -2.91981 2.04024 0
M  V30 25835 O 2410.27 -4.61892 2.92093 0
M  V30 25836 H 2407.36 -0.71732 0.41156 0
M  V30 25837 H 2409.91 -0.952455 1.40451 0
M  V30 25838 H 2408.68 -2.46322 3.04041 0
M  V30 25839 H 2408.31 -3.5769 1.73619 0
M  V30 25840 N 2409.3 -1.11501 -1.11379 0
M  V30 25841 C 2410.24 -0.717728 -2.16619 0
M  V30 25842 C 2411.21 0.286385 -1.60058 0
M  V30 25843 O 2412.4 0.182656 -1.87613 0
M  V30 25844 C 2409.52 -0.060786 -3.38645 0
M  V30 25845 C 2408.57 -1.03015 -4.13872 0
M  V30 25846 S 2409.4 -2.55297 -4.70727 0
M  V30 25847 C 2410.56 -1.90905 -5.96076 0
M  V30 25848 H 2410.79 -1.6092 -2.49984 0
M  V30 25849 H 2408.33 -0.933114 -1.23014 0
M  V30 25850 H 2410.28 0.311893 -4.09313 0
M  V30 25851 H 2408.94 0.807648 -3.03539 0
M  V30 25852 H 2408.14 -0.517941 -5.01332 0
M  V30 25853 H 2407.74 -1.34528 -3.48967 0
M  V30 25854 H 2410.03 -1.24589 -6.65946 0
M  V30 25855 H 2410.97 -2.76365 -6.51942 0
M  V30 25856 H 2411.38 -1.36894 -5.4765 0
M  V30 25857 N 2410.78 1.28995 -0.905426 0
M  V30 25858 C 2411.71 2.29974 -0.404253 0
M  V30 25859 C 2412.69 1.61836 0.523755 0
M  V30 25860 O 2413.88 1.89305 0.433265 0
M  V30 25861 C 2411.01 3.45387 0.363981 0
M  V30 25862 C 2409.96 4.25366 -0.474123 0
M  V30 25863 C 2409.29 5.33033 0.421952 0
M  V30 25864 C 2410.59 4.9292 -1.72704 0
M  V30 25865 H 2412.28 2.72144 -1.24812 0
M  V30 25866 H 2409.83 1.30831 -0.601608 0
M  V30 25867 H 2411.78 4.1511 0.725374 0
M  V30 25868 H 2410.5 3.02076 1.24168 0
M  V30 25869 H 2409.16 3.57359 -0.817923 0
M  V30 25870 H 2408.81 4.85965 1.29796 0
M  V30 25871 H 2408.51 5.87445 -0.13516 0
M  V30 25872 H 2410.04 6.05605 0.77941 0
M  V30 25873 H 2411.45 5.55049 -1.43505 0
M  V30 25874 H 2409.85 5.57291 -2.22592 0
M  V30 25875 H 2410.92 4.17883 -2.45971 0
M  V30 25876 N 2412.26 0.668514 1.42719 0
M  V30 25877 C 2413.49 0.196384 2.05966 0
M  V30 25878 C 2413.9 -1.144 1.50193 0
M  V30 25879 O 2413.26 -1.70939 0.639238 0
M  V30 25880 C 2413.31 0.115879 3.61314 0
M  V30 25881 O 2413.03 1.40329 4.15017 0
M  V30 25882 C 2414.53 -0.380501 4.41664 0
M  V30 25883 H 2411.75 0.0969946 0.663953 0
M  V30 25884 H 2414.3 0.913478 1.82964 0
M  V30 25885 H 2412.45 -0.551864 3.83449 0
M  V30 25886 H 2412.87 1.27252 5.08829 0
M  V30 25887 H 2414.34 -0.385751 5.5065 0
M  V30 25888 H 2414.82 -1.41463 4.15794 0
M  V30 25889 H 2415.42 0.255284 4.24533 0
M  V30 25890 N 2413.74 -1.52135 0.411426 0
M  V30 25891 C 2414.97 -2.05958 -0.162804 0
M  V30 25892 C 2415.38 -1.28121 -1.39218 0
M  V30 25893 O 2414.72 -0.326913 -1.80768 0
M  V30 25894 C 2414.78 -3.54857 -0.575883 0
M  V30 25895 C 2414.44 -4.53762 0.543077 0
M  V30 25896 C 2415.44 -5.00489 1.40735 0
M  V30 25897 C 2413.13 -4.97165 0.716424 0
M  V30 25898 C 2415.12 -5.89266 2.4299 0
M  V30 25899 C 2412.81 -5.85737 1.74228 0
M  V30 25900 C 2413.81 -6.31683 2.59742 0
M  V30 25901 O 2413.49 -7.18501 3.60571 0
M  V30 25902 H 2413.23 -0.675612 -0.0229007 0
M  V30 25903 H 2415.78 -1.96992 0.581669 0
M  V30 25904 H 2414.01 -3.61517 -1.37267 0
M  V30 25905 H 2415.7 -3.91315 -1.07829 0
M  V30 25906 H 2416.46 -4.67672 1.28484 0
M  V30 25907 H 2412.34 -4.6096 0.0604667 0
M  V30 25908 H 2415.89 -6.2505 3.09771 0
M  V30 25909 H 2411.78 -6.17968 1.86509 0
M  V30 25910 H 2412.55 -7.36618 3.56842 0
M  V30 25911 N 2415.22 -0.14192 -1.5696 0
M  V30 25912 C 2416.44 0.517544 -2.00322 0
M  V30 25913 C 2416.86 1.5875 -1.02195 0
M  V30 25914 O 2416.22 1.82491 -0.018194 0
M  V30 25915 C 2416.27 1.12283 -3.4362 0
M  V30 25916 O 2415.99 0.0956159 -4.37996 0
M  V30 25917 C 2417.49 1.86339 -4.02234 0
M  V30 25918 H 2414.71 0.135166 -0.657245 0
M  V30 25919 H 2417.25 -0.235009 -2.03145 0
M  V30 25920 H 2415.41 1.82603 -3.41665 0
M  V30 25921 H 2415.82 0.538377 -5.2173 0
M  V30 25922 H 2417.3 2.23988 -5.04513 0
M  V30 25923 H 2417.77 2.74738 -3.42659 0
M  V30 25924 H 2418.38 1.2073 -4.07804 0
M  V30 25925 N 2416.69 1.57047 0.131868 0
M  V30 25926 C 2417.6 2.02678 1.18147 0
M  V30 25927 C 2418.62 0.94485 1.46112 0
M  V30 25928 O 2419.8 1.25544 1.57483 0
M  V30 25929 C 2416.86 2.41107 2.49135 0
M  V30 25930 C 2415.92 3.63322 2.28682 0
M  V30 25931 C 2415.15 3.99909 3.53424 0
M  V30 25932 O 2415.38 3.36981 4.60217 0
M  V30 25933 O 2414.31 4.9308 3.45189 0
M  V30 25934 H 2418.14 2.92307 0.824017 0
M  V30 25935 H 2415.72 1.45439 0.341719 0
M  V30 25936 H 2417.6 2.66617 3.26333 0
M  V30 25937 H 2416.28 1.54629 2.84379 0
M  V30 25938 H 2415.19 3.4298 1.49384 0
M  V30 25939 H 2416.52 4.50466 1.98347 0
M  V30 25940 N 2418.17 -0.401677 1.52395 0
M  V30 25941 C 2419.1 -1.49658 1.79234 0
M  V30 25942 C 2420.08 -1.57451 0.643682 0
M  V30 25943 O 2421.27 -1.72604 0.89002 0
M  V30 25944 C 2418.4 -2.87405 1.94976 0
M  V30 25945 C 2417.35 -2.94459 3.10609 0
M  V30 25946 C 2416.68 -4.34533 3.11585 0
M  V30 25947 C 2417.98 -2.65262 4.49926 0
M  V30 25948 H 2419.67 -1.27449 2.70919 0
M  V30 25949 H 2417.22 -0.611677 1.30363 0
M  V30 25950 H 2419.17 -3.63995 2.12334 0
M  V30 25951 H 2417.89 -3.10924 0.999687 0
M  V30 25952 H 2416.55 -2.20316 2.93013 0
M  V30 25953 H 2416.2 -4.55072 2.14285 0
M  V30 25954 H 2415.9 -4.40176 3.89255 0
M  V30 25955 H 2417.43 -5.13047 3.31082 0
M  V30 25956 H 2418.84 -3.31573 4.67689 0
M  V30 25957 H 2417.24 -2.82271 5.29569 0
M  V30 25958 H 2418.31 -1.60663 4.5751 0
M  V30 25959 N 2419.65 -1.43144 -0.659362 0
M  V30 25960 C 2420.9 -1.44649 -1.42142 0
M  V30 25961 C 2421.23 -0.0682248 -1.9408 0
M  V30 25962 O 2420.5 0.909977 -1.719 0
M  V30 25963 C 2420.79 -2.48378 -2.60731 0
M  V30 25964 C 2420.64 -3.95455 -2.14325 0
M  V30 25965 C 2421.96 -2.48913 -3.62947 0
M  V30 25966 H 2419.08 -0.526705 -0.515511 0
M  V30 25967 H 2421.72 -1.74655 -0.748038 0
M  V30 25968 H 2419.87 -2.22921 -3.1818 0
M  V30 25969 H 2421.54 -4.31947 -1.61925 0
M  V30 25970 H 2419.78 -4.08581 -1.45753 0
M  V30 25971 H 2420.46 -4.63637 -2.99575 0
M  V30 25972 H 2422.93 -2.71587 -3.15245 0
M  V30 25973 H 2421.81 -3.23443 -4.43482 0
M  V30 25974 H 2422.07 -1.52068 -4.15124 0
M  V30 25975 N 2421.13 0.897149 -1.29572 0
M  V30 25976 C 2422.06 2.01796 -1.17476 0
M  V30 25977 C 2423.04 1.69963 -0.0683529 0
M  V30 25978 O 2424.22 1.92606 -0.248273 0
M  V30 25979 C 2421.35 3.36658 -0.853158 0
M  V30 25980 C 2420.31 3.8271 -1.91617 0
M  V30 25981 C 2419.63 5.14726 -1.44782 0
M  V30 25982 C 2420.93 4.02757 -3.32542 0
M  V30 25983 H 2422.63 2.12174 -2.11241 0
M  V30 25984 H 2420.17 1.01946 -1.01701 0
M  V30 25985 H 2422.13 4.14577 -0.755238 0
M  V30 25986 H 2420.85 3.26379 0.120179 0
M  V30 25987 H 2419.51 3.07009 -2.00352 0
M  V30 25988 H 2419.16 5.00864 -0.463083 0
M  V30 25989 H 2418.86 5.46509 -2.15875 0
M  V30 25990 H 2420.38 5.95183 -1.36345 0
M  V30 25991 H 2421.8 4.71151 -3.26634 0
M  V30 25992 H 2420.19 4.45898 -4.01615 0
M  V30 25993 H 2421.26 3.07009 -3.75331 0
M  V30 25994 N 2422.61 1.1209 1.10786 0
M  V30 25995 C 2423.88 0.785508 1.79134 0
M  V30 25996 C 2424.26 -0.725342 1.98247 0
M  V30 25997 O 2423.61 -1.65775 1.57261 0
M  V30 25998 C 2423.82 1.55641 3.12373 0
M  V30 25999 C 2425.17 1.74007 3.87307 0
M  V30 26000 O 2426.19 1.52123 3.22082 0
M  V30 26001 O 2425.05 2.10424 5.04365 0
M  V30 26002 H 2422.15 0.285325 0.776221 0
M  V30 26003 H 2424.69 1.22472 1.17468 0
M  V30 26004 H 2423.46 2.58385 2.93859 0
M  V30 26005 H 2423.09 1.11121 3.81756 0
M  V30 26006 N 2424.08 -1.28513 0.912254 0
M  V30 26007 C 2425.36 -1.90026 0.46363 0
M  V30 26008 C 2425.74 -1.82702 -1.0575 0
M  V30 26009 O 2425.09 -1.26197 -1.9049 0
M  V30 26010 C 2425.3 -3.34596 0.992311 0
M  V30 26011 C 2426.65 -4.11577 1.04351 0
M  V30 26012 O 2427.67 -3.4355 0.94085 0
M  V30 26013 O 2426.53 -5.33172 1.1996 0
M  V30 26014 H 2423.62 -0.813888 0.14668 0
M  V30 26015 H 2426.17 -1.36891 1.00294 0
M  V30 26016 H 2424.94 -3.34142 2.03629 0
M  V30 26017 H 2424.56 -3.95227 0.433741 0
M  V30 26018 N 2425.56 -0.676073 -1.42362 0
M  V30 26019 C 2426.49 0.0404202 -2.29164 0
M  V30 26020 C 2427.51 0.764219 -1.43748 0
M  V30 26021 O 2428.7 0.618166 -1.67454 0
M  V30 26022 C 2425.8 1.08097 -3.21198 0
M  V30 26023 C 2424.97 0.430736 -4.35274 0
M  V30 26024 C 2424.03 1.37124 -5.08019 0
M  V30 26025 O 2423.05 0.871061 -5.62495 0
M  V30 26026 N 2424.26 2.70447 -5.13652 0
M  V30 26027 H 2427.02 -0.704718 -2.91297 0
M  V30 26028 H 2424.58 -0.520586 -1.53302 0
M  V30 26029 H 2426.57 1.71145 -3.66731 0
M  V30 26030 H 2425.14 1.72783 -2.60509 0
M  V30 26031 H 2424.36 -0.379278 -3.92371 0
M  V30 26032 H 2425.65 -0.0222027 -5.08795 0
M  V30 26033 H 2425.05 3.13621 -4.70806 0
M  V30 26034 H 2423.61 3.28739 -5.62826 0
M  V30 26035 N 2427.04 1.51915 -0.419488 0
M  V30 26036 C 2428.29 2.01523 0.152602 0
M  V30 26037 C 2428.61 1.30651 1.44759 0
M  V30 26038 O 2427.88 0.435569 1.90996 0
M  V30 26039 H 2426.46 0.744636 0.0593835 0
M  V30 26040 H 2429.12 1.86738 -0.558105 0
M  V30 26041 H 2428.22 3.10228 0.341315 0
M  V30 26042 N 2428.52 0.150242 1.56882 0
M  V30 26043 C 2429.45 -0.819249 2.14058 0
M  V30 26044 C 2430.46 -1.20849 1.09084 0
M  V30 26045 O 2431.65 -1.15201 1.36349 0
M  V30 26046 C 2428.75 -2.11122 2.65105 0
M  V30 26047 C 2427.93 -1.88884 3.94515 0
M  V30 26048 C 2426.98 -3.021 4.30839 0
M  V30 26049 O 2426.01 -2.7365 4.99104 0
M  V30 26050 N 2427.21 -4.29356 3.90683 0
M  V30 26051 H 2429.98 -0.330565 2.97871 0
M  V30 26052 H 2427.54 -0.0332254 1.61866 0
M  V30 26053 H 2429.53 -2.85916 2.86416 0
M  V30 26054 H 2428.1 -2.51243 1.85999 0
M  V30 26055 H 2427.32 -0.981085 3.81796 0
M  V30 26056 H 2428.61 -1.71367 4.79073 0
M  V30 26057 H 2428.01 -4.55338 3.35685 0
M  V30 26058 H 2426.56 -5.00921 4.17039 0
M  V30 26059 N 2430 -1.57115 -0.123538 0
M  V30 26060 C 2430.93 -2.03044 -1.15305 0
M  V30 26061 C 2431.91 -0.914086 -1.43452 0
M  V30 26062 O 2433.09 -1.18349 -1.53971 0
M  V30 26063 C 2430.22 -2.43093 -2.48038 0
M  V30 26064 C 2429.18 -3.58131 -2.34363 0
M  V30 26065 C 2428.5 -3.84065 -3.72019 0
M  V30 26066 C 2429.8 -4.9001 -1.80796 0
M  V30 26067 H 2431.5 -2.89301 -0.771051 0
M  V30 26068 H 2429.04 -1.3918 -0.369455 0
M  V30 26069 H 2431 -2.73828 -3.20306 0
M  V30 26070 H 2429.72 -1.53801 -2.88119 0
M  V30 26071 H 2428.38 -3.27598 -1.64545 0
M  V30 26072 H 2428.03 -2.91986 -4.09577 0
M  V30 26073 H 2427.73 -4.61496 -3.63724 0
M  V30 26074 H 2429.25 -4.17248 -4.45799 0
M  V30 26075 H 2430.66 -5.19311 -2.42877 0
M  V30 26076 H 2429.06 -5.7141 -1.83333 0
M  V30 26077 H 2430.13 -4.78824 -0.765196 0
M  V30 26078 N 2431.47 0.393589 -1.52606 0
M  V30 26079 C 2432.72 1.14076 -1.67674 0
M  V30 26080 C 2433.05 1.89754 -0.413155 0
M  V30 26081 O 2432.33 1.8537 0.588919 0
M  V30 26082 C 2432.61 2.12271 -2.90883 0
M  V30 26083 C 2432.46 1.40386 -4.27331 0
M  V30 26084 C 2433.78 3.12754 -3.09634 0
M  V30 26085 H 2430.9 0.413346 -0.610176 0
M  V30 26086 H 2433.54 0.424663 -1.85193 0
M  V30 26087 H 2431.69 2.73338 -2.76078 0
M  V30 26088 H 2433.37 0.82319 -4.53896 0
M  V30 26089 H 2431.61 0.705726 -4.28021 0
M  V30 26090 H 2432.28 2.12114 -5.09619 0
M  V30 26091 H 2434.76 2.61774 -3.2344 0
M  V30 26092 H 2433.63 3.7871 -3.97329 0
M  V30 26093 H 2433.89 3.81361 -2.23643 0
M  V30 26094 N 2432.95 1.43492 0.651762 0
M  V30 26095 C 2433.9 1.45208 1.7578 0
M  V30 26096 C 2434.89 0.320355 1.57679 0
M  V30 26097 O 2436.08 0.56424 1.67766 0
M  V30 26098 C 2433.21 1.37925 3.14375 0
M  V30 26099 C 2432.29 2.56133 3.38019 0
M  V30 26100 N 2432.68 3.81477 3.32128 0
M  V30 26101 C 2430.98 2.50888 3.68743 0
M  V30 26102 C 2431.68 4.60125 3.55893 0
M  V30 26103 N 2430.66 3.90878 3.77776 0
M  V30 26104 H 2434.46 2.3999 1.69653 0
M  V30 26105 H 2431.98 1.38164 0.853484 0
M  V30 26106 H 2433.97 1.37238 3.93664 0
M  V30 26107 H 2432.63 0.441653 3.21682 0
M  V30 26108 H 2433.64 4.13743 3.11507 0
M  V30 26109 H 2430.32 1.65823 3.83157 0
M  V30 26110 H 2431.71 5.69144 3.57106 0
M  V30 26111 N 2434.43 -0.890264 1.30046 0
M  V30 26112 C 2435.36 -1.9977 1.10305 0
M  V30 26113 C 2436.34 -1.62595 0.0121917 0
M  V30 26114 O 2437.53 -1.87779 0.164723 0
M  V30 26115 C 2434.65 -3.31779 0.681183 0
M  V30 26116 C 2433.7 -3.8794 1.77213 0
M  V30 26117 S 2434.53 -4.15885 3.37342 0
M  V30 26118 C 2435.69 -5.50922 2.97046 0
M  V30 26119 H 2435.92 -2.1621 2.0406 0
M  V30 26120 H 2433.45 -1.03802 1.143 0
M  V30 26121 H 2435.41 -4.08086 0.444511 0
M  V30 26122 H 2434.07 -3.13205 -0.236926 0
M  V30 26123 H 2433.27 -4.83314 1.42911 0
M  V30 26124 H 2432.87 -3.18355 1.96281 0
M  V30 26125 H 2435.16 -6.31775 2.44677 0
M  V30 26126 H 2436.1 -5.90157 3.91306 0
M  V30 26127 H 2436.51 -5.13229 2.35066 0
M  V30 26128 N 2435.91 -1.12676 -1.1019 0
M  V30 26129 C 2436.86 -0.792234 -2.18692 0
M  V30 26130 C 2437.85 0.222028 -1.67939 0
M  V30 26131 O 2439.06 0.0799758 -1.79822 0
M  V30 26132 H 2435.43 -0.238377 -0.713218 0
M  V30 26133 H 2437.4 -1.71568 -2.44146 0
M  V30 26134 C 2436.15 -0.26592 -3.46682 0
M  V30 26135 H 2435.47 -1.03767 -3.86099 0
M  V30 26136 H 2436.91 -0.0701873 -4.23942 0
M  V30 26137 C 2435.37 1.00669 -3.21508 0
M  V30 26138 O 2435.9 2.08402 -3.43412 0
M  V30 26139 N 2434.11 0.934644 -2.7516 0
M  V30 26140 H 2433.66 0.0578151 -2.57535 0
M  V30 26141 H 2433.61 1.78675 -2.58694 0
M  V30 26142 N 2437.39 1.28028 -0.919057 0
M  V30 26143 C 2438.8 1.47149 -0.617998 0
M  V30 26144 C 2439 1.83375 0.83521 0
M  V30 26145 O 2438.06 1.94194 1.61385 0
M  V30 26146 C 2439.37 2.57042 -1.56045 0
M  V30 26147 C 2440.92 2.70907 -1.56774 0
M  V30 26148 C 2441.39 3.83948 -2.49695 0
M  V30 26149 N 2442.89 3.9131 -2.47852 0
M  V30 26150 C 2443.62 4.78174 -3.16445 0
M  V30 26151 N 2443.12 5.69589 -3.94386 0
M  V30 26152 N 2444.91 4.71829 -3.05506 0
M  V30 26153 H 2437.06 1.02795 -1.85868 0
M  V30 26154 H 2439.32 0.512517 -0.797515 0
M  V30 26155 H 2439.03 2.37195 -2.59675 0
M  V30 26156 H 2438.9 3.54252 -1.29557 0
M  V30 26157 H 2441.29 2.9014 -0.538796 0
M  V30 26158 H 2441.37 1.74211 -1.87308 0
M  V30 26159 H 2441.02 3.65471 -3.52695 0
M  V30 26160 H 2440.95 4.80054 -2.16461 0
M  V30 26161 H 2443.44 3.25938 -1.9124 0
M  V30 26162 H 2443.75 6.3271 -4.43732 0
M  V30 26163 H 2442.09 5.69412 -3.98491 0
M  V30 26164 H 2445.29 3.99406 -2.44115 0
M  V30 26165 H 2445.46 5.39309 -3.59234 0
M  V30 26166 N 2438.86 0.683613 1.42002 0
M  V30 26167 C 2439.79 0.024907 2.33487 0
M  V30 26168 C 2440.78 -0.779948 1.51165 0
M  V30 26169 O 2441.96 -0.735331 1.7974 0
M  V30 26170 C 2439.09 -0.920777 3.34872 0
M  V30 26171 C 2438.04 -0.223883 4.27414 0
M  V30 26172 C 2437.37 -1.28311 5.19076 0
M  V30 26173 C 2438.67 0.90251 5.14443 0
M  V30 26174 H 2440.36 0.788972 2.88818 0
M  V30 26175 H 2437.91 0.380854 1.38872 0
M  V30 26176 H 2439.86 -1.39074 3.97789 0
M  V30 26177 H 2438.59 -1.71637 2.77864 0
M  V30 26178 H 2437.25 0.225928 3.65903 0
M  V30 26179 H 2436.89 -2.07092 4.58391 0
M  V30 26180 H 2436.59 -0.821893 5.81824 0
M  V30 26181 H 2438.12 -1.75382 5.8487 0
M  V30 26182 H 2439.53 0.513372 5.70997 0
M  V30 26183 H 2437.93 1.29007 5.86069 0
M  V30 26184 H 2439 1.74745 4.52319 0
M  V30 26185 N 2440.34 -1.5169 0.427538 0
M  V30 26186 C 2441.75 -1.86662 -0.0378539 0
M  V30 26187 C 2442.11 -1.34528 -1.42817 0
M  V30 26188 O 2441.23 -0.69205 -2.05036 0
M  V30 26189 C 2441.83 -3.38716 -0.0754671 0
M  V30 26190 C 2440.38 -3.73259 -0.485243 0
M  V30 26191 C 2439.53 -2.75348 0.328447 0
M  V30 26192 H 2442.48 -1.45054 0.643815 0
M  V30 26193 H 2442.5 -3.70017 -0.886991 0
M  V30 26194 H 2442.02 -3.7663 0.936554 0
M  V30 26195 H 2440.12 -3.40931 -1.50323 0
M  V30 26196 H 2440.23 -4.78609 -0.216846 0
M  V30 26197 H 2438.59 -2.53817 -0.211861 0
M  V30 26198 H 2439.38 -3.16103 1.33916 0
M  V30 26199 N 2441.82 -0.15856 -1.568 0
M  V30 26200 C 2443.07 0.488678 -1.96103 0
M  V30 26201 C 2443.39 1.64635 -1.04501 0
M  V30 26202 O 2442.66 1.95598 -0.108817 0
M  V30 26203 H 2441.24 0.183522 -0.724105 0
M  V30 26204 H 2443.9 -0.236762 -1.93457 0
M  V30 26205 H 2443 0.857167 -3.00098 0
M  V30 26206 N 2443.3 1.57178 0.115204 0
M  V30 26207 C 2444.55 1.84686 0.820694 0
M  V30 26208 C 2444.87 0.74431 1.80236 0
M  V30 26209 O 2444.14 -0.231341 1.94529 0
M  V30 26210 H 2442.72 0.681417 0.306072 0
M  V30 26211 H 2445.38 1.94635 0.101622 0
M  V30 26212 H 2444.48 2.80735 1.36361 0
M  V30 26213 N 2444.78 -0.38549 1.52813 0
M  V30 26214 C 2445.73 -1.49151 1.78484 0
M  V30 26215 C 2446.72 -1.56311 0.652942 0
M  V30 26216 O 2447.93 -1.59435 0.835492 0
M  V30 26217 H 2444.3 -0.496483 0.564808 0
M  V30 26218 H 2446.27 -1.24695 2.71097 0
M  V30 26219 C 2445.02 -2.86243 1.97383 0
M  V30 26220 H 2444.34 -2.81486 2.83912 0
M  V30 26221 H 2445.78 -3.62862 2.19334 0
M  V30 26222 C 2444.24 -3.28506 0.747338 0
M  V30 26223 O 2444.77 -4.01633 -0.0735526 0
M  V30 26224 N 2442.98 -2.84825 0.576446 0
M  V30 26225 H 2442.53 -2.25484 1.24559 0
M  V30 26226 H 2442.48 -3.13461 -0.242825 0
M  V30 26227 N 2446.26 -1.43835 -0.644143 0
M  V30 26228 C 2447.17 -1.52162 -1.78561 0
M  V30 26229 C 2448.18 -0.408099 -1.69147 0
M  V30 26230 O 2449.36 -0.663558 -1.90155 0
M  V30 26231 C 2446.42 -1.45079 -3.14886 0
M  V30 26232 C 2445.48 -2.67176 -3.36029 0
M  V30 26233 C 2444.72 -2.60421 -4.6585 0
M  V30 26234 O 2444.94 -1.65699 -5.45802 0
M  V30 26235 O 2443.87 -3.51068 -4.88912 0
M  V30 26236 H 2447.7 -2.4857 -1.7449 0
M  V30 26237 H 2445.28 -1.25937 -0.803758 0
M  V30 26238 H 2447.17 -1.43604 -3.96176 0
M  V30 26239 H 2445.84 -0.518094 -3.19527 0
M  V30 26240 H 2444.75 -2.74221 -2.54467 0
M  V30 26241 H 2446.08 -3.59448 -3.36241 0
M  V30 26242 N 2447.73 0.883355 -1.30517 0
M  V30 26243 C 2448.98 1.63003 -1.18798 0
M  V30 26244 C 2449.3 1.93919 0.255889 0
M  V30 26245 O 2450.5 2.66957 0.494607 0
M  V30 26246 C 2448.96 2.9379 -2.07883 0
M  V30 26247 C 2448.57 2.70408 -3.57188 0
M  V30 26248 C 2450.31 3.71757 -2.04931 0
M  V30 26249 C 2448.22 3.97022 -4.38324 0
M  V30 26250 H 2447.15 0.611554 -0.441042 0
M  V30 26251 H 2449.8 0.977826 -1.55277 0
M  V30 26252 H 2448.18 3.60313 -1.64289 0
M  V30 26253 H 2449.35 2.12377 -4.08941 0
M  V30 26254 H 2447.67 2.05814 -3.6198 0
M  V30 26255 H 2450.27 4.65661 -2.628 0
M  V30 26256 H 2450.61 4.03276 -1.03317 0
M  V30 26257 H 2451.14 3.121 -2.46654 0
M  V30 26258 H 2447.88 3.70661 -5.40639 0
M  V30 26259 H 2447.4 4.54552 -3.91334 0
M  V30 26260 H 2449.08 4.65028 -4.49842 0
M  V30 26261 N 2449.21 1.13259 1.09591 0
M  V30 26262 C 2450.46 0.891524 1.81373 0
M  V30 26263 C 2450.78 -0.583976 1.8605 0
M  V30 26264 O 2450.05 -1.42446 1.34484 0
M  V30 26265 H 2448.63 0.32684 0.671703 0
M  V30 26266 H 2451.29 1.4288 1.32557 0
M  V30 26267 H 2450.39 1.28076 2.8461 0
M  V30 26268 N 2450.69 -1.27539 0.925834 0
M  V30 26269 C 2451.62 -2.25215 0.367875 0
M  V30 26270 C 2452.6 -1.53557 -0.534711 0
M  V30 26271 O 2453.78 -1.824 -0.47564 0
M  V30 26272 C 2450.91 -3.35382 -0.472921 0
M  V30 26273 C 2449.96 -4.24927 0.365972 0
M  V30 26274 S 2450.79 -5.05039 1.78034 0
M  V30 26275 C 2451.95 -6.18692 0.947176 0
M  V30 26276 H 2452.18 -2.72194 1.19573 0
M  V30 26277 H 2449.71 -1.36166 0.727891 0
M  V30 26278 H 2451.67 -3.99304 -0.952171 0
M  V30 26279 H 2450.33 -2.87046 -1.27528 0
M  V30 26280 H 2449.52 -5.03236 -0.277493 0
M  V30 26281 H 2449.13 -3.6579 0.779325 0
M  V30 26282 H 2451.42 -6.77255 0.18232 0
M  V30 26283 H 2452.36 -6.87311 1.70321 0
M  V30 26284 H 2452.77 -5.62369 0.490012 0
M  V30 26285 N 2452.17 -0.691135 -1.41637 0
M  V30 26286 C 2453.41 -0.220555 -2.01597 0
M  V30 26287 C 2453.75 1.17532 -1.54596 0
M  V30 26288 O 2453.02 1.7924 -0.755209 0
M  V30 26289 C 2453.3 -0.273306 -3.59061 0
M  V30 26290 C 2453.16 -1.7058 -4.162 0
M  V30 26291 C 2454.48 0.36938 -4.38547 0
M  V30 26292 H 2451.6 -0.0816173 -0.732467 0
M  V30 26293 H 2454.24 -0.879015 -1.68444 0
M  V30 26294 H 2452.39 0.287343 -3.87436 0
M  V30 26295 H 2454.06 -2.31996 -3.98718 0
M  V30 26296 H 2452.3 -2.24136 -3.7141 0
M  V30 26297 H 2452.97 -1.69428 -5.25355 0
M  V30 26298 H 2455.45 -0.10805 -4.1596 0
M  V30 26299 H 2454.33 0.301906 -5.48069 0
M  V30 26300 H 2454.59 1.44944 -4.17665 0
M  V30 26301 N 2453.65 1.51461 -0.435577 0
M  V30 26302 C 2454.61 2.26273 0.365097 0
M  V30 26303 C 2455.61 1.29649 0.951204 0
M  V30 26304 O 2456.8 1.53375 0.825931 0
M  V30 26305 C 2453.93 3.05317 1.51639 0
M  V30 26306 H 2455.12 2.98489 -0.290526 0
M  V30 26307 H 2452.68 1.55157 -0.188703 0
M  V30 26308 H 2453.41 2.37514 2.20812 0
M  V30 26309 H 2453.2 3.76286 1.10232 0
M  V30 26310 H 2454.69 3.61991 2.08212 0
M  V30 26311 N 2455.12 0.166873 1.56714 0
M  V30 26312 C 2456.37 -0.473439 1.97813 0
M  V30 26313 C 2456.73 -1.61159 1.05098 0
M  V30 26314 O 2456.02 -1.9139 0.0897878 0
M  V30 26315 C 2456.21 -1.008 3.42891 0
M  V30 26316 C 2456.04 0.0768182 4.49634 0
M  V30 26317 C 2454.81 0.524982 5.02565 0
M  V30 26318 C 2457.01 0.875594 5.06792 0
M  V30 26319 N 2454.99 1.59057 5.92937 0
M  V30 26320 C 2456.36 1.79121 5.93562 0
M  V30 26321 C 2458.42 0.921169 4.89304 0
M  V30 26322 C 2457.12 2.74855 6.64716 0
M  V30 26323 C 2459.15 1.86642 5.61176 0
M  V30 26324 C 2458.51 2.76953 6.4767 0
M  V30 26325 H 2454.61 -0.141476 0.769096 0
M  V30 26326 H 2457.19 0.266065 1.92873 0
M  V30 26327 H 2455.36 -1.71704 3.48385 0
M  V30 26328 H 2457.09 -1.61658 3.71011 0
M  V30 26329 H 2453.85 0.123515 4.73439 0
M  V30 26330 H 2454.27 2.12372 6.42827 0
M  V30 26331 H 2458.92 0.236994 4.22135 0
M  V30 26332 H 2456.63 3.44262 7.31101 0
M  V30 26333 H 2460.22 1.90774 5.49633 0
M  V30 26334 H 2459.1 3.48905 7.02307 0
M  V30 26335 N 2456.6 -1.57237 -0.106866 0
M  V30 26336 C 2457.55 -2.01219 -1.13046 0
M  V30 26337 C 2458.52 -0.886428 -1.40469 0
M  V30 26338 O 2459.7 -1.15156 -1.52131 0
M  V30 26339 C 2456.84 -2.43176 -2.44866 0
M  V30 26340 C 2455.96 -3.69222 -2.24275 0
M  V30 26341 C 2455.09 -4.00108 -3.4941 0
M  V30 26342 C 2454.13 -5.19299 -3.24029 0
M  V30 26343 N 2453.27 -5.45995 -4.414 0
M  V30 26344 H 2458.11 -2.88449 -0.748406 0
M  V30 26345 H 2455.65 -1.42676 -0.358029 0
M  V30 26346 H 2457.6 -2.65543 -3.21781 0
M  V30 26347 H 2456.23 -1.58972 -2.80941 0
M  V30 26348 H 2455.29 -3.54401 -1.38218 0
M  V30 26349 H 2456.6 -4.56287 -2.01504 0
M  V30 26350 H 2455.75 -4.23188 -4.34738 0
M  V30 26351 H 2454.49 -3.11542 -3.75224 0
M  V30 26352 H 2453.5 -4.96051 -2.37093 0
M  V30 26353 H 2454.72 -6.09453 -2.99573 0
M  V30 26354 H 2452.67 -4.60388 -4.67311 0
M  V30 26355 H 2452.58 -6.27407 -4.21777 0
M  V30 26356 H 2453.85 -5.73603 -5.27826 0
M  V30 26357 N 2458.08 0.377381 -1.53015 0
M  V30 26358 C 2459.01 1.48368 -1.73384 0
M  V30 26359 C 2459.99 1.51831 -0.581906 0
M  V30 26360 O 2461.18 1.70062 -0.8131 0
M  V30 26361 C 2458.3 2.86787 -1.80197 0
M  V30 26362 C 2457.35 3.011 -3.02061 0
M  V30 26363 S 2458.18 2.71085 -4.61815 0
M  V30 26364 C 2459.34 4.11675 -4.7146 0
M  V30 26365 H 2459.57 1.30867 -2.66948 0
M  V30 26366 H 2457.1 0.570986 -1.43454 0
M  V30 26367 H 2459.06 3.66546 -1.84808 0
M  V30 26368 H 2457.72 3.01606 -0.877061 0
M  V30 26369 H 2456.92 4.02446 -3.03403 0
M  V30 26370 H 2456.52 2.29248 -2.95502 0
M  V30 26371 H 2458.81 5.05762 -4.50789 0
M  V30 26372 H 2459.75 4.15343 -5.73494 0
M  V30 26373 H 2460.16 3.98125 -4.00196 0
M  V30 26374 N 2459.56 1.44175 0.636506 0
M  V30 26375 C 2460.79 1.50147 1.4235 0
M  V30 26376 C 2461.2 0.124608 1.88388 0
M  V30 26377 O 2460.56 -0.868461 1.60512 0
M  V30 26378 C 2460.61 2.46161 2.6474 0
M  V30 26379 O 2460.33 3.78494 2.20622 0
M  V30 26380 C 2461.83 2.61543 3.57925 0
M  V30 26381 H 2459.05 0.509408 0.436743 0
M  V30 26382 H 2461.6 1.89086 0.7789 0
M  V30 26383 H 2459.75 2.10372 3.25303 0
M  V30 26384 H 2460.16 4.30281 2.99931 0
M  V30 26385 H 2461.64 3.32764 4.40422 0
M  V30 26386 H 2462.12 1.66592 4.06379 0
M  V30 26387 H 2462.72 2.98211 3.03233 0
M  V30 26388 N 2461.04 -0.876421 1.30983 0
M  V30 26389 C 2462.28 -1.62894 1.20298 0
M  V30 26390 C 2462.61 -1.93009 -0.240361 0
M  V30 26391 O 2461.87 -1.55569 -1.1873 0
M  V30 26392 C 2462.17 -2.97156 1.98577 0
M  V30 26393 C 2461.83 -2.86559 3.4813 0
M  V30 26394 C 2460.49 -2.83377 3.8891 0
M  V30 26395 C 2462.85 -2.74063 4.43327 0
M  V30 26396 C 2460.17 -2.65547 5.23165 0
M  V30 26397 C 2462.53 -2.57771 5.777 0
M  V30 26398 C 2461.19 -2.52968 6.17708 0
M  V30 26399 H 2460.46 -0.596072 0.440203 0
M  V30 26400 H 2463.11 -1.01834 1.62179 0
M  V30 26401 H 2461.41 -3.62215 1.49358 0
M  V30 26402 H 2463.11 -3.5436 1.87696 0
M  V30 26403 H 2459.7 -2.89851 3.15729 0
M  V30 26404 H 2463.88 -2.75582 4.12757 0
M  V30 26405 H 2459.14 -2.60249 5.53245 0
M  V30 26406 H 2463.31 -2.47077 6.51096 0
M  V30 26407 H 2460.94 -2.38911 7.21682 0
M  V30 26408 N 2462.51 -1.13839 -1.08989 0
M  V30 26409 C 2463.46 -0.819873 -2.15747 0
M  V30 26410 C 2464.43 0.219997 -1.64637 0
M  V30 26411 O 2465.62 0.0912422 -1.90582 0
M  V30 26412 C 2462.76 -0.296973 -3.4382 0
M  V30 26413 C 2461.87 -1.39644 -4.08808 0
M  V30 26414 C 2461 -0.831406 -5.24653 0
M  V30 26415 C 2460.04 -1.90896 -5.81571 0
M  V30 26416 N 2459.18 -1.36154 -6.88772 0
M  V30 26417 H 2464.02 -1.7343 -2.42335 0
M  V30 26418 H 2461.56 -0.865634 -1.18934 0
M  V30 26419 H 2463.52 0.0243606 -4.17193 0
M  V30 26420 H 2462.15 0.580572 -3.17536 0
M  V30 26421 H 2461.2 -1.83428 -3.33254 0
M  V30 26422 H 2462.51 -2.21066 -4.47137 0
M  V30 26423 H 2461.66 -0.461622 -6.04941 0
M  V30 26424 H 2460.4 0.0138463 -4.87698 0
M  V30 26425 H 2459.41 -2.28776 -4.99942 0
M  V30 26426 H 2460.63 -2.75769 -6.20587 0
M  V30 26427 H 2458.58 -0.538369 -6.53787 0
M  V30 26428 H 2458.5 -2.1122 -7.25894 0
M  V30 26429 H 2459.76 -1.01947 -7.72805 0
M  V30 26430 N 2463.99 1.27046 -0.932584 0
M  V30 26431 C 2465.22 1.98786 -0.591509 0
M  V30 26432 C 2465.64 1.69063 0.824571 0
M  V30 26433 O 2465 0.933704 1.55408 0
M  V30 26434 C 2465.05 3.50921 -0.82987 0
M  V30 26435 O 2464.15 4.12273 0.102194 0
M  V30 26436 H 2463.49 0.623922 -0.227196 0
M  V30 26437 H 2466.02 1.61731 -1.25317 0
M  V30 26438 H 2466.03 4.01097 -0.747362 0
M  V30 26439 H 2464.71 3.71886 -1.86208 0
M  V30 26440 H 2463.29 3.72887 -0.0306417 0
M  V30 26441 N 2465.47 0.698636 1.41269 0
M  V30 26442 C 2466.88 0.305321 1.84187 0
M  V30 26443 C 2467.23 -1.15705 1.58451 0
M  V30 26444 O 2466.36 -1.88855 1.05655 0
M  V30 26445 C 2466.95 0.547373 3.34349 0
M  V30 26446 C 2465.51 0.207944 3.75825 0
M  V30 26447 C 2464.66 0.828145 2.64645 0
M  V30 26448 H 2467.61 0.899063 1.30777 0
M  V30 26449 H 2467.63 -0.192931 3.80011 0
M  V30 26450 H 2467.14 1.61178 3.53048 0
M  V30 26451 H 2465.24 -0.852079 3.62726 0
M  V30 26452 H 2465.36 0.665105 4.74461 0
M  V30 26453 H 2463.72 0.257503 2.53395 0
M  V30 26454 H 2464.5 1.89648 2.86161 0
M  V30 26455 N 2466.95 -1.51228 0.443603 0
M  V30 26456 C 2467.86 -2.31653 -0.37068 0
M  V30 26457 C 2468.87 -1.40835 -1.02183 0
M  V30 26458 O 2470.05 -1.73905 -1.01583 0
M  V30 26459 C 2467.12 -3.14751 -1.4537 0
M  V30 26460 C 2466.18 -4.21356 -0.822025 0
M  V30 26461 C 2465.41 -5.00483 -1.85344 0
M  V30 26462 O 2465.63 -4.80322 -3.07648 0
M  V30 26463 O 2464.57 -5.84409 -1.44049 0
M  V30 26464 H 2468.39 -3.0235 0.286055 0
M  V30 26465 H 2465.98 -1.47973 0.206006 0
M  V30 26466 H 2467.86 -3.66394 -2.08166 0
M  V30 26467 H 2466.53 -2.46812 -2.09441 0
M  V30 26468 H 2465.44 -3.73775 -0.155843 0
M  V30 26469 H 2466.77 -4.91687 -0.22471 0
M  V30 26470 N 2468.43 -0.175182 -1.56623 0
M  V30 26471 C 2469.66 0.474247 -2.01083 0
M  V30 26472 C 2470.06 1.57089 -1.05449 0
M  V30 26473 O 2469.41 1.83637 -0.0480918 0
M  V30 26474 C 2469.47 1.10905 -3.41965 0
M  V30 26475 C 2469.13 0.153586 -4.56742 0
M  V30 26476 C 2470.13 -0.629538 -5.16074 0
M  V30 26477 C 2467.82 0.0482894 -5.02277 0
M  V30 26478 C 2469.81 -1.50512 -6.19375 0
M  V30 26479 C 2467.5 -0.830875 -6.05425 0
M  V30 26480 C 2468.49 -1.60616 -6.63846 0
M  V30 26481 O 2468.18 -2.47063 -7.64994 0
M  V30 26482 H 2467.91 0.12542 -0.664263 0
M  V30 26483 H 2470.47 -0.275199 -2.03548 0
M  V30 26484 H 2468.7 1.9067 -3.36425 0
M  V30 26485 H 2470.39 1.66108 -3.70355 0
M  V30 26486 H 2471.15 -0.558382 -4.81775 0
M  V30 26487 H 2467.03 0.641531 -4.56514 0
M  V30 26488 H 2470.58 -2.11072 -6.64902 0
M  V30 26489 H 2466.47 -0.903219 -6.3915 0
M  V30 26490 H 2467.24 -2.40621 -7.82332 0
M  V30 26491 N 2469.91 1.57292 0.0985263 0
M  V30 26492 C 2471.32 1.74892 0.653426 0
M  V30 26493 C 2471.67 0.79687 1.79289 0
M  V30 26494 O 2470.79 -0.0254505 2.16385 0
M  V30 26495 C 2471.39 3.17135 1.1921 0
M  V30 26496 C 2469.95 3.36171 1.6931 0
M  V30 26497 C 2469.09 2.70703 0.601246 0
M  V30 26498 H 2472.04 1.58187 -0.127525 0
M  V30 26499 H 2472.07 3.19817 2.06149 0
M  V30 26500 H 2471.58 3.86403 0.362567 0
M  V30 26501 H 2469.68 2.71977 2.54675 0
M  V30 26502 H 2469.79 4.44467 1.78845 0
M  V30 26503 H 2468.16 2.32506 1.03986 0
M  V30 26504 H 2468.94 3.42609 -0.217652 0
M  V30 26505 N 2471.38 -0.369261 1.53213 0
M  V30 26506 C 2472.29 -1.47606 1.82345 0
M  V30 26507 C 2473.31 -1.58785 0.71156 0
M  V30 26508 O 2474.49 -1.74749 1.00123 0
M  V30 26509 C 2471.55 -2.82916 2.00398 0
M  V30 26510 C 2470.61 -2.81295 3.24302 0
M  V30 26511 C 2469.84 -4.10151 3.41485 0
M  V30 26512 O 2470.07 -5.06127 2.63042 0
M  V30 26513 O 2469 -4.16187 4.34824 0
M  V30 26514 H 2472.83 -1.25913 2.76368 0
M  V30 26515 H 2470.41 -0.559009 1.38548 0
M  V30 26516 H 2472.29 -3.63097 2.13866 0
M  V30 26517 H 2470.97 -3.04594 1.09564 0
M  V30 26518 H 2469.88 -1.99825 3.1626 0
M  V30 26519 H 2471.21 -2.64571 4.15046 0
M  V30 26520 N 2472.86 -1.4451 -0.628851 0
M  V30 26521 C 2474.11 -1.47122 -1.38562 0
M  V30 26522 C 2474.43 -0.105933 -1.94712 0
M  V30 26523 O 2473.7 0.862048 -1.75913 0
M  V30 26524 H 2472.28 -0.541738 -0.514324 0
M  V30 26525 H 2474.94 -1.80306 -0.739986 0
M  V30 26526 H 2474.04 -2.19793 -2.21579 0
M  V30 26527 N 2474.34 0.869463 -1.31446 0
M  V30 26528 C 2475.76 1.15529 -1.10115 0
M  V30 26529 C 2475.96 2.01093 0.128052 0
M  V30 26530 O 2475.01 2.38909 0.817234 0
M  V30 26531 C 2476.32 1.84694 -2.37294 0
M  V30 26532 C 2477.87 1.97393 -2.42909 0
M  V30 26533 C 2478.35 2.69972 -3.69972 0
M  V30 26534 N 2479.84 2.77508 -3.70869 0
M  V30 26535 C 2480.57 3.34279 -4.65881 0
M  V30 26536 N 2480.07 3.91978 -5.71249 0
M  V30 26537 N 2481.86 3.32242 -4.534 0
M  V30 26538 H 2474.01 0.29931 -2.10281 0
M  V30 26539 H 2476.28 0.195198 -0.927686 0
M  V30 26540 H 2475.98 1.29272 -3.2708 0
M  V30 26541 H 2475.86 2.84968 -2.4713 0
M  V30 26542 H 2478.24 2.51979 -1.53592 0
M  V30 26543 H 2478.32 0.961601 -2.37038 0
M  V30 26544 H 2477.97 2.16054 -4.59656 0
M  V30 26545 H 2477.9 3.71613 -3.7311 0
M  V30 26546 H 2480.39 2.36558 -2.94701 0
M  V30 26547 H 2480.7 4.3341 -6.39825 0
M  V30 26548 H 2479.05 3.90352 -5.75022 0
M  V30 26549 H 2482.24 2.86404 -3.70257 0
M  V30 26550 H 2482.41 3.76188 -5.27623 0
M  V30 26551 N 2475.82 1.14415 1.08383 0
M  V30 26552 C 2477.09 0.823328 1.77428 0
M  V30 26553 C 2477.47 -0.683128 1.99741 0
M  V30 26554 O 2476.82 -1.62402 1.60742 0
M  V30 26555 C 2477.03 1.62232 3.09001 0
M  V30 26556 C 2478.38 1.82184 3.83529 0
M  V30 26557 O 2479.4 1.5892 3.18783 0
M  V30 26558 O 2478.26 2.21075 4.99788 0
M  V30 26559 H 2475.36 0.301725 0.769994 0
M  V30 26560 H 2477.9 1.24936 1.14844 0
M  V30 26561 H 2476.68 2.6456 2.88312 0
M  V30 26562 H 2476.3 1.19193 3.79313 0
M  V30 26563 N 2477.3 -1.26549 0.939309 0
M  V30 26564 C 2478.54 -1.93132 0.581635 0
M  V30 26565 C 2478.86 -1.74525 -0.883193 0
M  V30 26566 O 2480.06 -2.35548 -1.35016 0
M  V30 26567 C 2478.52 -3.46031 0.989486 0
M  V30 26568 C 2478.13 -3.73374 2.4758 0
M  V30 26569 C 2479.87 -4.18628 0.703617 0
M  V30 26570 C 2477.78 -5.19704 2.82245 0
M  V30 26571 H 2476.71 -0.723048 0.213816 0
M  V30 26572 H 2479.36 -1.43658 1.14169 0
M  V30 26573 H 2477.74 -3.94379 0.357972 0
M  V30 26574 H 2478.92 -3.35739 3.1562 0
M  V30 26575 H 2477.23 -3.14005 2.73477 0
M  V30 26576 H 2479.83 -5.26391 0.938961 0
M  V30 26577 H 2480.17 -4.14744 -0.359566 0
M  V30 26578 H 2480.7 -3.76139 1.29476 0
M  V30 26579 H 2477.44 -5.28687 3.87518 0
M  V30 26580 H 2476.96 -5.58443 2.18864 0
M  V30 26581 H 2478.64 -5.8769 2.70609 0
M  V30 26582 N 2478.77 -0.706118 -1.40896 0
M  V30 26583 C 2480.02 -0.238609 -2.00284 0
M  V30 26584 C 2480.34 1.17191 -1.56606 0
M  V30 26585 O 2481.54 1.73744 -2.08627 0
M  V30 26586 C 2480 -0.375686 -3.57934 0
M  V30 26587 C 2479.61 -1.79225 -4.10588 0
M  V30 26588 C 2481.35 0.0315111 -4.24488 0
M  V30 26589 C 2479.26 -1.88041 -5.60709 0
M  V30 26590 H 2478.19 -0.0854529 -0.749142 0
M  V30 26591 H 2480.84 -0.875841 -1.61249 0
M  V30 26592 H 2479.22 0.329973 -3.94623 0
M  V30 26593 H 2480.39 -2.52752 -3.85296 0
M  V30 26594 H 2478.71 -2.15006 -3.56597 0
M  V30 26595 H 2481.31 -0.0137782 -5.34698 0
M  V30 26596 H 2481.65 1.07193 -4.02263 0
M  V30 26597 H 2482.18 -0.62425 -3.92871 0
M  V30 26598 H 2478.92 -2.90172 -5.87776 0
M  V30 26599 H 2478.44 -1.18913 -5.87894 0
M  V30 26600 H 2480.12 -1.64816 -6.25656 0
M  V30 26601 N 2480.25 1.50991 -0.451617 0
M  V30 26602 C 2481.5 2.025 0.110202 0
M  V30 26603 C 2481.83 1.33426 1.41107 0
M  V30 26604 O 2481.11 0.453692 1.89135 0
M  V30 26605 C 2481.39 3.58727 0.314208 0
M  V30 26606 C 2481.24 4.38399 -1.00631 0
M  V30 26607 C 2482.56 4.26704 1.07759 0
M  V30 26608 H 2479.68 0.73599 0.0385767 0
M  V30 26609 H 2482.32 1.80496 -0.593406 0
M  V30 26610 H 2480.47 3.77607 0.913535 0
M  V30 26611 H 2482.14 4.31136 -1.64072 0
M  V30 26612 H 2480.39 4.02914 -1.60757 0
M  V30 26613 H 2481.06 5.45914 -0.817437 0
M  V30 26614 H 2483.53 4.1218 0.569788 0
M  V30 26615 H 2482.41 5.35865 1.18911 0
M  V30 26616 H 2482.67 3.88536 2.10932 0
M  V30 26617 N 2481.73 0.183486 1.56528 0
M  V30 26618 C 2482.98 -0.458477 1.9642 0
M  V30 26619 C 2483.29 -1.6356 1.07273 0
M  V30 26620 O 2484.5 -2.3446 1.36897 0
M  V30 26621 C 2482.95 -0.86706 3.49299 0
M  V30 26622 C 2482.56 0.285136 4.47092 0
M  V30 26623 C 2484.31 -1.47676 3.97985 0
M  V30 26624 C 2482.21 -0.143758 5.91225 0
M  V30 26625 H 2481.14 -0.175058 0.733397 0
M  V30 26626 H 2483.79 0.273656 1.81448 0
M  V30 26627 H 2482.18 -1.65552 3.59734 0
M  V30 26628 H 2483.35 1.06258 4.48381 0
M  V30 26629 H 2481.66 0.805575 4.08533 0
M  V30 26630 H 2484.26 -1.8099 5.03137 0
M  V30 26631 H 2484.6 -2.37908 3.41622 0
M  V30 26632 H 2485.14 -0.752494 3.90618 0
M  V30 26633 H 2481.88 0.724089 6.51488 0
M  V30 26634 H 2481.4 -0.886309 5.93215 0
M  V30 26635 H 2483.08 -0.583515 6.44363 0
M  V30 26636 N 2483.21 -1.57342 -0.0901833 0
M  V30 26637 C 2484.46 -1.85969 -0.791209 0
M  V30 26638 C 2484.78 -0.77289 -1.79029 0
M  V30 26639 O 2484.05 0.200364 -1.94873 0
M  V30 26640 H 2482.63 -0.6862 -0.295193 0
M  V30 26641 H 2485.29 -1.94772 -0.070644 0
M  V30 26642 H 2484.38 -2.82869 -1.31877 0
M  V30 26643 N 2484.69 0.36113 -1.53407 0
M  V30 26644 C 2485.63 1.46293 -1.80834 0
M  V30 26645 C 2486.63 1.55252 -0.677727 0
M  V30 26646 O 2487.83 1.58086 -0.860751 0
M  V30 26647 H 2484.21 0.487435 -0.572635 0
M  V30 26648 H 2486.18 1.20366 -2.73047 0
M  V30 26649 C 2484.93 2.83067 -2.01912 0
M  V30 26650 H 2484.25 2.76933 -2.88354 0
M  V30 26651 H 2485.69 3.59327 -2.25079 0
M  V30 26652 C 2484.15 3.27276 -0.799506 0
M  V30 26653 O 2484.68 4.01699 0.00964701 0
M  V30 26654 N 2482.89 2.83872 -0.621687 0
M  V30 26655 H 2482.43 2.23474 -1.2813 0
M  V30 26656 H 2482.39 3.13808 0.192925 0
M  V30 26657 N 2486.16 1.44842 0.621179 0
M  V30 26658 C 2487.44 1.38622 1.37998 0
M  V30 26659 C 2487.82 0.0499306 2.11041 0
M  V30 26660 O 2487.17 -0.96778 2.06993 0
M  V30 26661 C 2487.38 2.591 2.33813 0
M  V30 26662 C 2488.73 3.03598 2.96839 0
M  V30 26663 O 2489.75 2.59376 2.44137 0
M  V30 26664 O 2488.61 3.80302 3.92469 0
M  V30 26665 H 2485.7 0.549437 0.618101 0
M  V30 26666 H 2488.25 1.56948 0.645402 0
M  V30 26667 H 2487.02 3.47955 1.79006 0
M  V30 26668 H 2486.65 2.43038 3.14672 0
M  V30 26669 N 2487.64 -0.862479 1.31905 0
M  V30 26670 C 2488.89 -1.61092 1.21376 0
M  V30 26671 C 2489.2 -1.94302 -0.225006 0
M  V30 26672 O 2490.41 -2.6771 -0.452074 0
M  V30 26673 C 2488.87 -2.90446 2.1253 0
M  V30 26674 C 2488.47 -2.64691 3.61445 0
M  V30 26675 C 2490.22 -3.6845 2.10819 0
M  V30 26676 C 2488.13 -3.89998 4.44585 0
M  V30 26677 H 2487.06 -0.60446 0.450715 0
M  V30 26678 H 2489.71 -0.953 1.56813 0
M  V30 26679 H 2488.09 -3.57653 1.7 0
M  V30 26680 H 2489.26 -2.05844 4.12268 0
M  V30 26681 H 2487.58 -2.00029 3.65209 0
M  V30 26682 H 2490.17 -4.61421 2.70175 0
M  V30 26683 H 2490.52 -4.01581 1.0972 0
M  V30 26684 H 2491.05 -3.08137 2.51588 0
M  V30 26685 H 2487.79 -3.62013 5.46467 0
M  V30 26686 H 2487.31 -4.48269 3.98516 0
M  V30 26687 H 2488.99 -4.57812 4.57184 0
M  V30 26688 N 2489.12 -1.14988 -1.07775 0
M  V30 26689 C 2490.35 -0.945805 -1.84017 0
M  V30 26690 C 2490.76 0.505831 -1.81898 0
M  V30 26691 O 2490.12 1.3507 -1.22729 0
M  V30 26692 C 2490.17 -1.44683 -3.31284 0
M  V30 26693 O 2489.89 -2.8416 -3.33444 0
M  V30 26694 C 2491.39 -1.28362 -4.24309 0
M  V30 26695 H 2488.61 -0.336179 -0.580711 0
M  V30 26696 H 2491.16 -1.52657 -1.36074 0
M  V30 26697 H 2489.31 -0.908691 -3.76592 0
M  V30 26698 H 2489.73 -3.06785 -4.25422 0
M  V30 26699 H 2491.2 -1.6827 -5.25727 0
M  V30 26700 H 2491.68 -0.227261 -4.38612 0
M  V30 26701 H 2492.28 -1.81063 -3.84833 0
M  V30 26702 N 2490.6 1.26049 -0.946007 0
M  V30 26703 C 2491.83 1.97322 -0.61217 0
M  V30 26704 C 2492.24 1.70596 0.818141 0
M  V30 26705 O 2491.58 0.97364 1.55775 0
M  V30 26706 C 2491.64 3.50927 -0.780408 0
M  V30 26707 C 2491.31 4.01313 -2.18626 0
M  V30 26708 C 2492.3 4.12678 -3.16217 0
M  V30 26709 C 2489.99 4.35199 -2.50813 0
M  V30 26710 C 2491.98 4.57231 -4.44093 0
M  V30 26711 C 2489.67 4.79439 -3.78921 0
M  V30 26712 C 2490.67 4.90417 -4.75374 0
M  V30 26713 O 2490.35 5.3368 -6.012 0
M  V30 26714 H 2490.09 0.635978 -0.229145 0
M  V30 26715 H 2492.64 1.61401 -1.27039 0
M  V30 26716 H 2490.87 3.86645 -0.0650544 0
M  V30 26717 H 2492.56 4.0341 -0.448913 0
M  V30 26718 H 2493.33 3.86738 -2.92674 0
M  V30 26719 H 2489.2 4.25886 -1.7647 0
M  V30 26720 H 2492.75 4.65714 -5.19381 0
M  V30 26721 H 2488.65 5.04823 -4.02274 0
M  V30 26722 H 2489.41 5.51888 -6.04452 0
M  V30 26723 N 2492.08 0.71358 1.4052 0
M  V30 26724 C 2493.49 0.386934 1.54839 0
M  V30 26725 C 2493.69 -1.10447 1.68534 0
M  V30 26726 O 2492.75 -1.8905 1.67381 0
M  V30 26727 C 2494.06 1.15123 2.7779 0
M  V30 26728 C 2495.61 1.13734 2.91605 0
M  V30 26729 C 2496.08 1.88376 4.17467 0
M  V30 26730 N 2497.58 1.85434 4.24462 0
M  V30 26731 C 2498.31 2.40013 5.20751 0
M  V30 26732 N 2497.81 3.0314 6.22959 0
M  V30 26733 N 2499.6 2.30167 5.12815 0
M  V30 26734 H 2491.75 1.68065 1.29876 0
M  V30 26735 H 2494.01 0.710258 0.627883 0
M  V30 26736 H 2493.72 2.20566 2.73941 0
M  V30 26737 H 2493.59 0.741542 3.69839 0
M  V30 26738 H 2495.98 0.0911127 2.94959 0
M  V30 26739 H 2496.06 1.58624 2.00679 0
M  V30 26740 H 2495.71 2.92987 4.14874 0
M  V30 26741 H 2495.64 1.40907 5.07398 0
M  V30 26742 H 2498.13 1.39427 3.51239 0
M  V30 26743 H 2498.44 3.42307 6.92853 0
M  V30 26744 H 2496.78 3.07223 6.23409 0
M  V30 26745 H 2499.98 1.80509 4.31896 0
M  V30 26746 H 2500.15 2.73003 5.87685 0
M  V30 26747 N 2493.55 -1.50749 0.459618 0
M  V30 26748 C 2494.8 -2.01447 -0.100936 0
M  V30 26749 C 2495.12 -1.34715 -1.41814 0
M  V30 26750 O 2496.32 -1.76506 -2.06296 0
M  V30 26751 C 2494.78 -3.59162 -0.230407 0
M  V30 26752 C 2494.39 -4.34845 1.07768 0
M  V30 26753 C 2496.13 -4.17938 -0.743535 0
M  V30 26754 C 2494.04 -5.84316 0.912632 0
M  V30 26755 H 2492.97 -0.752857 -0.041497 0
M  V30 26756 H 2495.62 -1.73662 0.592772 0
M  V30 26757 H 2494 -3.83486 -0.987635 0
M  V30 26758 H 2495.17 -4.22253 1.84497 0
M  V30 26759 H 2493.49 -3.87625 1.52104 0
M  V30 26760 H 2496.09 -5.27344 -0.883866 0
M  V30 26761 H 2496.43 -3.78565 -1.73189 0
M  V30 26762 H 2496.96 -3.97776 -0.04401 0
M  V30 26763 H 2493.7 -6.28141 1.87402 0
M  V30 26764 H 2493.22 -5.99513 0.185527 0
M  V30 26765 H 2494.9 -6.44443 0.57466 0
M  V30 26766 N 2495.03 -0.191784 -1.56429 0
M  V30 26767 C 2496.28 0.446971 -1.97095 0
M  V30 26768 C 2496.6 1.62381 -1.0797 0
M  V30 26769 O 2495.87 1.95323 -0.150282 0
M  V30 26770 H 2494.45 0.168122 -0.727835 0
M  V30 26771 H 2497.11 -0.277744 -1.92911 0
M  V30 26772 H 2496.21 0.793318 -3.01849 0
M  V30 26773 N 2496.51 1.57387 0.0818378 0
M  V30 26774 C 2497.74 1.91354 0.799912 0
M  V30 26775 C 2498.16 0.787288 1.70831 0
M  V30 26776 O 2497.52 -0.260448 1.7942 0
M  V30 26777 C 2497.57 3.24237 1.57806 0
M  V30 26778 O 2496.67 3.12762 2.68801 0
M  V30 26779 H 2496.01 0.626881 0.218899 0
M  V30 26780 H 2498.54 2.04531 0.0530896 0
M  V30 26781 H 2498.55 3.57868 1.95946 0
M  V30 26782 H 2497.23 4.05789 0.911476 0
M  V30 26783 H 2495.8 2.9067 2.33592 0
M  V30 26784 N 2497.99 -0.35299 1.53596 0
M  V30 26785 C 2499.24 -1.09428 1.70387 0
M  V30 26786 C 2499.56 -1.8893 0.462146 0
M  V30 26787 O 2498.82 -1.87634 -0.556041 0
M  V30 26788 C 2499.12 -2.07049 2.91317 0
M  V30 26789 C 2498.78 -1.43931 4.27311 0
M  V30 26790 C 2497.45 -1.26446 4.6429 0
M  V30 26791 C 2499.8 -0.983793 5.11831 0
M  V30 26792 C 2497.13 -0.620123 5.83414 0
M  V30 26793 C 2499.48 -0.353405 6.31612 0
M  V30 26794 C 2498.14 -0.166154 6.67293 0
M  V30 26795 H 2497.41 -0.400425 0.623491 0
M  V30 26796 H 2500.06 -0.374622 1.878 0
M  V30 26797 H 2498.36 -2.85363 2.68468 0
M  V30 26798 H 2500.06 -2.64381 3.01502 0
M  V30 26799 H 2496.65 -1.58536 3.98201 0
M  V30 26800 H 2500.83 -1.10677 4.83802 0
M  V30 26801 H 2496.09 -0.463574 6.0964 0
M  V30 26802 H 2500.26 0.00769796 6.964 0
M  V30 26803 H 2497.89 0.335181 7.59461 0
M  V30 26804 N 2499.47 -1.45169 -0.613489 0
M  V30 26805 C 2500.72 -1.48583 -1.36994 0
M  V30 26806 C 2501.04 -0.126579 -1.94589 0
M  V30 26807 O 2500.31 0.843341 -1.76818 0
M  V30 26808 H 2498.89 -0.547163 -0.508549 0
M  V30 26809 H 2501.55 -1.81081 -0.720821 0
M  V30 26810 H 2500.64 -2.22131 -2.19236 0
M  V30 26811 N 2500.95 0.855472 -1.32361 0
M  V30 26812 C 2502.36 1.42553 -1.20563 0
M  V30 26813 C 2502.71 1.95352 0.182175 0
M  V30 26814 O 2501.83 1.87474 1.08085 0
M  V30 26815 C 2502.43 2.59125 -2.18265 0
M  V30 26816 C 2500.99 3.12133 -2.10356 0
M  V30 26817 C 2500.13 1.84878 -2.06677 0
M  V30 26818 H 2503.08 0.662702 -1.44201 0
M  V30 26819 H 2503.11 3.36261 -1.7807 0
M  V30 26820 H 2502.62 2.20667 -3.19261 0
M  V30 26821 H 2500.72 3.55177 -1.12605 0
M  V30 26822 H 2500.83 3.73433 -3.00141 0
M  V30 26823 H 2499.2 2.04444 -1.51904 0
M  V30 26824 H 2499.98 1.48638 -3.09454 0
M  V30 26825 N 2502.42 1.15558 1.07164 0
M  V30 26826 C 2503.36 0.811853 2.1434 0
M  V30 26827 C 2504.37 -0.176986 1.61835 0
M  V30 26828 O 2505.56 0.0465309 1.78439 0
M  V30 26829 C 2502.66 0.18654 3.38386 0
M  V30 26830 C 2501.83 1.21328 4.20236 0
M  V30 26831 C 2500.89 0.609394 5.22659 0
M  V30 26832 O 2499.92 1.27586 5.54717 0
M  V30 26833 N 2501.12 -0.607997 5.77307 0
M  V30 26834 H 2503.88 1.73421 2.44428 0
M  V30 26835 H 2501.44 1.05172 1.23087 0
M  V30 26836 H 2503.44 -0.230268 4.04044 0
M  V30 26837 H 2502.01 -0.639195 3.05995 0
M  V30 26838 H 2501.23 1.80658 3.50366 0
M  V30 26839 H 2502.51 1.90646 4.71732 0
M  V30 26840 H 2501.91 -1.1678 5.53515 0
M  V30 26841 H 2500.47 -0.967137 6.44585 0
M  V30 26842 N 2503.9 -1.25546 0.952678 0
M  V30 26843 C 2504.81 -2.29682 0.47786 0
M  V30 26844 C 2505.83 -1.67977 -0.453829 0
M  V30 26845 O 2507 -1.98669 -0.330552 0
M  V30 26846 C 2504.07 -3.45878 -0.238594 0
M  V30 26847 C 2503.13 -4.23029 0.731068 0
M  V30 26848 C 2502.36 -5.33678 0.0487103 0
M  V30 26849 O 2502.59 -5.58355 -1.16602 0
M  V30 26850 O 2501.52 -5.97417 0.733257 0
M  V30 26851 H 2505.35 -2.72383 1.34317 0
M  V30 26852 H 2502.93 -1.30958 0.719049 0
M  V30 26853 H 2504.81 -4.16485 -0.6417 0
M  V30 26854 H 2503.49 -3.05183 -1.07911 0
M  V30 26855 H 2502.39 -3.54858 1.18434 0
M  V30 26856 H 2503.73 -4.67503 1.53954 0
M  V30 26857 N 2505.38 -0.721022 -1.40139 0
M  V30 26858 C 2506.66 -0.189792 -1.94677 0
M  V30 26859 C 2507.04 1.30563 -1.65881 0
M  V30 26860 O 2506.38 2.06445 -0.979427 0
M  V30 26861 C 2506.59 -0.508365 -3.45278 0
M  V30 26862 C 2507.94 -0.450008 -4.22209 0
M  V30 26863 O 2508.97 -0.444739 -3.53413 0
M  V30 26864 O 2507.83 -0.432285 -5.44788 0
M  V30 26865 H 2504.92 -0.0299171 -0.826459 0
M  V30 26866 H 2507.47 -0.798927 -1.49717 0
M  V30 26867 H 2506.24 -1.54245 -3.59616 0
M  V30 26868 H 2505.86 0.130456 -3.97386 0
M  V30 26869 N 2506.86 1.50503 -0.467606 0
M  V30 26870 C 2507.79 2.3132 0.318341 0
M  V30 26871 C 2508.77 1.38068 0.99354 0
M  V30 26872 O 2509.95 1.66989 0.991381 0
M  V30 26873 C 2507.08 3.17713 1.40269 0
M  V30 26874 C 2506.04 4.19489 0.849299 0
M  V30 26875 C 2505.36 4.94598 2.03168 0
M  V30 26876 C 2506.66 5.2212 -0.137034 0
M  V30 26877 H 2508.36 2.97274 -0.356158 0
M  V30 26878 H 2505.9 1.4296 -0.172728 0
M  V30 26879 H 2507.86 3.73045 1.95998 0
M  V30 26880 H 2506.58 2.49637 2.10591 0
M  V30 26881 H 2505.24 3.65253 0.314012 0
M  V30 26882 H 2504.89 4.22998 2.7218 0
M  V30 26883 H 2504.59 5.63439 1.66764 0
M  V30 26884 H 2506.11 5.52763 2.59394 0
M  V30 26885 H 2507.53 5.72344 0.330956 0
M  V30 26886 H 2505.92 5.98662 -0.415175 0
M  V30 26887 H 2506.99 4.73081 -1.06406 0
M  V30 26888 N 2508.34 0.200077 1.56325 0
M  V30 26889 C 2509.27 -0.713877 2.2232 0
M  V30 26890 C 2510.25 -1.2175 1.1879 0
M  V30 26891 O 2511.43 -1.26543 1.47311 0
M  V30 26892 C 2508.56 -1.93139 2.88643 0
M  V30 26893 C 2507.52 -1.56248 3.9846 0
M  V30 26894 C 2506.84 -2.85701 4.51972 0
M  V30 26895 C 2508.14 -0.768656 5.16613 0
M  V30 26896 H 2509.84 -0.163702 2.98952 0
M  V30 26897 H 2507.38 -0.0772966 1.43792 0
M  V30 26898 H 2509.33 -2.57602 3.33495 0
M  V30 26899 H 2508.06 -2.50618 2.09424 0
M  V30 26900 H 2506.72 -0.941409 3.54306 0
M  V30 26901 H 2506.37 -3.4128 3.69509 0
M  V30 26902 H 2506.07 -2.61761 5.26075 0
M  V30 26903 H 2507.59 -3.51145 4.99529 0
M  V30 26904 H 2509 -1.3165 5.57979 0
M  V30 26905 H 2507.4 -0.627181 5.96814 0
M  V30 26906 H 2508.47 0.229253 4.84358 0
M  V30 26907 N 2509.81 -1.57429 -0.0734901 0
M  V30 26908 C 2511.06 -1.87167 -0.772966 0
M  V30 26909 C 2511.39 -0.791582 -1.77663 0
M  V30 26910 O 2510.64 0.212602 -1.94542 0
M  V30 26911 C 2510.94 -3.23564 -1.51793 0
M  V30 26912 C 2510.61 -4.46126 -0.654406 0
M  V30 26913 C 2509.27 -4.79395 -0.416427 0
M  V30 26914 C 2511.62 -5.2117 -0.0554946 0
M  V30 26915 C 2508.95 -5.85122 0.429972 0
M  V30 26916 C 2511.3 -6.27793 0.778349 0
M  V30 26917 C 2509.97 -6.59564 1.02622 0
M  V30 26918 H 2509.24 -0.684893 -0.282848 0
M  V30 26919 H 2511.88 -1.9147 -0.0337935 0
M  V30 26920 H 2510.19 -3.15044 -2.32926 0
M  V30 26921 H 2511.89 -3.43808 -2.06391 0
M  V30 26922 H 2508.48 -4.20087 -0.850017 0
M  V30 26923 H 2512.66 -4.95783 -0.226471 0
M  V30 26924 H 2507.92 -6.08138 0.630772 0
M  V30 26925 H 2512.09 -6.85105 1.24918 0
M  V30 26926 H 2509.72 -7.41317 1.68384 0
M  V30 26927 N 2511.29 0.344839 -1.53781 0
M  V30 26928 C 2512.22 1.42903 -1.84665 0
M  V30 26929 C 2513.2 1.54953 -0.701675 0
M  V30 26930 O 2514.39 1.69182 -0.953467 0
M  V30 26931 C 2511.52 2.79971 -2.05508 0
M  V30 26932 C 2510.47 2.82728 -3.21323 0
M  V30 26933 C 2509.8 4.22669 -3.27498 0
M  V30 26934 C 2511.1 2.48381 -4.59461 0
M  V30 26935 H 2512.79 1.17306 -2.75463 0
M  V30 26936 H 2510.34 0.562872 -1.32543 0
M  V30 26937 H 2512.29 3.55863 -2.25697 0
M  V30 26938 H 2511.01 3.07 -1.1144 0
M  V30 26939 H 2509.67 2.09289 -3.00988 0
M  V30 26940 H 2509.32 4.46806 -2.31027 0
M  V30 26941 H 2509.02 4.25426 -4.05323 0
M  V30 26942 H 2510.55 5.00405 -3.49895 0
M  V30 26943 H 2511.96 3.13986 -4.79672 0
M  V30 26944 H 2510.36 2.62422 -5.3968 0
M  V30 26945 H 2511.43 1.43572 -4.63158 0
M  V30 26946 N 2512.77 1.45492 0.605781 0
M  V30 26947 C 2514.19 1.29938 0.926728 0
M  V30 26948 C 2514.39 0.253741 1.99896 0
M  V30 26949 O 2513.44 -0.351693 2.50039 0
M  V30 26950 C 2514.75 2.67885 1.36594 0
M  V30 26951 C 2516.3 2.75796 1.48006 0
M  V30 26952 C 2516.78 4.14272 1.95302 0
M  V30 26953 N 2518.27 4.16575 2.02533 0
M  V30 26954 C 2519 5.20593 2.40354 0
M  V30 26955 N 2518.5 6.34957 2.77132 0
M  V30 26956 N 2520.29 5.07952 2.40709 0
M  V30 26957 H 2512.44 2.12151 -0.102899 0
M  V30 26958 H 2514.71 0.947854 0.0166223 0
M  V30 26959 H 2514.41 3.45599 0.652246 0
M  V30 26960 H 2514.29 2.96467 2.3321 0
M  V30 26961 H 2516.67 1.98385 2.18466 0
M  V30 26962 H 2516.75 2.50925 0.496997 0
M  V30 26963 H 2516.4 4.92169 1.25428 0
M  V30 26964 H 2516.33 4.36535 2.94525 0
M  V30 26965 H 2518.82 3.34048 1.76693 0
M  V30 26966 H 2519.13 7.10119 3.04878 0
M  V30 26967 H 2517.48 6.38355 2.74823 0
M  V30 26968 H 2520.67 4.17653 2.11384 0
M  V30 26969 H 2520.84 5.89135 2.69858 0
M  V30 26970 N 2514.25 -0.848441 1.32813 0
M  V30 26971 C 2515.21 -1.93908 1.22198 0
M  V30 26972 C 2516.21 -1.60159 0.143432 0
M  V30 26973 O 2517.4 -1.69679 0.394283 0
M  V30 26974 C 2514.53 -3.29327 0.880728 0
M  V30 26975 H 2515.73 -2.04748 2.19131 0
M  V30 26976 H 2513.28 -1.03938 1.16733 0
M  V30 26977 H 2514.01 -3.24185 -0.0865206 0
M  V30 26978 H 2513.8 -3.552 1.66059 0
M  V30 26979 H 2515.29 -4.09249 0.830943 0
M  V30 26980 N 2515.73 -1.16125 -1.06549 0
M  V30 26981 C 2516.95 -0.965767 -1.83542 0
M  V30 26982 C 2517.38 0.48107 -1.81844 0
M  V30 26983 O 2516.73 1.34352 -1.21735 0
M  V30 26984 C 2516.78 -1.49462 -3.28167 0
M  V30 26985 O 2515.89 -0.699228 -4.06429 0
M  V30 26986 H 2515.23 -0.343874 -0.56802 0
M  V30 26987 H 2517.76 -1.54301 -1.34359 0
M  V30 26988 H 2517.77 -1.51098 -3.7899 0
M  V30 26989 H 2516.44 -2.5479 -3.28717 0
M  V30 26990 H 2515.02 -0.753164 -3.65215 0
M  V30 26991 N 2517.2 1.25039 -0.959323 0
M  V30 26992 C 2518.11 2.29425 -0.490034 0
M  V30 26993 C 2519.13 1.68216 0.444915 0
M  V30 26994 O 2520.31 1.98841 0.320011 0
M  V30 26995 C 2517.37 3.46 0.220248 0
M  V30 26996 C 2516.43 4.22636 -0.753492 0
M  V30 26997 C 2515.67 5.33644 -0.0770118 0
M  V30 26998 O 2515.89 5.58965 1.13639 0
M  V30 26999 O 2514.82 5.9702 -0.764929 0
M  V30 27000 H 2518.65 2.71667 -1.3576 0
M  V30 27001 H 2516.23 1.30575 -0.725984 0
M  V30 27002 H 2518.12 4.1682 0.619604 0
M  V30 27003 H 2516.79 3.05751 1.06291 0
M  V30 27004 H 2515.7 3.54225 -1.20315 0
M  V30 27005 H 2517.03 4.6668 -1.56431 0
M  V30 27006 N 2518.68 0.728444 1.39755 0
M  V30 27007 C 2519.61 0.0991764 2.33289 0
M  V30 27008 C 2520.59 -0.731462 1.5357 0
M  V30 27009 O 2521.78 -0.677775 1.81989 0
M  V30 27010 C 2518.91 -0.813774 3.37631 0
M  V30 27011 C 2517.86 -0.0877911 4.2791 0
M  V30 27012 C 2517.19 -1.11732 5.22896 0
M  V30 27013 C 2518.49 1.06572 5.11312 0
M  V30 27014 H 2520.18 0.880458 2.86161 0
M  V30 27015 H 2517.73 0.424843 1.3759 0
M  V30 27016 H 2519.68 -1.26348 4.02013 0
M  V30 27017 H 2518.41 -1.6271 2.83184 0
M  V30 27018 H 2517.06 0.342223 3.64999 0
M  V30 27019 H 2516.71 -1.92403 4.64747 0
M  V30 27020 H 2516.41 -0.636374 5.84144 0
M  V30 27021 H 2517.94 -1.56686 5.90154 0
M  V30 27022 H 2519.35 0.694771 5.69075 0
M  V30 27023 H 2517.75 1.47587 5.81668 0
M  V30 27024 H 2518.82 1.89046 4.46531 0
M  V30 27025 N 2520.16 -1.50253 0.475581 0
M  V30 27026 C 2521.12 -2.27162 -0.304976 0
M  V30 27027 C 2522.12 -1.32125 -0.916496 0
M  V30 27028 O 2523.31 -1.55511 -0.784976 0
M  V30 27029 C 2520.45 -3.0923 -1.43491 0
M  V30 27030 H 2521.64 -2.97614 0.369564 0
M  V30 27031 H 2519.19 -1.54602 0.229774 0
M  V30 27032 H 2519.93 -2.43284 -2.14437 0
M  V30 27033 H 2519.71 -3.79077 -1.00217 0
M  V30 27034 H 2521.2 -3.67384 -1.98541 0
M  V30 27035 N 2521.64 -0.208365 -1.56217 0
M  V30 27036 C 2523.05 0.147262 -1.58919 0
M  V30 27037 C 2523.25 1.59996 -1.22489 0
M  V30 27038 O 2522.31 2.33789 -0.95389 0
M  V30 27039 C 2523.62 -0.167101 -3.00235 0
M  V30 27040 C 2525.17 -0.108274 -3.12813 0
M  V30 27041 C 2525.65 -0.396129 -4.56284 0
M  V30 27042 N 2527.14 -0.345223 -4.61912 0
M  V30 27043 C 2527.87 -0.541624 -5.70836 0
M  V30 27044 N 2527.37 -0.799089 -6.88176 0
M  V30 27045 N 2529.16 -0.474966 -5.6009 0
M  V30 27046 H 2521.31 -1.15617 -1.78175 0
M  V30 27047 H 2523.58 -0.46246 -0.827547 0
M  V30 27048 H 2523.28 -1.17486 -3.31496 0
M  V30 27049 H 2523.16 0.524118 -3.73541 0
M  V30 27050 H 2525.54 0.890107 -2.81356 0
M  V30 27051 H 2525.62 -0.832771 -2.41865 0
M  V30 27052 H 2525.27 -1.39189 -4.88456 0
M  V30 27053 H 2525.2 0.349409 -5.2544 0
M  V30 27054 H 2527.69 -0.153383 -3.77589 0
M  V30 27055 H 2528 -0.937405 -7.67094 0
M  V30 27056 H 2526.35 -0.836135 -6.89952 0
M  V30 27057 H 2529.54 -0.274146 -4.67297 0
M  V30 27058 H 2529.71 -0.63144 -6.44916 0
M  V30 27059 N 2523.12 1.57465 0.0651402 0
M  V30 27060 C 2524.08 2.03157 1.06113 0
M  V30 27061 C 2525.08 0.929655 1.31202 0
M  V30 27062 O 2526.27 1.19435 1.26811 0
M  V30 27063 C 2523.4 2.41788 2.40315 0
M  V30 27064 H 2524.59 2.92385 0.667179 0
M  V30 27065 H 2522.15 1.53174 0.311048 0
M  V30 27066 H 2522.88 1.55606 2.8453 0
M  V30 27067 H 2522.67 3.22203 2.23445 0
M  V30 27068 H 2524.16 2.77691 3.11893 0
M  V30 27069 N 2524.59 -0.336679 1.53962 0
M  V30 27070 C 2525.5 -1.43705 1.85435 0
M  V30 27071 C 2526.52 -1.5724 0.745081 0
M  V30 27072 O 2527.7 -1.72586 1.03807 0
M  V30 27073 C 2524.76 -2.78602 2.06354 0
M  V30 27074 C 2523.82 -2.74353 3.30196 0
M  V30 27075 C 2523.06 -4.02815 3.50108 0
M  V30 27076 O 2523.28 -5.00434 2.73719 0
M  V30 27077 O 2522.21 -4.0687 4.43554 0
M  V30 27078 H 2526.04 -1.20023 2.78977 0
M  V30 27079 H 2523.62 -0.529496 1.39702 0
M  V30 27080 H 2525.51 -3.58479 2.21519 0
M  V30 27081 H 2524.18 -3.02201 1.16 0
M  V30 27082 H 2523.09 -1.93072 3.20428 0
M  V30 27083 H 2524.42 -2.55707 4.20565 0
M  V30 27084 N 2526.07 -1.45812 -0.598057 0
M  V30 27085 C 2527.32 -1.50028 -1.3541 0
M  V30 27086 C 2527.64 -0.147211 -1.94444 0
M  V30 27087 O 2526.91 0.82454 -1.77702 0
M  V30 27088 H 2525.49 -0.552526 -0.502717 0
M  V30 27089 H 2528.15 -1.81835 -0.701574 0
M  V30 27090 H 2527.25 -2.24444 -2.16867 0
M  V30 27091 N 2527.55 0.841385 -1.33261 0
M  V30 27092 C 2528.8 1.59141 -1.23924 0
M  V30 27093 C 2529.11 1.94635 0.194066 0
M  V30 27094 O 2530.32 2.68395 0.409426 0
M  V30 27095 C 2528.77 2.87028 -2.17124 0
M  V30 27096 C 2528.38 2.58907 -3.6561 0
M  V30 27097 C 2530.13 3.6505 -2.16654 0
M  V30 27098 C 2528.03 3.82876 -4.50733 0
M  V30 27099 H 2526.96 0.597213 -0.460275 0
M  V30 27100 H 2529.61 0.927931 -1.58309 0
M  V30 27101 H 2528 3.54903 -1.75669 0
M  V30 27102 H 2529.17 1.99259 -4.15491 0
M  V30 27103 H 2527.49 1.94194 -3.68345 0
M  V30 27104 H 2530.08 4.57064 -2.77482 0
M  V30 27105 H 2530.43 3.99784 -1.16095 0
M  V30 27106 H 2530.96 3.04095 -2.56459 0
M  V30 27107 H 2527.7 3.53274 -5.52158 0
M  V30 27108 H 2527.22 4.41872 -4.05597 0
M  V30 27109 H 2528.9 4.50481 -4.64409 0
M  V30 27110 N 2529.03 1.16688 1.05932 0
M  V30 27111 C 2530.44 0.957773 1.60261 0
M  V30 27112 C 2530.79 -0.497416 1.8979 0
M  V30 27113 O 2529.92 -1.37132 1.67403 0
M  V30 27114 C 2530.51 1.73223 2.91169 0
M  V30 27115 C 2529.07 1.568 3.42185 0
M  V30 27116 C 2528.22 1.73863 2.16025 0
M  V30 27117 H 2531.17 1.31505 0.888369 0
M  V30 27118 H 2531.19 1.2102 3.60741 0
M  V30 27119 H 2530.7 2.79129 2.69646 0
M  V30 27120 H 2528.8 0.533501 3.68761 0
M  V30 27121 H 2528.92 2.35422 4.17269 0
M  V30 27122 H 2527.28 1.16637 2.26424 0
M  V30 27123 H 2528.06 2.81165 1.9698 0
M  V30 27124 N 2530.51 -1.24529 0.96594 0
M  V30 27125 C 2531.92 -1.44754 0.672185 0
M  V30 27126 C 2532.12 -1.86349 -0.766576 0
M  V30 27127 O 2531.18 -2.0005 -1.54066 0
M  V30 27128 C 2532.49 -2.51073 1.65478 0
M  V30 27129 C 2534.04 -2.64902 1.66721 0
M  V30 27130 C 2534.52 -3.74417 2.63773 0
M  V30 27131 N 2536.01 -3.81841 2.62205 0
M  V30 27132 C 2536.74 -4.661 3.33974 0
M  V30 27133 N 2536.24 -5.54559 4.15254 0
M  V30 27134 N 2538.03 -4.60165 3.22807 0
M  V30 27135 H 2530.18 -0.95826 1.89555 0
M  V30 27136 H 2532.44 -0.482565 0.815987 0
M  V30 27137 H 2532.15 -2.27394 2.683 0
M  V30 27138 H 2532.02 -3.492 1.42616 0
M  V30 27139 H 2534.41 -2.8794 0.646108 0
M  V30 27140 H 2534.49 -1.67139 1.93645 0
M  V30 27141 H 2534.14 -3.52129 3.66016 0
M  V30 27142 H 2534.07 -4.7169 2.34129 0
M  V30 27143 H 2536.56 -3.18616 2.03205 0
M  V30 27144 H 2536.87 -6.15805 4.66909 0
M  V30 27145 H 2535.22 -5.5423 4.1935 0
M  V30 27146 H 2538.41 -3.90071 2.58771 0
M  V30 27147 H 2538.58 -5.25605 3.79003 0
M  V30 27148 N 2531.99 -0.735845 -1.39367 0
M  V30 27149 C 2533.23 -0.281039 -1.99732 0
M  V30 27150 C 2533.55 1.13843 -1.59057 0
M  V30 27151 O 2534.75 1.6928 -2.12265 0
M  V30 27152 C 2533.21 -0.451525 -3.57056 0
M  V30 27153 C 2532.82 -1.87893 -4.06694 0
M  V30 27154 C 2534.56 -0.0585362 -4.2446 0
M  V30 27155 C 2532.47 -1.99893 -5.56594 0
M  V30 27156 H 2531.4 -0.101324 -0.747161 0
M  V30 27157 H 2534.05 -0.909847 -1.59355 0
M  V30 27158 H 2532.43 0.246193 -3.95234 0
M  V30 27159 H 2533.61 -2.60868 -3.79848 0
M  V30 27160 H 2531.92 -2.22521 -3.51956 0
M  V30 27161 H 2534.52 -0.127193 -5.34549 0
M  V30 27162 H 2534.86 0.986362 -4.04446 0
M  V30 27163 H 2535.39 -0.707443 -3.91459 0
M  V30 27164 H 2532.13 -3.02574 -5.81489 0
M  V30 27165 H 2531.65 -1.31356 -5.8524 0
M  V30 27166 H 2533.33 -1.7805 -6.22019 0
M  V30 27167 N 2533.46 1.49999 -0.483543 0
M  V30 27168 C 2534.69 2.065 0.0643533 0
M  V30 27169 C 2535.1 1.34617 1.32947 0
M  V30 27170 O 2534.44 0.412787 1.79002 0
M  V30 27171 C 2534.51 3.57201 0.40592 0
M  V30 27172 C 2534.17 4.50654 -0.758954 0
M  V30 27173 C 2535.17 4.93205 -1.64454 0
M  V30 27174 C 2532.85 4.9318 -0.952812 0
M  V30 27175 C 2534.85 5.77002 -2.70828 0
M  V30 27176 C 2532.53 5.76757 -2.01976 0
M  V30 27177 C 2533.53 6.18571 -2.89585 0
M  V30 27178 O 2533.22 7.00479 -3.94441 0
M  V30 27179 H 2532.95 0.675935 -0.00935974 0
M  V30 27180 H 2535.51 1.93992 -0.674994 0
M  V30 27181 H 2533.74 3.67655 1.19863 0
M  V30 27182 H 2535.42 3.96014 0.890364 0
M  V30 27183 H 2536.19 4.61009 -1.50651 0
M  V30 27184 H 2532.07 4.60147 -0.280328 0
M  V30 27185 H 2535.61 6.09559 -3.3924 0
M  V30 27186 H 2531.51 6.08366 -2.15781 0
M  V30 27187 H 2532.28 7.18754 -3.91581 0
M  V30 27188 N 2534.94 0.216646 1.56104 0
M  V30 27189 C 2536.19 -0.416998 1.98467 0
M  V30 27190 C 2536.52 -1.59763 1.10405 0
M  V30 27191 O 2535.8 -1.93835 0.160666 0
M  V30 27192 C 2536.08 -0.856308 3.4977 0
M  V30 27193 C 2535.93 0.327625 4.48605 0
M  V30 27194 C 2537.25 -1.71423 4.05342 0
M  V30 27195 H 2534.37 -0.150099 0.721553 0
M  V30 27196 H 2537.01 0.311897 1.87423 0
M  V30 27197 H 2535.16 -1.47738 3.59313 0
M  V30 27198 H 2536.83 0.965697 4.51079 0
M  V30 27199 H 2535.08 0.975879 4.22681 0
M  V30 27200 H 2535.75 -0.0226179 5.51995 0
M  V30 27201 H 2538.22 -1.19024 3.98714 0
M  V30 27202 H 2537.1 -1.99052 5.11536 0
M  V30 27203 H 2537.36 -2.67587 3.51923 0
M  V30 27204 N 2536.42 -1.57498 -0.0567885 0
M  V30 27205 C 2537.64 -1.92602 -0.769368 0
M  V30 27206 C 2538.07 -0.814366 -1.69557 0
M  V30 27207 O 2537.43 0.231871 -1.79811 0
M  V30 27208 C 2537.48 -3.26706 -1.52628 0
M  V30 27209 O 2536.58 -3.16998 -2.63791 0
M  V30 27210 H 2535.92 -0.630284 -0.208898 0
M  V30 27211 H 2538.45 -2.0459 -0.0205438 0
M  V30 27212 H 2538.46 -3.6094 -1.90228 0
M  V30 27213 H 2537.14 -4.07188 -0.846803 0
M  V30 27214 H 2535.71 -2.9435 -2.28938 0
M  V30 27215 N 2537.9 0.328509 -1.54138 0
M  V30 27216 C 2538.86 1.38706 -1.82465 0
M  V30 27217 C 2539.86 1.44945 -0.696254 0
M  V30 27218 O 2541.05 1.45058 -0.964561 0
M  V30 27219 C 2538.18 2.77488 -1.98023 0
M  V30 27220 H 2539.38 1.14846 -2.77039 0
M  V30 27221 H 2536.93 0.563725 -1.4578 0
M  V30 27222 H 2537.66 3.06611 -1.05643 0
M  V30 27223 H 2537.45 2.74354 -2.80129 0
M  V30 27224 H 2538.94 3.54077 -2.21403 0
M  V30 27225 N 2539.38 1.46127 0.590316 0
M  V30 27226 C 2540.32 1.56473 1.72102 0
M  V30 27227 C 2541.32 0.433641 1.63756 0
M  V30 27228 O 2542.52 0.610224 1.69341 0
M  V30 27229 H 2538.9 0.491812 0.56888 0
M  V30 27230 H 2540.87 2.51556 1.60505 0
M  V30 27231 C 2539.62 1.56497 3.1049 0
M  V30 27232 H 2538.94 2.42865 3.17579 0
M  V30 27233 H 2540.38 1.67792 3.89387 0
M  V30 27234 C 2538.84 0.29229 3.3563 0
M  V30 27235 O 2539.37 -0.620669 3.96876 0
M  V30 27236 N 2537.58 0.182574 2.90026 0
M  V30 27237 H 2537.12 0.926399 2.40366 0
M  V30 27238 H 2537.08 -0.668098 3.07219 0
M  V30 27239 N 2540.85 -0.834306 1.33705 0
M  V30 27240 C 2542.08 -1.62703 1.28618 0
M  V30 27241 C 2542.5 -1.87584 -0.139209 0
M  V30 27242 O 2541.86 -1.44322 -1.09731 0
M  V30 27243 C 2541.91 -2.95167 2.07144 0
M  V30 27244 O 2541.01 -3.86696 1.43317 0
M  V30 27245 H 2540.35 -0.495272 0.442269 0
M  V30 27246 H 2542.88 -1.03762 1.76336 0
M  V30 27247 H 2542.89 -3.44827 2.18079 0
M  V30 27248 H 2541.57 -2.7638 3.10784 0
M  V30 27249 H 2540.15 -3.45192 1.41056 0
M  V30 27250 N 2542.33 -1.17248 -1.05312 0
M  V30 27251 C 2543.58 -0.958225 -1.77939 0
M  V30 27252 C 2543.9 0.514523 -1.8809 0
M  V30 27253 O 2543.17 1.37357 -1.39678 0
M  V30 27254 H 2541.75 -0.351545 -0.659109 0
M  V30 27255 H 2544.41 -1.47701 -1.27163 0
M  V30 27256 H 2543.51 -1.38551 -2.79661 0
M  V30 27257 N 2543.81 1.24015 -0.972531 0
M  V30 27258 C 2544.77 2.23421 -0.511442 0
M  V30 27259 C 2545.77 1.55882 0.394651 0
M  V30 27260 O 2546.96 1.73167 0.189438 0
M  V30 27261 C 2544.1 3.39917 0.258709 0
M  V30 27262 H 2545.29 2.65727 -1.39029 0
M  V30 27263 H 2542.84 1.36711 -0.757609 0
M  V30 27264 H 2543.58 3.03056 1.15445 0
M  V30 27265 H 2543.36 3.9014 -0.391591 0
M  V30 27266 H 2544.85 4.13689 0.570172 0
M  V30 27267 N 2545.29 0.743226 1.38974 0
M  V30 27268 C 2546.7 0.419691 1.53983 0
M  V30 27269 C 2546.9 -1.06847 1.70839 0
M  V30 27270 O 2545.96 -1.85457 1.71353 0
M  V30 27271 C 2547.27 1.2099 2.75285 0
M  V30 27272 C 2548.82 1.19894 2.89127 0
M  V30 27273 C 2549.3 1.97188 4.13377 0
M  V30 27274 N 2550.79 1.94396 4.20434 0
M  V30 27275 C 2551.52 2.51005 5.15542 0
M  V30 27276 N 2551.02 3.16285 6.16389 0
M  V30 27277 N 2552.81 2.40992 5.07818 0
M  V30 27278 H 2544.96 1.70782 1.26282 0
M  V30 27279 H 2547.23 0.723417 0.612676 0
M  V30 27280 H 2546.93 2.26327 2.692 0
M  V30 27281 H 2546.81 0.819824 3.68183 0
M  V30 27282 H 2549.19 0.153657 2.947 0
M  V30 27283 H 2549.27 1.62845 1.9727 0
M  V30 27284 H 2548.92 3.01722 4.08566 0
M  V30 27285 H 2548.85 1.51638 5.04295 0
M  V30 27286 H 2551.34 1.46845 3.48202 0
M  V30 27287 H 2551.65 3.56927 6.85436 0
M  V30 27288 H 2550 3.20377 6.16752 0
M  V30 27289 H 2553.19 1.89629 4.2797 0
M  V30 27290 H 2553.36 2.85408 5.81761 0
M  V30 27291 N 2546.77 -1.4974 0.491491 0
M  V30 27292 C 2548.02 -2.01616 -0.0581834 0
M  V30 27293 C 2548.33 -1.37693 -1.38925 0
M  V30 27294 O 2549.53 -1.80842 -2.02506 0
M  V30 27295 C 2547.99 -3.5957 -0.154172 0
M  V30 27296 C 2547.6 -4.32461 1.16968 0
M  V30 27297 C 2549.34 -4.19421 -0.654717 0
M  V30 27298 C 2547.25 -5.82249 1.03637 0
M  V30 27299 H 2546.18 -0.753568 -0.0255184 0
M  V30 27300 H 2548.83 -1.72365 0.629475 0
M  V30 27301 H 2547.21 -3.85495 -0.90607 0
M  V30 27302 H 2548.39 -4.18244 1.93412 0
M  V30 27303 H 2546.7 -3.84312 1.60292 0
M  V30 27304 H 2549.3 -5.291 -0.77181 0
M  V30 27305 H 2549.64 -3.82153 -1.6512 0
M  V30 27306 H 2550.17 -3.9778 0.040374 0
M  V30 27307 H 2546.91 -6.24024 2.00683 0
M  V30 27308 H 2546.43 -5.98985 0.312651 0
M  V30 27309 H 2548.11 -6.43079 0.711227 0
M  V30 27310 N 2548.24 -0.224922 -1.55987 0
M  V30 27311 C 2549.49 0.405064 -1.97999 0
M  V30 27312 C 2549.81 1.60054 -1.1139 0
M  V30 27313 O 2549.08 1.9496 -0.191679 0
M  V30 27314 H 2547.66 0.152645 -0.731238 0
M  V30 27315 H 2550.33 -0.318601 -1.92278 0
M  V30 27316 H 2549.42 0.729113 -3.03464 0
M  V30 27317 N 2549.72 1.57526 0.0484352 0
M  V30 27318 C 2550.65 2.08314 1.05486 0
M  V30 27319 C 2551.63 0.981488 1.38927 0
M  V30 27320 O 2552.82 1.25561 1.48149 0
M  V30 27321 C 2549.95 2.5465 2.36158 0
M  V30 27322 C 2548.9 3.68905 2.1701 0
M  V30 27323 C 2548.23 4.01377 3.53271 0
M  V30 27324 C 2549.53 4.98078 1.57211 0
M  V30 27325 H 2551.22 2.9265 0.632144 0
M  V30 27326 H 2548.77 1.40784 0.302629 0
M  V30 27327 H 2550.72 2.88799 3.06877 0
M  V30 27328 H 2549.45 1.67373 2.80453 0
M  V30 27329 H 2548.1 3.35076 1.48727 0
M  V30 27330 H 2547.75 3.11195 3.95179 0
M  V30 27331 H 2547.45 4.78324 3.41291 0
M  V30 27332 H 2548.98 4.38043 4.25384 0
M  V30 27333 H 2550.39 5.30307 2.17823 0
M  V30 27334 H 2548.79 5.79506 1.55861 0
M  V30 27335 H 2549.86 4.8193 0.535871 0
M  V30 27336 N 2551.2 -0.32033 1.5431 0
M  V30 27337 C 2552.16 -1.37736 1.83198 0
M  V30 27338 C 2553.16 -1.44573 0.703931 0
M  V30 27339 O 2554.35 -1.44545 0.97224 0
M  V30 27340 C 2551.49 -2.76434 1.99491 0
M  V30 27341 H 2552.68 -1.13375 2.77644 0
M  V30 27342 H 2550.23 -0.555986 1.46077 0
M  V30 27343 H 2550.97 -3.06046 1.07267 0
M  V30 27344 H 2550.75 -2.72865 2.8158 0
M  V30 27345 H 2552.24 -3.52898 2.23277 0
M  V30 27346 N 2552.68 -1.46438 -0.582558 0
M  V30 27347 C 2553.59 -1.59598 -1.71946 0
M  V30 27348 C 2554.6 -0.479473 -1.67263 0
M  V30 27349 O 2555.78 -0.743612 -1.87169 0
M  V30 27350 C 2552.85 -1.58304 -3.08449 0
M  V30 27351 C 2551.91 -2.81188 -3.24395 0
M  V30 27352 C 2551.14 -2.79945 -4.54386 0
M  V30 27353 O 2551.36 -1.88699 -5.38283 0
M  V30 27354 O 2550.3 -3.71489 -4.73582 0
M  V30 27355 H 2554.12 -2.55747 -1.6379 0
M  V30 27356 H 2551.71 -1.29233 -0.74962 0
M  V30 27357 H 2553.59 -1.60278 -3.89729 0
M  V30 27358 H 2552.26 -0.65315 -3.17042 0
M  V30 27359 H 2551.17 -2.84767 -2.42608 0
M  V30 27360 H 2552.5 -3.73386 -3.20693 0
M  V30 27361 N 2554.16 0.827204 -1.34146 0
M  V30 27362 C 2555.07 1.96973 -1.27432 0
M  V30 27363 C 2556.08 1.73038 -0.182758 0
M  V30 27364 O 2557.26 1.97214 -0.408461 0
M  V30 27365 C 2554.32 3.31192 -1.02532 0
M  V30 27366 C 2553.38 3.68164 -2.20802 0
M  V30 27367 C 2552.62 4.95978 -1.97081 0
M  V30 27368 O 2552.84 5.62818 -0.926921 0
M  V30 27369 O 2551.77 5.30728 -2.83921 0
M  V30 27370 H 2555.6 2.0558 -2.23541 0
M  V30 27371 H 2553.19 0.961969 -1.14309 0
M  V30 27372 H 2555.07 4.11587 -0.904099 0
M  V30 27373 H 2553.74 3.23562 -0.0945958 0
M  V30 27374 H 2552.65 2.88231 -2.38483 0
M  V30 27375 H 2553.98 3.80474 -3.1225 0
M  V30 27376 N 2555.63 1.17805 1.04688 0
M  V30 27377 C 2556.88 0.963962 1.77174 0
M  V30 27378 C 2557.2 -0.507982 1.88889 0
M  V30 27379 O 2558.4 -0.840419 2.58165 0
M  V30 27380 C 2556.86 1.6756 3.18515 0
M  V30 27381 C 2556.47 3.18643 3.14914 0
M  V30 27382 C 2558.21 1.54409 3.95421 0
M  V30 27383 C 2556.12 3.82474 4.51074 0
M  V30 27384 H 2555.05 0.357035 0.66411 0
M  V30 27385 H 2557.7 1.41112 1.17301 0
M  V30 27386 H 2556.08 1.15619 3.78746 0
M  V30 27387 H 2557.25 3.77558 2.64171 0
M  V30 27388 H 2555.57 3.31864 2.51506 0
M  V30 27389 H 2558.17 1.99465 4.96103 0
M  V30 27390 H 2558.51 0.495402 4.13342 0
M  V30 27391 H 2559.04 2.03596 3.41751 0
M  V30 27392 H 2555.78 4.87362 4.38359 0
M  V30 27393 H 2555.3 3.28345 5.01946 0
M  V30 27394 H 2556.98 3.84974 5.20004 0
M  V30 27395 N 2557.11 -1.23497 0.979094 0
M  V30 27396 C 2558.53 -1.44033 0.687501 0
M  V30 27397 C 2558.73 -1.87151 -0.746768 0
M  V30 27398 O 2557.78 -2.01672 -1.51936 0
M  V30 27399 C 2559.1 -2.49304 1.68131 0
M  V30 27400 C 2560.65 -2.63119 1.69521 0
M  V30 27401 C 2561.12 -3.71598 2.67729 0
M  V30 27402 N 2562.61 -3.79039 2.6624 0
M  V30 27403 C 2563.35 -4.62531 3.38899 0
M  V30 27404 N 2562.84 -5.50123 4.21113 0
M  V30 27405 N 2564.64 -4.56716 3.2767 0
M  V30 27406 H 2556.79 -0.938101 1.90561 0
M  V30 27407 H 2559.05 -0.473883 0.82106 0
M  V30 27408 H 2558.76 -2.24536 2.70697 0
M  V30 27409 H 2558.63 -3.47668 1.46312 0
M  V30 27410 H 2561.02 -2.87239 0.676612 0
M  V30 27411 H 2561.1 -1.65076 1.95406 0
M  V30 27412 H 2560.74 -3.48227 3.6973 0
M  V30 27413 H 2560.67 -4.6918 2.39119 0
M  V30 27414 H 2563.16 -3.16443 2.06573 0
M  V30 27415 H 2563.48 -6.10819 4.73414 0
M  V30 27416 H 2561.82 -5.49751 4.25204 0
M  V30 27417 H 2565.01 -3.87304 2.62893 0
M  V30 27418 H 2565.18 -5.21556 3.84556 0
M  V30 27419 N 2558.59 -0.750586 -1.38578 0
M  V30 27420 C 2559.54 -0.0966349 -2.27795 0
M  V30 27421 C 2560.53 0.696386 -1.45049 0
M  V30 27422 O 2561.72 0.562834 -1.67813 0
M  V30 27423 C 2558.85 0.798026 -3.33896 0
M  V30 27424 C 2557.93 -0.00168124 -4.241 0
M  V30 27425 N 2558.32 -1.03656 -4.95065 0
M  V30 27426 C 2556.62 0.225596 -4.45429 0
M  V30 27427 C 2557.32 -1.52014 -5.61486 0
M  V30 27428 N 2556.3 -0.835968 -5.37134 0
M  V30 27429 H 2560.1 -0.889277 -2.80123 0
M  V30 27430 H 2557.61 -0.586349 -1.51445 0
M  V30 27431 H 2559.61 1.28212 -3.96695 0
M  V30 27432 H 2558.27 1.58965 -2.83126 0
M  V30 27433 H 2559.28 -1.41828 -4.98102 0
M  V30 27434 H 2555.96 0.990801 -4.05573 0
M  V30 27435 H 2557.35 -2.38199 -6.2826 0
M  V30 27436 N 2560.07 1.49477 -0.499425 0
M  V30 27437 C 2561 2.25853 0.326451 0
M  V30 27438 C 2561.98 1.30368 0.971753 0
M  V30 27439 O 2563.16 1.59653 1.00216 0
M  V30 27440 C 2560.29 3.05634 1.45963 0
M  V30 27441 C 2559.34 4.16262 0.928865 0
M  V30 27442 S 2560.17 5.352 -0.179106 0
M  V30 27443 C 2561.33 6.18536 0.95728 0
M  V30 27444 H 2561.56 2.95553 -0.321798 0
M  V30 27445 H 2559.09 1.51752 -0.284701 0
M  V30 27446 H 2561.05 3.52185 2.10893 0
M  V30 27447 H 2559.71 2.35406 2.07949 0
M  V30 27448 H 2558.9 4.71595 1.77804 0
M  V30 27449 H 2558.51 3.72294 0.356803 0
M  V30 27450 H 2560.8 6.51386 1.86285 0
M  V30 27451 H 2561.74 7.06715 0.442608 0
M  V30 27452 H 2562.15 5.51072 1.2239 0
M  V30 27453 N 2561.55 0.233191 1.55865 0
M  V30 27454 C 2562.79 -0.395339 1.98603 0
M  V30 27455 C 2563.12 -1.5894 1.12108 0
M  V30 27456 O 2562.38 -1.94972 0.16869 0
M  V30 27457 C 2562.68 -0.861663 3.46858 0
M  V30 27458 C 2562.34 0.223145 4.50348 0
M  V30 27459 C 2561 0.521122 4.7837 0
M  V30 27460 C 2563.36 0.956214 5.12353 0
M  V30 27461 C 2560.68 1.55648 5.65677 0
M  V30 27462 C 2563.04 1.98099 6.00782 0
M  V30 27463 C 2561.7 2.28576 6.27144 0
M  V30 27464 H 2560.97 -0.144665 0.726741 0
M  V30 27465 H 2563.62 0.338148 1.88491 0
M  V30 27466 H 2561.92 -1.67411 3.54232 0
M  V30 27467 H 2563.62 -1.35802 3.77305 0
M  V30 27468 H 2560.21 -0.019248 4.28596 0
M  V30 27469 H 2564.39 0.739252 4.90763 0
M  V30 27470 H 2559.65 1.7981 5.84361 0
M  V30 27471 H 2563.82 2.55402 6.47876 0
M  V30 27472 H 2561.45 3.08944 6.94592 0
M  V30 27473 N 2563.03 -1.57549 -0.0400806 0
M  V30 27474 C 2563.98 -2.02294 -1.05171 0
M  V30 27475 C 2564.96 -0.910317 -1.32673 0
M  V30 27476 O 2566.15 -1.17423 -1.32442 0
M  V30 27477 C 2563.28 -2.49678 -2.35618 0
M  V30 27478 C 2562.37 -3.67739 -2.11255 0
M  V30 27479 N 2562.76 -4.80845 -1.56914 0
M  V30 27480 C 2561.06 -3.74901 -2.41589 0
M  V30 27481 C 2561.76 -5.62531 -1.48101 0
M  V30 27482 N 2560.73 -5.07316 -1.95273 0
M  V30 27483 H 2564.53 -2.87169 -0.625405 0
M  V30 27484 H 2562.05 -1.60517 -0.246596 0
M  V30 27485 H 2564.05 -2.79989 -3.08888 0
M  V30 27486 H 2562.71 -1.66205 -2.78937 0
M  V30 27487 H 2563.72 -5.02505 -1.25336 0
M  V30 27488 H 2560.39 -3.02206 -2.88059 0
M  V30 27489 H 2561.78 -6.63378 -1.06671 0
M  V30 27490 N 2564.5 0.312142 -1.54478 0
M  V30 27491 C 2565.75 1.05027 -1.73485 0
M  V30 27492 C 2566.08 1.87297 -0.513158 0
M  V30 27493 O 2565.36 1.88231 0.48983 0
M  V30 27494 C 2565.64 1.96553 -3.01727 0
M  V30 27495 C 2565.49 1.17537 -4.34172 0
M  V30 27496 C 2566.81 2.95901 -3.25777 0
M  V30 27497 H 2563.93 0.380421 -0.631228 0
M  V30 27498 H 2566.57 0.325899 -1.87184 0
M  V30 27499 H 2564.72 2.58319 -2.90178 0
M  V30 27500 H 2566.4 0.581432 -4.57621 0
M  V30 27501 H 2564.64 0.477849 -4.3116 0
M  V30 27502 H 2565.31 1.84802 -5.20146 0
M  V30 27503 H 2567.79 2.44261 -3.36862 0
M  V30 27504 H 2566.66 3.57116 -4.16845 0
M  V30 27505 H 2566.92 3.6897 -2.43544 0
M  V30 27506 N 2565.98 1.46745 0.574784 0
M  V30 27507 C 2566.94 1.57481 1.66531 0
M  V30 27508 C 2567.94 0.45129 1.54337 0
M  V30 27509 O 2569.13 0.715841 1.58812 0
M  V30 27510 C 2566.27 1.50264 3.05996 0
M  V30 27511 H 2567.46 2.54676 1.58367 0
M  V30 27512 H 2565.01 1.34673 0.793278 0
M  V30 27513 H 2565.75 0.543781 3.19708 0
M  V30 27514 H 2565.53 2.31787 3.16255 0
M  V30 27515 H 2567.02 1.60879 3.85367 0
M  V30 27516 N 2567.46 -0.820078 1.34583 0
M  V30 27517 C 2568.71 -1.57834 1.28296 0
M  V30 27518 C 2569.06 -1.91852 -0.145065 0
M  V30 27519 O 2568.35 -1.57431 -1.09206 0
M  V30 27520 C 2568.55 -2.88466 2.11002 0
M  V30 27521 C 2568.38 -2.6721 3.61703 0
M  V30 27522 C 2567.15 -2.63797 4.30974 0
M  V30 27523 C 2569.34 -2.38526 4.55642 0
M  V30 27524 N 2567.33 -2.34116 5.67506 0
M  V30 27525 C 2568.7 -2.18564 5.80198 0
M  V30 27526 C 2570.75 -2.24277 4.44527 0
M  V30 27527 C 2569.46 -1.85798 6.9489 0
M  V30 27528 C 2571.48 -1.92906 5.59054 0
M  V30 27529 C 2570.84 -1.7377 6.8263 0
M  V30 27530 H 2566.94 -0.579833 0.524707 0
M  V30 27531 H 2569.53 -0.961109 1.69324 0
M  V30 27532 H 2567.7 -3.48108 1.72266 0
M  V30 27533 H 2569.43 -3.53883 1.96339 0
M  V30 27534 H 2566.18 -2.77972 3.83443 0
M  V30 27535 H 2566.61 -2.22107 6.39529 0
M  V30 27536 H 2571.25 -2.37776 3.49603 0
M  V30 27537 H 2568.97 -1.71037 7.89792 0
M  V30 27538 H 2572.55 -1.82609 5.52399 0
M  V30 27539 H 2571.43 -1.49847 7.6975 0
M  V30 27540 N 2568.94 -1.18359 -1.04062 0
M  V30 27541 C 2570.18 -0.980428 -1.77526 0
M  V30 27542 C 2570.52 0.488757 -1.87949 0
M  V30 27543 O 2569.79 1.36291 -1.38762 0
M  V30 27544 C 2570.07 -1.63594 -3.20795 0
M  V30 27545 C 2569.93 -3.17799 -3.18315 0
M  V30 27546 C 2571.25 -1.34921 -4.18908 0
M  V30 27547 H 2568.37 -0.357589 -0.644437 0
M  V30 27548 H 2571.01 -1.46026 -1.21558 0
M  V30 27549 H 2569.16 -1.22794 -3.68584 0
M  V30 27550 H 2570.83 -3.67733 -2.78514 0
M  V30 27551 H 2569.07 -3.49957 -2.56345 0
M  V30 27552 H 2569.74 -3.58801 -4.19483 0
M  V30 27553 H 2572.22 -1.70272 -3.79667 0
M  V30 27554 H 2571.1 -1.83355 -5.1737 0
M  V30 27555 H 2571.36 -0.272104 -4.41262 0
M  V30 27556 N 2570.42 1.22976 -0.98563 0
M  V30 27557 C 2571.69 1.87 -0.573632 0
M  V30 27558 C 2572.07 1.88557 0.949179 0
M  V30 27559 O 2571.42 1.37089 1.82808 0
M  V30 27560 C 2571.63 3.28241 -1.1857 0
M  V30 27561 C 2572.98 4.04793 -1.2817 0
M  V30 27562 O 2574 3.3748 -1.13955 0
M  V30 27563 O 2572.86 5.25271 -1.50841 0
M  V30 27564 H 2569.96 0.803952 -0.193883 0
M  V30 27565 H 2572.5 1.30811 -1.08105 0
M  V30 27566 H 2571.27 3.21702 -2.22764 0
M  V30 27567 H 2570.9 3.92026 -0.663432 0
M  V30 27568 N 2571.89 0.757924 1.38178 0
M  V30 27569 C 2573.3 0.383166 1.82726 0
M  V30 27570 C 2573.66 -1.08881 1.63216 0
M  V30 27571 O 2572.78 -1.84203 1.1357 0
M  V30 27572 C 2573.38 0.688689 3.31727 0
M  V30 27573 C 2571.93 0.367157 3.74605 0
M  V30 27574 C 2571.08 0.939645 2.60895 0
M  V30 27575 H 2574.03 0.953721 1.26846 0
M  V30 27576 H 2574.05 -0.0315823 3.80487 0
M  V30 27577 H 2573.57 1.76007 3.45895 0
M  V30 27578 H 2571.67 -0.697468 3.66014 0
M  V30 27579 H 2571.78 0.865741 4.71213 0
M  V30 27580 H 2570.14 0.364745 2.52075 0
M  V30 27581 H 2570.93 2.01615 2.7786 0
M  V30 27582 N 2573.37 -1.4921 0.507345 0
M  V30 27583 C 2574.28 -2.33017 -0.272095 0
M  V30 27584 C 2575.3 -1.45042 -0.961181 0
M  V30 27585 O 2576.47 -1.78057 -0.941159 0
M  V30 27586 C 2573.54 -3.20634 -1.3189 0
M  V30 27587 C 2572.6 -4.24464 -0.642574 0
M  V30 27588 C 2571.83 -5.07894 -1.6395 0
M  V30 27589 O 2572.06 -4.92938 -2.86999 0
M  V30 27590 O 2570.99 -5.89992 -1.19133 0
M  V30 27591 H 2574.82 -3.00864 0.414035 0
M  V30 27592 H 2572.4 -1.46966 0.268581 0
M  V30 27593 H 2574.28 -3.74894 -1.92439 0
M  V30 27594 H 2572.96 -2.55473 -1.98784 0
M  V30 27595 H 2571.87 -3.741 0.00282828 0
M  V30 27596 H 2573.2 -4.92197 -0.0159668 0
M  V30 27597 N 2574.85 -0.241454 -1.55739 0
M  V30 27598 C 2576.13 0.434847 -1.90705 0
M  V30 27599 C 2576.51 1.76275 -1.16148 0
M  V30 27600 O 2575.86 2.26812 -0.277191 0
M  V30 27601 C 2576.07 0.608282 -3.43658 0
M  V30 27602 C 2577.41 0.906652 -4.14807 0
M  V30 27603 O 2578.44 0.694346 -3.49367 0
M  V30 27604 O 2577.3 1.31065 -5.30551 0
M  V30 27605 H 2574.39 0.232666 -0.793597 0
M  V30 27606 H 2576.94 -0.285116 -1.67288 0
M  V30 27607 H 2575.71 -0.327574 -3.89926 0
M  V30 27608 H 2575.33 1.37899 -3.7292 0
M  V30 27609 N 2576.33 1.57568 0.0317248 0
M  V30 27610 C 2577.74 1.77506 0.57866 0
M  V30 27611 C 2578.09 0.872195 1.75748 0
M  V30 27612 O 2577.22 0.0663487 2.16298 0
M  V30 27613 C 2577.81 3.21905 1.05652 0
M  V30 27614 C 2576.37 3.4305 1.549 0
M  V30 27615 C 2575.52 2.7301 0.485891 0
M  V30 27616 H 2578.47 1.57504 -0.194502 0
M  V30 27617 H 2578.49 3.28273 1.92399 0
M  V30 27618 H 2578 3.87593 0.198354 0
M  V30 27619 H 2576.1 2.82534 2.4291 0
M  V30 27620 H 2576.21 4.51653 1.59833 0
M  V30 27621 H 2574.58 2.36707 0.940313 0
M  V30 27622 H 2575.36 3.41378 -0.362769 0
M  V30 27623 N 2577.81 -0.303946 1.54641 0
M  V30 27624 C 2579.04 -1.05702 1.77513 0
M  V30 27625 C 2579.44 -1.8153 0.533259 0
M  V30 27626 O 2578.79 -1.76582 -0.506392 0
M  V30 27627 C 2578.85 -2.08611 2.92782 0
M  V30 27628 C 2578.51 -1.52005 4.3098 0
M  V30 27629 C 2579.51 -0.951611 5.11117 0
M  V30 27630 C 2577.2 -1.55657 4.77573 0
M  V30 27631 C 2579.19 -0.427216 6.35967 0
M  V30 27632 C 2576.88 -1.0283 6.02386 0
M  V30 27633 C 2577.87 -0.464593 6.81418 0
M  V30 27634 O 2577.56 0.0556696 8.03881 0
M  V30 27635 H 2577.29 -0.31938 0.595796 0
M  V30 27636 H 2579.85 -0.349677 2.02402 0
M  V30 27637 H 2578.08 -2.83018 2.63511 0
M  V30 27638 H 2579.77 -2.69797 3.03257 0
M  V30 27639 H 2580.53 -0.916323 4.76265 0
M  V30 27640 H 2576.41 -1.98472 4.16089 0
M  V30 27641 H 2579.96 0.0134288 6.97599 0
M  V30 27642 H 2575.85 -1.06073 6.36725 0
M  V30 27643 H 2576.62 -0.0579084 8.1848 0
M  V30 27644 N 2579.28 -1.47047 -0.566994 0
M  V30 27645 C 2580.23 -1.58798 -1.67486 0
M  V30 27646 C 2581.2 -0.431468 -1.60398 0
M  V30 27647 O 2582.39 -0.650264 -1.79377 0
M  V30 27648 C 2579.53 -1.59904 -3.05818 0
M  V30 27649 C 2578.64 -2.86403 -3.23415 0
M  V30 27650 C 2577.77 -2.78908 -4.52088 0
M  V30 27651 C 2576.81 -4.00275 -4.63083 0
M  V30 27652 N 2575.95 -3.91075 -5.831 0
M  V30 27653 H 2580.79 -2.53424 -1.5678 0
M  V30 27654 H 2578.33 -1.25711 -0.763874 0
M  V30 27655 H 2580.29 -1.58529 -3.85907 0
M  V30 27656 H 2578.92 -0.687984 -3.15383 0
M  V30 27657 H 2577.97 -2.97688 -2.36824 0
M  V30 27658 H 2579.28 -3.76307 -3.27405 0
M  V30 27659 H 2578.43 -2.75727 -5.40425 0
M  V30 27660 H 2577.17 -1.8667 -4.50561 0
M  V30 27661 H 2576.18 -4.03771 -3.7316 0
M  V30 27662 H 2577.4 -4.93629 -4.66377 0
M  V30 27663 H 2575.35 -3.01633 -5.8254 0
M  V30 27664 H 2575.27 -4.74649 -5.88426 0
M  V30 27665 H 2576.53 -3.91894 -6.73824 0
M  V30 27666 N 2580.76 0.812929 -1.35016 0
M  V30 27667 C 2582.01 1.56659 -1.27681 0
M  V30 27668 C 2582.33 1.9442 0.150324 0
M  V30 27669 O 2581.6 1.6309 1.08529 0
M  V30 27670 H 2580.18 0.580925 -0.469612 0
M  V30 27671 H 2582.84 0.970047 -1.69045 0
M  V30 27672 H 2581.94 2.48489 -1.88837 0
M  V30 27673 N 2582.24 1.18909 1.03433 0
M  V30 27674 C 2583.47 1.01198 1.80118 0
M  V30 27675 C 2583.88 -0.44258 1.83951 0
M  V30 27676 O 2583.22 -1.3192 1.27839 0
M  V30 27677 C 2583.28 1.49829 3.2679 0
M  V30 27678 C 2582.95 2.9785 3.46604 0
M  V30 27679 C 2583.94 3.95656 3.37271 0
M  V30 27680 C 2581.63 3.36422 3.72995 0
M  V30 27681 C 2583.62 5.30029 3.54045 0
M  V30 27682 C 2581.31 4.70956 3.89415 0
M  V30 27683 C 2582.31 5.67568 3.79941 0
M  V30 27684 O 2582 6.99666 3.95883 0
M  V30 27685 H 2581.73 0.357299 0.573858 0
M  V30 27686 H 2584.28 1.58033 1.31205 0
M  V30 27687 H 2582.51 0.873644 3.76702 0
M  V30 27688 H 2584.2 1.28411 3.85053 0
M  V30 27689 H 2584.97 3.67202 3.1684 0
M  V30 27690 H 2580.85 2.61778 3.79464 0
M  V30 27691 H 2584.39 6.05423 3.46567 0
M  V30 27692 H 2580.29 4.99108 4.09342 0
M  V30 27693 H 2581.06 7.0666 4.13006 0
M  V30 27694 N 2583.72 -1.22452 0.992137 0
M  V30 27695 C 2585.13 -1.43296 0.702739 0
M  V30 27696 C 2585.33 -1.87933 -0.726876 0
M  V30 27697 O 2584.39 -2.03273 -1.49788 0
M  V30 27698 C 2585.7 -2.47506 1.70766 0
M  V30 27699 C 2587.25 -2.61306 1.72302 0
M  V30 27700 C 2587.73 -3.68737 2.71656 0
M  V30 27701 N 2589.22 -3.76194 2.70245 0
M  V30 27702 C 2589.95 -4.58911 3.43786 0
M  V30 27703 N 2589.45 -5.45626 4.26924 0
M  V30 27704 N 2591.24 -4.53214 3.32495 0
M  V30 27705 H 2583.39 -0.917837 1.91545 0
M  V30 27706 H 2585.66 -0.465148 0.82604 0
M  V30 27707 H 2585.36 -2.21652 2.73063 0
M  V30 27708 H 2585.24 -3.46096 1.49991 0
M  V30 27709 H 2587.62 -2.86505 0.707039 0
M  V30 27710 H 2587.7 -1.62994 1.97146 0
M  V30 27711 H 2587.35 -3.44286 3.73403 0
M  V30 27712 H 2587.28 -4.66617 2.44082 0
M  V30 27713 H 2589.77 -3.14234 2.09918 0
M  V30 27714 H 2590.08 -6.05763 4.79866 0
M  V30 27715 H 2588.43 -5.4521 4.31011 0
M  V30 27716 H 2591.62 -3.84494 2.66987 0
M  V30 27717 H 2591.79 -5.17448 3.90067 0
M  V30 27718 N 2585.2 -0.765242 -1.37774 0
M  V30 27719 C 2586.43 -0.337313 -2.03828 0
M  V30 27720 C 2586.83 1.04318 -1.57843 0
M  V30 27721 O 2586.18 1.67599 -0.752073 0
M  V30 27722 C 2586.24 -0.29447 -3.58292 0
M  V30 27723 C 2585.9 -1.61846 -4.27382 0
M  V30 27724 C 2586.9 -2.56975 -4.51951 0
M  V30 27725 C 2584.59 -1.8911 -4.65341 0
M  V30 27726 C 2586.58 -3.7758 -5.13529 0
M  V30 27727 C 2584.27 -3.09987 -5.26642 0
M  V30 27728 C 2585.26 -4.04041 -5.50672 0
M  V30 27729 O 2584.95 -5.22791 -6.10692 0
M  V30 27730 H 2584.68 -0.14026 -0.661289 0
M  V30 27731 H 2587.24 -1.03837 -1.7722 0
M  V30 27732 H 2585.47 0.462916 -3.83919 0
M  V30 27733 H 2587.16 0.10551 -4.05763 0
M  V30 27734 H 2587.92 -2.3719 -4.23043 0
M  V30 27735 H 2583.8 -1.16732 -4.45976 0
M  V30 27736 H 2587.35 -4.51006 -5.32202 0
M  V30 27737 H 2583.24 -3.29659 -5.54973 0
M  V30 27738 H 2584.01 -5.23528 -6.29174 0
M  V30 27739 N 2586.67 1.48939 -0.515251 0
M  V30 27740 C 2587.6 2.32215 0.244587 0
M  V30 27741 C 2588.59 1.41159 0.949111 0
M  V30 27742 O 2589.77 1.70058 0.937753 0
M  V30 27743 C 2586.9 3.22015 1.30091 0
M  V30 27744 C 2585.85 4.21978 0.715412 0
M  V30 27745 C 2585.18 5.00811 1.8733 0
M  V30 27746 C 2586.48 5.2142 -0.303073 0
M  V30 27747 H 2588.17 2.95991 -0.450553 0
M  V30 27748 H 2585.72 1.42338 -0.218123 0
M  V30 27749 H 2587.67 3.79092 1.84031 0
M  V30 27750 H 2586.4 2.56211 2.02543 0
M  V30 27751 H 2585.06 3.66067 0.197651 0
M  V30 27752 H 2584.7 4.31443 2.58585 0
M  V30 27753 H 2584.4 5.68459 1.48754 0
M  V30 27754 H 2585.93 5.60736 2.41677 0
M  V30 27755 H 2587.34 5.73107 0.148701 0
M  V30 27756 H 2585.74 5.97038 -0.605425 0
M  V30 27757 H 2586.81 4.69456 -1.21403 0
M  V30 27758 N 2588.15 0.249709 1.55609 0
M  V30 27759 C 2589.38 -0.377768 2.03117 0
M  V30 27760 C 2589.79 -1.51879 1.12824 0
M  V30 27761 O 2589.13 -1.83198 0.135653 0
M  V30 27762 C 2589.2 -0.944632 3.46867 0
M  V30 27763 C 2588.86 0.0645062 4.56954 0
M  V30 27764 C 2589.86 0.875047 5.12483 0
M  V30 27765 C 2587.54 0.191408 5.01935 0
M  V30 27766 C 2589.54 1.79892 6.11488 0
M  V30 27767 C 2587.22 1.11878 6.00772 0
M  V30 27768 C 2588.22 1.92106 6.55427 0
M  V30 27769 O 2587.91 2.8328 7.52335 0
M  V30 27770 H 2587.64 -0.0935843 0.669491 0
M  V30 27771 H 2590.2 0.372001 2.02003 0
M  V30 27772 H 2588.43 -1.74401 3.45139 0
M  V30 27773 H 2590.11 -1.48249 3.77859 0
M  V30 27774 H 2590.88 0.787607 4.78562 0
M  V30 27775 H 2586.76 -0.422991 4.59055 0
M  V30 27776 H 2590.3 2.42555 6.54074 0
M  V30 27777 H 2586.2 1.20714 6.34112 0
M  V30 27778 H 2586.97 2.77673 7.69961 0
M  V30 27779 N 2589.63 -1.57583 -0.0233682 0
M  V30 27780 C 2590.56 -2.09966 -1.02159 0
M  V30 27781 C 2591.54 -1.00347 -1.37348 0
M  V30 27782 O 2592.73 -1.27902 -1.46133 0
M  V30 27783 C 2589.86 -2.58375 -2.32077 0
M  V30 27784 C 2588.81 -3.72311 -2.11113 0
M  V30 27785 C 2588.14 -4.06947 -3.46841 0
M  V30 27786 C 2589.44 -5.00516 -1.49267 0
M  V30 27787 H 2591.13 -2.93619 -0.585506 0
M  V30 27788 H 2588.68 -1.41248 -0.280194 0
M  V30 27789 H 2590.63 -2.93644 -3.02243 0
M  V30 27790 H 2589.35 -1.71813 -2.77755 0
M  V30 27791 H 2588.01 -3.37399 -1.43378 0
M  V30 27792 H 2587.66 -3.17442 -3.90179 0
M  V30 27793 H 2587.36 -4.83694 -3.33638 0
M  V30 27794 H 2588.89 -4.44755 -4.18361 0
M  V30 27795 H 2590.3 -5.33706 -2.09359 0
M  V30 27796 H 2588.7 -5.81912 -1.46622 0
M  V30 27797 H 2589.77 -4.82721 -0.459132 0
M  V30 27798 N 2591.11 0.29574 -1.548 0
M  V30 27799 C 2592.34 1.04911 -1.78329 0
M  V30 27800 C 2592.75 1.80752 -0.545347 0
M  V30 27801 O 2592.11 1.75938 0.484982 0
M  V30 27802 C 2592.16 2.02556 -2.99422 0
M  V30 27803 O 2591.88 1.2979 -4.18433 0
M  V30 27804 C 2593.38 2.89889 -3.3538 0
M  V30 27805 H 2590.6 0.310908 -0.594624 0
M  V30 27806 H 2593.15 0.333418 -2.01764 0
M  V30 27807 H 2591.3 2.69619 -2.7818 0
M  V30 27808 H 2591.72 1.9541 -4.86739 0
M  V30 27809 H 2593.19 3.54243 -4.23339 0
M  V30 27810 H 2593.67 3.58467 -2.53768 0
M  V30 27811 H 2594.27 2.28348 -3.588 0
M  V30 27812 N 2592.59 1.47346 0.559187 0
M  V30 27813 C 2594 1.47753 1.14132 0
M  V30 27814 C 2594.35 0.231137 1.94834 0
M  V30 27815 O 2593.47 -0.664101 2.05958 0
M  V30 27816 C 2594.07 2.67708 2.07648 0
M  V30 27817 C 2592.63 2.71081 2.61136 0
M  V30 27818 C 2591.78 2.40823 1.37476 0
M  V30 27819 H 2594.73 1.54885 0.34589 0
M  V30 27820 H 2594.75 2.44566 2.91492 0
M  V30 27821 H 2594.26 3.58407 1.48884 0
M  V30 27822 H 2592.36 1.84517 3.23704 0
M  V30 27823 H 2592.47 3.71716 3.02265 0
M  V30 27824 H 2590.84 1.91365 1.68082 0
M  V30 27825 H 2591.62 3.33727 0.805076 0
M  V30 27826 N 2594.07 -0.805758 1.35445 0
M  V30 27827 C 2595 -1.92575 1.24288 0
M  V30 27828 C 2596.01 -1.61952 0.16599 0
M  V30 27829 O 2597.2 -1.73505 0.419334 0
M  V30 27830 C 2594.3 -3.26969 0.89133 0
M  V30 27831 C 2593.47 -3.85492 2.06676 0
M  V30 27832 C 2592.53 -4.98294 1.69086 0
M  V30 27833 O 2591.56 -5.15677 2.40969 0
M  V30 27834 N 2592.76 -5.77233 0.614971 0
M  V30 27835 H 2595.52 -2.02672 2.20781 0
M  V30 27836 H 2593.09 -0.98322 1.28625 0
M  V30 27837 H 2595.08 -3.99902 0.621326 0
M  V30 27838 H 2593.65 -3.12596 0.016059 0
M  V30 27839 H 2592.87 -3.04742 2.50052 0
M  V30 27840 H 2594.16 -4.21323 2.85245 0
M  V30 27841 H 2593.55 -5.65697 0.0177474 0
M  V30 27842 H 2592.11 -6.50542 0.40475 0
M  V30 27843 N 2595.54 -1.19456 -1.02801 0
M  V30 27844 C 2596.82 -0.907044 -1.73298 0
M  V30 27845 C 2597.2 0.587051 -2.02773 0
M  V30 27846 O 2596.55 1.54548 -1.68307 0
M  V30 27847 C 2596.76 -1.7679 -3.00909 0
M  V30 27848 C 2598.11 -2.00275 -3.744 0
M  V30 27849 O 2599.13 -1.73949 -3.10838 0
M  V30 27850 O 2597.99 -2.44669 -4.88671 0
M  V30 27851 H 2595.08 -0.338119 -0.754722 0
M  V30 27852 H 2597.63 -1.30273 -1.08752 0
M  V30 27853 H 2596.4 -2.78015 -2.75361 0
M  V30 27854 H 2596.02 -1.37155 -3.73195 0
M  V30 27855 N 2597.02 1.21924 -0.998617 0
M  V30 27856 C 2598.25 1.94548 -0.695311 0
M  V30 27857 C 2598.66 1.73913 0.745049 0
M  V30 27858 O 2598 1.03883 1.51506 0
M  V30 27859 C 2598.06 3.47301 -0.928546 0
M  V30 27860 C 2597.73 3.91679 -2.3545 0
M  V30 27861 C 2598.73 3.98895 -3.33435 0
M  V30 27862 C 2596.41 4.2417 -2.69045 0
M  V30 27863 C 2598.4 4.37984 -4.63086 0
M  V30 27864 C 2596.09 4.62937 -3.98915 0
M  V30 27865 C 2597.09 4.69813 -4.95746 0
M  V30 27866 O 2596.78 5.077 -6.23294 0
M  V30 27867 H 2596.51 0.625687 -0.255913 0
M  V30 27868 H 2599.06 1.55868 -1.3377 0
M  V30 27869 H 2597.29 3.86021 -0.228985 0
M  V30 27870 H 2598.98 4.01143 -0.619609 0
M  V30 27871 H 2599.75 3.73977 -3.08814 0
M  V30 27872 H 2595.63 4.18019 -1.94375 0
M  V30 27873 H 2599.17 4.43266 -5.38666 0
M  V30 27874 H 2595.07 4.87307 -4.23323 0
M  V30 27875 H 2595.84 5.25755 -6.27315 0
M  V30 27876 N 2598.5 0.772537 1.37367 0
M  V30 27877 C 2599.45 0.157528 2.30262 0
M  V30 27878 C 2600.42 -0.688939 1.51138 0
M  V30 27879 O 2601.6 -0.641137 1.79706 0
M  V30 27880 C 2598.74 -0.714986 3.37612 0
M  V30 27881 C 2597.85 0.148174 4.31746 0
M  V30 27882 C 2596.99 -0.72912 5.26172 0
M  V30 27883 C 2596.03 0.136525 6.11948 0
M  V30 27884 N 2595.17 -0.698791 6.98614 0
M  V30 27885 H 2600.01 0.955228 2.82275 0
M  V30 27886 H 2597.54 0.482656 1.38956 0
M  V30 27887 H 2599.5 -1.23568 3.98481 0
M  V30 27888 H 2598.13 -1.47828 2.86961 0
M  V30 27889 H 2597.18 0.786679 3.72177 0
M  V30 27890 H 2598.49 0.815877 4.92082 0
M  V30 27891 H 2597.65 -1.31626 5.92249 0
M  V30 27892 H 2596.39 -1.4305 4.66249 0
M  V30 27893 H 2595.39 0.736198 5.44849 0
M  V30 27894 H 2596.62 0.835252 6.73944 0
M  V30 27895 H 2594.56 -1.38477 6.41218 0
M  V30 27896 H 2594.48 -0.0884029 7.55948 0
M  V30 27897 H 2595.75 -1.2703 7.6908 0
M  V30 27898 N 2599.98 -1.48664 0.523142 0
M  V30 27899 C 2601.39 -1.58576 0.180539 0
M  V30 27900 C 2601.59 -1.52595 -1.31595 0
M  V30 27901 O 2600.65 -1.41143 -2.09368 0
M  V30 27902 C 2601.96 -2.90488 0.777 0
M  V30 27903 C 2603.51 -3.04002 0.745111 0
M  V30 27904 C 2603.99 -4.38565 1.32003 0
M  V30 27905 N 2605.48 -4.45114 1.28169 0
M  V30 27906 C 2606.21 -5.47728 1.6965 0
M  V30 27907 N 2605.71 -6.57333 2.18828 0
M  V30 27908 N 2607.5 -5.38571 1.60929 0
M  V30 27909 H 2599.65 -1.50794 1.49582 0
M  V30 27910 H 2601.91 -0.715603 0.621785 0
M  V30 27911 H 2601.62 -3.005 1.82737 0
M  V30 27912 H 2601.49 -3.7637 0.250136 0
M  V30 27913 H 2603.88 -2.93607 -0.29648 0
M  V30 27914 H 2603.96 -2.19748 1.30937 0
M  V30 27915 H 2603.61 -4.49714 2.36051 0
M  V30 27916 H 2603.54 -5.21494 0.73151 0
M  V30 27917 H 2606.03 -3.6649 0.921615 0
M  V30 27918 H 2606.34 -7.31759 2.48491 0
M  V30 27919 H 2604.69 -6.58314 2.22817 0
M  V30 27920 H 2607.88 -4.51838 1.22312 0
M  V30 27921 H 2608.05 -6.18411 1.93578 0
M  V30 27922 N 2601.46 -0.257958 -1.55475 0
M  V30 27923 C 2602.7 0.364231 -1.99502 0
M  V30 27924 C 2603.03 1.5678 -1.14603 0
M  V30 27925 O 2602.31 1.93341 -0.212002 0
M  V30 27926 C 2602.59 0.763272 -3.51918 0
M  V30 27927 C 2602.45 -0.44645 -4.47579 0
M  V30 27928 C 2603.76 1.60615 -4.09745 0
M  V30 27929 H 2600.88 0.130916 -0.725279 0
M  V30 27930 H 2603.53 -0.361479 -1.8653 0
M  V30 27931 H 2601.68 1.3816 -3.63103 0
M  V30 27932 H 2603.35 -1.08495 -4.4836 0
M  V30 27933 H 2601.59 -1.0876 -4.19945 0
M  V30 27934 H 2602.26 -0.123742 -5.51861 0
M  V30 27935 H 2604.74 1.08411 -4.01729 0
M  V30 27936 H 2603.61 1.8542 -5.16634 0
M  V30 27937 H 2603.87 2.58163 -3.58893 0
M  V30 27938 N 2602.93 1.57593 0.0150108 0
M  V30 27939 C 2604.16 1.94574 0.718033 0
M  V30 27940 C 2604.58 0.859035 1.67339 0
M  V30 27941 O 2603.94 -0.184116 1.80363 0
M  V30 27942 C 2603.99 3.30638 1.43912 0
M  V30 27943 O 2603.09 3.23881 2.55294 0
M  V30 27944 H 2602.44 0.635601 0.192114 0
M  V30 27945 H 2604.97 2.04572 -0.0337068 0
M  V30 27946 H 2604.98 3.65856 1.80591 0
M  V30 27947 H 2603.65 4.0929 0.738547 0
M  V30 27948 H 2602.23 3.00316 2.21053 0
M  V30 27949 N 2604.41 -0.287527 1.54955 0
M  V30 27950 C 2605.38 -1.33819 1.86078 0
M  V30 27951 C 2606.38 -1.43048 0.734439 0
M  V30 27952 O 2607.57 -1.4245 1.00268 0
M  V30 27953 C 2604.7 -2.72141 2.0531 0
M  V30 27954 H 2605.89 -1.0746 2.79986 0
M  V30 27955 H 2603.44 -0.524876 1.47223 0
M  V30 27956 H 2604.18 -3.03702 1.13735 0
M  V30 27957 H 2603.96 -2.66831 2.87304 0
M  V30 27958 H 2605.45 -3.48083 2.30713 0
M  V30 27959 N 2605.89 -1.47641 -0.551365 0
M  V30 27960 C 2606.82 -1.63448 -1.66755 0
M  V30 27961 C 2607.8 -0.48377 -1.63076 0
M  V30 27962 O 2608.99 -0.713802 -1.80606 0
M  V30 27963 C 2606.12 -1.65401 -3.05384 0
M  V30 27964 C 2605.07 -2.79758 -3.23913 0
M  V30 27965 C 2604.4 -2.66787 -4.63388 0
M  V30 27966 C 2605.7 -4.21289 -3.08727 0
M  V30 27967 H 2607.39 -2.56888 -1.53781 0
M  V30 27968 H 2604.94 -1.23627 -0.738394 0
M  V30 27969 H 2606.89 -1.7505 -3.83322 0
M  V30 27970 H 2605.61 -0.685251 -3.1933 0
M  V30 27971 H 2604.27 -2.69629 -2.48386 0
M  V30 27972 H 2603.92 -1.67926 -4.74141 0
M  V30 27973 H 2603.62 -3.4351 -4.76734 0
M  V30 27974 H 2605.14 -2.78373 -5.43453 0
M  V30 27975 H 2606.56 -4.32364 -3.76476 0
M  V30 27976 H 2604.96 -4.98844 -3.33579 0
M  V30 27977 H 2606.03 -4.39247 -2.05402 0
M  V30 27978 N 2607.37 0.798563 -1.3587 0
M  V30 27979 C 2608.32 1.9322 -1.29495 0
M  V30 27980 C 2609.31 1.68349 -0.18839 0
M  V30 27981 O 2610.52 1.76468 -0.354853 0
M  V30 27982 H 2606.89 0.634953 -0.402912 0
M  V30 27983 H 2608.86 1.95716 -2.2525 0
M  V30 27984 C 2607.61 3.3011 -1.0919 0
M  V30 27985 H 2606.93 3.4981 -1.9358 0
M  V30 27986 H 2608.37 4.0981 -1.08773 0
M  V30 27987 C 2606.83 3.36282 0.2039 0
M  V30 27988 O 2607.36 3.83454 1.19692 0
M  V30 27989 N 2605.57 2.89562 0.245437 0
M  V30 27990 H 2605.12 2.51366 -0.563267 0
M  V30 27991 H 2605.07 2.94073 1.11214 0
M  V30 27992 N 2608.85 1.19999 1.02166 0
M  V30 27993 C 2610.07 1.03322 1.79831 0
M  V30 27994 C 2610.5 -0.413249 1.83504 0
M  V30 27995 O 2609.85 -1.29741 1.26637 0
M  V30 27996 C 2609.9 1.61539 3.22393 0
M  V30 27997 O 2609.01 0.84959 4.03554 0
M  V30 27998 H 2608.35 0.364719 0.554866 0
M  V30 27999 H 2610.88 1.59181 1.2854 0
M  V30 28000 H 2610.89 1.6506 3.73121 0
M  V30 28001 H 2609.56 2.66814 3.19035 0
M  V30 28002 H 2608.14 0.888193 3.62168 0
M  V30 28003 N 2610.32 -1.21392 1.00507 0
M  V30 28004 C 2611.57 -1.90743 0.688826 0
M  V30 28005 C 2611.9 -1.77915 -0.778455 0
M  V30 28006 O 2611.18 -1.15584 -1.56431 0
M  V30 28007 C 2611.46 -3.42543 1.11069 0
M  V30 28008 C 2611.31 -3.64362 2.63743 0
M  V30 28009 C 2612.63 -4.34922 0.673135 0
M  V30 28010 H 2609.75 -0.692683 0.251714 0
M  V30 28011 H 2612.39 -1.43024 1.25076 0
M  V30 28012 H 2610.54 -3.83315 0.632575 0
M  V30 28013 H 2612.22 -3.32916 3.19319 0
M  V30 28014 H 2610.46 -3.08225 3.05253 0
M  V30 28015 H 2611.13 -4.70722 2.88313 0
M  V30 28016 H 2613.61 -4.01732 1.08399 0
M  V30 28017 H 2612.48 -5.39779 0.996478 0
M  V30 28018 H 2612.74 -4.40045 -0.425731 0
M  V30 28019 N 2611.8 -0.779811 -1.36955 0
M  V30 28020 C 2612.75 -0.144932 -2.27539 0
M  V30 28021 C 2613.74 0.665462 -1.46494 0
M  V30 28022 O 2614.93 0.527111 -1.68969 0
M  V30 28023 C 2612.06 0.727023 -3.35513 0
M  V30 28024 C 2611.14 -0.0916387 -4.24001 0
M  V30 28025 N 2611.53 -1.14133 -4.92755 0
M  V30 28026 C 2609.83 0.131063 -4.45807 0
M  V30 28027 C 2610.53 -1.6389 -5.58135 0
M  V30 28028 N 2609.51 -0.949714 -5.3524 0
M  V30 28029 H 2613.31 -0.948495 -2.78174 0
M  V30 28030 H 2610.83 -0.618341 -1.50168 0
M  V30 28031 H 2612.82 1.19769 -3.99326 0
M  V30 28032 H 2611.48 1.52924 -2.86434 0
M  V30 28033 H 2612.49 -1.52362 -4.94981 0
M  V30 28034 H 2609.17 0.90455 -4.07583 0
M  V30 28035 H 2610.56 -2.51472 -6.23066 0
M  V30 28036 N 2613.28 1.48384 -0.531019 0
M  V30 28037 C 2614.52 2.044 0.000683054 0
M  V30 28038 C 2614.88 1.39916 1.31482 0
M  V30 28039 O 2616.09 1.86824 1.93262 0
M  V30 28040 C 2614.36 3.57201 0.119114 0
M  V30 28041 S 2615.92 4.34668 0.60073 0
M  V30 28042 H 2612.73 0.710889 -0.0125597 0
M  V30 28043 H 2615.34 1.82081 -0.711815 0
M  V30 28044 H 2614.04 4.01667 -0.842132 0
M  V30 28045 H 2613.57 3.83975 0.855959 0
M  V30 28046 H 2615.59 4.59815 1.86506 0
M  V30 28047 N 2614.76 0.2662 1.55336 0
M  V30 28048 C 2615.67 -0.635418 2.25831 0
M  V30 28049 C 2616.68 -1.17747 1.28108 0
M  V30 28050 O 2617.86 -1.20965 1.61026 0
M  V30 28051 C 2614.93 -1.80706 2.95882 0
M  V30 28052 C 2613.99 -1.30257 4.09062 0
M  V30 28053 C 2613.22 -2.41838 4.75763 0
M  V30 28054 O 2613.44 -3.60999 4.41628 0
M  V30 28055 O 2612.38 -2.105 5.63891 0
M  V30 28056 H 2616.2 -0.0646159 3.03631 0
M  V30 28057 H 2613.79 0.033944 1.49361 0
M  V30 28058 H 2615.67 -2.49041 3.39936 0
M  V30 28059 H 2614.34 -2.36512 2.21006 0
M  V30 28060 H 2613.25 -0.585954 3.69483 0
M  V30 28061 H 2614.58 -0.790373 4.85813 0
M  V30 28062 N 2616.24 -1.57599 -0.0066531 0
M  V30 28063 C 2617.19 -2.0448 -1.00857 0
M  V30 28064 C 2618.17 -0.938254 -1.30712 0
M  V30 28065 O 2619.36 -1.20206 -1.29921 0
M  V30 28066 C 2616.49 -2.54619 -2.30269 0
M  V30 28067 C 2615.58 -3.72138 -2.03407 0
M  V30 28068 N 2615.97 -4.84065 -1.46679 0
M  V30 28069 C 2614.27 -3.79941 -2.33583 0
M  V30 28070 C 2614.97 -5.65546 -1.36136 0
M  V30 28071 N 2613.94 -5.11344 -1.84468 0
M  V30 28072 H 2617.75 -2.88431 -0.564351 0
M  V30 28073 H 2615.26 -1.61004 -0.212493 0
M  V30 28074 H 2617.26 -2.86478 -3.0288 0
M  V30 28075 H 2615.92 -1.72084 -2.75349 0
M  V30 28076 H 2616.93 -5.05051 -1.14649 0
M  V30 28077 H 2613.6 -3.08248 -2.81583 0
M  V30 28078 H 2614.99 -6.65492 -0.925756 0
M  V30 28079 N 2617.72 0.279305 -1.55105 0
M  V30 28080 C 2618.96 1.01324 -1.75674 0
M  V30 28081 C 2619.29 1.86167 -0.552771 0
M  V30 28082 O 2618.57 1.89228 0.449794 0
M  V30 28083 C 2618.85 1.90109 -3.05828 0
M  V30 28084 C 2618.71 1.08301 -4.36567 0
M  V30 28085 C 2620.02 2.88924 -3.3198 0
M  V30 28086 H 2617.14 0.366946 -0.639156 0
M  V30 28087 H 2619.79 0.286121 -1.87833 0
M  V30 28088 H 2617.94 2.52106 -2.95593 0
M  V30 28089 H 2619.61 0.484233 -4.58751 0
M  V30 28090 H 2617.85 0.386286 -4.32077 0
M  V30 28091 H 2618.52 1.73727 -5.23949 0
M  V30 28092 H 2621 2.37061 -3.41967 0
M  V30 28093 H 2619.87 3.48194 -4.24326 0
M  V30 28094 H 2620.13 3.63721 -2.51316 0
M  V30 28095 N 2619.19 1.47931 0.543528 0
M  V30 28096 C 2620.1 1.64101 1.67654 0
M  V30 28097 C 2621.12 0.523651 1.65933 0
M  V30 28098 O 2622.3 0.792975 1.85132 0
M  V30 28099 C 2619.36 1.66426 3.04144 0
M  V30 28100 C 2618.42 2.8969 3.16825 0
M  V30 28101 C 2617.65 2.91894 4.46804 0
M  V30 28102 O 2617.88 2.02904 5.33091 0
M  V30 28103 O 2616.81 3.83915 4.63566 0
M  V30 28104 H 2620.64 2.59999 1.56952 0
M  V30 28105 H 2618.22 1.31175 0.715093 0
M  V30 28106 H 2620.1 1.70555 3.85343 0
M  V30 28107 H 2618.78 0.736978 3.15199 0
M  V30 28108 H 2617.69 2.91099 2.34972 0
M  V30 28109 H 2619.02 3.81757 3.1068 0
M  V30 28110 N 2620.67 -0.791347 1.36292 0
M  V30 28111 C 2621.95 -1.5371 1.20965 0
M  V30 28112 C 2622.33 -2.10102 -0.204984 0
M  V30 28113 O 2621.68 -1.93809 -1.21038 0
M  V30 28114 C 2621.89 -2.63357 2.29006 0
M  V30 28115 C 2623.23 -3.31291 2.65578 0
M  V30 28116 O 2624.26 -2.73639 2.28035 0
M  V30 28117 O 2623.12 -4.35475 3.30188 0
M  V30 28118 H 2620.21 -0.679859 0.470872 0
M  V30 28119 H 2622.76 -0.829995 1.48017 0
M  V30 28120 H 2621.53 -2.19668 3.23823 0
M  V30 28121 H 2621.15 -3.41689 2.03309 0
M  V30 28122 N 2622.15 -1.2054 -1.01528 0
M  V30 28123 C 2623.06 -0.97115 -2.13555 0
M  V30 28124 C 2624.08 0.073406 -1.73845 0
M  V30 28125 O 2625.25 -0.114334 -2.01075 0
M  V30 28126 C 2622.32 -0.527699 -3.42661 0
M  V30 28127 C 2621.38 -1.64326 -3.96605 0
M  V30 28128 C 2620.61 -1.22087 -5.19548 0
M  V30 28129 O 2620.83 -0.0901201 -5.70329 0
M  V30 28130 O 2619.77 -2.02881 -5.66677 0
M  V30 28131 H 2623.59 -1.90917 -2.36187 0
M  V30 28132 H 2621.18 -0.989382 -1.11945 0
M  V30 28133 H 2623.06 -0.289695 -4.20403 0
M  V30 28134 H 2621.74 0.381723 -3.21441 0
M  V30 28135 H 2620.64 -1.93556 -3.20136 0
M  V30 28136 H 2621.98 -2.52973 -4.22215 0
M  V30 28137 N 2623.63 1.20858 -1.01149 0
M  V30 28138 C 2624.88 1.89718 -0.69652 0
M  V30 28139 C 2625.2 1.78905 0.775756 0
M  V30 28140 O 2624.47 1.18814 1.55757 0
M  V30 28141 H 2623.05 0.702259 -0.25464 0
M  V30 28142 H 2625.71 1.46802 -1.282 0
M  V30 28143 H 2624.8 2.96466 -0.97541 0
M  V30 28144 N 2625.11 0.787064 1.3654 0
M  V30 28145 C 2626.02 0.184937 2.3387 0
M  V30 28146 C 2627.03 -0.661668 1.60928 0
M  V30 28147 O 2628.21 -0.578006 1.92928 0
M  V30 28148 C 2625.27 -0.672085 3.40123 0
M  V30 28149 C 2624.33 0.192746 4.28867 0
M  V30 28150 C 2623.57 -0.623468 5.30046 0
M  V30 28151 O 2623.79 -1.8596 5.39236 0
M  V30 28152 O 2622.72 -0.024601 6.01895 0
M  V30 28153 H 2626.55 0.989613 2.87124 0
M  V30 28154 H 2624.13 0.54848 1.38968 0
M  V30 28155 H 2626.02 -1.16087 4.05095 0
M  V30 28156 H 2624.69 -1.45469 2.89172 0
M  V30 28157 H 2623.6 0.72823 3.66944 0
M  V30 28158 H 2624.93 0.938807 4.83164 0
M  V30 28159 N 2626.58 -1.48101 0.53888 0
M  V30 28160 C 2627.81 -2.07397 0.0103059 0
M  V30 28161 C 2628.23 -1.39155 -1.2656 0
M  V30 28162 O 2627.59 -0.460417 -1.75356 0
M  V30 28163 C 2627.64 -3.60112 -0.187539 0
M  V30 28164 O 2626.74 -3.92864 -1.25426 0
M  V30 28165 H 2626.08 -0.662599 0.0431091 0
M  V30 28166 H 2628.61 -1.90384 0.749335 0
M  V30 28167 H 2628.62 -4.0596 -0.407446 0
M  V30 28168 H 2627.3 -4.09183 0.744458 0
M  V30 28169 H 2625.88 -3.58784 -1.0163 0
M  V30 28170 N 2628.06 -0.274434 -1.55192 0
M  V30 28171 C 2629.48 0.0797262 -1.59401 0
M  V30 28172 C 2629.68 1.54657 -1.29165 0
M  V30 28173 O 2628.73 2.29533 -1.05219 0
M  V30 28174 C 2630.05 -0.294291 -2.99256 0
M  V30 28175 C 2631.59 -0.240851 -3.12072 0
M  V30 28176 C 2632.07 -0.589298 -4.54193 0
M  V30 28177 N 2633.56 -0.540825 -4.60032 0
M  V30 28178 C 2634.3 -0.783247 -5.68025 0
M  V30 28179 N 2633.79 -1.09025 -6.84168 0
M  V30 28180 N 2635.58 -0.712091 -5.57571 0
M  V30 28181 H 2627.74 -1.2307 -1.73111 0
M  V30 28182 H 2630 -0.497143 -0.807188 0
M  V30 28183 H 2629.7 -1.3144 -3.26215 0
M  V30 28184 H 2629.58 0.365215 -3.75428 0
M  V30 28185 H 2631.97 0.769973 -2.84878 0
M  V30 28186 H 2632.05 -0.934605 -2.38115 0
M  V30 28187 H 2631.69 -1.59781 -4.82113 0
M  V30 28188 H 2631.62 0.126238 -5.26449 0
M  V30 28189 H 2634.11 -0.313393 -3.76598 0
M  V30 28190 H 2634.42 -1.26191 -7.62427 0
M  V30 28191 H 2632.77 -1.12801 -6.85785 0
M  V30 28192 H 2635.96 -0.472096 -4.65713 0
M  V30 28193 H 2636.13 -0.904402 -6.41658 0
M  V30 28194 N 2629.54 1.576 -0.00170483 0
M  V30 28195 C 2630.77 1.94641 0.692719 0
M  V30 28196 C 2631.18 0.875159 1.67743 0
M  V30 28197 O 2630.52 -0.15435 1.8305 0
M  V30 28198 C 2630.58 3.27679 1.47875 0
M  V30 28199 C 2630.25 4.52275 0.655438 0
M  V30 28200 C 2631.24 5.19868 -0.0576128 0
M  V30 28201 C 2628.93 4.98693 0.600907 0
M  V30 28202 C 2630.92 6.32179 -0.814163 0
M  V30 28203 C 2628.61 6.10892 -0.159367 0
M  V30 28204 C 2629.61 6.77492 -0.865634 0
M  V30 28205 O 2629.3 7.87541 -1.6135 0
M  V30 28206 H 2629.03 0.64642 0.19778 0
M  V30 28207 H 2631.58 2.0534 -0.0494591 0
M  V30 28208 H 2629.81 3.13392 2.26545 0
M  V30 28209 H 2631.5 3.49819 2.05867 0
M  V30 28210 H 2632.27 4.84994 -0.0246464 0
M  V30 28211 H 2628.15 4.46678 1.14017 0
M  V30 28212 H 2631.69 6.84096 -1.36596 0
M  V30 28213 H 2627.59 6.45208 -0.194148 0
M  V30 28214 H 2628.35 8.04066 -1.53039 0
M  V30 28215 N 2631.02 -0.271076 1.55251 0
M  V30 28216 C 2631.96 -1.33513 1.88263 0
M  V30 28217 C 2632.93 -1.48986 0.734322 0
M  V30 28218 O 2634.12 -1.63362 0.985769 0
M  V30 28219 C 2631.26 -2.69004 2.16173 0
M  V30 28220 C 2630.37 -2.61737 3.43683 0
M  V30 28221 C 2629.51 -3.8942 3.61283 0
M  V30 28222 C 2628.55 -3.76671 4.82478 0
M  V30 28223 N 2627.68 -4.96193 4.96726 0
M  V30 28224 H 2632.52 -1.0466 2.79017 0
M  V30 28225 H 2630.06 -0.505594 1.38138 0
M  V30 28226 H 2632.02 -3.4784 2.30355 0
M  V30 28227 H 2630.65 -2.96055 1.28652 0
M  V30 28228 H 2629.7 -1.74601 3.37962 0
M  V30 28229 H 2631.01 -2.48217 4.32654 0
M  V30 28230 H 2630.17 -4.76697 3.75293 0
M  V30 28231 H 2628.91 -4.05809 2.705 0
M  V30 28232 H 2627.91 -2.87777 4.6847 0
M  V30 28233 H 2629.14 -3.61799 5.74698 0
M  V30 28234 H 2627.08 -5.12989 4.08874 0
M  V30 28235 H 2627 -4.85212 5.79746 0
M  V30 28236 H 2628.27 -5.85037 5.15123 0
M  V30 28237 N 2632.5 -1.48217 -0.535675 0
M  V30 28238 C 2633.75 -1.55199 -1.28825 0
M  V30 28239 C 2634.06 -0.228312 -1.94263 0
M  V30 28240 O 2635.26 -0.176326 -2.70927 0
M  V30 28241 C 2633.72 -2.73682 -2.33722 0
M  V30 28242 C 2633.33 -4.12669 -1.74379 0
M  V30 28243 C 2635.07 -2.89973 -3.10025 0
M  V30 28244 C 2632.98 -5.22421 -2.77182 0
M  V30 28245 H 2631.91 -0.577756 -0.484473 0
M  V30 28246 H 2634.56 -1.74539 -0.566429 0
M  V30 28247 H 2632.94 -2.47766 -3.08915 0
M  V30 28248 H 2634.12 -4.48581 -1.05413 0
M  V30 28249 H 2632.43 -4.01447 -1.10588 0
M  V30 28250 H 2635.03 -3.69137 -3.86836 0
M  V30 28251 H 2635.37 -1.99216 -3.65539 0
M  V30 28252 H 2635.9 -3.15764 -2.41947 0
M  V30 28253 H 2632.64 -6.15126 -2.26496 0
M  V30 28254 H 2632.16 -4.91004 -3.44493 0
M  V30 28255 H 2633.84 -5.50292 -3.40275 0
M  V30 28256 N 2633.97 0.784108 -1.3671 0
M  V30 28257 C 2635.2 1.57303 -1.344 0
M  V30 28258 C 2635.62 1.88657 0.0735246 0
M  V30 28259 O 2634.97 1.50525 1.03191 0
M  V30 28260 C 2635.03 2.89082 -2.17058 0
M  V30 28261 O 2634.75 2.59077 -3.53286 0
M  V30 28262 C 2636.25 3.83365 -2.22589 0
M  V30 28263 H 2633.47 0.487728 -0.460828 0
M  V30 28264 H 2636.01 0.972788 -1.79881 0
M  V30 28265 H 2634.17 3.45561 -1.75119 0
M  V30 28266 H 2634.58 3.43376 -3.96476 0
M  V30 28267 H 2636.05 4.72873 -2.84772 0
M  V30 28268 H 2636.53 4.21601 -1.23083 0
M  V30 28269 H 2637.14 3.32818 -2.64787 0
M  V30 28270 N 2635.45 1.21076 1.00888 0
M  V30 28271 C 2636.73 0.934499 1.71833 0
M  V30 28272 C 2637.11 -0.554717 2.03681 0
M  V30 28273 O 2636.46 -1.51851 1.70744 0
M  V30 28274 C 2636.67 1.81555 2.98058 0
M  V30 28275 C 2638.02 2.06206 3.71166 0
M  V30 28276 O 2639.04 1.78872 3.08031 0
M  V30 28277 O 2637.9 2.52412 4.84717 0
M  V30 28278 H 2634.99 0.350083 0.749247 0
M  V30 28279 H 2637.54 1.31987 1.06666 0
M  V30 28280 H 2636.31 2.8236 2.70903 0
M  V30 28281 H 2635.93 1.43075 3.70965 0
M  V30 28282 N 2636.93 -1.2032 1.01789 0
M  V30 28283 C 2638.18 -1.89042 0.703283 0
M  V30 28284 C 2638.49 -1.79789 -0.770414 0
M  V30 28285 O 2639.7 -2.43658 -1.19763 0
M  V30 28286 C 2638.15 -3.39037 1.20755 0
M  V30 28287 C 2637.76 -3.56873 2.70824 0
M  V30 28288 C 2639.51 -4.13306 0.968425 0
M  V30 28289 C 2637.41 -5.00702 3.14724 0
M  V30 28290 H 2636.34 -0.707987 0.259366 0
M  V30 28291 H 2638.99 -1.36106 1.23074 0
M  V30 28292 H 2637.38 -3.91304 0.608057 0
M  V30 28293 H 2638.55 -3.14987 3.36333 0
M  V30 28294 H 2636.87 -2.95978 2.92893 0
M  V30 28295 H 2639.46 -5.19354 1.27183 0
M  V30 28296 H 2639.81 -4.16191 -0.0950759 0
M  V30 28297 H 2640.34 -3.67144 1.53135 0
M  V30 28298 H 2637.08 -5.02972 4.20356 0
M  V30 28299 H 2636.6 -5.43393 2.53936 0
M  V30 28300 H 2638.28 -5.69291 3.07436 0
M  V30 28301 N 2638.41 -0.794293 -1.3612 0
M  V30 28302 C 2639.66 -0.365499 -1.98361 0
M  V30 28303 C 2639.97 1.06994 -1.63742 0
M  V30 28304 O 2641.18 1.60125 -2.19254 0
M  V30 28305 C 2639.63 -0.602558 -3.5482 0
M  V30 28306 C 2639.24 -2.04974 -3.98359 0
M  V30 28307 C 2640.98 -0.238511 -4.23829 0
M  V30 28308 C 2638.89 -2.2332 -5.47615 0
M  V30 28309 H 2637.82 -0.132923 -0.742191 0
M  V30 28310 H 2640.47 -0.976617 -1.55353 0
M  V30 28311 H 2638.85 0.0783394 -3.95923 0
M  V30 28312 H 2640.03 -2.76743 -3.68442 0
M  V30 28313 H 2638.34 -2.37249 -3.42202 0
M  V30 28314 H 2640.94 -0.353798 -5.33528 0
M  V30 28315 H 2641.28 0.813935 -4.08266 0
M  V30 28316 H 2641.82 -0.872838 -3.88106 0
M  V30 28317 H 2638.56 -3.26965 -5.68132 0
M  V30 28318 H 2638.08 -1.5606 -5.79142 0
M  V30 28319 H 2639.75 -2.04271 -6.13907 0
M  V30 28320 N 2639.89 1.47813 -0.546727 0
M  V30 28321 C 2641.13 2.02091 -0.0187392 0
M  V30 28322 C 2641.46 1.42449 1.33166 0
M  V30 28323 O 2640.73 0.595872 1.86618 0
M  V30 28324 H 2639.31 0.74699 -0.00393844 0
M  V30 28325 H 2641.97 1.81336 -0.714359 0
M  V30 28326 H 2641.06 3.12005 0.0771671 0
M  V30 28327 N 2641.36 0.28266 1.55044 0
M  V30 28328 C 2642.31 -0.601526 2.22823 0
M  V30 28329 C 2643.28 -1.1439 1.20433 0
M  V30 28330 O 2644.47 -1.19181 1.48998 0
M  V30 28331 C 2641.61 -1.77627 2.95876 0
M  V30 28332 C 2640.72 -1.26703 4.13002 0
M  V30 28333 C 2639.85 -2.40418 4.7368 0
M  V30 28334 C 2638.89 -1.86535 5.82985 0
M  V30 28335 N 2638.03 -2.93751 6.37695 0
M  V30 28336 H 2642.87 -0.0169004 2.97995 0
M  V30 28337 H 2640.41 0.0034255 1.471 0
M  V30 28338 H 2642.37 -2.46691 3.36451 0
M  V30 28339 H 2641 -2.33281 2.23114 0
M  V30 28340 H 2640.05 -0.469247 3.77495 0
M  V30 28341 H 2641.36 -0.832431 4.91805 0
M  V30 28342 H 2640.51 -3.17461 5.17014 0
M  V30 28343 H 2639.25 -2.87196 3.94169 0
M  V30 28344 H 2638.26 -1.07973 5.39094 0
M  V30 28345 H 2639.48 -1.40683 6.64368 0
M  V30 28346 H 2637.43 -3.39898 5.61075 0
M  V30 28347 H 2637.35 -2.54731 7.11792 0
M  V30 28348 H 2638.61 -3.70748 6.85687 0
M  V30 28349 N 2642.84 -1.57597 0.0100627 0
M  V30 28350 C 2643.75 -2.12492 -0.994189 0
M  V30 28351 C 2644.77 -1.07256 -1.37011 0
M  V30 28352 O 2645.94 -1.39212 -1.4554 0
M  V30 28353 C 2643.01 -2.62559 -2.26415 0
M  V30 28354 C 2642.07 -3.82436 -1.95042 0
M  V30 28355 C 2641.3 -4.30105 -3.15983 0
M  V30 28356 O 2641.53 -3.77048 -4.28009 0
M  V30 28357 O 2640.46 -5.22156 -2.99393 0
M  V30 28358 H 2644.29 -2.98539 -0.557496 0
M  V30 28359 H 2641.87 -1.47925 -0.209387 0
M  V30 28360 H 2643.75 -2.94915 -3.01004 0
M  V30 28361 H 2642.43 -1.79605 -2.69303 0
M  V30 28362 H 2641.34 -3.55037 -1.17898 0
M  V30 28363 H 2642.67 -4.66494 -1.56984 0
M  V30 28364 N 2644.32 0.262839 -1.55393 0
M  V30 28365 C 2645.23 1.34694 -1.9208 0
M  V30 28366 C 2646.25 1.53506 -0.819254 0
M  V30 28367 O 2647.42 1.67437 -1.11924 0
M  V30 28368 C 2644.49 2.68439 -2.19412 0
M  V30 28369 C 2643.55 2.58286 -3.42909 0
M  V30 28370 C 2642.78 3.85653 -3.68928 0
M  V30 28371 O 2643 4.86805 -2.97283 0
M  V30 28372 O 2641.94 3.85244 -4.62462 0
M  V30 28373 H 2645.76 1.06576 -2.84386 0
M  V30 28374 H 2643.35 0.462239 -1.42069 0
M  V30 28375 H 2645.23 3.47502 -2.38371 0
M  V30 28376 H 2643.91 2.96323 -1.30287 0
M  V30 28377 H 2642.81 1.77564 -3.29275 0
M  V30 28378 H 2644.15 2.3535 -4.32286 0
M  V30 28379 N 2645.8 1.48499 0.527807 0
M  V30 28380 C 2647.05 1.56318 1.28098 0
M  V30 28381 C 2647.37 0.239815 1.9352 0
M  V30 28382 O 2646.64 -0.738817 1.81434 0
M  V30 28383 H 2645.22 0.575882 0.475783 0
M  V30 28384 H 2647.88 1.84975 0.614019 0
M  V30 28385 H 2646.98 2.34535 2.05912 0
M  V30 28386 N 2647.28 -0.776847 1.37123 0
M  V30 28387 C 2648.53 -1.53047 1.31375 0
M  V30 28388 C 2648.84 -1.95339 -0.100982 0
M  V30 28389 O 2650.05 -2.70043 -0.280905 0
M  V30 28390 C 2648.5 -2.76342 2.30572 0
M  V30 28391 C 2648.11 -2.41169 3.77547 0
M  V30 28392 C 2649.85 -3.54297 2.33824 0
M  V30 28393 C 2647.76 -3.60935 4.68487 0
M  V30 28394 H 2646.69 -0.574572 0.488244 0
M  V30 28395 H 2649.34 -0.851343 1.62556 0
M  V30 28396 H 2647.72 -3.46118 1.92402 0
M  V30 28397 H 2648.9 -1.79209 4.24524 0
M  V30 28398 H 2647.21 -1.76398 3.7719 0
M  V30 28399 H 2649.81 -4.43305 2.98973 0
M  V30 28400 H 2650.15 -3.9379 1.35037 0
M  V30 28401 H 2650.69 -2.91513 2.70675 0
M  V30 28402 H 2647.42 -3.26527 5.68384 0
M  V30 28403 H 2646.94 -4.22017 4.26218 0
M  V30 28404 H 2648.62 -4.2781 4.85373 0
M  V30 28405 N 2648.76 -1.2161 -1.00244 0
M  V30 28406 C 2650 -1.03283 -1.73715 0
M  V30 28407 C 2650.32 0.434284 -1.90103 0
M  V30 28408 O 2649.59 1.31309 -1.45378 0
M  V30 28409 H 2648.17 -0.379183 -0.643606 0
M  V30 28410 H 2650.84 -1.52962 -1.20784 0
M  V30 28411 H 2649.93 -1.50287 -2.73533 0
M  V30 28412 N 2650.23 1.19778 -1.02425 0
M  V30 28413 C 2651.64 1.71043 -0.748419 0
M  V30 28414 C 2652 1.82019 0.732366 0
M  V30 28415 O 2651.12 1.48809 1.57114 0
M  V30 28416 C 2651.72 3.10658 -1.35193 0
M  V30 28417 C 2650.27 3.59201 -1.12478 0
M  V30 28418 C 2649.42 2.36193 -1.45287 0
M  V30 28419 H 2652.37 1.04684 -1.19277 0
M  V30 28420 H 2652.39 3.73106 -0.746473 0
M  V30 28421 H 2651.91 3.02637 -2.42966 0
M  V30 28422 H 2650.01 3.72543 -0.0650637 0
M  V30 28423 H 2650.12 4.43585 -1.81023 0
M  V30 28424 H 2648.48 2.39305 -0.872076 0
M  V30 28425 H 2649.27 2.30806 -2.54133 0
M  V30 28426 N 2651.71 0.801501 1.35697 0
M  V30 28427 C 2652.62 0.209732 2.33661 0
M  V30 28428 C 2653.64 -0.644562 1.61621 0
M  V30 28429 O 2654.81 -0.557511 1.9353 0
M  V30 28430 C 2651.88 -0.635973 3.40817 0
M  V30 28431 C 2650.94 0.238222 4.28639 0
M  V30 28432 C 2650.17 -0.567214 5.30677 0
M  V30 28433 O 2650.4 -1.8023 5.41178 0
M  V30 28434 O 2649.33 0.0392394 6.01887 0
M  V30 28435 H 2653.16 1.02001 2.86059 0
M  V30 28436 H 2650.74 0.563188 1.38378 0
M  V30 28437 H 2652.62 -1.11783 4.06303 0
M  V30 28438 H 2651.3 -1.42394 2.90699 0
M  V30 28439 H 2650.2 0.767109 3.66151 0
M  V30 28440 H 2651.54 0.99 4.82141 0
M  V30 28441 N 2653.19 -1.47521 0.554558 0
M  V30 28442 C 2654.14 -2.31671 -0.207724 0
M  V30 28443 C 2655.13 -1.42762 -0.911888 0
M  V30 28444 O 2656.34 -1.59541 -0.833476 0
M  V30 28445 H 2652.71 -0.747082 -0.0858595 0
M  V30 28446 H 2654.68 -2.93812 0.52123 0
M  V30 28447 C 2653.43 -3.25359 -1.22624 0
M  V30 28448 H 2652.76 -3.93734 -0.693818 0
M  V30 28449 H 2654.2 -3.87076 -1.73055 0
M  V30 28450 C 2652.65 -2.48694 -2.27273 0
M  V30 28451 O 2653.18 -2.22947 -3.34152 0
M  V30 28452 N 2651.39 -2.0975 -2.01131 0
M  V30 28453 H 2650.94 -2.30889 -1.14228 0
M  V30 28454 H 2650.9 -1.58769 -2.71366 0
M  V30 28455 N 2654.67 -0.290879 -1.54892 0
M  V30 28456 C 2655.6 0.583044 -2.26104 0
M  V30 28457 C 2656.58 1.14617 -1.25686 0
M  V30 28458 O 2657.76 1.17739 -1.54439 0
M  V30 28459 C 2654.89 1.75982 -2.99412 0
M  V30 28460 C 2653.85 1.32751 -4.06892 0
M  V30 28461 C 2653.17 2.58864 -4.67861 0
M  V30 28462 C 2654.47 0.466148 -5.20216 0
M  V30 28463 H 2656.17 -0.0108741 -2.99398 0
M  V30 28464 H 2653.71 -0.00666999 -1.43998 0
M  V30 28465 H 2655.67 2.3772 -3.47947 0
M  V30 28466 H 2654.39 2.37981 -2.23679 0
M  V30 28467 H 2653.05 0.733236 -3.59192 0
M  V30 28468 H 2652.7 3.19156 -3.88778 0
M  V30 28469 H 2652.4 2.30644 -5.40442 0
M  V30 28470 H 2653.92 3.21424 -5.19152 0
M  V30 28471 H 2655.34 0.988948 -5.64706 0
M  V30 28472 H 2653.73 0.278155 -5.99455 0
M  V30 28473 H 2654.8 -0.511257 -4.82197 0
M  V30 28474 N 2656.15 1.57589 -0.0184203 0
M  V30 28475 C 2657.56 1.55983 0.33787 0
M  V30 28476 C 2657.76 1.02297 1.73602 0
M  V30 28477 O 2656.82 0.664938 2.43587 0
M  V30 28478 C 2658.13 3.00059 0.196253 0
M  V30 28479 C 2659.68 3.11835 0.26982 0
M  V30 28480 C 2660.15 4.5773 0.157117 0
M  V30 28481 N 2661.64 4.62703 0.214439 0
M  V30 28482 C 2662.38 5.73202 0.150854 0
M  V30 28483 N 2661.88 6.9279 0.0367994 0
M  V30 28484 N 2663.67 5.61729 0.204063 0
M  V30 28485 H 2655.82 1.9082 -0.932823 0
M  V30 28486 H 2658.08 0.877286 -0.359268 0
M  V30 28487 H 2657.79 3.43247 -0.766444 0
M  V30 28488 H 2657.66 3.64492 0.970844 0
M  V30 28489 H 2660.05 2.68566 1.22297 0
M  V30 28490 H 2660.13 2.50144 -0.534962 0
M  V30 28491 H 2659.77 5.01678 -0.792567 0
M  V30 28492 H 2659.7 5.17389 0.980626 0
M  V30 28493 H 2662.2 3.76682 0.303172 0
M  V30 28494 H 2662.51 7.728 -0.00531905 0
M  V30 28495 H 2660.85 6.95 0.00216644 0
M  V30 28496 H 2664.04 4.67192 0.291492 0
M  V30 28497 H 2664.22 6.47824 0.151046 0
M  V30 28498 N 2657.62 -0.254594 1.5553 0
M  V30 28499 C 2658.87 -0.981762 1.76652 0
M  V30 28500 C 2659.19 -1.86144 0.580996 0
M  V30 28501 O 2658.46 -1.91699 -0.403503 0
M  V30 28502 H 2657.04 -0.365487 0.651482 0
M  V30 28503 H 2659.7 -0.274392 1.92959 0
M  V30 28504 H 2658.8 -1.60798 2.67489 0
M  V30 28505 N 2659.1 -1.48777 -0.519925 0
M  V30 28506 C 2660.33 -1.61243 -1.30444 0
M  V30 28507 C 2660.75 -0.276624 -1.86055 0
M  V30 28508 O 2660.11 0.753154 -1.64916 0
M  V30 28509 C 2660.16 -2.66972 -2.42401 0
M  V30 28510 O 2659.26 -2.2483 -3.45724 0
M  V30 28511 H 2658.6 -0.540338 -0.385915 0
M  V30 28512 H 2661.13 -1.94835 -0.624538 0
M  V30 28513 H 2661.14 -2.88557 -2.88442 0
M  V30 28514 H 2659.82 -3.63945 -2.01288 0
M  V30 28515 H 2658.39 -2.13499 -3.05733 0
M  V30 28516 N 2660.58 0.769564 -1.37534 0
M  V30 28517 C 2661.83 1.52518 -1.326 0
M  V30 28518 C 2662.15 1.948 0.0883952 0
M  V30 28519 O 2661.42 1.6646 1.03286 0
M  V30 28520 H 2660 0.56569 -0.487856 0
M  V30 28521 H 2662.66 0.915775 -1.72045 0
M  V30 28522 H 2661.76 2.42356 -1.96647 0
M  V30 28523 N 2662.06 1.22139 0.995977 0
M  V30 28524 C 2662.99 0.931988 2.08301 0
M  V30 28525 C 2663.97 -0.123927 1.62127 0
M  V30 28526 O 2665.15 0.00699318 1.88499 0
M  V30 28527 C 2662.28 0.401127 3.36316 0
M  V30 28528 C 2661.33 1.44124 4.01411 0
M  V30 28529 S 2662.16 3.01353 4.42659 0
M  V30 28530 C 2663.32 2.49897 5.73849 0
M  V30 28531 H 2663.55 1.8525 2.32529 0
M  V30 28532 H 2661.08 1.05212 1.13003 0
M  V30 28533 H 2663.04 0.101424 4.10375 0
M  V30 28534 H 2661.7 -0.498217 3.10124 0
M  V30 28535 H 2660.89 1.01961 4.93579 0
M  V30 28536 H 2660.5 1.68949 3.33665 0
M  V30 28537 H 2662.79 1.90946 6.50035 0
M  V30 28538 H 2663.73 3.40543 6.20835 0
M  V30 28539 H 2664.14 1.91289 5.31101 0
M  V30 28540 N 2663.54 -1.19233 1.03059 0
M  V30 28541 C 2664.79 -1.88285 0.723293 0
M  V30 28542 C 2665.1 -1.80596 -0.751301 0
M  V30 28543 O 2666.3 -2.44914 -1.17172 0
M  V30 28544 C 2664.76 -3.37738 1.24344 0
M  V30 28545 C 2664.37 -3.53981 2.74594 0
M  V30 28546 C 2666.11 -4.12256 1.01221 0
M  V30 28547 C 2664.02 -4.97336 3.20017 0
M  V30 28548 H 2662.95 -0.705196 0.266861 0
M  V30 28549 H 2665.6 -1.34793 1.24511 0
M  V30 28550 H 2663.98 -3.90637 0.649526 0
M  V30 28551 H 2665.16 -3.11402 3.39655 0
M  V30 28552 H 2663.47 -2.92854 2.96016 0
M  V30 28553 H 2666.07 -5.17976 1.32684 0
M  V30 28554 H 2666.41 -4.16269 -0.0509279 0
M  V30 28555 H 2666.94 -3.65499 1.57021 0
M  V30 28556 H 2663.68 -4.98485 4.25667 0
M  V30 28557 H 2663.2 -5.4067 2.59685 0
M  V30 28558 H 2664.88 -5.65998 3.13457 0
M  V30 28559 N 2665.01 -0.808686 -1.3527 0
M  V30 28560 C 2665.98 -0.226133 -2.28082 0
M  V30 28561 C 2666.98 0.587735 -1.49674 0
M  V30 28562 O 2668.17 0.405913 -1.69405 0
M  V30 28563 C 2665.3 0.684537 -3.33956 0
M  V30 28564 H 2666.49 -1.04474 -2.81114 0
M  V30 28565 H 2664.05 -0.579491 -1.45161 0
M  V30 28566 H 2664.78 1.52675 -2.86113 0
M  V30 28567 H 2664.57 0.10263 -3.91966 0
M  V30 28568 H 2666.06 1.08639 -4.03221 0
M  V30 28569 N 2666.49 1.47225 -0.562374 0
M  V30 28570 C 2667.74 2.0206 -0.0401726 0
M  V30 28571 C 2668.06 1.43854 1.31648 0
M  V30 28572 O 2667.33 0.615632 1.85975 0
M  V30 28573 H 2665.91 0.746906 -0.011861 0
M  V30 28574 H 2668.57 1.80569 -0.733552 0
M  V30 28575 H 2667.67 3.12069 0.0440705 0
M  V30 28576 N 2667.97 0.299089 1.54736 0
M  V30 28577 C 2668.88 -0.587373 2.27128 0
M  V30 28578 C 2669.9 -1.15003 1.30577 0
M  V30 28579 O 2671.07 -1.17522 1.63556 0
M  V30 28580 C 2668.14 -1.7439 2.99648 0
M  V30 28581 C 2667.2 -1.21551 4.11733 0
M  V30 28582 C 2666.43 -2.31692 4.80786 0
M  V30 28583 O 2666.65 -3.51551 4.49186 0
M  V30 28584 O 2665.59 -1.98491 5.6823 0
M  V30 28585 H 2669.41 -0.000196726 3.037 0
M  V30 28586 H 2667 0.0656181 1.49256 0
M  V30 28587 H 2668.88 -2.41774 3.45142 0
M  V30 28588 H 2667.56 -2.31771 2.25973 0
M  V30 28589 H 2666.46 -0.507449 3.70642 0
M  V30 28590 H 2667.8 -0.687147 4.8738 0
M  V30 28591 N 2669.45 -1.57577 0.0267774 0
M  V30 28592 C 2670.67 -1.96409 -0.666193 0
M  V30 28593 C 2671.1 -0.9031 -1.65002 0
M  V30 28594 O 2670.46 0.136231 -1.80787 0
M  V30 28595 C 2670.5 -3.34338 -1.35095 0
M  V30 28596 O 2669.61 -3.30536 -2.46617 0
M  V30 28597 H 2668.95 -0.640471 -0.175194 0
M  V30 28598 H 2671.48 -2.04411 0.0879336 0
M  V30 28599 H 2671.49 -3.70516 -1.70828 0
M  V30 28600 H 2670.16 -4.11104 -0.629771 0
M  V30 28601 H 2668.74 -3.06072 -2.13013 0
M  V30 28602 N 2670.93 0.246342 -1.55663 0
M  V30 28603 C 2672.15 0.996061 -1.81916 0
M  V30 28604 C 2672.58 1.78142 -0.603906 0
M  V30 28605 O 2671.93 1.75702 0.44706 0
M  V30 28606 C 2671.98 1.9092 -3.05912 0
M  V30 28607 O 2671.09 3.001 -2.82866 0
M  V30 28608 H 2670.43 0.283396 -0.600486 0
M  V30 28609 H 2672.96 0.267163 -2.02848 0
M  V30 28610 H 2672.97 2.32374 -3.3536 0
M  V30 28611 H 2671.64 1.33176 -3.94001 0
M  V30 28612 H 2670.22 2.6277 -2.64587 0
M  V30 28613 N 2672.4 1.4905 0.512027 0
M  V30 28614 C 2673.33 1.67812 1.62362 0
M  V30 28615 C 2674.32 0.526837 1.61736 0
M  V30 28616 O 2675.5 0.761435 1.7865 0
M  V30 28617 C 2672.63 1.7344 3.00892 0
M  V30 28618 C 2671.58 2.88248 3.16382 0
M  V30 28619 C 2670.91 2.7898 4.56152 0
M  V30 28620 C 2672.21 4.29327 2.97449 0
M  V30 28621 H 2673.9 2.60875 1.46916 0
M  V30 28622 H 2671.45 1.25542 0.705357 0
M  V30 28623 H 2673.4 1.85152 3.78546 0
M  V30 28624 H 2672.13 0.769675 3.17401 0
M  V30 28625 H 2670.79 2.7612 2.4115 0
M  V30 28626 H 2670.43 1.80438 4.69522 0
M  V30 28627 H 2670.13 3.56029 4.67458 0
M  V30 28628 H 2671.66 2.92684 5.35881 0
M  V30 28629 H 2673.07 4.42193 3.64881 0
M  V30 28630 H 2671.47 5.07513 3.20236 0
M  V30 28631 H 2672.54 4.44539 1.93684 0
M  V30 28632 N 2673.88 -0.762259 1.3794 0
M  V30 28633 C 2674.85 -1.85744 1.34282 0
M  V30 28634 C 2675.85 -1.58923 0.244997 0
M  V30 28635 O 2677.04 -1.66828 0.501394 0
M  V30 28636 C 2674.17 -3.23059 1.08838 0
M  V30 28637 H 2675.36 -1.90397 2.31709 0
M  V30 28638 H 2672.91 -0.963035 1.23107 0
M  V30 28639 H 2673.65 -3.24079 0.119824 0
M  V30 28640 H 2673.43 -3.4392 1.88312 0
M  V30 28641 H 2674.92 -4.03137 1.08953 0
M  V30 28642 N 2675.36 -1.22666 -0.989486 0
M  V30 28643 C 2676.59 -1.07813 -1.76238 0
M  V30 28644 C 2677 0.374003 -1.85467 0
M  V30 28645 O 2676.34 1.27085 -1.32647 0
M  V30 28646 C 2676.4 -1.61855 -3.21004 0
M  V30 28647 C 2676.07 -3.10509 -3.35311 0
M  V30 28648 C 2677.06 -4.07901 -3.22354 0
M  V30 28649 C 2674.75 -3.50034 -3.60252 0
M  V30 28650 C 2676.74 -5.42804 -3.34129 0
M  V30 28651 C 2674.43 -4.85084 -3.71667 0
M  V30 28652 C 2675.43 -5.81278 -3.58615 0
M  V30 28653 O 2675.12 -7.13876 -3.69643 0
M  V30 28654 H 2674.85 -0.378351 -0.560202 0
M  V30 28655 H 2677.4 -1.62794 -1.25249 0
M  V30 28656 H 2675.63 -1.01285 -3.732 0
M  V30 28657 H 2677.32 -1.42613 -3.80021 0
M  V30 28658 H 2678.09 -3.78709 -3.02993 0
M  V30 28659 H 2673.97 -2.75682 -3.69487 0
M  V30 28660 H 2677.51 -6.17869 -3.23858 0
M  V30 28661 H 2673.41 -5.13957 -3.90536 0
M  V30 28662 H 2674.18 -7.21501 -3.86494 0
M  V30 28663 N 2676.84 1.18685 -1.0369 0
M  V30 28664 C 2677.79 2.24231 -0.618331 0
M  V30 28665 C 2678.78 1.65681 0.353016 0
M  V30 28666 O 2679.99 1.78642 0.220718 0
M  V30 28667 H 2676.36 0.729713 -0.181723 0
M  V30 28668 H 2678.33 2.56846 -1.51898 0
M  V30 28669 C 2677.08 3.47699 0.00671231 0
M  V30 28670 H 2676.41 3.93046 -0.731761 0
M  V30 28671 H 2677.85 4.23187 0.262417 0
M  V30 28672 C 2676.3 3.12625 1.25567 0
M  V30 28673 O 2676.83 3.26015 2.34685 0
M  V30 28674 N 2675.04 2.66984 1.1475 0
M  V30 28675 H 2674.59 2.56289 0.259556 0
M  V30 28676 H 2674.55 2.43888 1.98408 0
M  V30 28677 N 2678.32 0.815849 1.34839 0
M  V30 28678 C 2679.23 0.234503 2.33425 0
M  V30 28679 C 2680.24 -0.627384 1.62296 0
M  V30 28680 O 2681.42 -0.536953 1.9411 0
M  V30 28681 C 2678.48 -0.599789 3.41472 0
M  V30 28682 C 2677.55 0.283671 4.28362 0
M  V30 28683 C 2676.78 -0.510897 5.31249 0
M  V30 28684 O 2677 -1.7448 5.43059 0
M  V30 28685 O 2675.94 0.103075 6.01812 0
M  V30 28686 H 2679.76 1.05029 2.84961 0
M  V30 28687 H 2677.35 0.577834 1.37773 0
M  V30 28688 H 2679.23 -1.07468 4.07466 0
M  V30 28689 H 2677.9 -1.39302 2.92193 0
M  V30 28690 H 2676.81 0.805901 3.65316 0
M  V30 28691 H 2678.14 1.04108 4.81064 0
M  V30 28692 N 2679.8 -1.46924 0.570174 0
M  V30 28693 C 2681.04 -2.01641 0.0487707 0
M  V30 28694 C 2681.36 -1.44863 -1.3143 0
M  V30 28695 O 2682.56 -1.91322 -1.92635 0
M  V30 28696 C 2681.02 -3.59881 0.036645 0
M  V30 28697 C 2680.63 -4.25653 1.39727 0
M  V30 28698 C 2682.37 -4.22302 -0.43147 0
M  V30 28699 C 2680.28 -5.75936 1.34355 0
M  V30 28700 H 2679.21 -0.753861 0.0144625 0
M  V30 28701 H 2681.86 -1.68786 0.719957 0
M  V30 28702 H 2680.24 -3.89756 -0.700454 0
M  V30 28703 H 2681.42 -4.07404 2.15311 0
M  V30 28704 H 2679.73 -3.75275 1.80438 0
M  V30 28705 H 2682.33 -5.32448 -0.49026 0
M  V30 28706 H 2682.67 -3.90369 -1.44631 0
M  V30 28707 H 2683.2 -3.97006 0.251171 0
M  V30 28708 H 2679.94 -6.12509 2.33479 0
M  V30 28709 H 2679.46 -5.96485 0.62972 0
M  V30 28710 H 2681.14 -6.38405 1.05111 0
M  V30 28711 N 2681.27 -0.307291 -1.54575 0
M  V30 28712 C 2682.52 0.300941 -1.99442 0
M  V30 28713 C 2682.84 1.54518 -1.19931 0
M  V30 28714 O 2684.04 2.2284 -1.55096 0
M  V30 28715 C 2682.5 0.586747 -3.55085 0
M  V30 28716 C 2682.11 -0.639516 -4.43412 0
M  V30 28717 C 2683.85 1.15583 -4.08462 0
M  V30 28718 C 2681.76 -0.326514 -5.90498 0
M  V30 28719 H 2680.69 0.116225 -0.744988 0
M  V30 28720 H 2683.34 -0.416978 -1.787 0
M  V30 28721 H 2681.72 1.36443 -3.71752 0
M  V30 28722 H 2682.89 -1.41553 -4.3852 0
M  V30 28723 H 2681.21 -1.12767 -4.0084 0
M  V30 28724 H 2683.81 1.40436 -5.15928 0
M  V30 28725 H 2684.15 2.10009 -3.59447 0
M  V30 28726 H 2684.68 0.439709 -3.95362 0
M  V30 28727 H 2681.42 -1.23951 -6.43674 0
M  V30 28728 H 2680.94 0.412107 -5.98383 0
M  V30 28729 H 2682.62 0.0696256 -6.46963 0
M  V30 28730 N 2682.75 1.57561 -0.0351337 0
M  V30 28731 C 2683.98 1.96351 0.652223 0
M  V30 28732 C 2684.39 0.911926 1.65316 0
M  V30 28733 O 2683.75 -0.105625 1.82194 0
M  V30 28734 C 2683.8 3.35213 1.35331 0
M  V30 28735 O 2683.52 4.36338 0.392472 0
M  V30 28736 C 2685.02 3.88669 2.13192 0
M  V30 28737 H 2682.24 0.646564 0.179433 0
M  V30 28738 H 2684.79 2.04271 -0.0966819 0
M  V30 28739 H 2682.94 3.28493 2.05356 0
M  V30 28740 H 2683.36 5.16877 0.891007 0
M  V30 28741 H 2684.83 4.88159 2.57691 0
M  V30 28742 H 2685.31 3.23236 2.97347 0
M  V30 28743 H 2685.91 3.98677 1.48111 0
M  V30 28744 N 2684.23 -0.238084 1.55791 0
M  V30 28745 C 2685.48 -0.962837 1.77235 0
M  V30 28746 C 2685.79 -1.86148 0.600694 0
M  V30 28747 O 2687 -2.62365 0.698361 0
M  V30 28748 C 2685.45 -1.76213 3.13811 0
M  V30 28749 C 2685.06 -0.910441 4.38651 0
M  V30 28750 C 2686.81 -2.47908 3.44589 0
M  V30 28751 C 2684.71 -1.70613 5.66255 0
M  V30 28752 H 2683.64 -0.363238 0.660737 0
M  V30 28753 H 2686.29 -0.21721 1.8221 0
M  V30 28754 H 2684.68 -2.55004 3.02967 0
M  V30 28755 H 2685.85 -0.164235 4.60507 0
M  V30 28756 H 2684.16 -0.306397 4.15271 0
M  V30 28757 H 2686.76 -3.07909 4.37145 0
M  V30 28758 H 2687.1 -3.19968 2.6632 0
M  V30 28759 H 2687.64 -1.76121 3.56688 0
M  V30 28760 H 2684.38 -1.02911 6.47371 0
M  V30 28761 H 2683.9 -2.42738 5.48487 0
M  V30 28762 H 2685.58 -2.27103 6.05833 0
M  V30 28763 N 2685.71 -1.4932 -0.504115 0
M  V30 28764 C 2686.93 -1.62617 -1.28726 0
M  V30 28765 C 2687.36 -0.296342 -1.85751 0
M  V30 28766 O 2686.72 0.73562 -1.65706 0
M  V30 28767 C 2686.76 -2.69528 -2.39556 0
M  V30 28768 O 2685.87 -2.28484 -3.4332 0
M  V30 28769 H 2685.21 -0.544401 -0.380162 0
M  V30 28770 H 2687.74 -1.95486 -0.603838 0
M  V30 28771 H 2687.75 -2.916 -2.85365 0
M  V30 28772 H 2686.42 -3.66059 -1.97417 0
M  V30 28773 H 2685 -2.1673 -3.03451 0
M  V30 28774 N 2687.19 0.754933 -1.38342 0
M  V30 28775 C 2688.12 1.88225 -1.3818 0
M  V30 28776 C 2689.1 1.68284 -0.247902 0
M  V30 28777 O 2690.28 1.88896 -0.450784 0
M  V30 28778 C 2687.41 3.25734 -1.20477 0
M  V30 28779 C 2686.37 3.60274 -2.31056 0
M  V30 28780 C 2685.69 4.96505 -1.9846 0
M  V30 28781 C 2686.99 3.65289 -3.73312 0
M  V30 28782 H 2688.69 1.88618 -2.32516 0
M  V30 28783 H 2686.23 0.906062 -1.11922 0
M  V30 28784 H 2688.18 4.04252 -1.18989 0
M  V30 28785 H 2686.91 3.25817 -0.226023 0
M  V30 28786 H 2685.57 2.84074 -2.31728 0
M  V30 28787 H 2685.22 4.93147 -0.990728 0
M  V30 28788 H 2684.92 5.20584 -2.72519 0
M  V30 28789 H 2686.44 5.77404 -1.98588 0
M  V30 28790 H 2687.85 4.33923 -3.74678 0
M  V30 28791 H 2686.25 4.00875 -4.46564 0
M  V30 28792 H 2687.32 2.65549 -4.05724 0
M  V30 28793 N 2688.66 1.23189 0.982967 0
M  V30 28794 C 2689.91 1.06401 1.72646 0
M  V30 28795 C 2690.24 -0.398528 1.90067 0
M  V30 28796 O 2689.52 -1.29515 1.45107 0
M  V30 28797 C 2689.8 1.78713 3.12624 0
M  V30 28798 C 2689.65 3.32624 3.02789 0
M  V30 28799 C 2690.97 1.54754 4.11994 0
M  V30 28800 H 2688.09 0.387929 0.626642 0
M  V30 28801 H 2690.73 1.5166 1.14452 0
M  V30 28802 H 2688.88 1.4024 3.62305 0
M  V30 28803 H 2690.56 3.80602 2.60652 0
M  V30 28804 H 2688.8 3.61789 2.39356 0
M  V30 28805 H 2689.47 3.78407 4.01886 0
M  V30 28806 H 2691.95 1.88192 3.7111 0
M  V30 28807 H 2690.82 2.0783 5.08033 0
M  V30 28808 H 2691.08 0.482326 4.39461 0
M  V30 28809 N 2690.14 -1.18133 1.04318 0
M  V30 28810 C 2691.37 -1.92112 0.768151 0
M  V30 28811 C 2691.78 -1.7632 -0.675026 0
M  V30 28812 O 2691.14 -1.09452 -1.46036 0
M  V30 28813 C 2691.19 -3.43446 1.12814 0
M  V30 28814 O 2690.91 -3.58743 2.51466 0
M  V30 28815 C 2692.41 -4.34519 0.877976 0
M  V30 28816 H 2689.63 -0.609812 0.279948 0
M  V30 28817 H 2692.18 -1.49857 1.39151 0
M  V30 28818 H 2690.33 -3.8348 0.549691 0
M  V30 28819 H 2690.75 -4.52443 2.65321 0
M  V30 28820 H 2692.22 -5.39247 1.17969 0
M  V30 28821 H 2692.7 -4.38801 -0.187162 0
M  V30 28822 H 2693.3 -4.00186 1.43984 0
M  V30 28823 N 2691.62 -0.822988 -1.34405 0
M  V30 28824 C 2692.86 -0.41695 -2.00102 0
M  V30 28825 C 2693.22 1.00122 -1.63828 0
M  V30 28826 O 2694.43 1.51014 -2.22369 0
M  V30 28827 C 2692.7 -0.613212 -3.521 0
M  V30 28828 S 2694.26 -0.300033 -4.37773 0
M  V30 28829 H 2691.07 -0.15754 -0.693327 0
M  V30 28830 H 2693.68 -1.06882 -1.63697 0
M  V30 28831 H 2692.38 -1.64503 -3.75988 0
M  V30 28832 H 2691.91 0.0533863 -3.93364 0
M  V30 28833 H 2693.93 0.88625 -4.88221 0
M  V30 28834 N 2693.1 1.4662 -0.577957 0
M  V30 28835 C 2694.51 1.57796 -0.239269 0
M  V30 28836 C 2694.71 1.57374 1.2584 0
M  V30 28837 O 2693.77 1.48817 2.03985 0
M  V30 28838 C 2695.08 2.87404 -0.884277 0
M  V30 28839 C 2696.63 3.01027 -0.857426 0
M  V30 28840 C 2697.11 4.33364 -1.48189 0
M  V30 28841 N 2698.6 4.40051 -1.44601 0
M  V30 28842 C 2699.33 5.41055 -1.89862 0
M  V30 28843 N 2698.83 6.48758 -2.43073 0
M  V30 28844 N 2700.62 5.32227 -1.80807 0
M  V30 28845 H 2692.77 1.45139 -1.55076 0
M  V30 28846 H 2695.04 0.692033 -0.647916 0
M  V30 28847 H 2694.74 2.9351 -1.93764 0
M  V30 28848 H 2694.62 3.75182 -0.389651 0
M  V30 28849 H 2697 2.94505 0.187305 0
M  V30 28850 H 2697.08 2.14737 -1.39002 0
M  V30 28851 H 2696.73 4.40643 -2.52579 0
M  V30 28852 H 2696.66 5.1842 -0.924555 0
M  V30 28853 H 2699.15 3.62817 -1.057 0
M  V30 28854 H 2699.46 7.22033 -2.75479 0
M  V30 28855 H 2697.81 6.49591 -2.47096 0
M  V30 28856 H 2701 4.46987 -1.38997 0
M  V30 28857 H 2701.17 6.108 -2.16396 0
M  V30 28858 N 2694.58 0.315484 1.5441 0
M  V30 28859 C 2695.54 -0.541381 2.22714 0
M  V30 28860 C 2696.54 -1.04993 1.21792 0
M  V30 28861 O 2697.73 -0.943641 1.46428 0
M  V30 28862 C 2694.86 -1.75111 2.92488 0
M  V30 28863 H 2696.05 0.0556036 2.99848 0
M  V30 28864 H 2693.61 0.0664727 1.56159 0
M  V30 28865 H 2694.34 -2.38754 2.1947 0
M  V30 28866 H 2694.13 -1.39395 3.66485 0
M  V30 28867 H 2695.62 -2.35953 3.44552 0
M  V30 28868 N 2696.05 -1.5754 0.0434891 0
M  V30 28869 C 2697.3 -1.91562 -0.63142 0
M  V30 28870 C 2697.62 -0.92295 -1.72456 0
M  V30 28871 O 2698.82 -1.15494 -2.4571 0
M  V30 28872 C 2697.28 -3.402 -1.17441 0
M  V30 28873 C 2696.89 -4.47855 -0.113788 0
M  V30 28874 C 2698.63 -3.83267 -1.825 0
M  V30 28875 C 2696.54 -5.87601 -0.669222 0
M  V30 28876 H 2695.47 -0.714912 -0.239617 0
M  V30 28877 H 2698.12 -1.83163 0.111129 0
M  V30 28878 H 2696.5 -3.43577 -1.96903 0
M  V30 28879 H 2697.67 -4.56057 0.659428 0
M  V30 28880 H 2695.99 -4.14081 0.438894 0
M  V30 28881 H 2698.59 -4.85038 -2.25038 0
M  V30 28882 H 2698.93 -3.191 -2.6736 0
M  V30 28883 H 2699.46 -3.82374 -1.09706 0
M  V30 28884 H 2696.2 -6.55347 0.141564 0
M  V30 28885 H 2695.72 -5.82977 -1.4106 0
M  V30 28886 H 2697.4 -6.36616 -1.15451 0
M  V30 28887 N 2697.53 0.229818 -1.55915 0
M  V30 28888 C 2698.78 0.953534 -1.78191 0
M  V30 28889 C 2699.1 1.85196 -0.610536 0
M  V30 28890 O 2698.37 1.92317 0.372955 0
M  V30 28891 H 2696.95 0.355076 -0.657214 0
M  V30 28892 H 2699.61 0.243659 -1.93371 0
M  V30 28893 H 2698.71 1.56522 -2.70014 0
M  V30 28894 N 2699.01 1.49585 0.49619 0
M  V30 28895 C 2700.26 1.58561 1.24665 0
M  V30 28896 C 2700.57 0.279737 1.93589 0
M  V30 28897 O 2701.78 0.248095 2.70364 0
M  V30 28898 C 2700.23 2.79783 2.26384 0
M  V30 28899 C 2699.84 4.17148 1.63377 0
M  V30 28900 C 2701.59 2.98091 3.02228 0
M  V30 28901 C 2699.49 5.29587 2.63234 0
M  V30 28902 H 2698.42 0.590397 0.468985 0
M  V30 28903 H 2701.07 1.75979 0.519954 0
M  V30 28904 H 2699.46 2.55869 3.02237 0
M  V30 28905 H 2700.63 4.51218 0.934831 0
M  V30 28906 H 2698.95 4.04237 0.99905 0
M  V30 28907 H 2701.54 3.79264 3.76913 0
M  V30 28908 H 2701.89 2.08838 3.60129 0
M  V30 28909 H 2702.42 3.22067 2.3349 0
M  V30 28910 H 2699.16 6.20915 2.10108 0
M  V30 28911 H 2698.68 4.99965 3.31354 0
M  V30 28912 H 2700.36 5.59121 3.25566 0
M  V30 28913 N 2700.49 -0.747586 1.3874 0
M  V30 28914 C 2701.74 -1.50389 1.3501 0
M  V30 28915 C 2702.06 -1.94916 -0.0573931 0
M  V30 28916 O 2701.33 -1.68082 -1.00625 0
M  V30 28917 H 2699.91 -0.557857 0.496794 0
M  V30 28918 H 2702.57 -0.888289 1.7348 0
M  V30 28919 H 2701.67 -2.39196 2.00478 0
M  V30 28920 N 2701.97 -1.23709 -0.97642 0
M  V30 28921 C 2702.93 -1.02291 -2.05108 0
M  V30 28922 C 2703.93 0.0166912 -1.60791 0
M  V30 28923 O 2705.12 -0.223438 -1.72761 0
M  V30 28924 C 2702.25 -0.548566 -3.36457 0
M  V30 28925 H 2703.44 -1.97664 -2.25542 0
M  V30 28926 H 2701 -1.05808 -1.1504 0
M  V30 28927 H 2701.73 0.408761 -3.21714 0
M  V30 28928 H 2701.52 -1.2988 -3.69964 0
M  V30 28929 H 2703.01 -0.419479 -4.15488 0
M  V30 28930 N 2703.44 1.17579 -1.04943 0
M  V30 28931 C 2704.67 1.91424 -0.777199 0
M  V30 28932 C 2705.08 1.76916 0.670616 0
M  V30 28933 O 2704.43 1.10216 1.46963 0
M  V30 28934 C 2704.49 3.43051 -1.07501 0
M  V30 28935 C 2704.15 3.8134 -2.5185 0
M  V30 28936 C 2705.15 3.84394 -3.50054 0
M  V30 28937 C 2702.83 4.12377 -2.86794 0
M  V30 28938 C 2704.83 4.17948 -4.81246 0
M  V30 28939 C 2702.51 4.45601 -4.1819 0
M  V30 28940 C 2703.51 4.48364 -5.15227 0
M  V30 28941 O 2703.2 4.80807 -6.44267 0
M  V30 28942 H 2702.93 0.61427 -0.28222 0
M  V30 28943 H 2705.49 1.50054 -1.4026 0
M  V30 28944 H 2703.72 3.84703 -0.392504 0
M  V30 28945 H 2705.41 3.98154 -0.78919 0
M  V30 28946 H 2706.17 3.60543 -3.24398 0
M  V30 28947 H 2702.05 4.09398 -2.11929 0
M  V30 28948 H 2705.59 4.2002 -5.56982 0
M  V30 28949 H 2701.49 4.68914 -4.4361 0
M  V30 28950 H 2702.26 4.98675 -6.4905 0
M  V30 28951 N 2704.92 0.830104 1.33967 0
M  V30 28952 C 2705.85 0.271951 2.31911 0
M  V30 28953 C 2706.83 -0.615532 1.58572 0
M  V30 28954 O 2708.02 -0.540914 1.86515 0
M  V30 28955 C 2705.15 -0.561086 3.42738 0
M  V30 28956 C 2704.1 0.229864 4.27382 0
M  V30 28957 C 2703.43 -0.72637 5.29743 0
M  V30 28958 C 2704.73 1.44206 5.01998 0
M  V30 28959 H 2706.42 1.0903 2.78842 0
M  V30 28960 H 2703.97 0.525733 1.3406 0
M  V30 28961 H 2705.92 -0.961795 4.10277 0
M  V30 28962 H 2704.65 -1.41256 2.94473 0
M  V30 28963 H 2703.3 0.612028 3.61455 0
M  V30 28964 H 2702.95 -1.574 4.77739 0
M  V30 28965 H 2702.65 -0.201317 5.87255 0
M  V30 28966 H 2704.18 -1.12478 6.00151 0
M  V30 28967 H 2705.59 1.11498 5.62353 0
M  V30 28968 H 2703.99 1.90327 5.69118 0
M  V30 28969 H 2705.06 2.21648 4.31277 0
M  V30 28970 N 2706.4 -1.46311 0.585725 0
M  V30 28971 C 2707.65 -2.0267 0.072564 0
M  V30 28972 C 2707.98 -1.45589 -1.28521 0
M  V30 28973 O 2707.26 -0.622134 -1.84282 0
M  V30 28974 C 2707.54 -3.60099 0.0100421 0
M  V30 28975 C 2707.39 -4.27558 1.39693 0
M  V30 28976 C 2708.71 -4.34673 -0.68904 0
M  V30 28977 H 2705.83 -0.736474 0.0278436 0
M  V30 28978 H 2708.47 -1.7442 0.753503 0
M  V30 28979 H 2706.62 -3.84298 -0.569852 0
M  V30 28980 H 2708.29 -4.14613 2.02222 0
M  V30 28981 H 2706.54 -3.86804 1.9638 0
M  V30 28982 H 2707.21 -5.36337 1.30562 0
M  V30 28983 H 2709.68 -4.15636 -0.196373 0
M  V30 28984 H 2708.56 -5.44395 -0.701825 0
M  V30 28985 H 2708.82 -4.05949 -1.75094 0
M  V30 28986 N 2707.88 -0.323668 -1.54241 0
M  V30 28987 C 2709.3 0.0289737 -1.59574 0
M  V30 28988 C 2709.5 1.50469 -1.3402 0
M  V30 28989 O 2708.55 2.26069 -1.12468 0
M  V30 28990 C 2709.86 -0.389348 -2.98169 0
M  V30 28991 C 2711.41 -0.340013 -3.11148 0
M  V30 28992 C 2711.89 -0.733498 -4.52088 0
M  V30 28993 N 2713.38 -0.686907 -4.58078 0
M  V30 28994 C 2714.11 -0.963564 -5.65246 0
M  V30 28995 N 2713.61 -1.30736 -6.80353 0
M  V30 28996 N 2715.4 -0.889118 -5.55024 0
M  V30 28997 H 2707.55 -1.28515 -1.69108 0
M  V30 28998 H 2709.82 -0.522572 -0.790963 0
M  V30 28999 H 2709.52 -1.41752 -3.21868 0
M  V30 29000 H 2709.4 0.245591 -3.764 0
M  V30 29001 H 2711.78 0.678952 -2.87183 0
M  V30 29002 H 2711.86 -1.00989 -2.35021 0
M  V30 29003 H 2711.51 -1.75038 -4.76785 0
M  V30 29004 H 2711.44 -0.0413115 -5.26584 0
M  V30 29005 H 2713.93 -0.433046 -3.75411 0
M  V30 29006 H 2714.24 -1.50383 -7.58027 0
M  V30 29007 H 2712.59 -1.34562 -6.81849 0
M  V30 29008 H 2715.78 -0.62002 -4.63976 0
M  V30 29009 H 2715.95 -1.10808 -6.38456 0
M  V30 29010 N 2709.36 1.57515 -0.0518432 0
M  V30 29011 C 2710.29 2.14601 0.920246 0
M  V30 29012 C 2711.27 1.06785 1.32404 0
M  V30 29013 O 2712.45 1.34728 1.39864 0
M  V30 29014 C 2709.58 2.69154 2.19485 0
M  V30 29015 C 2708.54 3.81959 1.93109 0
M  V30 29016 C 2707.86 4.23031 3.2703 0
M  V30 29017 C 2709.16 5.07068 1.25217 0
M  V30 29018 H 2710.86 2.96078 0.444749 0
M  V30 29019 H 2708.4 1.42424 0.212483 0
M  V30 29020 H 2710.36 3.0773 2.87889 0
M  V30 29021 H 2709.08 1.8487 2.69241 0
M  V30 29022 H 2707.74 3.43856 1.27117 0
M  V30 29023 H 2707.39 3.35697 3.74589 0
M  V30 29024 H 2707.09 4.99061 3.1018 0
M  V30 29025 H 2708.61 4.64209 3.96665 0
M  V30 29026 H 2710.03 5.43087 1.83656 0
M  V30 29027 H 2708.42 5.88245 1.18691 0
M  V30 29028 H 2709.49 4.84362 0.228297 0
M  V30 29029 N 2710.84 -0.221546 1.56035 0
M  V30 29030 C 2712.08 -0.94407 1.78695 0
M  V30 29031 C 2712.4 -1.84869 0.620349 0
M  V30 29032 O 2711.67 -1.92512 -0.36275 0
M  V30 29033 H 2710.25 -0.351585 0.659088 0
M  V30 29034 H 2712.92 -0.233401 1.93497 0
M  V30 29035 H 2712.01 -1.55088 2.7084 0
M  V30 29036 N 2712.31 -1.49846 -0.48825 0
M  V30 29037 C 2713.25 -1.63587 -1.60536 0
M  V30 29038 C 2714.26 -0.517999 -1.54339 0
M  V30 29039 O 2715.45 -0.790544 -1.6004 0
M  V30 29040 C 2712.55 -1.5884 -2.99371 0
M  V30 29041 C 2711.72 -2.86374 -3.30619 0
M  V30 29042 C 2710.78 -2.74504 -4.48925 0
M  V30 29043 O 2709.81 -3.48451 -4.50078 0
M  V30 29044 N 2711.01 -1.86904 -5.49588 0
M  V30 29045 H 2713.77 -2.59938 -1.49171 0
M  V30 29046 H 2711.33 -1.47095 -0.676365 0
M  V30 29047 H 2713.33 -1.48536 -3.76456 0
M  V30 29048 H 2711.9 -0.702946 -3.04594 0
M  V30 29049 H 2711.12 -3.10934 -2.42309 0
M  V30 29050 H 2712.4 -3.70898 -3.48299 0
M  V30 29051 H 2711.8 -1.26107 -5.51465 0
M  V30 29052 H 2710.36 -1.82514 -6.25725 0
M  V30 29053 N 2713.79 0.740218 -1.39135 0
M  V30 29054 C 2715.21 1.04507 -1.20625 0
M  V30 29055 C 2715.41 2.01398 -0.0642005 0
M  V30 29056 O 2714.46 2.45611 0.5858 0
M  V30 29057 C 2715.78 1.61236 -2.53818 0
M  V30 29058 C 2717.32 1.73342 -2.60618 0
M  V30 29059 C 2717.8 2.33479 -3.94019 0
M  V30 29060 N 2719.29 2.40895 -3.95631 0
M  V30 29061 C 2720.03 2.88352 -4.95621 0
M  V30 29062 N 2719.52 3.35745 -6.06009 0
M  V30 29063 N 2721.31 2.87514 -4.83003 0
M  V30 29064 H 2713.47 0.0975203 -2.12176 0
M  V30 29065 H 2715.73 0.105888 -0.942068 0
M  V30 29066 H 2715.43 0.975085 -3.37913 0
M  V30 29067 H 2715.31 2.60115 -2.73166 0
M  V30 29068 H 2717.7 2.36192 -1.7691 0
M  V30 29069 H 2717.78 0.731293 -2.45124 0
M  V30 29070 H 2717.42 1.71258 -4.78156 0
M  V30 29071 H 2717.35 3.34359 -4.06831 0
M  V30 29072 H 2719.84 2.07392 -3.15907 0
M  V30 29073 H 2720.15 3.70452 -6.78222 0
M  V30 29074 H 2718.5 3.33768 -6.0961 0
M  V30 29075 H 2721.69 2.49809 -3.9587 0
M  V30 29076 H 2721.86 3.24186 -5.61077 0
M  V30 29077 N 2715.27 1.24225 0.969846 0
M  V30 29078 C 2716.5 1.10764 1.74754 0
M  V30 29079 C 2716.91 -0.340008 1.85713 0
M  V30 29080 O 2716.27 -1.23472 1.34391 0
M  V30 29081 C 2716.32 1.73922 3.16912 0
M  V30 29082 O 2716.04 3.13027 3.06506 0
M  V30 29083 C 2717.54 1.66043 4.11029 0
M  V30 29084 H 2714.76 0.387097 0.548085 0
M  V30 29085 H 2717.31 1.64288 1.21777 0
M  V30 29086 H 2715.46 1.24406 3.66881 0
M  V30 29087 H 2715.88 3.43841 3.96073 0
M  V30 29088 H 2717.35 2.1492 5.08442 0
M  V30 29089 H 2717.83 0.621235 4.34784 0
M  V30 29090 H 2718.43 2.14975 3.66968 0
M  V30 29091 N 2716.75 -1.1702 1.05565 0
M  V30 29092 C 2718 -1.86709 0.763069 0
M  V30 29093 C 2718.31 -1.82149 -0.712825 0
M  V30 29094 O 2719.52 -2.47345 -1.1195 0
M  V30 29095 C 2717.97 -3.35024 1.3148 0
M  V30 29096 C 2717.58 -3.48077 2.8204 0
M  V30 29097 C 2719.32 -4.10016 1.09942 0
M  V30 29098 C 2717.23 -4.90436 3.30495 0
M  V30 29099 H 2716.16 -0.699377 0.281759 0
M  V30 29100 H 2718.81 -1.32122 1.27342 0
M  V30 29101 H 2717.19 -3.89171 0.73224 0
M  V30 29102 H 2718.37 -3.04127 3.46184 0
M  V30 29103 H 2716.68 -2.8651 3.02161 0
M  V30 29104 H 2719.28 -5.15045 1.43641 0
M  V30 29105 H 2719.62 -4.16283 0.0373804 0
M  V30 29106 H 2720.16 -3.62086 1.64738 0
M  V30 29107 H 2716.89 -4.89344 4.36145 0
M  V30 29108 H 2716.41 -5.3504 2.71095 0
M  V30 29109 H 2718.09 -5.59222 3.25392 0
M  V30 29110 N 2718.23 -0.837197 -1.33524 0
M  V30 29111 C 2719.16 -0.226619 -2.28077 0
M  V30 29112 C 2720.17 0.59169 -1.51667 0
M  V30 29113 O 2721.36 0.419034 -1.73512 0
M  V30 29114 C 2718.46 0.699722 -3.31598 0
M  V30 29115 C 2717.63 -0.0788836 -4.37329 0
M  V30 29116 C 2716.69 0.770546 -5.20528 0
M  V30 29117 O 2715.72 0.210353 -5.68811 0
M  V30 29118 N 2716.92 2.08816 -5.41642 0
M  V30 29119 H 2719.68 -1.03902 -2.81113 0
M  V30 29120 H 2717.25 -0.695502 -1.462 0
M  V30 29121 H 2719.24 1.27291 -3.8416 0
M  V30 29122 H 2717.81 1.41284 -2.78851 0
M  V30 29123 H 2717.03 -0.833449 -3.85289 0
M  V30 29124 H 2718.32 -0.614327 -5.05078 0
M  V30 29125 H 2717.71 2.56684 -5.04113 0
M  V30 29126 H 2716.27 2.60987 -5.97268 0
M  V30 29127 N 2719.7 1.45999 -0.593476 0
M  V30 29128 C 2720.95 2.02629 -0.0833111 0
M  V30 29129 C 2721.28 1.46268 1.27747 0
M  V30 29130 O 2720.56 0.631898 1.83949 0
M  V30 29131 C 2720.84 3.60088 -0.0291389 0
M  V30 29132 C 2720.69 4.26811 -1.41958 0
M  V30 29133 C 2722.01 4.35032 0.665979 0
M  V30 29134 H 2719.13 0.736316 -0.031749 0
M  V30 29135 H 2721.77 1.74018 -0.762742 0
M  V30 29136 H 2719.92 3.84595 0.549464 0
M  V30 29137 H 2721.6 4.13535 -2.04418 0
M  V30 29138 H 2719.84 3.85757 -1.98429 0
M  V30 29139 H 2720.51 5.35637 -1.33405 0
M  V30 29140 H 2722.99 4.15735 0.174328 0
M  V30 29141 H 2721.86 5.44759 0.672945 0
M  V30 29142 H 2722.12 4.06872 1.72938 0
M  V30 29143 N 2721.18 0.331843 1.54067 0
M  V30 29144 C 2722.09 -0.539064 2.28323 0
M  V30 29145 C 2723.11 -1.12207 1.32987 0
M  V30 29146 O 2724.28 -1.14027 1.66012 0
M  V30 29147 C 2721.35 -1.67994 3.0328 0
M  V30 29148 C 2720.41 -1.1279 4.14218 0
M  V30 29149 C 2719.64 -2.21441 4.85592 0
M  V30 29150 O 2719.87 -3.41944 4.56542 0
M  V30 29151 O 2718.8 -1.86394 5.72312 0
M  V30 29152 H 2722.63 0.0642226 3.03632 0
M  V30 29153 H 2720.21 0.0972627 1.49083 0
M  V30 29154 H 2722.09 -2.34399 3.50193 0
M  V30 29155 H 2720.77 -2.26926 2.30838 0
M  V30 29156 H 2719.68 -0.428716 3.71635 0
M  V30 29157 H 2721.01 -0.583612 4.88728 0
M  V30 29158 N 2722.66 -1.57485 0.0601958 0
M  V30 29159 C 2723.61 -2.13248 -0.928862 0
M  V30 29160 C 2724.6 -1.06649 -1.31614 0
M  V30 29161 O 2725.81 -1.25046 -1.29474 0
M  V30 29162 H 2722.18 -0.681714 -0.317443 0
M  V30 29163 H 2724.15 -2.95234 -0.433514 0
M  V30 29164 C 2722.9 -2.69969 -2.19116 0
M  V30 29165 H 2722.23 -3.5166 -1.90197 0
M  V30 29166 H 2723.67 -3.12597 -2.8646 0
M  V30 29167 C 2722.13 -1.64173 -2.94192 0
M  V30 29168 O 2722.66 -1.05984 -3.87466 0
M  V30 29169 N 2720.86 -1.3548 -2.57086 0
M  V30 29170 H 2720.41 -1.82987 -1.8131 0
M  V30 29171 H 2720.37 -0.64925 -3.07623 0
M  V30 29172 N 2724.14 0.213268 -1.5615 0
M  V30 29173 C 2725.36 0.95725 -1.83988 0
M  V30 29174 C 2725.79 1.76821 -0.641557 0
M  V30 29175 O 2725.15 1.7661 0.409691 0
M  V30 29176 C 2725.19 1.84388 -3.09893 0
M  V30 29177 O 2724.3 2.94033 -2.89168 0
M  V30 29178 H 2723.64 0.270595 -0.606362 0
M  V30 29179 H 2726.17 0.224076 -2.03369 0
M  V30 29180 H 2726.18 2.25209 -3.40213 0
M  V30 29181 H 2724.85 1.24788 -3.96738 0
M  V30 29182 H 2723.43 2.57098 -2.70101 0
M  V30 29183 N 2725.62 1.50103 0.480296 0
M  V30 29184 C 2726.57 1.64683 1.57682 0
M  V30 29185 C 2727.55 0.501727 1.52877 0
M  V30 29186 O 2728.74 0.755696 1.60057 0
M  V30 29187 C 2725.87 1.73583 2.96182 0
M  V30 29188 C 2724.96 2.9374 3.05905 0
M  V30 29189 N 2725.35 4.17545 2.85464 0
M  V30 29190 C 2723.65 2.92107 3.37031 0
M  V30 29191 C 2724.35 4.98425 2.99912 0
M  V30 29192 N 2723.32 4.32197 3.29707 0
M  V30 29193 H 2727.13 2.58107 1.40563 0
M  V30 29194 H 2724.64 1.4716 0.686848 0
M  V30 29195 H 2726.64 1.8213 3.75012 0
M  V30 29196 H 2725.3 0.813112 3.14354 0
M  V30 29197 H 2726.31 4.47192 2.61227 0
M  V30 29198 H 2722.98 2.09297 3.61249 0
M  V30 29199 H 2724.37 6.06845 2.88426 0
M  V30 29200 N 2727.09 -0.732829 1.39526 0
M  V30 29201 C 2728.02 -1.86003 1.41157 0
M  V30 29202 C 2729.01 -1.67868 0.274644 0
M  V30 29203 O 2730.19 -1.88155 0.480778 0
M  V30 29204 C 2727.32 -3.23776 1.25644 0
M  V30 29205 C 2726.27 -3.56552 2.36759 0
M  V30 29206 C 2725.6 -4.93285 2.06334 0
M  V30 29207 C 2726.9 -3.59303 3.79076 0
M  V30 29208 H 2728.59 -1.84895 2.35487 0
M  V30 29209 H 2726.14 -0.888142 1.13349 0
M  V30 29210 H 2728.09 -4.02308 1.25405 0
M  V30 29211 H 2726.82 -3.25416 0.277829 0
M  V30 29212 H 2725.48 -2.80351 2.36218 0
M  V30 29213 H 2725.12 -4.91508 1.06906 0
M  V30 29214 H 2724.82 -5.16182 2.80766 0
M  V30 29215 H 2726.35 -5.74171 2.07749 0
M  V30 29216 H 2727.76 -4.27907 3.81534 0
M  V30 29217 H 2726.16 -3.9372 4.52885 0
M  V30 29218 H 2727.23 -2.5906 4.09897 0
M  V30 29219 N 2728.57 -1.24737 -0.963244 0
M  V30 29220 C 2729.82 -1.08372 -1.70113 0
M  V30 29221 C 2730.13 0.376654 -1.91939 0
M  V30 29222 O 2731.34 0.660578 -2.63341 0
M  V30 29223 C 2729.8 -1.89104 -3.06215 0
M  V30 29224 C 2729.4 -3.3958 -2.92215 0
M  V30 29225 C 2731.15 -1.81282 -3.83845 0
M  V30 29226 C 2729.06 -4.12639 -4.23655 0
M  V30 29227 H 2727.99 -0.401936 -0.637937 0
M  V30 29228 H 2730.64 -1.48858 -1.07301 0
M  V30 29229 H 2729.02 -1.41436 -3.69881 0
M  V30 29230 H 2730.19 -3.9486 -2.37534 0
M  V30 29231 H 2728.51 -3.48401 -2.28047 0
M  V30 29232 H 2731.1 -2.33166 -4.81184 0
M  V30 29233 H 2731.45 -0.778967 -4.08947 0
M  V30 29234 H 2731.98 -2.26655 -3.26914 0
M  V30 29235 H 2728.72 -5.16402 -4.03744 0
M  V30 29236 H 2728.24 -3.62143 -4.78134 0
M  V30 29237 H 2729.92 -4.19882 -4.92248 0
M  V30 29238 N 2730.05 1.16459 -1.06184 0
M  V30 29239 C 2730.98 2.22982 -0.6929 0
M  V30 29240 C 2731.96 1.67175 0.314092 0
M  V30 29241 O 2733.15 1.93274 0.189465 0
M  V30 29242 C 2730.28 3.47214 -0.077381 0
M  V30 29243 C 2729.23 4.15907 -1.01023 0
M  V30 29244 C 2728.56 5.34077 -0.258067 0
M  V30 29245 C 2729.86 4.67011 -2.33876 0
M  V30 29246 H 2731.55 2.54099 -1.58347 0
M  V30 29247 H 2729.1 1.22136 -0.762812 0
M  V30 29248 H 2731.05 4.2096 0.192586 0
M  V30 29249 H 2729.77 3.15394 0.848199 0
M  V30 29250 H 2728.43 3.44086 -1.26492 0
M  V30 29251 H 2728.08 4.9851 0.670596 0
M  V30 29252 H 2727.78 5.80977 -0.87974 0
M  V30 29253 H 2729.3 6.106 0.00438055 0
M  V30 29254 H 2730.72 5.32343 -2.12799 0
M  V30 29255 H 2729.12 5.24528 -2.91531 0
M  V30 29256 H 2730.19 3.8328 -2.97025 0
M  V30 29257 N 2731.53 0.844266 1.33079 0
M  V30 29258 C 2732.76 0.456238 2.01807 0
M  V30 29259 C 2733.17 -0.944102 1.635 0
M  V30 29260 O 2732.53 -1.61442 0.851049 0
M  V30 29261 C 2732.58 0.573576 3.56921 0
M  V30 29262 O 2732.3 1.91874 3.93847 0
M  V30 29263 C 2733.8 0.183203 4.42921 0
M  V30 29264 H 2731.02 0.180489 0.64627 0
M  V30 29265 H 2733.57 1.13833 1.69889 0
M  V30 29266 H 2731.72 -0.0606686 3.87352 0
M  V30 29267 H 2732.13 1.90811 4.88561 0
M  V30 29268 H 2733.61 0.316337 5.51093 0
M  V30 29269 H 2734.09 -0.875401 4.30387 0
M  V30 29270 H 2734.69 0.7921 4.17859 0
M  V30 29271 N 2733.01 -1.45682 0.60121 0
M  V30 29272 C 2734.25 -2.01883 0.0937311 0
M  V30 29273 C 2734.58 -1.47294 -1.27787 0
M  V30 29274 O 2733.85 -0.664724 -1.84278 0
M  V30 29275 H 2732.43 -0.746329 0.0316598 0
M  V30 29276 H 2735.09 -1.7856 0.781169 0
M  V30 29277 H 2734.18 -3.12076 0.0386845 0
M  V30 29278 N 2734.48 -0.340009 -1.53889 0
M  V30 29279 C 2735.45 0.505881 -2.23548 0
M  V30 29280 C 2736.45 1.03042 -1.23447 0
M  V30 29281 O 2737.64 0.920227 -1.4791 0
M  V30 29282 C 2734.77 1.70435 -2.95237 0
M  V30 29283 H 2735.96 -0.1033 -2.99722 0
M  V30 29284 H 2733.52 -0.0913078 -1.56033 0
M  V30 29285 H 2734.25 2.35232 -2.2324 0
M  V30 29286 H 2734.04 1.33547 -3.68657 0
M  V30 29287 H 2735.53 2.30441 -3.48262 0
M  V30 29288 N 2735.96 1.57451 -0.0685468 0
M  V30 29289 C 2737.21 1.92984 0.600127 0
M  V30 29290 C 2737.53 0.949058 1.70346 0
M  V30 29291 O 2736.8 -0.00332204 1.959 0
M  V30 29292 H 2735.38 0.712413 0.22467 0
M  V30 29293 H 2738.04 1.94495 -0.125639 0
M  V30 29294 H 2737.14 2.947 1.02754 0
M  V30 29295 N 2737.44 -0.204984 1.56261 0
M  V30 29296 C 2738.4 -1.23768 1.9291 0
M  V30 29297 C 2739.4 -1.38953 0.809233 0
M  V30 29298 O 2740.59 -1.36935 1.07678 0
M  V30 29299 C 2737.73 -2.60875 2.19447 0
M  V30 29300 H 2738.92 -0.924678 2.85289 0
M  V30 29301 H 2736.47 -0.446098 1.49799 0
M  V30 29302 H 2737.21 -2.97246 1.29674 0
M  V30 29303 H 2736.99 -2.51226 3.01044 0
M  V30 29304 H 2738.48 -3.35364 2.48839 0
M  V30 29305 N 2738.92 -1.50356 -0.472329 0
M  V30 29306 C 2739.85 -1.72057 -1.57856 0
M  V30 29307 C 2740.83 -0.569533 -1.60282 0
M  V30 29308 O 2742.02 -0.808534 -1.76568 0
M  V30 29309 C 2739.15 -1.81357 -2.96188 0
M  V30 29310 C 2738.1 -2.96535 -3.08628 0
M  V30 29311 C 2737.43 -2.90975 -4.48595 0
M  V30 29312 C 2738.73 -4.37062 -2.85962 0
M  V30 29313 H 2740.42 -2.64679 -1.39948 0
M  V30 29314 H 2737.97 -1.27368 -0.671823 0
M  V30 29315 H 2739.92 -1.95123 -3.73504 0
M  V30 29316 H 2738.64 -0.853558 -3.15249 0
M  V30 29317 H 2737.3 -2.82417 -2.33744 0
M  V30 29318 H 2736.95 -1.92823 -4.64573 0
M  V30 29319 H 2736.65 -3.68297 -4.57855 0
M  V30 29320 H 2738.17 -3.06789 -5.27933 0
M  V30 29321 H 2739.59 -4.51712 -3.53028 0
M  V30 29322 H 2737.98 -5.15825 -3.06667 0
M  V30 29323 H 2739.05 -4.49517 -1.8183 0
M  V30 29324 N 2740.4 0.725419 -1.39912 0
M  V30 29325 C 2741.35 1.86084 -1.39555 0
M  V30 29326 C 2742.34 1.67114 -0.277363 0
M  V30 29327 O 2743.55 1.74338 -0.447896 0
M  V30 29328 H 2739.92 0.612703 -0.436003 0
M  V30 29329 H 2741.89 1.83501 -2.35308 0
M  V30 29330 C 2740.64 3.23858 -1.26535 0
M  V30 29331 H 2739.96 3.39056 -2.11851 0
M  V30 29332 H 2741.4 4.03468 -1.30343 0
M  V30 29333 C 2739.86 3.3689 0.0253576 0
M  V30 29334 O 2740.39 3.89259 0.99198 0
M  V30 29335 N 2738.6 2.90456 0.0916017 0
M  V30 29336 H 2738.15 2.48027 -0.695719 0
M  V30 29337 H 2738.1 2.99555 0.954692 0
M  V30 29338 N 2741.88 1.25246 0.956615 0
M  V30 29339 C 2742.82 1.05457 2.05298 0
M  V30 29340 C 2743.79 -0.0356597 1.66062 0
M  V30 29341 O 2744.98 0.121133 1.90415 0
M  V30 29342 C 2742.12 0.67725 3.38389 0
M  V30 29343 C 2741.23 1.84213 3.90755 0
M  V30 29344 C 2740.37 1.40935 5.12163 0
M  V30 29345 C 2739.4 2.54348 5.56753 0
M  V30 29346 N 2738.54 2.1186 6.69373 0
M  V30 29347 H 2743.38 1.99288 2.21559 0
M  V30 29348 H 2740.92 0.992453 1.08576 0
M  V30 29349 H 2742.88 0.439452 4.14879 0
M  V30 29350 H 2741.51 -0.22407 3.22021 0
M  V30 29351 H 2740.56 2.19329 3.10804 0
M  V30 29352 H 2741.87 2.69391 4.19798 0
M  V30 29353 H 2741.02 1.13108 5.96063 0
M  V30 29354 H 2739.76 0.52826 4.84831 0
M  V30 29355 H 2738.77 2.82922 4.71418 0
M  V30 29356 H 2739.99 3.43032 5.86094 0
M  V30 29357 H 2737.94 1.26164 6.43753 0
M  V30 29358 H 2737.86 2.90587 6.97922 0
M  V30 29359 H 2739.12 1.87204 7.56687 0
M  V30 29360 N 2743.35 -1.15894 1.068 0
M  V30 29361 C 2744.6 -1.86824 0.788967 0
M  V30 29362 C 2744.93 -1.81791 -0.683052 0
M  V30 29363 O 2744.21 -1.23714 -1.50084 0
M  V30 29364 C 2744.49 -3.36174 1.29071 0
M  V30 29365 C 2744.34 -3.49869 2.82686 0
M  V30 29366 C 2745.66 -4.30742 0.902731 0
M  V30 29367 H 2742.78 -0.678366 0.288077 0
M  V30 29368 H 2745.42 -1.36193 1.32482 0
M  V30 29369 H 2743.57 -3.79423 0.834873 0
M  V30 29370 H 2745.25 -3.15522 3.36517 0
M  V30 29371 H 2743.49 -2.91611 3.21162 0
M  V30 29372 H 2744.16 -4.54778 3.1286 0
M  V30 29373 H 2746.64 -3.95421 1.29542 0
M  V30 29374 H 2745.51 -5.33738 1.2812 0
M  V30 29375 H 2745.77 -4.41683 -0.191874 0
M  V30 29376 N 2744.83 -0.851312 -1.32629 0
M  V30 29377 C 2745.76 -0.308812 -2.31449 0
M  V30 29378 C 2746.74 0.590227 -1.59532 0
M  V30 29379 O 2747.93 0.511172 -1.87352 0
M  V30 29380 C 2745.06 0.506488 -3.43587 0
M  V30 29381 C 2744.01 -0.297828 -4.26963 0
M  V30 29382 C 2743.34 0.642001 -5.30832 0
M  V30 29383 C 2744.64 -1.52174 -4.9964 0
M  V30 29384 H 2746.33 -1.13452 -2.77072 0
M  V30 29385 H 2743.88 -0.546995 -1.33206 0
M  V30 29386 H 2745.83 0.896402 -4.11756 0
M  V30 29387 H 2744.55 1.36553 -2.96683 0
M  V30 29388 H 2743.21 -0.669455 -3.60436 0
M  V30 29389 H 2742.86 1.49779 -4.80182 0
M  V30 29390 H 2742.56 0.107865 -5.87501 0
M  V30 29391 H 2744.09 1.02916 -6.01864 0
M  V30 29392 H 2745.5 -1.20431 -5.60508 0
M  V30 29393 H 2743.9 -1.99357 -5.66018 0
M  V30 29394 H 2744.97 -2.28481 -4.27697 0
M  V30 29395 N 2746.31 1.45361 -0.608928 0
M  V30 29396 C 2747.56 2.0183 -0.104436 0
M  V30 29397 C 2747.88 1.47969 1.27004 0
M  V30 29398 O 2747.15 0.674487 1.83922 0
M  V30 29399 H 2745.73 0.74615 -0.0356173 0
M  V30 29400 H 2748.39 1.78143 -0.790627 0
M  V30 29401 H 2747.49 3.12051 -0.0552341 0
M  V30 29402 N 2747.79 0.348166 1.53706 0
M  V30 29403 C 2749.2 -0.00358329 1.596 0
M  V30 29404 C 2749.4 -1.48318 1.36397 0
M  V30 29405 O 2748.46 -2.24251 1.1605 0
M  V30 29406 C 2749.77 0.436735 2.97512 0
M  V30 29407 C 2751.32 0.389471 3.10567 0
M  V30 29408 C 2751.8 0.805328 4.50864 0
M  V30 29409 N 2753.29 0.759697 4.56928 0
M  V30 29410 C 2754.02 1.05337 5.63641 0
M  V30 29411 N 2753.52 1.41543 6.78187 0
M  V30 29412 N 2755.31 0.977305 5.53539 0
M  V30 29413 H 2747.46 1.31189 1.67042 0
M  V30 29414 H 2749.72 0.535089 0.782549 0
M  V30 29415 H 2749.43 1.46855 3.19572 0
M  V30 29416 H 2749.3 -0.185678 3.76743 0
M  V30 29417 H 2751.69 -0.633178 2.88227 0
M  V30 29418 H 2751.77 1.04715 2.33385 0
M  V30 29419 H 2751.42 1.82601 4.7394 0
M  V30 29420 H 2751.35 0.125081 5.26451 0
M  V30 29421 H 2753.84 0.492716 3.74674 0
M  V30 29422 H 2754.15 1.62424 7.55538 0
M  V30 29423 H 2752.5 1.45393 6.79622 0
M  V30 29424 H 2755.69 0.693756 4.6293 0
M  V30 29425 H 2755.86 1.20952 6.36612 0
M  V30 29426 N 2749.27 -1.57412 0.0768958 0
M  V30 29427 C 2750.18 -2.16518 -0.903169 0
M  V30 29428 C 2751.19 -1.12971 -1.32339 0
M  V30 29429 O 2752.37 -1.4526 -1.39504 0
M  V30 29430 C 2749.43 -2.71926 -2.15075 0
M  V30 29431 C 2748.49 -3.90364 -1.78646 0
M  V30 29432 C 2747.73 -4.4312 -2.97457 0
M  V30 29433 O 2747.95 -3.94862 -4.11632 0
M  V30 29434 O 2746.88 -5.34385 -2.76977 0
M  V30 29435 H 2750.71 -3.00635 -0.430374 0
M  V30 29436 H 2748.29 -1.4868 -0.146459 0
M  V30 29437 H 2750.18 -3.07416 -2.88224 0
M  V30 29438 H 2748.85 -1.90865 -2.61443 0
M  V30 29439 H 2747.76 -3.59717 -1.02733 0
M  V30 29440 H 2749.09 -4.72733 -1.37057 0
M  V30 29441 N 2750.74 0.196695 -1.56368 0
M  V30 29442 C 2751.99 0.918693 -1.80798 0
M  V30 29443 C 2752.32 1.82975 -0.650677 0
M  V30 29444 O 2751.6 1.91346 0.348856 0
M  V30 29445 C 2751.88 1.7363 -3.15475 0
M  V30 29446 C 2751.73 0.850073 -4.41694 0
M  V30 29447 C 2753.05 2.7092 -3.46829 0
M  V30 29448 H 2750.17 0.33255 -0.657708 0
M  V30 29449 H 2752.81 0.186153 -1.89086 0
M  V30 29450 H 2750.96 2.36083 -3.08541 0
M  V30 29451 H 2752.64 0.240378 -4.60673 0
M  V30 29452 H 2750.88 0.156709 -4.33517 0
M  V30 29453 H 2751.55 1.4571 -5.32422 0
M  V30 29454 H 2754.03 2.186 -3.54052 0
M  V30 29455 H 2752.9 3.25212 -4.42186 0
M  V30 29456 H 2753.16 3.49888 -2.70242 0
M  V30 29457 N 2752.22 1.50604 0.464349 0
M  V30 29458 C 2753.45 1.65456 1.23724 0
M  V30 29459 C 2753.86 0.340064 1.86119 0
M  V30 29460 O 2753.2 -0.688676 1.70303 0
M  V30 29461 C 2753.27 2.69306 2.38149 0
M  V30 29462 C 2752.93 4.12675 1.96338 0
M  V30 29463 C 2753.93 4.98328 1.48206 0
M  V30 29464 C 2751.61 4.58629 2.04853 0
M  V30 29465 C 2753.61 6.27986 1.09141 0
M  V30 29466 C 2751.29 5.88291 1.65399 0
M  V30 29467 C 2752.29 6.72796 1.17622 0
M  V30 29468 O 2751.98 8.00037 0.787171 0
M  V30 29469 H 2751.71 0.559041 0.380065 0
M  V30 29470 H 2754.26 1.97622 0.559885 0
M  V30 29471 H 2752.49 2.32397 3.09077 0
M  V30 29472 H 2754.18 2.7331 3.00094 0
M  V30 29473 H 2754.95 4.64038 1.41044 0
M  V30 29474 H 2750.83 3.92995 2.40989 0
M  V30 29475 H 2754.37 6.93897 0.717787 0
M  V30 29476 H 2750.27 6.22101 1.72223 0
M  V30 29477 H 2751.04 8.13365 0.915424 0
M  V30 29478 N 2753.7 -0.717989 1.40295 0
M  V30 29479 C 2754.93 -1.50711 1.41753 0
M  V30 29480 C 2755.34 -1.88793 0.0165698 0
M  V30 29481 O 2754.7 -1.55277 -0.958915 0
M  V30 29482 C 2754.75 -2.78396 2.30603 0
M  V30 29483 O 2754.47 -2.41926 3.65244 0
M  V30 29484 C 2755.97 -3.72309 2.40627 0
M  V30 29485 H 2753.19 -0.465186 0.483573 0
M  V30 29486 H 2755.74 -0.885857 1.84317 0
M  V30 29487 H 2753.89 -3.36812 1.91407 0
M  V30 29488 H 2754.31 -3.24068 4.12408 0
M  V30 29489 H 2755.78 -4.58748 3.07009 0
M  V30 29490 H 2756.26 -4.15248 1.43058 0
M  V30 29491 H 2756.86 -3.19806 2.80365 0
M  V30 29492 N 2755.18 -1.25752 -0.94996 0
M  V30 29493 C 2756.4 -1.13631 -1.73501 0
M  V30 29494 C 2756.83 0.305557 -1.85602 0
M  V30 29495 O 2756.19 1.22137 -1.33986 0
M  V30 29496 C 2756.23 -1.80061 -3.12427 0
M  V30 29497 O 2755.34 -1.08343 -3.97914 0
M  V30 29498 H 2754.68 -0.396449 -0.532658 0
M  V30 29499 H 2757.21 -1.66405 -1.1904 0
M  V30 29500 H 2757.22 -1.86533 -3.62863 0
M  V30 29501 H 2755.89 -2.84961 -3.02936 0
M  V30 29502 H 2754.47 -1.09784 -3.56373 0
M  V30 29503 N 2756.66 1.15326 -1.07413 0
M  V30 29504 C 2757.6 2.2215 -0.689355 0
M  V30 29505 C 2758.6 1.6672 0.300127 0
M  V30 29506 O 2759.8 1.79253 0.163773 0
M  V30 29507 H 2756.18 0.723562 -0.204847 0
M  V30 29508 H 2758.15 2.51883 -1.59992 0
M  V30 29509 C 2756.9 3.47545 -0.103909 0
M  V30 29510 H 2756.22 3.90519 -0.856436 0
M  V30 29511 H 2757.66 4.23808 0.127651 0
M  V30 29512 C 2756.12 3.16462 1.15557 0
M  V30 29513 O 2756.65 3.33316 2.24194 0
M  V30 29514 N 2754.86 2.705 1.06198 0
M  V30 29515 H 2754.4 2.56985 0.177888 0
M  V30 29516 H 2754.36 2.50077 1.90549 0
M  V30 29517 N 2758.13 0.858334 1.32176 0
M  V30 29518 C 2759.08 0.294483 2.30728 0
M  V30 29519 C 2760.08 -0.584137 1.5901 0
M  V30 29520 O 2761.28 -0.471531 1.73714 0
M  V30 29521 H 2757.66 0.0765303 0.748096 0
M  V30 29522 H 2759.63 1.13985 2.75772 0
M  V30 29523 C 2758.38 -0.499147 3.44099 0
M  V30 29524 H 2757.7 0.167649 3.99448 0
M  V30 29525 H 2759.14 -0.8592 4.15203 0
M  V30 29526 C 2757.6 -1.68583 2.91687 0
M  V30 29527 O 2758.13 -2.78498 2.89486 0
M  V30 29528 N 2756.34 -1.51411 2.48039 0
M  V30 29529 H 2755.88 -0.619962 2.50028 0
M  V30 29530 H 2755.84 -2.30953 2.13326 0
M  V30 29531 N 2759.61 -1.45036 0.616628 0
M  V30 29532 C 2760.54 -2.28801 -0.135146 0
M  V30 29533 C 2761.56 -1.40465 -0.823006 0
M  V30 29534 O 2762.75 -1.64755 -0.68688 0
M  V30 29535 C 2759.85 -3.16454 -1.21286 0
M  V30 29536 C 2759.02 -4.33121 -0.610354 0
M  V30 29537 C 2758.08 -5.01915 -1.58013 0
M  V30 29538 O 2757.1 -5.58413 -1.10291 0
M  V30 29539 N 2758.31 -5.0203 -2.91455 0
M  V30 29540 H 2761.07 -2.93962 0.583663 0
M  V30 29541 H 2758.63 -1.55324 0.45675 0
M  V30 29542 H 2760.62 -3.5934 -1.86163 0
M  V30 29543 H 2759.19 -2.53141 -1.83408 0
M  V30 29544 H 2758.41 -3.93604 0.216708 0
M  V30 29545 H 2759.7 -5.08452 -0.188204 0
M  V30 29546 H 2759.1 -4.57435 -3.32821 0
M  V30 29547 H 2757.66 -5.48752 -3.51731 0
M  V30 29548 N 2761.09 -0.356312 -1.53519 0
M  V30 29549 C 2762.02 0.486621 -2.28373 0
M  V30 29550 C 2763 1.09183 -1.30434 0
M  V30 29551 O 2764.19 1.11082 -1.59293 0
M  V30 29552 C 2761.32 1.63124 -3.06607 0
M  V30 29553 C 2760.27 1.15374 -4.12156 0
M  V30 29554 C 2759.6 2.38788 -4.78419 0
M  V30 29555 C 2760.9 0.245088 -5.21725 0
M  V30 29556 H 2762.59 -0.137849 -2.99082 0
M  V30 29557 H 2760.14 -0.0677387 -1.43841 0
M  V30 29558 H 2762.09 2.22749 -3.57716 0
M  V30 29559 H 2760.81 2.2828 -2.33572 0
M  V30 29560 H 2759.47 0.580231 -3.61979 0
M  V30 29561 H 2759.12 3.02379 -4.01965 0
M  V30 29562 H 2758.82 2.07514 -5.49738 0
M  V30 29563 H 2760.34 2.99115 -5.32318 0
M  V30 29564 H 2761.76 0.748547 -5.68392 0
M  V30 29565 H 2760.16 0.0236553 -6.00095 0
M  V30 29566 H 2761.23 -0.715314 -4.79595 0
M  V30 29567 N 2762.57 1.57369 -0.0852427 0
M  V30 29568 C 2763.82 1.9361 0.579624 0
M  V30 29569 C 2764.14 0.967072 1.6933 0
M  V30 29570 O 2763.41 0.0174559 1.95892 0
M  V30 29571 H 2761.99 0.714756 0.217101 0
M  V30 29572 H 2764.65 1.9435 -0.14626 0
M  V30 29573 H 2763.75 2.95773 0.996224 0
M  V30 29574 N 2764.05 -0.188399 1.5647 0
M  V30 29575 C 2765.29 -0.905954 1.80657 0
M  V30 29576 C 2765.62 -1.83512 0.659423 0
M  V30 29577 O 2764.89 -1.93238 -0.321834 0
M  V30 29578 H 2763.47 -0.337526 0.666397 0
M  V30 29579 H 2766.13 -0.192305 1.93949 0
M  V30 29580 H 2765.22 -1.49308 2.74069 0
M  V30 29581 N 2765.53 -1.50848 -0.456355 0
M  V30 29582 C 2766.77 -1.6181 -1.20418 0
M  V30 29583 C 2767.09 -0.330966 -1.9278 0
M  V30 29584 O 2768.29 -0.31969 -2.69611 0
M  V30 29585 C 2766.75 -2.85687 -2.18886 0
M  V30 29586 C 2766.36 -4.21333 -1.52259 0
M  V30 29587 C 2768.1 -3.05999 -2.94219 0
M  V30 29588 C 2766.01 -5.3638 -2.491 0
M  V30 29589 H 2764.94 -0.602624 -0.453167 0
M  V30 29590 H 2767.59 -1.77296 -0.473113 0
M  V30 29591 H 2765.97 -2.63792 -2.95347 0
M  V30 29592 H 2767.15 -4.53538 -0.81487 0
M  V30 29593 H 2765.46 -4.06744 -0.891523 0
M  V30 29594 H 2768.06 -3.89123 -3.66725 0
M  V30 29595 H 2768.4 -2.18312 -3.54465 0
M  V30 29596 H 2768.93 -3.28145 -2.24868 0
M  V30 29597 H 2765.67 -6.26267 -1.93571 0
M  V30 29598 H 2765.19 -5.08574 -3.17982 0
M  V30 29599 H 2766.87 -5.67556 -3.10627 0
M  V30 29600 N 2767 0.710538 -1.40674 0
M  V30 29601 C 2767.94 1.83555 -1.37259 0
M  V30 29602 C 2768.95 1.60423 -0.277161 0
M  V30 29603 O 2770.14 1.70204 -0.537861 0
M  V30 29604 C 2767.24 3.20052 -1.11445 0
M  V30 29605 C 2766.41 3.70338 -2.32741 0
M  V30 29606 C 2765.47 4.85462 -2.0301 0
M  V30 29607 O 2764.5 4.97852 -2.75921 0
M  V30 29608 N 2765.7 5.71626 -1.01115 0
M  V30 29609 H 2768.46 1.86981 -2.34218 0
M  V30 29610 H 2766.02 0.892278 -1.35093 0
M  V30 29611 H 2768.02 3.94672 -0.895334 0
M  V30 29612 H 2766.59 3.11743 -0.231361 0
M  V30 29613 H 2765.81 2.86793 -2.70451 0
M  V30 29614 H 2767.09 4.00672 -3.13591 0
M  V30 29615 H 2766.49 5.64231 -0.407402 0
M  V30 29616 H 2765.05 6.46208 -0.851933 0
M  V30 29617 N 2768.48 1.26254 0.943277 0
M  V30 29618 C 2769.73 1.11065 1.68367 0
M  V30 29619 C 2770.04 -0.34607 1.92514 0
M  V30 29620 O 2771.25 -0.618599 2.64359 0
M  V30 29621 C 2769.71 1.93952 3.03168 0
M  V30 29622 C 2769.31 3.44186 2.86776 0
M  V30 29623 C 2771.06 1.87366 3.80912 0
M  V30 29624 C 2768.96 4.19326 4.17036 0
M  V30 29625 H 2767.89 0.412034 0.631462 0
M  V30 29626 H 2770.55 1.50546 1.0492 0
M  V30 29627 H 2768.93 1.47302 3.67584 0
M  V30 29628 H 2770.1 3.98589 2.31222 0
M  V30 29629 H 2768.42 3.51985 2.22476 0
M  V30 29630 H 2771.01 2.40792 4.77413 0
M  V30 29631 H 2771.36 0.843928 4.07656 0
M  V30 29632 H 2771.89 2.31827 3.23266 0
M  V30 29633 H 2768.63 5.2276 3.95478 0
M  V30 29634 H 2768.15 3.69704 4.72312 0
M  V30 29635 H 2769.83 4.2766 4.85506 0
M  V30 29636 N 2769.96 -1.14755 1.08024 0
M  V30 29637 C 2770.89 -2.18724 0.650777 0
M  V30 29638 C 2771.87 -1.59102 -0.335468 0
M  V30 29639 O 2773.05 -1.86963 -0.240262 0
M  V30 29640 C 2770.18 -3.38672 -0.0433782 0
M  V30 29641 C 2769.23 -4.16844 0.902393 0
M  V30 29642 S 2770.06 -4.78355 2.40701 0
M  V30 29643 C 2771.22 -6.01664 1.72485 0
M  V30 29644 H 2771.45 -2.54814 1.53157 0
M  V30 29645 H 2768.98 -1.25825 0.894845 0
M  V30 29646 H 2770.94 -4.08161 -0.437612 0
M  V30 29647 H 2769.6 -3.00912 -0.900606 0
M  V30 29648 H 2768.79 -5.02687 0.363534 0
M  V30 29649 H 2768.4 -3.52939 1.23734 0
M  V30 29650 H 2770.69 -6.69462 1.04052 0
M  V30 29651 H 2771.63 -6.60132 2.56187 0
M  V30 29652 H 2772.04 -5.516 1.19989 0
M  V30 29653 N 2771.44 -0.865331 -1.31719 0
M  V30 29654 C 2772.39 -0.289345 -2.26157 0
M  V30 29655 C 2773.37 0.57095 -1.50429 0
M  V30 29656 O 2774.56 0.418586 -1.71979 0
M  V30 29657 C 2771.69 0.512177 -3.39458 0
M  V30 29658 C 2770.78 -0.361102 -4.2256 0
M  V30 29659 N 2771.17 -1.4524 -4.84499 0
M  V30 29660 C 2769.47 -0.152719 -4.45738 0
M  V30 29661 C 2770.17 -1.99053 -5.46583 0
M  V30 29662 N 2769.14 -1.28818 -5.28116 0
M  V30 29663 H 2772.95 -1.12348 -2.71579 0
M  V30 29664 H 2770.46 -0.712591 -1.45931 0
M  V30 29665 H 2772.46 0.941308 -4.06134 0
M  V30 29666 H 2771.12 1.34398 -2.95579 0
M  V30 29667 H 2772.13 -1.83532 -4.84289 0
M  V30 29668 H 2768.81 0.643511 -4.12511 0
M  V30 29669 H 2770.2 -2.90588 -6.05812 0
M  V30 29670 N 2772.92 1.44707 -0.624311 0
M  V30 29671 C 2773.86 2.32398 0.0969544 0
M  V30 29672 C 2774.86 1.4695 0.842736 0
M  V30 29673 O 2776.06 1.63335 0.756408 0
M  V30 29674 H 2772.44 0.750328 0.0501174 0
M  V30 29675 H 2774.41 2.90991 -0.660818 0
M  V30 29676 C 2773.16 3.30839 1.06961 0
M  V30 29677 H 2772.48 3.96596 0.505172 0
M  V30 29678 H 2773.92 3.94892 1.5439 0
M  V30 29679 C 2772.38 2.59254 2.15149 0
M  V30 29680 O 2772.91 2.38635 3.23135 0
M  V30 29681 N 2771.12 2.19107 1.90894 0
M  V30 29682 H 2770.66 2.36076 1.03082 0
M  V30 29683 H 2770.62 1.71536 2.63482 0
M  V30 29684 N 2774.39 0.364449 1.53328 0
M  V30 29685 C 2775.34 -0.497697 2.27213 0
M  V30 29686 C 2776.34 -1.08434 1.30147 0
M  V30 29687 O 2777.54 -1.02767 1.4778 0
M  V30 29688 H 2773.92 -0.179219 0.730332 0
M  V30 29689 H 2775.89 0.147235 2.98037 0
M  V30 29690 C 2774.64 -1.62604 3.07335 0
M  V30 29691 H 2773.96 -1.18393 3.81868 0
M  V30 29692 H 2775.4 -2.20403 3.62213 0
M  V30 29693 C 2773.86 -2.56771 2.18106 0
M  V30 29694 O 2774.39 -3.59559 1.7911 0
M  V30 29695 N 2772.59 -2.25934 1.82763 0
M  V30 29696 H 2772.14 -1.42384 2.14673 0
M  V30 29697 H 2772.1 -2.89194 1.23347 0
M  V30 29698 N 2775.87 -1.57322 0.0935872 0
M  V30 29699 C 2777.12 -1.93914 -0.569348 0
M  V30 29700 C 2777.44 -0.976039 -1.68815 0
M  V30 29701 O 2776.71 -0.0278443 -1.9588 0
M  V30 29702 H 2775.29 -0.715897 -0.213307 0
M  V30 29703 H 2777.95 -1.9427 0.156565 0
M  V30 29704 H 2777.05 -2.96297 -0.980525 0
M  V30 29705 N 2777.35 0.180099 -1.56568 0
M  V30 29706 C 2778.6 0.899465 -1.81762 0
M  V30 29707 C 2778.93 1.82275 -0.670048 0
M  V30 29708 O 2778.2 1.91705 0.328541 0
M  V30 29709 C 2778.49 1.70274 -3.17299 0
M  V30 29710 C 2778.34 0.803177 -4.42571 0
M  V30 29711 C 2779.66 2.67227 -3.49683 0
M  V30 29712 H 2776.78 0.325555 -0.661198 0
M  V30 29713 H 2779.42 0.166087 -1.89273 0
M  V30 29714 H 2777.57 2.32797 -3.11027 0
M  V30 29715 H 2779.24 0.191504 -4.60902 0
M  V30 29716 H 2777.48 0.11072 -4.33659 0
M  V30 29717 H 2778.16 1.40054 -5.33937 0
M  V30 29718 H 2780.63 2.14833 -3.56351 0
M  V30 29719 H 2779.51 3.20503 -4.45611 0
M  V30 29720 H 2779.77 3.47002 -2.73938 0
M  V30 29721 N 2778.83 1.51088 0.448349 0
M  V30 29722 C 2780.06 1.67002 1.2214 0
M  V30 29723 C 2780.47 0.362731 1.85283 0
M  V30 29724 O 2779.83 -0.65769 1.70237 0
M  V30 29725 C 2779.88 2.77774 2.31352 0
M  V30 29726 O 2779.6 4.03437 1.70794 0
M  V30 29727 C 2781.1 3.04861 3.2183 0
M  V30 29728 H 2778.32 0.560725 0.368549 0
M  V30 29729 H 2780.86 1.97443 0.532584 0
M  V30 29730 H 2779.02 2.49963 2.95969 0
M  V30 29731 H 2779.43 4.64872 2.42887 0
M  V30 29732 H 2780.91 3.85978 3.9462 0
M  V30 29733 H 2781.38 2.16828 3.81945 0
M  V30 29734 H 2781.99 3.3429 2.62927 0
M  V30 29735 N 2780.31 -0.703068 1.41049 0
M  V30 29736 C 2781.26 -1.80901 1.38777 0
M  V30 29737 C 2782.24 -1.58731 0.263303 0
M  V30 29738 O 2783.43 -1.69691 0.503392 0
M  V30 29739 C 2780.56 -3.19143 1.26502 0
M  V30 29740 C 2779.65 -3.47033 2.43781 0
M  V30 29741 N 2780.04 -3.45665 3.69255 0
M  V30 29742 C 2778.34 -3.77548 2.37431 0
M  V30 29743 C 2779.04 -3.7225 4.46995 0
M  V30 29744 N 2778.01 -3.91622 3.77005 0
M  V30 29745 H 2781.82 -1.78195 2.33717 0
M  V30 29746 H 2779.33 -0.902738 1.34998 0
M  V30 29747 H 2781.33 -3.98356 1.22957 0
M  V30 29748 H 2779.99 -3.23065 0.325396 0
M  V30 29749 H 2781 -3.26221 4.02244 0
M  V30 29750 H 2777.67 -3.88886 1.51902 0
M  V30 29751 H 2779.06 -3.77392 5.559 0
M  V30 29752 N 2781.78 -1.26752 -0.936569 0
M  V30 29753 C 2783.02 -1.13795 -1.69794 0
M  V30 29754 C 2783.39 0.312638 -1.89438 0
M  V30 29755 O 2784.59 0.564442 -2.62807 0
M  V30 29756 C 2782.86 -1.8907 -3.03294 0
M  V30 29757 S 2784.42 -1.92221 -3.94457 0
M  V30 29758 H 2781.24 -0.406399 -0.583405 0
M  V30 29759 H 2783.84 -1.60537 -1.11572 0
M  V30 29760 H 2782.54 -2.9367 -2.86681 0
M  V30 29761 H 2782.07 -1.42787 -3.66572 0
M  V30 29762 H 2784.09 -1.01223 -4.85766 0
M  V30 29763 N 2783.26 1.1418 -1.08631 0
M  V30 29764 C 2784.49 1.89129 -0.838923 0
M  V30 29765 C 2784.91 1.78704 0.609121 0
M  V30 29766 O 2784.26 1.14796 1.41874 0
M  V30 29767 C 2784.31 3.39023 -1.25483 0
M  V30 29768 O 2784.03 3.49163 -2.64607 0
M  V30 29769 C 2785.54 4.30961 -1.03864 0
M  V30 29770 H 2782.76 0.599001 -0.302388 0
M  V30 29771 H 2785.3 1.44589 -1.44617 0
M  V30 29772 H 2783.45 3.81176 -0.691638 0
M  V30 29773 H 2783.87 4.42284 -2.8193 0
M  V30 29774 H 2785.34 5.34497 -1.37901 0
M  V30 29775 H 2785.82 4.39193 0.024175 0
M  V30 29776 H 2786.43 3.94566 -1.58738 0
M  V30 29777 N 2784.74 0.872304 1.31258 0
M  V30 29778 C 2785.99 0.485118 1.96912 0
M  V30 29779 C 2786.32 -0.960637 1.68776 0
M  V30 29780 O 2785.59 -1.67683 0.985524 0
M  V30 29781 C 2785.88 0.745564 3.52297 0
M  V30 29782 C 2785.73 2.24102 3.89998 0
M  V30 29783 C 2787.05 0.213593 4.39581 0
M  V30 29784 H 2784.17 0.177729 0.715249 0
M  V30 29785 H 2786.81 1.09397 1.55346 0
M  V30 29786 H 2784.96 0.227344 3.87834 0
M  V30 29787 H 2786.63 2.82668 3.6455 0
M  V30 29788 H 2784.88 2.71267 3.38521 0
M  V30 29789 H 2785.55 2.3739 4.98347 0
M  V30 29790 H 2788.02 0.656974 4.10881 0
M  V30 29791 H 2786.9 0.425256 5.4725 0
M  V30 29792 H 2787.16 -0.88459 4.3316 0
M  V30 29793 N 2786.22 -1.44374 0.631976 0
M  V30 29794 C 2787.46 -2.03919 0.140125 0
M  V30 29795 C 2787.82 -1.48641 -1.21531 0
M  V30 29796 O 2789.02 -1.99694 -1.79933 0
M  V30 29797 C 2787.29 -3.57173 0.127237 0
M  V30 29798 S 2788.85 -4.37774 -0.299869 0
M  V30 29799 H 2785.67 -0.708335 0.0615016 0
M  V30 29800 H 2788.27 -1.76745 0.835555 0
M  V30 29801 H 2786.98 -3.94911 1.11683 0
M  V30 29802 H 2786.51 -3.88959 -0.589413 0
M  V30 29803 H 2788.52 -4.71571 -1.54387 0
M  V30 29804 N 2787.7 -0.372575 -1.53133 0
M  V30 29805 C 2788.97 0.271659 -1.93704 0
M  V30 29806 C 2789.35 1.65797 -1.3067 0
M  V30 29807 O 2788.7 2.23647 -0.468419 0
M  V30 29808 C 2788.91 0.314842 -3.47577 0
M  V30 29809 C 2790.26 0.551838 -4.20999 0
M  V30 29810 O 2791.28 0.395758 -3.53995 0
M  V30 29811 O 2790.14 0.856295 -5.3975 0
M  V30 29812 H 2787.24 0.164571 -0.81046 0
M  V30 29813 H 2789.78 -0.425867 -1.64269 0
M  V30 29814 H 2788.55 -0.65686 -3.85747 0
M  V30 29815 H 2788.18 1.05798 -3.83266 0
M  V30 29816 N 2789.17 1.5727 -0.101929 0
M  V30 29817 C 2790.45 1.8608 0.6028 0
M  V30 29818 C 2790.83 1.00004 1.8591 0
M  V30 29819 O 2790.18 0.0742889 2.28379 0
M  V30 29820 C 2790.39 3.36883 0.911635 0
M  V30 29821 C 2791.74 4.05095 1.27212 0
M  V30 29822 O 2792.76 3.41804 1.00244 0
M  V30 29823 O 2791.62 5.16785 1.77751 0
M  V30 29824 H 2788.71 0.769748 0.302353 0
M  V30 29825 H 2791.26 1.69161 -0.135143 0
M  V30 29826 H 2790.03 3.91295 0.0206568 0
M  V30 29827 H 2789.66 3.59172 1.70532 0
M  V30 29828 N 2790.65 -0.171793 1.56661 0
M  V30 29829 C 2791.9 -0.888497 1.81967 0
M  V30 29830 C 2792.23 -1.82266 0.678932 0
M  V30 29831 O 2791.48 -1.92832 -0.333841 0
M  V30 29832 C 2791.78 -1.7173 3.13438 0
M  V30 29833 C 2791.45 -0.932106 4.4116 0
M  V30 29834 C 2790.11 -0.715398 4.75852 0
M  V30 29835 C 2792.46 -0.381296 5.19803 0
M  V30 29836 C 2789.79 0.0632291 5.86666 0
M  V30 29837 C 2792.14 0.38424 6.31432 0
M  V30 29838 C 2790.81 0.611754 6.64691 0
M  V30 29839 H 2790.08 -0.325124 0.665864 0
M  V30 29840 H 2792.72 -0.153462 1.90884 0
M  V30 29841 H 2791.03 -2.52171 2.99861 0
M  V30 29842 H 2792.72 -2.27487 3.30228 0
M  V30 29843 H 2789.31 -1.11105 4.13949 0
M  V30 29844 H 2793.5 -0.536061 4.93396 0
M  V30 29845 H 2788.75 0.249243 6.10892 0
M  V30 29846 H 2792.93 0.818306 6.91576 0
M  V30 29847 H 2790.56 1.21697 7.50396 0
M  V30 29848 N 2792.13 -1.51324 -0.44033 0
M  V30 29849 C 2793.04 -1.75261 -1.55952 0
M  V30 29850 C 2794.06 -0.636715 -1.61932 0
M  V30 29851 O 2795.23 -0.918625 -1.7923 0
M  V30 29852 C 2792.3 -1.86982 -2.91956 0
M  V30 29853 C 2791.36 -3.10827 -2.96117 0
M  V30 29854 C 2790.59 -3.2198 -4.25634 0
M  V30 29855 O 2790.81 -2.39146 -5.17847 0
M  V30 29856 O 2789.75 -4.14937 -4.36017 0
M  V30 29857 H 2793.57 -2.70194 -1.38668 0
M  V30 29858 H 2791.16 -1.35789 -0.623031 0
M  V30 29859 H 2793.04 -1.96695 -3.72678 0
M  V30 29860 H 2791.72 -0.952361 -3.09373 0
M  V30 29861 H 2790.62 -3.06595 -2.14361 0
M  V30 29862 H 2791.96 -4.02252 -2.83644 0
M  V30 29863 N 2793.61 0.695578 -1.41419 0
M  V30 29864 C 2794.86 1.45274 -1.40498 0
M  V30 29865 C 2795.18 1.94994 -0.0149881 0
M  V30 29866 O 2794.45 1.71701 0.94317 0
M  V30 29867 H 2793.03 0.539035 -0.517156 0
M  V30 29868 H 2795.69 0.82329 -1.76658 0
M  V30 29869 H 2794.79 2.31591 -2.09218 0
M  V30 29870 N 2795.09 1.27247 0.929833 0
M  V30 29871 C 2796.33 1.13628 1.67978 0
M  V30 29872 C 2796.67 -0.317555 1.91586 0
M  V30 29873 O 2795.94 -1.23244 1.5047 0
M  V30 29874 C 2796.22 1.91812 3.04763 0
M  V30 29875 C 2796.08 3.45167 2.88409 0
M  V30 29876 C 2797.4 1.72089 4.0506 0
M  V30 29877 H 2794.52 0.414158 0.609625 0
M  V30 29878 H 2797.16 1.56378 1.07917 0
M  V30 29879 H 2795.31 1.5548 3.56031 0
M  V30 29880 H 2796.98 3.91315 2.44275 0
M  V30 29881 H 2795.22 3.71615 2.23796 0
M  V30 29882 H 2795.89 3.95111 3.85475 0
M  V30 29883 H 2798.37 2.03763 3.62794 0
M  V30 29884 H 2797.25 2.29191 4.98761 0
M  V30 29885 H 2797.51 0.668282 4.3702 0
M  V30 29886 N 2796.57 -1.13603 1.09235 0
M  V30 29887 C 2797.81 -1.84834 0.827192 0
M  V30 29888 C 2798.14 -1.83418 -0.647167 0
M  V30 29889 O 2797.4 -1.26611 -1.49225 0
M  V30 29890 C 2797.69 -3.3272 1.30506 0
M  V30 29891 C 2797.36 -3.5432 2.7887 0
M  V30 29892 C 2796.02 -3.59923 3.19388 0
M  V30 29893 C 2798.37 -3.6245 3.74539 0
M  V30 29894 C 2795.7 -3.71188 4.54353 0
M  V30 29895 C 2798.05 -3.75243 5.09289 0
M  V30 29896 C 2796.72 -3.79098 5.49401 0
M  V30 29897 H 2795.99 -0.676357 0.302691 0
M  V30 29898 H 2798.64 -1.34132 1.36678 0
M  V30 29899 H 2796.94 -3.85761 0.685238 0
M  V30 29900 H 2798.64 -3.86279 1.07654 0
M  V30 29901 H 2795.23 -3.50613 2.46513 0
M  V30 29902 H 2799.41 -3.57403 3.4435 0
M  V30 29903 H 2794.67 -3.72439 4.8487 0
M  V30 29904 H 2798.84 -3.80477 5.83276 0
M  V30 29905 H 2796.47 -3.87579 6.53977 0
M  V30 29906 N 2798.04 -0.879253 -1.30793 0
M  V30 29907 C 2799.27 -0.509584 -2.00526 0
M  V30 29908 C 2799.69 0.900421 -1.65945 0
M  V30 29909 O 2799.04 1.59129 -0.893553 0
M  V30 29910 C 2799.09 -0.668005 -3.55274 0
M  V30 29911 O 2798.82 -2.02249 -3.88622 0
M  V30 29912 C 2800.32 -0.300572 -4.4228 0
M  V30 29913 H 2797.54 -0.19756 -0.641257 0
M  V30 29914 H 2800.08 -1.18298 -1.66811 0
M  V30 29915 H 2798.24 -0.0420524 -3.87377 0
M  V30 29916 H 2798.65 -2.03697 -4.8333 0
M  V30 29917 H 2800.12 -0.462339 -5.5006 0
M  V30 29918 H 2800.6 0.760984 -4.32557 0
M  V30 29919 H 2801.21 -0.902609 -4.15612 0
M  V30 29920 N 2799.52 1.44037 -0.639624 0
M  V30 29921 C 2800.77 2.02261 -0.147734 0
M  V30 29922 C 2801.1 1.50258 1.23029 0
M  V30 29923 O 2800.38 0.6901 1.81846 0
M  V30 29924 C 2800.66 3.59813 -0.143683 0
M  V30 29925 C 2800.51 4.22079 -1.55465 0
M  V30 29926 C 2801.83 4.3693 0.52724 0
M  V30 29927 H 2798.95 0.734933 -0.0551582 0
M  V30 29928 H 2801.59 1.71503 -0.817718 0
M  V30 29929 H 2799.74 3.86148 0.42683 0
M  V30 29930 H 2801.41 4.06822 -2.17471 0
M  V30 29931 H 2799.66 3.79249 -2.10601 0
M  V30 29932 H 2800.33 5.31122 -1.50378 0
M  V30 29933 H 2802.8 4.16079 0.0419772 0
M  V30 29934 H 2801.68 5.46624 0.499293 0
M  V30 29935 H 2801.94 4.12168 1.59907 0
M  V30 29936 N 2801 0.380691 1.52933 0
M  V30 29937 C 2801.93 -0.450227 2.29118 0
M  V30 29938 C 2802.91 -1.07094 1.32155 0
M  V30 29939 O 2804.1 -1.08534 1.6104 0
M  V30 29940 C 2801.23 -1.58226 3.09163 0
M  V30 29941 C 2800.18 -1.08802 4.1394 0
M  V30 29942 C 2799.51 -2.31146 4.82157 0
M  V30 29943 C 2800.81 -0.162055 5.22049 0
M  V30 29944 H 2802.5 0.185413 2.98825 0
M  V30 29945 H 2800.05 0.0906139 1.43715 0
M  V30 29946 H 2802 -2.1703 3.61215 0
M  V30 29947 H 2800.72 -2.24535 2.37174 0
M  V30 29948 H 2799.38 -0.52257 3.62856 0
M  V30 29949 H 2799.03 -2.95946 4.06724 0
M  V30 29950 H 2798.73 -1.98742 5.5297 0
M  V30 29951 H 2800.25 -2.90609 5.37009 0
M  V30 29952 H 2801.67 -0.658026 5.69511 0
M  V30 29953 H 2800.06 0.0718177 6.00057 0
M  V30 29954 H 2801.13 0.791522 4.78396 0
M  V30 29955 N 2802.48 -1.57214 0.110268 0
M  V30 29956 C 2803.43 -2.11398 -0.85411 0
M  V30 29957 C 2804.41 -1.03263 -1.23392 0
M  V30 29958 O 2805.6 -1.29512 -1.20647 0
M  V30 29959 C 2802.73 -2.70999 -2.10748 0
M  V30 29960 C 2801.82 -3.86201 -1.75242 0
M  V30 29961 N 2802.21 -4.93612 -1.10369 0
M  V30 29962 C 2800.51 -3.96221 -2.04756 0
M  V30 29963 C 2801.21 -5.74086 -0.938098 0
M  V30 29964 N 2800.18 -5.23618 -1.4603 0
M  V30 29965 H 2803.99 -2.91822 -0.348845 0
M  V30 29966 H 2801.5 -1.62136 -0.0924786 0
M  V30 29967 H 2803.5 -3.08155 -2.80795 0
M  V30 29968 H 2802.16 -1.92035 -2.61826 0
M  V30 29969 H 2803.17 -5.12164 -0.768695 0
M  V30 29970 H 2799.85 -3.28286 -2.57943 0
M  V30 29971 H 2801.24 -6.70525 -0.42956 0
M  V30 29972 N 2803.96 0.163482 -1.5675 0
M  V30 29973 C 2805.2 0.875403 -1.83598 0
M  V30 29974 C 2805.56 1.79527 -0.691938 0
M  V30 29975 O 2804.85 1.89056 0.31116 0
M  V30 29976 C 2805.04 1.70065 -3.14345 0
M  V30 29977 C 2804.87 0.862187 -4.41357 0
M  V30 29978 C 2803.64 0.534211 -5.02468 0
M  V30 29979 C 2805.84 0.200112 -5.13911 0
M  V30 29980 N 2803.82 -0.319578 -6.13068 0
M  V30 29981 C 2805.19 -0.514507 -6.17861 0
M  V30 29982 C 2807.25 0.119084 -4.97758 0
M  V30 29983 C 2805.95 -1.30248 -7.07409 0
M  V30 29984 C 2807.98 -0.65558 -5.87755 0
M  V30 29985 C 2807.34 -1.35854 -6.91175 0
M  V30 29986 H 2803.44 0.298695 -0.722707 0
M  V30 29987 H 2806.02 0.141848 -1.94183 0
M  V30 29988 H 2804.19 2.40557 -3.04937 0
M  V30 29989 H 2805.93 2.35448 -3.2916 0
M  V30 29990 H 2802.68 0.86614 -4.65612 0
M  V30 29991 H 2803.1 -0.737012 -6.72976 0
M  V30 29992 H 2807.75 0.648205 -4.17802 0
M  V30 29993 H 2805.46 -1.84292 -7.86805 0
M  V30 29994 H 2809.05 -0.72005 -5.77327 0
M  V30 29995 H 2807.93 -1.94835 -7.59611 0
M  V30 29996 N 2805.43 1.51555 0.432299 0
M  V30 29997 C 2806.36 1.76182 1.53239 0
M  V30 29998 C 2807.34 0.611829 1.58716 0
M  V30 29999 O 2808.53 0.855063 1.74363 0
M  V30 30000 C 2805.66 1.89146 2.91275 0
M  V30 30001 C 2804.61 3.04613 3.00657 0
M  V30 30002 C 2803.94 3.02767 4.40722 0
M  V30 30003 C 2805.24 4.4449 2.74273 0
M  V30 30004 H 2806.93 2.68296 1.32881 0
M  V30 30005 H 2804.48 1.29104 0.637818 0
M  V30 30006 H 2806.43 2.04957 3.68199 0
M  V30 30007 H 2805.16 0.93684 3.12875 0
M  V30 30008 H 2803.82 2.88515 2.26174 0
M  V30 30009 H 2803.46 2.05073 4.59297 0
M  V30 30010 H 2803.16 3.80307 4.47929 0
M  V30 30011 H 2804.69 3.20678 5.19613 0
M  V30 30012 H 2806.1 4.60913 3.40928 0
M  V30 30013 H 2804.5 5.23774 2.92883 0
M  V30 30014 H 2805.57 4.5418 1.69848 0
M  V30 30015 N 2806.91 -0.688069 1.41786 0
M  V30 30016 C 2808.14 -1.48172 1.4512 0
M  V30 30017 C 2808.56 -1.88004 0.0601621 0
M  V30 30018 O 2807.92 -1.55128 -0.938357 0
M  V30 30019 C 2807.97 -2.71579 2.37229 0
M  V30 30020 O 2807.07 -3.69351 1.8345 0
M  V30 30021 H 2806.41 -0.445667 0.492216 0
M  V30 30022 H 2808.94 -0.845112 1.8633 0
M  V30 30023 H 2808.95 -3.19802 2.53359 0
M  V30 30024 H 2807.63 -2.41926 3.38297 0
M  V30 30025 H 2806.2 -3.28319 1.76808 0
M  V30 30026 N 2808.39 -1.27739 -0.923072 0
M  V30 30027 C 2809.62 -1.17004 -1.70275 0
M  V30 30028 C 2810.03 0.275166 -1.87188 0
M  V30 30029 O 2809.37 1.19875 -1.39197 0
M  V30 30030 C 2809.43 -1.78643 -3.11973 0
M  V30 30031 C 2809.1 -3.27846 -3.1838 0
M  V30 30032 C 2810.09 -4.24415 -3.00279 0
M  V30 30033 C 2807.78 -3.68638 -3.41191 0
M  V30 30034 C 2809.77 -5.59753 -3.04887 0
M  V30 30035 C 2807.46 -5.04104 -3.45431 0
M  V30 30036 C 2808.46 -5.99471 -3.27298 0
M  V30 30037 O 2808.15 -7.32467 -3.31282 0
M  V30 30038 H 2807.88 -0.407514 -0.539359 0
M  V30 30039 H 2810.43 -1.69204 -1.16443 0
M  V30 30040 H 2808.66 -1.20925 -3.67306 0
M  V30 30041 H 2810.35 -1.62557 -3.71928 0
M  V30 30042 H 2811.12 -3.94237 -2.82493 0
M  V30 30043 H 2807 -2.9488 -3.54354 0
M  V30 30044 H 2810.54 -6.34167 -2.90651 0
M  V30 30045 H 2806.44 -5.33936 -3.62744 0
M  V30 30046 H 2807.2 -7.40974 -3.47706 0
M  V30 30047 N 2809.87 1.13022 -1.09836 0
M  V30 30048 C 2810.8 2.17661 -0.685491 0
M  V30 30049 C 2811.78 1.59615 0.310114 0
M  V30 30050 O 2812.96 1.87321 0.210487 0
M  V30 30051 C 2810.09 3.38698 -0.0105071 0
M  V30 30052 C 2809.14 4.15356 -0.968595 0
M  V30 30053 S 2809.97 4.74465 -2.48281 0
M  V30 30054 C 2811.13 5.98844 -1.82035 0
M  V30 30055 H 2811.36 2.52346 -1.57191 0
M  V30 30056 H 2808.89 1.24385 -0.91475 0
M  V30 30057 H 2810.85 4.08805 0.372622 0
M  V30 30058 H 2809.51 3.02306 0.85262 0
M  V30 30059 H 2808.7 5.02045 -0.443461 0
M  V30 30060 H 2808.31 3.50926 -1.29333 0
M  V30 30061 H 2810.6 6.67722 -1.14689 0
M  V30 30062 H 2811.54 6.55972 -2.66657 0
M  V30 30063 H 2811.95 5.49622 -1.28749 0
M  V30 30064 N 2811.35 0.886177 1.30325 0
M  V30 30065 C 2812.76 0.555585 1.78242 0
M  V30 30066 C 2813.11 -0.928283 1.72851 0
M  V30 30067 O 2812.23 -1.7254 1.3061 0
M  V30 30068 C 2812.83 1.00174 3.23652 0
M  V30 30069 C 2811.39 0.722536 3.694 0
M  V30 30070 C 2810.53 1.18404 2.50751 0
M  V30 30071 H 2813.49 1.07028 1.17178 0
M  V30 30072 H 2813.51 0.331218 3.79056 0
M  V30 30073 H 2813.02 2.08174 3.27544 0
M  V30 30074 H 2811.12 -0.345431 3.70995 0
M  V30 30075 H 2811.23 1.31093 4.60816 0
M  V30 30076 H 2809.6 0.603347 2.47451 0
M  V30 30077 H 2810.38 2.27181 2.57379 0
M  V30 30078 N 2812.82 -1.43695 0.647253 0
M  V30 30079 C 2813.77 -2.3075 -0.0479687 0
M  V30 30080 C 2814.74 -1.44409 -0.82068 0
M  V30 30081 O 2815.93 -1.73288 -0.798484 0
M  V30 30082 C 2813.07 -3.29912 -1.01254 0
M  V30 30083 C 2812.18 -4.31352 -0.236553 0
M  V30 30084 C 2811.31 -5.17598 -1.19438 0
M  V30 30085 C 2810.35 -6.10735 -0.408488 0
M  V30 30086 N 2809.49 -6.89626 -1.3176 0
M  V30 30087 H 2814.33 -2.89655 0.700289 0
M  V30 30088 H 2811.87 -1.427 0.357107 0
M  V30 30089 H 2813.83 -3.85906 -1.58532 0
M  V30 30090 H 2812.46 -2.7267 -1.72774 0
M  V30 30091 H 2811.51 -3.777 0.45242 0
M  V30 30092 H 2812.82 -4.9739 0.374818 0
M  V30 30093 H 2811.97 -5.78189 -1.83799 0
M  V30 30094 H 2810.71 -4.51672 -1.83967 0
M  V30 30095 H 2809.72 -5.49238 0.248507 0
M  V30 30096 H 2810.94 -6.78703 0.232308 0
M  V30 30097 H 2808.89 -6.26354 -1.9498 0
M  V30 30098 H 2808.81 -7.52164 -0.760647 0
M  V30 30099 H 2810.07 -7.54727 -1.94954 0
M  V30 30100 N 2814.3 -0.388796 -1.52729 0
M  V30 30101 C 2815.53 0.196174 -2.0647 0
M  V30 30102 C 2815.95 1.39782 -1.25868 0
M  V30 30103 O 2815.31 1.79068 -0.283594 0
M  V30 30104 C 2815.36 0.545037 -3.56457 0
M  V30 30105 O 2814.46 1.63906 -3.78429 0
M  V30 30106 H 2813.8 0.0230553 -0.6636 0
M  V30 30107 H 2816.33 -0.556119 -1.96897 0
M  V30 30108 H 2816.34 0.809487 -3.99889 0
M  V30 30109 H 2815.02 -0.333489 -4.14561 0
M  V30 30110 H 2813.6 1.36836 -3.46887 0
M  V30 30111 N 2815.78 1.57153 -0.118604 0
M  V30 30112 C 2817.03 1.9547 0.540291 0
M  V30 30113 C 2817.36 1.00199 1.66355 0
M  V30 30114 O 2816.63 0.0391382 1.94461 0
M  V30 30115 C 2816.92 3.43731 1.07336 0
M  V30 30116 C 2816.77 4.49776 -0.0464523 0
M  V30 30117 C 2818.09 3.93829 1.96435 0
M  V30 30118 H 2815.21 0.710755 0.194927 0
M  V30 30119 H 2817.85 1.89006 -0.194083 0
M  V30 30120 H 2816 3.49371 1.69918 0
M  V30 30121 H 2817.67 4.56235 -0.681729 0
M  V30 30122 H 2815.92 4.27956 -0.709649 0
M  V30 30123 H 2816.59 5.50774 0.36776 0
M  V30 30124 H 2819.06 3.9049 1.43724 0
M  V30 30125 H 2817.94 4.98088 2.30651 0
M  V30 30126 H 2818.2 3.345 2.89071 0
M  V30 30127 N 2817.26 -0.155167 1.56834 0
M  V30 30128 C 2818.21 -1.19681 1.94063 0
M  V30 30129 C 2819.19 -1.38973 0.810875 0
M  V30 30130 O 2820.38 -1.40673 1.07425 0
M  V30 30131 C 2817.51 -2.53243 2.31782 0
M  V30 30132 C 2816.6 -2.37577 3.51309 0
M  V30 30133 N 2816.99 -1.91652 4.68085 0
M  V30 30134 C 2815.29 -2.68354 3.56233 0
M  V30 30135 C 2815.99 -1.88835 5.50197 0
M  V30 30136 N 2814.97 -2.31844 4.9168 0
M  V30 30137 H 2818.77 -0.833698 2.81827 0
M  V30 30138 H 2816.28 -0.3633 1.58284 0
M  V30 30139 H 2818.28 -3.28533 2.56654 0
M  V30 30140 H 2816.94 -2.90343 1.45365 0
M  V30 30141 H 2817.95 -1.61742 4.91996 0
M  V30 30142 H 2814.63 -3.09384 2.80335 0
M  V30 30143 H 2816.02 -1.54889 6.53803 0
M  V30 30144 N 2818.74 -1.51782 -0.424256 0
M  V30 30145 C 2819.96 -1.69212 -1.19925 0
M  V30 30146 C 2820.39 -0.394387 -1.83919 0
M  V30 30147 O 2819.74 0.646749 -1.69372 0
M  V30 30148 C 2819.79 -2.81847 -2.24932 0
M  V30 30149 O 2818.9 -2.46362 -3.30726 0
M  V30 30150 H 2818.24 -0.563787 -0.35077 0
M  V30 30151 H 2820.77 -1.98412 -0.499366 0
M  V30 30152 H 2820.78 -3.06317 -2.69507 0
M  V30 30153 H 2819.45 -3.76009 -1.77735 0
M  V30 30154 H 2818.03 -2.3251 -2.91536 0
M  V30 30155 N 2820.21 0.68054 -1.42149 0
M  V30 30156 C 2821.44 1.47401 -1.45903 0
M  V30 30157 C 2821.86 1.87969 -0.0701315 0
M  V30 30158 O 2821.22 1.55623 0.930117 0
M  V30 30159 C 2821.27 2.70317 -2.38666 0
M  V30 30160 O 2820.37 3.68373 -1.85406 0
M  V30 30161 H 2819.72 0.443051 -0.494573 0
M  V30 30162 H 2822.25 0.835218 -1.86776 0
M  V30 30163 H 2822.26 3.18454 -2.55051 0
M  V30 30164 H 2820.93 2.40128 -3.39575 0
M  V30 30165 H 2819.51 3.27377 -1.78546 0
M  V30 30166 N 2821.69 1.28226 0.916285 0
M  V30 30167 C 2822.94 1.15403 1.66763 0
M  V30 30168 C 2823.27 -0.297217 1.91912 0
M  V30 30169 O 2822.55 -1.21641 1.51768 0
M  V30 30170 C 2822.83 1.95033 3.02711 0
M  V30 30171 C 2822.68 3.48206 2.84732 0
M  V30 30172 C 2824 1.76376 4.03212 0
M  V30 30173 H 2821.12 0.4206 0.605198 0
M  V30 30174 H 2823.76 1.57513 1.06252 0
M  V30 30175 H 2821.91 1.59248 3.54362 0
M  V30 30176 H 2823.58 3.93884 2.40111 0
M  V30 30177 H 2821.83 3.73968 2.19842 0
M  V30 30178 H 2822.5 3.99178 3.81263 0
M  V30 30179 H 2824.97 2.076 3.60613 0
M  V30 30180 H 2823.85 2.34468 4.96302 0
M  V30 30181 H 2824.11 0.714597 4.36287 0
M  V30 30182 N 2823.17 -1.12438 1.10433 0
M  V30 30183 C 2824.58 -1.65481 0.864468 0
M  V30 30184 C 2824.93 -1.86631 -0.605237 0
M  V30 30185 O 2824.06 -1.59279 -1.46489 0
M  V30 30186 C 2824.65 -3.00607 1.56272 0
M  V30 30187 C 2823.21 -3.506 1.36956 0
M  V30 30188 C 2822.36 -2.25623 1.61213 0
M  V30 30189 H 2825.31 -0.962187 1.26205 0
M  V30 30190 H 2825.33 -3.67077 1.00172 0
M  V30 30191 H 2824.84 -2.85181 2.63237 0
M  V30 30192 H 2822.94 -3.7121 0.321546 0
M  V30 30193 H 2823.06 -4.30061 2.11151 0
M  V30 30194 H 2821.42 -2.32729 1.03486 0
M  V30 30195 H 2822.2 -2.12751 2.69429 0
M  V30 30196 N 2824.65 -0.893076 -1.29853 0
M  V30 30197 C 2825.58 -0.382289 -2.30349 0
M  V30 30198 C 2826.56 0.539174 -1.61329 0
M  V30 30199 O 2827.75 0.451309 -1.88883 0
M  V30 30200 C 2824.88 0.396922 -3.45024 0
M  V30 30201 C 2823.83 -0.433512 -4.25799 0
M  V30 30202 C 2823.16 0.472796 -5.32606 0
M  V30 30203 C 2824.46 -1.67993 -4.94546 0
M  V30 30204 H 2826.15 -1.2221 -2.73322 0
M  V30 30205 H 2823.7 -0.589096 -1.31399 0
M  V30 30206 H 2825.65 0.764951 -4.14399 0
M  V30 30207 H 2824.37 1.27045 -3.00877 0
M  V30 30208 H 2823.03 -0.783786 -3.58123 0
M  V30 30209 H 2822.68 1.34427 -4.84704 0
M  V30 30210 H 2822.38 -0.0790991 -5.87547 0
M  V30 30211 H 2823.9 0.837163 -6.04834 0
M  V30 30212 H 2825.32 -1.38202 -5.56393 0
M  V30 30213 H 2823.71 -2.17264 -5.59389 0
M  V30 30214 H 2824.78 -2.41972 -4.20211 0
M  V30 30215 N 2826.13 1.4335 -0.654865 0
M  V30 30216 C 2827.06 2.3349 0.0221399 0
M  V30 30217 C 2828.04 1.49563 0.810246 0
M  V30 30218 O 2829.22 1.78222 0.771395 0
M  V30 30219 C 2826.35 3.32948 0.988059 0
M  V30 30220 C 2825.31 4.26876 0.309951 0
M  V30 30221 C 2824.63 5.16386 1.38743 0
M  V30 30222 C 2825.93 5.16157 -0.798679 0
M  V30 30223 H 2827.63 2.90349 -0.730622 0
M  V30 30224 H 2825.17 1.39611 -0.352798 0
M  V30 30225 H 2827.13 3.94907 1.4706 0
M  V30 30226 H 2825.85 2.7435 1.772 0
M  V30 30227 H 2824.51 3.66284 -0.152162 0
M  V30 30228 H 2824.16 4.54125 2.16285 0
M  V30 30229 H 2823.86 5.8005 0.938949 0
M  V30 30230 H 2825.38 5.81218 1.8713 0
M  V30 30231 H 2826.8 5.71915 -0.398226 0
M  V30 30232 H 2825.19 5.8855 -1.17173 0
M  V30 30233 H 2826.26 4.55748 -1.65596 0
M  V30 30234 N 2827.61 0.39689 1.52521 0
M  V30 30235 C 2828.55 -0.44939 2.28218 0
M  V30 30236 C 2829.55 -1.05649 1.32418 0
M  V30 30237 O 2830.75 -0.996097 1.49926 0
M  V30 30238 H 2827.13 -0.163687 0.733969 0
M  V30 30239 H 2829.1 0.210419 2.97657 0
M  V30 30240 C 2827.85 -1.56049 3.10715 0
M  V30 30241 H 2827.17 -1.10266 3.84293 0
M  V30 30242 H 2828.61 -2.1267 3.66807 0
M  V30 30243 C 2827.07 -2.52087 2.23504 0
M  V30 30244 O 2827.6 -3.55679 1.86697 0
M  V30 30245 N 2825.81 -2.22006 1.87514 0
M  V30 30246 H 2825.35 -1.37798 2.17645 0
M  V30 30247 H 2825.31 -2.86512 1.29453 0
M  V30 30248 N 2829.08 -1.57088 0.126936 0
M  V30 30249 C 2830.31 -2.00249 -0.539935 0
M  V30 30250 C 2830.73 -1.00621 -1.58925 0
M  V30 30251 O 2830.09 0.0209812 -1.81288 0
M  V30 30252 C 2830.14 -3.42252 -1.13559 0
M  V30 30253 O 2829.24 -3.45551 -2.25097 0
M  V30 30254 H 2828.58 -0.650316 -0.134108 0
M  V30 30255 H 2831.11 -2.03438 0.217753 0
M  V30 30256 H 2831.12 -3.8063 -1.46919 0
M  V30 30257 H 2829.8 -4.14277 -0.367049 0
M  V30 30258 H 2828.38 -3.18999 -1.93117 0
M  V30 30259 N 2830.56 0.146848 -1.56914 0
M  V30 30260 C 2831.51 1.1813 -1.98277 0
M  V30 30261 C 2832.48 1.4268 -0.850392 0
M  V30 30262 O 2833.66 1.55012 -1.11247 0
M  V30 30263 C 2830.8 2.50975 -2.36866 0
M  V30 30264 C 2829.92 2.33598 -3.63395 0
M  V30 30265 C 2829.05 3.59479 -3.91086 0
M  V30 30266 C 2828.09 3.3714 -5.10885 0
M  V30 30267 N 2827.23 4.55152 -5.34585 0
M  V30 30268 H 2832.07 0.821572 -2.86451 0
M  V30 30269 H 2829.6 0.394223 -1.41719 0
M  V30 30270 H 2831.56 3.28435 -2.57267 0
M  V30 30271 H 2830.19 2.84895 -1.51771 0
M  V30 30272 H 2829.24 1.47193 -3.50768 0
M  V30 30273 H 2830.56 2.13051 -4.51011 0
M  V30 30274 H 2829.71 4.45367 -4.11987 0
M  V30 30275 H 2828.45 3.83031 -3.01892 0
M  V30 30276 H 2827.45 2.4964 -4.89857 0
M  V30 30277 H 2828.68 3.14987 -6.01631 0
M  V30 30278 H 2826.63 4.78876 -4.48346 0
M  V30 30279 H 2826.54 4.37608 -6.1647 0
M  V30 30280 H 2827.81 5.42253 -5.59984 0
M  V30 30281 N 2832.04 1.52005 0.4162 0
M  V30 30282 C 2833.32 1.56274 1.17635 0
M  V30 30283 C 2833.7 0.339529 2.08352 0
M  V30 30284 O 2833.04 -0.674085 2.18331 0
M  V30 30285 C 2833.25 2.88778 1.95981 0
M  V30 30286 C 2834.6 3.41517 2.52293 0
M  V30 30287 O 2835.63 2.9047 2.06169 0
M  V30 30288 O 2834.49 4.30637 3.36473 0
M  V30 30289 H 2831.58 0.629179 0.536715 0
M  V30 30290 H 2834.13 1.64329 0.423554 0
M  V30 30291 H 2832.9 3.69257 1.29481 0
M  V30 30292 H 2832.52 2.83982 2.7828 0
M  V30 30293 N 2833.52 -0.672992 1.42508 0
M  V30 30294 C 2834.93 -1.25365 1.38349 0
M  V30 30295 C 2835.28 -1.96046 0.0776672 0
M  V30 30296 O 2834.4 -2.00117 -0.823536 0
M  V30 30297 C 2835 -2.27998 2.50604 0
M  V30 30298 C 2833.56 -2.81586 2.49772 0
M  V30 30299 C 2832.71 -1.55934 2.29303 0
M  V30 30300 H 2835.66 -0.466261 1.51696 0
M  V30 30301 H 2835.68 -3.0977 2.20959 0
M  V30 30302 H 2835.19 -1.76526 3.4563 0
M  V30 30303 H 2833.29 -3.37175 1.58569 0
M  V30 30304 H 2833.4 -3.30479 3.46873 0
M  V30 30305 H 2831.77 -1.82569 1.77597 0
M  V30 30306 H 2832.55 -1.06425 3.26387 0
M  V30 30307 N 2835 -1.2871 -0.909472 0
M  V30 30308 C 2836.24 -1.1549 -1.65363 0
M  V30 30309 C 2836.56 0.294907 -1.93364 0
M  V30 30310 O 2837.76 0.548292 -2.65906 0
M  V30 30311 C 2836.22 -2.01922 -2.97919 0
M  V30 30312 C 2835.83 -3.51668 -2.77549 0
M  V30 30313 C 2837.57 -1.97399 -3.75811 0
M  V30 30314 C 2835.48 -4.30236 -4.05772 0
M  V30 30315 H 2834.41 -0.428631 -0.620316 0
M  V30 30316 H 2837.06 -1.53275 -1.00891 0
M  V30 30317 H 2835.44 -1.56996 -3.63549 0
M  V30 30318 H 2836.62 -4.04579 -2.20573 0
M  V30 30319 H 2834.93 -3.5776 -2.13065 0
M  V30 30320 H 2837.53 -2.53365 -4.70861 0
M  V30 30321 H 2837.87 -0.951715 -4.05275 0
M  V30 30322 H 2838.4 -2.40316 -3.17006 0
M  V30 30323 H 2835.14 -5.33061 -3.81479 0
M  V30 30324 H 2834.66 -3.82097 -4.62344 0
M  V30 30325 H 2836.34 -4.40382 -4.73997 0
M  V30 30326 N 2836.47 1.1185 -1.11028 0
M  V30 30327 C 2837.75 1.79876 -0.768379 0
M  V30 30328 C 2838.13 1.97546 0.744226 0
M  V30 30329 O 2837.48 1.55672 1.67268 0
M  V30 30330 C 2837.69 3.13844 -1.52654 0
M  V30 30331 C 2839.04 3.8895 -1.70304 0
M  V30 30332 O 2840.06 3.23519 -1.49042 0
M  V30 30333 O 2838.92 5.0635 -2.05602 0
M  V30 30334 H 2836.01 0.778908 -0.277905 0
M  V30 30335 H 2838.56 1.18631 -1.21346 0
M  V30 30336 H 2837.33 2.96311 -2.55569 0
M  V30 30337 H 2836.95 3.82799 -1.07473 0
M  V30 30338 N 2837.95 0.89995 1.29378 0
M  V30 30339 C 2839.37 0.596085 1.48051 0
M  V30 30340 C 2839.57 -0.86234 1.82115 0
M  V30 30341 O 2838.62 -1.6425 1.91777 0
M  V30 30342 C 2839.94 1.52212 2.5933 0
M  V30 30343 C 2841.48 1.52735 2.73205 0
M  V30 30344 C 2841.96 2.43968 3.87613 0
M  V30 30345 N 2843.45 2.42016 3.94946 0
M  V30 30346 C 2844.19 3.09312 4.82819 0
M  V30 30347 N 2843.68 3.85887 5.75381 0
M  V30 30348 N 2845.47 2.98468 4.76312 0
M  V30 30349 H 2837.63 1.84321 1.05543 0
M  V30 30350 H 2839.89 0.789819 0.5243 0
M  V30 30351 H 2839.59 2.56126 2.41024 0
M  V30 30352 H 2839.47 1.24284 3.56137 0
M  V30 30353 H 2841.86 0.495665 2.90907 0
M  V30 30354 H 2841.94 1.84701 1.76972 0
M  V30 30355 H 2841.58 3.47231 3.70666 0
M  V30 30356 H 2841.51 2.09311 4.83215 0
M  V30 30357 H 2844 1.8638 3.28741 0
M  V30 30358 H 2844.31 4.3429 6.39228 0
M  V30 30359 H 2842.66 3.89994 5.75265 0
M  V30 30360 H 2845.85 2.38159 4.02986 0
M  V30 30361 H 2846.02 3.51189 5.44583 0
M  V30 30362 N 2839.43 -1.43001 0.662458 0
M  V30 30363 C 2840.68 -2.00923 0.176908 0
M  V30 30364 C 2840.99 -1.52929 -1.21952 0
M  V30 30365 O 2842.2 -2.03185 -1.80078 0
M  V30 30366 C 2840.65 -3.5892 0.265442 0
M  V30 30367 C 2840.26 -4.15905 1.66514 0
M  V30 30368 C 2842.01 -4.24191 -0.162029 0
M  V30 30369 C 2839.91 -5.66226 1.7071 0
M  V30 30370 H 2838.84 -0.751415 0.062376 0
M  V30 30371 H 2841.49 -1.63866 0.825842 0
M  V30 30372 H 2839.88 -3.93422 -0.451166 0
M  V30 30373 H 2841.05 -3.92886 2.40784 0
M  V30 30374 H 2839.37 -3.6304 2.03939 0
M  V30 30375 H 2841.96 -5.34488 -0.150651 0
M  V30 30376 H 2842.31 -3.98776 -1.19512 0
M  V30 30377 H 2842.84 -3.94605 0.503144 0
M  V30 30378 H 2839.58 -5.96421 2.7196 0
M  V30 30379 H 2839.1 -5.91273 1.00779 0
M  V30 30380 H 2840.78 -6.30428 1.45498 0
M  V30 30381 N 2840.91 -0.404973 -1.52308 0
M  V30 30382 C 2842.16 0.173494 -2.00952 0
M  V30 30383 C 2842.47 1.46578 -1.29515 0
M  V30 30384 O 2843.68 2.12525 -1.68954 0
M  V30 30385 C 2842.13 0.359738 -3.58098 0
M  V30 30386 C 2841.74 -0.920215 -4.38447 0
M  V30 30387 C 2843.48 0.893721 -4.14985 0
M  V30 30388 C 2841.39 -0.701388 -5.87226 0
M  V30 30389 H 2840.32 0.0686112 -0.750872 0
M  V30 30390 H 2842.97 -0.52978 -1.75686 0
M  V30 30391 H 2841.35 1.12524 -3.79677 0
M  V30 30392 H 2842.53 -1.69155 -4.2863 0
M  V30 30393 H 2840.84 -1.38031 -3.92857 0
M  V30 30394 H 2843.44 1.0734 -5.23815 0
M  V30 30395 H 2843.78 1.86724 -3.72075 0
M  V30 30396 H 2844.32 0.187383 -3.97358 0
M  V30 30397 H 2841.06 -1.64635 -6.34488 0
M  V30 30398 H 2840.58 0.0307234 -5.99792 0
M  V30 30399 H 2842.25 -0.341959 -6.46096 0
M  V30 30400 N 2842.39 1.57018 -0.135265 0
M  V30 30401 C 2843.3 2.19721 0.822187 0
M  V30 30402 C 2844.31 1.17805 1.28055 0
M  V30 30403 O 2845.49 1.50338 1.34017 0
M  V30 30404 C 2842.55 2.79721 2.04835 0
M  V30 30405 C 2841.61 3.96725 1.64035 0
M  V30 30406 C 2840.85 4.53854 2.80806 0
M  V30 30407 O 2841.07 4.09867 3.96693 0
M  V30 30408 O 2840 5.44296 2.56953 0
M  V30 30409 H 2843.83 3.02025 0.318499 0
M  V30 30410 H 2841.42 1.49122 0.0911759 0
M  V30 30411 H 2843.3 3.17902 2.76616 0
M  V30 30412 H 2841.97 2.00437 2.54179 0
M  V30 30413 H 2840.88 3.63283 0.893119 0
M  V30 30414 H 2842.21 4.77494 1.19418 0
M  V30 30415 N 2843.86 -0.138524 1.5699 0
M  V30 30416 C 2845.11 -0.849699 1.83811 0
M  V30 30417 C 2845.44 -1.80785 0.717441 0
M  V30 30418 O 2844.69 -1.93496 -0.292863 0
M  V30 30419 C 2844.99 -1.65043 3.1701 0
M  V30 30420 C 2844.66 -0.83832 4.43038 0
M  V30 30421 C 2843.32 -0.614301 4.77263 0
M  V30 30422 C 2845.67 -0.270952 5.20495 0
M  V30 30423 C 2843 0.187655 5.864 0
M  V30 30424 C 2845.35 0.51809 6.30475 0
M  V30 30425 C 2844.02 0.752607 6.63244 0
M  V30 30426 H 2843.29 -0.310927 0.672611 0
M  V30 30427 H 2845.93 -0.112938 1.91167 0
M  V30 30428 H 2844.24 -2.45754 3.05143 0
M  V30 30429 H 2845.94 -2.20431 3.34979 0
M  V30 30430 H 2842.53 -1.023 4.16212 0
M  V30 30431 H 2846.71 -0.431284 4.94423 0
M  V30 30432 H 2841.97 0.378766 6.10226 0
M  V30 30433 H 2846.14 0.964815 6.89684 0
M  V30 30434 H 2843.77 1.37587 7.47646 0
M  V30 30435 N 2845.34 -1.52224 -0.408133 0
M  V30 30436 C 2846.59 -1.66578 -1.15671 0
M  V30 30437 C 2846.92 -0.395029 -1.9014 0
M  V30 30438 O 2846.2 0.606581 -1.84799 0
M  V30 30439 C 2846.48 -2.88845 -2.15037 0
M  V30 30440 C 2846.33 -4.25972 -1.44457 0
M  V30 30441 C 2847.65 -3.06635 -3.15694 0
M  V30 30442 H 2844.77 -0.606204 -0.419149 0
M  V30 30443 H 2847.41 -1.8478 -0.442315 0
M  V30 30444 H 2845.56 -2.73457 -2.75959 0
M  V30 30445 H 2847.23 -4.53089 -0.866464 0
M  V30 30446 H 2845.48 -4.27328 -0.746537 0
M  V30 30447 H 2846.15 -5.07572 -2.16967 0
M  V30 30448 H 2848.62 -3.20928 -2.64848 0
M  V30 30449 H 2847.5 -3.93697 -3.82484 0
M  V30 30450 H 2847.76 -2.19994 -3.83478 0
M  V30 30451 N 2846.82 0.665425 -1.42863 0
M  V30 30452 C 2848.23 1.24629 -1.39012 0
M  V30 30453 C 2848.58 1.96002 -0.0880629 0
M  V30 30454 O 2847.71 2.00551 0.812912 0
M  V30 30455 C 2848.3 2.26666 -2.51809 0
M  V30 30456 C 2846.86 2.80258 -2.51262 0
M  V30 30457 C 2846.01 1.54716 -2.30127 0
M  V30 30458 H 2848.96 0.45821 -1.51941 0
M  V30 30459 H 2848.98 3.08594 -2.22598 0
M  V30 30460 H 2848.49 1.74691 -3.46561 0
M  V30 30461 H 2846.59 3.36329 -1.60355 0
M  V30 30462 H 2846.71 3.28635 -3.4862 0
M  V30 30463 H 2845.07 1.81624 -1.78563 0
M  V30 30464 H 2845.85 1.04693 -3.26947 0
M  V30 30465 N 2848.3 1.29191 0.902633 0
M  V30 30466 C 2849.53 1.19872 1.68637 0
M  V30 30467 C 2849.94 -0.241088 1.87254 0
M  V30 30468 O 2849.3 -1.16174 1.40747 0
M  V30 30469 C 2849.35 1.90476 3.07247 0
M  V30 30470 O 2849.07 3.28834 2.89482 0
M  V30 30471 C 2850.57 1.87597 4.01649 0
M  V30 30472 H 2847.79 0.415606 0.526795 0
M  V30 30473 H 2850.34 1.70512 1.12898 0
M  V30 30474 H 2848.49 1.43679 3.59771 0
M  V30 30475 H 2848.9 3.64352 3.7729 0
M  V30 30476 H 2850.38 2.41569 4.96335 0
M  V30 30477 H 2850.86 0.850832 4.3088 0
M  V30 30478 H 2851.46 2.34125 3.55057 0
M  V30 30479 N 2849.78 -1.1126 1.1162 0
M  V30 30480 C 2850.72 -2.17355 0.776238 0
M  V30 30481 C 2851.69 -1.6416 -0.253123 0
M  V30 30482 O 2852.88 -1.90359 -0.129621 0
M  V30 30483 C 2850.02 -3.44348 0.227642 0
M  V30 30484 C 2849.13 -4.11538 1.31379 0
M  V30 30485 C 2848.27 -5.26222 0.725533 0
M  V30 30486 C 2847.31 -5.85299 1.7914 0
M  V30 30487 N 2846.44 -6.91375 1.2225 0
M  V30 30488 H 2851.28 -2.4578 1.68512 0
M  V30 30489 H 2848.82 -1.20653 0.841496 0
M  V30 30490 H 2850.78 -4.17059 -0.10841 0
M  V30 30491 H 2849.41 -3.16302 -0.64443 0
M  V30 30492 H 2848.46 -3.36882 1.76676 0
M  V30 30493 H 2849.77 -4.515 2.12013 0
M  V30 30494 H 2848.93 -6.05749 0.339647 0
M  V30 30495 H 2847.66 -4.87571 -0.112103 0
M  V30 30496 H 2846.67 -5.04449 2.18657 0
M  V30 30497 H 2847.89 -6.26017 2.6321 0
M  V30 30498 H 2845.84 -6.54739 0.406538 0
M  V30 30499 H 2845.76 -7.30002 1.96553 0
M  V30 30500 H 2847.03 -7.74702 0.863562 0
M  V30 30501 N 2851.25 -0.906798 -1.28899 0
M  V30 30502 C 2852.48 -0.552004 -1.994 0
M  V30 30503 C 2852.9 0.865019 -1.67818 0
M  V30 30504 O 2852.25 1.57197 -0.927105 0
M  V30 30505 C 2852.31 -0.743214 -3.53778 0
M  V30 30506 O 2852.03 -2.10447 -3.84244 0
M  V30 30507 C 2853.53 -0.394318 -4.41543 0
M  V30 30508 H 2850.75 -0.211118 -0.636923 0
M  V30 30509 H 2853.29 -1.21809 -1.64264 0
M  V30 30510 H 2851.45 -0.124211 -3.87201 0
M  V30 30511 H 2851.86 -2.13903 -4.78901 0
M  V30 30512 H 2853.33 -0.578911 -5.48956 0
M  V30 30513 H 2853.81 0.669061 -4.34074 0
M  V30 30514 H 2854.42 -0.990564 -4.13604 0
M  V30 30515 N 2852.73 1.42648 -0.670032 0
M  V30 30516 C 2854.14 1.84764 -0.26815 0
M  V30 30517 C 2854.49 1.56088 1.18874 0
M  V30 30518 O 2853.62 1.01828 1.90945 0
M  V30 30519 C 2854.21 3.35384 -0.479899 0
M  V30 30520 C 2852.77 3.76168 -0.132182 0
M  V30 30521 C 2851.92 2.6626 -0.774658 0
M  V30 30522 H 2854.87 1.32562 -0.872532 0
M  V30 30523 H 2854.89 3.79545 0.269455 0
M  V30 30524 H 2854.4 3.56224 -1.54033 0
M  V30 30525 H 2852.51 3.60936 0.924987 0
M  V30 30526 H 2852.62 4.75705 -0.569377 0
M  V30 30527 H 2850.98 2.53862 -0.206398 0
M  V30 30528 H 2851.77 2.89924 -1.83844 0
M  V30 30529 N 2854.21 0.413044 1.52091 0
M  V30 30530 C 2855.44 -0.160612 2.05975 0
M  V30 30531 C 2855.85 -1.39082 1.28269 0
M  V30 30532 O 2855.19 -1.80733 0.328836 0
M  V30 30533 C 2855.25 -0.572107 3.54919 0
M  V30 30534 C 2854.92 0.547906 4.53704 0
M  V30 30535 C 2855.92 1.41268 5.00339 0
M  V30 30536 C 2853.6 0.721714 4.97088 0
M  V30 30537 C 2855.59 2.43617 5.89007 0
M  V30 30538 C 2853.28 1.74851 5.85551 0
M  V30 30539 C 2854.28 2.60415 6.31406 0
M  V30 30540 O 2853.97 3.61335 7.18117 0
M  V30 30541 H 2853.7 -0.0221817 0.675636 0
M  V30 30542 H 2856.25 0.583765 1.9693 0
M  V30 30543 H 2854.48 -1.36883 3.61663 0
M  V30 30544 H 2856.17 -1.07413 3.9143 0
M  V30 30545 H 2856.94 1.28982 4.67535 0
M  V30 30546 H 2852.82 0.0653721 4.60954 0
M  V30 30547 H 2856.36 3.10436 6.2472 0
M  V30 30548 H 2852.26 1.87167 6.17769 0
M  V30 30549 H 2853.03 3.57626 7.36238 0
M  V30 30550 N 2855.69 -1.56945 0.143591 0
M  V30 30551 C 2856.97 -1.87613 -0.553252 0
M  V30 30552 C 2857.35 -1.04898 -1.83193 0
M  V30 30553 O 2856.69 -0.134814 -2.28102 0
M  V30 30554 C 2856.9 -3.39182 -0.821996 0
M  V30 30555 C 2858.25 -4.08326 -1.16427 0
M  V30 30556 O 2859.28 -3.44341 -0.911461 0
M  V30 30557 O 2858.14 -5.21316 -1.63987 0
M  V30 30558 H 2855.23 -0.777494 -0.281838 0
M  V30 30559 H 2857.78 -1.68743 0.179946 0
M  V30 30560 H 2856.55 -3.91212 0.0830953 0
M  V30 30561 H 2856.17 -3.63567 -1.60949 0
M  V30 30562 N 2857.17 0.130197 -1.57061 0
M  V30 30563 C 2858.58 0.68853 -1.7354 0
M  V30 30564 C 2858.93 1.80858 -0.760586 0
M  V30 30565 O 2858.05 2.1629 0.0690416 0
M  V30 30566 C 2858.65 1.25575 -3.14668 0
M  V30 30567 C 2857.21 1.76049 -3.32692 0
M  V30 30568 C 2856.36 0.655664 -2.69437 0
M  V30 30569 H 2859.31 -0.095628 -1.58412 0
M  V30 30570 H 2859.33 2.1255 -3.15599 0
M  V30 30571 H 2858.84 0.440344 -3.85594 0
M  V30 30572 H 2856.94 2.60103 -2.66791 0
M  V30 30573 H 2857.05 1.87764 -4.40774 0
M  V30 30574 H 2855.42 1.0865 -2.30364 0
M  V30 30575 H 2856.2 -0.148581 -3.42978 0
M  V30 30576 N 2858.65 1.52438 0.400055 0
M  V30 30577 C 2860.06 1.41443 0.739334 0
M  V30 30578 C 2860.26 0.526087 1.94511 0
M  V30 30579 O 2859.32 -0.00468063 2.525 0
M  V30 30580 C 2860.63 2.84117 0.984774 0
M  V30 30581 C 2862.18 2.93521 1.08693 0
M  V30 30582 C 2862.65 4.37184 1.36507 0
M  V30 30583 N 2864.14 4.40459 1.43353 0
M  V30 30584 C 2864.88 5.48689 1.66518 0
M  V30 30585 N 2864.38 6.67022 1.87227 0
M  V30 30586 N 2866.17 5.36216 1.68607 0
M  V30 30587 H 2858.32 2.08723 -0.39352 0
M  V30 30588 H 2860.58 0.941143 -0.113817 0
M  V30 30589 H 2860.29 3.51284 0.171035 0
M  V30 30590 H 2860.16 3.25708 1.90248 0
M  V30 30591 H 2862.55 2.2653 1.89125 0
M  V30 30592 H 2862.63 2.55375 0.147387 0
M  V30 30593 H 2862.27 5.04738 0.565893 0
M  V30 30594 H 2862.2 4.72874 2.31728 0
M  V30 30595 H 2864.7 3.55164 1.29102 0
M  V30 30596 H 2865.01 7.45284 2.04379 0
M  V30 30597 H 2863.35 6.7007 1.84474 0
M  V30 30598 H 2866.54 4.42744 1.51972 0
M  V30 30599 H 2866.72 6.20635 1.86321 0
M  V30 30600 N 2860.12 -0.657839 1.43214 0
M  V30 30601 C 2861.37 -1.41826 1.45797 0
M  V30 30602 C 2861.72 -1.92237 0.0792514 0
M  V30 30603 O 2861.02 -1.69073 -0.901377 0
M  V30 30604 C 2861.21 -2.61943 2.43147 0
M  V30 30605 C 2861.04 -2.23288 3.90349 0
M  V30 30606 C 2859.81 -2.11835 4.58752 0
M  V30 30607 C 2862.01 -1.83864 4.80311 0
M  V30 30608 N 2859.99 -1.66463 5.90901 0
M  V30 30609 C 2861.36 -1.49539 6.01696 0
M  V30 30610 C 2863.42 -1.71006 4.67612 0
M  V30 30611 C 2862.12 -1.03644 7.11794 0
M  V30 30612 C 2864.15 -1.26517 5.77709 0
M  V30 30613 C 2863.51 -0.931256 6.98217 0
M  V30 30614 H 2859.61 -0.514812 0.588637 0
M  V30 30615 H 2862.19 -0.757469 1.79361 0
M  V30 30616 H 2860.36 -3.25688 2.11617 0
M  V30 30617 H 2862.09 -3.28622 2.36199 0
M  V30 30618 H 2858.85 -2.31446 4.13194 0
M  V30 30619 H 2859.27 -1.46151 6.61036 0
M  V30 30620 H 2863.91 -1.95463 3.74905 0
M  V30 30621 H 2861.63 -0.779361 8.04333 0
M  V30 30622 H 2865.22 -1.17064 5.69901 0
M  V30 30623 H 2864.1 -0.592242 7.8196 0
M  V30 30624 N 2861.6 -1.29668 -0.895769 0
M  V30 30625 C 2862.53 -1.09457 -2.00236 0
M  V30 30626 C 2863.51 -0.00529902 -1.62599 0
M  V30 30627 O 2864.7 -0.156762 -1.87847 0
M  V30 30628 C 2861.82 -0.667113 -3.32065 0
M  V30 30629 C 2860.87 -1.75567 -3.88688 0
M  V30 30630 S 2861.7 -3.35576 -4.17312 0
M  V30 30631 C 2862.86 -2.94708 -5.52176 0
M  V30 30632 H 2863.09 -2.03142 -2.17073 0
M  V30 30633 H 2860.62 -1.13859 -1.04285 0
M  V30 30634 H 2862.58 -0.427208 -4.08271 0
M  V30 30635 H 2861.24 0.250201 -3.13102 0
M  V30 30636 H 2860.44 -1.40861 -4.83915 0
M  V30 30637 H 2860.04 -1.9493 -3.19184 0
M  V30 30638 H 2862.33 -2.41997 -6.32806 0
M  V30 30639 H 2863.27 -3.88801 -5.9181 0
M  V30 30640 H 2863.68 -2.32888 -5.14221 0
M  V30 30641 N 2863.08 1.10667 -1.12208 0
M  V30 30642 C 2864.01 2.18996 -0.810124 0
M  V30 30643 C 2864.99 1.68605 0.225035 0
M  V30 30644 O 2866.18 1.94006 0.0867489 0
M  V30 30645 C 2863.31 3.46315 -0.261323 0
M  V30 30646 C 2862.26 4.09967 -1.22927 0
M  V30 30647 C 2861.59 5.31958 -0.540806 0
M  V30 30648 C 2862.89 4.53957 -2.58303 0
M  V30 30649 H 2864.58 2.45349 -1.71594 0
M  V30 30650 H 2862.13 1.17921 -0.826481 0
M  V30 30651 H 2864.08 4.21389 -0.0308262 0
M  V30 30652 H 2862.8 3.19446 0.679823 0
M  V30 30653 H 2861.46 3.36897 -1.44553 0
M  V30 30654 H 2861.11 5.01364 0.405404 0
M  V30 30655 H 2860.81 5.75497 -1.18647 0
M  V30 30656 H 2862.33 6.09765 -0.319291 0
M  V30 30657 H 2863.75 5.20315 -2.40718 0
M  V30 30658 H 2862.14 5.08337 -3.18925 0
M  V30 30659 H 2863.21 3.66997 -3.16925 0
M  V30 30660 N 2864.56 0.913621 1.28416 0
M  V30 30661 C 2865.52 0.406663 2.25563 0
M  V30 30662 C 2866.52 -0.466938 1.53871 0
M  V30 30663 O 2867.71 -0.270012 1.72095 0
M  V30 30664 C 2864.84 -0.416993 3.3834 0
M  V30 30665 H 2866.04 1.26482 2.71923 0
M  V30 30666 H 2863.59 0.693011 1.40097 0
M  V30 30667 H 2864.32 -1.29456 2.97341 0
M  V30 30668 H 2864.11 0.209171 3.91542 0
M  V30 30669 H 2865.6 -0.76253 4.10579 0
M  V30 30670 N 2866.04 -1.4229 0.677588 0
M  V30 30671 C 2867.28 -2.01102 0.200613 0
M  V30 30672 C 2867.6 -1.5386 -1.198 0
M  V30 30673 O 2866.87 -0.761471 -1.80495 0
M  V30 30674 H 2865.45 -0.743601 0.0711765 0
M  V30 30675 H 2868.12 -1.74168 0.874721 0
M  V30 30676 H 2867.21 -3.11432 0.204055 0
M  V30 30677 N 2867.51 -0.421104 -1.5187 0
M  V30 30678 C 2868.93 -0.0725678 -1.59435 0
M  V30 30679 C 2869.13 1.41641 -1.43318 0
M  V30 30680 O 2868.19 2.18459 -1.26618 0
M  V30 30681 C 2869.5 -0.578184 -2.95089 0
M  V30 30682 C 2871.05 -0.537203 -3.08356 0
M  V30 30683 C 2871.52 -1.01952 -4.46508 0
M  V30 30684 N 2873.01 -0.976837 -4.52783 0
M  V30 30685 C 2873.75 -1.32109 -5.57974 0
M  V30 30686 N 2873.24 -1.73739 -6.70661 0
M  V30 30687 N 2875.04 -1.24029 -5.48246 0
M  V30 30688 H 2867.19 -1.3901 -1.60593 0
M  V30 30689 H 2869.45 -0.571816 -0.756128 0
M  V30 30690 H 2869.16 -1.61935 -3.12202 0
M  V30 30691 H 2869.03 0.00571743 -3.772 0
M  V30 30692 H 2871.42 0.49494 -2.9092 0
M  V30 30693 H 2871.5 -1.15731 -2.28123 0
M  V30 30694 H 2871.14 -2.05005 -4.64688 0
M  V30 30695 H 2871.07 -0.376116 -5.25255 0
M  V30 30696 H 2873.56 -0.670916 -3.71897 0
M  V30 30697 H 2873.88 -1.98287 -7.46929 0
M  V30 30698 H 2872.22 -1.77653 -6.71911 0
M  V30 30699 H 2875.41 -0.913836 -4.59093 0
M  V30 30700 H 2875.59 -1.51187 -6.30116 0
M  V30 30701 N 2868.99 1.56866 -0.151912 0
M  V30 30702 C 2870.4 1.83035 0.368096 0
M  V30 30703 C 2870.75 1.07085 1.644 0
M  V30 30704 O 2869.88 0.317685 2.14055 0
M  V30 30705 C 2870.47 3.32016 0.674617 0
M  V30 30706 C 2869.03 3.58749 1.13913 0
M  V30 30707 C 2868.18 2.7681 0.164784 0
M  V30 30708 H 2871.13 1.54169 -0.376526 0
M  V30 30709 H 2871.15 3.48438 1.52877 0
M  V30 30710 H 2870.66 3.87267 -0.254181 0
M  V30 30711 H 2868.77 3.0889 2.0837 0
M  V30 30712 H 2868.88 4.67188 1.06171 0
M  V30 30713 H 2867.24 2.46044 0.658376 0
M  V30 30714 H 2868.03 3.34834 -0.757691 0
M  V30 30715 N 2870.47 -0.121866 1.57128 0
M  V30 30716 C 2871.42 -1.15538 1.96558 0
M  V30 30717 C 2872.4 -1.37222 0.840171 0
M  V30 30718 O 2873.6 -1.38363 1.10385 0
M  V30 30719 C 2870.73 -2.48269 2.37102 0
M  V30 30720 C 2869.81 -2.30072 3.56269 0
M  V30 30721 N 2870.2 -1.8168 4.72045 0
M  V30 30722 C 2868.5 -2.60737 3.61845 0
M  V30 30723 C 2869.2 -1.77122 5.54078 0
M  V30 30724 N 2868.18 -2.21362 4.96487 0
M  V30 30725 H 2871.98 -0.77373 2.83532 0
M  V30 30726 H 2869.49 -0.329644 1.59019 0
M  V30 30727 H 2871.49 -3.23015 2.63565 0
M  V30 30728 H 2870.15 -2.87194 1.51491 0
M  V30 30729 H 2871.16 -1.51269 4.95316 0
M  V30 30730 H 2867.84 -3.03368 2.86835 0
M  V30 30731 H 2869.23 -1.40986 6.56942 0
M  V30 30732 N 2871.95 -1.52648 -0.391965 0
M  V30 30733 C 2873.36 -1.59522 -0.970036 0
M  V30 30734 C 2873.71 -0.44624 -1.91058 0
M  V30 30735 O 2872.84 0.431088 -2.12063 0
M  V30 30736 C 2873.43 -2.89128 -1.76609 0
M  V30 30737 C 2871.99 -2.98424 -2.29391 0
M  V30 30738 C 2871.14 -2.5461 -1.09859 0
M  V30 30739 H 2874.09 -1.57769 -0.17161 0
M  V30 30740 H 2874.11 -2.75447 -2.62506 0
M  V30 30741 H 2873.62 -3.72733 -1.08129 0
M  V30 30742 H 2871.72 -2.1935 -3.01192 0
M  V30 30743 H 2871.83 -4.03006 -2.59081 0
M  V30 30744 H 2870.2 -2.0886 -1.45773 0
M  V30 30745 H 2870.98 -3.40607 -0.42919 0
M  V30 30746 N 2873.43 0.650235 -1.43561 0
M  V30 30747 C 2874.65 1.43776 -1.48782 0
M  V30 30748 C 2875.07 1.88499 -0.106626 0
M  V30 30749 O 2874.43 1.59676 0.883738 0
M  V30 30750 C 2874.48 2.67077 -2.43623 0
M  V30 30751 O 2874.2 2.24224 -3.76371 0
M  V30 30752 C 2875.7 3.60404 -2.58116 0
M  V30 30753 H 2872.92 0.441584 -0.505217 0
M  V30 30754 H 2875.46 0.796908 -1.88334 0
M  V30 30755 H 2873.62 3.27296 -2.07258 0
M  V30 30756 H 2874.03 3.04023 -4.274 0
M  V30 30757 H 2875.51 4.43578 -3.28547 0
M  V30 30758 H 2875.98 4.0795 -1.62707 0
M  V30 30759 H 2876.59 3.06065 -2.95304 0
M  V30 30760 N 2874.9 1.30141 0.88888 0
M  V30 30761 C 2875.84 1.12003 1.9997 0
M  V30 30762 C 2876.85 0.0643905 1.62673 0
M  V30 30763 O 2878.04 0.310013 1.75787 0
M  V30 30764 C 2875.14 0.685118 3.31903 0
M  V30 30765 C 2874.31 1.82165 3.97661 0
M  V30 30766 C 2873.37 1.37594 5.07892 0
M  V30 30767 O 2872.4 2.0825 5.29736 0
M  V30 30768 N 2873.6 0.252799 5.79949 0
M  V30 30769 H 2876.36 2.07675 2.16082 0
M  V30 30770 H 2873.92 1.22225 1.06173 0
M  V30 30771 H 2875.92 0.370035 4.03005 0
M  V30 30772 H 2874.49 -0.179452 3.12084 0
M  V30 30773 H 2873.71 2.30505 3.19783 0
M  V30 30774 H 2874.99 2.58339 4.38336 0
M  V30 30775 H 2874.39 -0.336042 5.64701 0
M  V30 30776 H 2872.95 -0.00285356 6.518 0
M  V30 30777 N 2876.38 -1.1007 1.12794 0
M  V30 30778 C 2877.33 -2.16519 0.799248 0
M  V30 30779 C 2878.3 -1.64419 -0.235697 0
M  V30 30780 O 2879.48 -1.90486 -0.109424 0
M  V30 30781 C 2876.62 -3.44088 0.264152 0
M  V30 30782 C 2875.74 -4.10122 1.35736 0
M  V30 30783 C 2874.87 -5.25423 0.781305 0
M  V30 30784 C 2873.91 -5.83366 1.85338 0
M  V30 30785 N 2873.05 -6.9004 1.29576 0
M  V30 30786 H 2877.89 -2.43978 1.7111 0
M  V30 30787 H 2875.43 -1.19754 0.854246 0
M  V30 30788 H 2877.38 -4.17151 -0.064169 0
M  V30 30789 H 2876.01 -3.16968 -0.610846 0
M  V30 30790 H 2875.07 -3.34989 1.80239 0
M  V30 30791 H 2876.38 -4.49226 2.16789 0
M  V30 30792 H 2875.53 -6.05354 0.403876 0
M  V30 30793 H 2874.27 -4.87663 -0.0603829 0
M  V30 30794 H 2873.28 -5.02102 2.23995 0
M  V30 30795 H 2874.5 -6.2319 2.69835 0
M  V30 30796 H 2872.45 -6.54271 0.475959 0
M  V30 30797 H 2872.36 -7.27876 2.04284 0
M  V30 30798 H 2873.63 -7.73742 0.945681 0
M  V30 30799 N 2877.86 -0.920419 -1.2793 0
M  V30 30800 C 2879.11 -0.55594 -1.94303 0
M  V30 30801 C 2879.43 0.904489 -1.72754 0
M  V30 30802 O 2878.7 1.64027 -1.07107 0
M  V30 30803 H 2877.28 -0.202612 -0.718998 0
M  V30 30804 H 2879.94 -1.17123 -1.55783 0
M  V30 30805 H 2879.04 -0.756034 -3.02804 0
M  V30 30806 N 2879.34 1.41929 -0.685124 0
M  V30 30807 C 2880.27 2.29185 0.0258276 0
M  V30 30808 C 2881.28 1.44232 0.755051 0
M  V30 30809 O 2882.47 1.67845 0.607491 0
M  V30 30810 C 2879.57 3.2188 1.0605 0
M  V30 30811 C 2878.75 4.35539 0.403011 0
M  V30 30812 C 2877.8 5.08882 1.33886 0
M  V30 30813 O 2876.83 5.63039 0.835227 0
M  V30 30814 N 2878.03 5.15364 2.67171 0
M  V30 30815 H 2880.8 2.90842 -0.723252 0
M  V30 30816 H 2878.36 1.52967 -0.530337 0
M  V30 30817 H 2880.35 3.67813 1.68806 0
M  V30 30818 H 2878.92 2.61603 1.71121 0
M  V30 30819 H 2878.14 3.92122 -0.404254 0
M  V30 30820 H 2879.43 5.08771 -0.0545992 0
M  V30 30821 H 2878.83 4.72793 3.10617 0
M  V30 30822 H 2877.38 5.64908 3.25149 0
M  V30 30823 N 2880.82 0.429152 1.51644 0
M  V30 30824 C 2882.06 -0.132548 2.02968 0
M  V30 30825 C 2882.42 -1.41093 1.30807 0
M  V30 30826 O 2881.71 -1.87124 0.411738 0
M  V30 30827 C 2881.9 -0.414409 3.54989 0
M  V30 30828 C 2881.73 0.835108 4.41878 0
M  V30 30829 C 2880.5 1.36623 4.86479 0
M  V30 30830 C 2882.7 1.71894 4.84724 0
M  V30 30831 N 2880.68 2.56914 5.57556 0
M  V30 30832 C 2882.05 2.76795 5.54783 0
M  V30 30833 C 2884.11 1.73433 4.66718 0
M  V30 30834 C 2882.81 3.83171 6.08747 0
M  V30 30835 C 2884.84 2.78739 5.21592 0
M  V30 30836 C 2884.2 3.8236 5.91591 0
M  V30 30837 H 2880.3 -0.00954993 0.781942 0
M  V30 30838 H 2882.88 0.58799 1.85609 0
M  V30 30839 H 2881.05 -1.10398 3.7238 0
M  V30 30840 H 2882.79 -0.966748 3.92984 0
M  V30 30841 H 2879.54 0.921337 4.64552 0
M  V30 30842 H 2879.97 3.17889 5.97725 0
M  V30 30843 H 2884.61 0.946539 4.12069 0
M  V30 30844 H 2882.33 4.62793 6.62456 0
M  V30 30845 H 2885.91 2.80862 5.09517 0
M  V30 30846 H 2884.79 4.62506 6.33291 0
M  V30 30847 N 2882.29 -1.56783 0.160229 0
M  V30 30848 C 2883.22 -2.20431 -0.770225 0
M  V30 30849 C 2884.21 -1.15653 -1.24734 0
M  V30 30850 O 2885.39 -1.44043 -1.30251 0
M  V30 30851 C 2882.52 -2.83634 -2.00422 0
M  V30 30852 C 2881.47 -3.94355 -1.66338 0
M  V30 30853 C 2880.8 -4.44555 -2.97111 0
M  V30 30854 C 2882.1 -5.14489 -0.899882 0
M  V30 30855 H 2883.79 -2.98439 -0.239731 0
M  V30 30856 H 2881.34 -1.43549 -0.113866 0
M  V30 30857 H 2883.29 -3.26831 -2.66006 0
M  V30 30858 H 2882.02 -2.02978 -2.55866 0
M  V30 30859 H 2880.68 -3.51796 -1.03127 0
M  V30 30860 H 2880.32 -3.60704 -3.50573 0
M  V30 30861 H 2880.02 -5.19243 -2.75064 0
M  V30 30862 H 2881.55 -4.90431 -3.63744 0
M  V30 30863 H 2882.96 -5.54448 -1.45808 0
M  V30 30864 H 2881.36 -5.95024 -0.778864 0
M  V30 30865 H 2882.43 -4.84784 0.105912 0
M  V30 30866 N 2883.77 0.113531 -1.57191 0
M  V30 30867 C 2885 0.838303 -1.89703 0
M  V30 30868 C 2885.42 1.72383 -0.75271 0
M  V30 30869 O 2884.78 1.78858 0.296544 0
M  V30 30870 C 2884.83 1.64307 -3.20992 0
M  V30 30871 O 2883.93 2.75048 -3.07282 0
M  V30 30872 H 2883.27 0.231485 -0.622343 0
M  V30 30873 H 2885.8 0.0942869 -2.04383 0
M  V30 30874 H 2885.81 2.03116 -3.53847 0
M  V30 30875 H 2884.49 0.993048 -4.0387 0
M  V30 30876 H 2883.07 2.39401 -2.85905 0
M  V30 30877 N 2885.25 1.52854 0.383864 0
M  V30 30878 C 2886.5 1.67816 1.12616 0
M  V30 30879 C 2886.82 0.423174 1.90353 0
M  V30 30880 O 2886.09 -0.562521 1.8765 0
M  V30 30881 H 2884.67 0.618609 0.418727 0
M  V30 30882 H 2887.33 1.89985 0.434917 0
M  V30 30883 H 2886.43 2.53094 1.8262 0
M  V30 30884 N 2886.73 -0.642612 1.43904 0
M  V30 30885 C 2887.98 -1.40237 1.46082 0
M  V30 30886 C 2888.3 -1.94296 0.0890676 0
M  V30 30887 O 2887.56 -1.73387 -0.907503 0
M  V30 30888 C 2887.86 -2.59349 2.45912 0
M  V30 30889 C 2887.52 -2.23647 3.91526 0
M  V30 30890 C 2886.19 -2.13622 4.31183 0
M  V30 30891 C 2888.54 -1.95252 4.83245 0
M  V30 30892 C 2885.87 -1.73375 5.60498 0
M  V30 30893 C 2888.22 -1.565 6.12936 0
M  V30 30894 C 2886.88 -1.45008 6.51559 0
M  V30 30895 H 2886.15 -0.513163 0.534551 0
M  V30 30896 H 2888.8 -0.729809 1.77048 0
M  V30 30897 H 2887.1 -3.31786 2.08387 0
M  V30 30898 H 2888.8 -3.1757 2.44848 0
M  V30 30899 H 2885.39 -2.32363 3.60146 0
M  V30 30900 H 2889.58 -2.01912 4.53371 0
M  V30 30901 H 2884.83 -1.63072 5.89252 0
M  V30 30902 H 2889.01 -1.33564 6.83472 0
M  V30 30903 H 2886.63 -1.13593 7.51665 0
M  V30 30904 N 2888.21 -1.30611 -0.881966 0
M  V30 30905 C 2889.45 -1.19607 -1.63403 0
M  V30 30906 C 2889.78 0.24854 -1.92905 0
M  V30 30907 O 2889.04 1.19388 -1.55064 0
M  V30 30908 C 2889.34 -1.97316 -2.97995 0
M  V30 30909 C 2889 -3.46912 -2.88033 0
M  V30 30910 C 2887.66 -3.87705 -2.85023 0
M  V30 30911 C 2890.02 -4.42161 -2.7594 0
M  V30 30912 C 2887.34 -5.22035 -2.67762 0
M  V30 30913 C 2889.7 -5.76602 -2.60218 0
M  V30 30914 C 2888.36 -6.1663 -2.55584 0
M  V30 30915 H 2887.63 -0.437672 -0.597933 0
M  V30 30916 H 2890.28 -1.61746 -1.02521 0
M  V30 30917 H 2888.58 -1.47821 -3.62845 0
M  V30 30918 H 2890.28 -1.86192 -3.55153 0
M  V30 30919 H 2886.87 -3.14497 -2.91187 0
M  V30 30920 H 2891.05 -4.11585 -2.77329 0
M  V30 30921 H 2886.31 -5.52137 -2.62592 0
M  V30 30922 H 2890.48 -6.50043 -2.49835 0
M  V30 30923 H 2888.11 -7.20663 -2.41968 0
M  V30 30924 N 2889.69 1.0947 -1.13376 0
M  V30 30925 C 2890.96 1.78205 -0.80636 0
M  V30 30926 C 2891.34 1.9908 0.702156 0
M  V30 30927 O 2890.69 1.59185 1.63928 0
M  V30 30928 C 2890.9 3.10535 -1.59276 0
M  V30 30929 C 2892.25 3.8525 -1.78516 0
M  V30 30930 O 2893.27 3.20285 -1.55871 0
M  V30 30931 O 2892.13 5.01875 -2.16296 0
M  V30 30932 H 2889.23 0.772838 -0.294364 0
M  V30 30933 H 2891.77 1.16031 -1.23835 0
M  V30 30934 H 2890.54 2.90823 -2.61797 0
M  V30 30935 H 2890.17 3.80434 -1.15568 0
M  V30 30936 N 2891.16 0.92719 1.2744 0
M  V30 30937 C 2892.39 0.58281 1.98209 0
M  V30 30938 C 2892.8 -0.843376 1.69363 0
M  V30 30939 O 2892.14 -1.57203 0.950408 0
M  V30 30940 C 2892.21 0.728227 3.52047 0
M  V30 30941 C 2891.87 2.12644 4.04514 0
M  V30 30942 C 2892.87 3.10056 4.17327 0
M  V30 30943 C 2890.55 2.44325 4.38874 0
M  V30 30944 C 2892.55 4.37257 4.63773 0
M  V30 30945 C 2890.23 3.71762 4.85012 0
M  V30 30946 C 2891.23 4.68041 4.9742 0
M  V30 30947 O 2890.92 5.93211 5.42546 0
M  V30 30948 H 2890.65 0.219679 0.63931 0
M  V30 30949 H 2893.21 1.24628 1.63269 0
M  V30 30950 H 2891.44 0.00764941 3.86699 0
M  V30 30951 H 2893.12 0.388977 4.04032 0
M  V30 30952 H 2893.89 2.86901 3.91041 0
M  V30 30953 H 2889.77 1.70128 4.28459 0
M  V30 30954 H 2893.31 5.1241 4.73373 0
M  V30 30955 H 2889.21 3.94735 5.10739 0
M  V30 30956 H 2889.98 5.96192 5.608 0
M  V30 30957 N 2892.64 -1.41564 0.692641 0
M  V30 30958 C 2893.89 -2.00878 0.221931 0
M  V30 30959 C 2894.21 -1.55122 -1.18161 0
M  V30 30960 O 2893.48 -0.780572 -1.79677 0
M  V30 30961 H 2892.06 -0.742805 0.0790594 0
M  V30 30962 H 2894.72 -1.73231 0.893145 0
M  V30 30963 H 2893.82 -3.11198 0.237075 0
M  V30 30964 N 2894.12 -0.437188 -1.51415 0
M  V30 30965 C 2895.34 0.130388 -2.0699 0
M  V30 30966 C 2895.77 1.35707 -1.30251 0
M  V30 30967 O 2895.13 1.78075 -0.34042 0
M  V30 30968 C 2895.18 0.431357 -3.58011 0
M  V30 30969 O 2894.28 1.51783 -3.83452 0
M  V30 30970 H 2893.62 0.00193172 -0.663997 0
M  V30 30971 H 2896.15 -0.618479 -1.95028 0
M  V30 30972 H 2896.16 0.681855 -4.02262 0
M  V30 30973 H 2894.84 -0.46521 -4.1329 0
M  V30 30974 H 2893.41 1.25731 -3.51064 0
M  V30 30975 N 2895.6 1.56696 -0.168541 0
M  V30 30976 C 2896.84 1.96799 0.477123 0
M  V30 30977 C 2897.17 1.0544 1.6344 0
M  V30 30978 O 2896.43 0.0879247 1.95502 0
M  V30 30979 C 2896.73 3.42998 1.00435 0
M  V30 30980 C 2896.39 4.50885 -0.0367349 0
M  V30 30981 C 2895.05 4.80116 -0.322869 0
M  V30 30982 C 2897.41 5.15869 -0.743537 0
M  V30 30983 C 2894.73 5.71629 -1.32124 0
M  V30 30984 C 2897.09 6.0846 -1.73087 0
M  V30 30985 C 2895.75 6.36059 -2.02448 0
M  V30 30986 H 2895.02 0.720138 0.174592 0
M  V30 30987 H 2897.67 1.89728 -0.259917 0
M  V30 30988 H 2895.97 3.47007 1.81916 0
M  V30 30989 H 2897.67 3.71366 1.51288 0
M  V30 30990 H 2894.26 4.2815 0.196457 0
M  V30 30991 H 2898.44 4.93401 -0.535688 0
M  V30 30992 H 2893.7 5.91297 -1.55493 0
M  V30 30993 H 2897.87 6.57882 -2.28394 0
M  V30 30994 H 2895.5 7.06772 -2.79959 0
M  V30 30995 N 2897.08 -0.105193 1.57249 0
M  V30 30996 C 2898.3 -0.828231 1.90145 0
M  V30 30997 C 2898.73 -1.71981 0.761841 0
M  V30 30998 O 2898.08 -1.79013 -0.287054 0
M  V30 30999 C 2898.13 -1.62602 3.21859 0
M  V30 31000 O 2897.24 -2.73414 3.08737 0
M  V30 31001 H 2896.58 -0.228181 0.623562 0
M  V30 31002 H 2899.11 -0.0834466 2.0443 0
M  V30 31003 H 2899.12 -2.01237 3.54919 0
M  V30 31004 H 2897.79 -0.971616 4.04391 0
M  V30 31005 H 2896.37 -2.37881 2.87171 0
M  V30 31006 N 2898.55 -1.53055 -0.375752 0
M  V30 31007 C 2899.46 -1.81717 -1.48378 0
M  V30 31008 C 2900.48 -0.704823 -1.59086 0
M  V30 31009 O 2901.66 -0.993816 -1.75172 0
M  V30 31010 C 2898.72 -1.99197 -2.83763 0
M  V30 31011 C 2897.78 -3.23107 -2.82667 0
M  V30 31012 C 2897.02 -3.39743 -4.11595 0
M  V30 31013 O 2897.24 -2.60894 -5.07238 0
M  V30 31014 O 2896.17 -4.33056 -4.18026 0
M  V30 31015 H 2900 -2.75832 -1.27084 0
M  V30 31016 H 2897.58 -1.38309 -0.564877 0
M  V30 31017 H 2899.47 -2.12325 -3.64 0
M  V30 31018 H 2898.14 -1.08272 -3.05056 0
M  V30 31019 H 2897.05 -3.15411 -2.01164 0
M  V30 31020 H 2898.38 -4.13921 -2.66328 0
M  V30 31021 N 2900.03 0.634971 -1.44242 0
M  V30 31022 C 2901.28 1.39055 -1.46104 0
M  V30 31023 C 2901.59 1.95364 -0.0960253 0
M  V30 31024 O 2902.8 2.71499 0.00783979 0
M  V30 31025 C 2901.26 2.51747 -2.572 0
M  V30 31026 C 2900.86 2.01967 -3.99891 0
M  V30 31027 C 2902.61 3.28979 -2.68278 0
M  V30 31028 C 2900.52 3.11978 -5.02418 0
M  V30 31029 H 2899.45 0.522545 -0.543565 0
M  V30 31030 H 2902.1 0.683508 -1.70295 0
M  V30 31031 H 2900.48 3.25008 -2.26242 0
M  V30 31032 H 2901.65 1.35596 -4.40398 0
M  V30 31033 H 2899.97 1.37561 -3.93021 0
M  V30 31034 H 2902.56 4.10982 -3.42049 0
M  V30 31035 H 2902.91 3.78209 -1.73964 0
M  V30 31036 H 2903.44 2.62806 -2.98626 0
M  V30 31037 H 2900.18 2.67696 -5.98347 0
M  V30 31038 H 2899.7 3.77003 -4.66507 0
M  V30 31039 H 2901.38 3.76816 -5.25946 0
M  V30 31040 N 2901.51 1.31076 0.875027 0
M  V30 31041 C 2902.44 1.12628 1.98469 0
M  V30 31042 C 2903.42 0.0311665 1.6257 0
M  V30 31043 O 2904.61 0.186627 1.87574 0
M  V30 31044 C 2901.73 0.719857 3.30962 0
M  V30 31045 C 2900.78 1.81728 3.85846 0
M  V30 31046 S 2901.61 3.42173 4.1192 0
M  V30 31047 C 2902.77 3.03455 5.47417 0
M  V30 31048 H 2903 2.0657 2.13813 0
M  V30 31049 H 2900.53 1.15504 1.02461 0
M  V30 31050 H 2902.49 0.492106 4.0754 0
M  V30 31051 H 2901.15 -0.200358 3.1346 0
M  V30 31052 H 2900.35 1.48542 4.81613 0
M  V30 31053 H 2899.95 1.99983 3.16042 0
M  V30 31054 H 2902.24 2.52034 6.28876 0
M  V30 31055 H 2903.18 3.98167 5.8555 0
M  V30 31056 H 2903.59 2.4104 5.10451 0
M  V30 31057 N 2902.99 -1.08867 1.13955 0
M  V30 31058 C 2903.92 -2.15521 0.779944 0
M  V30 31059 C 2904.93 -1.61555 -0.200991 0
M  V30 31060 O 2906.12 -1.78489 0.0200363 0
M  V30 31061 C 2903.22 -3.38626 0.136286 0
M  V30 31062 C 2902.4 -4.21991 1.15076 0
M  V30 31063 C 2901.45 -5.23506 0.531737 0
M  V30 31064 O 2900.48 -5.56549 1.19337 0
M  V30 31065 N 2901.68 -5.76341 -0.693632 0
M  V30 31066 H 2904.45 -2.46976 1.69773 0
M  V30 31067 H 2902.01 -1.24635 1.03333 0
M  V30 31068 H 2904 -4.03658 -0.290224 0
M  V30 31069 H 2902.57 -3.05013 -0.68455 0
M  V30 31070 H 2901.79 -3.53009 1.75437 0
M  V30 31071 H 2903.08 -4.74511 1.83622 0
M  V30 31072 H 2902.48 -5.5172 -1.24984 0
M  V30 31073 H 2901.03 -6.43078 -1.06272 0
M  V30 31074 N 2904.47 -0.933936 -1.26946 0
M  V30 31075 C 2905.88 -0.621355 -1.76057 0
M  V30 31076 C 2906.23 0.863491 -1.76177 0
M  V30 31077 O 2905.35 1.67574 -1.36923 0
M  V30 31078 C 2905.95 -1.12117 -3.19711 0
M  V30 31079 C 2904.51 -0.859139 -3.66464 0
M  V30 31080 C 2903.65 -1.27628 -2.46183 0
M  V30 31081 H 2906.61 -1.11303 -1.13125 0
M  V30 31082 H 2906.63 -0.471674 -3.77565 0
M  V30 31083 H 2906.14 -2.20188 -3.19592 0
M  V30 31084 H 2904.24 0.2075 -3.72022 0
M  V30 31085 H 2904.35 -1.48106 -4.55633 0
M  V30 31086 H 2902.72 -0.694771 -2.45041 0
M  V30 31087 H 2903.5 -2.36577 -2.4877 0
M  V30 31088 N 2905.94 1.41194 -0.700139 0
M  V30 31089 C 2907.19 2.01953 -0.242157 0
M  V30 31090 C 2907.55 1.54477 1.14694 0
M  V30 31091 O 2906.84 0.748126 1.76391 0
M  V30 31092 C 2907.03 3.56566 -0.244049 0
M  V30 31093 C 2906.86 4.1905 -1.63179 0
M  V30 31094 C 2905.63 4.53148 -2.23574 0
M  V30 31095 C 2907.83 4.44949 -2.57924 0
M  V30 31096 N 2905.81 5.00943 -3.54865 0
M  V30 31097 C 2907.18 4.94569 -3.739 0
M  V30 31098 C 2909.24 4.26967 -2.56133 0
M  V30 31099 C 2907.94 5.28096 -4.88372 0
M  V30 31100 C 2909.97 4.61585 -3.6972 0
M  V30 31101 C 2909.33 5.1138 -4.84427 0
M  V30 31102 H 2905.43 0.770416 -0.134102 0
M  V30 31103 H 2908.01 1.71667 -0.918606 0
M  V30 31104 H 2906.18 3.86315 0.401904 0
M  V30 31105 H 2907.91 4.04051 0.22919 0
M  V30 31106 H 2904.67 4.39756 -1.75816 0
M  V30 31107 H 2905.09 5.29241 -4.22176 0
M  V30 31108 H 2909.74 3.87702 -1.68663 0
M  V30 31109 H 2907.45 5.66282 -5.76498 0
M  V30 31110 H 2911.04 4.49326 -3.69591 0
M  V30 31111 H 2909.92 5.37665 -5.70864 0
M  V30 31112 N 2907.42 0.445212 1.51181 0
M  V30 31113 C 2908.39 -0.350682 2.26501 0
M  V30 31114 C 2909.39 -0.942929 1.30252 0
M  V30 31115 O 2910.58 -0.816148 1.53898 0
M  V30 31116 C 2907.71 -1.49692 3.06276 0
M  V30 31117 H 2908.9 0.309527 2.98298 0
M  V30 31118 H 2906.45 0.198579 1.55033 0
M  V30 31119 H 2907.19 -2.19295 2.38915 0
M  V30 31120 H 2906.97 -1.07834 3.76981 0
M  V30 31121 H 2908.46 -2.05903 3.6331 0
M  V30 31122 N 2908.9 -1.56605 0.176849 0
M  V30 31123 C 2909.83 -2.15418 -0.782798 0
M  V30 31124 C 2910.85 -1.11119 -1.18981 0
M  V30 31125 O 2912.03 -1.38285 -1.1287 0
M  V30 31126 C 2909.13 -2.6865 -2.06592 0
M  V30 31127 C 2908.31 -3.97664 -1.8216 0
M  V30 31128 C 2907.37 -4.35905 -2.94743 0
M  V30 31129 O 2906.39 -5.03676 -2.65139 0
M  V30 31130 N 2907.59 -3.97914 -4.22663 0
M  V30 31131 H 2910.36 -2.9839 -0.279959 0
M  V30 31132 H 2907.92 -1.61899 -0.00574683 0
M  V30 31133 H 2909.91 -2.91228 -2.81013 0
M  V30 31134 H 2908.48 -1.90236 -2.4805 0
M  V30 31135 H 2907.7 -3.83406 -0.91614 0
M  V30 31136 H 2908.99 -4.81912 -1.63211 0
M  V30 31137 H 2908.39 -3.43365 -4.49574 0
M  V30 31138 H 2906.95 -4.25481 -4.9377 0
M  V30 31139 N 2910.38 0.0968524 -1.57302 0
M  V30 31140 C 2911.61 0.814261 -1.90204 0
M  V30 31141 C 2912.02 1.72368 -0.770374 0
M  V30 31142 O 2911.38 1.80671 0.257732 0
M  V30 31143 C 2911.43 1.6291 -3.22711 0
M  V30 31144 O 2911.15 0.756267 -4.31523 0
M  V30 31145 C 2912.65 2.44972 -3.69464 0
M  V30 31146 H 2909.87 0.232914 -0.629279 0
M  V30 31147 H 2912.42 0.0746122 -2.04364 0
M  V30 31148 H 2910.57 2.32128 -3.10154 0
M  V30 31149 H 2910.98 1.32046 -5.07606 0
M  V30 31150 H 2912.46 2.97641 -4.6488 0
M  V30 31151 H 2912.94 3.23355 -2.97217 0
M  V30 31152 H 2913.54 1.80957 -3.84883 0
M  V30 31153 N 2911.86 1.53252 0.36763 0
M  V30 31154 C 2913.1 1.69586 1.11213 0
M  V30 31155 C 2913.44 0.445302 1.89026 0
M  V30 31156 O 2912.71 -0.557371 1.86343 0
M  V30 31157 C 2912.99 2.94444 2.07303 0
M  V30 31158 C 2912.85 4.29652 1.33113 0
M  V30 31159 C 2914.17 3.14898 3.07453 0
M  V30 31160 H 2911.28 0.617104 0.40293 0
M  V30 31161 H 2913.93 1.85888 0.393169 0
M  V30 31162 H 2912.08 2.80677 2.68612 0
M  V30 31163 H 2913.75 4.55227 0.746031 0
M  V30 31164 H 2911.99 4.29157 0.632976 0
M  V30 31165 H 2912.66 5.13146 2.03434 0
M  V30 31166 H 2915.14 3.27837 2.56246 0
M  V30 31167 H 2914.01 4.03699 3.71911 0
M  V30 31168 H 2914.28 2.30084 3.7751 0
M  V30 31169 N 2913.34 -0.627313 1.44577 0
M  V30 31170 C 2914.58 -1.38885 1.4778 0
M  V30 31171 C 2914.91 -1.9388 0.11144 0
M  V30 31172 O 2914.19 -1.73885 -0.87146 0
M  V30 31173 C 2914.47 -2.55133 2.54124 0
M  V30 31174 C 2914.33 -2.05463 4.00131 0
M  V30 31175 C 2915.64 -3.57312 2.56936 0
M  V30 31176 H 2912.76 -0.50365 0.538057 0
M  V30 31177 H 2915.41 -0.708947 1.76278 0
M  V30 31178 H 2913.56 -3.13135 2.29954 0
M  V30 31179 H 2915.23 -1.52263 4.35447 0
M  V30 31180 H 2913.47 -1.36616 4.11726 0
M  V30 31181 H 2914.14 -2.89173 4.70195 0
M  V30 31182 H 2916.62 -3.09117 2.78542 0
M  V30 31183 H 2915.49 -4.36167 3.33241 0
M  V30 31184 H 2915.75 -4.11633 1.61277 0
M  V30 31185 N 2914.81 -1.31539 -0.868063 0
M  V30 31186 C 2916.06 -1.21513 -1.62365 0
M  V30 31187 C 2916.39 0.225786 -1.92883 0
M  V30 31188 O 2915.67 1.15925 -1.56178 0
M  V30 31189 C 2915.95 -2.06134 -2.95264 0
M  V30 31190 C 2915.8 -3.58534 -2.71612 0
M  V30 31191 C 2917.12 -1.91219 -3.96388 0
M  V30 31192 H 2914.24 -0.442772 -0.58917 0
M  V30 31193 H 2916.88 -1.61348 -1.00333 0
M  V30 31194 H 2915.03 -1.7229 -3.48207 0
M  V30 31195 H 2916.71 -4.02524 -2.25327 0
M  V30 31196 H 2914.95 -3.8187 -2.05811 0
M  V30 31197 H 2915.62 -4.13053 -3.66185 0
M  V30 31198 H 2918.1 -2.2084 -3.5266 0
M  V30 31199 H 2916.97 -2.52726 -4.87258 0
M  V30 31200 H 2917.23 -0.876029 -4.33334 0
M  V30 31201 N 2916.29 1.08262 -1.1453 0
M  V30 31202 C 2917.54 1.8032 -0.91263 0
M  V30 31203 C 2917.86 1.86719 0.562224 0
M  V30 31204 O 2917.13 1.36137 1.40867 0
M  V30 31205 H 2915.71 0.667843 -0.334657 0
M  V30 31206 H 2918.37 1.30881 -1.44417 0
M  V30 31207 H 2917.47 2.83096 -1.31389 0
M  V30 31208 N 2917.77 0.940655 1.26449 0
M  V30 31209 C 2919.19 0.642884 1.46079 0
M  V30 31210 C 2919.39 -0.803965 1.84766 0
M  V30 31211 O 2918.44 -1.58065 1.96905 0
M  V30 31212 C 2919.75 1.60386 2.54356 0
M  V30 31213 C 2921.3 1.6135 2.68207 0
M  V30 31214 C 2921.78 2.56176 3.79655 0
M  V30 31215 N 2923.27 2.54458 3.87047 0
M  V30 31216 C 2924 3.24516 4.72734 0
M  V30 31217 N 2923.5 4.03997 5.62813 0
M  V30 31218 N 2925.29 3.1347 4.66576 0
M  V30 31219 H 2917.44 1.87586 0.996256 0
M  V30 31220 H 2919.71 0.806099 0.498907 0
M  V30 31221 H 2919.41 2.63664 2.32754 0
M  V30 31222 H 2919.29 1.35552 3.52002 0
M  V30 31223 H 2921.67 0.587964 2.89183 0
M  V30 31224 H 2921.75 1.90238 1.71006 0
M  V30 31225 H 2921.4 3.58847 3.59432 0
M  V30 31226 H 2921.33 2.24578 4.76311 0
M  V30 31227 H 2923.82 1.96745 3.22645 0
M  V30 31228 H 2924.13 4.54407 6.25087 0
M  V30 31229 H 2922.48 4.08098 5.62566 0
M  V30 31230 H 2925.67 2.50859 3.95205 0
M  V30 31231 H 2925.84 3.68336 5.33134 0
M  V30 31232 N 2919.25 -1.40821 0.707617 0
M  V30 31233 C 2920.21 -2.29125 0.0587627 0
M  V30 31234 C 2921.21 -1.44976 -0.695598 0
M  V30 31235 O 2922.4 -1.65983 -0.528689 0
M  V30 31236 C 2919.53 -3.28057 -0.926881 0
M  V30 31237 H 2920.73 -2.88001 0.8364 0
M  V30 31238 H 2918.28 -1.49009 0.471804 0
M  V30 31239 H 2919.01 -2.74185 -1.73186 0
M  V30 31240 H 2918.8 -3.90166 -0.388946 0
M  V30 31241 H 2920.29 -3.94199 -1.3783 0
M  V30 31242 N 2920.73 -0.453223 -1.50943 0
M  V30 31243 C 2922.14 -0.10637 -1.59245 0
M  V30 31244 C 2922.34 1.3857 -1.4629 0
M  V30 31245 O 2921.4 2.15724 -1.31223 0
M  V30 31246 C 2922.71 -0.640646 -2.93796 0
M  V30 31247 C 2924.26 -0.602489 -3.07147 0
M  V30 31248 C 2924.73 -1.11401 -4.44245 0
M  V30 31249 N 2926.22 -1.07266 -4.50609 0
M  V30 31250 C 2926.96 -1.43915 -5.55046 0
M  V30 31251 N 2926.46 -1.87926 -6.66825 0
M  V30 31252 N 2928.25 -1.3563 -5.45491 0
M  V30 31253 H 2920.4 -1.42385 -1.57608 0
M  V30 31254 H 2922.66 -0.587726 -0.743829 0
M  V30 31255 H 2922.37 -1.68521 -3.08697 0
M  V30 31256 H 2922.24 -0.0742935 -3.77127 0
M  V30 31257 H 2924.63 0.43312 -2.91904 0
M  V30 31258 H 2924.71 -1.20543 -2.25617 0
M  V30 31259 H 2924.35 -2.14816 -4.60235 0
M  V30 31260 H 2924.28 -0.487445 -5.24339 0
M  V30 31261 H 2926.78 -0.74965 -3.7039 0
M  V30 31262 H 2927.09 -2.14085 -7.42555 0
M  V30 31263 H 2925.43 -1.91865 -6.67992 0
M  V30 31264 H 2928.62 -1.01101 -4.57052 0
M  V30 31265 H 2928.8 -1.64519 -6.26767 0
M  V30 31266 N 2922.2 1.56509 -0.185151 0
M  V30 31267 C 2923.13 2.21628 0.735059 0
M  V30 31268 C 2924.11 1.17622 1.22878 0
M  V30 31269 O 2925.3 1.46097 1.27942 0
M  V30 31270 C 2922.43 2.86787 1.95884 0
M  V30 31271 C 2921.38 3.96951 1.60043 0
M  V30 31272 C 2920.71 4.49225 2.90001 0
M  V30 31273 C 2922.01 5.15856 0.817917 0
M  V30 31274 H 2923.7 2.98782 0.192221 0
M  V30 31275 H 2921.25 1.43712 0.0910141 0
M  V30 31276 H 2923.2 3.31022 2.60773 0
M  V30 31277 H 2921.93 2.07023 2.52605 0
M  V30 31278 H 2920.59 3.53392 0.975174 0
M  V30 31279 H 2920.23 3.66236 3.4479 0
M  V30 31280 H 2919.93 5.23553 2.66769 0
M  V30 31281 H 2921.46 4.96156 3.55896 0
M  V30 31282 H 2922.87 5.56698 1.36969 0
M  V30 31283 H 2921.27 5.96188 0.684102 0
M  V30 31284 H 2922.34 4.84554 -0.183024 0
M  V30 31285 N 2923.68 -0.0885089 1.57351 0
M  V30 31286 C 2924.93 -0.789229 1.86053 0
M  V30 31287 C 2925.25 -1.78947 0.774795 0
M  V30 31288 O 2924.52 -1.94894 -0.19829 0
M  V30 31289 H 2923.1 -0.294462 0.686514 0
M  V30 31290 H 2925.76 -0.0685712 1.94779 0
M  V30 31291 H 2924.86 -1.31576 2.83009 0
M  V30 31292 N 2925.16 -1.53445 -0.359498 0
M  V30 31293 C 2926.41 -1.69586 -1.09932 0
M  V30 31294 C 2926.73 -0.453404 -1.89656 0
M  V30 31295 O 2926 0.532597 -1.88521 0
M  V30 31296 H 2924.58 -0.625192 -0.408832 0
M  V30 31297 H 2927.24 -1.90653 -0.404637 0
M  V30 31298 H 2926.34 -2.55967 -1.7857 0
M  V30 31299 N 2926.64 0.619637 -1.44908 0
M  V30 31300 C 2927.89 1.37498 -1.47571 0
M  V30 31301 C 2928.2 1.95251 -0.116741 0
M  V30 31302 O 2929.41 2.71492 -0.0209567 0
M  V30 31303 C 2927.86 2.49004 -2.59855 0
M  V30 31304 C 2927.47 1.97715 -4.02011 0
M  V30 31305 C 2929.21 3.26115 -2.71752 0
M  V30 31306 C 2927.12 3.06632 -5.05699 0
M  V30 31307 H 2926.05 0.51675 -0.549077 0
M  V30 31308 H 2928.7 0.665407 -1.7101 0
M  V30 31309 H 2927.08 3.2259 -2.29677 0
M  V30 31310 H 2928.26 1.30918 -4.41811 0
M  V30 31311 H 2926.57 1.33385 -3.94458 0
M  V30 31312 H 2929.17 4.07331 -3.46389 0
M  V30 31313 H 2929.51 3.76343 -1.77966 0
M  V30 31314 H 2930.05 2.59624 -3.01397 0
M  V30 31315 H 2926.78 2.61335 -6.01152 0
M  V30 31316 H 2926.3 3.72033 -4.7048 0
M  V30 31317 H 2927.98 3.71216 -5.29913 0
M  V30 31318 N 2928.12 1.31997 0.861075 0
M  V30 31319 C 2929.53 1.19957 1.43063 0
M  V30 31320 C 2929.88 -0.190455 1.95273 0
M  V30 31321 O 2929 -1.08879 1.87014 0
M  V30 31322 C 2929.6 2.17164 2.60048 0
M  V30 31323 C 2928.16 2.09031 3.13022 0
M  V30 31324 C 2927.3 2.05892 1.85752 0
M  V30 31325 H 2930.26 1.43919 0.668809 0
M  V30 31326 H 2930.28 1.76643 3.37013 0
M  V30 31327 H 2929.79 3.18323 2.22018 0
M  V30 31328 H 2927.89 1.11098 3.55651 0
M  V30 31329 H 2928 2.98555 3.74702 0
M  V30 31330 H 2926.37 1.51036 2.05086 0
M  V30 31331 H 2927.15 3.08821 1.49948 0
M  V30 31332 N 2929.59 -1.07653 1.15103 0
M  V30 31333 C 2930.84 -1.80457 0.925375 0
M  V30 31334 C 2931.17 -1.86357 -0.546322 0
M  V30 31335 O 2930.45 -1.34506 -1.40494 0
M  V30 31336 C 2930.73 -3.25673 1.53652 0
M  V30 31337 C 2930.58 -3.27936 3.0786 0
M  V30 31338 C 2931.9 -4.22859 1.21976 0
M  V30 31339 H 2929.02 -0.655128 0.337603 0
M  V30 31340 H 2931.66 -1.25991 1.42219 0
M  V30 31341 H 2929.81 -3.72185 1.11402 0
M  V30 31342 H 2931.49 -2.89691 3.58994 0
M  V30 31343 H 2929.73 -2.66985 3.41909 0
M  V30 31344 H 2930.4 -4.30318 3.45732 0
M  V30 31345 H 2932.88 -3.84723 1.58516 0
M  V30 31346 H 2931.75 -5.22764 1.67359 0
M  V30 31347 H 2932.01 -4.4189 0.136285 0
M  V30 31348 N 2931.07 -0.947348 -1.25949 0
M  V30 31349 C 2932.32 -0.59703 -1.9308 0
M  V30 31350 C 2932.64 0.867641 -1.74634 0
M  V30 31351 O 2931.91 1.61718 -1.10562 0
M  V30 31352 H 2930.49 -0.217817 -0.714538 0
M  V30 31353 H 2933.15 -1.20401 -1.53263 0
M  V30 31354 H 2932.25 -0.820093 -3.01133 0
M  V30 31355 N 2932.55 1.40444 -0.715075 0
M  V30 31356 C 2933.8 2.01194 -0.25474 0
M  V30 31357 C 2934.13 1.56569 1.14891 0
M  V30 31358 O 2933.4 0.785522 1.77932 0
M  V30 31359 C 2933.69 3.58546 -0.334211 0
M  V30 31360 C 2933.54 4.13245 -1.7762 0
M  V30 31361 C 2934.86 4.39111 0.294891 0
M  V30 31362 H 2931.98 0.730976 -0.0940379 0
M  V30 31363 H 2934.62 1.66928 -0.907479 0
M  V30 31364 H 2932.77 3.87868 0.221541 0
M  V30 31365 H 2934.44 3.94722 -2.3873 0
M  V30 31366 H 2932.69 3.67552 -2.30408 0
M  V30 31367 H 2933.36 5.22404 -1.7832 0
M  V30 31368 H 2935.83 4.15716 -0.178636 0
M  V30 31369 H 2934.71 5.48503 0.208838 0
M  V30 31370 H 2934.97 4.20065 1.37834 0
M  V30 31371 N 2934.03 0.461222 1.507 0
M  V30 31372 C 2935.27 -0.0973054 2.02566 0
M  V30 31373 C 2935.61 -1.40254 1.34322 0
M  V30 31374 O 2934.88 -1.88842 0.465726 0
M  V30 31375 C 2935.17 -0.29136 3.58919 0
M  V30 31376 C 2935.02 1.0342 4.37749 0
M  V30 31377 C 2936.34 -1.0504 4.27381 0
M  V30 31378 H 2933.46 -0.0338896 0.73622 0
M  V30 31379 H 2936.1 0.604887 1.80114 0
M  V30 31380 H 2934.25 -0.889473 3.78181 0
M  V30 31381 H 2935.92 1.66813 4.30083 0
M  V30 31382 H 2934.16 1.6332 4.01882 0
M  V30 31383 H 2934.83 0.852181 5.45382 0
M  V30 31384 H 2937.31 -0.543531 4.12535 0
M  V30 31385 H 2936.19 -1.15497 5.36611 0
M  V30 31386 H 2936.45 -2.08453 3.89871 0
M  V30 31387 N 2935.51 -1.56408 0.193449 0
M  V30 31388 C 2936.47 -2.17784 -0.714332 0
M  V30 31389 C 2937.47 -1.13185 -1.14218 0
M  V30 31390 O 2938.66 -1.38578 -1.05554 0
M  V30 31391 C 2935.79 -2.77858 -1.97504 0
M  V30 31392 H 2936.98 -2.99361 -0.179662 0
M  V30 31393 H 2934.54 -1.56199 -0.056167 0
M  V30 31394 H 2935.27 -2.00075 -2.55226 0
M  V30 31395 H 2935.06 -3.54428 -1.677 0
M  V30 31396 H 2936.55 -3.24992 -2.62241 0
M  V30 31397 N 2936.98 0.0801629 -1.57396 0
M  V30 31398 C 2938.23 0.782051 -1.87114 0
M  V30 31399 C 2938.56 1.77644 -0.784611 0
M  V30 31400 O 2937.84 1.93406 0.205959 0
M  V30 31401 C 2938.12 1.49751 -3.27485 0
M  V30 31402 C 2937.97 0.520093 -4.46783 0
M  V30 31403 C 2939.29 2.44447 -3.65969 0
M  V30 31404 H 2936.41 0.282846 -0.680564 0
M  V30 31405 H 2939.05 0.0453805 -1.89946 0
M  V30 31406 H 2937.2 2.12545 -3.25203 0
M  V30 31407 H 2938.88 -0.102 -4.61187 0
M  V30 31408 H 2937.12 -0.165295 -4.33485 0
M  V30 31409 H 2937.79 1.05814 -5.41763 0
M  V30 31410 H 2940.27 1.91735 -3.69292 0
M  V30 31411 H 2939.14 2.91515 -4.65091 0
M  V30 31412 H 2939.4 3.28878 -2.95452 0
M  V30 31413 N 2938.46 1.53634 0.351355 0
M  V30 31414 C 2939.37 1.84055 1.45468 0
M  V30 31415 C 2940.39 0.730043 1.57944 0
M  V30 31416 O 2941.56 1.02156 1.73569 0
M  V30 31417 C 2938.63 2.03686 2.80558 0
M  V30 31418 C 2937.69 3.27563 2.77491 0
M  V30 31419 C 2936.92 3.46248 4.06138 0
M  V30 31420 O 2937.15 2.68931 5.03023 0
M  V30 31421 O 2936.08 4.39652 4.11084 0
M  V30 31422 H 2939.91 2.77819 1.2268 0
M  V30 31423 H 2937.49 1.39191 0.542802 0
M  V30 31424 H 2939.37 2.18089 3.60576 0
M  V30 31425 H 2938.05 1.13111 3.03294 0
M  V30 31426 H 2936.96 3.18571 1.96121 0
M  V30 31427 H 2938.29 4.18105 2.59709 0
M  V30 31428 N 2939.94 -0.611943 1.45234 0
M  V30 31429 C 2941.17 -1.39781 1.52541 0
M  V30 31430 C 2941.58 -1.8815 0.156566 0
M  V30 31431 O 2940.94 -1.61963 -0.841092 0
M  V30 31432 C 2940.99 -2.60524 2.50619 0
M  V30 31433 O 2940.71 -2.14166 3.82184 0
M  V30 31434 C 2942.21 -3.53434 2.67581 0
M  V30 31435 H 2939.43 -0.428034 0.516748 0
M  V30 31436 H 2941.98 -0.746694 1.9038 0
M  V30 31437 H 2940.13 -3.21686 2.15863 0
M  V30 31438 H 2940.55 -2.92584 4.3531 0
M  V30 31439 H 2942.02 -4.34711 3.40192 0
M  V30 31440 H 2942.5 -4.03493 1.73466 0
M  V30 31441 H 2943.1 -2.98128 3.03315 0
M  V30 31442 N 2941.42 -1.32452 -0.854063 0
M  V30 31443 C 2942.83 -1.11455 -1.14236 0
M  V30 31444 C 2943.03 0.104575 -2.01228 0
M  V30 31445 O 2942.09 0.789297 -2.39847 0
M  V30 31446 C 2943.4 -2.39434 -1.81912 0
M  V30 31447 C 2944.95 -2.45197 -1.94545 0
M  V30 31448 C 2945.43 -3.73097 -2.65636 0
M  V30 31449 N 2946.92 -3.74082 -2.7316 0
M  V30 31450 C 2947.65 -4.6975 -3.28819 0
M  V30 31451 N 2947.15 -5.75784 -3.85284 0
M  V30 31452 N 2948.94 -4.57247 -3.26928 0
M  V30 31453 H 2941.09 -2.10616 -0.274749 0
M  V30 31454 H 2943.36 -0.929901 -0.184358 0
M  V30 31455 H 2943.06 -3.28567 -1.25446 0
M  V30 31456 H 2942.94 -2.50439 -2.82064 0
M  V30 31457 H 2945.32 -1.56523 -2.50169 0
M  V30 31458 H 2945.4 -2.38144 -0.933872 0
M  V30 31459 H 2945.05 -4.62146 -2.10675 0
M  V30 31460 H 2944.98 -3.77421 -3.67234 0
M  V30 31461 H 2947.47 -2.97442 -2.33103 0
M  V30 31462 H 2947.78 -6.44839 -4.25913 0
M  V30 31463 H 2946.13 -5.79538 -3.83615 0
M  V30 31464 H 2949.32 -3.73575 -2.82063 0
M  V30 31465 H 2949.49 -5.31978 -3.70005 0
M  V30 31466 N 2942.9 1.07041 -1.15672 0
M  V30 31467 C 2944.13 1.83411 -0.957503 0
M  V30 31468 C 2944.54 1.82216 0.494239 0
M  V30 31469 O 2943.9 1.23586 1.34286 0
M  V30 31470 C 2943.95 3.30356 -1.4679 0
M  V30 31471 O 2943.67 3.31628 -2.86277 0
M  V30 31472 C 2945.17 4.23483 -1.31061 0
M  V30 31473 H 2942.39 0.578558 -0.33987 0
M  V30 31474 H 2944.93 1.35099 -1.5352 0
M  V30 31475 H 2943.09 3.76006 -0.932652 0
M  V30 31476 H 2943.5 4.23459 -3.09487 0
M  V30 31477 H 2944.98 5.24645 -1.71614 0
M  V30 31478 H 2945.45 4.38458 -0.255185 0
M  V30 31479 H 2946.06 3.83672 -1.83509 0
M  V30 31480 N 2944.38 0.954014 1.25445 0
M  V30 31481 C 2945.62 0.609364 1.93429 0
M  V30 31482 C 2945.95 -0.851357 1.74544 0
M  V30 31483 O 2945.23 -1.61076 1.09017 0
M  V30 31484 C 2945.51 0.968102 3.46843 0
M  V30 31485 C 2945.37 2.48451 3.74956 0
M  V30 31486 C 2946.68 0.492718 4.37333 0
M  V30 31487 H 2943.8 0.222856 0.702499 0
M  V30 31488 H 2946.45 1.19055 1.48074 0
M  V30 31489 H 2944.6 0.473532 3.85603 0
M  V30 31490 H 2946.27 3.05279 3.45836 0
M  V30 31491 H 2944.51 2.92247 3.20584 0
M  V30 31492 H 2945.18 2.68602 4.82242 0
M  V30 31493 H 2947.66 0.916949 4.05871 0
M  V30 31494 H 2946.53 0.772426 5.43438 0
M  V30 31495 H 2946.79 -0.607326 4.37909 0
M  V30 31496 N 2945.85 -1.40063 0.722513 0
M  V30 31497 C 2946.76 -2.34478 0.0756396 0
M  V30 31498 C 2947.78 -1.57667 -0.736018 0
M  V30 31499 O 2948.96 -1.90021 -0.667374 0
M  V30 31500 C 2946.02 -3.36618 -0.830015 0
M  V30 31501 C 2945.08 -4.29299 -0.00752338 0
M  V30 31502 C 2944.31 -5.2656 -0.870046 0
M  V30 31503 O 2944.54 -5.29974 -2.10912 0
M  V30 31504 O 2943.47 -6.01125 -0.305348 0
M  V30 31505 H 2947.3 -2.91428 0.854597 0
M  V30 31506 H 2944.88 -1.41375 0.483057 0
M  V30 31507 H 2946.76 -3.99239 -1.34857 0
M  V30 31508 H 2945.44 -2.82071 -1.588 0
M  V30 31509 H 2944.35 -3.69941 0.556264 0
M  V30 31510 H 2945.68 -4.87017 0.712397 0
M  V30 31511 N 2947.33 -0.469207 -1.50453 0
M  V30 31512 C 2948.26 0.315879 -2.31354 0
M  V30 31513 C 2949.24 0.99207 -1.38174 0
M  V30 31514 O 2950.43 0.989604 -1.67094 0
M  V30 31515 C 2947.56 1.39931 -3.17862 0
M  V30 31516 C 2946.51 0.844835 -4.19579 0
M  V30 31517 C 2945.84 2.02642 -4.94814 0
M  V30 31518 C 2947.14 -0.14259 -5.22105 0
M  V30 31519 H 2948.83 -0.359322 -2.97236 0
M  V30 31520 H 2946.38 -0.174249 -1.42942 0
M  V30 31521 H 2948.33 1.95601 -3.73254 0
M  V30 31522 H 2947.05 2.10326 -2.49861 0
M  V30 31523 H 2945.71 0.310125 -3.65286 0
M  V30 31524 H 2945.36 2.7173 -4.23287 0
M  V30 31525 H 2945.06 1.66164 -5.63616 0
M  V30 31526 H 2946.59 2.58805 -5.53039 0
M  V30 31527 H 2948 0.324865 -5.72379 0
M  V30 31528 H 2946.4 -0.421546 -5.98618 0
M  V30 31529 H 2947.47 -1.06909 -4.72968 0
M  V30 31530 N 2948.81 1.56303 -0.201741 0
M  V30 31531 C 2950.03 2.02597 0.443779 0
M  V30 31532 C 2950.46 1.08089 1.53943 0
M  V30 31533 O 2949.82 0.0655375 1.81182 0
M  V30 31534 C 2949.87 3.47281 0.971005 0
M  V30 31535 O 2948.97 3.55897 2.08354 0
M  V30 31536 H 2948.31 0.655974 0.102928 0
M  V30 31537 H 2950.84 2.02167 -0.314568 0
M  V30 31538 H 2950.85 3.87206 1.28591 0
M  V30 31539 H 2949.53 4.15557 0.168975 0
M  V30 31540 H 2948.1 3.27849 1.77677 0
M  V30 31541 N 2950.29 -0.0718147 1.57436 0
M  V30 31542 C 2951.54 -0.769793 1.86432 0
M  V30 31543 C 2951.85 -1.78742 0.794386 0
M  V30 31544 O 2953.06 -2.53497 0.972193 0
M  V30 31545 C 2951.51 -1.42 3.30702 0
M  V30 31546 C 2951.12 -0.440939 4.45825 0
M  V30 31547 C 2952.86 -2.10035 3.68898 0
M  V30 31548 C 2950.77 -1.09706 5.81136 0
M  V30 31549 H 2949.7 -0.291247 0.695479 0
M  V30 31550 H 2952.35 -0.0230901 1.83485 0
M  V30 31551 H 2950.73 -2.21497 3.28261 0
M  V30 31552 H 2951.91 0.324211 4.59658 0
M  V30 31553 H 2950.22 0.134959 4.16181 0
M  V30 31554 H 2952.82 -2.599 4.67286 0
M  V30 31555 H 2953.16 -2.89975 2.98697 0
M  V30 31556 H 2953.7 -1.3737 3.73329 0
M  V30 31557 H 2950.43 -0.33798 6.54628 0
M  V30 31558 H 2949.95 -1.83307 5.71103 0
M  V30 31559 H 2951.63 -1.61689 6.26471 0
M  V30 31560 N 2951.77 -1.53818 -0.343203 0
M  V30 31561 C 2953.18 -1.62527 -0.918794 0
M  V30 31562 C 2953.53 -0.506798 -1.89542 0
M  V30 31563 O 2952.65 0.363403 -2.13327 0
M  V30 31564 C 2953.25 -2.946 -1.67321 0
M  V30 31565 C 2951.81 -3.05571 -2.19781 0
M  V30 31566 C 2950.95 -2.57976 -1.01703 0
M  V30 31567 H 2953.9 -1.58236 -0.12133 0
M  V30 31568 H 2953.93 -2.83659 -2.5361 0
M  V30 31569 H 2953.44 -3.75984 -0.962157 0
M  V30 31570 H 2951.54 -2.28821 -2.94061 0
M  V30 31571 H 2951.65 -4.11045 -2.46128 0
M  V30 31572 H 2950.02 -2.13392 -1.39054 0
M  V30 31573 H 2950.8 -3.418 -0.320611 0
M  V30 31574 N 2953.24 0.604233 -1.45557 0
M  V30 31575 C 2954.21 1.6967 -1.54094 0
M  V30 31576 C 2955.21 1.55215 -0.420103 0
M  V30 31577 O 2956.4 1.60222 -0.683699 0
M  V30 31578 C 2953.53 3.08961 -1.44068 0
M  V30 31579 H 2954.72 1.63466 -2.51434 0
M  V30 31580 H 2952.27 0.82025 -1.33047 0
M  V30 31581 H 2953.01 3.20739 -0.479258 0
M  V30 31582 H 2952.79 3.20861 -2.25368 0
M  V30 31583 H 2954.28 3.8853 -1.53082 0
M  V30 31584 N 2954.72 1.32903 0.847027 0
M  V30 31585 C 2956 1.14506 1.58581 0
M  V30 31586 C 2956.38 -0.291687 2.09075 0
M  V30 31587 O 2955.73 -1.28949 1.88638 0
M  V30 31588 C 2955.94 2.17921 2.72601 0
M  V30 31589 C 2957.28 2.51652 3.41989 0
M  V30 31590 O 2958.31 2.16525 2.82834 0
M  V30 31591 O 2957.17 3.11898 4.48756 0
M  V30 31592 H 2954.26 0.442357 0.698748 0
M  V30 31593 H 2956.81 1.44459 0.890491 0
M  V30 31594 H 2955.58 3.14463 2.3287 0
M  V30 31595 H 2955.2 1.89006 3.49803 0
M  V30 31596 N 2956.2 -1.06426 1.16238 0
M  V30 31597 C 2957.61 -1.60666 0.950971 0
M  V30 31598 C 2957.96 -1.89577 -0.505457 0
M  V30 31599 O 2957.09 -1.6682 -1.3784 0
M  V30 31600 C 2957.68 -2.91901 1.71987 0
M  V30 31601 C 2956.24 -3.42847 1.55348 0
M  V30 31602 C 2955.39 -2.1676 1.72946 0
M  V30 31603 H 2958.34 -0.893936 1.31128 0
M  V30 31604 H 2958.36 -3.61251 1.1949 0
M  V30 31605 H 2957.87 -2.70826 2.77983 0
M  V30 31606 H 2955.97 -3.68984 0.517865 0
M  V30 31607 H 2956.09 -4.18263 2.33651 0
M  V30 31608 H 2954.45 -2.26916 1.15677 0
M  V30 31609 H 2955.23 -1.9817 2.80327 0
M  V30 31610 N 2957.68 -0.960653 -1.24937 0
M  V30 31611 C 2958.64 -0.490099 -2.23899 0
M  V30 31612 C 2959.64 0.409508 -1.55498 0
M  V30 31613 O 2960.83 0.205954 -1.72978 0
M  V30 31614 C 2957.96 0.291133 -3.39655 0
M  V30 31615 H 2959.16 -1.36487 -2.67042 0
M  V30 31616 H 2956.71 -0.744529 -1.37428 0
M  V30 31617 H 2957.44 1.18331 -3.01941 0
M  V30 31618 H 2957.23 -0.354345 -3.90496 0
M  V30 31619 H 2958.72 0.609621 -4.13126 0
M  V30 31620 N 2959.16 1.39677 -0.729931 0
M  V30 31621 C 2960.1 2.32477 -0.0756998 0
M  V30 31622 C 2961.1 1.52796 0.731411 0
M  V30 31623 O 2962.3 1.68496 0.633166 0
M  V30 31624 H 2958.68 0.751979 -0.00567814 0
M  V30 31625 H 2960.65 2.85288 -0.874848 0
M  V30 31626 C 2959.4 3.37862 0.821253 0
M  V30 31627 H 2958.72 3.9925 0.209596 0
M  V30 31628 H 2960.16 4.05256 1.24672 0
M  V30 31629 C 2958.62 2.74499 1.95325 0
M  V30 31630 O 2959.15 2.61947 3.04543 0
M  V30 31631 N 2957.36 2.32663 1.74115 0
M  V30 31632 H 2956.9 2.43072 0.852865 0
M  V30 31633 H 2956.86 1.90608 2.50032 0
M  V30 31634 N 2960.63 0.47718 1.50202 0
M  V30 31635 C 2961.56 -0.303605 2.31518 0
M  V30 31636 C 2962.55 -0.984728 1.38698 0
M  V30 31637 O 2963.73 -0.980728 1.67617 0
M  V30 31638 C 2960.86 -1.38244 3.186 0
M  V30 31639 C 2959.81 -0.822572 4.20021 0
M  V30 31640 C 2959.14 -2.00015 4.95881 0
M  V30 31641 C 2960.44 0.170277 5.22022 0
M  V30 31642 H 2962.13 0.37508 2.97041 0
M  V30 31643 H 2959.68 0.181828 1.42847 0
M  V30 31644 H 2961.63 -1.93619 3.74286 0
M  V30 31645 H 2960.36 -2.08998 2.50973 0
M  V30 31646 H 2959.02 -0.290749 3.65445 0
M  V30 31647 H 2958.66 -2.69481 4.24722 0
M  V30 31648 H 2958.36 -1.63173 5.64489 0
M  V30 31649 H 2959.89 -2.55869 5.54404 0
M  V30 31650 H 2961.3 -0.294506 5.72543 0
M  V30 31651 H 2959.7 0.453286 5.98386 0
M  V30 31652 H 2960.77 1.09416 4.72394 0
M  V30 31653 N 2962.11 -1.56194 0.210027 0
M  V30 31654 C 2963.39 -1.8979 -0.473181 0
M  V30 31655 C 2963.77 -1.12573 -1.78579 0
M  V30 31656 O 2963.12 -0.231438 -2.27325 0
M  V30 31657 C 2963.33 -3.42363 -0.677397 0
M  V30 31658 C 2964.68 -4.12896 -0.990041 0
M  V30 31659 O 2965.7 -3.47897 -0.764594 0
M  V30 31660 O 2964.56 -5.27802 -1.41728 0
M  V30 31661 H 2961.65 -0.788748 -0.248608 0
M  V30 31662 H 2964.2 -1.67828 0.251354 0
M  V30 31663 H 2962.97 -3.90507 0.248947 0
M  V30 31664 H 2962.59 -3.70066 -1.45384 0
M  V30 31665 N 2963.59 0.0634645 -1.57472 0
M  V30 31666 C 2964.82 0.777526 -1.92274 0
M  V30 31667 C 2965.24 1.69901 -0.807171 0
M  V30 31668 O 2964.6 1.79711 0.239491 0
M  V30 31669 C 2964.65 1.54011 -3.26057 0
M  V30 31670 O 2963.75 2.65133 -3.15877 0
M  V30 31671 H 2963.09 0.211568 -0.629393 0
M  V30 31672 H 2965.62 0.0292164 -2.04579 0
M  V30 31673 H 2965.63 1.91756 -3.6013 0
M  V30 31674 H 2964.31 0.864057 -4.06825 0
M  V30 31675 H 2962.88 2.30184 -2.93377 0
M  V30 31676 N 2965.07 1.53998 0.33504 0
M  V30 31677 C 2965.98 1.85587 1.43508 0
M  V30 31678 C 2966.99 0.746754 1.57161 0
M  V30 31679 O 2968.17 1.03991 1.72476 0
M  V30 31680 C 2965.24 2.0665 2.78382 0
M  V30 31681 C 2964.3 3.30487 2.74001 0
M  V30 31682 C 2963.53 3.50536 4.02443 0
M  V30 31683 O 2963.75 2.74251 5.00142 0
M  V30 31684 O 2962.69 4.43987 4.06398 0
M  V30 31685 H 2966.51 2.79105 1.19726 0
M  V30 31686 H 2964.1 1.39758 0.528009 0
M  V30 31687 H 2965.98 2.21901 3.58243 0
M  V30 31688 H 2964.65 1.16322 3.02078 0
M  V30 31689 H 2963.56 3.20633 1.92731 0
M  V30 31690 H 2964.89 4.20837 2.5526 0
M  V30 31691 N 2966.55 -0.596505 1.45875 0
M  V30 31692 C 2967.51 -1.6885 1.54991 0
M  V30 31693 C 2968.51 -1.5499 0.428329 0
M  V30 31694 O 2969.7 -1.59858 0.692186 0
M  V30 31695 C 2966.83 -3.08193 1.45705 0
M  V30 31696 H 2968.02 -1.6213 2.52297 0
M  V30 31697 H 2965.58 -0.813183 1.3348 0
M  V30 31698 H 2966.31 -3.2048 0.496261 0
M  V30 31699 H 2966.1 -3.19661 2.27067 0
M  V30 31700 H 2967.59 -3.87713 1.5514 0
M  V30 31701 N 2968.02 -1.3335 -0.839967 0
M  V30 31702 C 2968.97 -1.23513 -1.9497 0
M  V30 31703 C 2969.94 -0.113996 -1.65708 0
M  V30 31704 O 2971.13 -0.292078 -1.88551 0
M  V30 31705 C 2968.27 -0.979163 -3.30918 0
M  V30 31706 C 2967.38 -2.18646 -3.72583 0
M  V30 31707 C 2966.51 -1.86474 -4.97394 0
M  V30 31708 C 2965.55 -3.03442 -5.31592 0
M  V30 31709 N 2964.69 -2.71265 -6.4758 0
M  V30 31710 H 2969.53 -2.18427 -2.02716 0
M  V30 31711 H 2967.07 -1.08618 -0.991998 0
M  V30 31712 H 2969.03 -0.811198 -4.09238 0
M  V30 31713 H 2967.66 -0.0667667 -3.22731 0
M  V30 31714 H 2966.71 -2.46421 -2.89795 0
M  V30 31715 H 2968.02 -3.06093 -3.93839 0
M  V30 31716 H 2967.17 -1.66315 -5.83459 0
M  V30 31717 H 2965.91 -0.962624 -4.78105 0
M  V30 31718 H 2964.92 -3.24216 -4.44032 0
M  V30 31719 H 2966.14 -3.94407 -5.52829 0
M  V30 31720 H 2964.09 -1.83611 -6.2978 0
M  V30 31721 H 2964.01 -3.52243 -6.68925 0
M  V30 31722 H 2965.27 -2.54571 -7.36759 0
M  V30 31723 N 2969.5 1.05808 -1.16801 0
M  V30 31724 C 2970.75 1.78086 -0.947012 0
M  V30 31725 C 2971.06 1.88395 0.525983 0
M  V30 31726 O 2972.27 2.57351 0.865016 0
M  V30 31727 C 2970.73 3.20099 -1.64513 0
M  V30 31728 C 2970.33 3.1794 -3.15623 0
M  V30 31729 C 2972.08 3.96877 -1.50629 0
M  V30 31730 C 2969.99 4.54703 -3.78152 0
M  V30 31731 H 2968.92 0.667487 -0.350681 0
M  V30 31732 H 2971.57 1.18642 -1.39987 0
M  V30 31733 H 2969.95 3.79832 -1.12 0
M  V30 31734 H 2971.12 2.67762 -3.7502 0
M  V30 31735 H 2969.44 2.54662 -3.29449 0
M  V30 31736 H 2972.03 4.97983 -1.94722 0
M  V30 31737 H 2972.38 4.13796 -0.455937 0
M  V30 31738 H 2972.91 3.43678 -2.00325 0
M  V30 31739 H 2969.65 4.4299 -4.83157 0
M  V30 31740 H 2969.17 5.05056 -3.23541 0
M  V30 31741 H 2970.85 5.23653 -3.79995 0
M  V30 31742 N 2970.98 0.967265 1.24426 0
M  V30 31743 C 2972.23 0.624512 1.91788 0
M  V30 31744 C 2972.54 -0.844098 1.76449 0
M  V30 31745 O 2973.75 -1.29735 2.38497 0
M  V30 31746 C 2972.2 1.06632 3.43741 0
M  V30 31747 C 2971.81 2.55835 3.67767 0
M  V30 31748 C 2973.56 0.796694 4.16957 0
M  V30 31749 C 2971.46 2.93751 5.13288 0
M  V30 31750 H 2970.39 0.229869 0.718106 0
M  V30 31751 H 2973.04 1.17341 1.41079 0
M  V30 31752 H 2971.43 0.445732 3.93483 0
M  V30 31753 H 2972.6 3.2302 3.28625 0
M  V30 31754 H 2970.92 2.80404 3.07836 0
M  V30 31755 H 2973.51 1.05598 5.24169 0
M  V30 31756 H 2973.86 -0.26709 4.15442 0
M  V30 31757 H 2974.39 1.37823 3.73162 0
M  V30 31758 H 2971.13 3.99199 5.19924 0
M  V30 31759 H 2970.65 2.3125 5.53429 0
M  V30 31760 H 2972.33 2.83633 5.81516 0
M  V30 31761 N 2972.46 -1.39288 0.737328 0
M  V30 31762 C 2973.39 -2.29123 0.0592509 0
M  V30 31763 C 2974.4 -1.46935 -0.701 0
M  V30 31764 O 2975.59 -1.69984 -0.544778 0
M  V30 31765 C 2972.69 -3.25594 -0.940301 0
M  V30 31766 C 2971.87 -4.36735 -0.241086 0
M  V30 31767 C 2970.93 -5.135 -1.14907 0
M  V30 31768 O 2969.95 -5.65751 -0.625684 0
M  V30 31769 N 2971.15 -5.24925 -2.4786 0
M  V30 31770 H 2973.92 -2.87957 0.830698 0
M  V30 31771 H 2971.48 -1.50894 0.586744 0
M  V30 31772 H 2973.47 -3.73825 -1.55039 0
M  V30 31773 H 2972.04 -2.67774 -1.61294 0
M  V30 31774 H 2971.26 -3.90351 0.549509 0
M  V30 31775 H 2972.55 -5.08218 0.243389 0
M  V30 31776 H 2971.95 -4.83996 -2.92856 0
M  V30 31777 H 2970.5 -5.76587 -3.03959 0
M  V30 31778 N 2973.94 -0.485139 -1.49947 0
M  V30 31779 C 2974.87 0.338182 -2.26691 0
M  V30 31780 C 2975.88 0.944719 -1.32585 0
M  V30 31781 O 2977.07 0.830744 -1.5799 0
M  V30 31782 C 2974.17 1.48961 -3.04407 0
M  V30 31783 C 2973.34 0.993296 -4.25972 0
M  V30 31784 C 2972.4 2.02044 -4.85865 0
M  V30 31785 O 2971.43 1.59537 -5.46385 0
M  V30 31786 N 2972.63 3.34967 -4.74107 0
M  V30 31787 H 2975.4 -0.3198 -2.97989 0
M  V30 31788 H 2972.96 -0.316742 -1.58771 0
M  V30 31789 H 2974.95 2.17397 -3.41351 0
M  V30 31790 H 2973.52 2.05203 -2.35819 0
M  V30 31791 H 2972.74 0.134355 -3.93971 0
M  V30 31792 H 2974.03 0.639845 -5.04761 0
M  V30 31793 H 2973.43 3.72201 -4.26008 0
M  V30 31794 H 2971.98 3.99161 -5.15281 0
M  V30 31795 N 2975.42 1.56081 -0.218307 0
M  V30 31796 C 2976.38 2.18893 0.679594 0
M  V30 31797 C 2977.38 1.14988 1.12403 0
M  V30 31798 O 2978.57 1.4024 1.03336 0
M  V30 31799 C 2975.7 2.80965 1.93058 0
M  V30 31800 H 2976.89 2.99609 0.132013 0
M  V30 31801 H 2974.45 1.56269 0.0313099 0
M  V30 31802 H 2975.18 2.0411 2.52011 0
M  V30 31803 H 2974.97 3.57051 1.6204 0
M  V30 31804 H 2976.46 3.29123 2.57037 0
M  V30 31805 N 2976.89 -0.0551124 1.57504 0
M  V30 31806 C 2978.14 -0.749587 1.87685 0
M  V30 31807 C 2978.46 -1.77263 0.812578 0
M  V30 31808 O 2977.73 -1.95271 -0.156906 0
M  V30 31809 H 2976.31 -0.279834 0.692605 0
M  V30 31810 H 2978.97 -0.0272402 1.94881 0
M  V30 31811 H 2978.07 -1.25543 2.85736 0
M  V30 31812 N 2978.37 -1.54173 -0.326869 0
M  V30 31813 C 2979.3 -1.79663 -1.42316 0
M  V30 31814 C 2980.32 -0.678482 -1.47988 0
M  V30 31815 O 2981.51 -0.95553 -1.50771 0
M  V30 31816 C 2978.61 -1.89641 -2.80873 0
M  V30 31817 C 2977.78 -3.19766 -2.98443 0
M  V30 31818 C 2976.84 -3.20488 -4.17342 0
M  V30 31819 O 2975.86 -3.94141 -4.1066 0
M  V30 31820 N 2977.07 -2.44037 -5.26713 0
M  V30 31821 H 2979.83 -2.7427 -1.20814 0
M  V30 31822 H 2977.39 -1.53429 -0.516839 0
M  V30 31823 H 2979.38 -1.87555 -3.58616 0
M  V30 31824 H 2977.95 -1.02146 -2.9544 0
M  V30 31825 H 2977.17 -3.34839 -2.08029 0
M  V30 31826 H 2978.46 -4.05687 -3.07076 0
M  V30 31827 H 2977.86 -1.8378 -5.35015 0
M  V30 31828 H 2976.42 -2.47732 -6.02887 0
M  V30 31829 N 2979.85 0.58876 -1.4619 0
M  V30 31830 C 2981.1 1.34918 -1.5141 0
M  V30 31831 C 2981.43 1.93516 -0.162805 0
M  V30 31832 O 2980.7 1.76134 0.825051 0
M  V30 31833 C 2980.99 2.48306 -2.60799 0
M  V30 31834 C 2980.84 1.94782 -4.05438 0
M  V30 31835 C 2982.16 3.50375 -2.66319 0
M  V30 31836 H 2979.28 0.489207 -0.551221 0
M  V30 31837 H 2981.92 0.661961 -1.78096 0
M  V30 31838 H 2980.07 3.06928 -2.38175 0
M  V30 31839 H 2981.74 1.40664 -4.39331 0
M  V30 31840 H 2979.98 1.25651 -4.15204 0
M  V30 31841 H 2980.66 2.76605 -4.77696 0
M  V30 31842 H 2983.13 3.01624 -2.8664 0
M  V30 31843 H 2982.01 4.27178 -3.44688 0
M  V30 31844 H 2982.27 4.07213 -1.72134 0
M  V30 31845 N 2981.33 1.33794 0.832883 0
M  V30 31846 C 2982.57 1.26784 1.59051 0
M  V30 31847 C 2982.93 -0.163365 1.91705 0
M  V30 31848 O 2982.22 -1.10704 1.56382 0
M  V30 31849 C 2982.42 2.0824 2.90467 0
M  V30 31850 C 2982.24 3.59137 2.70649 0
M  V30 31851 C 2981.01 4.28438 2.67898 0
M  V30 31852 C 2983.21 4.53345 2.42863 0
M  V30 31853 N 2981.19 5.65246 2.39521 0
M  V30 31854 C 2982.57 5.78086 2.24091 0
M  V30 31855 C 2984.62 4.42366 2.28509 0
M  V30 31856 C 2983.32 6.93085 1.9242 0
M  V30 31857 C 2985.35 5.57188 1.98232 0
M  V30 31858 C 2984.71 6.8094 1.80276 0
M  V30 31859 H 2980.81 0.51915 0.584814 0
M  V30 31860 H 2983.39 1.684 0.977223 0
M  V30 31861 H 2981.57 1.68937 3.49736 0
M  V30 31862 H 2983.3 1.92953 3.5574 0
M  V30 31863 H 2980.05 3.80773 2.81618 0
M  V30 31864 H 2980.48 6.37381 2.282 0
M  V30 31865 H 2985.12 3.47319 2.41101 0
M  V30 31866 H 2982.84 7.88124 1.78565 0
M  V30 31867 H 2986.42 5.50632 1.87872 0
M  V30 31868 H 2985.3 7.68285 1.57186 0
M  V30 31869 N 2982.81 -1.05187 1.1736 0
M  V30 31870 C 2984.05 -1.78189 0.962019 0
M  V30 31871 C 2984.38 -1.87713 -0.50933 0
M  V30 31872 O 2983.64 -1.37331 -1.39423 0
M  V30 31873 C 2983.93 -3.22123 1.54827 0
M  V30 31874 C 2983.6 -3.32658 3.04384 0
M  V30 31875 C 2982.26 -3.3524 3.45207 0
M  V30 31876 C 2984.61 -3.33669 4.00392 0
M  V30 31877 C 2981.94 -3.36463 4.80635 0
M  V30 31878 C 2984.29 -3.36431 5.35721 0
M  V30 31879 C 2982.96 -3.373 5.76008 0
M  V30 31880 H 2982.23 -0.652041 0.352028 0
M  V30 31881 H 2984.88 -1.23624 1.46251 0
M  V30 31882 H 2983.18 -3.79616 0.969498 0
M  V30 31883 H 2984.88 -3.77229 1.36011 0
M  V30 31884 H 2981.47 -3.31361 2.71842 0
M  V30 31885 H 2985.65 -3.30876 3.69912 0
M  V30 31886 H 2980.91 -3.35446 5.11161 0
M  V30 31887 H 2985.08 -3.36162 6.09892 0
M  V30 31888 H 2982.71 -3.38001 6.80925 0
M  V30 31889 N 2984.28 -0.97385 -1.23911 0
M  V30 31890 C 2985.69 -0.677052 -1.73991 0
M  V30 31891 C 2986.05 0.807005 -1.78835 0
M  V30 31892 O 2985.17 1.63133 -1.42185 0
M  V30 31893 C 2985.77 -1.22231 -3.15983 0
M  V30 31894 C 2984.32 -0.975291 -3.63545 0
M  V30 31895 C 2983.47 -1.35396 -2.41998 0
M  V30 31896 H 2986.42 -1.14846 -1.09527 0
M  V30 31897 H 2986.44 -0.591555 -3.75873 0
M  V30 31898 H 2985.96 -2.30244 -3.12425 0
M  V30 31899 H 2984.06 0.0890392 -3.72494 0
M  V30 31900 H 2984.17 -1.62526 -4.50691 0
M  V30 31901 H 2982.53 -0.772377 -2.42706 0
M  V30 31902 H 2983.32 -2.44371 -2.41117 0
M  V30 31903 N 2985.76 1.38895 -0.744705 0
M  V30 31904 C 2987.04 1.94327 -0.222807 0
M  V30 31905 C 2987.42 1.68073 1.27728 0
M  V30 31906 O 2986.77 1.01433 2.04753 0
M  V30 31907 C 2986.98 3.44365 -0.566896 0
M  V30 31908 C 2988.32 4.21384 -0.521605 0
M  V30 31909 O 2989.35 3.52607 -0.504661 0
M  V30 31910 O 2988.21 5.43975 -0.52469 0
M  V30 31911 H 2985.3 0.825832 -0.0439404 0
M  V30 31912 H 2987.85 1.4834 -0.824223 0
M  V30 31913 H 2986.62 3.56947 -1.60327 0
M  V30 31914 H 2986.24 3.9755 0.0629878 0
M  V30 31915 N 2987.24 0.493084 1.49688 0
M  V30 31916 C 2988.47 -0.053475 2.07331 0
M  V30 31917 C 2988.89 -1.30779 1.35198 0
M  V30 31918 O 2988.25 -1.76689 0.406277 0
M  V30 31919 C 2988.3 -0.298187 3.59365 0
M  V30 31920 O 2987.4 -1.37447 3.88821 0
M  V30 31921 H 2986.74 0.0227134 0.663611 0
M  V30 31922 H 2989.27 0.690436 1.92598 0
M  V30 31923 H 2989.28 -0.532088 4.04516 0
M  V30 31924 H 2987.96 0.618279 4.11279 0
M  V30 31925 H 2986.53 -1.12615 3.55489 0
M  V30 31926 N 2988.72 -1.55963 0.226582 0
M  V30 31927 C 2989.68 -2.1925 -0.667976 0
M  V30 31928 C 2990.68 -1.15582 -1.11792 0
M  V30 31929 O 2991.87 -1.40786 -1.02591 0
M  V30 31930 C 2989 -2.81985 -1.91566 0
M  V30 31931 H 2990.2 -2.99675 -0.116122 0
M  V30 31932 H 2987.75 -1.56283 -0.0230222 0
M  V30 31933 H 2988.48 -2.05444 -2.50925 0
M  V30 31934 H 2988.27 -3.57905 -1.60144 0
M  V30 31935 H 2989.76 -3.30481 -2.55288 0
M  V30 31936 N 2990.2 0.0467589 -1.57531 0
M  V30 31937 C 2991.44 0.741087 -1.88452 0
M  V30 31938 C 2991.77 1.76294 -0.821623 0
M  V30 31939 O 2991.03 1.94875 0.179551 0
M  V30 31940 C 2991.33 1.4628 -3.26094 0
M  V30 31941 C 2990.99 0.57859 -4.47172 0
M  V30 31942 C 2989.65 0.334999 -4.80032 0
M  V30 31943 C 2992.01 -0.0329725 -5.2119 0
M  V30 31944 C 2989.33 -0.529224 -5.84308 0
M  V30 31945 C 2991.69 -0.884794 -6.26382 0
M  V30 31946 C 2990.35 -1.13802 -6.57727 0
M  V30 31947 H 2989.62 0.271183 -0.689595 0
M  V30 31948 H 2992.27 0.00129012 -1.915 0
M  V30 31949 H 2990.57 2.27546 -3.18952 0
M  V30 31950 H 2992.27 2.00526 -3.47261 0
M  V30 31951 H 2988.86 0.778592 -4.21469 0
M  V30 31952 H 2993.04 0.142288 -4.96096 0
M  V30 31953 H 2988.3 -0.733901 -6.06979 0
M  V30 31954 H 2992.47 -1.36528 -6.82886 0
M  V30 31955 H 2990.1 -1.80942 -7.38352 0
M  V30 31956 N 2991.67 1.54344 0.318688 0
M  V30 31957 C 2992.62 1.84068 1.39239 0
M  V30 31958 C 2993.59 0.68816 1.51174 0
M  V30 31959 O 2994.78 0.935068 1.66316 0
M  V30 31960 C 2991.92 2.07799 2.75525 0
M  V30 31961 C 2991.03 3.35472 2.72182 0
M  V30 31962 C 2990.16 3.49137 4.00346 0
M  V30 31963 C 2989.2 4.70667 3.9133 0
M  V30 31964 N 2988.34 4.81233 5.11233 0
M  V30 31965 H 2993.18 2.75666 1.13191 0
M  V30 31966 H 2990.72 1.36518 0.547833 0
M  V30 31967 H 2992.68 2.1955 3.54759 0
M  V30 31968 H 2991.31 1.19487 2.99871 0
M  V30 31969 H 2990.36 3.32434 1.84911 0
M  V30 31970 H 2991.67 4.24817 2.61404 0
M  V30 31971 H 2990.82 3.60456 4.88012 0
M  V30 31972 H 2989.56 2.57893 4.13935 0
M  V30 31973 H 2988.57 4.59399 3.02047 0
M  V30 31974 H 2989.79 5.63301 3.793 0
M  V30 31975 H 2987.74 3.92906 5.2532 0
M  V30 31976 H 2987.66 5.64551 5.0281 0
M  V30 31977 H 2988.92 4.96889 6.00601 0
M  V30 31978 N 2993.15 -0.580999 1.465 0
M  V30 31979 C 2994.38 -1.36514 1.55472 0
M  V30 31980 C 2994.8 -1.87775 0.19644 0
M  V30 31981 O 2994.15 -1.6371 -0.806548 0
M  V30 31982 C 2994.2 -2.55149 2.56088 0
M  V30 31983 O 2993.92 -2.06012 3.8664 0
M  V30 31984 C 2995.43 -3.47679 2.75017 0
M  V30 31985 H 2992.65 -0.416977 0.52571 0
M  V30 31986 H 2995.19 -0.706144 1.91922 0
M  V30 31987 H 2993.34 -3.17035 2.22638 0
M  V30 31988 H 2993.76 -2.83285 4.41418 0
M  V30 31989 H 2995.23 -4.27397 3.49336 0
M  V30 31990 H 2995.71 -3.99722 1.81985 0
M  V30 31991 H 2996.32 -2.91627 3.0957 0
M  V30 31992 N 2994.63 -1.34234 -0.825776 0
M  V30 31993 C 2995.86 -1.29312 -1.61127 0
M  V30 31994 C 2996.27 0.135556 -1.88714 0
M  V30 31995 O 2995.61 1.09219 -1.47705 0
M  V30 31996 C 2995.67 -2.01292 -2.97862 0
M  V30 31997 C 2995.34 -3.5056 -2.93184 0
M  V30 31998 C 2996.33 -4.4552 -2.6797 0
M  V30 31999 C 2994.02 -3.92931 -3.12906 0
M  V30 32000 C 2996.01 -5.80826 -2.62526 0
M  V30 32001 C 2993.7 -5.28338 -3.07087 0
M  V30 32002 C 2994.7 -6.22097 -2.81929 0
M  V30 32003 O 2994.39 -7.55023 -2.76037 0
M  V30 32004 H 2994.12 -0.4464 -0.507645 0
M  V30 32005 H 2996.67 -1.77376 -1.03571 0
M  V30 32006 H 2994.9 -1.47838 -3.57324 0
M  V30 32007 H 2996.59 -1.89698 -3.58845 0
M  V30 32008 H 2997.36 -4.14106 -2.52471 0
M  V30 32009 H 2993.24 -3.20352 -3.31505 0
M  V30 32010 H 2996.78 -6.5398 -2.42809 0
M  V30 32011 H 2992.68 -5.59372 -3.22138 0
M  V30 32012 H 2993.45 -7.64725 -2.91784 0
M  V30 32013 N 2996.11 1.04563 -1.17917 0
M  V30 32014 C 2997.04 2.12478 -0.859396 0
M  V30 32015 C 2998.05 1.62189 0.140893 0
M  V30 32016 O 2999.24 1.78291 -0.0862675 0
M  V30 32017 C 2996.34 3.37887 -0.261871 0
M  V30 32018 C 2995.52 4.17429 -1.30659 0
M  V30 32019 C 2994.57 5.21172 -0.725667 0
M  V30 32020 O 2993.6 5.51737 -1.39911 0
M  V30 32021 N 2994.8 5.78518 0.479249 0
M  V30 32022 H 2997.57 2.40505 -1.78823 0
M  V30 32023 H 2995.13 1.20714 -1.07888 0
M  V30 32024 H 2997.12 4.04457 0.140209 0
M  V30 32025 H 2995.69 3.07343 0.570875 0
M  V30 32026 H 2994.91 3.46255 -1.88418 0
M  V30 32027 H 2996.2 4.67369 -2.01107 0
M  V30 32028 H 2995.6 5.55979 1.04421 0
M  V30 32029 H 2994.15 6.46579 0.823313 0
M  V30 32030 N 2997.59 0.980408 1.23393 0
M  V30 32031 C 2998.55 0.525658 2.23091 0
M  V30 32032 C 2999.55 -0.384718 1.5613 0
M  V30 32033 O 3000.74 -0.178408 1.73284 0
M  V30 32034 C 2997.87 -0.23706 3.40075 0
M  V30 32035 H 2999.06 1.40718 2.64837 0
M  V30 32036 H 2996.62 0.766298 1.36226 0
M  V30 32037 H 2997.35 -1.13512 3.03785 0
M  V30 32038 H 2997.14 0.416424 3.89882 0
M  V30 32039 H 2998.63 -0.543819 4.14044 0
M  V30 32040 N 2999.06 -1.38498 0.75206 0
M  V30 32041 C 3000.31 -1.99391 0.304329 0
M  V30 32042 C 3000.63 -1.60375 -1.11979 0
M  V30 32043 O 3001.83 -2.14226 -1.66791 0
M  V30 32044 C 3000.29 -3.56505 0.493164 0
M  V30 32045 C 2999.9 -4.04474 1.92627 0
M  V30 32046 C 3001.64 -4.24362 0.108069 0
M  V30 32047 C 2999.55 -5.54223 2.06375 0
M  V30 32048 H 2998.48 -0.745928 0.110037 0
M  V30 32049 H 3001.13 -1.58282 0.928383 0
M  V30 32050 H 2999.51 -3.95494 -0.200051 0
M  V30 32051 H 3000.68 -3.76778 2.65283 0
M  V30 32052 H 2999 -3.49335 2.26614 0
M  V30 32053 H 3001.6 -5.34364 0.189568 0
M  V30 32054 H 3001.94 -4.0557 -0.939094 0
M  V30 32055 H 3002.47 -3.90607 0.75308 0
M  V30 32056 H 2999.21 -5.77918 3.0934 0
M  V30 32057 H 2998.73 -5.83667 1.38178 0
M  V30 32058 H 3000.41 -6.19899 1.85297 0
M  V30 32059 N 3000.54 -0.501015 -1.49424 0
M  V30 32060 C 3001.49 0.277403 -2.29127 0
M  V30 32061 C 3002.46 0.960339 -1.35524 0
M  V30 32062 O 3003.64 0.966998 -1.6448 0
M  V30 32063 C 3000.78 1.33588 -3.18195 0
M  V30 32064 C 2999.9 0.664716 -4.26855 0
M  V30 32065 C 2999.03 1.70363 -5.0314 0
M  V30 32066 C 2998.07 1.01434 -6.03637 0
M  V30 32067 N 2997.21 1.99746 -6.73087 0
M  V30 32068 H 3002.05 -0.40851 -2.95187 0
M  V30 32069 H 2999.59 -0.213301 -1.45545 0
M  V30 32070 H 3001.54 1.96155 -3.68211 0
M  V30 32071 H 3000.17 1.99055 -2.5412 0
M  V30 32072 H 2999.23 -0.0742377 -3.80328 0
M  V30 32073 H 3000.54 0.122109 -4.98651 0
M  V30 32074 H 2999.69 2.40435 -5.57024 0
M  V30 32075 H 2998.43 2.28009 -4.31118 0
M  V30 32076 H 2997.44 0.2994 -5.48984 0
M  V30 32077 H 2998.66 0.444378 -6.77645 0
M  V30 32078 H 2996.61 2.56354 -6.03836 0
M  V30 32079 H 2996.52 1.50552 -7.40858 0
M  V30 32080 H 2997.79 2.69106 -7.31575 0
M  V30 32081 N 3002.02 1.5584 -0.234849 0
M  V30 32082 C 3003.3 1.90519 0.442927 0
M  V30 32083 C 3003.68 1.154 1.76766 0
M  V30 32084 O 3003.03 0.267574 2.26928 0
M  V30 32085 C 3003.24 3.43397 0.622845 0
M  V30 32086 C 3004.58 4.14419 0.924227 0
M  V30 32087 O 3005.61 3.49069 0.70915 0
M  V30 32088 O 3004.47 5.2999 1.33313 0
M  V30 32089 H 3001.56 0.792603 0.236028 0
M  V30 32090 H 3004.11 1.67407 -0.278022 0
M  V30 32091 H 3002.88 3.90062 -0.311042 0
M  V30 32092 H 3002.5 3.72332 1.39479 0
M  V30 32093 N 3003.5 -0.038404 1.57553 0
M  V30 32094 C 3004.75 -0.731082 1.88842 0
M  V30 32095 C 3005.07 -1.75856 0.830961 0
M  V30 32096 O 3004.33 -1.94967 -0.169214 0
M  V30 32097 C 3004.63 -1.44548 3.26865 0
M  V30 32098 C 3004.29 -0.554867 4.47473 0
M  V30 32099 C 3002.96 -0.309537 4.80203 0
M  V30 32100 C 3005.31 0.060612 5.21165 0
M  V30 32101 C 3002.64 0.560204 5.84019 0
M  V30 32102 C 3004.99 0.918 6.25904 0
M  V30 32103 C 3003.65 1.17288 6.57115 0
M  V30 32104 H 3002.92 -0.267522 0.691023 0
M  V30 32105 H 3005.57 0.00886561 1.91498 0
M  V30 32106 H 3003.87 -2.25851 3.20154 0
M  V30 32107 H 3005.57 -1.98682 3.4832 0
M  V30 32108 H 3002.16 -0.75623 4.21876 0
M  V30 32109 H 3006.35 -0.115977 4.96164 0
M  V30 32110 H 3001.6 0.76608 6.06582 0
M  V30 32111 H 3005.78 1.40148 6.82152 0
M  V30 32112 H 3003.4 1.84856 7.37382 0
M  V30 32113 N 3004.98 -1.54511 -0.310498 0
M  V30 32114 C 3005.93 -1.85547 -1.40269 0
M  V30 32115 C 3006.92 -0.728404 -1.5294 0
M  V30 32116 O 3008.13 -0.912261 -1.5517 0
M  V30 32117 H 3004.5 -0.588352 -0.468344 0
M  V30 32118 H 3006.47 -2.76857 -1.11324 0
M  V30 32119 C 3005.22 -2.1111 -2.76275 0
M  V30 32120 H 3004.54 -2.97303 -2.67303 0
M  V30 32121 H 3005.98 -2.36771 -3.51732 0
M  V30 32122 C 3004.44 -0.906675 -3.2447 0
M  V30 32123 O 3004.97 -0.122428 -4.01513 0
M  V30 32124 N 3003.18 -0.714682 -2.81675 0
M  V30 32125 H 3002.73 -1.35408 -2.1914 0
M  V30 32126 H 3002.68 0.0896477 -3.14272 0
M  V30 32127 N 3006.46 0.573222 -1.46806 0
M  V30 32128 C 3007.87 0.897554 -1.3197 0
M  V30 32129 C 3008.07 1.99281 -0.298206 0
M  V30 32130 O 3007.13 2.5076 0.295909 0
M  V30 32131 C 3008.44 1.30593 -2.70861 0
M  V30 32132 C 3009.99 1.41825 -2.79024 0
M  V30 32133 C 3010.46 1.86025 -4.18519 0
M  V30 32134 N 3011.95 1.93203 -4.20983 0
M  V30 32135 C 3012.69 2.28698 -5.25818 0
M  V30 32136 N 3012.19 2.62919 -6.40972 0
M  V30 32137 N 3013.98 2.29334 -5.13188 0
M  V30 32138 H 3006.13 -0.150131 -2.11869 0
M  V30 32139 H 3008.39 -0.00449562 -0.947989 0
M  V30 32140 H 3008.1 0.5751 -3.46966 0
M  V30 32141 H 3007.97 2.26548 -3.01589 0
M  V30 32142 H 3010.36 2.13993 -2.03202 0
M  V30 32143 H 3010.44 0.440979 -2.5197 0
M  V30 32144 H 3010.08 1.14433 -4.94841 0
M  V30 32145 H 3010.01 2.84728 -4.42987 0
M  V30 32146 H 3012.51 1.69208 -3.37901 0
M  V30 32147 H 3012.82 2.88984 -7.16734 0
M  V30 32148 H 3011.16 2.60535 -6.44318 0
M  V30 32149 H 3014.35 2.02029 -4.22258 0
M  V30 32150 H 3014.53 2.56668 -5.95 0
M  V30 32151 N 3007.93 1.3467 0.818645 0
M  V30 32152 C 3008.84 1.28683 1.96158 0
M  V30 32153 C 3009.86 0.193772 1.72918 0
M  V30 32154 O 3011.04 0.42101 1.9695 0
M  V30 32155 C 3008.1 1.04639 3.30532 0
M  V30 32156 C 3007.16 2.23142 3.66751 0
M  V30 32157 C 3006.39 2.00236 4.94713 0
M  V30 32158 O 3006.62 0.962739 5.62217 0
M  V30 32159 O 3005.55 2.87295 5.28909 0
M  V30 32160 H 3009.38 2.24845 2.04153 0
M  V30 32161 H 3006.96 1.14919 0.954671 0
M  V30 32162 H 3008.84 0.930288 4.11003 0
M  V30 32163 H 3007.52 0.115196 3.23495 0
M  V30 32164 H 3006.43 2.40313 2.86706 0
M  V30 32165 H 3007.76 3.14666 3.78479 0
M  V30 32166 N 3009.41 -1.03936 1.1847 0
M  V30 32167 C 3010.66 -1.76809 0.978926 0
M  V30 32168 C 3010.98 -1.88677 -0.492537 0
M  V30 32169 O 3010.25 -1.41271 -1.35717 0
M  V30 32170 H 3008.83 -0.654962 0.359213 0
M  V30 32171 H 3011.49 -1.25431 1.49175 0
M  V30 32172 H 3010.59 -2.78025 1.41805 0
M  V30 32173 N 3010.89 -0.986938 -1.22871 0
M  V30 32174 C 3011.82 -0.552104 -2.26879 0
M  V30 32175 C 3012.8 0.418019 -1.64884 0
M  V30 32176 O 3013.99 0.309957 -1.9171 0
M  V30 32177 C 3011.12 0.139898 -3.47018 0
M  V30 32178 C 3010.07 -0.748165 -4.2141 0
M  V30 32179 C 3009.4 0.0764192 -5.34645 0
M  V30 32180 C 3010.7 -2.04214 -4.80722 0
M  V30 32181 H 3012.39 -1.42147 -2.63504 0
M  V30 32182 H 3009.94 -0.684942 -1.26667 0
M  V30 32183 H 3011.89 0.455453 -4.18931 0
M  V30 32184 H 3010.61 1.04377 -3.09472 0
M  V30 32185 H 3009.27 -1.04727 -3.51323 0
M  V30 32186 H 3008.92 0.981023 -4.93341 0
M  V30 32187 H 3008.62 -0.514709 -5.85341 0
M  V30 32188 H 3010.14 0.386206 -6.09377 0
M  V30 32189 H 3011.56 -1.79093 -5.44609 0
M  V30 32190 H 3009.95 -2.58159 -5.41732 0
M  V30 32191 H 3011.02 -2.72476 -4.01105 0
M  V30 32192 N 3012.37 1.38098 -0.759394 0
M  V30 32193 C 3013.78 1.82685 -0.385111 0
M  V30 32194 C 3014.13 1.63332 1.08707 0
M  V30 32195 O 3013.25 1.13766 1.84082 0
M  V30 32196 C 3013.85 3.31653 -0.692219 0
M  V30 32197 C 3012.41 3.74566 -0.371143 0
M  V30 32198 C 3011.56 2.60794 -0.942421 0
M  V30 32199 H 3014.51 1.26744 -0.95507 0
M  V30 32200 H 3014.53 3.8049 0.0275333 0
M  V30 32201 H 3014.04 3.45707 -1.76375 0
M  V30 32202 H 3012.14 3.66088 0.693573 0
M  V30 32203 H 3012.25 4.71121 -0.870755 0
M  V30 32204 H 3010.62 2.52036 -0.367427 0
M  V30 32205 H 3011.4 2.77646 -2.0191 0
M  V30 32206 N 3013.85 0.508932 1.49156 0
M  V30 32207 C 3014.78 -0.254429 2.3211 0
M  V30 32208 C 3015.76 -0.955087 1.40755 0
M  V30 32209 O 3016.94 -0.944954 1.69659 0
M  V30 32210 C 3014.07 -1.31455 3.21461 0
M  V30 32211 C 3013.03 -0.733294 4.21671 0
M  V30 32212 C 3012.35 -1.89451 5.00012 0
M  V30 32213 C 3013.65 0.280967 5.21544 0
M  V30 32214 H 3015.35 0.438002 2.96179 0
M  V30 32215 H 3012.89 0.212087 1.4243 0
M  V30 32216 H 3014.84 -1.85636 3.78308 0
M  V30 32217 H 3013.57 -2.03627 2.5535 0
M  V30 32218 H 3012.23 -0.213167 3.6598 0
M  V30 32219 H 3011.88 -2.60411 4.30343 0
M  V30 32220 H 3011.58 -1.51163 5.67824 0
M  V30 32221 H 3013.1 -2.44051 5.59706 0
M  V30 32222 H 3014.51 -0.172995 5.73039 0
M  V30 32223 H 3012.91 0.580111 5.97289 0
M  V30 32224 H 3013.98 1.19412 4.69967 0
M  V30 32225 N 3015.32 -1.55714 0.243111 0
M  V30 32226 C 3016.26 -2.17244 -0.698585 0
M  V30 32227 C 3017.23 -1.12333 -1.17559 0
M  V30 32228 O 3018.42 -1.40701 -1.25441 0
M  V30 32229 C 3015.55 -2.77007 -1.94896 0
M  V30 32230 C 3014.59 -3.94939 -1.61015 0
M  V30 32231 S 3015.42 -5.30691 -0.71608 0
M  V30 32232 C 3016.58 -5.93905 -1.97555 0
M  V30 32233 H 3016.81 -2.96781 -0.175672 0
M  V30 32234 H 3014.35 -1.54375 0.0275999 0
M  V30 32235 H 3016.3 -3.12076 -2.66681 0
M  V30 32236 H 3014.97 -1.97424 -2.443 0
M  V30 32237 H 3014.16 -4.35332 -2.53972 0
M  V30 32238 H 3013.76 -3.61128 -0.972766 0
M  V30 32239 H 3016.05 -6.11191 -2.92322 0
M  V30 32240 H 3017 -6.89433 -1.61516 0
M  V30 32241 H 3017.4 -5.22939 -2.12591 0
M  V30 32242 N 3016.8 0.030048 -1.57571 0
M  V30 32243 C 3018.05 0.722126 -1.89508 0
M  V30 32244 C 3018.38 1.75058 -0.84073 0
M  V30 32245 O 3017.66 1.93964 0.144324 0
M  V30 32246 C 3017.94 1.39256 -3.32084 0
M  V30 32247 C 3017.79 0.377689 -4.48212 0
M  V30 32248 C 3019.11 2.3268 -3.73561 0
M  V30 32249 H 3016.23 0.261051 -0.689218 0
M  V30 32250 H 3018.87 -0.0150722 -1.89994 0
M  V30 32251 H 3017.02 2.02092 -3.318 0
M  V30 32252 H 3018.69 -0.248672 -4.60629 0
M  V30 32253 H 3016.94 -0.303121 -4.3274 0
M  V30 32254 H 3017.61 0.885251 -5.44855 0
M  V30 32255 H 3020.08 1.7989 -3.75205 0
M  V30 32256 H 3018.96 2.76571 -4.7413 0
M  V30 32257 H 3019.22 3.19312 -3.05765 0
M  V30 32258 N 3018.28 1.54674 0.3023 0
M  V30 32259 C 3019.53 1.73893 1.03767 0
M  V30 32260 C 3019.86 0.524012 1.87308 0
M  V30 32261 O 3019.11 -0.49405 1.89361 0
M  V30 32262 C 3019.41 2.97967 1.97359 0
M  V30 32263 C 3019.08 4.31812 1.29804 0
M  V30 32264 C 3017.74 4.68196 1.11113 0
M  V30 32265 C 3020.09 5.14789 0.814982 0
M  V30 32266 C 3017.42 5.85137 0.427974 0
M  V30 32267 C 3019.77 6.32433 0.145554 0
M  V30 32268 C 3018.43 6.67479 -0.0533271 0
M  V30 32269 H 3017.7 0.636319 0.37971 0
M  V30 32270 H 3020.35 1.8893 0.312675 0
M  V30 32271 H 3018.66 2.77705 2.76382 0
M  V30 32272 H 3020.35 3.10031 2.54326 0
M  V30 32273 H 3016.94 4.03198 1.45359 0
M  V30 32274 H 3021.13 4.87179 0.947105 0
M  V30 32275 H 3016.38 6.10835 0.262887 0
M  V30 32276 H 3020.56 6.95998 -0.236655 0
M  V30 32277 H 3018.18 7.57948 -0.584694 0
M  V30 32278 N 3019.76 -0.565428 1.47108 0
M  V30 32279 C 3020.72 -1.65525 1.58538 0
M  V30 32280 C 3021.72 -1.54047 0.461108 0
M  V30 32281 O 3022.91 -1.58353 0.725938 0
M  V30 32282 C 3020.04 -3.05033 1.52209 0
M  V30 32283 H 3021.24 -1.56742 2.55679 0
M  V30 32284 H 3018.79 -0.784687 1.35175 0
M  V30 32285 H 3019.52 -3.19356 0.564128 0
M  V30 32286 H 3019.31 -3.14773 2.33796 0
M  V30 32287 H 3020.8 -3.84335 1.63329 0
M  V30 32288 N 3021.24 -1.35102 -0.811492 0
M  V30 32289 C 3022.18 -1.27645 -1.94447 0
M  V30 32290 C 3023.18 -0.172317 -1.68521 0
M  V30 32291 O 3024.38 -0.337998 -1.76798 0
M  V30 32292 H 3020.76 -0.396835 -0.638769 0
M  V30 32293 H 3022.73 -2.23372 -1.97857 0
M  V30 32294 C 3021.48 -1.06035 -3.31137 0
M  V30 32295 H 3020.8 -1.90234 -3.51641 0
M  V30 32296 H 3022.24 -1.04857 -4.1083 0
M  V30 32297 C 3020.7 0.23598 -3.36073 0
M  V30 32298 O 3021.23 1.23346 -3.82294 0
M  V30 32299 N 3019.44 0.273057 -2.89314 0
M  V30 32300 H 3018.98 -0.539255 -2.51892 0
M  V30 32301 H 3018.94 1.14015 -2.92998 0
M  V30 32302 N 3022.71 1.03306 -1.19019 0
M  V30 32303 C 3023.96 1.77022 -1.00174 0
M  V30 32304 C 3024.32 1.86745 0.463029 0
M  V30 32305 O 3023.61 1.37011 1.33935 0
M  V30 32306 C 3023.8 3.19619 -1.59932 0
M  V30 32307 C 3023.63 3.23796 -3.12067 0
M  V30 32308 C 3022.4 3.31986 -3.80938 0
M  V30 32309 C 3024.6 3.11183 -4.09475 0
M  V30 32310 N 3022.58 3.25493 -5.20507 0
M  V30 32311 C 3023.95 3.12275 -5.35616 0
M  V30 32312 C 3026.01 2.9528 -4.00892 0
M  V30 32313 C 3024.71 2.99098 -6.54166 0
M  V30 32314 C 3026.74 2.8345 -5.19047 0
M  V30 32315 C 3026.1 2.85194 -6.44084 0
M  V30 32316 H 3022.2 0.659228 -0.420645 0
M  V30 32317 H 3024.78 1.23007 -1.50922 0
M  V30 32318 H 3022.95 3.71964 -1.11791 0
M  V30 32319 H 3024.68 3.81674 -1.34563 0
M  V30 32320 H 3021.44 3.38033 -3.31708 0
M  V30 32321 H 3021.86 3.25665 -5.93525 0
M  V30 32322 H 3026.51 2.92756 -3.05047 0
M  V30 32323 H 3024.22 3.00372 -7.50201 0
M  V30 32324 H 3027.81 2.72188 -5.14203 0
M  V30 32325 H 3026.69 2.76137 -7.33974 0
M  V30 32326 N 3024.19 0.99344 1.22346 0
M  V30 32327 C 3025.61 0.704263 1.43221 0
M  V30 32328 C 3025.81 -0.724876 1.8801 0
M  V30 32329 O 3024.86 -1.49572 2.03432 0
M  V30 32330 C 3026.18 1.71029 2.47325 0
M  V30 32331 C 3027.73 1.7258 2.61123 0
M  V30 32332 C 3028.2 2.72048 3.68448 0
M  V30 32333 N 3029.69 2.70645 3.75906 0
M  V30 32334 C 3030.43 3.44274 4.58545 0
M  V30 32335 N 3029.92 4.27504 5.45171 0
M  V30 32336 N 3031.72 3.32977 4.5286 0
M  V30 32337 H 3023.87 1.91643 0.915798 0
M  V30 32338 H 3026.13 0.826534 0.464269 0
M  V30 32339 H 3025.84 2.73299 2.21361 0
M  V30 32340 H 3025.71 1.50359 3.45936 0
M  V30 32341 H 3028.1 0.710087 2.86429 0
M  V30 32342 H 3028.18 1.9732 1.62784 0
M  V30 32343 H 3027.82 3.73769 3.43888 0
M  V30 32344 H 3027.75 2.44578 4.66357 0
M  V30 32345 H 3030.24 2.10252 3.1401 0
M  V30 32346 H 3030.56 4.8051 6.05252 0
M  V30 32347 H 3028.9 4.31591 5.44751 0
M  V30 32348 H 3032.09 2.67396 3.8421 0
M  V30 32349 H 3032.26 3.90617 5.17032 0
M  V30 32350 N 3025.67 -1.37693 0.766707 0
M  V30 32351 C 3026.92 -1.99419 0.3281 0
M  V30 32352 C 3027.24 -1.61168 -1.09772 0
M  V30 32353 O 3026.51 -0.874717 -1.75287 0
M  V30 32354 H 3025.09 -0.737569 0.118323 0
M  V30 32355 H 3027.75 -1.68253 0.983715 0
M  V30 32356 H 3026.85 -3.09504 0.401701 0
M  V30 32357 N 3027.15 -0.516835 -1.48884 0
M  V30 32358 C 3028.4 0.0220246 -2.02488 0
M  V30 32359 C 3028.72 1.35521 -1.39515 0
M  V30 32360 O 3027.98 1.88509 -0.525613 0
M  V30 32361 C 3028.28 0.206735 -3.56802 0
M  V30 32362 C 3027.94 -1.05043 -4.38494 0
M  V30 32363 C 3026.61 -1.395 -4.60536 0
M  V30 32364 C 3028.96 -1.88534 -4.85906 0
M  V30 32365 C 3026.29 -2.5737 -5.27236 0
M  V30 32366 C 3028.64 -3.05571 -5.53903 0
M  V30 32367 C 3027.3 -3.4039 -5.74187 0
M  V30 32368 H 3026.57 0.00805936 -0.740956 0
M  V30 32369 H 3029.22 -0.6802 -1.79013 0
M  V30 32370 H 3027.52 0.99162 -3.79044 0
M  V30 32371 H 3029.22 0.638377 -3.95886 0
M  V30 32372 H 3025.81 -0.772058 -4.21589 0
M  V30 32373 H 3029.99 -1.63226 -4.68691 0
M  V30 32374 H 3025.25 -2.84566 -5.4114 0
M  V30 32375 H 3029.42 -3.70581 -5.89612 0
M  V30 32376 H 3027.05 -4.31825 -6.25645 0
M  V30 32377 N 3028.63 1.55583 -0.251365 0
M  V30 32378 C 3029.85 2.03906 0.3791 0
M  V30 32379 C 3030.28 1.12931 1.50426 0
M  V30 32380 O 3029.63 0.123146 1.80881 0
M  V30 32381 C 3029.68 3.50194 0.860028 0
M  V30 32382 O 3028.79 3.62345 1.96926 0
M  V30 32383 H 3028.13 0.658916 0.0820067 0
M  V30 32384 H 3030.66 2.01064 -0.378727 0
M  V30 32385 H 3030.67 3.91101 1.16207 0
M  V30 32386 H 3029.34 4.15884 0.0366828 0
M  V30 32387 H 3027.92 3.33336 1.67157 0
M  V30 32388 N 3030.1 -0.0216912 1.57585 0
M  V30 32389 C 3031.35 -0.709608 1.89233 0
M  V30 32390 C 3031.67 -1.755 0.849995 0
M  V30 32391 O 3030.94 -1.9556 -0.115451 0
M  V30 32392 H 3029.52 -0.26508 0.698385 0
M  V30 32393 H 3032.19 0.0141031 1.94895 0
M  V30 32394 H 3031.28 -1.19454 2.88335 0
M  V30 32395 N 3031.58 -1.54832 -0.294093 0
M  V30 32396 C 3032.83 -1.74096 -1.0264 0
M  V30 32397 C 3033.15 -0.533435 -1.87562 0
M  V30 32398 O 3032.42 0.452159 -1.9061 0
M  V30 32399 H 3031 -0.641969 -0.381948 0
M  V30 32400 H 3033.66 -1.92198 -0.32341 0
M  V30 32401 H 3032.76 -2.6331 -1.67553 0
M  V30 32402 N 3033.06 0.557619 -1.47405 0
M  V30 32403 C 3033.99 1.68034 -1.54402 0
M  V30 32404 C 3034.97 1.57699 -0.396203 0
M  V30 32405 O 3036.16 1.78563 -0.603942 0
M  V30 32406 C 3033.28 3.06274 -1.44617 0
M  V30 32407 C 3032.33 3.35055 -2.63895 0
M  V30 32408 S 3033.16 3.24355 -4.26092 0
M  V30 32409 C 3034.32 4.6509 -4.18859 0
M  V30 32410 H 3034.55 1.61845 -2.49387 0
M  V30 32411 H 3032.08 0.738405 -1.35598 0
M  V30 32412 H 3034.04 3.86013 -1.39658 0
M  V30 32413 H 3032.7 3.09929 -0.510169 0
M  V30 32414 H 3031.9 4.35834 -2.53111 0
M  V30 32415 H 3031.5 2.62934 -2.65973 0
M  V30 32416 H 3033.79 5.5603 -3.87087 0
M  V30 32417 H 3034.73 4.80931 -5.19722 0
M  V30 32418 H 3035.14 4.43117 -3.49725 0
M  V30 32419 N 3034.54 1.35531 0.804316 0
M  V30 32420 C 3035.49 1.28638 1.91627 0
M  V30 32421 C 3036.46 0.157891 1.65348 0
M  V30 32422 O 3037.64 0.341967 1.8771 0
M  V30 32423 C 3034.78 1.06656 3.28205 0
M  V30 32424 C 3033.89 2.28447 3.66655 0
M  V30 32425 C 3033.03 1.99596 4.92275 0
M  V30 32426 C 3032.07 3.17429 5.23359 0
M  V30 32427 N 3031.21 2.8834 6.4016 0
M  V30 32428 H 3036.05 2.23724 1.96854 0
M  V30 32429 H 3033.58 1.1121 0.962852 0
M  V30 32430 H 3035.54 0.919415 4.06943 0
M  V30 32431 H 3034.17 0.15231 3.2244 0
M  V30 32432 H 3033.22 2.54018 2.83159 0
M  V30 32433 H 3034.53 3.16427 3.85585 0
M  V30 32434 H 3033.69 1.81726 5.78844 0
M  V30 32435 H 3032.43 1.08905 4.75385 0
M  V30 32436 H 3031.43 3.35875 4.35279 0
M  V30 32437 H 3032.66 4.08926 5.42178 0
M  V30 32438 H 3030.6 2.00244 6.24691 0
M  V30 32439 H 3030.52 3.69854 6.59351 0
M  V30 32440 H 3031.79 2.74015 7.29751 0
M  V30 32441 N 3036.02 -1.02674 1.19565 0
M  V30 32442 C 3037.29 -1.73201 0.908887 0
M  V30 32443 C 3037.67 -2.02835 -0.584892 0
M  V30 32444 O 3037.02 -1.68471 -1.54369 0
M  V30 32445 C 3037.23 -3.00721 1.77111 0
M  V30 32446 C 3038.58 -3.74186 2.00673 0
M  V30 32447 O 3039.6 -3.10653 1.7428 0
M  V30 32448 O 3038.46 -4.8841 2.45189 0
M  V30 32449 H 3035.56 -0.754361 0.338922 0
M  V30 32450 H 3038.1 -1.08613 1.30389 0
M  V30 32451 H 3036.88 -2.75065 2.78307 0
M  V30 32452 H 3036.5 -3.73048 1.37552 0
M  V30 32453 N 3037.5 -0.999914 -1.21817 0
M  V30 32454 C 3038.43 -0.500926 -2.22634 0
M  V30 32455 C 3039.41 0.442609 -1.5646 0
M  V30 32456 O 3040.59 0.366518 -1.84902 0
M  V30 32457 C 3037.72 0.272987 -3.37598 0
M  V30 32458 C 3036.76 -0.617586 -4.22005 0
M  V30 32459 S 3037.6 -2.07702 -4.93579 0
M  V30 32460 C 3038.75 -1.31279 -6.11978 0
M  V30 32461 H 3038.99 -1.35521 -2.64616 0
M  V30 32462 H 3036.52 -0.807442 -1.31604 0
M  V30 32463 H 3038.48 0.713444 -4.04253 0
M  V30 32464 H 3037.14 1.10263 -2.9411 0
M  V30 32465 H 3036.33 -0.0217429 -5.03995 0
M  V30 32466 H 3035.93 -0.995103 -3.60519 0
M  V30 32467 H 3038.22 -0.584052 -6.74978 0
M  V30 32468 H 3039.17 -2.10823 -6.75988 0
M  V30 32469 H 3039.58 -0.822999 -5.58468 0
M  V30 32470 N 3038.97 1.37284 -0.773999 0
M  V30 32471 C 3040.2 2.03609 -0.350285 0
M  V30 32472 C 3040.61 1.58504 1.03311 0
M  V30 32473 O 3039.95 0.762729 1.67117 0
M  V30 32474 C 3040.02 3.58097 -0.317278 0
M  V30 32475 C 3039.68 4.26342 -1.64564 0
M  V30 32476 C 3040.68 4.50306 -2.59847 0
M  V30 32477 C 3038.36 4.64128 -1.92069 0
M  V30 32478 C 3040.36 5.11115 -3.80842 0
M  V30 32479 C 3038.04 5.24657 -3.13334 0
M  V30 32480 C 3039.04 5.48088 -4.07539 0
M  V30 32481 O 3038.73 6.07351 -5.26669 0
M  V30 32482 H 3038.46 0.660383 -0.144467 0
M  V30 32483 H 3041.02 1.76556 -1.04963 0
M  V30 32484 H 3039.25 3.84206 0.438461 0
M  V30 32485 H 3040.93 4.05822 0.0796714 0
M  V30 32486 H 3041.7 4.21525 -2.39879 0
M  V30 32487 H 3037.58 4.45224 -1.1957 0
M  V30 32488 H 3041.12 5.29319 -4.54386 0
M  V30 32489 H 3037.02 5.52863 -3.33186 0
M  V30 32490 H 3037.79 6.25828 -5.27524 0
M  V30 32491 N 3040.45 0.524724 1.48608 0
M  V30 32492 C 3041.73 -0.0754306 1.95455 0
M  V30 32493 C 3042.11 -1.51812 1.46685 0
M  V30 32494 O 3041.46 -2.17801 0.691013 0
M  V30 32495 C 3041.67 0.0363886 3.48981 0
M  V30 32496 C 3043.01 -0.12555 4.24414 0
M  V30 32497 O 3044.04 -0.0376613 3.5618 0
M  V30 32498 O 3042.9 -0.309008 5.45626 0
M  V30 32499 H 3039.99 -0.0822111 0.822904 0
M  V30 32500 H 3042.54 0.588949 1.59152 0
M  V30 32501 H 3041.31 1.04156 3.77183 0
M  V30 32502 H 3040.93 -0.667077 3.91964 0
M  V30 32503 N 3041.93 -1.55447 0.259613 0
M  V30 32504 C 3042.86 -2.19265 -0.667509 0
M  V30 32505 C 3043.87 -1.1727 -1.12923 0
M  V30 32506 O 3045.06 -1.44073 -1.05381 0
M  V30 32507 C 3042.16 -2.79224 -1.92061 0
M  V30 32508 C 3041.34 -4.06761 -1.60825 0
M  V30 32509 C 3040.4 -4.50915 -2.71223 0
M  V30 32510 O 3039.42 -5.17023 -2.38067 0
M  V30 32511 N 3040.62 -4.19759 -4.00977 0
M  V30 32512 H 3043.39 -2.99454 -0.121396 0
M  V30 32513 H 3040.95 -1.61702 0.0800804 0
M  V30 32514 H 3042.94 -3.05714 -2.65181 0
M  V30 32515 H 3041.51 -2.03118 -2.37617 0
M  V30 32516 H 3040.73 -3.87724 -0.711617 0
M  V30 32517 H 3042.02 -4.89886 -1.37437 0
M  V30 32518 H 3041.42 -3.66713 -4.30741 0
M  V30 32519 H 3039.97 -4.51057 -4.70522 0
M  V30 32520 N 3043.41 0.0133338 -1.57594 0
M  V30 32521 C 3044.65 0.701985 -1.90263 0
M  V30 32522 C 3044.99 1.74157 -0.85925 0
M  V30 32523 O 3044.26 1.94106 0.123743 0
M  V30 32524 C 3044.54 1.35726 -3.33542 0
M  V30 32525 C 3044.4 0.330129 -4.48587 0
M  V30 32526 C 3045.72 2.28705 -3.76008 0
M  V30 32527 H 3042.84 0.253727 -0.691948 0
M  V30 32528 H 3045.48 -0.0352228 -1.89967 0
M  V30 32529 H 3043.63 1.98561 -3.33925 0
M  V30 32530 H 3045.3 -0.297514 -4.6034 0
M  V30 32531 H 3043.54 -0.349002 -4.32394 0
M  V30 32532 H 3044.21 0.827412 -5.45764 0
M  V30 32533 H 3046.69 1.759 -3.77092 0
M  V30 32534 H 3045.57 2.71527 -4.77037 0
M  V30 32535 H 3045.83 3.16051 -3.09135 0
M  V30 32536 N 3044.89 1.54985 0.285878 0
M  V30 32537 C 3045.82 1.89986 1.35749 0
M  V30 32538 C 3046.8 0.760321 1.52162 0
M  V30 32539 O 3047.98 1.01736 1.65419 0
M  V30 32540 C 3045.11 2.16047 2.71921 0
M  V30 32541 C 3044.07 3.31883 2.70255 0
M  V30 32542 C 3043.39 3.43395 4.09858 0
M  V30 32543 C 3044.69 4.68609 2.30659 0
M  V30 32544 H 3046.39 2.7974 1.06704 0
M  V30 32545 H 3043.93 1.34596 0.51186 0
M  V30 32546 H 3045.88 2.39119 3.46987 0
M  V30 32547 H 3044.61 1.23079 3.02521 0
M  V30 32548 H 3043.27 3.08759 1.97645 0
M  V30 32549 H 3042.92 2.47917 4.3766 0
M  V30 32550 H 3042.62 4.21269 4.09641 0
M  V30 32551 H 3044.14 3.68745 4.86682 0
M  V30 32552 H 3045.55 4.9131 2.95444 0
M  V30 32553 H 3043.95 5.49305 2.41627 0
M  V30 32554 H 3045.02 4.68301 1.25785 0
M  V30 32555 N 3046.36 -0.549794 1.47699 0
M  V30 32556 C 3047.31 -1.65622 1.60742 0
M  V30 32557 C 3048.28 -1.59884 0.450158 0
M  V30 32558 O 3049.47 -1.78606 0.671154 0
M  V30 32559 C 3046.61 -3.03931 1.63462 0
M  V30 32560 C 3045.72 -3.20051 2.90158 0
M  V30 32561 C 3044.85 -4.48802 2.84165 0
M  V30 32562 C 3043.89 -4.5838 4.05652 0
M  V30 32563 N 3043.03 -5.78496 3.97853 0
M  V30 32564 H 3047.87 -1.53812 2.55237 0
M  V30 32565 H 3045.41 -0.749151 1.26594 0
M  V30 32566 H 3047.37 -3.84031 1.63022 0
M  V30 32567 H 3046 -3.14559 0.724744 0
M  V30 32568 H 3045.05 -2.33334 3.00432 0
M  V30 32569 H 3046.36 -3.22992 3.80103 0
M  V30 32570 H 3045.51 -5.37171 2.82015 0
M  V30 32571 H 3044.25 -4.48352 1.91916 0
M  V30 32572 H 3043.26 -3.68423 4.08099 0
M  V30 32573 H 3044.48 -4.60584 4.99038 0
M  V30 32574 H 3042.43 -5.78981 3.08411 0
M  V30 32575 H 3042.35 -5.82846 4.81483 0
M  V30 32576 H 3043.61 -6.69205 3.99731 0
M  V30 32577 N 3047.84 -1.35955 -0.797117 0
M  V30 32578 C 3049.09 -1.29757 -1.55465 0
M  V30 32579 C 3049.42 0.125356 -1.94096 0
M  V30 32580 O 3048.67 1.09285 -1.62343 0
M  V30 32581 C 3048.97 -2.15868 -2.84843 0
M  V30 32582 C 3048.64 -3.64528 -2.65387 0
M  V30 32583 C 3047.3 -4.05047 -2.59789 0
M  V30 32584 C 3049.65 -4.58815 -2.47262 0
M  V30 32585 C 3046.98 -5.38007 -2.34021 0
M  V30 32586 C 3049.33 -5.91983 -2.23021 0
M  V30 32587 C 3048 -6.31636 -2.15851 0
M  V30 32588 H 3047.27 -0.474813 -0.568888 0
M  V30 32589 H 3049.91 -1.67938 -0.92027 0
M  V30 32590 H 3048.22 -1.70598 -3.52709 0
M  V30 32591 H 3049.91 -2.08401 -3.42593 0
M  V30 32592 H 3046.5 -3.32379 -2.70596 0
M  V30 32593 H 3050.69 -4.28389 -2.50593 0
M  V30 32594 H 3045.94 -5.67719 -2.26946 0
M  V30 32595 H 3050.12 -6.64615 -2.07989 0
M  V30 32596 H 3047.75 -7.34593 -1.95647 0
M  V30 32597 N 3049.32 1.02038 -1.20108 0
M  V30 32598 C 3050.57 1.75229 -1.00693 0
M  V30 32599 C 3050.89 1.89437 0.462457 0
M  V30 32600 O 3050.16 1.43413 1.33453 0
M  V30 32601 H 3048.74 0.649164 -0.369587 0
M  V30 32602 H 3051.4 1.23041 -1.51152 0
M  V30 32603 H 3050.5 2.75734 -1.4621 0
M  V30 32604 N 3050.8 1.00636 1.21285 0
M  V30 32605 C 3051.76 0.57286 2.21926 0
M  V30 32606 C 3052.76 -0.351514 1.56911 0
M  V30 32607 O 3053.95 -0.141612 1.73623 0
M  V30 32608 C 3051.08 -0.164872 3.40501 0
M  V30 32609 H 3052.28 1.46304 2.61792 0
M  V30 32610 H 3049.83 0.795022 1.3457 0
M  V30 32611 H 3050.56 -1.07043 3.06125 0
M  V30 32612 H 3050.35 0.49903 3.88911 0
M  V30 32613 H 3051.84 -0.455872 4.15104 0
M  V30 32614 N 3052.28 -1.36872 0.781268 0
M  V30 32615 C 3053.51 -2.0342 0.361078 0
M  V30 32616 C 3053.91 -1.5905 -1.02469 0
M  V30 32617 O 3053.26 -0.771581 -1.6671 0
M  V30 32618 C 3053.32 -3.57924 0.336265 0
M  V30 32619 C 3052.98 -4.25464 1.66822 0
M  V30 32620 C 3053.98 -4.48922 2.62232 0
M  V30 32621 C 3051.67 -4.63103 1.94528 0
M  V30 32622 C 3053.66 -5.09088 3.83547 0
M  V30 32623 C 3051.35 -5.22988 3.16112 0
M  V30 32624 C 3052.34 -5.45919 4.1044 0
M  V30 32625 O 3052.03 -6.0455 5.29882 0
M  V30 32626 H 3051.76 -0.659607 0.147968 0
M  V30 32627 H 3054.32 -1.75996 1.05898 0
M  V30 32628 H 3052.55 -3.84433 -0.418079 0
M  V30 32629 H 3054.24 -4.05858 -0.0581486 0
M  V30 32630 H 3055 -4.20246 2.42111 0
M  V30 32631 H 3050.88 -4.44583 1.21929 0
M  V30 32632 H 3054.43 -5.26902 4.57187 0
M  V30 32633 H 3050.32 -5.51088 3.36114 0
M  V30 32634 H 3051.09 -6.23022 5.30836 0
M  V30 32635 N 3053.75 -0.532597 -1.48328 0
M  V30 32636 C 3055 0.0025616 -2.017 0
M  V30 32637 C 3055.32 1.35075 -1.41472 0
M  V30 32638 O 3056.52 1.97442 -1.86357 0
M  V30 32639 C 3054.98 0.0549546 -3.59858 0
M  V30 32640 C 3054.59 -1.28849 -4.29071 0
M  V30 32641 C 3056.33 0.538804 -4.21067 0
M  V30 32642 C 3054.24 -1.19654 -5.79169 0
M  V30 32643 H 3053.17 0.00472755 -0.753985 0
M  V30 32644 H 3055.82 -0.676769 -1.70564 0
M  V30 32645 H 3054.2 0.799417 -3.87847 0
M  V30 32646 H 3055.37 -2.04873 -4.12752 0
M  V30 32647 H 3053.69 -1.70829 -3.79745 0
M  V30 32648 H 3056.29 0.625607 -5.31028 0
M  V30 32649 H 3056.63 1.54519 -3.86561 0
M  V30 32650 H 3057.16 -0.150054 -3.97517 0
M  V30 32651 H 3053.9 -2.17816 -6.18253 0
M  V30 32652 H 3053.42 -0.477714 -5.97895 0
M  V30 32653 H 3055.1 -0.888298 -6.40873 0
M  V30 32654 N 3055.23 1.55307 -0.267853 0
M  V30 32655 C 3056.48 1.9973 0.351521 0
M  V30 32656 C 3056.81 1.15598 1.56047 0
M  V30 32657 O 3056.09 0.224308 1.93202 0
M  V30 32658 C 3056.37 3.52397 0.740848 0
M  V30 32659 C 3056.22 4.47286 -0.47494 0
M  V30 32660 C 3057.54 4.10759 1.58003 0
M  V30 32661 H 3054.66 0.726098 0.126295 0
M  V30 32662 H 3057.3 1.86296 -0.373349 0
M  V30 32663 H 3055.45 3.63976 1.35845 0
M  V30 32664 H 3057.12 4.4766 -1.11348 0
M  V30 32665 H 3055.37 4.19244 -1.11432 0
M  V30 32666 H 3056.04 5.51771 -0.158879 0
M  V30 32667 H 3058.51 4.02411 1.0585 0
M  V30 32668 H 3057.39 5.17804 1.82126 0
M  V30 32669 H 3057.65 3.6053 2.55872 0
M  V30 32670 N 3056.71 -0.00497598 1.57599 0
M  V30 32671 C 3057.99 -0.727622 1.81563 0
M  V30 32672 C 3058.37 -1.92265 0.871638 0
M  V30 32673 O 3057.72 -2.28357 -0.0807831 0
M  V30 32674 C 3057.93 -1.13803 3.29924 0
M  V30 32675 C 3059.27 -1.54396 3.95534 0
M  V30 32676 O 3060.3 -1.23196 3.34217 0
M  V30 32677 O 3059.16 -2.12393 5.03539 0
M  V30 32678 H 3056.25 -0.353865 0.747468 0
M  V30 32679 H 3058.8 0.0200965 1.69688 0
M  V30 32680 H 3057.57 -0.286009 3.90253 0
M  V30 32681 H 3057.19 -1.94501 3.46778 0
M  V30 32682 N 3058.19 -1.55135 -0.277654 0
M  V30 32683 C 3059.44 -1.75175 -1.00788 0
M  V30 32684 C 3059.76 -0.553299 -1.86986 0
M  V30 32685 O 3059.03 0.431917 -1.91079 0
M  V30 32686 H 3057.61 -0.645984 -0.375118 0
M  V30 32687 H 3060.27 -1.9253 -0.303007 0
M  V30 32688 H 3059.37 -2.65073 -1.64751 0
M  V30 32689 N 3059.67 0.541953 -1.47989 0
M  V30 32690 C 3060.6 1.6571 -1.64506 0
M  V30 32691 C 3061.58 1.62764 -0.494144 0
M  V30 32692 O 3062.76 1.80148 -0.725287 0
M  V30 32693 C 3059.89 3.04325 -1.67343 0
M  V30 32694 C 3058.85 3.22125 -2.81815 0
M  V30 32695 C 3058.17 4.6168 -2.69733 0
M  V30 32696 C 3059.47 3.06039 -4.23247 0
M  V30 32697 H 3061.17 1.52142 -2.57862 0
M  V30 32698 H 3058.71 0.730507 -1.24095 0
M  V30 32699 H 3060.67 3.82199 -1.77487 0
M  V30 32700 H 3059.39 3.18888 -0.70557 0
M  V30 32701 H 3058.05 2.46664 -2.71205 0
M  V30 32702 H 3057.7 4.73062 -1.70942 0
M  V30 32703 H 3057.4 4.74537 -3.46538 0
M  V30 32704 H 3058.92 5.41669 -2.81828 0
M  V30 32705 H 3060.33 3.73716 -4.34752 0
M  V30 32706 H 3058.73 3.30396 -5.00958 0
M  V30 32707 H 3059.8 2.02601 -4.40546 0
M  V30 32708 N 3061.15 1.36376 0.789896 0
M  V30 32709 C 3062.56 1.16779 1.08788 0
M  V30 32710 C 3062.76 -0.00844695 2.01498 0
M  V30 32711 O 3061.82 -0.673964 2.43339 0
M  V30 32712 C 3063.13 2.4784 1.70281 0
M  V30 32713 C 3064.68 2.54199 1.82624 0
M  V30 32714 C 3065.15 3.85346 2.47532 0
M  V30 32715 N 3066.64 3.86689 2.55001 0
M  V30 32716 C 3067.38 4.84904 3.06033 0
M  V30 32717 N 3066.88 5.93511 3.57374 0
M  V30 32718 N 3068.67 4.72324 3.0474 0
M  V30 32719 H 3060.82 2.11687 0.173948 0
M  V30 32720 H 3063.08 0.937638 0.139781 0
M  V30 32721 H 3062.79 3.34178 1.09627 0
M  V30 32722 H 3062.66 2.63611 2.69794 0
M  V30 32723 H 3065.05 1.6828 2.42417 0
M  V30 32724 H 3065.13 2.42328 0.819187 0
M  V30 32725 H 3064.77 4.71671 1.88385 0
M  V30 32726 H 3064.7 3.94513 3.48808 0
M  V30 32727 H 3067.2 3.08225 2.18646 0
M  V30 32728 H 3067.51 6.64426 3.94662 0
M  V30 32729 H 3065.85 5.97181 3.55528 0
M  V30 32730 H 3069.04 3.86607 2.63918 0
M  V30 32731 H 3069.22 5.49025 3.44202 0
M  V30 32732 N 3062.62 -1.014 1.20647 0
M  V30 32733 C 3063.53 -2.13452 0.973422 0
M  V30 32734 C 3064.55 -1.73853 -0.071556 0
M  V30 32735 O 3065.73 -2.01063 0.116474 0
M  V30 32736 C 3062.79 -3.42604 0.531345 0
M  V30 32737 C 3061.85 -3.9643 1.64748 0
M  V30 32738 C 3061.08 -5.19418 1.2264 0
M  V30 32739 O 3061.31 -5.70319 0.0961893 0
M  V30 32740 O 3060.24 -5.66461 2.03484 0
M  V30 32741 H 3064.07 -2.35984 1.91168 0
M  V30 32742 H 3061.65 -1.11839 0.990573 0
M  V30 32743 H 3063.53 -4.20372 0.294169 0
M  V30 32744 H 3062.21 -3.21482 -0.378302 0
M  V30 32745 H 3061.12 -3.19929 1.93897 0
M  V30 32746 H 3062.45 -4.21945 2.53423 0
M  V30 32747 N 3064.1 -1.01278 -1.2075 0
M  V30 32748 C 3065.34 -0.708406 -1.91732 0
M  V30 32749 C 3065.71 0.747824 -1.76838 0
M  V30 32750 O 3066.91 1.16454 -2.42264 0
M  V30 32751 C 3065.18 -1.12738 -3.39153 0
M  V30 32752 S 3066.74 -0.9444 -4.28517 0
M  V30 32753 H 3063.55 -0.258381 -0.66239 0
M  V30 32754 H 3066.16 -1.29924 -1.46082 0
M  V30 32755 H 3064.86 -2.18319 -3.47513 0
M  V30 32756 H 3064.39 -0.529169 -3.89825 0
M  V30 32757 H 3066.41 0.154191 -4.9596 0
M  V30 32758 N 3065.58 1.36456 -0.788516 0
M  V30 32759 C 3066.82 2.01098 -0.36589 0
M  V30 32760 C 3067.18 1.61227 1.04259 0
M  V30 32761 O 3068.38 2.18454 1.56625 0
M  V30 32762 C 3066.66 3.53547 -0.523406 0
M  V30 32763 S 3068.21 4.38395 -0.188525 0
M  V30 32764 H 3065.03 0.697112 -0.139844 0
M  V30 32765 H 3067.63 1.66364 -1.02681 0
M  V30 32766 H 3066.34 3.80053 -1.54881 0
M  V30 32767 H 3065.87 3.93101 0.153478 0
M  V30 32768 H 3067.88 4.85808 1.01021 0
M  V30 32769 N 3067.06 0.540456 1.48043 0
M  V30 32770 C 3067.99 -0.253814 2.2779 0
M  V30 32771 C 3069 -0.894859 1.36 0
M  V30 32772 O 3070.19 -0.771535 1.60965 0
M  V30 32773 C 3067.29 -1.37561 3.09726 0
M  V30 32774 C 3066.46 -0.834515 4.29365 0
M  V30 32775 C 3065.52 -1.83872 4.93029 0
M  V30 32776 O 3064.55 -1.39149 5.5193 0
M  V30 32777 N 3065.75 -3.1714 4.86212 0
M  V30 32778 H 3068.52 0.430177 2.96597 0
M  V30 32779 H 3066.08 0.37545 1.57486 0
M  V30 32780 H 3068.07 -2.04578 3.49185 0
M  V30 32781 H 3066.64 -1.96309 2.43272 0
M  V30 32782 H 3065.86 0.0119571 3.94198 0
M  V30 32783 H 3067.15 -0.452066 5.06788 0
M  V30 32784 H 3066.55 -3.56133 4.39529 0
M  V30 32785 H 3065.1 -3.79761 5.2974 0
M  V30 32786 N 3068.54 -1.55163 0.276085 0
M  V30 32787 C 3069.95 -1.85382 -0.221483 0
M  V30 32788 C 3070.3 -1.1981 -1.5537 0
M  V30 32789 O 3069.42 -0.48678 -2.10854 0
M  V30 32790 C 3070.02 -3.36327 -0.408647 0
M  V30 32791 C 3068.58 -3.66667 -0.850447 0
M  V30 32792 C 3067.72 -2.77244 0.0557047 0
M  V30 32793 H 3070.67 -1.50689 0.497845 0
M  V30 32794 H 3070.7 -3.59484 -1.24705 0
M  V30 32795 H 3070.21 -3.84022 0.561119 0
M  V30 32796 H 3068.31 -3.24471 -1.83165 0
M  V30 32797 H 3068.42 -4.74147 -0.687097 0
M  V30 32798 H 3066.79 -2.50497 -0.460775 0
M  V30 32799 H 3067.57 -3.27754 1.02137 0
M  V30 32800 N 3070.01 -0.00338196 -1.576 0
M  V30 32801 C 3071.26 0.681766 -1.90997 0
M  V30 32802 C 3071.59 1.73235 -0.877673 0
M  V30 32803 O 3070.87 1.94226 0.103149 0
M  V30 32804 C 3071.15 1.32181 -3.34963 0
M  V30 32805 C 3071 0.282532 -4.48912 0
M  V30 32806 C 3072.32 2.24704 -3.78412 0
M  V30 32807 H 3069.44 0.246373 -0.6946 0
M  V30 32808 H 3072.08 -0.0553694 -1.89919 0
M  V30 32809 H 3070.23 1.95008 -3.36012 0
M  V30 32810 H 3071.91 -0.346322 -4.59998 0
M  V30 32811 H 3070.15 -0.394844 -4.31999 0
M  V30 32812 H 3070.82 0.76948 -5.4661 0
M  V30 32813 H 3073.3 1.7189 -3.78937 0
M  V30 32814 H 3072.17 2.66452 -4.7989 0
M  V30 32815 H 3072.43 3.12754 -3.12469 0
M  V30 32816 N 3071.49 1.5528 0.269423 0
M  V30 32817 C 3072.42 1.91415 1.33726 0
M  V30 32818 C 3073.4 0.776417 1.51347 0
M  V30 32819 O 3074.59 1.03485 1.6433 0
M  V30 32820 C 3071.72 2.18919 2.69614 0
M  V30 32821 C 3070.67 3.34731 2.6672 0
M  V30 32822 C 3070 3.47723 4.06193 0
M  V30 32823 C 3071.3 4.71029 2.25675 0
M  V30 32824 H 3072.99 2.80856 1.03731 0
M  V30 32825 H 3070.54 1.35131 0.497555 0
M  V30 32826 H 3072.49 2.42786 3.44432 0
M  V30 32827 H 3071.21 1.26281 3.01199 0
M  V30 32828 H 3069.87 3.10838 1.94359 0
M  V30 32829 H 3069.52 2.52545 4.35006 0
M  V30 32830 H 3069.22 4.25591 4.0515 0
M  V30 32831 H 3070.75 3.73886 4.82744 0
M  V30 32832 H 3072.16 4.94416 2.90217 0
M  V30 32833 H 3070.56 5.51837 2.35787 0
M  V30 32834 H 3071.63 4.69609 1.20811 0
M  V30 32835 N 3072.97 -0.534097 1.48274 0
M  V30 32836 C 3074.22 -1.29206 1.56313 0
M  V30 32837 C 3074.55 -1.92779 0.234515 0
M  V30 32838 O 3073.82 -1.79075 -0.759111 0
M  V30 32839 C 3074.11 -2.38456 2.69835 0
M  V30 32840 C 3073.96 -1.796 4.12388 0
M  V30 32841 C 3075.28 -3.40249 2.79139 0
M  V30 32842 H 3072.4 -0.468412 0.568998 0
M  V30 32843 H 3075.04 -0.595406 1.8043 0
M  V30 32844 H 3073.19 -2.97877 2.49402 0
M  V30 32845 H 3074.86 -1.24262 4.44249 0
M  V30 32846 H 3073.1 -1.10155 4.19581 0
M  V30 32847 H 3073.78 -2.58685 4.87633 0
M  V30 32848 H 3076.25 -2.90777 2.97637 0
M  V30 32849 H 3075.13 -4.14091 3.60305 0
M  V30 32850 H 3075.39 -4.00544 1.87129 0
M  V30 32851 N 3074.45 -1.36793 -0.782652 0
M  V30 32852 C 3075.68 -1.34373 -1.56932 0
M  V30 32853 C 3076.09 0.0754496 -1.8905 0
M  V30 32854 O 3075.43 1.04465 -1.51105 0
M  V30 32855 C 3075.49 -2.10666 -2.91307 0
M  V30 32856 C 3075.15 -3.5971 -2.81883 0
M  V30 32857 C 3076.15 -4.5382 -2.5366 0
M  V30 32858 C 3073.84 -4.02687 -3.00247 0
M  V30 32859 C 3075.83 -5.88884 -2.43914 0
M  V30 32860 C 3073.52 -5.3784 -2.90122 0
M  V30 32861 C 3074.52 -6.30752 -2.61995 0
M  V30 32862 O 3074.2 -7.63422 -2.51876 0
M  V30 32863 H 3073.94 -0.462324 -0.493186 0
M  V30 32864 H 3076.49 -1.80581 -0.978759 0
M  V30 32865 H 3074.72 -1.59131 -3.5244 0
M  V30 32866 H 3076.41 -2.01018 -3.52628 0
M  V30 32867 H 3077.17 -4.21928 -2.39169 0
M  V30 32868 H 3073.05 -3.30737 -3.21145 0
M  V30 32869 H 3076.6 -6.61373 -2.2188 0
M  V30 32870 H 3072.49 -5.69338 -3.04179 0
M  V30 32871 H 3073.26 -7.73621 -2.67307 0
M  V30 32872 N 3075.93 1.00759 -1.21184 0
M  V30 32873 C 3077.18 1.73909 -1.02169 0
M  V30 32874 C 3077.49 1.90457 0.445605 0
M  V30 32875 O 3078.69 2.60789 0.755086 0
M  V30 32876 C 3077.15 3.12833 -1.77942 0
M  V30 32877 C 3076.76 3.04267 -3.28824 0
M  V30 32878 C 3078.5 3.90131 -1.67326 0
M  V30 32879 C 3076.41 4.38255 -3.97097 0
M  V30 32880 H 3075.34 0.652013 -0.378676 0
M  V30 32881 H 3077.99 1.12598 -1.44893 0
M  V30 32882 H 3076.37 3.74739 -1.28009 0
M  V30 32883 H 3077.55 2.51615 -3.8604 0
M  V30 32884 H 3075.86 2.40459 -3.39953 0
M  V30 32885 H 3078.46 4.89277 -2.15668 0
M  V30 32886 H 3078.8 4.1149 -0.631032 0
M  V30 32887 H 3079.33 3.34872 -2.14722 0
M  V30 32888 H 3076.07 4.22099 -5.01511 0
M  V30 32889 H 3075.59 4.90879 -3.44671 0
M  V30 32890 H 3077.27 5.07065 -4.01863 0
M  V30 32891 N 3077.4 1.01917 1.20211 0
M  V30 32892 C 3078.82 0.741161 1.71358 0
M  V30 32893 C 3079.17 -0.740076 1.81707 0
M  V30 32894 O 3078.29 -1.57743 1.48142 0
M  V30 32895 C 3078.89 1.33875 3.11228 0
M  V30 32896 C 3077.45 1.10955 3.59675 0
M  V30 32897 C 3076.59 1.44284 2.36807 0
M  V30 32898 H 3079.54 1.18832 1.05189 0
M  V30 32899 H 3079.56 0.73065 3.73419 0
M  V30 32900 H 3079.08 2.41681 3.03664 0
M  V30 32901 H 3077.18 0.0492707 3.72567 0
M  V30 32902 H 3077.29 1.79141 4.44348 0
M  V30 32903 H 3075.65 0.861924 2.39673 0
M  V30 32904 H 3076.44 2.53152 2.31881 0
M  V30 32905 N 3078.88 -1.36036 0.795742 0
M  V30 32906 C 3080.29 -1.816 0.433411 0
M  V30 32907 C 3080.64 -1.66156 -1.04338 0
M  V30 32908 O 3079.77 -1.18606 -1.81001 0
M  V30 32909 C 3080.36 -3.29701 0.779908 0
M  V30 32910 C 3078.92 -3.7345 0.470322 0
M  V30 32911 C 3078.07 -2.58204 1.01123 0
M  V30 32912 H 3081.02 -1.24167 0.988339 0
M  V30 32913 H 3081.04 -3.80429 0.0733566 0
M  V30 32914 H 3080.55 -3.40909 1.85479 0
M  V30 32915 H 3078.66 -3.67798 -0.596267 0
M  V30 32916 H 3078.77 -4.68646 0.995358 0
M  V30 32917 H 3077.13 -2.50973 0.434121 0
M  V30 32918 H 3077.92 -2.72195 2.09201 0
M  V30 32919 N 3080.36 -0.5483 -1.47755 0
M  V30 32920 C 3081.29 0.24173 -2.27922 0
M  V30 32921 C 3082.31 0.887634 -1.36473 0
M  V30 32922 O 3083.49 0.762987 -1.61371 0
M  V30 32923 C 3080.59 1.35916 -3.10451 0
M  V30 32924 C 3079.77 0.811733 -4.29802 0
M  V30 32925 C 3078.83 1.81255 -4.93997 0
M  V30 32926 O 3077.85 1.3622 -5.5266 0
M  V30 32927 N 3079.05 3.14557 -4.87887 0
M  V30 32928 H 3081.82 -0.4459 -2.96364 0
M  V30 32929 H 3079.38 -0.383797 -1.57285 0
M  V30 32930 H 3081.37 2.02723 -3.50265 0
M  V30 32931 H 3079.94 1.95017 -2.4431 0
M  V30 32932 H 3079.16 -0.0328622 -3.94186 0
M  V30 32933 H 3080.45 0.425183 -5.0702 0
M  V30 32934 H 3079.85 3.53797 -4.41411 0
M  V30 32935 H 3078.41 3.76947 -5.31747 0
M  V30 32936 N 3081.84 1.55014 -0.28431 0
M  V30 32937 C 3082.8 2.21578 0.586143 0
M  V30 32938 C 3083.8 1.19652 1.07425 0
M  V30 32939 O 3084.99 1.44497 0.972951 0
M  V30 32940 C 3082.12 2.889 1.80968 0
M  V30 32941 H 3083.32 2.999 0.00481982 0
M  V30 32942 H 3080.87 1.56261 -0.0349971 0
M  V30 32943 H 3081.6 2.14615 2.43127 0
M  V30 32944 H 3081.39 3.63602 1.4675 0
M  V30 32945 H 3082.88 3.39728 2.42847 0
M  V30 32946 N 3083.32 0.0117398 1.57596 0
M  V30 32947 C 3084.23 -0.991927 2.12598 0
M  V30 32948 C 3085.24 -1.36897 1.07402 0
M  V30 32949 O 3086.42 -1.45392 1.39367 0
M  V30 32950 C 3083.48 -2.26136 2.628 0
M  V30 32951 C 3082.54 -1.94635 3.82643 0
M  V30 32952 C 3081.78 -3.15526 4.30441 0
M  V30 32953 O 3082 -4.27607 3.77503 0
M  V30 32954 O 3080.93 -2.98837 5.22475 0
M  V30 32955 H 3084.76 -0.554319 2.98598 0
M  V30 32956 H 3082.35 -0.207813 1.47948 0
M  V30 32957 H 3084.23 -3.0069 2.95235 0
M  V30 32958 H 3082.9 -2.69111 1.79891 0
M  V30 32959 H 3081.81 -1.1752 3.55162 0
M  V30 32960 H 3083.14 -1.56488 4.66661 0
M  V30 32961 N 3084.79 -1.55421 -0.261185 0
M  V30 32962 C 3085.72 -1.92121 -1.32709 0
M  V30 32963 C 3086.71 -0.784433 -1.50933 0
M  V30 32964 O 3087.89 -1.04355 -1.63779 0
M  V30 32965 C 3085.02 -2.20346 -2.68449 0
M  V30 32966 C 3083.97 -3.36141 -2.64941 0
M  V30 32967 C 3083.3 -3.49872 -4.04343 0
M  V30 32968 C 3084.6 -4.72219 -2.23174 0
M  V30 32969 H 3086.29 -2.81402 -1.0224 0
M  V30 32970 H 3083.84 -1.35393 -0.490382 0
M  V30 32971 H 3085.79 -2.44609 -3.43139 0
M  V30 32972 H 3084.52 -1.27876 -3.00525 0
M  V30 32973 H 3083.18 -3.11864 -1.92708 0
M  V30 32974 H 3082.82 -2.54848 -4.33661 0
M  V30 32975 H 3082.52 -4.27733 -4.02887 0
M  V30 32976 H 3084.05 -3.76441 -4.80754 0
M  V30 32977 H 3085.46 -4.95948 -2.87591 0
M  V30 32978 H 3083.86 -5.5308 -2.32858 0
M  V30 32979 H 3084.93 -4.70243 -1.18318 0
M  V30 32980 N 3086.27 0.526227 -1.48555 0
M  V30 32981 C 3087.69 0.855114 -1.34759 0
M  V30 32982 C 3087.89 1.98232 -0.361455 0
M  V30 32983 O 3086.94 2.51575 0.215981 0
M  V30 32984 C 3088.26 1.2191 -2.74879 0
M  V30 32985 C 3089.81 1.32877 -2.83395 0
M  V30 32986 C 3090.28 1.72616 -4.24226 0
M  V30 32987 N 3091.77 1.79712 -4.26917 0
M  V30 32988 C 3092.51 2.11854 -5.32828 0
M  V30 32989 N 3092 2.42394 -6.49012 0
M  V30 32990 N 3093.8 2.12892 -5.20225 0
M  V30 32991 H 3085.95 -0.21746 -2.11284 0
M  V30 32992 H 3088.21 -0.0346529 -0.947366 0
M  V30 32993 H 3087.92 0.464425 -3.4862 0
M  V30 32994 H 3087.79 2.16839 -3.08643 0
M  V30 32995 H 3090.18 2.0742 -2.09907 0
M  V30 32996 H 3090.26 0.360594 -2.53246 0
M  V30 32997 H 3089.9 0.986323 -4.98231 0
M  V30 32998 H 3089.83 2.7049 -4.51821 0
M  V30 32999 H 3092.32 1.58373 -3.43113 0
M  V30 33000 H 3092.64 2.66035 -7.25565 0
M  V30 33001 H 3090.98 2.39905 -6.52281 0
M  V30 33002 H 3094.17 1.88493 -4.28472 0
M  V30 33003 H 3094.34 2.37609 -6.02865 0
M  V30 33004 N 3087.75 1.37206 0.775387 0
M  V30 33005 C 3089 1.31952 1.53078 0
M  V30 33006 C 3089.32 -0.0966521 1.9476 0
M  V30 33007 O 3088.59 -1.03991 1.6602 0
M  V30 33008 H 3087.17 0.485454 0.567753 0
M  V30 33009 H 3089.83 1.71655 0.92306 0
M  V30 33010 H 3088.93 1.95618 2.43187 0
M  V30 33011 N 3089.23 -1.00115 1.21716 0
M  V30 33012 C 3090.48 -1.73605 1.03468 0
M  V30 33013 C 3090.8 -1.90149 -0.432261 0
M  V30 33014 O 3090.07 -1.45518 -1.31154 0
M  V30 33015 H 3088.65 -0.643202 0.379868 0
M  V30 33016 H 3091.31 -1.20621 1.5309 0
M  V30 33017 H 3090.41 -2.73373 1.50578 0
M  V30 33018 N 3090.71 -1.02553 -1.19669 0
M  V30 33019 C 3091.93 -0.739397 -1.93772 0
M  V30 33020 C 3092.36 0.695033 -1.74788 0
M  V30 33021 O 3091.72 1.47942 -1.04798 0
M  V30 33022 C 3091.76 -1.09155 -3.43682 0
M  V30 33023 O 3090.87 -0.208285 -4.11874 0
M  V30 33024 H 3090.21 -0.273495 -0.605059 0
M  V30 33025 H 3092.74 -1.3713 -1.51843 0
M  V30 33026 H 3092.75 -1.04702 -3.94337 0
M  V30 33027 H 3091.42 -2.1366 -3.56822 0
M  V30 33028 H 3090 -0.311111 -3.716 0
M  V30 33029 N 3092.19 1.35612 -0.802945 0
M  V30 33030 C 3093.43 1.99601 -0.391294 0
M  V30 33031 C 3093.79 1.62559 1.02919 0
M  V30 33032 O 3093.08 0.876908 1.70355 0
M  V30 33033 C 3093.27 3.53773 -0.507868 0
M  V30 33034 C 3093.1 4.05791 -1.93814 0
M  V30 33035 C 3091.87 4.35315 -2.56571 0
M  V30 33036 C 3094.07 4.24591 -2.90219 0
M  V30 33037 N 3092.05 4.7324 -3.91046 0
M  V30 33038 C 3093.42 4.65472 -4.09556 0
M  V30 33039 C 3095.48 4.06791 -2.87098 0
M  V30 33040 C 3094.18 4.90415 -5.26199 0
M  V30 33041 C 3096.21 4.32889 -4.02941 0
M  V30 33042 C 3095.57 4.74038 -5.21025 0
M  V30 33043 H 3091.67 0.758346 -0.19088 0
M  V30 33044 H 3094.25 1.64381 -1.04341 0
M  V30 33045 H 3092.42 3.88232 0.114237 0
M  V30 33046 H 3094.16 4.04637 -0.0711566 0
M  V30 33047 H 3090.91 4.25503 -2.07952 0
M  V30 33048 H 3091.33 4.96467 -4.60271 0
M  V30 33049 H 3095.98 3.74123 -1.96957 0
M  V30 33050 H 3093.69 5.21959 -6.16915 0
M  V30 33051 H 3097.28 4.20673 -4.01903 0
M  V30 33052 H 3096.16 4.93839 -6.09174 0
M  V30 33053 N 3093.66 0.556128 1.47462 0
M  V30 33054 C 3094.91 0.0317162 2.02775 0
M  V30 33055 C 3095.24 -1.31428 1.4297 0
M  V30 33056 O 3094.52 -1.85498 0.584879 0
M  V30 33057 C 3094.8 -0.0625109 3.60046 0
M  V30 33058 C 3094.65 1.3105 4.30286 0
M  V30 33059 C 3095.97 -0.776476 4.33196 0
M  V30 33060 H 3093.09 0.0129999 0.736885 0
M  V30 33061 H 3095.73 0.718208 1.75903 0
M  V30 33062 H 3093.88 -0.647163 3.83072 0
M  V30 33063 H 3095.56 1.93827 4.18603 0
M  V30 33064 H 3093.8 1.88547 3.90682 0
M  V30 33065 H 3094.47 1.1973 5.38859 0
M  V30 33066 H 3096.95 -0.280074 4.15156 0
M  V30 33067 H 3095.82 -0.811365 5.4287 0
M  V30 33068 H 3096.08 -1.83237 4.02339 0
M  V30 33069 N 3095.14 -1.54861 0.292527 0
M  V30 33070 C 3096.39 -2.00264 -0.319701 0
M  V30 33071 C 3096.72 -1.18066 -1.54188 0
M  V30 33072 O 3096 -0.255016 -1.92821 0
M  V30 33073 C 3096.28 -3.53531 -0.684691 0
M  V30 33074 C 3096.13 -4.46473 0.546039 0
M  V30 33075 C 3097.45 -4.13221 -1.51448 0
M  V30 33076 H 3094.57 -0.728016 -0.114727 0
M  V30 33077 H 3097.21 -1.85678 0.402939 0
M  V30 33078 H 3095.36 -3.66091 -1.30037 0
M  V30 33079 H 3097.03 -4.45832 1.18456 0
M  V30 33080 H 3095.28 -4.17418 1.18088 0
M  V30 33081 H 3095.95 -5.51449 0.24664 0
M  V30 33082 H 3098.42 -4.04044 -0.99435 0
M  V30 33083 H 3097.3 -5.20636 -1.73866 0
M  V30 33084 H 3097.56 -3.64555 -2.50104 0
M  V30 33085 N 3096.62 -0.0200973 -1.57587 0
M  V30 33086 C 3097.87 0.659788 -1.90603 0
M  V30 33087 C 3098.18 1.73807 -0.897247 0
M  V30 33088 O 3099.39 2.47398 -1.11833 0
M  V30 33089 C 3097.84 1.22478 -3.38419 0
M  V30 33090 C 3097.45 0.18026 -4.47637 0
M  V30 33091 C 3099.2 1.8817 -3.80516 0
M  V30 33092 C 3097.1 0.756379 -5.86543 0
M  V30 33093 H 3096.03 0.250203 -0.711277 0
M  V30 33094 H 3098.68 -0.0839265 -1.83308 0
M  V30 33095 H 3097.07 2.01981 -3.40616 0
M  V30 33096 H 3098.24 -0.591653 -4.56986 0
M  V30 33097 H 3096.55 -0.377375 -4.14686 0
M  V30 33098 H 3099.15 2.32214 -4.81644 0
M  V30 33099 H 3099.49 2.72067 -3.15095 0
M  V30 33100 H 3100.03 1.1537 -3.80703 0
M  V30 33101 H 3096.77 -0.044262 -6.55485 0
M  V30 33102 H 3096.29 1.49699 -5.80819 0
M  V30 33103 H 3097.97 1.24889 -6.34832 0
M  V30 33104 N 3098.1 1.55557 0.252939 0
M  V30 33105 C 3099.37 1.67849 1.00429 0
M  V30 33106 C 3099.75 0.558196 2.03586 0
M  V30 33107 O 3099.1 -0.439158 2.2424 0
M  V30 33108 C 3099.31 3.07903 1.64307 0
M  V30 33109 C 3100.66 3.66307 2.1472 0
M  V30 33110 O 3101.68 3.10664 1.74259 0
M  V30 33111 O 3100.54 4.63838 2.88992 0
M  V30 33112 H 3097.64 0.682463 0.46709 0
M  V30 33113 H 3100.18 1.6789 0.247204 0
M  V30 33114 H 3098.96 3.80889 0.896614 0
M  V30 33115 H 3098.58 3.11847 2.46652 0
M  V30 33116 N 3099.58 -0.518341 1.48832 0
M  V30 33117 C 3100.8 -1.30272 1.61381 0
M  V30 33118 C 3101.23 -1.86025 0.278603 0
M  V30 33119 O 3100.58 -1.64996 -0.751398 0
M  V30 33120 C 3100.63 -2.42117 2.6723 0
M  V30 33121 O 3099.74 -3.45485 2.25198 0
M  V30 33122 H 3099.08 -0.38534 0.540749 0
M  V30 33123 H 3101.61 -0.622464 1.94901 0
M  V30 33124 H 3101.62 -2.88135 2.88864 0
M  V30 33125 H 3100.29 -2.00901 3.64159 0
M  V30 33126 H 3098.87 -3.05505 2.13824 0
M  V30 33127 N 3101.05 -1.37615 -0.7681 0
M  V30 33128 C 3102.28 -1.364 -1.56236 0
M  V30 33129 C 3102.7 0.0475508 -1.8804 0
M  V30 33130 O 3102.06 1.02561 -1.49502 0
M  V30 33131 C 3102.11 -2.21294 -2.84712 0
M  V30 33132 O 3101.21 -1.62007 -3.79246 0
M  V30 33133 H 3100.55 -0.465899 -0.473111 0
M  V30 33134 H 3103.08 -1.81187 -0.950383 0
M  V30 33135 H 3103.09 -2.34638 -3.3378 0
M  V30 33136 H 3101.77 -3.23894 -2.60893 0
M  V30 33137 H 3100.35 -1.57725 -3.37901 0
M  V30 33138 N 3102.53 0.994677 -1.22245 0
M  V30 33139 C 3103.78 1.72816 -1.04008 0
M  V30 33140 C 3104.09 1.90919 0.425379 0
M  V30 33141 O 3105.3 2.61575 0.727383 0
M  V30 33142 C 3103.76 3.10928 -1.8125 0
M  V30 33143 C 3103.36 3.00763 -3.32033 0
M  V30 33144 C 3105.11 3.88334 -1.71455 0
M  V30 33145 C 3103.01 4.34019 -4.01723 0
M  V30 33146 H 3101.94 0.64796 -0.38557 0
M  V30 33147 H 3104.6 1.11055 -1.46079 0
M  V30 33148 H 3102.98 3.73361 -1.31977 0
M  V30 33149 H 3104.15 2.47506 -3.88687 0
M  V30 33150 H 3102.47 2.3684 -3.42485 0
M  V30 33151 H 3105.06 4.86962 -2.20845 0
M  V30 33152 H 3105.41 4.10797 -0.67464 0
M  V30 33153 H 3105.94 3.32576 -2.18261 0
M  V30 33154 H 3102.68 4.16756 -5.05959 0
M  V30 33155 H 3102.2 4.87196 -3.49858 0
M  V30 33156 H 3103.88 5.02774 -4.07218 0
M  V30 33157 N 3104.01 1.03186 1.19123 0
M  V30 33158 C 3104.96 0.60882 2.24491 0
M  V30 33159 C 3105.95 -0.360036 1.6553 0
M  V30 33160 O 3107.16 -0.228289 1.78546 0
M  V30 33161 H 3103.53 0.178628 0.730476 0
M  V30 33162 H 3105.5 1.50807 2.57487 0
M  V30 33163 C 3104.25 -0.0214515 3.47693 0
M  V30 33164 H 3103.58 0.715093 3.93353 0
M  V30 33165 H 3105.02 -0.280354 4.23072 0
M  V30 33166 C 3103.47 -1.26891 3.1209 0
M  V30 33167 O 3104 -2.36065 3.25017 0
M  V30 33168 N 3102.21 -1.15881 2.66496 0
M  V30 33169 H 3101.76 -0.270418 2.56177 0
M  V30 33170 H 3101.72 -1.9944 2.43045 0
M  V30 33171 N 3105.49 -1.35184 0.810125 0
M  V30 33172 C 3106.9 -1.8113 0.452648 0
M  V30 33173 C 3107.25 -1.67254 -1.0257 0
M  V30 33174 O 3106.38 -1.20519 -1.79733 0
M  V30 33175 C 3106.97 -3.28855 0.814833 0
M  V30 33176 C 3105.53 -3.7293 0.509905 0
M  V30 33177 C 3104.68 -2.57117 1.03856 0
M  V30 33178 H 3107.63 -1.23112 1.00145 0
M  V30 33179 H 3107.65 -3.8033 0.113702 0
M  V30 33180 H 3107.16 -3.38923 1.89084 0
M  V30 33181 H 3105.26 -3.6841 -0.557224 0
M  V30 33182 H 3105.37 -4.67564 1.04501 0
M  V30 33183 H 3103.74 -2.50499 0.460715 0
M  V30 33184 H 3104.52 -2.69961 2.12076 0
M  V30 33185 N 3106.97 -0.56394 -1.47165 0
M  V30 33186 C 3108.38 -0.224201 -1.58017 0
M  V30 33187 C 3108.58 1.27336 -1.56166 0
M  V30 33188 O 3107.64 2.05396 -1.46863 0
M  V30 33189 C 3108.95 -0.856812 -2.88235 0
M  V30 33190 C 3110.5 -0.828663 -3.01831 0
M  V30 33191 C 3110.97 -1.44047 -4.34758 0
M  V30 33192 N 3112.47 -1.40396 -4.41411 0
M  V30 33193 C 3113.2 -1.8469 -5.42842 0
M  V30 33194 N 3112.7 -2.36872 -6.51048 0
M  V30 33195 N 3114.49 -1.7572 -5.33928 0
M  V30 33196 H 3106.64 -1.53684 -1.46612 0
M  V30 33197 H 3108.9 -0.641283 -0.698184 0
M  V30 33198 H 3108.61 -1.90955 -2.95346 0
M  V30 33199 H 3108.48 -0.353832 -3.75537 0
M  V30 33200 H 3110.87 0.215399 -2.94313 0
M  V30 33201 H 3110.95 -1.36947 -2.16054 0
M  V30 33202 H 3110.6 -2.48363 -4.43033 0
M  V30 33203 H 3110.53 -0.875044 -5.19279 0
M  V30 33204 H 3113.02 -1.02233 -3.63809 0
M  V30 33205 H 3113.33 -2.68577 -7.24628 0
M  V30 33206 H 3111.67 -2.40886 -6.51919 0
M  V30 33207 H 3114.87 -1.34726 -4.48293 0
M  V30 33208 H 3115.04 -2.10558 -6.12837 0
M  V30 33209 N 3108.44 1.54704 -0.300735 0
M  V30 33210 C 3109.39 2.20219 0.590551 0
M  V30 33211 C 3110.38 1.17509 1.09911 0
M  V30 33212 O 3111.57 1.43229 1.03992 0
M  V30 33213 C 3108.7 2.94628 1.76209 0
M  V30 33214 C 3107.79 4.04654 1.2695 0
M  V30 33215 N 3108.18 5.03373 0.494894 0
M  V30 33216 C 3106.47 4.1819 1.55026 0
M  V30 33217 C 3107.18 5.81235 0.232621 0
M  V30 33218 N 3106.15 5.37496 0.812349 0
M  V30 33219 H 3109.95 2.93899 -0.0088152 0
M  V30 33220 H 3107.47 1.62057 -0.105485 0
M  V30 33221 H 3109.46 3.40031 2.41215 0
M  V30 33222 H 3108.12 2.22465 2.36515 0
M  V30 33223 H 3109.14 5.17711 0.139819 0
M  V30 33224 H 3105.81 3.57232 2.16083 0
M  V30 33225 H 3107.2 6.7077 -0.389479 0
M  V30 33226 N 3109.92 0.0284543 1.57574 0
M  V30 33227 C 3110.86 -0.988365 2.05686 0
M  V30 33228 C 3111.83 -1.31781 0.952491 0
M  V30 33229 O 3113.02 -1.4346 1.22277 0
M  V30 33230 C 3110.14 -2.30857 2.47836 0
M  V30 33231 C 3109.19 -2.13378 3.69286 0
M  V30 33232 S 3110.02 -1.43322 5.15964 0
M  V30 33233 C 3111.18 -2.76714 5.61409 0
M  V30 33234 H 3111.41 -0.578822 2.91611 0
M  V30 33235 H 3108.95 -0.183217 1.53309 0
M  V30 33236 H 3110.9 -3.06754 2.72786 0
M  V30 33237 H 3109.56 -2.68945 1.62258 0
M  V30 33238 H 3108.76 -3.10976 3.96623 0
M  V30 33239 H 3108.36 -1.45623 3.44485 0
M  V30 33240 H 3110.65 -3.72953 5.65608 0
M  V30 33241 H 3111.59 -2.54041 6.6096 0
M  V30 33242 H 3112 -2.8193 4.89056 0
M  V30 33243 N 3111.4 -1.55689 -0.244686 0
M  V30 33244 C 3112.31 -1.93639 -1.32443 0
M  V30 33245 C 3113.33 -0.837113 -1.5254 0
M  V30 33246 O 3114.5 -1.1387 -1.66119 0
M  V30 33247 C 3111.57 -2.22529 -2.6586 0
M  V30 33248 C 3110.63 -3.459 -2.54267 0
M  V30 33249 C 3109.86 -3.73404 -3.81321 0
M  V30 33250 O 3110.08 -3.02944 -4.83302 0
M  V30 33251 O 3109.02 -4.66926 -3.79821 0
M  V30 33252 H 3112.84 -2.8561 -1.0325 0
M  V30 33253 H 3110.43 -1.42599 -0.445627 0
M  V30 33254 H 3112.31 -2.4241 -3.44696 0
M  V30 33255 H 3110.99 -1.33736 -2.94782 0
M  V30 33256 H 3109.89 -3.31325 -1.73709 0
M  V30 33257 H 3111.23 -4.35003 -2.30289 0
M  V30 33258 N 3112.88 0.510441 -1.49105 0
M  V30 33259 C 3113.81 1.63037 -1.59669 0
M  V30 33260 C 3114.79 1.56359 -0.446173 0
M  V30 33261 O 3115.97 1.76551 -0.660445 0
M  V30 33262 C 3113.1 3.01518 -1.54287 0
M  V30 33263 C 3112.15 3.26489 -2.74421 0
M  V30 33264 S 3112.98 3.10635 -4.36195 0
M  V30 33265 C 3114.14 4.51529 -4.33443 0
M  V30 33266 H 3114.37 1.53829 -2.54409 0
M  V30 33267 H 3111.9 0.694891 -1.37879 0
M  V30 33268 H 3113.86 3.81374 -1.51868 0
M  V30 33269 H 3112.52 3.08149 -0.608512 0
M  V30 33270 H 3111.71 4.27561 -2.66848 0
M  V30 33271 H 3111.32 2.54339 -2.74204 0
M  V30 33272 H 3113.61 5.43434 -4.04581 0
M  V30 33273 H 3114.55 4.64153 -5.3476 0
M  V30 33274 H 3114.96 4.31766 -3.63646 0
M  V30 33275 N 3114.36 1.38021 0.760791 0
M  V30 33276 C 3115.59 1.36852 1.54774 0
M  V30 33277 C 3115.99 -0.0453639 1.89146 0
M  V30 33278 O 3115.34 -1.02048 1.52748 0
M  V30 33279 C 3115.4 2.15274 2.87919 0
M  V30 33280 C 3115.06 3.64149 2.76124 0
M  V30 33281 C 3116.06 4.57798 2.46408 0
M  V30 33282 C 3113.75 4.07413 2.93803 0
M  V30 33283 C 3115.74 5.9269 2.34515 0
M  V30 33284 C 3113.43 5.42388 2.81529 0
M  V30 33285 C 3114.42 6.3484 2.51927 0
M  V30 33286 O 3114.11 7.67333 2.39699 0
M  V30 33287 H 3113.84 0.470112 0.485768 0
M  V30 33288 H 3116.4 1.82115 0.949907 0
M  V30 33289 H 3114.63 1.64718 3.49864 0
M  V30 33290 H 3116.32 2.06603 3.49385 0
M  V30 33291 H 3117.08 4.2568 2.32426 0
M  V30 33292 H 3112.96 3.35804 3.15843 0
M  V30 33293 H 3116.51 6.6482 2.1133 0
M  V30 33294 H 3112.4 5.74105 2.95083 0
M  V30 33295 H 3113.17 7.77775 2.54966 0
M  V30 33296 N 3115.83 -0.98818 1.22771 0
M  V30 33297 C 3116.8 -2.06075 1.00329 0
M  V30 33298 C 3117.8 -1.60768 -0.0320335 0
M  V30 33299 O 3118.99 -1.72966 0.206943 0
M  V30 33300 C 3116.12 -3.36966 0.516436 0
M  V30 33301 H 3117.31 -2.27418 1.95503 0
M  V30 33302 H 3114.87 -1.16045 1.04706 0
M  V30 33303 H 3115.6 -3.21309 -0.439441 0
M  V30 33304 H 3115.39 -3.71187 1.26344 0
M  V30 33305 H 3116.88 -4.15869 0.379813 0
M  V30 33306 N 3117.31 -1.03816 -1.18575 0
M  V30 33307 C 3118.59 -0.654391 -1.84329 0
M  V30 33308 C 3118.97 0.866304 -1.92506 0
M  V30 33309 O 3118.32 1.76675 -1.44907 0
M  V30 33310 C 3118.53 -1.32729 -3.22776 0
M  V30 33311 C 3119.88 -1.45648 -3.98838 0
M  V30 33312 O 3120.9 -1.2852 -3.32206 0
M  V30 33313 O 3119.76 -1.73535 -5.18216 0
M  V30 33314 H 3116.85 -0.228652 -0.794762 0
M  V30 33315 H 3119.4 -1.1369 -1.25987 0
M  V30 33316 H 3118.17 -2.36539 -3.11713 0
M  V30 33317 H 3117.79 -0.833245 -3.88771 0
M  V30 33318 N 3118.79 1.34753 -0.817283 0
M  V30 33319 C 3120.21 1.51488 -0.502336 0
M  V30 33320 C 3120.41 1.76366 0.974537 0
M  V30 33321 O 3119.46 1.8113 1.75921 0
M  V30 33322 C 3120.78 2.68341 -1.35697 0
M  V30 33323 C 3122.32 2.82221 -1.35352 0
M  V30 33324 C 3122.8 4.02111 -2.19251 0
M  V30 33325 N 3124.29 4.09308 -2.16845 0
M  V30 33326 C 3125.02 5.01216 -2.78514 0
M  V30 33327 N 3124.52 5.98386 -3.49151 0
M  V30 33328 N 3126.31 4.94044 -2.68098 0
M  V30 33329 H 3118.46 1.16863 -1.77361 0
M  V30 33330 H 3120.73 0.572664 -0.755486 0
M  V30 33331 H 3120.43 2.56569 -2.40552 0
M  V30 33332 H 3120.31 3.63212 -1.0177 0
M  V30 33333 H 3122.69 2.93438 -0.312778 0
M  V30 33334 H 3122.78 1.88176 -1.73273 0
M  V30 33335 H 3122.42 3.91654 -3.23372 0
M  V30 33336 H 3122.35 4.95358 -1.78684 0
M  V30 33337 H 3124.84 3.39753 -1.65458 0
M  V30 33338 H 3125.15 6.65135 -3.93467 0
M  V30 33339 H 3123.5 5.98527 -3.53257 0
M  V30 33340 H 3126.69 4.17091 -2.12493 0
M  V30 33341 H 3126.86 5.65478 -3.16446 0
M  V30 33342 N 3120.27 0.571737 1.46864 0
M  V30 33343 C 3121.18 -0.17053 2.33979 0
M  V30 33344 C 3122.2 -0.897212 1.49084 0
M  V30 33345 O 3123.37 -0.862856 1.8198 0
M  V30 33346 C 3120.44 -1.17825 3.26065 0
M  V30 33347 C 3119.5 -0.457424 4.26856 0
M  V30 33348 C 3118.73 -1.41713 5.14542 0
M  V30 33349 O 3118.95 -2.65296 5.0495 0
M  V30 33350 O 3117.89 -0.933695 5.94614 0
M  V30 33351 H 3121.71 0.544449 2.9878 0
M  V30 33352 H 3119.3 0.332223 1.45659 0
M  V30 33353 H 3121.18 -1.75958 3.82906 0
M  V30 33354 H 3119.86 -1.87489 2.63874 0
M  V30 33355 H 3118.76 0.165472 3.73734 0
M  V30 33356 H 3120.1 0.198039 4.91801 0
M  V30 33357 N 3121.75 -1.54542 0.308935 0
M  V30 33358 C 3122.97 -2.05172 -0.30316 0
M  V30 33359 C 3123.4 -1.18437 -1.46131 0
M  V30 33360 O 3122.76 -0.190194 -1.803 0
M  V30 33361 C 3122.8 -3.53145 -0.729464 0
M  V30 33362 O 3121.91 -3.69404 -1.83342 0
M  V30 33363 H 3121.25 -0.661506 -0.0574949 0
M  V30 33364 H 3123.78 -1.9952 0.45309 0
M  V30 33365 H 3123.79 -3.95144 -1.01612 0
M  V30 33366 H 3122.46 -4.15733 0.117695 0
M  V30 33367 H 3121.04 -3.3931 -1.5467 0
M  V30 33368 N 3123.23 -0.0368104 -1.57557 0
M  V30 33369 C 3124.64 0.319643 -1.56366 0
M  V30 33370 C 3124.84 1.72396 -1.04316 0
M  V30 33371 O 3123.9 2.42795 -0.69332 0
M  V30 33372 C 3125.21 0.161221 -3.00267 0
M  V30 33373 C 3126.76 0.233409 -3.12128 0
M  V30 33374 C 3127.23 0.103687 -4.57883 0
M  V30 33375 N 3128.72 0.160425 -4.62922 0
M  V30 33376 C 3129.46 0.0839486 -5.73339 0
M  V30 33377 N 3128.96 -0.0440548 -6.92786 0
M  V30 33378 N 3130.75 0.138493 -5.61929 0
M  V30 33379 H 3122.9 -0.955029 -1.89718 0
M  V30 33380 H 3125.16 -0.369482 -0.873033 0
M  V30 33381 H 3124.87 -0.80645 -3.42329 0
M  V30 33382 H 3124.74 0.92824 -3.656 0
M  V30 33383 H 3127.13 1.19154 -2.69975 0
M  V30 33384 H 3127.21 -0.564119 -2.49502 0
M  V30 33385 H 3126.85 -0.851061 -5.00719 0
M  V30 33386 H 3126.78 0.920177 -5.18498 0
M  V30 33387 H 3129.28 0.259191 -3.7701 0
M  V30 33388 H 3129.59 -0.0955078 -7.72741 0
M  V30 33389 H 3127.93 -0.0789433 -6.94955 0
M  V30 33390 H 3131.12 0.236949 -4.675 0
M  V30 33391 H 3131.3 0.0754321 -6.47956 0
M  V30 33392 N 3124.7 1.55817 0.236426 0
M  V30 33393 C 3125.95 1.77786 0.961079 0
M  V30 33394 C 3126.27 0.60268 1.85453 0
M  V30 33395 O 3125.54 -0.381104 1.92157 0
M  V30 33396 H 3124.12 0.655703 0.357859 0
M  V30 33397 H 3126.78 1.93266 0.251854 0
M  V30 33398 H 3125.88 2.69348 1.57665 0
M  V30 33399 N 3126.18 -0.502526 1.49373 0
M  V30 33400 C 3127.41 -1.28553 1.62754 0
M  V30 33401 C 3127.83 -1.85719 0.298318 0
M  V30 33402 O 3127.19 -1.65784 -0.733856 0
M  V30 33403 C 3127.24 -2.39269 2.69783 0
M  V30 33404 O 3126.34 -3.43077 2.28849 0
M  V30 33405 H 3125.68 -0.379583 0.544805 0
M  V30 33406 H 3128.21 -0.601757 1.95551 0
M  V30 33407 H 3128.22 -2.85055 2.91904 0
M  V30 33408 H 3126.9 -1.97027 3.66269 0
M  V30 33409 H 3125.47 -3.0322 2.17053 0
M  V30 33410 N 3127.66 -1.38422 -0.75346 0
M  V30 33411 C 3128.91 -1.34836 -1.51483 0
M  V30 33412 C 3129.24 0.0615039 -1.94103 0
M  V30 33413 O 3128.51 1.02271 -1.65441 0
M  V30 33414 C 3128.8 -2.30416 -2.76732 0
M  V30 33415 C 3128.65 -3.80263 -2.40249 0
M  V30 33416 C 3129.97 -2.24125 -3.78756 0
M  V30 33417 H 3127.09 -0.491112 -0.549526 0
M  V30 33418 H 3129.73 -1.69271 -0.862977 0
M  V30 33419 H 3127.88 -2.01181 -3.32353 0
M  V30 33420 H 3129.55 -4.20172 -1.90402 0
M  V30 33421 H 3127.79 -3.97938 -1.72707 0
M  V30 33422 H 3128.47 -4.42601 -3.29861 0
M  V30 33423 H 3130.94 -2.49934 -3.32674 0
M  V30 33424 H 3129.82 -2.93112 -4.64087 0
M  V30 33425 H 3130.08 -1.24013 -4.2435 0
M  V30 33426 N 3129.14 0.981655 -1.23294 0
M  V30 33427 C 3130.07 2.09189 -1.03742 0
M  V30 33428 C 3131.05 1.7004 0.0452742 0
M  V30 33429 O 3132.23 1.93834 -0.119126 0
M  V30 33430 C 3129.36 3.41603 -0.626487 0
M  V30 33431 C 3128.32 3.94649 -1.65638 0
M  V30 33432 C 3127.64 5.23243 -1.10093 0
M  V30 33433 C 3128.94 4.2406 -3.0491 0
M  V30 33434 H 3130.64 2.25804 -1.96604 0
M  V30 33435 H 3128.18 1.08508 -0.946675 0
M  V30 33436 H 3130.14 4.18694 -0.476763 0
M  V30 33437 H 3128.86 3.24848 0.337816 0
M  V30 33438 H 3127.52 3.19701 -1.79407 0
M  V30 33439 H 3127.17 5.02838 -0.127651 0
M  V30 33440 H 3126.87 5.59702 -1.78906 0
M  V30 33441 H 3128.39 6.02958 -0.963034 0
M  V30 33442 H 3129.81 4.91907 -2.9445 0
M  V30 33443 H 3128.2 4.71717 -3.70949 0
M  V30 33444 H 3129.27 3.31383 -3.53996 0
M  V30 33445 N 3130.62 1.04444 1.18022 0
M  V30 33446 C 3131.53 0.649315 2.25435 0
M  V30 33447 C 3132.54 -0.326159 1.70916 0
M  V30 33448 O 3133.72 -0.180139 2.00593 0
M  V30 33449 C 3130.78 0.0223167 3.46693 0
M  V30 33450 C 3129.84 1.04728 4.1633 0
M  V30 33451 C 3129.08 0.450105 5.31799 0
M  V30 33452 O 3129.3 -0.742618 5.65545 0
M  V30 33453 O 3128.23 1.18067 5.90207 0
M  V30 33454 H 3132.06 1.5443 2.61505 0
M  V30 33455 H 3129.64 0.815542 1.25177 0
M  V30 33456 H 3131.53 -0.326523 4.20133 0
M  V30 33457 H 3130.2 -0.846435 3.12437 0
M  V30 33458 H 3129.11 1.44798 3.44941 0
M  V30 33459 H 3130.44 1.88692 4.54594 0
M  V30 33460 N 3132.09 -1.34317 0.824418 0
M  V30 33461 C 3133.5 -1.80639 0.471833 0
M  V30 33462 C 3133.86 -1.68332 -1.0079 0
M  V30 33463 O 3132.98 -1.22419 -1.78445 0
M  V30 33464 C 3133.58 -3.27973 0.849667 0
M  V30 33465 C 3132.13 -3.72368 0.549431 0
M  V30 33466 C 3131.28 -2.56001 1.06578 0
M  V30 33467 H 3134.23 -1.22043 1.01445 0
M  V30 33468 H 3134.25 -3.80188 0.154035 0
M  V30 33469 H 3133.77 -3.36898 1.92668 0
M  V30 33470 H 3131.87 -3.6898 -0.518118 0
M  V30 33471 H 3131.98 -4.6643 1.09454 0
M  V30 33472 H 3130.34 -2.49996 0.487258 0
M  V30 33473 H 3131.13 -2.67696 2.14927 0
M  V30 33474 N 3133.57 -0.579517 -1.46558 0
M  V30 33475 C 3134.48 0.158119 -2.34067 0
M  V30 33476 C 3135.5 0.889294 -1.49558 0
M  V30 33477 O 3136.67 0.853193 -1.82435 0
M  V30 33478 C 3133.74 1.16094 -3.26685 0
M  V30 33479 C 3132.8 0.43478 -4.27093 0
M  V30 33480 C 3132.03 1.38983 -5.15286 0
M  V30 33481 O 3132.26 2.62615 -5.06349 0
M  V30 33482 O 3131.19 0.902149 -5.95101 0
M  V30 33483 H 3135.02 -0.560286 -2.98487 0
M  V30 33484 H 3132.6 -0.339943 -1.45481 0
M  V30 33485 H 3134.48 1.73925 -3.83833 0
M  V30 33486 H 3133.16 1.86087 -2.64865 0
M  V30 33487 H 3132.06 -0.185289 -3.73641 0
M  V30 33488 H 3133.4 -0.224118 -4.91689 0
M  V30 33489 N 3135.05 1.54376 -0.317127 0
M  V30 33490 C 3136.3 2.00055 0.286807 0
M  V30 33491 C 3136.62 1.20695 1.53159 0
M  V30 33492 O 3135.89 0.307079 1.93478 0
M  V30 33493 H 3134.47 0.73901 0.108966 0
M  V30 33494 H 3137.13 1.90048 -0.432185 0
M  V30 33495 H 3136.23 3.07257 0.547675 0
M  V30 33496 N 3136.53 0.0451655 1.57535 0
M  V30 33497 C 3137.76 -0.639707 1.96762 0
M  V30 33498 C 3138.17 -1.64732 0.922434 0
M  V30 33499 O 3137.53 -1.82258 -0.0940214 0
M  V30 33500 C 3137.58 -1.33194 3.36068 0
M  V30 33501 O 3137.3 -0.36468 4.3658 0
M  V30 33502 C 3138.8 -2.10713 3.90019 0
M  V30 33503 H 3136.02 -0.175312 0.647693 0
M  V30 33504 H 3138.57 0.109687 2.04206 0
M  V30 33505 H 3136.72 -2.03261 3.29794 0
M  V30 33506 H 3137.13 -0.858077 5.17433 0
M  V30 33507 H 3138.61 -2.54578 4.8979 0
M  V30 33508 H 3139.09 -2.95283 3.25123 0
M  V30 33509 H 3139.69 -1.4557 3.99612 0
M  V30 33510 N 3138.01 -1.5594 -0.228159 0
M  V30 33511 C 3139.25 -1.7891 -0.954933 0
M  V30 33512 C 3139.59 -0.61368 -1.84249 0
M  V30 33513 O 3138.86 0.387336 -1.90604 0
M  V30 33514 C 3139.14 -3.11913 -1.79951 0
M  V30 33515 C 3139 -4.39892 -0.938891 0
M  V30 33516 C 3140.32 -3.413 -2.77853 0
M  V30 33517 H 3137.43 -0.650874 -0.345733 0
M  V30 33518 H 3140.08 -1.88672 -0.224211 0
M  V30 33519 H 3138.23 -3.03721 -2.42251 0
M  V30 33520 H 3139.9 -4.60095 -0.333144 0
M  V30 33521 H 3138.14 -4.33113 -0.24402 0
M  V30 33522 H 3138.81 -5.29378 -1.56407 0
M  V30 33523 H 3141.29 -3.49576 -2.25689 0
M  V30 33524 H 3140.16 -4.35544 -3.34055 0
M  V30 33525 H 3140.43 -2.63138 -3.55262 0
M  V30 33526 N 3139.48 0.494597 -1.49638 0
M  V30 33527 C 3140.39 1.62169 -1.69524 0
M  V30 33528 C 3141.41 1.64122 -0.577923 0
M  V30 33529 O 3142.59 1.82425 -0.853414 0
M  V30 33530 C 3139.65 2.98507 -1.76336 0
M  V30 33531 C 3138.71 3.0713 -2.9995 0
M  V30 33532 C 3137.95 4.36965 -3.06426 0
M  V30 33533 O 3138.17 5.26132 -2.20322 0
M  V30 33534 O 3137.1 4.50693 -3.98948 0
M  V30 33535 H 3140.93 1.48319 -2.65019 0
M  V30 33536 H 3138.51 0.671579 -1.33455 0
M  V30 33537 H 3140.4 3.79527 -1.83132 0
M  V30 33538 H 3139.07 3.12605 -0.84021 0
M  V30 33539 H 3137.98 2.25274 -2.98667 0
M  V30 33540 H 3139.31 2.97961 -3.91765 0
M  V30 33541 N 3140.96 1.3882 0.746109 0
M  V30 33542 C 3142.21 1.34752 1.50083 0
M  V30 33543 C 3142.52 -0.0574442 1.95516 0
M  V30 33544 O 3143.73 -0.220682 2.70602 0
M  V30 33545 C 3142.19 2.3667 2.71137 0
M  V30 33546 C 3141.79 3.82825 2.32699 0
M  V30 33547 C 3143.54 2.41659 3.49001 0
M  V30 33548 C 3141.45 4.76411 3.50409 0
M  V30 33549 H 3140.38 0.500922 0.563554 0
M  V30 33550 H 3143.03 1.64412 0.814922 0
M  V30 33551 H 3141.41 2.00064 3.41746 0
M  V30 33552 H 3142.58 4.28411 1.69708 0
M  V30 33553 H 3140.9 3.81026 1.67953 0
M  V30 33554 H 3143.49 3.08774 4.36535 0
M  V30 33555 H 3143.84 1.43775 3.90684 0
M  V30 33556 H 3144.37 2.77102 2.85411 0
M  V30 33557 H 3141.11 5.75516 3.13785 0
M  V30 33558 H 3140.63 4.35513 4.12418 0
M  V30 33559 H 3142.31 4.94783 4.16892 0
M  V30 33560 N 3142.44 -0.975103 1.23812 0
M  V30 33561 C 3143.39 -2.06841 1.02398 0
M  V30 33562 C 3144.36 -1.6599 -0.0603078 0
M  V30 33563 O 3145.54 -1.90574 0.0928522 0
M  V30 33564 C 3142.68 -3.39357 0.626941 0
M  V30 33565 C 3141.8 -3.93447 1.78392 0
M  V30 33566 C 3140.93 -5.14199 1.33316 0
M  V30 33567 C 3139.97 -5.60467 2.46055 0
M  V30 33568 N 3139.11 -6.72444 2.019 0
M  V30 33569 H 3143.95 -2.24493 1.95977 0
M  V30 33570 H 3141.48 -1.10038 0.976225 0
M  V30 33571 H 3143.44 -4.15486 0.377815 0
M  V30 33572 H 3142.07 -3.21653 -0.27185 0
M  V30 33573 H 3141.12 -3.14026 2.14691 0
M  V30 33574 H 3142.44 -4.2375 2.63129 0
M  V30 33575 H 3141.59 -5.97677 1.04247 0
M  V30 33576 H 3140.33 -4.85561 0.456228 0
M  V30 33577 H 3139.33 -4.75567 2.75892 0
M  V30 33578 H 3140.56 -5.91121 3.34294 0
M  V30 33579 H 3138.5 -6.45555 1.16594 0
M  V30 33580 H 3138.42 -7.02159 2.80194 0
M  V30 33581 H 3139.69 -7.59383 1.7595 0
M  V30 33582 N 3143.92 -1.05068 -1.17467 0
M  V30 33583 C 3145.17 -0.76002 -1.87696 0
M  V30 33584 C 3145.49 0.71287 -1.80965 0
M  V30 33585 O 3144.75 1.53693 -1.21149 0
M  V30 33586 C 3145.05 -1.18427 -3.37209 0
M  V30 33587 C 3144.71 -2.65915 -3.64143 0
M  V30 33588 C 3143.38 -3.06205 -3.71203 0
M  V30 33589 C 3145.73 -3.61228 -3.75717 0
M  V30 33590 C 3143.06 -4.40676 -3.87327 0
M  V30 33591 C 3145.41 -4.9543 -3.93359 0
M  V30 33592 C 3144.07 -5.35377 -3.98658 0
M  V30 33593 H 3143.34 -0.278111 -0.68683 0
M  V30 33594 H 3145.99 -1.31753 -1.38972 0
M  V30 33595 H 3144.29 -0.545722 -3.87981 0
M  V30 33596 H 3145.99 -0.936587 -3.89909 0
M  V30 33597 H 3142.58 -2.33713 -3.59272 0
M  V30 33598 H 3146.76 -3.31241 -3.69585 0
M  V30 33599 H 3142.02 -4.71129 -3.89677 0
M  V30 33600 H 3146.19 -5.6918 -4.01257 0
M  V30 33601 H 3143.82 -6.3958 -4.10904 0
M  V30 33602 N 3145.4 1.33878 -0.831529 0
M  V30 33603 C 3146.81 1.50947 -0.518375 0
M  V30 33604 C 3147.01 1.7739 0.955776 0
M  V30 33605 O 3146.07 1.82986 1.7399 0
M  V30 33606 C 3147.38 2.66886 -1.38536 0
M  V30 33607 C 3148.93 2.8077 -1.38337 0
M  V30 33608 C 3149.4 3.99762 -2.23504 0
M  V30 33609 N 3150.9 4.06985 -2.21174 0
M  V30 33610 C 3151.63 4.98234 -2.83814 0
M  V30 33611 N 3151.13 5.94649 -3.55478 0
M  V30 33612 N 3152.92 4.91173 -2.73323 0
M  V30 33613 H 3145.07 1.14975 -1.7859 0
M  V30 33614 H 3147.33 0.564619 -0.761518 0
M  V30 33615 H 3147.04 2.54003 -2.4326 0
M  V30 33616 H 3146.91 3.62112 -1.05617 0
M  V30 33617 H 3149.3 2.93089 -0.343884 0
M  V30 33618 H 3149.38 1.86328 -1.75259 0
M  V30 33619 H 3149.03 3.88203 -3.27507 0
M  V30 33620 H 3148.96 4.93435 -1.83928 0
M  V30 33621 H 3151.45 3.37979 -1.69052 0
M  V30 33622 H 3151.76 6.60924 -4.00499 0
M  V30 33623 H 3150.1 5.94747 -3.59585 0
M  V30 33624 H 3153.3 4.14813 -2.16904 0
M  V30 33625 H 3153.47 5.6209 -3.22426 0
M  V30 33626 N 3146.87 0.587281 1.46249 0
M  V30 33627 C 3148.29 0.249312 1.57641 0
M  V30 33628 C 3148.49 -1.24836 1.58172 0
M  V30 33629 O 3147.55 -2.03033 1.50112 0
M  V30 33630 C 3148.86 0.90256 2.86835 0
M  V30 33631 C 3150.41 0.876577 3.00475 0
M  V30 33632 C 3150.88 1.50945 4.32411 0
M  V30 33633 N 3152.37 1.474 4.39121 0
M  V30 33634 C 3153.11 1.93303 5.39835 0
M  V30 33635 N 3152.6 2.47199 6.47197 0
M  V30 33636 N 3154.4 1.84192 5.31065 0
M  V30 33637 H 3146.55 1.55997 1.44148 0
M  V30 33638 H 3148.81 0.652309 0.687893 0
M  V30 33639 H 3148.52 1.95629 2.92271 0
M  V30 33640 H 3148.39 0.413532 3.74926 0
M  V30 33641 H 3150.78 -0.168549 2.94618 0
M  V30 33642 H 3150.86 1.40367 2.13848 0
M  V30 33643 H 3150.5 2.5538 4.39026 0
M  V30 33644 H 3150.43 0.957546 5.17821 0
M  V30 33645 H 3152.92 1.08008 3.62136 0
M  V30 33646 H 3153.24 2.80071 7.20264 0
M  V30 33647 H 3151.58 2.51227 6.48004 0
M  V30 33648 H 3154.77 1.4184 4.46093 0
M  V30 33649 H 3154.95 2.20281 6.0941 0
M  V30 33650 N 3148.35 -1.54206 0.325309 0
M  V30 33651 C 3149.3 -2.24398 -0.53985 0
M  V30 33652 C 3150.27 -1.23542 -1.11026 0
M  V30 33653 O 3151.45 -1.52228 -1.15027 0
M  V30 33654 C 3148.59 -3.00662 -1.694 0
M  V30 33655 C 3147.71 -4.16339 -1.15266 0
M  V30 33656 C 3146.84 -4.8013 -2.27263 0
M  V30 33657 C 3145.88 -5.87907 -1.70387 0
M  V30 33658 N 3145.02 -6.45553 -2.76054 0
M  V30 33659 H 3149.86 -2.97928 0.0652842 0
M  V30 33660 H 3147.4 -1.47034 0.0439899 0
M  V30 33661 H 3149.35 -3.43126 -2.37319 0
M  V30 33662 H 3147.98 -2.29462 -2.27039 0
M  V30 33663 H 3147.04 -3.78645 -0.364967 0
M  V30 33664 H 3148.35 -4.93913 -0.69649 0
M  V30 33665 H 3147.5 -5.25572 -3.03083 0
M  V30 33666 H 3146.24 -4.0194 -2.76217 0
M  V30 33667 H 3145.25 -5.41866 -0.930657 0
M  V30 33668 H 3146.47 -6.67995 -1.22308 0
M  V30 33669 H 3144.42 -5.70235 -3.24296 0
M  V30 33670 H 3144.33 -7.18546 -2.35005 0
M  V30 33671 H 3145.6 -6.9565 -3.51697 0
M  V30 33672 N 3149.83 -0.0535194 -1.57509 0
M  V30 33673 C 3151.11 0.659735 -1.84138 0
M  V30 33674 C 3151.49 1.88897 -0.942395 0
M  V30 33675 O 3150.84 2.285 -0.00402583 0
M  V30 33676 C 3151.05 1.0148 -3.3392 0
M  V30 33677 C 3152.39 1.39609 -4.00992 0
M  V30 33678 O 3153.42 1.10707 -3.38559 0
M  V30 33679 O 3152.28 1.93558 -5.11075 0
M  V30 33680 H 3149.37 0.32588 -0.760086 0
M  V30 33681 H 3151.92 -0.0830613 -1.69497 0
M  V30 33682 H 3150.69 0.140972 -3.91046 0
M  V30 33683 H 3150.31 1.81496 -3.53758 0
M  V30 33684 N 3151.31 1.56059 0.219886 0
M  V30 33685 C 3152.24 1.95572 1.27568 0
M  V30 33686 C 3153.22 0.824174 1.488 0
M  V30 33687 O 3154.41 1.08661 1.60955 0
M  V30 33688 C 3151.54 2.27386 2.62513 0
M  V30 33689 C 3150.49 3.43047 2.55935 0
M  V30 33690 C 3149.82 3.6047 3.94925 0
M  V30 33691 C 3151.12 4.7797 2.10576 0
M  V30 33692 H 3152.81 2.84014 0.947432 0
M  V30 33693 H 3150.36 1.36646 0.454313 0
M  V30 33694 H 3152.31 2.5362 3.36533 0
M  V30 33695 H 3151.03 1.35799 2.97029 0
M  V30 33696 H 3149.69 3.16864 1.84372 0
M  V30 33697 H 3149.34 2.66256 4.26751 0
M  V30 33698 H 3149.04 4.38265 3.91405 0
M  V30 33699 H 3150.56 3.89055 4.70605 0
M  V30 33700 H 3151.98 5.03399 2.7434 0
M  V30 33701 H 3150.37 5.59059 2.18112 0
M  V30 33702 H 3151.44 4.73215 1.05809 0
M  V30 33703 N 3152.79 -0.486655 1.49898 0
M  V30 33704 C 3154.03 -1.24167 1.60344 0
M  V30 33705 C 3154.37 -1.91935 0.295727 0
M  V30 33706 O 3153.64 -1.81399 -0.701756 0
M  V30 33707 C 3153.92 -2.2975 2.77285 0
M  V30 33708 C 3153.78 -1.6639 4.17893 0
M  V30 33709 C 3155.1 -3.31196 2.89823 0
M  V30 33710 H 3152.22 -0.450073 0.583612 0
M  V30 33711 H 3154.86 -0.537702 1.82233 0
M  V30 33712 H 3153.01 -2.89792 2.58753 0
M  V30 33713 H 3154.68 -1.10065 4.47977 0
M  V30 33714 H 3152.92 -0.967505 4.22873 0
M  V30 33715 H 3153.59 -2.4304 4.95616 0
M  V30 33716 H 3156.07 -2.81161 3.06737 0
M  V30 33717 H 3154.95 -4.02418 3.73297 0
M  V30 33718 H 3155.21 -3.94387 1.99777 0
M  V30 33719 N 3154.27 -1.39214 -0.738737 0
M  V30 33720 C 3155.21 -1.37635 -1.85271 0
M  V30 33721 C 3156.18 -0.236601 -1.64406 0
M  V30 33722 O 3157.37 -0.431136 -1.85865 0
M  V30 33723 C 3154.51 -1.22193 -3.22743 0
M  V30 33724 C 3153.62 -2.45681 -3.55338 0
M  V30 33725 C 3152.76 -2.22856 -4.82192 0
M  V30 33726 C 3151.79 -3.42038 -5.07619 0
M  V30 33727 N 3150.93 -3.18554 -6.25674 0
M  V30 33728 H 3155.77 -2.32862 -1.85955 0
M  V30 33729 H 3153.31 -1.15677 -0.908696 0
M  V30 33730 H 3155.27 -1.11253 -4.02093 0
M  V30 33731 H 3153.9 -0.305977 -3.21347 0
M  V30 33732 H 3152.95 -2.67238 -2.70717 0
M  V30 33733 H 3154.26 -3.34463 -3.70048 0
M  V30 33734 H 3153.41 -2.09136 -5.69515 0
M  V30 33735 H 3152.15 -1.31462 -4.69648 0
M  V30 33736 H 3151.16 -3.5626 -4.18759 0
M  V30 33737 H 3152.38 -4.34328 -5.2205 0
M  V30 33738 H 3150.33 -2.29821 -6.14425 0
M  V30 33739 H 3150.25 -4.00892 -6.40954 0
M  V30 33740 H 3151.51 -3.0852 -7.15846 0
M  V30 33741 N 3155.74 0.968523 -1.24328 0
M  V30 33742 C 3156.97 1.74636 -1.1095 0
M  V30 33743 C 3157.39 1.85749 0.338032 0
M  V30 33744 O 3156.74 1.34523 1.23329 0
M  V30 33745 C 3156.79 3.16727 -1.74259 0
M  V30 33746 O 3156.52 3.06173 -3.13353 0
M  V30 33747 C 3158.02 4.10852 -1.6648 0
M  V30 33748 H 3155.24 0.547673 -0.38768 0
M  V30 33749 H 3157.78 1.21602 -1.64417 0
M  V30 33750 H 3155.94 3.66749 -1.24796 0
M  V30 33751 H 3156.35 3.95707 -3.44262 0
M  V30 33752 H 3157.82 5.08213 -2.15461 0
M  V30 33753 H 3158.3 4.34718 -0.625862 0
M  V30 33754 H 3158.91 3.66739 -2.15365 0
M  V30 33755 N 3157.22 1.0569 1.16908 0
M  V30 33756 C 3158.15 0.606577 2.19991 0
M  V30 33757 C 3159.13 -0.367455 1.58394 0
M  V30 33758 O 3160.32 -0.277882 1.86441 0
M  V30 33759 C 3157.44 -0.111604 3.38516 0
M  V30 33760 C 3156.49 0.818226 4.18578 0
M  V30 33761 S 3157.32 2.31014 4.83107 0
M  V30 33762 C 3158.48 1.60328 6.05017 0
M  V30 33763 H 3158.71 1.47992 2.57848 0
M  V30 33764 H 3156.24 0.869313 1.27602 0
M  V30 33765 H 3158.2 -0.519758 4.07196 0
M  V30 33766 H 3156.86 -0.96105 2.99036 0
M  V30 33767 H 3156.06 0.262181 5.03318 0
M  V30 33768 H 3155.66 1.16598 3.5536 0
M  V30 33769 H 3157.95 0.905428 6.71423 0
M  V30 33770 H 3158.89 2.42835 6.65159 0
M  V30 33771 H 3159.3 1.08851 5.53906 0
M  V30 33772 N 3158.7 -1.33435 0.838617 0
M  V30 33773 C 3160.12 -1.5067 0.526373 0
M  V30 33774 C 3160.32 -1.77894 -0.946355 0
M  V30 33775 O 3159.37 -1.83906 -1.73017 0
M  V30 33776 C 3160.68 -2.66148 1.39949 0
M  V30 33777 C 3162.23 -2.80032 1.39824 0
M  V30 33778 C 3162.71 -3.98572 2.25621 0
M  V30 33779 N 3164.2 -4.05806 2.23329 0
M  V30 33780 C 3164.93 -4.96722 2.86452 0
M  V30 33781 N 3164.43 -5.92755 3.58627 0
M  V30 33782 N 3166.22 -4.89717 2.75924 0
M  V30 33783 H 3158.37 -1.14026 1.79197 0
M  V30 33784 H 3160.64 -0.560573 0.764501 0
M  V30 33785 H 3160.34 -2.52709 2.44603 0
M  V30 33786 H 3160.22 -3.61547 1.07536 0
M  V30 33787 H 3162.6 -2.92903 0.359422 0
M  V30 33788 H 3162.68 -1.85395 1.76245 0
M  V30 33789 H 3162.33 -3.8646 3.29562 0
M  V30 33790 H 3162.26 -4.92453 1.86542 0
M  V30 33791 H 3164.75 -3.37078 1.70842 0
M  V30 33792 H 3165.06 -6.58791 4.03998 0
M  V30 33793 H 3163.41 -5.92831 3.62734 0
M  V30 33794 H 3166.6 -4.13657 2.19101 0
M  V30 33795 H 3166.77 -5.60372 3.25403 0
M  V30 33796 N 3160.18 -0.595029 -1.45935 0
M  V30 33797 C 3161.59 -0.257669 -1.57506 0
M  V30 33798 C 3161.79 1.23995 -1.58831 0
M  V30 33799 O 3160.85 2.02234 -1.51187 0
M  V30 33800 C 3162.16 -0.917758 -2.86352 0
M  V30 33801 C 3163.71 -0.892499 -3.00006 0
M  V30 33802 C 3164.19 -1.53236 -4.31605 0
M  V30 33803 N 3165.68 -1.49727 -4.38333 0
M  V30 33804 C 3166.41 -1.96163 -5.38802 0
M  V30 33805 N 3165.91 -2.50628 -6.45877 0
M  V30 33806 N 3167.7 -1.87006 -5.3008 0
M  V30 33807 H 3159.85 -1.56759 -1.43319 0
M  V30 33808 H 3162.11 -0.655948 -0.684424 0
M  V30 33809 H 3161.82 -1.97176 -2.91229 0
M  V30 33810 H 3161.69 -0.43341 -3.74702 0
M  V30 33811 H 3164.08 0.152923 -2.94704 0
M  V30 33812 H 3164.16 -1.41499 -2.131 0
M  V30 33813 H 3163.81 -2.57705 -4.37665 0
M  V30 33814 H 3163.74 -0.984994 -5.17306 0
M  V30 33815 H 3166.23 -1.09927 -3.61558 0
M  V30 33816 H 3166.54 -2.83887 -7.18769 0
M  V30 33817 H 3164.89 -2.5466 -6.46663 0
M  V30 33818 H 3168.08 -1.44204 -4.45334 0
M  V30 33819 H 3168.25 -2.2351 -6.08233 0
M  V30 33820 N 3161.66 1.54031 -0.333483 0
M  V30 33821 C 3162.9 2.01041 0.266492 0
M  V30 33822 C 3163.23 1.22113 1.51004 0
M  V30 33823 O 3162.51 0.30605 1.92077 0
M  V30 33824 C 3162.79 3.55222 0.590718 0
M  V30 33825 C 3162.65 4.44869 -0.664222 0
M  V30 33826 C 3163.96 4.17091 1.40439 0
M  V30 33827 H 3161.08 0.730801 0.0953851 0
M  V30 33828 H 3163.73 1.84545 -0.452027 0
M  V30 33829 H 3161.88 3.6941 1.20285 0
M  V30 33830 H 3163.55 4.42534 -1.30235 0
M  V30 33831 H 3161.79 4.1414 -1.29113 0
M  V30 33832 H 3162.46 5.50601 -0.392761 0
M  V30 33833 H 3164.94 4.06539 0.886875 0
M  V30 33834 H 3163.81 5.25063 1.60001 0
M  V30 33835 H 3164.07 3.71058 2.40351 0
M  V30 33836 N 3163.13 0.0618717 1.57479 0
M  V30 33837 C 3164.41 -0.649961 1.84485 0
M  V30 33838 C 3164.79 -1.88395 0.9524 0
M  V30 33839 O 3164.14 -2.28494 0.0161437 0
M  V30 33840 C 3164.35 -0.997074 3.34454 0
M  V30 33841 C 3165.7 -1.37481 4.01727 0
M  V30 33842 O 3166.72 -1.0891 3.39142 0
M  V30 33843 O 3165.58 -1.90845 5.12094 0
M  V30 33844 H 3162.67 -0.321844 0.761804 0
M  V30 33845 H 3165.22 0.0920489 1.6945 0
M  V30 33846 H 3163.99 -0.120232 3.91115 0
M  V30 33847 H 3163.61 -1.79618 3.54716 0
M  V30 33848 N 3164.61 -1.56173 -0.211607 0
M  V30 33849 C 3166.02 -1.69729 -0.777746 0
M  V30 33850 C 3166.37 -0.665612 -1.84564 0
M  V30 33851 O 3165.5 0.1813 -2.15639 0
M  V30 33852 C 3166.09 -3.07721 -1.41751 0
M  V30 33853 C 3164.65 -3.23098 -1.93093 0
M  V30 33854 C 3163.8 -2.65667 -0.794739 0
M  V30 33855 H 3166.75 -1.58695 0.0132118 0
M  V30 33856 H 3166.77 -3.04132 -2.28657 0
M  V30 33857 H 3166.28 -3.82786 -0.640047 0
M  V30 33858 H 3164.39 -2.52919 -2.7361 0
M  V30 33859 H 3164.5 -4.30425 -2.10406 0
M  V30 33860 H 3162.86 -2.24409 -1.20469 0
M  V30 33861 H 3163.65 -3.43287 -0.0297805 0
M  V30 33862 N 3166.09 0.478699 -1.50154 0
M  V30 33863 C 3167.34 1.23315 -1.61001 0
M  V30 33864 C 3167.67 1.91776 -0.305902 0
M  V30 33865 O 3166.94 1.81769 0.692126 0
M  V30 33866 C 3167.23 2.28277 -2.78499 0
M  V30 33867 C 3167.08 1.64171 -4.1877 0
M  V30 33868 C 3168.4 3.29654 -2.91575 0
M  V30 33869 H 3165.52 0.446971 -0.585991 0
M  V30 33870 H 3168.16 0.528031 -1.82515 0
M  V30 33871 H 3166.31 2.88415 -2.60286 0
M  V30 33872 H 3167.98 1.07688 -4.48554 0
M  V30 33873 H 3166.23 0.945065 -4.2338 0
M  V30 33874 H 3166.9 2.40408 -4.96898 0
M  V30 33875 H 3169.37 2.79531 -3.08224 0
M  V30 33876 H 3168.25 4.00433 -3.75426 0
M  V30 33877 H 3168.51 3.93322 -2.01866 0
M  V30 33878 N 3167.57 1.39603 0.731343 0
M  V30 33879 C 3168.8 1.40105 1.51836 0
M  V30 33880 C 3169.21 -0.00523308 1.89199 0
M  V30 33881 O 3168.55 -0.987846 1.54878 0
M  V30 33882 C 3168.61 2.21333 2.83288 0
M  V30 33883 C 3168.28 3.69924 2.68338 0
M  V30 33884 C 3169.27 4.62922 2.36642 0
M  V30 33885 C 3166.96 4.13553 2.85095 0
M  V30 33886 C 3168.95 5.97531 2.2189 0
M  V30 33887 C 3166.64 5.48237 2.69961 0
M  V30 33888 C 3167.64 6.40041 2.38404 0
M  V30 33889 O 3167.32 7.72244 2.23369 0
M  V30 33890 H 3167.06 0.48031 0.475687 0
M  V30 33891 H 3169.61 1.84089 0.911064 0
M  V30 33892 H 3167.84 1.72102 3.46291 0
M  V30 33893 H 3169.53 2.13967 3.44925 0
M  V30 33894 H 3170.3 4.30514 2.23344 0
M  V30 33895 H 3166.17 3.42428 3.08649 0
M  V30 33896 H 3169.72 6.69153 1.97181 0
M  V30 33897 H 3165.62 5.80235 2.82839 0
M  V30 33898 H 3166.38 7.83009 2.38411 0
M  V30 33899 N 3169.05 -0.961916 1.2484 0
M  V30 33900 C 3170.3 -1.69997 1.08553 0
M  V30 33901 C 3170.61 -1.91979 -0.374611 0
M  V30 33902 O 3171.81 -2.63411 -0.657775 0
M  V30 33903 C 3170.27 -3.06014 1.8943 0
M  V30 33904 C 3169.88 -2.91854 3.3989 0
M  V30 33905 C 3171.62 -3.83652 1.81691 0
M  V30 33906 C 3169.53 -4.23215 4.13089 0
M  V30 33907 H 3168.46 -0.637509 0.402614 0
M  V30 33908 H 3171.11 -1.07143 1.48972 0
M  V30 33909 H 3169.49 -3.6973 1.41829 0
M  V30 33910 H 3170.67 -2.37114 3.95112 0
M  V30 33911 H 3168.98 -2.27677 3.48644 0
M  V30 33912 H 3171.58 -4.80935 2.33678 0
M  V30 33913 H 3171.92 -4.08864 0.783319 0
M  V30 33914 H 3172.45 -3.26672 2.27002 0
M  V30 33915 H 3169.19 -4.03194 5.16831 0
M  V30 33916 H 3168.71 -4.77749 3.62652 0
M  V30 33917 H 3170.39 -4.91801 4.20405 0
M  V30 33918 N 3170.52 -1.06308 -1.16346 0
M  V30 33919 C 3171.47 -0.643985 -2.18716 0
M  V30 33920 C 3172.46 0.325418 -1.57575 0
M  V30 33921 O 3173.65 0.140837 -1.76439 0
M  V30 33922 C 3170.78 -0.0320869 -3.43285 0
M  V30 33923 C 3169.87 -1.02599 -4.11502 0
M  V30 33924 N 3170.26 -2.20163 -4.5537 0
M  V30 33925 C 3168.55 -0.856964 -4.3769 0
M  V30 33926 C 3169.26 -2.83133 -5.08144 0
M  V30 33927 N 3168.23 -2.1086 -5.01038 0
M  V30 33928 H 3172.03 -1.53955 -2.5035 0
M  V30 33929 H 3169.55 -0.934786 -1.32799 0
M  V30 33930 H 3171.54 0.285991 -4.15918 0
M  V30 33931 H 3170.2 0.858731 -3.13139 0
M  V30 33932 H 3171.22 -2.57939 -4.49097 0
M  V30 33933 H 3167.89 -0.0181476 -4.17496 0
M  V30 33934 H 3169.28 -3.82895 -5.52124 0
M  V30 33935 N 3172 1.32989 -0.845682 0
M  V30 33936 C 3172.93 2.31578 -0.298998 0
M  V30 33937 C 3173.91 1.5928 0.596984 0
M  V30 33938 O 3175.1 1.87133 0.51911 0
M  V30 33939 C 3172.23 3.43369 0.521048 0
M  V30 33940 C 3171.18 4.27085 -0.279726 0
M  V30 33941 C 3170.51 5.30555 0.664497 0
M  V30 33942 C 3171.81 5.00281 -1.50055 0
M  V30 33943 H 3173.5 2.77551 -1.12277 0
M  V30 33944 H 3171.05 1.33437 -0.541343 0
M  V30 33945 H 3173 4.11372 0.913849 0
M  V30 33946 H 3171.73 2.96102 1.37809 0
M  V30 33947 H 3170.38 3.60716 -0.654169 0
M  V30 33948 H 3170.03 4.79543 1.51813 0
M  V30 33949 H 3169.73 5.8745 0.132768 0
M  V30 33950 H 3171.26 6.01423 1.05467 0
M  V30 33951 H 3172.67 5.61014 -1.18054 0
M  V30 33952 H 3171.07 5.66858 -1.96956 0
M  V30 33953 H 3172.14 4.28661 -2.26666 0
M  V30 33954 N 3173.48 0.60276 1.45618 0
M  V30 33955 C 3174.44 -0.108922 2.28941 0
M  V30 33956 C 3175.44 -0.799738 1.39502 0
M  V30 33957 O 3176.63 -0.648635 1.61674 0
M  V30 33958 C 3173.77 -1.16426 3.20402 0
M  V30 33959 H 3174.96 0.623586 2.93345 0
M  V30 33960 H 3172.51 0.361591 1.5206 0
M  V30 33961 H 3173.25 -1.92769 2.60788 0
M  V30 33962 H 3173.03 -0.67318 3.86278 0
M  V30 33963 H 3174.52 -1.66283 3.83066 0
M  V30 33964 N 3174.96 -1.53852 0.341647 0
M  V30 33965 C 3175.87 -2.28661 -0.524515 0
M  V30 33966 C 3176.88 -1.33699 -1.11358 0
M  V30 33967 O 3178.06 -1.66734 -1.12967 0
M  V30 33968 C 3175.13 -3.04344 -1.6606 0
M  V30 33969 C 3174.19 -4.14928 -1.10151 0
M  V30 33970 C 3173.42 -4.86992 -2.18345 0
M  V30 33971 O 3173.64 -4.5871 -3.3903 0
M  V30 33972 O 3172.58 -5.73487 -1.82746 0
M  V30 33973 H 3176.4 -3.03585 0.0835547 0
M  V30 33974 H 3173.99 -1.49018 0.106753 0
M  V30 33975 H 3175.87 -3.51679 -2.32164 0
M  V30 33976 H 3174.54 -2.32279 -2.25451 0
M  V30 33977 H 3173.45 -3.71901 -0.405044 0
M  V30 33978 H 3174.78 -4.89089 -0.552481 0
M  V30 33979 N 3176.44 -0.0702223 -1.57443 0
M  V30 33980 C 3177.85 0.286403 -1.57009 0
M  V30 33981 C 3178.05 1.70145 -1.07949 0
M  V30 33982 O 3177.11 2.4127 -0.744665 0
M  V30 33983 C 3178.42 0.0974937 -3.00542 0
M  V30 33984 C 3179.97 0.16715 -3.12553 0
M  V30 33985 C 3180.44 0.00653997 -4.58 0
M  V30 33986 N 3181.94 0.0621964 -4.63158 0
M  V30 33987 C 3182.67 -0.0376839 -5.73388 0
M  V30 33988 N 3182.17 -0.190995 -6.92537 0
M  V30 33989 N 3183.96 0.0192684 -5.62097 0
M  V30 33990 H 3176.11 -0.995056 -1.8765 0
M  V30 33991 H 3178.37 -0.387917 -0.865 0
M  V30 33992 H 3178.08 -0.878882 -3.40542 0
M  V30 33993 H 3177.95 0.850482 -3.67487 0
M  V30 33994 H 3180.34 1.13401 -2.72441 0
M  V30 33995 H 3180.42 -0.616915 -2.48249 0
M  V30 33996 H 3180.07 -0.95708 -4.98801 0
M  V30 33997 H 3180 0.809989 -5.20333 0
M  V30 33998 H 3182.49 0.179163 -3.77475 0
M  V30 33999 H 3182.8 -0.259396 -7.72365 0
M  V30 34000 H 3181.14 -0.226336 -6.94631 0
M  V30 34001 H 3184.34 0.137732 -4.67897 0
M  V30 34002 H 3184.51 -0.062026 -6.4797 0
M  V30 34003 N 3177.91 1.56283 0.203321 0
M  V30 34004 C 3178.84 1.96914 1.25487 0
M  V30 34005 C 3179.83 0.83991 1.47917 0
M  V30 34006 O 3181.01 1.10362 1.59793 0
M  V30 34007 C 3178.14 2.30157 2.60086 0
M  V30 34008 C 3177.09 3.45742 2.52282 0
M  V30 34009 C 3176.42 3.64638 3.91079 0
M  V30 34010 C 3177.72 4.80176 2.05494 0
M  V30 34011 H 3179.41 2.85003 0.917256 0
M  V30 34012 H 3176.96 1.3712 0.439794 0
M  V30 34013 H 3178.91 2.57176 3.33824 0
M  V30 34014 H 3177.64 1.38942 2.95572 0
M  V30 34015 H 3176.3 3.18801 1.81001 0
M  V30 34016 H 3175.94 2.70767 4.23903 0
M  V30 34017 H 3175.64 4.42391 3.86735 0
M  V30 34018 H 3177.17 3.94024 4.66452 0
M  V30 34019 H 3178.58 5.0628 2.68986 0
M  V30 34020 H 3176.98 5.61341 2.1217 0
M  V30 34021 H 3178.05 4.74311 1.00784 0
M  V30 34022 N 3179.39 -0.470729 1.50406 0
M  V30 34023 C 3180.64 -1.22037 1.61094 0
M  V30 34024 C 3180.96 -1.92463 0.313521 0
M  V30 34025 O 3180.23 -1.84122 -0.669011 0
M  V30 34026 H 3178.81 -0.45345 0.593626 0
M  V30 34027 H 3181.47 -0.542952 1.87184 0
M  V30 34028 H 3180.57 -1.96808 2.42225 0
M  V30 34029 N 3180.87 -1.39989 -0.72393 0
M  V30 34030 C 3182.1 -1.41112 -1.51311 0
M  V30 34031 C 3182.51 -0.00856652 -1.88798 0
M  V30 34032 O 3181.87 0.965488 -1.5487 0
M  V30 34033 C 3181.92 -2.29421 -2.79371 0
M  V30 34034 O 3181.64 -3.64216 -2.43472 0
M  V30 34035 C 3183.14 -2.39046 -3.73325 0
M  V30 34036 H 3180.36 -0.481597 -0.467231 0
M  V30 34037 H 3182.91 -1.8394 -0.893662 0
M  V30 34038 H 3181.06 -1.89977 -3.3762 0
M  V30 34039 H 3181.48 -4.1103 -3.25814 0
M  V30 34040 H 3182.95 -3.05061 -4.60045 0
M  V30 34041 H 3183.43 -1.41296 -4.15851 0
M  V30 34042 H 3184.03 -2.79007 -3.20991 0
M  V30 34043 N 3182.35 0.955282 -1.25348 0
M  V30 34044 C 3183.76 1.51451 -1.09176 0
M  V30 34045 C 3184.11 1.93358 0.332721 0
M  V30 34046 O 3183.24 1.78553 1.22261 0
M  V30 34047 C 3183.83 2.75231 -1.97569 0
M  V30 34048 C 3182.39 3.27468 -1.85585 0
M  V30 34049 C 3181.54 2.00309 -1.91759 0
M  V30 34050 H 3184.49 0.772247 -1.38644 0
M  V30 34051 H 3184.51 3.49026 -1.51529 0
M  V30 34052 H 3184.02 2.44699 -3.01238 0
M  V30 34053 H 3182.12 3.62823 -0.84797 0
M  V30 34054 H 3182.24 3.95528 -2.7036 0
M  V30 34055 H 3180.6 2.1558 -1.35637 0
M  V30 34056 H 3181.38 1.72127 -2.97031 0
M  V30 34057 N 3183.83 1.06924 1.1578 0
M  V30 34058 C 3184.74 0.696988 2.24007 0
M  V30 34059 C 3185.75 -0.289832 1.71569 0
M  V30 34060 O 3186.93 -0.13755 2.0093 0
M  V30 34061 C 3183.99 0.0958504 3.46567 0
M  V30 34062 C 3183.06 1.13535 4.14015 0
M  V30 34063 C 3182.29 0.562806 5.30724 0
M  V30 34064 O 3182.51 -0.62249 5.66993 0
M  V30 34065 O 3181.45 1.30559 5.87569 0
M  V30 34066 H 3185.27 1.59942 2.58171 0
M  V30 34067 H 3182.86 0.84191 1.23419 0
M  V30 34068 H 3184.74 -0.237333 4.20731 0
M  V30 34069 H 3183.41 -0.779972 3.14163 0
M  V30 34070 H 3182.32 1.52082 3.41792 0
M  V30 34071 H 3183.65 1.98292 4.5049 0
M  V30 34072 N 3185.31 -1.32538 0.852723 0
M  V30 34073 C 3186.24 -2.31416 0.311275 0
M  V30 34074 C 3187.22 -1.59594 -0.588529 0
M  V30 34075 O 3188.4 -1.87406 -0.509178 0
M  V30 34076 C 3185.53 -3.43641 -0.502831 0
M  V30 34077 C 3184.49 -4.26931 0.302371 0
M  V30 34078 C 3183.81 -5.309 -0.636351 0
M  V30 34079 C 3185.11 -4.99478 1.52706 0
M  V30 34080 H 3186.81 -2.76951 1.13747 0
M  V30 34081 H 3184.35 -1.33148 0.548412 0
M  V30 34082 H 3186.3 -4.11851 -0.89202 0
M  V30 34083 H 3185.03 -2.96828 -1.36237 0
M  V30 34084 H 3183.69 -3.60364 0.67329 0
M  V30 34085 H 3183.34 -4.80342 -1.49268 0
M  V30 34086 H 3183.04 -5.87512 -0.101612 0
M  V30 34087 H 3184.56 -6.01973 -1.02276 0
M  V30 34088 H 3185.97 -5.6038 1.21027 0
M  V30 34089 H 3184.37 -5.65806 1.99959 0
M  V30 34090 H 3185.44 -4.27453 2.28936 0
M  V30 34091 N 3186.78 -0.610474 -1.45296 0
M  V30 34092 C 3188.01 -0.11145 -2.071 0
M  V30 34093 C 3188.43 1.19622 -1.45163 0
M  V30 34094 O 3187.79 1.72902 -0.545398 0
M  V30 34095 C 3187.84 0.0116738 -3.60598 0
M  V30 34096 O 3186.94 1.06115 -3.98514 0
M  V30 34097 H 3186.28 -0.0753756 -0.659708 0
M  V30 34098 H 3188.81 -0.841301 -1.86503 0
M  V30 34099 H 3188.82 0.208957 -4.07465 0
M  V30 34100 H 3187.5 -0.943147 -4.05065 0
M  V30 34101 H 3186.08 0.840094 -3.63314 0
M  V30 34102 N 3188.26 1.53669 -0.349801 0
M  V30 34103 C 3189.49 2.05432 0.246002 0
M  V30 34104 C 3189.9 1.22437 1.43717 0
M  V30 34105 O 3189.26 0.261198 1.80621 0
M  V30 34106 C 3189.31 3.55517 0.654947 0
M  V30 34107 O 3189.03 4.35364 -0.488859 0
M  V30 34108 C 3190.53 4.23477 1.31081 0
M  V30 34109 H 3187.75 0.669395 0.0463834 0
M  V30 34110 H 3190.3 1.98202 -0.503601 0
M  V30 34111 H 3188.45 3.6295 1.35448 0
M  V30 34112 H 3188.87 5.24251 -0.16162 0
M  V30 34113 H 3190.34 5.2986 1.54765 0
M  V30 34114 H 3190.82 3.76212 2.2663 0
M  V30 34115 H 3191.42 4.20255 0.653137 0
M  V30 34116 N 3189.74 0.0785709 1.57404 0
M  V30 34117 C 3190.7 -0.871656 2.11978 0
M  V30 34118 C 3191.7 -1.22188 1.04531 0
M  V30 34119 O 3192.89 -1.15404 1.3049 0
M  V30 34120 C 3190.02 -2.17291 2.62674 0
M  V30 34121 H 3191.22 -0.398063 2.97246 0
M  V30 34122 H 3188.77 -0.170224 1.5537 0
M  V30 34123 H 3189.51 -2.69172 1.80878 0
M  V30 34124 H 3189.29 -1.93165 3.41218 0
M  V30 34125 H 3190.78 -2.85301 3.04948 0
M  V30 34126 N 3191.22 -1.56389 -0.19503 0
M  V30 34127 C 3192.13 -1.97754 -1.26216 0
M  V30 34128 C 3193.14 -0.885219 -1.49799 0
M  V30 34129 O 3194.32 -1.19097 -1.62412 0
M  V30 34130 C 3191.38 -2.30875 -2.58646 0
M  V30 34131 C 3190.45 -3.53814 -2.43133 0
M  V30 34132 C 3189.68 -3.85346 -3.69248 0
M  V30 34133 O 3189.9 -3.18167 -4.73419 0
M  V30 34134 O 3188.84 -4.78773 -3.64773 0
M  V30 34135 H 3192.66 -2.8875 -0.94111 0
M  V30 34136 H 3190.25 -1.43945 -0.400035 0
M  V30 34137 H 3192.13 -2.53253 -3.3681 0
M  V30 34138 H 3190.8 -1.43047 -2.90378 0
M  V30 34139 H 3189.71 -3.36683 -1.6308 0
M  V30 34140 H 3191.04 -4.42109 -2.16334 0
M  V30 34141 N 3192.7 0.462746 -1.50653 0
M  V30 34142 C 3194.11 0.797189 -1.38264 0
M  V30 34143 C 3194.31 1.9652 -0.445206 0
M  V30 34144 O 3193.37 2.52264 0.109086 0
M  V30 34145 C 3194.68 1.10142 -2.79802 0
M  V30 34146 C 3196.23 1.20737 -2.88776 0
M  V30 34147 C 3196.7 1.54468 -4.31165 0
M  V30 34148 N 3198.19 1.61443 -4.34155 0
M  V30 34149 C 3198.93 1.89064 -5.41334 0
M  V30 34150 N 3198.43 2.14649 -6.58709 0
M  V30 34151 N 3200.22 1.90636 -5.28786 0
M  V30 34152 H 3192.37 -0.306877 -2.10171 0
M  V30 34153 H 3194.63 -0.0748028 -0.945044 0
M  V30 34154 H 3194.34 0.316145 -3.50276 0
M  V30 34155 H 3194.21 2.03553 -3.17563 0
M  V30 34156 H 3196.6 1.9833 -2.18516 0
M  V30 34157 H 3196.68 0.252859 -2.54547 0
M  V30 34158 H 3196.32 0.774119 -5.01966 0
M  V30 34159 H 3196.25 2.51084 -4.62887 0
M  V30 34160 H 3198.75 1.43677 -3.49521 0
M  V30 34161 H 3199.06 2.35022 -7.36196 0
M  V30 34162 H 3197.4 2.12024 -6.61869 0
M  V30 34163 H 3200.59 1.7015 -4.36081 0
M  V30 34164 H 3200.77 2.11825 -6.124 0
M  V30 34165 N 3194.17 1.40371 0.716495 0
M  V30 34166 C 3195.12 1.40565 1.83058 0
M  V30 34167 C 3196.09 0.262726 1.64009 0
M  V30 34168 O 3197.28 0.460651 1.85156 0
M  V30 34169 C 3194.42 1.27312 3.20758 0
M  V30 34170 C 3193.53 2.51303 3.51384 0
M  V30 34171 C 3192.66 2.30499 4.78585 0
M  V30 34172 C 3191.7 3.5007 5.02113 0
M  V30 34173 N 3190.84 3.28468 6.20527 0
M  V30 34174 H 3195.68 2.35791 1.82227 0
M  V30 34175 H 3193.22 1.17108 0.890177 0
M  V30 34176 H 3195.18 1.17635 4.00272 0
M  V30 34177 H 3193.81 0.357061 3.20819 0
M  V30 34178 H 3192.86 2.71511 2.66432 0
M  V30 34179 H 3194.17 3.40308 3.6468 0
M  V30 34180 H 3193.32 2.1817 5.66115 0
M  V30 34181 H 3192.06 1.38917 4.67497 0
M  V30 34182 H 3191.07 3.62877 4.13038 0
M  V30 34183 H 3192.29 4.42578 5.15074 0
M  V30 34184 H 3190.24 2.39567 6.10691 0
M  V30 34185 H 3190.16 4.11038 6.34495 0
M  V30 34186 H 3191.42 3.1987 7.10847 0
M  V30 34187 N 3195.65 -0.948621 1.25853 0
M  V30 34188 C 3196.56 -2.07992 1.0852 0
M  V30 34189 C 3197.58 -1.73988 0.0207002 0
M  V30 34190 O 3198.75 -2.00163 0.222889 0
M  V30 34191 C 3195.82 -3.39306 0.712205 0
M  V30 34192 C 3194.88 -3.8714 1.8553 0
M  V30 34193 C 3194.11 -5.12187 1.50001 0
M  V30 34194 O 3194.34 -5.69007 0.398368 0
M  V30 34195 O 3193.27 -5.54878 2.33224 0
M  V30 34196 H 3197.1 -2.25519 2.03409 0
M  V30 34197 H 3194.68 -1.06431 1.04846 0
M  V30 34198 H 3196.56 -4.18222 0.516585 0
M  V30 34199 H 3195.24 -3.23035 -0.207359 0
M  V30 34200 H 3194.15 -3.09202 2.10583 0
M  V30 34201 H 3195.48 -4.07919 2.75433 0
M  V30 34202 N 3197.13 -1.07536 -1.15212 0
M  V30 34203 C 3198.06 -0.718876 -2.22159 0
M  V30 34204 C 3199.04 0.294561 -1.6753 0
M  V30 34205 O 3200.23 0.166897 -1.93482 0
M  V30 34206 C 3197.36 -0.117897 -3.471 0
M  V30 34207 C 3196.31 -1.0587 -4.14699 0
M  V30 34208 C 3195.64 -0.320378 -5.33739 0
M  V30 34209 C 3196.94 -2.39311 -4.6425 0
M  V30 34210 H 3198.63 -1.61302 -2.52234 0
M  V30 34211 H 3196.18 -0.777014 -1.21237 0
M  V30 34212 H 3198.13 0.143445 -4.21156 0
M  V30 34213 H 3196.85 0.811333 -3.16362 0
M  V30 34214 H 3195.51 -1.30499 -3.42587 0
M  V30 34215 H 3195.16 0.612372 -4.99258 0
M  V30 34216 H 3194.86 -0.947483 -5.79911 0
M  V30 34217 H 3196.38 -0.0668794 -6.10563 0
M  V30 34218 H 3197.8 -2.18997 -5.29824 0
M  V30 34219 H 3196.2 -2.97633 -5.2109 0
M  V30 34220 H 3197.27 -3.01478 -3.79788 0
M  V30 34221 N 3198.61 1.32084 -0.85974 0
M  V30 34222 C 3199.52 2.32528 -0.311121 0
M  V30 34223 C 3200.53 1.64271 0.573686 0
M  V30 34224 O 3201.71 1.95771 0.472843 0
M  V30 34225 C 3198.78 3.4326 0.487196 0
M  V30 34226 C 3197.84 4.27198 -0.424354 0
M  V30 34227 C 3197.07 5.32642 0.335957 0
M  V30 34228 O 3197.29 5.48502 1.56531 0
M  V30 34229 O 3196.23 6.01147 -0.300882 0
M  V30 34230 H 3200.05 2.81353 -1.14341 0
M  V30 34231 H 3197.64 1.35799 -0.622818 0
M  V30 34232 H 3199.52 4.10779 0.940131 0
M  V30 34233 H 3198.19 2.96615 1.2962 0
M  V30 34234 H 3197.1 3.62469 -0.925573 0
M  V30 34235 H 3198.43 4.77381 -1.19868 0
M  V30 34236 N 3200.09 0.618171 1.4497 0
M  V30 34237 C 3201.03 -0.106805 2.32355 0
M  V30 34238 C 3202.03 -0.848958 1.46591 0
M  V30 34239 O 3203.23 -0.763325 1.63013 0
M  V30 34240 H 3199.61 -0.0532977 0.750109 0
M  V30 34241 H 3201.58 0.648477 2.91268 0
M  V30 34242 C 3200.33 -1.08362 3.30383 0
M  V30 34243 H 3199.65 -0.52198 3.96378 0
M  V30 34244 H 3201.09 -1.56062 3.94234 0
M  V30 34245 C 3199.55 -2.16246 2.5834 0
M  V30 34246 O 3200.08 -3.24143 2.37264 0
M  V30 34247 N 3198.29 -1.91821 2.18296 0
M  V30 34248 H 3197.83 -1.04082 2.35637 0
M  V30 34249 H 3197.79 -2.64207 1.70417 0
M  V30 34250 N 3201.56 -1.53481 0.357946 0
M  V30 34251 C 3202.51 -2.25492 -0.49213 0
M  V30 34252 C 3203.48 -1.25869 -1.0838 0
M  V30 34253 O 3204.67 -1.54634 -1.11772 0
M  V30 34254 C 3201.81 -3.04188 -1.62984 0
M  V30 34255 C 3200.92 -4.1869 -1.06409 0
M  V30 34256 C 3200.05 -4.84843 -2.17028 0
M  V30 34257 C 3199.09 -5.91389 -1.57878 0
M  V30 34258 N 3198.23 -6.51263 -2.62299 0
M  V30 34259 H 3203.07 -2.97723 0.128465 0
M  V30 34260 H 3200.61 -1.46908 0.0751681 0
M  V30 34261 H 3202.57 -3.48083 -2.29987 0
M  V30 34262 H 3201.2 -2.34226 -2.22121 0
M  V30 34263 H 3200.25 -3.79334 -0.284569 0
M  V30 34264 H 3201.56 -4.9528 -0.591566 0
M  V30 34265 H 3200.71 -5.31882 -2.91867 0
M  V30 34266 H 3199.45 -4.07708 -2.67629 0
M  V30 34267 H 3198.46 -5.43718 -0.815509 0
M  V30 34268 H 3199.68 -6.70439 -1.08111 0
M  V30 34269 H 3197.63 -5.76986 -3.12127 0
M  V30 34270 H 3197.55 -7.23369 -2.19711 0
M  V30 34271 H 3198.81 -7.02954 -3.36862 0
M  V30 34272 N 3203.04 -0.0869173 -1.5736 0
M  V30 34273 C 3203.97 0.872214 -2.16598 0
M  V30 34274 C 3204.95 1.29993 -1.09708 0
M  V30 34275 O 3206.14 1.36828 -1.3781 0
M  V30 34276 C 3203.27 2.13435 -2.73976 0
M  V30 34277 C 3202.22 1.84553 -3.86166 0
M  V30 34278 C 3201.55 3.17526 -4.30211 0
M  V30 34279 C 3202.85 1.1389 -5.09732 0
M  V30 34280 H 3204.54 0.378686 -2.96996 0
M  V30 34281 H 3202.09 0.180705 -1.42862 0
M  V30 34282 H 3204.04 2.80963 -3.14067 0
M  V30 34283 H 3202.77 2.65056 -1.90821 0
M  V30 34284 H 3201.42 1.19426 -3.46602 0
M  V30 34285 H 3201.07 3.67018 -3.43958 0
M  V30 34286 H 3200.77 2.98987 -5.05847 0
M  V30 34287 H 3202.3 3.86226 -4.72929 0
M  V30 34288 H 3203.71 1.71513 -5.47043 0
M  V30 34289 H 3202.11 1.05558 -5.90743 0
M  V30 34290 H 3203.18 0.120347 -4.84751 0
M  V30 34291 N 3204.52 1.5649 0.186734 0
M  V30 34292 C 3205.47 1.95207 1.23138 0
M  V30 34293 C 3206.44 0.813805 1.44798 0
M  V30 34294 O 3207.62 1.07266 1.57793 0
M  V30 34295 C 3204.76 2.30402 2.56922 0
M  V30 34296 C 3203.88 3.57332 2.42771 0
M  V30 34297 C 3203.01 3.81811 3.69316 0
M  V30 34298 C 3202.05 5.02139 3.50032 0
M  V30 34299 N 3201.19 5.22829 4.68609 0
M  V30 34300 H 3206.03 2.84267 0.894206 0
M  V30 34301 H 3203.56 1.4067 0.430162 0
M  V30 34302 H 3205.52 2.48826 3.34876 0
M  V30 34303 H 3204.15 1.44471 2.88666 0
M  V30 34304 H 3203.2 3.46909 1.56072 0
M  V30 34305 H 3204.52 4.45443 2.2446 0
M  V30 34306 H 3203.67 4.00519 4.55708 0
M  V30 34307 H 3202.41 2.92046 3.9059 0
M  V30 34308 H 3201.41 4.83345 2.62026 0
M  V30 34309 H 3202.64 5.9342 3.30196 0
M  V30 34310 H 3200.58 4.36013 4.90131 0
M  V30 34311 H 3200.5 6.05134 4.53155 0
M  V30 34312 H 3201.77 5.46003 5.56328 0
M  V30 34313 N 3206 -0.45475 1.50897 0
M  V30 34314 C 3206.91 -1.57617 1.73764 0
M  V30 34315 C 3207.92 -1.62532 0.621234 0
M  V30 34316 O 3209.1 -1.80098 0.901481 0
M  V30 34317 C 3206.17 -2.93727 1.84188 0
M  V30 34318 C 3205.23 -2.99069 3.07987 0
M  V30 34319 C 3204.46 -4.28687 3.17904 0
M  V30 34320 O 3204.68 -5.20105 2.34194 0
M  V30 34321 O 3203.62 -4.39957 4.10757 0
M  V30 34322 H 3207.44 -1.4124 2.68858 0
M  V30 34323 H 3205.03 -0.63596 1.35188 0
M  V30 34324 H 3206.91 -3.74538 1.9313 0
M  V30 34325 H 3205.58 -3.10268 0.922797 0
M  V30 34326 H 3204.49 -2.17277 3.04535 0
M  V30 34327 H 3205.82 -2.87469 3.99528 0
M  V30 34328 N 3207.48 -1.40749 -0.709041 0
M  V30 34329 C 3208.89 -1.22923 -1.01795 0
M  V30 34330 C 3209.09 -0.109047 -2.01205 0
M  V30 34331 O 3208.15 0.530944 -2.46855 0
M  V30 34332 C 3209.46 -2.57347 -1.55542 0
M  V30 34333 C 3211.01 -2.64414 -1.67493 0
M  V30 34334 C 3211.48 -3.99123 -2.24645 0
M  V30 34335 N 3212.98 -4.00899 -2.32023 0
M  V30 34336 C 3213.71 -5.01921 -2.77241 0
M  V30 34337 N 3213.21 -6.13338 -3.22163 0
M  V30 34338 N 3215 -4.89288 -2.76684 0
M  V30 34339 H 3207.15 -2.12341 -0.0502331 0
M  V30 34340 H 3209.41 -0.944193 -0.0848767 0
M  V30 34341 H 3209.12 -3.40001 -0.899571 0
M  V30 34342 H 3208.99 -2.78893 -2.53966 0
M  V30 34343 H 3211.38 -1.82128 -2.32193 0
M  V30 34344 H 3211.46 -2.46692 -0.67651 0
M  V30 34345 H 3211.11 -4.81852 -1.60565 0
M  V30 34346 H 3211.04 -4.14178 -3.25214 0
M  V30 34347 H 3213.53 -3.20448 -2.00304 0
M  V30 34348 H 3213.84 -6.86306 -3.55253 0
M  V30 34349 H 3212.18 -6.16893 -3.20106 0
M  V30 34350 H 3215.38 -4.01336 -2.40929 0
M  V30 34351 H 3215.55 -5.68159 -3.11607 0
M  V30 34352 N 3208.96 0.941933 -1.26354 0
M  V30 34353 C 3209.87 2.07413 -1.09622 0
M  V30 34354 C 3210.88 1.73974 -0.0299269 0
M  V30 34355 O 3212.06 2.00042 -0.233501 0
M  V30 34356 C 3209.12 3.38923 -0.730189 0
M  V30 34357 C 3208.18 3.8615 -1.87581 0
M  V30 34358 C 3207.42 5.11384 -1.52715 0
M  V30 34359 O 3207.64 5.68788 -0.428538 0
M  V30 34360 O 3206.57 5.53634 -2.36164 0
M  V30 34361 H 3210.4 2.24437 -2.04602 0
M  V30 34362 H 3207.98 1.05874 -1.05409 0
M  V30 34363 H 3209.87 4.17942 -0.538757 0
M  V30 34364 H 3208.54 3.23141 0.190225 0
M  V30 34365 H 3207.45 3.0808 -2.1222 0
M  V30 34366 H 3208.78 4.06452 -2.77592 0
M  V30 34367 N 3210.43 1.08146 1.1464 0
M  V30 34368 C 3211.34 0.720707 2.23255 0
M  V30 34369 C 3212.36 -0.271618 1.71867 0
M  V30 34370 O 3213.54 -0.116231 2.01064 0
M  V30 34371 C 3210.6 0.132603 3.46446 0
M  V30 34372 C 3209.66 1.1792 4.12787 0
M  V30 34373 C 3208.89 0.619065 5.30097 0
M  V30 34374 O 3209.12 -0.562318 5.67621 0
M  V30 34375 O 3208.05 1.36784 5.86152 0
M  V30 34376 H 3211.88 1.62672 2.5646 0
M  V30 34377 H 3209.46 0.854953 1.22519 0
M  V30 34378 H 3211.34 -0.192696 4.20959 0
M  V30 34379 H 3210.02 -0.746607 3.14972 0
M  V30 34380 H 3208.93 1.55699 3.4016 0
M  V30 34381 H 3210.26 2.03059 4.48361 0
M  V30 34382 N 3211.91 -1.31626 0.866732 0
M  V30 34383 C 3213.16 -1.96825 0.476061 0
M  V30 34384 C 3213.49 -1.68531 -0.970964 0
M  V30 34385 O 3212.74 -0.97258 -1.69822 0
M  V30 34386 C 3213.04 -3.50947 0.67608 0
M  V30 34387 C 3212.71 -3.99254 2.0954 0
M  V30 34388 C 3211.37 -4.12156 2.48356 0
M  V30 34389 C 3213.72 -4.24704 3.02119 0
M  V30 34390 C 3211.05 -4.47858 3.78999 0
M  V30 34391 C 3213.4 -4.61868 4.32274 0
M  V30 34392 C 3212.06 -4.72977 4.71009 0
M  V30 34393 H 3211.33 -0.720232 0.174203 0
M  V30 34394 H 3213.98 -1.56818 1.0991 0
M  V30 34395 H 3212.29 -3.91788 -0.0301178 0
M  V30 34396 H 3213.98 -3.99437 0.353675 0
M  V30 34397 H 3210.57 -3.89705 1.78403 0
M  V30 34398 H 3214.76 -4.14233 2.73358 0
M  V30 34399 H 3210.01 -4.54655 4.08777 0
M  V30 34400 H 3214.19 -4.80513 5.04064 0
M  V30 34401 H 3211.81 -5.00397 5.72282 0
M  V30 34402 N 3213.39 -0.62585 -1.4464 0
M  V30 34403 C 3214.32 0.0691778 -2.33398 0
M  V30 34404 C 3215.3 0.840215 -1.479 0
M  V30 34405 O 3216.49 0.807145 -1.76632 0
M  V30 34406 C 3213.62 1.05494 -3.3089 0
M  V30 34407 C 3212.57 0.395893 -4.26165 0
M  V30 34408 C 3211.9 1.49119 -5.13486 0
M  V30 34409 C 3213.2 -0.694524 -5.17662 0
M  V30 34410 H 3214.89 -0.671976 -2.91762 0
M  V30 34411 H 3212.44 -0.324598 -1.40294 0
M  V30 34412 H 3214.39 1.54986 -3.91864 0
M  V30 34413 H 3213.11 1.82692 -2.70724 0
M  V30 34414 H 3211.77 -0.0783336 -3.66516 0
M  V30 34415 H 3211.42 2.25391 -4.49675 0
M  V30 34416 H 3211.12 1.05562 -5.7804 0
M  V30 34417 H 3212.64 1.98802 -5.7733 0
M  V30 34418 H 3214.06 -0.282919 -5.72601 0
M  V30 34419 H 3212.45 -1.05291 -5.90791 0
M  V30 34420 H 3213.52 -1.5638 -4.58992 0
M  V30 34421 N 3214.87 1.53289 -0.36608 0
M  V30 34422 C 3216.12 2.00446 0.224579 0
M  V30 34423 C 3216.43 1.25743 1.49827 0
M  V30 34424 O 3217.64 1.6349 2.16756 0
M  V30 34425 C 3216.09 3.57066 0.450756 0
M  V30 34426 C 3215.7 4.40647 -0.808335 0
M  V30 34427 C 3217.44 4.12577 0.999043 0
M  V30 34428 C 3215.35 5.88821 -0.551715 0
M  V30 34429 H 3214.28 0.748883 0.0876982 0
M  V30 34430 H 3216.93 1.76977 -0.484898 0
M  V30 34431 H 3215.31 3.7669 1.2215 0
M  V30 34432 H 3216.49 4.32796 -1.58191 0
M  V30 34433 H 3214.8 3.96242 -1.27988 0
M  V30 34434 H 3217.4 5.20914 1.20636 0
M  V30 34435 H 3217.74 3.67203 1.96133 0
M  V30 34436 H 3218.28 3.96753 0.288448 0
M  V30 34437 H 3215.01 6.38473 -1.48434 0
M  V30 34438 H 3214.53 5.9952 0.183357 0
M  V30 34439 H 3216.21 6.46757 -0.177421 0
M  V30 34440 N 3216.35 0.0952613 1.57312 0
M  V30 34441 C 3217.76 -0.433843 1.81589 0
M  V30 34442 C 3218.11 -1.68153 1.01088 0
M  V30 34443 O 3217.23 -2.15062 0.240309 0
M  V30 34444 C 3217.83 -0.793873 3.29368 0
M  V30 34445 C 3216.39 -1.26772 3.54409 0
M  V30 34446 C 3215.53 -0.264469 2.76036 0
M  V30 34447 H 3218.48 0.320702 1.55426 0
M  V30 34448 H 3218.51 -1.65339 3.427 0
M  V30 34449 H 3218.02 0.114403 3.87931 0
M  V30 34450 H 3216.12 -2.1937 3.01177 0
M  V30 34451 H 3216.23 -1.22944 4.63057 0
M  V30 34452 H 3214.6 -0.746649 2.4351 0
M  V30 34453 H 3215.38 0.636488 3.37348 0
M  V30 34454 N 3217.82 -1.56587 -0.178432 0
M  V30 34455 C 3219.07 -1.80782 -0.894471 0
M  V30 34456 C 3219.39 -0.671323 -1.83719 0
M  V30 34457 O 3220.59 -0.798016 -2.59507 0
M  V30 34458 C 3219.05 -3.20309 -1.64104 0
M  V30 34459 C 3218.66 -4.41807 -0.74231 0
M  V30 34460 C 3220.4 -3.53802 -2.34572 0
M  V30 34461 C 3218.31 -5.72356 -1.4887 0
M  V30 34462 H 3217.24 -0.674123 -0.337748 0
M  V30 34463 H 3219.89 -1.82906 -0.147488 0
M  V30 34464 H 3218.27 -3.12482 -2.43251 0
M  V30 34465 H 3219.44 -4.60799 0.011696 0
M  V30 34466 H 3217.76 -4.16138 -0.147632 0
M  V30 34467 H 3220.36 -4.48582 -2.90996 0
M  V30 34468 H 3220.7 -2.78341 -3.09567 0
M  V30 34469 H 3221.23 -3.63152 -1.62375 0
M  V30 34470 H 3217.97 -6.50828 -0.781211 0
M  V30 34471 H 3217.49 -5.57355 -2.21621 0
M  V30 34472 H 3219.17 -6.14061 -2.03808 0
M  V30 34473 N 3219.3 0.446741 -1.51136 0
M  V30 34474 C 3220.53 1.21785 -1.66889 0
M  V30 34475 C 3220.94 1.85709 -0.361762 0
M  V30 34476 O 3220.28 1.71095 0.668754 0
M  V30 34477 C 3220.34 2.34989 -2.72067 0
M  V30 34478 C 3220.01 1.91509 -4.14938 0
M  V30 34479 C 3221.01 1.4238 -5.00024 0
M  V30 34480 C 3218.69 1.99487 -4.60988 0
M  V30 34481 C 3220.68 1.01805 -6.29217 0
M  V30 34482 C 3218.37 1.58522 -5.90181 0
M  V30 34483 C 3219.37 1.09762 -6.74123 0
M  V30 34484 O 3219.06 0.69375 -8.00901 0
M  V30 34485 H 3218.79 0.373515 -0.563438 0
M  V30 34486 H 3221.34 0.536783 -1.98262 0
M  V30 34487 H 3219.57 3.06344 -2.35988 0
M  V30 34488 H 3221.26 2.96884 -2.76793 0
M  V30 34489 H 3222.03 1.35619 -4.65653 0
M  V30 34490 H 3217.91 2.36386 -3.95781 0
M  V30 34491 H 3221.45 0.636757 -6.94688 0
M  V30 34492 H 3217.35 1.64951 -6.24069 0
M  V30 34493 H 3218.12 0.820439 -8.14378 0
M  V30 34494 N 3220.78 1.41123 0.701567 0
M  V30 34495 C 3221.73 1.38969 1.80753 0
M  V30 34496 C 3222.71 0.264992 1.58703 0
M  V30 34497 O 3223.91 0.505198 1.69637 0
M  V30 34498 C 3221.03 1.26842 3.19008 0
M  V30 34499 C 3220.12 2.4415 3.46773 0
M  V30 34500 N 3220.51 3.69623 3.45272 0
M  V30 34501 C 3218.81 2.37833 3.77295 0
M  V30 34502 C 3219.51 4.47391 3.71774 0
M  V30 34503 N 3218.49 3.77422 3.91221 0
M  V30 34504 H 3222.29 2.33907 1.77946 0
M  V30 34505 H 3219.8 1.35094 0.901301 0
M  V30 34506 H 3221.8 1.2338 3.98225 0
M  V30 34507 H 3220.46 0.328834 3.23031 0
M  V30 34508 H 3221.47 4.02591 3.25792 0
M  V30 34509 H 3218.15 1.52315 3.88724 0
M  V30 34510 H 3219.54 5.56301 3.768 0
M  V30 34511 N 3222.26 -0.935219 1.26852 0
M  V30 34512 C 3223.19 -2.03878 1.04721 0
M  V30 34513 C 3224.2 -1.62799 0.00570368 0
M  V30 34514 O 3225.39 -1.76791 0.246439 0
M  V30 34515 C 3222.49 -3.34157 0.565019 0
M  V30 34516 C 3221.66 -4.0397 1.67711 0
M  V30 34517 C 3220.72 -5.12522 1.19195 0
M  V30 34518 O 3219.75 -5.36899 1.89018 0
M  V30 34519 N 3220.95 -5.80484 0.0435574 0
M  V30 34520 H 3223.72 -2.23428 1.9975 0
M  V30 34521 H 3221.28 -1.1051 1.18318 0
M  V30 34522 H 3223.27 -4.04077 0.224507 0
M  V30 34523 H 3221.84 -3.11235 -0.291844 0
M  V30 34524 H 3221.06 -3.27885 2.18827 0
M  V30 34525 H 3222.35 -4.47364 2.42369 0
M  V30 34526 H 3221.75 -5.63122 -0.539403 0
M  V30 34527 H 3220.3 -6.51366 -0.237831 0
M  V30 34528 N 3223.74 -1.08752 -1.14065 0
M  V30 34529 C 3224.98 -0.820563 -1.85458 0
M  V30 34530 C 3225.32 0.652098 -1.82924 0
M  V30 34531 O 3224.59 1.47962 -1.26243 0
M  V30 34532 C 3224.87 -1.34758 -3.33935 0
M  V30 34533 C 3224.73 -2.88584 -3.45021 0
M  V30 34534 C 3226.05 -0.975712 -4.29148 0
M  V30 34535 H 3223.16 -0.29955 -0.673379 0
M  V30 34536 H 3225.81 -1.34774 -1.33925 0
M  V30 34537 H 3223.96 -0.899153 -3.77952 0
M  V30 34538 H 3225.63 -3.41824 -3.09765 0
M  V30 34539 H 3223.87 -3.26066 -2.86118 0
M  V30 34540 H 3224.54 -3.20534 -4.49402 0
M  V30 34541 H 3227.02 -1.36235 -3.93166 0
M  V30 34542 H 3225.89 -1.37161 -5.31487 0
M  V30 34543 H 3226.16 0.116878 -4.41945 0
M  V30 34544 N 3225.21 1.31165 -0.873701 0
M  V30 34545 C 3226.18 2.26707 -0.337109 0
M  V30 34546 C 3227.18 1.52363 0.514033 0
M  V30 34547 O 3228.37 1.71183 0.322804 0
M  V30 34548 C 3225.5 3.36898 0.520838 0
M  V30 34549 H 3226.69 2.75684 -1.1806 0
M  V30 34550 H 3224.25 1.42161 -0.649602 0
M  V30 34551 H 3224.98 2.9322 1.38538 0
M  V30 34552 H 3224.77 3.92 -0.0886704 0
M  V30 34553 H 3226.26 4.0804 0.888425 0
M  V30 34554 N 3226.69 0.633512 1.44307 0
M  V30 34555 C 3227.94 0.139158 2.02322 0
M  V30 34556 C 3228.27 -1.23665 1.49735 0
M  V30 34557 O 3227.55 -1.82137 0.682385 0
M  V30 34558 C 3227.83 0.128429 3.59871 0
M  V30 34559 C 3227.68 1.53674 4.22734 0
M  V30 34560 C 3229 -0.545757 4.36703 0
M  V30 34561 H 3226.12 0.0520423 0.73516 0
M  V30 34562 H 3228.76 0.810441 1.71848 0
M  V30 34563 H 3226.91 -0.443195 3.85964 0
M  V30 34564 H 3228.58 2.15744 4.0774 0
M  V30 34565 H 3226.83 2.08991 3.80138 0
M  V30 34566 H 3227.5 1.48125 5.31755 0
M  V30 34567 H 3229.97 -0.0596148 4.16057 0
M  V30 34568 H 3228.85 -0.522461 5.46408 0
M  V30 34569 H 3229.11 -1.61652 4.11486 0
M  V30 34570 N 3228.17 -1.53093 0.374204 0
M  V30 34571 C 3229.1 -2.23612 -0.503025 0
M  V30 34572 C 3230.12 -1.25323 -1.03913 0
M  V30 34573 O 3231.3 -1.51493 -0.944037 0
M  V30 34574 C 3228.4 -2.92701 -1.70819 0
M  V30 34575 C 3227.58 -4.1757 -1.30209 0
M  V30 34576 C 3226.64 -4.69792 -2.37028 0
M  V30 34577 O 3225.66 -5.33258 -1.9906 0
M  V30 34578 N 3226.86 -4.48346 -3.68735 0
M  V30 34579 H 3229.63 -2.9953 0.101066 0
M  V30 34580 H 3227.19 -1.60662 0.199806 0
M  V30 34581 H 3229.18 -3.24543 -2.41773 0
M  V30 34582 H 3227.75 -2.20184 -2.21896 0
M  V30 34583 H 3226.97 -3.91934 -0.422053 0
M  V30 34584 H 3228.26 -4.98731 -1.0072 0
M  V30 34585 H 3227.66 -3.97654 -4.02353 0
M  V30 34586 H 3226.22 -4.84716 -4.35768 0
M  V30 34587 N 3229.65 -0.103603 -1.57259 0
M  V30 34588 C 3230.9 0.558092 -1.94658 0
M  V30 34589 C 3231.22 1.6766 -0.985915 0
M  V30 34590 O 3230.48 1.95699 -0.0070089 0
M  V30 34591 C 3230.78 1.14532 -3.38551 0
M  V30 34592 C 3230.44 0.149738 -4.50651 0
M  V30 34593 C 3229.11 -0.124064 -4.8104 0
M  V30 34594 C 3231.46 -0.529589 -5.18502 0
M  V30 34595 C 3228.79 -1.08374 -5.76604 0
M  V30 34596 C 3231.14 -1.47779 -6.15097 0
M  V30 34597 C 3229.8 -1.75974 -6.43886 0
M  V30 34598 H 3229.07 0.20422 -0.712303 0
M  V30 34599 H 3231.72 -0.181242 -1.9064 0
M  V30 34600 H 3230.02 1.96109 -3.39188 0
M  V30 34601 H 3231.72 1.66514 -3.64793 0
M  V30 34602 H 3228.31 0.373329 -4.26971 0
M  V30 34603 H 3232.49 -0.331208 -4.95194 0
M  V30 34604 H 3227.75 -1.3091 -5.97221 0
M  V30 34605 H 3231.92 -2.00995 -6.66764 0
M  V30 34606 H 3229.55 -2.50494 -7.17744 0
M  V30 34607 N 3231.13 1.56679 0.170126 0
M  V30 34608 C 3232.09 1.95619 1.1944 0
M  V30 34609 C 3233.09 0.839984 1.37116 0
M  V30 34610 O 3234.28 1.10702 1.34502 0
M  V30 34611 C 3231.41 2.25204 2.55922 0
M  V30 34612 H 3232.6 2.87278 0.8609 0
M  V30 34613 H 3230.16 1.50755 0.412619 0
M  V30 34614 H 3230.89 1.36263 2.94284 0
M  V30 34615 H 3230.68 3.06566 2.44458 0
M  V30 34616 H 3232.17 2.56248 3.29737 0
M  V30 34617 N 3232.6 -0.43872 1.5137 0
M  V30 34618 C 3233.88 -1.19941 1.5451 0
M  V30 34619 C 3234.26 -2.08833 0.308562 0
M  V30 34620 O 3233.61 -2.17306 -0.706422 0
M  V30 34621 C 3233.82 -2.00246 2.85837 0
M  V30 34622 C 3235.17 -2.57335 3.37734 0
M  V30 34623 O 3236.19 -2.10458 2.87378 0
M  V30 34624 O 3235.05 -3.42828 4.25595 0
M  V30 34625 H 3232.14 -0.545996 0.621142 0
M  V30 34626 H 3234.69 -0.447902 1.63682 0
M  V30 34627 H 3233.46 -1.34948 3.67294 0
M  V30 34628 H 3233.09 -2.82465 2.7982 0
M  V30 34629 N 3234.08 -1.41493 -0.694073 0
M  V30 34630 C 3235.01 -1.46232 -1.82039 0
M  V30 34631 C 3235.99 -0.320832 -1.67047 0
M  V30 34632 O 3237.18 -0.532483 -1.86757 0
M  V30 34633 C 3234.31 -1.34525 -3.20188 0
M  V30 34634 C 3233.26 -2.46501 -3.49887 0
M  V30 34635 C 3232.59 -2.19859 -4.87408 0
M  V30 34636 C 3233.89 -3.8884 -3.48713 0
M  V30 34637 H 3235.58 -2.40496 -1.78331 0
M  V30 34638 H 3233.13 -1.15755 -0.856546 0
M  V30 34639 H 3235.08 -1.36452 -3.98696 0
M  V30 34640 H 3233.81 -0.367463 -3.24526 0
M  V30 34641 H 3232.46 -2.43859 -2.7373 0
M  V30 34642 H 3232.11 -1.20419 -4.88373 0
M  V30 34643 H 3231.81 -2.94894 -5.08243 0
M  V30 34644 H 3233.34 -2.23504 -5.68224 0
M  V30 34645 H 3234.75 -3.93189 -4.17223 0
M  V30 34646 H 3233.15 -4.6357 -3.81081 0
M  V30 34647 H 3234.22 -4.16885 -2.47658 0
M  V30 34648 N 3235.56 0.928479 -1.27346 0
M  V30 34649 C 3236.51 2.01514 -1.0666 0
M  V30 34650 C 3237.49 1.60899 0.00513791 0
M  V30 34651 O 3238.69 1.7571 -0.213308 0
M  V30 34652 C 3235.82 3.35772 -0.714994 0
M  V30 34653 C 3234.9 3.82832 -1.82483 0
M  V30 34654 N 3235.29 4.02412 -3.06428 0
M  V30 34655 C 3233.59 4.11861 -1.71133 0
M  V30 34656 C 3234.29 4.41591 -3.78645 0
M  V30 34657 N 3233.27 4.49018 -3.06404 0
M  V30 34658 H 3237.07 2.14681 -2.00722 0
M  V30 34659 H 3234.58 1.11526 -1.1805 0
M  V30 34660 H 3236.58 4.13284 -0.547913 0
M  V30 34661 H 3235.24 3.23967 0.218012 0
M  V30 34662 H 3236.25 3.88743 -3.42198 0
M  V30 34663 H 3232.93 4.08774 -0.849103 0
M  V30 34664 H 3234.32 4.64826 -4.85167 0
M  V30 34665 N 3237.04 1.09355 1.13486 0
M  V30 34666 C 3238.32 0.741591 1.80997 0
M  V30 34667 C 3238.7 -0.77347 1.9642 0
M  V30 34668 O 3238.04 -1.69561 1.53171 0
M  V30 34669 C 3238.25 1.47978 3.16075 0
M  V30 34670 C 3239.6 1.64511 3.91435 0
M  V30 34671 O 3240.63 1.44223 3.25696 0
M  V30 34672 O 3239.48 1.98063 5.09346 0
M  V30 34673 H 3236.58 0.266311 0.782948 0
M  V30 34674 H 3239.12 1.19571 1.20419 0
M  V30 34675 H 3237.9 2.51142 3.00072 0
M  V30 34676 H 3237.52 1.01778 3.84353 0
M  V30 34677 N 3238.52 -1.307 0.880644 0
M  V30 34678 C 3239.75 -2.00472 0.511717 0
M  V30 34679 C 3240.16 -1.66041 -0.898654 0
M  V30 34680 O 3239.52 -0.895246 -1.59033 0
M  V30 34681 C 3239.57 -3.55203 0.671786 0
M  V30 34682 O 3239.29 -3.88406 2.02663 0
M  V30 34683 C 3240.79 -4.42248 0.305278 0
M  V30 34684 H 3238.01 -0.641047 0.198242 0
M  V30 34685 H 3240.55 -1.66685 1.18475 0
M  V30 34686 H 3238.71 -3.87372 0.0461747 0
M  V30 34687 H 3239.12 -4.83113 2.04211 0
M  V30 34688 H 3240.6 -5.50011 0.468192 0
M  V30 34689 H 3241.07 -4.32638 -0.75638 0
M  V30 34690 H 3241.68 -4.15515 0.907032 0
M  V30 34691 N 3240 -0.641156 -1.43969 0
M  V30 34692 C 3241.41 -0.23087 -1.85267 0
M  V30 34693 C 3241.76 1.21995 -1.53661 0
M  V30 34694 O 3240.88 1.92958 -0.979606 0
M  V30 34695 C 3241.48 -0.41223 -3.36283 0
M  V30 34696 C 3240.04 -0.0563666 -3.76358 0
M  V30 34697 C 3239.18 -0.720856 -2.67767 0
M  V30 34698 H 3242.13 -0.845647 -1.34293 0
M  V30 34699 H 3242.16 0.345869 -3.78925 0
M  V30 34700 H 3241.67 -1.46824 -3.59255 0
M  V30 34701 H 3239.77 0.997519 -3.58999 0
M  V30 34702 H 3239.88 -0.473419 -4.76755 0
M  V30 34703 H 3238.25 -0.155209 -2.54227 0
M  V30 34704 H 3239.03 -1.77966 -2.9357 0
M  V30 34705 N 3241.47 1.52892 -0.382318 0
M  V30 34706 C 3242.72 2.01091 0.201699 0
M  V30 34707 C 3243.04 1.27082 1.47902 0
M  V30 34708 O 3242.31 0.388864 1.92002 0
M  V30 34709 H 3240.89 0.742966 0.0775242 0
M  V30 34710 H 3243.55 1.88044 -0.512402 0
M  V30 34711 H 3242.65 3.09303 0.416864 0
M  V30 34712 N 3242.95 0.111941 1.57202 0
M  V30 34713 C 3244.37 -0.244674 1.57713 0
M  V30 34714 C 3244.57 -1.67223 1.12422 0
M  V30 34715 O 3243.62 -2.3921 0.808371 0
M  V30 34716 C 3244.94 -0.0177761 3.00695 0
M  V30 34717 C 3246.48 -0.0842231 3.12887 0
M  V30 34718 C 3246.96 0.114893 4.57856 0
M  V30 34719 N 3248.45 0.0606237 4.6316 0
M  V30 34720 C 3249.19 0.189694 5.73086 0
M  V30 34721 N 3248.68 0.374542 6.91787 0
M  V30 34722 N 3250.47 0.129768 5.6195 0
M  V30 34723 H 3242.63 1.04446 1.84945 0
M  V30 34724 H 3244.89 0.410715 0.854411 0
M  V30 34725 H 3244.59 0.968861 3.38092 0
M  V30 34726 H 3244.47 -0.75275 3.69613 0
M  V30 34727 H 3246.86 -1.06138 2.75352 0
M  V30 34728 H 3246.94 0.682517 2.46527 0
M  V30 34729 H 3246.58 1.08899 4.96088 0
M  V30 34730 H 3246.51 -0.671747 5.22298 0
M  V30 34731 H 3249 -0.0790192 3.77817 0
M  V30 34732 H 3249.31 0.464084 7.71405 0
M  V30 34733 H 3247.66 0.410425 6.93787 0
M  V30 34734 H 3250.85 -0.0136292 4.68098 0
M  V30 34735 H 3251.02 0.233802 6.47578 0
M  V30 34736 N 3244.43 -1.56767 -0.161814 0
M  V30 34737 C 3245.36 -1.92263 -1.22924 0
M  V30 34738 C 3246.34 -0.786587 -1.42308 0
M  V30 34739 O 3247.52 -1.0408 -1.57161 0
M  V30 34740 C 3244.65 -2.18181 -2.59065 0
M  V30 34741 C 3243.7 -3.40853 -2.56362 0
M  V30 34742 S 3244.53 -4.9491 -2.04509 0
M  V30 34743 C 3245.69 -5.23934 -3.42409 0
M  V30 34744 H 3245.92 -2.825 -0.926327 0
M  V30 34745 H 3243.45 -1.4998 -0.366796 0
M  V30 34746 H 3245.41 -2.33794 -3.37417 0
M  V30 34747 H 3244.07 -1.28634 -2.86552 0
M  V30 34748 H 3243.26 -3.56219 -3.56545 0
M  V30 34749 H 3242.87 -3.24405 -1.86111 0
M  V30 34750 H 3245.16 -5.16494 -4.38452 0
M  V30 34751 H 3246.1 -6.25493 -3.31909 0
M  V30 34752 H 3246.51 -4.5148 -3.3886 0
M  V30 34753 N 3245.91 0.430686 -1.51601 0
M  V30 34754 C 3246.84 1.54174 -1.69597 0
M  V30 34755 C 3247.85 1.52249 -0.576545 0
M  V30 34756 O 3249.04 1.56905 -0.851067 0
M  V30 34757 C 3246.14 2.93089 -1.70153 0
M  V30 34758 C 3245.31 3.19445 -2.98787 0
M  V30 34759 C 3244.37 4.38118 -2.91443 0
M  V30 34760 O 3243.4 4.36447 -3.6538 0
M  V30 34761 N 3244.6 5.42052 -2.0775 0
M  V30 34762 H 3247.37 1.39139 -2.65444 0
M  V30 34763 H 3244.93 0.619714 -1.4957 0
M  V30 34764 H 3246.92 3.70511 -1.628 0
M  V30 34765 H 3245.49 3.01688 -0.81872 0
M  V30 34766 H 3244.71 2.30261 -3.19958 0
M  V30 34767 H 3246 3.33885 -3.83925 0
M  V30 34768 H 3245.4 5.46248 -1.47068 0
M  V30 34769 H 3243.95 6.18301 -2.0627 0
M  V30 34770 N 3247.39 1.4186 0.686559 0
M  V30 34771 C 3248.3 1.46794 1.82999 0
M  V30 34772 C 3249.31 0.357705 1.70284 0
M  V30 34773 O 3250.49 0.606814 1.92041 0
M  V30 34774 C 3247.55 1.35667 3.19054 0
M  V30 34775 C 3246.61 2.57083 3.43812 0
M  V30 34776 C 3245.85 2.46477 4.73376 0
M  V30 34777 O 3246.07 1.49423 5.50481 0
M  V30 34778 O 3245 3.36399 4.99118 0
M  V30 34779 H 3248.83 2.4328 1.81792 0
M  V30 34780 H 3246.41 1.23495 0.84079 0
M  V30 34781 H 3248.3 1.3178 4.00265 0
M  V30 34782 H 3246.97 0.423008 3.20924 0
M  V30 34783 H 3245.88 2.66546 2.62496 0
M  V30 34784 H 3247.21 3.49308 3.46763 0
M  V30 34785 N 3248.86 -0.921712 1.27837 0
M  V30 34786 C 3249.81 -2.02312 1.11079 0
M  V30 34787 C 3250.78 -1.66097 0.0101487 0
M  V30 34788 O 3251.97 -1.90009 0.173598 0
M  V30 34789 C 3249.11 -3.36393 0.77031 0
M  V30 34790 C 3248.22 -3.85527 1.94919 0
M  V30 34791 C 3247.35 -5.08082 1.55005 0
M  V30 34792 C 3246.39 -5.49527 2.69605 0
M  V30 34793 N 3245.53 -6.63276 2.30239 0
M  V30 34794 H 3250.37 -2.15979 2.05322 0
M  V30 34795 H 3247.91 -1.05798 1.02202 0
M  V30 34796 H 3249.86 -4.13509 0.553697 0
M  V30 34797 H 3248.49 -3.22517 -0.135181 0
M  V30 34798 H 3247.55 -3.04637 2.27816 0
M  V30 34799 H 3248.86 -4.12209 2.80865 0
M  V30 34800 H 3248.01 -5.92717 1.29503 0
M  V30 34801 H 3246.75 -4.83189 0.661761 0
M  V30 34802 H 3245.76 -4.63437 2.95814 0
M  V30 34803 H 3246.98 -5.76411 3.59064 0
M  V30 34804 H 3244.93 -6.40029 1.43869 0
M  V30 34805 H 3244.84 -6.89643 3.09723 0
M  V30 34806 H 3246.11 -7.51237 2.08 0
M  V30 34807 N 3250.34 -1.09956 -1.12905 0
M  V30 34808 C 3251.59 -0.837287 -1.8394 0
M  V30 34809 C 3251.91 0.638951 -1.84235 0
M  V30 34810 O 3251.18 1.46376 -1.30196 0
M  V30 34811 H 3249.76 -0.306755 -0.68111 0
M  V30 34812 H 3252.42 -1.38882 -1.3674 0
M  V30 34813 H 3251.52 -1.1957 -2.88287 0
M  V30 34814 N 3251.82 1.30231 -0.887563 0
M  V30 34815 C 3253.07 1.96333 -0.508065 0
M  V30 34816 C 3253.4 1.69886 0.940875 0
M  V30 34817 O 3252.67 1.00503 1.66522 0
M  V30 34818 C 3252.96 3.51403 -0.786627 0
M  V30 34819 C 3252.81 3.87356 -2.28638 0
M  V30 34820 C 3254.13 4.39302 -0.26488 0
M  V30 34821 H 3251.25 0.713126 -0.186064 0
M  V30 34822 H 3253.89 1.54058 -1.11203 0
M  V30 34823 H 3252.04 3.87543 -0.272591 0
M  V30 34824 H 3253.71 3.61226 -2.86903 0
M  V30 34825 H 3251.95 3.35332 -2.752 0
M  V30 34826 H 3252.63 4.95543 -2.43189 0
M  V30 34827 H 3255.1 4.10086 -0.704881 0
M  V30 34828 H 3253.98 5.46717 -0.489094 0
M  V30 34829 H 3254.24 4.34163 0.833978 0
M  V30 34830 N 3253.3 0.648782 1.43627 0
M  V30 34831 C 3254.55 0.157728 2.01082 0
M  V30 34832 C 3254.86 -1.23405 1.51758 0
M  V30 34833 O 3256.07 -1.82008 2.01458 0
M  V30 34834 C 3254.52 0.231181 3.59157 0
M  V30 34835 C 3254.13 1.62538 4.17475 0
M  V30 34836 C 3255.87 -0.202499 4.24017 0
M  V30 34837 C 3253.78 1.653 5.67829 0
M  V30 34838 H 3252.71 0.0552029 0.751976 0
M  V30 34839 H 3255.36 0.810168 1.64647 0
M  V30 34840 H 3253.74 -0.488686 3.92973 0
M  V30 34841 H 3254.92 2.37024 3.95166 0
M  V30 34842 H 3253.23 2.00465 3.64969 0
M  V30 34843 H 3255.83 -0.201646 5.3432 0
M  V30 34844 H 3256.17 -1.23312 3.97618 0
M  V30 34845 H 3256.71 0.465467 3.95067 0
M  V30 34846 H 3253.45 2.66257 5.98989 0
M  V30 34847 H 3252.97 0.951321 5.92208 0
M  V30 34848 H 3254.64 1.39476 6.31788 0
M  V30 34849 N 3254.78 -1.52688 0.390421 0
M  V30 34850 C 3256 -2.06491 -0.193977 0
M  V30 34851 C 3256.43 -1.26016 -1.39648 0
M  V30 34852 O 3255.78 -0.285499 -1.79038 0
M  V30 34853 C 3255.83 -3.56515 -0.541244 0
M  V30 34854 O 3254.94 -3.78603 -1.63503 0
M  V30 34855 H 3254.28 -0.663624 -0.0223491 0
M  V30 34856 H 3256.81 -1.96838 0.558214 0
M  V30 34857 H 3256.82 -3.99975 -0.805231 0
M  V30 34858 H 3255.49 -4.14525 0.337901 0
M  V30 34859 H 3254.07 -3.47032 -1.36467 0
M  V30 34860 N 3256.25 -0.120276 -1.5714 0
M  V30 34861 C 3257.53 0.581042 -1.86771 0
M  V30 34862 C 3257.91 1.8473 -1.02166 0
M  V30 34863 O 3257.26 2.28277 -0.100937 0
M  V30 34864 C 3257.47 0.872257 -3.37924 0
M  V30 34865 C 3258.82 1.22476 -4.06552 0
M  V30 34866 O 3259.84 0.962478 -3.4295 0
M  V30 34867 O 3258.7 1.71707 -5.18824 0
M  V30 34868 H 3255.79 0.293349 -0.773224 0
M  V30 34869 H 3258.34 -0.154876 -1.68992 0
M  V30 34870 H 3257.11 -0.0250104 -3.91292 0
M  V30 34871 H 3256.74 1.66329 -3.61138 0
M  V30 34872 N 3257.73 1.56851 0.153498 0
M  V30 34873 C 3258.98 1.82182 0.865596 0
M  V30 34874 C 3259.29 0.700466 1.82628 0
M  V30 34875 O 3260.5 0.839201 2.58205 0
M  V30 34876 C 3258.96 3.22879 1.58987 0
M  V30 34877 C 3258.56 4.42932 0.671928 0
M  V30 34878 C 3260.31 3.5749 2.28914 0
M  V30 34879 C 3258.22 5.74652 1.39745 0
M  V30 34880 H 3257.15 0.679411 0.326981 0
M  V30 34881 H 3259.8 1.83118 0.118371 0
M  V30 34882 H 3258.18 3.16312 2.38249 0
M  V30 34883 H 3259.35 4.60722 -0.0850035 0
M  V30 34884 H 3257.67 4.1632 0.0814094 0
M  V30 34885 H 3260.26 4.53155 2.83822 0
M  V30 34886 H 3260.61 2.83231 3.051 0
M  V30 34887 H 3261.14 3.65689 1.56577 0
M  V30 34888 H 3257.88 6.51989 0.677571 0
M  V30 34889 H 3257.4 5.6081 2.12726 0
M  V30 34890 H 3259.08 6.17226 1.94013 0
M  V30 34891 N 3259.21 -0.42264 1.51827 0
M  V30 34892 C 3260.14 -1.52114 1.77154 0
M  V30 34893 C 3261.12 -1.58323 0.621922 0
M  V30 34894 O 3262.31 -1.73815 0.866148 0
M  V30 34895 C 3259.44 -2.90065 1.90997 0
M  V30 34896 C 3258.39 -2.98712 3.06521 0
M  V30 34897 C 3257.72 -4.38786 3.05567 0
M  V30 34898 C 3259.02 -2.71437 4.46227 0
M  V30 34899 H 3260.71 -1.3117 2.69137 0
M  V30 34900 H 3258.26 -0.629584 1.29508 0
M  V30 34901 H 3260.21 -3.66886 2.07298 0
M  V30 34902 H 3258.93 -3.12272 0.956743 0
M  V30 34903 H 3257.59 -2.24333 2.89949 0
M  V30 34904 H 3257.24 -4.57982 2.07993 0
M  V30 34905 H 3256.94 -4.45498 3.83151 0
M  V30 34906 H 3258.46 -5.17561 3.2398 0
M  V30 34907 H 3259.88 -3.37986 4.63075 0
M  V30 34908 H 3258.28 -2.89542 5.25628 0
M  V30 34909 H 3259.35 -1.66952 4.55253 0
M  V30 34910 N 3260.69 -1.42222 -0.679027 0
M  V30 34911 C 3261.97 -1.3295 -1.4347 0
M  V30 34912 C 3262.35 0.0351318 -2.11071 0
M  V30 34913 O 3261.69 1.05039 -2.02926 0
M  V30 34914 C 3261.9 -2.4947 -2.44061 0
M  V30 34915 C 3263.25 -2.91393 -3.08829 0
M  V30 34916 O 3264.28 -2.4933 -2.54388 0
M  V30 34917 O 3263.13 -3.64182 -4.07472 0
M  V30 34918 H 3260.23 -0.524089 -0.639734 0
M  V30 34919 H 3262.77 -1.5422 -0.708107 0
M  V30 34920 H 3261.55 -3.40461 -1.92878 0
M  V30 34921 H 3261.17 -2.30163 -3.24208 0
M  V30 34922 N 3262.17 0.91492 -1.28324 0
M  V30 34923 C 3263.41 1.66668 -1.1659 0
M  V30 34924 C 3263.77 1.90308 0.282927 0
M  V30 34925 O 3263.06 1.49153 1.20266 0
M  V30 34926 C 3263.25 3.0292 -1.89668 0
M  V30 34927 C 3263.08 2.92578 -3.41509 0
M  V30 34928 C 3261.85 2.94166 -4.10846 0
M  V30 34929 C 3264.05 2.70737 -4.37271 0
M  V30 34930 N 3262.03 2.74399 -5.49161 0
M  V30 34931 C 3263.4 2.59802 -5.62941 0
M  V30 34932 C 3265.46 2.55725 -4.27211 0
M  V30 34933 C 3264.16 2.35385 -6.79696 0
M  V30 34934 C 3266.19 2.32687 -5.43701 0
M  V30 34935 C 3265.55 2.22505 -6.68334 0
M  V30 34936 H 3261.65 0.616134 -0.481563 0
M  V30 34937 H 3264.23 1.08062 -1.61959 0
M  V30 34938 H 3262.4 3.59615 -1.46735 0
M  V30 34939 H 3264.14 3.6711 -1.70329 0
M  V30 34940 H 3260.89 3.04878 -3.62417 0
M  V30 34941 H 3261.32 2.67611 -6.21863 0
M  V30 34942 H 3265.96 2.62348 -3.31562 0
M  V30 34943 H 3263.68 2.275 -7.75415 0
M  V30 34944 H 3267.26 2.21938 -5.37806 0
M  V30 34945 H 3266.14 2.04922 -7.56952 0
M  V30 34946 N 3263.64 1.10553 1.1232 0
M  V30 34947 C 3264.59 0.755463 2.18086 0
M  V30 34948 C 3265.56 -0.268776 1.63911 0
M  V30 34949 O 3266.75 -0.14778 1.90227 0
M  V30 34950 C 3263.89 0.194773 3.4455 0
M  V30 34951 C 3263 1.27446 4.12773 0
M  V30 34952 C 3262.13 0.675286 5.2689 0
M  V30 34953 C 3261.17 1.73547 5.86982 0
M  V30 34954 N 3260.31 1.15647 6.9251 0
M  V30 34955 H 3265.15 1.66159 2.47376 0
M  V30 34956 H 3262.69 0.829945 1.21451 0
M  V30 34957 H 3264.65 -0.148202 4.16937 0
M  V30 34958 H 3263.28 -0.674583 3.15673 0
M  V30 34959 H 3262.33 1.73454 3.38553 0
M  V30 34960 H 3263.64 2.07695 4.53502 0
M  V30 34961 H 3262.79 0.28183 6.06045 0
M  V30 34962 H 3261.53 -0.158623 4.87442 0
M  V30 34963 H 3260.54 2.13834 5.06513 0
M  V30 34964 H 3261.76 2.57224 6.285 0
M  V30 34965 H 3259.71 0.344043 6.55097 0
M  V30 34966 H 3259.63 1.89578 7.31844 0
M  V30 34967 H 3260.89 0.789599 7.75491 0
M  V30 34968 N 3265.12 -1.29758 0.894457 0
M  V30 34969 C 3266.35 -1.99918 0.532951 0
M  V30 34970 C 3266.77 -1.66985 -0.880993 0
M  V30 34971 O 3266.12 -0.912063 -1.58075 0
M  V30 34972 C 3266.17 -3.54471 0.709422 0
M  V30 34973 O 3265.89 -3.86235 2.06771 0
M  V30 34974 C 3267.4 -4.41899 0.352167 0
M  V30 34975 H 3264.62 -0.638908 0.20503 0
M  V30 34976 H 3267.16 -1.65419 1.20236 0
M  V30 34977 H 3265.31 -3.87302 0.0872582 0
M  V30 34978 H 3265.73 -4.8092 2.09324 0
M  V30 34979 H 3267.2 -5.49483 0.526502 0
M  V30 34980 H 3267.68 -4.33416 -0.710451 0
M  V30 34981 H 3268.29 -4.1453 0.951052 0
M  V30 34982 N 3266.6 -0.65639 -1.4328 0
M  V30 34983 C 3267.83 -0.177281 -2.06641 0
M  V30 34984 C 3268.25 1.14943 -1.48895 0
M  V30 34985 O 3267.61 1.71079 -0.60013 0
M  V30 34986 C 3267.66 -0.103054 -3.60453 0
M  V30 34987 O 3266.76 0.933825 -4.01688 0
M  V30 34988 H 3266.1 -0.0963255 -0.656976 0
M  V30 34989 H 3268.63 -0.90021 -1.83732 0
M  V30 34990 H 3268.64 0.0792193 -4.07923 0
M  V30 34991 H 3267.32 -1.07154 -4.01859 0
M  V30 34992 H 3265.89 0.724083 -3.65802 0
M  V30 34993 N 3268.08 1.52478 -0.398513 0
M  V30 34994 C 3269.5 1.59525 -0.0488916 0
M  V30 34995 C 3269.7 1.41199 1.43753 0
M  V30 34996 O 3268.75 1.23361 2.20314 0
M  V30 34997 C 3270.06 2.95915 -0.534314 0
M  V30 34998 C 3271.61 3.09119 -0.491368 0
M  V30 34999 C 3272.09 4.47973 -0.953127 0
M  V30 35000 N 3273.58 4.54183 -0.909514 0
M  V30 35001 C 3274.31 5.59874 -1.23811 0
M  V30 35002 N 3273.81 6.73167 -1.63764 0
M  V30 35003 N 3275.6 5.50026 -1.15877 0
M  V30 35004 H 3267.75 1.62639 -1.36611 0
M  V30 35005 H 3270.02 0.764534 -0.560528 0
M  V30 35006 H 3269.72 3.14571 -1.57282 0
M  V30 35007 H 3269.6 3.7715 0.0617124 0
M  V30 35008 H 3271.98 2.90153 0.538072 0
M  V30 35009 H 3272.06 2.29816 -1.12331 0
M  V30 35010 H 3271.71 4.6768 -1.98084 0
M  V30 35011 H 3271.64 5.25756 -0.298099 0
M  V30 35012 H 3274.13 3.72852 -0.615634 0
M  V30 35013 H 3274.44 7.4979 -1.87177 0
M  V30 35014 H 3272.79 6.74474 -1.67659 0
M  V30 35015 H 3275.98 4.60399 -0.845583 0
M  V30 35016 H 3276.15 6.32291 -1.41817 0
M  V30 35017 N 3269.56 0.128608 1.57074 0
M  V30 35018 C 3270.79 -0.534509 1.99876 0
M  V30 35019 C 3271.2 -1.59611 1.00846 0
M  V30 35020 O 3270.56 -1.825 0.00272155 0
M  V30 35021 C 3270.61 -1.15192 3.42656 0
M  V30 35022 O 3270.33 -0.132746 4.37899 0
M  V30 35023 C 3271.83 -1.89743 4.0064 0
M  V30 35024 H 3269.05 -0.140733 0.656076 0
M  V30 35025 H 3271.59 0.217777 2.03337 0
M  V30 35026 H 3269.75 -1.85493 3.40104 0
M  V30 35027 H 3270.16 -0.58259 5.21254 0
M  V30 35028 H 3271.64 -2.28257 5.02596 0
M  V30 35029 H 3272.11 -2.77634 3.40318 0
M  V30 35030 H 3272.72 -1.24183 4.06766 0
M  V30 35031 N 3271.04 -1.5693 -0.145178 0
M  V30 35032 C 3272.28 -1.83449 -0.857484 0
M  V30 35033 C 3272.61 -0.709771 -1.81087 0
M  V30 35034 O 3271.87 0.301063 -1.9337 0
M  V30 35035 C 3272.16 -3.16308 -1.66385 0
M  V30 35036 C 3271.83 -4.42679 -0.857093 0
M  V30 35037 C 3270.49 -4.76998 -0.634528 0
M  V30 35038 C 3272.84 -5.20376 -0.293014 0
M  V30 35039 C 3270.17 -5.86474 0.162796 0
M  V30 35040 C 3272.52 -6.30689 0.491359 0
M  V30 35041 C 3271.19 -6.63557 0.724485 0
M  V30 35042 H 3270.46 -0.671287 -0.313775 0
M  V30 35043 H 3273.11 -1.91117 -0.121041 0
M  V30 35044 H 3271.41 -3.04098 -2.47046 0
M  V30 35045 H 3273.11 -3.34042 -2.21849 0
M  V30 35046 H 3269.7 -4.15775 -1.04063 0
M  V30 35047 H 3273.88 -4.94235 -0.452239 0
M  V30 35048 H 3269.14 -6.10381 0.352895 0
M  V30 35049 H 3273.31 -6.90087 0.93557 0
M  V30 35050 H 3270.94 -7.48222 1.34416 0
M  V30 35051 N 3272.51 0.414582 -1.52049 0
M  V30 35052 C 3273.76 1.16203 -1.6584 0
M  V30 35053 C 3274.09 1.90638 -0.385657 0
M  V30 35054 O 3273.34 1.85242 0.631182 0
M  V30 35055 C 3273.64 2.18617 -2.82739 0
M  V30 35056 C 3273.31 1.61029 -4.21165 0
M  V30 35057 C 3271.97 1.45048 -4.58819 0
M  V30 35058 C 3274.32 1.1892 -5.07452 0
M  V30 35059 C 3271.65 0.854659 -5.80442 0
M  V30 35060 C 3274 0.607575 -6.29676 0
M  V30 35061 C 3272.67 0.434851 -6.66082 0
M  V30 35062 H 3271.94 0.425219 -0.606853 0
M  V30 35063 H 3274.58 0.449976 -1.86138 0
M  V30 35064 H 3272.89 2.95947 -2.56754 0
M  V30 35065 H 3274.59 2.76313 -2.90606 0
M  V30 35066 H 3271.18 1.7445 -3.91491 0
M  V30 35067 H 3275.36 1.30078 -4.7895 0
M  V30 35068 H 3270.62 0.708803 -6.07277 0
M  V30 35069 H 3274.79 0.272866 -6.95865 0
M  V30 35070 H 3272.42 -0.0289452 -7.60194 0
M  V30 35071 N 3273.99 1.4258 0.671475 0
M  V30 35072 C 3275.22 1.46418 1.45757 0
M  V30 35073 C 3275.63 0.0750175 1.89051 0
M  V30 35074 O 3274.97 -0.921268 1.58929 0
M  V30 35075 C 3275.03 2.33149 2.73645 0
M  V30 35076 C 3274.7 3.80972 2.52407 0
M  V30 35077 C 3275.7 4.72542 2.16795 0
M  V30 35078 C 3273.38 4.25273 2.67298 0
M  V30 35079 C 3275.37 6.06405 1.96347 0
M  V30 35080 C 3273.06 5.59194 2.46465 0
M  V30 35081 C 3274.06 6.49576 2.11044 0
M  V30 35082 O 3273.75 7.81023 1.90414 0
M  V30 35083 H 3273.48 0.500053 0.454887 0
M  V30 35084 H 3276.03 1.87788 0.832165 0
M  V30 35085 H 3274.26 1.86635 3.3868 0
M  V30 35086 H 3275.95 2.28404 3.35539 0
M  V30 35087 H 3276.72 4.39599 2.04884 0
M  V30 35088 H 3272.6 3.55211 2.93847 0
M  V30 35089 H 3276.14 6.76914 1.68623 0
M  V30 35090 H 3272.04 5.91709 2.57975 0
M  V30 35091 H 3272.81 7.92416 2.04986 0
M  V30 35092 N 3275.47 -0.908102 1.28807 0
M  V30 35093 C 3276.72 -1.66048 1.17472 0
M  V30 35094 C 3277.07 -1.90456 -0.272831 0
M  V30 35095 O 3276.36 -1.49789 -1.19473 0
M  V30 35096 C 3276.56 -3.0191 1.91272 0
M  V30 35097 C 3276.39 -2.90763 3.43056 0
M  V30 35098 C 3275.16 -2.91983 4.12401 0
M  V30 35099 C 3277.35 -2.68414 4.38701 0
M  V30 35100 N 3275.34 -2.71483 5.50609 0
M  V30 35101 C 3276.71 -2.56813 5.64311 0
M  V30 35102 C 3278.76 -2.53456 4.28561 0
M  V30 35103 C 3277.47 -2.31777 6.80935 0
M  V30 35104 C 3279.49 -2.29801 5.44927 0
M  V30 35105 C 3278.85 -2.18958 6.69505 0
M  V30 35106 H 3274.95 -0.613571 0.484824 0
M  V30 35107 H 3277.54 -1.07201 1.6253 0
M  V30 35108 H 3275.71 -3.58832 1.48641 0
M  V30 35109 H 3277.44 -3.66202 1.72274 0
M  V30 35110 H 3274.19 -3.02952 3.64029 0
M  V30 35111 H 3274.62 -2.64309 6.23273 0
M  V30 35112 H 3279.26 -2.60586 3.32948 0
M  V30 35113 H 3276.98 -2.23385 7.76611 0
M  V30 35114 H 3280.56 -2.19082 5.38975 0
M  V30 35115 H 3279.44 -2.00905 7.58028 0
M  V30 35116 N 3276.95 -1.11147 -1.11732 0
M  V30 35117 C 3278.36 -0.84476 -1.3541 0
M  V30 35118 C 3278.56 0.532077 -1.94348 0
M  V30 35119 O 3277.62 1.2835 -2.17446 0
M  V30 35120 C 3278.93 -1.95041 -2.28866 0
M  V30 35121 C 3280.48 -1.97972 -2.42438 0
M  V30 35122 C 3280.96 -3.07731 -3.39213 0
M  V30 35123 N 3282.45 -3.07086 -3.46775 0
M  V30 35124 C 3283.18 -3.88653 -4.21588 0
M  V30 35125 N 3282.68 -4.80176 -4.99403 0
M  V30 35126 N 3284.47 -3.76842 -4.17069 0
M  V30 35127 H 3276.62 -1.99883 -0.718377 0
M  V30 35128 H 3278.88 -0.869043 -0.378771 0
M  V30 35129 H 3278.59 -2.94179 -1.92747 0
M  V30 35130 H 3278.46 -1.84395 -3.29057 0
M  V30 35131 H 3280.85 -0.99461 -2.77834 0
M  V30 35132 H 3280.93 -2.12694 -1.4211 0
M  V30 35133 H 3280.58 -4.06466 -3.04546 0
M  V30 35134 H 3280.51 -2.90249 -4.39389 0
M  V30 35135 H 3283 -2.40773 -2.91268 0
M  V30 35136 H 3283.31 -5.38956 -5.53847 0
M  V30 35137 H 3281.66 -4.84199 -4.98574 0
M  V30 35138 H 3284.85 -3.04688 -3.55363 0
M  V30 35139 H 3285.02 -4.40645 -4.75117 0
M  V30 35140 N 3278.43 1.29282 -0.901326 0
M  V30 35141 C 3279.36 2.30101 -0.396949 0
M  V30 35142 C 3280.34 1.61669 0.528891 0
M  V30 35143 O 3281.52 1.89167 0.439273 0
M  V30 35144 C 3278.65 3.4527 0.374945 0
M  V30 35145 C 3277.61 4.25514 -0.460615 0
M  V30 35146 C 3276.93 5.32896 0.438873 0
M  V30 35147 C 3278.23 4.93466 -1.71139 0
M  V30 35148 H 3279.93 2.72539 -1.23948 0
M  V30 35149 H 3277.47 1.31021 -0.597451 0
M  V30 35150 H 3279.42 4.14878 0.738549 0
M  V30 35151 H 3278.15 3.0168 1.25127 0
M  V30 35152 H 3276.81 3.57617 -0.806573 0
M  V30 35153 H 3276.46 4.85551 1.31338 0
M  V30 35154 H 3276.16 5.87484 -0.116509 0
M  V30 35155 H 3277.68 6.05355 0.798634 0
M  V30 35156 H 3279.09 5.55502 -1.41742 0
M  V30 35157 H 3277.49 5.57995 -2.20821 0
M  V30 35158 H 3278.56 4.18662 -2.44643 0
M  V30 35159 N 3279.9 0.663979 1.4293 0
M  V30 35160 C 3281.32 0.332523 1.56098 0
M  V30 35161 C 3281.52 -1.16276 1.64567 0
M  V30 35162 O 3280.58 -1.94791 1.60664 0
M  V30 35163 C 3281.89 1.05334 2.81648 0
M  V30 35164 C 3283.44 1.03462 2.95406 0
M  V30 35165 C 3283.91 1.73654 4.23802 0
M  V30 35166 N 3285.4 1.7047 4.3069 0
M  V30 35167 C 3286.14 2.21647 5.28829 0
M  V30 35168 N 3285.63 2.81158 6.33184 0
M  V30 35169 N 3287.43 2.12084 5.20554 0
M  V30 35170 H 3279.58 1.63418 1.35677 0
M  V30 35171 H 3281.84 0.687855 0.652349 0
M  V30 35172 H 3281.55 2.10847 2.8149 0
M  V30 35173 H 3281.42 0.611691 3.72207 0
M  V30 35174 H 3283.81 -0.0121417 2.95098 0
M  V30 35175 H 3283.89 1.51505 2.06106 0
M  V30 35176 H 3283.53 2.78293 4.24871 0
M  V30 35177 H 3283.46 1.23069 5.12017 0
M  V30 35178 H 3285.95 1.27052 3.55902 0
M  V30 35179 H 3286.27 3.17857 7.04405 0
M  V30 35180 H 3284.61 2.85223 6.33776 0
M  V30 35181 H 3287.8 1.65287 4.37947 0
M  V30 35182 H 3287.98 2.52275 5.96876 0
M  V30 35183 N 3281.38 -1.52265 0.406593 0
M  V30 35184 C 3282.8 -1.59497 0.0573509 0
M  V30 35185 C 3283 -1.4196 -1.43003 0
M  V30 35186 O 3282.05 -1.24527 -2.19657 0
M  V30 35187 C 3283.37 -2.95627 0.549999 0
M  V30 35188 C 3284.91 -3.08854 0.507754 0
M  V30 35189 C 3285.39 -4.47461 0.976871 0
M  V30 35190 N 3286.88 -4.53694 0.933587 0
M  V30 35191 C 3287.62 -5.59209 1.26779 0
M  V30 35192 N 3287.11 -6.72289 1.67332 0
M  V30 35193 N 3288.9 -5.49404 1.18792 0
M  V30 35194 H 3281.06 -1.61912 1.37471 0
M  V30 35195 H 3283.32 -0.76155 0.564575 0
M  V30 35196 H 3283.02 -3.13733 1.58948 0
M  V30 35197 H 3282.9 -3.77177 -0.0417104 0
M  V30 35198 H 3285.29 -2.90434 -0.522677 0
M  V30 35199 H 3285.37 -2.29217 1.13549 0
M  V30 35200 H 3285.01 -4.66623 2.00562 0
M  V30 35201 H 3284.94 -5.2559 0.325977 0
M  V30 35202 H 3287.43 -3.7252 0.635399 0
M  V30 35203 H 3287.74 -7.48787 1.9115 0
M  V30 35204 H 3286.09 -6.73576 1.71233 0
M  V30 35205 H 3289.28 -4.59944 0.869987 0
M  V30 35206 H 3289.45 -6.3153 1.45168 0
M  V30 35207 N 3282.86 -0.136936 -1.57004 0
M  V30 35208 C 3283.79 0.802863 -2.19263 0
M  V30 35209 C 3284.77 1.26437 -1.13788 0
M  V30 35210 O 3285.96 1.32375 -1.42094 0
M  V30 35211 C 3283.09 2.0461 -2.80628 0
M  V30 35212 C 3282.04 1.72174 -3.91842 0
M  V30 35213 C 3281.37 3.03678 -4.40095 0
M  V30 35214 C 3282.67 0.976159 -5.13097 0
M  V30 35215 H 3284.36 0.284008 -2.9805 0
M  V30 35216 H 3281.91 0.135163 -1.43364 0
M  V30 35217 H 3283.86 2.70829 -3.22846 0
M  V30 35218 H 3282.58 2.58851 -1.99157 0
M  V30 35219 H 3281.24 1.08338 -3.50226 0
M  V30 35220 H 3280.89 3.55889 -3.5546 0
M  V30 35221 H 3280.59 2.82742 -5.15103 0
M  V30 35222 H 3282.11 3.70984 -4.84977 0
M  V30 35223 H 3283.53 1.54023 -5.52223 0
M  V30 35224 H 3281.93 0.86711 -5.93802 0
M  V30 35225 H 3283 -0.033934 -4.84888 0
M  V30 35226 N 3284.34 1.57005 0.136853 0
M  V30 35227 C 3285.27 2.0206 1.17022 0
M  V30 35228 C 3286.25 0.901891 1.44222 0
M  V30 35229 O 3287.43 1.1704 1.54969 0
M  V30 35230 C 3284.56 2.40981 2.5009 0
M  V30 35231 C 3283.52 3.56131 2.37391 0
M  V30 35232 C 3282.84 3.80897 3.75262 0
M  V30 35233 C 3284.14 4.8846 1.84943 0
M  V30 35234 H 3285.84 2.88637 0.795551 0
M  V30 35235 H 3283.38 1.38862 0.381241 0
M  V30 35236 H 3285.34 2.71103 3.22616 0
M  V30 35237 H 3284.06 1.51353 2.89413 0
M  V30 35238 H 3282.72 3.26191 1.67316 0
M  V30 35239 H 3282.37 2.88503 4.12038 0
M  V30 35240 H 3282.07 4.58396 3.67623 0
M  V30 35241 H 3283.59 4.13454 4.4932 0
M  V30 35242 H 3285.01 5.17233 2.47271 0
M  V30 35243 H 3283.4 5.69835 1.88171 0
M  V30 35244 H 3284.47 4.78158 0.805764 0
M  V30 35245 N 3285.82 -0.406513 1.52267 0
M  V30 35246 C 3286.75 -1.50226 1.78758 0
M  V30 35247 C 3287.73 -1.57654 0.63868 0
M  V30 35248 O 3288.91 -1.72886 0.884535 0
M  V30 35249 C 3286.04 -2.88023 1.94062 0
M  V30 35250 C 3285 -2.95444 3.09672 0
M  V30 35251 C 3284.32 -4.3552 3.10204 0
M  V30 35252 C 3285.62 -2.66689 4.49081 0
M  V30 35253 H 3287.32 -1.28308 2.70513 0
M  V30 35254 H 3284.86 -0.615813 1.30168 0
M  V30 35255 H 3286.82 -3.64667 2.11177 0
M  V30 35256 H 3285.54 -3.1124 0.98981 0
M  V30 35257 H 3284.2 -2.21245 2.92312 0
M  V30 35258 H 3283.85 -4.55751 2.12839 0
M  V30 35259 H 3283.55 -4.41409 3.87855 0
M  V30 35260 H 3285.07 -5.14095 3.29452 0
M  V30 35261 H 3286.48 -3.33056 4.66633 0
M  V30 35262 H 3284.88 -2.83951 5.2867 0
M  V30 35263 H 3285.95 -1.62114 4.56998 0
M  V30 35264 N 3287.29 -1.42934 -0.663904 0
M  V30 35265 C 3288.2 -1.49687 -1.80641 0
M  V30 35266 C 3289.22 -0.38475 -1.69693 0
M  V30 35267 O 3290.4 -0.63729 -1.91051 0
M  V30 35268 C 3287.46 -1.40726 -3.16855 0
M  V30 35269 C 3286.52 -2.6252 -3.39679 0
M  V30 35270 C 3285.76 -2.53977 -4.69395 0
M  V30 35271 O 3285.98 -1.58161 -5.48034 0
M  V30 35272 O 3284.91 -3.44297 -4.93703 0
M  V30 35273 H 3288.74 -2.46141 -1.77899 0
M  V30 35274 H 3286.32 -1.24817 -0.821037 0
M  V30 35275 H 3288.21 -1.38131 -3.98118 0
M  V30 35276 H 3286.88 -0.47401 -3.20211 0
M  V30 35277 H 3285.79 -2.70688 -2.58222 0
M  V30 35278 H 3287.12 -3.5478 -3.41162 0
M  V30 35279 N 3288.77 0.901258 -1.29287 0
M  V30 35280 C 3290.05 1.6318 -1.0785 0
M  V30 35281 C 3290.43 2.0769 0.37789 0
M  V30 35282 O 3289.78 1.83145 1.36639 0
M  V30 35283 C 3289.99 2.81379 -2.06462 0
M  V30 35284 C 3291.34 3.52102 -2.37295 0
M  V30 35285 O 3292.36 2.91546 -2.04645 0
M  V30 35286 O 3291.22 4.61269 -2.93075 0
M  V30 35287 H 3288.31 0.716442 -0.413085 0
M  V30 35288 H 3290.86 0.949463 -1.40653 0
M  V30 35289 H 3289.63 2.45674 -3.04565 0
M  V30 35290 H 3289.25 3.5732 -1.7438 0
M  V30 35291 N 3290.25 1.11738 1.11141 0
M  V30 35292 C 3291.18 0.800833 2.19337 0
M  V30 35293 C 3292.16 -0.23218 1.68508 0
M  V30 35294 O 3293.35 -0.0949722 1.93968 0
M  V30 35295 C 3290.48 0.24664 3.46423 0
M  V30 35296 C 3289.43 1.21188 4.10484 0
M  V30 35297 C 3288.76 0.518251 5.32183 0
M  V30 35298 C 3290.06 2.56376 4.55048 0
M  V30 35299 H 3291.75 1.70552 2.46074 0
M  V30 35300 H 3289.3 0.821475 1.1827 0
M  V30 35301 H 3291.25 0.0129629 4.21398 0
M  V30 35302 H 3289.97 -0.693358 3.19155 0
M  V30 35303 H 3288.63 1.43124 3.37507 0
M  V30 35304 H 3288.28 -0.426654 5.01187 0
M  V30 35305 H 3287.98 1.16206 5.75995 0
M  V30 35306 H 3289.5 0.29344 6.09894 0
M  V30 35307 H 3290.92 2.38511 5.21331 0
M  V30 35308 H 3289.32 3.16767 5.09685 0
M  V30 35309 H 3290.39 3.15366 3.68337 0
M  V30 35310 N 3291.73 -1.28802 0.90817 0
M  V30 35311 C 3292.97 -1.955 0.539236 0
M  V30 35312 C 3293.31 -1.71361 -0.913728 0
M  V30 35313 O 3292.58 -1.03139 -1.64902 0
M  V30 35314 C 3292.87 -3.50107 0.842433 0
M  V30 35315 C 3292.72 -3.83669 2.34772 0
M  V30 35316 C 3294.04 -4.38825 0.334736 0
M  V30 35317 H 3291.16 -0.710076 0.197385 0
M  V30 35318 H 3293.8 -1.5227 1.1364 0
M  V30 35319 H 3291.95 -3.8706 0.334211 0
M  V30 35320 H 3293.62 -3.56616 2.92613 0
M  V30 35321 H 3291.86 -3.30912 2.805 0
M  V30 35322 H 3292.53 -4.91611 2.51042 0
M  V30 35323 H 3295.01 -4.08913 0.770033 0
M  V30 35324 H 3293.89 -5.45869 0.57601 0
M  V30 35325 H 3294.15 -4.35434 -0.764801 0
M  V30 35326 N 3293.21 -0.67155 -1.42576 0
M  V30 35327 C 3294.15 0.00879619 -2.30798 0
M  V30 35328 C 3295.12 0.796051 -1.45781 0
M  V30 35329 O 3296.31 0.768957 -1.74619 0
M  V30 35330 C 3293.45 0.956393 -3.31583 0
M  V30 35331 C 3292.56 0.163305 -4.31691 0
M  V30 35332 C 3291.7 1.10636 -5.19551 0
M  V30 35333 C 3290.74 0.304768 -6.11341 0
M  V30 35334 N 3289.87 1.20036 -6.91763 0
M  V30 35335 H 3294.71 -0.749352 -2.88425 0
M  V30 35336 H 3292.25 -0.381276 -1.42073 0
M  V30 35337 H 3294.21 1.51959 -3.88541 0
M  V30 35338 H 3292.84 1.68121 -2.75564 0
M  V30 35339 H 3291.89 -0.516462 -3.76878 0
M  V30 35340 H 3293.2 -0.459187 -4.96682 0
M  V30 35341 H 3292.36 1.73959 -5.81226 0
M  V30 35342 H 3291.09 1.76274 -4.54729 0
M  V30 35343 H 3290.1 -0.341694 -5.48737 0
M  V30 35344 H 3291.32 -0.347471 -6.7821 0
M  V30 35345 H 3289.27 1.8432 -6.29573 0
M  V30 35346 H 3289.19 0.632871 -7.53346 0
M  V30 35347 H 3290.46 1.82116 -7.57927 0
M  V30 35348 N 3294.68 1.52047 -0.414663 0
M  V30 35349 C 3295.63 2.27163 0.408101 0
M  V30 35350 C 3296.6 1.29805 1.03634 0
M  V30 35351 O 3297.79 1.58676 1.05956 0
M  V30 35352 C 3294.93 3.10027 1.51582 0
M  V30 35353 C 3294.04 4.22351 0.90796 0
M  V30 35354 C 3293.17 4.92563 1.98884 0
M  V30 35355 C 3292.21 5.96841 1.3582 0
M  V30 35356 N 3291.35 6.6055 2.37947 0
M  V30 35357 H 3296.19 2.97041 -0.238874 0
M  V30 35358 H 3293.73 1.46528 -0.12964 0
M  V30 35359 H 3295.69 3.56379 2.1691 0
M  V30 35360 H 3294.32 2.42309 2.13275 0
M  V30 35361 H 3293.37 3.80129 0.143585 0
M  V30 35362 H 3294.68 4.97134 0.407339 0
M  V30 35363 H 3293.83 5.42348 2.71925 0
M  V30 35364 H 3292.57 4.1736 2.52313 0
M  V30 35365 H 3291.58 5.4637 0.61315 0
M  V30 35366 H 3292.8 6.7399 0.831536 0
M  V30 35367 H 3290.75 5.88173 2.90498 0
M  V30 35368 H 3290.67 7.31025 1.92712 0
M  V30 35369 H 3291.93 7.14972 3.10541 0
M  V30 35370 N 3296.16 0.145261 1.56929 0
M  V30 35371 C 3297.11 -0.79509 2.16672 0
M  V30 35372 C 3298.08 -1.24535 1.0991 0
M  V30 35373 O 3299.26 -1.31819 1.37943 0
M  V30 35374 C 3296.4 -2.02951 2.79115 0
M  V30 35375 C 3295.52 -1.62521 4.00263 0
M  V30 35376 C 3294.65 -2.8113 4.5071 0
M  V30 35377 C 3293.69 -2.37065 5.64329 0
M  V30 35378 N 3292.83 -3.48676 6.09401 0
M  V30 35379 H 3297.67 -0.278813 2.96693 0
M  V30 35380 H 3295.21 -0.125908 1.4656 0
M  V30 35381 H 3297.16 -2.75314 3.13461 0
M  V30 35382 H 3295.79 -2.51992 2.01741 0
M  V30 35383 H 3294.85 -0.7993 3.71908 0
M  V30 35384 H 3296.16 -1.26157 4.82582 0
M  V30 35385 H 3295.31 -3.61685 4.87103 0
M  V30 35386 H 3294.05 -3.20737 3.67395 0
M  V30 35387 H 3293.06 -1.54949 5.27514 0
M  V30 35388 H 3294.28 -1.98545 6.49428 0
M  V30 35389 H 3292.23 -3.87908 5.29021 0
M  V30 35390 H 3292.14 -3.16321 6.86642 0
M  V30 35391 H 3293.41 -4.29593 6.50438 0
M  V30 35392 N 3297.64 -1.57075 -0.128525 0
M  V30 35393 C 3298.89 -1.83536 -0.836503 0
M  V30 35394 C 3299.2 -0.729432 -1.8149 0
M  V30 35395 O 3300.41 -0.880173 -2.56837 0
M  V30 35396 C 3298.87 -3.25368 -1.5383 0
M  V30 35397 C 3298.47 -4.43945 -0.601376 0
M  V30 35398 C 3300.22 -3.61086 -2.23197 0
M  V30 35399 C 3298.12 -5.76803 -1.30585 0
M  V30 35400 H 3297.05 -0.684527 -0.31613 0
M  V30 35401 H 3299.71 -1.83283 -0.0892232 0
M  V30 35402 H 3298.09 -3.20062 -2.33187 0
M  V30 35403 H 3299.26 -4.60528 0.15829 0
M  V30 35404 H 3297.58 -4.16397 -0.0151661 0
M  V30 35405 H 3300.17 -4.57613 -2.76577 0
M  V30 35406 H 3300.52 -2.88049 -3.00555 0
M  V30 35407 H 3301.05 -3.68134 -1.50739 0
M  V30 35408 H 3297.79 -6.52984 -0.573759 0
M  V30 35409 H 3297.31 -5.64123 -2.03777 0
M  V30 35410 H 3298.99 -6.20234 -1.84169 0
M  V30 35411 N 3299.12 0.398432 -1.5248 0
M  V30 35412 C 3300.07 1.48546 -1.72968 0
M  V30 35413 C 3301.05 1.49941 -0.583655 0
M  V30 35414 O 3302.25 1.55737 -0.841134 0
M  V30 35415 C 3299.37 2.86363 -1.89344 0
M  V30 35416 C 3298.46 2.89575 -3.0985 0
M  V30 35417 N 3298.85 2.62469 -4.3237 0
M  V30 35418 C 3297.15 3.20743 -3.09903 0
M  V30 35419 C 3297.85 2.72523 -5.13912 0
M  V30 35420 N 3296.83 3.05856 -4.49392 0
M  V30 35421 H 3300.63 1.26402 -2.6533 0
M  V30 35422 H 3298.14 0.606273 -1.50659 0
M  V30 35423 H 3300.14 3.64616 -2.02141 0
M  V30 35424 H 3298.8 3.09498 -0.981896 0
M  V30 35425 H 3299.81 2.36665 -4.60663 0
M  V30 35426 H 3296.49 3.49404 -2.28524 0
M  V30 35427 H 3297.88 2.55191 -6.21552 0
M  V30 35428 N 3300.6 1.43284 0.656314 0
M  V30 35429 C 3301.55 1.48465 1.79056 0
M  V30 35430 C 3302.54 0.358542 1.65562 0
M  V30 35431 O 3303.75 0.532395 1.71946 0
M  V30 35432 H 3300.12 0.465369 0.590708 0
M  V30 35433 H 3302.09 2.43978 1.71806 0
M  V30 35434 C 3300.84 1.4218 3.17301 0
M  V30 35435 H 3300.16 2.28136 3.2832 0
M  V30 35436 H 3301.6 1.49867 3.96631 0
M  V30 35437 C 3300.06 0.138988 3.36613 0
M  V30 35438 O 3300.59 -0.800941 3.93634 0
M  V30 35439 N 3298.8 0.0501748 2.90557 0
M  V30 35440 H 3298.35 0.815864 2.44339 0
M  V30 35441 H 3298.3 -0.807451 3.03855 0
M  V30 35442 N 3302.08 -0.894389 1.29763 0
M  V30 35443 C 3303.04 -1.98065 1.15338 0
M  V30 35444 C 3304.04 -1.60563 0.0873086 0
M  V30 35445 O 3305.23 -1.70955 0.334675 0
M  V30 35446 C 3302.36 -3.32206 0.764966 0
M  V30 35447 H 3303.55 -2.12289 2.11833 0
M  V30 35448 H 3301.11 -1.07958 1.13025 0
M  V30 35449 H 3301.84 -3.23683 -0.199891 0
M  V30 35450 H 3301.63 -3.60792 1.5353 0
M  V30 35451 H 3303.12 -4.11906 0.687249 0
M  V30 35452 N 3303.55 -1.12326 -1.10547 0
M  V30 35453 C 3304.5 -0.785287 -2.18943 0
M  V30 35454 C 3305.5 0.227359 -1.67867 0
M  V30 35455 O 3306.7 0.0856846 -1.79796 0
M  V30 35456 H 3303.08 -0.236111 -0.713972 0
M  V30 35457 H 3305.05 -1.70792 -2.44689 0
M  V30 35458 C 3303.8 -0.254911 -3.46764 0
M  V30 35459 H 3303.12 -1.02541 -3.86426 0
M  V30 35460 H 3304.56 -0.0567271 -4.23962 0
M  V30 35461 C 3303.02 1.01689 -3.21187 0
M  V30 35462 O 3303.55 2.09491 -3.42748 0
M  V30 35463 N 3301.75 0.943375 -2.74861 0
M  V30 35464 H 3301.3 0.0659914 -2.57515 0
M  V30 35465 H 3301.26 1.79496 -2.58125 0
M  V30 35466 N 3305.03 1.28319 -0.914988 0
M  V30 35467 C 3306.44 1.7696 -0.595151 0
M  V30 35468 C 3306.79 1.74876 0.88955 0
M  V30 35469 O 3305.92 1.34421 1.69588 0
M  V30 35470 C 3306.51 3.2134 -1.07358 0
M  V30 35471 C 3305.07 3.67699 -0.804642 0
M  V30 35472 C 3304.22 2.48051 -1.2396 0
M  V30 35473 H 3307.17 1.14765 -1.09612 0
M  V30 35474 H 3307.19 3.78224 -0.415572 0
M  V30 35475 H 3306.7 3.22825 -2.15419 0
M  V30 35476 H 3304.8 3.71673 0.262704 0
M  V30 35477 H 3304.92 4.57782 -1.41325 0
M  V30 35478 H 3303.28 2.46045 -0.658317 0
M  V30 35479 H 3304.06 2.52254 -2.32858 0
M  V30 35480 N 3306.51 0.679102 1.42218 0
M  V30 35481 C 3307.42 0.00350043 2.346 0
M  V30 35482 C 3308.44 -0.784154 1.55329 0
M  V30 35483 O 3309.61 -0.725491 1.87879 0
M  V30 35484 C 3306.68 -0.933135 3.33906 0
M  V30 35485 C 3305.74 -0.139532 4.29073 0
M  V30 35486 C 3304.97 -1.03156 5.23636 0
M  V30 35487 O 3305.19 -2.27109 5.23238 0
M  V30 35488 O 3304.13 -0.490053 5.99902 0
M  V30 35489 H 3307.95 0.764577 2.93918 0
M  V30 35490 H 3305.54 0.439354 1.42794 0
M  V30 35491 H 3307.42 -1.4707 3.94903 0
M  V30 35492 H 3306.1 -1.67399 2.77055 0
M  V30 35493 H 3305 0.442242 3.71477 0
M  V30 35494 H 3306.34 0.5623 4.88978 0
M  V30 35495 N 3307.99 -1.51825 0.42272 0
M  V30 35496 C 3308.92 -2.30273 -0.386872 0
M  V30 35497 C 3309.9 -1.35058 -1.03409 0
M  V30 35498 O 3311.08 -1.63972 -1.04052 0
M  V30 35499 C 3308.21 -3.13409 -1.4964 0
M  V30 35500 C 3307.17 -4.16783 -0.973458 0
M  V30 35501 C 3306.49 -4.88348 -2.17762 0
M  V30 35502 C 3307.79 -5.22297 -0.0180276 0
M  V30 35503 H 3309.49 -2.982 0.26775 0
M  V30 35504 H 3307.03 -1.4341 0.130212 0
M  V30 35505 H 3308.99 -3.67062 -2.06986 0
M  V30 35506 H 3307.71 -2.43276 -2.1791 0
M  V30 35507 H 3306.37 -3.64159 -0.422306 0
M  V30 35508 H 3306.02 -4.14731 -2.84617 0
M  V30 35509 H 3305.72 -5.5824 -1.83417 0
M  V30 35510 H 3307.24 -5.44819 -2.75689 0
M  V30 35511 H 3308.66 -5.71109 -0.500721 0
M  V30 35512 H 3307.05 -5.99631 0.237268 0
M  V30 35513 H 3308.12 -4.76031 0.923149 0
M  V30 35514 N 3309.47 -0.153581 -1.5685 0
M  V30 35515 C 3310.69 0.502642 -2.00702 0
M  V30 35516 C 3311.11 1.57986 -1.03372 0
M  V30 35517 O 3310.47 1.82472 -0.0317553 0
M  V30 35518 C 3310.52 1.09726 -3.44445 0
M  V30 35519 O 3310.24 0.0630635 -4.38055 0
M  V30 35520 C 3311.74 1.83345 -4.03608 0
M  V30 35521 H 3308.96 0.130278 -0.658232 0
M  V30 35522 H 3311.5 -0.250099 -2.02965 0
M  V30 35523 H 3309.66 1.80059 -3.43012 0
M  V30 35524 H 3310.07 0.49959 -5.22115 0
M  V30 35525 H 3311.55 2.20232 -5.06164 0
M  V30 35526 H 3312.02 2.72184 -3.44692 0
M  V30 35527 H 3312.63 1.17696 -4.0869 0
M  V30 35528 N 3310.94 1.57141 0.120193 0
M  V30 35529 C 3312.22 1.75757 0.858427 0
M  V30 35530 C 3312.6 0.728728 1.98123 0
M  V30 35531 O 3311.95 -0.247533 2.27155 0
M  V30 35532 C 3312.16 3.2072 1.37621 0
M  V30 35533 C 3313.51 3.83187 1.82902 0
M  V30 35534 O 3314.53 3.24315 1.47303 0
M  V30 35535 O 3313.39 4.86662 2.48641 0
M  V30 35536 H 3310.48 0.719594 0.40757 0
M  V30 35537 H 3313.03 1.69381 0.104027 0
M  V30 35538 H 3311.8 3.87118 0.570583 0
M  V30 35539 H 3311.42 3.31629 2.19335 0
M  V30 35540 N 3312.42 -0.39034 1.5269 0
M  V30 35541 C 3313.67 -1.13326 1.67337 0
M  V30 35542 C 3313.99 -1.90531 0.415101 0
M  V30 35543 O 3313.26 -1.8741 -0.570471 0
M  V30 35544 H 3311.84 -0.421346 0.616828 0
M  V30 35545 H 3314.5 -0.442967 1.89799 0
M  V30 35546 H 3313.6 -1.83691 2.52317 0
M  V30 35547 N 3313.9 -1.4363 -0.648706 0
M  V30 35548 C 3314.83 -1.4511 -1.77414 0
M  V30 35549 C 3315.85 -0.346646 -1.59067 0
M  V30 35550 O 3317.03 -0.611352 -1.67704 0
M  V30 35551 C 3314.13 -1.25255 -3.14904 0
M  V30 35552 C 3313.31 -2.48622 -3.59869 0
M  V30 35553 C 3312.37 -2.23925 -4.76177 0
M  V30 35554 O 3311.39 -2.97305 -4.85385 0
M  V30 35555 N 3312.59 -1.25872 -5.66689 0
M  V30 35556 H 3315.36 -2.42126 -1.76621 0
M  V30 35557 H 3312.92 -1.38844 -0.8327 0
M  V30 35558 H 3314.91 -1.06608 -3.90406 0
M  V30 35559 H 3313.48 -0.366678 -3.10442 0
M  V30 35560 H 3312.7 -2.82664 -2.74763 0
M  V30 35561 H 3313.99 -3.30714 -3.86659 0
M  V30 35562 H 3313.39 -0.652325 -5.61926 0
M  V30 35563 H 3311.95 -1.13208 -6.41893 0
M  V30 35564 N 3315.38 0.887495 -1.30236 0
M  V30 35565 C 3316.63 1.63379 -1.1828 0
M  V30 35566 C 3316.94 1.93837 0.262045 0
M  V30 35567 O 3318.15 2.66798 0.50308 0
M  V30 35568 C 3316.6 2.94449 -2.06949 0
M  V30 35569 C 3316.21 2.71541 -3.56328 0
M  V30 35570 C 3317.95 3.72406 -2.03749 0
M  V30 35571 C 3315.86 3.98411 -4.37061 0
M  V30 35572 H 3314.79 0.612951 -0.439098 0
M  V30 35573 H 3317.44 0.982751 -1.54965 0
M  V30 35574 H 3315.82 3.60832 -1.63144 0
M  V30 35575 H 3317 2.13674 -4.08265 0
M  V30 35576 H 3315.31 2.06962 -3.61325 0
M  V30 35577 H 3317.91 4.66493 -2.61321 0
M  V30 35578 H 3318.25 4.03602 -1.02037 0
M  V30 35579 H 3318.79 3.12882 -2.45662 0
M  V30 35580 H 3315.53 3.72376 -5.39459 0
M  V30 35581 H 3315.05 4.55792 -3.89889 0
M  V30 35582 H 3316.72 4.66454 -4.48364 0
M  V30 35583 N 3316.86 1.12911 1.0995 0
M  V30 35584 C 3317.79 0.759343 2.16256 0
M  V30 35585 C 3318.8 -0.216398 1.61355 0
M  V30 35586 O 3319.99 0.00300362 1.785 0
M  V30 35587 C 3317.09 0.103967 3.3874 0
M  V30 35588 C 3316.26 1.11044 4.2307 0
M  V30 35589 C 3315.32 0.481759 5.2399 0
M  V30 35590 O 3314.35 1.14021 5.57663 0
M  V30 35591 N 3315.55 -0.748596 5.75653 0
M  V30 35592 H 3318.32 1.67409 2.48585 0
M  V30 35593 H 3315.88 1.02139 1.25615 0
M  V30 35594 H 3317.87 -0.328729 4.03363 0
M  V30 35595 H 3316.44 -0.713623 3.04345 0
M  V30 35596 H 3315.66 1.7206 3.54667 0
M  V30 35597 H 3316.95 1.79086 4.76241 0
M  V30 35598 H 3316.34 -1.30243 5.50503 0
M  V30 35599 H 3314.9 -1.12403 6.42035 0
M  V30 35600 N 3318.33 -1.27832 0.92178 0
M  V30 35601 C 3319.3 -2.253 0.421017 0
M  V30 35602 C 3320.3 -1.54165 -0.457131 0
M  V30 35603 O 3321.49 -1.72263 -0.259048 0
M  V30 35604 C 3318.62 -3.38599 -0.395441 0
M  V30 35605 H 3319.81 -2.71112 1.28211 0
M  V30 35606 H 3317.37 -1.39652 0.701917 0
M  V30 35607 H 3318.1 -2.98159 -1.2756 0
M  V30 35608 H 3317.89 -3.91401 0.234097 0
M  V30 35609 H 3319.38 -4.11056 -0.736371 0
M  V30 35610 N 3319.81 -0.686634 -1.41856 0
M  V30 35611 C 3320.75 0.0346957 -2.28174 0
M  V30 35612 C 3321.72 0.796903 -1.41733 0
M  V30 35613 O 3322.91 0.789577 -1.71166 0
M  V30 35614 C 3320.03 1.05645 -3.21803 0
M  V30 35615 C 3319.08 0.388449 -4.24727 0
M  V30 35616 S 3319.91 -0.862639 -5.28506 0
M  V30 35617 C 3321.07 0.157739 -6.25701 0
M  V30 35618 H 3321.3 -0.697432 -2.89004 0
M  V30 35619 H 3318.84 -0.476588 -1.4686 0
M  V30 35620 H 3320.79 1.64083 -3.76281 0
M  V30 35621 H 3319.45 1.76109 -2.60085 0
M  V30 35622 H 3318.65 1.15982 -4.90473 0
M  V30 35623 H 3318.25 -0.122633 -3.73799 0
M  V30 35624 H 3320.54 1.01381 -6.69872 0
M  V30 35625 H 3321.48 -0.465561 -7.06568 0
M  V30 35626 H 3321.89 0.508515 -5.62205 0
M  V30 35627 N 3321.29 1.51599 -0.430766 0
M  V30 35628 C 3322.22 2.30475 0.374655 0
M  V30 35629 C 3323.2 1.35604 1.02691 0
M  V30 35630 O 3324.39 1.64522 1.03181 0
M  V30 35631 C 3321.52 3.14198 1.47975 0
M  V30 35632 C 3320.47 4.17293 0.951342 0
M  V30 35633 C 3319.8 4.89496 2.15169 0
M  V30 35634 C 3321.1 5.22299 -0.00967132 0
M  V30 35635 H 3322.79 2.98054 -0.28356 0
M  V30 35636 H 3320.34 1.43339 -0.137815 0
M  V30 35637 H 3322.29 3.68155 2.05037 0
M  V30 35638 H 3321.01 2.44428 2.16616 0
M  V30 35639 H 3319.67 3.64378 0.402988 0
M  V30 35640 H 3319.32 4.16235 2.82414 0
M  V30 35641 H 3319.02 5.59205 1.80454 0
M  V30 35642 H 3320.54 5.46274 2.72796 0
M  V30 35643 H 3321.96 5.71367 0.470427 0
M  V30 35644 H 3320.36 5.99496 -0.269065 0
M  V30 35645 H 3321.43 4.75535 -0.948381 0
M  V30 35646 N 3322.77 0.161897 1.56766 0
M  V30 35647 C 3324.18 -0.194375 1.58412 0
M  V30 35648 C 3324.38 -1.63562 1.17685 0
M  V30 35649 O 3323.44 -2.36518 0.884065 0
M  V30 35650 C 3324.75 0.0778967 3.00599 0
M  V30 35651 C 3326.3 0.015362 3.12996 0
M  V30 35652 C 3326.78 0.260498 4.57259 0
M  V30 35653 N 3328.27 0.207944 4.62733 0
M  V30 35654 C 3329 0.371921 5.72193 0
M  V30 35655 N 3328.5 0.594439 6.90245 0
M  V30 35656 N 3330.29 0.308483 5.61253 0
M  V30 35657 H 3322.44 1.10277 1.81529 0
M  V30 35658 H 3324.71 0.437689 0.840911 0
M  V30 35659 H 3324.41 1.07593 3.34838 0
M  V30 35660 H 3324.29 -0.63478 3.7182 0
M  V30 35661 H 3326.67 -0.973241 2.78589 0
M  V30 35662 H 3326.75 0.760602 2.4423 0
M  V30 35663 H 3326.4 1.24627 4.92372 0
M  V30 35664 H 3326.33 -0.505242 5.24171 0
M  V30 35665 H 3328.82 0.0412205 3.77878 0
M  V30 35666 H 3329.13 0.709266 7.69538 0
M  V30 35667 H 3327.48 0.630941 6.9213 0
M  V30 35668 H 3330.67 0.1353 4.67904 0
M  V30 35669 H 3330.84 0.439706 6.46506 0
M  V30 35670 N 3324.25 -1.57203 -0.111858 0
M  V30 35671 C 3325.66 -1.52657 -0.465602 0
M  V30 35672 C 3325.86 -0.876021 -1.81461 0
M  V30 35673 O 3324.92 -0.461389 -2.48249 0
M  V30 35674 C 3326.23 -2.97411 -0.443519 0
M  V30 35675 C 3327.78 -3.08539 -0.526566 0
M  V30 35676 C 3328.25 -4.54867 -0.534801 0
M  V30 35677 N 3329.75 -4.59349 -0.596036 0
M  V30 35678 C 3330.48 -5.69995 -0.623972 0
M  V30 35679 N 3329.98 -6.90117 -0.609124 0
M  V30 35680 N 3331.77 -5.58122 -0.66752 0
M  V30 35681 H 3323.92 -1.97875 0.77196 0
M  V30 35682 H 3326.18 -0.903972 0.28555 0
M  V30 35683 H 3325.89 -3.48406 0.480199 0
M  V30 35684 H 3325.76 -3.55224 -1.2687 0
M  V30 35685 H 3328.15 -2.57542 -1.4407 0
M  V30 35686 H 3328.23 -2.53709 0.32644 0
M  V30 35687 H 3327.88 -5.06511 0.375322 0
M  V30 35688 H 3327.81 -5.07517 -1.40479 0
M  V30 35689 H 3330.3 -3.72889 -0.613386 0
M  V30 35690 H 3330.61 -7.70201 -0.633261 0
M  V30 35691 H 3328.95 -6.92605 -0.576435 0
M  V30 35692 H 3332.15 -4.63185 -0.676534 0
M  V30 35693 H 3332.32 -6.4436 -0.685824 0
M  V30 35694 N 3325.72 0.382237 -1.52894 0
M  V30 35695 C 3326.97 1.12483 -1.69467 0
M  V30 35696 C 3327.33 1.87472 -0.432664 0
M  V30 35697 O 3326.62 1.82804 0.573868 0
M  V30 35698 C 3326.81 2.12571 -2.87312 0
M  V30 35699 C 3326.64 1.47414 -4.24852 0
M  V30 35700 C 3325.41 1.23534 -4.89967 0
M  V30 35701 C 3327.61 0.920645 -5.05993 0
M  V30 35702 N 3325.59 0.545524 -6.11471 0
M  V30 35703 C 3326.96 0.359271 -6.18958 0
M  V30 35704 C 3329.02 0.817711 -4.91139 0
M  V30 35705 C 3327.72 -0.294979 -7.18695 0
M  V30 35706 C 3329.75 0.177271 -5.91134 0
M  V30 35707 C 3329.11 -0.373303 -7.0341 0
M  V30 35708 H 3325.21 0.397336 -0.673534 0
M  V30 35709 H 3327.79 0.413446 -1.9026 0
M  V30 35710 H 3325.96 2.8104 -2.68088 0
M  V30 35711 H 3327.69 2.79387 -2.92789 0
M  V30 35712 H 3324.45 1.51215 -4.48811 0
M  V30 35713 H 3324.87 0.216463 -6.76654 0
M  V30 35714 H 3329.52 1.22916 -4.04538 0
M  V30 35715 H 3327.23 -0.718426 -8.049 0
M  V30 35716 H 3330.82 0.0987811 -5.81716 0
M  V30 35717 H 3329.7 -0.861042 -7.79459 0
M  V30 35718 N 3327.2 1.43972 0.64108 0
M  V30 35719 C 3328.45 1.46231 1.40081 0
M  V30 35720 C 3328.78 0.0911352 1.94286 0
M  V30 35721 O 3328.03 -0.905657 1.73483 0
M  V30 35722 C 3328.33 2.46188 2.59088 0
M  V30 35723 C 3328 3.91764 2.2323 0
M  V30 35724 C 3326.66 4.3141 2.13163 0
M  V30 35725 C 3329.01 4.83453 1.94738 0
M  V30 35726 C 3326.34 5.60682 1.72778 0
M  V30 35727 C 3328.69 6.13102 1.55848 0
M  V30 35728 C 3327.36 6.51713 1.44315 0
M  V30 35729 H 3326.63 0.535097 0.512594 0
M  V30 35730 H 3329.27 1.77126 0.727924 0
M  V30 35731 H 3327.58 2.0874 3.31564 0
M  V30 35732 H 3329.28 2.45186 3.17309 0
M  V30 35733 H 3325.87 3.60393 2.3198 0
M  V30 35734 H 3330.05 4.53585 2.0143 0
M  V30 35735 H 3325.31 5.89425 1.62445 0
M  V30 35736 H 3329.48 6.83614 1.32836 0
M  V30 35737 H 3327.11 7.51786 1.12793 0
M  V30 35738 N 3328.68 -0.880575 1.30704 0
M  V30 35739 C 3329.93 -1.63517 1.19958 0
M  V30 35740 C 3330.26 -1.92659 -0.244181 0
M  V30 35741 O 3329.54 -1.55065 -1.1741 0
M  V30 35742 C 3329.82 -2.97218 2.03307 0
M  V30 35743 C 3329.67 -2.75021 3.55926 0
M  V30 35744 C 3330.99 -3.98194 1.87428 0
M  V30 35745 H 3328.11 -0.593369 0.43713 0
M  V30 35746 H 3330.75 -1.01868 1.60384 0
M  V30 35747 H 3328.9 -3.49836 1.68959 0
M  V30 35748 H 3330.57 -2.29157 4.00356 0
M  V30 35749 H 3328.82 -2.09445 3.79888 0
M  V30 35750 H 3329.49 -3.7011 4.0954 0
M  V30 35751 H 3331.96 -3.54751 2.17465 0
M  V30 35752 H 3330.84 -4.89648 2.48065 0
M  V30 35753 H 3331.1 -4.3415 0.83464 0
M  V30 35754 N 3330.16 -1.13492 -1.09349 0
M  V30 35755 C 3331.07 -0.826405 -2.19563 0
M  V30 35756 C 3332.09 0.189309 -1.72967 0
M  V30 35757 O 3333.26 0.0201679 -2.0139 0
M  V30 35758 C 3330.33 -0.297746 -3.45419 0
M  V30 35759 C 3329.39 -1.3748 -4.06691 0
M  V30 35760 C 3328.62 -0.871276 -5.2654 0
M  V30 35761 O 3328.84 0.290858 -5.69658 0
M  V30 35762 O 3327.78 -1.64594 -5.78958 0
M  V30 35763 H 3331.6 -1.74722 -2.48406 0
M  V30 35764 H 3329.19 -0.912435 -1.183 0
M  V30 35765 H 3331.07 -0.00836886 -4.21399 0
M  V30 35766 H 3329.75 0.59548 -3.18176 0
M  V30 35767 H 3328.65 -1.71751 -3.32344 0
M  V30 35768 H 3329.99 -2.2422 -4.38162 0
M  V30 35769 N 3331.64 1.27341 -0.928546 0
M  V30 35770 C 3332.88 1.94617 -0.57027 0
M  V30 35771 C 3333.22 1.72793 0.886351 0
M  V30 35772 O 3332.49 1.0575 1.6324 0
M  V30 35773 C 3332.77 3.48723 -0.898025 0
M  V30 35774 C 3332.63 3.79886 -2.40846 0
M  V30 35775 C 3333.95 4.38237 -0.404506 0
M  V30 35776 H 3331.07 0.706846 -0.208657 0
M  V30 35777 H 3333.71 1.50442 -1.16048 0
M  V30 35778 H 3331.86 3.86479 -0.395747 0
M  V30 35779 H 3333.53 3.51916 -2.9825 0
M  V30 35780 H 3331.77 3.26407 -2.85729 0
M  V30 35781 H 3332.44 4.87555 -2.58831 0
M  V30 35782 H 3334.92 4.07636 -0.83499 0
M  V30 35783 H 3333.8 5.44884 -0.66278 0
M  V30 35784 H 3334.06 4.36596 0.695431 0
M  V30 35785 N 3333.12 0.694147 1.4149 0
M  V30 35786 C 3334.03 0.0283827 2.34583 0
M  V30 35787 C 3335.04 -0.767635 1.56152 0
M  V30 35788 O 3336.22 -0.705523 1.88638 0
M  V30 35789 C 3333.28 -0.897667 3.34877 0
M  V30 35790 C 3332.34 -0.0940151 4.29197 0
M  V30 35791 C 3331.58 -0.975959 5.24701 0
M  V30 35792 O 3331.8 -2.21547 5.25617 0
M  V30 35793 O 3330.73 -0.426398 6.00388 0
M  V30 35794 H 3334.56 0.795708 2.93091 0
M  V30 35795 H 3332.14 0.454475 1.4232 0
M  V30 35796 H 3334.03 -1.42873 3.96441 0
M  V30 35797 H 3332.7 -1.64451 2.78815 0
M  V30 35798 H 3331.61 0.481618 3.70987 0
M  V30 35799 H 3332.94 0.614131 4.88354 0
M  V30 35800 N 3334.59 -1.51368 0.438799 0
M  V30 35801 C 3335.84 -2.01701 -0.126926 0
M  V30 35802 C 3336.16 -1.32484 -1.43084 0
M  V30 35803 O 3335.43 -0.459856 -1.90426 0
M  V30 35804 H 3334.01 -0.745332 -0.0498961 0
M  V30 35805 H 3336.67 -1.86012 0.58184 0
M  V30 35806 H 3335.77 -3.10638 -0.301781 0
M  V30 35807 N 3336.07 -0.170208 -1.56678 0
M  V30 35808 C 3337.3 0.481327 -2.01223 0
M  V30 35809 C 3337.71 1.56881 -1.05042 0
M  V30 35810 O 3337.07 1.82428 -0.0511072 0
M  V30 35811 C 3337.12 1.06067 -3.4559 0
M  V30 35812 O 3336.84 0.0165984 -4.38097 0
M  V30 35813 C 3338.34 1.79054 -4.0553 0
M  V30 35814 H 3335.56 0.123289 -0.659576 0
M  V30 35815 H 3338.11 -0.271612 -2.02688 0
M  V30 35816 H 3336.26 1.76411 -3.44903 0
M  V30 35817 H 3336.68 0.444184 -5.22616 0
M  V30 35818 H 3338.15 2.14852 -5.08471 0
M  V30 35819 H 3338.63 2.68513 -3.47559 0
M  V30 35820 H 3339.23 1.13354 -4.09916 0
M  V30 35821 N 3337.55 1.5726 0.10352 0
M  V30 35822 C 3338.8 1.85933 0.809742 0
M  V30 35823 C 3339.13 0.758153 1.78789 0
M  V30 35824 O 3338.4 -0.234648 1.93079 0
M  V30 35825 C 3338.69 3.25226 1.54596 0
M  V30 35826 C 3338.54 4.45962 0.586361 0
M  V30 35827 C 3339.86 3.623 2.49853 0
M  V30 35828 H 3336.98 0.67629 0.292918 0
M  V30 35829 H 3339.62 1.89857 0.0735732 0
M  V30 35830 H 3337.77 3.22011 2.1735 0
M  V30 35831 H 3339.44 4.61288 -0.0335252 0
M  V30 35832 H 3337.68 4.33683 -0.100926 0
M  V30 35833 H 3338.36 5.40133 1.13845 0
M  V30 35834 H 3340.83 3.66405 1.97196 0
M  V30 35835 H 3339.71 4.60713 2.98388 0
M  V30 35836 H 3339.97 2.90537 3.33228 0
M  V30 35837 N 3339.03 -0.374123 1.53095 0
M  V30 35838 C 3339.97 -1.45784 1.78929 0
M  V30 35839 C 3340.94 -1.53557 0.633214 0
M  V30 35840 O 3342.13 -1.69579 0.874502 0
M  V30 35841 C 3339.27 -2.82837 1.97731 0
M  V30 35842 C 3338.38 -2.84099 3.25441 0
M  V30 35843 C 3337.52 -4.12672 3.34477 0
M  V30 35844 C 3336.56 -4.08043 4.56253 0
M  V30 35845 N 3335.69 -5.2825 4.62489 0
M  V30 35846 H 3340.53 -1.23055 2.71406 0
M  V30 35847 H 3338.07 -0.596693 1.34454 0
M  V30 35848 H 3340.03 -3.62443 2.06617 0
M  V30 35849 H 3338.66 -3.03984 1.08599 0
M  V30 35850 H 3337.71 -1.96775 3.25551 0
M  V30 35851 H 3339.02 -2.76549 4.15117 0
M  V30 35852 H 3338.18 -5.0069 3.42629 0
M  V30 35853 H 3336.92 -4.22964 2.42802 0
M  V30 35854 H 3335.92 -3.18412 4.48212 0
M  V30 35855 H 3337.15 -3.99361 5.49261 0
M  V30 35856 H 3335.09 -5.39143 3.73712 0
M  V30 35857 H 3335.01 -5.22835 5.46058 0
M  V30 35858 H 3336.28 -6.18124 4.74914 0
M  V30 35859 N 3340.51 -1.4431 -0.633436 0
M  V30 35860 C 3341.47 -1.50644 -1.7274 0
M  V30 35861 C 3342.47 -0.388746 -1.5603 0
M  V30 35862 O 3343.66 -0.651279 -1.61567 0
M  V30 35863 C 3340.79 -1.37814 -3.11801 0
M  V30 35864 H 3341.98 -2.48089 -1.68499 0
M  V30 35865 H 3339.54 -1.31368 -0.846889 0
M  V30 35866 H 3340.27 -0.414539 -3.2164 0
M  V30 35867 H 3340.06 -2.18858 -3.25336 0
M  V30 35868 H 3341.55 -1.45223 -3.91536 0
M  V30 35869 N 3341.98 0.873632 -1.3117 0
M  V30 35870 C 3343.21 1.65684 -1.23419 0
M  V30 35871 C 3343.62 1.88102 0.203501 0
M  V30 35872 O 3342.97 1.43672 1.14473 0
M  V30 35873 C 3343.03 3.04925 -1.90423 0
M  V30 35874 C 3342.69 3.05631 -3.39762 0
M  V30 35875 C 3343.69 2.83857 -4.3557 0
M  V30 35876 C 3341.37 3.26869 -3.81395 0
M  V30 35877 C 3343.37 2.83294 -5.70984 0
M  V30 35878 C 3341.05 3.25934 -5.16924 0
M  V30 35879 C 3342.05 3.04173 -6.11529 0
M  V30 35880 O 3341.74 3.03076 -7.4458 0
M  V30 35881 H 3341.47 0.523408 -0.427809 0
M  V30 35882 H 3344.03 1.09899 -1.73526 0
M  V30 35883 H 3342.26 3.62422 -1.3486 0
M  V30 35884 H 3343.95 3.6545 -1.76638 0
M  V30 35885 H 3344.71 2.67236 -4.04735 0
M  V30 35886 H 3340.59 3.42838 -3.08193 0
M  V30 35887 H 3344.13 2.66228 -6.44801 0
M  V30 35888 H 3340.03 3.42095 -5.47395 0
M  V30 35889 H 3340.8 3.19164 -7.53709 0
M  V30 35890 N 3343.46 1.1407 1.08746 0
M  V30 35891 C 3344.71 0.908113 1.81332 0
M  V30 35892 C 3345.04 -0.564079 1.85827 0
M  V30 35893 O 3344.32 -1.41771 1.33159 0
M  V30 35894 C 3344.6 1.50537 3.27125 0
M  V30 35895 C 3344.45 3.04717 3.30859 0
M  V30 35896 C 3345.77 1.17935 4.24004 0
M  V30 35897 H 3342.89 0.331337 0.65832 0
M  V30 35898 H 3345.53 1.41011 1.27342 0
M  V30 35899 H 3343.68 1.07845 3.73231 0
M  V30 35900 H 3345.35 3.56214 2.93103 0
M  V30 35901 H 3343.6 3.39345 2.70235 0
M  V30 35902 H 3344.27 3.4161 4.33597 0
M  V30 35903 H 3346.74 1.54838 3.86218 0
M  V30 35904 H 3345.62 1.62363 5.24337 0
M  V30 35905 H 3345.88 0.0941126 4.42 0
M  V30 35906 N 3344.94 -1.26847 0.935286 0
M  V30 35907 C 3346.19 -1.94652 0.590091 0
M  V30 35908 C 3346.54 -1.72087 -0.860451 0
M  V30 35909 O 3345.83 -1.04382 -1.6067 0
M  V30 35910 C 3346.03 -3.4687 0.861159 0
M  V30 35911 C 3345.86 -3.84237 2.3365 0
M  V30 35912 C 3344.63 -4.07298 2.99059 0
M  V30 35913 C 3346.83 -3.93244 3.31457 0
M  V30 35914 N 3344.81 -4.31503 4.36667 0
M  V30 35915 C 3346.18 -4.21913 4.54301 0
M  V30 35916 C 3348.23 -3.75848 3.26562 0
M  V30 35917 C 3346.94 -4.34996 5.72862 0
M  V30 35918 C 3348.96 -3.9016 4.44442 0
M  V30 35919 C 3348.32 -4.19223 5.66067 0
M  V30 35920 H 3344.42 -0.735299 0.266195 0
M  V30 35921 H 3347.01 -1.53051 1.20347 0
M  V30 35922 H 3345.18 -3.87412 0.276871 0
M  V30 35923 H 3346.91 -4.01869 0.477827 0
M  V30 35924 H 3343.67 -4.02427 2.49699 0
M  V30 35925 H 3344.09 -4.47649 5.07877 0
M  V30 35926 H 3348.73 -3.52413 2.33592 0
M  V30 35927 H 3346.45 -4.57255 6.66291 0
M  V30 35928 H 3350.04 -3.78111 4.4218 0
M  V30 35929 H 3348.92 -4.30056 6.5576 0
M  V30 35930 N 3346.42 -0.701641 -1.4112 0
M  V30 35931 C 3347.7 -0.162945 -1.9492 0
M  V30 35932 C 3348.08 1.32836 -1.64066 0
M  V30 35933 O 3347.42 2.07775 -0.950884 0
M  V30 35934 C 3347.63 -0.460734 -3.45945 0
M  V30 35935 C 3348.98 -0.39178 -4.22789 0
M  V30 35936 O 3350.01 -0.395993 -3.53992 0
M  V30 35937 O 3348.86 -0.357167 -5.45332 0
M  V30 35938 H 3345.96 -0.0185248 -0.826792 0
M  V30 35939 H 3348.5 -0.778218 -1.50804 0
M  V30 35940 H 3347.28 -1.49275 -3.61708 0
M  V30 35941 H 3346.9 0.185207 -3.97168 0
M  V30 35942 N 3347.9 1.51133 -0.446821 0
M  V30 35943 C 3348.84 2.29572 0.374114 0
M  V30 35944 C 3349.84 1.3582 1.01239 0
M  V30 35945 O 3351.04 1.5312 0.946266 0
M  V30 35946 H 3347.42 0.738954 0.139467 0
M  V30 35947 H 3349.39 2.96804 -0.308169 0
M  V30 35948 C 3348.14 3.15678 1.45749 0
M  V30 35949 H 3347.46 3.87711 0.975719 0
M  V30 35950 H 3348.9 3.73601 2.00496 0
M  V30 35951 C 3347.36 2.31671 2.44602 0
M  V30 35952 O 3347.89 1.9829 3.49348 0
M  V30 35953 N 3346.1 1.94712 2.15721 0
M  V30 35954 H 3345.64 2.22058 1.30568 0
M  V30 35955 H 3345.6 1.38803 2.82101 0
M  V30 35956 N 3349.37 0.178515 1.56586 0
M  V30 35957 C 3350.32 -0.765783 2.19633 0
M  V30 35958 C 3351.32 -1.23217 1.1625 0
M  V30 35959 O 3352.52 -1.19699 1.34433 0
M  V30 35960 H 3348.9 -0.265252 0.703666 0
M  V30 35961 H 3350.87 -0.210154 2.97659 0
M  V30 35962 C 3349.62 -1.98183 2.8569 0
M  V30 35963 H 3348.94 -1.632 3.64974 0
M  V30 35964 H 3350.38 -2.62128 3.33264 0
M  V30 35965 C 3348.84 -2.81006 1.85842 0
M  V30 35966 O 3349.37 -3.78394 1.34837 0
M  V30 35967 N 3347.58 -2.46164 1.54439 0
M  V30 35968 H 3347.12 -1.67029 1.9611 0
M  V30 35969 H 3347.08 -3.01867 0.878861 0
M  V30 35970 N 3350.85 -1.57312 -0.0951784 0
M  V30 35971 C 3351.8 -2.02054 -1.11547 0
M  V30 35972 C 3352.77 -0.896842 -1.39807 0
M  V30 35973 O 3353.95 -1.16283 -1.51271 0
M  V30 35974 C 3351.09 -2.44989 -2.43052 0
M  V30 35975 C 3350.21 -3.70879 -2.21524 0
M  V30 35976 C 3349.34 -4.02693 -3.46427 0
M  V30 35977 C 3348.38 -5.21693 -3.20161 0
M  V30 35978 N 3347.52 -5.4926 -4.3733 0
M  V30 35979 H 3352.36 -2.88997 -0.726949 0
M  V30 35980 H 3349.9 -1.42939 -0.347416 0
M  V30 35981 H 3351.85 -2.67927 -3.19799 0
M  V30 35982 H 3350.48 -1.61056 -2.79752 0
M  V30 35983 H 3349.54 -3.55418 -1.35581 0
M  V30 35984 H 3350.85 -4.57772 -1.98107 0
M  V30 35985 H 3350 -4.26407 -4.31581 0
M  V30 35986 H 3348.74 -3.14322 -3.72898 0
M  V30 35987 H 3347.75 -4.978 -2.334 0
M  V30 35988 H 3348.97 -6.11662 -2.95036 0
M  V30 35989 H 3346.92 -4.63848 -4.63876 0
M  V30 35990 H 3346.83 -6.30525 -4.17103 0
M  V30 35991 H 3348.1 -5.77509 -5.23549 0
M  V30 35992 N 3352.33 0.365999 -1.53291 0
M  V30 35993 C 3353.61 1.12433 -1.60057 0
M  V30 35994 C 3353.99 2.07123 -0.407847 0
M  V30 35995 O 3353.34 2.20429 0.601938 0
M  V30 35996 C 3353.55 1.8638 -2.95065 0
M  V30 35997 C 3354.89 2.40928 -3.49627 0
M  V30 35998 O 3355.92 1.96507 -2.97092 0
M  V30 35999 O 3354.78 3.22132 -4.41467 0
M  V30 36000 H 3351.87 0.515739 -0.646485 0
M  V30 36001 H 3354.42 0.369297 -1.65633 0
M  V30 36002 H 3353.19 1.17271 -3.73314 0
M  V30 36003 H 3352.81 2.68793 -2.92978 0
M  V30 36004 N 3353.81 1.44644 0.625774 0
M  V30 36005 C 3354.74 1.54751 1.74855 0
M  V30 36006 C 3355.72 0.400167 1.65326 0
M  V30 36007 O 3356.9 0.620981 1.84004 0
M  V30 36008 C 3354.03 1.49648 3.13405 0
M  V30 36009 C 3352.99 2.62914 3.37728 0
M  V30 36010 C 3352.31 2.42864 4.76363 0
M  V30 36011 C 3353.61 4.05035 3.29764 0
M  V30 36012 H 3355.31 2.48731 1.66653 0
M  V30 36013 H 3352.85 1.1971 0.800342 0
M  V30 36014 H 3354.81 1.55319 3.91732 0
M  V30 36015 H 3353.53 0.52188 3.22403 0
M  V30 36016 H 3352.19 2.56642 2.61784 0
M  V30 36017 H 3351.84 1.43583 4.82071 0
M  V30 36018 H 3351.54 3.18807 4.93595 0
M  V30 36019 H 3353.06 2.5036 5.56913 0
M  V30 36020 H 3354.48 4.12648 3.97988 0
M  V30 36021 H 3352.87 4.81224 3.58529 0
M  V30 36022 H 3353.94 4.28227 2.27486 0
M  V30 36023 N 3355.29 -0.866663 1.31631 0
M  V30 36024 C 3356.25 -1.95574 1.19514 0
M  V30 36025 C 3357.25 -1.60341 0.121347 0
M  V30 36026 O 3358.44 -1.70207 0.370862 0
M  V30 36027 C 3355.57 -3.30509 0.835259 0
M  V30 36028 H 3356.76 -2.07748 2.16289 0
M  V30 36029 H 3354.32 -1.05537 1.1529 0
M  V30 36030 H 3355.05 -3.24035 -0.131188 0
M  V30 36031 H 3354.84 -3.57455 1.61148 0
M  V30 36032 H 3356.33 -4.10356 0.774465 0
M  V30 36033 N 3356.77 -1.14645 -1.0814 0
M  V30 36034 C 3357.68 -0.849646 -2.18674 0
M  V30 36035 C 3358.69 0.170953 -1.73158 0
M  V30 36036 O 3359.87 -0.0011933 -2.014 0
M  V30 36037 C 3356.93 -0.334366 -3.45084 0
M  V30 36038 C 3355.99 -1.41786 -4.0521 0
M  V30 36039 C 3355.23 -0.927073 -5.25586 0
M  V30 36040 O 3355.45 0.230422 -5.69934 0
M  V30 36041 O 3354.38 -1.70726 -5.7718 0
M  V30 36042 H 3358.21 -1.77347 -2.46539 0
M  V30 36043 H 3355.79 -0.924931 -1.17326 0
M  V30 36044 H 3357.68 -0.0530634 -4.21367 0
M  V30 36045 H 3356.35 0.561699 -3.18789 0
M  V30 36046 H 3355.26 -1.75266 -3.30504 0
M  V30 36047 H 3356.59 -2.28855 -4.3576 0
M  V30 36048 N 3358.24 1.26349 -0.942 0
M  V30 36049 C 3359.49 1.94337 -0.600406 0
M  V30 36050 C 3359.84 1.72541 0.851312 0
M  V30 36051 O 3359.14 1.05233 1.60114 0
M  V30 36052 C 3359.33 3.46408 -0.879542 0
M  V30 36053 C 3359.16 3.82992 -2.35684 0
M  V30 36054 C 3357.93 4.05706 -3.01215 0
M  V30 36055 C 3360.13 3.9148 -3.33538 0
M  V30 36056 N 3358.11 4.29182 -4.38949 0
M  V30 36057 C 3359.48 4.19498 -4.56532 0
M  V30 36058 C 3361.54 3.74111 -3.2855 0
M  V30 36059 C 3360.24 4.31952 -5.75161 0
M  V30 36060 C 3362.27 3.87798 -4.46505 0
M  V30 36061 C 3361.63 4.16215 -5.68282 0
M  V30 36062 H 3357.73 0.733877 -0.270091 0
M  V30 36063 H 3360.31 1.52411 -1.21157 0
M  V30 36064 H 3358.48 3.8726 -0.297413 0
M  V30 36065 H 3360.21 4.0161 -0.499133 0
M  V30 36066 H 3356.97 4.01097 -2.5183 0
M  V30 36067 H 3357.39 4.4495 -5.10244 0
M  V30 36068 H 3362.03 3.51169 -2.35457 0
M  V30 36069 H 3359.75 4.53715 -6.68707 0
M  V30 36070 H 3363.34 3.75761 -4.44179 0
M  V30 36071 H 3362.22 4.26572 -6.58032 0
M  V30 36072 N 3359.72 0.709115 1.40746 0
M  V30 36073 C 3360.65 0.0670173 2.33404 0
M  V30 36074 C 3361.63 -0.752556 1.52547 0
M  V30 36075 O 3362.82 -0.702791 1.81037 0
M  V30 36076 C 3359.95 -0.860226 3.36478 0
M  V30 36077 C 3358.9 -0.146753 4.27748 0
M  V30 36078 C 3358.23 -1.18927 5.21306 0
M  V30 36079 C 3359.53 0.995154 5.12732 0
M  V30 36080 H 3361.22 0.840938 2.87348 0
M  V30 36081 H 3358.77 0.405841 1.38163 0
M  V30 36082 H 3360.72 -1.31876 4.00233 0
M  V30 36083 H 3359.44 -1.66597 2.80915 0
M  V30 36084 H 3358.1 0.29189 3.65436 0
M  V30 36085 H 3357.75 -1.9879 4.62051 0
M  V30 36086 H 3357.45 -0.716815 5.83211 0
M  V30 36087 H 3358.98 -1.64804 5.87939 0
M  V30 36088 H 3360.39 0.616281 5.69978 0
M  V30 36089 H 3358.79 1.39557 5.83647 0
M  V30 36090 H 3359.86 1.82875 4.49093 0
M  V30 36091 N 3361.2 -1.50894 0.454829 0
M  V30 36092 C 3362.11 -2.31922 -0.353455 0
M  V30 36093 C 3363.13 -1.41591 -1.01134 0
M  V30 36094 O 3364.3 -1.74655 -1.00288 0
M  V30 36095 C 3361.37 -3.15823 -1.43027 0
M  V30 36096 C 3360.43 -4.21956 -0.790689 0
M  V30 36097 C 3359.66 -5.01847 -1.81619 0
M  V30 36098 O 3359.88 -4.82595 -3.0407 0
M  V30 36099 O 3358.82 -5.85463 -1.39702 0
M  V30 36100 H 3362.64 -3.02129 0.308517 0
M  V30 36101 H 3360.23 -1.47816 0.216997 0
M  V30 36102 H 3362.11 -3.67931 -2.05438 0
M  V30 36103 H 3360.79 -2.48362 -2.07601 0
M  V30 36104 H 3359.69 -3.73881 -0.128061 0
M  V30 36105 H 3361.03 -4.9184 -0.188164 0
M  V30 36106 N 3362.68 -0.186817 -1.56489 0
M  V30 36107 C 3363.62 0.737363 -2.18704 0
M  V30 36108 C 3364.59 1.21577 -1.13173 0
M  V30 36109 O 3365.78 1.28115 -1.4139 0
M  V30 36110 C 3362.92 1.95479 -2.84397 0
M  V30 36111 C 3362.03 1.51852 -4.04432 0
M  V30 36112 C 3361.17 2.69081 -4.58005 0
M  V30 36113 C 3360.21 2.22019 -5.70415 0
M  V30 36114 N 3359.34 3.32396 -6.18431 0
M  V30 36115 H 3364.18 0.200052 -2.97328 0
M  V30 36116 H 3361.72 0.0870062 -1.46842 0
M  V30 36117 H 3363.68 2.66907 -3.2065 0
M  V30 36118 H 3362.31 2.46555 -2.08352 0
M  V30 36119 H 3361.36 0.700414 -3.73896 0
M  V30 36120 H 3362.67 1.13318 -4.85758 0
M  V30 36121 H 3361.83 3.48643 -4.96521 0
M  V30 36122 H 3360.57 3.10884 -3.75769 0
M  V30 36123 H 3359.57 1.40908 -5.31437 0
M  V30 36124 H 3360.8 1.81257 -6.54464 0
M  V30 36125 H 3358.74 3.73746 -5.3912 0
M  V30 36126 H 3358.66 2.98005 -6.94787 0
M  V30 36127 H 3359.93 4.12197 -6.61599 0
M  V30 36128 N 3364.16 1.57361 0.0868344 0
M  V30 36129 C 3365.09 1.99344 1.13113 0
M  V30 36130 C 3366.1 0.897175 1.35848 0
M  V30 36131 O 3367.29 1.17522 1.34354 0
M  V30 36132 C 3364.39 2.30429 2.48507 0
M  V30 36133 C 3363.56 3.6171 2.45936 0
M  V30 36134 C 3362.62 3.80637 3.6332 0
M  V30 36135 O 3361.65 4.52398 3.45435 0
M  V30 36136 N 3362.85 3.21843 4.83112 0
M  V30 36137 H 3365.61 2.8954 0.773731 0
M  V30 36138 H 3363.18 1.59535 0.275703 0
M  V30 36139 H 3365.17 2.40277 3.25651 0
M  V30 36140 H 3363.74 1.46198 2.76306 0
M  V30 36141 H 3362.96 3.62755 1.5428 0
M  V30 36142 H 3364.25 4.47939 2.41305 0
M  V30 36143 H 3363.64 2.63569 5.00548 0
M  V30 36144 H 3362.2 3.37164 5.57821 0
M  V30 36145 N 3365.63 -0.357865 1.53483 0
M  V30 36146 C 3366.56 -1.44463 1.83446 0
M  V30 36147 C 3367.54 -1.55543 0.688513 0
M  V30 36148 O 3368.73 -1.69985 0.93909 0
M  V30 36149 C 3365.86 -2.81703 2.03127 0
M  V30 36150 C 3364.81 -2.85442 3.18915 0
M  V30 36151 C 3364.14 -4.25431 3.23902 0
M  V30 36152 C 3365.44 -2.52267 4.57339 0
M  V30 36153 H 3367.13 -1.19637 2.74458 0
M  V30 36154 H 3364.68 -0.574089 1.32061 0
M  V30 36155 H 3366.63 -3.57764 2.22672 0
M  V30 36156 H 3365.36 -3.07933 1.08833 0
M  V30 36157 H 3364.02 -2.11833 2.99203 0
M  V30 36158 H 3363.66 -4.48749 2.27231 0
M  V30 36159 H 3363.36 -4.28847 4.01702 0
M  V30 36160 H 3364.89 -5.03354 3.4564 0
M  V30 36161 H 3366.3 -3.18042 4.76993 0
M  V30 36162 H 3364.7 -2.66988 5.37436 0
M  V30 36163 H 3365.77 -1.47493 4.61924 0
M  V30 36164 N 3367.11 -1.44974 -0.618094 0
M  V30 36165 C 3368.34 -1.51947 -1.40426 0
M  V30 36166 C 3368.75 -0.148589 -1.88214 0
M  V30 36167 O 3368.11 0.84795 -1.61605 0
M  V30 36168 C 3368.16 -2.49512 -2.61584 0
M  V30 36169 O 3367.88 -3.81272 -2.15785 0
M  V30 36170 C 3369.38 -2.6608 -3.54565 0
M  V30 36171 H 3366.6 -0.514928 -0.430221 0
M  V30 36172 H 3369.15 -1.90062 -0.754758 0
M  V30 36173 H 3367.3 -2.14498 -3.22598 0
M  V30 36174 H 3367.72 -4.34066 -2.94427 0
M  V30 36175 H 3369.19 -3.38346 -4.36149 0
M  V30 36176 H 3369.67 -1.71754 -4.04224 0
M  V30 36177 H 3370.27 -3.02048 -2.99411 0
M  V30 36178 N 3368.59 0.85967 -1.32089 0
M  V30 36179 C 3369.5 2.00022 -1.2259 0
M  V30 36180 C 3370.52 1.73432 -0.140507 0
M  V30 36181 O 3371.69 1.98152 -0.360247 0
M  V30 36182 C 3368.76 3.33594 -0.944254 0
M  V30 36183 C 3367.82 3.73439 -2.11759 0
M  V30 36184 C 3367.05 5.00637 -1.84928 0
M  V30 36185 O 3367.27 5.64911 -0.789398 0
M  V30 36186 O 3366.21 5.37494 -2.70895 0
M  V30 36187 H 3370.03 2.1097 -2.18461 0
M  V30 36188 H 3367.62 0.989557 -1.11929 0
M  V30 36189 H 3369.5 4.13669 -0.803462 0
M  V30 36190 H 3368.18 3.23696 -0.0156652 0
M  V30 36191 H 3367.08 2.9396 -2.31383 0
M  V30 36192 H 3368.42 3.87976 -3.02879 0
M  V30 36193 N 3370.07 1.15217 1.0753 0
M  V30 36194 C 3370.98 0.86123 2.1822 0
M  V30 36195 C 3371.99 -0.161767 1.73246 0
M  V30 36196 O 3373.17 0.011874 2.01396 0
M  V30 36197 C 3370.23 0.352662 3.44902 0
M  V30 36198 C 3369.3 1.43933 4.04452 0
M  V30 36199 C 3368.53 0.954934 5.25087 0
M  V30 36200 O 3368.75 -0.200193 5.70049 0
M  V30 36201 O 3367.69 1.73784 5.76266 0
M  V30 36202 H 3371.51 1.78652 2.45595 0
M  V30 36203 H 3369.1 0.93114 1.16834 0
M  V30 36204 H 3370.98 0.0754088 4.21333 0
M  V30 36205 H 3369.65 -0.544785 3.19083 0
M  V30 36206 H 3368.56 1.77016 3.2957 0
M  V30 36207 H 3369.89 2.31162 4.3454 0
M  V30 36208 N 3371.55 -1.25848 0.948687 0
M  V30 36209 C 3372.82 -1.8862 0.517865 0
M  V30 36210 C 3373.2 -1.85656 -1.00474 0
M  V30 36211 O 3372.55 -1.31601 -1.86798 0
M  V30 36212 C 3372.76 -3.31616 1.08774 0
M  V30 36213 C 3374.11 -4.0842 1.16096 0
M  V30 36214 O 3375.13 -3.40714 1.03886 0
M  V30 36215 O 3373.99 -5.29517 1.35181 0
M  V30 36216 H 3371.09 -0.809353 0.16993 0
M  V30 36217 H 3373.63 -1.33963 1.04174 0
M  V30 36218 H 3372.4 -3.28173 2.13115 0
M  V30 36219 H 3372.03 -3.93823 0.546759 0
M  V30 36220 N 3373.02 -0.716569 -1.40368 0
M  V30 36221 C 3374.27 -0.255994 -2.00472 0
M  V30 36222 C 3374.59 1.15511 -1.57106 0
M  V30 36223 O 3373.86 1.78326 -0.810956 0
M  V30 36224 H 3372.44 -0.0916557 -0.741356 0
M  V30 36225 H 3375.11 -0.922419 -1.7169 0
M  V30 36226 H 3374.2 -0.289861 -3.10751 0
M  V30 36227 N 3374.5 1.50651 -0.462825 0
M  V30 36228 C 3375.75 2.02577 0.0951497 0
M  V30 36229 C 3376.08 1.34471 1.40111 0
M  V30 36230 O 3375.36 0.467735 1.88792 0
M  V30 36231 C 3375.64 3.5895 0.28754 0
M  V30 36232 C 3375.49 4.37639 -1.03886 0
M  V30 36233 C 3376.81 4.27493 1.04585 0
M  V30 36234 H 3373.93 0.736256 0.0331061 0
M  V30 36235 H 3376.57 1.8005 -0.606803 0
M  V30 36236 H 3374.72 3.78275 0.885448 0
M  V30 36237 H 3376.39 4.29905 -1.67271 0
M  V30 36238 H 3374.64 4.01708 -1.63747 0
M  V30 36239 H 3375.31 5.45291 -0.857985 0
M  V30 36240 H 3377.78 4.12592 0.539141 0
M  V30 36241 H 3376.66 5.36734 1.14926 0
M  V30 36242 H 3376.92 3.90093 2.08038 0
M  V30 36243 N 3375.98 0.195113 1.56388 0
M  V30 36244 C 3376.93 -0.738557 2.15707 0
M  V30 36245 C 3377.91 -1.17628 1.09784 0
M  V30 36246 O 3379.11 -1.13468 1.35846 0
M  V30 36247 C 3376.24 -1.95786 2.81998 0
M  V30 36248 C 3375.32 -1.54104 3.95111 0
M  V30 36249 N 3375.71 -0.835173 4.98857 0
M  V30 36250 C 3374.01 -1.83033 4.06712 0
M  V30 36251 C 3374.71 -0.626315 5.78318 0
M  V30 36252 N 3373.69 -1.17504 5.30748 0
M  V30 36253 H 3377.49 -0.190545 2.93282 0
M  V30 36254 H 3375 -0.00467536 1.62399 0
M  V30 36255 H 3377 -2.63722 3.22887 0
M  V30 36256 H 3375.66 -2.5106 2.05911 0
M  V30 36257 H 3376.67 -0.490641 5.15571 0
M  V30 36258 H 3373.35 -2.39815 3.41753 0
M  V30 36259 H 3374.74 -0.0663754 6.71867 0
M  V30 36260 N 3377.46 -1.57404 -0.0784879 0
M  V30 36261 C 3378.68 -1.91523 -0.795838 0
M  V30 36262 C 3379.11 -0.790922 -1.70664 0
M  V30 36263 O 3378.47 0.256629 -1.79475 0
M  V30 36264 C 3378.51 -3.24572 -1.57116 0
M  V30 36265 O 3377.62 -3.13333 -2.68135 0
M  V30 36266 H 3376.96 -0.627345 -0.217564 0
M  V30 36267 H 3379.49 -2.04542 -0.0487364 0
M  V30 36268 H 3379.5 -3.58284 -1.95184 0
M  V30 36269 H 3378.17 -4.05982 -0.902838 0
M  V30 36270 H 3376.75 -2.91167 -2.32973 0
M  V30 36271 N 3378.94 0.34972 -1.53671 0
M  V30 36272 C 3380.18 1.09227 -1.70872 0
M  V30 36273 C 3380.52 1.88493 -0.467332 0
M  V30 36274 O 3379.79 1.86981 0.535586 0
M  V30 36275 C 3380.07 2.03852 -2.96844 0
M  V30 36276 C 3379.93 1.28089 -4.31176 0
M  V30 36277 C 3381.25 3.03757 -3.18464 0
M  V30 36278 H 3378.36 0.3957 -0.621764 0
M  V30 36279 H 3381.01 0.371448 -1.86334 0
M  V30 36280 H 3379.16 2.65318 -2.83793 0
M  V30 36281 H 3380.83 0.692853 -4.56067 0
M  V30 36282 H 3379.07 0.582848 -4.29867 0
M  V30 36283 H 3379.74 1.97431 -5.15485 0
M  V30 36284 H 3382.22 2.52403 -3.30805 0
M  V30 36285 H 3381.09 3.67175 -4.08012 0
M  V30 36286 H 3381.36 3.74799 -2.34474 0
M  V30 36287 N 3380.41 1.45299 0.610397 0
M  V30 36288 C 3381.66 1.48444 1.36556 0
M  V30 36289 C 3381.98 0.129171 1.95173 0
M  V30 36290 O 3383.18 0.0382433 2.71473 0
M  V30 36291 C 3381.64 2.61436 2.47345 0
M  V30 36292 C 3381.25 4.03262 1.95151 0
M  V30 36293 C 3382.99 2.73823 3.24378 0
M  V30 36294 C 3380.9 5.07641 3.03405 0
M  V30 36295 H 3379.83 0.552356 0.513243 0
M  V30 36296 H 3382.48 1.71431 0.654505 0
M  V30 36297 H 3380.86 2.31726 3.21121 0
M  V30 36298 H 3382.03 4.42636 1.28102 0
M  V30 36299 H 3380.35 3.953 1.30871 0
M  V30 36300 H 3382.95 3.48976 4.05117 0
M  V30 36301 H 3383.29 1.80358 3.75202 0
M  V30 36302 H 3383.82 3.03044 2.577 0
M  V30 36303 H 3380.56 6.02804 2.57502 0
M  V30 36304 H 3380.08 4.72839 3.6903 0
M  V30 36305 H 3381.76 5.32266 3.67835 0
M  V30 36306 N 3381.89 -0.852653 1.32543 0
M  V30 36307 C 3382.8 -1.99369 1.23649 0
M  V30 36308 C 3383.82 -1.73355 0.149703 0
M  V30 36309 O 3384.99 -1.97958 0.370751 0
M  V30 36310 C 3382.06 -3.33088 0.961932 0
M  V30 36311 C 3381.12 -3.72311 2.13736 0
M  V30 36312 C 3380.35 -4.99649 1.8758 0
M  V30 36313 O 3380.58 -5.64485 0.819346 0
M  V30 36314 O 3379.51 -5.3605 2.73741 0
M  V30 36315 H 3383.34 -2.09809 2.19577 0
M  V30 36316 H 3380.92 -0.983608 1.12452 0
M  V30 36317 H 3382.8 -4.13238 0.825389 0
M  V30 36318 H 3381.48 -3.23683 0.0328314 0
M  V30 36319 H 3380.39 -2.92729 2.32939 0
M  V30 36320 H 3381.72 -3.86364 3.04932 0
M  V30 36321 N 3383.37 -1.15786 -1.06918 0
M  V30 36322 C 3384.28 -0.872791 -2.1776 0
M  V30 36323 C 3385.3 0.152577 -1.7333 0
M  V30 36324 O 3386.47 -0.0225544 -2.01387 0
M  V30 36325 C 3383.54 -0.370948 -3.4471 0
M  V30 36326 C 3382.6 -1.46076 -4.03683 0
M  V30 36327 C 3381.83 -0.982767 -5.24574 0
M  V30 36328 O 3382.05 0.16996 -5.70147 0
M  V30 36329 O 3380.99 -1.76838 -5.75336 0
M  V30 36330 H 3384.81 -1.79952 -2.44644 0
M  V30 36331 H 3382.4 -0.937323 -1.16338 0
M  V30 36332 H 3384.28 -0.097752 -4.21287 0
M  V30 36333 H 3382.96 0.527856 -3.19367 0
M  V30 36334 H 3381.86 -1.78762 -3.28626 0
M  V30 36335 H 3383.2 -2.33464 -4.33308 0
M  V30 36336 N 3384.85 1.25343 -0.955348 0
M  V30 36337 C 3385.8 2.27859 -0.467245 0
M  V30 36338 C 3386.79 1.62954 0.462844 0
M  V30 36339 O 3388 1.76769 0.339495 0
M  V30 36340 H 3384.37 0.740217 -0.132599 0
M  V30 36341 H 3386.34 2.66414 -1.34411 0
M  V30 36342 C 3385.09 3.46879 0.238837 0
M  V30 36343 H 3384.41 3.97055 -0.467713 0
M  V30 36344 H 3385.85 4.20491 0.54437 0
M  V30 36345 C 3384.31 3.03544 1.46159 0
M  V30 36346 O 3384.84 3.09619 2.55928 0
M  V30 36347 N 3383.05 2.58728 1.32319 0
M  V30 36348 H 3382.6 2.53984 0.430087 0
M  V30 36349 H 3382.55 2.30098 2.14248 0
M  V30 36350 N 3386.33 0.724003 1.39986 0
M  V30 36351 C 3387.58 0.264095 1.99964 0
M  V30 36352 C 3387.89 -1.15187 1.58086 0
M  V30 36353 O 3389.1 -1.71073 2.10822 0
M  V30 36354 C 3387.55 0.421237 3.57426 0
M  V30 36355 C 3387.16 1.84439 4.08272 0
M  V30 36356 C 3388.9 0.022548 4.24494 0
M  V30 36357 C 3386.81 1.95167 5.58269 0
M  V30 36358 H 3385.74 0.094986 0.747993 0
M  V30 36359 H 3388.39 0.896304 1.60121 0
M  V30 36360 H 3386.77 -0.279693 3.95011 0
M  V30 36361 H 3387.95 2.57638 3.82046 0
M  V30 36362 H 3386.26 2.19529 3.5383 0
M  V30 36363 H 3388.86 0.0818684 5.34637 0
M  V30 36364 H 3389.2 -1.02062 4.03595 0
M  V30 36365 H 3389.74 0.674229 3.92045 0
M  V30 36366 H 3386.47 2.97633 5.84033 0
M  V30 36367 H 3385.99 1.2639 5.86332 0
M  V30 36368 H 3387.67 1.7277 6.23506 0
M  V30 36369 N 3387.81 -1.50403 0.470808 0
M  V30 36370 C 3388.75 -2.28521 -0.32351 0
M  V30 36371 C 3389.72 -1.33561 -0.987449 0
M  V30 36372 O 3390.91 -1.62499 -0.999941 0
M  V30 36373 C 3388.05 -3.15439 -1.39972 0
M  V30 36374 C 3387.16 -4.2543 -0.750582 0
M  V30 36375 C 3386.3 -4.99605 -1.80466 0
M  V30 36376 C 3385.33 -6.01471 -1.13575 0
M  V30 36377 N 3384.47 -6.68926 -2.13267 0
M  V30 36378 H 3389.31 -2.9595 0.348954 0
M  V30 36379 H 3386.85 -1.45946 0.183934 0
M  V30 36380 H 3388.81 -3.64184 -2.03534 0
M  V30 36381 H 3387.44 -2.50058 -2.04135 0
M  V30 36382 H 3386.49 -3.804 -0.00240405 0
M  V30 36383 H 3387.8 -4.98303 -0.22255 0
M  V30 36384 H 3386.95 -5.52067 -2.51609 0
M  V30 36385 H 3385.69 -4.26437 -2.36649 0
M  V30 36386 H 3384.7 -5.4827 -0.409946 0
M  V30 36387 H 3385.92 -6.76612 -0.580816 0
M  V30 36388 H 3383.87 -5.98549 -2.68468 0
M  V30 36389 H 3383.79 -7.37674 -1.65448 0
M  V30 36390 H 3385.05 -7.26005 -2.83791 0
M  V30 36391 N 3389.28 -0.203404 -1.56282 0
M  V30 36392 C 3390.52 0.435235 -1.99712 0
M  V30 36393 C 3390.89 1.58223 -1.08763 0
M  V30 36394 O 3392.09 2.28564 -1.41464 0
M  V30 36395 C 3390.36 0.875824 -3.46503 0
M  V30 36396 S 3391.92 1.51113 -4.11959 0
M  V30 36397 H 3388.74 0.138867 -0.697307 0
M  V30 36398 H 3391.34 -0.308426 -1.93052 0
M  V30 36399 H 3390.04 0.0310902 -4.10388 0
M  V30 36400 H 3389.57 1.65275 -3.56998 0
M  V30 36401 H 3391.59 2.80002 -4.0965 0
M  V30 36402 N 3390.76 1.57444 0.0701393 0
M  V30 36403 C 3392.01 1.86514 0.767809 0
M  V30 36404 C 3392.32 0.796288 1.78658 0
M  V30 36405 O 3393.53 0.97489 2.53393 0
M  V30 36406 C 3391.99 3.30853 1.41648 0
M  V30 36407 C 3391.59 4.45871 0.436194 0
M  V30 36408 C 3393.34 3.69121 2.09642 0
M  V30 36409 C 3391.24 5.81252 1.09088 0
M  V30 36410 H 3390.17 0.695789 0.290507 0
M  V30 36411 H 3392.83 1.83488 0.0211375 0
M  V30 36412 H 3391.21 3.28496 2.21147 0
M  V30 36413 H 3392.38 4.59623 -0.329103 0
M  V30 36414 H 3390.7 4.16167 -0.139387 0
M  V30 36415 H 3393.29 4.67562 2.59403 0
M  V30 36416 H 3393.64 2.99005 2.89657 0
M  V30 36417 H 3394.17 3.73475 1.36972 0
M  V30 36418 H 3390.91 6.54664 0.331013 0
M  V30 36419 H 3390.43 5.71298 1.827 0
M  V30 36420 H 3392.11 6.26642 1.61023 0
M  V30 36421 N 3392.24 -0.341566 1.53854 0
M  V30 36422 C 3393.46 -1.106 1.75449 0
M  V30 36423 C 3393.89 -1.81517 0.493256 0
M  V30 36424 O 3393.25 -1.72621 -0.554222 0
M  V30 36425 C 3393.3 -2.09364 2.93597 0
M  V30 36426 O 3392.4 -3.16921 2.63884 0
M  V30 36427 H 3391.74 -0.319773 0.581929 0
M  V30 36428 H 3394.27 -0.391353 2.00822 0
M  V30 36429 H 3394.28 -2.5255 3.20441 0
M  V30 36430 H 3392.96 -1.57144 3.8507 0
M  V30 36431 H 3391.53 -2.78538 2.47934 0
M  V30 36432 N 3393.72 -1.45621 -0.602683 0
M  V30 36433 C 3395.13 -1.30135 -0.92396 0
M  V30 36434 C 3395.33 -0.257995 -1.99842 0
M  V30 36435 O 3394.39 0.346371 -2.50113 0
M  V30 36436 C 3395.7 -2.68175 -1.36024 0
M  V30 36437 C 3397.25 -2.7611 -1.47418 0
M  V30 36438 C 3397.73 -4.14687 -1.9442 0
M  V30 36439 N 3399.22 -4.17005 -2.01646 0
M  V30 36440 C 3399.95 -5.21104 -2.39246 0
M  V30 36441 N 3399.45 -6.35545 -2.7578 0
M  V30 36442 N 3401.24 -5.08464 -2.39627 0
M  V30 36443 H 3393.39 -2.12128 0.107414 0
M  V30 36444 H 3395.65 -0.947887 -0.0146049 0
M  V30 36445 H 3395.36 -3.45737 -0.644889 0
M  V30 36446 H 3395.23 -2.96963 -2.32579 0
M  V30 36447 H 3397.62 -1.98849 -2.18043 0
M  V30 36448 H 3397.7 -2.51031 -0.491656 0
M  V30 36449 H 3397.35 -4.92435 -1.2438 0
M  V30 36450 H 3397.28 -4.37161 -2.93595 0
M  V30 36451 H 3399.77 -3.34423 -1.75982 0
M  V30 36452 H 3400.08 -7.10767 -3.03366 0
M  V30 36453 H 3398.43 -6.38939 -2.73464 0
M  V30 36454 H 3401.62 -4.18102 -2.10495 0
M  V30 36455 H 3401.79 -5.89708 -2.68604 0
M  V30 36456 N 3395.2 0.845612 -1.32993 0
M  V30 36457 C 3396.47 1.58459 -1.14674 0
M  V30 36458 C 3396.85 2.09106 0.289462 0
M  V30 36459 O 3396.2 1.88776 1.28748 0
M  V30 36460 C 3396.41 2.72369 -2.18211 0
M  V30 36461 C 3397.76 3.41721 -2.52016 0
M  V30 36462 O 3398.78 2.82604 -2.16826 0
M  V30 36463 O 3397.64 4.48424 -3.12376 0
M  V30 36464 H 3394.74 0.698277 -0.4431 0
M  V30 36465 H 3397.28 0.888953 -1.44554 0
M  V30 36466 H 3396.05 2.32536 -3.14711 0
M  V30 36467 H 3395.68 3.49602 -1.89378 0
M  V30 36468 N 3396.67 1.16351 1.06302 0
M  V30 36469 C 3397.9 0.967757 1.82532 0
M  V30 36470 C 3398.31 -0.487306 1.82817 0
M  V30 36471 O 3397.65 -1.34998 1.24584 0
M  V30 36472 C 3397.72 1.41816 3.30346 0
M  V30 36473 C 3397.38 2.89309 3.53764 0
M  V30 36474 C 3398.38 3.87314 3.46819 0
M  V30 36475 C 3396.06 3.27226 3.81088 0
M  V30 36476 C 3398.06 5.21238 3.66865 0
M  V30 36477 C 3395.74 4.6132 4.00783 0
M  V30 36478 C 3396.74 5.58134 3.93669 0
M  V30 36479 O 3396.43 6.89804 4.12827 0
M  V30 36480 H 3396.16 0.343199 0.582401 0
M  V30 36481 H 3398.72 1.54787 1.35019 0
M  V30 36482 H 3396.95 0.781523 3.7872 0
M  V30 36483 H 3398.63 1.18983 3.88069 0
M  V30 36484 H 3399.4 3.59367 3.257 0
M  V30 36485 H 3395.28 2.52447 3.85735 0
M  V30 36486 H 3398.82 5.96792 3.61227 0
M  V30 36487 H 3394.72 4.88978 4.21392 0
M  V30 36488 H 3395.49 6.96378 4.30116 0
M  V30 36489 N 3398.15 -1.24835 0.961982 0
M  V30 36490 C 3399.4 -1.93037 0.621668 0
M  V30 36491 C 3399.73 -1.75082 -0.840226 0
M  V30 36492 O 3399.01 -1.1004 -1.60379 0
M  V30 36493 C 3399.29 -3.46219 0.990167 0
M  V30 36494 C 3399.14 -3.73367 2.50833 0
M  V30 36495 C 3400.46 -4.37011 0.520555 0
M  V30 36496 H 3397.58 -0.701065 0.227324 0
M  V30 36497 H 3400.22 -1.47313 1.19996 0
M  V30 36498 H 3398.37 -3.85294 0.498076 0
M  V30 36499 H 3400.04 -3.43885 3.07475 0
M  V30 36500 H 3398.29 -3.18717 2.94282 0
M  V30 36501 H 3398.96 -4.80522 2.71667 0
M  V30 36502 H 3401.43 -4.05279 0.942774 0
M  V30 36503 H 3400.31 -5.42935 0.807013 0
M  V30 36504 H 3400.57 -4.38286 -0.57943 0
M  V30 36505 N 3399.63 -0.731417 -1.396 0
M  V30 36506 C 3400.56 -0.104141 -2.33268 0
M  V30 36507 C 3401.54 0.728191 -1.53725 0
M  V30 36508 O 3402.73 0.673901 -1.82132 0
M  V30 36509 C 3399.86 0.806586 -3.37804 0
M  V30 36510 C 3398.81 0.0786835 -4.27928 0
M  V30 36511 C 3398.14 1.10619 -5.23132 0
M  V30 36512 C 3399.44 -1.0766 -5.11084 0
M  V30 36513 H 3401.13 -0.886546 -2.85973 0
M  V30 36514 H 3398.68 -0.42777 -1.375 0
M  V30 36515 H 3400.63 1.25492 -4.02281 0
M  V30 36516 H 3399.35 1.62107 -2.83529 0
M  V30 36517 H 3398.01 -0.349991 -3.64926 0
M  V30 36518 H 3397.66 1.91414 -4.65156 0
M  V30 36519 H 3397.36 0.62394 -5.84278 0
M  V30 36520 H 3398.88 1.5543 -5.90486 0
M  V30 36521 H 3400.3 -0.706881 -5.68925 0
M  V30 36522 H 3398.69 -1.48825 -5.81353 0
M  V30 36523 H 3399.76 -1.89996 -4.46127 0
M  V30 36524 N 3401.11 1.50152 -0.478778 0
M  V30 36525 C 3402.06 2.2869 0.311386 0
M  V30 36526 C 3403.03 1.34083 0.980352 0
M  V30 36527 O 3404.21 1.63027 0.991309 0
M  V30 36528 C 3401.35 3.16177 1.38297 0
M  V30 36529 C 3400.46 4.25822 0.728009 0
M  V30 36530 C 3399.6 5.00555 1.77814 0
M  V30 36531 C 3398.64 6.02065 1.10384 0
M  V30 36532 N 3397.77 6.70047 2.09716 0
M  V30 36533 H 3402.61 2.95761 -0.364644 0
M  V30 36534 H 3400.15 1.45846 -0.191671 0
M  V30 36535 H 3402.11 3.65258 2.01599 0
M  V30 36536 H 3400.74 2.51137 2.02806 0
M  V30 36537 H 3399.79 3.80396 -0.0177695 0
M  V30 36538 H 3401.1 4.98414 0.196121 0
M  V30 36539 H 3400.26 5.53393 2.48678 0
M  V30 36540 H 3399 4.27686 2.34384 0
M  V30 36541 H 3398 5.48479 0.380864 0
M  V30 36542 H 3399.23 6.7691 0.544926 0
M  V30 36543 H 3397.17 5.99964 2.6529 0
M  V30 36544 H 3397.09 7.38541 1.61533 0
M  V30 36545 H 3398.36 7.275 2.79937 0
M  V30 36546 N 3402.59 0.211689 1.56172 0
M  V30 36547 C 3403.52 -0.734619 2.17108 0
M  V30 36548 C 3404.53 -1.16476 1.13742 0
M  V30 36549 O 3405.72 -1.09762 1.40765 0
M  V30 36550 C 3402.82 -2.00556 2.73186 0
M  V30 36551 C 3401.99 -1.73257 4.01623 0
M  V30 36552 C 3401.05 -2.8496 4.42362 0
M  V30 36553 O 3400.08 -2.53854 5.09458 0
M  V30 36554 N 3401.28 -4.13695 4.07231 0
M  V30 36555 H 3404.05 -0.213423 2.98939 0
M  V30 36556 H 3401.61 0.0303182 1.61872 0
M  V30 36557 H 3403.6 -2.74456 2.97415 0
M  V30 36558 H 3402.17 -2.43751 1.95715 0
M  V30 36559 H 3401.39 -0.830508 3.85352 0
M  V30 36560 H 3402.68 -1.52436 4.85428 0
M  V30 36561 H 3402.07 -4.41814 3.53294 0
M  V30 36562 H 3400.63 -4.8417 4.36375 0
M  V30 36563 N 3404.06 -1.57479 -0.0617887 0
M  V30 36564 C 3405.31 -1.86919 -0.757907 0
M  V30 36565 C 3405.63 -0.805751 -1.78233 0
M  V30 36566 O 3406.83 -0.988314 -2.52873 0
M  V30 36567 C 3405.29 -3.316 -1.39892 0
M  V30 36568 C 3404.9 -4.46096 -0.412543 0
M  V30 36569 C 3406.64 -3.70228 -2.07682 0
M  V30 36570 C 3404.55 -5.81822 -1.06004 0
M  V30 36571 H 3403.48 -0.697319 -0.286813 0
M  V30 36572 H 3406.13 -1.83496 -0.0114064 0
M  V30 36573 H 3404.51 -3.29665 -2.19402 0
M  V30 36574 H 3405.68 -4.59442 0.353473 0
M  V30 36575 H 3404 -4.16087 0.161456 0
M  V30 36576 H 3406.6 -4.68931 -2.56919 0
M  V30 36577 H 3406.94 -3.00537 -2.88068 0
M  V30 36578 H 3407.47 -3.74196 -1.3499 0
M  V30 36579 H 3404.21 -6.5483 -0.29629 0
M  V30 36580 H 3403.73 -5.72258 -1.79667 0
M  V30 36581 H 3405.41 -6.27488 -1.57697 0
M  V30 36582 N 3405.54 0.333401 -1.54033 0
M  V30 36583 C 3406.96 0.677141 -1.44523 0
M  V30 36584 C 3407.16 1.9204 -0.610156 0
M  V30 36585 O 3406.21 2.52281 -0.105102 0
M  V30 36586 C 3407.53 0.860319 -2.8813 0
M  V30 36587 C 3409.08 0.95829 -2.97969 0
M  V30 36588 C 3409.55 1.17371 -4.42705 0
M  V30 36589 N 3411.04 1.24068 -4.46275 0
M  V30 36590 C 3411.78 1.42506 -5.55409 0
M  V30 36591 N 3411.27 1.58051 -6.74531 0
M  V30 36592 N 3413.07 1.45135 -5.4304 0
M  V30 36593 H 3405.22 -0.483894 -2.06814 0
M  V30 36594 H 3407.48 -0.154627 -0.935305 0
M  V30 36595 H 3407.19 0.0181467 -3.51695 0
M  V30 36596 H 3407.06 1.75907 -3.33671 0
M  V30 36597 H 3409.45 1.79097 -2.34538 0
M  V30 36598 H 3409.53 0.0362194 -2.55774 0
M  V30 36599 H 3409.17 0.345915 -5.06721 0
M  V30 36600 H 3409.1 2.1095 -4.82501 0
M  V30 36601 H 3411.59 1.13538 -3.60441 0
M  V30 36602 H 3411.91 1.71784 -7.53465 0
M  V30 36603 H 3410.25 1.55167 -6.77457 0
M  V30 36604 H 3413.44 1.3258 -4.48932 0
M  V30 36605 H 3413.61 1.59162 -6.28149 0
M  V30 36606 N 3407.02 1.45939 0.594952 0
M  V30 36607 C 3408.25 1.54396 1.38479 0
M  V30 36608 C 3408.67 0.181596 1.87221 0
M  V30 36609 O 3408.03 -0.836091 1.6087 0
M  V30 36610 C 3408.08 2.54292 2.55672 0
M  V30 36611 O 3407.18 2.06947 3.56716 0
M  V30 36612 H 3406.52 0.520002 0.412909 0
M  V30 36613 H 3409.05 1.91405 0.722865 0
M  V30 36614 H 3409.06 2.73507 3.02751 0
M  V30 36615 H 3407.74 3.53232 2.19546 0
M  V30 36616 H 3406.31 1.97666 3.162 0
M  V30 36617 N 3408.5 -0.838547 1.3344 0
M  V30 36618 C 3409.43 -1.96363 1.26348 0
M  V30 36619 C 3410.41 -1.69489 0.143986 0
M  V30 36620 O 3411.59 -1.9131 0.333813 0
M  V30 36621 C 3408.72 -3.32524 1.00226 0
M  V30 36622 C 3407.68 -3.73796 2.08472 0
M  V30 36623 C 3407 -5.07766 1.67564 0
M  V30 36624 C 3408.3 -3.87546 3.50151 0
M  V30 36625 H 3410 -2.02555 2.20481 0
M  V30 36626 H 3407.54 -0.973149 1.0614 0
M  V30 36627 H 3409.5 -4.10802 0.93914 0
M  V30 36628 H 3408.22 -3.2659 0.0253088 0
M  V30 36629 H 3406.88 -2.97781 2.13827 0
M  V30 36630 H 3406.53 -4.98304 0.685707 0
M  V30 36631 H 3406.23 -5.36351 2.40002 0
M  V30 36632 H 3407.75 -5.88519 1.62719 0
M  V30 36633 H 3409.17 -4.56135 3.47295 0
M  V30 36634 H 3407.56 -4.27568 4.21077 0
M  V30 36635 H 3408.63 -2.89987 3.88633 0
M  V30 36636 N 3409.98 -1.16914 -1.05683 0
M  V30 36637 C 3411.22 -0.95587 -1.7886 0
M  V30 36638 C 3411.56 0.514612 -1.87258 0
M  V30 36639 O 3410.83 1.3819 -1.36871 0
M  V30 36640 C 3411.11 -1.59157 -3.23019 0
M  V30 36641 C 3410.97 -3.13382 -3.22664 0
M  V30 36642 C 3412.29 -1.29135 -4.20728 0
M  V30 36643 H 3409.4 -0.348674 -0.649304 0
M  V30 36644 H 3412.05 -1.44337 -1.23559 0
M  V30 36645 H 3410.2 -1.17703 -3.70241 0
M  V30 36646 H 3411.87 -3.6386 -2.83556 0
M  V30 36647 H 3410.11 -3.46391 -2.61143 0
M  V30 36648 H 3410.78 -3.52986 -4.24388 0
M  V30 36649 H 3413.26 -1.65024 -3.81977 0
M  V30 36650 H 3412.13 -1.76208 -5.19848 0
M  V30 36651 H 3412.4 -0.211268 -4.41595 0
M  V30 36652 N 3411.45 1.24323 -0.968589 0
M  V30 36653 C 3412.39 2.24592 -0.457286 0
M  V30 36654 C 3413.4 1.56896 0.434455 0
M  V30 36655 O 3414.59 1.76873 0.240488 0
M  V30 36656 C 3411.69 3.36993 0.359027 0
M  V30 36657 C 3410.86 4.34262 -0.523021 0
M  V30 36658 C 3409.92 5.25664 0.237436 0
M  V30 36659 O 3408.95 5.68003 -0.368935 0
M  V30 36660 N 3410.15 5.60063 1.52676 0
M  V30 36661 H 3412.91 2.69095 -1.31939 0
M  V30 36662 H 3410.47 1.38373 -0.840512 0
M  V30 36663 H 3412.47 3.95109 0.87582 0
M  V30 36664 H 3411.04 2.91768 1.12206 0
M  V30 36665 H 3410.26 3.74821 -1.22078 0
M  V30 36666 H 3411.54 4.96217 -1.12456 0
M  V30 36667 H 3410.94 5.27594 2.04111 0
M  V30 36668 H 3409.5 6.20704 1.98923 0
M  V30 36669 N 3412.93 0.73881 1.3921 0
M  V30 36670 C 3413.9 0.109787 2.28937 0
M  V30 36671 C 3414.9 -0.663132 1.4649 0
M  V30 36672 O 3416.09 -0.491584 1.6712 0
M  V30 36673 C 3413.22 -0.853575 3.30041 0
M  V30 36674 H 3414.41 0.900345 2.86066 0
M  V30 36675 H 3411.96 0.504879 1.47921 0
M  V30 36676 H 3412.7 -1.67035 2.77974 0
M  V30 36677 H 3412.48 -0.301938 3.90936 0
M  V30 36678 H 3413.97 -1.29015 3.97171 0
M  V30 36679 N 3414.41 -1.49895 0.486734 0
M  V30 36680 C 3415.36 -2.30483 -0.313116 0
M  V30 36681 C 3416.35 -1.38457 -0.976019 0
M  V30 36682 O 3417.56 -1.55575 -0.905336 0
M  V30 36683 H 3413.93 -0.742392 -0.119826 0
M  V30 36684 H 3415.9 -2.95883 0.386753 0
M  V30 36685 C 3414.65 -3.19431 -1.37328 0
M  V30 36686 H 3413.98 -3.90162 -0.872581 0
M  V30 36687 H 3415.42 -3.78785 -1.9052 0
M  V30 36688 C 3413.88 -2.38075 -2.38374 0
M  V30 36689 O 3414.41 -2.07482 -3.43968 0
M  V30 36690 N 3412.61 -2.00363 -2.10483 0
M  V30 36691 H 3412.16 -2.25442 -1.24635 0
M  V30 36692 H 3412.12 -1.46234 -2.78322 0
M  V30 36693 N 3415.89 -0.219968 -1.56057 0
M  V30 36694 C 3417.3 0.288171 -1.84463 0
M  V30 36695 C 3417.65 1.59589 -1.14131 0
M  V30 36696 O 3416.78 2.12472 -0.410448 0
M  V30 36697 C 3417.37 0.52963 -3.34635 0
M  V30 36698 C 3415.93 0.982081 -3.63362 0
M  V30 36699 C 3415.08 0.0442805 -2.77265 0
M  V30 36700 H 3418.03 -0.443197 -1.52386 0
M  V30 36701 H 3418.05 1.37584 -3.54755 0
M  V30 36702 H 3417.56 -0.422311 -3.85795 0
M  V30 36703 H 3415.66 1.94743 -3.17657 0
M  V30 36704 H 3415.78 0.857585 -4.71362 0
M  V30 36705 H 3414.14 0.550782 -2.48673 0
M  V30 36706 H 3414.92 -0.90255 -3.31223 0
M  V30 36707 N 3417.37 1.57509 0.0534363 0
M  V30 36708 C 3418.28 2.08315 1.07899 0
M  V30 36709 C 3419.29 1.01649 1.41221 0
M  V30 36710 O 3420.47 1.33236 1.5103 0
M  V30 36711 C 3417.53 2.53224 2.36809 0
M  V30 36712 C 3416.6 3.74268 2.10291 0
M  V30 36713 C 3415.83 4.17026 3.33055 0
M  V30 36714 O 3416.05 3.59498 4.42851 0
M  V30 36715 O 3414.99 5.09671 3.20186 0
M  V30 36716 H 3418.81 2.96051 0.677316 0
M  V30 36717 H 3416.4 1.46962 0.268812 0
M  V30 36718 H 3418.28 2.82549 3.1264 0
M  V30 36719 H 3416.95 1.68609 2.7632 0
M  V30 36720 H 3415.86 3.49999 1.32105 0
M  V30 36721 H 3417.19 4.59791 1.7565 0
M  V30 36722 N 3418.85 -0.325228 1.54208 0
M  V30 36723 C 3420.09 -1.06494 1.72588 0
M  V30 36724 C 3420.42 -1.87726 0.497261 0
M  V30 36725 O 3419.7 -1.87809 -0.505771 0
M  V30 36726 C 3419.98 -1.99104 3.00049 0
M  V30 36727 C 3419.84 -1.21214 4.3316 0
M  V30 36728 C 3421.15 -2.98652 3.23257 0
M  V30 36729 H 3418.27 -0.385758 0.62798 0
M  V30 36730 H 3420.92 -0.341757 1.86901 0
M  V30 36731 H 3419.07 -2.6077 2.87978 0
M  V30 36732 H 3420.74 -0.620209 4.57112 0
M  V30 36733 H 3418.98 -0.514386 4.30739 0
M  V30 36734 H 3419.65 -1.89205 5.18561 0
M  V30 36735 H 3422.13 -2.47108 3.34779 0
M  V30 36736 H 3421 -3.60637 4.13802 0
M  V30 36737 H 3421.26 -3.71021 2.40407 0
M  V30 36738 N 3420.32 -1.46252 -0.587204 0
M  V30 36739 C 3421.29 -1.56063 -1.6786 0
M  V30 36740 C 3422.29 -0.438189 -1.54714 0
M  V30 36741 O 3423.48 -0.702351 -1.59414 0
M  V30 36742 C 3420.61 -1.47664 -3.07259 0
M  V30 36743 H 3421.8 -2.53324 -1.60521 0
M  V30 36744 H 3419.35 -1.33996 -0.804667 0
M  V30 36745 H 3420.09 -0.516657 -3.20158 0
M  V30 36746 H 3419.87 -2.29097 -3.18209 0
M  V30 36747 H 3421.36 -1.57606 -3.86717 0
M  V30 36748 N 3421.8 0.831459 -1.33883 0
M  V30 36749 C 3422.73 1.94659 -1.19093 0
M  V30 36750 C 3423.71 1.6238 -0.0845992 0
M  V30 36751 O 3424.9 1.86859 -0.248196 0
M  V30 36752 C 3422.02 3.28416 -0.828281 0
M  V30 36753 C 3421.07 3.79662 -1.94316 0
M  V30 36754 S 3421.9 4.00447 -3.55531 0
M  V30 36755 C 3423.06 5.37145 -3.21289 0
M  V30 36756 H 3423.29 2.06906 -2.13488 0
M  V30 36757 H 3420.82 0.986077 -1.1881 0
M  V30 36758 H 3422.78 4.05701 -0.625831 0
M  V30 36759 H 3421.44 3.1395 0.0971905 0
M  V30 36760 H 3420.64 4.76469 -1.64296 0
M  V30 36761 H 3420.24 3.09297 -2.10266 0
M  V30 36762 H 3422.53 6.2025 -2.72574 0
M  V30 36763 H 3423.47 5.72142 -4.17203 0
M  V30 36764 H 3423.88 5.0225 -2.57692 0
M  V30 36765 N 3423.28 1.17472 1.05062 0
M  V30 36766 C 3424.56 0.873807 1.74997 0
M  V30 36767 C 3424.94 -0.62564 2.01616 0
M  V30 36768 O 3424.28 -1.57731 1.65327 0
M  V30 36769 C 3424.49 1.71016 3.04228 0
M  V30 36770 C 3425.84 1.93093 3.78154 0
M  V30 36771 O 3426.87 1.67985 3.14101 0
M  V30 36772 O 3425.73 2.35299 4.93251 0
M  V30 36773 H 3422.82 0.323655 0.761037 0
M  V30 36774 H 3425.37 1.28174 1.11218 0
M  V30 36775 H 3424.14 2.72709 2.80616 0
M  V30 36776 H 3423.76 1.30008 3.75744 0
M  V30 36777 N 3424.76 -1.23807 0.975168 0
M  V30 36778 C 3425.98 -1.96664 0.658639 0
M  V30 36779 C 3426.41 -1.71765 -0.766714 0
M  V30 36780 O 3425.77 -0.985914 -1.52149 0
M  V30 36781 C 3425.81 -3.47902 0.948499 0
M  V30 36782 O 3424.92 -4.12383 0.0377966 0
M  V30 36783 H 3424.26 -0.615851 0.248242 0
M  V30 36784 H 3426.79 -1.57384 1.30734 0
M  V30 36785 H 3426.8 -3.98329 0.88307 0
M  V30 36786 H 3425.47 -3.65352 1.98723 0
M  V30 36787 H 3424.05 -3.72569 0.157187 0
M  V30 36788 N 3426.24 -0.746182 -1.38816 0
M  V30 36789 C 3427.48 -0.295874 -1.99518 0
M  V30 36790 C 3427.8 1.12658 -1.59899 0
M  V30 36791 O 3429 1.67698 -2.13517 0
M  V30 36792 C 3427.46 -0.478047 -3.56711 0
M  V30 36793 C 3427.07 -1.90911 -4.05286 0
M  V30 36794 C 3428.81 -0.0900785 -4.24404 0
M  V30 36795 C 3426.72 -2.04023 -5.55093 0
M  V30 36796 H 3425.65 -0.106874 -0.746387 0
M  V30 36797 H 3428.3 -0.921665 -1.58674 0
M  V30 36798 H 3426.68 0.216814 -3.95406 0
M  V30 36799 H 3427.86 -2.63683 -3.77899 0
M  V30 36800 H 3426.17 -2.25131 -3.50293 0
M  V30 36801 H 3428.77 -0.166914 -5.34439 0
M  V30 36802 H 3429.11 0.956278 -4.05168 0
M  V30 36803 H 3429.64 -0.736515 -3.90922 0
M  V30 36804 H 3426.38 -3.06887 -5.79224 0
M  V30 36805 H 3425.9 -1.35702 -5.84247 0
M  V30 36806 H 3427.58 -1.82667 -6.20678 0
M  V30 36807 N 3427.71 1.49635 -0.494676 0
M  V30 36808 C 3428.96 2.01628 0.0538922 0
M  V30 36809 C 3429.28 1.37988 1.38631 0
M  V30 36810 O 3430.48 1.81272 2.0212 0
M  V30 36811 C 3428.94 3.59602 0.146519 0
M  V30 36812 C 3428.55 4.32211 -1.17888 0
M  V30 36813 C 3430.29 4.19559 0.645788 0
M  V30 36814 C 3428.2 5.82027 -1.04876 0
M  V30 36815 H 3427.13 0.753621 0.0239145 0
M  V30 36816 H 3429.78 1.72231 -0.633142 0
M  V30 36817 H 3428.16 3.85687 0.897863 0
M  V30 36818 H 3429.33 4.17832 -1.94302 0
M  V30 36819 H 3427.65 3.8397 -1.61109 0
M  V30 36820 H 3430.25 5.29263 0.760547 0
M  V30 36821 H 3430.59 3.82504 1.64306 0
M  V30 36822 H 3431.12 3.9777 -0.04884 0
M  V30 36823 H 3427.86 6.23596 -2.02011 0
M  V30 36824 H 3427.38 5.98917 -0.325399 0
M  V30 36825 H 3429.06 6.42926 -0.724912 0
M  V30 36826 N 3429.19 0.228241 1.55939 0
M  V30 36827 C 3430.14 -0.692636 2.17225 0
M  V30 36828 C 3431.13 -1.15273 1.12254 0
M  V30 36829 O 3432.32 -1.10561 1.38222 0
M  V30 36830 C 3429.45 -1.89761 2.86087 0
M  V30 36831 C 3428.53 -1.45688 3.98291 0
M  V30 36832 N 3428.92 -0.72917 5.00516 0
M  V30 36833 C 3427.22 -1.74365 4.10503 0
M  V30 36834 C 3427.92 -0.503504 5.79517 0
M  V30 36835 N 3426.9 -1.0622 5.33121 0
M  V30 36836 H 3430.7 -0.128293 2.9362 0
M  V30 36837 H 3428.21 0.029773 1.62373 0
M  V30 36838 H 3430.21 -2.56814 3.28409 0
M  V30 36839 H 3428.87 -2.46635 2.1119 0
M  V30 36840 H 3429.88 -0.38117 5.16495 0
M  V30 36841 H 3426.56 -2.32512 3.46763 0
M  V30 36842 H 3427.95 0.0761525 6.71857 0
M  V30 36843 N 3430.67 -1.57536 -0.0450825 0
M  V30 36844 C 3431.6 -2.00851 -1.08324 0
M  V30 36845 C 3432.58 -0.889981 -1.36081 0
M  V30 36846 O 3433.77 -1.15451 -1.49007 0
M  V30 36847 C 3430.89 -2.36797 -2.42167 0
M  V30 36848 C 3429.94 -3.5893 -2.30372 0
M  V30 36849 S 3430.77 -5.08717 -1.67235 0
M  V30 36850 C 3431.93 -5.4789 -3.02601 0
M  V30 36851 H 3432.16 -2.88593 -0.714223 0
M  V30 36852 H 3429.69 -1.52288 -0.254534 0
M  V30 36853 H 3431.65 -2.58179 -3.19145 0
M  V30 36854 H 3430.31 -1.49535 -2.76221 0
M  V30 36855 H 3429.51 -3.81685 -3.29139 0
M  V30 36856 H 3429.11 -3.37317 -1.61534 0
M  V30 36857 H 3431.4 -5.47594 -3.98932 0
M  V30 36858 H 3432.34 -6.4839 -2.84597 0
M  V30 36859 H 3432.75 -4.75372 -3.04437 0
M  V30 36860 N 3432.15 0.317045 -1.54378 0
M  V30 36861 C 3433.38 1.07359 -1.76866 0
M  V30 36862 C 3433.79 1.81487 -0.520386 0
M  V30 36863 O 3433.15 1.75253 0.509182 0
M  V30 36864 C 3433.2 2.06663 -2.96602 0
M  V30 36865 O 3432.92 1.35544 -4.16604 0
M  V30 36866 C 3434.42 2.94483 -3.31353 0
M  V30 36867 H 3431.64 0.319073 -0.590283 0
M  V30 36868 H 3434.19 0.361192 -2.01285 0
M  V30 36869 H 3432.34 2.73427 -2.74438 0
M  V30 36870 H 3432.75 2.021 -4.84 0
M  V30 36871 H 3434.23 3.60044 -4.18417 0
M  V30 36872 H 3434.71 3.6193 -2.48803 0
M  V30 36873 H 3435.31 2.33271 -3.55619 0
M  V30 36874 N 3433.63 1.46561 0.57944 0
M  V30 36875 C 3434.56 1.53409 1.70289 0
M  V30 36876 C 3435.57 0.422144 1.57232 0
M  V30 36877 O 3436.76 0.690669 1.64597 0
M  V30 36878 C 3433.86 1.40137 3.08569 0
M  V30 36879 C 3433.03 2.65509 3.47597 0
M  V30 36880 C 3432.09 2.46389 4.64951 0
M  V30 36881 O 3431.12 3.20125 4.70647 0
M  V30 36882 N 3432.32 1.52766 5.60038 0
M  V30 36883 H 3435.09 2.50277 1.64868 0
M  V30 36884 H 3432.65 1.42659 0.765508 0
M  V30 36885 H 3434.64 1.25113 3.84875 0
M  V30 36886 H 3433.21 0.514376 3.08339 0
M  V30 36887 H 3432.43 2.95451 2.60964 0
M  V30 36888 H 3433.72 3.48786 3.7044 0
M  V30 36889 H 3433.11 0.919685 5.58174 0
M  V30 36890 H 3431.67 1.43704 6.35761 0
M  V30 36891 N 3435.1 -0.824347 1.34322 0
M  V30 36892 C 3436.05 -1.92401 1.22336 0
M  V30 36893 C 3437.04 -1.60431 0.122737 0
M  V30 36894 O 3438.23 -1.73459 0.352262 0
M  V30 36895 C 3435.36 -3.29028 0.979555 0
M  V30 36896 C 3434.45 -3.67121 2.12328 0
M  V30 36897 N 3434.84 -3.76789 3.37437 0
M  V30 36898 C 3433.13 -3.96959 2.03321 0
M  V30 36899 C 3433.84 -4.10106 4.12539 0
M  V30 36900 N 3432.81 -4.2325 3.41116 0
M  V30 36901 H 3436.61 -1.98052 2.17147 0
M  V30 36902 H 3434.13 -1.01792 1.26539 0
M  V30 36903 H 3436.12 -4.07623 0.874597 0
M  V30 36904 H 3434.78 -3.24675 0.0401182 0
M  V30 36905 H 3435.8 -3.6032 3.72008 0
M  V30 36906 H 3432.47 -4.00734 1.17125 0
M  V30 36907 H 3433.86 -4.24802 5.2057 0
M  V30 36908 N 3436.58 -1.18028 -1.04437 0
M  V30 36909 C 3437.83 -0.967731 -1.76969 0
M  V30 36910 C 3438.14 0.503961 -1.88996 0
M  V30 36911 O 3439.35 0.834923 -2.58343 0
M  V30 36912 C 3437.81 -1.68238 -3.18157 0
M  V30 36913 C 3437.41 -3.19312 -3.14235 0
M  V30 36914 C 3439.16 -1.5525 -3.95092 0
M  V30 36915 C 3437.07 -3.83433 -4.50259 0
M  V30 36916 H 3436 -0.358447 -0.663349 0
M  V30 36917 H 3438.65 -1.41362 -1.17 0
M  V30 36918 H 3437.03 -1.16425 -3.78499 0
M  V30 36919 H 3438.2 -3.7812 -2.63367 0
M  V30 36920 H 3436.52 -3.32398 -2.50799 0
M  V30 36921 H 3439.11 -2.0052 -4.95677 0
M  V30 36922 H 3439.46 -0.504198 -4.13235 0
M  V30 36923 H 3439.99 -2.04323 -3.41317 0
M  V30 36924 H 3436.73 -4.88294 -4.37321 0
M  V30 36925 H 3436.25 -3.29413 -5.01246 0
M  V30 36926 H 3437.93 -3.8608 -5.19183 0
M  V30 36927 N 3438.06 1.23288 -0.98172 0
M  V30 36928 C 3439.29 1.96312 -0.669059 0
M  V30 36929 C 3439.71 1.72169 0.757594 0
M  V30 36930 O 3439.07 0.993969 1.51624 0
M  V30 36931 C 3439.12 3.47394 -0.966936 0
M  V30 36932 O 3438.22 4.12357 -0.0596658 0
M  V30 36933 H 3437.56 0.614526 -0.251504 0
M  V30 36934 H 3440.09 1.56688 -1.31567 0
M  V30 36935 H 3440.1 3.97855 -0.904182 0
M  V30 36936 H 3438.78 3.64293 -2.00658 0
M  V30 36937 H 3437.35 3.7248 -0.176943 0
M  V30 36938 N 3439.54 0.753533 1.38418 0
M  V30 36939 C 3440.95 0.377363 1.82847 0
M  V30 36940 C 3441.3 -1.09398 1.62869 0
M  V30 36941 O 3440.43 -1.84563 1.12984 0
M  V30 36942 C 3441.02 0.678154 3.31944 0
M  V30 36943 C 3439.58 0.355262 3.7472 0
M  V30 36944 C 3438.73 0.931357 2.61192 0
M  V30 36945 H 3441.68 0.949689 1.27148 0
M  V30 36946 H 3441.7 -0.0436623 3.80475 0
M  V30 36947 H 3441.21 1.74908 3.46452 0
M  V30 36948 H 3439.31 -0.709085 3.65791 0
M  V30 36949 H 3439.42 0.850776 4.71486 0
M  V30 36950 H 3437.79 0.35674 2.52189 0
M  V30 36951 H 3438.57 2.00732 2.78499 0
M  V30 36952 N 3441.02 -1.49371 0.502605 0
M  V30 36953 C 3442.24 -2.06865 -0.0381066 0
M  V30 36954 C 3442.66 -1.36273 -1.30672 0
M  V30 36955 O 3442.02 -0.441563 -1.77078 0
M  V30 36956 C 3442.07 -3.60302 -0.294004 0
M  V30 36957 O 3441.79 -4.28238 0.924319 0
M  V30 36958 C 3443.29 -4.34515 -0.878176 0
M  V30 36959 H 3440.51 -0.670665 0.0211874 0
M  V30 36960 H 3443.05 -1.92131 0.700421 0
M  V30 36961 H 3441.21 -3.74734 -0.982517 0
M  V30 36962 H 3441.62 -5.19966 0.688153 0
M  V30 36963 H 3443.1 -5.42741 -1.0068 0
M  V30 36964 H 3443.57 -3.97101 -1.87636 0
M  V30 36965 H 3444.18 -4.24693 -0.227083 0
M  V30 36966 N 3442.49 -0.236508 -1.55815 0
M  V30 36967 C 3443.43 0.699986 -2.18249 0
M  V30 36968 C 3444.44 1.14651 -1.15581 0
M  V30 36969 O 3445.63 1.07508 -1.42493 0
M  V30 36970 C 3442.73 1.96185 -2.76342 0
M  V30 36971 C 3441.9 1.66845 -4.04328 0
M  V30 36972 C 3440.96 2.77887 -4.46839 0
M  V30 36973 O 3439.99 2.45716 -5.13432 0
M  V30 36974 N 3441.19 4.07164 -4.13761 0
M  V30 36975 H 3443.95 0.165837 -2.99241 0
M  V30 36976 H 3441.51 -0.0560668 -1.61803 0
M  V30 36977 H 3443.51 2.6969 -3.01744 0
M  V30 36978 H 3442.08 2.40607 -1.99568 0
M  V30 36979 H 3441.3 0.769096 -3.86625 0
M  V30 36980 H 3442.58 1.44694 -4.87792 0
M  V30 36981 H 3441.98 4.36138 -3.60278 0
M  V30 36982 H 3440.54 4.77166 -4.44022 0
M  V30 36983 N 3443.97 1.57557 0.0367273 0
M  V30 36984 C 3445.39 1.54705 0.392237 0
M  V30 36985 C 3445.59 0.961601 1.77075 0
M  V30 36986 O 3444.64 0.579306 2.45765 0
M  V30 36987 C 3445.96 2.99189 0.301115 0
M  V30 36988 C 3447.51 3.107 0.378758 0
M  V30 36989 C 3447.98 4.569 0.317169 0
M  V30 36990 N 3449.47 4.6167 0.376196 0
M  V30 36991 C 3450.21 5.72323 0.35131 0
M  V30 36992 N 3449.7 6.92237 0.279166 0
M  V30 36993 N 3451.5 5.60672 0.400473 0
M  V30 36994 H 3443.65 1.93967 -0.865489 0
M  V30 36995 H 3445.91 0.889319 -0.328354 0
M  V30 36996 H 3445.62 3.45718 -0.645881 0
M  V30 36997 H 3445.49 3.60872 1.09778 0
M  V30 36998 H 3447.88 2.64122 1.31619 0
M  V30 36999 H 3447.96 2.51862 -0.447116 0
M  V30 37000 H 3447.6 5.04144 -0.616558 0
M  V30 37001 H 3447.53 5.13641 1.16105 0
M  V30 37002 H 3450.02 3.75391 0.434777 0
M  V30 37003 H 3450.34 7.72345 0.265067 0
M  V30 37004 H 3448.68 6.94567 0.245327 0
M  V30 37005 H 3451.87 4.65886 0.454772 0
M  V30 37006 H 3452.04 6.46899 0.37761 0
M  V30 37007 N 3445.45 -0.308854 1.54544 0
M  V30 37008 C 3446.41 -1.36371 1.84216 0
M  V30 37009 C 3447.41 -1.44046 0.714656 0
M  V30 37010 O 3448.6 -1.43818 0.982955 0
M  V30 37011 C 3445.74 -2.74944 2.0154 0
M  V30 37012 H 3446.93 -1.11309 2.78479 0
M  V30 37013 H 3444.48 -0.545115 1.46486 0
M  V30 37014 H 3445.22 -3.0524 1.09539 0
M  V30 37015 H 3445 -2.70765 2.836 0
M  V30 37016 H 3446.49 -3.51229 2.25894 0
M  V30 37017 N 3446.93 -1.46867 -0.571659 0
M  V30 37018 C 3447.84 -1.60872 -1.70756 0
M  V30 37019 C 3448.86 -0.49189 -1.66903 0
M  V30 37020 O 3450.03 -0.757501 -1.86612 0
M  V30 37021 C 3447.1 -1.60592 -3.07264 0
M  V30 37022 C 3446.16 -2.83591 -3.22296 0
M  V30 37023 C 3445.39 -2.83314 -4.52293 0
M  V30 37024 O 3445.61 -1.92694 -5.36866 0
M  V30 37025 O 3444.55 -3.74998 -4.70808 0
M  V30 37026 H 3448.37 -2.56957 -1.61885 0
M  V30 37027 H 3445.96 -1.29786 -0.739996 0
M  V30 37028 H 3447.84 -1.6317 -3.88527 0
M  V30 37029 H 3446.52 -0.676693 -3.16548 0
M  V30 37030 H 3445.42 -2.86562 -2.40485 0
M  V30 37031 H 3446.76 -3.75759 -3.17909 0
M  V30 37032 N 3448.41 0.817212 -1.34757 0
M  V30 37033 C 3449.65 1.57608 -1.27623 0
M  V30 37034 C 3449.99 1.93604 0.151983 0
M  V30 37035 O 3449.26 1.6049 1.09878 0
M  V30 37036 C 3449.54 2.87179 -2.17256 0
M  V30 37037 C 3449.4 2.57726 -3.68642 0
M  V30 37038 C 3450.72 3.88798 -2.06213 0
M  V30 37039 H 3447.84 0.571837 -0.464943 0
M  V30 37040 H 3450.48 0.940999 -1.65061 0
M  V30 37041 H 3448.63 3.41376 -1.85458 0
M  V30 37042 H 3450.3 2.09795 -4.10833 0
M  V30 37043 H 3448.54 1.91082 -3.89449 0
M  V30 37044 H 3449.21 3.50148 -4.26732 0
M  V30 37045 H 3451.69 3.43971 -2.34143 0
M  V30 37046 H 3450.57 4.77254 -2.71145 0
M  V30 37047 H 3450.83 4.29673 -1.04083 0
M  V30 37048 N 3449.89 1.1858 1.0381 0
M  V30 37049 C 3451.13 0.977102 1.76453 0
M  V30 37050 C 3451.45 -0.493931 1.89261 0
M  V30 37051 O 3452.65 -0.82121 2.58783 0
M  V30 37052 C 3451.11 1.69923 3.17261 0
M  V30 37053 C 3450.72 3.20974 3.12537 0
M  V30 37054 C 3452.46 1.57344 3.94263 0
M  V30 37055 C 3450.37 3.85815 4.48219 0
M  V30 37056 H 3449.3 0.36196 0.661438 0
M  V30 37057 H 3451.95 1.4198 1.16249 0
M  V30 37058 H 3450.33 1.18431 3.77876 0
M  V30 37059 H 3451.51 3.79511 2.61358 0
M  V30 37060 H 3449.82 3.33724 2.49033 0
M  V30 37061 H 3452.42 2.03146 4.94607 0
M  V30 37062 H 3452.76 0.526106 4.12962 0
M  V30 37063 H 3453.29 2.0613 3.40228 0
M  V30 37064 H 3450.03 4.90606 4.34725 0
M  V30 37065 H 3449.55 3.32066 4.99492 0
M  V30 37066 H 3451.23 3.88828 5.17128 0
M  V30 37067 N 3451.36 -1.22766 0.988245 0
M  V30 37068 C 3452.78 -1.43518 0.698186 0
M  V30 37069 C 3452.98 -1.87701 -0.732839 0
M  V30 37070 O 3452.04 -2.02796 -1.50433 0
M  V30 37071 C 3453.35 -2.48047 1.69979 0
M  V30 37072 C 3454.9 -2.61852 1.71472 0
M  V30 37073 C 3455.37 -3.69598 2.70484 0
M  V30 37074 N 3456.86 -3.7705 2.69049 0
M  V30 37075 C 3457.6 -4.6 3.42327 0
M  V30 37076 N 3457.09 -5.46979 4.2519 0
M  V30 37077 N 3458.89 -4.54268 3.31055 0
M  V30 37078 H 3451.04 -0.923914 1.91253 0
M  V30 37079 H 3453.3 -0.467768 0.824559 0
M  V30 37080 H 3453.01 -2.22518 2.72358 0
M  V30 37081 H 3452.88 -3.46571 1.48891 0
M  V30 37082 H 3455.27 -2.86728 0.697939 0
M  V30 37083 H 3455.35 -1.63619 1.96628 0
M  V30 37084 H 3454.99 -3.4547 3.72308 0
M  V30 37085 H 3454.92 -4.6739 2.42599 0
M  V30 37086 H 3457.41 -3.14899 2.08919 0
M  V30 37087 H 3457.73 -6.07283 4.7794 0
M  V30 37088 H 3456.07 -5.46576 4.29278 0
M  V30 37089 H 3459.26 -3.8534 2.65764 0
M  V30 37090 H 3459.44 -5.18683 3.88422 0
M  V30 37091 N 3452.84 -0.760864 -1.38017 0
M  V30 37092 C 3454.09 -0.317019 -1.99193 0
M  V30 37093 C 3454.4 1.10956 -1.61085 0
M  V30 37094 O 3455.61 1.65424 -2.15284 0
M  V30 37095 C 3454.07 -0.515854 -3.56184 0
M  V30 37096 C 3453.67 -1.95199 -4.03239 0
M  V30 37097 C 3455.42 -0.135087 -4.24285 0
M  V30 37098 C 3453.32 -2.09899 -5.52898 0
M  V30 37099 H 3452.25 -0.114784 -0.745212 0
M  V30 37100 H 3454.91 -0.938442 -1.57688 0
M  V30 37101 H 3453.29 0.174864 -3.95614 0
M  V30 37102 H 3454.46 -2.67677 -3.75081 0
M  V30 37103 H 3452.78 -2.28833 -3.47885 0
M  V30 37104 H 3455.37 -0.223589 -5.34232 0
M  V30 37105 H 3455.72 0.913251 -4.06159 0
M  V30 37106 H 3456.25 -0.777936 -3.90119 0
M  V30 37107 H 3452.99 -3.13013 -5.75937 0
M  V30 37108 H 3452.51 -1.41891 -5.82775 0
M  V30 37109 H 3454.19 -1.8924 -6.18706 0
M  V30 37110 N 3454.32 1.49102 -0.510519 0
M  V30 37111 C 3455.25 2.32137 0.251958 0
M  V30 37112 C 3456.23 1.40857 0.953588 0
M  V30 37113 O 3457.42 1.6976 0.943148 0
M  V30 37114 C 3454.55 3.216 1.31112 0
M  V30 37115 C 3453.5 4.21749 0.728806 0
M  V30 37116 C 3452.83 5.00214 1.88919 0
M  V30 37117 C 3454.13 5.21514 -0.286517 0
M  V30 37118 H 3455.82 2.96132 -0.441154 0
M  V30 37119 H 3453.37 1.42407 -0.213602 0
M  V30 37120 H 3455.32 3.78506 1.85233 0
M  V30 37121 H 3454.04 2.55567 2.03355 0
M  V30 37122 H 3452.7 3.66002 0.209272 0
M  V30 37123 H 3452.35 4.3062 2.59953 0
M  V30 37124 H 3452.05 5.67984 1.50558 0
M  V30 37125 H 3453.57 5.59966 2.43456 0
M  V30 37126 H 3454.99 5.73057 0.166896 0
M  V30 37127 H 3453.38 5.97227 -0.586466 0
M  V30 37128 H 3454.45 4.6984 -1.19912 0
M  V30 37129 N 3455.8 0.244768 1.55688 0
M  V30 37130 C 3457.02 -0.38774 2.03743 0
M  V30 37131 C 3457.45 -1.50904 1.12293 0
M  V30 37132 O 3456.81 -1.80932 0.115477 0
M  V30 37133 C 3456.85 -0.874866 3.49826 0
M  V30 37134 O 3455.96 -1.9846 3.61507 0
M  V30 37135 H 3455.3 -0.0847992 0.658563 0
M  V30 37136 H 3457.83 0.3702 2.01223 0
M  V30 37137 H 3457.84 -1.17864 3.90605 0
M  V30 37138 H 3456.51 -0.0543121 4.15865 0
M  V30 37139 H 3455.09 -1.68568 3.32625 0
M  V30 37140 N 3457.28 -1.57574 -0.0283712 0
M  V30 37141 C 3458.5 -1.93564 -0.730797 0
M  V30 37142 C 3458.92 -0.844585 -1.68856 0
M  V30 37143 O 3458.28 0.178939 -1.81621 0
M  V30 37144 C 3458.33 -3.29489 -1.48726 0
M  V30 37145 O 3458.05 -4.34403 -0.56794 0
M  V30 37146 C 3459.55 -3.79765 -2.28678 0
M  V30 37147 H 3456.77 -0.63881 -0.205335 0
M  V30 37148 H 3459.31 -2.04495 0.0143088 0
M  V30 37149 H 3457.47 -3.19953 -2.18424 0
M  V30 37150 H 3457.88 -5.12867 -1.09852 0
M  V30 37151 H 3459.36 -4.77381 -2.77149 0
M  V30 37152 H 3459.83 -3.10994 -3.10128 0
M  V30 37153 H 3460.44 -3.92386 -1.64053 0
M  V30 37154 N 3458.75 0.300654 -1.54706 0
M  V30 37155 C 3459.69 1.39543 -1.80563 0
M  V30 37156 C 3460.66 1.48742 -0.656851 0
M  V30 37157 O 3461.85 1.65798 -0.896844 0
M  V30 37158 C 3458.98 2.7745 -1.94266 0
M  V30 37159 C 3458.02 2.85672 -3.16692 0
M  V30 37160 S 3458.85 2.47732 -4.74751 0
M  V30 37161 C 3460.01 3.87667 -4.91391 0
M  V30 37162 H 3460.24 1.174 -2.73138 0
M  V30 37163 H 3457.78 0.498784 -1.46122 0
M  V30 37164 H 3459.73 3.56881 -2.02846 0
M  V30 37165 H 3458.4 2.96861 -1.02628 0
M  V30 37166 H 3457.59 3.86825 -3.23083 0
M  V30 37167 H 3457.19 2.14236 -3.0656 0
M  V30 37168 H 3459.48 4.82667 -4.75435 0
M  V30 37169 H 3460.43 3.86245 -5.93481 0
M  V30 37170 H 3460.83 3.77686 -4.1954 0
M  V30 37171 N 3460.23 1.47168 0.563863 0
M  V30 37172 C 3461.51 1.4393 1.32452 0
M  V30 37173 C 3461.89 0.132707 2.10682 0
M  V30 37174 O 3461.24 -0.885808 2.10632 0
M  V30 37175 C 3461.45 2.68075 2.23465 0
M  V30 37176 C 3462.8 3.15013 2.84697 0
M  V30 37177 O 3463.82 2.68756 2.3377 0
M  V30 37178 O 3462.68 3.9541 3.77244 0
M  V30 37179 H 3459.77 0.573268 0.596064 0
M  V30 37180 H 3462.32 1.5936 0.583317 0
M  V30 37181 H 3461.09 3.54711 1.65214 0
M  V30 37182 H 3460.71 2.55199 3.04892 0
M  V30 37183 N 3461.71 -0.810054 1.35188 0
M  V30 37184 C 3462.94 -1.60357 1.31531 0
M  V30 37185 C 3463.36 -1.87805 -0.105352 0
M  V30 37186 O 3462.72 -1.46277 -1.0711 0
M  V30 37187 C 3462.77 -2.91383 2.12435 0
M  V30 37188 O 3461.87 -3.84048 1.50269 0
M  V30 37189 H 3461.21 -0.487214 0.45113 0
M  V30 37190 H 3463.74 -1.00565 1.78179 0
M  V30 37191 H 3463.75 -3.40837 2.24263 0
M  V30 37192 H 3462.43 -2.7073 3.15719 0
M  V30 37193 H 3461 -3.42592 1.47259 0
M  V30 37194 N 3463.19 -1.19129 -1.0318 0
M  V30 37195 C 3464.6 -0.994916 -1.57982 0
M  V30 37196 C 3464.95 0.452985 -1.90899 0
M  V30 37197 O 3464.08 1.33188 -1.70558 0
M  V30 37198 C 3464.67 -1.79971 -2.87047 0
M  V30 37199 C 3463.23 -1.64743 -3.38433 0
M  V30 37200 C 3462.38 -1.78858 -2.11909 0
M  V30 37201 H 3465.33 -1.33543 -0.857435 0
M  V30 37202 H 3465.35 -1.29406 -3.57819 0
M  V30 37203 H 3464.86 -2.85346 -2.63057 0
M  V30 37204 H 3462.96 -0.619422 -3.67415 0
M  V30 37205 H 3463.07 -2.45096 -4.11661 0
M  V30 37206 H 3461.44 -1.2189 -2.2364 0
M  V30 37207 H 3462.22 -2.85686 -1.90364 0
M  V30 37208 N 3464.67 1.2224 -0.994741 0
M  V30 37209 C 3465.89 1.95591 -0.689843 0
M  V30 37210 C 3466.32 1.72963 0.73929 0
M  V30 37211 O 3465.67 1.00999 1.50562 0
M  V30 37212 C 3465.72 3.46349 -1.00373 0
M  V30 37213 O 3464.83 4.1227 -0.103398 0
M  V30 37214 H 3464.17 0.611823 -0.258008 0
M  V30 37215 H 3466.7 1.55284 -1.33222 0
M  V30 37216 H 3466.71 3.96874 -0.946329 0
M  V30 37217 H 3465.38 3.62144 -2.0451 0
M  V30 37218 H 3463.96 3.72271 -0.21644 0
M  V30 37219 N 3466.14 0.768172 1.37611 0
M  V30 37220 C 3467.37 0.342147 2.04051 0
M  V30 37221 C 3467.79 -1.03446 1.57938 0
M  V30 37222 O 3467.14 -1.65968 0.75901 0
M  V30 37223 C 3467.2 0.372159 3.59579 0
M  V30 37224 O 3466.92 1.69446 4.04005 0
M  V30 37225 C 3468.42 -0.0659105 4.43251 0
M  V30 37226 H 3465.64 0.143898 0.655389 0
M  V30 37227 H 3468.18 1.0411 1.76015 0
M  V30 37228 H 3466.34 -0.27818 3.864 0
M  V30 37229 H 3466.75 1.63063 4.98509 0
M  V30 37230 H 3468.22 0.00624478 5.52 0
M  V30 37231 H 3468.7 -1.1158 4.2479 0
M  V30 37232 H 3469.31 0.556104 4.21649 0
M  V30 37233 O 3467.66 -1.47403 0.659901 0
M  V30 37234 H 3468.35 -1.92791 0.187455 0
M  V30 END ATOM
M  V30 BEGIN BOND
M  V30 END BOND
M  V30 END CTAB
M  END
$$$$
