drugbank_target|Q13003 Glutamate receptor ionotropic, kainate 3 (DB00142; DB00237)
 OpenBabel12092119413D

  0  0  0     0  0            999 V3000
M  V30 BEGIN CTAB
M  V30 COUNTS 14625 14799 0 0 0
M  V30 BEGIN ATOM
M  V30 1 H -0.908 1.98254 -0.117106 0
M  V30 2 N 0 1.576 0 0
M  V30 3 C 0.933 2.03868 1.02534 0
M  V30 4 C 1.911 0.928543 1.3348 0
M  V30 5 O 3.095 1.19667 1.45644 0
M  V30 6 C 0.222 2.43627 2.35294 0
M  V30 7 C -0.732 3.65373 2.2001 0
M  V30 8 S 0.101 5.13292 1.52614 0
M  V30 9 C 1.257 5.56322 2.86805 0
M  V30 10 H 1.49 2.90518 0.631377 0
M  V30 11 H -0.977 1.52953 0.210867 0
M  V30 12 H 0.981 2.67203 3.11629 0
M  V30 13 H -0.358 1.57376 2.7183 0
M  V30 14 H -1.165 3.90944 3.18086 0
M  V30 15 H -1.563 3.418 1.51819 0
M  V30 16 H 0.729 5.58782 3.83104 0
M  V30 17 H 1.672 6.56266 2.65933 0
M  V30 18 H 2.08 4.83886 2.90714 0
M  V30 19 N 1.4781 -0.272755 1.55222 0
M  V30 20 C 2.7061 -1.02255 1.79865 0
M  V30 21 C 3.1211 -1.79924 0.572088 0
M  V30 22 O 2.4781 -1.76638 -0.458842 0
M  V30 23 C 2.5291 -1.98094 3.02392 0
M  V30 24 O 2.2501 -1.23572 4.20311 0
M  V30 25 C 3.7511 -2.84884 3.39641 0
M  V30 26 H 0.9711 -0.302057 0.599168 0
M  V30 27 H 3.5151 -0.303465 2.02236 0
M  V30 28 H 1.6701 -2.65465 2.82147 0
M  V30 29 H 2.0841 -1.88172 4.89583 0
M  V30 30 H 3.5581 -3.47927 4.28545 0
M  V30 31 H 4.0351 -3.54665 2.59055 0
M  V30 32 H 4.6411 -2.23003 3.62146 0
M  V30 33 N 2.9562 -1.48159 -0.537278 0
M  V30 34 C 3.9192 -1.61665 -1.62472 0
M  V30 35 C 4.9192 -0.490395 -1.5314 0
M  V30 36 O 6.1092 -0.755998 -1.5694 0
M  V30 37 C 3.2412 -1.57997 -3.02076 0
M  V30 38 H 4.4342 -2.58621 -1.51839 0
M  V30 39 H 1.9872 -1.36647 -0.758771 0
M  V30 40 H 2.7222 -0.624913 -3.18222 0
M  V30 41 H 2.5072 -2.39755 -3.10258 0
M  V30 42 H 3.9972 -1.70627 -3.81151 0
M  V30 43 N 4.4343 0.785586 -1.36625 0
M  V30 44 C 5.8453 1.36101 -1.27803 0
M  V30 45 C 6.1963 1.96035 0.0804875 0
M  V30 46 O 5.3213 1.92834 0.982042 0
M  V30 47 C 5.9163 2.47442 -2.31426 0
M  V30 48 C 4.4753 3.00789 -2.26281 0
M  V30 49 C 3.6223 1.73896 -2.15999 0
M  V30 50 H 6.5733 0.586928 -1.47448 0
M  V30 51 H 6.5943 3.2656 -1.95291 0
M  V30 52 H 6.1063 2.03791 -3.30289 0
M  V30 53 H 4.2073 3.48851 -1.30896 0
M  V30 54 H 4.3203 3.57343 -3.19128 0
M  V30 55 H 2.6843 1.9628 -1.62316 0
M  V30 56 H 3.4673 1.32368 -3.16755 0
M  V30 57 N 5.9124 1.20967 1.01018 0
M  V30 58 C 7.1584 1.0353 1.7508 0
M  V30 59 C 7.5134 -0.42734 1.87594 0
M  V30 60 O 6.8064 -1.31298 1.3954 0
M  V30 61 C 7.0004 1.65997 3.16512 0
M  V30 62 C 6.8294 3.18184 3.17788 0
M  V30 63 C 5.5994 3.87198 3.24662 0
M  V30 64 C 7.7974 4.15334 3.03319 0
M  V30 65 N 5.7794 5.26618 3.15509 0
M  V30 66 C 7.1504 5.41472 3.02007 0
M  V30 67 C 9.2054 4.06449 2.87583 0
M  V30 68 C 7.9084 6.5975 2.86571 0
M  V30 69 C 9.9344 5.24357 2.73503 0
M  V30 70 C 9.2964 6.49404 2.72862 0
M  V30 71 H 5.3954 0.433137 0.651089 0
M  V30 72 H 7.9794 1.5324 1.20107 0
M  V30 73 H 6.1504 1.18863 3.69765 0
M  V30 74 H 7.8824 1.41816 3.79039 0
M  V30 75 H 4.6374 3.38093 3.31648 0
M  V30 76 H 5.0614 5.99626 3.14289 0
M  V30 77 H 9.7034 3.10573 2.86887 0
M  V30 78 H 7.4214 7.55792 2.86015 0
M  V30 79 H 11.0074 5.19299 2.62334 0
M  V30 80 H 9.8874 7.39105 2.62093 0
M  V30 81 N 7.3905 -1.2043 1.01659 0
M  V30 82 C 8.8065 -1.41852 0.731442 0
M  V30 83 C 9.0065 -1.89358 -0.688898 0
M  V30 84 O 8.0625 -2.06247 -1.45666 0
M  V30 85 C 9.3755 -2.44019 1.75714 0
M  V30 86 C 10.9235 -2.57785 1.77527 0
M  V30 87 C 11.3985 -3.63194 2.79023 0
M  V30 88 N 12.8895 -3.70678 2.77763 0
M  V30 89 C 13.6245 -4.51897 3.52954 0
M  V30 90 N 13.1205 -5.36921 4.37821 0
M  V30 91 N 14.9135 -4.4643 3.41551 0
M  V30 92 H 7.0645 -0.879093 1.93354 0
M  V30 93 H 9.3275 -0.448425 0.835236 0
M  V30 94 H 9.0335 -2.1611 2.77469 0
M  V30 95 H 8.9075 -3.43007 1.56927 0
M  V30 96 H 11.2945 -2.85023 0.764569 0
M  V30 97 H 11.3755 -1.58992 2.00387 0
M  V30 98 H 11.0195 -3.36699 3.80258 0
M  V30 99 H 10.9495 -4.61609 2.53425 0
M  V30 100 H 13.4405 -3.09944 2.16201 0
M  V30 101 H 13.7535 -5.95981 4.91962 0
M  V30 102 H 12.0985 -5.36424 4.41899 0
M  V30 103 H 15.2895 -3.79042 2.74672 0
M  V30 104 H 15.4625 -5.09491 4.00404 0
M  V30 105 N 8.8686 -0.792821 -1.36206 0
M  V30 106 C 10.2846 -0.474903 -1.52371 0
M  V30 107 C 10.4846 1.00622 -1.74578 0
M  V30 108 O 9.5406 1.79162 -1.77924 0
M  V30 109 C 10.8536 -1.3083 -2.70747 0
M  V30 110 C 12.4016 -1.30234 -2.84619 0
M  V30 111 C 12.8766 -2.11956 -4.06004 0
M  V30 112 N 14.3676 -2.09419 -4.13156 0
M  V30 113 C 15.1026 -2.69419 -5.06163 0
M  V30 114 N 14.5986 -3.3829 -6.04592 0
M  V30 115 N 16.3916 -2.59134 -4.98804 0
M  V30 116 H 8.5426 -1.75222 -1.20046 0
M  V30 117 H 10.8056 -0.745024 -0.586211 0
M  V30 118 H 10.5116 -2.35881 -2.6087 0
M  V30 119 H 10.3856 -0.95196 -3.6499 0
M  V30 120 H 12.7726 -0.259748 -2.93955 0
M  V30 121 H 12.8536 -1.69847 -1.91274 0
M  V30 122 H 12.4976 -3.16248 -3.97429 0
M  V30 123 H 12.4276 -1.69711 -4.98503 0
M  V30 124 H 14.9186 -1.59297 -3.42685 0
M  V30 125 H 15.2316 -3.81394 -6.7213 0
M  V30 126 H 13.5766 -3.42393 -6.04807 0
M  V30 127 H 16.7676 -2.04927 -4.20859 0
M  V30 128 H 16.9406 -3.06185 -5.711 0
M  V30 129 N 10.3467 1.47872 -0.545128 0
M  V30 130 C 11.2767 2.32661 0.197793 0
M  V30 131 C 12.2577 1.43041 0.920504 0
M  V30 132 O 13.4427 1.71912 0.90333 0
M  V30 133 C 10.5727 3.24569 1.23582 0
M  V30 134 C 9.5267 4.23333 0.630323 0
M  V30 135 C 8.8527 5.0448 1.77211 0
M  V30 136 C 10.1527 5.20704 -0.407974 0
M  V30 137 H 11.8467 2.95024 -0.510045 0
M  V30 138 H 9.3927 1.4187 -0.246731 0
M  V30 139 H 11.3457 3.8272 1.76362 0
M  V30 140 H 10.0697 2.60236 1.97344 0
M  V30 141 H 8.7287 3.6639 0.123922 0
M  V30 142 H 8.3767 4.36561 2.49847 0
M  V30 143 H 8.0767 5.71339 1.37281 0
M  V30 144 H 9.6007 5.65487 2.3034 0
M  V30 145 H 11.0147 5.7329 0.033305 0
M  V30 146 H 9.4117 5.95699 -0.725486 0
M  V30 147 H 10.4817 4.66917 -1.30828 0
M  V30 148 N 11.8248 0.280983 1.55075 0
M  V30 149 C 13.2408 -0.0729964 1.59433 0
M  V30 150 C 13.4408 -1.5411 1.29817 0
M  V30 151 O 12.4968 -2.29086 1.06187 0
M  V30 152 C 13.8098 0.306921 2.9913 0
M  V30 153 C 15.3578 0.254023 3.11968 0
M  V30 154 C 15.8328 0.608467 4.5394 0
M  V30 155 N 17.3238 0.560241 4.59799 0
M  V30 156 C 18.0588 0.80722 5.6769 0
M  V30 157 N 17.5548 1.11912 6.83701 0
M  V30 158 N 19.3478 0.735623 5.57266 0
M  V30 159 H 11.4988 1.238 1.7259 0
M  V30 160 H 13.7618 0.500547 0.805082 0
M  V30 161 H 13.4678 1.32816 3.25657 0
M  V30 162 H 13.3418 -0.349363 3.75579 0
M  V30 163 H 15.7288 -0.75794 2.852 0
M  V30 164 H 15.8098 0.944649 2.37718 0
M  V30 165 H 15.4538 1.61814 4.81434 0
M  V30 166 H 15.3838 -0.104013 5.26497 0
M  V30 167 H 17.8748 0.329288 3.76463 0
M  V30 168 H 18.1878 1.29409 7.61888 0
M  V30 169 H 16.5328 1.15695 6.85303 0
M  V30 170 H 19.7238 0.491752 4.6551 0
M  V30 171 H 19.8968 0.931482 6.4127 0
M  V30 172 N 13.3029 -1.57598 0.00835791 0
M  V30 173 C 14.5279 -1.95617 -0.689103 0
M  V30 174 C 14.9529 -0.883753 -1.66046 0
M  V30 175 O 14.3109 0.157352 -1.80616 0
M  V30 176 C 14.3589 -3.32736 -1.38994 0
M  V30 177 O 13.4629 -3.27631 -2.50463 0
M  V30 178 H 12.8039 -0.638379 -0.182668 0
M  V30 179 H 15.3339 -2.045 0.064036 0
M  V30 180 H 15.3439 -3.68494 -1.75147 0
M  V30 181 H 14.0189 -4.1034 -0.677778 0
M  V30 182 H 12.5959 -3.03561 -2.16576 0
M  V30 183 N 14.781 0.264519 -1.55364 0
M  V30 184 C 15.711 1.33121 -1.91836 0
M  V30 185 C 16.692 1.51101 -0.781192 0
M  V30 186 O 17.877 1.64003 -1.04003 0
M  V30 187 C 15.007 2.68921 -2.19769 0
M  V30 188 C 13.961 2.65661 -3.35571 0
M  V30 189 C 13.287 4.05093 -3.49004 0
M  V30 190 C 14.587 2.24187 -4.71739 0
M  V30 191 H 16.281 1.02844 -2.81182 0
M  V30 192 H 13.827 0.493286 -1.35287 0
M  V30 193 H 15.78 3.43663 -2.43872 0
M  V30 194 H 14.504 3.00799 -1.27231 0
M  V30 195 H 13.163 1.93377 -3.1145 0
M  V30 196 H 12.811 4.34206 -2.53917 0
M  V30 197 H 12.511 4.03804 -4.26868 0
M  V30 198 H 14.035 4.81561 -3.75408 0
M  V30 199 H 15.449 2.88654 -4.9533 0
M  V30 200 H 13.846 2.34044 -5.52579 0
M  V30 201 H 14.916 1.19327 -4.69988 0
M  V30 202 N 16.2591 1.48442 0.529413 0
M  V30 203 C 17.5051 1.5672 1.28711 0
M  V30 204 C 17.8381 0.2406 1.92704 0
M  V30 205 O 17.1131 -0.753454 1.79313 0
M  V30 206 C 17.3961 2.70587 2.37603 0
M  V30 207 C 17.2491 4.12953 1.78297 0
M  V30 208 C 18.5681 2.80212 3.39366 0
M  V30 209 H 15.6871 0.570474 0.466613 0
M  V30 210 H 18.3291 1.80617 0.589706 0
M  V30 211 H 16.4791 2.50342 2.97088 0
M  V30 212 H 18.1511 4.44639 1.22858 0
M  V30 213 H 16.3941 4.19927 1.0883 0
M  V30 214 H 17.0651 4.88448 2.57144 0
M  V30 215 H 19.5411 2.98553 2.89836 0
M  V30 216 H 18.4171 3.61611 4.12951 0
M  V30 217 H 18.6781 1.88393 3.99951 0
M  V30 218 N 17.7372 -0.778329 1.37039 0
M  V30 219 C 18.9832 -1.53817 1.33086 0
M  V30 220 C 19.3382 -1.92208 -0.0860346 0
M  V30 221 O 18.6312 -1.60713 -1.04316 0
M  V30 222 C 18.8252 -2.81845 2.19768 0
M  V30 223 C 18.6542 -2.55967 3.69744 0
M  V30 224 C 17.4242 -2.50428 4.38878 0
M  V30 225 C 19.6222 -2.2441 4.62758 0
M  V30 226 N 17.6042 -2.16564 5.74433 0
M  V30 227 C 18.9752 -2.0063 5.86641 0
M  V30 228 C 21.0302 -2.1051 4.5121 0
M  V30 229 C 19.7332 -1.64354 7.00272 0
M  V30 230 C 21.7592 -1.75634 5.64718 0
M  V30 231 C 21.1212 -1.52709 6.87648 0
M  V30 232 H 17.2202 -0.563434 0.542279 0
M  V30 233 H 19.8042 -0.908617 1.72198 0
M  V30 234 H 17.9752 -3.42649 1.82883 0
M  V30 235 H 19.7072 -3.47682 2.07122 0
M  V30 236 H 16.4622 -2.66056 3.91805 0
M  V30 237 H 16.8862 -2.02348 6.46053 0
M  V30 238 H 21.5282 -2.26919 3.56746 0
M  V30 239 H 19.2462 -1.46683 7.94676 0
M  V30 240 H 22.8322 -1.65546 5.57751 0
M  V30 241 H 21.7122 -1.2612 7.73992 0
M  V30 242 N 19.2153 -1.21501 -1.00376 0
M  V30 243 C 20.1253 -0.991447 -2.12621 0
M  V30 244 C 21.1413 0.0568446 -1.73907 0
M  V30 245 O 22.3173 -0.13348 -2.00957 0
M  V30 246 C 19.3823 -0.560312 -3.42142 0
M  V30 247 C 18.4433 -1.68096 -3.95022 0
M  V30 248 C 17.6763 -1.2703 -5.18362 0
M  V30 249 O 17.8993 -0.144438 -5.70217 0
M  V30 250 O 16.8333 -2.08269 -5.64719 0
M  V30 251 H 20.6593 -1.93158 -2.34358 0
M  V30 252 H 18.2443 -0.999999 -1.10997 0
M  V30 253 H 20.1263 -0.329724 -4.20108 0
M  V30 254 H 18.8013 0.351089 -3.2179 0
M  V30 255 H 17.7083 -1.96597 -3.18278 0
M  V30 256 H 19.0413 -2.56983 -4.19786 0
M  V30 257 N 20.6934 1.19889 -1.02296 0
M  V30 258 C 21.9234 1.93109 -0.734332 0
M  V30 259 C 22.3314 1.75377 0.709889 0
M  V30 260 O 21.6744 1.06912 1.49384 0
M  V30 261 C 21.7364 3.45362 -0.99827 0
M  V30 262 C 21.4004 3.8686 -2.43287 0
M  V30 263 C 22.3974 3.92102 -3.41397 0
M  V30 264 C 20.0824 4.18668 -2.77529 0
M  V30 265 C 22.0764 4.28573 -4.71809 0
M  V30 266 C 19.7634 4.54813 -4.08153 0
M  V30 267 C 20.7614 4.59739 -5.05103 0
M  V30 268 O 20.4494 4.95051 -6.33388 0
M  V30 269 H 20.1814 0.620409 -0.268456 0
M  V30 270 H 22.7354 1.53144 -1.3688 0
M  V30 271 H 20.9654 3.85482 -0.306645 0
M  V30 272 H 22.6544 3.99814 -0.700234 0
M  V30 273 H 23.4204 3.67685 -3.1628 0
M  V30 274 H 19.2994 4.14021 -2.0275 0
M  V30 275 H 22.8434 4.32333 -5.4748 0
M  V30 276 H 18.7404 4.78687 -4.33047 0
M  V30 277 H 19.5084 5.1302 -6.37772 0
M  V30 278 N 22.1715 0.800033 1.35784 0
M  V30 279 C 23.4175 0.38701 1.99684 0
M  V30 280 C 23.7725 -1.03268 1.62338 0
M  V30 281 O 23.0655 -1.70543 0.87325 0
M  V30 282 C 23.2595 0.500276 3.53881 0
M  V30 283 C 23.0885 1.92942 4.06206 0
M  V30 284 C 21.8585 2.55637 4.35865 0
M  V30 285 C 24.0565 2.89307 4.25213 0
M  V30 286 N 22.0385 3.9003 4.74078 0
M  V30 287 C 23.4095 4.08556 4.66349 0
M  V30 288 C 25.4645 2.86225 4.07406 0
M  V30 289 C 24.1675 5.25146 4.91543 0
M  V30 290 C 26.1935 4.02011 4.33752 0
M  V30 291 C 25.5555 5.20007 4.75155 0
M  V30 292 H 21.6545 0.189252 0.758754 0
M  V30 293 H 24.2385 1.03988 1.64604 0
M  V30 294 H 22.4095 -0.122568 3.88207 0
M  V30 295 H 24.1415 0.0624733 4.04652 0
M  V30 296 H 20.8965 2.07039 4.25948 0
M  V30 297 H 21.3205 4.59205 4.97454 0
M  V30 298 H 25.9625 1.96154 3.74544 0
M  V30 299 H 23.6805 6.15794 5.23281 0
M  V30 300 H 27.2665 4.00999 4.21534 0
M  V30 301 H 26.1465 6.08113 4.95145 0
M  V30 302 N 23.6496 -1.47581 0.552962 0
M  V30 303 C 24.6126 -2.28439 -0.186605 0
M  V30 304 C 25.6126 -1.36706 -0.84665 0
M  V30 305 O 26.8026 -1.59378 -0.703164 0
M  V30 306 C 23.9346 -3.16264 -1.2724 0
M  V30 307 H 25.1276 -2.95294 0.523609 0
M  V30 308 H 22.6806 -1.532 0.309745 0
M  V30 309 H 23.4156 -2.54091 -2.01514 0
M  V30 310 H 23.2006 -3.83769 -0.803968 0
M  V30 311 H 24.6906 -3.77198 -1.79196 0
M  V30 312 N 25.1277 -0.289203 -1.54924 0
M  V30 313 C 26.3757 0.322879 -1.99504 0
M  V30 314 C 26.6967 1.55313 -1.1791 0
M  V30 315 O 25.9667 1.94001 -0.272097 0
M  V30 316 H 24.5467 0.122291 -0.736922 0
M  V30 317 H 27.2087 -0.397802 -1.90797 0
M  V30 318 H 26.3047 0.603061 -3.06218 0
M  V30 319 N 26.6058 1.57591 -0.0167156 0
M  V30 320 C 27.5358 2.12496 0.967858 0
M  V30 321 C 28.5168 1.03807 1.34752 0
M  V30 322 O 29.7018 1.31577 1.42833 0
M  V30 323 C 26.8318 2.64194 2.25431 0
M  V30 324 C 25.7858 3.77559 2.01576 0
M  V30 325 C 25.1118 4.15636 3.36379 0
M  V30 326 C 26.4118 5.04151 1.36489 0
M  V30 327 H 28.1058 2.95013 0.510643 0
M  V30 328 H 25.6518 1.41915 0.244181 0
M  V30 329 H 27.6048 3.01236 2.94678 0
M  V30 330 H 26.3288 1.78821 2.73296 0
M  V30 331 H 24.9878 3.40937 1.34751 0
M  V30 332 H 24.6358 3.27263 3.81979 0
M  V30 333 H 24.3358 4.92022 3.21229 0
M  V30 334 H 25.8598 4.5525 4.06915 0
M  V30 335 H 27.2738 5.38857 1.95718 0
M  V30 336 H 25.6708 5.85453 1.31776 0
M  V30 337 H 26.7408 4.83733 0.336219 0
M  V30 338 N 28.0839 -0.256276 1.55502 0
M  V30 339 C 29.0139 -1.32102 1.92539 0
M  V30 340 C 29.9949 -1.50684 0.789194 0
M  V30 341 O 31.1799 -1.63449 1.04872 0
M  V30 342 C 28.3099 -2.67752 2.21192 0
M  V30 343 C 27.2639 -2.63878 3.36975 0
M  V30 344 C 26.5899 -4.03236 3.51147 0
M  V30 345 C 27.8899 -2.21682 4.72921 0
M  V30 346 H 29.5839 -1.01351 2.81724 0
M  V30 347 H 27.1299 -0.486105 1.35547 0
M  V30 348 H 29.0829 -3.42365 2.45691 0
M  V30 349 H 27.8069 -3.0012 1.28824 0
M  V30 350 H 26.4659 -1.91722 3.12471 0
M  V30 351 H 26.1139 -4.32854 2.56216 0
M  V30 352 H 25.8139 -4.01535 4.29003 0
M  V30 353 H 27.3379 -4.79563 3.77957 0
M  V30 354 H 28.7519 -2.86023 4.96854 0
M  V30 355 H 27.1489 -2.3111 5.53812 0
M  V30 356 H 28.2189 -1.16833 4.70615 0
M  V30 357 N 29.562 -1.4872 -0.521534 0
M  V30 358 C 30.808 -1.574 -1.27879 0
M  V30 359 C 31.141 -0.250817 -1.92573 0
M  V30 360 O 30.416 0.743934 -1.79711 0
M  V30 361 C 30.699 -2.71843 -2.36164 0
M  V30 362 C 30.552 -4.13893 -1.76105 0
M  V30 363 C 31.871 -2.82008 -3.37875 0
M  V30 364 H 28.99 -0.572941 -0.463581 0
M  V30 365 H 31.632 -1.80927 -0.580119 0
M  V30 366 H 29.782 -2.51914 -2.95756 0
M  V30 367 H 31.454 -4.45284 -1.20499 0
M  V30 368 H 29.697 -4.20498 -1.06601 0
M  V30 369 H 30.368 -4.89804 -2.5455 0
M  V30 370 H 32.844 -3.00086 -2.88249 0
M  V30 371 H 31.72 -3.63796 -4.11028 0
M  V30 372 H 31.981 -1.90511 -3.98946 0
M  V30 373 N 31.0401 0.771051 -1.3745 0
M  V30 374 C 32.2801 1.54264 -1.34096 0
M  V30 375 C 32.6441 1.91858 0.0737639 0
M  V30 376 O 33.8451 2.67797 0.23203 0
M  V30 377 C 32.1161 2.77326 -2.25445 0
M  V30 378 S 33.6751 3.67383 -2.39948 0
M  V30 379 H 30.4931 0.528122 -0.476034 0
M  V30 380 H 33.0951 0.906633 -1.73206 0
M  V30 381 H 31.7991 2.47788 -3.27153 0
M  V30 382 H 31.3301 3.45886 -1.87421 0
M  V30 383 H 33.3451 4.69334 -1.61059 0
M  V30 384 N 32.5182 1.22032 0.997298 0
M  V30 385 C 33.4812 0.987909 2.06816 0
M  V30 386 C 34.4812 -0.0440084 1.6074 0
M  V30 387 O 35.6712 0.194053 1.73116 0
M  V30 388 C 32.8032 0.49132 3.37341 0
M  V30 389 H 33.9962 1.93803 2.28868 0
M  V30 390 H 31.5492 1.03838 1.16822 0
M  V30 391 H 32.2842 -0.463364 3.20973 0
M  V30 392 H 32.0692 1.23575 3.72118 0
M  V30 393 H 33.5592 0.348824 4.16141 0
M  V30 394 N 33.9963 -1.19345 1.0293 0
M  V30 395 C 35.2433 -1.89038 0.726008 0
M  V30 396 C 35.5713 -1.79649 -0.745427 0
M  V30 397 O 34.8263 -1.18354 -1.55855 0
M  V30 398 C 35.1253 -3.39292 1.12319 0
M  V30 399 C 34.7913 -3.68885 2.59297 0
M  V30 400 C 33.4533 -3.76671 2.99453 0
M  V30 401 C 35.8053 -3.82178 3.54386 0
M  V30 402 C 33.1333 -3.9522 4.33611 0
M  V30 403 C 35.4853 -4.0224 4.88248 0
M  V30 404 C 34.1493 -4.08259 5.28092 0
M  V30 405 H 33.4193 -0.691739 0.265665 0
M  V30 406 H 36.0663 -1.41328 1.29223 0
M  V30 407 H 34.3713 -3.88903 0.475584 0
M  V30 408 H 36.0683 -3.91536 0.866037 0
M  V30 409 H 32.6583 -3.63433 2.27189 0
M  V30 410 H 36.8423 -3.75505 3.24514 0
M  V30 411 H 32.0983 -3.98119 4.64016 0
M  V30 412 H 36.2723 -4.11468 5.61843 0
M  V30 413 H 33.8993 -4.22384 6.32057 0
M  V30 414 N 35.4744 -0.807222 -1.35358 0
M  V30 415 C 36.7204 -0.397594 -1.99476 0
M  V30 416 C 37.0754 1.02405 -1.62883 0
M  V30 417 O 36.3684 1.70077 -0.882282 0
M  V30 418 C 36.5624 -0.519036 -3.53611 0
M  V30 419 C 36.3914 -1.95094 -4.05177 0
M  V30 420 C 35.1614 -2.57945 -4.34503 0
M  V30 421 C 37.3594 -2.91558 -4.23673 0
M  V30 422 N 35.3414 -3.92539 -4.72003 0
M  V30 423 C 36.7124 -4.11024 -4.64176 0
M  V30 424 C 38.7674 -2.88381 -4.05883 0
M  V30 425 C 37.4704 -5.27745 -4.88751 0
M  V30 426 C 39.4964 -4.04306 -4.31614 0
M  V30 427 C 38.8584 -5.22519 -4.72391 0
M  V30 428 H 34.9574 -0.193274 -0.75774 0
M  V30 429 H 37.5414 -1.0486 -1.6405 0
M  V30 430 H 35.7124 0.101979 -3.88266 0
M  V30 431 H 37.4444 -0.0839321 -4.04613 0
M  V30 432 H 34.1994 -2.09295 -4.24844 0
M  V30 433 H 34.6234 -4.61836 -4.95011 0
M  V30 434 H 39.2654 -1.98137 -3.73499 0
M  V30 435 H 36.9834 -6.1856 -5.20008 0
M  V30 436 H 40.5694 -4.03229 -4.19402 0
M  V30 437 H 39.4494 -6.1073 -4.91913 0
M  V30 438 N 36.9525 1.47285 -0.560781 0
M  V30 439 C 38.2015 2.01668 -0.035895 0
M  V30 440 C 38.5145 1.44021 1.32353 0
M  V30 441 O 39.7205 1.90088 1.93853 0
M  V30 442 C 38.1765 3.59897 -0.0136659 0
M  V30 443 C 37.7845 4.26536 -1.37006 0
M  V30 444 C 39.5285 4.22017 0.458425 0
M  V30 445 C 37.4355 5.76782 -1.30675 0
M  V30 446 H 36.3655 0.753938 -0.00964879 0
M  V30 447 H 39.0165 1.69243 -0.709166 0
M  V30 448 H 37.3985 3.89301 0.725325 0
M  V30 449 H 38.5725 4.0877 -2.12705 0
M  V30 450 H 36.8875 3.76419 -1.78038 0
M  V30 451 H 39.4845 5.32124 0.524247 0
M  V30 452 H 39.8275 3.89437 1.4712 0
M  V30 453 H 40.3605 3.97159 -0.225818 0
M  V30 454 H 37.0995 6.13988 -2.29564 0
M  V30 455 H 36.6195 5.96875 -0.591622 0
M  V30 456 H 38.2985 6.39063 -1.01033 0
M  V30 457 N 38.4306 0.297415 1.54768 0
M  V30 458 C 39.8416 -0.195947 1.85669 0
M  V30 459 C 40.1926 -1.53707 1.21937 0
M  V30 460 O 39.3176 -2.10164 0.515754 0
M  V30 461 C 39.9126 -0.362318 3.36857 0
M  V30 462 C 38.4716 -0.799901 3.67802 0
M  V30 463 C 37.6186 0.0938578 2.77141 0
M  V30 464 H 40.5696 0.518538 1.4999 0
M  V30 465 H 40.5906 -1.19745 3.61167 0
M  V30 466 H 40.1026 0.613921 3.83214 0
M  V30 467 H 38.2036 -1.78682 3.26961 0
M  V30 468 H 38.3166 -0.621773 4.75048 0
M  V30 469 H 36.6806 -0.426254 2.51108 0
M  V30 470 H 37.4636 1.06639 3.26318 0
M  V30 471 N 39.9087 -1.5758 0.0250728 0
M  V30 472 C 41.1857 -1.82917 -0.692873 0
M  V30 473 C 41.5657 -0.908137 -1.90568 0
M  V30 474 O 40.9137 0.0372298 -2.2847 0
M  V30 475 C 41.1237 -3.32034 -1.07492 0
M  V30 476 C 42.4717 -3.98406 -1.46826 0
M  V30 477 O 43.4957 -3.36505 -1.16801 0
M  V30 478 O 42.3547 -5.07497 -2.02754 0
M  V30 479 H 39.4487 -0.754079 -0.33955 0
M  V30 480 H 41.9947 -1.69619 0.0524456 0
M  V30 481 H 40.7667 -3.90728 -0.211552 0
M  V30 482 H 40.3897 -3.50424 -1.87854 0
M  V30 483 N 41.3868 0.248026 -1.55636 0
M  V30 484 C 42.6118 0.998028 -1.81808 0
M  V30 485 C 43.0368 1.78207 -0.601979 0
M  V30 486 O 42.3948 1.75653 0.448961 0
M  V30 487 C 42.4428 1.9125 -3.05705 0
M  V30 488 O 41.5468 3.00406 -2.82542 0
M  V30 489 H 40.8878 0.284045 -0.600179 0
M  V30 490 H 43.4178 0.269357 -2.02819 0
M  V30 491 H 43.4278 2.32737 -3.35108 0
M  V30 492 H 42.1028 1.33602 -3.93857 0
M  V30 493 H 40.6798 2.63056 -2.64303 0
M  V30 494 N 42.8649 1.48995 0.513639 0
M  V30 495 C 44.2809 1.35478 0.843682 0
M  V30 496 C 44.4809 0.378213 1.97919 0
M  V30 497 O 43.5369 -0.194689 2.51748 0
M  V30 498 C 44.8499 2.75901 1.1958 0
M  V30 499 C 46.3979 2.84509 1.30474 0
M  V30 500 C 46.8729 4.25671 1.69021 0
M  V30 501 N 48.3639 4.28422 1.76094 0
M  V30 502 C 49.0989 5.34601 2.07338 0
M  V30 503 N 48.5949 6.5104 2.36894 0
M  V30 504 N 50.3879 5.22007 2.08483 0
M  V30 505 H 42.5389 2.11092 -0.235328 0
M  V30 506 H 44.8019 0.947039 -0.0426669 0
M  V30 507 H 44.5079 3.49001 0.434913 0
M  V30 508 H 44.3819 3.10467 2.1422 0
M  V30 509 H 46.7689 2.11655 2.05637 0
M  V30 510 H 46.8499 2.53542 0.339155 0
M  V30 511 H 46.4939 4.99048 0.944135 0
M  V30 512 H 46.4239 4.54094 2.66658 0
M  V30 513 H 48.9149 3.44441 1.55464 0
M  V30 514 H 49.2279 7.2779 2.59887 0
M  V30 515 H 47.5729 6.54287 2.34378 0
M  V30 516 H 50.7639 4.30051 1.84861 0
M  V30 517 H 50.9369 6.04854 2.325 0
M  V30 518 N 44.343 -0.763751 1.37857 0
M  V30 519 C 45.591 -1.51957 1.33243 0
M  V30 520 C 45.912 -1.94835 -0.0801709 0
M  V30 521 O 45.182 -1.66894 -1.02582 0
M  V30 522 H 43.762 -0.563626 0.49024 0
M  V30 523 H 46.424 -0.908504 1.7243 0
M  V30 524 H 45.52 -2.41523 1.97669 0
M  V30 525 N 45.8211 -1.22559 -0.990812 0
M  V30 526 C 46.7541 -0.940773 -2.07905 0
M  V30 527 C 47.7321 0.117082 -1.62178 0
M  V30 528 O 48.9161 -0.0149506 -1.88494 0
M  V30 529 C 46.0431 -0.415321 -3.36144 0
M  V30 530 C 45.0891 -1.45818 -4.00799 0
M  V30 531 S 45.9221 -3.03219 -4.41382 0
M  V30 532 C 47.0781 -2.52317 -5.72789 0
M  V30 533 H 47.3111 -1.8623 -2.31745 0
M  V30 534 H 44.8441 -1.05688 -1.12558 0
M  V30 535 H 46.8021 -0.118747 -4.10328 0
M  V30 536 H 45.4631 0.485121 -3.10331 0
M  V30 537 H 44.6561 -1.04044 -4.93144 0
M  V30 538 H 44.2581 -1.70356 -3.32949 0
M  V30 539 H 46.5501 -1.93688 -6.49224 0
M  V30 540 H 47.4931 -3.43161 -6.19392 0
M  V30 541 H 47.9011 -1.93529 -5.30289 0
M  V30 542 N 47.2992 1.18797 -1.03562 0
M  V30 543 C 48.7102 1.70322 -0.764676 0
M  V30 544 C 49.0612 1.82708 0.714996 0
M  V30 545 O 48.1862 1.50299 1.55689 0
M  V30 546 C 48.7812 3.09356 -1.38145 0
M  V30 547 C 47.3402 3.58114 -1.15895 0
M  V30 548 C 46.4872 2.34798 -1.4753 0
M  V30 549 H 49.4382 1.03543 -1.20268 0
M  V30 550 H 49.4592 3.72378 -0.781977 0
M  V30 551 H 48.9712 3.00309 -2.45837 0
M  V30 552 H 47.0722 3.72464 -0.100544 0
M  V30 553 H 47.1852 4.4184 -1.8524 0
M  V30 554 H 45.5492 2.38464 -0.894829 0
M  V30 555 H 46.3322 2.28375 -2.56319 0
M  V30 556 N 48.7773 0.814389 1.34928 0
M  V30 557 C 49.7273 0.202752 2.27097 0
M  V30 558 C 50.7113 -0.62799 1.48139 0
M  V30 559 O 51.9033 -0.483969 1.70255 0
M  V30 560 C 49.0323 -0.64146 3.37254 0
M  V30 561 C 48.1183 0.19944 4.23631 0
M  V30 562 N 48.5093 1.26628 4.89693 0
M  V30 563 C 46.8073 -0.0176433 4.45997 0
M  V30 564 C 47.5083 1.78031 5.53787 0
M  V30 565 N 46.4843 1.08553 5.32651 0
M  V30 566 H 50.2863 1.01893 2.75672 0
M  V30 567 H 47.8003 0.656332 1.48546 0
M  V30 568 H 49.7973 -1.09575 4.02243 0
M  V30 569 H 48.4573 -1.4559 2.9023 0
M  V30 570 H 49.4683 1.64901 4.90946 0
M  V30 571 H 46.1453 -0.800601 4.09752 0
M  V30 572 H 47.5353 2.67236 6.16469 0
M  V30 573 N 50.2554 -1.46986 0.568584 0
M  V30 574 C 51.5014 -2.02741 0.0488709 0
M  V30 575 C 51.8344 -1.44077 -1.30214 0
M  V30 576 O 51.1094 -0.600552 -1.84996 0
M  V30 577 C 51.3924 -3.60086 -0.032047 0
M  V30 578 C 51.2454 -4.29162 1.34686 0
M  V30 579 C 52.5644 -4.33838 -0.739798 0
M  V30 580 H 49.6834 -0.736749 0.0192338 0
M  V30 581 H 52.3254 -1.75289 0.733065 0
M  V30 582 H 50.4754 -3.83606 -0.61473 0
M  V30 583 H 52.1474 -4.16948 1.97362 0
M  V30 584 H 50.3904 -3.89073 1.91846 0
M  V30 585 H 51.0614 -5.37826 1.24285 0
M  V30 586 H 53.5374 -4.15378 -0.244939 0
M  V30 587 H 52.4134 -5.43537 -0.765406 0
M  V30 588 H 52.6744 -4.03875 -1.79827 0
M  V30 589 N 51.7335 -0.305618 -1.54608 0
M  V30 590 C 52.9825 0.303098 -1.9941 0
M  V30 591 C 53.2955 1.54648 -1.19764 0
M  V30 592 O 54.5015 2.23007 -1.54855 0
M  V30 593 C 52.9575 0.590588 -3.55021 0
M  V30 594 C 52.5655 -0.634719 -4.43481 0
M  V30 595 C 54.3095 1.16025 -4.08336 0
M  V30 596 C 52.2165 -0.320126 -5.90533 0
M  V30 597 H 51.1465 0.117031 -0.744862 0
M  V30 598 H 53.7975 -0.415045 -1.78745 0
M  V30 599 H 52.1795 1.36845 -3.71604 0
M  V30 600 H 53.3535 -1.41079 -4.38672 0
M  V30 601 H 51.6685 -1.12333 -4.00962 0
M  V30 602 H 54.2655 1.40994 -5.15776 0
M  V30 603 H 54.6085 2.10397 -3.5922 0
M  V30 604 H 55.1415 0.443985 -3.95315 0
M  V30 605 H 51.8805 -1.23254 -6.43808 0
M  V30 606 H 51.4005 0.418579 -5.98338 0
M  V30 607 H 53.0795 0.0766241 -6.46955 0
M  V30 608 N 53.2116 1.57565 -0.0334293 0
M  V30 609 C 54.6276 1.56297 0.322997 0
M  V30 610 C 54.8276 1.03945 1.7262 0
M  V30 611 O 53.8836 0.688109 2.42943 0
M  V30 612 C 55.1966 3.00232 0.167664 0
M  V30 613 C 56.7446 3.12078 0.240107 0
M  V30 614 C 57.2196 4.57859 0.113513 0
M  V30 615 N 58.7106 4.62887 0.170359 0
M  V30 616 C 59.4456 5.73319 0.0962517 0
M  V30 617 N 58.9416 6.92794 -0.0291881 0
M  V30 618 N 60.7346 5.61898 0.150551 0
M  V30 619 H 52.8856 1.89923 -0.950956 0
M  V30 620 H 55.1486 0.873824 -0.367608 0
M  V30 621 H 54.8546 3.42501 -0.799102 0
M  V30 622 H 54.7286 3.654 0.936083 0
M  V30 623 H 57.1156 2.69718 1.19733 0
M  V30 624 H 57.1966 2.49623 -0.558763 0
M  V30 625 H 56.8406 5.009 -0.840314 0
M  V30 626 H 56.7706 5.18299 0.931302 0
M  V30 627 H 59.2616 3.76954 0.26728 0
M  V30 628 H 59.5746 7.7276 -0.0789252 0
M  V30 629 H 57.9196 6.94971 -0.0640299 0
M  V30 630 H 61.1106 4.67448 0.246981 0
M  V30 631 H 61.2836 6.47938 0.0893365 0
M  V30 632 N 54.6897 -0.239769 1.55765 0
M  V30 633 C 55.9387 -0.964754 1.77131 0
M  V30 634 C 56.2517 -1.86213 0.59868 0
M  V30 635 O 57.4577 -2.6244 0.695522 0
M  V30 636 C 55.9137 -1.76552 3.1362 0
M  V30 637 C 55.5217 -0.915185 4.38553 0
M  V30 638 C 57.2657 -2.48281 3.44321 0
M  V30 639 C 55.1727 -1.71225 5.66071 0
M  V30 640 H 54.1027 -0.363953 0.660344 0
M  V30 641 H 56.7537 -0.219181 1.82186 0
M  V30 642 H 55.1357 -2.55331 3.02691 0
M  V30 643 H 56.3097 -0.169217 4.60489 0
M  V30 644 H 54.6247 -0.310889 4.15238 0
M  V30 645 H 57.2217 -3.08382 4.36812 0
M  V30 646 H 57.5647 -3.20256 2.65973 0
M  V30 647 H 58.0977 -1.76507 3.56497 0
M  V30 648 H 54.8367 -1.03612 6.4726 0
M  V30 649 H 54.3567 -2.43331 5.48224 0
M  V30 650 H 56.0357 -2.27758 6.05587 0
M  V30 651 N 56.1678 -1.49265 -0.50573 0
M  V30 652 C 57.4158 -1.582 -1.25766 0
M  V30 653 C 57.7368 -0.268482 -1.93143 0
M  V30 654 O 57.0068 0.711833 -1.8251 0
M  V30 655 H 55.5868 -0.582873 -0.467191 0
M  V30 656 H 58.2488 -1.85865 -0.586525 0
M  V30 657 H 57.3448 -2.37563 -2.02412 0
M  V30 658 N 57.6459 0.756429 -1.3826 0
M  V30 659 C 58.8939 1.51248 -1.34047 0
M  V30 660 C 59.2149 1.94875 0.0698372 0
M  V30 661 O 58.4849 1.67436 1.01696 0
M  V30 662 H 57.0649 0.561018 -0.493222 0
M  V30 663 H 59.7269 0.899347 -1.7291 0
M  V30 664 H 58.8229 2.40472 -1.98947 0
M  V30 665 N 59.124 1.23083 0.984299 0
M  V30 666 C 60.373 1.05466 1.71929 0
M  V30 667 C 60.686 -0.409211 1.91272 0
M  V30 668 O 61.892 -0.705226 2.62181 0
M  V30 669 C 60.348 1.83874 3.09384 0
M  V30 670 C 59.956 3.34566 2.97943 0
M  V30 671 C 61.7 1.74734 3.8687 0
M  V30 672 C 59.607 4.05381 4.30605 0
M  V30 673 H 58.537 0.391039 0.644674 0
M  V30 674 H 61.188 1.47013 1.09815 0
M  V30 675 H 59.57 1.35131 3.72231 0
M  V30 676 H 60.744 3.90767 2.44209 0
M  V30 677 H 59.059 3.44476 2.33934 0
M  V30 678 H 61.656 2.24957 4.85076 0
M  V30 679 H 61.999 0.709372 4.10212 0
M  V30 680 H 62.532 2.21067 3.30717 0
M  V30 681 H 59.271 5.09467 4.1246 0
M  V30 682 H 58.791 3.53967 4.84218 0
M  V30 683 H 60.47 4.11458 4.99311 0
M  V30 684 N 60.6021 -1.18246 1.0419 0
M  V30 685 C 61.8491 -1.88257 0.746017 0
M  V30 686 C 62.1771 -1.80429 -0.726331 0
M  V30 687 O 61.4321 -1.2 -1.54591 0
M  V30 688 C 61.7311 -3.38082 1.15911 0
M  V30 689 C 61.3971 -3.66114 2.63195 0
M  V30 690 C 60.0591 -3.73474 3.03432 0
M  V30 691 C 62.4111 -3.78398 3.5842 0
M  V30 692 C 59.7391 -3.90599 4.37778 0
M  V30 693 C 62.0911 -3.97039 4.92487 0
M  V30 694 C 60.7551 -4.02635 5.32392 0
M  V30 695 H 60.0251 -0.688883 0.272987 0
M  V30 696 H 62.6721 -1.3995 1.30715 0
M  V30 697 H 60.9771 -3.88377 0.516806 0
M  V30 698 H 62.6741 -3.90596 0.907516 0
M  V30 699 H 59.2641 -3.61003 2.3103 0
M  V30 700 H 63.4481 -3.72042 3.28479 0
M  V30 701 H 58.7041 -3.93175 4.68213 0
M  V30 702 H 62.8781 -4.05486 5.66175 0
M  V30 703 H 60.5051 -4.15657 6.36501 0
M  V30 704 N 62.0802 -0.821533 -1.34494 0
M  V30 705 C 62.9902 -0.244355 -2.33324 0
M  V30 706 C 64.0062 0.620527 -1.62559 0
M  V30 707 O 65.1822 0.528754 -1.94335 0
M  V30 708 C 62.2472 0.585368 -3.41723 0
M  V30 709 C 61.3082 -0.301752 -4.28238 0
M  V30 710 C 60.5412 0.488466 -5.3146 0
M  V30 711 O 60.7642 1.72186 -5.4379 0
M  V30 712 O 59.6982 -0.12848 -6.01763 0
M  V30 713 H 63.5242 -1.06231 -2.84515 0
M  V30 714 H 61.1092 -0.583645 -1.37528 0
M  V30 715 H 62.9912 1.05747 -4.07916 0
M  V30 716 H 61.6662 1.38068 -2.92778 0
M  V30 717 H 60.5732 -0.821315 -3.64973 0
M  V30 718 H 61.9062 -1.06138 -4.8062 0
M  V30 719 N 63.5583 1.46682 -0.576371 0
M  V30 720 C 64.7883 2.06498 -0.0648694 0
M  V30 721 C 65.1963 1.42665 1.24271 0
M  V30 722 O 64.5393 0.523886 1.76071 0
M  V30 723 C 64.6013 3.5904 0.181816 0
M  V30 724 C 64.2653 4.45028 -1.0392 0
M  V30 725 C 65.2623 4.81959 -1.94966 0
M  V30 726 C 62.9473 4.86259 -1.25927 0
M  V30 727 C 64.9413 5.58942 -3.06371 0
M  V30 728 C 62.6283 5.63002 -2.37638 0
M  V30 729 C 63.6263 5.99257 -3.2769 0
M  V30 730 O 63.3143 6.7445 -4.37461 0
M  V30 731 H 63.0463 0.674028 -0.0515987 0
M  V30 732 H 65.6003 1.89393 -0.794951 0
M  V30 733 H 63.8303 3.74429 0.966436 0
M  V30 734 H 65.5193 4.00806 0.641047 0
M  V30 735 H 66.2853 4.50689 -1.79177 0
M  V30 736 H 62.1643 4.57494 -0.567448 0
M  V30 737 H 65.7083 5.87158 -3.76684 0
M  V30 738 H 61.6053 5.93686 -2.53392 0
M  V30 739 H 62.3733 6.92867 -4.35749 0
M  V30 740 N 65.0364 0.313813 1.54444 0
M  V30 741 C 65.9994 -0.54379 2.22656 0
M  V30 742 C 66.9994 -1.05124 1.21678 0
M  V30 743 O 68.1894 -0.945225 1.46325 0
M  V30 744 C 65.3214 -1.75427 2.92298 0
M  V30 745 H 66.5144 0.0523599 2.99854 0
M  V30 746 H 64.0674 0.0647834 1.56166 0
M  V30 747 H 64.8024 -2.38991 2.19211 0
M  V30 748 H 64.5874 -1.39791 3.66334 0
M  V30 749 H 66.0774 -2.36325 3.44297 0
M  V30 750 N 66.5145 -1.57545 0.0417849 0
M  V30 751 C 67.7915 -1.83642 -0.673433 0
M  V30 752 C 68.1715 -0.928298 -1.89594 0
M  V30 753 O 67.5195 0.0129955 -2.28496 0
M  V30 754 C 67.7295 -3.33155 -1.03964 0
M  V30 755 C 69.0775 -3.99941 -1.42592 0
M  V30 756 O 70.1015 -3.37725 -1.13226 0
M  V30 757 O 68.9605 -5.09619 -1.9736 0
M  V30 758 H 66.0545 -0.757638 -0.331533 0
M  V30 759 H 68.6005 -1.69554 0.070433 0
M  V30 760 H 67.3725 -3.9093 -0.170098 0
M  V30 761 H 66.9955 -3.52396 -1.84126 0
M  V30 762 N 67.9926 0.231505 -1.5589 0
M  V30 763 C 69.2406 0.955461 -1.78088 0
M  V30 764 C 69.5616 1.85262 -0.608533 0
M  V30 765 O 68.8316 1.92277 0.375035 0
M  V30 766 H 67.4116 0.355787 -0.656829 0
M  V30 767 H 70.0736 0.245751 -1.93344 0
M  V30 768 H 69.1696 1.56814 -2.69844 0
M  V30 769 N 69.4707 1.49531 0.497807 0
M  V30 770 C 70.8817 1.52344 1.07927 0
M  V30 771 C 71.2327 0.311469 1.93712 0
M  V30 772 O 70.3577 -0.578405 2.08527 0
M  V30 773 C 70.9527 2.76062 1.96405 0
M  V30 774 C 69.5117 2.81643 2.49709 0
M  V30 775 C 68.6587 2.46299 1.27404 0
M  V30 776 H 71.6097 1.56182 0.281576 0
M  V30 777 H 71.6307 2.56405 2.81135 0
M  V30 778 H 71.1427 3.64254 1.33943 0
M  V30 779 H 69.2437 1.97739 3.15801 0
M  V30 780 H 69.3567 3.83891 2.86643 0
M  V30 781 H 67.7207 1.98148 1.60029 0
M  V30 782 H 68.5037 3.36769 0.66645 0
M  V30 783 N 70.9488 -0.749086 1.3866 0
M  V30 784 C 71.8968 -1.88428 1.36373 0
M  V30 785 C 72.8908 -1.67561 0.248929 0
M  V30 786 O 74.0968 -1.75074 0.41821 0
M  V30 787 H 70.4718 -0.620023 0.42553 0
M  V30 788 H 72.4428 -1.87473 2.32156 0
M  V30 789 C 71.1918 -3.25961 1.21014 0
M  V30 790 H 70.5148 -3.42607 2.06059 0
M  V30 791 H 71.9548 -4.05625 1.23469 0
M  V30 792 C 70.4138 -3.36799 -0.0825941 0
M  V30 793 O 70.9438 -3.87517 -1.05797 0
M  V30 794 N 69.1498 -2.90258 -0.140939 0
M  V30 795 H 68.6968 -2.49174 0.653477 0
M  V30 796 H 68.6548 -2.97889 -1.00545 0
M  V30 797 N 72.4269 -1.23603 -0.977757 0
M  V30 798 C 73.3899 -1.02069 -2.05218 0
M  V30 799 C 74.3899 0.0184305 -1.60789 0
M  V30 800 O 75.5799 -0.221569 -1.72785 0
M  V30 801 C 72.7119 -0.544926 -3.36517 0
M  V30 802 H 73.9049 -1.9742 -2.25755 0
M  V30 803 H 71.4579 -1.05684 -1.15155 0
M  V30 804 H 72.1929 0.412241 -3.21669 0
M  V30 805 H 71.9779 -1.2948 -3.70105 0
M  V30 806 H 73.4679 -0.414985 -4.15533 0
M  V30 807 N 73.905 1.17692 -1.04816 0
M  V30 808 C 74.837 2.21103 -0.603822 0
M  V30 809 C 75.85 1.59411 0.33046 0
M  V30 810 O 77.039 1.7807 0.12379 0
M  V30 811 C 74.139 3.38623 0.136898 0
M  V30 812 C 73.312 4.29888 -0.807137 0
M  V30 813 C 72.371 5.26088 -0.10836 0
M  V30 814 O 71.397 5.64353 -0.741232 0
M  V30 815 N 72.599 5.68882 1.15558 0
M  V30 816 H 75.364 2.59848 -1.49329 0
M  V30 817 H 72.925 1.32553 -0.929587 0
M  V30 818 H 74.917 4.00009 0.614401 0
M  V30 819 H 73.487 2.98508 0.927993 0
M  V30 820 H 72.707 3.65993 -1.46434 0
M  V30 821 H 73.995 4.87759 -1.44807 0
M  V30 822 H 73.393 5.39861 1.69015 0
M  V30 823 H 71.95 6.32429 1.57722 0
M  V30 824 N 75.3831 0.828654 1.34056 0
M  V30 825 C 76.6291 0.42008 1.98402 0
M  V30 826 C 76.9621 -1.01564 1.65525 0
M  V30 827 O 76.2371 -1.70834 0.929831 0
M  V30 828 C 76.5201 0.62927 3.54559 0
M  V30 829 C 76.3731 2.11152 3.97159 0
M  V30 830 C 77.6921 0.0688756 4.40046 0
M  V30 831 H 74.8111 0.154104 0.720709 0
M  V30 832 H 77.4531 1.04228 1.5886 0
M  V30 833 H 75.6031 0.0996418 3.88372 0
M  V30 834 H 77.2751 2.70522 3.73651 0
M  V30 835 H 75.5181 2.59985 3.47261 0
M  V30 836 H 76.1891 2.20868 5.05887 0
M  V30 837 H 78.6651 0.521458 4.1282 0
M  V30 838 H 77.5411 0.245006 5.48353 0
M  V30 839 H 77.8021 -1.0266 4.30015 0
M  V30 840 N 76.8612 -1.46375 0.584142 0
M  V30 841 C 77.7942 -2.27351 -0.196676 0
M  V30 842 C 78.7722 -1.35715 -0.895561 0
M  V30 843 O 79.9562 -1.65126 -0.90916 0
M  V30 844 C 77.0832 -3.13486 -1.28235 0
M  V30 845 C 76.1292 -4.20896 -0.689145 0
M  V30 846 S 76.9622 -5.33299 0.48507 0
M  V30 847 C 78.1182 -6.23 -0.601767 0
M  V30 848 H 78.3512 -2.93228 0.490395 0
M  V30 849 H 75.8842 -1.49875 0.371071 0
M  V30 850 H 77.8422 -3.63676 -1.90395 0
M  V30 851 H 76.5032 -2.4692 -1.94138 0
M  V30 852 H 75.6962 -4.80997 -1.50527 0
M  V30 853 H 75.2982 -3.73726 -0.143181 0
M  V30 854 H 77.5902 -6.60979 -1.48705 0
M  V30 855 H 78.5332 -7.0809 -0.0374799 0
M  V30 856 H 78.9412 -5.57173 -0.906557 0
M  V30 857 N 78.3393 -0.321999 -1.54275 0
M  V30 858 C 79.2873 0.560206 -2.25753 0
M  V30 859 C 80.2813 1.11984 -1.27106 0
M  V30 860 O 81.4873 1.06806 -1.44888 0
M  V30 861 H 77.8623 0.199304 -0.725108 0
M  V30 862 H 79.8333 -0.0649365 -2.98329 0
M  V30 863 C 78.5823 1.71023 -3.02731 0
M  V30 864 H 77.9053 1.28885 -3.78456 0
M  V30 865 H 79.3453 2.30314 -3.55993 0
M  V30 866 C 77.8043 2.62692 -2.10938 0
M  V30 867 O 78.3343 3.64364 -1.6912 0
M  V30 868 N 76.5403 2.30891 -1.76459 0
M  V30 869 H 76.0873 1.48253 -2.10663 0
M  V30 870 H 76.0453 2.92487 -1.1532 0
M  V30 871 N 79.8174 1.5752 -0.0501392 0
M  V30 872 C 80.7804 2.1037 0.909786 0
M  V30 873 C 81.7804 1.02308 1.24056 0
M  V30 874 O 82.9704 1.28385 1.17741 0
M  V30 875 C 80.1024 2.58708 2.21998 0
M  V30 876 H 81.2954 2.96479 0.451665 0
M  V30 877 H 78.8484 1.55038 0.198248 0
M  V30 878 H 79.5834 1.75989 2.72394 0
M  V30 879 H 79.3684 3.37675 1.99295 0
M  V30 880 H 80.8584 2.99747 2.9076 0
M  V30 881 N 81.2955 -0.223234 1.56011 0
M  V30 882 C 82.2055 -1.29766 1.95443 0
M  V30 883 C 83.2215 -1.51373 0.858028 0
M  V30 884 O 84.3975 -1.64536 1.16146 0
M  V30 885 C 81.4625 -2.62772 2.26167 0
M  V30 886 C 80.5235 -2.49482 3.49367 0
M  V30 887 C 79.7565 -3.76145 3.78616 0
M  V30 888 O 79.9795 -4.79087 3.09568 0
M  V30 889 O 78.9135 -3.73358 4.72109 0
M  V30 890 H 82.7395 -0.99309 2.87004 0
M  V30 891 H 80.3245 -0.425958 1.43199 0
M  V30 892 H 82.2065 -3.41327 2.47131 0
M  V30 893 H 80.8815 -2.92913 1.37781 0
M  V30 894 H 79.7885 -1.69133 3.33684 0
M  V30 895 H 81.1215 -2.2428 4.38131 0
M  V30 896 N 82.7736 -1.49793 -0.48987 0
M  V30 897 C 83.6836 -1.70036 -1.61632 0
M  V30 898 C 84.6996 -0.583102 -1.63939 0
M  V30 899 O 85.8756 -0.859169 -1.82154 0
M  V30 900 C 82.9406 -1.77277 -2.97949 0
M  V30 901 C 82.0016 -3.00918 -3.06181 0
M  V30 902 C 81.2346 -3.07804 -4.35996 0
M  V30 903 O 81.4576 -2.21982 -5.25433 0
M  V30 904 O 80.3916 -4.00369 -4.49431 0
M  V30 905 H 84.2176 -2.65486 -1.47482 0
M  V30 906 H 81.8026 -1.33666 -0.667362 0
M  V30 907 H 83.6846 -1.84329 -3.78947 0
M  V30 908 H 82.3596 -0.850076 -3.12339 0
M  V30 909 H 81.2666 -2.99377 -2.2433 0
M  V30 910 H 82.5996 -3.92704 -2.96723 0
M  V30 911 N 84.2517 0.741722 -1.39055 0
M  V30 912 C 85.2017 1.84661 -1.33732 0
M  V30 913 C 86.1857 1.59397 -0.219401 0
M  V30 914 O 87.3777 1.71015 -0.456375 0
M  V30 915 C 84.5067 3.22512 -1.17647 0
M  V30 916 C 83.5927 3.53628 -2.34112 0
M  V30 917 N 83.9837 3.55723 -3.59576 0
M  V30 918 C 82.2817 3.83956 -2.26923 0
M  V30 919 C 82.9827 3.84443 -4.36553 0
M  V30 920 N 81.9587 4.01877 -3.66055 0
M  V30 921 H 85.7607 1.84576 -2.28711 0
M  V30 922 H 83.2747 0.939647 -1.32455 0
M  V30 923 H 85.2717 4.01597 -1.11917 0
M  V30 924 H 83.9317 3.2384 -0.236124 0
M  V30 925 H 84.9427 3.37196 -3.93089 0
M  V30 926 H 81.6197 3.92929 -1.41113 0
M  V30 927 H 83.0097 3.92588 -5.45274 0
M  V30 928 N 85.7298 1.2412 0.971189 0
M  V30 929 C 86.6928 1.03156 2.04674 0
M  V30 930 C 87.6928 -0.00990322 1.60797 0
M  V30 931 O 88.8828 0.230729 1.72665 0
M  V30 932 C 86.0148 0.562765 3.36223 0
M  V30 933 H 87.2078 1.98614 2.24705 0
M  V30 934 H 84.7608 1.06293 1.14593 0
M  V30 935 H 85.4958 -0.395176 3.21883 0
M  V30 936 H 85.2808 1.31441 3.69413 0
M  V30 937 H 86.7708 0.437015 4.15307 0
M  V30 938 N 87.2079 -1.17134 1.05439 0
M  V30 939 C 88.4549 -1.87456 0.765942 0
M  V30 940 C 88.7829 -1.81189 -0.707153 0
M  V30 941 O 88.0379 -1.21633 -1.5331 0
M  V30 942 C 88.3369 -3.36833 1.19491 0
M  V30 943 C 88.0029 -3.63301 2.67063 0
M  V30 944 C 86.6649 -3.70234 3.07376 0
M  V30 945 C 89.0169 -3.74575 3.62413 0
M  V30 946 C 86.3449 -3.85933 4.41896 0
M  V30 947 C 88.6969 -3.91793 4.9667 0
M  V30 948 C 87.3609 -3.96966 5.36633 0
M  V30 949 H 86.6309 -0.685948 0.280278 0
M  V30 950 H 89.2779 -1.38556 1.32192 0
M  V30 951 H 87.5829 -3.87807 0.557969 0
M  V30 952 H 89.2799 -3.89611 0.948893 0
M  V30 953 H 85.8699 -3.58532 2.34846 0
M  V30 954 H 90.0539 -3.68537 3.32406 0
M  V30 955 H 85.3099 -3.88187 4.72357 0
M  V30 956 H 89.4839 -3.99458 5.70444 0
M  V30 957 H 87.1109 -4.08883 6.40874 0
M  V30 958 N 88.686 -0.835752 -1.33615 0
M  V30 959 C 90.102 -0.523139 -1.50783 0
M  V30 960 C 90.302 0.950171 -1.77691 0
M  V30 961 O 89.358 1.73411 -1.83534 0
M  V30 962 C 90.671 -1.39378 -2.66448 0
M  V30 963 C 92.219 -1.39223 -2.80332 0
M  V30 964 C 92.694 -2.24765 -3.99055 0
M  V30 965 N 94.185 -2.22458 -4.06284 0
M  V30 966 C 94.92 -2.85386 -4.97336 0
M  V30 967 N 94.416 -3.57354 -5.93523 0
M  V30 968 N 96.209 -2.74872 -4.90308 0
M  V30 969 H 88.36 -1.78952 -1.14411 0
M  V30 970 H 90.623 -0.763297 -0.562212 0
M  V30 971 H 90.329 -2.44061 -2.53234 0
M  V30 972 H 90.203 -1.0676 -3.61776 0
M  V30 973 H 92.59 -0.353136 -2.92979 0
M  V30 974 H 92.671 -1.75846 -1.85773 0
M  V30 975 H 92.315 -3.28732 -3.87167 0
M  V30 976 H 92.245 -1.85485 -4.92852 0
M  V30 977 H 94.736 -1.70119 -3.37443 0
M  V30 978 H 95.049 -4.02584 -6.59656 0
M  V30 979 H 93.394 -3.61461 -5.93608 0
M  V30 980 H 96.585 -2.18213 -4.14126 0
M  V30 981 H 96.758 -3.24199 -5.61069 0
M  V30 982 N 90.1641 1.46063 -0.591896 0
M  V30 983 C 91.4111 2.02338 -0.0809991 0
M  V30 984 C 91.7391 1.46228 1.28249 0
M  V30 985 O 90.9941 0.620818 1.85592 0
M  V30 986 C 91.2931 3.57391 0.0249813 0
M  V30 987 C 90.9591 4.32583 -1.27211 0
M  V30 988 C 89.6211 4.52844 -1.62745 0
M  V30 989 C 91.9731 4.75687 -2.13005 0
M  V30 990 C 89.3011 5.13462 -2.83855 0
M  V30 991 C 91.6531 5.37644 -3.3335 0
M  V30 992 C 90.3171 5.5613 -3.69155 0
M  V30 993 H 89.5871 0.740407 -0.0296397 0
M  V30 994 H 92.2341 1.75321 -0.770374 0
M  V30 995 H 90.5391 3.83597 0.797537 0
M  V30 996 H 92.2361 3.98621 0.436184 0
M  V30 997 H 88.8261 4.17116 -0.985499 0
M  V30 998 H 93.0101 4.59782 -1.86855 0
M  V30 999 H 88.2661 5.25965 -3.11722 0
M  V30 1000 H 92.4401 5.7 -4.00092 0
M  V30 1001 H 90.0671 6.0287 -4.63089 0
M  V30 1002 N 91.6422 0.330177 1.54103 0
M  V30 1003 C 92.8672 -0.274893 2.0557 0
M  V30 1004 C 93.2922 -1.44487 1.20437 0
M  V30 1005 O 92.6502 -1.80021 0.214991 0
M  V30 1006 C 92.6982 -0.68079 3.54115 0
M  V30 1007 O 91.8022 -1.7824 3.71893 0
M  V30 1008 H 91.1432 -0.0483849 0.662235 0
M  V30 1009 H 93.6732 0.480508 1.98878 0
M  V30 1010 H 93.6832 -0.961635 3.96505 0
M  V30 1011 H 92.3582 0.174903 4.15532 0
M  V30 1012 H 90.9352 -1.49985 3.41407 0
M  V30 1013 N 93.1203 -1.57491 0.0584922 0
M  V30 1014 C 94.0833 -2.1085 -0.898617 0
M  V30 1015 C 95.0833 -1.02964 -1.23511 0
M  V30 1016 O 96.2733 -1.29007 -1.17059 0
M  V30 1017 C 93.4053 -2.59881 -2.20623 0
M  V30 1018 H 94.5983 -2.96715 -0.435936 0
M  V30 1019 H 92.1513 -1.55141 -0.190023 0
M  V30 1020 H 92.8863 -1.77431 -2.71457 0
M  V30 1021 H 92.6713 -3.38727 -1.97501 0
M  V30 1022 H 94.1613 -3.01285 -2.89166 0
M  V30 1023 N 94.5984 0.214957 -1.56127 0
M  V30 1024 C 95.5464 1.28601 -1.93816 0
M  V30 1025 C 96.5404 1.48175 -0.821016 0
M  V30 1026 O 97.7464 1.49271 -1.0059 0
M  V30 1027 H 94.1214 0.431302 -0.616022 0
M  V30 1028 H 96.0924 0.940991 -2.83175 0
M  V30 1029 C 94.8414 2.62779 -2.27689 0
M  V30 1030 H 94.1644 2.48527 -3.13168 0
M  V30 1031 H 95.6044 3.36517 -2.57939 0
M  V30 1032 C 94.0634 3.18285 -1.10436 0
M  V30 1033 O 94.5934 4.00002 -0.368945 0
M  V30 1034 N 92.7994 2.7675 -0.886433 0
M  V30 1035 H 92.3464 2.10404 -1.48619 0
M  V30 1036 H 92.3044 3.14229 -0.103656 0
M  V30 1037 N 96.0765 1.50051 0.48192 0
M  V30 1038 C 97.3255 1.59741 1.23149 0
M  V30 1039 C 97.6385 0.298163 1.93314 0
M  V30 1040 O 98.8445 0.273835 2.70116 0
M  V30 1041 C 97.3005 2.81926 2.23708 0
M  V30 1042 C 96.9085 4.18685 1.59396 0
M  V30 1043 C 98.6525 3.00956 2.99375 0
M  V30 1044 C 96.5595 5.3207 2.58178 0
M  V30 1045 H 95.4895 0.594838 0.46334 0
M  V30 1046 H 98.1405 1.76467 0.503169 0
M  V30 1047 H 96.5225 2.58736 2.99786 0
M  V30 1048 H 97.6965 4.52088 0.891811 0
M  V30 1049 H 96.0115 4.05171 0.960503 0
M  V30 1050 H 98.6085 3.82836 3.73283 0
M  V30 1051 H 98.9515 2.12258 3.58123 0
M  V30 1052 H 99.4845 3.24277 2.30411 0
M  V30 1053 H 96.2235 6.22888 2.04184 0
M  V30 1054 H 95.7435 5.03098 3.26577 0
M  V30 1055 H 97.4225 5.62196 3.20225 0
M  V30 1056 N 97.5546 -0.734337 1.39446 0
M  V30 1057 C 98.8036 -1.48937 1.36017 0
M  V30 1058 C 99.1166 -1.95557 -0.0409005 0
M  V30 1059 O 100.323 -2.70779 -0.19778 0
M  V30 1060 C 98.7786 -2.69125 2.38955 0
M  V30 1061 C 98.3866 -2.29452 3.8478 0
M  V30 1062 C 100.131 -3.46944 2.44603 0
M  V30 1063 C 98.0376 -3.46366 4.79358 0
M  V30 1064 H 96.9676 -0.559296 0.505672 0
M  V30 1065 H 99.6186 -0.800983 1.65095 0
M  V30 1066 H 98.0006 -3.40041 2.02948 0
M  V30 1067 H 99.1746 -1.66077 4.29831 0
M  V30 1068 H 97.4896 -1.64723 3.82433 0
M  V30 1069 H 100.087 -4.33907 3.12456 0
M  V30 1070 H 100.43 -3.89454 1.47076 0
M  V30 1071 H 100.963 -2.83056 2.79507 0
M  V30 1072 H 97.7016 -3.08905 5.78151 0
M  V30 1073 H 97.2216 -4.08719 4.38986 0
M  V30 1074 H 98.9006 -4.12691 4.98292 0
M  V30 1075 N 99.0327 -1.24633 -0.964593 0
M  V30 1076 C 99.9807 -1.03917 -2.08096 0
M  V30 1077 C 100.975 0.0268581 -1.69379 0
M  V30 1078 O 102.181 -0.127952 -1.79545 0
M  V30 1079 H 98.5557 -0.319044 -0.680966 0
M  V30 1080 H 100.527 -1.98581 -2.22729 0
M  V30 1081 C 99.2757 -0.663983 -3.41301 0
M  V30 1082 H 98.5987 -1.47605 -3.71555 0
M  V30 1083 H 100.039 -0.558663 -4.20303 0
M  V30 1084 C 98.4977 0.629169 -3.30973 0
M  V30 1085 O 99.0277 1.67404 -3.65156 0
M  V30 1086 N 97.2337 0.611057 -2.84103 0
M  V30 1087 H 96.7807 -0.239593 -2.56483 0
M  V30 1088 H 96.7387 1.47647 -2.77575 0
M  V30 1089 N 100.511 1.16574 -1.06058 0
M  V30 1090 C 101.927 1.3904 -0.783585 0
M  V30 1091 C 102.127 1.91784 0.618145 0
M  V30 1092 O 101.183 2.11511 1.37911 0
M  V30 1093 C 102.496 2.37329 -1.84649 0
M  V30 1094 C 104.044 2.51018 -1.86973 0
M  V30 1095 C 104.519 3.52588 -2.92311 0
M  V30 1096 N 106.01 3.60113 -2.91329 0
M  V30 1097 C 106.745 4.38486 -3.69482 0
M  V30 1098 N 106.241 5.20302 -4.57447 0
M  V30 1099 N 108.034 4.33446 -3.57885 0
M  V30 1100 H 100.185 0.806725 -1.96483 0
M  V30 1101 H 102.448 0.417117 -0.851303 0
M  V30 1102 H 102.154 2.05663 -2.85299 0
M  V30 1103 H 102.028 3.36946 -1.6955 0
M  V30 1104 H 104.415 2.81989 -0.869827 0
M  V30 1105 H 104.496 1.51445 -2.0615 0
M  V30 1106 H 104.14 3.22354 -3.92492 0
M  V30 1107 H 104.07 4.51886 -2.70383 0
M  V30 1108 H 106.561 3.01707 -2.27555 0
M  V30 1109 H 106.874 5.77311 -5.13743 0
M  V30 1110 H 105.219 5.19653 -4.61503 0
M  V30 1111 H 108.41 3.68586 -2.88551 0
M  V30 1112 H 108.583 4.94279 -4.19037 0
M  V30 1113 N 101.989 0.842826 1.3317 0
M  V30 1114 C 102.937 0.267495 2.31057 0
M  V30 1115 C 103.931 -0.602682 1.58316 0
M  V30 1116 O 105.137 -0.491803 1.73151 0
M  V30 1117 H 101.512 0.0677813 0.748939 0
M  V30 1118 H 103.483 1.10754 2.77085 0
M  V30 1119 C 102.232 -0.539331 3.43492 0
M  V30 1120 H 101.555 0.12095 3.99617 0
M  V30 1121 H 102.995 -0.90767 4.14171 0
M  V30 1122 C 101.454 -1.71981 2.89697 0
M  V30 1123 O 101.984 -2.81862 2.86211 0
M  V30 1124 N 100.19 -1.54299 2.46252 0
M  V30 1125 H 99.7369 -0.649143 2.49287 0
M  V30 1126 H 99.6949 -2.33431 2.10612 0
M  V30 1127 N 103.467 -1.45747 0.599634 0
M  V30 1128 C 104.883 -1.57424 0.26264 0
M  V30 1129 C 105.083 -1.59222 -1.23493 0
M  V30 1130 O 104.139 -1.51825 -2.01756 0
M  V30 1131 C 105.452 -2.86061 0.926795 0
M  V30 1132 C 107 -2.99722 0.901967 0
M  V30 1133 C 107.475 -4.31119 1.54598 0
M  V30 1134 N 108.966 -4.37858 1.5111 0
M  V30 1135 C 109.701 -5.3818 1.97863 0
M  V30 1136 N 109.197 -6.45083 2.52666 0
M  V30 1137 N 110.99 -5.29487 1.88679 0
M  V30 1138 H 103.141 -1.42823 1.57211 0
M  V30 1139 H 105.404 -0.68235 0.658105 0
M  V30 1140 H 105.11 -2.90605 1.98095 0
M  V30 1141 H 104.984 -3.74563 0.445238 0
M  V30 1142 H 107.371 -2.9475 -0.143617 0
M  V30 1143 H 107.452 -2.12652 1.42171 0
M  V30 1144 H 107.096 -4.36849 2.59085 0
M  V30 1145 H 107.026 -5.16992 1.00132 0
M  V30 1146 H 109.517 -3.61209 1.11068 0
M  V30 1147 H 109.83 -7.17869 2.86155 0
M  V30 1148 H 108.175 -6.45856 2.56701 0
M  V30 1149 H 111.366 -4.44877 1.4561 0
M  V30 1150 H 111.539 -6.07524 2.25429 0
M  V30 1151 N 104.945 -0.338344 -1.53925 0
M  V30 1152 C 106.173 0.261298 -2.05243 0
M  V30 1153 C 106.588 1.44625 -1.21363 0
M  V30 1154 O 105.945 1.80811 -0.247736 0
M  V30 1155 C 105.996 0.681412 -3.5502 0
M  V30 1156 O 105.717 -0.456414 -4.35716 0
M  V30 1157 C 107.218 1.34232 -4.22489 0
M  V30 1158 H 104.438 0.0513685 -0.669031 0
M  V30 1159 H 106.982 -0.488822 -1.98572 0
M  V30 1160 H 105.137 1.38148 -3.61931 0
M  V30 1161 H 105.551 -0.122564 -5.24357 0
M  V30 1162 H 107.025 1.58708 -5.28693 0
M  V30 1163 H 107.502 2.29426 -3.74514 0
M  V30 1164 H 108.108 0.684424 -4.19757 0
M  V30 1165 N 106.423 1.57458 -0.0668435 0
M  V30 1166 C 107.353 2.15468 0.899764 0
M  V30 1167 C 108.334 1.08042 1.31381 0
M  V30 1168 O 109.519 1.36054 1.38574 0
M  V30 1169 C 106.649 2.71232 2.16911 0
M  V30 1170 C 105.603 3.83781 1.89463 0
M  V30 1171 C 104.929 4.26127 3.22986 0
M  V30 1172 C 106.229 5.08238 1.20381 0
M  V30 1173 H 107.923 2.96488 0.416529 0
M  V30 1174 H 105.469 1.4262 0.198908 0
M  V30 1175 H 107.422 3.10458 2.84945 0
M  V30 1176 H 106.146 1.87426 2.67468 0
M  V30 1177 H 104.805 3.45051 1.23836 0
M  V30 1178 H 104.453 3.39249 3.71374 0
M  V30 1179 H 104.153 5.01993 3.05413 0
M  V30 1180 H 105.677 4.67966 3.92225 0
M  V30 1181 H 107.091 5.44811 1.78475 0
M  V30 1182 H 105.488 5.89349 1.13083 0
M  V30 1183 H 106.558 4.84558 0.182153 0
M  V30 1184 N 107.901 -0.206675 1.56239 0
M  V30 1185 C 108.831 -1.25909 1.96645 0
M  V30 1186 C 109.812 -1.48097 0.836734 0
M  V30 1187 O 110.997 -1.6003 1.10019 0
M  V30 1188 C 108.127 -2.6058 2.29599 0
M  V30 1189 C 107.081 -2.53024 3.452 0
M  V30 1190 C 106.407 -3.91861 3.63798 0
M  V30 1191 C 107.707 -2.06524 4.79734 0
M  V30 1192 H 109.401 -0.923369 2.84806 0
M  V30 1193 H 106.947 -0.442735 1.37025 0
M  V30 1194 H 108.9 -3.34375 2.56459 0
M  V30 1195 H 107.624 -2.95869 1.38307 0
M  V30 1196 H 106.283 -1.81684 3.18412 0
M  V30 1197 H 105.931 -4.24483 2.69857 0
M  V30 1198 H 105.631 -3.87683 4.4156 0
M  V30 1199 H 107.155 -4.67296 3.93022 0
M  V30 1200 H 108.569 -2.70072 5.05702 0
M  V30 1201 H 106.966 -2.13374 5.60885 0
M  V30 1202 H 108.036 -1.01802 4.74093 0
M  V30 1203 N 109.379 -1.50304 -0.473955 0
M  V30 1204 C 110.79 -1.54042 -1.0549 0
M  V30 1205 C 111.141 -0.342248 -1.93192 0
M  V30 1206 O 110.266 0.545157 -2.09421 0
M  V30 1207 C 110.861 -2.79152 -1.91989 0
M  V30 1208 C 109.42 -2.8558 -2.45196 0
M  V30 1209 C 108.567 -2.48295 -1.2347 0
M  V30 1210 H 111.518 -1.5661 -0.256693 0
M  V30 1211 H 111.539 -2.60845 -2.7702 0
M  V30 1212 H 111.051 -3.66339 -1.28131 0
M  V30 1213 H 109.152 -2.02738 -3.12615 0
M  V30 1214 H 109.265 -3.88403 -2.80499 0
M  V30 1215 H 107.629 -2.00669 -1.56856 0
M  V30 1216 H 108.412 -3.37787 -0.612789 0
M  V30 1217 N 110.857 0.726932 -1.39834 0
M  V30 1218 C 111.805 1.86235 -1.39353 0
M  V30 1219 C 112.799 1.67144 -0.275555 0
M  V30 1220 O 114.005 1.74387 -0.44601 0
M  V30 1221 H 110.38 0.613174 -0.43534 0
M  V30 1222 H 112.351 1.83756 -2.35109 0
M  V30 1223 C 111.1 3.23995 -1.26185 0
M  V30 1224 H 110.423 3.39285 -2.11484 0
M  V30 1225 H 111.863 4.03609 -1.29907 0
M  V30 1226 C 110.322 3.36888 0.0290018 0
M  V30 1227 O 110.852 3.89152 0.99619 0
M  V30 1228 N 109.058 2.90446 0.0947437 0
M  V30 1229 H 108.605 2.48102 -0.693035 0
M  V30 1230 H 108.563 2.99451 0.957932 0
M  V30 1231 N 112.336 1.25143 0.95797 0
M  V30 1232 C 113.564 1.12424 1.73691 0
M  V30 1233 C 113.979 -0.322304 1.86029 0
M  V30 1234 O 113.336 -1.22186 1.35561 0
M  V30 1235 C 113.387 1.76933 3.15241 0
M  V30 1236 O 113.108 3.15932 3.03511 0
M  V30 1237 C 114.609 1.6995 4.09429 0
M  V30 1238 H 111.829 0.3923 0.544373 0
M  V30 1239 H 114.373 1.6544 1.20207 0
M  V30 1240 H 112.528 1.27895 3.6568 0
M  V30 1241 H 112.942 3.47598 3.9278 0
M  V30 1242 H 114.416 2.19753 5.06372 0
M  V30 1243 H 114.893 0.662619 4.34173 0
M  V30 1244 H 115.499 2.18461 3.64904 0
M  V30 1245 N 113.814 -1.1601 1.06675 0
M  V30 1246 C 115.042 -1.90527 0.806667 0
M  V30 1247 C 115.457 -1.77643 -0.639396 0
M  V30 1248 O 114.814 -1.12369 -1.43803 0
M  V30 1249 C 114.865 -3.41106 1.19705 0
M  V30 1250 O 114.586 -3.53608 2.58636 0
M  V30 1251 C 116.087 -4.32663 0.965266 0
M  V30 1252 H 113.307 -0.604053 0.292166 0
M  V30 1253 H 115.851 -1.47026 1.4214 0
M  V30 1254 H 114.006 -3.82296 0.626774 0
M  V30 1255 H 114.42 -4.47011 2.74375 0
M  V30 1256 H 115.894 -5.36763 1.288 0
M  V30 1257 H 116.371 -4.39089 -0.0987936 0
M  V30 1258 H 116.977 -3.97206 1.52011 0
M  V30 1259 N 115.292 -0.849877 -1.32721 0
M  V30 1260 C 116.222 -0.306308 -2.31482 0
M  V30 1261 C 117.203 0.591952 -1.59468 0
M  V30 1262 O 118.388 0.513199 -1.87296 0
M  V30 1263 C 115.518 0.510204 -3.43532 0
M  V30 1264 C 114.472 -0.293209 -4.26994 0
M  V30 1265 C 113.798 0.647743 -5.30762 0
M  V30 1266 C 115.098 -1.51634 -4.99804 0
M  V30 1267 H 116.792 -1.13153 -2.77195 0
M  V30 1268 H 114.338 -0.545553 -1.33266 0
M  V30 1269 H 116.291 0.900856 -4.11658 0
M  V30 1270 H 115.015 1.36874 -2.96535 0
M  V30 1271 H 113.674 -0.665555 -3.60508 0
M  V30 1272 H 113.322 1.50299 -4.8002 0
M  V30 1273 H 113.022 0.11422 -5.87489 0
M  V30 1274 H 114.546 1.03567 -6.01753 0
M  V30 1275 H 115.96 -1.19824 -5.60638 0
M  V30 1276 H 114.357 -1.98745 -5.66234 0
M  V30 1277 H 115.427 -2.28018 -4.27943 0
M  V30 1278 N 116.77 1.45427 -0.607355 0
M  V30 1279 C 117.998 2.06614 -0.108814 0
M  V30 1280 C 118.413 1.45204 1.2067 0
M  V30 1281 O 117.77 0.566132 1.73497 0
M  V30 1282 C 117.821 3.61481 0.0375347 0
M  V30 1283 O 117.542 4.20598 -1.22593 0
M  V30 1284 C 119.043 4.39652 0.567561 0
M  V30 1285 H 116.263 0.66747 -0.0687351 0
M  V30 1286 H 118.807 1.86675 -0.835022 0
M  V30 1287 H 116.962 3.80762 0.714068 0
M  V30 1288 H 117.376 5.1377 -1.05547 0
M  V30 1289 H 118.85 5.48518 0.61905 0
M  V30 1290 H 119.327 4.09417 1.58978 0
M  V30 1291 H 119.933 4.25234 -0.0749202 0
M  V30 1292 N 118.248 0.346503 1.53744 0
M  V30 1293 C 119.478 -0.250047 2.05081 0
M  V30 1294 C 119.886 -1.44529 1.22098 0
M  V30 1295 O 119.229 -1.81992 0.249917 0
M  V30 1296 C 119.291 -0.725934 3.52094 0
M  V30 1297 C 118.955 0.350053 4.55657 0
M  V30 1298 C 119.952 1.19372 5.0601 0
M  V30 1299 C 117.637 0.504827 4.99757 0
M  V30 1300 C 119.631 2.17768 5.99046 0
M  V30 1301 C 117.318 1.49218 5.92602 0
M  V30 1302 C 118.316 2.32706 6.42135 0
M  V30 1303 O 118.004 3.2976 7.33153 0
M  V30 1304 H 117.736 -0.0515469 0.674032 0
M  V30 1305 H 120.29 0.497559 1.99282 0
M  V30 1306 H 118.52 -1.52483 3.55367 0
M  V30 1307 H 120.209 -1.24336 3.86388 0
M  V30 1308 H 120.975 1.08525 4.72702 0
M  V30 1309 H 116.854 -0.135178 4.60802 0
M  V30 1310 H 120.398 2.82971 6.37631 0
M  V30 1311 H 116.295 1.6012 6.25325 0
M  V30 1312 H 117.063 3.25265 7.51096 0
M  V30 1313 N 119.726 -1.57421 0.075193 0
M  V30 1314 C 121.003 -1.85029 -0.634329 0
M  V30 1315 C 121.383 -0.968305 -1.87582 0
M  V30 1316 O 120.731 -0.0354749 -2.28472 0
M  V30 1317 C 120.941 -3.35286 -0.968742 0
M  V30 1318 C 122.289 -4.02875 -1.34077 0
M  V30 1319 O 123.313 -3.40051 -1.06037 0
M  V30 1320 O 122.172 -5.13691 -1.86506 0
M  V30 1321 H 119.266 -0.7645 -0.315387 0
M  V30 1322 H 121.812 -1.69366 0.106382 0
M  V30 1323 H 120.584 -3.91203 -0.0871376 0
M  V30 1324 H 120.207 -3.56223 -1.7661 0
M  V30 1325 N 121.204 0.198386 -1.56346 0
M  V30 1326 C 122.453 0.917451 -1.79627 0
M  V30 1327 C 122.766 1.8456 -0.64784 0
M  V30 1328 O 123.972 2.60504 -0.764859 0
M  V30 1329 C 122.428 1.68175 -3.18191 0
M  V30 1330 C 122.036 0.798589 -4.40825 0
M  V30 1331 C 123.78 2.39065 -3.50782 0
M  V30 1332 C 121.687 1.56157 -5.70411 0
M  V30 1333 H 120.617 0.346317 -0.669762 0
M  V30 1334 H 123.268 0.170801 -1.82703 0
M  V30 1335 H 121.65 2.47216 -3.09354 0
M  V30 1336 H 122.824 0.0470665 -4.60776 0
M  V30 1337 H 121.139 0.200686 -4.15916 0
M  V30 1338 H 123.736 2.96692 -4.44835 0
M  V30 1339 H 124.079 3.13091 -2.74371 0
M  V30 1340 H 124.612 1.66993 -3.61052 0
M  V30 1341 H 121.351 0.864142 -6.49779 0
M  V30 1342 H 120.871 2.2871 -5.54483 0
M  V30 1343 H 122.55 2.11622 -6.11412 0
M  V30 1344 N 122.682 1.50554 0.465978 0
M  V30 1345 C 123.614 1.65949 1.58093 0
M  V30 1346 C 124.627 0.540827 1.53554 0
M  V30 1347 O 125.816 0.814187 1.5885 0
M  V30 1348 C 122.916 1.63261 2.96983 0
M  V30 1349 C 122.089 2.91245 3.26336 0
M  V30 1350 C 121.148 2.8113 4.44806 0
M  V30 1351 O 120.174 3.55086 4.44862 0
M  V30 1352 N 121.376 1.95032 5.46756 0
M  V30 1353 H 124.141 2.62122 1.45301 0
M  V30 1354 H 121.702 1.48082 0.65448 0
M  V30 1355 H 123.694 1.54101 3.74212 0
M  V30 1356 H 122.264 0.748032 3.03518 0
M  V30 1357 H 121.484 3.14493 2.37672 0
M  V30 1358 H 122.772 3.76022 3.42761 0
M  V30 1359 H 122.17 1.3427 5.49534 0
M  V30 1360 H 120.727 1.91772 6.2295 0
M  V30 1361 N 124.16 -0.719506 1.40217 0
M  V30 1362 C 125.576 -1.02707 1.22161 0
M  V30 1363 C 125.776 -2.0128 0.0940557 0
M  V30 1364 O 124.832 -2.46452 -0.549318 0
M  V30 1365 C 126.145 -1.57454 2.56181 0
M  V30 1366 C 127.693 -1.69458 2.63159 0
M  V30 1367 C 128.168 -2.27611 3.97438 0
M  V30 1368 N 129.659 -2.35002 3.99159 0
M  V30 1369 C 130.394 -2.80972 4.99842 0
M  V30 1370 N 129.89 -3.26723 6.10921 0
M  V30 1371 N 131.683 -2.80321 4.87213 0
M  V30 1372 H 123.834 -0.0660492 2.12297 0
M  V30 1373 H 126.097 -0.0919077 0.943534 0
M  V30 1374 H 125.803 -0.924873 3.39321 0
M  V30 1375 H 125.677 -2.56036 2.76993 0
M  V30 1376 H 128.064 -2.33543 1.80393 0
M  V30 1377 H 128.145 -0.694867 2.46181 0
M  V30 1378 H 127.789 -1.6415 4.80643 0
M  V30 1379 H 127.719 -3.2829 4.11744 0
M  V30 1380 H 130.21 -2.02685 3.18947 0
M  V30 1381 H 130.523 -3.60355 6.8364 0
M  V30 1382 H 128.868 -3.24692 6.14492 0
M  V30 1383 H 132.059 -2.43912 3.9953 0
M  V30 1384 H 132.232 -3.15831 5.65822 0
M  V30 1385 N 125.638 -1.25649 -0.95132 0
M  V30 1386 C 126.887 -1.09988 -1.69073 0
M  V30 1387 C 127.2 0.358355 -1.92289 0
M  V30 1388 O 128.406 0.635466 -2.63958 0
M  V30 1389 C 126.862 -1.92012 -3.044 0
M  V30 1390 C 126.47 -3.42347 -2.88968 0
M  V30 1391 C 128.214 -1.8493 -3.82101 0
M  V30 1392 C 126.121 -4.16655 -4.19705 0
M  V30 1393 H 125.051 -0.407993 -0.63408 0
M  V30 1394 H 127.702 -1.49873 -1.05879 0
M  V30 1395 H 126.084 -1.44952 -3.68517 0
M  V30 1396 H 127.258 -3.97104 -2.33762 0
M  V30 1397 H 125.573 -3.50557 -2.24719 0
M  V30 1398 H 128.17 -2.37739 -4.78941 0
M  V30 1399 H 128.513 -0.817883 -4.08187 0
M  V30 1400 H 129.046 -2.29758 -3.2474 0
M  V30 1401 H 125.785 -5.20224 -3.98807 0
M  V30 1402 H 125.305 -3.66681 -4.74663 0
M  V30 1403 H 126.984 -4.24551 -4.88227 0
M  V30 1404 N 127.117 1.15442 -1.07289 0
M  V30 1405 C 128.067 2.18164 -0.662467 0
M  V30 1406 C 129.051 1.57845 0.312074 0
M  V30 1407 O 130.243 1.76552 0.125905 0
M  V30 1408 C 127.372 3.43246 -0.0611295 0
M  V30 1409 C 126.458 4.1062 -1.06077 0
M  V30 1410 N 126.849 4.53491 -2.24008 0
M  V30 1411 C 125.147 4.36949 -0.893964 0
M  V30 1412 C 125.848 5.05731 -2.87422 0
M  V30 1413 N 124.824 4.99236 -2.15091 0
M  V30 1414 H 128.626 2.49038 -1.56068 0
M  V30 1415 H 126.14 1.32003 -0.945988 0
M  V30 1416 H 128.137 4.16145 0.250792 0
M  V30 1417 H 126.797 3.13854 0.832207 0
M  V30 1418 H 127.808 4.46898 -2.6173 0
M  V30 1419 H 124.485 4.17466 -0.0534693 0
M  V30 1420 H 125.875 5.48865 -3.87553 0
M  V30 1421 N 128.595 0.856903 1.32268 0
M  V30 1422 C 129.842 0.461386 1.97174 0
M  V30 1423 C 130.17 -0.983491 1.67803 0
M  V30 1424 O 129.425 -1.70541 0.959903 0
M  V30 1425 C 129.724 0.649919 3.51441 0
M  V30 1426 C 129.39 2.0656 4.00804 0
M  V30 1427 C 128.052 2.45279 4.13995 0
M  V30 1428 C 130.404 2.98947 4.26943 0
M  V30 1429 C 127.732 3.75653 4.50668 0
M  V30 1430 C 130.084 4.28822 4.65075 0
M  V30 1431 C 128.748 4.67472 4.76472 0
M  V30 1432 H 128.018 0.168833 0.72151 0
M  V30 1433 H 130.665 1.08739 1.57633 0
M  V30 1434 H 128.97 -0.0593018 3.91755 0
M  V30 1435 H 130.667 0.32391 3.9969 0
M  V30 1436 H 127.257 1.75495 3.91024 0
M  V30 1437 H 131.441 2.70265 4.16258 0
M  V30 1438 H 126.697 4.05379 4.57688 0
M  V30 1439 H 130.871 5.0047 4.84255 0
M  V30 1440 H 128.498 5.68539 5.04646 0
M  V30 1441 N 130.073 -1.45103 0.615059 0
M  V30 1442 C 131.023 -2.27679 -0.120966 0
M  V30 1443 C 132.007 -1.3775 -0.831491 0
M  V30 1444 O 133.199 -1.61683 -0.720249 0
M  V30 1445 C 130.328 -3.24767 -1.1127 0
M  V30 1446 C 129.414 -4.22184 -0.402627 0
M  V30 1447 N 129.805 -5.02692 0.559884 0
M  V30 1448 C 128.103 -4.4125 -0.649202 0
M  V30 1449 C 128.804 -5.73421 0.977942 0
M  V30 1450 N 127.78 -5.42657 0.320104 0
M  V30 1451 H 131.582 -2.87325 0.618181 0
M  V30 1452 H 129.096 -1.56345 0.439304 0
M  V30 1453 H 131.093 -3.82666 -1.65446 0
M  V30 1454 H 129.753 -2.66682 -1.85232 0
M  V30 1455 H 130.764 -5.09354 0.936976 0
M  V30 1456 H 127.441 -3.9428 -1.37293 0
M  V30 1457 H 128.831 -6.48107 1.77222 0
M  V30 1458 N 131.551 -0.354651 -1.53558 0
M  V30 1459 C 132.828 0.294281 -1.93374 0
M  V30 1460 C 133.208 1.67313 -1.28723 0
M  V30 1461 O 132.556 2.24179 -0.442247 0
M  V30 1462 C 132.766 0.355445 -3.47185 0
M  V30 1463 C 134.114 0.601007 -4.20325 0
M  V30 1464 O 135.138 0.437106 -3.53508 0
M  V30 1465 O 133.997 0.919322 -5.38712 0
M  V30 1466 H 131.091 0.174033 -0.808481 0
M  V30 1467 H 133.637 -0.406638 -1.64756 0
M  V30 1468 H 132.409 -0.611729 -3.86489 0
M  V30 1469 H 132.032 1.1027 -3.82003 0
M  V30 1470 N 133.029 1.57378 -0.0835403 0
M  V30 1471 C 134.254 1.98682 0.594987 0
M  V30 1472 C 134.679 0.961969 1.61641 0
M  V30 1473 O 134.037 -0.0709989 1.81161 0
M  V30 1474 C 134.085 3.38988 1.2296 0
M  V30 1475 O 133.189 3.39208 2.34546 0
M  V30 1476 H 132.53 0.646368 0.152002 0
M  V30 1477 H 135.06 2.03961 -0.161533 0
M  V30 1478 H 135.07 3.76431 1.57366 0
M  V30 1479 H 133.745 4.13107 0.481228 0
M  V30 1480 H 132.322 3.13548 2.01846 0
M  V30 1481 N 134.507 -0.190092 1.56449 0
M  V30 1482 C 135.754 -0.909705 1.80916 0
M  V30 1483 C 136.082 -1.83047 0.657583 0
M  V30 1484 O 135.337 -1.92428 -0.356356 0
M  V30 1485 C 135.636 -1.75382 3.1141 0
M  V30 1486 C 135.302 -0.983606 4.40041 0
M  V30 1487 C 133.964 -0.770967 4.74984 0
M  V30 1488 C 136.316 -0.442024 5.19322 0
M  V30 1489 C 133.644 -0.0053448 5.867 0
M  V30 1490 C 135.996 0.310412 6.31838 0
M  V30 1491 C 134.66 0.534023 6.6536 0
M  V30 1492 H 133.93 -0.332885 0.662019 0
M  V30 1493 H 136.577 -0.175762 1.90692 0
M  V30 1494 H 134.882 -2.55659 2.96893 0
M  V30 1495 H 136.579 -2.31331 3.27547 0
M  V30 1496 H 133.169 -1.15936 4.12622 0
M  V30 1497 H 137.353 -0.593693 4.92736 0
M  V30 1498 H 132.609 0.177825 6.11141 0
M  V30 1499 H 136.783 0.737419 6.92485 0
M  V30 1500 H 134.41 1.12918 7.51767 0
M  V30 1501 N 135.985 -1.50799 -0.457987 0
M  V30 1502 C 136.895 -1.73426 -1.57989 0
M  V30 1503 C 137.911 -0.617745 -1.62665 0
M  V30 1504 O 139.087 -0.897614 -1.80291 0
M  V30 1505 C 136.152 -1.83557 -2.94122 0
M  V30 1506 C 135.213 -3.07345 -2.99729 0
M  V30 1507 C 134.446 -3.16983 -4.29368 0
M  V30 1508 O 134.669 -2.33077 -5.20607 0
M  V30 1509 O 133.603 -4.09812 -4.40837 0
M  V30 1510 H 137.429 -2.68555 -1.41817 0
M  V30 1511 H 135.014 -1.35052 -0.638859 0
M  V30 1512 H 136.896 -1.92326 -3.74952 0
M  V30 1513 H 135.571 -0.916137 -3.10465 0
M  V30 1514 H 134.478 -3.04068 -2.1793 0
M  V30 1515 H 135.811 -3.9891 -2.88326 0
M  V30 1516 N 137.463 0.71206 -1.40597 0
M  V30 1517 C 138.426 1.80785 -1.40888 0
M  V30 1518 C 139.426 1.57937 -0.302103 0
M  V30 1519 O 140.616 1.64913 -0.561182 0
M  V30 1520 C 137.748 3.18927 -1.20409 0
M  V30 1521 H 138.941 1.81924 -2.38419 0
M  V30 1522 H 136.494 0.91805 -1.26497 0
M  V30 1523 H 137.229 3.23436 -0.236522 0
M  V30 1524 H 137.014 3.36911 -2.00582 0
M  V30 1525 H 138.504 3.98949 -1.23408 0
M  V30 1526 N 138.941 1.26152 0.944643 0
M  V30 1527 C 140.169 1.14259 1.72489 0
M  V30 1528 C 140.584 -0.302555 1.8636 0
M  V30 1529 O 139.941 -1.20741 1.36849 0
M  V30 1530 C 139.992 1.80266 3.13347 0
M  V30 1531 O 139.713 3.19133 3.00143 0
M  V30 1532 C 141.214 1.74283 4.07603 0
M  V30 1533 H 138.434 0.398051 0.540181 0
M  V30 1534 H 140.978 1.66706 1.18446 0
M  V30 1535 H 139.133 1.31766 3.64303 0
M  V30 1536 H 139.547 3.51744 3.89071 0
M  V30 1537 H 141.021 2.25111 5.04013 0
M  V30 1538 H 141.498 0.708631 4.33446 0
M  V30 1539 H 142.104 2.22319 3.62567 0
M  V30 1540 N 140.419 -1.14872 1.07899 0
M  V30 1541 C 141.366 -2.19791 0.704319 0
M  V30 1542 C 142.336 -1.63238 -0.306987 0
M  V30 1543 O 143.521 -1.8983 -0.192171 0
M  V30 1544 C 140.661 -3.44911 0.114244 0
M  V30 1545 C 139.774 -4.15637 1.1777 0
M  V30 1546 C 138.909 -5.28324 0.552037 0
M  V30 1547 C 137.948 -5.90875 1.59789 0
M  V30 1548 N 137.085 -6.95022 0.994404 0
M  V30 1549 H 141.925 -2.5119 1.60336 0
M  V30 1550 H 139.462 -1.23356 0.801352 0
M  V30 1551 H 141.42 -4.16477 -0.245544 0
M  V30 1552 H 140.05 -3.14011 -0.74813 0
M  V30 1553 H 139.102 -3.42512 1.65499 0
M  V30 1554 H 140.414 -4.5823 1.97046 0
M  V30 1555 H 139.568 -6.06538 0.1402 0
M  V30 1556 H 138.307 -4.86939 -0.272431 0
M  V30 1557 H 137.312 -5.11369 2.01945 0
M  V30 1558 H 138.537 -6.34337 2.42474 0
M  V30 1559 H 136.483 -6.55722 0.190939 0
M  V30 1560 H 136.4 -7.36073 1.72432 0
M  V30 1561 H 137.668 -7.77123 0.608253 0
M  V30 1562 N 141.898 -0.863906 -1.31812 0
M  V30 1563 C 142.845 -0.313303 -2.28664 0
M  V30 1564 C 143.815 0.584868 -1.55462 0
M  V30 1565 O 145 0.517805 -1.83639 0
M  V30 1566 C 142.14 0.48441 -3.41683 0
M  V30 1567 C 141.253 -0.440594 -4.29747 0
M  V30 1568 C 140.388 0.370652 -5.29905 0
M  V30 1569 C 139.427 -0.551164 -6.09613 0
M  V30 1570 N 138.564 0.223462 -7.01744 0
M  V30 1571 H 143.404 -1.14444 -2.75148 0
M  V30 1572 H 140.941 -0.575769 -1.35364 0
M  V30 1573 H 142.899 0.962627 -4.05943 0
M  V30 1574 H 141.529 1.28029 -2.96325 0
M  V30 1575 H 140.581 -1.03724 -3.65986 0
M  V30 1576 H 141.893 -1.14767 -4.85417 0
M  V30 1577 H 141.047 0.911638 -5.99812 0
M  V30 1578 H 139.786 1.11105 -4.74876 0
M  V30 1579 H 138.791 -1.10396 -5.38603 0
M  V30 1580 H 140.016 -1.29032 -6.66729 0
M  V30 1581 H 137.962 0.946787 -6.49132 0
M  V30 1582 H 137.879 -0.424399 -7.54808 0
M  V30 1583 H 139.147 0.745876 -7.75923 0
M  V30 1584 N 143.376 1.44774 -0.622745 0
M  V30 1585 C 144.339 2.29069 0.0774015 0
M  V30 1586 C 145.339 1.4059 0.780461 0
M  V30 1587 O 146.529 1.62551 0.626322 0
M  V30 1588 C 143.661 3.21974 1.12006 0
M  V30 1589 H 144.854 2.92459 -0.663901 0
M  V30 1590 H 142.407 1.51548 -0.382486 0
M  V30 1591 H 143.142 2.63417 1.89162 0
M  V30 1592 H 142.927 3.87168 0.619951 0
M  V30 1593 H 144.417 3.85318 1.60995 0
M  V30 1594 N 144.854 0.36279 1.53368 0
M  V30 1595 C 146.094 -0.227882 2.03126 0
M  V30 1596 C 146.458 -1.4622 1.24434 0
M  V30 1597 O 147.659 -2.12831 1.64184 0
M  V30 1598 C 145.93 -0.515427 3.53664 0
M  V30 1599 S 147.489 -1.08017 4.25297 0
M  V30 1600 H 144.307 -0.0665377 0.70788 0
M  V30 1601 H 146.909 0.50501 1.88865 0
M  V30 1602 H 145.613 0.390436 4.08539 0
M  V30 1603 H 145.144 -1.27747 3.72081 0
M  V30 1604 H 147.159 -2.36462 4.36234 0
M  V30 1605 N 146.332 -1.57332 0.0918853 0
M  V30 1606 C 147.609 -1.85691 -0.614668 0
M  V30 1607 C 147.989 -0.988146 -1.86545 0
M  V30 1608 O 147.337 -0.0597055 -2.28422 0
M  V30 1609 C 147.547 -3.36294 -0.933126 0
M  V30 1610 C 148.895 -4.04275 -1.29796 0
M  V30 1611 O 149.919 -3.41157 -1.02424 0
M  V30 1612 O 148.778 -5.1564 -1.81047 0
M  V30 1613 H 145.872 -0.767802 -0.307261 0
M  V30 1614 H 148.418 -1.69244 0.12434 0
M  V30 1615 H 147.19 -3.91273 -0.0456404 0
M  V30 1616 H 146.813 -3.58076 -1.72822 0
M  V30 1617 N 147.81 0.181792 -1.56548 0
M  V30 1618 C 148.742 1.24956 -1.92142 0
M  V30 1619 C 149.755 1.41022 -0.813422 0
M  V30 1620 O 150.944 1.41212 -1.09186 0
M  V30 1621 C 148.044 2.61981 -2.14987 0
M  V30 1622 C 147.217 2.6735 -3.46183 0
M  V30 1623 C 146.276 3.85664 -3.5798 0
M  V30 1624 O 145.302 3.72148 -4.30691 0
M  V30 1625 N 146.504 5.01683 -2.92053 0
M  V30 1626 H 149.269 0.947329 -2.84334 0
M  V30 1627 H 146.83 0.371629 -1.57577 0
M  V30 1628 H 148.822 3.3958 -2.20154 0
M  V30 1629 H 147.392 2.84637 -1.2923 0
M  V30 1630 H 146.612 1.75925 -3.52766 0
M  V30 1631 H 147.9 2.67939 -4.32534 0
M  V30 1632 H 147.298 5.15564 -2.32832 0
M  V30 1633 H 145.855 5.77181 -3.0283 0
M  V30 1634 N 149.288 1.51039 0.449983 0
M  V30 1635 C 150.218 1.74379 1.55288 0
M  V30 1636 C 151.199 0.593236 1.5942 0
M  V30 1637 O 152.384 0.834625 1.7535 0
M  V30 1638 C 149.514 1.85728 2.93466 0
M  V30 1639 C 148.468 3.01078 3.04197 0
M  V30 1640 C 147.794 2.97595 4.44231 0
M  V30 1641 C 149.094 4.41254 2.7945 0
M  V30 1642 H 150.788 2.66725 1.36008 0
M  V30 1643 H 148.334 1.2835 0.652864 0
M  V30 1644 H 150.287 2.0064 3.70569 0
M  V30 1645 H 149.011 0.900207 3.13949 0
M  V30 1646 H 147.67 2.85851 2.29531 0
M  V30 1647 H 147.318 1.99691 4.61663 0
M  V30 1648 H 147.018 3.75046 4.52343 0
M  V30 1649 H 148.542 3.14583 5.23326 0
M  V30 1650 H 149.956 4.56897 3.46292 0
M  V30 1651 H 148.353 5.20315 2.98985 0
M  V30 1652 H 149.423 4.52164 1.75144 0
M  V30 1653 N 150.766 -0.704594 1.40972 0
M  V30 1654 C 151.729 -1.80035 1.41845 0
M  V30 1655 C 152.729 -1.57774 0.310474 0
M  V30 1656 O 153.919 -1.64613 0.56992 0
M  V30 1657 C 151.051 -3.18284 1.22098 0
M  V30 1658 H 152.244 -1.80658 2.3938 0
M  V30 1659 H 149.797 -0.911329 1.26982 0
M  V30 1660 H 150.532 -3.23306 0.253672 0
M  V30 1661 H 150.317 -3.35843 2.02366 0
M  V30 1662 H 151.807 -3.98289 1.25522 0
M  V30 1663 N 152.244 -1.26651 -0.937939 0
M  V30 1664 C 153.174 -1.10993 -2.05433 0
M  V30 1665 C 154.155 -0.0142161 -1.70094 0
M  V30 1666 O 155.34 -0.186837 -1.93299 0
M  V30 1667 C 152.47 -0.745561 -3.39203 0
M  V30 1668 C 151.424 -1.79337 -3.88616 0
M  V30 1669 C 150.75 -1.28324 -5.19073 0
M  V30 1670 C 152.05 -3.19553 -4.13138 0
M  V30 1671 H 153.744 -2.0438 -2.1879 0
M  V30 1672 H 151.29 -0.984041 -1.05131 0
M  V30 1673 H 153.243 -0.622888 -4.16771 0
M  V30 1674 H 151.967 0.22401 -3.25831 0
M  V30 1675 H 150.626 -1.90477 -3.13231 0
M  V30 1676 H 150.274 -0.303414 -5.02084 0
M  V30 1677 H 149.974 -1.98369 -5.53103 0
M  V30 1678 H 151.498 -1.1733 -5.99221 0
M  V30 1679 H 152.912 -3.11471 -4.81309 0
M  V30 1680 H 151.309 -3.87218 -4.58457 0
M  V30 1681 H 152.379 -3.65368 -3.18801 0
M  V30 1682 N 153.722 1.14298 -1.08507 0
M  V30 1683 C 154.97 1.84993 -0.813763 0
M  V30 1684 C 155.291 1.83405 0.662393 0
M  V30 1685 O 154.561 1.28319 1.48024 0
M  V30 1686 H 153.141 0.684966 -0.298045 0
M  V30 1687 H 155.803 1.385 -1.37126 0
M  V30 1688 H 154.899 2.89788 -1.15884 0
M  V30 1689 N 155.201 0.870884 1.31352 0
M  V30 1690 C 156.447 0.482987 1.96965 0
M  V30 1691 C 156.78 -0.962462 1.68672 0
M  V30 1692 O 156.055 -1.6779 0.98371 0
M  V30 1693 C 156.338 0.741752 3.52378 0
M  V30 1694 C 156.191 2.2368 3.9024 0
M  V30 1695 C 157.51 0.208838 4.39604 0
M  V30 1696 H 154.629 0.176955 0.715441 0
M  V30 1697 H 157.271 1.09229 1.55464 0
M  V30 1698 H 155.421 0.223149 3.87859 0
M  V30 1699 H 157.093 2.82273 3.64856 0
M  V30 1700 H 155.336 2.70901 3.38814 0
M  V30 1701 H 156.007 2.3685 4.98604 0
M  V30 1702 H 158.483 0.652529 4.10952 0
M  V30 1703 H 157.359 0.419336 5.47296 0
M  V30 1704 H 157.62 -0.889275 4.33064 0
M  V30 1705 N 156.679 -1.44442 0.630414 0
M  V30 1706 C 157.925 -2.02351 0.134816 0
M  V30 1707 C 158.258 -1.4947 -1.23986 0
M  V30 1708 O 157.533 -0.678475 -1.82283 0
M  V30 1709 C 157.816 -3.59898 0.120707 0
M  V30 1710 C 157.669 -4.23063 1.52767 0
M  V30 1711 C 158.988 -4.36585 -0.555127 0
M  V30 1712 H 156.107 -0.73527 0.0504646 0
M  V30 1713 H 158.749 -1.72022 0.806751 0
M  V30 1714 H 156.899 -3.85868 -0.451477 0
M  V30 1715 H 158.571 -4.08202 2.14869 0
M  V30 1716 H 156.814 -3.80586 2.08175 0
M  V30 1717 H 157.485 -5.32071 1.46984 0
M  V30 1718 H 159.961 -4.16044 -0.0685429 0
M  V30 1719 H 158.837 -5.46294 -0.534185 0
M  V30 1720 H 159.098 -4.11138 -1.62535 0
M  V30 1721 N 158.157 -0.370918 -1.53173 0
M  V30 1722 C 159.12 0.460778 -2.24521 0
M  V30 1723 C 160.12 1.00536 -1.25496 0
M  V30 1724 O 161.31 0.890266 -1.49733 0
M  V30 1725 C 158.442 1.64457 -2.98608 0
M  V30 1726 H 159.635 -0.163613 -2.99453 0
M  V30 1727 H 157.188 -0.122699 -1.55818 0
M  V30 1728 H 157.923 2.30691 -2.2793 0
M  V30 1729 H 157.708 1.26099 -3.7127 0
M  V30 1730 H 159.198 2.23384 -3.5283 0
M  V30 1731 N 159.635 1.57281 -0.100228 0
M  V30 1732 C 160.884 1.93713 0.561984 0
M  V30 1733 C 161.197 0.984492 1.69018 0
M  V30 1734 O 162.403 1.24273 2.41389 0
M  V30 1735 C 160.859 3.4421 1.05106 0
M  V30 1736 C 160.467 4.47975 -0.0476628 0
M  V30 1737 C 162.211 3.89595 1.68571 0
M  V30 1738 C 160.118 5.89631 0.457055 0
M  V30 1739 H 159.048 0.723082 0.2137 0
M  V30 1740 H 161.699 1.82644 -0.177057 0
M  V30 1741 H 160.081 3.50449 1.84395 0
M  V30 1742 H 161.255 4.53385 -0.823333 0
M  V30 1743 H 159.57 4.1223 -0.587816 0
M  V30 1744 H 162.167 4.92832 2.07414 0
M  V30 1745 H 162.51 3.28526 2.55688 0
M  V30 1746 H 163.043 3.86078 0.958562 0
M  V30 1747 H 159.782 6.54411 -0.377616 0
M  V30 1748 H 159.302 5.87681 1.19962 0
M  V30 1749 H 160.981 6.40363 0.92437 0
M  V30 1750 N 161.113 -0.173488 1.56642 0
M  V30 1751 C 162.36 -0.890465 1.81871 0
M  V30 1752 C 162.688 -1.82339 0.67696 0
M  V30 1753 O 161.943 -1.92795 -0.335926 0
M  V30 1754 C 162.242 -1.72069 3.13252 0
M  V30 1755 C 161.908 -0.936878 4.41059 0
M  V30 1756 C 160.57 -0.720545 4.75775 0
M  V30 1757 C 162.922 -0.386919 5.19762 0
M  V30 1758 C 160.25 0.0568829 5.86672 0
M  V30 1759 C 162.602 0.37741 6.31473 0
M  V30 1760 C 161.266 0.604563 6.64757 0
M  V30 1761 H 160.536 -0.325844 0.665512 0
M  V30 1762 H 163.183 -0.155527 1.90867 0
M  V30 1763 H 161.488 -2.52496 2.99588 0
M  V30 1764 H 163.185 -2.27844 3.29982 0
M  V30 1765 H 159.775 -1.11553 4.13828 0
M  V30 1766 H 163.959 -0.541398 4.93338 0
M  V30 1767 H 159.215 0.242635 6.10918 0
M  V30 1768 H 163.389 0.810825 6.91664 0
M  V30 1769 H 161.016 1.20885 7.50527 0
M  V30 1770 N 162.591 -1.51276 -0.441967 0
M  V30 1771 C 163.839 -1.63392 -1.18943 0
M  V30 1772 C 164.16 -0.350159 -1.9183 0
M  V30 1773 O 163.43 0.633784 -1.85364 0
M  V30 1774 H 162.01 -0.602164 -0.442049 0
M  V30 1775 H 164.672 -1.88186 -0.507165 0
M  V30 1776 H 163.768 -2.45934 -1.92154 0
M  V30 1777 N 164.069 0.697108 -1.41344 0
M  V30 1778 C 165.48 1.27697 -1.36199 0
M  V30 1779 C 165.831 1.9615 -0.0443463 0
M  V30 1780 O 164.956 1.98689 0.857419 0
M  V30 1781 C 165.551 2.32223 -2.46694 0
M  V30 1782 C 164.11 2.8579 -2.44952 0
M  V30 1783 C 163.257 1.59807 -2.26621 0
M  V30 1784 H 166.208 0.491968 -1.50882 0
M  V30 1785 H 166.229 3.1348 -2.15664 0
M  V30 1786 H 165.741 1.82373 -3.42581 0
M  V30 1787 H 163.842 3.3982 -1.52817 0
M  V30 1788 H 163.955 3.36325 -3.41207 0
M  V30 1789 H 162.319 1.8556 -1.7447 0
M  V30 1790 H 163.102 1.11956 -3.24532 0
M  V30 1791 N 165.547 1.27147 0.931209 0
M  V30 1792 C 166.772 1.16191 1.71797 0
M  V30 1793 C 167.197 -0.278004 1.86034 0
M  V30 1794 O 166.555 -1.20137 1.35782 0
M  V30 1795 C 166.603 1.84673 3.09723 0
M  V30 1796 O 165.707 1.14231 3.96264 0
M  V30 1797 H 165.048 0.404303 0.526721 0
M  V30 1798 H 167.578 1.68152 1.1656 0
M  V30 1799 H 167.588 1.91893 3.60057 0
M  V30 1800 H 166.263 2.89421 2.98677 0
M  V30 1801 H 164.84 1.15056 3.54706 0
M  V30 1802 N 167.025 -1.13721 1.09112 0
M  V30 1803 C 167.957 -2.1871 0.685467 0
M  V30 1804 C 168.97 -1.60527 -0.271068 0
M  V30 1805 O 170.159 -1.78407 -0.0576148 0
M  V30 1806 C 167.259 -3.38898 -0.0111255 0
M  V30 1807 C 166.432 -4.26597 0.966131 0
M  V30 1808 C 165.491 -5.25324 0.303539 0
M  V30 1809 O 164.517 -5.61213 0.950177 0
M  V30 1810 N 165.719 -5.72779 -0.943651 0
M  V30 1811 H 168.484 -2.54126 1.58871 0
M  V30 1812 H 166.045 -1.29012 0.978143 0
M  V30 1813 H 168.037 -4.02014 -0.465517 0
M  V30 1814 H 166.607 -3.01747 -0.816565 0
M  V30 1815 H 165.827 -3.60306 1.59917 0
M  V30 1816 H 167.115 -4.82048 1.6281 0
M  V30 1817 H 166.513 -5.45762 -1.48862 0
M  V30 1818 H 165.07 -6.37847 -1.34142 0
M  V30 1819 N 168.503 -0.877838 -1.30888 0
M  V30 1820 C 169.751 -0.491723 -1.96027 0
M  V30 1821 C 170.072 0.960827 -1.69685 0
M  V30 1822 O 169.342 1.67462 -1.01654 0
M  V30 1823 H 167.922 -0.17885 -0.725273 0
M  V30 1824 H 170.584 -1.11935 -1.59551 0
M  V30 1825 H 169.68 -0.656016 -3.05128 0
M  V30 1826 N 169.982 1.44106 -0.638065 0
M  V30 1827 C 171.207 2.0685 -0.150916 0
M  V30 1828 C 171.632 1.47417 1.16833 0
M  V30 1829 O 170.99 0.578264 1.71831 0
M  V30 1830 C 171.038 3.60555 -0.05708 0
M  V30 1831 O 170.142 4.00465 0.984972 0
M  V30 1832 H 169.483 0.658151 -0.0879399 0
M  V30 1833 H 172.013 1.84865 -0.876707 0
M  V30 1834 H 172.023 4.07789 0.131232 0
M  V30 1835 H 170.698 4.03193 -1.02021 0
M  V30 1836 H 169.275 3.64849 0.770672 0
M  V30 1837 N 171.46 0.379036 1.52974 0
M  V30 1838 C 172.7 -0.206325 2.03356 0
M  V30 1839 C 173.064 -1.44892 1.25977 0
M  V30 1840 O 174.265 -2.11078 1.66432 0
M  V30 1841 C 172.536 -0.477887 3.54191 0
M  V30 1842 S 174.095 -1.035 4.26419 0
M  V30 1843 H 170.913 -0.0590259 0.708546 0
M  V30 1844 H 173.515 0.525013 1.88319 0
M  V30 1845 H 172.219 0.433745 4.08101 0
M  V30 1846 H 171.75 -1.23793 3.73415 0
M  V30 1847 H 173.765 -2.31821 4.38718 0
M  V30 1848 N 172.938 -1.57226 0.108567 0
M  V30 1849 C 174.166 -1.99179 -0.559954 0
M  V30 1850 C 174.581 -0.988022 -1.60884 0
M  V30 1851 O 173.938 0.0205512 -1.82488 0
M  V30 1852 C 173.989 -3.41159 -1.19552 0
M  V30 1853 O 173.71 -4.37694 -0.188577 0
M  V30 1854 C 175.211 -3.98188 -1.94837 0
M  V30 1855 H 172.431 -0.654228 -0.149088 0
M  V30 1856 H 174.975 -2.03598 0.19183 0
M  V30 1857 H 173.13 -3.37711 -1.89815 0
M  V30 1858 H 173.544 -5.20469 -0.649014 0
M  V30 1859 H 175.018 -4.99644 -2.34648 0
M  V30 1860 H 175.495 -3.3675 -2.81951 0
M  V30 1861 H 176.101 -4.0515 -1.2936 0
M  V30 1862 N 174.416 0.165178 -1.56732 0
M  V30 1863 C 175.364 1.22369 -1.97809 0
M  V30 1864 C 176.358 1.45488 -0.867741 0
M  V30 1865 O 177.564 1.45995 -1.05288 0
M  V30 1866 H 173.939 0.411486 -0.629431 0
M  V30 1867 H 175.91 0.850425 -2.86025 0
M  V30 1868 C 174.659 2.55403 -2.35934 0
M  V30 1869 H 173.982 2.38438 -3.20916 0
M  V30 1870 H 175.422 3.2814 -2.68514 0
M  V30 1871 C 173.881 3.14611 -1.20506 0
M  V30 1872 O 174.411 3.98626 -0.496016 0
M  V30 1873 N 172.617 2.7379 -0.97403 0
M  V30 1874 H 172.164 2.0557 -1.55238 0
M  V30 1875 H 172.122 3.1374 -0.203573 0
M  V30 1876 N 175.894 1.51508 0.433938 0
M  V30 1877 C 176.857 1.72473 1.50949 0
M  V30 1878 C 177.857 0.594725 1.49398 0
M  V30 1879 O 179.047 0.862315 1.5136 0
M  V30 1880 C 176.179 1.78431 2.90474 0
M  V30 1881 H 177.372 2.68467 1.33662 0
M  V30 1882 H 174.925 1.41549 0.662836 0
M  V30 1883 H 175.66 0.842645 3.13161 0
M  V30 1884 H 175.445 2.60558 2.93005 0
M  V30 1885 H 176.935 1.96479 3.68491 0
M  V30 1886 N 177.372 -0.689602 1.41712 0
M  V30 1887 C 178.618 -1.45181 1.41599 0
M  V30 1888 C 178.951 -1.94181 0.0270081 0
M  V30 1889 O 178.226 -1.6993 -0.946265 0
M  V30 1890 C 178.509 -2.65945 2.42787 0
M  V30 1891 C 178.362 -2.22672 3.90816 0
M  V30 1892 C 179.681 -3.68149 2.41151 0
M  V30 1893 H 176.8 -0.526576 0.515642 0
M  V30 1894 H 179.442 -0.784947 1.73028 0
M  V30 1895 H 177.592 -3.2284 2.16116 0
M  V30 1896 H 179.264 -1.71058 4.28412 0
M  V30 1897 H 177.507 -1.54394 4.05395 0
M  V30 1898 H 178.178 -3.0935 4.57172 0
M  V30 1899 H 180.654 -3.2094 2.64834 0
M  V30 1900 H 179.53 -4.50248 3.13955 0
M  V30 1901 H 179.791 -4.18259 1.43221 0
M  V30 1902 N 178.85 -1.27639 -0.924453 0
M  V30 1903 C 179.782 -1.06442 -2.02985 0
M  V30 1904 C 180.795 -0.0194771 -1.62788 0
M  V30 1905 O 181.984 -0.261388 -1.76576 0
M  V30 1906 C 179.084 -0.59327 -3.33667 0
M  V30 1907 C 178.257 -1.71123 -4.02537 0
M  V30 1908 C 177.316 -1.23527 -5.11495 0
M  V30 1909 O 176.342 -1.93553 -5.35281 0
M  V30 1910 N 177.544 -0.0926678 -5.80426 0
M  V30 1911 H 180.309 -2.01633 -2.2173 0
M  V30 1912 H 177.87 -1.19248 -1.09505 0
M  V30 1913 H 179.862 -0.258686 -4.03872 0
M  V30 1914 H 178.432 0.265502 -3.1147 0
M  V30 1915 H 177.652 -2.21593 -3.26022 0
M  V30 1916 H 178.94 -2.46145 -4.45298 0
M  V30 1917 H 178.338 0.491741 -5.63559 0
M  V30 1918 H 176.895 0.182714 -6.51544 0
M  V30 1919 N 180.328 1.1314 -1.09713 0
M  V30 1920 C 181.553 1.88862 -0.857081 0
M  V30 1921 C 181.978 1.78729 0.586304 0
M  V30 1922 O 181.336 1.13692 1.41222 0
M  V30 1923 C 181.384 3.36325 -1.30069 0
M  V30 1924 O 180.488 4.09815 -0.461007 0
M  V30 1925 H 179.829 0.587108 -0.310162 0
M  V30 1926 H 182.359 1.43129 -1.46203 0
M  V30 1927 H 182.369 3.87157 -1.28738 0
M  V30 1928 H 181.044 3.43017 -2.35185 0
M  V30 1929 H 179.621 3.68986 -0.538888 0
M  V30 1930 N 181.806 0.884767 1.30421 0
M  V30 1931 C 183.055 0.499164 1.95426 0
M  V30 1932 C 183.368 -0.95645 1.70621 0
M  V30 1933 O 184.574 -1.44889 2.29607 0
M  V30 1934 C 183.03 0.84177 3.49917 0
M  V30 1935 C 182.638 2.31514 3.83543 0
M  V30 1936 C 184.382 0.525355 4.21237 0
M  V30 1937 C 182.289 2.59939 5.31212 0
M  V30 1938 H 181.219 0.182944 0.73147 0
M  V30 1939 H 183.87 1.07971 1.48373 0
M  V30 1940 H 182.252 0.190311 3.95542 0
M  V30 1941 H 183.426 3.0109 3.48829 0
M  V30 1942 H 181.741 2.59907 3.25326 0
M  V30 1943 H 184.338 0.714762 5.29901 0
M  V30 1944 H 184.681 -0.535222 4.12845 0
M  V30 1945 H 185.214 1.134 3.81294 0
M  V30 1946 H 181.953 3.64736 5.44654 0
M  V30 1947 H 181.473 1.94972 5.67227 0
M  V30 1948 H 183.152 2.45429 5.98643 0
M  V30 1949 N 183.284 -1.43765 0.645699 0
M  V30 1950 C 184.524 -2.03776 0.159542 0
M  V30 1951 C 184.888 -1.49792 -1.2011 0
M  V30 1952 O 186.089 -2.01398 -1.78023 0
M  V30 1953 C 184.36 -3.57036 0.161251 0
M  V30 1954 S 185.919 -4.3804 -0.258159 0
M  V30 1955 H 182.737 -0.707717 0.0682454 0
M  V30 1956 H 185.339 -1.75941 0.852352 0
M  V30 1957 H 184.043 -3.9383 1.15439 0
M  V30 1958 H 183.574 -3.89503 -0.552339 0
M  V30 1959 H 185.589 -4.7302 -1.49889 0
M  V30 1960 N 184.763 -0.387143 -1.52771 0
M  V30 1961 C 185.711 0.463953 -2.27926 0
M  V30 1962 C 186.705 1.06493 -1.31741 0
M  V30 1963 O 187.911 1.00565 -1.49287 0
M  V30 1964 H 184.286 0.16837 -0.732909 0
M  V30 1965 H 186.257 -0.19141 -2.97785 0
M  V30 1966 C 185.006 1.5803 -3.09713 0
M  V30 1967 H 184.329 1.12718 -3.83581 0
M  V30 1968 H 185.769 2.15008 -3.65442 0
M  V30 1969 C 184.228 2.53509 -2.2189 0
M  V30 1970 O 184.758 3.56863 -1.84422 0
M  V30 1971 N 182.964 2.23199 -1.86093 0
M  V30 1972 H 182.511 1.39185 -2.16761 0
M  V30 1973 H 182.469 2.87333 -1.27621 0
M  V30 1974 N 186.241 1.57166 -0.116904 0
M  V30 1975 C 187.204 2.14039 0.819742 0
M  V30 1976 C 188.204 1.07477 1.19605 0
M  V30 1977 O 189.394 1.33263 1.1219 0
M  V30 1978 C 186.526 2.67891 2.10826 0
M  V30 1979 H 187.719 2.98128 0.325511 0
M  V30 1980 H 185.272 1.55739 0.132312 0
M  V30 1981 H 186.007 1.87384 2.64685 0
M  V30 1982 H 185.792 3.45823 1.84793 0
M  V30 1983 H 187.282 3.11809 2.77785 0
M  V30 1984 N 187.719 -0.156864 1.56817 0
M  V30 1985 C 188.649 -1.19589 2.00551 0
M  V30 1986 C 189.63 -1.4536 0.883426 0
M  V30 1987 O 190.815 -1.56449 1.15054 0
M  V30 1988 C 187.945 -2.53143 2.37773 0
M  V30 1989 C 186.899 -2.41913 3.53075 0
M  V30 1990 C 186.225 -3.80088 3.76081 0
M  V30 1991 C 187.525 -1.91157 4.86062 0
M  V30 1992 H 189.219 -0.832293 2.87599 0
M  V30 1993 H 186.765 -0.398918 1.38364 0
M  V30 1994 H 188.718 -3.26047 2.66967 0
M  V30 1995 H 187.442 -2.91319 1.4765 0
M  V30 1996 H 186.101 -1.71462 3.24031 0
M  V30 1997 H 185.749 -4.15683 2.83225 0
M  V30 1998 H 185.449 -3.73439 4.53671 0
M  V30 1999 H 186.973 -4.54556 4.0769 0
M  V30 2000 H 188.387 -2.53846 5.14038 0
M  V30 2001 H 186.784 -1.95422 5.67389 0
M  V30 2002 H 187.854 -0.866673 4.77092 0
M  V30 2003 N 189.197 -1.51736 -0.425897 0
M  V30 2004 C 190.107 -1.76738 -1.54275 0
M  V30 2005 C 191.123 -0.65211 -1.61318 0
M  V30 2006 O 192.299 -0.935654 -1.78346 0
M  V30 2007 C 189.364 -1.89755 -2.90162 0
M  V30 2008 C 188.425 -3.13633 -2.93143 0
M  V30 2009 C 187.658 -3.2602 -4.22548 0
M  V30 2010 O 187.881 -2.44067 -5.15546 0
M  V30 2011 O 186.815 -4.19071 -4.32046 0
M  V30 2012 H 190.641 -2.71502 -1.36089 0
M  V30 2013 H 188.226 -1.36376 -0.610069 0
M  V30 2014 H 190.108 -2.00236 -3.70788 0
M  V30 2015 H 188.783 -0.981785 -3.08452 0
M  V30 2016 H 187.69 -3.08622 -2.11431 0
M  V30 2017 H 189.023 -4.04936 -2.798 0
M  V30 2018 N 190.675 0.682077 -1.42076 0
M  V30 2019 C 191.921 1.44428 -1.42367 0
M  V30 2020 C 192.254 1.94164 -0.0373056 0
M  V30 2021 O 191.529 1.70429 0.937239 0
M  V30 2022 C 191.812 2.64654 -2.44194 0
M  V30 2023 C 191.665 2.20596 -3.91991 0
M  V30 2024 C 192.984 3.66865 -2.431 0
M  V30 2025 H 190.103 0.523834 -0.518428 0
M  V30 2026 H 192.745 0.77576 -1.73442 0
M  V30 2027 H 190.895 3.2169 -2.17826 0
M  V30 2028 H 192.567 1.68783 -4.29313 0
M  V30 2029 H 190.81 1.52242 -4.06208 0
M  V30 2030 H 191.481 3.06921 -4.58807 0
M  V30 2031 H 193.957 3.19531 -2.66532 0
M  V30 2032 H 192.833 4.48577 -3.16339 0
M  V30 2033 H 193.094 4.17493 -1.45437 0
M  V30 2034 N 192.153 1.28127 0.917671 0
M  V30 2035 C 193.564 1.13622 1.48145 0
M  V30 2036 C 193.915 -0.275207 1.9426 0
M  V30 2037 O 193.04 -1.1691 1.82102 0
M  V30 2038 C 193.635 2.05648 2.69248 0
M  V30 2039 C 192.194 1.95219 3.21818 0
M  V30 2040 C 191.341 1.97618 1.94532 0
M  V30 2041 H 194.292 1.40874 0.730772 0
M  V30 2042 H 194.313 1.61818 3.44377 0
M  V30 2043 H 193.825 3.08365 2.35653 0
M  V30 2044 H 191.926 0.955244 3.60147 0
M  V30 2045 H 192.039 2.81976 3.87333 0
M  V30 2046 H 190.403 1.41973 2.11461 0
M  V30 2047 H 191.186 3.02007 1.63238 0
M  V30 2048 N 193.631 -1.12557 1.10312 0
M  V30 2049 C 194.581 -2.16331 0.720076 0
M  V30 2050 C 195.565 -1.58616 -0.270115 0
M  V30 2051 O 196.757 -1.76823 -0.0790507 0
M  V30 2052 C 193.886 -3.42963 0.152113 0
M  V30 2053 C 192.972 -4.07663 1.16927 0
M  V30 2054 N 193.363 -4.47392 2.35953 0
M  V30 2055 C 191.661 -4.34425 1.0095 0
M  V30 2056 C 192.362 -4.97932 3.0073 0
M  V30 2057 N 191.338 -4.93358 2.28252 0
M  V30 2058 H 195.14 -2.44813 1.62616 0
M  V30 2059 H 192.654 -1.29449 0.980654 0
M  V30 2060 H 194.651 -4.16664 -0.14037 0
M  V30 2061 H 193.311 -3.1595 -0.748701 0
M  V30 2062 H 194.322 -4.39802 2.73486 0
M  V30 2063 H 190.999 -4.17177 0.164134 0
M  V30 2064 H 192.389 -5.38397 4.01969 0
M  V30 2065 N 195.109 -0.891671 -1.2995 0
M  V30 2066 C 196.358 -0.509521 -1.95158 0
M  V30 2067 C 196.671 0.947388 -1.71125 0
M  V30 2068 O 197.877 1.43669 -2.30372 0
M  V30 2069 C 196.333 -0.860315 -3.49466 0
M  V30 2070 C 195.941 -2.33545 -3.8231 0
M  V30 2071 C 197.685 -0.547687 -4.20952 0
M  V30 2072 C 195.592 -2.62752 -5.29826 0
M  V30 2073 H 194.522 -0.18682 -0.730489 0
M  V30 2074 H 197.173 -1.08756 -1.47798 0
M  V30 2075 H 195.555 -0.211285 -3.95436 0
M  V30 2076 H 196.729 -3.02936 -3.47227 0
M  V30 2077 H 195.044 -2.61629 -3.23944 0
M  V30 2078 H 197.641 -0.742854 -5.29515 0
M  V30 2079 H 197.984 0.51332 -4.13123 0
M  V30 2080 H 198.517 -1.1542 -3.80688 0
M  V30 2081 H 195.256 -3.6762 -5.42712 0
M  V30 2082 H 194.776 -1.97977 -5.66185 0
M  V30 2083 H 196.455 -2.48601 -5.97333 0
M  V30 2084 N 196.587 1.43421 -0.653314 0
M  V30 2085 C 197.519 2.29071 0.0769134 0
M  V30 2086 C 198.532 1.42513 0.787017 0
M  V30 2087 O 199.721 1.66449 0.644757 0
M  V30 2088 C 196.821 3.19436 1.13199 0
M  V30 2089 C 195.994 4.34533 0.500006 0
M  V30 2090 C 195.053 5.05771 1.45198 0
M  V30 2091 O 194.079 5.61037 0.960538 0
M  V30 2092 N 195.281 5.0928 2.78594 0
M  V30 2093 H 198.046 2.92382 -0.658235 0
M  V30 2094 H 195.607 1.54112 -0.496104 0
M  V30 2095 H 197.599 3.63958 1.76964 0
M  V30 2096 H 196.169 2.57724 1.7691 0
M  V30 2097 H 195.389 3.92925 -0.316738 0
M  V30 2098 H 196.677 5.08766 0.0588345 0
M  V30 2099 H 196.075 4.65751 3.2108 0
M  V30 2100 H 194.632 5.57519 3.37662 0
M  V30 2101 N 198.065 0.39524 1.52563 0
M  V30 2102 C 198.995 -0.428384 2.29537 0
M  V30 2103 C 199.976 -1.05831 1.33169 0
M  V30 2104 O 201.161 -1.06995 1.62067 0
M  V30 2105 C 198.291 -1.55274 3.10656 0
M  V30 2106 C 197.245 -1.04855 4.14957 0
M  V30 2107 C 196.571 -2.26543 4.84337 0
M  V30 2108 C 197.871 -0.112324 5.22179 0
M  V30 2109 H 199.565 0.213867 2.98635 0
M  V30 2110 H 197.111 0.104298 1.43622 0
M  V30 2111 H 199.064 -2.1358 3.63265 0
M  V30 2112 H 197.788 -2.22266 2.39302 0
M  V30 2113 H 196.447 -0.487985 3.63338 0
M  V30 2114 H 196.095 -2.92059 4.09525 0
M  V30 2115 H 195.795 -1.93466 5.54837 0
M  V30 2116 H 197.319 -2.85481 5.39753 0
M  V30 2117 H 198.733 -0.603752 5.70112 0
M  V30 2118 H 197.13 0.128968 5.99961 0
M  V30 2119 H 198.2 0.837052 4.77621 0
M  V30 2120 N 199.544 -1.57102 0.125237 0
M  V30 2121 C 200.96 -1.57915 -0.231322 0
M  V30 2122 C 201.16 -1.13833 -1.66266 0
M  V30 2123 O 200.216 -0.828581 -2.38518 0
M  V30 2124 C 201.529 -3.00699 0.00766489 0
M  V30 2125 C 203.077 -3.12947 -0.0577483 0
M  V30 2126 C 203.552 -4.57742 0.153626 0
M  V30 2127 N 205.043 -4.63092 0.0998073 0
M  V30 2128 C 205.778 -5.72905 0.238174 0
M  V30 2129 N 205.274 -6.91445 0.433057 0
M  V30 2130 N 207.067 -5.6182 0.177308 0
M  V30 2131 H 199.218 -1.84055 1.06007 0
M  V30 2132 H 201.481 -0.850905 0.417929 0
M  V30 2133 H 201.187 -3.3726 0.997431 0
M  V30 2134 H 201.061 -3.70236 -0.721452 0
M  V30 2135 H 203.448 -2.7624 -1.03804 0
M  V30 2136 H 203.529 -2.4594 0.70335 0
M  V30 2137 H 203.173 -4.95149 1.13092 0
M  V30 2138 H 203.103 -5.22848 -0.627534 0
M  V30 2139 H 205.594 -3.77871 -0.047051 0
M  V30 2140 H 205.907 -7.70985 0.529332 0
M  V30 2141 H 204.252 -6.93415 0.469109 0
M  V30 2142 H 207.443 -4.68093 0.0259748 0
M  V30 2143 H 207.616 -6.47357 0.288582 0
M  V30 2144 N 201.022 0.148545 -1.56898 0
M  V30 2145 C 202.268 0.857877 -1.84424 0
M  V30 2146 C 202.623 1.7886 -0.709006 0
M  V30 2147 O 201.916 1.89344 0.293139 0
M  V30 2148 C 202.11 1.67064 -3.1595 0
M  V30 2149 C 201.939 0.82011 -4.42159 0
M  V30 2150 C 200.709 0.486328 -5.02954 0
M  V30 2151 C 202.907 0.151155 -5.14078 0
M  V30 2152 N 200.889 -0.377956 -6.12735 0
M  V30 2153 C 202.26 -0.573333 -6.17343 0
M  V30 2154 C 204.315 0.0716685 -4.97848 0
M  V30 2155 C 203.018 -1.3698 -7.06137 0
M  V30 2156 C 205.044 -0.711532 -5.87104 0
M  V30 2157 C 204.406 -1.42431 -6.8985 0
M  V30 2158 H 200.505 0.291798 -0.725519 0
M  V30 2159 H 203.089 0.123347 -1.94309 0
M  V30 2160 H 201.26 2.37642 -3.07215 0
M  V30 2161 H 202.992 2.32302 -3.31388 0
M  V30 2162 H 199.747 0.821753 -4.66416 0
M  V30 2163 H 200.171 -0.801077 -6.72244 0
M  V30 2164 H 204.813 0.608381 -4.184 0
M  V30 2165 H 202.531 -1.91778 -7.85014 0
M  V30 2166 H 206.117 -0.775005 -5.76615 0
M  V30 2167 H 204.997 -2.02061 -7.57721 0
M  V30 2168 N 202.5 1.5196 0.417844 0
M  V30 2169 C 203.447 1.74678 1.50852 0
M  V30 2170 C 204.417 0.588947 1.55308 0
M  V30 2171 O 205.602 0.825544 1.72016 0
M  V30 2172 C 202.742 1.89544 2.88387 0
M  V30 2173 C 201.855 3.17166 2.93309 0
M  V30 2174 C 200.99 3.22513 4.22088 0
M  V30 2175 C 200.029 4.44372 4.20951 0
M  V30 2176 N 199.166 4.47161 5.41287 0
M  V30 2177 H 204.006 2.67768 1.30783 0
M  V30 2178 H 201.543 1.32689 0.63498 0
M  V30 2179 H 203.501 1.96146 3.68216 0
M  V30 2180 H 202.131 0.998424 3.06971 0
M  V30 2181 H 201.183 3.19778 2.06024 0
M  V30 2182 H 202.495 4.07021 2.88332 0
M  V30 2183 H 201.649 3.28139 5.10303 0
M  V30 2184 H 200.388 2.30581 4.29748 0
M  V30 2185 H 199.393 4.38902 3.31127 0
M  V30 2186 H 200.618 5.3759 4.14938 0
M  V30 2187 H 198.564 3.58108 5.49632 0
M  V30 2188 H 198.481 5.3085 5.3827 0
M  V30 2189 H 199.749 4.57005 6.3148 0
M  V30 2190 N 203.978 -0.674533 1.42435 0
M  V30 2191 C 204.928 -1.7807 1.4239 0
M  V30 2192 C 205.912 -1.58169 0.295202 0
M  V30 2193 O 207.104 -1.68643 0.537449 0
M  V30 2194 C 204.233 -3.16532 1.32901 0
M  V30 2195 C 203.319 -3.42055 2.50717 0
M  V30 2196 N 203.71 -3.38162 3.76139 0
M  V30 2197 C 202.008 -3.72692 2.44983 0
M  V30 2198 C 202.709 -3.63177 4.54398 0
M  V30 2199 N 201.685 -3.83954 3.84812 0
M  V30 2200 H 205.487 -1.73454 2.37257 0
M  V30 2201 H 203.001 -0.875381 1.36788 0
M  V30 2202 H 204.998 -3.958 1.30951 0
M  V30 2203 H 203.658 -3.22345 0.390363 0
M  V30 2204 H 204.669 -3.18057 4.0873 0
M  V30 2205 H 201.346 -3.85749 1.59699 0
M  V30 2206 H 202.736 -3.66125 5.63384 0
M  V30 2207 N 205.456 -1.28612 -0.910864 0
M  V30 2208 C 206.406 -1.09423 -2.00026 0
M  V30 2209 C 207.39 -0.0170079 -1.60891 0
M  V30 2210 O 208.582 -0.237472 -1.754 0
M  V30 2211 C 205.711 -0.76114 -3.34756 0
M  V30 2212 C 204.797 -1.87735 -3.80285 0
M  V30 2213 N 205.188 -3.11938 -3.98156 0
M  V30 2214 C 203.486 -1.76786 -4.09467 0
M  V30 2215 C 204.187 -3.84687 -4.36338 0
M  V30 2216 N 203.163 -3.12555 -4.44759 0
M  V30 2217 H 206.965 -2.03658 -2.11898 0
M  V30 2218 H 204.479 -1.19573 -1.09891 0
M  V30 2219 H 206.476 -0.604743 -4.12491 0
M  V30 2220 H 205.136 0.173403 -3.24237 0
M  V30 2221 H 206.147 -3.47516 -3.83996 0
M  V30 2222 H 202.824 -0.905284 -4.07567 0
M  V30 2223 H 204.214 -4.91518 -4.58104 0
M  V30 2224 N 206.934 1.1197 -1.10907 0
M  V30 2225 C 208.345 1.65114 -0.871446 0
M  V30 2226 C 208.696 1.86885 0.597353 0
M  V30 2227 O 207.821 1.59896 1.45816 0
M  V30 2228 C 208.416 2.99944 -1.5754 0
M  V30 2229 C 206.975 3.50018 -1.38435 0
M  V30 2230 C 206.122 2.24941 -1.62164 0
M  V30 2231 H 209.073 0.956851 -1.2661 0
M  V30 2232 H 209.094 3.66651 -1.01721 0
M  V30 2233 H 208.606 2.84067 -2.64438 0
M  V30 2234 H 206.707 3.71071 -0.337214 0
M  V30 2235 H 206.82 4.29165 -2.12965 0
M  V30 2236 H 205.184 2.3229 -1.04467 0
M  V30 2237 H 205.967 2.11612 -2.70324 0
M  V30 2238 N 208.412 0.89855 1.29475 0
M  V30 2239 C 209.342 0.39201 2.30186 0
M  V30 2240 C 210.323 -0.532359 1.61555 0
M  V30 2241 O 211.508 -0.443331 1.89072 0
M  V30 2242 C 208.638 -0.382353 3.45189 0
M  V30 2243 C 207.592 0.451483 4.25612 0
M  V30 2244 C 206.918 -0.450307 5.328 0
M  V30 2245 C 208.218 1.70079 4.93832 0
M  V30 2246 H 209.912 1.23362 2.72804 0
M  V30 2247 H 207.458 0.594638 1.31149 0
M  V30 2248 H 209.411 -0.747451 4.14718 0
M  V30 2249 H 208.135 -1.25774 3.01411 0
M  V30 2250 H 206.794 0.798897 3.57789 0
M  V30 2251 H 206.442 -1.32379 4.85268 0
M  V30 2252 H 206.142 0.103902 5.87508 0
M  V30 2253 H 207.666 -0.811623 6.05182 0
M  V30 2254 H 209.08 1.40549 5.55805 0
M  V30 2255 H 207.477 2.19623 5.58467 0
M  V30 2256 H 208.547 2.43744 4.19186 0
M  V30 2257 N 209.89 -1.43072 0.660911 0
M  V30 2258 C 211.167 -1.95307 0.107017 0
M  V30 2259 C 211.547 -1.60192 -1.37484 0
M  V30 2260 O 210.895 -0.890949 -2.10415 0
M  V30 2261 C 211.105 -3.47124 0.361402 0
M  V30 2262 C 212.453 -4.23738 0.270455 0
M  V30 2263 O 213.477 -3.54981 0.294382 0
M  V30 2264 O 212.336 -5.46131 0.200737 0
M  V30 2265 H 209.43 -0.826984 -0.00517729 0
M  V30 2266 H 211.976 -1.52972 0.734681 0
M  V30 2267 H 210.748 -3.65837 1.38848 0
M  V30 2268 H 210.371 -3.96475 -0.298953 0
M  V30 2269 N 211.368 -0.403325 -1.52352 0
M  V30 2270 C 212.316 0.439752 -2.28405 0
M  V30 2271 C 213.31 1.05089 -1.32863 0
M  V30 2272 O 214.516 0.989759 -1.50345 0
M  V30 2273 H 210.891 0.160587 -0.734653 0
M  V30 2274 H 212.862 -0.222983 -2.97566 0
M  V30 2275 C 211.611 1.54736 -3.11371 0
M  V30 2276 H 210.934 1.08643 -3.84755 0
M  V30 2277 H 212.374 2.1112 -3.67701 0
M  V30 2278 C 210.833 2.51141 -2.24566 0
M  V30 2279 O 211.363 3.54887 -1.88196 0
M  V30 2280 N 209.569 2.21213 -1.8845 0
M  V30 2281 H 209.116 1.36878 -2.18225 0
M  V30 2282 H 209.074 2.85963 -1.30662 0
M  V30 2283 N 212.846 1.57033 -0.133567 0
M  V30 2284 C 213.793 2.16074 0.811208 0
M  V30 2285 C 214.763 1.08979 1.2535 0
M  V30 2286 O 215.948 1.36958 1.32843 0
M  V30 2287 C 213.088 2.77595 2.05024 0
M  V30 2288 C 212.201 3.99042 1.65498 0
M  V30 2289 C 211.336 4.48603 2.84479 0
M  V30 2290 C 210.375 5.62547 2.41262 0
M  V30 2291 N 209.512 6.06787 3.53206 0
M  V30 2292 H 214.352 2.96477 0.300906 0
M  V30 2293 H 211.889 1.46462 0.136822 0
M  V30 2294 H 213.847 3.11402 2.77642 0
M  V30 2295 H 212.477 1.99859 2.53488 0
M  V30 2296 H 211.529 3.71302 0.826981 0
M  V30 2297 H 212.841 4.81629 1.29748 0
M  V30 2298 H 211.995 4.84395 3.65303 0
M  V30 2299 H 210.734 3.64995 3.23465 0
M  V30 2300 H 209.739 5.26345 1.58874 0
M  V30 2301 H 210.964 6.47931 2.03377 0
M  V30 2302 H 208.91 5.26117 3.91838 0
M  V30 2303 H 208.827 6.84266 3.21427 0
M  V30 2304 H 210.095 6.4722 4.34427 0
M  V30 2305 N 214.325 -0.140222 1.56975 0
M  V30 2306 C 215.602 -0.880769 1.74648 0
M  V30 2307 C 215.982 -1.99036 0.703404 0
M  V30 2308 O 215.33 -2.26821 -0.27648 0
M  V30 2309 C 215.54 -1.417 3.18939 0
M  V30 2310 C 216.888 -1.87774 3.80823 0
M  V30 2311 O 217.912 -1.51427 3.2241 0
M  V30 2312 O 216.771 -2.54827 4.83452 0
M  V30 2313 H 213.865 -0.416713 0.714338 0
M  V30 2314 H 216.411 -0.125618 1.69234 0
M  V30 2315 H 215.183 -0.619902 3.86359 0
M  V30 2316 H 214.806 -2.23546 3.28805 0
M  V30 2317 N 215.803 -1.52179 -0.40978 0
M  V30 2318 C 217.031 -1.70054 -1.17853 0
M  V30 2319 C 217.446 -0.409735 -1.843 0
M  V30 2320 O 216.803 0.614183 -1.71855 0
M  V30 2321 C 216.854 -2.83568 -2.24213 0
M  V30 2322 O 216.575 -4.0765 -1.60478 0
M  V30 2323 C 218.076 -3.12947 -3.13973 0
M  V30 2324 H 215.296 -0.569917 -0.354169 0
M  V30 2325 H 217.84 -1.98734 -0.482198 0
M  V30 2326 H 215.995 -2.57409 -2.89516 0
M  V30 2327 H 216.409 -4.70899 -2.30986 0
M  V30 2328 H 217.883 -3.95889 -3.84677 0
M  V30 2329 H 218.36 -2.26472 -3.76307 0
M  V30 2330 H 218.966 -3.40868 -2.5434 0
M  V30 2331 N 217.281 0.66697 -1.42791 0
M  V30 2332 C 218.528 1.42699 -1.43678 0
M  V30 2333 C 218.856 1.94419 -0.0560425 0
M  V30 2334 O 218.111 1.7182 0.936831 0
M  V30 2335 C 218.41 2.6349 -2.4147 0
M  V30 2336 C 218.076 2.30267 -3.8767 0
M  V30 2337 C 216.738 2.20918 -4.27491 0
M  V30 2338 C 219.09 2.03435 -4.79858 0
M  V30 2339 C 216.418 1.82873 -5.57471 0
M  V30 2340 C 218.77 1.66892 -6.10188 0
M  V30 2341 C 217.434 1.56058 -6.49001 0
M  V30 2342 H 216.704 0.522171 -0.525755 0
M  V30 2343 H 219.351 0.759785 -1.75783 0
M  V30 2344 H 217.656 3.35279 -2.0272 0
M  V30 2345 H 219.353 3.21684 -2.39417 0
M  V30 2346 H 215.943 2.38449 -3.56146 0
M  V30 2347 H 220.127 2.09586 -4.49875 0
M  V30 2348 H 215.383 1.7306 -5.86396 0
M  V30 2349 H 219.557 1.45157 -6.81104 0
M  V30 2350 H 217.184 1.26348 -7.49627 0
M  V30 2351 N 218.759 1.29093 0.90403 0
M  V30 2352 C 219.989 1.19516 1.68522 0
M  V30 2353 C 220.397 -0.24738 1.87576 0
M  V30 2354 O 219.74 -1.17798 1.40959 0
M  V30 2355 C 219.802 1.83249 3.0929 0
M  V30 2356 C 219.466 3.32531 3.13484 0
M  V30 2357 C 220.463 4.28821 2.93953 0
M  V30 2358 C 218.148 3.73656 3.35688 0
M  V30 2359 C 220.142 5.64212 2.96553 0
M  V30 2360 C 217.829 5.0917 3.37919 0
M  V30 2361 C 218.827 6.04258 3.18373 0
M  V30 2362 O 218.515 7.37298 3.20385 0
M  V30 2363 H 218.247 0.415467 0.533257 0
M  V30 2364 H 220.801 1.70912 1.13922 0
M  V30 2365 H 219.031 1.26358 3.65473 0
M  V30 2366 H 220.72 1.68054 3.69476 0
M  V30 2367 H 221.486 3.98382 2.76616 0
M  V30 2368 H 217.365 3.00101 3.49943 0
M  V30 2369 H 220.909 6.38407 2.81216 0
M  V30 2370 H 216.806 5.39256 3.54787 0
M  V30 2371 H 217.574 7.46048 3.36681 0
M  V30 2372 N 220.237 -1.11381 1.11499 0
M  V30 2373 C 221.483 -1.83403 0.865512 0
M  V30 2374 C 221.816 -1.84459 -0.607329 0
M  V30 2375 O 221.091 -1.29811 -1.44842 0
M  V30 2376 C 221.374 -3.30552 1.42855 0
M  V30 2377 C 221.227 -3.37886 2.96906 0
M  V30 2378 C 222.546 -4.26643 1.08 0
M  V30 2379 H 219.665 -0.665879 0.31587 0
M  V30 2380 H 222.307 -1.30601 1.37998 0
M  V30 2381 H 220.457 -3.75648 0.990985 0
M  V30 2382 H 222.129 -3.01343 3.49271 0
M  V30 2383 H 220.372 -2.78088 3.32941 0
M  V30 2384 H 221.043 -4.41458 3.31389 0
M  V30 2385 H 223.519 -3.89729 1.45775 0
M  V30 2386 H 222.395 -5.27986 1.50072 0
M  V30 2387 H 222.656 -4.42099 -0.00915037 0
M  V30 2388 N 221.715 -0.905404 -1.28997 0
M  V30 2389 C 222.663 -0.377431 -2.29517 0
M  V30 2390 C 223.657 0.526461 -1.61012 0
M  V30 2391 O 224.863 0.40863 -1.753 0
M  V30 2392 H 221.238 -0.103437 -0.744852 0
M  V30 2393 H 223.209 -1.23848 -2.71485 0
M  V30 2394 C 221.958 0.374833 -3.45674 0
M  V30 2395 H 221.281 -0.311474 -3.98585 0
M  V30 2396 H 222.721 0.70903 -4.1803 0
M  V30 2397 C 221.18 1.57963 -2.97572 0
M  V30 2398 O 221.71 2.67886 -2.99333 0
M  V30 2399 N 219.916 1.42375 -2.53333 0
M  V30 2400 H 219.463 0.529466 -2.521 0
M  V30 2401 H 219.421 2.23117 -2.21509 0
M  V30 2402 N 223.193 1.4272 -0.668489 0
M  V30 2403 C 224.123 2.335 -0.000100175 0
M  V30 2404 C 225.104 1.50328 0.795964 0
M  V30 2405 O 226.289 1.78949 0.754385 0
M  V30 2406 C 223.419 3.33874 0.956302 0
M  V30 2407 C 222.373 4.27152 0.269278 0
M  V30 2408 C 221.699 5.17684 1.33818 0
M  V30 2409 C 222.999 5.15373 -0.847805 0
M  V30 2410 H 224.693 2.89639 -0.758244 0
M  V30 2411 H 222.239 1.39269 -0.366079 0
M  V30 2412 H 224.192 3.9629 1.43292 0
M  V30 2413 H 222.916 2.76025 1.74579 0
M  V30 2414 H 221.575 3.66123 -0.187042 0
M  V30 2415 H 221.223 4.56165 2.1195 0
M  V30 2416 H 220.923 5.80918 0.883659 0
M  V30 2417 H 222.447 5.82974 1.81586 0
M  V30 2418 H 223.861 5.7151 -0.452681 0
M  V30 2419 H 222.258 5.87407 -1.22773 0
M  V30 2420 H 223.328 4.5415 -1.69929 0
M  V30 2421 N 224.671 0.411399 1.52136 0
M  V30 2422 C 225.901 -0.16284 2.05957 0
M  V30 2423 C 226.309 -1.3922 1.28119 0
M  V30 2424 O 225.652 -1.80768 0.326881 0
M  V30 2425 C 225.714 -0.575946 3.54856 0
M  V30 2426 C 225.378 0.542998 4.53763 0
M  V30 2427 C 226.375 1.40726 5.00492 0
M  V30 2428 C 224.06 0.716337 4.97166 0
M  V30 2429 C 226.054 2.4298 5.8927 0
M  V30 2430 C 223.741 1.74218 5.8574 0
M  V30 2431 C 224.739 2.59731 6.31687 0
M  V30 2432 O 224.427 3.60558 7.18507 0
M  V30 2433 H 224.159 -0.0229125 0.675612 0
M  V30 2434 H 226.713 0.581634 1.96993 0
M  V30 2435 H 224.943 -1.37274 3.61515 0
M  V30 2436 H 226.632 -1.07836 3.91313 0
M  V30 2437 H 227.398 1.28476 4.67674 0
M  V30 2438 H 223.277 0.0603857 4.6096 0
M  V30 2439 H 226.821 3.0976 6.25055 0
M  V30 2440 H 222.718 1.86498 6.17971 0
M  V30 2441 H 223.486 3.56829 7.36624 0
M  V30 2442 N 226.149 -1.5696 0.141893 0
M  V30 2443 C 227.56 -1.82797 -0.379776 0
M  V30 2444 C 227.911 -1.06033 -1.6508 0
M  V30 2445 O 227.036 -0.304011 -2.14254 0
M  V30 2446 C 227.631 -3.31578 -0.695802 0
M  V30 2447 C 226.19 -3.58014 -1.16201 0
M  V30 2448 C 225.337 -2.76699 -0.182455 0
M  V30 2449 H 228.288 -1.54406 0.366675 0
M  V30 2450 H 228.309 -3.47454 -1.55099 0
M  V30 2451 H 227.821 -3.87421 0.229449 0
M  V30 2452 H 225.922 -3.07553 -2.10338 0
M  V30 2453 H 226.035 -4.66501 -1.09151 0
M  V30 2454 H 224.399 -2.45618 -0.674072 0
M  V30 2455 H 225.182 -3.35311 0.736297 0
M  V30 2456 N 227.627 0.131896 -1.57047 0
M  V30 2457 C 228.904 0.871495 -1.75112 0
M  V30 2458 C 229.284 1.9866 -0.713949 0
M  V30 2459 O 228.632 2.26965 0.264447 0
M  V30 2460 C 228.842 1.40007 -3.19686 0
M  V30 2461 C 230.19 1.85752 -3.81813 0
M  V30 2462 O 231.214 1.49715 -3.23209 0
M  V30 2463 O 230.073 2.5226 -4.84796 0
M  V30 2464 H 227.167 0.412919 -0.716538 0
M  V30 2465 H 229.713 0.116641 -1.69299 0
M  V30 2466 H 228.485 0.599404 -3.86682 0
M  V30 2467 H 228.108 2.218 -3.29986 0
M  V30 2468 N 229.106 1.52395 0.401703 0
M  V30 2469 C 230.336 1.70429 1.1678 0
M  V30 2470 C 230.744 0.416702 1.84554 0
M  V30 2471 O 230.087 -0.617697 1.73003 0
M  V30 2472 C 230.149 2.78919 2.26814 0
M  V30 2473 C 229.813 4.20437 1.79113 0
M  V30 2474 C 230.81 5.04028 1.27482 0
M  V30 2475 C 228.495 4.66704 1.85722 0
M  V30 2476 C 230.489 6.31961 0.830913 0
M  V30 2477 C 228.176 5.94625 1.40942 0
M  V30 2478 C 229.174 6.77082 0.897128 0
M  V30 2479 O 228.862 8.02607 0.455822 0
M  V30 2480 H 228.594 0.574272 0.356634 0
M  V30 2481 H 231.148 1.99767 0.477724 0
M  V30 2482 H 229.378 2.44973 2.99207 0
M  V30 2483 H 231.067 2.8548 2.88541 0
M  V30 2484 H 231.833 4.69471 1.21744 0
M  V30 2485 H 227.712 4.0262 2.24539 0
M  V30 2486 H 231.256 6.96271 0.430368 0
M  V30 2487 H 227.153 6.28688 1.46362 0
M  V30 2488 H 227.921 8.16453 0.578457 0
M  V30 2489 N 230.584 -0.659388 1.43143 0
M  V30 2490 C 231.547 -1.75432 1.47501 0
M  V30 2491 C 232.547 -1.56707 0.360512 0
M  V30 2492 O 233.737 -1.62717 0.622002 0
M  V30 2493 C 230.869 -3.14239 1.32162 0
M  V30 2494 H 232.062 -1.7295 2.45006 0
M  V30 2495 H 229.615 -0.870469 1.29817 0
M  V30 2496 H 230.35 -3.22336 0.356401 0
M  V30 2497 H 230.135 -3.29235 2.12948 0
M  V30 2498 H 231.625 -3.94094 1.3813 0
M  V30 2499 N 232.062 -1.29571 -0.897171 0
M  V30 2500 C 233.287 -1.20705 -1.68656 0
M  V30 2501 C 233.712 0.228582 -1.86706 0
M  V30 2502 O 233.07 1.16494 -1.3892 0
M  V30 2503 C 233.118 -1.9282 -3.04717 0
M  V30 2504 O 232.222 -1.24697 -3.93096 0
M  V30 2505 H 231.563 -0.418126 -0.515816 0
M  V30 2506 H 234.093 -1.71183 -1.12061 0
M  V30 2507 H 234.103 -2.01372 -3.54843 0
M  V30 2508 H 232.778 -2.97239 -2.90899 0
M  V30 2509 H 231.355 -1.2442 -3.51531 0
M  V30 2510 N 233.54 1.10788 -1.12088 0
M  V30 2511 C 234.47 2.19083 -0.807755 0
M  V30 2512 C 235.451 1.6858 0.226859 0
M  V30 2513 O 236.636 1.93997 0.0888475 0
M  V30 2514 C 233.766 3.46344 -0.257576 0
M  V30 2515 C 232.72 4.101 -1.22483 0
M  V30 2516 C 232.046 5.32016 -0.535052 0
M  V30 2517 C 233.346 4.54236 -2.57811 0
M  V30 2518 H 235.04 2.45534 -1.71328 0
M  V30 2519 H 232.586 1.1801 -0.825205 0
M  V30 2520 H 234.539 4.21392 -0.0262679 0
M  V30 2521 H 233.263 3.19373 0.683278 0
M  V30 2522 H 231.922 3.37054 -1.44189 0
M  V30 2523 H 231.57 5.01319 0.410827 0
M  V30 2524 H 231.27 5.75625 -1.18024 0
M  V30 2525 H 232.794 6.09799 -0.312695 0
M  V30 2526 H 234.208 5.20575 -2.40155 0
M  V30 2527 H 232.605 5.08682 -3.18375 0
M  V30 2528 H 233.675 3.6734 -3.16528 0
M  V30 2529 N 235.018 0.912232 1.28515 0
M  V30 2530 C 236.243 0.559774 1.99703 0
M  V30 2531 C 236.668 -0.851393 1.67729 0
M  V30 2532 O 236.026 -1.56875 0.908834 0
M  V30 2533 C 236.074 0.773874 3.52198 0
M  V30 2534 O 235.178 -0.167842 4.12058 0
M  V30 2535 H 234.519 0.21723 0.627461 0
M  V30 2536 H 237.049 1.22725 1.63706 0
M  V30 2537 H 237.059 0.683386 4.02236 0
M  V30 2538 H 235.734 1.80261 3.74805 0
M  V30 2539 H 234.311 -0.0287509 3.72889 0
M  V30 2540 N 236.496 -1.42363 0.676048 0
M  V30 2541 C 237.446 -2.27987 -0.0242903 0
M  V30 2542 C 238.43 -1.41153 -0.772319 0
M  V30 2543 O 239.622 -1.64592 -0.651025 0
M  V30 2544 C 236.751 -3.29195 -0.973953 0
M  V30 2545 C 235.837 -4.23512 -0.223202 0
M  V30 2546 N 236.228 -4.99865 0.772589 0
M  V30 2547 C 234.526 -4.43606 -0.461469 0
M  V30 2548 C 235.227 -5.68757 1.22027 0
M  V30 2549 N 234.203 -5.40811 0.549975 0
M  V30 2550 H 238.005 -2.84445 0.73949 0
M  V30 2551 H 235.519 -1.54341 0.50522 0
M  V30 2552 H 237.516 -3.89339 -1.49067 0
M  V30 2553 H 236.176 -2.74298 -1.73755 0
M  V30 2554 H 237.187 -5.04921 1.15217 0
M  V30 2555 H 233.864 -3.99749 -1.20446 0
M  V30 2556 H 235.254 -6.40007 2.0455 0
M  V30 2557 N 237.974 -0.419461 -1.51915 0
M  V30 2558 C 238.937 0.389116 -2.25873 0
M  V30 2559 C 239.937 0.964924 -1.28631 0
M  V30 2560 O 241.127 0.842179 -1.52489 0
M  V30 2561 C 238.259 1.54874 -3.03689 0
M  V30 2562 H 239.452 -0.258799 -2.98781 0
M  V30 2563 H 237.005 -0.172209 -1.55348 0
M  V30 2564 H 237.74 2.23323 -2.35154 0
M  V30 2565 H 237.525 1.14223 -3.75094 0
M  V30 2566 H 239.015 2.12046 -3.59759 0
M  V30 2567 N 239.452 1.56882 -0.150215 0
M  V30 2568 C 240.701 1.95403 0.500071 0
M  V30 2569 C 241.014 1.03777 1.658 0
M  V30 2570 O 242.22 1.31889 2.37313 0
M  V30 2571 C 240.676 3.4738 0.941018 0
M  V30 2572 C 240.284 4.47596 -0.190158 0
M  V30 2573 C 242.028 3.9476 1.56091 0
M  V30 2574 C 239.935 5.90787 0.269237 0
M  V30 2575 H 238.865 0.729515 0.190588 0
M  V30 2576 H 241.516 1.81988 -0.235074 0
M  V30 2577 H 239.898 3.56138 1.73152 0
M  V30 2578 H 241.072 4.50536 -0.967157 0
M  V30 2579 H 239.387 4.10151 -0.718666 0
M  V30 2580 H 241.984 4.99181 1.9163 0
M  V30 2581 H 242.327 3.36494 2.45107 0
M  V30 2582 H 242.86 3.88932 0.835249 0
M  V30 2583 H 239.599 6.52879 -0.585621 0
M  V30 2584 H 239.119 5.912 1.01204 0
M  V30 2585 H 240.798 6.42979 0.720176 0
M  V30 2586 N 240.93 -0.123565 1.57115 0
M  V30 2587 C 241.86 -1.15309 2.03042 0
M  V30 2588 C 242.841 -1.43454 0.914061 0
M  V30 2589 O 244.026 -1.53973 1.18347 0
M  V30 2590 C 241.156 -2.48043 2.43089 0
M  V30 2591 C 240.11 -2.3437 3.58127 0
M  V30 2592 C 239.436 -3.72026 3.84059 0
M  V30 2593 C 240.736 -1.80804 4.90007 0
M  V30 2594 H 242.43 -0.771102 2.893 0
M  V30 2595 H 239.976 -0.369479 1.39179 0
M  V30 2596 H 241.929 -3.20311 2.73823 0
M  V30 2597 H 240.653 -2.88122 1.53796 0
M  V30 2598 H 239.312 -1.64551 3.27595 0
M  V30 2599 H 238.96 -4.09582 2.91979 0
M  V30 2600 H 238.66 -3.63732 4.6149 0
M  V30 2601 H 240.184 -4.45806 4.1724 0
M  V30 2602 H 241.598 -2.42886 5.19307 0
M  V30 2603 H 239.995 -1.83343 5.71407 0
M  V30 2604 H 241.065 -0.76528 4.78823 0
M  V30 2605 N 242.408 -1.52605 -0.393616 0
M  V30 2606 C 243.685 -1.58001 -1.15304 0
M  V30 2607 C 244.065 -0.370385 -2.07825 0
M  V30 2608 O 243.413 0.641638 -2.19306 0
M  V30 2609 C 243.623 -2.91652 -1.91677 0
M  V30 2610 C 244.971 -3.4522 -2.47201 0
M  V30 2611 O 245.995 -2.93495 -2.01839 0
M  V30 2612 O 244.854 -4.35579 -3.3005 0
M  V30 2613 H 241.948 -0.637068 -0.527327 0
M  V30 2614 H 244.494 -1.64939 -0.399141 0
M  V30 2615 H 243.266 -3.71136 -1.23992 0
M  V30 2616 H 242.889 -2.88077 -2.74039 0
M  V30 2617 N 243.887 0.651787 -1.4349 0
M  V30 2618 C 244.817 1.77621 -1.51569 0
M  V30 2619 C 245.798 1.66022 -0.370253 0
M  V30 2620 O 246.983 1.85095 -0.587658 0
M  V30 2621 C 244.113 3.16056 -1.43966 0
M  V30 2622 C 243.067 3.4242 -2.56774 0
M  V30 2623 C 242.393 4.8067 -2.34223 0
M  V30 2624 C 243.693 3.37023 -3.99015 0
M  V30 2625 H 245.387 1.71117 -2.45681 0
M  V30 2626 H 242.933 0.821825 -1.18246 0
M  V30 2627 H 244.886 3.94472 -1.48221 0
M  V30 2628 H 243.61 3.23293 -0.463586 0
M  V30 2629 H 242.269 2.66375 -2.51873 0
M  V30 2630 H 241.917 4.84585 -1.34856 0
M  V30 2631 H 241.617 4.9927 -3.09844 0
M  V30 2632 H 243.141 5.61342 -2.40265 0
M  V30 2633 H 244.555 4.05374 -4.05395 0
M  V30 2634 H 242.952 3.67159 -4.74673 0
M  V30 2635 H 244.022 2.3518 -4.2405 0
M  V30 2636 N 245.365 1.30045 0.890287 0
M  V30 2637 C 246.611 1.18737 1.64406 0
M  V30 2638 C 246.944 -0.258525 1.92472 0
M  V30 2639 O 246.219 -1.18562 1.54186 0
M  V30 2640 C 246.502 2.01087 2.98724 0
M  V30 2641 C 246.355 3.53867 2.77665 0
M  V30 2642 C 247.674 1.84457 3.9958 0
M  V30 2643 H 244.793 0.432698 0.596608 0
M  V30 2644 H 247.435 1.5962 1.0306 0
M  V30 2645 H 245.585 1.66349 3.51084 0
M  V30 2646 H 247.257 3.98637 2.32133 0
M  V30 2647 H 245.5 3.78318 2.12269 0
M  V30 2648 H 246.171 4.06772 3.7315 0
M  V30 2649 H 248.647 2.14817 3.56361 0
M  V30 2650 H 247.523 2.44411 4.91482 0
M  V30 2651 H 247.784 0.802276 4.3476 0
M  V30 2652 N 246.843 -1.10192 1.12674 0
M  V30 2653 C 247.775 -2.16418 0.754701 0
M  V30 2654 C 248.788 -1.61309 -0.21986 0
M  V30 2655 O 249.977 -1.785 -0.000826841 0
M  V30 2656 C 247.077 -3.38762 0.096698 0
M  V30 2657 C 246.25 -4.23307 1.10136 0
M  V30 2658 C 245.309 -5.24092 0.470513 0
M  V30 2659 O 244.335 -5.57906 1.12824 0
M  V30 2660 N 245.537 -5.75491 -0.760948 0
M  V30 2661 H 248.302 -2.48943 1.66875 0
M  V30 2662 H 245.863 -1.25834 1.01869 0
M  V30 2663 H 247.855 -4.03291 -0.337384 0
M  V30 2664 H 246.425 -3.04192 -0.720153 0
M  V30 2665 H 245.645 -3.55036 1.71299 0
M  V30 2666 H 246.933 -4.76624 1.78064 0
M  V30 2667 H 246.331 -5.50222 -1.31424 0
M  V30 2668 H 244.888 -6.41792 -1.13781 0
M  V30 2669 N 248.321 -0.919034 -1.28029 0
M  V30 2670 C 249.551 -0.570143 -1.98577 0
M  V30 2671 C 249.959 0.854172 -1.68821 0
M  V30 2672 O 249.302 1.57807 -0.940351 0
M  V30 2673 C 249.364 -0.705734 -3.52505 0
M  V30 2674 C 249.028 -2.10057 -4.05863 0
M  V30 2675 C 250.025 -3.07385 -4.19298 0
M  V30 2676 C 247.71 -2.41517 -4.40426 0
M  V30 2677 C 249.704 -4.34287 -4.66555 0
M  V30 2678 C 247.391 -3.68657 -4.87376 0
M  V30 2679 C 248.389 -4.64856 -5.00398 0
M  V30 2680 O 248.077 -5.89735 -5.46322 0
M  V30 2681 H 247.809 -0.215592 -0.6407 0
M  V30 2682 H 250.363 -1.23583 -1.64062 0
M  V30 2683 H 248.593 0.0170414 -3.86696 0
M  V30 2684 H 250.282 -0.363172 -4.04272 0
M  V30 2685 H 251.048 -2.84398 -3.92865 0
M  V30 2686 H 246.927 -1.67389 -4.29537 0
M  V30 2687 H 250.471 -5.09377 -4.76635 0
M  V30 2688 H 246.368 -3.91466 -5.13249 0
M  V30 2689 H 247.136 -5.92599 -5.64596 0
M  V30 2690 N 249.799 1.42003 -0.683588 0
M  V30 2691 C 250.729 2.33487 -0.024866 0
M  V30 2692 C 251.71 1.51163 0.779975 0
M  V30 2693 O 252.895 1.79739 0.735362 0
M  V30 2694 C 250.025 3.3487 0.920836 0
M  V30 2695 C 248.979 4.27414 0.223958 0
M  V30 2696 C 248.305 5.19074 1.2832 0
M  V30 2697 C 249.605 5.14445 -0.90242 0
M  V30 2698 H 251.299 2.88819 -0.788921 0
M  V30 2699 H 248.845 1.38873 -0.38083 0
M  V30 2700 H 250.798 3.97787 1.39081 0
M  V30 2701 H 249.522 2.77861 1.71642 0
M  V30 2702 H 248.181 3.65904 -0.225864 0
M  V30 2703 H 247.829 4.58387 2.071 0
M  V30 2704 H 247.529 5.81822 0.821995 0
M  V30 2705 H 249.053 5.84867 1.75392 0
M  V30 2706 H 250.467 5.70998 -0.513272 0
M  V30 2707 H 248.864 5.86072 -1.28997 0
M  V30 2708 H 249.934 4.52322 -1.74737 0
M  V30 2709 N 251.277 0.427512 1.51691 0
M  V30 2710 C 252.224 -0.388867 2.275 0
M  V30 2711 C 253.194 -1.02532 1.30677 0
M  V30 2712 O 254.379 -1.0461 1.59566 0
M  V30 2713 C 251.519 -1.48954 3.11298 0
M  V30 2714 C 250.632 -0.872194 4.23104 0
M  V30 2715 C 249.767 -1.94709 4.94228 0
M  V30 2716 C 248.806 -1.30766 5.97969 0
M  V30 2717 N 247.943 -2.32349 6.62539 0
M  V30 2718 H 252.783 0.263997 2.96828 0
M  V30 2719 H 250.32 0.142033 1.46413 0
M  V30 2720 H 252.278 -2.13887 3.58201 0
M  V30 2721 H 250.908 -2.11217 2.44105 0
M  V30 2722 H 249.96 -0.111419 3.80237 0
M  V30 2723 H 251.272 -0.365264 4.97461 0
M  V30 2724 H 250.426 -2.67327 5.44629 0
M  V30 2725 H 249.165 -2.48773 4.1948 0
M  V30 2726 H 248.17 -0.566902 5.4687 0
M  V30 2727 H 249.395 -0.774483 6.74669 0
M  V30 2728 H 247.341 -2.85511 5.90609 0
M  V30 2729 H 247.258 -1.8652 7.3263 0
M  V30 2730 H 248.526 -3.04481 7.17574 0
M  V30 2731 N 252.755 -1.56801 0.158532 0
M  V30 2732 C 254.001 -1.97559 -0.483957 0
M  V30 2733 C 254.356 -1.04239 -1.61716 0
M  V30 2734 O 253.649 -0.079603 -1.91435 0
M  V30 2735 C 253.843 -3.4235 -1.02623 0
M  V30 2736 C 253.672 -4.49669 0.0528929 0
M  V30 2737 C 252.442 -5.02838 0.498234 0
M  V30 2738 C 254.64 -5.0725 0.848616 0
M  V30 2739 N 252.622 -5.93775 1.559 0
M  V30 2740 C 253.993 -5.94506 1.7596 0
M  V30 2741 C 256.048 -4.89788 0.895121 0
M  V30 2742 C 254.751 -6.66169 2.71314 0
M  V30 2743 C 256.777 -5.62161 1.83654 0
M  V30 2744 C 256.139 -6.49134 2.73503 0
M  V30 2745 H 252.238 -0.768332 -0.145566 0
M  V30 2746 H 254.822 -1.93012 0.255799 0
M  V30 2747 H 252.993 -3.47467 -1.73555 0
M  V30 2748 H 254.725 -3.70145 -1.63629 0
M  V30 2749 H 251.48 -4.73498 0.0983222 0
M  V30 2750 H 251.904 -6.43948 2.08949 0
M  V30 2751 H 256.546 -4.22255 0.21453 0
M  V30 2752 H 254.264 -7.32923 3.40367 0
M  V30 2753 H 257.85 -5.5064 1.87847 0
M  V30 2754 H 256.73 -7.04153 3.45163 0
M  V30 2755 N 254.233 0.115231 -1.57178 0
M  V30 2756 C 255.649 0.468877 -1.52557 0
M  V30 2757 C 255.849 1.81649 -0.872125 0
M  V30 2758 O 254.905 2.48347 -0.45606 0
M  V30 2759 C 256.218 0.4499 -2.97315 0
M  V30 2760 C 257.766 0.533185 -3.08425 0
M  V30 2761 C 258.241 0.54456 -4.54751 0
M  V30 2762 N 259.732 0.605892 -4.5922 0
M  V30 2763 C 260.467 0.636203 -5.6986 0
M  V30 2764 N 259.963 0.623931 -6.89985 0
M  V30 2765 N 261.756 0.679496 -5.57978 0
M  V30 2766 H 253.907 -0.767712 -1.9804 0
M  V30 2767 H 256.17 -0.283609 -0.904583 0
M  V30 2768 H 255.876 -0.472721 -3.48509 0
M  V30 2769 H 255.75 1.27632 -3.5495 0
M  V30 2770 H 258.137 1.44623 -2.57232 0
M  V30 2771 H 258.218 -0.320995 -2.53778 0
M  V30 2772 H 257.862 -0.364452 -5.06591 0
M  V30 2773 H 257.792 1.41568 -5.07214 0
M  V30 2774 H 260.283 0.621386 -3.72756 0
M  V30 2775 H 260.596 0.649787 -7.70063 0
M  V30 2776 H 258.941 0.591296 -6.9248 0
M  V30 2777 H 262.132 0.686472 -4.63039 0
M  V30 2778 H 262.305 0.69965 -6.44212 0
M  V30 2779 N 255.711 1.52812 0.385517 0
M  V30 2780 C 256.936 1.72207 1.15583 0
M  V30 2781 C 257.361 0.441034 1.82857 0
M  V30 2782 O 256.719 -0.603465 1.70962 0
M  V30 2783 C 256.767 2.87476 2.17692 0
M  V30 2784 O 255.871 2.54693 3.24354 0
M  V30 2785 H 255.212 0.572526 0.336319 0
M  V30 2786 H 257.742 1.99618 0.448744 0
M  V30 2787 H 257.752 3.13072 2.6163 0
M  V30 2788 H 256.427 3.80408 1.68115 0
M  V30 2789 H 255.004 2.3985 2.85529 0
M  V30 2790 N 257.189 -0.644168 1.43834 0
M  V30 2791 C 258.152 -1.73857 1.49353 0
M  V30 2792 C 259.152 -1.56315 0.377112 0
M  V30 2793 O 260.342 -1.62048 0.639226 0
M  V30 2794 C 257.474 -3.12819 1.35488 0
M  V30 2795 H 258.667 -1.70342 2.46827 0
M  V30 2796 H 256.22 -0.856652 1.30733 0
M  V30 2797 H 256.955 -3.2194 0.390569 0
M  V30 2798 H 256.74 -3.26958 2.16428 0
M  V30 2799 H 258.23 -3.92606 1.42302 0
M  V30 2800 N 258.668 -1.30515 -0.883378 0
M  V30 2801 C 259.896 -1.22359 -1.66841 0
M  V30 2802 C 260.311 0.213296 -1.87591 0
M  V30 2803 O 259.668 1.14075 -1.42454 0
M  V30 2804 C 259.719 -1.95011 -3.04389 0
M  V30 2805 O 259.44 -3.3309 -2.84575 0
M  V30 2806 C 260.941 -1.93532 -3.98824 0
M  V30 2807 H 258.161 -0.423371 -0.520575 0
M  V30 2808 H 260.705 -1.72167 -1.10357 0
M  V30 2809 H 258.86 -1.48997 -3.57601 0
M  V30 2810 H 259.274 -3.69907 -3.71846 0
M  V30 2811 H 260.748 -2.48902 -4.92699 0
M  V30 2812 H 261.225 -0.914627 -4.29571 0
M  V30 2813 H 261.831 -2.39364 -3.51547 0
M  V30 2814 N 260.146 1.09593 -1.13257 0
M  V30 2815 C 261.392 1.82003 -0.89458 0
M  V30 2816 C 261.725 1.85402 0.577906 0
M  V30 2817 O 261 1.32099 1.42759 0
M  V30 2818 C 261.283 3.28237 -1.48096 0
M  V30 2819 C 261.136 3.3312 -3.02244 0
M  V30 2820 C 262.455 4.24871 -1.14774 0
M  V30 2821 H 259.574 0.66077 -0.326424 0
M  V30 2822 H 262.216 1.28389 -1.40058 0
M  V30 2823 H 260.366 3.74024 -1.05062 0
M  V30 2824 H 262.038 2.95748 -3.54021 0
M  V30 2825 H 260.281 2.72756 -3.37323 0
M  V30 2826 H 260.952 4.3613 -3.38371 0
M  V30 2827 H 263.428 3.87361 -1.51957 0
M  V30 2828 H 262.304 5.25532 -1.58452 0
M  V30 2829 H 262.565 4.42058 -0.0611849 0
M  V30 2830 N 261.624 0.925811 1.2754 0
M  V30 2831 C 262.87 0.566092 1.94739 0
M  V30 2832 C 263.203 -0.890057 1.72603 0
M  V30 2833 O 262.478 -1.63467 1.05399 0
M  V30 2834 C 262.761 0.89054 3.48915 0
M  V30 2835 C 262.614 2.4003 3.80402 0
M  V30 2836 C 263.933 0.395101 4.38323 0
M  V30 2837 H 261.052 0.20714 0.707292 0
M  V30 2838 H 263.694 1.15725 1.50691 0
M  V30 2839 H 261.844 0.387452 3.86563 0
M  V30 2840 H 263.516 2.97494 3.52555 0
M  V30 2841 H 261.759 2.85028 3.2702 0
M  V30 2842 H 262.43 2.57785 4.8811 0
M  V30 2843 H 264.906 0.826241 4.07814 0
M  V30 2844 H 263.782 0.651086 5.45025 0
M  V30 2845 H 264.043 -0.704798 4.36446 0
M  V30 2846 N 263.102 -1.41638 0.69111 0
M  V30 2847 C 264.332 -2.0533 0.228758 0
M  V30 2848 C 264.74 -1.52089 -1.12541 0
M  V30 2849 O 264.083 -0.662145 -1.71351 0
M  V30 2850 C 264.145 -3.59349 0.10407 0
M  V30 2851 C 263.809 -4.35362 1.38956 0
M  V30 2852 C 264.806 -4.64942 2.32648 0
M  V30 2853 C 262.491 -4.74714 1.64169 0
M  V30 2854 C 264.485 -5.32828 3.49818 0
M  V30 2855 C 262.172 -5.42338 2.81625 0
M  V30 2856 C 263.17 -5.71322 3.74273 0
M  V30 2857 O 262.858 -6.37554 4.89673 0
M  V30 2858 H 262.59 -0.667796 0.104997 0
M  V30 2859 H 265.144 -1.82477 0.942938 0
M  V30 2860 H 263.374 -3.80924 -0.665839 0
M  V30 2861 H 265.063 -4.04633 -0.320519 0
M  V30 2862 H 265.829 -4.35025 2.14425 0
M  V30 2863 H 261.708 -4.51538 0.929202 0
M  V30 2864 H 265.252 -5.55368 4.22152 0
M  V30 2865 H 261.149 -5.71673 2.99768 0
M  V30 2866 H 261.917 -6.56049 4.8943 0
M  V30 2867 N 264.58 -0.43555 -1.51462 0
M  V30 2868 C 265.857 0.191364 -1.94662 0
M  V30 2869 C 266.237 1.60254 -1.37411 0
M  V30 2870 O 265.585 2.2152 -0.560458 0
M  V30 2871 C 265.795 0.17091 -3.48581 0
M  V30 2872 C 267.143 0.377357 -4.2292 0
M  V30 2873 O 268.167 0.249104 -3.55328 0
M  V30 2874 O 267.026 0.63247 -5.42828 0
M  V30 2875 H 264.12 0.130932 -0.816569 0
M  V30 2876 H 266.666 -0.4934 -1.62369 0
M  V30 2877 H 265.438 -0.815738 -3.82703 0
M  V30 2878 H 265.061 0.898659 -3.87311 0
M  V30 2879 N 266.058 1.56714 -0.166846 0
M  V30 2880 C 267.335 1.88412 0.525373 0
M  V30 2881 C 267.715 1.07602 1.81618 0
M  V30 2882 O 267.063 0.168621 2.27877 0
M  V30 2883 C 267.273 3.40363 0.771613 0
M  V30 2884 C 268.621 4.10007 1.1036 0
M  V30 2885 O 269.645 3.45655 0.860304 0
M  V30 2886 O 268.504 5.2369 1.56239 0
M  V30 2887 H 265.598 0.781587 0.270278 0
M  V30 2888 H 268.144 1.68458 -0.204946 0
M  V30 2889 H 266.916 3.91046 -0.141093 0
M  V30 2890 H 266.539 3.65914 1.55541 0
M  V30 2891 N 267.536 -0.106894 1.57237 0
M  V30 2892 C 268.761 -0.830287 1.90055 0
M  V30 2893 C 269.186 -1.72064 0.75998 0
M  V30 2894 O 268.544 -1.78982 -0.288991 0
M  V30 2895 C 268.592 -1.6295 3.21683 0
M  V30 2896 O 267.696 -2.73748 3.08441 0
M  V30 2897 H 267.037 -0.228855 0.623315 0
M  V30 2898 H 269.567 -0.085658 2.04421 0
M  V30 2899 H 269.577 -2.01621 3.54701 0
M  V30 2900 H 268.252 -0.975989 4.04286 0
M  V30 2901 H 266.829 -2.38192 2.86913 0
M  V30 2902 N 269.014 -1.53014 -0.377408 0
M  V30 2903 C 270.242 -1.72515 -1.14219 0
M  V30 2904 C 270.657 -0.448735 -1.8339 0
M  V30 2905 O 270.014 0.577592 -1.73119 0
M  V30 2906 C 270.065 -2.8826 -2.18148 0
M  V30 2907 O 269.786 -4.10962 -1.51795 0
M  V30 2908 C 271.287 -3.19536 -3.07264 0
M  V30 2909 H 268.507 -0.577301 -0.342001 0
M  V30 2910 H 271.051 -1.99712 -0.439935 0
M  V30 2911 H 269.206 -2.63492 -2.83991 0
M  V30 2912 H 269.62 -4.75693 -2.20945 0
M  V30 2913 H 271.094 -4.03959 -3.76193 0
M  V30 2914 H 271.571 -2.34403 -3.71419 0
M  V30 2915 H 272.177 -3.46186 -2.47053 0
M  V30 2916 N 270.492 0.636531 -1.44174 0
M  V30 2917 C 271.74 1.39343 -1.46383 0
M  V30 2918 C 272.061 1.94766 -0.0955715 0
M  V30 2919 O 271.331 1.75452 0.871395 0
M  V30 2920 H 269.911 0.517199 -0.538994 0
M  V30 2921 H 272.573 0.74957 -1.7991 0
M  V30 2922 H 271.669 2.22746 -2.18611 0
M  V30 2923 N 271.97 1.30982 0.876444 0
M  V30 2924 C 272.9 1.20668 1.99903 0
M  V30 2925 C 273.881 0.095354 1.69833 0
M  V30 2926 O 275.066 0.27885 1.92188 0
M  V30 2927 C 272.196 0.90655 3.3526 0
M  V30 2928 C 271.15 1.97675 3.79617 0
M  V30 2929 C 270.476 1.52943 5.1236 0
M  V30 2930 C 271.776 3.389 3.97422 0
M  V30 2931 H 273.47 2.14586 2.0879 0
M  V30 2932 H 271.016 1.03308 1.00317 0
M  V30 2933 H 272.969 0.821025 4.13324 0
M  V30 2934 H 271.693 -0.0682969 3.26529 0
M  V30 2935 H 270.352 2.05205 3.03787 0
M  V30 2936 H 270 0.54262 5.00065 0
M  V30 2937 H 269.7 2.24532 5.43009 0
M  V30 2938 H 271.224 1.45786 5.92941 0
M  V30 2939 H 272.638 3.34081 4.659 0
M  V30 2940 H 271.035 4.0865 4.3946 0
M  V30 2941 H 272.105 3.80163 3.01006 0
M  V30 2942 N 273.449 -1.08991 1.13837 0
M  V30 2943 C 274.698 -1.80631 0.897509 0
M  V30 2944 C 275.011 -1.86872 -0.57777 0
M  V30 2945 O 276.217 -2.54866 -0.935701 0
M  V30 2946 C 274.673 -3.24517 1.55618 0
M  V30 2947 C 274.281 -3.26529 3.0673 0
M  V30 2948 C 276.025 -4.00882 1.3962 0
M  V30 2949 C 273.932 -4.64965 3.65461 0
M  V30 2950 H 272.862 -0.67691 0.332129 0
M  V30 2951 H 275.513 -1.2246 1.3666 0
M  V30 2952 H 273.895 -3.82778 1.01476 0
M  V30 2953 H 275.069 -2.78008 3.67489 0
M  V30 2954 H 273.384 -2.63656 3.22296 0
M  V30 2955 H 275.981 -5.03167 1.80906 0
M  V30 2956 H 276.324 -4.14896 0.341578 0
M  V30 2957 H 276.857 -3.49075 1.90766 0
M  V30 2958 H 273.596 -4.56153 4.70749 0
M  V30 2959 H 273.116 -5.13792 3.09481 0
M  V30 2960 H 274.795 -5.3394 3.654 0
M  V30 2961 N 274.927 -0.932562 -1.27047 0
M  V30 2962 C 276.343 -0.633544 -1.46487 0
M  V30 2963 C 276.543 0.815746 -1.84249 0
M  V30 2964 O 275.599 1.59319 -1.95892 0
M  V30 2965 C 276.912 -1.58758 -2.55375 0
M  V30 2966 C 278.46 -1.59634 -2.69232 0
M  V30 2967 C 278.935 -2.53747 -3.81283 0
M  V30 2968 N 280.426 -2.51982 -3.88664 0
M  V30 2969 C 281.161 -3.21491 -4.74796 0
M  V30 2970 N 280.657 -4.00395 -5.65381 0
M  V30 2971 N 282.45 -3.10485 -4.68568 0
M  V30 2972 H 274.601 -1.86946 -1.00821 0
M  V30 2973 H 276.864 -0.802897 -0.504044 0
M  V30 2974 H 276.57 -2.62172 -2.34432 0
M  V30 2975 H 276.444 -1.33301 -3.52861 0
M  V30 2976 H 278.831 -0.569488 -2.89553 0
M  V30 2977 H 278.912 -1.89142 -1.72218 0
M  V30 2978 H 278.556 -3.56545 -3.61715 0
M  V30 2979 H 278.486 -2.21532 -4.77735 0
M  V30 2980 H 280.977 -1.94681 -3.23895 0
M  V30 2981 H 281.29 -4.50406 -6.27976 0
M  V30 2982 H 279.635 -4.04498 -5.65161 0
M  V30 2983 H 282.826 -2.48331 -3.96799 0
M  V30 2984 H 282.999 -3.64925 -5.35475 0
M  V30 2985 N 276.405 1.4127 -0.698611 0
M  V30 2986 C 277.335 2.33447 -0.049629 0
M  V30 2987 C 278.316 1.51982 0.763898 0
M  V30 2988 O 279.501 1.80509 0.716257 0
M  V30 2989 C 276.631 3.35828 0.885267 0
M  V30 2990 C 275.585 4.27627 0.178613 0
M  V30 2991 C 274.911 5.20406 1.22807 0
M  V30 2992 C 276.211 5.13459 -0.956933 0
M  V30 2993 H 277.905 2.87966 -0.81951 0
M  V30 2994 H 275.451 1.38461 -0.395538 0
M  V30 2995 H 277.404 3.9924 1.34854 0
M  V30 2996 H 276.128 2.79666 1.68685 0
M  V30 2997 H 274.787 3.65643 -0.26466 0
M  V30 2998 H 274.435 4.60558 2.02226 0
M  V30 2999 H 274.135 5.82661 0.760239 0
M  V30 3000 H 275.659 5.86695 1.69179 0
M  V30 3001 H 277.073 5.70421 -0.573805 0
M  V30 3002 H 275.47 5.8467 -1.35205 0
M  V30 3003 H 276.54 4.50443 -1.79524 0
M  V30 3004 N 277.883 0.443576 1.51229 0
M  V30 3005 C 278.815 -0.400608 2.25672 0
M  V30 3006 C 279.828 -0.980945 1.29928 0
M  V30 3007 O 281.017 -0.874024 1.55638 0
M  V30 3008 C 278.117 -1.57304 3.00181 0
M  V30 3009 C 277.29 -1.11046 4.23069 0
M  V30 3010 C 276.349 -2.15374 4.80105 0
M  V30 3011 O 275.375 -1.74554 5.41774 0
M  V30 3012 N 276.577 -3.47922 4.64683 0
M  V30 3013 H 279.342 0.23745 2.98758 0
M  V30 3014 H 276.903 0.272809 1.59585 0
M  V30 3015 H 278.895 -2.26733 3.35223 0
M  V30 3016 H 277.465 -2.11632 2.30066 0
M  V30 3017 H 276.685 -0.243019 3.9345 0
M  V30 3018 H 277.973 -0.778888 5.02803 0
M  V30 3019 H 277.371 -3.83815 4.15575 0
M  V30 3020 H 275.928 -4.13228 5.0407 0
M  V30 3021 N 279.361 -1.56624 0.175154 0
M  V30 3022 C 280.271 -2.21741 -0.766042 0
M  V30 3023 C 281.287 -1.21023 -1.25018 0
M  V30 3024 O 282.463 -1.53697 -1.3015 0
M  V30 3025 C 279.528 -2.84839 -1.97655 0
M  V30 3026 C 278.589 -4.00769 -1.53892 0
M  V30 3027 C 277.822 -4.60849 -2.69173 0
M  V30 3028 O 278.045 -4.19823 -3.86141 0
M  V30 3029 O 276.979 -5.50655 -2.43028 0
M  V30 3030 H 280.805 -3.02738 -0.241585 0
M  V30 3031 H 278.39 -1.49305 -0.053222 0
M  V30 3032 H 280.272 -3.24834 -2.68442 0
M  V30 3033 H 278.947 -2.06836 -2.48999 0
M  V30 3034 H 277.854 -3.65436 -0.80044 0
M  V30 3035 H 279.187 -4.80376 -1.07236 0
M  V30 3036 N 280.839 0.0985539 -1.57292 0
M  V30 3037 C 281.769 1.12064 -2.04851 0
M  V30 3038 C 282.75 1.41981 -0.936767 0
M  V30 3039 O 283.935 1.52071 -1.20781 0
M  V30 3040 C 281.065 2.44144 -2.47004 0
M  V30 3041 C 280.019 2.28643 -3.6181 0
M  V30 3042 C 279.345 3.65869 -3.89929 0
M  V30 3043 C 280.645 1.72986 -4.92822 0
M  V30 3044 H 282.339 0.724979 -2.9049 0
M  V30 3045 H 279.885 0.34729 -1.39749 0
M  V30 3046 H 281.838 3.15914 -2.78884 0
M  V30 3047 H 280.562 2.85639 -1.5836 0
M  V30 3048 H 279.221 1.59318 -3.30172 0
M  V30 3049 H 278.869 4.04885 -2.98458 0
M  V30 3050 H 278.569 3.56344 -4.67218 0
M  V30 3051 H 280.093 4.39112 -4.2428 0
M  V30 3052 H 281.507 2.34593 -5.23105 0
M  V30 3053 H 279.904 1.74229 -5.74251 0
M  V30 3054 H 280.974 0.689007 -4.7998 0
M  V30 3055 N 282.317 1.53212 0.369288 0
M  V30 3056 C 283.566 1.68436 1.10961 0
M  V30 3057 C 283.879 0.440738 1.9057 0
M  V30 3058 O 285.085 0.473446 2.6734 0
M  V30 3059 C 283.541 2.97744 2.0218 0
M  V30 3060 C 283.149 4.29355 1.279 0
M  V30 3061 C 284.893 3.22334 2.76226 0
M  V30 3062 C 282.8 5.49755 2.17999 0
M  V30 3063 H 281.73 0.627568 0.41794 0
M  V30 3064 H 284.381 1.79713 0.370884 0
M  V30 3065 H 282.763 2.8026 2.79768 0
M  V30 3066 H 283.937 4.57458 0.554007 0
M  V30 3067 H 282.252 4.11179 0.657311 0
M  V30 3068 H 284.849 4.09471 3.43857 0
M  V30 3069 H 285.192 2.38238 3.41392 0
M  V30 3070 H 285.725 3.40475 2.05723 0
M  V30 3071 H 282.464 6.36318 1.57417 0
M  V30 3072 H 281.984 5.25937 2.88359 0
M  V30 3073 H 283.663 5.84401 2.77641 0
M  V30 3074 N 283.795 -0.628877 1.44509 0
M  V30 3075 C 284.728 -1.75367 1.46019 0
M  V30 3076 C 285.706 -1.59444 0.318787 0
M  V30 3077 O 286.89 -1.81297 0.516099 0
M  V30 3078 C 284.017 -3.12965 1.29501 0
M  V30 3079 C 283.063 -3.47532 2.47233 0
M  V30 3080 S 283.896 -3.44758 4.09758 0
M  V30 3081 C 285.052 -4.84973 3.95667 0
M  V30 3082 H 285.285 -1.7382 2.41193 0
M  V30 3083 H 282.818 -0.803686 1.31834 0
M  V30 3084 H 284.776 -3.92367 1.20658 0
M  V30 3085 H 283.437 -3.12049 0.358341 0
M  V30 3086 H 282.63 -4.47664 2.31544 0
M  V30 3087 H 282.232 -2.75598 2.52828 0
M  V30 3088 H 284.524 -5.74255 3.59496 0
M  V30 3089 H 285.467 -5.05716 4.95638 0
M  V30 3090 H 285.875 -4.59653 3.27688 0
M  V30 3091 N 285.273 -1.31445 -0.869486 0
M  V30 3092 C 286.236 -1.19094 -1.9583 0
M  V30 3093 C 287.236 -0.117906 -1.60367 0
M  V30 3094 O 288.426 -0.367208 -1.70286 0
M  V30 3095 C 285.558 -0.828165 -3.30688 0
M  V30 3096 H 286.751 -2.15842 -2.08212 0
M  V30 3097 H 284.304 -1.15063 -1.05784 0
M  V30 3098 H 285.039 0.138142 -3.24006 0
M  V30 3099 H 284.824 -1.6038 -3.578 0
M  V30 3100 H 286.314 -0.765658 -4.10521 0
M  V30 3101 N 286.751 1.08385 -1.14413 0
M  V30 3102 C 288.162 1.62258 -0.923535 0
M  V30 3103 C 288.513 1.88691 0.537595 0
M  V30 3104 O 287.638 1.64454 1.40655 0
M  V30 3105 C 288.233 2.94781 -1.67002 0
M  V30 3106 C 286.792 3.45437 -1.495 0
M  V30 3107 C 285.939 2.19668 -1.69238 0
M  V30 3108 H 288.89 0.916086 -1.2959 0
M  V30 3109 H 288.911 3.63229 -1.13334 0
M  V30 3110 H 288.423 2.7551 -2.73342 0
M  V30 3111 H 286.524 3.6981 -0.455097 0
M  V30 3112 H 286.637 4.22173 -2.2651 0
M  V30 3113 H 285.001 2.28849 -1.11804 0
M  V30 3114 H 285.784 2.02905 -2.7692 0
M  V30 3115 N 288.23 0.939286 1.26551 0
M  V30 3116 C 289.455 0.602008 1.98471 0
M  V30 3117 C 289.88 -0.815624 1.69497 0
M  V30 3118 O 289.238 -1.54912 0.941905 0
M  V30 3119 C 289.286 0.848407 3.50477 0
M  V30 3120 O 288.39 -0.0804009 4.12322 0
M  V30 3121 H 287.731 0.23049 0.622712 0
M  V30 3122 H 290.261 1.2617 1.61066 0
M  V30 3123 H 290.271 0.768553 4.00696 0
M  V30 3124 H 288.946 1.88171 3.70897 0
M  V30 3125 H 287.523 0.0503508 3.72866 0
M  V30 3126 N 289.708 -1.40897 0.706093 0
M  V30 3127 C 291.124 -1.55042 0.37869 0
M  V30 3128 C 291.324 -1.67944 -1.11342 0
M  V30 3129 O 290.38 -1.66372 -1.89938 0
M  V30 3130 C 291.693 -2.78398 1.13643 0
M  V30 3131 C 293.241 -2.92206 1.12181 0
M  V30 3132 C 293.716 -4.18463 1.86152 0
M  V30 3133 N 295.207 -4.25443 1.83173 0
M  V30 3134 C 295.942 -5.2202 2.37239 0
M  V30 3135 N 295.438 -6.24563 2.99821 0
M  V30 3136 N 297.231 -5.14033 2.27435 0
M  V30 3137 H 289.382 -1.30769 1.67372 0
M  V30 3138 H 291.645 -0.631653 0.706907 0
M  V30 3139 H 291.351 -2.7511 2.19106 0
M  V30 3140 H 291.225 -3.70228 0.721853 0
M  V30 3141 H 293.612 -2.95004 0.0754171 0
M  V30 3142 H 293.693 -2.01521 1.57554 0
M  V30 3143 H 293.337 -4.16427 2.90776 0
M  V30 3144 H 293.267 -5.08141 1.38206 0
M  V30 3145 H 295.758 -3.51976 1.37556 0
M  V30 3146 H 296.071 -6.94665 3.38616 0
M  V30 3147 H 294.416 -6.25035 3.03902 0
M  V30 3148 H 297.607 -4.3285 1.78208 0
M  V30 3149 H 297.78 -5.89129 2.69873 0
M  V30 3150 N 291.186 -0.45159 -1.50991 0
M  V30 3151 C 292.416 0.108177 -2.06317 0
M  V30 3152 C 292.824 1.35774 -1.31765 0
M  V30 3153 O 292.167 1.79838 -0.374694 0
M  V30 3154 C 292.229 0.481659 -3.56259 0
M  V30 3155 C 291.893 -0.663114 -4.52163 0
M  V30 3156 C 292.89 -1.53947 -4.96585 0
M  V30 3157 C 290.575 -0.8479 -4.95092 0
M  V30 3158 C 292.569 -2.58518 -5.82621 0
M  V30 3159 C 290.256 -1.89686 -5.80915 0
M  V30 3160 C 291.254 -2.76388 -6.24579 0
M  V30 3161 O 290.942 -3.79482 -7.08695 0
M  V30 3162 H 290.674 0.00499183 -0.675982 0
M  V30 3163 H 293.228 -0.633659 -1.95381 0
M  V30 3164 H 291.458 1.27641 -3.65027 0
M  V30 3165 H 293.147 0.974233 -3.94035 0
M  V30 3166 H 293.913 -1.4083 -4.64103 0
M  V30 3167 H 289.792 -0.18258 -4.60638 0
M  V30 3168 H 293.336 -3.26224 -6.16623 0
M  V30 3169 H 289.233 -2.02817 -6.12809 0
M  V30 3170 H 290.001 -3.76234 -7.26905 0
M  V30 3171 N 292.664 1.56529 -0.183458 0
M  V30 3172 C 293.612 2.19873 0.758845 0
M  V30 3173 C 294.606 1.16638 1.22849 0
M  V30 3174 O 295.812 1.3481 1.19274 0
M  V30 3175 H 292.187 0.7045 0.263029 0
M  V30 3176 H 294.158 2.97724 0.200755 0
M  V30 3177 C 292.907 2.86314 1.9728 0
M  V30 3178 H 292.23 3.65487 1.62047 0
M  V30 3179 H 293.67 3.3409 2.61075 0
M  V30 3180 C 292.129 1.86729 2.80418 0
M  V30 3181 O 292.659 1.36031 3.77966 0
M  V30 3182 N 290.865 1.55216 2.45675 0
M  V30 3183 H 290.412 1.96636 1.66409 0
M  V30 3184 H 290.37 0.888388 3.01588 0
M  V30 3185 N 294.142 -0.090211 1.57342 0
M  V30 3186 C 295.391 -0.791531 1.8552 0
M  V30 3187 C 295.704 -1.79659 0.773441 0
M  V30 3188 O 296.91 -2.54616 0.942497 0
M  V30 3189 C 295.366 -1.45856 3.2902 0
M  V30 3190 C 294.974 -0.493017 4.45279 0
M  V30 3191 C 296.718 -2.14332 3.66418 0
M  V30 3192 C 294.625 -1.16491 5.79814 0
M  V30 3193 H 293.555 -0.299356 0.692027 0
M  V30 3194 H 296.206 -0.0445343 1.83446 0
M  V30 3195 H 294.588 -2.25318 3.2565 0
M  V30 3196 H 295.762 0.270464 4.60006 0
M  V30 3197 H 294.077 0.0863061 4.16311 0
M  V30 3198 H 296.674 -2.65344 4.64216 0
M  V30 3199 H 297.017 -2.93447 2.95287 0
M  V30 3200 H 297.55 -1.41724 3.71698 0
M  V30 3201 H 294.289 -0.41447 6.54188 0
M  V30 3202 H 293.809 -1.8997 5.68921 0
M  V30 3203 H 295.488 -1.69001 6.24538 0
M  V30 3204 N 295.62 -1.53406 -0.361157 0
M  V30 3205 C 297.036 -1.43277 -0.703124 0
M  V30 3206 C 297.236 -0.575384 -1.9311 0
M  V30 3207 O 296.292 -0.0595362 -2.5243 0
M  V30 3208 C 297.605 -2.8653 -0.9122 0
M  V30 3209 C 299.153 -2.96191 -1.01193 0
M  V30 3210 C 299.628 -4.40514 -1.25345 0
M  V30 3211 N 301.119 -4.43962 -1.32105 0
M  V30 3212 C 301.854 -5.52746 -1.5251 0
M  V30 3213 N 301.35 -6.71567 -1.70203 0
M  V30 3214 N 303.143 -5.40331 -1.54916 0
M  V30 3215 H 295.294 -2.07654 0.446475 0
M  V30 3216 H 297.557 -0.937944 0.137715 0
M  V30 3217 H 297.263 -3.51605 -0.0816414 0
M  V30 3218 H 297.137 -3.30441 -1.81903 0
M  V30 3219 H 299.524 -2.31266 -1.83303 0
M  V30 3220 H 299.605 -2.55667 -0.0823929 0
M  V30 3221 H 299.249 -5.06014 -0.437346 0
M  V30 3222 H 299.179 -4.78614 -2.19627 0
M  V30 3223 H 301.67 -3.58332 -1.20028 0
M  V30 3224 H 301.983 -7.50241 -1.85359 0
M  V30 3225 H 300.328 -6.74545 -1.67373 0
M  V30 3226 H 303.519 -4.46465 -1.40663 0
M  V30 3227 H 303.692 -6.25173 -1.70477 0
M  V30 3228 N 297.098 0.621204 -1.44841 0
M  V30 3229 C 298.028 1.74366 -1.55303 0
M  V30 3230 C 299.009 1.65199 -0.405385 0
M  V30 3231 O 300.194 1.83807 -0.626787 0
M  V30 3232 C 297.324 3.12931 -1.50637 0
M  V30 3233 C 296.278 3.36896 -2.63979 0
M  V30 3234 C 295.604 4.75594 -2.44366 0
M  V30 3235 C 296.904 3.28483 -4.06074 0
M  V30 3236 H 298.598 1.65867 -2.49256 0
M  V30 3237 H 296.144 0.796558 -1.19962 0
M  V30 3238 H 298.097 3.9124 -1.56555 0
M  V30 3239 H 296.821 3.22237 -0.532057 0
M  V30 3240 H 295.48 2.60972 -2.57467 0
M  V30 3241 H 295.128 4.81616 -1.45105 0
M  V30 3242 H 294.828 4.92586 -3.20364 0
M  V30 3243 H 296.352 5.5612 -2.52117 0
M  V30 3244 H 297.766 3.96684 -4.13902 0
M  V30 3245 H 296.163 3.57008 -4.82354 0
M  V30 3246 H 297.233 2.26133 -4.28943 0
M  V30 3247 N 298.576 1.31904 0.862503 0
M  V30 3248 C 299.523 1.20182 1.9704 0
M  V30 3249 C 300.493 0.0858247 1.65878 0
M  V30 3250 O 301.678 0.26 1.8902 0
M  V30 3251 C 298.818 0.922797 3.32533 0
M  V30 3252 C 297.931 2.12284 3.76244 0
M  V30 3253 C 297.066 1.77996 5.00491 0
M  V30 3254 C 296.105 2.94366 5.36671 0
M  V30 3255 N 295.242 2.60223 6.52095 0
M  V30 3256 H 300.082 2.14951 2.06398 0
M  V30 3257 H 297.619 1.06917 1.01031 0
M  V30 3258 H 299.577 0.741548 4.10557 0
M  V30 3259 H 298.207 0.0119227 3.22798 0
M  V30 3260 H 297.259 2.41461 2.9394 0
M  V30 3261 H 298.571 2.99357 3.98982 0
M  V30 3262 H 297.725 1.56377 5.862 0
M  V30 3263 H 296.464 0.881252 4.79672 0
M  V30 3264 H 295.469 3.16625 4.49476 0
M  V30 3265 H 296.694 3.84957 5.59451 0
M  V30 3266 H 294.64 1.72884 6.32809 0
M  V30 3267 H 294.557 3.40827 6.74814 0
M  V30 3268 H 295.825 2.42016 7.40978 0
M  V30 3269 N 300.054 -1.07777 1.14986 0
M  V30 3270 C 301.303 -1.79669 0.916617 0
M  V30 3271 C 301.616 -1.87474 -0.557917 0
M  V30 3272 O 302.822 -2.55845 -0.908617 0
M  V30 3273 C 301.278 -3.22848 1.59051 0
M  V30 3274 C 300.886 -3.23257 3.10176 0
M  V30 3275 C 302.63 -3.99379 1.43864 0
M  V30 3276 C 300.537 -4.61063 3.70372 0
M  V30 3277 H 299.467 -0.673349 0.33929 0
M  V30 3278 H 302.118 -1.21003 1.37951 0
M  V30 3279 H 300.5 -3.8168 1.0553 0
M  V30 3280 H 301.674 -2.74095 3.70417 0
M  V30 3281 H 299.989 -2.60222 3.25074 0
M  V30 3282 H 302.586 -5.0122 1.86232 0
M  V30 3283 H 302.929 -4.14511 0.385564 0
M  V30 3284 H 303.462 -3.47032 1.94457 0
M  V30 3285 H 300.201 -4.51135 4.7556 0
M  V30 3286 H 299.721 -5.1048 3.14913 0
M  V30 3287 H 301.4 -5.30034 3.71043 0
M  V30 3288 N 301.532 -0.945985 -1.26051 0
M  V30 3289 C 302.948 -0.649045 -1.45807 0
M  V30 3290 C 303.148 0.796158 -1.85104 0
M  V30 3291 O 302.204 1.57233 -1.97571 0
M  V30 3292 C 303.517 -1.61458 -2.53677 0
M  V30 3293 C 305.065 -1.62481 -2.67524 0
M  V30 3294 C 305.54 -2.57776 -3.7857 0
M  V30 3295 N 307.031 -2.5609 -3.85969 0
M  V30 3296 C 307.766 -3.26508 -4.7136 0
M  V30 3297 N 307.262 -4.0637 -5.61102 0
M  V30 3298 N 309.055 -3.15437 -4.65248 0
M  V30 3299 H 301.206 -1.88005 -0.988328 0
M  V30 3300 H 303.469 -0.808198 -0.4955 0
M  V30 3301 H 303.175 -2.64644 -2.31638 0
M  V30 3302 H 303.049 -1.37036 -3.51427 0
M  V30 3303 H 305.436 -0.600167 -2.88933 0
M  V30 3304 H 305.517 -1.90958 -1.70202 0
M  V30 3305 H 305.161 -3.60361 -3.57913 0
M  V30 3306 H 305.091 -2.26587 -4.75359 0
M  V30 3307 H 307.582 -1.98105 -3.21812 0
M  V30 3308 H 307.895 -4.57042 -6.23164 0
M  V30 3309 H 306.24 -4.10469 -5.60839 0
M  V30 3310 H 309.431 -2.52525 -3.94143 0
M  V30 3311 H 309.604 -3.70584 -5.31575 0
M  V30 3312 N 303.011 1.40521 -0.713556 0
M  V30 3313 C 303.943 2.29191 -0.0203126 0
M  V30 3314 C 304.956 1.45723 0.725864 0
M  V30 3315 O 306.145 1.69033 0.573581 0
M  V30 3316 C 303.245 3.2395 0.995486 0
M  V30 3317 C 302.418 4.36262 0.315256 0
M  V30 3318 C 301.477 5.11474 1.23616 0
M  V30 3319 O 300.503 5.64606 0.721719 0
M  V30 3320 N 301.705 5.20638 2.56743 0
M  V30 3321 H 304.47 2.89327 -0.781652 0
M  V30 3322 H 302.031 1.51869 -0.561022 0
M  V30 3323 H 304.023 3.71137 1.61368 0
M  V30 3324 H 302.593 2.64995 1.6582 0
M  V30 3325 H 301.813 3.91228 -0.483106 0
M  V30 3326 H 303.101 5.08558 -0.157004 0
M  V30 3327 H 302.499 4.7895 3.01037 0
M  V30 3328 H 301.056 5.71339 3.13712 0
M  V30 3329 N 304.489 0.459591 1.5075 0
M  V30 3330 C 305.419 -0.330644 2.31147 0
M  V30 3331 C 306.4 -1.00087 1.37538 0
M  V30 3332 O 307.585 -1.00025 1.66459 0
M  V30 3333 C 304.715 -1.41958 3.16962 0
M  V30 3334 C 303.669 -0.871608 4.19031 0
M  V30 3335 C 302.995 -2.05797 4.9351 0
M  V30 3336 C 304.295 0.109251 5.22186 0
M  V30 3337 H 305.989 0.340336 2.97459 0
M  V30 3338 H 303.535 0.165119 1.4305 0
M  V30 3339 H 305.488 -1.9798 3.71997 0
M  V30 3340 H 304.212 -2.11917 2.48513 0
M  V30 3341 H 302.871 -0.333442 3.6508 0
M  V30 3342 H 302.519 -2.74427 4.21544 0
M  V30 3343 H 302.219 -1.6976 5.62544 0
M  V30 3344 H 303.743 -2.62331 5.51375 0
M  V30 3345 H 305.157 -0.361405 5.7216 0
M  V30 3346 H 303.554 0.383316 5.98875 0
M  V30 3347 H 304.624 1.03887 4.73641 0
M  V30 3348 N 305.967 -1.56429 0.191757 0
M  V30 3349 C 307.378 -1.83912 -0.321428 0
M  V30 3350 C 307.729 -1.11231 -1.61623 0
M  V30 3351 O 306.854 -0.37202 -2.13178 0
M  V30 3352 C 307.449 -3.33624 -0.589961 0
M  V30 3353 C 306.008 -3.6153 -1.04753 0
M  V30 3354 C 305.155 -2.7714 -0.0943327 0
M  V30 3355 H 308.106 -1.53161 0.415612 0
M  V30 3356 H 308.127 -3.52213 -1.43966 0
M  V30 3357 H 307.639 -3.86495 0.352588 0
M  V30 3358 H 305.74 -3.14089 -2.00447 0
M  V30 3359 H 305.853 -4.69737 -0.942549 0
M  V30 3360 H 304.217 -2.47638 -0.595589 0
M  V30 3361 H 305 -3.32799 0.842601 0
M  V30 3362 N 307.445 0.0818655 -1.57387 0
M  V30 3363 C 308.694 0.781681 -1.85937 0
M  V30 3364 C 309.007 1.79246 -0.782957 0
M  V30 3365 O 310.213 2.54112 -0.955987 0
M  V30 3366 C 308.669 1.44109 -3.29789 0
M  V30 3367 C 308.277 0.469396 -4.45534 0
M  V30 3368 C 310.021 2.12386 -3.67549 0
M  V30 3369 C 307.928 1.13415 -5.80423 0
M  V30 3370 H 306.858 0.295682 -0.693605 0
M  V30 3371 H 309.509 0.0348051 -1.83467 0
M  V30 3372 H 307.891 2.23588 -3.2684 0
M  V30 3373 H 309.065 -0.294856 -4.59856 0
M  V30 3374 H 307.38 -0.108383 -4.16259 0
M  V30 3375 H 309.977 2.62878 -4.65617 0
M  V30 3376 H 310.32 2.91877 -2.96839 0
M  V30 3377 H 310.853 1.39751 -3.72444 0
M  V30 3378 H 307.592 0.379771 -6.54399 0
M  V30 3379 H 307.112 1.8695 -5.69921 0
M  V30 3380 H 308.791 1.65686 -6.25426 0
M  V30 3381 N 308.923 1.53595 0.353017 0
M  V30 3382 C 310.2 1.61002 1.11075 0
M  V30 3383 C 310.58 0.425356 2.0677 0
M  V30 3384 O 309.928 -0.583267 2.2093 0
M  V30 3385 C 310.138 2.96631 1.83877 0
M  V30 3386 C 311.486 3.51653 2.37961 0
M  V30 3387 O 312.51 2.98743 1.93987 0
M  V30 3388 O 311.369 4.44177 3.18386 0
M  V30 3389 H 308.463 0.650825 0.510251 0
M  V30 3390 H 311.009 1.6594 0.35527 0
M  V30 3391 H 309.781 3.74293 1.14108 0
M  V30 3392 H 309.404 2.95242 2.66304 0
M  V30 3393 N 310.401 -0.613514 1.45168 0
M  V30 3394 C 311.626 -1.40437 1.52618 0
M  V30 3395 C 312.051 -1.87438 0.157707 0
M  V30 3396 O 311.409 -1.59791 -0.856537 0
M  V30 3397 C 311.457 -2.58894 2.51011 0
M  V30 3398 O 310.561 -3.59326 2.02382 0
M  V30 3399 H 309.902 -0.419506 0.514695 0
M  V30 3400 H 312.432 -0.747215 1.90467 0
M  V30 3401 H 312.442 -3.06214 2.69624 0
M  V30 3402 H 311.117 -2.24032 3.50403 0
M  V30 3403 H 309.694 -3.18695 1.93618 0
M  V30 3404 N 311.879 -1.3236 -0.855495 0
M  V30 3405 C 313.156 -1.13491 -1.59309 0
M  V30 3406 C 313.536 0.30503 -2.08885 0
M  V30 3407 O 312.884 1.30151 -1.87811 0
M  V30 3408 C 313.094 -2.16176 -2.73987 0
M  V30 3409 C 314.442 -2.49463 -3.43589 0
M  V30 3410 O 315.466 -2.14715 -2.84211 0
M  V30 3411 O 314.325 -3.09027 -4.50738 0
M  V30 3412 H 311.419 -0.437887 -0.701559 0
M  V30 3413 H 313.965 -1.43887 -0.899696 0
M  V30 3414 H 312.737 -3.1297 -2.34873 0
M  V30 3415 H 312.36 -1.86769 -3.51003 0
M  V30 3416 N 313.357 1.07166 -1.15556 0
M  V30 3417 C 314.634 1.76546 -0.842069 0
M  V30 3418 C 315.014 2.00453 0.661939 0
M  V30 3419 O 314.362 1.62452 1.60691 0
M  V30 3420 C 314.572 3.07266 -1.65495 0
M  V30 3421 C 315.92 3.81578 -1.86234 0
M  V30 3422 O 316.944 3.17083 -1.62287 0
M  V30 3423 O 315.803 4.97419 -2.26355 0
M  V30 3424 H 312.897 0.766756 -0.309862 0
M  V30 3425 H 315.443 1.13514 -1.26145 0
M  V30 3426 H 314.215 2.85494 -2.67598 0
M  V30 3427 H 313.838 3.7803 -1.23203 0
M  V30 3428 N 314.835 0.952656 1.25548 0
M  V30 3429 C 316.06 0.623025 1.97821 0
M  V30 3430 C 316.485 -0.7976 1.70352 0
M  V30 3431 O 315.843 -1.53905 0.958283 0
M  V30 3432 C 315.891 0.885532 3.49558 0
M  V30 3433 O 314.995 -0.0366641 4.12384 0
M  V30 3434 H 314.336 0.237082 0.620232 0
M  V30 3435 H 316.866 1.27871 1.59719 0
M  V30 3436 H 316.876 0.811009 3.99858 0
M  V30 3437 H 315.551 1.92094 3.6888 0
M  V30 3438 H 314.128 0.0898954 3.72792 0
M  V30 3439 N 316.313 -1.40141 0.720998 0
M  V30 3440 C 317.729 -1.54632 0.395113 0
M  V30 3441 C 317.929 -1.69115 -1.09555 0
M  V30 3442 O 316.985 -1.68377 -1.88163 0
M  V30 3443 C 318.298 -2.77177 1.1659 0
M  V30 3444 C 319.846 -2.91 1.15274 0
M  V30 3445 C 320.321 -4.16465 1.90579 0
M  V30 3446 N 321.812 -4.23476 1.87675 0
M  V30 3447 C 322.547 -5.19475 2.42762 0
M  V30 3448 N 322.043 -6.21348 3.06428 0
M  V30 3449 N 323.836 -5.11592 2.32874 0
M  V30 3450 H 315.987 -1.28986 1.68749 0
M  V30 3451 H 318.25 -0.62412 0.713567 0
M  V30 3452 H 317.956 -2.72771 2.22011 0
M  V30 3453 H 317.83 -3.69442 0.76108 0
M  V30 3454 H 320.217 -2.94907 0.106702 0
M  V30 3455 H 320.298 -1.99838 1.59682 0
M  V30 3456 H 319.942 -4.1332 2.95176 0
M  V30 3457 H 319.872 -5.06646 1.43587 0
M  V30 3458 H 322.363 -3.50497 1.41281 0
M  V30 3459 H 322.676 -6.91034 3.45965 0
M  V30 3460 H 321.021 -6.21777 3.10514 0
M  V30 3461 H 324.212 -4.30936 1.82789 0
M  V30 3462 H 324.385 -5.86233 2.76106 0
M  V30 3463 N 317.792 -0.46758 -1.50504 0
M  V30 3464 C 319.203 -0.0116166 -1.86696 0
M  V30 3465 C 319.554 1.39202 -1.38265 0
M  V30 3466 O 318.679 2.0313 -0.746132 0
M  V30 3467 C 319.274 -0.0143044 -3.38797 0
M  V30 3468 C 317.833 0.386175 -3.74414 0
M  V30 3469 C 316.98 -0.401287 -2.74381 0
M  V30 3470 H 319.931 -0.682022 -1.43297 0
M  V30 3471 H 319.952 0.788641 -3.72237 0
M  V30 3472 H 319.464 -1.03602 -3.74016 0
M  V30 3473 H 317.565 1.41237 -3.44794 0
M  V30 3474 H 317.678 0.0899596 -4.79016 0
M  V30 3475 H 316.042 0.144536 -2.5429 0
M  V30 3476 H 316.825 -1.42244 -3.12444 0
M  V30 3477 N 319.27 1.56325 -0.20005 0
M  V30 3478 C 320.2 2.22318 0.713916 0
M  V30 3479 C 321.181 1.18788 1.21752 0
M  V30 3480 O 322.366 1.47309 1.26545 0
M  V30 3481 C 319.496 2.88639 1.93144 0
M  V30 3482 C 318.45 3.98457 1.56255 0
M  V30 3483 C 317.776 4.51967 2.85709 0
M  V30 3484 C 319.076 5.16612 0.768747 0
M  V30 3485 H 320.77 2.98952 0.163755 0
M  V30 3486 H 318.316 1.43792 0.0773219 0
M  V30 3487 H 320.269 3.33491 2.57608 0
M  V30 3488 H 318.993 2.09419 2.50621 0
M  V30 3489 H 317.652 3.54305 0.941471 0
M  V30 3490 H 317.3 3.69503 3.41287 0
M  V30 3491 H 317 5.26071 2.6177 0
M  V30 3492 H 318.524 4.99523 3.51154 0
M  V30 3493 H 319.938 5.57977 1.3166 0
M  V30 3494 H 318.335 5.96812 0.627286 0
M  V30 3495 H 319.405 4.84358 -0.229168 0
M  V30 3496 N 320.748 -0.0735177 1.57428 0
M  V30 3497 C 321.678 -1.0879 2.06608 0
M  V30 3498 C 322.659 -1.40473 0.959237 0
M  V30 3499 O 323.844 -1.5013 1.23185 0
M  V30 3500 C 320.974 -2.40183 2.50857 0
M  V30 3501 C 319.928 -2.22858 3.65402 0
M  V30 3502 C 319.254 -3.59619 3.957 0
M  V30 3503 C 320.554 -1.65123 4.95511 0
M  V30 3504 H 322.248 -0.678673 2.91607 0
M  V30 3505 H 319.794 -0.325013 1.40284 0
M  V30 3506 H 321.747 -3.11437 2.83874 0
M  V30 3507 H 320.471 -2.83083 1.62885 0
M  V30 3508 H 319.13 -1.54045 3.32664 0
M  V30 3509 H 318.778 -4.00086 3.04861 0
M  V30 3510 H 318.478 -3.48866 4.72828 0
M  V30 3511 H 320.002 -4.32306 4.31212 0
M  V30 3512 H 321.416 -2.26241 5.26771 0
M  V30 3513 H 319.813 -1.65071 5.7695 0
M  V30 3514 H 320.883 -0.612559 4.81015 0
M  V30 3515 N 322.226 -1.5378 -0.344866 0
M  V30 3516 C 323.173 -1.81676 -1.42346 0
M  V30 3517 C 324.143 -0.662376 -1.52321 0
M  V30 3518 O 325.328 -0.906675 -1.67881 0
M  V30 3519 C 322.468 -2.03087 -2.79015 0
M  V30 3520 C 321.581 -3.30799 -2.77842 0
M  V30 3521 C 320.716 -3.42285 -4.0622 0
M  V30 3522 C 319.755 -4.6395 -3.9927 0
M  V30 3523 N 318.892 -4.72477 -5.19336 0
M  V30 3524 H 323.732 -2.73703 -1.17858 0
M  V30 3525 H 321.269 -1.35568 -0.570949 0
M  V30 3526 H 323.227 -2.1349 -3.58438 0
M  V30 3527 H 321.857 -1.14375 -3.01858 0
M  V30 3528 H 320.909 -3.29244 -1.90533 0
M  V30 3529 H 322.221 -4.20314 -2.68584 0
M  V30 3530 H 321.375 -3.52113 -4.94066 0
M  V30 3531 H 320.114 -2.50823 -4.18258 0
M  V30 3532 H 319.119 -4.54201 -3.09809 0
M  V30 3533 H 320.344 -5.56775 -3.88817 0
M  V30 3534 H 318.29 -3.83924 -5.3192 0
M  V30 3535 H 318.207 -5.55927 -5.12329 0
M  V30 3536 H 319.475 -4.86613 -6.08957 0
M  V30 3537 N 323.704 0.605807 -1.45491 0
M  V30 3538 C 324.614 1.74466 -1.56839 0
M  V30 3539 C 325.63 1.68006 -0.452772 0
M  V30 3540 O 326.806 1.8833 -0.713708 0
M  V30 3541 C 323.871 3.10931 -1.53371 0
M  V30 3542 C 322.932 3.28832 -2.75986 0
M  V30 3543 C 322.165 4.58787 -2.72673 0
M  V30 3544 O 322.388 5.4122 -1.80102 0
M  V30 3545 O 321.322 4.79438 -3.63899 0
M  V30 3546 H 325.148 1.67843 -2.53106 0
M  V30 3547 H 322.733 0.770108 -1.28022 0
M  V30 3548 H 324.615 3.92233 -1.54051 0
M  V30 3549 H 323.29 3.18042 -0.602572 0
M  V30 3550 H 322.197 2.47112 -2.80867 0
M  V30 3551 H 323.53 3.26599 -3.68231 0
M  V30 3552 N 325.182 1.32811 0.848464 0
M  V30 3553 C 326.115 1.16601 1.96162 0
M  V30 3554 C 327.093 0.0638855 1.62474 0
M  V30 3555 O 328.277 0.224348 1.8716 0
M  V30 3556 C 325.404 0.786333 3.29446 0
M  V30 3557 C 324.45 1.89459 3.8211 0
M  V30 3558 S 325.283 3.50395 4.04949 0
M  V30 3559 C 326.439 3.14413 5.41198 0
M  V30 3560 H 326.672 2.10832 2.09612 0
M  V30 3561 H 324.205 1.17543 1.00115 0
M  V30 3562 H 326.163 0.574044 4.06466 0
M  V30 3563 H 324.824 -0.137218 3.138 0
M  V30 3564 H 324.017 1.58207 4.78526 0
M  V30 3565 H 323.619 2.06304 3.11953 0
M  V30 3566 H 325.911 2.64642 6.23675 0
M  V30 3567 H 326.854 4.09874 5.77416 0
M  V30 3568 H 327.262 2.51266 5.05495 0
M  V30 3569 N 326.66 -1.06551 1.16123 0
M  V30 3570 C 327.607 -2.13961 0.865414 0
M  V30 3571 C 328.577 -1.65066 -0.185055 0
M  V30 3572 O 329.762 -1.90732 -0.05083 0
M  V30 3573 C 326.902 -3.43113 0.369776 0
M  V30 3574 C 326.015 -4.05756 1.48276 0
M  V30 3575 C 325.15 -5.22773 0.942414 0
M  V30 3576 C 324.189 -5.77395 2.03179 0
M  V30 3577 N 323.326 -6.85731 1.50721 0
M  V30 3578 H 328.166 -2.38605 1.78527 0
M  V30 3579 H 325.703 -1.17072 0.890646 0
M  V30 3580 H 327.661 -4.17151 0.0640643 0
M  V30 3581 H 326.291 -3.18695 -0.513143 0
M  V30 3582 H 325.343 -3.29292 1.9045 0
M  V30 3583 H 326.655 -4.42351 2.30493 0
M  V30 3584 H 325.809 -6.03827 0.589729 0
M  V30 3585 H 324.548 -4.87618 0.0895191 0
M  V30 3586 H 323.553 -4.94981 2.3932 0
M  V30 3587 H 324.778 -6.14603 2.8886 0
M  V30 3588 H 322.724 -6.52499 0.676811 0
M  V30 3589 H 322.641 -7.21254 2.26557 0
M  V30 3590 H 323.909 -7.7047 1.18303 0
M  V30 3591 N 328.138 -0.959301 -1.25041 0
M  V30 3592 C 329.554 -0.664474 -1.4511 0
M  V30 3593 C 329.754 0.776481 -1.85938 0
M  V30 3594 O 328.81 1.55128 -1.99227 0
M  V30 3595 C 330.123 -1.64139 -2.5195 0
M  V30 3596 C 331.671 -1.65309 -2.65786 0
M  V30 3597 C 332.146 -2.61777 -3.75815 0
M  V30 3598 N 333.637 -2.60169 -3.83231 0
M  V30 3599 C 334.372 -3.31489 -4.6787 0
M  V30 3600 N 333.868 -4.12298 -5.56761 0
M  V30 3601 N 335.661 -3.20354 -4.61876 0
M  V30 3602 H 327.812 -1.89043 -0.968332 0
M  V30 3603 H 330.075 -0.813408 -0.4869 0
M  V30 3604 H 329.781 -2.67086 -2.28819 0
M  V30 3605 H 329.655 -1.40756 -3.49954 0
M  V30 3606 H 332.042 -0.630778 -2.8828 0
M  V30 3607 H 332.123 -1.92753 -1.68167 0
M  V30 3608 H 331.767 -3.64137 -3.54071 0
M  V30 3609 H 331.697 -2.31616 -4.72929 0
M  V30 3610 H 334.188 -2.01507 -3.19692 0
M  V30 3611 H 334.501 -4.63625 -6.18281 0
M  V30 3612 H 332.846 -4.16395 -5.56454 0
M  V30 3613 H 336.037 -2.56692 -3.91442 0
M  V30 3614 H 336.21 -3.76201 -5.27614 0
M  V30 3615 N 329.616 1.39756 -0.72842 0
M  V30 3616 C 330.864 2.00248 -0.272946 0
M  V30 3617 C 331.185 1.58077 1.14178 0
M  V30 3618 O 330.455 0.826014 1.77634 0
M  V30 3619 H 329.035 0.740554 -0.0979247 0
M  V30 3620 H 331.697 1.70903 -0.936912 0
M  V30 3621 H 330.793 3.10495 -0.316142 0
M  V30 3622 N 331.094 0.475555 1.50254 0
M  V30 3623 C 332.51 0.12997 1.5907 0
M  V30 3624 C 332.71 -1.36385 1.48328 0
M  V30 3625 O 331.766 -2.13754 1.34407 0
M  V30 3626 C 333.079 0.684139 2.92814 0
M  V30 3627 C 334.627 0.647965 3.0622 0
M  V30 3628 C 335.102 1.17975 4.42545 0
M  V30 3629 N 336.593 1.13936 4.48969 0
M  V30 3630 C 337.328 1.52129 5.52851 0
M  V30 3631 N 336.824 1.97793 6.63965 0
M  V30 3632 N 338.617 1.43704 5.4342 0
M  V30 3633 H 330.768 1.44706 1.55479 0
M  V30 3634 H 333.031 0.598691 0.735033 0
M  V30 3635 H 332.737 1.73079 3.06164 0
M  V30 3636 H 332.611 0.130204 3.76975 0
M  V30 3637 H 334.998 -0.38979 2.92514 0
M  V30 3638 H 335.079 1.23876 2.23805 0
M  V30 3639 H 334.723 2.21616 4.57 0
M  V30 3640 H 334.653 0.565138 5.23559 0
M  V30 3641 H 337.144 0.804488 3.69238 0
M  V30 3642 H 337.457 2.25072 7.39299 0
M  V30 3643 H 335.802 2.01749 6.65073 0
M  V30 3644 H 338.993 1.07867 4.55502 0
M  V30 3645 H 339.166 1.73794 6.24259 0
M  V30 3646 N 332.573 -1.56217 0.208337 0
M  V30 3647 C 333.483 -2.23316 -0.718836 0
M  V30 3648 C 334.499 -1.23648 -1.22422 0
M  V30 3649 O 335.675 -1.56423 -1.26861 0
M  V30 3650 C 332.74 -2.88968 -1.91568 0
M  V30 3651 C 331.801 -4.03943 -1.45357 0
M  V30 3652 C 331.034 -4.66455 -2.59337 0
M  V30 3653 O 331.257 -4.27919 -3.77149 0
M  V30 3654 O 330.191 -5.55686 -2.31293 0
M  V30 3655 H 334.017 -3.03182 -0.177315 0
M  V30 3656 H 331.602 -1.49384 -0.0215402 0
M  V30 3657 H 333.484 -3.30455 -2.61491 0
M  V30 3658 H 332.159 -2.12071 -2.44556 0
M  V30 3659 H 331.066 -3.67052 -0.722746 0
M  V30 3660 H 332.399 -4.82543 -0.970219 0
M  V30 3661 N 334.051 0.0651679 -1.57465 0
M  V30 3662 C 335.298 0.763063 -1.87573 0
M  V30 3663 C 335.626 1.77242 -0.800961 0
M  V30 3664 O 334.881 1.94651 0.202316 0
M  V30 3665 C 335.18 1.50081 -3.24362 0
M  V30 3666 C 334.846 0.630816 -4.46466 0
M  V30 3667 C 333.508 0.391082 -4.79608 0
M  V30 3668 C 335.86 0.0279465 -5.21193 0
M  V30 3669 C 333.188 -0.460894 -5.84887 0
M  V30 3670 C 335.54 -0.811522 -6.27373 0
M  V30 3671 C 334.204 -1.06106 -6.59013 0
M  V30 3672 H 333.474 0.279224 -0.686378 0
M  V30 3673 H 336.121 0.0236726 -1.91485 0
M  V30 3674 H 334.426 2.31258 -3.16271 0
M  V30 3675 H 336.123 2.04571 -3.44894 0
M  V30 3676 H 332.713 0.8278 -4.2053 0
M  V30 3677 H 336.897 0.200262 -4.95896 0
M  V30 3678 H 332.153 -0.662907 -6.07796 0
M  V30 3679 H 336.327 -1.28537 -6.84435 0
M  V30 3680 H 333.954 -1.723 -7.40417 0
M  V30 3681 N 335.529 1.53961 0.336706 0
M  V30 3682 C 336.945 1.44378 0.680241 0
M  V30 3683 C 337.145 0.606034 1.9217 0
M  V30 3684 O 336.201 0.099688 2.52303 0
M  V30 3685 C 337.514 2.87945 0.8665 0
M  V30 3686 C 339.062 2.97763 0.964682 0
M  V30 3687 C 339.537 4.42453 1.18321 0
M  V30 3688 N 341.028 4.46008 1.25025 0
M  V30 3689 C 341.763 5.55102 1.43697 0
M  V30 3690 N 341.259 6.7419 1.59498 0
M  V30 3691 N 343.052 5.42727 1.463 0
M  V30 3692 H 335.203 2.06918 -0.479455 0
M  V30 3693 H 337.466 0.935634 -0.152619 0
M  V30 3694 H 337.172 3.51691 0.0256937 0
M  V30 3695 H 337.046 3.33293 1.76623 0
M  V30 3696 H 339.433 2.34153 1.796 0
M  V30 3697 H 339.514 2.55766 0.041708 0
M  V30 3698 H 339.158 5.06645 0.356788 0
M  V30 3699 H 339.088 4.82048 2.11985 0
M  V30 3700 H 341.579 3.60196 1.14312 0
M  V30 3701 H 341.892 7.53095 1.734 0
M  V30 3702 H 340.237 6.77123 1.56621 0
M  V30 3703 H 343.428 4.48647 1.33543 0
M  V30 3704 H 343.601 6.27806 1.6051 0
M  V30 3705 N 337.007 -0.598083 1.45811 0
M  V30 3706 C 338.256 -1.35295 1.49594 0
M  V30 3707 C 338.569 -1.95057 0.145679 0
M  V30 3708 O 339.775 -2.71431 0.0612099 0
M  V30 3709 C 338.231 -2.45124 2.63519 0
M  V30 3710 C 337.839 -1.91732 4.04899 0
M  V30 3711 C 339.583 -3.2205 2.76558 0
M  V30 3712 C 337.49 -2.991 5.1019 0
M  V30 3713 H 336.42 -0.508552 0.556679 0
M  V30 3714 H 339.071 -0.639977 1.71978 0
M  V30 3715 H 337.453 -3.19149 2.34435 0
M  V30 3716 H 338.627 -1.24352 4.43704 0
M  V30 3717 H 336.942 -1.27522 3.96393 0
M  V30 3718 H 339.539 -4.0215 3.52391 0
M  V30 3719 H 339.882 -3.73663 1.83526 0
M  V30 3720 H 340.415 -2.55127 3.05213 0
M  V30 3721 H 337.154 -2.52393 6.04961 0
M  V30 3722 H 336.674 -3.65017 4.75944 0
M  V30 3723 H 338.353 -3.63318 5.35359 0
M  V30 3724 N 338.485 -1.33259 -0.841409 0
M  V30 3725 C 339.734 -1.23921 -1.59143 0
M  V30 3726 C 340.047 0.1941 -1.94635 0
M  V30 3727 O 341.253 0.409474 -2.68394 0
M  V30 3728 C 339.709 -2.17119 -2.87032 0
M  V30 3729 C 339.317 -3.65606 -2.58914 0
M  V30 3730 C 341.061 -2.16648 -3.65053 0
M  V30 3731 C 338.968 -4.50726 -3.82884 0
M  V30 3732 H 337.898 -0.460264 -0.597221 0
M  V30 3733 H 340.549 -1.58307 -0.927959 0
M  V30 3734 H 338.931 -1.75663 -3.54906 0
M  V30 3735 H 340.105 -4.15487 -1.99267 0
M  V30 3736 H 338.42 -3.68341 -1.942 0
M  V30 3737 H 341.017 -2.77474 -4.57069 0
M  V30 3738 H 341.36 -1.16088 -3.99787 0
M  V30 3739 H 341.893 -2.56453 -3.041 0
M  V30 3740 H 338.632 -5.52151 -3.53283 0
M  V30 3741 H 338.152 -4.0559 -4.41879 0
M  V30 3742 H 339.831 -4.64401 -4.50489 0
M  V30 3743 N 339.963 1.05934 -1.16686 0
M  V30 3744 C 341.21 1.788 -0.950622 0
M  V30 3745 C 341.538 1.87384 0.521305 0
M  V30 3746 O 340.793 1.36438 1.40297 0
M  V30 3747 C 341.092 3.23105 -1.52767 0
M  V30 3748 C 340.758 3.34594 -3.02254 0
M  V30 3749 C 339.42 3.37437 -3.43059 0
M  V30 3750 C 341.772 3.36219 -3.98254 0
M  V30 3751 C 339.1 3.39525 -4.78477 0
M  V30 3752 C 341.452 3.39845 -5.33562 0
M  V30 3753 C 340.116 3.40971 -5.73842 0
M  V30 3754 H 339.386 0.654275 -0.347857 0
M  V30 3755 H 342.033 1.24555 -1.45459 0
M  V30 3756 H 340.338 3.80227 -0.94524 0
M  V30 3757 H 342.035 3.7809 -1.336 0
M  V30 3758 H 338.625 3.3309 -2.6972 0
M  V30 3759 H 342.809 3.33231 -3.67792 0
M  V30 3760 H 338.065 3.38703 -5.09009 0
M  V30 3761 H 342.239 3.4005 -6.07733 0
M  V30 3762 H 339.866 3.42342 -6.78753 0
M  V30 3763 N 341.441 0.965919 1.2453 0
M  V30 3764 C 342.718 0.543777 1.87889 0
M  V30 3765 C 343.098 -0.97909 1.87021 0
M  V30 3766 O 342.446 -1.84969 1.3416 0
M  V30 3767 C 342.656 1.13327 3.30088 0
M  V30 3768 C 344.004 1.21707 4.06783 0
M  V30 3769 O 345.028 1.08566 3.39252 0
M  V30 3770 O 343.887 1.42456 5.27606 0
M  V30 3771 H 340.981 0.181054 0.806938 0
M  V30 3772 H 343.527 1.06007 1.32516 0
M  V30 3773 H 342.299 2.17612 3.25209 0
M  V30 3774 H 341.922 0.600911 3.93033 0
M  V30 3775 N 342.919 -1.39368 0.735821 0
M  V30 3776 C 344.159 -2.02349 0.288813 0
M  V30 3777 C 344.523 -1.57127 -1.10341 0
M  V30 3778 O 345.724 -2.12312 -1.64854 0
M  V30 3779 C 343.995 -3.55288 0.387986 0
M  V30 3780 S 345.554 -4.38795 0.0209408 0
M  V30 3781 H 342.372 -0.701944 0.113115 0
M  V30 3782 H 344.974 -1.70164 0.962518 0
M  V30 3783 H 343.678 -3.85691 1.40252 0
M  V30 3784 H 343.209 -3.92227 -0.303512 0
M  V30 3785 H 345.224 -4.81595 -1.19503 0
M  V30 3786 N 344.397 -0.483516 -1.5 0
M  V30 3787 C 345.622 0.0667119 -2.07293 0
M  V30 3788 C 346.047 1.3164 -1.3436 0
M  V30 3789 O 345.405 1.76945 -0.394987 0
M  V30 3790 C 345.453 0.321126 -3.59167 0
M  V30 3791 O 344.557 1.39927 -3.87936 0
M  V30 3792 H 343.898 -0.0184758 -0.663743 0
M  V30 3793 H 346.428 -0.678125 -1.93035 0
M  V30 3794 H 346.438 0.557906 -4.04168 0
M  V30 3795 H 345.113 -0.592007 -4.11665 0
M  V30 3796 H 343.69 1.14882 -3.54763 0
M  V30 3797 N 345.875 1.56104 -0.216619 0
M  V30 3798 C 346.825 2.16703 0.708798 0
M  V30 3799 C 347.809 1.11392 1.16106 0
M  V30 3800 O 349.001 1.37395 1.11587 0
M  V30 3801 C 346.13 2.84666 1.91886 0
M  V30 3802 C 345.216 3.97195 1.48651 0
M  V30 3803 N 345.607 4.99959 0.766434 0
M  V30 3804 C 343.905 4.09193 1.77418 0
M  V30 3805 C 344.606 5.79126 0.546659 0
M  V30 3806 N 343.582 5.32315 1.10188 0
M  V30 3807 H 347.384 2.93516 0.150162 0
M  V30 3808 H 344.898 1.6239 -0.0176768 0
M  V30 3809 H 346.895 3.26486 2.59253 0
M  V30 3810 H 345.555 2.09347 2.48202 0
M  V30 3811 H 346.566 5.16197 0.419634 0
M  V30 3812 H 343.243 3.45021 2.35088 0
M  V30 3813 H 344.633 6.71895 -0.026103 0
M  V30 3814 N 347.353 -0.0568162 1.57498 0
M  V30 3815 C 348.581 -0.765626 1.92213 0
M  V30 3816 C 348.996 -1.70353 0.813961 0
M  V30 3817 O 348.353 -1.81268 -0.211701 0
M  V30 3818 C 348.404 -1.5465 3.2675 0
M  V30 3819 O 348.125 -0.646278 4.33307 0
M  V30 3820 C 349.626 -2.35497 3.75574 0
M  V30 3821 H 346.846 -0.216835 0.634999 0
M  V30 3822 H 349.39 -0.0226146 2.04487 0
M  V30 3823 H 347.545 -2.24165 3.15957 0
M  V30 3824 H 347.959 -1.19093 5.108 0
M  V30 3825 H 349.433 -2.85722 4.72299 0
M  V30 3826 H 349.91 -3.15692 3.05344 0
M  V30 3827 H 350.516 -1.7111 3.8936 0
M  V30 3828 N 348.832 -1.54138 -0.328536 0
M  V30 3829 C 349.765 -1.78014 -1.4278 0
M  V30 3830 C 350.743 -0.629889 -1.49904 0
M  V30 3831 O 351.927 -0.866763 -1.6739 0
M  V30 3832 C 349.054 -1.89225 -2.80912 0
M  V30 3833 C 348.1 -3.11483 -2.91343 0
M  V30 3834 S 348.933 -4.70201 -2.56263 0
M  V30 3835 C 350.089 -4.84312 -3.96476 0
M  V30 3836 H 350.322 -2.70974 -1.22313 0
M  V30 3837 H 347.855 -1.45197 -0.525084 0
M  V30 3838 H 349.813 -1.9637 -3.60485 0
M  V30 3839 H 348.474 -0.972518 -2.98665 0
M  V30 3840 H 347.667 -3.16046 -3.92595 0
M  V30 3841 H 347.269 -3.02642 -2.19736 0
M  V30 3842 H 349.561 -4.66643 -4.91173 0
M  V30 3843 H 350.504 -5.86411 -3.96898 0
M  V30 3844 H 350.912 -4.12652 -3.85199 0
M  V30 3845 N 350.31 0.590341 -1.46126 0
M  V30 3846 C 351.273 1.68194 -1.55703 0
M  V30 3847 C 352.273 1.54808 -0.434868 0
M  V30 3848 O 353.463 1.59564 -0.698928 0
M  V30 3849 C 350.595 3.07575 -1.47005 0
M  V30 3850 H 351.788 1.61064 -2.52979 0
M  V30 3851 H 349.341 0.807541 -1.33823 0
M  V30 3852 H 350.076 3.20268 -0.509785 0
M  V30 3853 H 349.861 3.187 -2.28414 0
M  V30 3854 H 351.351 3.87055 -1.56776 0
M  V30 3855 N 351.788 1.33704 0.83433 0
M  V30 3856 C 352.751 1.24244 1.92603 0
M  V30 3857 C 353.751 0.160383 1.59998 0
M  V30 3858 O 354.941 0.412228 1.69252 0
M  V30 3859 C 352.073 0.91555 3.28376 0
M  V30 3860 H 353.266 2.21287 2.02416 0
M  V30 3861 H 350.819 1.17827 1.02696 0
M  V30 3862 H 351.554 -0.0521886 3.24258 0
M  V30 3863 H 351.339 1.69811 3.53422 0
M  V30 3864 H 352.829 0.874231 4.08347 0
M  V30 3865 N 353.266 -1.05314 1.17247 0
M  V30 3866 C 354.198 -2.13023 0.845812 0
M  V30 3867 C 355.211 -1.62096 -0.151246 0
M  V30 3868 O 356.4 -1.78343 0.0748818 0
M  V30 3869 C 353.5 -3.38047 0.240292 0
M  V30 3870 C 352.673 -4.18255 1.27991 0
M  V30 3871 C 351.732 -5.21625 0.692375 0
M  V30 3872 O 350.758 -5.52619 1.36385 0
M  V30 3873 N 351.96 -5.78201 -0.516178 0
M  V30 3874 H 354.725 -2.41642 1.77283 0
M  V30 3875 H 352.286 -1.21401 1.07115 0
M  V30 3876 H 354.278 -4.04359 -0.16603 0
M  V30 3877 H 352.848 -3.06972 -0.590487 0
M  V30 3878 H 352.068 -3.47451 1.86203 0
M  V30 3879 H 353.356 -4.68643 1.98119 0
M  V30 3880 H 352.754 -5.55301 -1.07969 0
M  V30 3881 H 351.311 -6.4604 -0.86458 0
M  V30 3882 N 354.744 -0.972509 -1.24016 0
M  V30 3883 C 355.993 -0.632603 -1.91523 0
M  V30 3884 C 356.306 0.836641 -1.76804 0
M  V30 3885 O 357.512 1.28728 -2.39043 0
M  V30 3886 C 355.968 -1.08082 -3.43287 0
M  V30 3887 C 355.576 -2.57386 -3.66683 0
M  V30 3888 C 357.32 -0.814288 -4.16617 0
M  V30 3889 C 355.227 -2.95915 -5.12043 0
M  V30 3890 H 354.157 -0.232898 -0.717129 0
M  V30 3891 H 356.808 -1.17936 -1.40582 0
M  V30 3892 H 355.19 -0.462339 -3.93292 0
M  V30 3893 H 356.364 -3.24405 -3.27258 0
M  V30 3894 H 354.679 -2.81701 -3.06649 0
M  V30 3895 H 357.276 -1.0781 -5.23718 0
M  V30 3896 H 357.619 0.24955 -4.15551 0
M  V30 3897 H 358.152 -1.39397 -3.72577 0
M  V30 3898 H 354.891 -4.0139 -5.18234 0
M  V30 3899 H 354.411 -2.33584 -5.52448 0
M  V30 3900 H 356.09 -2.86086 -5.80314 0
M  V30 3901 N 356.222 1.38976 -0.743202 0
M  V30 3902 C 357.152 2.33171 -0.123873 0
M  V30 3903 C 358.133 1.54336 0.71516 0
M  V30 3904 O 359.318 1.82696 0.658467 0
M  V30 3905 C 356.448 3.38474 0.777978 0
M  V30 3906 C 355.402 4.27979 0.0424758 0
M  V30 3907 C 354.728 5.2405 1.06189 0
M  V30 3908 C 356.028 5.10155 -1.1198 0
M  V30 3909 H 357.722 2.85213 -0.910709 0
M  V30 3910 H 355.268 1.37133 -0.439388 0
M  V30 3911 H 357.221 4.03328 1.22084 0
M  V30 3912 H 355.945 2.84891 1.59702 0
M  V30 3913 H 354.604 3.64616 -0.380853 0
M  V30 3914 H 354.252 4.66758 1.87472 0
M  V30 3915 H 353.952 5.84785 0.574485 0
M  V30 3916 H 355.476 5.9178 1.50428 0
M  V30 3917 H 356.89 5.68307 -0.75499 0
M  V30 3918 H 355.287 5.80073 -1.53738 0
M  V30 3919 H 356.357 4.44504 -1.93764 0
M  V30 3920 N 357.7 0.491464 1.49741 0
M  V30 3921 C 358.647 -0.292027 2.28945 0
M  V30 3922 C 359.617 -0.968973 1.34908 0
M  V30 3923 O 360.802 -0.97748 1.6386 0
M  V30 3924 C 357.942 -1.35617 3.17336 0
M  V30 3925 C 357.055 -0.691957 4.26422 0
M  V30 3926 C 356.19 -1.73572 5.02042 0
M  V30 3927 C 355.229 -1.05286 6.02977 0
M  V30 3928 N 354.366 -2.0404 6.71798 0
M  V30 3929 H 359.206 0.389654 2.95442 0
M  V30 3930 H 356.743 0.204003 1.45679 0
M  V30 3931 H 358.701 -1.98502 3.66951 0
M  V30 3932 H 357.331 -2.00674 2.52844 0
M  V30 3933 H 356.383 0.0499523 3.80367 0
M  V30 3934 H 357.695 -0.153946 4.98562 0
M  V30 3935 H 356.849 -2.43987 5.55478 0
M  V30 3936 H 355.588 -2.30757 4.29654 0
M  V30 3937 H 354.593 -0.334446 5.48782 0
M  V30 3938 H 355.818 -0.487636 6.77347 0
M  V30 3939 H 353.764 -2.60205 6.02187 0
M  V30 3940 H 353.681 -1.55279 7.39881 0
M  V30 3941 H 354.949 -2.73772 7.29842 0
M  V30 3942 N 359.178 -1.55987 0.224894 0
M  V30 3943 C 360.11 -2.17722 -0.716224 0
M  V30 3944 C 361.123 -1.14723 -1.15509 0
M  V30 3945 O 362.312 -1.41688 -1.08567 0
M  V30 3946 C 359.412 -2.74873 -1.98238 0
M  V30 3947 C 358.585 -4.03074 -1.69853 0
M  V30 3948 C 357.644 -4.44757 -2.81208 0
M  V30 3949 O 356.67 -5.11587 -2.49534 0
M  V30 3950 N 357.872 -4.10716 -4.10235 0
M  V30 3951 H 360.637 -2.99109 -0.188123 0
M  V30 3952 H 358.198 -1.6184 0.0440123 0
M  V30 3953 H 360.19 -2.99727 -2.7193 0
M  V30 3954 H 358.76 -1.9777 -2.42086 0
M  V30 3955 H 357.98 -3.86041 -0.797875 0
M  V30 3956 H 359.268 -4.86701 -1.48324 0
M  V30 3957 H 358.666 -3.57019 -4.38809 0
M  V30 3958 H 357.223 -4.40455 -4.80461 0
M  V30 3959 N 360.656 0.0484629 -1.57525 0
M  V30 3960 C 361.619 1.03956 -2.04269 0
M  V30 3961 C 362.619 1.30211 -0.943496 0
M  V30 3962 O 363.809 1.25539 -1.20771 0
M  V30 3963 C 360.941 2.37742 -2.44319 0
M  V30 3964 H 362.134 0.636182 -2.93075 0
M  V30 3965 H 359.687 0.294811 -1.53494 0
M  V30 3966 H 360.422 2.82866 -1.5861 0
M  V30 3967 H 360.207 2.20021 -3.24551 0
M  V30 3968 H 361.697 3.08936 -2.80978 0
M  V30 3969 N 362.134 1.5431 0.320358 0
M  V30 3970 C 363.067 1.78769 1.41834 0
M  V30 3971 C 364.045 0.63783 1.49568 0
M  V30 3972 O 365.229 0.875628 1.66928 0
M  V30 3973 C 362.356 1.90712 2.79905 0
M  V30 3974 C 361.402 3.13023 2.89687 0
M  V30 3975 S 362.235 4.71554 2.53766 0
M  V30 3976 C 363.391 4.86408 3.93902 0
M  V30 3977 H 363.624 2.71619 1.20874 0
M  V30 3978 H 361.157 1.45474 0.517377 0
M  V30 3979 H 363.115 1.98279 3.59438 0
M  V30 3980 H 361.776 0.988343 2.98145 0
M  V30 3981 H 360.969 3.18124 3.90913 0
M  V30 3982 H 360.571 3.03803 2.18128 0
M  V30 3983 H 362.863 4.69241 4.88691 0
M  V30 3984 H 363.806 5.88508 3.93782 0
M  V30 3985 H 364.214 4.14689 3.83005 0
M  V30 3986 N 363.613 -0.582584 1.46437 0
M  V30 3987 C 364.576 -1.67366 1.56592 0
M  V30 3988 C 365.576 -1.54575 0.443072 0
M  V30 3989 O 366.766 -1.59191 0.707381 0
M  V30 3990 C 363.898 -3.06791 1.48634 0
M  V30 3991 H 365.091 -1.5972 2.5383 0
M  V30 3992 H 362.644 -0.800432 1.34249 0
M  V30 3993 H 363.379 -3.19993 0.526763 0
M  V30 3994 H 363.164 -3.17484 2.30101 0
M  V30 3995 H 364.654 -3.86218 1.58826 0
M  V30 3996 N 365.091 -1.34144 -0.827227 0
M  V30 3997 C 366.024 -1.19707 -1.94282 0
M  V30 3998 C 367.002 -0.0897256 -1.62352 0
M  V30 3999 O 368.186 -0.254095 -1.8678 0
M  V30 4000 C 365.313 -0.838646 -3.28153 0
M  V30 4001 C 364.359 -1.95514 -3.79047 0
M  V30 4002 S 365.192 -3.56793 -3.99323 0
M  V30 4003 C 366.348 -3.22983 -5.36127 0
M  V30 4004 H 366.581 -2.1414 -2.06231 0
M  V30 4005 H 364.114 -1.19121 -0.982321 0
M  V30 4006 H 366.072 -0.638637 -4.05502 0
M  V30 4007 H 364.733 0.0872776 -3.13979 0
M  V30 4008 H 363.926 -1.658 -4.75948 0
M  V30 4009 H 363.528 -2.11241 -3.08631 0
M  V30 4010 H 365.82 -2.74531 -6.19386 0
M  V30 4011 H 366.763 -4.19008 -5.70822 0
M  V30 4012 H 367.171 -2.59276 -5.01434 0
M  V30 4013 N 366.569 1.04691 -1.17803 0
M  V30 4014 C 367.817 1.7743 -0.967617 0
M  V30 4015 C 368.138 1.88359 0.504574 0
M  V30 4016 O 367.408 1.40402 1.36617 0
M  V30 4017 H 365.988 0.657242 -0.355024 0
M  V30 4018 H 368.65 1.2638 -1.48371 0
M  V30 4019 H 367.746 2.78924 -1.40027 0
M  V30 4020 N 368.047 0.979072 1.23499 0
M  V30 4021 C 368.98 0.463027 2.23453 0
M  V30 4022 C 369.958 -0.469128 1.55685 0
M  V30 4023 O 371.142 -0.397882 1.84253 0
M  V30 4024 C 368.269 -0.330308 3.37086 0
M  V30 4025 C 367.315 0.545795 4.22993 0
M  V30 4026 S 368.148 1.99285 4.97037 0
M  V30 4027 C 369.304 1.20862 6.1412 0
M  V30 4028 H 369.537 1.31005 2.6688 0
M  V30 4029 H 367.07 0.784965 1.32957 0
M  V30 4030 H 369.028 -0.782027 4.02982 0
M  V30 4031 H 367.689 -1.15244 2.92194 0
M  V30 4032 H 366.882 -0.0638928 5.03959 0
M  V30 4033 H 366.484 0.933705 3.62157 0
M  V30 4034 H 368.776 0.469284 6.75873 0
M  V30 4035 H 369.719 1.99307 6.79472 0
M  V30 4036 H 370.127 0.727992 5.59786 0
M  V30 4037 N 369.525 -1.3858 0.750561 0
M  V30 4038 C 370.458 -2.28095 0.0693139 0
M  V30 4039 C 371.436 -1.45217 -0.731491 0
M  V30 4040 O 372.62 -1.74587 -0.71076 0
M  V30 4041 C 369.747 -3.26282 -0.90871 0
M  V30 4042 C 368.793 -4.26056 -0.194507 0
M  V30 4043 S 369.626 -5.24026 1.10257 0
M  V30 4044 C 370.782 -6.2577 0.127542 0
M  V30 4045 H 371.015 -2.85526 0.8284 0
M  V30 4046 H 368.548 -1.44536 0.543014 0
M  V30 4047 H 370.506 -3.83367 -1.46766 0
M  V30 4048 H 369.167 -2.6784 -1.64075 0
M  V30 4049 H 368.36 -4.95249 -0.93512 0
M  V30 4050 H 367.962 -3.72852 0.292837 0
M  V30 4051 H 370.254 -6.73796 -0.707516 0
M  V30 4052 H 371.197 -7.03712 0.787044 0
M  V30 4053 H 371.605 -5.63938 -0.251803 0
M  V30 4054 N 371.003 -0.499398 -1.49478 0
M  V30 4055 C 372.231 0.0425456 -2.06856 0
M  V30 4056 C 372.646 1.30964 -1.35992 0
M  V30 4057 O 372.003 1.77172 -0.437762 0
M  V30 4058 C 372.054 0.301735 -3.60239 0
M  V30 4059 O 371.775 -0.915127 -4.28436 0
M  V30 4060 C 373.276 0.887499 -4.34325 0
M  V30 4061 H 370.496 -0.0197482 -0.670709 0
M  V30 4062 H 373.04 -0.696297 -1.92281 0
M  V30 4063 H 371.195 0.990556 -3.74522 0
M  V30 4064 H 371.609 -0.676993 -5.20113 0
M  V30 4065 H 373.083 1.01845 -5.42523 0
M  V30 4066 H 373.56 1.88488 -3.96698 0
M  V30 4067 H 374.166 0.236196 -4.24644 0
M  V30 4068 N 372.481 1.55866 -0.233164 0
M  V30 4069 C 373.391 2.24431 0.683217 0
M  V30 4070 C 374.407 1.2558 1.2044 0
M  V30 4071 O 375.583 1.58422 1.24356 0
M  V30 4072 C 372.648 2.91979 1.86947 0
M  V30 4073 C 371.709 4.06204 1.38912 0
M  V30 4074 C 370.942 4.70522 2.51883 0
M  V30 4075 O 371.165 4.33865 3.70293 0
M  V30 4076 O 370.099 5.59296 2.22423 0
M  V30 4077 H 373.925 3.03426 0.129059 0
M  V30 4078 H 371.51 1.494 -0.0022283 0
M  V30 4079 H 373.392 3.34573 2.56201 0
M  V30 4080 H 372.067 2.15935 2.41151 0
M  V30 4081 H 370.974 3.68155 0.664259 0
M  V30 4082 H 372.307 4.84025 0.893328 0
M  V30 4083 N 373.959 -0.0401083 1.57549 0
M  V30 4084 C 375.189 -0.744115 1.92734 0
M  V30 4085 C 375.597 -1.70005 0.830348 0
M  V30 4086 O 374.94 -1.82576 -0.20286 0
M  V30 4087 C 375.002 -1.56516 3.2364 0
M  V30 4088 C 374.666 -0.7752 4.50377 0
M  V30 4089 C 375.663 -0.0803326 5.19838 0
M  V30 4090 C 373.348 -0.733002 4.96923 0
M  V30 4091 C 375.342 0.646154 6.34116 0
M  V30 4092 C 373.029 -0.00276321 6.111 0
M  V30 4093 C 374.027 0.685585 6.7955 0
M  V30 4094 O 373.715 1.40399 7.91545 0
M  V30 4095 H 373.447 -0.214861 0.640945 0
M  V30 4096 H 376.001 -0.00503675 2.05399 0
M  V30 4097 H 374.231 -2.3478 3.07271 0
M  V30 4098 H 375.92 -2.15076 3.44234 0
M  V30 4099 H 376.686 -0.104035 4.84888 0
M  V30 4100 H 372.565 -1.25827 4.43496 0
M  V30 4101 H 376.109 1.18398 6.87479 0
M  V30 4102 H 372.006 0.0229012 6.45496 0
M  V30 4103 H 372.774 1.31653 8.07843 0
M  V30 4104 N 375.437 -1.54477 -0.31217 0
M  V30 4105 C 376.667 -1.76948 -1.06645 0
M  V30 4106 C 377.075 -0.523593 -1.81811 0
M  V30 4107 O 376.418 0.51578 -1.76311 0
M  V30 4108 C 376.48 -2.91668 -2.10166 0
M  V30 4109 C 376.144 -4.30165 -1.54296 0
M  V30 4110 C 377.141 -5.10603 -0.978793 0
M  V30 4111 C 374.826 -4.76738 -1.58196 0
M  V30 4112 C 376.82 -6.3573 -0.461048 0
M  V30 4113 C 374.507 -6.01831 -1.06034 0
M  V30 4114 C 375.505 -6.81161 -0.500844 0
M  V30 4115 O 375.193 -8.03899 0.0128958 0
M  V30 4116 H 374.925 -0.594088 -0.322546 0
M  V30 4117 H 377.479 -2.02213 -0.360441 0
M  V30 4118 H 375.709 -2.62001 -2.84416 0
M  V30 4119 H 377.398 -3.01817 -2.71406 0
M  V30 4120 H 378.164 -4.75771 -0.941651 0
M  V30 4121 H 374.043 -4.15027 -2.00683 0
M  V30 4122 H 377.587 -6.97596 -0.0236894 0
M  V30 4123 H 373.484 -6.36152 -1.09459 0
M  V30 4124 H 374.252 -8.18437 -0.101457 0
M  V30 4125 N 376.915 0.57481 -1.46744 0
M  V30 4126 C 377.865 1.67838 -1.54319 0
M  V30 4127 C 378.849 1.55759 -0.40346 0
M  V30 4128 O 380.041 1.6454 -0.652347 0
M  V30 4129 C 377.17 3.06624 -1.5439 0
M  V30 4130 C 376.256 3.23971 -2.73685 0
M  V30 4131 N 376.647 3.11447 -3.9854 0
M  V30 4132 C 374.945 3.5493 -2.70075 0
M  V30 4133 C 375.646 3.31011 -4.78337 0
M  V30 4134 N 374.622 3.56533 -4.10348 0
M  V30 4135 H 378.424 1.56698 -2.48642 0
M  V30 4136 H 375.938 0.779071 -1.42493 0
M  V30 4137 H 377.935 3.85839 -1.57905 0
M  V30 4138 H 376.595 3.1889 -0.611493 0
M  V30 4139 H 377.606 2.89145 -4.29669 0
M  V30 4140 H 374.283 3.73832 -1.85893 0
M  V30 4141 H 375.673 3.26445 -5.87268 0
M  V30 4142 N 378.394 1.34581 0.820102 0
M  V30 4143 C 379.641 1.27096 1.57648 0
M  V30 4144 C 379.969 -0.158317 1.93855 0
M  V30 4145 O 379.224 -1.12028 1.60463 0
M  V30 4146 C 379.523 2.10997 2.8847 0
M  V30 4147 C 379.189 3.59966 2.71543 0
M  V30 4148 C 377.851 4.00575 2.66634 0
M  V30 4149 C 380.203 4.54548 2.55021 0
M  V30 4150 C 377.531 5.33953 2.43128 0
M  V30 4151 C 379.883 5.88109 2.33047 0
M  V30 4152 C 378.547 6.27878 2.26552 0
M  V30 4153 H 377.817 0.465078 0.576874 0
M  V30 4154 H 380.464 1.6635 0.948671 0
M  V30 4155 H 378.769 1.6458 3.55557 0
M  V30 4156 H 380.466 2.0255 3.46084 0
M  V30 4157 H 377.056 3.27733 2.76205 0
M  V30 4158 H 381.24 4.24069 2.57835 0
M  V30 4159 H 376.496 5.63781 2.3656 0
M  V30 4160 H 380.67 6.60985 2.19251 0
M  V30 4161 H 378.297 7.31162 2.081 0
M  V30 4162 N 379.872 -1.04064 1.18357 0
M  V30 4163 C 381.121 -1.76662 0.973313 0
M  V30 4164 C 381.434 -1.89154 -0.497991 0
M  V30 4165 O 382.64 -2.58606 -0.826762 0
M  V30 4166 C 381.096 -3.17624 1.69242 0
M  V30 4167 C 380.704 -3.13225 3.20303 0
M  V30 4168 C 382.448 -3.946 1.56497 0
M  V30 4169 C 380.355 -4.49046 3.84853 0
M  V30 4170 H 379.285 -0.662214 0.36054 0
M  V30 4171 H 381.936 -1.16553 1.41731 0
M  V30 4172 H 380.318 -3.78129 1.1762 0
M  V30 4173 H 381.492 -2.62172 3.78949 0
M  V30 4174 H 379.807 -2.49749 3.33189 0
M  V30 4175 H 382.404 -4.95042 2.02084 0
M  V30 4176 H 382.747 -4.13074 0.517243 0
M  V30 4177 H 383.28 -3.4067 2.05399 0
M  V30 4178 H 380.019 -4.35777 4.89672 0
M  V30 4179 H 379.539 -5.00203 3.30994 0
M  V30 4180 H 381.218 -5.17961 3.87718 0
M  V30 4181 N 381.35 -0.985608 -1.22978 0
M  V30 4182 C 382.597 -0.657386 -1.91532 0
M  V30 4183 C 382.925 0.809707 -1.76845 0
M  V30 4184 O 382.18 1.60021 -1.12658 0
M  V30 4185 C 382.479 -1.00014 -3.43121 0
M  V30 4186 C 382.145 -2.4583 -3.77993 0
M  V30 4187 C 380.807 -2.85679 -3.87222 0
M  V30 4188 C 383.159 -3.40378 -3.94705 0
M  V30 4189 C 380.487 -4.19081 -4.10595 0
M  V30 4190 C 382.839 -4.73429 -4.1958 0
M  V30 4191 C 381.503 -5.1303 -4.27032 0
M  V30 4192 H 380.773 -0.240555 -0.700867 0
M  V30 4193 H 383.42 -1.24044 -1.45895 0
M  V30 4194 H 381.725 -0.335072 -3.90365 0
M  V30 4195 H 383.422 -0.724322 -3.94404 0
M  V30 4196 H 380.012 -2.13939 -3.71387 0
M  V30 4197 H 384.196 -3.10766 -3.8696 0
M  V30 4198 H 379.452 -4.49362 -4.14589 0
M  V30 4199 H 383.626 -5.46644 -4.31455 0
M  V30 4200 H 381.253 -6.16418 -4.44896 0
M  V30 4201 N 382.828 1.3818 -0.7579 0
M  V30 4202 C 384.056 2.04301 -0.326937 0
M  V30 4203 C 384.471 1.57163 1.0462 0
M  V30 4204 O 383.828 0.746626 1.66529 0
M  V30 4205 C 383.879 3.59846 -0.345363 0
M  V30 4206 O 383.6 4.05256 -1.66432 0
M  V30 4207 C 385.101 4.4319 0.098927 0
M  V30 4208 H 382.321 0.656443 -0.139012 0
M  V30 4209 H 384.865 1.76786 -1.02796 0
M  V30 4210 H 383.02 3.86182 0.306955 0
M  V30 4211 H 383.434 4.99709 -1.59345 0
M  V30 4212 H 384.908 5.51989 0.0348745 0
M  V30 4213 H 385.385 4.23947 1.14741 0
M  V30 4214 H 385.991 4.22051 -0.52468 0
M  V30 4215 N 384.306 0.507319 1.49211 0
M  V30 4216 C 385.534 -0.0315749 2.06876 0
M  V30 4217 C 385.949 -1.30241 1.36685 0
M  V30 4218 O 385.306 -1.76937 0.447152 0
M  V30 4219 C 385.357 -0.282627 3.60393 0
M  V30 4220 O 385.078 0.937835 4.27944 0
M  V30 4221 C 386.579 -0.864453 4.3479 0
M  V30 4222 H 383.799 0.0233048 0.670595 0
M  V30 4223 H 386.343 0.706484 1.91909 0
M  V30 4224 H 384.498 -0.97068 3.75042 0
M  V30 4225 H 384.912 0.704567 5.19746 0
M  V30 4226 H 386.386 -0.989664 5.43056 0
M  V30 4227 H 386.863 -1.86382 3.97692 0
M  V30 4228 H 387.469 -0.213672 4.24763 0
M  V30 4229 N 385.784 -1.5574 0.241426 0
M  V30 4230 C 386.714 -2.24133 -0.654722 0
M  V30 4231 C 387.695 -1.21974 -1.1856 0
M  V30 4232 O 388.88 -1.50612 -1.22595 0
M  V30 4233 C 386.01 -2.93659 -1.85423 0
M  V30 4234 C 384.964 -4.0246 -1.45636 0
M  V30 4235 C 384.29 -4.59383 -2.73626 0
M  V30 4236 C 385.59 -5.18468 -0.631506 0
M  V30 4237 H 387.284 -2.99281 -0.0844353 0
M  V30 4238 H 384.83 -1.43947 -0.0391707 0
M  V30 4239 H 386.783 -3.40203 -2.48676 0
M  V30 4240 H 385.507 -2.15991 -2.44981 0
M  V30 4241 H 384.166 -3.56676 -0.847202 0
M  V30 4242 H 383.814 -3.78422 -3.3137 0
M  V30 4243 H 383.514 -5.32826 -2.4773 0
M  V30 4244 H 385.038 -5.08658 -3.37786 0
M  V30 4245 H 386.452 -5.61272 -1.1682 0
M  V30 4246 H 384.849 -5.98266 -0.468831 0
M  V30 4247 H 385.919 -4.8358 0.357506 0
M  V30 4248 N 387.262 0.0317525 -1.57568 0
M  V30 4249 C 388.539 0.758366 -1.803 0
M  V30 4250 C 388.919 1.93718 -0.838845 0
M  V30 4251 O 388.267 2.28187 0.119571 0
M  V30 4252 C 388.477 1.19392 -3.27943 0
M  V30 4253 C 389.825 1.61094 -3.92854 0
M  V30 4254 O 390.849 1.28857 -3.32076 0
M  V30 4255 O 389.708 2.20918 -4.99858 0
M  V30 4256 H 386.802 0.366514 -0.741348 0
M  V30 4257 H 389.348 0.00873765 -1.69698 0
M  V30 4258 H 388.12 0.352275 -3.89711 0
M  V30 4259 H 387.743 2.00365 -3.43424 0
M  V30 4260 N 388.74 1.54641 0.303973 0
M  V30 4261 C 389.67 1.88386 1.3796 0
M  V30 4262 C 390.651 0.742485 1.5304 0
M  V30 4263 O 391.836 0.997959 1.66597 0
M  V30 4264 C 388.966 2.12854 2.74427 0
M  V30 4265 C 387.92 3.28702 2.74115 0
M  V30 4266 C 387.246 3.38582 4.13844 0
M  V30 4267 C 388.546 4.65881 2.3612 0
M  V30 4268 H 390.24 2.78474 1.09966 0
M  V30 4269 H 387.786 1.33988 0.527556 0
M  V30 4270 H 389.739 2.35047 3.49758 0
M  V30 4271 H 388.463 1.19535 3.03939 0
M  V30 4272 H 387.122 3.06428 2.0124 0
M  V30 4273 H 386.77 2.42784 4.40528 0
M  V30 4274 H 386.47 4.16453 4.14537 0
M  V30 4275 H 387.994 3.63031 4.90959 0
M  V30 4276 H 389.408 4.87823 3.01167 0
M  V30 4277 H 387.805 5.46444 2.48031 0
M  V30 4278 H 388.875 4.66799 1.3125 0
M  V30 4279 N 390.218 -0.567019 1.47046 0
M  V30 4280 C 391.448 -1.34831 1.56538 0
M  V30 4281 C 391.856 -1.8802 0.21101 0
M  V30 4282 O 391.199 -1.65152 -0.804387 0
M  V30 4283 C 391.261 -2.56139 2.52256 0
M  V30 4284 C 390.925 -2.24307 3.98165 0
M  V30 4285 C 391.922 -1.82192 4.86931 0
M  V30 4286 C 389.607 -2.35968 4.43423 0
M  V30 4287 C 391.601 -1.52153 6.18973 0
M  V30 4288 C 389.288 -2.05542 5.75496 0
M  V30 4289 C 390.286 -1.63701 6.63092 0
M  V30 4290 O 389.974 -1.33657 7.92711 0
M  V30 4291 H 389.706 -0.417683 0.531523 0
M  V30 4292 H 392.26 -0.694726 1.93294 0
M  V30 4293 H 390.49 -3.24356 2.10548 0
M  V30 4294 H 392.179 -3.18214 2.51982 0
M  V30 4295 H 392.945 -1.72684 4.53217 0
M  V30 4296 H 388.824 -2.67495 3.75456 0
M  V30 4297 H 392.368 -1.19421 6.87302 0
M  V30 4298 H 388.265 -2.14679 6.08755 0
M  V30 4299 H 389.033 -1.4737 8.05124 0
M  V30 4300 N 391.696 -1.35014 -0.812953 0
M  V30 4301 C 392.659 -1.27292 -1.90602 0
M  V30 4302 C 393.659 -0.185817 -1.59723 0
M  V30 4303 O 394.849 -0.439102 -1.68575 0
M  V30 4304 C 391.981 -0.967676 -3.26877 0
M  V30 4305 H 393.174 -2.24479 -1.9887 0
M  V30 4306 H 390.727 -1.19446 -1.00808 0
M  V30 4307 H 391.462 0.0005954 -3.243 0
M  V30 4308 H 391.247 -1.75412 -3.50675 0
M  V30 4309 H 392.737 -0.939085 -4.06904 0
M  V30 4310 N 393.175 1.03435 -1.18907 0
M  V30 4311 C 394.105 2.13503 -0.945448 0
M  V30 4312 C 395.086 1.69682 0.119189 0
M  V30 4313 O 396.271 1.94169 -0.034707 0
M  V30 4314 C 393.401 3.44004 -0.477316 0
M  V30 4315 C 392.355 4.0148 -1.48316 0
M  V30 4316 C 391.681 5.27537 -0.872311 0
M  V30 4317 C 392.981 4.36921 -2.86177 0
M  V30 4318 H 394.675 2.34141 -1.86597 0
M  V30 4319 H 392.221 1.12523 -0.898584 0
M  V30 4320 H 394.174 4.20372 -0.294204 0
M  V30 4321 H 392.898 3.23072 0.478786 0
M  V30 4322 H 391.557 3.27201 -1.65332 0
M  V30 4323 H 391.205 5.02917 0.0911752 0
M  V30 4324 H 390.905 5.66954 -1.54393 0
M  V30 4325 H 392.429 6.06576 -0.699871 0
M  V30 4326 H 393.843 5.04248 -2.72776 0
M  V30 4327 H 392.24 4.87405 -3.50081 0
M  V30 4328 H 393.31 3.46466 -3.39248 0
M  V30 4329 N 394.653 0.992116 1.22453 0
M  V30 4330 C 395.93 0.583508 1.86694 0
M  V30 4331 C 396.31 -0.9392 1.89056 0
M  V30 4332 O 395.658 -1.82081 1.38053 0
M  V30 4333 C 395.868 1.20304 3.2761 0
M  V30 4334 C 397.216 1.30308 4.0411 0
M  V30 4335 O 398.24 1.15737 3.36873 0
M  V30 4336 O 397.099 1.53615 5.24466 0
M  V30 4337 H 394.193 0.198129 0.802916 0
M  V30 4338 H 396.739 1.08794 1.30238 0
M  V30 4339 H 395.511 2.24461 3.2052 0
M  V30 4340 H 395.134 0.684144 3.9167 0
M  V30 4341 N 396.131 -1.37776 0.765217 0
M  V30 4342 C 397.061 -2.32945 0.160953 0
M  V30 4343 C 398.042 -1.55454 -0.690516 0
M  V30 4344 O 399.227 -1.83721 -0.629318 0
M  V30 4345 C 396.357 -3.39669 -0.724031 0
M  V30 4346 C 395.311 -4.27992 0.0256173 0
M  V30 4347 C 394.637 -5.25673 -0.978383 0
M  V30 4348 C 395.937 -5.08309 1.20082 0
M  V30 4349 H 397.631 -2.83728 0.955969 0
M  V30 4350 H 395.177 -1.36416 0.461149 0
M  V30 4351 H 397.13 -4.05219 -1.15652 0
M  V30 4352 H 395.854 -2.87396 -1.5515 0
M  V30 4353 H 394.513 -3.63964 0.438812 0
M  V30 4354 H 394.161 -4.69682 -1.80022 0
M  V30 4355 H 393.861 -5.85625 -0.481378 0
M  V30 4356 H 395.385 -5.94098 -1.40995 0
M  V30 4357 H 396.799 -5.67034 0.845307 0
M  V30 4358 H 395.196 -5.77554 1.62947 0
M  V30 4359 H 396.266 -4.41365 2.00811 0
M  V30 4360 N 397.609 -0.515225 -1.4894 0
M  V30 4361 C 398.519 0.259774 -2.33157 0
M  V30 4362 C 399.535 0.953501 -1.45548 0
M  V30 4363 O 400.711 0.931735 -1.78552 0
M  V30 4364 C 397.776 1.30193 -3.21326 0
M  V30 4365 C 396.837 0.620129 -4.24797 0
M  V30 4366 C 396.07 1.61263 -5.08753 0
M  V30 4367 O 396.293 2.84389 -4.94448 0
M  V30 4368 O 395.227 1.16013 -5.90614 0
M  V30 4369 H 399.053 -0.429932 -3.00641 0
M  V30 4370 H 396.638 -0.276346 -1.46822 0
M  V30 4371 H 398.52 1.90455 -3.75905 0
M  V30 4372 H 397.195 1.97431 -2.56521 0
M  V30 4373 H 396.102 -0.0226019 -3.74093 0
M  V30 4374 H 397.435 -0.0100493 -4.92199 0
M  V30 4375 N 399.087 1.5561 -0.249682 0
M  V30 4376 C 400.498 1.84979 0.252949 0
M  V30 4377 C 400.849 1.17153 1.57384 0
M  V30 4378 O 399.974 0.450884 2.11651 0
M  V30 4379 C 400.569 3.35584 0.465732 0
M  V30 4380 C 399.128 3.65169 0.912624 0
M  V30 4381 C 398.275 2.77299 -0.00859085 0
M  V30 4382 H 401.226 1.51513 -0.47217 0
M  V30 4383 H 401.247 3.57313 1.30795 0
M  V30 4384 H 400.759 3.8492 -0.49579 0
M  V30 4385 H 398.86 3.21312 1.88652 0
M  V30 4386 H 398.973 4.72912 0.767559 0
M  V30 4387 H 397.337 2.49678 0.50327 0
M  V30 4388 H 398.12 3.29442 -0.965537 0
M  V30 4389 N 400.565 -0.0233959 1.57583 0
M  V30 4390 C 401.795 -0.723631 1.93513 0
M  V30 4391 C 402.203 -1.69115 0.848333 0
M  V30 4392 O 401.546 -1.82781 -0.183484 0
M  V30 4393 C 401.608 -1.53075 3.25282 0
M  V30 4394 C 401.272 -0.727388 4.51174 0
M  V30 4395 C 402.269 -0.0251924 5.19894 0
M  V30 4396 C 399.954 -0.680256 4.97672 0
M  V30 4397 C 401.948 0.713374 6.33395 0
M  V30 4398 C 399.635 0.0620523 6.11068 0
M  V30 4399 C 400.633 0.757622 6.78785 0
M  V30 4400 O 400.321 1.48787 7.90011 0
M  V30 4401 H 400.053 -0.208051 0.643188 0
M  V30 4402 H 402.607 0.0167489 2.05393 0
M  V30 4403 H 400.837 -2.31508 3.09744 0
M  V30 4404 H 402.526 -2.11413 3.46496 0
M  V30 4405 H 403.292 -0.0526003 4.84971 0
M  V30 4406 H 399.171 -1.21116 4.44805 0
M  V30 4407 H 402.715 1.25683 6.86185 0
M  V30 4408 H 398.612 0.0913634 6.45435 0
M  V30 4409 H 399.38 1.40213 8.06401 0
M  V30 4410 N 402.043 -1.548 -0.295768 0
M  V30 4411 C 403.459 -1.4613 -0.641722 0
M  V30 4412 C 403.659 -0.656771 -1.90496 0
M  V30 4413 O 402.715 -0.166547 -2.5195 0
M  V30 4414 C 404.028 -2.90141 -0.789852 0
M  V30 4415 C 405.576 -3.00216 -0.885396 0
M  V30 4416 C 406.051 -4.45434 -1.06548 0
M  V30 4417 N 407.542 -4.49166 -1.13156 0
M  V30 4418 C 408.277 -5.58717 -1.28929 0
M  V30 4419 N 407.773 -6.78182 -1.41567 0
M  V30 4420 N 409.566 -5.46415 -1.31859 0
M  V30 4421 H 401.717 -2.05574 0.534147 0
M  V30 4422 H 403.98 -0.931259 0.177372 0
M  V30 4423 H 403.686 -3.51635 0.0675598 0
M  V30 4424 H 403.56 -3.37859 -1.67724 0
M  V30 4425 H 405.947 -2.38833 -1.73329 0
M  V30 4426 H 406.028 -2.55787 0.0261185 0
M  V30 4427 H 405.672 -5.07413 -0.222335 0
M  V30 4428 H 405.602 -4.87499 -1.9913 0
M  V30 4429 H 408.093 -3.631 -1.04721 0
M  V30 4430 H 408.406 -7.57428 -1.53372 0
M  V30 4431 H 406.751 -6.81037 -1.38613 0
M  V30 4432 H 409.942 -4.5203 -1.21601 0
M  V30 4433 H 410.115 -6.31841 -1.43808 0
M  V30 4434 N 403.521 0.559213 -1.47345 0
M  V30 4435 C 404.751 1.33999 -1.57251 0
M  V30 4436 C 405.159 1.87905 -0.220978 0
M  V30 4437 O 404.502 1.65577 0.795617 0
M  V30 4438 C 404.564 2.54798 -2.53611 0
M  V30 4439 C 404.228 2.22192 -3.99349 0
M  V30 4440 C 405.225 1.79607 -4.87891 0
M  V30 4441 C 402.91 2.33613 -4.44669 0
M  V30 4442 C 404.904 1.48868 -6.19772 0
M  V30 4443 C 402.591 2.02487 -5.76578 0
M  V30 4444 C 403.589 1.60183 -6.63951 0
M  V30 4445 O 403.277 1.29451 -7.93409 0
M  V30 4446 H 403.009 0.414858 -0.533731 0
M  V30 4447 H 405.563 0.684465 -1.9366 0
M  V30 4448 H 403.793 3.23235 -2.12265 0
M  V30 4449 H 405.482 3.16873 -2.53666 0
M  V30 4450 H 406.248 1.70278 -4.54126 0
M  V30 4451 H 402.127 2.65501 -3.76869 0
M  V30 4452 H 405.671 1.15775 -6.87926 0
M  V30 4453 H 401.568 2.11448 -6.09885 0
M  V30 4454 H 402.336 1.43098 -8.05894 0
M  V30 4455 N 404.999 1.35443 0.805782 0
M  V30 4456 C 406.224 1.32037 1.59941 0
M  V30 4457 C 406.649 -0.0994215 1.87837 0
M  V30 4458 O 406.007 -1.06648 1.46615 0
M  V30 4459 C 406.055 2.13354 2.90711 0
M  V30 4460 O 405.159 1.5148 3.83572 0
M  V30 4461 H 404.5 0.452666 0.485787 0
M  V30 4462 H 407.03 1.78496 1.00002 0
M  V30 4463 H 407.04 2.25338 3.40128 0
M  V30 4464 H 405.715 3.16572 2.69732 0
M  V30 4465 H 404.292 1.4834 3.42125 0
M  V30 4466 N 406.477 -1.02803 1.19454 0
M  V30 4467 C 407.725 -1.75869 0.995722 0
M  V30 4468 C 408.046 -1.89138 -0.474543 0
M  V30 4469 O 407.316 -1.42558 -1.34366 0
M  V30 4470 H 405.896 -0.651511 0.365435 0
M  V30 4471 H 408.558 -1.24004 1.50363 0
M  V30 4472 H 407.654 -2.76661 1.44447 0
M  V30 4473 N 407.956 -0.998596 -1.21925 0
M  V30 4474 C 409.202 -0.678667 -1.91107 0
M  V30 4475 C 409.535 0.78791 -1.77498 0
M  V30 4476 O 408.81 1.57043 -1.1475 0
M  V30 4477 C 409.093 -1.09245 -3.43129 0
M  V30 4478 C 408.946 -2.61801 -3.6576 0
M  V30 4479 C 410.265 -0.649984 -4.35274 0
M  V30 4480 H 407.384 -0.248025 -0.694012 0
M  V30 4481 H 410.026 -1.24314 -1.43688 0
M  V30 4482 H 408.176 -0.612171 -3.83647 0
M  V30 4483 H 409.848 -3.17543 -3.34611 0
M  V30 4484 H 408.091 -3.03609 -3.09845 0
M  V30 4485 H 408.762 -2.85804 -4.7225 0
M  V30 4486 H 411.238 -1.0626 -4.02303 0
M  V30 4487 H 410.114 -0.967743 -5.40302 0
M  V30 4488 H 410.375 0.449139 -4.39813 0
M  V30 4489 N 409.434 1.37368 -0.772513 0
M  V30 4490 C 410.382 2.32134 -0.147111 0
M  V30 4491 C 411.376 1.54972 0.684106 0
M  V30 4492 O 412.582 1.70363 0.581083 0
M  V30 4493 H 408.957 0.751449 -0.028786 0
M  V30 4494 H 410.928 2.82464 -0.962112 0
M  V30 4495 C 409.677 3.40226 0.71703 0
M  V30 4496 H 409 3.99706 0.0867951 0
M  V30 4497 H 410.44 4.08897 1.12159 0
M  V30 4498 C 408.899 2.80372 1.86797 0
M  V30 4499 O 409.429 2.71183 2.96349 0
M  V30 4500 N 407.635 2.37904 1.66883 0
M  V30 4501 H 407.182 2.45578 0.777759 0
M  V30 4502 H 407.14 1.98202 2.44056 0
M  V30 4503 N 410.912 0.523116 1.48665 0
M  V30 4504 C 411.842 -0.23231 2.32342 0
M  V30 4505 C 412.823 -0.941637 1.41659 0
M  V30 4506 O 414.008 -0.928751 1.70552 0
M  V30 4507 C 411.138 -1.28387 3.22698 0
M  V30 4508 C 410.092 -0.693098 4.22351 0
M  V30 4509 C 409.418 -1.8468 5.01794 0
M  V30 4510 C 410.718 0.33063 5.21252 0
M  V30 4511 H 412.412 0.466192 2.95748 0
M  V30 4512 H 409.958 0.225643 1.42221 0
M  V30 4513 H 411.911 -1.82024 3.80059 0
M  V30 4514 H 410.635 -2.01186 2.57278 0
M  V30 4515 H 409.294 -0.178299 3.66166 0
M  V30 4516 H 408.942 -2.56301 4.32804 0
M  V30 4517 H 408.642 -1.45747 5.69238 0
M  V30 4518 H 410.166 -2.38709 5.62006 0
M  V30 4519 H 411.58 -0.118407 5.73178 0
M  V30 4520 H 409.977 0.636974 5.9671 0
M  V30 4521 H 411.047 1.23883 4.68808 0
M  V30 4522 N 412.39 -1.55475 0.257931 0
M  V30 4523 C 413.618 -2.03609 -0.367559 0
M  V30 4524 C 414.033 -1.13687 -1.50734 0
M  V30 4525 O 413.39 -0.153479 -1.81853 0
M  V30 4526 C 413.441 -3.51001 -0.864908 0
M  V30 4527 O 413.162 -4.37499 0.229465 0
M  V30 4528 C 414.663 -4.14946 -1.55997 0
M  V30 4529 H 411.883 -0.665459 -0.0860521 0
M  V30 4530 H 414.427 -2.00843 0.385014 0
M  V30 4531 H 412.582 -3.54266 -1.56762 0
M  V30 4532 H 412.996 -5.24286 -0.14998 0
M  V30 4533 H 414.47 -5.19735 -1.85956 0
M  V30 4534 H 414.947 -3.6209 -2.4857 0
M  V30 4535 H 415.553 -4.15635 -0.901543 0
M  V30 4536 N 413.868 0.0150385 -1.57593 0
M  V30 4537 C 415.116 0.701613 -1.8953 0
M  V30 4538 C 415.437 1.75139 -0.857396 0
M  V30 4539 O 414.707 1.95607 0.107194 0
M  V30 4540 H 413.287 0.26213 -0.699498 0
M  V30 4541 H 415.949 -0.0223304 -1.94887 0
M  V30 4542 H 415.045 1.18236 -2.88837 0
M  V30 4543 N 415.346 1.54954 0.287554 0
M  V30 4544 C 416.593 1.74873 1.02106 0
M  V30 4545 C 416.921 0.541829 1.86801 0
M  V30 4546 O 416.176 -0.475992 1.89823 0
M  V30 4547 C 416.475 2.99833 1.94512 0
M  V30 4548 C 416.141 4.33029 1.25686 0
M  V30 4549 C 414.803 4.69233 1.06649 0
M  V30 4550 C 417.155 5.15542 0.765913 0
M  V30 4551 C 414.483 5.85518 0.372222 0
M  V30 4552 C 416.835 6.32542 0.0853101 0
M  V30 4553 C 415.499 6.67398 -0.1169 0
M  V30 4554 H 414.769 0.639906 0.373632 0
M  V30 4555 H 417.416 1.89219 0.294665 0
M  V30 4556 H 415.721 2.80325 2.73725 0
M  V30 4557 H 417.418 3.1244 2.51361 0
M  V30 4558 H 414.008 4.04564 1.41512 0
M  V30 4559 H 418.192 4.88059 0.90066 0
M  V30 4560 H 413.448 6.11057 0.204695 0
M  V30 4561 H 417.622 6.95741 -0.302936 0
M  V30 4562 H 415.249 7.57357 -0.656859 0
M  V30 4563 N 416.824 -0.551391 1.4764 0
M  V30 4564 C 418.24 -0.877887 1.33287 0
M  V30 4565 C 418.44 -1.98817 0.327721 0
M  V30 4566 O 417.496 -2.51171 -0.258695 0
M  V30 4567 C 418.809 -1.26563 2.72768 0
M  V30 4568 C 420.357 -1.37673 2.81097 0
M  V30 4569 C 420.832 -1.79799 4.21232 0
M  V30 4570 N 422.323 -1.8694 4.23802 0
M  V30 4571 C 423.058 -2.20876 5.29151 0
M  V30 4572 N 422.554 -2.53386 6.448 0
M  V30 4573 N 424.347 -2.217 5.16532 0
M  V30 4574 H 416.498 0.18153 2.11623 0
M  V30 4575 H 418.761 0.0185514 0.947818 0
M  V30 4576 H 418.467 -0.523591 3.47781 0
M  V30 4577 H 418.341 -2.22052 3.04915 0
M  V30 4578 H 420.728 -2.10956 2.06353 0
M  V30 4579 H 420.809 -0.40357 2.52596 0
M  V30 4580 H 420.453 -1.07083 4.96483 0
M  V30 4581 H 420.383 -2.78128 4.4716 0
M  V30 4582 H 422.874 -1.64179 3.40373 0
M  V30 4583 H 423.187 -2.78325 7.20941 0
M  V30 4584 H 421.532 -2.50953 6.48111 0
M  V30 4585 H 424.723 -1.95745 4.25207 0
M  V30 4586 H 424.896 -2.47818 5.98741 0
M  V30 4587 N 418.302 -1.35869 -0.798587 0
M  V30 4588 C 419.551 -1.28921 -1.5512 0
M  V30 4589 C 419.864 0.13208 -1.95154 0
M  V30 4590 O 421.07 0.323879 -2.69561 0
M  V30 4591 C 419.526 -2.26141 -2.79979 0
M  V30 4592 C 419.134 -3.73658 -2.47151 0
M  V30 4593 C 420.878 -2.28152 -3.57976 0
M  V30 4594 C 418.785 -4.62679 -3.6835 0
M  V30 4595 H 417.715 -0.479031 -0.582276 0
M  V30 4596 H 420.366 -1.61179 -0.877125 0
M  V30 4597 H 418.748 -1.86865 -3.49138 0
M  V30 4598 H 419.922 -4.21616 -1.85947 0
M  V30 4599 H 418.237 -3.74333 -1.82383 0
M  V30 4600 H 420.834 -2.91875 -4.4801 0
M  V30 4601 H 421.177 -1.28748 -3.95891 0
M  V30 4602 H 421.71 -2.65998 -2.95787 0
M  V30 4603 H 418.449 -5.63111 -3.35538 0
M  V30 4604 H 417.969 -4.19442 -4.28752 0
M  V30 4605 H 419.648 -4.78498 -4.35487 0
M  V30 4606 N 419.78 1.02168 -1.19998 0
M  V30 4607 C 420.71 2.12488 -0.96804 0
M  V30 4608 C 421.691 1.69799 0.101185 0
M  V30 4609 O 422.876 1.94121 -0.0552993 0
M  V30 4610 C 420.006 3.43479 -0.513776 0
M  V30 4611 C 418.96 3.99884 -1.52566 0
M  V30 4612 C 418.286 5.26582 -0.928214 0
M  V30 4613 C 419.586 4.33861 -2.90795 0
M  V30 4614 H 421.28 2.32149 -1.89069 0
M  V30 4615 H 418.826 1.11564 -0.910468 0
M  V30 4616 H 420.779 4.20036 -0.338774 0
M  V30 4617 H 419.503 3.23561 0.444493 0
M  V30 4618 H 418.162 3.25429 -1.68794 0
M  V30 4619 H 417.81 5.02986 0.0378289 0
M  V30 4620 H 417.51 5.65284 -1.60397 0
M  V30 4621 H 419.034 6.05799 -0.764167 0
M  V30 4622 H 420.448 5.01327 -2.78109 0
M  V30 4623 H 418.845 4.83664 -3.55231 0
M  V30 4624 H 419.915 3.42848 -3.42904 0
M  V30 4625 N 421.258 1.00505 1.21394 0
M  V30 4626 C 422.206 0.558623 2.25792 0
M  V30 4627 C 423.2 -0.396848 1.64686 0
M  V30 4628 O 424.406 -0.268035 1.77993 0
M  V30 4629 H 420.781 0.1623 0.734277 0
M  V30 4630 H 422.752 1.4503 2.60785 0
M  V30 4631 C 421.501 -0.0989574 3.47559 0
M  V30 4632 H 420.824 0.627225 3.94849 0
M  V30 4633 H 422.264 -0.3746 4.22342 0
M  V30 4634 C 420.723 -1.33817 3.09184 0
M  V30 4635 O 421.253 -2.43252 3.19674 0
M  V30 4636 N 419.459 -1.21793 2.63846 0
M  V30 4637 H 419.006 -0.32746 2.5551 0
M  V30 4638 H 418.964 -2.04809 2.38539 0
M  V30 4639 N 422.737 -1.36956 0.779787 0
M  V30 4640 C 423.983 -1.99787 0.348281 0
M  V30 4641 C 424.316 -1.61756 -1.07465 0
M  V30 4642 O 423.591 -0.867639 -1.74075 0
M  V30 4643 C 423.874 -3.56597 0.50104 0
M  V30 4644 C 423.727 -4.04513 1.96697 0
M  V30 4645 C 425.046 -4.40008 -0.0898097 0
M  V30 4646 H 422.165 -0.725796 0.128022 0
M  V30 4647 H 424.807 -1.62514 0.984331 0
M  V30 4648 H 422.957 -3.88479 -0.0404347 0
M  V30 4649 H 424.629 -3.83161 2.56876 0
M  V30 4650 H 422.872 -3.56408 2.47297 0
M  V30 4651 H 423.543 -5.1352 2.02486 0
M  V30 4652 H 426.019 -4.14431 0.372293 0
M  V30 4653 H 424.895 -5.4888 0.0471605 0
M  V30 4654 H 425.156 -4.26035 -1.18096 0
M  V30 4655 N 424.215 -0.530993 -1.48385 0
M  V30 4656 C 425.492 0.0671788 -1.95485 0
M  V30 4657 C 425.872 1.51191 -1.47324 0
M  V30 4658 O 425.22 2.17507 -0.700202 0
M  V30 4659 C 425.43 -0.0511206 -3.48963 0
M  V30 4660 C 426.778 0.107632 -4.24464 0
M  V30 4661 O 427.802 0.0226248 -3.56193 0
M  V30 4662 O 426.661 0.285972 -5.45751 0
M  V30 4663 H 423.755 0.0787365 -0.823243 0
M  V30 4664 H 426.301 -0.595662 -1.58902 0
M  V30 4665 H 425.073 -1.05747 -3.7674 0
M  V30 4666 H 424.696 0.650525 -3.92242 0
M  V30 4667 N 425.693 1.55336 -0.266172 0
M  V30 4668 C 426.641 2.23587 0.641228 0
M  V30 4669 C 427.635 1.22986 1.16494 0
M  V30 4670 O 428.841 1.40943 1.1196 0
M  V30 4671 H 425.216 0.717452 0.225315 0
M  V30 4672 H 427.187 2.9837 0.0426561 0
M  V30 4673 C 425.936 2.96369 1.81826 0
M  V30 4674 H 425.259 3.73563 1.42445 0
M  V30 4675 H 426.699 3.47459 2.42998 0
M  V30 4676 C 425.158 2.0133 2.70125 0
M  V30 4677 O 425.688 1.55875 3.70224 0
M  V30 4678 N 423.894 1.6802 2.37102 0
M  V30 4679 H 423.441 2.05181 1.55751 0
M  V30 4680 H 423.399 1.047 2.96454 0
M  V30 4681 N 427.171 -0.0066808 1.57599 0
M  V30 4682 C 428.582 -0.550379 1.78403 0
M  V30 4683 C 428.933 -1.74339 0.900014 0
M  V30 4684 O 428.058 -2.16166 0.100713 0
M  V30 4685 C 428.653 -1.00523 3.23544 0
M  V30 4686 C 427.212 -1.49428 3.45468 0
M  V30 4687 C 426.359 -0.442444 2.73748 0
M  V30 4688 H 429.31 0.219508 1.57175 0
M  V30 4689 H 429.331 -1.87157 3.31289 0
M  V30 4690 H 428.843 -0.136735 3.87859 0
M  V30 4691 H 426.944 -2.3839 2.86358 0
M  V30 4692 H 427.057 -1.52635 4.54136 0
M  V30 4693 H 425.421 -0.902578 2.38171 0
M  V30 4694 H 426.204 0.416973 3.40758 0
M  V30 4695 N 428.649 -1.55105 -0.279332 0
M  V30 4696 C 429.599 -1.83937 -1.34727 0
M  V30 4697 C 430.583 -0.69785 -1.44979 0
M  V30 4698 O 431.775 -0.95904 -1.48766 0
M  V30 4699 C 428.904 -2.1092 -2.70864 0
M  V30 4700 C 427.99 -3.31314 -2.64748 0
M  V30 4701 N 428.381 -4.51371 -2.2825 0
M  V30 4702 C 426.679 -3.33777 -2.95819 0
M  V30 4703 C 427.38 -5.33447 -2.31969 0
M  V30 4704 N 426.356 -4.71697 -2.7019 0
M  V30 4705 H 430.158 -2.74309 -1.05506 0
M  V30 4706 H 427.672 -1.54896 -0.487959 0
M  V30 4707 H 429.669 -2.2973 -3.47893 0
M  V30 4708 H 428.329 -1.21828 -3.00979 0
M  V30 4709 H 429.34 -4.77584 -2.00335 0
M  V30 4710 H 426.017 -2.54858 -3.30687 0
M  V30 4711 H 427.407 -6.39424 -2.06365 0
M  V30 4712 N 430.127 0.543554 -1.4793 0
M  V30 4713 C 431.373 1.30201 -1.55485 0
M  V30 4714 C 431.706 1.92925 -0.222201 0
M  V30 4715 O 430.981 1.78586 0.77053 0
M  V30 4716 C 431.264 2.40174 -2.68307 0
M  V30 4717 C 431.117 1.8223 -4.11233 0
M  V30 4718 C 432.436 3.42024 -2.76961 0
M  V30 4719 H 429.555 0.472036 -0.565996 0
M  V30 4720 H 432.197 0.606914 -1.80046 0
M  V30 4721 H 430.347 2.99463 -2.47495 0
M  V30 4722 H 432.019 1.27096 -4.43446 0
M  V30 4723 H 430.262 1.12832 -4.18869 0
M  V30 4724 H 430.933 2.61793 -4.85972 0
M  V30 4725 H 433.409 2.92672 -2.95774 0
M  V30 4726 H 432.285 4.16383 -3.57654 0
M  V30 4727 H 432.546 4.0173 -1.84568 0
M  V30 4728 N 431.605 1.3629 0.791371 0
M  V30 4729 C 432.83 1.33726 1.58531 0
M  V30 4730 C 433.255 -0.0794933 1.87932 0
M  V30 4731 O 432.613 -1.05087 1.47738 0
M  V30 4732 C 432.661 2.16425 2.88431 0
M  V30 4733 O 431.765 1.5554 3.81944 0
M  V30 4734 H 431.106 0.457793 0.480959 0
M  V30 4735 H 433.636 1.79547 0.981031 0
M  V30 4736 H 433.646 2.28933 3.37718 0
M  V30 4737 H 432.321 3.19415 2.66359 0
M  V30 4738 H 430.898 1.51961 3.40532 0
M  V30 4739 N 433.083 -1.0153 1.20538 0
M  V30 4740 C 434.046 -2.0826 0.957098 0
M  V30 4741 C 435.046 -1.60657 -0.0678655 0
M  V30 4742 O 436.236 -1.73385 0.168332 0
M  V30 4743 C 433.368 -3.38033 0.441188 0
M  V30 4744 H 434.561 -2.31719 1.90384 0
M  V30 4745 H 432.114 -1.1835 1.02093 0
M  V30 4746 H 432.849 -3.20249 -0.510961 0
M  V30 4747 H 432.634 -3.73911 1.18038 0
M  V30 4748 H 434.124 -4.16613 0.287009 0
M  V30 4749 N 434.561 -1.01147 -1.20859 0
M  V30 4750 C 435.81 -0.693214 -1.89413 0
M  V30 4751 C 436.123 0.779969 -1.79376 0
M  V30 4752 O 437.329 1.21057 -2.43017 0
M  V30 4753 C 435.785 -1.18949 -3.39675 0
M  V30 4754 C 435.393 -2.68921 -3.58309 0
M  V30 4755 C 437.137 -0.94642 -4.13815 0
M  V30 4756 C 435.044 -3.12056 -5.0237 0
M  V30 4757 H 433.974 -0.255595 -0.709357 0
M  V30 4758 H 436.625 -1.22349 -1.36759 0
M  V30 4759 H 435.007 -0.587228 -3.91622 0
M  V30 4760 H 436.181 -3.34652 -3.16772 0
M  V30 4761 H 434.496 -2.91314 -2.97532 0
M  V30 4762 H 437.093 -1.24417 -5.20023 0
M  V30 4763 H 437.436 0.117219 -4.16135 0
M  V30 4764 H 437.969 -1.5118 -3.67953 0
M  V30 4765 H 434.708 -4.17674 -5.05202 0
M  V30 4766 H 434.228 -2.51041 -5.44737 0
M  V30 4767 H 435.907 -3.04403 -5.70918 0
M  V30 4768 N 436.039 1.36541 -0.78704 0
M  V30 4769 C 437.285 1.99599 -0.358872 0
M  V30 4770 C 437.618 1.62323 1.06606 0
M  V30 4771 O 436.893 0.876858 1.73613 0
M  V30 4772 C 437.176 3.56327 -0.519944 0
M  V30 4773 C 437.029 4.03464 -1.98839 0
M  V30 4774 C 438.348 4.4005 0.0664737 0
M  V30 4775 H 435.467 0.725107 -0.131869 0
M  V30 4776 H 438.109 1.6199 -0.992936 0
M  V30 4777 H 436.259 3.88495 0.0198321 0
M  V30 4778 H 437.931 3.81793 -2.58905 0
M  V30 4779 H 436.174 3.55092 -2.49183 0
M  V30 4780 H 436.845 5.12439 -2.05207 0
M  V30 4781 H 439.321 4.14228 -0.394267 0
M  V30 4782 H 438.197 5.48847 -0.0762682 0
M  V30 4783 H 438.458 4.26655 1.15835 0
M  V30 4784 N 437.518 0.538854 1.48102 0
M  V30 4785 C 438.428 -0.222648 2.33541 0
M  V30 4786 C 439.444 -0.930225 1.47047 0
M  V30 4787 O 440.62 -0.903211 1.80011 0
M  V30 4788 C 437.685 -1.25064 3.23357 0
M  V30 4789 C 436.746 -0.552469 4.2573 0
M  V30 4790 C 435.979 -1.53149 5.11254 0
M  V30 4791 O 436.202 -2.76487 4.9891 0
M  V30 4792 O 435.136 -1.06602 5.92385 0
M  V30 4793 H 438.962 0.477707 2.99919 0
M  V30 4794 H 436.547 0.299669 1.46364 0
M  V30 4795 H 438.429 -1.8445 3.78888 0
M  V30 4796 H 437.104 -1.93325 2.59629 0
M  V30 4797 H 436.011 0.082114 3.7401 0
M  V30 4798 H 437.344 0.0883526 4.92121 0
M  V30 4799 N 438.996 -1.55193 0.274407 0
M  V30 4800 C 439.943 -2.225 -0.613374 0
M  V30 4801 C 440.913 -1.19823 -1.15029 0
M  V30 4802 O 442.098 -1.48362 -1.19973 0
M  V30 4803 C 439.238 -2.94927 -1.79199 0
M  V30 4804 C 438.351 -4.12322 -1.28899 0
M  V30 4805 C 437.486 -4.72394 -2.42934 0
M  V30 4806 C 436.525 -5.81984 -1.89634 0
M  V30 4807 N 435.662 -6.36123 -2.9714 0
M  V30 4808 H 440.502 -2.97982 -0.032756 0
M  V30 4809 H 438.039 -1.47099 -0.00440146 0
M  V30 4810 H 439.997 -3.35134 -2.48478 0
M  V30 4811 H 438.627 -2.2187 -2.34465 0
M  V30 4812 H 437.679 -3.7724 -0.489327 0
M  V30 4813 H 438.991 -4.91355 -0.858587 0
M  V30 4814 H 438.145 -5.15317 -3.20208 0
M  V30 4815 H 436.884 -3.92636 -2.8929 0
M  V30 4816 H 435.889 -5.38511 -1.1084 0
M  V30 4817 H 437.114 -6.6361 -1.44215 0
M  V30 4818 H 435.06 -5.59259 -3.42878 0
M  V30 4819 H 434.977 -7.10427 -2.58515 0
M  V30 4820 H 436.245 -6.83704 -3.74391 0
M  V30 4821 N 440.474 -0.00167713 -1.576 0
M  V30 4822 C 441.72 0.67819 -1.91761 0
M  V30 4823 C 442.075 1.71288 -0.876256 0
M  V30 4824 O 441.368 1.91276 0.111333 0
M  V30 4825 C 441.562 1.36189 -3.30435 0
M  V30 4826 C 441.391 0.394938 -4.47962 0
M  V30 4827 C 440.161 0.00472875 -5.053 0
M  V30 4828 C 442.359 -0.339521 -5.13178 0
M  V30 4829 N 440.341 -0.960257 -6.06343 0
M  V30 4830 C 441.712 -1.15914 -6.09068 0
M  V30 4831 C 443.767 -0.403177 -4.96265 0
M  V30 4832 C 442.47 -2.03661 -6.89866 0
M  V30 4833 C 444.496 -1.26788 -5.77649 0
M  V30 4834 C 443.858 -2.07535 -6.73134 0
M  V30 4835 H 439.957 0.221317 -0.750028 0
M  V30 4836 H 442.541 -0.0624182 -1.946 0
M  V30 4837 H 440.712 2.07278 -3.28467 0
M  V30 4838 H 442.444 1.99658 -3.52021 0
M  V30 4839 H 439.199 0.373452 -4.72125 0
M  V30 4840 H 439.623 -1.43817 -6.61548 0
M  V30 4841 H 444.265 0.206818 -4.22294 0
M  V30 4842 H 441.983 -2.65727 -7.63161 0
M  V30 4843 H 445.569 -1.32107 -5.66603 0
M  V30 4844 H 444.449 -2.73363 -7.35012 0
M  V30 4845 N 441.952 1.55251 0.271103 0
M  V30 4846 C 443.177 1.80306 1.02491 0
M  V30 4847 C 443.602 0.575457 1.79081 0
M  V30 4848 O 442.96 -0.474987 1.74967 0
M  V30 4849 C 443.008 3.02832 1.95768 0
M  V30 4850 O 442.112 2.78051 3.04568 0
M  V30 4851 H 441.453 0.595896 0.292923 0
M  V30 4852 H 443.983 2.02397 0.299436 0
M  V30 4853 H 443.993 3.31616 2.37686 0
M  V30 4854 H 442.668 3.9183 1.39434 0
M  V30 4855 H 441.245 2.60369 2.66951 0
M  V30 4856 N 443.43 -0.535701 1.48216 0
M  V30 4857 C 444.363 -1.65726 1.56876 0
M  V30 4858 C 445.341 -1.57094 0.419542 0
M  V30 4859 O 446.525 -1.77648 0.630352 0
M  V30 4860 C 443.652 -3.04096 1.49142 0
M  V30 4861 C 442.698 -3.31105 2.68834 0
M  V30 4862 S 443.531 -3.18001 4.30854 0
M  V30 4863 C 444.687 -4.58828 4.25709 0
M  V30 4864 H 444.92 -1.58129 2.51759 0
M  V30 4865 H 442.453 -0.718218 1.36678 0
M  V30 4866 H 444.411 -3.839 1.45366 0
M  V30 4867 H 443.072 -3.09139 0.556067 0
M  V30 4868 H 442.265 -4.32033 2.59545 0
M  V30 4869 H 441.867 -2.58961 2.69843 0
M  V30 4870 H 444.159 -5.5023 3.95289 0
M  V30 4871 H 445.102 -4.73172 5.26796 0
M  V30 4872 H 445.51 -4.37883 3.56257 0
M  V30 4873 N 444.908 -1.36708 -0.784132 0
M  V30 4874 C 445.818 -1.3363 -1.92822 0
M  V30 4875 C 446.834 -0.237686 -1.72369 0
M  V30 4876 O 448.01 -0.470962 -1.95816 0
M  V30 4877 C 445.075 -1.13011 -3.27764 0
M  V30 4878 C 444.136 -2.32397 -3.60957 0
M  V30 4879 C 443.369 -2.12752 -4.89461 0
M  V30 4880 O 443.592 -1.10541 -5.59586 0
M  V30 4881 O 442.526 -3.00653 -5.21432 0
M  V30 4882 H 446.352 -2.29964 -1.98369 0
M  V30 4883 H 443.937 -1.1731 -0.925136 0
M  V30 4884 H 445.819 -1.03451 -4.08504 0
M  V30 4885 H 444.494 -0.19743 -3.23097 0
M  V30 4886 H 443.401 -2.47527 -2.80502 0
M  V30 4887 H 444.734 -3.2419 -3.70354 0
M  V30 4888 N 446.386 1.0089 -1.21074 0
M  V30 4889 C 447.802 1.2695 -0.967257 0
M  V30 4890 C 448.002 1.9846 0.348673 0
M  V30 4891 O 447.058 2.28459 1.0753 0
M  V30 4892 C 448.371 2.09697 -2.15517 0
M  V30 4893 C 449.919 2.22937 -2.197 0
M  V30 4894 C 450.394 3.09064 -3.37999 0
M  V30 4895 N 451.885 3.16653 -3.38061 0
M  V30 4896 C 452.62 3.8354 -4.26245 0
M  V30 4897 N 452.116 4.52488 -5.2462 0
M  V30 4898 N 453.909 3.80141 -4.14064 0
M  V30 4899 H 446.06 0.529005 -2.05707 0
M  V30 4900 H 448.323 0.296148 -0.900556 0
M  V30 4901 H 448.029 1.64497 -3.10859 0
M  V30 4902 H 447.903 3.10444 -2.14253 0
M  V30 4903 H 450.29 2.67357 -1.24916 0
M  V30 4904 H 450.371 1.21673 -2.2501 0
M  V30 4905 H 450.015 2.65347 -4.33074 0
M  V30 4906 H 449.945 4.10433 -3.29928 0
M  V30 4907 H 452.436 2.67566 -2.66865 0
M  V30 4908 H 452.749 5.01219 -5.88217 0
M  V30 4909 H 451.094 4.51288 -5.28549 0
M  V30 4910 H 454.285 3.25427 -3.36474 0
M  V30 4911 H 454.458 4.31992 -4.82998 0
M  V30 4912 N 447.864 1.01787 1.20321 0
M  V30 4913 C 448.794 0.609625 2.25401 0
M  V30 4914 C 449.775 -0.375951 1.65893 0
M  V30 4915 O 450.96 -0.261101 1.92437 0
M  V30 4916 C 448.09 -0.0515995 3.47262 0
M  V30 4917 C 447.044 0.855095 4.19371 0
M  V30 4918 C 446.37 0.0595757 5.34667 0
M  V30 4919 C 447.67 2.16374 4.75373 0
M  V30 4920 H 449.364 1.48803 2.59804 0
M  V30 4921 H 446.91 0.716934 1.24884 0
M  V30 4922 H 448.863 -0.348764 4.19954 0
M  V30 4923 H 447.587 -0.964726 3.12027 0
M  V30 4924 H 446.246 1.13628 3.48546 0
M  V30 4925 H 445.894 -0.85524 4.95676 0
M  V30 4926 H 445.594 0.663406 5.83843 0
M  V30 4927 H 447.118 -0.231105 6.10162 0
M  V30 4928 H 448.532 1.92885 5.39878 0
M  V30 4929 H 446.929 2.71853 5.34991 0
M  V30 4930 H 447.999 2.82589 3.94045 0
M  V30 4931 N 449.342 -1.36122 0.79427 0
M  V30 4932 C 450.274 -2.28683 0.153903 0
M  V30 4933 C 451.287 -1.49707 -0.639669 0
M  V30 4934 O 452.476 -1.7209 -0.474054 0
M  V30 4935 C 449.576 -3.29202 -0.804921 0
M  V30 4936 C 448.749 -4.37358 -0.060366 0
M  V30 4937 C 447.808 -5.17811 -0.935849 0
M  V30 4938 O 446.834 -5.67853 -0.391309 0
M  V30 4939 N 448.036 -5.34721 -2.25951 0
M  V30 4940 H 450.801 -2.84278 0.949008 0
M  V30 4941 H 448.362 -1.4834 0.648611 0
M  V30 4942 H 450.354 -3.79914 -1.39455 0
M  V30 4943 H 448.924 -2.74212 -1.50088 0
M  V30 4944 H 448.144 -3.87746 0.710382 0
M  V30 4945 H 449.432 -5.06777 0.45324 0
M  V30 4946 H 448.83 -4.95687 -2.72601 0
M  V30 4947 H 447.387 -5.88657 -2.79867 0
M  V30 4948 N 450.82 -0.546701 -1.47814 0
M  V30 4949 C 451.783 0.196287 -2.28358 0
M  V30 4950 C 452.783 0.852437 -1.36346 0
M  V30 4951 O 453.973 0.709913 -1.59078 0
M  V30 4952 C 451.105 1.28579 -3.15722 0
M  V30 4953 H 452.298 -0.511086 -2.95513 0
M  V30 4954 H 449.851 -0.303248 -1.5333 0
M  V30 4955 H 450.586 2.0259 -2.53235 0
M  V30 4956 H 450.371 0.820229 -3.83425 0
M  V30 4957 H 451.861 1.80793 -3.76435 0
M  V30 4958 N 452.299 1.55045 -0.282633 0
M  V30 4959 C 453.262 2.21515 0.588539 0
M  V30 4960 C 454.262 1.19535 1.07554 0
M  V30 4961 O 455.452 1.44391 0.974514 0
M  V30 4962 C 452.584 2.88704 1.8128 0
M  V30 4963 H 453.777 2.99899 0.00806397 0
M  V30 4964 H 451.33 1.56265 -0.0333067 0
M  V30 4965 H 452.065 2.14352 2.43359 0
M  V30 4966 H 451.85 3.63443 1.47144 0
M  V30 4967 H 453.34 3.39465 2.43214 0
M  V30 4968 N 453.777 0.010035 1.57597 0
M  V30 4969 C 455.188 -0.531426 1.78977 0
M  V30 4970 C 455.539 -1.73375 0.918454 0
M  V30 4971 O 454.664 -2.16047 0.123635 0
M  V30 4972 C 455.259 -0.97086 3.24592 0
M  V30 4973 C 453.818 -1.45756 3.47033 0
M  V30 4974 C 452.965 -0.413384 2.74201 0
M  V30 4975 H 455.916 0.236166 1.56933 0
M  V30 4976 H 455.937 -1.83633 3.33255 0
M  V30 4977 H 455.449 -0.0955893 3.87982 0
M  V30 4978 H 453.55 -2.35339 2.88871 0
M  V30 4979 H 453.663 -1.4781 4.55729 0
M  V30 4980 H 452.027 -0.877266 2.39115 0
M  V30 4981 H 452.81 0.453092 3.40297 0
M  V30 4982 N 455.255 -1.55392 -0.262866 0
M  V30 4983 C 456.671 -1.47459 -0.610582 0
M  V30 4984 C 456.871 -0.697031 -1.8906 0
M  V30 4985 O 455.927 -0.219952 -2.5154 0
M  V30 4986 C 457.24 -2.91751 -0.728131 0
M  V30 4987 C 458.788 -3.02027 -0.821517 0
M  V30 4988 C 459.263 -4.47594 -0.97076 0
M  V30 4989 N 460.754 -4.51465 -1.03603 0
M  V30 4990 C 461.489 -5.61326 -1.17049 0
M  V30 4991 N 460.985 -6.81032 -1.2715 0
M  V30 4992 N 462.778 -5.49089 -1.20239 0
M  V30 4993 H 454.929 -2.04395 0.577632 0
M  V30 4994 H 457.192 -0.927287 0.197086 0
M  V30 4995 H 456.898 -3.51413 0.142132 0
M  V30 4996 H 456.772 -3.4134 -1.6052 0
M  V30 4997 H 459.159 -2.42456 -1.68224 0
M  V30 4998 H 459.24 -2.55674 0.0803688 0
M  V30 4999 H 458.884 -5.07771 -0.114655 0
M  V30 5000 H 458.814 -4.91613 -1.88745 0
M  V30 5001 H 461.305 -3.6524 -0.96996 0
M  V30 5002 H 461.618 -7.60511 -1.37271 0
M  V30 5003 H 459.963 -6.83824 -1.24136 0
M  V30 5004 H 463.154 -4.54507 -1.11985 0
M  V30 5005 H 463.327 -6.34749 -1.30373 0
M  V30 5006 N 456.733 0.527833 -1.48498 0
M  V30 5007 C 457.958 1.313 -1.60546 0
M  V30 5008 C 458.383 1.86199 -0.26672 0
M  V30 5009 O 457.741 1.64513 0.761918 0
M  V30 5010 C 457.789 2.43818 -2.65678 0
M  V30 5011 O 456.893 3.46916 -2.22987 0
M  V30 5012 H 456.234 0.388784 -0.538277 0
M  V30 5013 H 458.764 0.634896 -1.945 0
M  V30 5014 H 458.774 2.89973 -2.87018 0
M  V30 5015 H 457.449 2.03222 -3.62869 0
M  V30 5016 H 456.026 3.06864 -2.11869 0
M  V30 5017 N 458.211 1.37122 0.776871 0
M  V30 5018 C 459.121 1.34651 1.9211 0
M  V30 5019 C 460.137 0.246824 1.7224 0
M  V30 5020 O 461.313 0.48134 1.95563 0
M  V30 5021 C 458.378 1.14748 3.2716 0
M  V30 5022 C 457.439 2.34308 3.5972 0
M  V30 5023 C 456.672 2.15345 4.88326 0
M  V30 5024 O 456.895 1.13507 5.58992 0
M  V30 5025 O 455.829 3.03414 5.1983 0
M  V30 5026 H 459.655 2.31013 1.97146 0
M  V30 5027 H 457.24 1.17799 0.918901 0
M  V30 5028 H 459.122 1.05616 4.0795 0
M  V30 5029 H 457.797 0.214562 3.22988 0
M  V30 5030 H 456.704 2.49011 2.79185 0
M  V30 5031 H 458.037 3.26149 3.68629 0
M  V30 5032 N 459.689 -1.00246 1.21608 0
M  V30 5033 C 460.914 -1.78167 1.06167 0
M  V30 5034 C 461.339 -1.84138 -0.384035 0
M  V30 5035 O 460.697 -1.28683 -1.27712 0
M  V30 5036 C 460.745 -3.19786 1.66642 0
M  V30 5037 O 459.849 -4.02153 0.913613 0
M  V30 5038 H 459.19 -0.549 0.37349 0
M  V30 5039 H 461.72 -1.25994 1.61204 0
M  V30 5040 H 461.73 -3.70451 1.70969 0
M  V30 5041 H 460.405 -3.14754 2.7185 0
M  V30 5042 H 458.982 -3.60711 0.945635 0
M  V30 5043 N 461.167 -1.02423 -1.1978 0
M  V30 5044 C 462.415 -0.716569 -1.8897 0
M  V30 5045 C 462.736 0.756769 -1.79716 0
M  V30 5046 O 462.006 1.5449 -1.20456 0
M  V30 5047 H 460.586 -0.262062 -0.699523 0
M  V30 5048 H 463.248 -1.29747 -1.45436 0
M  V30 5049 H 462.344 -1.00675 -2.95417 0
M  V30 5050 N 462.645 1.35699 -0.801477 0
M  V30 5051 C 463.575 2.32436 -0.222658 0
M  V30 5052 C 464.556 1.5723 0.649057 0
M  V30 5053 O 465.741 1.85324 0.580387 0
M  V30 5054 C 462.871 3.41469 0.633719 0
M  V30 5055 C 461.825 4.27774 -0.139083 0
M  V30 5056 C 461.151 5.28082 0.838666 0
M  V30 5057 C 462.451 5.04946 -1.33517 0
M  V30 5058 H 464.145 2.81094 -1.03086 0
M  V30 5059 H 461.691 1.35146 -0.497155 0
M  V30 5060 H 463.644 4.08143 1.04868 0
M  V30 5061 H 462.368 2.91408 1.47475 0
M  V30 5062 H 461.027 3.62673 -0.535156 0
M  V30 5063 H 460.675 4.7429 1.67506 0
M  V30 5064 H 460.375 5.86695 0.32594 0
M  V30 5065 H 461.899 5.97628 1.25194 0
M  V30 5066 H 463.313 5.64593 -0.995349 0
M  V30 5067 H 461.71 5.7303 -1.78202 0
M  V30 5068 H 462.78 4.35886 -2.12442 0
M  V30 5069 N 464.123 0.554532 1.47522 0
M  V30 5070 C 465.053 -0.182974 2.32782 0
M  V30 5071 C 466.034 -0.911377 1.43624 0
M  V30 5072 O 467.219 -0.892366 1.72483 0
M  V30 5073 C 464.349 -1.21513 3.25349 0
M  V30 5074 C 463.303 -0.603355 4.23726 0
M  V30 5075 C 462.629 -1.73995 5.05598 0
M  V30 5076 C 463.929 0.441121 5.20434 0
M  V30 5077 H 465.623 0.52882 2.94693 0
M  V30 5078 H 463.169 0.255759 1.41711 0
M  V30 5079 H 465.122 -1.73922 3.83835 0
M  V30 5080 H 463.846 -1.95683 2.61487 0
M  V30 5081 H 462.505 -0.10059 3.66462 0
M  V30 5082 H 462.153 -2.47063 4.38143 0
M  V30 5083 H 461.853 -1.3364 5.72201 0
M  V30 5084 H 463.377 -2.26735 5.66942 0
M  V30 5085 H 464.791 0.00319931 5.733 0
M  V30 5086 H 463.188 0.763402 5.95224 0
M  V30 5087 H 464.258 1.33799 4.66075 0
M  V30 5088 N 465.601 -1.54893 0.290851 0
M  V30 5089 C 466.878 -1.91991 -0.373989 0
M  V30 5090 C 467.258 -1.21694 -1.72493 0
M  V30 5091 O 466.606 -0.34917 -2.25816 0
M  V30 5092 C 466.816 -3.45419 -0.498703 0
M  V30 5093 C 468.164 -4.1748 -0.774298 0
M  V30 5094 O 469.188 -3.51398 -0.582908 0
M  V30 5095 O 468.047 -5.3445 -1.14129 0
M  V30 5096 H 465.141 -0.800593 -0.207315 0
M  V30 5097 H 467.687 -1.66297 0.338164 0
M  V30 5098 H 466.459 -3.88688 0.451392 0
M  V30 5099 H 466.082 -3.77117 -1.25972 0
M  V30 5100 N 467.08 -0.0183926 -1.57589 0
M  V30 5101 C 468.328 0.661253 -1.90976 0
M  V30 5102 C 468.649 1.73281 -0.894353 0
M  V30 5103 O 467.919 1.9579 0.0656788 0
M  V30 5104 H 466.499 0.247233 -0.704901 0
M  V30 5105 H 469.161 -0.0636639 -1.94796 0
M  V30 5106 H 468.257 1.12083 -2.9128 0
M  V30 5107 N 468.558 1.5553 0.254621 0
M  V30 5108 C 469.804 1.77262 0.985193 0
M  V30 5109 C 470.137 0.582286 1.85265 0
M  V30 5110 O 469.412 -0.419666 1.89919 0
M  V30 5111 C 469.695 3.0881 1.85225 0
M  V30 5112 C 469.548 4.38233 1.0135 0
M  V30 5113 C 470.867 3.3653 2.83612 0
M  V30 5114 H 467.986 0.644906 0.356742 0
M  V30 5115 H 470.628 1.88264 0.256236 0
M  V30 5116 H 468.778 2.99562 2.47376 0
M  V30 5117 H 470.45 4.59463 0.411269 0
M  V30 5118 H 468.693 4.32636 0.317574 0
M  V30 5119 H 469.364 5.26644 1.65379 0
M  V30 5120 H 471.84 3.45691 2.31596 0
M  V30 5121 H 470.716 4.29805 3.41407 0
M  V30 5122 H 470.977 2.57064 3.59681 0
M  V30 5123 N 470.036 -0.519951 1.48776 0
M  V30 5124 C 470.969 -1.64053 1.58625 0
M  V30 5125 C 471.947 -1.5664 0.43618 0
M  V30 5126 O 473.131 -1.76969 0.649159 0
M  V30 5127 C 470.258 -3.02497 1.52359 0
M  V30 5128 C 469.304 -3.28235 2.72331 0
M  V30 5129 S 470.137 -3.13414 4.34203 0
M  V30 5130 C 471.293 -4.54287 4.30551 0
M  V30 5131 H 471.526 -1.5545 2.53422 0
M  V30 5132 H 469.059 -0.703681 1.37433 0
M  V30 5133 H 471.017 -3.82336 1.4943 0
M  V30 5134 H 469.678 -3.08531 0.588824 0
M  V30 5135 H 468.871 -4.29256 2.64113 0
M  V30 5136 H 468.473 -2.56085 2.72574 0
M  V30 5137 H 470.765 -5.46006 4.01103 0
M  V30 5138 H 471.708 -4.67558 5.31785 0
M  V30 5139 H 472.116 -4.34079 3.60881 0
M  V30 5140 N 471.514 -1.37532 -0.769588 0
M  V30 5141 C 472.447 -1.27839 -1.8903 0
M  V30 5142 C 473.425 -0.158504 -1.61826 0
M  V30 5143 O 474.609 -0.333086 -1.85534 0
M  V30 5144 C 471.736 -0.977072 -3.24301 0
M  V30 5145 C 470.782 -2.11414 -3.70414 0
M  V30 5146 S 471.615 -3.73409 -3.83831 0
M  V30 5147 C 472.771 -3.45432 -5.21946 0
M  V30 5148 H 473.004 -2.22694 -1.96963 0
M  V30 5149 H 470.537 -1.2318 -0.930914 0
M  V30 5150 H 472.495 -0.810049 -4.02428 0
M  V30 5151 H 471.156 -0.0459701 -3.14066 0
M  V30 5152 H 470.349 -1.85837 -4.68488 0
M  V30 5153 H 469.951 -2.24141 -2.99394 0
M  V30 5154 H 472.243 -3.00554 -6.07185 0
M  V30 5155 H 473.186 -4.42841 -5.52537 0
M  V30 5156 H 473.594 -2.80311 -4.89986 0
M  V30 5157 N 472.992 0.995999 -1.22138 0
M  V30 5158 C 474.22 1.77066 -1.07029 0
M  V30 5159 C 474.635 1.8495 0.379357 0
M  V30 5160 O 473.992 1.3174 1.26297 0
M  V30 5161 C 474.043 3.20533 -1.67155 0
M  V30 5162 O 473.764 3.13082 -3.06449 0
M  V30 5163 C 475.265 4.14461 -1.5728 0
M  V30 5164 H 472.485 0.556179 -0.375374 0
M  V30 5165 H 475.029 1.25238 -1.61666 0
M  V30 5166 H 473.184 3.6944 -1.16589 0
M  V30 5167 H 473.598 4.03283 -3.35355 0
M  V30 5168 H 475.072 5.1289 -2.04078 0
M  V30 5169 H 475.549 4.36005 -0.528795 0
M  V30 5170 H 476.155 3.71449 -2.07136 0
M  V30 5171 N 474.47 1.03057 1.19235 0
M  V30 5172 C 475.747 0.642608 1.84743 0
M  V30 5173 C 476.127 -0.878577 1.91948 0
M  V30 5174 O 475.475 -1.77597 1.43776 0
M  V30 5175 C 475.685 1.30665 3.23616 0
M  V30 5176 C 477.033 1.43098 3.9976 0
M  V30 5177 O 478.057 1.26396 3.3302 0
M  V30 5178 O 476.916 1.70223 5.19313 0
M  V30 5179 H 474.01 0.223573 0.796206 0
M  V30 5180 H 476.556 1.12883 1.26711 0
M  V30 5181 H 475.328 2.34544 3.13217 0
M  V30 5182 H 474.951 0.808405 3.89295 0
M  V30 5183 N 475.948 -1.35272 0.808662 0
M  V30 5184 C 476.911 -2.28082 0.226093 0
M  V30 5185 C 477.911 -1.49673 -0.587762 0
M  V30 5186 O 479.101 -1.69404 -0.405943 0
M  V30 5187 C 476.233 -3.33955 -0.684596 0
M  V30 5188 H 477.426 -2.81116 1.04469 0
M  V30 5189 H 474.979 -1.45162 0.579466 0
M  V30 5190 H 475.714 -2.86111 -1.5268 0
M  V30 5191 H 475.499 -3.91965 -0.102699 0
M  V30 5192 H 476.989 -4.03219 -1.08646 0
M  V30 5193 N 477.426 -0.562348 -1.47226 0
M  V30 5194 C 478.389 0.172056 -2.28553 0
M  V30 5195 C 479.389 0.837928 -1.37242 0
M  V30 5196 O 480.579 0.693001 -1.59822 0
M  V30 5197 C 477.711 1.25223 -3.17068 0
M  V30 5198 H 478.904 -0.542401 -2.94954 0
M  V30 5199 H 476.457 -0.319493 -1.53 0
M  V30 5200 H 477.192 1.99892 -2.55369 0
M  V30 5201 H 476.977 0.779515 -3.84273 0
M  V30 5202 H 478.467 1.76791 -3.78332 0
M  V30 5203 N 478.904 1.54736 -0.299062 0
M  V30 5204 C 479.834 2.26409 0.571085 0
M  V30 5205 C 480.815 1.2629 1.13951 0
M  V30 5206 O 482 1.55059 1.16921 0
M  V30 5207 C 479.13 3.00338 1.74396 0
M  V30 5208 C 478.084 4.07588 1.30599 0
M  V30 5209 C 477.41 4.69222 2.56387 0
M  V30 5210 C 478.71 5.20455 0.438645 0
M  V30 5211 H 480.404 2.99388 -0.0266991 0
M  V30 5212 H 477.95 1.43993 -0.0142812 0
M  V30 5213 H 479.903 3.49198 2.35878 0
M  V30 5214 H 478.627 2.24934 2.36796 0
M  V30 5215 H 477.286 3.59575 0.71424 0
M  V30 5216 H 476.934 3.9046 3.17097 0
M  V30 5217 H 476.634 5.41653 2.27784 0
M  V30 5218 H 478.158 5.20844 3.18675 0
M  V30 5219 H 479.572 5.65221 0.959085 0
M  V30 5220 H 477.969 5.99594 0.246466 0
M  V30 5221 H 479.039 4.8192 -0.536738 0
M  V30 5222 N 480.382 0.0267497 1.57577 0
M  V30 5223 C 481.312 -0.954308 2.13108 0
M  V30 5224 C 482.293 -1.34088 1.04663 0
M  V30 5225 O 483.478 -1.41992 1.32484 0
M  V30 5226 C 480.608 -2.23744 2.65624 0
M  V30 5227 C 479.562 -1.99168 3.78835 0
M  V30 5228 C 478.888 -3.33726 4.17769 0
M  V30 5229 C 480.188 -1.33277 5.0501 0
M  V30 5230 H 481.882 -0.491848 2.95332 0
M  V30 5231 H 479.428 -0.23514 1.42067 0
M  V30 5232 H 481.381 -2.92754 3.03106 0
M  V30 5233 H 480.105 -2.72151 1.80558 0
M  V30 5234 H 478.764 -1.32577 3.41788 0
M  V30 5235 H 478.412 -3.79888 3.29688 0
M  V30 5236 H 478.112 -3.18089 4.94058 0
M  V30 5237 H 479.636 -4.04008 4.57832 0
M  V30 5238 H 481.05 -1.92283 5.40093 0
M  V30 5239 H 479.447 -1.28045 5.8628 0
M  V30 5240 H 480.517 -0.305411 4.83937 0
M  V30 5241 N 481.861 -1.55662 -0.24637 0
M  V30 5242 C 483.091 -1.81312 -0.990438 0
M  V30 5243 C 483.499 -0.600234 -1.79426 0
M  V30 5244 O 482.842 0.440537 -1.78339 0
M  V30 5245 C 482.904 -3.0032 -1.97607 0
M  V30 5246 C 482.568 -4.36322 -1.35912 0
M  V30 5247 C 483.565 -5.14295 -0.761348 0
M  V30 5248 C 481.25 -4.83019 -1.37833 0
M  V30 5249 C 483.244 -6.37114 -0.190998 0
M  V30 5250 C 480.931 -6.05786 -0.804128 0
M  V30 5251 C 481.929 -6.82672 -0.211489 0
M  V30 5252 O 481.617 -8.03121 0.353845 0
M  V30 5253 H 481.349 -0.607233 -0.297058 0
M  V30 5254 H 483.903 -2.0356 -0.274351 0
M  V30 5255 H 482.133 -2.73829 -2.73047 0
M  V30 5256 H 483.822 -3.13057 -2.58361 0
M  V30 5257 H 484.588 -4.79337 -0.739013 0
M  V30 5258 H 480.467 -4.23165 -1.829 0
M  V30 5259 H 484.011 -6.97069 0.272206 0
M  V30 5260 H 479.908 -6.40222 -0.823792 0
M  V30 5261 H 480.676 -8.18131 0.245761 0
M  V30 5262 N 483.339 0.512053 -1.4905 0
M  V30 5263 C 484.616 1.27337 -1.48474 0
M  V30 5264 C 484.996 2.1009 -0.206301 0
M  V30 5265 O 484.344 2.136 0.811609 0
M  V30 5266 C 484.554 2.13954 -2.75726 0
M  V30 5267 C 485.902 2.73507 -3.24776 0
M  V30 5268 O 486.926 2.24229 -2.76767 0
M  V30 5269 O 485.785 3.63186 -4.08361 0
M  V30 5270 H 482.879 0.575652 -0.593762 0
M  V30 5271 H 485.425 0.527232 -1.61302 0
M  V30 5272 H 484.197 1.52709 -3.60272 0
M  V30 5273 H 483.82 2.95782 -2.65705 0
M  V30 5274 N 484.817 1.37938 0.762283 0
M  V30 5275 C 485.78 1.34279 1.85747 0
M  V30 5276 C 486.78 0.244969 1.58923 0
M  V30 5277 O 487.97 0.501365 1.66829 0
M  V30 5278 C 485.102 1.08833 3.23061 0
M  V30 5279 H 486.295 2.31705 1.90401 0
M  V30 5280 H 483.848 1.23105 0.963057 0
M  V30 5281 H 484.583 0.119767 3.24079 0
M  V30 5282 H 484.368 1.88306 3.43923 0
M  V30 5283 H 485.858 1.08946 4.03138 0
M  V30 5284 N 486.295 -0.989507 1.22664 0
M  V30 5285 C 487.541 -1.7321 1.05481 0
M  V30 5286 C 487.874 -1.89852 -0.408635 0
M  V30 5287 O 487.149 -1.44416 -1.30285 0
M  V30 5288 C 487.432 -3.1357 1.77047 0
M  V30 5289 C 487.285 -3.04555 3.31008 0
M  V30 5290 C 488.604 -4.12812 1.5256 0
M  V30 5291 H 485.723 -0.628697 0.384589 0
M  V30 5292 H 488.365 -1.15258 1.51049 0
M  V30 5293 H 486.515 -3.63046 1.3831 0
M  V30 5294 H 488.187 -2.62674 3.7921 0
M  V30 5295 H 486.43 -2.41278 3.6051 0
M  V30 5296 H 487.101 -4.03894 3.76263 0
M  V30 5297 H 489.577 -3.72106 1.86215 0
M  V30 5298 H 488.453 -5.09132 2.05124 0
M  V30 5299 H 488.714 -4.39711 0.458936 0
M  V30 5300 N 487.773 -1.03688 -1.18687 0
M  V30 5301 C 488.723 -0.595067 -2.20098 0
M  V30 5302 C 489.707 0.360465 -1.5681 0
M  V30 5303 O 490.899 0.180136 -1.76081 0
M  V30 5304 C 488.028 0.0444495 -3.43271 0
M  V30 5305 C 487.114 -0.934002 -4.13687 0
M  V30 5306 N 487.505 -2.09957 -4.60165 0
M  V30 5307 C 485.803 -0.759177 -4.39491 0
M  V30 5308 C 486.504 -2.71735 -5.1433 0
M  V30 5309 N 485.48 -1.99638 -5.05614 0
M  V30 5310 H 489.282 -1.48336 -2.5372 0
M  V30 5311 H 486.796 -0.904949 -1.3485 0
M  V30 5312 H 488.793 0.37864 -4.15177 0
M  V30 5313 H 487.453 0.928325 -3.11147 0
M  V30 5314 H 488.464 -2.47863 -4.54735 0
M  V30 5315 H 485.141 0.0749292 -4.17433 0
M  V30 5316 H 486.531 -3.70492 -5.60523 0
M  V30 5317 N 489.251 1.34841 -0.815825 0
M  V30 5318 C 490.5 1.97755 -0.396976 0
M  V30 5319 C 490.813 1.65422 1.04379 0
M  V30 5320 O 492.019 2.21771 1.5662 0
M  V30 5321 C 490.475 3.53818 -0.658869 0
M  V30 5322 C 490.083 3.95051 -2.11278 0
M  V30 5323 C 491.827 4.23397 -0.305834 0
M  V30 5324 C 489.734 5.43997 -2.31994 0
M  V30 5325 H 488.664 0.739985 -0.1447 0
M  V30 5326 H 491.315 1.53781 -1.00118 0
M  V30 5327 H 489.697 3.95997 0.0154112 0
M  V30 5328 H 490.871 3.63998 -2.82564 0
M  V30 5329 H 489.186 3.38388 -2.42657 0
M  V30 5330 H 491.783 5.32899 -0.43854 0
M  V30 5331 H 492.126 4.09508 0.748952 0
M  V30 5332 H 492.659 3.8667 -0.934403 0
M  V30 5333 H 489.398 5.62865 -3.35952 0
M  V30 5334 H 488.918 5.76589 -1.65244 0
M  V30 5335 H 490.597 6.10584 -2.14001 0
M  V30 5336 N 490.729 0.570148 1.46925 0
M  V30 5337 C 491.975 0.0510284 2.02736 0
M  V30 5338 C 492.308 -1.3006 1.44215 0
M  V30 5339 O 491.583 -1.84932 0.602521 0
M  V30 5340 C 491.866 -0.028215 3.60089 0
M  V30 5341 C 491.719 1.35142 4.29018 0
M  V30 5342 C 493.038 -0.735181 4.33916 0
M  V30 5343 H 490.157 0.0200178 0.736728 0
M  V30 5344 H 492.799 0.73493 1.75211 0
M  V30 5345 H 490.949 -0.610648 3.83671 0
M  V30 5346 H 492.621 1.97806 4.16738 0
M  V30 5347 H 490.864 1.9226 3.88868 0
M  V30 5348 H 491.535 1.24857 5.37694 0
M  V30 5349 H 494.011 -0.240519 4.15404 0
M  V30 5350 H 492.887 -0.759622 5.43618 0
M  V30 5351 H 493.148 -1.79397 4.04066 0
M  V30 5352 N 492.207 -1.54576 0.307264 0
M  V30 5353 C 493.432 -2.05139 -0.305379 0
M  V30 5354 C 493.857 -1.18278 -1.46259 0
M  V30 5355 O 493.215 -0.188243 -1.8032 0
M  V30 5356 C 493.263 -3.53066 -0.733283 0
M  V30 5357 O 492.367 -3.69206 -1.83741 0
M  V30 5358 H 491.708 -0.661444 -0.0582105 0
M  V30 5359 H 494.238 -1.99569 0.450931 0
M  V30 5360 H 494.248 -3.95034 -1.02039 0
M  V30 5361 H 492.923 -4.15746 0.113198 0
M  V30 5362 H 491.5 -3.39143 -1.55037 0
M  V30 5363 N 493.685 -0.035106 -1.57561 0
M  V30 5364 C 494.931 0.64318 -1.92331 0
M  V30 5365 C 495.264 1.71434 -0.912368 0
M  V30 5366 O 494.539 1.94395 0.0640303 0
M  V30 5367 C 494.822 1.25411 -3.37556 0
M  V30 5368 C 494.675 0.192109 -4.4939 0
M  V30 5369 C 495.994 2.17041 -3.82859 0
M  V30 5370 H 493.113 0.232341 -0.699419 0
M  V30 5371 H 495.755 -0.0935889 -1.89769 0
M  V30 5372 H 493.905 1.88205 -3.39869 0
M  V30 5373 H 495.577 -0.438849 -4.59208 0
M  V30 5374 H 493.82 -0.481725 -4.31117 0
M  V30 5375 H 494.491 0.659292 -5.48049 0
M  V30 5376 H 496.967 1.64228 -3.8232 0
M  V30 5377 H 495.843 2.56738 -4.85157 0
M  V30 5378 H 496.104 3.06401 -3.18702 0
M  V30 5379 N 495.163 1.55791 0.238111 0
M  V30 5380 C 496.403 1.79801 0.972163 0
M  V30 5381 C 496.767 0.606027 1.82185 0
M  V30 5382 O 497.968 0.725079 2.58836 0
M  V30 5383 C 496.239 3.08608 1.80266 0
M  V30 5384 S 497.798 3.53872 2.59461 0
M  V30 5385 H 494.616 0.631418 0.326852 0
M  V30 5386 H 497.218 1.94031 0.239212 0
M  V30 5387 H 495.922 3.93419 1.1683 0
M  V30 5388 H 495.453 2.9714 2.57821 0
M  V30 5389 H 497.468 3.15899 3.82651 0
M  V30 5390 N 496.642 -0.504142 1.49319 0
M  V30 5391 C 497.872 -1.28071 1.62116 0
M  V30 5392 C 498.28 -1.86955 0.290566 0
M  V30 5393 O 497.623 -1.68415 -0.733616 0
M  V30 5394 C 497.685 -2.4521 2.62893 0
M  V30 5395 C 497.349 -2.07218 4.0732 0
M  V30 5396 C 498.346 -1.61375 4.94221 0
M  V30 5397 C 496.031 -2.16949 4.53033 0
M  V30 5398 C 498.025 -1.25763 6.2487 0
M  V30 5399 C 495.712 -1.80949 5.83696 0
M  V30 5400 C 496.71 -1.3543 6.69438 0
M  V30 5401 O 496.398 -0.99915 7.97667 0
M  V30 5402 H 496.13 -0.394763 0.54876 0
M  V30 5403 H 498.684 -0.612118 1.96067 0
M  V30 5404 H 496.914 -3.15134 2.24115 0
M  V30 5405 H 498.603 -3.0724 2.65252 0
M  V30 5406 H 499.369 -1.53306 4.60133 0
M  V30 5407 H 495.248 -2.5133 3.86463 0
M  V30 5408 H 498.792 -0.901631 6.91749 0
M  V30 5409 H 494.689 -1.88667 6.17313 0
M  V30 5410 H 495.457 -1.13089 8.1065 0
M  V30 5411 N 498.12 -1.38341 -0.754957 0
M  V30 5412 C 499.052 -1.31347 -1.87831 0
M  V30 5413 C 500.065 -0.225955 -1.61224 0
M  V30 5414 O 501.254 -0.48341 -1.7183 0
M  V30 5415 C 498.354 -1.01201 -3.23437 0
M  V30 5416 C 497.527 -2.20834 -3.77559 0
M  V30 5417 C 496.586 -1.87454 -4.91678 0
M  V30 5418 O 495.612 -2.59934 -5.06382 0
M  V30 5419 N 496.814 -0.828682 -5.74555 0
M  V30 5420 H 499.579 -2.28147 -1.94342 0
M  V30 5421 H 497.14 -1.32184 -0.934828 0
M  V30 5422 H 499.132 -0.769249 -3.97322 0
M  V30 5423 H 497.702 -0.132011 -3.12321 0
M  V30 5424 H 496.922 -2.61184 -2.95256 0
M  V30 5425 H 498.21 -3.00678 -4.10451 0
M  V30 5426 H 497.608 -0.227591 -5.65242 0
M  V30 5427 H 496.165 -0.645802 -6.48593 0
M  V30 5428 N 499.598 0.982988 -1.23187 0
M  V30 5429 C 501.014 1.2487 -0.993967 0
M  V30 5430 C 501.214 1.99155 0.306498 0
M  V30 5431 O 500.27 2.30688 1.0266 0
M  V30 5432 C 501.583 2.05078 -2.19917 0
M  V30 5433 C 503.131 2.18227 -2.2438 0
M  V30 5434 C 503.606 3.01825 -3.44479 0
M  V30 5435 N 505.097 3.09411 -3.44702 0
M  V30 5436 C 505.832 3.74412 -4.34285 0
M  V30 5437 N 505.328 4.41259 -5.341 0
M  V30 5438 N 507.121 3.71273 -4.22035 0
M  V30 5439 H 499.272 0.485253 -2.06783 0
M  V30 5440 H 501.535 0.276979 -0.906635 0
M  V30 5441 H 501.241 1.57867 -3.14279 0
M  V30 5442 H 501.115 3.05829 -2.2079 0
M  V30 5443 H 503.502 2.64648 -1.30559 0
M  V30 5444 H 503.583 1.16873 -2.2754 0
M  V30 5445 H 503.227 2.56102 -4.38605 0
M  V30 5446 H 503.157 4.03342 -3.38559 0
M  V30 5447 H 505.648 2.61845 -2.7248 0
M  V30 5448 H 505.961 4.88629 -5.98717 0
M  V30 5449 H 504.306 4.39975 -5.38002 0
M  V30 5450 H 507.497 3.18217 -3.43301 0
M  V30 5451 H 507.67 4.21649 -4.92053 0
M  V30 5452 N 501.076 1.04316 1.18135 0
M  V30 5453 C 502.039 0.640794 2.2006 0
M  V30 5454 C 503.039 -0.303124 1.57917 0
M  V30 5455 O 504.229 -0.0881855 1.73977 0
M  V30 5456 C 501.361 -0.060148 3.40847 0
M  V30 5457 H 502.554 1.54281 2.57172 0
M  V30 5458 H 500.107 0.836004 1.32063 0
M  V30 5459 H 500.842 -0.975845 3.0927 0
M  V30 5460 H 500.627 0.618319 3.87194 0
M  V30 5461 H 502.117 -0.328082 4.16309 0
M  V30 5462 N 502.554 -1.34406 0.822964 0
M  V30 5463 C 503.965 -1.8069 0.469879 0
M  V30 5464 C 504.316 -1.68223 -1.00972 0
M  V30 5465 O 503.441 -1.22226 -1.78577 0
M  V30 5466 C 504.036 -3.28064 0.846118 0
M  V30 5467 C 502.595 -3.72428 0.545402 0
M  V30 5468 C 501.742 -2.56116 1.06301 0
M  V30 5469 H 504.693 -1.22153 1.01313 0
M  V30 5470 H 504.714 -3.80205 0.149922 0
M  V30 5471 H 504.226 -3.37107 1.92304 0
M  V30 5472 H 502.327 -3.68924 -0.522109 0
M  V30 5473 H 502.44 -4.66548 1.0895 0
M  V30 5474 H 500.804 -2.50048 0.484554 0
M  V30 5475 H 501.587 -2.67928 2.14638 0
M  V30 5476 N 504.032 -0.577932 -1.46621 0
M  V30 5477 C 504.964 0.195801 -2.28362 0
M  V30 5478 C 505.977 0.859983 -1.38232 0
M  V30 5479 O 507.166 0.730349 -1.62875 0
M  V30 5480 C 504.266 1.29639 -3.13124 0
M  V30 5481 C 503.439 0.725049 -4.31349 0
M  V30 5482 C 502.498 1.71274 -4.97546 0
M  V30 5483 O 501.524 1.25067 -5.5529 0
M  V30 5484 N 502.726 3.04672 -4.94121 0
M  V30 5485 H 505.491 -0.505468 -2.95407 0
M  V30 5486 H 503.052 -0.415381 -1.56481 0
M  V30 5487 H 505.044 1.95631 -3.54275 0
M  V30 5488 H 503.614 1.90059 -2.48186 0
M  V30 5489 H 502.834 -0.112205 -3.9404 0
M  V30 5490 H 504.122 0.323034 -5.07774 0
M  V30 5491 H 503.52 3.4484 -4.48444 0
M  V30 5492 H 502.077 3.66166 -5.39227 0
M  V30 5493 N 505.51 1.54411 -0.315457 0
M  V30 5494 C 506.443 2.20265 0.596522 0
M  V30 5495 C 507.421 1.17693 1.12192 0
M  V30 5496 O 508.605 1.46397 1.18744 0
M  V30 5497 C 505.732 2.85794 1.81767 0
M  V30 5498 C 504.778 4.02017 1.42424 0
M  V30 5499 S 505.611 5.33452 0.467836 0
M  V30 5500 C 506.767 6.02471 1.69645 0
M  V30 5501 H 507 2.97277 0.0370896 0
M  V30 5502 H 504.533 1.54079 -0.0995562 0
M  V30 5503 H 506.491 3.24172 2.51839 0
M  V30 5504 H 505.152 2.08601 2.34828 0
M  V30 5505 H 504.345 4.46701 2.33396 0
M  V30 5506 H 503.947 3.65271 0.803311 0
M  V30 5507 H 506.239 6.24157 2.63504 0
M  V30 5508 H 507.182 6.96215 1.29192 0
M  V30 5509 H 507.59 5.32284 1.87974 0
M  V30 5510 N 506.988 0.0434614 1.5754 0
M  V30 5511 C 508.216 -0.641835 1.96693 0
M  V30 5512 C 508.631 -1.64832 0.920652 0
M  V30 5513 O 507.988 -1.82247 -0.095993 0
M  V30 5514 C 508.039 -1.33557 3.35924 0
M  V30 5515 O 507.76 -0.369403 4.3654 0
M  V30 5516 C 509.261 -2.11135 3.89791 0
M  V30 5517 H 506.481 -0.176013 0.647503 0
M  V30 5518 H 509.025 0.107478 2.04217 0
M  V30 5519 H 507.18 -2.03617 3.29574 0
M  V30 5520 H 507.594 -0.863674 5.1734 0
M  V30 5521 H 509.068 -2.55107 4.89514 0
M  V30 5522 H 509.545 -2.95634 3.24803 0
M  V30 5523 H 510.151 -1.46002 3.99454 0
M  V30 5524 N 508.466 -1.55915 -0.229846 0
M  V30 5525 C 509.712 -1.78807 -0.956868 0
M  V30 5526 C 510.045 -0.611687 -1.84315 0
M  V30 5527 O 509.32 0.389398 -1.90562 0
M  V30 5528 C 509.603 -3.11718 -1.80288 0
M  V30 5529 C 509.456 -4.3979 -0.943649 0
M  V30 5530 C 510.775 -3.40999 -2.78222 0
M  V30 5531 H 507.894 -0.6505 -0.346437 0
M  V30 5532 H 510.536 -1.88648 -0.226252 0
M  V30 5533 H 508.686 -3.03459 -2.42579 0
M  V30 5534 H 510.358 -4.60059 -0.338121 0
M  V30 5535 H 508.601 -4.33086 -0.248705 0
M  V30 5536 H 509.272 -5.29208 -1.5698 0
M  V30 5537 H 511.748 -3.49332 -2.26067 0
M  V30 5538 H 510.624 -4.35183 -3.34526 0
M  V30 5539 H 510.885 -2.62754 -3.55546 0
M  V30 5540 N 509.944 0.496216 -1.49584 0
M  V30 5541 C 510.892 1.61805 -1.67098 0
M  V30 5542 C 511.886 1.60667 -0.536877 0
M  V30 5543 O 513.092 1.65118 -0.716654 0
M  V30 5544 H 509.467 0.53646 -0.526986 0
M  V30 5545 H 511.438 1.44187 -2.61252 0
M  V30 5546 C 510.187 2.99912 -1.75921 0
M  V30 5547 H 509.51 3.01496 -2.62565 0
M  V30 5548 H 510.95 3.77931 -1.92209 0
M  V30 5549 C 509.409 3.33092 -0.505088 0
M  V30 5550 O 509.939 4.00019 0.367085 0
M  V30 5551 N 508.145 2.88278 -0.366599 0
M  V30 5552 H 507.692 2.33989 -1.07735 0
M  V30 5553 H 507.65 3.10846 0.47142 0
M  V30 5554 N 511.423 1.38739 0.74761 0
M  V30 5555 C 512.648 1.38702 1.54197 0
M  V30 5556 C 513.073 -0.019664 1.8809 0
M  V30 5557 O 512.431 -1.00333 1.51006 0
M  V30 5558 C 512.479 2.25492 2.814 0
M  V30 5559 O 511.583 1.67613 3.76802 0
M  V30 5560 H 510.924 0.472863 0.466151 0
M  V30 5561 H 513.454 1.82577 0.923413 0
M  V30 5562 H 513.464 2.39561 3.30264 0
M  V30 5563 H 512.139 3.27727 2.56062 0
M  V30 5564 H 510.716 1.62718 3.35526 0
M  V30 5565 N 512.901 -0.976442 1.23707 0
M  V30 5566 C 513.831 -2.08749 1.04624 0
M  V30 5567 C 514.812 -1.70057 -0.0380956 0
M  V30 5568 O 515.997 -1.93782 0.127308 0
M  V30 5569 C 513.127 -3.41335 0.640902 0
M  V30 5570 C 512.081 -3.93947 1.67302 0
M  V30 5571 C 511.407 -5.22774 1.12301 0
M  V30 5572 C 512.707 -4.22769 3.06697 0
M  V30 5573 H 514.401 -2.24972 1.97555 0
M  V30 5574 H 511.947 -1.08108 0.951247 0
M  V30 5575 H 513.9 -4.18489 0.494434 0
M  V30 5576 H 512.624 -3.24988 -0.324099 0
M  V30 5577 H 511.283 -3.18941 1.80755 0
M  V30 5578 H 510.931 -5.0278 0.148877 0
M  V30 5579 H 510.631 -5.58942 1.81267 0
M  V30 5580 H 512.155 -6.02546 0.988479 0
M  V30 5581 H 513.569 -4.90659 2.96524 0
M  V30 5582 H 511.966 -4.70147 3.72937 0
M  V30 5583 H 513.036 -3.29885 3.55392 0
M  V30 5584 N 514.379 -1.04941 -1.1758 0
M  V30 5585 C 515.311 -0.606174 -2.21039 0
M  V30 5586 C 516.324 0.328763 -1.59446 0
M  V30 5587 O 517.513 0.121895 -1.78083 0
M  V30 5588 C 514.613 0.133294 -3.38638 0
M  V30 5589 C 513.786 -0.811711 -4.29802 0
M  V30 5590 C 512.845 -0.113958 -5.26077 0
M  V30 5591 O 511.871 -0.747237 -5.64274 0
M  V30 5592 N 513.073 1.14953 -5.69004 0
M  V30 5593 H 515.838 -1.49606 -2.59689 0
M  V30 5594 H 513.399 -0.930997 -1.32454 0
M  V30 5595 H 515.391 0.610144 -4.00074 0
M  V30 5596 H 513.961 0.924816 -2.98607 0
M  V30 5597 H 513.181 -1.46824 -3.65837 0
M  V30 5598 H 514.469 -1.45326 -4.87604 0
M  V30 5599 H 513.867 1.68441 -5.40041 0
M  V30 5600 H 512.424 1.57049 -6.32597 0
M  V30 5601 N 515.857 1.33968 -0.830081 0
M  V30 5602 C 517.097 1.99879 -0.427521 0
M  V30 5603 C 517.461 1.64355 0.992546 0
M  V30 5604 O 518.662 2.23164 1.49837 0
M  V30 5605 C 516.933 3.51771 -0.631815 0
M  V30 5606 S 518.492 4.37608 -0.323168 0
M  V30 5607 H 515.31 0.692485 -0.161202 0
M  V30 5608 H 517.912 1.63129 -1.07745 0
M  V30 5609 H 516.616 3.75113 -1.66488 0
M  V30 5610 H 516.147 3.93386 0.0325936 0
M  V30 5611 H 518.162 4.88683 0.860432 0
M  V30 5612 N 517.335 0.585699 1.46312 0
M  V30 5613 C 518.285 -0.166813 2.27389 0
M  V30 5614 C 519.269 -0.859076 1.36047 0
M  V30 5615 O 520.461 -0.752678 1.60199 0
M  V30 5616 C 517.59 -1.17791 3.2246 0
M  V30 5617 C 516.676 -0.487605 4.21288 0
M  V30 5618 N 517.067 0.45849 5.03718 0
M  V30 5619 C 515.365 -0.737971 4.39852 0
M  V30 5620 C 516.066 0.862213 5.75275 0
M  V30 5621 N 515.042 0.210707 5.43191 0
M  V30 5622 H 518.844 0.560167 2.88512 0
M  V30 5623 H 516.358 0.407715 1.57199 0
M  V30 5624 H 518.355 -1.73122 3.79255 0
M  V30 5625 H 517.015 -1.90568 2.62896 0
M  V30 5626 H 518.026 0.834163 5.11138 0
M  V30 5627 H 514.703 -1.45209 3.91434 0
M  V30 5628 H 516.093 1.64128 6.51546 0
M  V30 5629 N 518.813 -1.54241 0.323641 0
M  V30 5630 C 520.229 -1.59574 -0.0290018 0
M  V30 5631 C 520.429 -1.34017 -1.50472 0
M  V30 5632 O 519.485 -1.12464 -2.26071 0
M  V30 5633 C 520.798 -2.98169 0.389295 0
M  V30 5634 C 522.346 -3.11148 0.339958 0
M  V30 5635 C 522.821 -4.5209 0.733418 0
M  V30 5636 N 524.312 -4.5808 0.686827 0
M  V30 5637 C 525.047 -5.65248 0.963464 0
M  V30 5638 N 524.543 -6.80355 1.30724 0
M  V30 5639 N 526.336 -5.55025 0.88902 0
M  V30 5640 H 518.487 -1.6911 1.28512 0
M  V30 5641 H 520.75 -0.790972 0.522558 0
M  V30 5642 H 520.456 -3.21871 1.41746 0
M  V30 5643 H 520.33 -3.76399 -0.245657 0
M  V30 5644 H 522.717 -2.87182 -0.679002 0
M  V30 5645 H 522.798 -2.35023 1.00985 0
M  V30 5646 H 522.442 -4.76788 1.75029 0
M  V30 5647 H 522.372 -5.26584 0.0412189 0
M  V30 5648 H 524.863 -3.75411 0.43298 0
M  V30 5649 H 525.176 -7.58029 1.5037 0
M  V30 5650 H 523.521 -6.81851 1.3455 0
M  V30 5651 H 526.712 -4.63977 0.619939 0
M  V30 5652 H 526.885 -6.38458 1.10797 0
M  V30 5653 N 520.291 -0.0518155 -1.57515 0
M  V30 5654 C 521.241 0.932017 -2.0808 0
M  V30 5655 C 522.225 1.27141 -0.986098 0
M  V30 5656 O 523.417 1.25373 -1.24943 0
M  V30 5657 C 520.546 2.20665 -2.62986 0
M  V30 5658 C 519.632 1.89462 -3.79427 0
M  V30 5659 N 520.023 1.28621 -4.89173 0
M  V30 5660 C 518.321 2.19327 -3.88345 0
M  V30 5661 C 519.022 1.15062 -5.70207 0
M  V30 5662 N 517.998 1.65372 -5.17835 0
M  V30 5663 H 521.8 0.456964 -2.90326 0
M  V30 5664 H 519.314 0.152619 -1.61681 0
M  V30 5665 H 521.311 2.92044 -2.97516 0
M  V30 5666 H 519.971 2.68776 -1.8218 0
M  V30 5667 H 520.982 0.958341 -5.08956 0
M  V30 5668 H 517.659 2.69955 -3.18482 0
M  V30 5669 H 519.049 0.678243 -6.68468 0
M  V30 5670 N 521.769 1.56035 0.221574 0
M  V30 5671 C 522.716 1.92413 1.27459 0
M  V30 5672 C 523.686 0.781323 1.46576 0
M  V30 5673 O 524.871 1.03721 1.60145 0
M  V30 5674 C 522.011 2.24617 2.61995 0
M  V30 5675 C 521.124 3.51831 2.50677 0
M  V30 5676 C 520.259 3.73482 3.77736 0
M  V30 5677 C 519.298 4.94211 3.6114 0
M  V30 5678 N 518.435 5.12252 4.80148 0
M  V30 5679 H 523.275 2.82203 0.957355 0
M  V30 5680 H 520.812 1.39676 0.461415 0
M  V30 5681 H 522.77 2.41298 3.40339 0
M  V30 5682 H 521.4 1.38 2.91815 0
M  V30 5683 H 520.452 3.43343 1.63767 0
M  V30 5684 H 521.764 4.40328 2.34334 0
M  V30 5685 H 520.918 3.9026 4.64523 0
M  V30 5686 H 519.657 2.83266 3.97003 0
M  V30 5687 H 518.662 4.77384 2.72736 0
M  V30 5688 H 519.887 5.85912 3.43343 0
M  V30 5689 H 517.833 4.24978 4.99729 0
M  V30 5690 H 517.75 5.94881 4.66532 0
M  V30 5691 H 519.018 5.33465 5.68362 0
M  V30 5692 N 523.247 -0.488276 1.49845 0
M  V30 5693 C 524.21 -1.57069 1.66919 0
M  V30 5694 C 525.21 -1.51445 0.540479 0
M  V30 5695 O 526.4 -1.5437 0.807188 0
M  V30 5696 C 523.532 -2.96718 1.67844 0
M  V30 5697 H 524.725 -1.43254 2.63474 0
M  V30 5698 H 522.278 -0.713435 1.39068 0
M  V30 5699 H 523.013 -3.15996 0.7292 0
M  V30 5700 H 522.798 -3.02208 2.49826 0
M  V30 5701 H 524.288 -3.75335 1.83066 0
M  V30 5702 N 524.725 -1.39134 -0.740242 0
M  V30 5703 C 525.971 -1.37278 -1.50088 0
M  V30 5704 C 526.326 0.0329967 -1.92372 0
M  V30 5705 O 525.619 0.998447 -1.63529 0
M  V30 5706 C 525.813 -2.27457 -2.75678 0
M  V30 5707 C 525.642 -3.76662 -2.45674 0
M  V30 5708 C 524.412 -4.45617 -2.38229 0
M  V30 5709 C 526.61 -4.6877 -2.11563 0
M  V30 5710 N 524.592 -5.80187 -2.00641 0
M  V30 5711 C 525.963 -5.91951 -1.84376 0
M  V30 5712 C 528.018 -4.56843 -1.97987 0
M  V30 5713 C 526.721 -7.04538 -1.4498 0
M  V30 5714 C 528.747 -5.69347 -1.59994 0
M  V30 5715 C 528.109 -6.91597 -1.33687 0
M  V30 5716 H 524.208 -0.557611 -0.548265 0
M  V30 5717 H 526.792 -1.74638 -0.860784 0
M  V30 5718 H 524.963 -1.92263 -3.37475 0
M  V30 5719 H 526.695 -2.16631 -3.41838 0
M  V30 5720 H 523.45 -3.98993 -2.5515 0
M  V30 5721 H 523.874 -6.51387 -1.84454 0
M  V30 5722 H 528.516 -3.62868 -2.16995 0
M  V30 5723 H 526.234 -7.98419 -1.24712 0
M  V30 5724 H 529.82 -5.62104 -1.50102 0
M  V30 5725 H 528.7 -7.77176 -1.04728 0
M  V30 5726 N 526.204 0.969867 -1.24223 0
M  V30 5727 C 527.62 1.23809 -1.00716 0
M  V30 5728 C 527.82 1.99469 0.285358 0
M  V30 5729 O 526.876 2.31764 1.00207 0
M  V30 5730 C 528.189 2.02734 -2.2208 0
M  V30 5731 C 529.737 2.15834 -2.26681 0
M  V30 5732 C 530.212 2.98154 -3.47661 0
M  V30 5733 N 531.703 3.05737 -3.47964 0
M  V30 5734 C 532.438 3.69785 -4.38231 0
M  V30 5735 N 531.934 4.35569 -5.3875 0
M  V30 5736 N 533.727 3.66775 -4.25949 0
M  V30 5737 H 525.878 0.463294 -2.07286 0
M  V30 5738 H 528.141 0.267348 -0.909521 0
M  V30 5739 H 527.847 1.54524 -3.15935 0
M  V30 5740 H 527.721 3.0347 -2.24021 0
M  V30 5741 H 530.108 2.63248 -1.33359 0
M  V30 5742 H 530.189 1.14453 -2.28767 0
M  V30 5743 H 529.833 2.51435 -4.41297 0
M  V30 5744 H 529.763 3.99729 -3.42818 0
M  V30 5745 H 532.254 2.58941 -2.75242 0
M  V30 5746 H 532.567 4.82251 -6.03866 0
M  V30 5747 H 530.912 4.34244 -5.42639 0
M  V30 5748 H 534.103 3.14558 -3.46657 0
M  V30 5749 H 534.276 4.16407 -4.96497 0
M  V30 5750 N 527.682 1.05563 1.17022 0
M  V30 5751 C 528.929 0.767937 1.87374 0
M  V30 5752 C 529.257 -0.705224 1.81265 0
M  V30 5753 O 528.512 -1.5318 1.21796 0
M  V30 5754 C 528.811 1.19849 3.36706 0
M  V30 5755 C 528.477 2.6745 3.63017 0
M  V30 5756 C 527.139 3.0777 3.69907 0
M  V30 5757 C 529.491 3.62811 3.74189 0
M  V30 5758 C 526.819 4.42307 3.85463 0
M  V30 5759 C 529.171 4.97087 3.91264 0
M  V30 5760 C 527.835 5.37055 3.96394 0
M  V30 5761 H 527.105 0.281008 0.68565 0
M  V30 5762 H 529.752 1.32339 1.38415 0
M  V30 5763 H 528.057 0.562096 3.87747 0
M  V30 5764 H 529.754 0.953038 3.8951 0
M  V30 5765 H 526.344 2.35228 3.58282 0
M  V30 5766 H 530.528 3.32798 3.68183 0
M  V30 5767 H 525.784 4.72769 3.87684 0
M  V30 5768 H 529.958 5.70869 3.9885 0
M  V30 5769 H 527.585 6.41308 4.082 0
M  V30 5770 N 529.16 -1.33526 0.837174 0
M  V30 5771 C 530.408 -1.97446 0.431211 0
M  V30 5772 C 530.729 -1.6665 -1.01255 0
M  V30 5773 O 529.999 -0.964559 -1.70508 0
M  V30 5774 H 528.579 -0.73043 0.156463 0
M  V30 5775 H 531.241 -1.62918 1.06976 0
M  V30 5776 H 530.337 -3.07001 0.561877 0
M  V30 5777 N 530.638 -0.59345 -1.46 0
M  V30 5778 C 531.886 -0.082988 -2.0193 0
M  V30 5779 C 532.207 1.28569 -1.46612 0
M  V30 5780 O 531.477 1.84629 -0.654909 0
M  V30 5781 H 530.057 -0.0276882 -0.746487 0
M  V30 5782 H 532.719 -0.771657 -1.78973 0
M  V30 5783 H 531.815 -0.022079 -3.12092 0
M  V30 5784 N 532.116 1.54067 -0.331816 0
M  V30 5785 C 533.532 1.59587 0.0205388 0
M  V30 5786 C 533.732 1.34813 1.49759 0
M  V30 5787 O 532.788 1.13661 2.25471 0
M  V30 5788 C 534.101 2.97959 -0.405103 0
M  V30 5789 C 535.649 3.10964 -0.356454 0
M  V30 5790 C 536.124 4.51694 -0.757384 0
M  V30 5791 N 537.615 4.57709 -0.71111 0
M  V30 5792 C 538.35 5.64729 -0.993427 0
M  V30 5793 N 537.846 6.79652 -1.3433 0
M  V30 5794 N 539.639 5.54546 -0.918442 0
M  V30 5795 H 531.79 1.68426 -1.29407 0
M  V30 5796 H 534.053 0.78819 -0.526745 0
M  V30 5797 H 533.759 3.21115 -1.43451 0
M  V30 5798 H 533.633 3.76524 0.225692 0
M  V30 5799 H 536.02 2.87538 0.663763 0
M  V30 5800 H 536.101 2.34484 -1.02229 0
M  V30 5801 H 535.745 4.75853 -1.77555 0
M  V30 5802 H 535.675 5.26555 -0.0691444 0
M  V30 5803 H 538.166 3.75176 -0.452883 0
M  V30 5804 H 538.479 7.57221 -1.54388 0
M  V30 5805 H 536.824 6.81128 -1.38164 0
M  V30 5806 H 540.015 4.63641 -0.644536 0
M  V30 5807 H 540.188 6.37861 -1.14181 0
M  V30 5808 N 533.594 0.0601682 1.57485 0
M  V30 5809 C 534.841 -0.611594 1.93043 0
M  V30 5810 C 535.169 -1.70317 0.939274 0
M  V30 5811 O 534.424 -1.95644 -0.046996 0
M  V30 5812 C 534.723 -1.23831 3.35262 0
M  V30 5813 C 534.389 -0.274037 4.50066 0
M  V30 5814 C 533.051 -0.00872394 4.81199 0
M  V30 5815 C 535.403 0.386308 5.19766 0
M  V30 5816 C 532.731 0.924218 5.79375 0
M  V30 5817 C 535.083 1.3075 6.1894 0
M  V30 5818 C 533.747 1.58139 6.48497 0
M  V30 5819 H 533.017 -0.223798 0.706396 0
M  V30 5820 H 535.664 0.128566 1.91068 0
M  V30 5821 H 533.969 -2.05394 3.33647 0
M  V30 5822 H 535.666 -1.76517 3.60059 0
M  V30 5823 H 532.256 -0.491008 4.25778 0
M  V30 5824 H 536.44 0.194436 4.95919 0
M  V30 5825 H 531.696 1.1438 6.00606 0
M  V30 5826 H 535.87 1.82519 6.72056 0
M  V30 5827 H 533.497 2.30593 7.24383 0
M  V30 5828 N 535.072 -1.5615 -0.213296 0
M  V30 5829 C 536.005 -1.88115 -1.29182 0
M  V30 5830 C 536.983 -0.739348 -1.44819 0
M  V30 5831 O 538.167 -0.988541 -1.605 0
M  V30 5832 C 535.294 -2.09541 -2.66102 0
M  V30 5833 C 534.34 -3.32236 -2.67436 0
M  V30 5834 S 535.173 -4.87915 -2.20679 0
M  V30 5835 C 536.329 -5.12387 -3.59458 0
M  V30 5836 H 536.562 -2.793 -1.01876 0
M  V30 5837 H 534.095 -1.48692 -0.415934 0
M  V30 5838 H 536.053 -2.22568 -3.44925 0
M  V30 5839 H 534.714 -1.19138 -2.90628 0
M  V30 5840 H 533.907 -3.44297 -3.6807 0
M  V30 5841 H 533.509 -3.18108 -1.96681 0
M  V30 5842 H 535.801 -5.01791 -4.55205 0
M  V30 5843 H 536.744 -6.14236 -3.52306 0
M  V30 5844 H 537.152 -4.40089 -3.53528 0
M  V30 5845 N 536.55 0.480323 -1.50102 0
M  V30 5846 C 537.498 1.60024 -1.68805 0
M  V30 5847 C 538.492 1.60089 -0.553888 0
M  V30 5848 O 539.698 1.64349 -0.734127 0
M  V30 5849 H 536.073 0.530841 -0.532646 0
M  V30 5850 H 538.044 1.41408 -2.62767 0
M  V30 5851 C 536.793 2.98029 -1.79092 0
M  V30 5852 H 536.116 2.98694 -2.65748 0
M  V30 5853 H 537.556 3.75871 -1.96206 0
M  V30 5854 C 536.015 3.32538 -0.540388 0
M  V30 5855 O 536.545 4.00386 0.324637 0
M  V30 5856 N 534.751 2.87873 -0.397154 0
M  V30 5857 H 534.298 2.32834 -1.1021 0
M  V30 5858 H 534.256 3.11328 0.438425 0
M  V30 5859 N 538.028 1.39524 0.732853 0
M  V30 5860 C 539.275 1.36865 1.49246 0
M  V30 5861 C 539.603 -0.0347118 1.94469 0
M  V30 5862 O 538.858 -1.01596 1.67262 0
M  V30 5863 C 539.157 2.28916 2.74468 0
M  V30 5864 C 538.823 3.76506 2.481 0
M  V30 5865 C 537.485 4.16721 2.40619 0
M  V30 5866 C 539.837 4.69846 2.25598 0
M  V30 5867 C 537.165 5.48334 2.08679 0
M  V30 5868 C 539.517 6.01739 1.95174 0
M  V30 5869 C 538.181 6.41015 1.86163 0
M  V30 5870 H 537.451 0.500824 0.546129 0
M  V30 5871 H 540.098 1.72047 0.840958 0
M  V30 5872 H 538.403 1.86859 3.4437 0
M  V30 5873 H 540.1 2.2415 3.32502 0
M  V30 5874 H 536.69 3.44635 2.54803 0
M  V30 5875 H 540.874 4.39608 2.30344 0
M  V30 5876 H 536.13 5.77685 2.00226 0
M  V30 5877 H 540.304 6.73591 1.76771 0
M  V30 5878 H 537.931 7.42917 1.61179 0
M  V30 5879 N 539.506 -0.963266 1.24736 0
M  V30 5880 C 540.755 -1.70115 1.08369 0
M  V30 5881 C 541.068 -1.91939 -0.376688 0
M  V30 5882 O 542.274 -2.6334 -0.660624 0
M  V30 5883 C 540.73 -3.06218 1.89099 0
M  V30 5884 C 540.338 -2.92221 3.39574 0
M  V30 5885 C 542.082 -3.83848 1.81275 0
M  V30 5886 C 539.989 -4.23662 4.12631 0
M  V30 5887 H 538.919 -0.637944 0.401924 0
M  V30 5888 H 541.57 -1.07304 1.48856 0
M  V30 5889 H 539.952 -3.69884 1.41429 0
M  V30 5890 H 541.126 -2.37541 3.94856 0
M  V30 5891 H 539.441 -2.28054 3.48397 0
M  V30 5892 H 542.038 -4.81188 2.33158 0
M  V30 5893 H 542.381 -4.08949 0.778895 0
M  V30 5894 H 542.914 -3.26918 2.26649 0
M  V30 5895 H 539.653 -4.03753 5.16395 0
M  V30 5896 H 539.173 -4.78141 3.62135 0
M  V30 5897 H 540.852 -4.92256 4.19873 0
M  V30 5898 N 540.985 -1.06182 -1.16461 0
M  V30 5899 C 541.932 -0.671613 -2.20812 0
M  V30 5900 C 542.902 0.331186 -1.62765 0
M  V30 5901 O 544.087 0.22033 -1.89524 0
M  V30 5902 C 541.227 -0.063029 -3.45042 0
M  V30 5903 C 540.34 -1.11587 -4.1734 0
M  V30 5904 C 539.475 -0.473546 -5.29085 0
M  V30 5905 C 538.514 -1.51 -5.93182 0
M  V30 5906 N 537.651 -0.891118 -6.96422 0
M  V30 5907 H 542.491 -1.56589 -2.53542 0
M  V30 5908 H 540.028 -0.782951 -1.24532 0
M  V30 5909 H 541.986 0.307344 -4.16066 0
M  V30 5910 H 540.616 0.794663 -3.12866 0
M  V30 5911 H 539.668 -1.60396 -3.44931 0
M  V30 5912 H 540.98 -1.90221 -4.61104 0
M  V30 5913 H 540.134 -0.0501432 -6.06679 0
M  V30 5914 H 538.873 0.344687 -4.8648 0
M  V30 5915 H 537.878 -1.94331 -5.14311 0
M  V30 5916 H 539.103 -2.33031 -6.37866 0
M  V30 5917 H 537.049 -0.0935753 -6.55933 0
M  V30 5918 H 536.966 -1.61486 -7.38551 0
M  V30 5919 H 538.234 -0.492822 -7.77941 0
M  V30 5920 N 542.463 1.3308 -0.844243 0
M  V30 5921 C 543.373 2.32876 -0.283922 0
M  V30 5922 C 544.389 1.63589 0.592846 0
M  V30 5923 O 545.565 1.95205 0.495693 0
M  V30 5924 C 542.63 3.42667 0.527283 0
M  V30 5925 C 541.691 4.27664 -0.374394 0
M  V30 5926 C 540.924 5.32212 0.39819 0
M  V30 5927 O 541.147 5.46635 1.62932 0
M  V30 5928 O 540.081 6.01458 -0.2306 0
M  V30 5929 H 543.907 2.82671 -1.11045 0
M  V30 5930 H 541.492 1.36518 -0.606903 0
M  V30 5931 H 543.374 4.09652 0.988078 0
M  V30 5932 H 542.049 2.95079 1.33078 0
M  V30 5933 H 540.956 3.63526 -0.883144 0
M  V30 5934 H 542.289 4.78749 -1.1428 0
M  V30 5935 N 543.941 0.601185 1.45683 0
M  V30 5936 C 544.904 -0.111398 2.28929 0
M  V30 5937 C 545.904 -0.801246 1.39416 0
M  V30 5938 O 547.094 -0.650383 1.61603 0
M  V30 5939 C 544.226 -1.16773 3.20276 0
M  V30 5940 H 545.419 0.620412 2.93413 0
M  V30 5941 H 542.972 0.359946 1.52099 0
M  V30 5942 H 543.707 -1.93051 2.60579 0
M  V30 5943 H 543.492 -0.677358 3.86205 0
M  V30 5944 H 544.982 -1.66698 3.82886 0
M  V30 5945 N 545.419 -1.53889 0.339982 0
M  V30 5946 C 546.351 -2.22435 -0.55275 0
M  V30 5947 C 547.364 -1.22975 -1.06681 0
M  V30 5948 O 548.553 -1.49351 -0.977575 0
M  V30 5949 C 545.653 -2.8882 -1.77302 0
M  V30 5950 C 544.826 -4.14563 -1.39486 0
M  V30 5951 C 543.885 -4.64391 -2.47442 0
M  V30 5952 O 542.911 -5.28687 -2.10899 0
M  V30 5953 N 544.113 -4.40015 -3.78639 0
M  V30 5954 H 546.878 -2.9968 0.0342669 0
M  V30 5955 H 544.439 -1.61068 0.16394 0
M  V30 5956 H 546.431 -3.19072 -2.48948 0
M  V30 5957 H 545.001 -2.15182 -2.26749 0
M  V30 5958 H 544.221 -3.90896 -0.509321 0
M  V30 5959 H 545.509 -4.96362 -1.11813 0
M  V30 5960 H 544.907 -3.88586 -4.11118 0
M  V30 5961 H 543.464 -4.74881 -4.46465 0
M  V30 5962 N 546.897 -0.0685191 -1.57451 0
M  V30 5963 C 548.143 0.596247 -1.94465 0
M  V30 5964 C 548.498 1.67417 -0.948117 0
M  V30 5965 O 547.791 1.91576 0.0301056 0
M  V30 5966 C 547.985 1.22051 -3.35914 0
M  V30 5967 C 547.814 0.204586 -4.49234 0
M  V30 5968 C 546.584 -0.20959 -5.04865 0
M  V30 5969 C 548.782 -0.556872 -5.11276 0
M  V30 5970 N 546.764 -1.21656 -6.01725 0
M  V30 5971 C 548.135 -1.41642 -6.03604 0
M  V30 5972 C 550.19 -0.613297 -4.94108 0
M  V30 5973 C 548.893 -2.32737 -6.80607 0
M  V30 5974 C 550.919 -1.51174 -5.71752 0
M  V30 5975 C 550.281 -2.35898 -6.63726 0
M  V30 5976 H 546.38 0.189307 -0.75874 0
M  V30 5977 H 548.964 -0.144899 -1.9416 0
M  V30 5978 H 547.135 1.9316 -3.36963 0
M  V30 5979 H 548.867 1.84548 -3.60172 0
M  V30 5980 H 545.622 0.172871 -4.73284 0
M  V30 5981 H 546.046 -1.71746 -6.54853 0
M  V30 5982 H 550.688 0.0275228 -4.22791 0
M  V30 5983 H 548.406 -2.97856 -7.51204 0
M  V30 5984 H 551.992 -1.5602 -5.6049 0
M  V30 5985 H 550.872 -3.04291 -7.22756 0
M  V30 5986 N 548.375 1.56261 0.205012 0
M  V30 5987 C 549.285 1.96944 1.27476 0
M  V30 5988 C 550.301 0.875636 1.50362 0
M  V30 5989 O 551.477 1.18058 1.6317 0
M  V30 5990 C 548.542 2.29219 2.60115 0
M  V30 5991 C 547.603 3.52255 2.45387 0
M  V30 5992 C 546.836 3.8298 3.71701 0
M  V30 5993 O 547.059 3.15138 4.75441 0
M  V30 5994 O 545.993 4.76435 3.67823 0
M  V30 5995 H 549.819 2.88144 0.959527 0
M  V30 5996 H 547.404 1.43686 0.409217 0
M  V30 5997 H 549.286 2.51098 3.3842 0
M  V30 5998 H 547.961 1.4119 2.91285 0
M  V30 5999 H 546.868 3.35635 1.65227 0
M  V30 6000 H 548.201 4.40719 2.19152 0
M  V30 6001 N 549.853 -0.472356 1.50355 0
M  V30 6002 C 551.101 -1.22211 1.60962 0
M  V30 6003 C 551.422 -1.92497 0.311439 0
M  V30 6004 O 550.692 -1.8405 -0.671002 0
M  V30 6005 H 549.272 -0.454092 0.593135 0
M  V30 6006 H 551.934 -0.544977 1.87126 0
M  V30 6007 H 551.03 -1.9707 2.42012 0
M  V30 6008 N 551.331 -1.39911 -0.725443 0
M  V30 6009 C 552.261 -1.42138 -1.85254 0
M  V30 6010 C 553.242 -0.283513 -1.67721 0
M  V30 6011 O 554.427 -0.490717 -1.87898 0
M  V30 6012 C 551.557 -1.27354 -3.23107 0
M  V30 6013 C 550.511 -2.3864 -3.55296 0
M  V30 6014 C 549.837 -2.08939 -4.92188 0
M  V30 6015 C 551.137 -3.8097 -3.57295 0
M  V30 6016 H 552.831 -2.36461 -1.83648 0
M  V30 6017 H 550.377 -1.13817 -0.882138 0
M  V30 6018 H 552.33 -1.2753 -4.01639 0
M  V30 6019 H 551.054 -0.295025 -3.25265 0
M  V30 6020 H 549.713 -2.37696 -2.79099 0
M  V30 6021 H 549.361 -1.09502 -4.90936 0
M  V30 6022 H 549.061 -2.83491 -5.14691 0
M  V30 6023 H 550.585 -2.10781 -5.73065 0
M  V30 6024 H 551.999 -3.8379 -4.25885 0
M  V30 6025 H 550.396 -4.5496 -3.9132 0
M  V30 6026 H 551.466 -4.11261 -2.5689 0
M  V30 6027 N 552.809 0.956637 -1.25245 0
M  V30 6028 C 554.037 1.73571 -1.12608 0
M  V30 6029 C 554.452 1.86063 0.320324 0
M  V30 6030 O 553.809 1.35691 1.22042 0
M  V30 6031 C 553.86 3.15053 -1.77268 0
M  V30 6032 O 553.581 3.03174 -3.16255 0
M  V30 6033 C 555.082 4.09248 -1.70386 0
M  V30 6034 H 552.302 0.543955 -0.392879 0
M  V30 6035 H 554.846 1.20031 -1.65568 0
M  V30 6036 H 553.001 3.65543 -1.28284 0
M  V30 6037 H 553.415 3.9241 -3.48015 0
M  V30 6038 H 554.889 5.06138 -2.20291 0
M  V30 6039 H 555.366 4.34102 -0.667239 0
M  V30 6040 H 555.972 3.64672 -2.18849 0
M  V30 6041 N 554.287 1.06798 1.15896 0
M  V30 6042 C 555.535 0.786211 1.8618 0
M  V30 6043 C 555.856 -0.689547 1.82401 0
M  V30 6044 O 555.126 -1.49913 1.26107 0
M  V30 6045 H 553.706 0.287843 0.689315 0
M  V30 6046 H 556.368 1.35055 1.40521 0
M  V30 6047 H 555.464 1.1157 2.91477 0
M  V30 6048 N 555.766 -1.3263 0.851289 0
M  V30 6049 C 557.182 -1.50162 0.5407 0
M  V30 6050 C 557.382 -1.78788 -0.929369 0
M  V30 6051 O 556.438 -1.85545 -1.71258 0
M  V30 6052 C 557.751 -2.64803 1.42478 0
M  V30 6053 C 559.299 -2.78688 1.42485 0
M  V30 6054 C 559.774 -3.96405 2.29407 0
M  V30 6055 N 561.265 -4.0366 2.27184 0
M  V30 6056 C 562 -4.93971 2.9117 0
M  V30 6057 N 561.496 -5.89313 3.64256 0
M  V30 6058 N 563.289 -4.87066 2.80576 0
M  V30 6059 H 555.44 -1.12315 1.80275 0
M  V30 6060 H 557.703 -0.553266 0.769806 0
M  V30 6061 H 557.409 -2.50368 2.46999 0
M  V30 6062 H 557.283 -3.60506 1.10974 0
M  V30 6063 H 559.67 -2.92547 0.387304 0
M  V30 6064 H 559.751 -1.83708 1.78002 0
M  V30 6065 H 559.395 -3.83304 3.33228 0
M  V30 6066 H 559.325 -4.90654 1.91224 0
M  V30 6067 H 561.816 -3.35435 1.74045 0
M  V30 6068 H 562.129 -6.54913 4.10255 0
M  V30 6069 H 560.474 -5.8935 3.68364 0
M  V30 6070 H 563.665 -4.11552 2.23031 0
M  V30 6071 H 563.838 -5.57248 3.30725 0
M  V30 6072 N 557.244 -0.608902 -1.45362 0
M  V30 6073 C 558.493 -0.10218 -2.01441 0
M  V30 6074 C 558.806 1.27546 -1.48295 0
M  V30 6075 O 560.012 1.87498 -1.96359 0
M  V30 6076 C 558.468 -0.131985 -3.59658 0
M  V30 6077 C 558.076 -1.50956 -4.21801 0
M  V30 6078 C 559.82 0.319427 -4.23296 0
M  V30 6079 C 557.727 -1.49568 -5.72174 0
M  V30 6080 H 556.657 -0.0344314 -0.753213 0
M  V30 6081 H 559.308 -0.764426 -1.6682 0
M  V30 6082 H 557.69 0.596939 -3.91475 0
M  V30 6083 H 558.864 -2.26029 -4.01556 0
M  V30 6084 H 557.179 -1.90318 -3.70362 0
M  V30 6085 H 559.776 0.349013 -5.3356 0
M  V30 6086 H 560.119 1.34237 -3.94064 0
M  V30 6087 H 560.652 -0.356273 -3.96201 0
M  V30 6088 H 557.391 -2.49626 -6.06108 0
M  V30 6089 H 556.911 -0.787542 -5.94607 0
M  V30 6090 H 558.59 -1.21989 -6.35396 0
M  V30 6091 N 558.722 1.53707 -0.348139 0
M  V30 6092 C 559.968 2.01286 0.247332 0
M  V30 6093 C 560.301 1.23546 1.49834 0
M  V30 6094 O 559.576 0.324331 1.91777 0
M  V30 6095 C 559.859 3.55768 0.556858 0
M  V30 6096 C 559.712 4.44216 -0.706564 0
M  V30 6097 C 561.031 4.1841 1.3646 0
M  V30 6098 H 558.15 0.731677 0.0884201 0
M  V30 6099 H 560.792 1.84106 -0.469584 0
M  V30 6100 H 558.942 3.70539 1.16761 0
M  V30 6101 H 560.614 4.41274 -1.34444 0
M  V30 6102 H 558.857 4.12892 -1.33052 0
M  V30 6103 H 559.528 5.50202 -0.445186 0
M  V30 6104 H 562.004 4.07365 0.848113 0
M  V30 6105 H 560.88 5.26563 1.54992 0
M  V30 6106 H 561.141 3.7333 2.36805 0
M  V30 6107 N 560.2 0.0768682 1.57412 0
M  V30 6108 C 561.447 -0.591085 1.93681 0
M  V30 6109 C 561.775 -1.69311 0.957286 0
M  V30 6110 O 561.03 -1.95682 -0.0262428 0
M  V30 6111 C 561.329 -1.20268 3.36557 0
M  V30 6112 C 560.995 -0.226286 4.50332 0
M  V30 6113 C 559.657 0.0423142 4.81181 0
M  V30 6114 C 562.009 0.441415 5.19327 0
M  V30 6115 C 559.337 0.985616 5.78362 0
M  V30 6116 C 561.689 1.37307 6.17519 0
M  V30 6117 C 560.353 1.65009 6.46783 0
M  V30 6118 H 559.623 -0.216293 0.70873 0
M  V30 6119 H 562.27 0.148824 1.90921 0
M  V30 6120 H 560.575 -2.01844 3.35807 0
M  V30 6121 H 562.272 -1.72688 3.61911 0
M  V30 6122 H 558.862 -0.445821 4.26275 0
M  V30 6123 H 563.046 0.247023 4.95685 0
M  V30 6124 H 558.302 1.20743 5.99359 0
M  V30 6125 H 562.476 1.89637 6.70083 0
M  V30 6126 H 560.103 2.38263 7.21897 0
M  V30 6127 N 561.678 -1.56367 -0.196722 0
M  V30 6128 C 562.626 -1.95304 -1.2633 0
M  V30 6129 C 563.62 -0.838252 -1.47206 0
M  V30 6130 O 564.826 -1.02325 -1.48087 0
M  V30 6131 H 561.201 -0.621013 -0.424083 0
M  V30 6132 H 563.172 -2.84254 -0.907879 0
M  V30 6133 C 561.921 -2.3074 -2.60104 0
M  V30 6134 H 561.244 -3.16047 -2.44856 0
M  V30 6135 H 562.684 -2.61849 -3.33484 0
M  V30 6136 C 561.143 -1.14143 -3.16975 0
M  V30 6137 O 561.673 -0.415602 -3.99544 0
M  V30 6138 N 559.879 -0.91867 -2.75697 0
M  V30 6139 H 559.426 -1.51065 -2.08656 0
M  V30 6140 H 559.384 -0.140321 -3.14087 0
M  V30 6141 N 563.156 0.464375 -1.50603 0
M  V30 6142 C 564.103 1.56152 -1.69956 0
M  V30 6143 C 565.073 1.57046 -0.54091 0
M  V30 6144 O 566.258 1.74473 -0.772258 0
M  V30 6145 C 563.398 2.94079 -1.80586 0
M  V30 6146 C 562.511 3.02923 -3.07996 0
M  V30 6147 C 561.646 4.31806 -3.09382 0
M  V30 6148 C 560.685 4.34417 -4.31218 0
M  V30 6149 N 559.822 5.54782 -4.30304 0
M  V30 6150 H 564.662 1.38955 -2.6362 0
M  V30 6151 H 562.199 0.675482 -1.30674 0
M  V30 6152 H 564.157 3.74073 -1.8473 0
M  V30 6153 H 562.787 3.09896 -0.903556 0
M  V30 6154 H 561.839 2.1576 -3.13292 0
M  V30 6155 H 563.151 3.00712 -3.97962 0
M  V30 6156 H 562.305 5.20153 -3.12292 0
M  V30 6157 H 561.044 4.36636 -2.17257 0
M  V30 6158 H 560.049 3.44467 -4.28512 0
M  V30 6159 H 561.274 4.31273 -5.24576 0
M  V30 6160 H 559.22 5.60384 -3.41037 0
M  V30 6161 H 559.137 5.54339 -5.14047 0
M  V30 6162 H 560.405 6.45235 -4.3737 0
M  V30 6163 N 564.634 1.40294 0.718013 0
M  V30 6164 C 565.862 1.4175 1.50714 0
M  V30 6165 C 566.277 0.0165366 1.88793 0
M  V30 6166 O 565.634 -0.958942 1.55276 0
M  V30 6167 C 565.685 2.30598 2.784 0
M  V30 6168 O 565.406 3.6524 2.41932 0
M  V30 6169 C 566.907 2.4062 3.72313 0
M  V30 6170 H 564.127 0.483565 0.465194 0
M  V30 6171 H 566.671 1.84316 0.885889 0
M  V30 6172 H 564.826 1.91401 3.36815 0
M  V30 6173 H 565.24 4.12402 3.24076 0
M  V30 6174 H 566.714 3.07001 4.58753 0
M  V30 6175 H 567.191 1.4305 4.15251 0
M  V30 6176 H 567.797 2.80359 3.19811 0
M  V30 6177 N 566.112 -0.949982 1.2575 0
M  V30 6178 C 567.337 -1.73503 1.13628 0
M  V30 6179 C 567.762 -1.85601 -0.30559 0
M  V30 6180 O 567.12 -1.33984 -1.22139 0
M  V30 6181 C 567.168 -3.1243 1.80055 0
M  V30 6182 O 566.272 -3.97916 1.08336 0
M  V30 6183 H 565.613 -0.532665 0.396439 0
M  V30 6184 H 568.143 -1.19043 1.66403 0
M  V30 6185 H 568.153 -3.62866 1.86527 0
M  V30 6186 H 566.828 -3.02941 2.84956 0
M  V30 6187 H 565.405 -3.56375 1.09777 0
M  V30 6188 N 567.59 -1.07411 -1.15328 0
M  V30 6189 C 568.838 -0.796073 -1.85761 0
M  V30 6190 C 569.159 0.679864 -1.82764 0
M  V30 6191 O 568.429 1.49242 -1.269 0
M  V30 6192 H 567.009 -0.291495 -0.687779 0
M  V30 6193 H 569.671 -1.35799 -1.39802 0
M  V30 6194 H 568.767 -1.13114 -2.90881 0
M  V30 6195 N 569.068 1.32177 -0.85831 0
M  V30 6196 C 569.998 2.31282 -0.321041 0
M  V30 6197 C 570.979 1.59841 0.581786 0
M  V30 6198 O 572.164 1.87619 0.501262 0
M  V30 6199 C 569.294 3.4385 0.48832 0
M  V30 6200 C 568.248 4.26799 -0.320391 0
M  V30 6201 C 567.574 5.31164 0.613934 0
M  V30 6202 C 568.874 4.98829 -1.54813 0
M  V30 6203 H 570.568 2.76469 -1.14915 0
M  V30 6204 H 568.114 1.32916 -0.554028 0
M  V30 6205 H 570.067 4.12224 0.874626 0
M  V30 6206 H 568.791 2.97401 1.34983 0
M  V30 6207 H 567.45 3.60077 -0.688497 0
M  V30 6208 H 567.098 4.80967 1.47239 0
M  V30 6209 H 566.798 5.8755 0.0768097 0
M  V30 6210 H 568.322 6.024 0.997336 0
M  V30 6211 H 569.736 5.59864 -1.23392 0
M  V30 6212 H 568.133 5.64957 -2.02346 0
M  V30 6213 H 569.203 4.26483 -2.30739 0
M  V30 6214 N 570.547 0.616602 1.45037 0
M  V30 6215 C 571.963 0.280994 1.57107 0
M  V30 6216 C 572.163 -1.21627 1.60653 0
M  V30 6217 O 571.219 -1.9997 1.54169 0
M  V30 6218 C 572.532 0.960116 2.8496 0
M  V30 6219 C 574.08 0.936884 2.98649 0
M  V30 6220 C 574.555 1.59619 4.29285 0
M  V30 6221 N 576.046 1.5621 4.36065 0
M  V30 6222 C 576.781 2.04131 5.35834 0
M  V30 6223 N 576.277 2.60177 6.4209 0
M  V30 6224 N 578.07 1.94845 5.27249 0
M  V30 6225 H 570.221 1.58867 1.40979 0
M  V30 6226 H 572.484 0.666024 0.674623 0
M  V30 6227 H 572.19 2.01473 2.88273 0
M  V30 6228 H 572.064 0.488921 3.74018 0
M  V30 6229 H 574.451 -0.109209 2.94898 0
M  V30 6230 H 574.532 1.44643 2.10979 0
M  V30 6231 H 574.176 2.64166 4.33796 0
M  V30 6232 H 574.106 1.06159 5.15789 0
M  V30 6233 H 576.597 1.15276 3.59889 0
M  V30 6234 H 576.91 2.94513 7.1448 0
M  V30 6235 H 575.255 2.64221 6.42816 0
M  V30 6236 H 578.446 1.50792 4.43147 0
M  V30 6237 H 578.619 2.32504 6.04852 0
M  V30 6238 N 572.025 -1.5352 0.356285 0
M  V30 6239 C 573.253 -2.05534 -0.237328 0
M  V30 6240 C 573.668 -1.23043 -1.43199 0
M  V30 6241 O 573.025 -0.268821 -1.80509 0
M  V30 6242 C 573.076 -3.55791 -0.639933 0
M  V30 6243 O 572.797 -4.35154 0.507233 0
M  V30 6244 C 574.298 -4.24027 -1.29292 0
M  V30 6245 H 571.518 -0.669585 -0.0435572 0
M  V30 6246 H 574.062 -1.97988 0.511963 0
M  V30 6247 H 572.217 -3.63518 -1.33915 0
M  V30 6248 H 572.631 -5.24178 0.18375 0
M  V30 6249 H 574.105 -5.30509 -1.52527 0
M  V30 6250 H 574.582 -3.77166 -2.25039 0
M  V30 6251 H 575.188 -4.20527 -0.63539 0
M  V30 6252 N 573.503 -0.0852151 -1.57369 0
M  V30 6253 C 574.78 0.622534 -1.85429 0
M  V30 6254 C 575.16 1.86962 -0.980229 0
M  V30 6255 O 574.508 2.28445 -0.0500219 0
M  V30 6256 C 574.718 0.947374 -3.35896 0
M  V30 6257 C 576.066 1.31509 -4.03721 0
M  V30 6258 O 577.09 1.03869 -3.40719 0
M  V30 6259 O 575.949 1.83231 -5.14868 0
M  V30 6260 H 573.043 0.310513 -0.766492 0
M  V30 6261 H 575.589 -0.117164 -1.69295 0
M  V30 6262 H 574.361 0.0622264 -3.91251 0
M  V30 6263 H 573.984 1.74338 -3.5734 0
M  V30 6264 N 574.981 1.5647 0.188427 0
M  V30 6265 C 576.228 1.81013 0.907779 0
M  V30 6266 C 576.556 0.65953 1.82977 0
M  V30 6267 O 575.811 -0.354308 1.92466 0
M  V30 6268 C 576.11 3.11596 1.7505 0
M  V30 6269 C 575.776 4.40145 0.978922 0
M  V30 6270 C 574.438 4.75066 0.765912 0
M  V30 6271 C 576.79 5.19369 0.436498 0
M  V30 6272 C 574.118 5.867 -0.00089868 0
M  V30 6273 C 576.47 6.31805 -0.317136 0
M  V30 6274 C 575.134 6.65303 -0.541103 0
M  V30 6275 H 574.404 0.662373 0.33218 0
M  V30 6276 H 577.051 1.9071 0.173732 0
M  V30 6277 H 575.356 2.97165 2.55343 0
M  V30 6278 H 577.053 3.27793 2.30983 0
M  V30 6279 H 573.643 4.12745 1.15497 0
M  V30 6280 H 577.827 4.92799 0.588449 0
M  V30 6281 H 573.083 6.11122 -0.184329 0
M  V30 6282 H 577.257 6.92406 -0.744788 0
M  V30 6283 H 574.884 7.51646 -1.13718 0
M  V30 6284 N 576.459 -0.456382 1.50847 0
M  V30 6285 C 577.736 -1.21739 1.53098 0
M  V30 6286 C 578.116 -2.09179 0.284132 0
M  V30 6287 O 577.464 -2.16466 -0.731773 0
M  V30 6288 C 577.674 -2.03573 2.83477 0
M  V30 6289 C 579.022 -2.61264 3.34703 0
M  V30 6290 O 580.046 -2.13802 2.84898 0
M  V30 6291 O 578.905 -3.47779 4.21559 0
M  V30 6292 H 575.999 -0.553219 0.614718 0
M  V30 6293 H 578.545 -0.467003 1.63148 0
M  V30 6294 H 577.317 -1.39232 3.65691 0
M  V30 6295 H 576.94 -2.85716 2.76499 0
M  V30 6296 N 577.937 -1.40673 -0.710563 0
M  V30 6297 C 578.867 -1.44095 -1.83736 0
M  V30 6298 C 579.848 -0.301286 -1.67411 0
M  V30 6299 O 581.033 -0.510618 -1.87367 0
M  V30 6300 C 578.163 -1.30773 -3.21738 0
M  V30 6301 C 577.117 -2.42395 -3.52745 0
M  V30 6302 C 576.443 -2.14147 -4.89944 0
M  V30 6303 C 577.743 -3.84738 -3.53234 0
M  V30 6304 H 579.437 -2.38396 -1.81129 0
M  V30 6305 H 576.983 -1.14746 -0.870017 0
M  V30 6306 H 578.936 -1.31783 -4.00264 0
M  V30 6307 H 577.66 -0.329507 -3.24934 0
M  V30 6308 H 576.319 -2.40643 -2.76562 0
M  V30 6309 H 575.967 -1.14703 -4.89747 0
M  V30 6310 H 575.667 -2.88934 -5.11655 0
M  V30 6311 H 577.191 -2.16848 -5.70797 0
M  V30 6312 H 578.605 -3.88286 -4.2179 0
M  V30 6313 H 577.002 -4.59085 -3.86473 0
M  V30 6314 H 578.072 -4.13962 -2.52514 0
M  V30 6315 N 579.415 0.9433 -1.26252 0
M  V30 6316 C 580.692 1.66639 -1.02424 0
M  V30 6317 C 581.072 2.06335 0.446006 0
M  V30 6318 O 580.42 1.78551 1.42589 0
M  V30 6319 C 580.63 2.88019 -1.97094 0
M  V30 6320 C 581.978 3.59718 -2.25584 0
M  V30 6321 O 583.002 2.9812 -1.94943 0
M  V30 6322 O 581.861 4.7066 -2.77743 0
M  V30 6323 H 578.955 0.729643 -0.389294 0
M  V30 6324 H 581.501 0.995218 -1.37454 0
M  V30 6325 H 580.273 2.5556 -2.96319 0
M  V30 6326 H 579.896 3.62863 -1.62532 0
M  V30 6327 N 580.893 1.08022 1.14757 0
M  V30 6328 C 582.142 0.802468 1.8505 0
M  V30 6329 C 582.455 -0.674061 1.83619 0
M  V30 6330 O 583.661 -1.06683 2.49662 0
M  V30 6331 C 582.117 1.38551 3.32162 0
M  V30 6332 C 581.725 2.89354 3.42021 0
M  V30 6333 C 583.469 1.18608 4.07594 0
M  V30 6334 C 581.376 3.40815 4.83321 0
M  V30 6335 H 580.306 0.296518 0.693248 0
M  V30 6336 H 582.957 1.30114 1.29393 0
M  V30 6337 H 581.339 0.814556 3.87532 0
M  V30 6338 H 582.513 3.52552 2.96722 0
M  V30 6339 H 580.828 3.08165 2.80041 0
M  V30 6340 H 583.425 1.54525 5.11885 0
M  V30 6341 H 583.768 0.125599 4.1611 0
M  V30 6342 H 584.301 1.72375 3.58513 0
M  V30 6343 H 581.04 4.46418 4.79991 0
M  V30 6344 H 580.56 2.82374 5.29174 0
M  V30 6345 H 582.239 3.37171 5.522 0
M  V30 6346 N 582.371 -1.3172 0.865308 0
M  V30 6347 C 583.62 -1.96145 0.470098 0
M  V30 6348 C 583.933 -1.69182 -0.981674 0
M  V30 6349 O 585.139 -2.27431 -1.48281 0
M  V30 6350 C 583.595 -3.51129 0.789732 0
M  V30 6351 C 583.203 -3.86938 2.25795 0
M  V30 6352 C 584.947 -4.2197 0.462765 0
M  V30 6353 C 582.854 -5.35012 2.52024 0
M  V30 6354 H 581.784 -0.734105 0.172065 0
M  V30 6355 H 584.435 -1.49959 1.05757 0
M  V30 6356 H 582.817 -3.95781 0.131571 0
M  V30 6357 H 583.991 -3.5326 2.95879 0
M  V30 6358 H 582.306 -3.29149 2.55049 0
M  V30 6359 H 584.903 -5.30904 0.636019 0
M  V30 6360 H 585.246 -4.12005 -0.59645 0
M  V30 6361 H 585.779 -3.82936 1.07727 0
M  V30 6362 H 582.518 -5.50008 3.56611 0
M  V30 6363 H 582.038 -5.70058 1.8653 0
M  V30 6364 H 583.717 -6.0222 2.36515 0
M  V30 6365 N 583.85 -0.624285 -1.44708 0
M  V30 6366 C 585.075 -0.131171 -2.06985 0
M  V30 6367 C 585.5 1.18234 -1.46295 0
M  V30 6368 O 584.858 1.72375 -0.561842 0
M  V30 6369 C 584.906 -0.0226724 -3.60593 0
M  V30 6370 O 584.01 1.02314 -3.99507 0
M  V30 6371 H 583.351 -0.0816556 -0.65896 0
M  V30 6372 H 585.88 -0.859027 -1.85693 0
M  V30 6373 H 585.891 0.170138 -4.07645 0
M  V30 6374 H 584.566 -0.981685 -4.04148 0
M  V30 6375 H 583.143 0.805452 -3.64097 0
M  V30 6376 N 585.328 1.53329 -0.364422 0
M  V30 6377 C 586.258 2.28627 0.474543 0
M  V30 6378 C 587.239 1.31009 1.08492 0
M  V30 6379 O 588.424 1.59878 1.10239 0
M  V30 6380 C 585.554 3.07465 1.61501 0
M  V30 6381 C 584.508 4.1276 1.13194 0
M  V30 6382 C 583.834 4.79674 2.36255 0
M  V30 6383 C 585.134 5.21847 0.217507 0
M  V30 6384 H 586.828 2.99005 -0.153656 0
M  V30 6385 H 584.374 1.43803 -0.0753406 0
M  V30 6386 H 586.327 3.58889 2.20855 0
M  V30 6387 H 585.051 2.34775 2.27042 0
M  V30 6388 H 583.71 3.62281 0.56109 0
M  V30 6389 H 583.358 4.03557 3.00251 0
M  V30 6390 H 583.058 5.50827 2.04606 0
M  V30 6391 H 584.582 5.33892 2.96297 0
M  V30 6392 H 585.996 5.6878 0.718493 0
M  V30 6393 H 584.393 6.00099 -0.00806408 0
M  V30 6394 H 585.463 4.7921 -0.740653 0
M  V30 6395 N 586.806 0.0935595 1.57322 0
M  V30 6396 C 587.753 -0.865935 2.1394 0
M  V30 6397 C 588.723 -1.28083 1.05754 0
M  V30 6398 O 589.908 -1.36285 1.33533 0
M  V30 6399 C 587.048 -2.12023 2.72287 0
M  V30 6400 C 586.161 -1.756 3.94701 0
M  V30 6401 C 585.296 -2.95804 4.41218 0
M  V30 6402 C 584.335 -2.555 5.56225 0
M  V30 6403 N 583.472 -3.68534 5.97601 0
M  V30 6404 H 588.312 -0.376261 2.95615 0
M  V30 6405 H 585.849 -0.174052 1.46067 0
M  V30 6406 H 587.807 -2.85477 3.04235 0
M  V30 6407 H 586.437 -2.58492 1.93343 0
M  V30 6408 H 585.489 -0.921208 3.69077 0
M  V30 6409 H 586.801 -1.41964 4.78171 0
M  V30 6410 H 585.955 -3.77513 4.74941 0
M  V30 6411 H 584.694 -3.32649 3.56645 0
M  V30 6412 H 583.699 -1.72218 5.22131 0
M  V30 6413 H 584.924 -2.19801 6.42545 0
M  V30 6414 H 582.87 -4.051 5.15974 0
M  V30 6415 H 582.787 -3.38737 6.75865 0
M  V30 6416 H 584.055 -4.50757 6.35955 0
M  V30 6417 N 588.284 -1.56567 -0.180126 0
M  V30 6418 C 589.194 -1.98947 -1.24327 0
M  V30 6419 C 590.21 -0.899446 -1.4895 0
M  V30 6420 O 591.386 -1.20639 -1.61271 0
M  V30 6421 C 588.451 -2.33328 -2.56435 0
M  V30 6422 C 587.512 -3.56114 -2.39752 0
M  V30 6423 C 586.745 -3.88845 -3.65561 0
M  V30 6424 O 586.968 -3.22662 -4.70368 0
M  V30 6425 O 585.902 -4.82226 -3.60197 0
M  V30 6426 H 589.728 -2.89634 -0.913565 0
M  V30 6427 H 587.313 -1.44319 -0.386306 0
M  V30 6428 H 589.195 -2.5645 -3.34382 0
M  V30 6429 H 587.87 -1.45806 -2.89002 0
M  V30 6430 H 586.777 -3.38221 -1.59866 0
M  V30 6431 H 588.11 -4.4415 -2.12113 0
M  V30 6432 N 589.762 0.448376 -1.51087 0
M  V30 6433 C 591.039 1.20926 -1.53741 0
M  V30 6434 C 591.419 2.09025 -0.295222 0
M  V30 6435 O 590.767 2.16851 0.720283 0
M  V30 6436 C 590.977 2.02067 -2.84552 0
M  V30 6437 C 592.325 2.59486 -3.36084 0
M  V30 6438 O 593.349 2.12289 -2.86028 0
M  V30 6439 O 592.208 3.45539 -4.23397 0
M  V30 6440 H 589.302 0.549951 -0.617643 0
M  V30 6441 H 591.848 0.458344 -1.63393 0
M  V30 6442 H 590.62 1.37291 -3.66425 0
M  V30 6443 H 590.243 2.84246 -2.78011 0
M  V30 6444 N 591.24 1.41047 0.703093 0
M  V30 6445 C 592.488 1.39723 1.4602 0
M  V30 6446 C 592.809 0.00461257 1.94999 0
M  V30 6447 O 592.079 -0.952292 1.71196 0
M  V30 6448 H 590.659 0.514281 0.541779 0
M  V30 6449 H 593.321 1.76217 0.832678 0
M  V30 6450 H 592.417 2.07982 2.32701 0
M  V30 6451 N 592.718 -0.936591 1.26751 0
M  V30 6452 C 593.648 -2.05315 1.11212 0
M  V30 6453 C 594.629 -1.70092 0.0160262 0
M  V30 6454 O 595.814 -1.93279 0.188894 0
M  V30 6455 C 592.944 -3.39123 0.749171 0
M  V30 6456 C 591.898 -3.88425 1.79751 0
M  V30 6457 C 591.224 -5.18936 1.28876 0
M  V30 6458 C 592.524 -4.12798 3.19992 0
M  V30 6459 H 594.218 -2.18573 2.04613 0
M  V30 6460 H 591.764 -1.05027 0.985159 0
M  V30 6461 H 593.717 -4.16704 0.627323 0
M  V30 6462 H 592.441 -3.25855 -0.220543 0
M  V30 6463 H 591.1 -3.13028 1.90811 0
M  V30 6464 H 590.748 -5.02051 0.308757 0
M  V30 6465 H 590.448 -5.52892 1.98958 0
M  V30 6466 H 591.972 -5.99096 1.17967 0
M  V30 6467 H 593.386 -4.80977 3.11983 0
M  V30 6468 H 591.783 -4.58044 3.87705 0
M  V30 6469 H 592.853 -3.18412 3.65707 0
M  V30 6470 N 594.196 -1.08629 -1.14182 0
M  V30 6471 C 595.106 -0.730126 -2.22949 0
M  V30 6472 C 596.122 0.26436 -1.7198 0
M  V30 6473 O 597.298 0.107742 -2.01112 0
M  V30 6474 C 594.363 -0.147227 -3.46387 0
M  V30 6475 C 593.424 -1.19662 -4.12286 0
M  V30 6476 C 592.657 -0.641437 -5.29831 0
M  V30 6477 O 592.88 0.538351 -5.67854 0
M  V30 6478 O 591.814 -1.39257 -5.85569 0
M  V30 6479 H 595.64 -1.63753 -2.55771 0
M  V30 6480 H 593.225 -0.860118 -1.22157 0
M  V30 6481 H 595.107 0.174923 -4.21037 0
M  V30 6482 H 593.782 0.733304 -3.15285 0
M  V30 6483 H 592.689 -1.57133 -3.395 0
M  V30 6484 H 594.022 -2.0495 -4.475 0
M  V30 6485 N 595.674 1.31259 -0.872281 0
M  V30 6486 C 596.621 2.28459 -0.327857 0
M  V30 6487 C 597.591 1.55831 0.574957 0
M  V30 6488 O 598.776 1.83965 0.506101 0
M  V30 6489 C 595.916 3.41985 0.462644 0
M  V30 6490 C 595.029 4.29458 -0.467949 0
M  V30 6491 C 594.164 5.30131 0.336903 0
M  V30 6492 C 593.203 6.0925 -0.58997 0
M  V30 6493 N 592.34 7.01872 0.178775 0
M  V30 6494 H 597.18 2.74414 -1.16193 0
M  V30 6495 H 594.717 1.34994 -0.584376 0
M  V30 6496 H 596.675 4.06547 0.936759 0
M  V30 6497 H 595.305 2.97134 1.2614 0
M  V30 6498 H 594.357 3.65318 -1.06052 0
M  V30 6499 H 595.669 4.84677 -1.17856 0
M  V30 6500 H 594.823 6.0038 0.873427 0
M  V30 6501 H 593.562 4.75573 1.08079 0
M  V30 6502 H 592.567 5.37889 -1.13823 0
M  V30 6503 H 593.792 6.65894 -1.33275 0
M  V30 6504 H 591.738 6.49721 0.905435 0
M  V30 6505 H 591.655 7.54522 -0.472452 0
M  V30 6506 H 592.923 7.76382 0.696454 0
M  V30 6507 N 597.152 0.631951 1.44375 0
M  V30 6508 C 598.398 0.13697 2.02337 0
M  V30 6509 C 598.731 -1.23826 1.49602 0
M  V30 6510 O 598.006 -1.8221 0.680415 0
M  V30 6511 C 598.289 0.124536 3.59885 0
M  V30 6512 C 598.142 1.53217 4.229 0
M  V30 6513 C 599.461 -0.550481 4.36644 0
M  V30 6514 H 596.58 0.051247 0.735216 0
M  V30 6515 H 599.222 0.808581 1.71936 0
M  V30 6516 H 597.372 -0.44737 3.85916 0
M  V30 6517 H 599.044 2.15303 4.07973 0
M  V30 6518 H 597.287 2.0858 3.80364 0
M  V30 6519 H 597.958 1.4755 5.31914 0
M  V30 6520 H 600.434 -0.0641154 4.16051 0
M  V30 6521 H 599.31 -0.528371 5.46351 0
M  V30 6522 H 599.571 -1.62097 4.11311 0
M  V30 6523 N 598.631 -1.53133 0.372548 0
M  V30 6524 C 599.879 -2.00958 -0.214534 0
M  V30 6525 C 600.2 -1.26135 -1.48711 0
M  V30 6526 O 599.47 -0.376597 -1.92246 0
M  V30 6527 H 598.05 -0.742456 -0.0822664 0
M  V30 6528 H 600.712 -1.88367 0.500385 0
M  V30 6529 H 599.808 -3.09031 -0.436605 0
M  V30 6530 N 600.109 -0.101901 -1.5727 0
M  V30 6531 C 601.355 0.561027 -1.94885 0
M  V30 6532 C 601.688 1.6741 -0.984258 0
M  V30 6533 O 600.963 1.94491 -0.0184767 0
M  V30 6534 C 601.246 1.10982 -3.42571 0
M  V30 6535 C 601.099 0.00133418 -4.498 0
M  V30 6536 C 602.418 2.00608 -3.9172 0
M  V30 6537 H 599.537 0.202467 -0.708644 0
M  V30 6538 H 602.179 -0.173992 -1.89202 0
M  V30 6539 H 600.329 1.73621 -3.47546 0
M  V30 6540 H 602.001 -0.63322 -4.56933 0
M  V30 6541 H 600.244 -0.664143 -4.28686 0
M  V30 6542 H 600.915 0.426253 -5.50352 0
M  V30 6543 H 603.391 1.47864 -3.88941 0
M  V30 6544 H 602.267 2.3593 -4.95609 0
M  V30 6545 H 602.528 2.92608 -3.3141 0
M  V30 6546 N 601.587 1.56661 0.17182 0
M  V30 6547 C 602.833 1.8313 0.88516 0
M  V30 6548 C 603.188 0.682376 1.79893 0
M  V30 6549 O 602.481 -0.321215 1.88888 0
M  V30 6550 C 602.675 3.13435 1.71736 0
M  V30 6551 C 602.504 4.40892 0.885659 0
M  V30 6552 C 601.274 5.02177 0.560939 0
M  V30 6553 C 603.472 5.13797 0.227454 0
M  V30 6554 N 601.454 6.13229 -0.286953 0
M  V30 6555 C 602.825 6.18127 -0.481625 0
M  V30 6556 C 604.88 4.97687 0.145567 0
M  V30 6557 C 603.583 7.08092 -1.26482 0
M  V30 6558 C 605.609 5.88096 -0.624298 0
M  V30 6559 C 604.971 6.91888 -1.32174 0
M  V30 6560 H 601.07 0.721107 0.302536 0
M  V30 6561 H 603.654 1.94104 0.152178 0
M  V30 6562 H 601.825 3.03653 2.42176 0
M  V30 6563 H 603.557 3.27903 2.37196 0
M  V30 6564 H 600.312 4.65145 0.890902 0
M  V30 6565 H 600.736 6.73359 -0.701193 0
M  V30 6566 H 605.378 4.17451 0.670426 0
M  V30 6567 H 603.096 7.87774 -1.80103 0
M  V30 6568 H 606.682 5.77702 -0.689321 0
M  V30 6569 H 605.562 7.60637 -1.90791 0
M  V30 6570 N 603.065 -0.440357 1.51323 0
M  V30 6571 C 604.29 -1.21716 1.67928 0
M  V30 6572 C 604.715 -1.84328 0.374826 0
M  V30 6573 O 604.073 -1.68675 -0.664706 0
M  V30 6574 C 604.121 -2.27914 2.79442 0
M  V30 6575 O 603.225 -3.33325 2.42834 0
M  V30 6576 H 602.566 -0.35674 0.560029 0
M  V30 6577 H 605.096 -0.520417 1.97871 0
M  V30 6578 H 605.106 -2.72746 3.03436 0
M  V30 6579 H 603.781 -1.8172 3.741 0
M  V30 6580 H 602.358 -2.9399 2.294 0
M  V30 6581 N 604.543 -1.41418 -0.695603 0
M  V30 6582 C 605.954 -1.36335 -1.27552 0
M  V30 6583 C 606.305 -0.0464336 -1.96145 0
M  V30 6584 O 605.43 0.855304 -1.9878 0
M  V30 6585 C 606.025 -2.46941 -2.3196 0
M  V30 6586 C 604.584 -2.45256 -2.85529 0
M  V30 6587 C 603.731 -2.2679 -1.59566 0
M  V30 6588 H 606.682 -1.50934 -0.490362 0
M  V30 6589 H 606.703 -2.15997 -3.1325 0
M  V30 6590 H 606.215 -3.42775 -1.82008 0
M  V30 6591 H 604.316 -1.53179 -3.39657 0
M  V30 6592 H 604.429 -3.41565 -3.35961 0
M  V30 6593 H 602.793 -1.74667 -1.85374 0
M  V30 6594 H 603.576 -3.24651 -1.1161 0
M  V30 6595 N 606.021 0.929856 -1.27246 0
M  V30 6596 C 606.984 2.01172 -1.09829 0
M  V30 6597 C 607.984 1.60743 -0.0429687 0
M  V30 6598 O 609.174 1.71813 -0.287373 0
M  V30 6599 C 606.306 3.34191 -0.673003 0
M  V30 6600 H 607.499 2.18054 -2.05895 0
M  V30 6601 H 605.052 1.11036 -1.10003 0
M  V30 6602 H 605.787 3.23009 0.289134 0
M  V30 6603 H 605.572 3.64892 -1.43515 0
M  V30 6604 H 607.062 4.13646 -0.573323 0
M  V30 6605 N 607.499 1.09233 1.13605 0
M  V30 6606 C 608.776 0.739633 1.81077 0
M  V30 6607 C 609.156 -0.775595 1.96336 0
M  V30 6608 O 608.504 -1.69726 1.52988 0
M  V30 6609 C 608.714 1.47636 3.16235 0
M  V30 6610 C 610.062 1.64087 3.91613 0
M  V30 6611 O 611.086 1.43871 3.25852 0
M  V30 6612 O 609.945 1.97511 5.0956 0
M  V30 6613 H 607.039 0.265464 0.783236 0
M  V30 6614 H 609.585 1.19441 1.20549 0
M  V30 6615 H 608.357 2.50818 3.00344 0
M  V30 6616 H 607.98 1.01362 3.84462 0
M  V30 6617 N 608.977 -1.30795 0.87923 0
M  V30 6618 C 610.225 -1.95974 0.493809 0
M  V30 6619 C 610.546 -1.69787 -0.959021 0
M  V30 6620 O 609.816 -1.01832 -1.67353 0
M  V30 6621 H 608.396 -0.725083 0.179622 0
M  V30 6622 H 611.058 -1.59432 1.12105 0
M  V30 6623 H 610.154 -3.05058 0.659263 0
M  V30 6624 N 610.455 -0.639598 -1.44038 0
M  V30 6625 C 611.385 0.0469443 -2.33453 0
M  V30 6626 C 612.366 0.82609 -1.48694 0
M  V30 6627 O 613.551 0.790285 -1.77393 0
M  V30 6628 C 610.681 1.02338 -3.3188 0
M  V30 6629 C 609.635 0.355284 -4.26523 0
M  V30 6630 C 608.961 1.44221 -5.14883 0
M  V30 6631 C 610.261 -0.743798 -5.16977 0
M  V30 6632 H 611.955 -0.699735 -2.91108 0
M  V30 6633 H 609.501 -0.337946 -1.39978 0
M  V30 6634 H 611.454 1.51247 -3.93322 0
M  V30 6635 H 610.178 1.80105 -2.72451 0
M  V30 6636 H 608.837 -0.113239 -3.66425 0
M  V30 6637 H 608.485 2.21097 -4.51802 0
M  V30 6638 H 608.185 1.00052 -5.79019 0
M  V30 6639 H 609.709 1.93295 -5.79197 0
M  V30 6640 H 611.123 -0.337444 -5.72306 0
M  V30 6641 H 609.52 -1.10914 -5.89761 0
M  V30 6642 H 610.59 -1.60745 -4.57481 0
M  V30 6643 N 611.933 1.52934 -0.380664 0
M  V30 6644 C 612.881 2.27727 0.47361 0
M  V30 6645 C 613.875 1.31288 1.0705 0
M  V30 6646 O 615.081 1.4886 1.01197 0
M  V30 6647 H 611.456 0.732189 0.171475 0
M  V30 6648 H 613.427 2.97864 -0.178785 0
M  V30 6649 C 612.176 3.0904 1.59341 0
M  V30 6650 H 611.499 3.831 1.14343 0
M  V30 6651 H 612.939 3.64527 2.16555 0
M  V30 6652 C 611.398 2.20813 2.54447 0
M  V30 6653 O 611.928 1.82907 3.57642 0
M  V30 6654 N 610.134 1.85145 2.23986 0
M  V30 6655 H 609.681 2.16169 1.40103 0
M  V30 6656 H 609.639 1.26402 2.87871 0
M  V30 6657 N 613.412 0.11024 1.57214 0
M  V30 6658 C 614.661 -0.549638 1.94067 0
M  V30 6659 C 614.974 -1.68388 0.995234 0
M  V30 6660 O 616.18 -2.40593 1.25807 0
M  V30 6661 C 614.636 -1.02912 3.44873 0
M  V30 6662 C 614.244 0.0761861 4.47935 0
M  V30 6663 C 615.988 -1.66087 3.9066 0
M  V30 6664 C 613.895 -0.419502 5.8991 0
M  V30 6665 H 612.825 -0.209092 0.724428 0
M  V30 6666 H 615.476 0.188683 1.82527 0
M  V30 6667 H 613.858 -1.82159 3.51616 0
M  V30 6668 H 615.032 0.852185 4.52851 0
M  V30 6669 H 613.347 0.614052 4.11847 0
M  V30 6670 H 615.944 -2.04272 4.94143 0
M  V30 6671 H 616.287 -2.53591 3.30148 0
M  V30 6672 H 616.82 -0.933959 3.86681 0
M  V30 6673 H 613.559 0.419277 6.54158 0
M  V30 6674 H 613.079 -1.16217 5.88433 0
M  V30 6675 H 614.758 -0.883577 6.40938 0
M  V30 6676 N 614.89 -1.56749 -0.16351 0
M  V30 6677 C 616.118 -1.86577 -0.894233 0
M  V30 6678 C 616.533 -0.696543 -1.75481 0
M  V30 6679 O 615.89 0.334161 -1.79415 0
M  V30 6680 C 615.941 -3.15508 -1.76456 0
M  V30 6681 O 615.662 -4.27926 -0.938685 0
M  V30 6682 C 617.163 -3.58737 -2.60428 0
M  V30 6683 H 614.383 -0.618829 -0.259405 0
M  V30 6684 H 616.927 -2.03863 -0.161259 0
M  V30 6685 H 615.082 -3.00025 -2.45079 0
M  V30 6686 H 615.496 -5.01546 -1.53465 0
M  V30 6687 H 616.97 -4.51832 -3.17099 0
M  V30 6688 H 617.447 -2.83229 -3.35675 0
M  V30 6689 H 618.053 -3.76858 -1.97125 0
M  V30 6690 N 616.368 0.432326 -1.51554 0
M  V30 6691 C 617.278 1.55023 -1.76082 0
M  V30 6692 C 618.294 1.61593 -0.645265 0
M  V30 6693 O 619.47 1.78742 -0.928086 0
M  V30 6694 C 616.535 2.90964 -1.88523 0
M  V30 6695 C 615.596 2.9447 -3.12388 0
M  V30 6696 C 614.829 4.23926 -3.24225 0
M  V30 6697 O 615.052 5.16576 -2.4188 0
M  V30 6698 O 613.986 4.33818 -4.17235 0
M  V30 6699 H 617.812 1.37238 -2.70923 0
M  V30 6700 H 615.397 0.615845 -1.36117 0
M  V30 6701 H 617.279 3.71633 -1.98662 0
M  V30 6702 H 615.954 3.08865 -0.9687 0
M  V30 6703 H 614.861 2.12737 -3.07723 0
M  V30 6704 H 616.194 2.81514 -4.03746 0
M  V30 6705 N 617.846 1.41785 0.688094 0
M  V30 6706 C 619.092 1.41753 1.4503 0
M  V30 6707 C 619.425 0.0290745 1.94178 0
M  V30 6708 O 618.7 -0.944456 1.7003 0
M  V30 6709 C 618.983 2.43069 2.65686 0
M  V30 6710 C 618.836 3.91053 2.22256 0
M  V30 6711 C 620.155 2.41543 3.67893 0
M  V30 6712 H 617.274 0.516202 0.526027 0
M  V30 6713 H 619.916 1.73111 0.783105 0
M  V30 6714 H 618.066 2.1646 3.2261 0
M  V30 6715 H 619.738 4.28594 1.70602 0
M  V30 6716 H 617.981 4.05559 1.53963 0
M  V30 6717 H 618.652 4.57501 3.08863 0
M  V30 6718 H 621.128 2.65175 3.20658 0
M  V30 6719 H 620.004 3.14434 4.49914 0
M  V30 6720 H 620.265 1.43666 4.18106 0
M  V30 6721 N 619.324 -0.923095 1.27737 0
M  V30 6722 C 620.287 -2.00587 1.10894 0
M  V30 6723 C 621.287 -1.60718 0.0514927 0
M  V30 6724 O 622.477 -1.71658 0.296481 0
M  V30 6725 C 619.609 -3.33829 0.690717 0
M  V30 6726 H 620.802 -2.16959 2.07048 0
M  V30 6727 H 618.355 -1.10451 1.1059 0
M  V30 6728 H 619.09 -3.23157 -0.272 0
M  V30 6729 H 618.875 -3.64125 1.45448 0
M  V30 6730 H 620.365 -4.13336 0.595252 0
M  V30 6731 N 620.802 -1.09834 -1.13024 0
M  V30 6732 C 621.749 -0.741522 -2.18564 0
M  V30 6733 C 622.719 0.279236 -1.63736 0
M  V30 6734 O 623.904 0.159923 -1.90129 0
M  V30 6735 C 621.044 -0.17277 -3.44667 0
M  V30 6736 C 620.157 -1.24808 -4.13578 0
M  V30 6737 C 619.292 -0.641631 -5.27311 0
M  V30 6738 C 618.331 -1.69795 -5.88078 0
M  V30 6739 N 617.468 -1.11223 -6.93234 0
M  V30 6740 H 622.308 -1.64576 -2.48432 0
M  V30 6741 H 619.845 -0.822174 -1.21978 0
M  V30 6742 H 621.803 0.17482 -4.16834 0
M  V30 6743 H 620.433 0.694725 -3.15235 0
M  V30 6744 H 619.485 -1.71288 -3.39653 0
M  V30 6745 H 620.797 -2.04795 -4.54819 0
M  V30 6746 H 619.951 -0.243128 -6.06213 0
M  V30 6747 H 618.69 0.189742 -4.87331 0
M  V30 6748 H 617.695 -2.10595 -5.07868 0
M  V30 6749 H 618.92 -2.53206 -6.3013 0
M  V30 6750 H 616.866 -0.302208 -6.55304 0
M  V30 6751 H 616.783 -1.84901 -7.3304 0
M  V30 6752 H 618.051 -0.740068 -7.75979 0
M  V30 6753 N 622.28 1.30327 -0.886154 0
M  V30 6754 C 623.528 1.9571 -0.504195 0
M  V30 6755 C 623.849 1.70294 0.950003 0
M  V30 6756 O 623.119 1.02718 1.66811 0
M  V30 6757 H 621.699 0.72412 -0.183465 0
M  V30 6758 H 624.361 1.58835 -1.12949 0
M  V30 6759 H 623.457 3.04704 -0.675431 0
M  V30 6760 N 623.758 0.647228 1.43697 0
M  V30 6761 C 625.174 0.314256 1.56476 0
M  V30 6762 C 625.374 -1.18191 1.63196 0
M  V30 6763 O 624.43 -1.96655 1.58376 0
M  V30 6764 C 625.743 1.02034 2.82859 0
M  V30 6765 C 627.291 1.00002 2.96595 0
M  V30 6766 C 627.766 1.68689 4.25803 0
M  V30 6767 N 629.257 1.65424 4.32654 0
M  V30 6768 C 629.992 2.1545 5.31384 0
M  V30 6769 N 629.488 2.73738 6.36427 0
M  V30 6770 N 631.281 2.05985 5.22998 0
M  V30 6771 H 623.432 1.61821 1.37578 0
M  V30 6772 H 625.695 0.680184 0.660344 0
M  V30 6773 H 625.401 2.07542 2.83935 0
M  V30 6774 H 625.275 0.568146 3.72897 0
M  V30 6775 H 627.662 -0.0466319 2.95063 0
M  V30 6776 H 627.743 1.49086 2.07863 0
M  V30 6777 H 627.387 2.73308 4.28095 0
M  V30 6778 H 627.317 1.17076 5.13421 0
M  V30 6779 H 629.808 1.22884 3.57363 0
M  V30 6780 H 630.121 3.09602 7.08072 0
M  V30 6781 H 628.466 2.77796 6.37067 0
M  V30 6782 H 631.657 1.60157 4.39849 0
M  V30 6783 H 631.83 2.45281 5.99784 0
M  V30 6784 N 625.236 -1.5273 0.388769 0
M  V30 6785 C 626.484 -2.01174 -0.193208 0
M  V30 6786 C 626.805 -1.27705 -1.47365 0
M  V30 6787 O 626.075 -0.396966 -1.91836 0
M  V30 6788 H 624.655 -0.743287 -0.0743871 0
M  V30 6789 H 627.317 -1.87826 0.520336 0
M  V30 6790 H 626.413 -3.09477 -0.403803 0
M  V30 6791 N 626.714 -0.118576 -1.57153 0
M  V30 6792 C 628.125 0.40687 -1.82213 0
M  V30 6793 C 628.476 1.66636 -1.03571 0
M  V30 6794 O 627.601 2.14682 -0.272171 0
M  V30 6795 C 628.196 0.744949 -3.30509 0
M  V30 6796 C 626.755 1.21503 -3.5625 0
M  V30 6797 C 625.902 0.223511 -2.76398 0
M  V30 6798 H 628.853 -0.343712 -1.54933 0
M  V30 6799 H 628.874 1.6024 -3.45114 0
M  V30 6800 H 628.386 -0.171911 -3.87719 0
M  V30 6801 H 626.487 2.1488 -3.04396 0
M  V30 6802 H 626.6 1.16065 -4.64829 0
M  V30 6803 H 624.964 0.71046 -2.44591 0
M  V30 6804 H 625.747 -0.686439 -3.36367 0
M  V30 6805 N 628.193 1.56834 0.155195 0
M  V30 6806 C 629.141 1.98584 1.21107 0
M  V30 6807 C 630.135 0.876987 1.44932 0
M  V30 6808 O 631.341 1.06215 1.45322 0
M  V30 6809 H 627.716 0.632039 0.407469 0
M  V30 6810 H 629.687 2.86561 0.832195 0
M  V30 6811 C 628.436 2.37555 2.53895 0
M  V30 6812 H 627.759 3.22428 2.3639 0
M  V30 6813 H 629.199 2.70598 3.26424 0
M  V30 6814 C 627.658 1.22507 3.13837 0
M  V30 6815 O 628.188 0.521388 3.98302 0
M  V30 6816 N 626.394 0.991444 2.73164 0
M  V30 6817 H 625.941 1.56544 2.04577 0
M  V30 6818 H 625.899 0.223546 3.13604 0
M  V30 6819 N 629.671 -0.424282 1.51781 0
M  V30 6820 C 630.917 -1.17434 1.6534 0
M  V30 6821 C 631.25 -1.90549 0.374806 0
M  V30 6822 O 630.525 -1.84145 -0.626179 0
M  V30 6823 C 630.808 -2.18093 2.86544 0
M  V30 6824 C 630.661 -1.48975 4.24413 0
M  V30 6825 C 631.98 -3.18934 3.03264 0
M  V30 6826 H 629.099 -0.425566 0.601716 0
M  V30 6827 H 631.741 -0.461921 1.84299 0
M  V30 6828 H 629.891 -2.78849 2.7051 0
M  V30 6829 H 631.563 -0.914551 4.52143 0
M  V30 6830 H 629.806 -0.791893 4.26511 0
M  V30 6831 H 630.477 -2.22347 5.05238 0
M  V30 6832 H 632.953 -2.68243 3.18096 0
M  V30 6833 H 631.829 -3.86645 3.89611 0
M  V30 6834 H 632.09 -3.85793 2.15908 0
M  V30 6835 N 631.149 -1.42148 -0.680565 0
M  V30 6836 C 632.377 -1.45696 -1.46902 0
M  V30 6837 C 632.792 -0.0665858 -1.88683 0
M  V30 6838 O 632.149 0.917436 -1.57764 0
M  V30 6839 C 632.2 -2.37898 -2.72188 0
M  V30 6840 O 631.921 -3.71526 -2.32163 0
M  V30 6841 C 633.422 -2.50407 -3.65802 0
M  V30 6842 H 630.642 -0.495729 -0.45221 0
M  V30 6843 H 633.186 -1.866 -0.836709 0
M  V30 6844 H 631.341 -2.00263 -3.31622 0
M  V30 6845 H 631.755 -4.20849 -3.13027 0
M  V30 6846 H 633.229 -3.19056 -4.50452 0
M  V30 6847 H 633.706 -1.5401 -4.11312 0
M  V30 6848 H 634.312 -2.8874 -3.12265 0
M  V30 6849 N 632.627 0.916307 -1.28225 0
M  V30 6850 C 633.904 1.64429 -1.05936 0
M  V30 6851 C 634.284 2.07234 0.402139 0
M  V30 6852 O 633.632 1.81535 1.3877 0
M  V30 6853 C 633.842 2.83773 -2.03159 0
M  V30 6854 C 635.19 3.54852 -2.33164 0
M  V30 6855 O 636.214 2.93918 -2.01223 0
M  V30 6856 O 635.073 4.64663 -2.87664 0
M  V30 6857 H 632.167 0.721221 -0.404683 0
M  V30 6858 H 634.713 0.965838 -1.39534 0
M  V30 6859 H 633.485 2.49217 -3.01673 0
M  V30 6860 H 633.108 3.59333 -1.70192 0
M  V30 6861 N 634.105 1.10431 1.1244 0
M  V30 6862 C 635.33 0.869089 1.88313 0
M  V30 6863 C 635.755 -0.574912 1.79099 0
M  V30 6864 O 635.113 -1.40496 1.14589 0
M  V30 6865 C 635.161 1.32208 3.3549 0
M  V30 6866 O 634.265 0.487092 4.09513 0
M  V30 6867 H 633.606 0.313894 0.585121 0
M  V30 6868 H 636.136 1.47111 1.42195 0
M  V30 6869 H 636.146 1.31201 3.86329 0
M  V30 6870 H 634.821 2.37364 3.41513 0
M  V30 6871 H 633.398 0.562372 3.68635 0
M  V30 6872 N 635.583 -1.29855 0.893053 0
M  V30 6873 C 636.513 -2.3035 0.382249 0
M  V30 6874 C 637.494 -1.61328 -0.539203 0
M  V30 6875 O 638.679 -1.88882 -0.451342 0
M  V30 6876 C 635.809 -3.45024 -0.396983 0
M  V30 6877 C 634.763 -4.258 0.433437 0
M  V30 6878 C 634.089 -5.32605 -0.472889 0
M  V30 6879 C 635.389 -4.94549 1.67984 0
M  V30 6880 H 637.083 -2.73325 1.22205 0
M  V30 6881 H 634.629 -1.314 0.589073 0
M  V30 6882 H 636.582 -4.14398 -0.765024 0
M  V30 6883 H 635.306 -3.00875 -1.2705 0
M  V30 6884 H 633.965 -3.58125 0.783723 0
M  V30 6885 H 633.613 -4.84702 -1.34435 0
M  V30 6886 H 633.313 -5.87547 0.0789958 0
M  V30 6887 H 634.837 -6.04832 -0.837269 0
M  V30 6888 H 636.251 -5.56395 1.38192 0
M  V30 6889 H 634.648 -5.59393 2.17254 0
M  V30 6890 H 635.718 -4.20215 2.41965 0
M  V30 6891 N 637.061 -0.65484 -1.43351 0
M  V30 6892 C 638.289 -0.176685 -2.06144 0
M  V30 6893 C 638.704 1.15831 -1.49093 0
M  V30 6894 O 638.061 1.71542 -0.622868 0
M  V30 6895 C 638.112 -0.0813326 -3.61408 0
M  V30 6896 O 637.833 -1.36355 -4.1634 0
M  V30 6897 C 639.334 0.422706 -4.4128 0
M  V30 6898 H 636.554 -0.0906429 -0.66485 0
M  V30 6899 H 639.098 -0.895945 -1.83829 0
M  V30 6900 H 637.253 0.588496 -3.82904 0
M  V30 6901 H 637.667 -1.22381 -5.10023 0
M  V30 6902 H 639.141 0.438375 -5.50257 0
M  V30 6903 H 639.618 1.45432 -4.14423 0
M  V30 6904 H 640.224 -0.214687 -4.24758 0
M  V30 6905 N 638.539 1.52521 -0.396863 0
M  V30 6906 C 639.487 2.28217 0.44943 0
M  V30 6907 C 640.481 1.32416 1.05652 0
M  V30 6908 O 641.687 1.49925 0.996124 0
M  V30 6909 H 638.062 0.733966 0.1637 0
M  V30 6910 H 640.033 2.97658 -0.210367 0
M  V30 6911 C 638.782 3.10713 1.56054 0
M  V30 6912 H 638.105 3.84291 1.10273 0
M  V30 6913 H 639.545 3.66803 2.12677 0
M  V30 6914 C 638.004 2.23499 2.52091 0
M  V30 6915 O 638.534 1.8669 3.55682 0
M  V30 6916 N 636.74 1.8751 2.2201 0
M  V30 6917 H 636.287 2.17643 1.37802 0
M  V30 6918 H 636.245 1.29448 2.86514 0
M  V30 6919 N 640.017 0.126909 1.57088 0
M  V30 6920 C 641.433 -0.229641 1.57939 0
M  V30 6921 C 641.633 -1.66145 1.1401 0
M  V30 6922 O 640.689 -2.3843 0.831119 0
M  V30 6923 C 642.002 0.0108648 3.00698 0
M  V30 6924 C 643.55 -0.054418 3.12953 0
M  V30 6925 C 644.025 0.158497 4.57726 0
M  V30 6926 N 645.516 0.104735 4.63082 0
M  V30 6927 C 646.251 0.24427 5.72879 0
M  V30 6928 N 645.747 0.440415 6.91399 0
M  V30 6929 N 647.54 0.183286 5.61801 0
M  V30 6930 H 639.691 1.06203 1.83942 0
M  V30 6931 H 641.954 0.418834 0.85046 0
M  V30 6932 H 641.66 1.00102 3.37154 0
M  V30 6933 H 641.534 -0.717512 3.70313 0
M  V30 6934 H 643.921 -1.0351 2.7635 0
M  V30 6935 H 644.002 0.705967 2.45865 0
M  V30 6936 H 643.646 1.13619 4.95028 0
M  V30 6937 H 643.576 -0.62197 5.22914 0
M  V30 6938 H 646.067 -0.0430298 3.77876 0
M  V30 6939 H 646.38 0.537536 7.70928 0
M  V30 6940 H 644.725 0.476488 6.93365 0
M  V30 6941 H 647.916 0.0309561 4.6809 0
M  V30 6942 H 648.089 0.295471 6.47326 0
M  V30 6943 N 641.495 -1.56914 -0.146875 0
M  V30 6944 C 642.72 -1.87881 -0.878386 0
M  V30 6945 C 643.145 -0.715945 -1.73942 0
M  V30 6946 O 642.503 0.334447 -1.78189 0
M  V30 6947 C 642.551 -3.17431 -1.71084 0
M  V30 6948 O 641.655 -3.01374 -2.81509 0
M  V30 6949 H 640.996 -0.617289 -0.244644 0
M  V30 6950 H 643.526 -2.04136 -0.137654 0
M  V30 6951 H 643.536 -3.49455 -2.10582 0
M  V30 6952 H 642.211 -4.01671 -1.07856 0
M  V30 6953 H 640.788 -2.80758 -2.45416 0
M  V30 6954 N 642.974 0.416227 -1.52004 0
M  V30 6955 C 643.904 1.51365 -1.77795 0
M  V30 6956 C 644.885 1.58059 -0.628601 0
M  V30 6957 O 646.07 1.73447 -0.873478 0
M  V30 6958 C 643.2 2.89256 -1.92219 0
M  V30 6959 C 642.154 2.97415 -3.0778 0
M  V30 6960 C 641.48 4.37492 -3.07417 0
M  V30 6961 C 642.78 2.69551 -4.47369 0
M  V30 6962 H 644.474 1.30033 -2.69688 0
M  V30 6963 H 642.02 0.624112 -1.29772 0
M  V30 6964 H 643.973 3.66008 -2.08845 0
M  V30 6965 H 642.697 3.11866 -0.969917 0
M  V30 6966 H 641.356 2.23107 -2.90893 0
M  V30 6967 H 641.004 4.571 -2.09925 0
M  V30 6968 H 640.704 4.43877 -3.85029 0
M  V30 6969 H 642.228 5.16188 -3.26162 0
M  V30 6970 H 643.642 3.36028 -4.64497 0
M  V30 6971 H 642.039 2.87321 -5.26846 0
M  V30 6972 H 643.109 1.65029 -4.55953 0
M  V30 6973 N 644.452 1.42507 0.673017 0
M  V30 6974 C 645.701 1.42364 1.42883 0
M  V30 6975 C 646.014 0.0441598 1.9555 0
M  V30 6976 O 647.22 -0.0798679 2.71382 0
M  V30 6977 C 645.676 2.5043 2.58482 0
M  V30 6978 C 645.284 3.94392 2.12506 0
M  V30 6979 C 647.028 2.59455 3.35981 0
M  V30 6980 C 644.935 4.93964 3.25198 0
M  V30 6981 H 643.865 0.52951 0.536782 0
M  V30 6982 H 646.516 1.68422 0.728448 0
M  V30 6983 H 644.898 2.1754 3.30896 0
M  V30 6984 H 646.072 4.36645 1.47233 0
M  V30 6985 H 644.387 3.89233 1.4794 0
M  V30 6986 H 646.984 3.31025 4.19912 0
M  V30 6987 H 647.327 1.63869 3.82691 0
M  V30 6988 H 647.86 2.91549 2.70637 0
M  V30 6989 H 644.599 5.91034 2.83477 0
M  V30 6990 H 644.119 4.56341 3.89247 0
M  V30 6991 H 645.798 5.15763 3.90637 0
M  V30 6992 N 645.93 -0.909495 1.28709 0
M  V30 6993 C 647.176 -1.66151 1.16283 0
M  V30 6994 C 647.509 -1.92067 -0.287069 0
M  V30 6995 O 646.784 -1.52409 -1.20837 0
M  V30 6996 C 647.067 -3.01676 1.9663 0
M  V30 6997 C 646.92 -2.82888 3.49707 0
M  V30 6998 C 648.239 -4.02274 1.78504 0
M  V30 6999 H 645.358 -0.602966 0.423793 0
M  V30 7000 H 648 -1.05418 1.58073 0
M  V30 7001 H 646.15 -3.53515 1.61119 0
M  V30 7002 H 647.822 -2.38026 3.95147 0
M  V30 7003 H 646.065 -2.17862 3.75125 0
M  V30 7004 H 646.736 -3.79147 4.01187 0
M  V30 7005 H 649.212 -3.59511 2.09503 0
M  V30 7006 H 648.088 -4.95056 2.37088 0
M  V30 7007 H 648.349 -4.35903 0.737647 0
M  V30 7008 N 647.408 -1.11026 -1.11852 0
M  V30 7009 C 648.636 -0.878818 -1.87308 0
M  V30 7010 C 649.051 0.57111 -1.79955 0
M  V30 7011 O 648.408 1.39409 -1.17777 0
M  V30 7012 C 648.459 -1.3264 -3.36287 0
M  V30 7013 O 648.18 -2.71948 -3.43476 0
M  V30 7014 C 649.681 -1.12974 -4.28663 0
M  V30 7015 H 646.901 -0.315015 -0.592458 0
M  V30 7016 H 649.445 -1.47649 -1.41492 0
M  V30 7017 H 647.6 -0.772269 -3.79625 0
M  V30 7018 H 648.014 -2.91241 -4.3621 0
M  V30 7019 H 649.488 -1.49198 -5.31454 0
M  V30 7020 H 649.965 -0.0689127 -4.39146 0
M  V30 7021 H 650.571 -1.67064 -3.91113 0
M  V30 7022 N 648.886 1.2938 -0.899927 0
M  V30 7023 C 650.114 1.99691 -0.541386 0
M  V30 7024 C 650.529 1.67355 0.873936 0
M  V30 7025 O 649.886 0.918728 1.57688 0
M  V30 7026 C 649.937 3.54168 -0.72438 0
M  V30 7027 O 649.658 3.85359 -2.08399 0
M  V30 7028 C 651.159 4.41746 -0.370819 0
M  V30 7029 H 648.379 0.638037 -0.207726 0
M  V30 7030 H 650.923 1.6491 -1.20934 0
M  V30 7031 H 649.078 3.87261 -0.103607 0
M  V30 7032 H 649.492 4.80032 -2.11352 0
M  V30 7033 H 650.966 5.49256 -0.549693 0
M  V30 7034 H 651.443 4.33712 0.692148 0
M  V30 7035 H 652.049 4.14125 -0.968543 0
M  V30 7036 N 650.364 0.662433 1.43002 0
M  V30 7037 C 651.61 0.179857 2.02001 0
M  V30 7038 C 651.943 -1.20625 1.52195 0
M  V30 7039 O 651.218 -1.80726 0.718911 0
M  V30 7040 C 651.501 0.200845 3.59539 0
M  V30 7041 C 651.354 1.62153 4.19555 0
M  V30 7042 C 652.673 -0.457738 4.37713 0
M  V30 7043 H 649.792 0.0668305 0.733964 0
M  V30 7044 H 652.434 0.84487 1.70182 0
M  V30 7045 H 650.584 -0.365411 3.86778 0
M  V30 7046 H 652.256 2.23908 4.03315 0
M  V30 7047 H 650.499 2.16601 3.75854 0
M  V30 7048 H 651.17 1.58799 5.28665 0
M  V30 7049 H 653.646 0.0241495 4.16093 0
M  V30 7050 H 652.522 -0.412363 5.47349 0
M  V30 7051 H 652.783 -1.53336 4.14657 0
M  V30 7052 N 651.842 -1.52309 0.404946 0
M  V30 7053 C 652.772 -2.29805 -0.41376 0
M  V30 7054 C 653.753 -1.3384 -1.0498 0
M  V30 7055 O 654.938 -1.62745 -1.05961 0
M  V30 7056 C 652.068 -3.11639 -1.53292 0
M  V30 7057 C 651.022 -4.15616 -1.02211 0
M  V30 7058 C 650.348 -4.8577 -2.23455 0
M  V30 7059 C 651.648 -5.2224 -0.0790725 0
M  V30 7060 H 653.342 -2.98493 0.232878 0
M  V30 7061 H 650.888 -1.43552 0.113441 0
M  V30 7062 H 652.841 -3.64618 -2.11262 0
M  V30 7063 H 651.565 -2.40712 -2.20738 0
M  V30 7064 H 650.224 -3.63641 -0.46484 0
M  V30 7065 H 649.872 -4.11376 -2.89445 0
M  V30 7066 H 649.572 -5.56058 -1.89929 0
M  V30 7067 H 651.096 -5.4156 -2.82038 0
M  V30 7068 H 652.51 -5.70485 -0.567438 0
M  V30 7069 H 650.907 -5.99867 0.167167 0
M  V30 7070 H 651.977 -4.77078 0.867447 0
M  V30 7071 N 653.32 -0.135238 -1.57019 0
M  V30 7072 C 654.23 0.822226 -2.19719 0
M  V30 7073 C 655.246 1.28057 -1.17802 0
M  V30 7074 O 656.422 1.3402 -1.50335 0
M  V30 7075 C 653.487 2.0484 -2.79717 0
M  V30 7076 C 652.548 1.64042 -3.96723 0
M  V30 7077 C 651.781 2.80814 -4.53849 0
M  V30 7078 O 652.004 3.967 -4.0986 0
M  V30 7079 O 650.938 2.56963 -5.44292 0
M  V30 7080 H 654.764 0.318552 -3.02025 0
M  V30 7081 H 652.349 0.0912021 -1.49121 0
M  V30 7082 H 654.231 2.76622 -3.17897 0
M  V30 7083 H 652.906 2.54182 -2.00432 0
M  V30 7084 H 651.813 0.893182 -3.63281 0
M  V30 7085 H 653.146 1.19426 -4.77492 0
M  V30 7086 N 654.798 1.5699 0.138552 0
M  V30 7087 C 655.708 2.02174 1.19008 0
M  V30 7088 C 656.724 0.938622 1.46512 0
M  V30 7089 O 657.9 1.24872 1.58016 0
M  V30 7090 C 654.965 2.40045 2.50159 0
M  V30 7091 C 654.026 3.62346 2.30226 0
M  V30 7092 C 653.259 3.98401 3.55123 0
M  V30 7093 O 653.482 3.35019 4.61647 0
M  V30 7094 O 652.416 4.91606 3.47285 0
M  V30 7095 H 656.242 2.91954 0.836452 0
M  V30 7096 H 653.827 1.45293 0.347907 0
M  V30 7097 H 655.709 2.65225 3.27465 0
M  V30 7098 H 654.384 1.53417 2.85035 0
M  V30 7099 H 653.291 3.42341 1.50843 0
M  V30 7100 H 654.624 4.49617 2.00262 0
M  V30 7101 N 656.276 -0.40816 1.52223 0
M  V30 7102 C 657.687 -0.986929 1.58482 0
M  V30 7103 C 658.038 -1.91521 0.425917 0
M  V30 7104 O 657.163 -2.11593 -0.453593 0
M  V30 7105 C 657.758 -1.7967 2.87235 0
M  V30 7106 C 656.317 -2.32549 2.9597 0
M  V30 7107 C 655.464 -1.12558 2.53428 0
M  V30 7108 H 658.415 -0.188362 1.57578 0
M  V30 7109 H 658.436 -2.65417 2.72642 0
M  V30 7110 H 657.948 -1.12082 3.71563 0
M  V30 7111 H 656.049 -3.03505 2.16137 0
M  V30 7112 H 656.162 -2.63348 4.00231 0
M  V30 7113 H 654.526 -1.47984 2.07299 0
M  V30 7114 H 655.309 -0.465351 3.40131 0
M  V30 7115 N 657.755 -1.42862 -0.66545 0
M  V30 7116 C 659.002 -1.4383 -1.42546 0
M  V30 7117 C 659.33 -0.0581114 -1.94413 0
M  V30 7118 O 658.585 0.935002 -1.71919 0
M  V30 7119 C 658.884 -2.4175 -2.63233 0
M  V30 7120 C 658.55 -3.87915 -2.29854 0
M  V30 7121 C 657.212 -4.27726 -2.20463 0
M  V30 7122 C 659.564 -4.80074 -2.02924 0
M  V30 7123 C 656.892 -5.57666 -1.82279 0
M  V30 7124 C 659.244 -6.10366 -1.66242 0
M  V30 7125 C 657.908 -6.49167 -1.55367 0
M  V30 7126 H 657.178 -0.52631 -0.521612 0
M  V30 7127 H 659.825 -1.75863 -0.757914 0
M  V30 7128 H 658.13 -2.03077 -3.35063 0
M  V30 7129 H 659.827 -2.39759 -3.21429 0
M  V30 7130 H 656.417 -3.564 -2.3807 0
M  V30 7131 H 660.601 -4.50097 -2.09108 0
M  V30 7132 H 655.857 -5.8658 -1.72436 0
M  V30 7133 H 660.031 -6.81258 -1.44432 0
M  V30 7134 H 657.658 -7.49761 -1.2555 0
M  V30 7135 N 659.233 0.902656 -1.29189 0
M  V30 7136 C 660.479 1.65532 -1.17163 0
M  V30 7137 C 660.812 1.92216 0.276879 0
M  V30 7138 O 660.087 1.53048 1.20027 0
M  V30 7139 C 660.37 3.00629 -1.98228 0
M  V30 7140 C 660.223 2.81029 -3.51202 0
M  V30 7141 C 661.542 4.01321 -1.80635 0
M  V30 7142 H 658.661 0.60071 -0.426985 0
M  V30 7143 H 661.303 1.04578 -1.5863 0
M  V30 7144 H 659.453 3.52656 -1.62991 0
M  V30 7145 H 661.125 2.35927 -3.96404 0
M  V30 7146 H 659.368 2.1587 -3.76275 0
M  V30 7147 H 660.039 3.77014 -4.03192 0
M  V30 7148 H 662.515 3.58394 -2.11406 0
M  V30 7149 H 661.391 4.93792 -2.3971 0
M  V30 7150 H 661.652 4.35505 -0.760754 0
M  V30 7151 N 660.711 1.11618 1.11262 0
M  V30 7152 C 661.644 0.719995 2.16544 0
M  V30 7153 C 662.622 -0.28471 1.60088 0
M  V30 7154 O 663.806 -0.180693 1.87632 0
M  V30 7155 C 660.933 0.0643302 3.38639 0
M  V30 7156 C 659.979 1.03448 4.13764 0
M  V30 7157 S 660.812 2.55789 4.70459 0
M  V30 7158 C 661.968 1.91529 5.95875 0
M  V30 7159 H 662.201 1.61181 2.49816 0
M  V30 7160 H 659.734 0.934401 1.22916 0
M  V30 7161 H 661.692 -0.307609 4.09346 0
M  V30 7162 H 660.353 -0.804471 3.03623 0
M  V30 7163 H 659.546 0.523188 5.01277 0
M  V30 7164 H 659.148 1.34893 3.48826 0
M  V30 7165 H 661.44 1.25286 6.65815 0
M  V30 7166 H 662.383 2.77047 6.51652 0
M  V30 7167 H 662.791 1.37468 5.47506 0
M  V30 7168 N 662.189 -1.289 0.906776 0
M  V30 7169 C 663.436 -1.95269 0.536326 0
M  V30 7170 C 663.764 -1.71435 -0.918711 0
M  V30 7171 O 663.019 -1.02431 -1.66752 0
M  V30 7172 C 663.318 -3.48704 0.783617 0
M  V30 7173 C 662.984 -3.92626 2.21711 0
M  V30 7174 C 661.646 -4.04329 2.60906 0
M  V30 7175 C 663.998 -4.15218 3.15029 0
M  V30 7176 C 661.326 -4.35998 3.92584 0
M  V30 7177 C 663.678 -4.48365 4.46264 0
M  V30 7178 C 662.342 -4.58278 4.85322 0
M  V30 7179 H 661.612 -0.714538 0.196256 0
M  V30 7180 H 664.259 -1.53366 1.14678 0
M  V30 7181 H 662.564 -3.91696 0.0903048 0
M  V30 7182 H 664.261 -3.98162 0.476267 0
M  V30 7183 H 660.851 -3.84038 1.90296 0
M  V30 7184 H 665.035 -4.05636 2.8596 0
M  V30 7185 H 660.291 -4.41878 4.22557 0
M  V30 7186 H 664.465 -4.64795 5.18593 0
M  V30 7187 H 662.092 -4.82573 5.87391 0
M  V30 7188 N 663.667 -0.670007 -1.42649 0
M  V30 7189 C 665.083 -0.33911 -1.55956 0
M  V30 7190 C 665.283 1.1558 -1.65056 0
M  V30 7191 O 664.339 1.94111 -1.61485 0
M  V30 7192 C 665.652 -1.06522 -2.812 0
M  V30 7193 C 667.2 -1.04708 -2.94966 0
M  V30 7194 C 667.675 -1.75442 -4.23065 0
M  V30 7195 N 669.166 -1.72286 -4.29967 0
M  V30 7196 C 669.901 -2.23877 -5.27889 0
M  V30 7197 N 669.397 -2.83829 -6.31991 0
M  V30 7198 N 671.19 -2.14279 -5.19654 0
M  V30 7199 H 663.341 -1.6399 -1.34986 0
M  V30 7200 H 665.604 -0.690603 -0.649439 0
M  V30 7201 H 665.31 -2.12033 -2.80597 0
M  V30 7202 H 665.184 -0.627398 -3.71946 0
M  V30 7203 H 667.571 -0.000315966 -2.951 0
M  V30 7204 H 667.652 -1.52374 -2.05465 0
M  V30 7205 H 667.296 -2.80084 -4.23693 0
M  V30 7206 H 667.226 -1.25229 -5.11493 0
M  V30 7207 H 669.717 -1.28554 -3.55362 0
M  V30 7208 H 670.03 -3.20827 -7.03057 0
M  V30 7209 H 668.375 -2.87896 -6.32567 0
M  V30 7210 H 671.566 -1.67135 -4.37245 0
M  V30 7211 H 671.739 -2.54792 -5.95806 0
M  V30 7212 N 665.145 1.52092 -0.413018 0
M  V30 7213 C 666.092 2.27119 0.410558 0
M  V30 7214 C 667.062 1.29692 1.03774 0
M  V30 7215 O 668.247 1.58561 1.06128 0
M  V30 7216 C 665.387 3.09863 1.51918 0
M  V30 7217 C 664.5 4.22252 0.912528 0
M  V30 7218 C 663.635 4.92348 1.99417 0
M  V30 7219 C 662.674 5.96694 1.36466 0
M  V30 7220 N 661.811 6.60292 2.38661 0
M  V30 7221 H 666.651 2.97067 -0.235661 0
M  V30 7222 H 664.188 1.46542 -0.128055 0
M  V30 7223 H 666.146 3.56144 2.17295 0
M  V30 7224 H 664.776 2.42078 2.13537 0
M  V30 7225 H 663.828 3.80113 0.147697 0
M  V30 7226 H 665.14 4.9709 0.412717 0
M  V30 7227 H 664.294 5.42054 2.72512 0
M  V30 7228 H 663.033 4.17087 2.52764 0
M  V30 7229 H 662.038 5.46304 0.61906 0
M  V30 7230 H 663.263 6.73899 0.838827 0
M  V30 7231 H 661.209 5.87858 2.91134 0
M  V30 7232 H 661.126 7.30816 1.93503 0
M  V30 7233 H 662.394 7.14635 3.11314 0
M  V30 7234 N 666.623 0.143563 1.56945 0
M  V30 7235 C 667.848 -0.518701 2.00809 0
M  V30 7236 C 668.273 -1.5785 1.02298 0
M  V30 7237 O 667.631 -1.813 -0.0017839 0
M  V30 7238 C 667.679 -1.09929 3.43436 0
M  V30 7239 O 666.783 -2.21425 3.47915 0
M  V30 7240 H 666.124 -0.127215 0.6517 0
M  V30 7241 H 668.654 0.239283 2.03196 0
M  V30 7242 H 668.664 -1.4288 3.82164 0
M  V30 7243 H 667.339 -0.323162 4.14643 0
M  V30 7244 H 665.916 -1.89728 3.21026 0
M  V30 7245 N 668.101 -1.57061 -0.130224 0
M  V30 7246 C 669.378 -1.75205 -0.869631 0
M  V30 7247 C 669.758 -0.716063 -1.98584 0
M  V30 7248 O 669.106 0.262032 -2.26993 0
M  V30 7249 C 669.316 -3.19835 -1.39666 0
M  V30 7250 C 670.664 -3.82011 -1.85345 0
M  V30 7251 O 671.688 -3.23368 -1.49371 0
M  V30 7252 O 670.547 -4.85064 -2.51744 0
M  V30 7253 H 667.641 -0.716977 -0.412157 0
M  V30 7254 H 670.187 -1.69311 -0.11484 0
M  V30 7255 H 668.959 -3.86745 -0.595288 0
M  V30 7256 H 668.582 -3.30222 -2.21448 0
M  V30 7257 N 669.579 0.400081 -1.52437 0
M  V30 7258 C 670.995 0.739359 -1.41441 0
M  V30 7259 C 671.195 1.94512 -0.526053 0
M  V30 7260 O 670.251 2.525 0.00472502 0
M  V30 7261 C 671.564 0.984824 -2.84116 0
M  V30 7262 C 673.112 1.08698 -2.93519 0
M  V30 7263 C 673.587 1.36515 -4.37181 0
M  V30 7264 N 675.078 1.43361 -4.40457 0
M  V30 7265 C 675.813 1.66528 -5.48686 0
M  V30 7266 N 675.309 1.87239 -6.67018 0
M  V30 7267 N 677.102 1.68617 -5.36213 0
M  V30 7268 H 669.253 -0.393484 -2.08723 0
M  V30 7269 H 671.516 -0.1138 -0.941145 0
M  V30 7270 H 671.222 0.171096 -3.51284 0
M  V30 7271 H 671.096 1.90253 -3.25705 0
M  V30 7272 H 673.483 1.89129 -2.26526 0
M  V30 7273 H 673.564 0.147432 -2.55375 0
M  V30 7274 H 673.208 0.565982 -5.04737 0
M  V30 7275 H 673.138 2.31737 -4.7287 0
M  V30 7276 H 675.629 1.29108 -3.55161 0
M  V30 7277 H 675.942 2.04392 -7.45281 0
M  V30 7278 H 674.287 1.84486 -6.70067 0
M  V30 7279 H 677.478 1.5198 -4.42741 0
M  V30 7280 H 677.651 1.86332 -6.20632 0
M  V30 7281 N 671.057 1.43213 0.657864 0
M  V30 7282 C 672.285 1.48015 1.44566 0
M  V30 7283 C 672.7 0.0965951 1.88553 0
M  V30 7284 O 672.057 -0.892221 1.59203 0
M  V30 7285 C 672.108 2.42199 2.68369 0
M  V30 7286 O 671.829 3.75173 2.26223 0
M  V30 7287 C 673.33 2.56195 3.61772 0
M  V30 7288 H 670.55 0.502861 0.444266 0
M  V30 7289 H 673.094 1.87907 0.806917 0
M  V30 7290 H 671.249 2.05514 3.28394 0
M  V30 7291 H 671.663 4.25776 3.06293 0
M  V30 7292 H 673.137 3.26182 4.4532 0
M  V30 7293 H 673.614 1.60534 4.0881 0
M  V30 7294 H 674.22 2.93671 3.07632 0
M  V30 7295 N 672.536 -0.895792 1.29666 0
M  V30 7296 C 673.466 -2.01673 1.17688 0
M  V30 7297 C 674.447 -1.69955 0.0701317 0
M  V30 7298 O 675.632 -1.9258 0.250289 0
M  V30 7299 C 672.762 -3.36568 0.856681 0
M  V30 7300 C 671.716 -3.82509 1.92017 0
M  V30 7301 C 671.042 -5.14574 1.4532 0
M  V30 7302 C 672.342 -4.02409 3.32963 0
M  V30 7303 H 674.036 -2.11953 2.11463 0
M  V30 7304 H 671.582 -1.01839 1.01807 0
M  V30 7305 H 673.535 -4.14498 0.759577 0
M  V30 7306 H 672.259 -3.26391 -0.116763 0
M  V30 7307 H 670.918 -3.068 2.00673 0
M  V30 7308 H 670.566 -5.00815 0.468325 0
M  V30 7309 H 670.266 -5.46283 2.16447 0
M  V30 7310 H 671.79 -5.9504 1.36968 0
M  V30 7311 H 673.204 -4.70808 3.27127 0
M  V30 7312 H 671.601 -4.45478 4.02082 0
M  V30 7313 H 672.671 -3.06616 3.75652 0
M  V30 7314 N 674.014 -1.12206 -1.10668 0
M  V30 7315 C 675.244 -0.897332 -1.86095 0
M  V30 7316 C 675.652 0.556778 -1.80822 0
M  V30 7317 O 674.995 1.39658 -1.19337 0
M  V30 7318 C 675.057 -1.29095 -3.35522 0
M  V30 7319 C 674.721 -2.75586 -3.64556 0
M  V30 7320 C 675.718 -3.73785 -3.6136 0
M  V30 7321 C 673.403 -3.12432 -3.93309 0
M  V30 7322 C 675.397 -5.06845 -3.86506 0
M  V30 7323 C 673.084 -4.45675 -4.18111 0
M  V30 7324 C 674.082 -5.42691 -4.147 0
M  V30 7325 O 673.77 -6.73532 -4.38873 0
M  V30 7326 H 673.502 -0.320704 -0.595084 0
M  V30 7327 H 676.056 -1.49517 -1.40833 0
M  V30 7328 H 674.286 -0.636299 -3.81429 0
M  V30 7329 H 675.975 -1.04073 -3.92331 0
M  V30 7330 H 676.741 -3.46664 -3.39189 0
M  V30 7331 H 672.62 -2.3753 -3.95096 0
M  V30 7332 H 676.164 -5.82559 -3.83758 0
M  V30 7333 H 672.061 -4.72526 -4.39761 0
M  V30 7334 H 672.829 -6.79442 -4.564 0
M  V30 7335 N 675.492 1.28418 -0.913599 0
M  V30 7336 C 676.74 1.94596 -0.545594 0
M  V30 7337 C 677.061 1.7227 0.913668 0
M  V30 7338 O 676.331 1.06233 1.64595 0
M  V30 7339 H 674.911 0.720065 -0.198783 0
M  V30 7340 H 677.573 1.56404 -1.16292 0
M  V30 7341 H 676.669 3.03202 -0.739911 0
M  V30 7342 N 676.97 0.677563 1.42291 0
M  V30 7343 C 677.918 -0.0106755 2.32598 0
M  V30 7344 C 678.912 -0.787643 1.49975 0
M  V30 7345 O 680.118 -0.695295 1.66029 0
M  V30 7346 H 676.493 -0.0222482 0.751671 0
M  V30 7347 H 678.464 0.768312 2.88339 0
M  V30 7348 C 677.213 -0.946142 3.3458 0
M  V30 7349 H 676.536 -0.357701 3.98197 0
M  V30 7350 H 677.976 -1.39634 4.00348 0
M  V30 7351 C 676.435 -2.05383 2.67057 0
M  V30 7352 O 676.965 -3.1406 2.50458 0
M  V30 7353 N 675.171 -1.82635 2.26038 0
M  V30 7354 H 674.718 -0.942534 2.39737 0
M  V30 7355 H 674.676 -2.56937 1.81192 0
M  V30 7356 N 678.448 -1.51871 0.421078 0
M  V30 7357 C 679.725 -1.9447 -0.20993 0
M  V30 7358 C 680.105 -1.35875 -1.61558 0
M  V30 7359 O 679.453 -0.539294 -2.22045 0
M  V30 7360 C 679.663 -3.48402 -0.204165 0
M  V30 7361 C 681.011 -4.2254 -0.417696 0
M  V30 7362 O 682.035 -3.55074 -0.282999 0
M  V30 7363 O 680.894 -5.422 -0.684239 0
M  V30 7364 H 677.988 -0.815283 -0.138718 0
M  V30 7365 H 680.534 -1.62832 0.477884 0
M  V30 7366 H 679.306 -3.83464 0.779183 0
M  V30 7367 H 678.929 -3.86436 -0.935576 0
M  V30 7368 N 679.926 -0.151884 -1.56866 0
M  V30 7369 C 681.342 0.204486 -1.58285 0
M  V30 7370 C 681.542 1.6431 -1.16639 0
M  V30 7371 O 680.598 2.37077 -0.868946 0
M  V30 7372 C 681.911 -0.0587019 -3.00643 0
M  V30 7373 C 683.459 0.00462303 -3.13 0
M  V30 7374 C 683.934 -0.231297 -4.57416 0
M  V30 7375 N 685.425 -0.178394 -4.62856 0
M  V30 7376 C 686.16 -0.335379 -5.72418 0
M  V30 7377 N 685.656 -0.550355 -6.90611 0
M  V30 7378 N 687.449 -0.272641 -5.61438 0
M  V30 7379 H 679.6 -1.09116 -1.82229 0
M  V30 7380 H 681.863 -0.432311 -0.843689 0
M  V30 7381 H 681.569 -1.05453 -3.35518 0
M  V30 7382 H 681.443 0.658508 -3.71407 0
M  V30 7383 H 683.83 0.991009 -2.77962 0
M  V30 7384 H 683.911 -0.744992 -2.44711 0
M  V30 7385 H 683.555 -1.2148 -4.93158 0
M  V30 7386 H 683.485 0.5387 -5.23837 0
M  V30 7387 H 685.976 -0.0170923 -3.77896 0
M  V30 7388 H 686.289 -0.660116 -7.69976 0
M  V30 7389 H 684.634 -0.586736 -6.92519 0
M  V30 7390 H 687.825 -0.105421 -4.67981 0
M  V30 7391 H 687.998 -0.398418 -6.46774 0
M  V30 7392 N 681.404 1.57128 0.121893 0
M  V30 7393 C 682.651 1.847 0.830188 0
M  V30 7394 C 682.979 0.736543 1.80015 0
M  V30 7395 O 682.234 -0.272358 1.93796 0
M  V30 7396 C 682.533 3.1874 1.61677 0
M  V30 7397 C 682.199 4.43901 0.791361 0
M  V30 7398 C 680.861 4.77887 0.563731 0
M  V30 7399 C 683.213 5.20753 0.215823 0
M  V30 7400 C 680.541 5.86168 -0.249737 0
M  V30 7401 C 682.893 6.29891 -0.584821 0
M  V30 7402 C 681.557 6.6241 -0.822794 0
M  V30 7403 H 680.827 0.675866 0.303787 0
M  V30 7404 H 683.474 1.91276 0.0926894 0
M  V30 7405 H 681.779 3.07728 2.42509 0
M  V30 7406 H 683.476 3.37295 2.16872 0
M  V30 7407 H 680.066 4.17272 0.978867 0
M  V30 7408 H 684.25 4.94851 0.378907 0
M  V30 7409 H 679.506 6.0979 -0.44336 0
M  V30 7410 H 683.68 6.88624 -1.03779 0
M  V30 7411 H 681.307 7.46147 -1.45496 0
M  V30 7412 N 682.882 -0.391992 1.52647 0
M  V30 7413 C 683.792 -1.503 1.80131 0
M  V30 7414 C 684.808 -1.59825 0.687882 0
M  V30 7415 O 685.984 -1.76218 0.975149 0
M  V30 7416 C 683.049 -2.85863 1.96171 0
M  V30 7417 C 682.11 -2.86084 3.20085 0
M  V30 7418 C 681.343 -4.15181 3.35351 0
M  V30 7419 O 681.566 -5.09981 2.55491 0
M  V30 7420 O 680.5 -4.22603 4.28591 0
M  V30 7421 H 684.326 -1.30007 2.74466 0
M  V30 7422 H 681.911 -0.579539 1.37701 0
M  V30 7423 H 683.793 -3.66236 2.08445 0
M  V30 7424 H 682.468 -3.06189 1.05025 0
M  V30 7425 H 681.375 -2.04504 3.13256 0
M  V30 7426 H 682.708 -2.7071 4.11068 0
M  V30 7427 N 684.36 -1.4356 -0.65026 0
M  V30 7428 C 685.608 -1.45046 -1.40734 0
M  V30 7429 C 685.929 -0.0769822 -1.94848 0
M  V30 7430 O 685.199 0.888098 -1.74613 0
M  V30 7431 H 683.779 -0.534034 -0.522318 0
M  V30 7432 H 686.441 -1.79186 -0.766703 0
M  V30 7433 H 685.537 -2.16476 -2.24822 0
M  V30 7434 N 685.838 0.888903 -1.30139 0
M  V30 7435 C 687.068 1.67115 -1.21474 0
M  V30 7436 C 687.476 1.87852 0.225472 0
M  V30 7437 O 686.819 1.42324 1.16145 0
M  V30 7438 C 686.881 3.0713 -1.86846 0
M  V30 7439 C 686.545 3.09582 -3.36167 0
M  V30 7440 C 687.542 2.88929 -4.32222 0
M  V30 7441 C 685.227 3.31304 -3.77549 0
M  V30 7442 C 687.221 2.89949 -5.67634 0
M  V30 7443 C 684.908 3.31954 -5.13079 0
M  V30 7444 C 685.906 3.113 -6.07932 0
M  V30 7445 O 685.594 3.11758 -7.40987 0
M  V30 7446 H 685.326 0.528372 -0.421662 0
M  V30 7447 H 687.88 1.11919 -1.7223 0
M  V30 7448 H 686.11 3.63973 -1.30615 0
M  V30 7449 H 687.799 3.6749 -1.72354 0
M  V30 7450 H 688.565 2.71948 -4.01584 0
M  V30 7451 H 684.444 3.46417 -3.04165 0
M  V30 7452 H 687.988 2.73746 -6.41645 0
M  V30 7453 H 683.885 3.48469 -5.43359 0
M  V30 7454 H 684.653 3.27951 -7.49927 0
M  V30 7455 N 687.317 1.12792 1.10072 0
M  V30 7456 C 688.557 0.895691 1.8373 0
M  V30 7457 C 688.921 -0.568131 1.83402 0
M  V30 7458 O 690.122 -0.917666 2.52651 0
M  V30 7459 C 688.393 1.4593 3.2625 0
M  V30 7460 S 689.952 1.36615 4.16991 0
M  V30 7461 H 686.77 0.323017 0.633389 0
M  V30 7462 H 689.372 1.43816 1.32428 0
M  V30 7463 H 688.076 2.51818 3.24062 0
M  V30 7464 H 687.607 0.914478 3.82624 0
M  V30 7465 H 689.622 0.340131 4.95033 0
M  V30 7466 N 688.795 -1.27931 0.920396 0
M  V30 7467 C 690.044 -1.93975 0.552867 0
M  V30 7468 C 690.357 -1.73193 -0.909035 0
M  V30 7469 O 691.563 -2.33515 -1.38502 0
M  V30 7470 C 690.019 -3.47463 0.937947 0
M  V30 7471 C 689.627 -3.77013 2.42003 0
M  V30 7472 C 691.371 -4.19628 0.64132 0
M  V30 7473 C 689.278 -5.23841 2.74489 0
M  V30 7474 H 688.208 -0.726146 0.203046 0
M  V30 7475 H 690.859 -1.45339 1.12022 0
M  V30 7476 H 689.241 -3.94867 0.299317 0
M  V30 7477 H 690.415 -3.40393 3.10595 0
M  V30 7478 H 688.73 -3.18035 2.6878 0
M  V30 7479 H 691.327 -5.27729 0.860622 0
M  V30 7480 H 691.67 -4.14164 -0.421168 0
M  V30 7481 H 692.203 -3.78022 1.23872 0
M  V30 7482 H 688.942 -5.34388 3.79618 0
M  V30 7483 H 688.462 -5.61634 2.1054 0
M  V30 7484 H 690.141 -5.91647 2.61845 0
M  V30 7485 N 690.273 -0.685099 -1.4193 0
M  V30 7486 C 691.55 -0.140152 -1.95097 0
M  V30 7487 C 691.93 1.34745 -1.62502 0
M  V30 7488 O 691.278 2.08872 -0.926534 0
M  V30 7489 C 691.488 -0.420268 -3.4646 0
M  V30 7490 C 692.836 -0.342338 -4.23218 0
M  V30 7491 O 693.86 -0.354592 -3.54431 0
M  V30 7492 O 692.719 -0.293404 -5.45712 0
M  V30 7493 H 689.813 -0.00885998 -0.826953 0
M  V30 7494 H 692.359 -0.760539 -1.51703 0
M  V30 7495 H 691.131 -1.45037 -3.63428 0
M  V30 7496 H 690.754 0.231616 -3.96925 0
M  V30 7497 N 691.751 1.51645 -0.429126 0
M  V30 7498 C 692.681 2.30434 0.377148 0
M  V30 7499 C 693.662 1.35493 1.02838 0
M  V30 7500 O 694.847 1.6441 1.03359 0
M  V30 7501 C 691.977 3.14038 1.48315 0
M  V30 7502 C 690.931 4.1719 0.955855 0
M  V30 7503 C 690.257 4.89263 2.15698 0
M  V30 7504 C 691.557 5.223 -0.00402136 0
M  V30 7505 H 693.251 2.98085 -0.280336 0
M  V30 7506 H 690.797 1.43354 -0.136265 0
M  V30 7507 H 692.75 3.67933 2.05435 0
M  V30 7508 H 691.474 2.44193 2.16881 0
M  V30 7509 H 690.133 3.64335 0.406929 0
M  V30 7510 H 689.781 4.15929 2.82864 0
M  V30 7511 H 689.481 5.59009 1.81059 0
M  V30 7512 H 691.005 5.45978 2.73387 0
M  V30 7513 H 692.419 5.71315 0.476607 0
M  V30 7514 H 690.816 5.99525 -0.26258 0
M  V30 7515 H 691.886 4.75638 -0.943236 0
M  V30 7516 N 693.229 0.160201 1.56784 0
M  V30 7517 C 694.159 -0.770264 2.2043 0
M  V30 7518 C 695.14 -1.24736 1.15651 0
M  V30 7519 O 696.325 -1.30253 1.44041 0
M  V30 7520 C 693.455 -2.00427 2.83631 0
M  V30 7521 C 692.409 -1.66345 3.94352 0
M  V30 7522 C 691.735 -2.97119 4.4455 0
M  V30 7523 C 693.035 -0.899972 5.14488 0
M  V30 7524 H 694.729 -0.239783 2.98438 0
M  V30 7525 H 692.275 -0.113891 1.43549 0
M  V30 7526 H 694.228 -2.66012 3.26827 0
M  V30 7527 H 692.952 -2.5587 2.02973 0
M  V30 7528 H 691.611 -1.03133 3.51794 0
M  V30 7529 H 691.259 -3.5058 3.60698 0
M  V30 7530 H 690.959 -2.75073 5.19238 0
M  V30 7531 H 692.483 -3.63753 4.90425 0
M  V30 7532 H 693.897 -1.45818 5.54446 0
M  V30 7533 H 692.294 -0.778968 5.95023 0
M  V30 7534 H 693.364 0.105827 4.84785 0
M  V30 7535 N 694.707 -1.5719 -0.113559 0
M  V30 7536 C 695.654 -2.00736 -1.13901 0
M  V30 7537 C 696.624 -0.88044 -1.40846 0
M  V30 7538 O 697.809 -1.14507 -1.5262 0
M  V30 7539 C 694.949 -2.42132 -2.45899 0
M  V30 7540 C 694.062 -3.68264 -2.25844 0
M  V30 7541 C 693.197 -3.98617 -3.5111 0
M  V30 7542 C 692.236 -5.17915 -3.26236 0
M  V30 7543 N 691.373 -5.44111 -4.4372 0
M  V30 7544 H 696.213 -2.88128 -0.760677 0
M  V30 7545 H 693.75 -1.42523 -0.364099 0
M  V30 7546 H 695.708 -2.6417 -3.22908 0
M  V30 7547 H 694.338 -1.57775 -2.81615 0
M  V30 7548 H 693.39 -3.53809 -1.39726 0
M  V30 7549 H 694.702 -4.55425 -2.03444 0
M  V30 7550 H 693.856 -4.21333 -4.36536 0
M  V30 7551 H 692.595 -3.09942 -3.76546 0
M  V30 7552 H 691.6 -4.95038 -2.39202 0
M  V30 7553 H 692.825 -6.08172 -3.02165 0
M  V30 7554 H 690.771 -4.58394 -4.69266 0
M  V30 7555 H 690.688 -6.25606 -4.24444 0
M  V30 7556 H 691.956 -5.71351 -5.30263 0
M  V30 7557 N 696.185 0.383891 -1.52853 0
M  V30 7558 C 697.095 1.49343 -1.80925 0
M  V30 7559 C 698.111 1.59458 -0.696348 0
M  V30 7560 O 699.287 1.75698 -0.984481 0
M  V30 7561 C 696.352 2.84819 -1.97684 0
M  V30 7562 C 695.413 2.84382 -3.21598 0
M  V30 7563 C 694.646 4.13397 -3.37548 0
M  V30 7564 O 694.869 5.08619 -2.58192 0
M  V30 7565 O 693.803 4.20325 -4.30826 0
M  V30 7566 H 697.629 1.2855 -2.75152 0
M  V30 7567 H 695.214 0.572229 -1.38007 0
M  V30 7568 H 697.096 3.65125 -2.10385 0
M  V30 7569 H 695.771 3.05627 -1.06647 0
M  V30 7570 H 694.678 2.0284 -3.14336 0
M  V30 7571 H 696.011 2.68526 -4.12498 0
M  V30 7572 N 697.663 1.43903 0.642637 0
M  V30 7573 C 698.593 1.52697 1.76652 0
M  V30 7574 C 699.574 0.380816 1.65782 0
M  V30 7575 O 700.759 0.599432 1.84717 0
M  V30 7576 C 697.889 1.45975 3.15133 0
M  V30 7577 C 696.843 2.58949 3.40778 0
M  V30 7578 C 696.169 2.37279 4.79169 0
M  V30 7579 C 697.469 4.01153 3.34475 0
M  V30 7580 H 699.163 2.46766 1.69549 0
M  V30 7581 H 696.709 1.18767 0.814279 0
M  V30 7582 H 698.662 1.5073 3.93521 0
M  V30 7583 H 697.386 0.484162 3.22991 0
M  V30 7584 H 696.045 2.53564 2.64765 0
M  V30 7585 H 695.693 1.37939 4.83717 0
M  V30 7586 H 695.393 3.13016 4.97287 0
M  V30 7587 H 696.917 2.43834 5.59801 0
M  V30 7588 H 698.331 4.07968 4.02784 0
M  V30 7589 H 696.728 4.77001 3.64129 0
M  V30 7590 H 697.798 4.25539 2.32475 0
M  V30 7591 N 699.141 -0.881989 1.30609 0
M  V30 7592 C 700.104 -1.96957 1.1722 0
M  V30 7593 C 701.104 -1.60472 0.102598 0
M  V30 7594 O 702.294 -1.70628 0.350943 0
M  V30 7595 C 699.426 -3.31463 0.796572 0
M  V30 7596 H 700.619 -2.10262 2.13846 0
M  V30 7597 H 698.172 -1.06877 1.14048 0
M  V30 7598 H 698.907 -3.23859 -0.169053 0
M  V30 7599 H 698.692 -3.59314 1.56959 0
M  V30 7600 H 700.182 -4.11233 0.72645 0
M  V30 7601 N 700.619 -1.13374 -1.09472 0
M  V30 7602 C 701.569 -0.77946 -2.14263 0
M  V30 7603 C 702.553 0.226271 -1.59301 0
M  V30 7604 O 703.745 0.0302581 -1.76974 0
M  V30 7605 C 700.874 -0.246635 -3.42413 0
M  V30 7606 C 699.96 -1.28124 -4.04283 0
M  V30 7607 N 700.351 -2.48201 -4.40715 0
M  V30 7608 C 698.649 -1.12892 -4.31476 0
M  V30 7609 C 699.35 -3.14347 -4.8945 0
M  V30 7610 N 698.326 -2.41771 -4.86876 0
M  V30 7611 H 702.128 -1.69305 -2.40235 0
M  V30 7612 H 699.642 -1.01598 -1.26695 0
M  V30 7613 H 701.639 0.0254131 -4.16892 0
M  V30 7614 H 700.299 0.661287 -3.17895 0
M  V30 7615 H 701.31 -2.85511 -4.32093 0
M  V30 7616 H 697.987 -0.279117 -4.16566 0
M  V30 7617 H 699.377 -4.16663 -5.27107 0
M  V30 7618 N 702.098 1.27442 -0.927168 0
M  V30 7619 C 703.347 1.93679 -0.563146 0
M  V30 7620 C 703.66 1.73673 0.899837 0
M  V30 7621 O 704.866 2.34247 1.37262 0
M  V30 7622 C 703.322 3.46961 -0.95636 0
M  V30 7623 C 702.93 3.75724 -2.43999 0
M  V30 7624 C 704.674 4.19282 -0.663565 0
M  V30 7625 C 702.581 5.22378 -2.77263 0
M  V30 7626 H 701.511 0.725059 -0.206894 0
M  V30 7627 H 704.162 1.44743 -1.12791 0
M  V30 7628 H 702.544 3.94703 -0.320254 0
M  V30 7629 H 703.718 3.38741 -3.12396 0
M  V30 7630 H 702.033 3.16605 -2.70463 0
M  V30 7631 H 704.63 5.27265 -0.888596 0
M  V30 7632 H 704.973 4.14382 0.399198 0
M  V30 7633 H 705.506 3.7736 -1.25875 0
M  V30 7634 H 702.245 5.32367 -3.82446 0
M  V30 7635 H 701.765 5.6051 -2.13516 0
M  V30 7636 H 703.444 5.9025 -2.64979 0
M  V30 7637 N 703.576 0.692616 1.41565 0
M  V30 7638 C 704.506 0.0397325 2.33466 0
M  V30 7639 C 705.487 -0.770334 1.51657 0
M  V30 7640 O 706.672 -0.723903 1.80203 0
M  V30 7641 C 703.802 -0.899495 3.3545 0
M  V30 7642 C 702.756 -0.196738 4.27548 0
M  V30 7643 C 702.082 -1.25012 5.19881 0
M  V30 7644 C 703.382 0.935158 5.1386 0
M  V30 7645 H 705.076 0.807296 2.88311 0
M  V30 7646 H 702.622 0.389665 1.38628 0
M  V30 7647 H 704.575 -1.36545 3.98665 0
M  V30 7648 H 703.299 -1.69869 2.78948 0
M  V30 7649 H 701.958 0.249158 3.65752 0
M  V30 7650 H 701.606 -2.04177 4.59696 0
M  V30 7651 H 701.306 -0.784931 5.82334 0
M  V30 7652 H 702.83 -1.71665 5.85972 0
M  V30 7653 H 704.244 0.549619 5.70659 0
M  V30 7654 H 702.641 1.32726 5.85238 0
M  V30 7655 H 703.711 1.77613 4.512 0
M  V30 7656 N 705.054 -1.51416 0.437162 0
M  V30 7657 C 706.302 -2.01687 -0.129108 0
M  V30 7658 C 706.623 -1.32329 -1.43227 0
M  V30 7659 O 705.893 -0.457796 -1.90476 0
M  V30 7660 H 704.473 -0.745277 -0.0507023 0
M  V30 7661 H 707.135 -1.86075 0.579828 0
M  V30 7662 H 706.231 -3.10605 -0.305141 0
M  V30 7663 N 706.532 -0.168513 -1.56696 0
M  V30 7664 C 707.779 0.477158 -1.96798 0
M  V30 7665 C 708.107 1.63442 -1.05437 0
M  V30 7666 O 707.362 1.95503 -0.0878903 0
M  V30 7667 C 707.661 1.00441 -3.42996 0
M  V30 7668 C 707.327 -0.0366556 -4.50885 0
M  V30 7669 C 705.989 -0.322785 -4.80116 0
M  V30 7670 C 708.341 -0.743447 -5.1587 0
M  V30 7671 C 705.669 -1.32114 -5.71632 0
M  V30 7672 C 708.021 -1.73077 -6.08463 0
M  V30 7673 C 706.685 -2.02437 -6.36062 0
M  V30 7674 H 705.955 0.174604 -0.720135 0
M  V30 7675 H 708.602 -0.259884 -1.89728 0
M  V30 7676 H 706.907 1.81922 -3.47004 0
M  V30 7677 H 708.604 1.51294 -3.71364 0
M  V30 7678 H 705.194 0.196532 -4.28149 0
M  V30 7679 H 709.378 -0.535602 -4.93401 0
M  V30 7680 H 704.634 -1.55482 -5.913 0
M  V30 7681 H 708.808 -2.28382 -6.57886 0
M  V30 7682 H 706.435 -2.79946 -7.06777 0
M  V30 7683 N 708.01 1.57248 0.105221 0
M  V30 7684 C 709.235 1.90143 0.828264 0
M  V30 7685 C 709.66 0.761811 1.71983 0
M  V30 7686 O 709.018 -0.287086 1.79013 0
M  V30 7687 C 709.066 3.21856 1.62608 0
M  V30 7688 O 708.17 3.08732 2.7342 0
M  V30 7689 H 707.511 0.623558 0.228192 0
M  V30 7690 H 710.041 2.0443 0.0834826 0
M  V30 7691 H 710.051 3.54916 2.01243 0
M  V30 7692 H 708.726 4.0439 0.971687 0
M  V30 7693 H 707.303 2.87167 2.37886 0
M  V30 7694 N 709.488 -0.375779 1.53054 0
M  V30 7695 C 710.718 -1.1387 1.72386 0
M  V30 7696 C 711.126 -1.8382 0.447966 0
M  V30 7697 O 710.469 -1.74027 -0.588244 0
M  V30 7698 C 710.531 -2.22047 2.82728 0
M  V30 7699 C 710.195 -1.71951 4.23417 0
M  V30 7700 C 711.192 -1.18909 5.06119 0
M  V30 7701 C 708.877 -1.77773 4.69789 0
M  V30 7702 C 710.871 -0.723529 6.3328 0
M  V30 7703 C 708.558 -1.30829 5.96931 0
M  V30 7704 C 709.556 -0.782077 6.78508 0
M  V30 7705 O 709.244 -0.319529 8.03265 0
M  V30 7706 H 708.976 -0.346835 0.580242 0
M  V30 7707 H 711.53 -0.443748 2.00549 0
M  V30 7708 H 709.76 -2.95006 2.50017 0
M  V30 7709 H 711.449 -2.83654 2.90336 0
M  V30 7710 H 712.215 -1.13758 4.7147 0
M  V30 7711 H 708.094 -2.17673 4.06373 0
M  V30 7712 H 711.638 -0.312126 6.96901 0
M  V30 7713 H 707.535 -1.3567 6.31081 0
M  V30 7714 H 708.303 -0.439796 8.17318 0
M  V30 7715 N 710.966 -1.44241 -0.634997 0
M  V30 7716 C 711.876 -1.53293 -1.77591 0
M  V30 7717 C 712.892 -0.418831 -1.68884 0
M  V30 7718 O 714.068 -0.675619 -1.8973 0
M  V30 7719 C 711.133 -1.47075 -3.13958 0
M  V30 7720 C 710.194 -2.69304 -3.34326 0
M  V30 7721 C 709.427 -2.63374 -4.64187 0
M  V30 7722 O 709.65 -1.69161 -5.44739 0
M  V30 7723 O 708.584 -3.54166 -4.86673 0
M  V30 7724 H 712.41 -2.49673 -1.72908 0
M  V30 7725 H 709.995 -1.26445 -0.795745 0
M  V30 7726 H 711.877 -1.46117 -3.95257 0
M  V30 7727 H 710.552 -0.538373 -3.19192 0
M  V30 7728 H 709.459 -2.75831 -2.52721 0
M  V30 7729 H 710.792 -3.61576 -3.33951 0
M  V30 7730 N 712.444 0.87505 -1.31075 0
M  V30 7731 C 713.693 1.62245 -1.19831 0
M  V30 7732 C 714.006 1.94078 0.24357 0
M  V30 7733 O 715.212 2.67265 0.477646 0
M  V30 7734 C 713.668 2.92464 -2.09744 0
M  V30 7735 C 713.276 2.68134 -3.58898 0
M  V30 7736 C 715.02 3.70449 -2.07287 0
M  V30 7737 C 712.927 3.9423 -4.40836 0
M  V30 7738 H 711.857 0.608741 -0.444916 0
M  V30 7739 H 714.508 0.967947 -1.55894 0
M  V30 7740 H 712.89 3.59262 -1.66574 0
M  V30 7741 H 714.064 2.09776 -4.10281 0
M  V30 7742 H 712.379 2.03511 -3.6328 0
M  V30 7743 H 714.976 4.63983 -2.65752 0
M  V30 7744 H 715.319 4.02611 -1.05876 0
M  V30 7745 H 715.852 3.10528 -2.48631 0
M  V30 7746 H 712.591 3.67221 -5.42982 0
M  V30 7747 H 712.111 4.52058 -3.94213 0
M  V30 7748 H 713.79 4.62162 -4.52786 0
M  V30 7749 N 713.922 1.13953 1.08869 0
M  V30 7750 C 715.338 0.878924 1.33218 0
M  V30 7751 C 715.538 -0.482478 1.95638 0
M  V30 7752 O 714.594 -1.22778 2.2064 0
M  V30 7753 C 715.907 2.00798 2.23832 0
M  V30 7754 C 717.455 2.04073 2.37325 0
M  V30 7755 C 717.93 3.16258 3.31278 0
M  V30 7756 N 719.421 3.15805 3.38853 0
M  V30 7757 C 720.156 3.99249 4.11567 0
M  V30 7758 N 719.652 4.92721 4.87029 0
M  V30 7759 N 721.445 3.87327 4.0735 0
M  V30 7760 H 713.596 2.01645 0.66731 0
M  V30 7761 H 715.859 0.878395 0.356547 0
M  V30 7762 H 715.565 2.98986 1.85203 0
M  V30 7763 H 715.439 1.92704 3.24261 0
M  V30 7764 H 717.826 1.06495 2.75214 0
M  V30 7765 H 717.907 2.16239 1.36654 0
M  V30 7766 H 717.551 4.14079 2.9411 0
M  V30 7767 H 717.481 3.0133 4.31866 0
M  V30 7768 H 719.972 2.48102 2.8505 0
M  V30 7769 H 720.285 5.52867 5.39961 0
M  V30 7770 H 718.63 4.96723 4.86098 0
M  V30 7771 H 721.821 3.13627 3.475 0
M  V30 7772 H 721.994 4.52585 4.63757 0
M  V30 7773 N 715.4 -1.26948 0.933913 0
M  V30 7774 C 716.33 -2.29017 0.45534 0
M  V30 7775 C 717.311 -1.62961 -0.487605 0
M  V30 7776 O 718.496 -1.90223 -0.391022 0
M  V30 7777 C 715.626 -3.46112 -0.287015 0
M  V30 7778 C 714.58 -4.24205 0.568682 0
M  V30 7779 C 713.906 -5.3384 -0.303206 0
M  V30 7780 C 715.206 -4.88954 1.83633 0
M  V30 7781 H 716.9 -2.69298 1.30839 0
M  V30 7782 H 714.446 -1.29459 0.630579 0
M  V30 7783 H 716.399 -4.16622 -0.6328 0
M  V30 7784 H 715.123 -3.04765 -1.17414 0
M  V30 7785 H 713.782 -3.5545 0.897261 0
M  V30 7786 H 713.43 -4.88734 -1.18947 0
M  V30 7787 H 713.13 -5.86998 0.265879 0
M  V30 7788 H 714.654 -6.0719 -0.644423 0
M  V30 7789 H 716.068 -5.51717 1.55823 0
M  V30 7790 H 714.465 -5.52198 2.34941 0
M  V30 7791 H 715.535 -4.12305 2.55211 0
M  V30 7792 N 716.879 -0.700114 -1.41195 0
M  V30 7793 C 718.125 -0.233351 -2.01453 0
M  V30 7794 C 718.458 1.16548 -1.55339 0
M  V30 7795 O 717.733 1.78756 -0.766575 0
M  V30 7796 C 718.016 -0.2961 -3.58881 0
M  V30 7797 C 717.869 -1.7322 -4.15108 0
M  V30 7798 C 719.188 0.341525 -4.38773 0
M  V30 7799 H 716.307 -0.0862667 -0.731934 0
M  V30 7800 H 718.949 -0.889693 -1.67882 0
M  V30 7801 H 717.099 0.262736 -3.87611 0
M  V30 7802 H 718.771 -2.34523 -3.97236 0
M  V30 7803 H 717.014 -2.2649 -3.69979 0
M  V30 7804 H 717.685 -1.7276 -5.24269 0
M  V30 7805 H 720.161 -0.134461 -4.15883 0
M  V30 7806 H 719.037 0.267098 -5.4825 0
M  V30 7807 H 719.298 1.42289 -4.18577 0
M  V30 7808 N 718.357 1.51182 -0.445186 0
M  V30 7809 C 719.267 2.31692 0.368255 0
M  V30 7810 C 720.283 1.40942 1.02036 0
M  V30 7811 O 721.459 1.74011 1.01401 0
M  V30 7812 C 718.524 3.14903 1.45041 0
M  V30 7813 C 717.585 4.21442 0.817615 0
M  V30 7814 C 716.818 5.00677 1.8482 0
M  V30 7815 O 717.041 4.80644 3.07145 0
M  V30 7816 O 715.975 5.84559 1.43438 0
M  V30 7817 H 719.801 3.0232 -0.289219 0
M  V30 7818 H 717.386 1.47951 -0.207555 0
M  V30 7819 H 719.268 3.66612 2.07783 0
M  V30 7820 H 717.943 2.47031 2.09182 0
M  V30 7821 H 716.85 3.73791 0.151931 0
M  V30 7822 H 718.183 4.9171 0.219564 0
M  V30 7823 N 719.835 0.176821 1.56605 0
M  V30 7824 C 721.112 -0.513365 1.88743 0
M  V30 7825 C 721.492 -1.80929 1.08757 0
M  V30 7826 O 720.84 -2.27765 0.183127 0
M  V30 7827 C 721.05 -0.749925 3.40848 0
M  V30 7828 C 722.398 -1.07747 4.10701 0
M  V30 7829 O 723.422 -0.838277 3.46196 0
M  V30 7830 O 722.281 -1.52901 5.24675 0
M  V30 7831 H 719.375 -0.265296 0.783292 0
M  V30 7832 H 721.921 0.215669 1.68324 0
M  V30 7833 H 720.693 0.16599 3.90948 0
M  V30 7834 H 720.316 -1.53208 3.66897 0
M  V30 7835 N 721.313 -1.57302 -0.09688 0
M  V30 7836 C 722.561 -1.8563 -0.799117 0
M  V30 7837 C 722.882 -0.765263 -1.79356 0
M  V30 7838 O 722.152 0.208657 -1.94786 0
M  V30 7839 H 720.732 -0.684937 -0.298111 0
M  V30 7840 H 723.394 -1.9474 -0.0789341 0
M  V30 7841 H 722.49 -2.82305 -1.3308 0
M  V30 7842 N 722.791 0.367657 -1.53252 0
M  V30 7843 C 723.738 1.45028 -1.79543 0
M  V30 7844 C 724.708 1.53288 -0.63969 0
M  V30 7845 O 725.893 1.69209 -0.881653 0
M  V30 7846 C 723.033 2.82 -1.98923 0
M  V30 7847 C 722.146 2.82722 -3.26638 0
M  V30 7848 C 721.281 4.11257 -3.36216 0
M  V30 7849 C 720.32 4.06113 -4.57972 0
M  V30 7850 N 719.457 5.26293 -4.64715 0
M  V30 7851 H 724.297 1.21908 -2.71923 0
M  V30 7852 H 721.834 0.591011 -1.34705 0
M  V30 7853 H 723.792 3.61568 -2.08146 0
M  V30 7854 H 722.422 3.03523 -1.09881 0
M  V30 7855 H 721.474 1.95399 -3.26379 0
M  V30 7856 H 722.786 2.74794 -4.16281 0
M  V30 7857 H 721.94 4.99239 -3.44739 0
M  V30 7858 H 720.679 4.21935 -2.44586 0
M  V30 7859 H 719.684 3.16517 -4.49552 0
M  V30 7860 H 720.909 3.97039 -5.50942 0
M  V30 7861 H 718.855 5.37561 -3.75985 0
M  V30 7862 H 718.772 5.20526 -5.4826 0
M  V30 7863 H 720.04 6.16113 -4.77519 0
M  V30 7864 N 724.269 1.44576 0.627338 0
M  V30 7865 C 725.499 1.50829 1.41189 0
M  V30 7866 C 725.907 0.133083 1.88731 0
M  V30 7867 O 725.25 -0.87199 1.61685 0
M  V30 7868 C 725.312 2.41449 2.66351 0
M  V30 7869 C 724.976 3.88549 2.40579 0
M  V30 7870 C 725.973 4.78981 2.0217 0
M  V30 7871 C 723.658 4.33287 2.54102 0
M  V30 7872 C 725.652 6.12153 1.77618 0
M  V30 7873 C 723.339 5.66505 2.29163 0
M  V30 7874 C 724.337 6.55756 1.9098 0
M  V30 7875 O 724.025 7.86506 1.66321 0
M  V30 7876 H 723.757 0.513797 0.439304 0
M  V30 7877 H 726.311 1.90256 0.774059 0
M  V30 7878 H 724.541 1.96955 3.32784 0
M  V30 7879 H 726.23 2.38608 3.28361 0
M  V30 7880 H 726.996 4.45689 1.91277 0
M  V30 7881 H 722.875 3.64074 2.82792 0
M  V30 7882 H 726.419 6.81776 1.47739 0
M  V30 7883 H 722.316 5.99358 2.39668 0
M  V30 7884 H 723.084 7.98341 1.80536 0
M  V30 7885 N 725.747 -0.868086 1.31537 0
M  V30 7886 C 726.995 -1.61807 1.21091 0
M  V30 7887 C 727.316 -1.93631 -0.230623 0
M  V30 7888 O 726.586 -1.5846 -1.15183 0
M  V30 7889 H 725.166 -0.599854 0.445178 0
M  V30 7890 H 727.828 -1.03915 1.64887 0
M  V30 7891 H 726.924 -2.56088 1.78396 0
M  V30 7892 N 727.225 -1.14528 -1.08264 0
M  V30 7893 C 728.188 -0.83632 -2.13397 0
M  V30 7894 C 729.188 0.159715 -1.60005 0
M  V30 7895 O 730.378 -0.0688098 -1.74064 0
M  V30 7896 C 727.51 -0.246973 -3.40004 0
M  V30 7897 H 728.703 -1.76808 -2.42237 0
M  V30 7898 H 726.256 -0.951509 -1.24 0
M  V30 7899 H 726.991 0.693436 -3.168 0
M  V30 7900 H 726.776 -0.964412 -3.80055 0
M  V30 7901 H 728.266 -0.0480679 -4.17572 0
M  V30 7902 N 728.703 1.26451 -0.940633 0
M  V30 7903 C 729.635 2.25556 -0.407104 0
M  V30 7904 C 730.648 1.55888 0.469324 0
M  V30 7905 O 731.837 1.76292 0.279858 0
M  V30 7906 C 728.937 3.36109 0.434064 0
M  V30 7907 C 728.11 4.3532 -0.426082 0
M  V30 7908 C 727.169 5.25004 0.354563 0
M  V30 7909 O 726.195 5.68684 -0.242219 0
M  V30 7910 N 727.397 5.5652 1.65123 0
M  V30 7911 H 730.162 2.7197 -1.25907 0
M  V30 7912 H 727.723 1.40212 -0.809456 0
M  V30 7913 H 729.715 3.93059 0.963684 0
M  V30 7914 H 728.285 2.89194 1.18683 0
M  V30 7915 H 727.505 3.77449 -1.13692 0
M  V30 7916 H 728.793 4.986 -1.01366 0
M  V30 7917 H 728.191 5.22912 2.15822 0
M  V30 7918 H 726.748 6.16115 2.12711 0
M  V30 7919 N 730.181 0.707592 1.40822 0
M  V30 7920 C 731.458 0.171172 1.9485 0
M  V30 7921 C 731.838 -1.32143 1.64625 0
M  V30 7922 O 731.186 -2.07372 0.959647 0
M  V30 7923 C 731.396 0.475334 3.45748 0
M  V30 7924 C 732.744 0.409625 4.22619 0
M  V30 7925 O 733.768 0.410934 3.53822 0
M  V30 7926 O 732.627 0.380185 5.45176 0
M  V30 7927 H 729.721 0.022015 0.826707 0
M  V30 7928 H 732.267 0.784577 1.50474 0
M  V30 7929 H 731.039 1.50801 3.61075 0
M  V30 7930 H 730.662 -0.168439 3.97243 0
M  V30 7931 N 731.66 -1.50943 0.453197 0
M  V30 7932 C 732.937 -1.94872 -0.168633 0
M  V30 7933 C 733.317 -1.39272 -1.5864 0
M  V30 7934 O 732.665 -0.586272 -2.20851 0
M  V30 7935 C 732.875 -3.48757 -0.130217 0
M  V30 7936 C 734.223 -4.23331 -0.327975 0
M  V30 7937 O 735.247 -3.55594 -0.207619 0
M  V30 7938 O 734.106 -5.43529 -0.569077 0
M  V30 7939 H 731.2 -0.818042 -0.121394 0
M  V30 7940 H 733.746 -1.61782 0.512316 0
M  V30 7941 H 732.518 -3.81725 0.860346 0
M  V30 7942 H 732.141 -3.88333 -0.853397 0
M  V30 7943 N 733.138 -0.185124 -1.56509 0
M  V30 7944 C 734.085 0.739729 -2.18624 0
M  V30 7945 C 735.055 1.217 -1.13042 0
M  V30 7946 O 736.24 1.28268 -1.41251 0
M  V30 7947 C 733.38 1.95787 -2.84186 0
M  V30 7948 C 732.493 1.52289 -4.04267 0
M  V30 7949 C 731.628 2.69576 -4.57714 0
M  V30 7950 C 730.667 2.22636 -5.70175 0
M  V30 7951 N 729.804 3.33065 -6.18071 0
M  V30 7952 H 734.644 0.203269 -2.97306 0
M  V30 7953 H 732.181 0.0885946 -1.46833 0
M  V30 7954 H 734.139 2.67253 -3.20361 0
M  V30 7955 H 732.769 2.4678 -2.08085 0
M  V30 7956 H 731.821 0.704458 -3.7382 0
M  V30 7957 H 733.133 1.13843 -4.85635 0
M  V30 7958 H 732.287 3.4918 -4.96143 0
M  V30 7959 H 731.026 3.1129 -3.75433 0
M  V30 7960 H 730.031 1.41483 -5.31284 0
M  V30 7961 H 731.256 1.81964 -6.54267 0
M  V30 7962 H 729.202 3.74328 -5.38715 0
M  V30 7963 H 729.119 2.98756 -6.94464 0
M  V30 7964 H 730.387 4.12912 -6.61153 0
M  V30 7965 N 734.616 1.57351 0.0885366 0
M  V30 7966 C 735.864 1.86051 0.789262 0
M  V30 7967 C 736.185 0.774763 1.78948 0
M  V30 7968 O 735.455 -0.198324 1.94894 0
M  V30 7969 H 734.035 0.686508 0.294475 0
M  V30 7970 H 736.697 1.94779 0.0686055 0
M  V30 7971 H 735.793 2.83007 1.31581 0
M  V30 7972 N 736.094 -0.359525 1.53444 0
M  V30 7973 C 737.026 -1.46098 1.76602 0
M  V30 7974 C 738.039 -1.49395 0.646912 0
M  V30 7975 O 739.228 -1.52765 0.923307 0
M  V30 7976 C 736.328 -2.84836 1.83635 0
M  V30 7977 C 735.501 -3.05164 3.13358 0
M  V30 7978 C 734.56 -4.24051 3.11556 0
M  V30 7979 O 733.586 -4.18935 3.85334 0
M  V30 7980 N 734.788 -5.31775 2.328 0
M  V30 7981 H 737.553 -1.2661 2.71643 0
M  V30 7982 H 735.114 -0.549294 1.52297 0
M  V30 7983 H 737.106 -3.62516 1.799 0
M  V30 7984 H 735.676 -2.97542 0.958509 0
M  V30 7985 H 734.896 -2.15091 3.30348 0
M  V30 7986 H 736.184 -3.15619 3.99076 0
M  V30 7987 H 735.582 -5.38796 1.7238 0
M  V30 7988 H 734.139 -6.0801 2.34877 0
M  V30 7989 N 737.572 -1.44907 -0.619662 0
M  V30 7990 C 738.818 -1.49504 -1.37914 0
M  V30 7991 C 739.173 -0.130158 -1.91959 0
M  V30 7992 O 738.466 0.856263 -1.71402 0
M  V30 7993 C 738.66 -2.50002 -2.55409 0
M  V30 7994 C 738.489 -3.96128 -2.12867 0
M  V30 7995 C 737.259 -4.64204 -1.99606 0
M  V30 7996 C 739.457 -4.85014 -1.71074 0
M  V30 7997 N 737.439 -5.95104 -1.50748 0
M  V30 7998 C 738.81 -6.05447 -1.33544 0
M  V30 7999 C 740.865 -4.71979 -1.58557 0
M  V30 8000 C 739.568 -7.1429 -0.847484 0
M  V30 8001 C 741.594 -5.80858 -1.11165 0
M  V30 8002 C 740.956 -7.00439 -0.745932 0
M  V30 8003 H 737.055 -0.60207 -0.499034 0
M  V30 8004 H 739.639 -1.81305 -0.70968 0
M  V30 8005 H 737.81 -2.20172 -3.19967 0
M  V30 8006 H 739.542 -2.44823 -3.22248 0
M  V30 8007 H 736.297 -4.19182 -2.20417 0
M  V30 8008 H 736.721 -6.64676 -1.28585 0
M  V30 8009 H 741.363 -3.79953 -1.85461 0
M  V30 8010 H 739.081 -8.06116 -0.565974 0
M  V30 8011 H 742.667 -5.72803 -1.01923 0
M  V30 8012 H 741.547 -7.83255 -0.384848 0
M  V30 8013 N 739.05 0.861098 -1.31996 0
M  V30 8014 C 739.998 1.99052 -1.20337 0
M  V30 8015 C 740.992 1.69045 -0.109623 0
M  V30 8016 O 742.198 1.77931 -0.272117 0
M  V30 8017 H 738.573 0.653064 -0.372843 0
M  V30 8018 H 740.544 2.06015 -2.15872 0
M  V30 8019 C 739.293 3.34846 -0.936663 0
M  V30 8020 H 738.616 3.58462 -1.77045 0
M  V30 8021 H 740.056 4.1444 -0.895302 0
M  V30 8022 C 738.515 3.34965 0.360607 0
M  V30 8023 O 739.045 3.7745 1.37456 0
M  V30 8024 N 737.251 2.88101 0.380296 0
M  V30 8025 H 736.798 2.53721 -0.445351 0
M  V30 8026 H 736.756 2.88563 1.24816 0
M  V30 8027 N 740.528 1.15101 1.07655 0
M  V30 8028 C 741.776 0.922149 1.79836 0
M  V30 8029 C 742.097 -0.552346 1.87014 0
M  V30 8030 O 741.367 -1.40145 1.3688 0
M  V30 8031 H 739.947 0.338182 0.666064 0
M  V30 8032 H 742.609 1.45107 1.30115 0
M  V30 8033 H 741.705 1.32883 2.82398 0
M  V30 8034 N 742.006 -1.2595 0.947325 0
M  V30 8035 C 742.939 -2.24559 0.406009 0
M  V30 8036 C 743.917 -1.54441 -0.508598 0
M  V30 8037 O 745.101 -1.83181 -0.444644 0
M  V30 8038 C 742.228 -3.36136 -0.415987 0
M  V30 8039 C 741.274 -4.24245 0.437969 0
M  V30 8040 S 742.107 -5.01948 1.86572 0
M  V30 8041 C 743.263 -6.16997 1.05194 0
M  V30 8042 H 743.496 -2.70128 1.24171 0
M  V30 8043 H 741.029 -1.34912 0.750874 0
M  V30 8044 H 742.987 -4.00861 -0.88433 0
M  V30 8045 H 741.648 -2.89167 -1.22643 0
M  V30 8046 H 740.841 -5.03634 -0.192127 0
M  V30 8047 H 740.443 -3.64416 0.841235 0
M  V30 8048 H 742.735 -6.76848 0.297126 0
M  V30 8049 H 743.678 -6.84324 1.8195 0
M  V30 8050 H 744.086 -5.61458 0.585294 0
M  V30 8051 N 743.484 -0.715051 -1.40445 0
M  V30 8052 C 744.73 -0.254705 -2.01194 0
M  V30 8053 C 745.063 1.14894 -1.56567 0
M  V30 8054 O 744.338 1.77933 -0.785491 0
M  V30 8055 C 744.621 -0.334148 -3.58546 0
M  V30 8056 C 744.474 -1.77613 -4.13248 0
M  V30 8057 C 745.793 0.294968 -4.3911 0
M  V30 8058 H 742.912 -0.094025 -0.730978 0
M  V30 8059 H 745.554 -0.907449 -1.66929 0
M  V30 8060 H 743.704 0.221609 -3.87867 0
M  V30 8061 H 745.376 -2.38723 -3.94727 0
M  V30 8062 H 743.619 -2.30402 -3.67556 0
M  V30 8063 H 744.29 -1.78311 -5.22407 0
M  V30 8064 H 746.766 -0.178563 -4.15717 0
M  V30 8065 H 745.642 0.208934 -5.48502 0
M  V30 8066 H 745.903 1.37841 -4.20062 0
M  V30 8067 N 744.962 1.50701 -0.461195 0
M  V30 8068 C 745.909 2.2831 0.338094 0
M  V30 8069 C 746.879 1.32928 0.995957 0
M  V30 8070 O 748.064 1.61857 1.0103 0
M  V30 8071 C 745.204 3.14539 1.41983 0
M  V30 8072 C 744.317 4.24942 0.77773 0
M  V30 8073 C 743.452 4.98443 1.83652 0
M  V30 8074 C 742.491 6.00733 1.17413 0
M  V30 8075 N 741.628 6.6755 2.17533 0
M  V30 8076 H 746.468 2.96167 -0.330051 0
M  V30 8077 H 744.005 1.4606 -0.174611 0
M  V30 8078 H 745.963 3.62877 2.05855 0
M  V30 8079 H 744.593 2.48749 2.05727 0
M  V30 8080 H 743.645 3.80391 0.0266924 0
M  V30 8081 H 744.957 4.98151 0.254362 0
M  V30 8082 H 744.111 5.50449 2.55129 0
M  V30 8083 H 742.85 4.24917 2.39367 0
M  V30 8084 H 741.855 5.47997 0.444944 0
M  V30 8085 H 743.08 6.76227 0.624006 0
M  V30 8086 H 741.026 5.96823 2.72284 0
M  V30 8087 H 740.943 7.36603 1.70154 0
M  V30 8088 H 742.211 7.24178 2.88421 0
M  V30 8089 N 746.441 0.193421 1.56409 0
M  V30 8090 C 747.351 -0.740112 2.2262 0
M  V30 8091 C 748.367 -1.23597 1.22474 0
M  V30 8092 O 749.543 -1.28348 1.55206 0
M  V30 8093 C 746.608 -1.94317 2.87127 0
M  V30 8094 C 745.669 -1.49205 4.02538 0
M  V30 8095 C 744.902 -2.63776 4.63959 0
M  V30 8096 O 745.125 -3.81215 4.24301 0
M  V30 8097 O 744.059 -2.36585 5.53454 0
M  V30 8098 H 747.885 -0.206238 3.02999 0
M  V30 8099 H 745.47 -0.0357938 1.49357 0
M  V30 8100 H 747.352 -2.64633 3.27944 0
M  V30 8101 H 746.027 -2.46568 2.09728 0
M  V30 8102 H 744.934 -0.757738 3.66346 0
M  V30 8103 H 746.267 -1.01622 4.81595 0
M  V30 8104 N 747.919 -1.57396 -0.0801906 0
M  V30 8105 C 748.849 -2.06145 -1.09665 0
M  V30 8106 C 749.83 -0.953273 -1.40878 0
M  V30 8107 O 751.015 -1.22548 -1.50651 0
M  V30 8108 C 748.145 -2.49836 -2.41245 0
M  V30 8109 C 747.099 -3.64454 -2.24405 0
M  V30 8110 C 746.425 -3.94172 -3.61293 0
M  V30 8111 C 747.725 -4.94807 -1.67223 0
M  V30 8112 H 749.419 -2.91316 -0.691028 0
M  V30 8113 H 746.965 -1.40145 -0.330957 0
M  V30 8114 H 748.918 -2.82552 -3.12638 0
M  V30 8115 H 747.642 -1.61683 -2.83771 0
M  V30 8116 H 746.301 -3.32008 -1.55454 0
M  V30 8117 H 745.949 -3.03163 -4.01374 0
M  V30 8118 H 745.649 -4.71345 -3.50867 0
M  V30 8119 H 747.173 -4.29376 -4.3413 0
M  V30 8120 H 748.587 -5.25807 -2.28472 0
M  V30 8121 H 746.984 -5.76245 -1.67515 0
M  V30 8122 H 748.054 -4.80751 -0.632944 0
M  V30 8123 N 749.397 0.351382 -1.53633 0
M  V30 8124 C 750.646 1.08988 -1.69719 0
M  V30 8125 C 750.959 1.90043 -0.462948 0
M  V30 8126 O 752.165 2.66769 -0.504613 0
M  V30 8127 C 750.621 1.98691 -3.00083 0
M  V30 8128 C 750.229 1.22881 -4.30818 0
M  V30 8129 C 751.973 2.72446 -3.25536 0
M  V30 8130 C 749.88 2.11568 -5.52262 0
M  V30 8131 H 748.81 0.410588 -0.632403 0
M  V30 8132 H 751.461 0.349886 -1.80133 0
M  V30 8133 H 749.843 2.76478 -2.83506 0
M  V30 8134 H 751.017 0.500582 -4.58073 0
M  V30 8135 H 749.332 0.60928 -4.11918 0
M  V30 8136 H 751.929 3.39055 -4.13456 0
M  V30 8137 H 752.272 3.38588 -2.42206 0
M  V30 8138 H 752.805 2.01735 -3.42852 0
M  V30 8139 H 749.544 1.4998 -6.38111 0
M  V30 8140 H 749.064 2.82201 -5.29266 0
M  V30 8141 H 750.743 2.70802 -5.87601 0
M  V30 8142 N 750.875 1.45233 0.611969 0
M  V30 8143 C 752.152 1.39495 1.37115 0
M  V30 8144 C 752.532 0.0633303 2.11005 0
M  V30 8145 O 751.88 -0.954617 2.07604 0
M  V30 8146 C 752.09 2.60579 2.32163 0
M  V30 8147 C 753.438 3.05477 2.94905 0
M  V30 8148 O 754.462 2.60921 2.42485 0
M  V30 8149 O 753.321 3.82787 3.90047 0
M  V30 8150 H 750.415 0.55335 0.614599 0
M  V30 8151 H 752.961 1.57355 0.635423 0
M  V30 8152 H 751.733 3.49085 1.76793 0
M  V30 8153 H 751.356 2.45031 3.13122 0
M  V30 8154 N 752.353 -0.854086 1.3245 0
M  V30 8155 C 753.303 -1.9508 1.18016 0
M  V30 8156 C 754.287 -1.60665 0.0869417 0
M  V30 8157 O 755.479 -1.74201 0.313505 0
M  V30 8158 C 752.608 -3.3113 0.905961 0
M  V30 8159 C 751.694 -3.71763 2.04091 0
M  V30 8160 N 752.085 -3.84218 3.28953 0
M  V30 8161 C 750.383 -4.01393 1.94421 0
M  V30 8162 C 751.084 -4.192 4.03294 0
M  V30 8163 N 750.06 -4.30749 3.31596 0
M  V30 8164 H 753.862 -2.02843 2.12678 0
M  V30 8165 H 751.376 -1.04588 1.24238 0
M  V30 8166 H 753.373 -4.09471 0.783508 0
M  V30 8167 H 752.033 -3.24684 -0.0322715 0
M  V30 8168 H 753.044 -3.68524 3.63883 0
M  V30 8169 H 749.721 -4.03246 1.08162 0
M  V30 8170 H 751.111 -4.36301 5.1097 0
M  V30 8171 N 753.831 -1.1567 -1.07043 0
M  V30 8172 C 754.778 -0.856336 -2.14326 0
M  V30 8173 C 755.748 0.192051 -1.64986 0
M  V30 8174 O 756.933 0.0589148 -1.90709 0
M  V30 8175 C 754.073 -0.355227 -3.43267 0
M  V30 8176 C 753.186 -1.46555 -4.06381 0
M  V30 8177 C 752.321 -0.920245 -5.23168 0
M  V30 8178 C 751.36 -2.00729 -5.78251 0
M  V30 8179 N 750.497 -1.47813 -6.86364 0
M  V30 8180 H 755.337 -1.77514 -2.39359 0
M  V30 8181 H 752.874 -0.885676 -1.17449 0
M  V30 8182 H 754.832 -0.0463804 -4.17174 0
M  V30 8183 H 753.462 0.526649 -3.18475 0
M  V30 8184 H 752.514 -1.89052 -3.30096 0
M  V30 8185 H 753.826 -2.28616 -4.43324 0
M  V30 8186 H 752.98 -0.564127 -6.04072 0
M  V30 8187 H 751.719 -0.0688477 -4.87651 0
M  V30 8188 H 750.724 -2.3722 -4.95991 0
M  V30 8189 H 751.949 -2.86252 -6.15822 0
M  V30 8190 H 749.895 -0.649145 -6.5278 0
M  V30 8191 H 749.812 -2.23498 -7.22208 0
M  V30 8192 H 751.08 -1.15036 -7.70965 0
M  V30 8193 N 755.309 1.25446 -0.953992 0
M  V30 8194 C 756.272 2.24156 -0.478179 0
M  V30 8195 C 757.272 1.55278 0.417776 0
M  V30 8196 O 758.462 1.72866 0.215155 0
M  V30 8197 C 755.594 3.39495 0.309202 0
M  V30 8198 H 756.787 2.67764 -1.35064 0
M  V30 8199 H 754.34 1.37822 -0.737206 0
M  V30 8200 H 755.075 3.01307 1.19936 0
M  V30 8201 H 754.86 3.90679 -0.333562 0
M  V30 8202 H 756.35 4.12796 0.631594 0
M  V30 8203 N 756.787 0.722489 1.40064 0
M  V30 8204 C 758.064 0.191829 1.94657 0
M  V30 8205 C 758.444 -1.30389 1.66018 0
M  V30 8206 O 757.792 -2.06342 0.981588 0
M  V30 8207 C 758.002 0.511978 3.45224 0
M  V30 8208 C 759.35 0.454426 4.22161 0
M  V30 8209 O 760.374 0.448438 3.53366 0
M  V30 8210 O 759.233 0.437986 5.44742 0
M  V30 8211 H 756.327 0.0307821 0.826427 0
M  V30 8212 H 758.873 0.800493 1.49634 0
M  V30 8213 H 757.645 1.54622 3.59455 0
M  V30 8214 H 757.268 -0.126296 3.97399 0
M  V30 8215 N 758.265 -1.50454 0.469181 0
M  V30 8216 C 759.195 -2.31353 -0.31592 0
M  V30 8217 C 760.176 -1.38172 -0.992094 0
M  V30 8218 O 761.361 -1.67093 -0.989633 0
M  V30 8219 C 758.491 -3.1786 -1.39937 0
M  V30 8220 C 757.445 -4.19578 -0.844909 0
M  V30 8221 C 756.771 -4.9481 -2.0265 0
M  V30 8222 C 758.071 -5.22106 0.142499 0
M  V30 8223 H 759.765 -2.97237 0.359269 0
M  V30 8224 H 757.311 -1.42942 0.174224 0
M  V30 8225 H 759.264 -3.7325 -1.95607 0
M  V30 8226 H 757.988 -2.49858 -2.1033 0
M  V30 8227 H 756.647 -3.65285 -0.310189 0
M  V30 8228 H 756.295 -4.23282 -2.71737 0
M  V30 8229 H 755.995 -5.63613 -1.66174 0
M  V30 8230 H 757.519 -5.53035 -2.58815 0
M  V30 8231 H 758.933 -5.72378 -0.324966 0
M  V30 8232 H 757.33 -5.98618 0.421441 0
M  V30 8233 H 758.4 -4.7297 1.06901 0
M  V30 8234 N 759.743 -0.201713 -1.56304 0
M  V30 8235 C 760.706 0.702811 -2.18159 0
M  V30 8236 C 761.706 1.13619 -1.13787 0
M  V30 8237 O 762.896 1.0482 -1.39134 0
M  V30 8238 C 760.028 1.96032 -2.78898 0
M  V30 8239 H 761.221 0.163836 -2.99452 0
M  V30 8240 H 758.774 0.04791 -1.56227 0
M  V30 8241 H 759.509 2.54165 -2.01421 0
M  V30 8242 H 759.294 1.65824 -3.55309 0
M  V30 8243 H 760.784 2.60519 -3.26373 0
M  V30 8244 N 761.222 1.57436 0.0718424 0
M  V30 8245 C 762.468 1.87525 0.772149 0
M  V30 8246 C 762.801 0.79399 1.77227 0
M  V30 8247 O 762.076 -0.195733 1.93513 0
M  V30 8248 C 762.359 3.28272 1.48018 0
M  V30 8249 C 762.212 4.47052 0.49647 0
M  V30 8250 C 763.531 3.67256 2.42509 0
M  V30 8251 H 760.65 0.682049 0.279245 0
M  V30 8252 H 763.292 1.89967 0.03534 0
M  V30 8253 H 761.442 3.26321 2.10824 0
M  V30 8254 H 763.114 4.61127 -0.126375 0
M  V30 8255 H 761.357 4.33392 -0.188205 0
M  V30 8256 H 762.028 5.42315 1.02949 0
M  V30 8257 H 764.504 3.70301 1.89781 0
M  V30 8258 H 763.38 4.66626 2.89053 0
M  V30 8259 H 763.641 2.97186 3.27312 0
M  V30 8260 N 762.7 -0.34323 1.53817 0
M  V30 8261 C 763.663 -1.40444 1.8113 0
M  V30 8262 C 764.663 -1.45604 0.682366 0
M  V30 8263 O 765.853 -1.45974 0.950649 0
M  V30 8264 C 762.985 -2.79369 1.95361 0
M  V30 8265 H 764.178 -1.17489 2.75928 0
M  V30 8266 H 761.731 -0.577636 1.45234 0
M  V30 8267 H 762.466 -3.07607 1.02707 0
M  V30 8268 H 762.251 -2.7702 2.77493 0
M  V30 8269 H 763.741 -3.56178 2.18008 0
M  V30 8270 N 764.178 -1.45556 -0.604258 0
M  V30 8271 C 765.589 -1.44171 -1.18624 0
M  V30 8272 C 765.94 -0.171081 -1.95453 0
M  V30 8273 O 765.065 0.727156 -2.03817 0
M  V30 8274 C 765.66 -2.61193 -2.15786 0
M  V30 8275 C 764.219 -2.62918 -2.69353 0
M  V30 8276 C 763.366 -2.36479 -1.4482 0
M  V30 8277 H 766.317 -1.53747 -0.393381 0
M  V30 8278 H 766.338 -2.35481 -2.98879 0
M  V30 8279 H 765.85 -3.53656 -1.59841 0
M  V30 8280 H 763.951 -1.7447 -3.29228 0
M  V30 8281 H 764.064 -3.6224 -3.13559 0
M  V30 8282 H 762.428 -1.86103 -1.73891 0
M  V30 8283 H 763.211 -3.31091 -0.907376 0
M  V30 8284 N 765.656 0.84705 -1.32902 0
M  V30 8285 C 766.586 1.97166 -1.25091 0
M  V30 8286 C 767.567 1.69578 -0.133161 0
M  V30 8287 O 768.752 1.91519 -0.321591 0
M  V30 8288 C 765.882 3.33157 -0.981006 0
M  V30 8289 C 764.836 3.75119 -2.06082 0
M  V30 8290 C 764.162 5.08826 -1.64318 0
M  V30 8291 C 765.462 3.89774 -3.47669 0
M  V30 8292 H 767.156 2.03958 -2.19184 0
M  V30 8293 H 764.702 0.979907 -1.05517 0
M  V30 8294 H 766.655 4.11393 -0.912891 0
M  V30 8295 H 765.379 3.266 -0.00445559 0
M  V30 8296 H 764.038 2.9914 -2.11921 0
M  V30 8297 H 763.686 4.98732 -0.653876 0
M  V30 8298 H 763.386 5.37873 -2.36572 0
M  V30 8299 H 764.91 5.89546 -1.58958 0
M  V30 8300 H 766.324 4.58343 -3.44376 0
M  V30 8301 H 764.721 4.30248 -4.18338 0
M  V30 8302 H 765.791 2.92463 -3.86773 0
M  V30 8303 N 767.134 1.16236 1.06428 0
M  V30 8304 C 768.362 0.967184 1.82902 0
M  V30 8305 C 768.777 -0.484601 1.82475 0
M  V30 8306 O 768.134 -1.33631 1.24294 0
M  V30 8307 C 768.185 1.48534 3.29576 0
M  V30 8308 O 767.906 2.88026 3.3011 0
M  V30 8309 C 769.407 1.33298 4.22784 0
M  V30 8310 H 766.627 0.342923 0.576754 0
M  V30 8311 H 769.171 1.54232 1.34286 0
M  V30 8312 H 767.326 0.952513 3.75508 0
M  V30 8313 H 767.74 3.11721 4.21818 0
M  V30 8314 H 769.214 1.74385 5.23731 0
M  V30 8315 H 769.691 0.278356 4.38317 0
M  V30 8316 H 770.297 1.85535 3.82697 0
M  V30 8317 N 768.612 -1.24939 0.960631 0
M  V30 8318 C 769.861 -1.92118 0.614298 0
M  V30 8319 C 770.174 -1.75998 -0.853474 0
M  V30 8320 O 771.38 -2.37804 -1.31003 0
M  V30 8321 C 769.836 -3.44303 1.04801 0
M  V30 8322 C 769.444 -3.69123 2.53875 0
M  V30 8323 C 771.188 -4.17375 0.774497 0
M  V30 8324 C 769.095 -5.14843 2.91016 0
M  V30 8325 H 768.025 -0.719319 0.226045 0
M  V30 8326 H 770.676 -1.41701 1.16589 0
M  V30 8327 H 769.058 -3.93715 0.42479 0
M  V30 8328 H 770.232 -3.30339 3.21267 0
M  V30 8329 H 768.547 -3.09323 2.78762 0
M  V30 8330 H 771.144 -5.24723 1.02808 0
M  V30 8331 H 771.487 -4.15294 -0.289192 0
M  V30 8332 H 772.02 -3.7389 1.35835 0
M  V30 8333 H 768.759 -5.2204 3.96427 0
M  V30 8334 H 768.279 -5.54652 2.28302 0
M  V30 8335 H 769.958 -5.83017 2.80535 0
M  V30 8336 N 770.09 -0.729906 -1.39679 0
M  V30 8337 C 771.318 -0.285709 -2.04918 0
M  V30 8338 C 771.733 1.07765 -1.55023 0
M  V30 8339 O 771.09 1.67999 -0.712923 0
M  V30 8340 C 771.141 -0.272793 -3.60469 0
M  V30 8341 O 770.862 -1.58233 -4.08527 0
M  V30 8342 C 772.363 0.188199 -4.429 0
M  V30 8343 H 769.583 -0.125758 -0.65911 0
M  V30 8344 H 772.127 -0.992129 -1.78821 0
M  V30 8345 H 770.282 0.384699 -3.85485 0
M  V30 8346 H 770.696 -1.49245 -5.02818 0
M  V30 8347 H 772.17 0.14608 -5.51807 0
M  V30 8348 H 772.647 1.2326 -4.21549 0
M  V30 8349 H 773.253 -0.439541 -4.23023 0
M  V30 8350 N 771.568 1.50203 -0.477153 0
M  V30 8351 C 772.518 2.25561 0.332625 0
M  V30 8352 C 773.502 1.29401 0.956249 0
M  V30 8353 O 774.694 1.54267 0.867795 0
M  V30 8354 C 771.823 3.12984 1.41052 0
M  V30 8355 C 770.909 4.16595 0.79433 0
M  V30 8356 N 771.3 5.05722 -0.0889633 0
M  V30 8357 C 769.598 4.33279 1.0576 0
M  V30 8358 C 770.299 5.80039 -0.439286 0
M  V30 8359 N 769.275 5.43278 0.187018 0
M  V30 8360 H 773.077 2.91836 -0.347718 0
M  V30 8361 H 770.591 1.59759 -0.291686 0
M  V30 8362 H 772.588 3.65582 2.00388 0
M  V30 8363 H 771.248 2.48258 2.09279 0
M  V30 8364 H 772.259 5.15869 -0.458205 0
M  V30 8365 H 768.936 3.79769 1.7344 0
M  V30 8366 H 770.326 6.61802 -1.1605 0
M  V30 8367 N 773.046 0.209999 1.56195 0
M  V30 8368 C 774.292 -0.425442 1.98287 0
M  V30 8369 C 774.625 -1.60232 1.09724 0
M  V30 8370 O 773.9 -1.93902 0.152414 0
M  V30 8371 C 774.183 -0.871189 3.49403 0
M  V30 8372 C 774.036 0.308527 4.48741 0
M  V30 8373 C 775.355 -1.73146 4.04609 0
M  V30 8374 H 772.474 -0.153169 0.720908 0
M  V30 8375 H 775.116 0.303916 1.87554 0
M  V30 8376 H 773.266 -1.49266 3.58681 0
M  V30 8377 H 774.938 0.946487 4.51486 0
M  V30 8378 H 773.181 0.957878 4.23092 0
M  V30 8379 H 773.852 -0.0461143 5.51981 0
M  V30 8380 H 776.328 -1.2072 3.98203 0
M  V30 8381 H 775.204 -2.01228 5.10684 0
M  V30 8382 H 775.465 -2.69083 3.5078 0
M  V30 8383 N 774.524 -1.57472 -0.0634922 0
M  V30 8384 C 775.94 -1.54016 -0.418466 0
M  V30 8385 C 776.14 -0.931376 -1.78683 0
M  V30 8386 O 775.196 -0.537465 -2.46714 0
M  V30 8387 C 776.509 -2.98634 -0.351906 0
M  V30 8388 C 778.057 -3.10012 -0.431494 0
M  V30 8389 C 778.532 -4.56296 -0.394754 0
M  V30 8390 N 780.023 -4.60964 -0.454583 0
M  V30 8391 C 780.758 -5.71643 -0.448501 0
M  V30 8392 N 780.254 -6.91663 -0.396742 0
M  V30 8393 N 782.047 -5.5991 -0.495677 0
M  V30 8394 H 774.198 -1.95409 0.832408 0
M  V30 8395 H 776.461 -0.894769 0.313197 0
M  V30 8396 H 776.167 -3.46766 0.587048 0
M  V30 8397 H 776.041 -3.58955 -1.15893 0
M  V30 8398 H 778.428 -2.61848 -1.36087 0
M  V30 8399 H 778.509 -2.52585 0.404258 0
M  V30 8400 H 778.153 -5.05119 0.530811 0
M  V30 8401 H 778.083 -5.11594 -1.24815 0
M  V30 8402 H 780.574 -3.74598 -0.498496 0
M  V30 8403 H 780.887 -7.71783 -0.396256 0
M  V30 8404 H 779.232 -6.9405 -0.363304 0
M  V30 8405 H 782.423 -4.65046 -0.533864 0
M  V30 8406 H 782.596 -6.46164 -0.487469 0
M  V30 8407 N 776.003 0.335068 -1.53997 0
M  V30 8408 C 776.913 1.43511 -1.85585 0
M  V30 8409 C 777.929 1.57162 -0.746726 0
M  V30 8410 O 779.105 1.72477 -1.03988 0
M  V30 8411 C 776.17 2.78386 -2.06646 0
M  V30 8412 C 775.231 2.74007 -3.30483 0
M  V30 8413 C 774.464 4.02449 -3.50529 0
M  V30 8414 O 774.687 5.00147 -2.74242 0
M  V30 8415 O 773.621 4.06405 -4.4398 0
M  V30 8416 H 777.447 1.19731 -2.79102 0
M  V30 8417 H 775.032 0.528033 -1.39758 0
M  V30 8418 H 776.914 3.58247 -2.21894 0
M  V30 8419 H 775.589 3.0208 -1.16317 0
M  V30 8420 H 774.496 1.92736 -3.2063 0
M  V30 8421 H 775.829 2.55267 -4.20832 0
M  V30 8422 N 777.481 1.45874 0.596531 0
M  V30 8423 C 778.428 1.55389 1.70655 0
M  V30 8424 C 779.398 0.399036 1.61236 0
M  V30 8425 O 780.583 0.61396 1.80652 0
M  V30 8426 C 777.723 1.53705 3.0898 0
M  V30 8427 C 776.836 2.79823 3.29125 0
M  V30 8428 C 775.971 2.69735 4.5762 0
M  V30 8429 C 775.01 3.90856 4.71061 0
M  V30 8430 N 774.147 3.79237 5.90867 0
M  V30 8431 H 778.987 2.50211 1.61859 0
M  V30 8432 H 776.524 1.24146 0.789069 0
M  V30 8433 H 778.482 1.50715 3.89026 0
M  V30 8434 H 777.112 0.624247 3.16706 0
M  V30 8435 H 776.164 2.92852 2.42779 0
M  V30 8436 H 777.476 3.69628 3.34927 0
M  V30 8437 H 776.63 2.64773 5.45875 0
M  V30 8438 H 775.369 1.77547 4.54234 0
M  V30 8439 H 774.374 3.96164 3.81227 0
M  V30 8440 H 775.599 4.84124 4.76236 0
M  V30 8441 H 773.545 2.89825 5.88504 0
M  V30 8442 H 773.462 4.62686 5.97877 0
M  V30 8443 H 774.73 3.78227 6.8159 0
M  V30 8444 N 778.959 -0.83999 1.33349 0
M  V30 8445 C 779.922 -1.93128 1.23426 0
M  V30 8446 C 780.922 -1.60065 0.153599 0
M  V30 8447 O 782.112 -1.69425 0.405049 0
M  V30 8448 C 779.244 -3.28761 0.901622 0
M  V30 8449 H 780.437 -2.03352 2.20427 0
M  V30 8450 H 777.99 -1.03194 1.17391 0
M  V30 8451 H 778.725 -3.24233 -0.0659337 0
M  V30 8452 H 778.51 -3.54138 1.68311 0
M  V30 8453 H 780 -4.08714 0.856913 0
M  V30 8454 N 780.437 -1.16799 -1.0581 0
M  V30 8455 C 781.686 -0.94698 -1.78088 0
M  V30 8456 C 781.999 0.526016 -1.88394 0
M  V30 8457 O 783.205 0.865061 -2.5735 0
M  V30 8458 C 781.661 -1.64508 -3.20102 0
M  V30 8459 C 781.269 -3.15618 -3.17946 0
M  V30 8460 C 783.013 -1.50622 -3.96879 0
M  V30 8461 C 780.92 -3.78144 -4.5471 0
M  V30 8462 H 779.85 -0.35067 -0.667493 0
M  V30 8463 H 782.501 -1.39985 -1.18645 0
M  V30 8464 H 780.883 -1.11993 -3.79834 0
M  V30 8465 H 782.057 -3.75016 -2.67768 0
M  V30 8466 H 780.372 -3.29444 -2.54667 0
M  V30 8467 H 782.969 -1.94713 -4.97987 0
M  V30 8468 H 783.312 -0.455864 -4.13797 0
M  V30 8469 H 783.845 -2.00319 -3.43682 0
M  V30 8470 H 780.584 -4.83149 -4.42998 0
M  V30 8471 H 780.104 -3.23532 -5.05062 0
M  V30 8472 H 781.783 -3.79986 -5.2366 0
M  V30 8473 N 781.915 1.24427 -0.967243 0
M  V30 8474 C 783.192 1.87831 -0.545776 0
M  V30 8475 C 783.572 1.87126 0.977099 0
M  V30 8476 O 782.92 1.34357 1.84826 0
M  V30 8477 C 783.13 3.29967 -1.13679 0
M  V30 8478 C 784.478 4.06654 -1.22139 0
M  V30 8479 O 785.502 3.39136 -1.08926 0
M  V30 8480 O 784.361 5.27455 -1.43017 0
M  V30 8481 H 781.455 0.806745 -0.181912 0
M  V30 8482 H 784.001 1.32403 -1.06148 0
M  V30 8483 H 782.773 3.24977 -2.17958 0
M  V30 8484 H 782.396 3.92969 -0.605093 0
M  V30 8485 N 783.393 0.737304 1.3929 0
M  V30 8486 C 784.64 0.286257 2.00467 0
M  V30 8487 C 784.968 -1.1272 1.58507 0
M  V30 8488 O 784.223 -1.7832 0.806257 0
M  V30 8489 C 784.522 0.338438 3.55794 0
M  V30 8490 C 784.188 1.70524 4.17411 0
M  V30 8491 C 782.85 2.07934 4.33955 0
M  V30 8492 C 785.202 2.60256 4.51571 0
M  V30 8493 C 782.53 3.34578 4.81948 0
M  V30 8494 C 784.882 3.86275 5.00974 0
M  V30 8495 C 783.546 4.23774 5.15725 0
M  V30 8496 H 782.816 0.104749 0.733559 0
M  V30 8497 H 785.463 0.944598 1.66582 0
M  V30 8498 H 783.768 -0.403478 3.89717 0
M  V30 8499 H 785.465 -0.0287255 4.0099 0
M  V30 8500 H 782.055 1.40439 4.04938 0
M  V30 8501 H 786.239 2.32624 4.38406 0
M  V30 8502 H 781.495 3.63572 4.91554 0
M  V30 8503 H 785.669 4.5596 5.26378 0
M  V30 8504 H 783.296 5.21972 5.52674 0
M  V30 8505 N 784.871 -1.49948 0.485112 0
M  V30 8506 C 786.096 -2.073 -0.0645059 0
M  V30 8507 C 786.521 -1.345 -1.31497 0
M  V30 8508 O 785.879 -0.39687 -1.76903 0
M  V30 8509 C 785.927 -3.59201 -0.317304 0
M  V30 8510 O 785.031 -3.88085 -1.39514 0
M  V30 8511 H 784.372 -0.663723 0.0191822 0
M  V30 8512 H 786.902 -1.92963 0.680179 0
M  V30 8513 H 786.912 -4.04227 -0.553604 0
M  V30 8514 H 785.587 -4.11602 0.596387 0
M  V30 8515 H 784.164 -3.54885 -1.14504 0
M  V30 8516 N 786.349 -0.21828 -1.56081 0
M  V30 8517 C 787.296 0.693189 -2.20144 0
M  V30 8518 C 788.266 1.19274 -1.15598 0
M  V30 8519 O 789.451 1.25243 -1.4394 0
M  V30 8520 C 786.591 1.89715 -2.88275 0
M  V30 8521 C 785.704 1.4368 -4.07407 0
M  V30 8522 C 784.839 2.59807 -4.63329 0
M  V30 8523 C 783.878 2.10492 -5.74769 0
M  V30 8524 N 783.015 3.1988 -6.24997 0
M  V30 8525 H 787.855 0.14016 -2.9767 0
M  V30 8526 H 785.392 0.0574292 -1.46988 0
M  V30 8527 H 787.35 2.60398 -3.25958 0
M  V30 8528 H 785.98 2.42311 -2.13273 0
M  V30 8529 H 785.032 0.625007 -3.7523 0
M  V30 8530 H 786.344 1.03517 -4.8794 0
M  V30 8531 H 785.498 3.38577 -5.03438 0
M  V30 8532 H 784.237 3.03256 -3.81951 0
M  V30 8533 H 783.242 1.30182 -5.34165 0
M  V30 8534 H 784.467 1.68045 -6.5798 0
M  V30 8535 H 782.413 3.62817 -5.46534 0
M  V30 8536 H 782.33 2.83958 -7.00645 0
M  V30 8537 H 783.598 3.98796 -6.69763 0
M  V30 8538 N 787.827 1.57504 0.0551401 0
M  V30 8539 C 789.238 1.76626 0.604979 0
M  V30 8540 C 789.589 0.845978 1.77024 0
M  V30 8541 O 788.714 0.0341936 2.16373 0
M  V30 8542 C 789.309 3.203 1.10425 0
M  V30 8543 C 787.868 3.4071 1.59981 0
M  V30 8544 C 787.015 2.72258 0.526414 0
M  V30 8545 H 789.966 1.57775 -0.171072 0
M  V30 8546 H 789.987 3.25377 1.97256 0
M  V30 8547 H 789.499 3.87255 0.255939 0
M  V30 8548 H 787.6 2.78892 2.47083 0
M  V30 8549 H 787.713 4.49227 1.66528 0
M  V30 8550 H 786.077 2.35283 0.97539 0
M  V30 8551 H 786.86 3.41879 -0.311991 0
M  V30 8552 N 789.305 -0.326896 1.54172 0
M  V30 8553 C 790.552 -1.06523 1.72218 0
M  V30 8554 C 790.88 -1.88119 0.494114 0
M  V30 8555 O 790.135 -1.8855 -0.524147 0
M  V30 8556 C 790.434 -2.0208 2.94785 0
M  V30 8557 C 790.1 -1.36665 4.2969 0
M  V30 8558 C 788.762 -1.18556 4.66367 0
M  V30 8559 C 791.114 -0.896868 5.13425 0
M  V30 8560 C 788.442 -0.521113 5.84381 0
M  V30 8561 C 790.794 -0.246261 6.3212 0
M  V30 8562 C 789.458 -0.052987 6.67479 0
M  V30 8563 H 788.728 -0.389796 0.63019 0
M  V30 8564 H 791.375 -0.342725 1.88408 0
M  V30 8565 H 789.68 -2.8077 2.73268 0
M  V30 8566 H 791.377 -2.59231 3.05941 0
M  V30 8567 H 787.967 -1.51762 4.00832 0
M  V30 8568 H 792.151 -1.02458 4.85609 0
M  V30 8569 H 787.407 -0.36014 6.10338 0
M  V30 8570 H 791.581 0.125775 6.96286 0
M  V30 8571 H 789.208 0.463903 7.58783 0
M  V30 8572 N 790.784 -1.46188 -0.588786 0
M  V30 8573 C 791.717 -1.508 -1.71274 0
M  V30 8574 C 792.695 -0.362635 -1.58505 0
M  V30 8575 O 793.879 -0.565899 -1.79805 0
M  V30 8576 C 791.006 -1.38082 -3.09275 0
M  V30 8577 C 790.052 -2.56723 -3.40581 0
M  V30 8578 S 790.885 -4.1911 -3.33327 0
M  V30 8579 C 792.041 -4.08891 -4.73877 0
M  V30 8580 H 792.274 -2.45895 -1.67102 0
M  V30 8581 H 789.807 -1.34 -0.767025 0
M  V30 8582 H 791.765 -1.31432 -3.88891 0
M  V30 8583 H 790.426 -0.444259 -3.10942 0
M  V30 8584 H 789.619 -2.43801 -4.41109 0
M  V30 8585 H 789.221 -2.60332 -2.68521 0
M  V30 8586 H 791.513 -3.75196 -5.64123 0
M  V30 8587 H 792.456 -5.09395 -4.91856 0
M  V30 8588 H 792.864 -3.40239 -4.50441 0
M  V30 8589 N 792.262 0.832906 -1.33792 0
M  V30 8590 C 793.49 1.62048 -1.28639 0
M  V30 8591 C 793.905 1.88269 0.141522 0
M  V30 8592 O 793.262 1.46706 1.08553 0
M  V30 8593 C 793.313 2.96722 -2.0649 0
M  V30 8594 O 793.034 2.7165 -3.43712 0
M  V30 8595 C 794.535 3.91144 -2.08617 0
M  V30 8596 H 791.755 0.504032 -0.442937 0
M  V30 8597 H 794.299 1.03704 -1.76255 0
M  V30 8598 H 792.454 3.51652 -1.62541 0
M  V30 8599 H 792.868 3.57453 -3.83833 0
M  V30 8600 H 794.342 4.82837 -2.67531 0
M  V30 8601 H 794.819 4.25766 -1.07796 0
M  V30 8602 H 795.425 3.42152 -2.52611 0
M  V30 8603 N 793.74 1.17359 1.05189 0
M  V30 8604 C 794.67 0.91365 2.14883 0
M  V30 8605 C 795.651 -0.144365 1.69486 0
M  V30 8606 O 796.836 0.00587861 1.94199 0
M  V30 8607 C 793.966 0.426196 3.44675 0
M  V30 8608 C 792.92 1.4234 4.03638 0
M  V30 8609 C 792.246 0.793902 5.28773 0
M  V30 8610 C 793.546 2.7966 4.41121 0
M  V30 8611 H 795.24 1.831 2.36885 0
M  V30 8612 H 792.786 0.881781 1.13845 0
M  V30 8613 H 794.739 0.231767 4.20762 0
M  V30 8614 H 793.463 -0.526693 3.22325 0
M  V30 8615 H 792.122 1.60457 3.2962 0
M  V30 8616 H 791.77 -0.165824 5.02727 0
M  V30 8617 H 791.47 1.45959 5.69183 0
M  V30 8618 H 792.994 0.609747 6.07548 0
M  V30 8619 H 794.408 2.6526 5.08242 0
M  V30 8620 H 792.805 3.42807 4.92548 0
M  V30 8621 H 793.875 3.34068 3.51464 0
M  V30 8622 N 795.218 -1.23913 0.973828 0
M  V30 8623 C 796.466 -1.91771 0.637817 0
M  V30 8624 C 796.787 -1.76434 -0.830435 0
M  V30 8625 O 796.057 -1.13965 -1.59339 0
M  V30 8626 H 794.637 -0.709761 0.232912 0
M  V30 8627 H 797.299 -1.50677 1.23622 0
M  V30 8628 H 796.395 -2.99327 0.883731 0
M  V30 8629 N 796.696 -0.74468 -1.38897 0
M  V30 8630 C 797.942 -0.297324 -2.00609 0
M  V30 8631 C 798.275 1.11547 -1.58968 0
M  V30 8632 O 797.55 1.76227 -0.823057 0
M  V30 8633 C 797.833 -0.410125 -3.57757 0
M  V30 8634 C 797.686 -1.86338 -4.09387 0
M  V30 8635 C 799.005 0.20176 -4.39637 0
M  V30 8636 H 796.124 -0.109509 -0.728819 0
M  V30 8637 H 798.766 -0.942653 -1.64967 0
M  V30 8638 H 796.916 0.139287 -3.8825 0
M  V30 8639 H 798.588 -2.47042 -3.89574 0
M  V30 8640 H 796.831 -2.38146 -3.62586 0
M  V30 8641 H 797.502 -1.89352 -5.18507 0
M  V30 8642 H 799.978 -0.266703 -4.15244 0
M  V30 8643 H 798.854 0.0925415 -5.48822 0
M  V30 8644 H 799.115 1.289 -4.22891 0
M  V30 8645 N 798.174 1.49689 -0.493057 0
M  V30 8646 C 799.399 2.07331 0.0535114 0
M  V30 8647 C 799.824 1.35196 1.30781 0
M  V30 8648 O 799.182 0.406246 1.7669 0
M  V30 8649 C 799.23 3.59364 0.29825 0
M  V30 8650 O 798.334 3.88819 1.37454 0
M  V30 8651 H 797.675 0.663612 -0.0227018 0
M  V30 8652 H 800.205 1.926 -0.690402 0
M  V30 8653 H 800.215 4.04515 0.532159 0
M  V30 8654 H 798.89 4.1128 -0.618207 0
M  V30 8655 H 797.467 3.55487 1.12621 0
M  V30 8656 N 799.652 0.226554 1.55963 0
M  V30 8657 C 800.901 -0.40417 1.97609 0
M  V30 8658 C 801.214 -1.60541 1.1174 0
M  V30 8659 O 802.42 -2.30598 1.43307 0
M  V30 8660 C 800.876 -0.770466 3.51556 0
M  V30 8661 C 800.484 0.408244 4.46136 0
M  V30 8662 C 802.228 -1.36651 4.01904 0
M  V30 8663 C 800.135 0.0192347 5.91397 0
M  V30 8664 H 799.065 -0.15478 0.737943 0
M  V30 8665 H 801.716 0.323558 1.80625 0
M  V30 8666 H 800.098 -1.55575 3.6416 0
M  V30 8667 H 801.272 1.18575 4.45283 0
M  V30 8668 H 799.587 0.917859 4.06158 0
M  V30 8669 H 802.184 -1.67055 5.07934 0
M  V30 8670 H 802.527 -2.28403 3.48049 0
M  V30 8671 H 803.06 -0.644556 3.92543 0
M  V30 8672 H 799.799 0.90336 6.49245 0
M  V30 8673 H 799.319 -0.722485 5.95433 0
M  V30 8674 H 800.998 -0.405711 6.45727 0
M  V30 8675 N 801.13 -1.57531 -0.0467866 0
M  V30 8676 C 802.06 -2.08425 -1.05268 0
M  V30 8677 C 803.041 -0.982941 -1.38825 0
M  V30 8678 O 804.226 -1.25716 -1.48018 0
M  V30 8679 C 801.356 -2.54897 -2.35891 0
M  V30 8680 C 800.31 -3.69132 -2.16623 0
M  V30 8681 C 799.636 -4.01747 -3.52851 0
M  V30 8682 C 800.936 -4.98243 -1.56689 0
M  V30 8683 H 802.63 -2.92716 -0.62908 0
M  V30 8684 H 800.176 -1.40816 -0.301156 0
M  V30 8685 H 802.129 -2.8912 -3.06574 0
M  V30 8686 H 800.853 -1.67666 -2.80278 0
M  V30 8687 H 799.512 -3.35231 -1.48377 0
M  V30 8688 H 799.16 -3.11608 -3.94853 0
M  V30 8689 H 798.86 -4.78681 -3.4079 0
M  V30 8690 H 800.384 -4.38487 -4.24925 0
M  V30 8691 H 801.798 -5.30535 -2.17268 0
M  V30 8692 H 800.195 -5.79669 -1.55255 0
M  V30 8693 H 801.265 -4.81986 -0.530827 0
M  V30 8694 N 802.608 0.318715 -1.54344 0
M  V30 8695 C 803.838 1.07394 -1.76494 0
M  V30 8696 C 804.246 1.82031 -0.515881 0
M  V30 8697 O 803.589 1.7609 0.52325 0
M  V30 8698 C 803.651 2.11401 -2.90775 0
M  V30 8699 C 803.315 1.56118 -4.29507 0
M  V30 8700 C 804.312 1.00043 -5.10184 0
M  V30 8701 C 801.997 1.60215 -4.76063 0
M  V30 8702 C 803.991 0.487993 -6.35529 0
M  V30 8703 C 801.678 1.08584 -6.01376 0
M  V30 8704 C 802.676 0.529714 -6.80943 0
M  V30 8705 O 802.364 0.0211823 -8.03897 0
M  V30 8706 H 802.096 0.325061 -0.592715 0
M  V30 8707 H 804.65 0.36901 -2.02058 0
M  V30 8708 H 802.88 2.85524 -2.60793 0
M  V30 8709 H 804.569 2.72683 -3.00664 0
M  V30 8710 H 805.335 0.961811 -4.75367 0
M  V30 8711 H 801.214 2.02441 -4.14172 0
M  V30 8712 H 804.758 0.0532608 -6.9758 0
M  V30 8713 H 800.655 1.12155 -6.35682 0
M  V30 8714 H 801.423 0.136151 -8.18387 0
M  V30 8715 N 804.086 1.46499 0.581025 0
M  V30 8716 C 805.502 1.31491 0.904563 0
M  V30 8717 C 805.702 0.287598 1.99437 0
M  V30 8718 O 804.758 -0.309247 2.50599 0
M  V30 8719 C 806.071 2.70163 1.32032 0
M  V30 8720 C 807.619 2.78266 1.43308 0
M  V30 8721 C 808.094 4.17524 1.8825 0
M  V30 8722 N 809.585 4.19949 1.9544 0
M  V30 8723 C 810.32 5.24594 2.31493 0
M  V30 8724 N 809.816 6.39564 2.66326 0
M  V30 8725 N 811.609 5.11961 2.32062 0
M  V30 8726 H 803.76 2.11946 -0.138856 0
M  V30 8727 H 806.023 0.948 0.000548528 0
M  V30 8728 H 805.729 3.46655 0.593554 0
M  V30 8729 H 805.603 3.00379 2.2815 0
M  V30 8730 H 807.99 2.02061 2.15071 0
M  V30 8731 H 808.071 2.51732 0.45438 0
M  V30 8732 H 807.715 4.94225 1.17065 0
M  V30 8733 H 807.645 4.41466 2.87081 0
M  V30 8734 H 810.136 3.36996 1.71004 0
M  V30 8735 H 810.449 7.15187 2.92793 0
M  V30 8736 H 808.794 6.42923 2.6396 0
M  V30 8737 H 811.985 4.21177 2.04272 0
M  V30 8738 H 812.158 5.93626 2.5983 0
M  V30 8739 N 805.565 -0.825799 1.34232 0
M  V30 8740 C 806.512 -1.93651 1.2557 0
M  V30 8741 C 807.482 -1.65578 0.131536 0
M  V30 8742 O 808.667 -1.88231 0.312027 0
M  V30 8743 C 805.807 -3.29862 1.01415 0
M  V30 8744 C 804.92 -3.70247 2.22579 0
M  V30 8745 C 804.055 -4.95392 1.91731 0
M  V30 8746 C 803.094 -5.28349 3.09053 0
M  V30 8747 N 802.231 -6.44671 2.78107 0
M  V30 8748 H 807.071 -2.00392 2.20561 0
M  V30 8749 H 804.608 -0.980441 1.09662 0
M  V30 8750 H 806.566 -4.08356 0.854485 0
M  V30 8751 H 805.196 -3.22642 0.100936 0
M  V30 8752 H 804.248 -2.87169 2.49476 0
M  V30 8753 H 805.56 -3.90575 3.10246 0
M  V30 8754 H 804.714 -5.81665 1.72484 0
M  V30 8755 H 803.453 -4.77059 1.0132 0
M  V30 8756 H 802.458 -4.40574 3.289 0
M  V30 8757 H 803.683 -5.48622 4.00239 0
M  V30 8758 H 801.629 -6.278 1.9027 0
M  V30 8759 H 801.546 -6.65158 3.59306 0
M  V30 8760 H 802.814 -7.34022 2.62358 0
M  V30 8761 N 807.043 -1.17915 -1.04565 0
M  V30 8762 C 808.454 -0.976383 -1.59134 0
M  V30 8763 C 808.805 0.475267 -1.90357 0
M  V30 8764 O 807.93 1.35172 -1.6899 0
M  V30 8765 C 808.525 -1.76604 -2.89131 0
M  V30 8766 C 807.084 -1.60777 -3.40335 0
M  V30 8767 C 806.231 -1.76369 -2.13985 0
M  V30 8768 H 809.182 -1.32532 -0.872985 0
M  V30 8769 H 809.203 -1.25215 -3.59307 0
M  V30 8770 H 808.715 -2.82252 -2.66375 0
M  V30 8771 H 806.816 -0.576436 -3.68114 0
M  V30 8772 H 806.929 -2.40268 -4.14497 0
M  V30 8773 H 805.293 -1.19268 -2.25049 0
M  V30 8774 H 806.076 -2.83441 -1.9369 0
M  V30 8775 N 808.521 1.23394 -0.980386 0
M  V30 8776 C 809.469 2.26872 -0.513018 0
M  V30 8777 C 810.463 1.63853 0.429948 0
M  V30 8778 O 811.669 1.77417 0.303842 0
M  V30 8779 H 808.044 0.737398 -0.147473 0
M  V30 8780 H 810.015 2.63654 -1.39746 0
M  V30 8781 C 808.764 3.47289 0.168962 0
M  V30 8782 H 808.087 3.96033 -0.547546 0
M  V30 8783 H 809.527 4.21502 0.459616 0
M  V30 8784 C 807.986 3.06425 1.40019 0
M  V30 8785 O 808.516 3.14708 2.49643 0
M  V30 8786 N 806.722 2.61339 1.27084 0
M  V30 8787 H 806.269 2.54799 0.378872 0
M  V30 8788 H 806.227 2.34364 2.09573 0
M  V30 8789 N 809.999 0.752036 1.385 0
M  V30 8790 C 811.247 0.306895 1.99756 0
M  V30 8791 C 811.568 -1.11478 1.59992 0
M  V30 8792 O 810.838 -1.76206 0.856045 0
M  V30 8793 H 809.418 0.11048 0.738785 0
M  V30 8794 H 812.08 0.965785 1.69289 0
M  V30 8795 H 811.176 0.368797 3.09913 0
M  V30 8796 N 811.477 -1.49425 0.500989 0
M  V30 8797 C 812.705 -2.06861 -0.0403443 0
M  V30 8798 C 813.12 -1.36132 -1.30819 0
M  V30 8799 O 812.477 -0.439647 -1.77125 0
M  V30 8800 C 812.528 -3.6027 -0.297902 0
M  V30 8801 O 812.249 -4.28338 0.919686 0
M  V30 8802 C 813.75 -4.34419 -0.882876 0
M  V30 8803 H 810.97 -0.670688 0.0204619 0
M  V30 8804 H 813.514 -1.92207 0.698342 0
M  V30 8805 H 811.669 -3.74627 -0.98657 0
M  V30 8806 H 812.083 -5.2004 0.682528 0
M  V30 8807 H 813.557 -5.42631 -1.01268 0
M  V30 8808 H 814.034 -3.96898 -1.88066 0
M  V30 8809 H 814.64 -4.24669 -0.231677 0
M  V30 8810 N 812.955 -0.234822 -1.55841 0
M  V30 8811 C 813.903 0.686145 -2.22249 0
M  V30 8812 C 814.897 1.18948 -1.20614 0
M  V30 8813 O 816.103 1.14777 -1.38659 0
M  V30 8814 H 812.478 0.239724 -0.712767 0
M  V30 8815 H 814.449 0.102762 -2.98223 0
M  V30 8816 C 813.198 1.8776 -2.92646 0
M  V30 8817 H 812.521 1.49943 -3.70617 0
M  V30 8818 H 813.961 2.4995 -3.42493 0
M  V30 8819 C 812.42 2.74127 -1.95847 0
M  V30 8820 O 812.95 3.7329 -1.48384 0
M  V30 8821 N 811.156 2.4044 -1.63209 0
M  V30 8822 H 810.703 1.59854 -2.02001 0
M  V30 8823 H 810.661 2.98504 -0.987063 0
M  V30 8824 N 814.433 1.57553 0.0384317 0
M  V30 8825 C 815.844 1.77258 0.586211 0
M  V30 8826 C 816.195 0.864706 1.76117 0
M  V30 8827 O 815.32 0.057141 2.16325 0
M  V30 8828 C 815.915 3.21453 1.07021 0
M  V30 8829 C 814.474 3.42387 1.56358 0
M  V30 8830 C 813.621 2.72801 0.497508 0
M  V30 8831 H 816.572 1.57585 -0.187796 0
M  V30 8832 H 816.593 3.27451 1.93794 0
M  V30 8833 H 816.105 3.87505 0.214851 0
M  V30 8834 H 814.206 2.81497 2.44111 0
M  V30 8835 H 814.319 4.50968 1.61754 0
M  V30 8836 H 812.683 2.36305 0.95038 0
M  V30 8837 H 813.466 3.41529 -0.348234 0
M  V30 8838 N 815.911 -0.310526 1.54511 0
M  V30 8839 C 817.136 -1.07046 1.7764 0
M  V30 8840 C 817.561 -1.80488 0.529696 0
M  V30 8841 O 816.919 -1.73702 -0.519361 0
M  V30 8842 C 816.967 -2.03411 2.97752 0
M  V30 8843 O 816.071 -3.11545 2.7021 0
M  V30 8844 H 815.412 -0.307994 0.588248 0
M  V30 8845 H 817.942 -0.350848 2.01569 0
M  V30 8846 H 817.952 -2.46048 3.2546 0
M  V30 8847 H 816.627 -1.49361 3.88155 0
M  V30 8848 H 815.204 -2.7349 2.53491 0
M  V30 8849 N 817.389 -1.46805 -0.573248 0
M  V30 8850 C 818.635 -1.5283 -1.33307 0
M  V30 8851 C 818.968 -0.183287 -1.93333 0
M  V30 8852 O 818.243 0.806354 -1.76998 0
M  V30 8853 C 818.526 -2.63414 -2.45531 0
M  V30 8854 C 818.379 -4.07478 -1.90478 0
M  V30 8855 C 819.698 -2.70014 -3.47535 0
M  V30 8856 H 816.817 -0.556371 -0.483343 0
M  V30 8857 H 819.459 -1.78787 -0.643066 0
M  V30 8858 H 817.609 -2.41412 -3.04389 0
M  V30 8859 H 819.281 -4.40795 -1.36004 0
M  V30 8860 H 817.524 -4.16511 -1.21248 0
M  V30 8861 H 818.195 -4.80598 -2.71531 0
M  V30 8862 H 820.671 -2.89817 -2.98572 0
M  V30 8863 H 819.547 -3.49192 -4.23504 0
M  V30 8864 H 819.808 -1.76436 -4.05367 0
M  V30 8865 N 818.867 0.818669 -1.34668 0
M  V30 8866 C 820.114 1.57512 -1.27264 0
M  V30 8867 C 820.442 1.93871 0.156254 0
M  V30 8868 O 819.697 1.60582 1.11857 0
M  V30 8869 C 819.996 2.88245 -2.11304 0
M  V30 8870 C 819.662 2.71159 -3.60255 0
M  V30 8871 C 818.324 2.66207 -4.00858 0
M  V30 8872 C 820.676 2.54538 -4.54819 0
M  V30 8873 C 818.004 2.4256 -5.34211 0
M  V30 8874 C 820.356 2.32421 -5.88356 0
M  V30 8875 C 819.02 2.25884 -6.28118 0
M  V30 8876 H 818.29 0.576378 -0.465692 0
M  V30 8877 H 820.937 0.9469 -1.66451 0
M  V30 8878 H 819.242 3.55381 -1.64958 0
M  V30 8879 H 820.939 3.45869 -2.02919 0
M  V30 8880 H 817.529 2.75856 -3.28027 0
M  V30 8881 H 821.713 2.57384 -4.24343 0
M  V30 8882 H 816.969 2.35959 -5.64033 0
M  V30 8883 H 821.143 2.18548 -6.61218 0
M  V30 8884 H 818.77 2.07322 -7.31383 0
M  V30 8885 N 820.346 1.18468 1.03938 0
M  V30 8886 C 821.571 1.00638 1.81347 0
M  V30 8887 C 821.996 -0.440477 1.8287 0
M  V30 8888 O 821.354 -1.31609 1.24695 0
M  V30 8889 C 821.402 1.5673 3.24759 0
M  V30 8890 O 820.506 0.789517 4.04772 0
M  V30 8891 H 819.847 0.356432 0.560225 0
M  V30 8892 H 822.377 1.57253 1.30891 0
M  V30 8893 H 822.387 1.59496 3.75533 0
M  V30 8894 H 821.062 2.62043 3.22965 0
M  V30 8895 H 819.639 0.834267 3.63448 0
M  V30 8896 N 821.824 -1.22873 0.986916 0
M  V30 8897 C 823.071 -1.91462 0.659424 0
M  V30 8898 C 823.399 -1.76931 -0.807825 0
M  V30 8899 O 822.654 -1.12829 -1.59901 0
M  V30 8900 C 822.953 -3.43014 1.00379 0
M  V30 8901 C 822.619 -3.77731 2.46232 0
M  V30 8902 C 821.281 -3.86918 2.86091 0
M  V30 8903 C 823.633 -3.94343 3.40798 0
M  V30 8904 C 820.961 -4.10149 4.19518 0
M  V30 8905 C 823.313 -4.19076 4.73875 0
M  V30 8906 C 821.977 -4.26486 5.13484 0
M  V30 8907 H 821.247 -0.700611 0.2413 0
M  V30 8908 H 823.894 -1.45763 1.24199 0
M  V30 8909 H 822.199 -3.90329 0.339226 0
M  V30 8910 H 823.896 -3.94327 0.728518 0
M  V30 8911 H 820.486 -3.71159 2.14334 0
M  V30 8912 H 824.67 -3.86629 3.11178 0
M  V30 8913 H 819.926 -4.1411 4.49803 0
M  V30 8914 H 824.1 -4.30873 5.47102 0
M  V30 8915 H 821.727 -4.4424 6.16891 0
M  V30 8916 N 823.302 -0.75937 -1.38099 0
M  V30 8917 C 824.232 -0.151077 -2.33011 0
M  V30 8918 C 825.213 0.697099 -1.5516 0
M  V30 8919 O 826.398 0.637101 -1.83452 0
M  V30 8920 C 823.528 0.738423 -3.39359 0
M  V30 8921 C 822.482 -0.0074741 -4.27999 0
M  V30 8922 C 821.808 1.00066 -5.25253 0
M  V30 8923 C 823.108 -1.17926 -5.08813 0
M  V30 8924 H 824.802 -0.943933 -2.84131 0
M  V30 8925 H 822.348 -0.455362 -1.36611 0
M  V30 8926 H 824.301 1.17369 -4.04725 0
M  V30 8927 H 823.025 1.56366 -2.86735 0
M  V30 8928 H 821.684 -0.423379 -3.64147 0
M  V30 8929 H 821.332 1.82012 -4.68914 0
M  V30 8930 H 821.032 0.506199 -5.85416 0
M  V30 8931 H 822.556 1.43512 -5.93495 0
M  V30 8932 H 823.97 -0.821262 -5.67387 0
M  V30 8933 H 822.367 -1.60497 -5.78239 0
M  V30 8934 H 823.437 -1.98938 -4.42212 0
M  V30 8935 N 824.78 1.49157 -0.508906 0
M  V30 8936 C 825.728 2.30922 0.278906 0
M  V30 8937 C 826.722 1.39889 0.955382 0
M  V30 8938 O 827.928 1.56901 0.882169 0
M  V30 8939 H 824.303 0.744087 0.108805 0
M  V30 8940 H 826.274 2.95277 -0.430583 0
M  V30 8941 C 825.023 3.21432 1.32576 0
M  V30 8942 H 824.346 3.91413 0.814634 0
M  V30 8943 H 825.786 3.81568 1.84882 0
M  V30 8944 C 824.245 2.41583 2.34817 0
M  V30 8945 O 824.775 2.1256 3.40854 0
M  V30 8946 N 822.981 2.03462 2.07489 0
M  V30 8947 H 822.528 2.27265 1.21278 0
M  V30 8948 H 822.486 1.50345 2.76123 0
M  V30 8949 N 826.258 0.243083 1.55714 0
M  V30 8950 C 827.669 -0.260788 1.8487 0
M  V30 8951 C 828.02 -1.57879 1.16485 0
M  V30 8952 O 827.145 -2.1184 0.441908 0
M  V30 8953 C 827.74 -0.479954 3.35383 0
M  V30 8954 C 826.299 -0.928096 3.64778 0
M  V30 8955 C 825.446 -0.00316416 2.773 0
M  V30 8956 H 828.397 0.465743 1.51712 0
M  V30 8957 H 828.418 -1.32308 3.56756 0
M  V30 8958 H 827.93 0.479468 3.85127 0
M  V30 8959 H 826.031 -1.90012 3.20509 0
M  V30 8960 H 826.144 -0.7876 4.72582 0
M  V30 8961 H 824.508 -0.513849 2.49463 0
M  V30 8962 H 825.291 0.951562 3.29849 0
M  V30 8963 N 827.736 -1.57571 -0.0300757 0
M  V30 8964 C 828.666 -2.0953 -1.03051 0
M  V30 8965 C 829.647 -0.99761 -1.37774 0
M  V30 8966 O 830.832 -1.27279 -1.46676 0
M  V30 8967 C 827.962 -2.57385 -2.33174 0
M  V30 8968 C 826.916 -3.71409 -2.12696 0
M  V30 8969 C 826.242 -4.05467 -3.4857 0
M  V30 8970 C 827.542 -4.99877 -1.51396 0
M  V30 8971 H 829.236 -2.93367 -0.597999 0
M  V30 8972 H 826.782 -1.41127 -0.286203 0
M  V30 8973 H 828.735 -2.92355 -3.03491 0
M  V30 8974 H 827.459 -1.70629 -2.78484 0
M  V30 8975 H 826.118 -3.36786 -1.44813 0
M  V30 8976 H 825.766 -3.15779 -3.91526 0
M  V30 8977 H 825.466 -4.82269 -3.35694 0
M  V30 8978 H 826.99 -4.4297 -4.2025 0
M  V30 8979 H 828.404 -5.3281 -2.11629 0
M  V30 8980 H 826.801 -5.81283 -1.49098 0
M  V30 8981 H 827.871 -4.82522 -0.479676 0
M  V30 8982 N 829.214 0.302327 -1.54673 0
M  V30 8983 C 830.439 1.06103 -1.78205 0
M  V30 8984 C 830.864 1.80204 -0.53926 0
M  V30 8985 O 830.222 1.73975 0.510142 0
M  V30 8986 C 830.27 2.01829 -2.98827 0
M  V30 8987 O 829.374 3.10108 -2.71858 0
M  V30 8988 H 828.715 0.30487 -0.589873 0
M  V30 8989 H 831.245 0.340153 -2.01753 0
M  V30 8990 H 831.255 2.44319 -3.2676 0
M  V30 8991 H 829.93 1.473 -3.88942 0
M  V30 8992 H 828.507 2.72142 -2.54937 0
M  V30 8993 N 830.692 1.47107 0.565454 0
M  V30 8994 C 832.103 1.47266 1.1476 0
M  V30 8995 C 832.454 0.222841 1.9493 0
M  V30 8996 O 831.579 -0.672862 2.05673 0
M  V30 8997 C 832.174 2.66822 2.08785 0
M  V30 8998 C 830.733 2.69967 2.62288 0
M  V30 8999 C 829.88 2.40236 1.38499 0
M  V30 9000 H 832.831 1.54736 0.352479 0
M  V30 9001 H 832.852 2.43323 2.92531 0
M  V30 9002 H 832.364 3.5777 1.50408 0
M  V30 9003 H 830.465 1.83137 3.24487 0
M  V30 9004 H 830.578 3.70426 3.03845 0
M  V30 9005 H 828.942 1.90648 1.68895 0
M  V30 9006 H 829.725 3.33381 0.819274 0
M  V30 9007 N 832.17 -0.811516 1.35101 0
M  V30 9008 C 833.447 -1.55491 1.18667 0
M  V30 9009 C 833.827 -2.09775 -0.236189 0
M  V30 9010 O 833.175 -1.91989 -1.23905 0
M  V30 9011 C 833.385 -2.66732 2.25067 0
M  V30 9012 C 834.733 -3.35201 2.60625 0
M  V30 9013 O 835.757 -2.76998 2.23943 0
M  V30 9014 O 834.616 -4.40334 3.23679 0
M  V30 9015 H 831.71 -0.686783 0.460716 0
M  V30 9016 H 834.256 -0.851903 1.46768 0
M  V30 9017 H 833.028 -2.24457 3.20523 0
M  V30 9018 H 832.651 -3.44673 1.98208 0
M  V30 9019 N 833.648 -1.19017 -1.03309 0
M  V30 9020 C 834.897 -0.984542 -1.76039 0
M  V30 9021 C 835.21 0.485937 -1.89468 0
M  V30 9022 O 836.416 0.810278 -2.59127 0
M  V30 9023 C 834.872 -1.71261 -3.1654 0
M  V30 9024 C 834.48 -3.22291 -3.11179 0
M  V30 9025 C 836.224 -1.59007 -3.93595 0
M  V30 9026 C 834.131 -3.87704 -4.46587 0
M  V30 9027 H 833.061 -0.364749 -0.659905 0
M  V30 9028 H 835.712 -1.4247 -1.15649 0
M  V30 9029 H 834.094 -1.20025 -3.77373 0
M  V30 9030 H 835.268 -3.80611 -2.59753 0
M  V30 9031 H 833.583 -3.34772 -2.47622 0
M  V30 9032 H 836.18 -2.05232 -4.93745 0
M  V30 9033 H 836.523 -0.543534 -4.12736 0
M  V30 9034 H 837.056 -2.07564 -3.39355 0
M  V30 9035 H 833.795 -4.92437 -4.3265 0
M  V30 9036 H 833.315 -3.34172 -4.98085 0
M  V30 9037 H 834.994 -3.91008 -5.15482 0
M  V30 9038 N 835.127 1.22348 -0.993418 0
M  V30 9039 C 836.373 1.91689 -0.680217 0
M  V30 9040 C 836.728 1.75912 0.779269 0
M  V30 9041 O 836.021 1.11761 1.55628 0
M  V30 9042 C 836.215 3.42477 -1.02197 0
M  V30 9043 C 836.044 3.72923 -2.51313 0
M  V30 9044 C 834.814 3.9291 -3.17726 0
M  V30 9045 C 837.012 3.7736 -3.49434 0
M  V30 9046 N 834.994 4.10672 -4.56313 0
M  V30 9047 C 836.365 4.00269 -4.73481 0
M  V30 9048 C 838.42 3.60211 -3.43733 0
M  V30 9049 C 837.123 4.0781 -5.92523 0
M  V30 9050 C 839.149 3.69011 -4.62152 0
M  V30 9051 C 838.511 3.92371 -5.85 0
M  V30 9052 H 834.61 0.722086 -0.300193 0
M  V30 9053 H 837.194 1.47273 -1.27353 0
M  V30 9054 H 835.365 3.85699 -0.457223 0
M  V30 9055 H 837.097 3.99204 -0.664702 0
M  V30 9056 H 833.852 3.90345 -2.68193 0
M  V30 9057 H 834.276 4.2348 -5.28199 0
M  V30 9058 H 838.918 3.41137 -2.49771 0
M  V30 9059 H 836.636 4.25688 -6.86888 0
M  V30 9060 H 840.222 3.5708 -4.59331 0
M  V30 9061 H 839.102 3.9901 -6.75101 0
M  V30 9062 N 836.605 0.766683 1.37694 0
M  V30 9063 C 837.538 0.0959288 2.27998 0
M  V30 9064 C 838.516 -0.714493 1.46061 0
M  V30 9065 O 839.7 -0.690337 1.75404 0
M  V30 9066 C 836.827 -0.87057 3.27321 0
M  V30 9067 C 835.873 -0.144771 4.26254 0
M  V30 9068 S 836.706 1.16365 5.22704 0
M  V30 9069 C 837.862 0.200564 6.25579 0
M  V30 9070 H 838.095 0.861666 2.84539 0
M  V30 9071 H 835.628 0.559845 1.43893 0
M  V30 9072 H 837.586 -1.42282 3.85053 0
M  V30 9073 H 836.247 -1.60938 2.69737 0
M  V30 9074 H 835.44 -0.877259 4.96307 0
M  V30 9075 H 835.042 0.33633 3.72485 0
M  V30 9076 H 837.334 -0.628833 6.74575 0
M  V30 9077 H 838.277 0.869117 7.02746 0
M  V30 9078 H 838.685 -0.185972 5.64194 0
M  V30 9079 N 838.083 -1.48885 0.516809 0
M  V30 9080 C 839.313 -2.06592 -0.018375 0
M  V30 9081 C 839.721 -1.37543 -1.29917 0
M  V30 9082 O 839.064 -0.452527 -1.78039 0
M  V30 9083 C 839.126 -3.58016 -0.326315 0
M  V30 9084 C 838.79 -4.48853 0.859072 0
M  V30 9085 C 839.787 -4.89422 1.75391 0
M  V30 9086 C 837.472 -4.90937 1.06235 0
M  V30 9087 C 839.466 -5.70831 2.83604 0
M  V30 9088 C 837.153 -5.72119 2.14763 0
M  V30 9089 C 838.151 -6.11972 3.03281 0
M  V30 9090 O 837.839 -6.91527 4.09934 0
M  V30 9091 H 837.571 -0.675559 0.0244023 0
M  V30 9092 H 840.125 -1.92442 0.718005 0
M  V30 9093 H 838.355 -3.70231 -1.1165 0
M  V30 9094 H 840.044 -3.97898 -0.801999 0
M  V30 9095 H 840.81 -4.57542 1.60875 0
M  V30 9096 H 836.689 -4.59409 0.382677 0
M  V30 9097 H 840.233 -6.01857 3.52724 0
M  V30 9098 H 836.13 -6.03412 2.29268 0
M  V30 9099 H 836.898 -7.0986 4.07482 0
M  V30 9100 N 839.561 -0.251338 -1.55583 0
M  V30 9101 C 840.807 0.37272 -1.99346 0
M  V30 9102 C 841.14 1.57266 -1.13934 0
M  V30 9103 O 840.415 1.9343 -0.20377 0
M  V30 9104 C 840.698 0.778245 -3.5159 0
M  V30 9105 C 840.551 -0.427394 -4.47765 0
M  V30 9106 C 841.87 1.62358 -4.09057 0
M  V30 9107 H 838.989 0.134002 -0.724715 0
M  V30 9108 H 841.631 -0.353536 -1.86682 0
M  V30 9109 H 839.781 1.39704 -3.62512 0
M  V30 9110 H 841.453 -1.06586 -4.48818 0
M  V30 9111 H 839.696 -1.06972 -4.20404 0
M  V30 9112 H 840.367 -0.10025 -5.51909 0
M  V30 9113 H 842.843 1.1012 -4.01264 0
M  V30 9114 H 841.719 1.87617 -5.1584 0
M  V30 9115 H 841.98 2.59688 -3.57791 0
M  V30 9116 N 841.039 1.57585 0.0217189 0
M  V30 9117 C 841.969 2.10073 1.01939 0
M  V30 9118 C 842.95 1.0049 1.37243 0
M  V30 9119 O 844.135 1.28055 1.45999 0
M  V30 9120 C 841.265 2.58618 2.31806 0
M  V30 9121 C 840.219 3.72531 2.10724 0
M  V30 9122 C 839.545 4.07309 3.46415 0
M  V30 9123 C 840.845 5.00672 1.48743 0
M  V30 9124 H 842.539 2.9368 0.582432 0
M  V30 9125 H 840.085 1.41277 0.278715 0
M  V30 9126 H 842.038 2.9396 3.01936 0
M  V30 9127 H 840.762 1.72104 2.77575 0
M  V30 9128 H 839.421 3.37549 1.43025 0
M  V30 9129 H 839.069 3.17851 3.89846 0
M  V30 9130 H 838.769 4.84042 3.33132 0
M  V30 9131 H 840.293 4.45192 4.17895 0
M  V30 9132 H 841.707 5.33925 2.088 0
M  V30 9133 H 840.104 5.82065 1.46013 0
M  V30 9134 H 841.174 4.82769 0.45408 0
M  V30 9135 N 842.517 -0.29412 1.54831 0
M  V30 9136 C 843.447 -1.36757 1.89261 0
M  V30 9137 C 844.428 -1.52564 0.752214 0
M  V30 9138 O 845.613 -1.65958 1.00855 0
M  V30 9139 C 842.743 -2.73066 2.14597 0
M  V30 9140 C 841.697 -2.72017 3.3044 0
M  V30 9141 C 841.023 -4.11679 3.4121 0
M  V30 9142 C 842.323 -2.33149 4.67375 0
M  V30 9143 H 844.017 -1.08191 2.79169 0
M  V30 9144 H 841.563 -0.519014 1.34321 0
M  V30 9145 H 843.516 -3.48255 2.37269 0
M  V30 9146 H 842.24 -3.03172 1.21467 0
M  V30 9147 H 840.899 -1.99285 3.07703 0
M  V30 9148 H 840.547 -4.38973 2.45584 0
M  V30 9149 H 840.247 -4.11877 4.19084 0
M  V30 9150 H 841.771 -4.88637 3.6615 0
M  V30 9151 H 843.185 -2.98054 4.89731 0
M  V30 9152 H 841.582 -2.44546 5.48012 0
M  V30 9153 H 842.652 -1.28275 4.67626 0
M  V30 9154 N 843.995 -1.47404 -0.557645 0
M  V30 9155 C 844.958 -1.59411 -1.64684 0
M  V30 9156 C 845.958 -0.469244 -1.53801 0
M  V30 9157 O 847.148 -0.734298 -1.57967 0
M  V30 9158 C 844.28 -1.5382 -3.04224 0
M  V30 9159 H 845.473 -2.56504 -1.55389 0
M  V30 9160 H 843.026 -1.35588 -0.777531 0
M  V30 9161 H 843.761 -0.581 -3.19053 0
M  V30 9162 H 843.546 -2.35456 -3.13533 0
M  V30 9163 H 845.036 -1.65358 -3.83466 0
M  V30 9164 N 845.473 0.80434 -1.35529 0
M  V30 9165 C 846.703 1.59052 -1.31856 0
M  V30 9166 C 847.111 1.88905 0.105549 0
M  V30 9167 O 846.454 1.49422 1.06858 0
M  V30 9168 C 846.516 2.94626 -2.06 0
M  V30 9169 C 846.18 2.87576 -3.55175 0
M  V30 9170 C 847.177 2.60856 -4.49722 0
M  V30 9171 C 844.862 3.06623 -3.97854 0
M  V30 9172 C 846.856 2.53262 -5.84925 0
M  V30 9173 C 844.543 2.98652 -5.33151 0
M  V30 9174 C 845.541 2.72007 -6.26499 0
M  V30 9175 O 845.229 2.64003 -7.59314 0
M  V30 9176 H 844.961 0.500486 -0.454411 0
M  V30 9177 H 847.515 1.0074 -1.78999 0
M  V30 9178 H 845.745 3.5493 -1.53498 0
M  V30 9179 H 847.434 3.55785 -1.95376 0
M  V30 9180 H 848.2 2.45858 -4.18066 0
M  V30 9181 H 844.079 3.26372 -3.2558 0
M  V30 9182 H 847.623 2.32386 -6.57756 0
M  V30 9183 H 843.52 3.13208 -5.64421 0
M  V30 9184 H 844.288 2.79595 -7.69265 0
M  V30 9185 N 846.951 1.19563 1.02676 0
M  V30 9186 C 847.881 0.959024 2.12897 0
M  V30 9187 C 848.862 -0.108382 1.69754 0
M  V30 9188 O 850.047 0.0470698 1.94143 0
M  V30 9189 C 847.177 0.499211 3.43693 0
M  V30 9190 C 846.131 1.5087 4.00528 0
M  V30 9191 C 845.457 0.905884 5.2697 0
M  V30 9192 C 846.757 2.88954 4.3509 0
M  V30 9193 H 848.451 1.88084 2.32948 0
M  V30 9194 H 845.997 0.905731 1.11949 0
M  V30 9195 H 847.95 0.320965 4.20176 0
M  V30 9196 H 846.674 -0.458205 3.2337 0
M  V30 9197 H 845.333 1.67413 3.26142 0
M  V30 9198 H 844.981 -0.0591506 5.02965 0
M  V30 9199 H 844.681 1.58 5.65959 0
M  V30 9200 H 846.205 0.73848 6.06118 0
M  V30 9201 H 847.619 2.75981 5.02501 0
M  V30 9202 H 846.016 3.53177 4.85166 0
M  V30 9203 H 847.086 3.41447 3.44299 0
M  V30 9204 N 848.429 -1.21819 0.999893 0
M  V30 9205 C 849.677 -1.90375 0.678351 0
M  V30 9206 C 849.998 -1.78155 -0.792824 0
M  V30 9207 O 849.268 -1.17319 -1.56885 0
M  V30 9208 H 847.848 -0.704661 0.247915 0
M  V30 9209 H 850.51 -1.48021 1.2679 0
M  V30 9210 H 849.606 -2.97385 0.947023 0
M  V30 9211 N 849.908 -0.773975 -1.37286 0
M  V30 9212 C 851.154 -0.339809 -1.99933 0
M  V30 9213 C 851.487 1.0815 -1.61299 0
M  V30 9214 O 850.762 1.74442 -0.860252 0
M  V30 9215 C 851.045 -0.485919 -3.56806 0
M  V30 9216 C 850.898 -1.9498 -4.05343 0
M  V30 9217 C 852.217 0.108461 -4.39966 0
M  V30 9218 H 849.336 -0.124944 -0.726332 0
M  V30 9219 H 851.978 -0.977433 -1.6293 0
M  V30 9220 H 850.128 0.0569023 -3.88458 0
M  V30 9221 H 851.8 -2.5525 -3.84246 0
M  V30 9222 H 850.043 -2.45784 -3.57453 0
M  V30 9223 H 850.714 -2.00308 -5.14374 0
M  V30 9224 H 853.19 -0.354722 -4.14585 0
M  V30 9225 H 852.066 -0.0238926 -5.48895 0
M  V30 9226 H 852.327 1.19901 -4.25531 0
M  V30 9227 N 851.386 1.48609 -0.524698 0
M  V30 9228 C 852.611 2.07398 0.00952139 0
M  V30 9229 C 853.036 1.37939 1.27884 0
M  V30 9230 O 852.394 0.443633 1.75788 0
M  V30 9231 C 852.442 3.59916 0.221956 0
M  V30 9232 O 851.546 3.91647 1.29175 0
M  V30 9233 H 850.887 0.662981 -0.0367729 0
M  V30 9234 H 853.417 1.91092 -0.7311 0
M  V30 9235 H 853.427 4.05552 0.446236 0
M  V30 9236 H 852.102 4.09876 -0.705306 0
M  V30 9237 H 850.679 3.57796 1.05055 0
M  V30 9238 N 852.864 0.259585 1.55447 0
M  V30 9239 C 854.104 -0.362989 2.01151 0
M  V30 9240 C 854.468 -1.54201 1.14394 0
M  V30 9241 O 855.669 -2.23318 1.49608 0
M  V30 9242 C 853.94 -0.750399 3.49434 0
M  V30 9243 S 855.499 -1.3617 4.17137 0
M  V30 9244 H 852.317 -0.11365 0.701858 0
M  V30 9245 H 854.919 0.377788 1.91815 0
M  V30 9246 H 853.623 0.116807 4.10234 0
M  V30 9247 H 853.154 -1.52303 3.62722 0
M  V30 9248 H 855.169 -2.65059 4.19474 0
M  V30 9249 N 854.342 -1.57594 -0.0133615 0
M  V30 9250 C 855.588 -1.90262 -0.702019 0
M  V30 9251 C 855.921 -0.859219 -1.74158 0
M  V30 9252 O 855.196 0.123778 -1.94106 0
M  V30 9253 C 855.479 -3.3354 -1.35732 0
M  V30 9254 C 855.332 -4.48586 -0.330208 0
M  V30 9255 C 856.651 -3.76004 -2.28712 0
M  V30 9256 H 853.77 -0.691943 -0.253739 0
M  V30 9257 H 856.412 -1.89967 0.0351894 0
M  V30 9258 H 854.562 -3.33921 -1.98567 0
M  V30 9259 H 856.234 -4.6034 0.297433 0
M  V30 9260 H 854.477 -4.32394 0.348926 0
M  V30 9261 H 855.148 -5.45762 -0.827508 0
M  V30 9262 H 857.624 -3.77089 -1.75906 0
M  V30 9263 H 856.5 -4.77032 -2.71535 0
M  V30 9264 H 856.761 -3.09129 -3.16056 0
M  V30 9265 N 855.82 0.285905 -1.54985 0
M  V30 9266 C 856.75 1.35752 -1.89983 0
M  V30 9267 C 857.731 1.52163 -0.760295 0
M  V30 9268 O 858.916 1.65421 -1.01733 0
M  V30 9269 C 856.046 2.71925 -2.16042 0
M  V30 9270 C 855 2.70261 -3.31878 0
M  V30 9271 C 854.326 4.09864 -3.43388 0
M  V30 9272 C 855.626 2.30667 -4.68604 0
M  V30 9273 H 857.32 1.06709 -2.79738 0
M  V30 9274 H 854.866 0.511884 -1.34595 0
M  V30 9275 H 856.819 3.46992 -2.39113 0
M  V30 9276 H 855.543 3.02523 -1.23074 0
M  V30 9277 H 854.202 1.97651 -3.08755 0
M  V30 9278 H 853.85 4.37664 -2.47909 0
M  V30 9279 H 853.55 4.09648 -4.21262 0
M  V30 9280 H 855.074 4.86689 -3.68736 0
M  V30 9281 H 856.488 2.95453 -4.91305 0
M  V30 9282 H 854.885 2.41637 -5.49301 0
M  V30 9283 H 855.955 1.25793 -4.68299 0
M  V30 9284 N 857.298 1.47698 0.54982 0
M  V30 9285 C 858.545 1.54702 1.30665 0
M  V30 9286 C 858.873 0.212418 1.93337 0
M  V30 9287 O 858.128 -0.79543 1.78805 0
M  V30 9288 C 858.427 2.61903 2.4319 0
M  V30 9289 C 858.093 4.04953 1.98302 0
M  V30 9290 C 856.755 4.43893 1.85776 0
M  V30 9291 C 859.107 4.94682 1.64133 0
M  V30 9292 C 856.435 5.70387 1.37388 0
M  V30 9293 C 858.787 6.21646 1.17214 0
M  V30 9294 C 857.451 6.5946 1.0329 0
M  V30 9295 H 856.721 0.566096 0.478139 0
M  V30 9296 H 859.368 1.8133 0.615767 0
M  V30 9297 H 857.673 2.2906 3.17866 0
M  V30 9298 H 859.37 2.64543 3.0136 0
M  V30 9299 H 855.96 3.74191 2.08995 0
M  V30 9300 H 860.144 4.65291 1.72679 0
M  V30 9301 H 855.4 5.98427 1.25278 0
M  V30 9302 H 859.574 6.90581 0.898391 0
M  V30 9303 H 857.201 7.57367 0.655735 0
M  V30 9304 N 858.776 -0.797141 1.35954 0
M  V30 9305 C 860.022 -1.55698 1.29946 0
M  V30 9306 C 860.355 -1.93808 -0.123259 0
M  V30 9307 O 859.63 -1.62102 -1.07486 0
M  V30 9308 C 859.913 -2.83926 2.2149 0
M  V30 9309 C 859.766 -2.52232 3.72423 0
M  V30 9310 C 861.085 -3.85698 2.11955 0
M  V30 9311 H 858.204 -0.56488 0.47337 0
M  V30 9312 H 860.846 -0.916421 1.66438 0
M  V30 9313 H 858.996 -3.38588 1.905 0
M  V30 9314 H 860.668 -2.0368 4.13899 0
M  V30 9315 H 858.911 -1.85286 3.92239 0
M  V30 9316 H 859.582 -3.43782 4.31877 0
M  V30 9317 H 862.058 -3.40462 2.39218 0
M  V30 9318 H 860.934 -4.73182 2.78191 0
M  V30 9319 H 861.195 -4.28083 1.10442 0
M  V30 9320 N 860.254 -1.20106 -1.0204 0
M  V30 9321 C 861.503 -1.00316 -1.74985 0
M  V30 9322 C 861.816 0.465814 -1.89972 0
M  V30 9323 O 863.022 0.782749 -2.59972 0
M  V30 9324 C 861.478 -1.74608 -3.14706 0
M  V30 9325 C 861.086 -3.25573 -3.07744 0
M  V30 9326 C 862.83 -1.63172 -3.91887 0
M  V30 9327 C 860.737 -3.92419 -4.42449 0
M  V30 9328 H 859.667 -0.371728 -0.655999 0
M  V30 9329 H 862.318 -1.43688 -1.14131 0
M  V30 9330 H 860.7 -1.24021 -3.76078 0
M  V30 9331 H 861.874 -3.83345 -2.55702 0
M  V30 9332 H 860.189 -3.3738 -2.44057 0
M  V30 9333 H 862.786 -2.10457 -4.9154 0
M  V30 9334 H 863.129 -0.58728 -4.12137 0
M  V30 9335 H 863.662 -2.11152 -3.37135 0
M  V30 9336 H 860.401 -4.96998 -4.27403 0
M  V30 9337 H 859.921 -3.39436 -4.94513 0
M  V30 9338 H 861.6 -3.96453 -5.11306 0
M  V30 9339 N 861.732 1.21287 -1.00634 0
M  V30 9340 C 862.695 2.21927 -0.572821 0
M  V30 9341 C 863.695 1.5691 0.351541 0
M  V30 9342 O 864.885 1.73623 0.141643 0
M  V30 9343 C 862.017 3.40501 0.164932 0
M  V30 9344 H 863.21 2.61795 -1.463 0
M  V30 9345 H 860.763 1.34571 -0.794998 0
M  V30 9346 H 861.498 3.06123 1.07049 0
M  V30 9347 H 861.283 3.88912 -0.498962 0
M  V30 9348 H 862.773 4.15103 0.455945 0
M  V30 9349 N 863.21 0.781244 1.36873 0
M  V30 9350 C 864.626 0.461968 1.52768 0
M  V30 9351 C 864.826 -1.02099 1.73719 0
M  V30 9352 O 863.882 -1.80665 1.76399 0
M  V30 9353 C 865.195 1.2853 2.71846 0
M  V30 9354 C 866.743 1.27817 2.85713 0
M  V30 9355 C 867.218 2.08506 4.07786 0
M  V30 9356 N 868.709 2.05909 4.14917 0
M  V30 9357 C 869.444 2.65118 5.08429 0
M  V30 9358 N 868.94 3.33152 6.07438 0
M  V30 9359 N 870.733 2.54896 5.00983 0
M  V30 9360 H 862.884 1.74198 1.21527 0
M  V30 9361 H 865.147 0.740027 0.592506 0
M  V30 9362 H 864.853 2.3366 2.62861 0
M  V30 9363 H 864.727 0.920981 3.65784 0
M  V30 9364 H 867.114 0.234817 2.94164 0
M  V30 9365 H 867.195 1.68219 1.92707 0
M  V30 9366 H 866.839 3.12867 4.00096 0
M  V30 9367 H 866.769 1.65479 4.99924 0
M  V30 9368 H 869.26 1.56386 3.44023 0
M  V30 9369 H 869.573 3.75681 6.75339 0
M  V30 9370 H 867.918 3.37253 6.07689 0
M  V30 9371 H 871.109 2.01352 4.22581 0
M  V30 9372 H 871.282 3.01332 5.73675 0
M  V30 9373 N 864.689 -1.48329 0.532571 0
M  V30 9374 C 865.936 -2.025 -0.000582356 0
M  V30 9375 C 866.264 -1.40942 -1.34036 0
M  V30 9376 O 865.519 -0.545545 -1.87942 0
M  V30 9377 C 865.818 -3.57 -0.168943 0
M  V30 9378 C 865.484 -4.37357 1.0968 0
M  V30 9379 C 864.146 -4.59033 1.44369 0
M  V30 9380 C 866.498 -4.83882 1.93669 0
M  V30 9381 C 863.826 -5.24481 2.62939 0
M  V30 9382 C 866.178 -5.50637 3.11419 0
M  V30 9383 C 864.842 -5.70551 3.46451 0
M  V30 9384 H 864.112 -0.741 -0.000213099 0
M  V30 9385 H 866.759 -1.78282 0.699117 0
M  V30 9386 H 865.064 -3.80072 -0.951429 0
M  V30 9387 H 866.761 -3.9654 -0.596422 0
M  V30 9388 H 863.351 -4.20748 0.816655 0
M  V30 9389 H 867.535 -4.66936 1.6818 0
M  V30 9390 H 862.791 -5.38096 2.9028 0
M  V30 9391 H 866.965 -5.85655 3.76803 0
M  V30 9392 H 864.592 -6.21037 4.38425 0
M  V30 9393 N 866.167 -0.267825 -1.55308 0
M  V30 9394 C 867.392 0.357487 -2.04296 0
M  V30 9395 C 867.817 1.49222 -1.14518 0
M  V30 9396 O 867.175 1.80741 -0.142292 0
M  V30 9397 C 867.223 0.822899 -3.51085 0
M  V30 9398 O 866.327 1.93078 -3.6441 0
M  V30 9399 H 865.668 0.075025 -0.659748 0
M  V30 9400 H 868.198 -0.399996 -2.00652 0
M  V30 9401 H 868.208 1.12059 -3.92309 0
M  V30 9402 H 866.883 -0.0073562 -4.15899 0
M  V30 9403 H 865.46 1.63618 -3.35087 0
M  V30 9404 N 867.645 1.57599 0.00500368 0
M  V30 9405 C 869.056 1.78462 0.54848 0
M  V30 9406 C 869.407 0.901869 1.74243 0
M  V30 9407 O 868.532 0.103014 2.16155 0
M  V30 9408 C 869.127 3.2365 1.00179 0
M  V30 9409 C 867.686 3.45627 1.49061 0
M  V30 9410 C 866.833 2.73794 0.439531 0
M  V30 9411 H 869.784 1.57151 -0.22118 0
M  V30 9412 H 869.805 3.31488 1.86805 0
M  V30 9413 H 869.317 3.87873 0.132607 0
M  V30 9414 H 867.418 2.86612 2.38085 0
M  V30 9415 H 867.531 4.54298 1.52152 0
M  V30 9416 H 865.895 2.38267 0.900043 0
M  V30 9417 H 866.678 3.40714 -0.420599 0
M  V30 9418 N 869.123 -0.277682 1.55134 0
M  V30 9419 C 870.353 -1.02677 1.79279 0
M  V30 9420 C 870.761 -1.80599 0.563962 0
M  V30 9421 O 870.104 -1.77416 -0.476378 0
M  V30 9422 C 870.166 -2.03617 2.96277 0
M  V30 9423 C 869.83 -1.44676 4.33495 0
M  V30 9424 C 870.827 -0.864811 5.12657 0
M  V30 9425 C 868.512 -1.47537 4.80144 0
M  V30 9426 C 870.506 -0.319322 6.366 0
M  V30 9427 C 868.193 -0.926016 6.04043 0
M  V30 9428 C 869.191 -0.348988 6.82108 0
M  V30 9429 O 868.879 0.191964 8.03671 0
M  V30 9430 H 868.611 -0.309232 0.601125 0
M  V30 9431 H 871.165 -0.315308 2.02965 0
M  V30 9432 H 869.395 -2.78509 2.68272 0
M  V30 9433 H 871.084 -2.64616 3.07788 0
M  V30 9434 H 871.85 -0.835438 4.7775 0
M  V30 9435 H 867.729 -1.91389 4.19394 0
M  V30 9436 H 871.273 0.131709 6.97476 0
M  V30 9437 H 867.17 -0.952613 6.38432 0
M  V30 9438 H 867.938 0.0808779 8.1846 0
M  V30 9439 N 870.601 -1.47988 -0.541979 0
M  V30 9440 C 871.511 -1.64276 -1.67483 0
M  V30 9441 C 872.527 -0.525387 -1.65879 0
M  V30 9442 O 873.703 -0.794912 -1.85049 0
M  V30 9443 C 870.768 -1.66744 -3.03969 0
M  V30 9444 C 869.829 -2.90021 -3.16522 0
M  V30 9445 C 869.062 -2.92362 -4.46498 0
M  V30 9446 O 869.285 -2.03462 -5.32878 0
M  V30 9447 O 868.219 -3.84399 -4.63164 0
M  V30 9448 H 872.045 -2.60164 -1.5668 0
M  V30 9449 H 869.63 -1.31249 -0.71372 0
M  V30 9450 H 871.512 -1.70958 -3.85164 0
M  V30 9451 H 870.187 -0.740277 -3.15122 0
M  V30 9452 H 869.094 -2.91345 -2.34667 0
M  V30 9453 H 870.427 -3.82082 -3.10281 0
M  V30 9454 N 872.079 0.78992 -1.36375 0
M  V30 9455 C 873.325 1.54939 -1.31778 0
M  V30 9456 C 873.68 1.92128 0.102327 0
M  V30 9457 O 872.973 1.59823 1.05675 0
M  V30 9458 C 873.167 2.83698 -2.17371 0
M  V30 9459 C 872.996 2.59093 -3.67561 0
M  V30 9460 C 871.766 2.5414 -4.36739 0
M  V30 9461 C 873.964 2.28325 -4.60838 0
M  V30 9462 N 871.946 2.21427 -5.72576 0
M  V30 9463 C 873.317 2.05596 -5.84919 0
M  V30 9464 C 875.372 2.14328 -4.49409 0
M  V30 9465 C 874.075 1.70285 -6.98853 0
M  V30 9466 C 876.101 1.80415 -5.63209 0
M  V30 9467 C 875.463 1.58533 -6.86328 0
M  V30 9468 H 871.562 0.568011 -0.537483 0
M  V30 9469 H 874.146 0.923183 -1.71422 0
M  V30 9470 H 872.317 3.44187 -1.79972 0
M  V30 9471 H 874.049 3.49425 -2.04167 0
M  V30 9472 H 870.804 2.69368 -3.89535 0
M  V30 9473 H 871.228 2.07818 -6.44314 0
M  V30 9474 H 875.87 2.29935 -3.54809 0
M  V30 9475 H 873.588 1.53415 -7.93404 0
M  V30 9476 H 877.174 1.70269 -5.56327 0
M  V30 9477 H 876.054 1.32677 -7.72895 0
M  V30 9478 N 873.557 1.20646 1.01402 0
M  V30 9479 C 874.787 1.04238 1.78376 0
M  V30 9480 C 875.195 -0.411327 1.84675 0
M  V30 9481 O 874.538 -1.29734 1.30057 0
M  V30 9482 C 874.6 1.55349 3.24202 0
M  V30 9483 C 874.264 3.03684 3.41504 0
M  V30 9484 C 875.261 4.01318 3.30514 0
M  V30 9485 C 872.946 3.42698 3.67237 0
M  V30 9486 C 874.94 5.35956 3.45007 0
M  V30 9487 C 872.627 4.77491 3.81373 0
M  V30 9488 C 873.625 5.73929 3.70263 0
M  V30 9489 O 873.313 7.06277 3.83963 0
M  V30 9490 H 873.045 0.366978 0.567718 0
M  V30 9491 H 875.599 1.60235 1.28506 0
M  V30 9492 H 873.829 0.93739 3.75166 0
M  V30 9493 H 875.518 1.34921 3.8282 0
M  V30 9494 H 876.284 3.72522 3.10568 0
M  V30 9495 H 872.163 2.68175 3.74971 0
M  V30 9496 H 875.707 6.11212 3.36252 0
M  V30 9497 H 871.604 5.05977 4.00821 0
M  V30 9498 H 872.372 7.13561 4.00965 0
M  V30 9499 N 875.035 -1.20752 1.01276 0
M  V30 9500 C 876.312 -1.85676 0.615112 0
M  V30 9501 C 876.692 -1.90623 -0.906976 0
M  V30 9502 O 876.04 -1.41124 -1.79712 0
M  V30 9503 C 876.25 -3.2552 1.25847 0
M  V30 9504 C 877.598 -4.0184 1.37148 0
M  V30 9505 O 878.622 -3.3486 1.21438 0
M  V30 9506 O 877.481 -5.21783 1.62495 0
M  V30 9507 H 874.575 -0.799437 0.211729 0
M  V30 9508 H 877.121 -1.28372 1.10989 0
M  V30 9509 H 875.893 -3.16664 2.29869 0
M  V30 9510 H 875.516 -3.90452 0.750524 0
M  V30 9511 N 876.513 -0.788492 -1.36457 0
M  V30 9512 C 877.476 -0.192209 -2.28393 0
M  V30 9513 C 878.476 0.609916 -1.48784 0
M  V30 9514 O 879.666 0.431046 -1.68783 0
M  V30 9515 C 876.798 0.734096 -3.32902 0
M  V30 9516 H 877.991 -1.00284 -2.82636 0
M  V30 9517 H 875.544 -0.557852 -1.46006 0
M  V30 9518 H 876.279 1.5691 -2.83813 0
M  V30 9519 H 876.064 0.160875 -3.9177 0
M  V30 9520 H 877.554 1.1462 -4.01562 0
M  V30 9521 N 877.991 1.48044 -0.54043 0
M  V30 9522 C 878.941 2.26768 0.236657 0
M  V30 9523 C 879.925 1.33341 0.900505 0
M  V30 9524 O 881.117 1.57809 0.801584 0
M  V30 9525 C 878.246 3.18685 1.27651 0
M  V30 9526 C 877.332 4.19589 0.616923 0
M  V30 9527 N 877.723 5.04889 -0.303377 0
M  V30 9528 C 876.021 4.37375 0.872879 0
M  V30 9529 C 876.722 5.77654 -0.684905 0
M  V30 9530 N 875.698 5.43583 -0.0435728 0
M  V30 9531 H 879.5 2.90098 -0.471183 0
M  V30 9532 H 877.014 1.58378 -0.359183 0
M  V30 9533 H 879.011 3.73752 1.84702 0
M  V30 9534 H 877.671 2.56911 1.98562 0
M  V30 9535 H 878.682 5.13461 -0.676591 0
M  V30 9536 H 875.359 3.86784 1.57177 0
M  V30 9537 H 876.749 6.56285 -1.44015 0
M  V30 9538 N 879.47 0.276058 1.55163 0
M  V30 9539 C 880.881 -0.221516 1.85381 0
M  V30 9540 C 881.232 -1.55372 1.19808 0
M  V30 9541 O 880.357 -2.10855 0.486742 0
M  V30 9542 C 880.952 -0.408706 3.36326 0
M  V30 9543 C 879.511 -0.850512 3.66665 0
M  V30 9544 C 878.658 0.055656 2.77244 0
M  V30 9545 H 881.609 0.497819 1.5069 0
M  V30 9546 H 881.63 -1.24711 3.59482 0
M  V30 9547 H 881.142 0.561052 3.84023 0
M  V30 9548 H 879.243 -1.83171 3.24468 0
M  V30 9549 H 879.356 -0.687181 4.74146 0
M  V30 9550 H 877.72 -0.460819 2.50497 0
M  V30 9551 H 878.503 1.02131 3.27756 0
M  V30 9552 N 880.948 -1.576 0.00335426 0
M  V30 9553 C 882.188 -1.92571 -0.685253 0
M  V30 9554 C 882.552 -0.877961 -1.70751 0
M  V30 9555 O 883.753 -1.11303 -2.44673 0
M  V30 9556 C 882.024 -3.3258 -1.30863 0
M  V30 9557 S 883.583 -3.89442 -2.02189 0
M  V30 9558 H 880.401 -0.674035 -0.226268 0
M  V30 9559 H 883.003 -1.95405 0.0608461 0
M  V30 9560 H 881.707 -4.06673 -0.551837 0
M  V30 9561 H 881.238 -3.33128 -2.09259 0
M  V30 9562 H 883.253 -3.70789 -3.29742 0
M  V30 9563 N 882.426 0.269451 -1.5528 0
M  V30 9564 C 883.374 1.35303 -1.89198 0
M  V30 9565 C 884.368 1.50956 -0.768671 0
M  V30 9566 O 885.574 1.52699 -0.953054 0
M  V30 9567 H 881.949 0.452591 -0.600554 0
M  V30 9568 H 883.92 1.03949 -2.79709 0
M  V30 9569 C 882.669 2.70585 -2.18356 0
M  V30 9570 H 881.992 2.59332 -3.04281 0
M  V30 9571 H 883.432 3.45335 -2.46007 0
M  V30 9572 C 881.891 3.21954 -0.992327 0
M  V30 9573 O 882.421 4.01048 -0.228769 0
M  V30 9574 N 880.627 2.79682 -0.789062 0
M  V30 9575 H 880.174 2.15475 -1.41167 0
M  V30 9576 H 880.132 3.14399 0.00634776 0
M  V30 9577 N 883.904 1.48273 0.534124 0
M  V30 9578 C 885.315 1.49667 1.1161 0
M  V30 9579 C 885.666 0.264139 1.94414 0
M  V30 9580 O 884.791 -0.629084 2.07054 0
M  V30 9581 C 885.386 2.71191 2.03079 0
M  V30 9582 C 883.945 2.7547 2.56502 0
M  V30 9583 C 883.092 2.43119 1.33373 0
M  V30 9584 H 886.043 1.55449 0.319578 0
M  V30 9585 H 886.064 2.49473 2.87304 0
M  V30 9586 H 885.576 3.60879 1.42785 0
M  V30 9587 H 883.677 1.89979 3.20529 0
M  V30 9588 H 883.79 3.76787 2.95919 0
M  V30 9589 H 882.154 1.94187 1.64813 0
M  V30 9590 H 882.937 3.35044 0.748375 0
M  V30 9591 N 885.382 -0.782676 1.36792 0
M  V30 9592 C 886.63 -1.53778 1.31136 0
M  V30 9593 C 886.951 -1.94706 -0.107014 0
M  V30 9594 O 886.221 -1.65465 -1.04872 0
M  V30 9595 H 884.801 -0.570328 0.482426 0
M  V30 9596 H 887.463 -0.932181 1.71162 0
M  V30 9597 H 886.559 -2.44224 1.94321 0
M  V30 9598 N 886.86 -1.21182 -1.00761 0
M  V30 9599 C 888.085 -1.05411 -1.78615 0
M  V30 9600 C 888.51 0.391837 -1.83973 0
M  V30 9601 O 887.868 1.28256 -1.28141 0
M  V30 9602 C 887.916 -1.65285 -3.20489 0
M  V30 9603 O 887.02 -0.896558 -4.02536 0
M  V30 9604 H 886.361 -0.37116 -0.550578 0
M  V30 9605 H 888.891 -1.60669 -1.26676 0
M  V30 9606 H 888.901 -1.69397 -3.71172 0
M  V30 9607 H 887.576 -2.70514 -3.15904 0
M  V30 9608 H 886.153 -0.930335 -3.61108 0
M  V30 9609 N 888.338 1.20213 -1.01915 0
M  V30 9610 C 889.248 2.26763 -0.601311 0
M  V30 9611 C 890.264 1.70185 0.362369 0
M  V30 9612 O 891.44 2.00165 0.222682 0
M  V30 9613 C 888.505 3.46662 0.0512879 0
M  V30 9614 C 887.566 4.18459 -0.958659 0
M  V30 9615 C 886.799 5.32634 -0.337107 0
M  V30 9616 O 887.022 5.63841 0.86251 0
M  V30 9617 O 885.956 5.9258 -1.05511 0
M  V30 9618 H 889.782 2.64725 -1.48844 0
M  V30 9619 H 887.367 1.2688 -0.788784 0
M  V30 9620 H 889.249 4.19345 0.41564 0
M  V30 9621 H 887.924 3.1057 0.912572 0
M  V30 9622 H 886.831 3.47937 -1.37442 0
M  V30 9623 H 888.164 4.58498 -1.78999 0
M  V30 9624 N 889.816 0.795718 1.36037 0
M  V30 9625 C 891.062 0.371574 1.99367 0
M  V30 9626 C 891.395 -1.0557 1.62999 0
M  V30 9627 O 890.67 -1.73051 0.887895 0
M  V30 9628 C 890.953 0.542622 3.55988 0
M  V30 9629 C 890.806 2.01404 4.0219 0
M  V30 9630 C 892.125 -0.0384527 4.40083 0
M  V30 9631 H 889.244 0.136483 0.724252 0
M  V30 9632 H 891.886 1.00323 1.61355 0
M  V30 9633 H 890.036 0.0049053 3.885 0
M  V30 9634 H 891.708 2.6133 3.80137 0
M  V30 9635 H 889.951 2.51439 3.53498 0
M  V30 9636 H 890.622 2.08466 5.11122 0
M  V30 9637 H 893.098 0.420634 4.13968 0
M  V30 9638 H 891.974 0.111214 5.48787 0
M  V30 9639 H 892.235 -1.13116 4.27384 0
M  V30 9640 N 891.294 -1.47756 0.548274 0
M  V30 9641 C 892.54 -2.02789 0.0209265 0
M  V30 9642 C 892.873 -1.42268 -1.32187 0
M  V30 9643 O 892.148 -0.575001 -1.85806 0
M  V30 9644 C 892.431 -3.60007 -0.0816674 0
M  V30 9645 C 892.284 -4.30977 1.28759 0
M  V30 9646 C 893.603 -4.32777 -0.799515 0
M  V30 9647 H 890.722 -0.736944 0.00907884 0
M  V30 9648 H 893.364 -1.76282 0.708839 0
M  V30 9649 H 891.514 -3.82722 -0.667537 0
M  V30 9650 H 893.186 -4.19629 1.91597 0
M  V30 9651 H 891.429 -3.9168 1.86466 0
M  V30 9652 H 892.1 -5.39488 1.16861 0
M  V30 9653 H 894.576 -4.15001 -0.30216 0
M  V30 9654 H 893.452 -5.42431 -0.840239 0
M  V30 9655 H 893.713 -4.01358 -1.85375 0
M  V30 9656 N 892.772 -0.284283 -1.55015 0
M  V30 9657 C 893.682 0.60906 -2.26556 0
M  V30 9658 C 894.698 1.16246 -1.29472 0
M  V30 9659 O 895.874 1.1908 -1.62425 0
M  V30 9660 C 892.939 1.77246 -2.97968 0
M  V30 9661 C 892 1.25482 -4.10552 0
M  V30 9662 C 891.233 2.36277 -4.78549 0
M  V30 9663 O 891.456 3.55829 -4.45805 0
M  V30 9664 O 890.39 2.03914 -5.66306 0
M  V30 9665 H 894.216 0.0292298 -3.03686 0
M  V30 9666 H 891.801 -0.0513466 -1.49312 0
M  V30 9667 H 893.683 2.45062 -3.42815 0
M  V30 9668 H 892.358 2.33921 -2.23747 0
M  V30 9669 H 891.265 0.542859 -3.7014 0
M  V30 9670 H 892.598 0.733708 -4.86701 0
M  V30 9671 N 894.251 1.57596 -0.0117121 0
M  V30 9672 C 895.199 2.1029 0.994035 0
M  V30 9673 C 896.193 1.02549 1.34833 0
M  V30 9674 O 897.399 1.21003 1.3326 0
M  V30 9675 H 893.774 0.671624 0.338268 0
M  V30 9676 H 895.745 2.93761 0.524147 0
M  V30 9677 C 894.494 2.63099 2.27319 0
M  V30 9678 H 893.817 3.45642 2.00927 0
M  V30 9679 H 895.257 3.03635 2.95942 0
M  V30 9680 C 893.716 1.55044 2.99104 0
M  V30 9681 O 894.246 0.940127 3.90544 0
M  V30 9682 N 892.452 1.27506 2.61133 0
M  V30 9683 H 891.999 1.77322 1.86855 0
M  V30 9684 H 891.957 0.554292 3.09475 0
M  V30 9685 N 895.729 -0.261212 1.5542 0
M  V30 9686 C 896.677 -1.34298 1.89913 0
M  V30 9687 C 897.671 -1.50547 0.776665 0
M  V30 9688 O 898.877 -1.52191 0.961139 0
M  V30 9689 H 895.252 -0.4494 0.602946 0
M  V30 9690 H 897.223 -1.02464 2.80256 0
M  V30 9691 C 895.972 -2.69423 2.19788 0
M  V30 9692 H 895.295 -2.57715 3.05652 0
M  V30 9693 H 896.735 -3.44026 2.47835 0
M  V30 9694 C 895.194 -3.21423 1.00939 0
M  V30 9695 O 895.724 -4.00921 0.250034 0
M  V30 9696 N 893.93 -2.7926 0.803883 0
M  V30 9697 H 893.477 -2.14724 1.42308 0
M  V30 9698 H 893.435 -3.14398 0.0103257 0
M  V30 9699 N 897.207 -1.48554 -0.526253 0
M  V30 9700 C 898.454 -1.56761 -1.28188 0
M  V30 9701 C 898.782 -0.24315 -1.92974 0
M  V30 9702 O 898.037 0.766883 -1.80048 0
M  V30 9703 C 898.336 -2.65739 -2.38993 0
M  V30 9704 C 898.002 -4.08057 -1.91834 0
M  V30 9705 C 896.664 -4.46792 -1.78691 0
M  V30 9706 C 899.016 -4.9723 -1.56242 0
M  V30 9707 C 896.344 -5.72501 -1.28296 0
M  V30 9708 C 898.696 -6.23432 -1.07309 0
M  V30 9709 C 897.36 -6.6102 -0.927853 0
M  V30 9710 H 896.63 -0.573631 -0.469072 0
M  V30 9711 H 899.277 -1.82287 -0.586842 0
M  V30 9712 H 897.582 -2.34088 -3.14181 0
M  V30 9713 H 899.279 -2.69304 -2.97113 0
M  V30 9714 H 895.869 -3.77469 -2.03016 0
M  V30 9715 H 900.053 -4.67979 -1.65255 0
M  V30 9716 H 895.309 -6.00345 -1.15742 0
M  V30 9717 H 899.483 -6.91923 -0.788412 0
M  V30 9718 H 897.11 -7.58314 -0.535162 0
M  V30 9719 N 898.685 0.775411 -1.37205 0
M  V30 9720 C 899.913 1.56446 -1.35397 0
M  V30 9721 C 900.328 1.887 0.0615437 0
M  V30 9722 O 899.685 1.51178 1.02233 0
M  V30 9723 C 899.736 2.87697 -2.18889 0
M  V30 9724 O 899.457 2.56828 -3.54924 0
M  V30 9725 C 900.958 3.81944 -2.25019 0
M  V30 9726 H 898.178 0.484792 -0.463916 0
M  V30 9727 H 900.722 0.961346 -1.80495 0
M  V30 9728 H 898.877 3.44442 -1.7731 0
M  V30 9729 H 899.291 3.40851 -3.98649 0
M  V30 9730 H 900.765 4.71055 -2.87769 0
M  V30 9731 H 901.242 4.20811 -1.25757 0
M  V30 9732 H 901.848 3.3113 -2.66895 0
M  V30 9733 N 900.163 1.21714 1.00117 0
M  V30 9734 C 901.093 1.00397 2.10815 0
M  V30 9735 C 902.074 -0.0723502 1.69946 0
M  V30 9736 O 903.259 0.0882398 1.93999 0
M  V30 9737 C 900.389 0.572001 3.42557 0
M  V30 9738 C 899.343 1.59331 3.97237 0
M  V30 9739 C 898.669 1.01746 5.2493 0
M  V30 9740 C 899.969 2.98117 4.28863 0
M  V30 9741 H 901.663 1.92983 2.28906 0
M  V30 9742 H 899.209 0.929273 1.10002 0
M  V30 9743 H 901.162 0.410018 4.19401 0
M  V30 9744 H 899.886 -0.38951 3.24269 0
M  V30 9745 H 898.545 1.74293 3.22518 0
M  V30 9746 H 898.193 0.0475491 5.02978 0
M  V30 9747 H 897.893 1.69969 5.62481 0
M  V30 9748 H 899.417 0.866881 6.04415 0
M  V30 9749 H 900.831 2.86578 4.96534 0
M  V30 9750 H 899.228 3.63389 4.77565 0
M  V30 9751 H 900.298 3.48674 3.36979 0
M  V30 9752 N 901.641 -1.19671 1.02551 0
M  V30 9753 C 902.571 -2.25009 0.623965 0
M  V30 9754 C 903.552 -1.66129 -0.36538 0
M  V30 9755 O 904.737 -1.92599 -0.248842 0
M  V30 9756 C 901.867 -3.47287 -0.0294869 0
M  V30 9757 C 900.821 -4.18818 0.881781 0
M  V30 9758 C 900.147 -5.34618 0.0936189 0
M  V30 9759 C 901.447 -4.73986 2.19396 0
M  V30 9760 H 903.141 -2.58851 1.50454 0
M  V30 9761 H 900.687 -1.24425 0.724872 0
M  V30 9762 H 902.64 -4.20168 -0.322016 0
M  V30 9763 H 901.364 -3.12635 -0.944838 0
M  V30 9764 H 900.023 -3.47815 1.15845 0
M  V30 9765 H 899.671 -4.9621 -0.823661 0
M  V30 9766 H 899.371 -5.83409 0.700568 0
M  V30 9767 H 900.895 -6.10297 -0.192249 0
M  V30 9768 H 902.309 -5.38639 1.96319 0
M  V30 9769 H 900.706 -5.3325 2.75254 0
M  V30 9770 H 901.776 -3.92238 2.85092 0
M  V30 9771 N 903.119 -0.802921 -1.35613 0
M  V30 9772 C 904.067 -0.198783 -2.31749 0
M  V30 9773 C 905.061 0.649416 -1.56458 0
M  V30 9774 O 906.267 0.542989 -1.71615 0
M  V30 9775 H 902.642 -0.0455177 -0.750621 0
M  V30 9776 H 904.613 -1.02479 -2.80251 0
M  V30 9777 C 903.362 0.641066 -3.41739 0
M  V30 9778 H 902.685 -0.00226244 -3.998 0
M  V30 9779 H 904.125 1.03022 -4.11294 0
M  V30 9780 C 902.584 1.80505 -2.84464 0
M  V30 9781 O 903.114 2.90235 -2.77717 0
M  V30 9782 N 901.32 1.61542 -2.41563 0
M  V30 9783 H 900.867 0.722863 -2.4725 0
M  V30 9784 H 900.825 2.39581 -2.03589 0
M  V30 9785 N 904.597 1.47463 -0.556102 0
M  V30 9786 C 905.822 2.07371 -0.0344729 0
M  V30 9787 C 906.247 1.40621 1.2493 0
M  V30 9788 O 905.605 0.48082 1.74808 0
M  V30 9789 C 905.653 3.60306 0.145563 0
M  V30 9790 O 904.757 3.94299 1.20839 0
M  V30 9791 H 904.098 0.662052 -0.0508274 0
M  V30 9792 H 906.628 1.89498 -0.771469 0
M  V30 9793 H 906.638 4.06408 0.360112 0
M  V30 9794 H 905.313 4.08288 -0.792089 0
M  V30 9795 H 903.89 3.59944 0.97442 0
M  V30 9796 N 906.075 0.2925 1.54862 0
M  V30 9797 C 907.322 -0.319263 1.99967 0
M  V30 9798 C 907.65 -1.54547 1.18092 0
M  V30 9799 O 906.905 -1.94186 0.242969 0
M  V30 9800 C 907.204 -0.728674 3.49893 0
M  V30 9801 C 906.87 0.394836 4.49168 0
M  V30 9802 C 905.532 0.703289 4.76033 0
M  V30 9803 C 907.884 1.15103 5.08331 0
M  V30 9804 C 905.212 1.77121 5.59325 0
M  V30 9805 C 907.564 2.20881 5.92785 0
M  V30 9806 C 906.228 2.52342 6.17964 0
M  V30 9807 H 905.498 -0.116827 0.731733 0
M  V30 9808 H 908.145 0.40983 1.87063 0
M  V30 9809 H 906.45 -1.53772 3.60363 0
M  V30 9810 H 908.147 -1.21305 3.82212 0
M  V30 9811 H 904.737 0.144319 4.28357 0
M  V30 9812 H 908.921 0.92599 4.87585 0
M  V30 9813 H 904.177 2.01978 5.77074 0
M  V30 9814 H 908.351 2.79939 6.37657 0
M  V30 9815 H 905.978 3.35225 6.82296 0
M  V30 9816 N 907.553 -1.57587 0.0200696 0
M  V30 9817 C 908.799 -1.92539 -0.655764 0
M  V30 9818 C 909.154 -0.896187 -1.70253 0
M  V30 9819 O 908.447 0.0890022 -1.91393 0
M  V30 9820 C 908.641 -3.32002 -1.32323 0
M  V30 9821 C 908.47 -4.48393 -0.342632 0
M  V30 9822 C 907.24 -5.05271 0.0542423 0
M  V30 9823 C 909.438 -5.12747 0.399388 0
M  V30 9824 N 907.42 -6.05181 1.03095 0
M  V30 9825 C 908.791 -6.07674 1.23014 0
M  V30 9826 C 910.846 -4.95761 0.461065 0
M  V30 9827 C 909.549 -6.87442 2.11698 0
M  V30 9828 C 911.575 -5.7613 1.33521 0
M  V30 9829 C 910.937 -6.70666 2.15376 0
M  V30 9830 H 907.036 -0.75256 -0.212549 0
M  V30 9831 H 909.62 -1.94514 0.0851247 0
M  V30 9832 H 907.791 -3.30863 -2.0343 0
M  V30 9833 H 909.523 -3.54327 -1.95537 0
M  V30 9834 H 906.278 -4.72529 -0.318327 0
M  V30 9835 H 906.702 -6.59824 1.51528 0
M  V30 9836 H 911.344 -4.22506 -0.15752 0
M  V30 9837 H 909.062 -7.60008 2.74616 0
M  V30 9838 H 912.648 -5.65023 1.38711 0
M  V30 9839 H 911.528 -7.31772 2.81922 0
M  V30 9840 N 909.032 0.252966 -1.55557 0
M  V30 9841 C 910.279 0.981852 -1.77104 0
M  V30 9842 C 910.607 1.85547 -0.583305 0
M  V30 9843 O 909.862 1.90836 0.43359 0
M  V30 9844 C 910.161 1.87785 -3.04091 0
M  V30 9845 C 909.827 1.16009 -4.35721 0
M  V30 9846 C 908.489 0.961697 -4.71492 0
M  V30 9847 C 910.841 0.650884 -5.1712 0
M  V30 9848 C 908.169 0.241704 -5.86202 0
M  V30 9849 C 910.521 -0.0556124 -6.32576 0
M  V30 9850 C 909.185 -0.265536 -6.66972 0
M  V30 9851 H 908.455 0.359285 -0.64807 0
M  V30 9852 H 911.102 0.252443 -1.89829 0
M  V30 9853 H 909.407 2.67412 -2.86353 0
M  V30 9854 H 911.104 2.44339 -3.17961 0
M  V30 9855 H 907.694 1.32465 -4.07616 0
M  V30 9856 H 911.878 0.791719 -4.89944 0
M  V30 9857 H 907.134 0.0685292 -6.11362 0
M  V30 9858 H 911.308 -0.457839 -6.94893 0
M  V30 9859 H 908.935 -0.8254 -7.55706 0
M  V30 9860 N 910.51 1.48831 0.518367 0
M  V30 9861 C 911.758 1.57128 1.27103 0
M  V30 9862 C 912.079 0.252098 1.93364 0
M  V30 9863 O 911.349 -0.727281 1.819 0
M  V30 9864 H 909.929 0.578891 0.472116 0
M  V30 9865 H 912.591 1.85361 0.602262 0
M  V30 9866 H 911.687 2.35838 2.04418 0
M  V30 9867 N 911.988 -0.768124 1.37614 0
M  V30 9868 C 912.921 -1.88894 1.2804 0
M  V30 9869 C 913.899 -1.61809 0.160226 0
M  V30 9870 O 915.083 -1.85498 0.33506 0
M  V30 9871 C 912.21 -3.24197 0.980523 0
M  V30 9872 C 911.256 -3.70188 2.11808 0
M  V30 9873 S 912.089 -3.83433 3.73817 0
M  V30 9874 C 913.245 -5.21578 3.45987 0
M  V30 9875 H 913.478 -1.96726 2.22904 0
M  V30 9876 H 911.011 -0.929602 1.23279 0
M  V30 9877 H 912.969 -4.02342 0.814331 0
M  V30 9878 H 911.63 -3.14061 0.0493122 0
M  V30 9879 H 910.823 -4.6829 1.86335 0
M  V30 9880 H 910.425 -2.99155 2.2446 0
M  V30 9881 H 912.717 -6.06865 3.012 0
M  V30 9882 H 913.66 -5.52065 4.43429 0
M  V30 9883 H 914.068 -4.89687 2.80832 0
M  V30 9884 N 913.466 -1.22244 -0.994698 0
M  V30 9885 C 914.714 -1.04384 -1.73056 0
M  V30 9886 C 915.035 0.422204 -1.90374 0
M  V30 9887 O 914.305 1.30383 -1.46209 0
M  V30 9888 H 912.885 -0.383263 -0.641185 0
M  V30 9889 H 915.547 -1.53725 -1.1981 0
M  V30 9890 H 914.643 -1.52021 -2.72573 0
M  V30 9891 N 914.944 1.19125 -1.03184 0
M  V30 9892 C 916.169 1.93379 -0.749628 0
M  V30 9893 C 916.594 1.75153 0.685785 0
M  V30 9894 O 915.952 1.05579 1.47386 0
M  V30 9895 C 916 3.43101 -1.1097 0
M  V30 9896 O 915.104 4.11758 -0.230053 0
M  V30 9897 H 914.445 0.603605 -0.276689 0
M  V30 9898 H 916.975 1.51116 -1.37931 0
M  V30 9899 H 916.985 3.93778 -1.06785 0
M  V30 9900 H 915.66 3.55688 -2.15544 0
M  V30 9901 H 914.237 3.7143 -0.330748 0
M  V30 9902 N 916.422 0.810101 1.35185 0
M  V30 9903 C 917.352 0.237453 2.32289 0
M  V30 9904 C 918.333 -0.639032 1.5764 0
M  V30 9905 O 919.518 -0.568575 1.8569 0
M  V30 9906 C 916.648 -0.611964 3.41866 0
M  V30 9907 C 915.602 0.166318 4.27677 0
M  V30 9908 C 914.928 -0.805024 5.28605 0
M  V30 9909 C 916.228 1.36729 5.04086 0
M  V30 9910 H 917.922 1.04874 2.80432 0
M  V30 9911 H 915.468 0.505751 1.34826 0
M  V30 9912 H 917.421 -1.02267 4.08802 0
M  V30 9913 H 916.145 -1.45617 2.92341 0
M  V30 9914 H 914.804 0.558238 3.62325 0
M  V30 9915 H 914.452 -1.64483 4.75347 0
M  V30 9916 H 914.152 -0.288577 5.86891 0
M  V30 9917 H 915.676 -1.21386 5.98413 0
M  V30 9918 H 917.09 1.03128 5.63948 0
M  V30 9919 H 915.487 1.81848 5.71884 0
M  V30 9920 H 916.557 2.15214 4.34524 0
M  V30 9921 N 917.9 -1.47166 0.563914 0
M  V30 9922 C 918.833 -2.27058 -0.227989 0
M  V30 9923 C 919.811 -1.34468 -0.914179 0
M  V30 9924 O 920.995 -1.63857 -0.931829 0
M  V30 9925 C 918.122 -3.11689 -1.32543 0
M  V30 9926 C 917.168 -4.19906 -0.747084 0
M  V30 9927 S 918.001 -5.33916 0.41153 0
M  V30 9928 C 919.157 -6.22112 -0.687566 0
M  V30 9929 H 919.39 -2.93876 0.449939 0
M  V30 9930 H 916.923 -1.50372 0.350382 0
M  V30 9931 H 918.881 -3.61017 -1.95389 0
M  V30 9932 H 917.542 -2.44221 -1.97522 0
M  V30 9933 H 916.735 -4.78876 -1.57141 0
M  V30 9934 H 916.337 -3.73493 -0.194671 0
M  V30 9935 H 918.629 -6.58867 -1.578 0
M  V30 9936 H 919.572 -7.07971 -0.135058 0
M  V30 9937 H 919.98 -5.55871 -0.983255 0
M  V30 9938 N 919.378 -0.300708 -1.54705 0
M  V30 9939 C 920.31 0.609179 -2.20956 0
M  V30 9940 C 921.323 1.09776 -1.20221 0
M  V30 9941 O 922.512 1.01527 -1.46815 0
M  V30 9942 C 919.612 1.84595 -2.84214 0
M  V30 9943 C 918.785 1.49991 -4.10879 0
M  V30 9944 C 917.844 2.5918 -4.57943 0
M  V30 9945 O 916.87 2.24285 -5.23149 0
M  V30 9946 N 918.072 3.89714 -4.30236 0
M  V30 9947 H 920.837 0.0420111 -2.99671 0
M  V30 9948 H 918.398 -0.122896 -1.61433 0
M  V30 9949 H 920.39 2.56988 -3.12633 0
M  V30 9950 H 918.96 2.32152 -2.09342 0
M  V30 9951 H 918.18 0.608637 -3.89473 0
M  V30 9952 H 919.468 1.24409 -4.93356 0
M  V30 9953 H 918.866 4.20874 -3.77997 0
M  V30 9954 H 917.423 4.58406 -4.63365 0
M  V30 9955 N 920.856 1.57574 -0.0284266 0
M  V30 9956 C 921.788 2.07079 0.982391 0
M  V30 9957 C 922.801 0.994078 1.28926 0
M  V30 9958 O 923.99 1.27028 1.25404 0
M  V30 9959 C 921.09 2.47978 2.30998 0
M  V30 9960 C 920.263 3.7872 2.18838 0
M  V30 9961 C 919.322 4.06177 3.34524 0
M  V30 9962 O 918.348 4.76438 3.11441 0
M  V30 9963 N 919.55 3.56297 4.58293 0
M  V30 9964 H 922.315 2.94421 0.560011 0
M  V30 9965 H 919.876 1.61124 0.158347 0
M  V30 9966 H 921.868 2.63439 3.07216 0
M  V30 9967 H 920.438 1.66005 2.64879 0
M  V30 9968 H 919.658 3.73062 1.27351 0
M  V30 9969 H 920.946 4.6438 2.07915 0
M  V30 9970 H 920.344 2.99453 4.79942 0
M  V30 9971 H 918.901 3.77038 5.31682 0
M  V30 9972 N 922.334 -0.244713 1.55689 0
M  V30 9973 C 923.582 -0.970525 1.77272 0
M  V30 9974 C 923.903 -1.85771 0.592804 0
M  V30 9975 O 923.173 -1.91952 -0.391323 0
M  V30 9976 H 921.753 -0.361342 0.653789 0
M  V30 9977 H 924.415 -0.262134 1.93129 0
M  V30 9978 H 923.511 -1.59096 2.68505 0
M  V30 9979 N 923.813 -1.49104 -0.510467 0
M  V30 9980 C 925.038 -1.62068 -1.29417 0
M  V30 9981 C 925.463 -0.288432 -1.85875 0
M  V30 9982 O 924.821 0.742667 -1.65391 0
M  V30 9983 C 924.869 -2.68506 -2.40701 0
M  V30 9984 O 923.973 -2.27021 -3.4429 0
M  V30 9985 H 923.314 -0.542778 -0.382476 0
M  V30 9986 H 925.844 -1.95228 -0.612154 0
M  V30 9987 H 925.854 -2.90383 -2.86604 0
M  V30 9988 H 924.529 -3.65216 -1.98973 0
M  V30 9989 H 923.106 -2.15436 -3.04371 0
M  V30 9990 N 925.291 0.760815 -1.38019 0
M  V30 9991 C 926.201 1.90526 -1.36884 0
M  V30 9992 C 927.217 1.71941 -0.266908 0
M  V30 9993 O 928.393 1.94988 -0.50413 0
M  V30 9994 C 925.458 3.25799 -1.18558 0
M  V30 9995 C 924.519 3.56961 -2.3849 0
M  V30 9996 C 923.752 4.8578 -2.21029 0
M  V30 9997 O 923.975 5.57629 -1.20023 0
M  V30 9998 O 922.909 5.16254 -3.0946 0
M  V30 9999 H 926.735 1.94437 -2.33298 0
M  V30 10000 H 924.32 0.905091 -1.18863 0
M  V30 10001 H 926.202 4.0669 -1.1037 0
M  V30 10002 H 924.877 3.22716 -0.252241 0
M  V30 10003 H 923.784 2.7626 -2.52252 0
M  V30 10004 H 925.117 3.64798 -3.30429 0
M  V30 10005 N 926.769 1.22769 0.988202 0
M  V30 10006 C 927.699 1.02627 2.09738 0
M  V30 10007 C 928.68 -0.0543211 1.70013 0
M  V30 10008 O 929.865 0.108811 1.93895 0
M  V30 10009 C 926.995 0.608302 3.41931 0
M  V30 10010 C 925.949 1.63536 3.95525 0
M  V30 10011 C 925.275 1.07308 5.23822 0
M  V30 10012 C 926.575 3.02649 4.25677 0
M  V30 10013 H 928.269 1.954 2.26847 0
M  V30 10014 H 925.815 0.940888 1.09011 0
M  V30 10015 H 927.768 0.454478 4.18942 0
M  V30 10016 H 926.492 -0.355095 3.24664 0
M  V30 10017 H 925.151 1.77704 3.20651 0
M  V30 10018 H 924.799 0.100894 5.02899 0
M  V30 10019 H 924.499 1.75925 5.60646 0
M  V30 10020 H 926.023 0.930938 6.03462 0
M  V30 10021 H 927.437 2.91828 4.93467 0
M  V30 10022 H 925.834 3.68434 4.73684 0
M  V30 10023 H 926.904 3.52228 3.33262 0
M  V30 10024 N 928.247 -1.18576 1.03814 0
M  V30 10025 C 929.18 -2.20929 0.571463 0
M  V30 10026 C 930.158 -1.57788 -0.392636 0
M  V30 10027 O 931.342 -1.85974 -0.30754 0
M  V30 10028 C 928.469 -3.38295 -0.165504 0
M  V30 10029 C 927.515 -4.19828 0.751457 0
M  V30 10030 S 928.348 -4.86725 2.23291 0
M  V30 10031 C 929.504 -6.07494 1.50672 0
M  V30 10032 H 929.737 -2.60173 1.43866 0
M  V30 10033 H 927.27 -1.2897 0.84888 0
M  V30 10034 H 929.228 -4.06317 -0.584545 0
M  V30 10035 H 927.889 -2.97468 -1.00855 0
M  V30 10036 H 927.082 -5.03671 0.181986 0
M  V30 10037 H 926.684 -3.57172 1.10923 0
M  V30 10038 H 928.976 -6.72779 0.798377 0
M  V30 10039 H 929.919 -6.68942 2.3221 0
M  V30 10040 H 930.327 -5.55569 1.00016 0
M  V30 10041 N 929.725 -0.817259 -1.34754 0
M  V30 10042 C 931.136 -0.462215 -1.80888 0
M  V30 10043 C 931.487 1.01685 -1.67794 0
M  V30 10044 O 930.612 1.79094 -1.21468 0
M  V30 10045 C 931.207 -0.832204 -3.2842 0
M  V30 10046 C 929.766 -0.52961 -3.72655 0
M  V30 10047 C 928.913 -1.05214 -2.56564 0
M  V30 10048 H 931.864 -1.00795 -1.22581 0
M  V30 10049 H 931.885 -0.133804 -3.80265 0
M  V30 10050 H 931.397 -1.90873 -3.37919 0
M  V30 10051 H 929.498 0.537743 -3.68699 0
M  V30 10052 H 929.611 -1.06971 -4.67005 0
M  V30 10053 H 927.975 -0.473949 -2.50251 0
M  V30 10054 H 928.758 -2.135 -2.68836 0
M  V30 10055 N 931.203 1.46865 -0.571711 0
M  V30 10056 C 932.15 2.30189 0.167808 0
M  V30 10057 C 933.12 1.3995 0.89461 0
M  V30 10058 O 934.305 1.68905 0.887451 0
M  V30 10059 C 931.445 3.24205 1.1826 0
M  V30 10060 C 930.558 4.2954 0.460376 0
M  V30 10061 C 929.693 5.10693 1.46173 0
M  V30 10062 C 928.732 6.07788 0.725291 0
M  V30 10063 N 927.869 6.81847 1.67417 0
M  V30 10064 H 932.709 2.92902 -0.548831 0
M  V30 10065 H 930.246 1.44362 -0.282474 0
M  V30 10066 H 932.204 3.77147 1.7837 0
M  V30 10067 H 930.834 2.63324 1.86709 0
M  V30 10068 H 929.886 3.79541 -0.255546 0
M  V30 10069 H 931.198 4.98665 -0.115855 0
M  V30 10070 H 930.352 5.67857 2.13595 0
M  V30 10071 H 929.091 4.41502 2.07188 0
M  V30 10072 H 928.096 5.49787 0.037228 0
M  V30 10073 H 929.321 6.78993 0.120678 0
M  V30 10074 H 927.267 6.15376 2.27263 0
M  V30 10075 H 927.184 7.47195 1.15046 0
M  V30 10076 H 928.452 7.43577 2.33908 0
M  V30 10077 N 932.681 0.308908 1.54543 0
M  V30 10078 C 933.644 -0.550857 2.22482 0
M  V30 10079 C 934.644 -1.0551 1.21344 0
M  V30 10080 O 935.834 -0.949866 1.46025 0
M  V30 10081 C 932.966 -1.76354 2.9174 0
M  V30 10082 H 934.159 0.0428395 2.99869 0
M  V30 10083 H 931.712 0.059825 1.56185 0
M  V30 10084 H 932.447 -2.39686 2.18451 0
M  V30 10085 H 932.232 -1.40954 3.65889 0
M  V30 10086 H 933.722 -2.37417 3.43545 0
M  V30 10087 N 934.159 -1.57557 0.0367827 0
M  V30 10088 C 935.089 -2.13712 -0.940719 0
M  V30 10089 C 936.07 -1.05515 -1.33419 0
M  V30 10090 O 937.255 -1.33385 -1.41146 0
M  V30 10091 C 934.385 -2.67043 -2.22048 0
M  V30 10092 C 933.339 -3.80096 -1.96752 0
M  V30 10093 C 932.665 -4.19886 -3.31059 0
M  V30 10094 C 933.965 -5.05848 -1.30058 0
M  V30 10095 H 935.659 -2.9564 -0.473033 0
M  V30 10096 H 933.205 -1.42214 -0.226089 0
M  V30 10097 H 935.158 -3.04964 -2.90818 0
M  V30 10098 H 933.882 -1.82287 -2.70996 0
M  V30 10099 H 932.541 -3.42625 -1.30398 0
M  V30 10100 H 932.189 -3.32101 -3.77781 0
M  V30 10101 H 931.889 -4.96073 -3.14937 0
M  V30 10102 H 933.413 -4.60395 -4.01084 0
M  V30 10103 H 934.827 -5.41306 -1.8884 0
M  V30 10104 H 933.224 -5.87084 -1.24309 0
M  V30 10105 H 934.294 -4.84122 -0.274591 0
M  V30 10106 N 935.637 0.236453 -1.55816 0
M  V30 10107 C 936.862 0.98449 -1.82545 0
M  V30 10108 C 937.287 1.77755 -0.615206 0
M  V30 10109 O 936.645 1.75982 0.435895 0
M  V30 10110 C 936.693 1.88973 -3.07118 0
M  V30 10111 O 935.797 2.98298 -2.84766 0
M  V30 10112 H 935.138 0.279577 -0.602273 0
M  V30 10113 H 937.668 0.254277 -2.03014 0
M  V30 10114 H 937.678 2.3024 -3.36829 0
M  V30 10115 H 936.353 1.30671 -3.94839 0
M  V30 10116 H 934.93 2.61085 -2.6625 0
M  V30 10117 N 937.115 1.49373 0.502552 0
M  V30 10118 C 938.343 1.62488 1.28084 0
M  V30 10119 C 938.758 0.295667 1.86471 0
M  V30 10120 O 938.115 -0.718664 1.67754 0
M  V30 10121 C 938.166 2.69249 2.4122 0
M  V30 10122 O 937.887 3.97014 1.85234 0
M  V30 10123 C 939.388 2.93054 3.32617 0
M  V30 10124 H 936.608 0.547068 0.388533 0
M  V30 10125 H 939.152 1.95394 0.603452 0
M  V30 10126 H 937.307 2.39125 3.04792 0
M  V30 10127 H 937.721 4.55809 2.59496 0
M  V30 10128 H 939.195 3.71493 4.08285 0
M  V30 10129 H 939.672 2.02911 3.89517 0
M  V30 10130 H 940.278 3.24589 2.74813 0
M  V30 10131 N 938.594 -0.753485 1.38421 0
M  V30 10132 C 940.01 -1.05656 1.1962 0
M  V30 10133 C 940.21 -2.0145 0.0449443 0
M  V30 10134 O 939.266 -2.45039 -0.609253 0
M  V30 10135 C 940.579 -1.63655 2.52265 0
M  V30 10136 C 942.127 -1.75825 2.58949 0
M  V30 10137 C 942.602 -2.37236 3.91769 0
M  V30 10138 N 944.093 -2.44666 3.9331 0
M  V30 10139 C 944.828 -2.93077 4.92842 0
M  V30 10140 N 944.324 -3.41523 6.02772 0
M  V30 10141 N 946.117 -2.92118 4.80232 0
M  V30 10142 H 938.268 -0.117799 2.12073 0
M  V30 10143 H 940.531 -0.114889 0.941012 0
M  V30 10144 H 940.237 -1.00734 3.36965 0
M  V30 10145 H 940.111 -2.62715 2.70667 0
M  V30 10146 H 942.498 -2.37873 1.74644 0
M  V30 10147 H 942.579 -0.754693 2.44414 0
M  V30 10148 H 942.223 -1.75822 4.76497 0
M  V30 10149 H 942.153 -3.38233 4.03616 0
M  V30 10150 H 944.644 -2.10403 3.1391 0
M  V30 10151 H 944.957 -3.76919 6.74649 0
M  V30 10152 H 943.302 -3.3958 6.06391 0
M  V30 10153 H 946.493 -2.53582 3.93464 0
M  V30 10154 H 946.666 -3.29535 5.57952 0
M  V30 10155 N 940.072 -1.23292 -0.981677 0
M  V30 10156 C 941.321 -1.05832 -1.71705 0
M  V30 10157 C 941.634 0.40514 -1.91358 0
M  V30 10158 O 942.84 0.699645 -2.6233 0
M  V30 10159 C 941.296 -1.84532 -3.08992 0
M  V30 10160 C 940.904 -3.35199 -2.9723 0
M  V30 10161 C 942.648 -1.75557 -3.86497 0
M  V30 10162 C 940.555 -4.06296 -4.29741 0
M  V30 10163 H 939.485 -0.39241 -0.64384 0
M  V30 10164 H 942.136 -1.47247 -1.09502 0
M  V30 10165 H 940.518 -1.35923 -3.71942 0
M  V30 10166 H 941.692 -3.91286 -2.43377 0
M  V30 10167 H 940.007 -3.44973 -2.332 0
M  V30 10168 H 942.604 -2.25989 -4.84596 0
M  V30 10169 H 942.947 -0.718101 -4.1006 0
M  V30 10170 H 943.48 -2.21771 -3.30246 0
M  V30 10171 H 940.219 -5.10344 -4.11375 0
M  V30 10172 H 939.739 -3.54997 -4.83464 0
M  V30 10173 H 941.418 -4.12519 -4.98434 0
M  V30 10174 N 941.55 1.18024 -1.04442 0
M  V30 10175 C 942.799 1.8743 -0.745185 0
M  V30 10176 C 943.112 1.81459 0.730206 0
M  V30 10177 O 944.318 2.46263 1.1431 0
M  V30 10178 C 942.774 3.36266 -1.28271 0
M  V30 10179 C 942.382 3.50757 -2.787 0
M  V30 10180 C 944.126 4.11048 -1.06018 0
M  V30 10181 C 942.033 4.93573 -3.25791 0
M  V30 10182 H 940.963 0.702038 -0.27506 0
M  V30 10183 H 943.614 1.33333 -1.26073 0
M  V30 10184 H 941.996 3.89853 -0.695002 0
M  V30 10185 H 943.17 3.07423 -3.43261 0
M  V30 10186 H 941.485 2.89385 -2.99408 0
M  V30 10187 H 944.082 5.16395 -1.38711 0
M  V30 10188 H 944.425 4.163 0.00241716 0
M  V30 10189 H 944.958 3.63644 -1.61269 0
M  V30 10190 H 941.697 4.93491 -4.31447 0
M  V30 10191 H 941.217 5.37607 -2.65968 0
M  V30 10192 H 942.896 5.62307 -3.20031 0
M  V30 10193 N 943.028 0.824394 1.34319 0
M  V30 10194 C 944.276 0.41235 1.97849 0
M  V30 10195 C 944.597 -1.02841 1.65677 0
M  V30 10196 O 943.867 -1.71421 0.948245 0
M  V30 10197 H 942.447 0.149486 0.73189 0
M  V30 10198 H 945.109 1.05416 1.63931 0
M  V30 10199 H 944.205 0.532557 3.07523 0
M  V30 10200 N 944.506 -1.46559 0.579492 0
M  V30 10201 C 945.754 -2.02 0.0637157 0
M  V30 10202 C 946.075 -1.45378 -1.29962 0
M  V30 10203 O 945.345 -0.637262 -1.85245 0
M  V30 10204 H 943.925 -0.746717 0.0205638 0
M  V30 10205 H 946.587 -1.79702 0.754544 0
M  V30 10206 H 945.683 -3.12099 -0.00770254 0
M  V30 10207 N 945.984 -0.3171 -1.54377 0
M  V30 10208 C 947.233 0.288271 -1.99629 0
M  V30 10209 C 947.546 1.53754 -1.2091 0
M  V30 10210 O 948.752 2.2185 -1.56508 0
M  V30 10211 C 947.208 0.564188 -3.5545 0
M  V30 10212 C 946.816 -0.667659 -4.42997 0
M  V30 10213 C 948.56 1.12987 -4.09187 0
M  V30 10214 C 946.467 -0.364003 -5.90279 0
M  V30 10215 H 945.397 0.111492 -0.745711 0
M  V30 10216 H 948.048 -0.428317 -1.78431 0
M  V30 10217 H 946.43 1.34079 -3.72611 0
M  V30 10218 H 947.604 -1.44335 -4.37612 0
M  V30 10219 H 945.919 -1.1531 -4.00116 0
M  V30 10220 H 948.516 1.37157 -5.1681 0
M  V30 10221 H 948.859 2.07722 -3.60773 0
M  V30 10222 H 949.392 0.414595 -3.95634 0
M  V30 10223 H 946.131 -1.28035 -6.42874 0
M  V30 10224 H 945.651 0.374102 -5.98632 0
M  V30 10225 H 947.33 0.0285433 -6.46994 0
M  V30 10226 N 947.462 1.57535 -0.0451378 0
M  V30 10227 C 948.708 1.93558 0.62505 0
M  V30 10228 C 949.063 0.923159 1.68806 0
M  V30 10229 O 948.356 -0.0585419 1.91511 0
M  V30 10230 C 948.55 3.34065 1.27024 0
M  V30 10231 C 948.379 4.48881 0.271253 0
M  V30 10232 C 947.149 5.05121 -0.13462 0
M  V30 10233 C 949.347 5.12047 -0.480911 0
M  V30 10234 N 947.329 6.03465 -1.1271 0
M  V30 10235 C 948.7 6.0564 -1.32666 0
M  V30 10236 C 950.755 4.94964 -0.539878 0
M  V30 10237 C 949.458 6.83987 -2.22608 0
M  V30 10238 C 951.484 5.73933 -1.4267 0
M  V30 10239 C 950.846 6.67154 -2.26019 0
M  V30 10240 H 946.945 0.755846 0.20055 0
M  V30 10241 H 949.529 1.94354 -0.116059 0
M  V30 10242 H 947.7 3.34058 1.98141 0
M  V30 10243 H 949.432 3.57393 1.89875 0
M  V30 10244 H 946.187 4.72976 0.243112 0
M  V30 10245 H 946.611 6.5733 -1.62006 0
M  V30 10246 H 951.253 4.22704 0.0902834 0
M  V30 10247 H 948.971 7.55543 -2.86672 0
M  V30 10248 H 952.557 5.62744 -1.47682 0
M  V30 10249 H 951.437 7.27194 -2.93528 0
M  V30 10250 N 948.94 -0.228186 1.55939 0
M  V30 10251 C 950.186 -0.950604 1.7982 0
M  V30 10252 C 950.541 -1.82236 0.617079 0
M  V30 10253 O 949.834 -1.87607 -0.389102 0
M  V30 10254 C 950.028 -1.82924 3.0704 0
M  V30 10255 C 949.857 -1.04403 4.37413 0
M  V30 10256 C 948.627 -0.741613 4.99828 0
M  V30 10257 C 950.825 -0.412534 5.12643 0
M  V30 10258 N 948.807 0.0656922 6.13865 0
M  V30 10259 C 950.178 0.258471 6.19461 0
M  V30 10260 C 952.233 -0.324893 4.96839 0
M  V30 10261 C 950.936 1.00873 7.12192 0
M  V30 10262 C 952.962 0.411878 5.89964 0
M  V30 10263 C 952.324 1.07145 6.96203 0
M  V30 10264 H 948.423 -0.328336 0.709732 0
M  V30 10265 H 951.007 -0.222056 1.9343 0
M  V30 10266 H 949.178 -2.52966 2.94725 0
M  V30 10267 H 950.91 -2.48863 3.19139 0
M  V30 10268 H 947.665 -1.05801 4.61631 0
M  V30 10269 H 948.089 0.457986 6.75449 0
M  V30 10270 H 952.731 -0.820485 4.14762 0
M  V30 10271 H 950.449 1.51586 7.93755 0
M  V30 10272 H 954.035 0.480606 5.79812 0
M  V30 10273 H 952.915 1.63245 7.67021 0
M  V30 10274 N 950.418 -1.49637 -0.494624 0
M  V30 10275 C 951.665 -1.59445 -1.24834 0
M  V30 10276 C 951.993 -0.284028 -1.92415 0
M  V30 10277 O 951.248 0.728519 -1.81634 0
M  V30 10278 C 951.547 -2.70749 -2.33302 0
M  V30 10279 C 951.213 -4.12034 -1.83135 0
M  V30 10280 C 949.875 -4.50482 -1.69173 0
M  V30 10281 C 952.227 -5.00432 -1.4566 0
M  V30 10282 C 949.555 -5.75093 -1.16124 0
M  V30 10283 C 951.907 -6.25568 -0.940608 0
M  V30 10284 C 950.571 -6.62839 -0.787432 0
M  V30 10285 H 949.841 -0.583451 -0.456799 0
M  V30 10286 H 952.488 -1.8349 -0.548044 0
M  V30 10287 H 950.793 -2.407 -3.09145 0
M  V30 10288 H 952.49 -2.75546 -2.91334 0
M  V30 10289 H 949.08 -3.8169 -1.94964 0
M  V30 10290 H 953.264 -4.71379 -1.55291 0
M  V30 10291 H 948.52 -6.02665 -1.02982 0
M  V30 10292 H 952.694 -6.93439 -0.641467 0
M  V30 10293 H 950.321 -7.59279 -0.374191 0
M  V30 10294 N 951.896 0.746133 -1.38819 0
M  V30 10295 C 953.143 1.50545 -1.35434 0
M  V30 10296 C 953.471 1.94427 0.0532669 0
M  V30 10297 O 952.726 1.66285 1.03188 0
M  V30 10298 C 953.025 2.76639 -2.26286 0
M  V30 10299 C 952.691 2.51682 -3.74122 0
M  V30 10300 C 951.353 2.44584 -4.14406 0
M  V30 10301 C 953.705 2.30071 -4.67672 0
M  V30 10302 C 951.033 2.13902 -5.46318 0
M  V30 10303 C 953.385 2.00907 -5.99849 0
M  V30 10304 C 952.049 1.92271 -6.39209 0
M  V30 10305 H 951.319 0.550883 -0.49559 0
M  V30 10306 H 953.966 0.857337 -1.71237 0
M  V30 10307 H 952.271 3.46138 -1.83564 0
M  V30 10308 H 953.968 3.34626 -2.20967 0
M  V30 10309 H 950.558 2.5808 -3.42188 0
M  V30 10310 H 954.742 2.34528 -4.3739 0
M  V30 10311 H 949.998 2.0573 -5.75748 0
M  V30 10312 H 954.172 1.83191 -6.71874 0
M  V30 10313 H 951.799 1.68261 -7.41345 0
M  V30 10314 N 953.375 1.23811 0.975125 0
M  V30 10315 C 954.603 1.10019 1.75224 0
M  V30 10316 C 955.018 -0.34791 1.85567 0
M  V30 10317 O 954.375 -1.24043 1.33864 0
M  V30 10318 C 954.426 1.72572 3.1765 0
M  V30 10319 O 954.147 3.11719 3.07836 0
M  V30 10320 C 955.648 1.64292 4.11732 0
M  V30 10321 H 952.868 0.38476 0.549728 0
M  V30 10322 H 955.412 1.63768 1.22476 0
M  V30 10323 H 953.567 1.22843 3.67408 0
M  V30 10324 H 953.981 3.42152 3.97533 0
M  V30 10325 H 955.455 2.12754 5.09352 0
M  V30 10326 H 955.932 0.602722 4.35045 0
M  V30 10327 H 956.538 2.13411 3.6788 0
M  V30 10328 N 954.853 -1.17469 1.05066 0
M  V30 10329 C 955.783 -2.23635 0.671552 0
M  V30 10330 C 956.764 -1.66867 -0.33006 0
M  V30 10331 O 957.949 -1.93084 -0.207933 0
M  V30 10332 C 955.079 -3.47272 0.0441845 0
M  V30 10333 C 954.033 -4.16854 0.97042 0
M  V30 10334 C 953.359 -5.34299 0.206998 0
M  V30 10335 C 954.659 -4.69225 2.29401 0
M  V30 10336 H 956.353 -2.55602 1.55911 0
M  V30 10337 H 953.899 -1.2286 0.751101 0
M  V30 10338 H 955.852 -4.20756 -0.23282 0
M  V30 10339 H 954.576 -3.14568 -0.878311 0
M  V30 10340 H 953.235 -3.4528 1.23197 0
M  V30 10341 H 952.883 -4.97846 -0.718222 0
M  V30 10342 H 952.583 -5.81792 0.82416 0
M  V30 10343 H 954.107 -6.10568 -0.0627525 0
M  V30 10344 H 955.521 -5.34353 2.077 0
M  V30 10345 H 953.918 -5.27291 2.86503 0
M  V30 10346 H 954.988 -3.86102 2.93348 0
M  V30 10347 N 956.331 -0.831506 -1.3388 0
M  V30 10348 C 957.58 -0.420028 -1.97278 0
M  V30 10349 C 957.893 1.02441 -1.66629 0
M  V30 10350 O 959.099 1.54021 -2.23584 0
M  V30 10351 C 957.555 -0.700116 -3.53025 0
M  V30 10352 C 957.163 -2.15874 -3.92559 0
M  V30 10353 C 958.907 -0.355226 -4.23011 0
M  V30 10354 C 956.814 -2.38327 -5.41252 0
M  V30 10355 H 955.744 -0.153326 -0.738246 0
M  V30 10356 H 958.395 -1.01906 -1.52602 0
M  V30 10357 H 956.777 -0.0308044 -3.95988 0
M  V30 10358 H 957.951 -2.86792 -3.60675 0
M  V30 10359 H 956.266 -2.4659 -3.35533 0
M  V30 10360 H 958.863 -0.500701 -5.32351 0
M  V30 10361 H 959.206 0.70111 -4.10354 0
M  V30 10362 H 959.739 -0.979466 -3.85553 0
M  V30 10363 H 956.478 -3.42498 -5.58906 0
M  V30 10364 H 955.998 -1.71962 -5.74621 0
M  V30 10365 H 957.677 -2.21113 -6.08045 0
M  V30 10366 N 957.809 1.4625 -0.587256 0
M  V30 10367 C 959.058 2.01571 -0.0722643 0
M  V30 10368 C 959.371 1.46385 1.29733 0
M  V30 10369 O 960.577 1.93554 1.90392 0
M  V30 10370 C 959.033 3.59814 -0.078579 0
M  V30 10371 C 958.641 4.23996 -1.44678 0
M  V30 10372 C 960.385 4.22776 0.382231 0
M  V30 10373 C 958.292 5.74332 -1.41057 0
M  V30 10374 H 957.222 0.753642 -0.0232461 0
M  V30 10375 H 959.873 1.67936 -0.739577 0
M  V30 10376 H 958.255 3.90546 0.654988 0
M  V30 10377 H 959.429 4.04867 -2.20043 0
M  V30 10378 H 957.744 3.73147 -1.84799 0
M  V30 10379 H 960.341 5.32983 0.428182 0
M  V30 10380 H 960.684 3.92027 1.40072 0
M  V30 10381 H 961.217 3.96687 -0.297417 0
M  V30 10382 H 957.956 6.09747 -2.40601 0
M  V30 10383 H 957.476 5.95711 -0.699185 0
M  V30 10384 H 959.155 6.37137 -1.12543 0
M  V30 10385 N 959.287 0.325282 1.54207 0
M  V30 10386 C 960.536 -0.27768 1.99779 0
M  V30 10387 C 960.849 -1.5311 1.21723 0
M  V30 10388 O 962.055 -2.21017 1.57682 0
M  V30 10389 C 960.511 -0.545329 3.55745 0
M  V30 10390 C 960.119 0.691143 4.42637 0
M  V30 10391 C 961.863 -1.10815 4.09781 0
M  V30 10392 C 959.77 0.395302 5.90077 0
M  V30 10393 H 958.7 -0.107536 0.746292 0
M  V30 10394 H 961.351 0.437773 1.78202 0
M  V30 10395 H 959.733 -1.32101 3.73317 0
M  V30 10396 H 960.907 1.46653 4.3684 0
M  V30 10397 H 959.222 1.1743 3.99499 0
M  V30 10398 H 961.819 -1.34414 5.1753 0
M  V30 10399 H 962.162 -2.05806 3.6187 0
M  V30 10400 H 962.695 -0.393608 3.95848 0
M  V30 10401 H 959.434 1.31443 6.42186 0
M  V30 10402 H 958.954 -0.34235 5.98822 0
M  V30 10403 H 960.633 0.00576877 6.47 0
M  V30 10404 N 960.765 -1.57509 0.0534917 0
M  V30 10405 C 961.99 -1.97511 -0.632794 0
M  V30 10406 C 962.415 -0.930947 -1.63447 0
M  V30 10407 O 961.773 0.105558 -1.80992 0
M  V30 10408 C 961.821 -3.3658 -1.29407 0
M  V30 10409 O 960.925 -3.3467 -2.40977 0
M  V30 10410 H 960.266 -0.643349 -0.16431 0
M  V30 10411 H 962.796 -2.04232 0.12258 0
M  V30 10412 H 962.806 -3.73359 -1.64521 0
M  V30 10413 H 961.481 -4.12113 -0.559976 0
M  V30 10414 H 960.058 -3.09639 -2.07793 0
M  V30 10415 N 962.243 0.219913 -1.56058 0
M  V30 10416 C 963.468 0.965073 -1.83579 0
M  V30 10417 C 963.893 1.77092 -0.634024 0
M  V30 10418 O 963.251 1.76434 0.417205 0
M  V30 10419 C 963.299 1.85705 -3.09105 0
M  V30 10420 O 962.403 2.95261 -2.87914 0
M  V30 10421 H 961.744 0.273173 -0.605204 0
M  V30 10422 H 964.274 0.23273 -2.03272 0
M  V30 10423 H 964.284 2.26655 -3.39252 0
M  V30 10424 H 962.959 1.26476 -3.96203 0
M  V30 10425 H 961.536 2.58246 -2.69005 0
M  V30 10426 N 963.721 1.49897 0.486681 0
M  V30 10427 C 964.951 1.63599 1.2617 0
M  V30 10428 C 965.359 0.312365 1.86604 0
M  V30 10429 O 964.702 -0.713911 1.6926 0
M  V30 10430 C 964.764 2.65736 2.42125 0
M  V30 10431 C 964.428 4.09711 2.0245 0
M  V30 10432 C 965.425 4.9607 1.55596 0
M  V30 10433 C 963.11 4.55534 2.11647 0
M  V30 10434 C 965.104 6.26295 1.18462 0
M  V30 10435 C 962.791 5.85768 1.74124 0
M  V30 10436 C 963.789 6.70973 1.27608 0
M  V30 10437 O 963.477 7.98778 0.905991 0
M  V30 10438 H 963.209 0.55333 0.388332 0
M  V30 10439 H 965.763 1.96768 0.589195 0
M  V30 10440 H 963.993 2.27778 3.12497 0
M  V30 10441 H 965.682 2.68819 3.04123 0
M  V30 10442 H 966.448 4.61891 1.47925 0
M  V30 10443 H 962.327 3.8937 2.46803 0
M  V30 10444 H 965.871 6.92754 0.820839 0
M  V30 10445 H 961.768 6.19473 1.8145 0
M  V30 10446 H 962.536 8.11914 1.03621 0
M  V30 10447 N 965.199 -0.738761 1.39212 0
M  V30 10448 C 966.427 -1.52801 1.39497 0
M  V30 10449 C 966.842 -1.88797 -0.0114917 0
M  V30 10450 O 966.199 -1.53835 -0.981887 0
M  V30 10451 C 966.25 -2.81793 2.2644 0
M  V30 10452 O 965.971 -2.47328 3.61608 0
M  V30 10453 C 967.472 -3.75844 2.35067 0
M  V30 10454 H 964.692 -0.472322 0.476606 0
M  V30 10455 H 967.236 -0.913153 1.8298 0
M  V30 10456 H 965.391 -3.3962 1.8638 0
M  V30 10457 H 965.805 -3.30162 4.07545 0
M  V30 10458 H 967.279 -4.6326 3.00157 0
M  V30 10459 H 967.756 -4.17329 1.3687 0
M  V30 10460 H 968.362 -3.23937 2.75581 0
M  V30 10461 N 966.677 -1.24326 -0.968545 0
M  V30 10462 C 967.64 -1.03591 -2.04454 0
M  V30 10463 C 968.64 0.0064809 -1.60799 0
M  V30 10464 O 969.83 -0.234404 -1.72616 0
M  V30 10465 C 966.962 -0.56992 -3.36102 0
M  V30 10466 H 968.155 -1.99092 -2.24282 0
M  V30 10467 H 965.708 -1.06537 -1.14366 0
M  V30 10468 H 966.443 0.388325 -3.21967 0
M  V30 10469 H 966.228 -1.32227 -3.69132 0
M  V30 10470 H 967.718 -0.445854 -4.15213 0
M  V30 10471 N 968.156 1.1691 -1.05688 0
M  V30 10472 C 969.104 2.2315 -0.656262 0
M  V30 10473 C 970.098 1.66256 0.324873 0
M  V30 10474 O 971.304 1.7899 0.190397 0
M  V30 10475 H 967.679 0.726527 -0.19407 0
M  V30 10476 H 969.65 2.54233 -1.56231 0
M  V30 10477 C 968.399 3.47661 -0.0522431 0
M  V30 10478 H 967.722 3.91749 -0.798299 0
M  V30 10479 H 969.162 4.23571 0.190626 0
M  V30 10480 C 967.621 3.14709 1.20248 0
M  V30 10481 O 968.151 3.29947 2.29124 0
M  V30 10482 N 966.357 2.68892 1.10207 0
M  V30 10483 H 965.904 2.56692 0.216063 0
M  V30 10484 H 965.862 2.47218 1.94244 0
M  V30 10485 N 969.634 0.838594 1.33437 0
M  V30 10486 C 970.564 0.286672 2.31734 0
M  V30 10487 C 971.545 -0.605451 1.5896 0
M  V30 10488 O 972.73 -0.529059 1.86854 0
M  V30 10489 C 969.86 -0.539311 3.43087 0
M  V30 10490 C 968.814 0.256997 4.27228 0
M  V30 10491 C 968.14 -0.692718 5.30194 0
M  V30 10492 C 969.44 1.47391 5.01072 0
M  V30 10493 H 971.134 1.10798 2.78144 0
M  V30 10494 H 968.68 0.534235 1.33723 0
M  V30 10495 H 970.633 -0.935724 4.1088 0
M  V30 10496 H 969.357 -1.39383 2.95364 0
M  V30 10497 H 968.016 0.634967 3.61059 0
M  V30 10498 H 967.664 -1.54363 4.78729 0
M  V30 10499 H 967.364 -0.164023 5.87371 0
M  V30 10500 H 968.888 -1.08665 6.00853 0
M  V30 10501 H 970.302 1.15067 5.61634 0
M  V30 10502 H 968.699 1.93937 5.67898 0
M  V30 10503 H 969.769 2.24382 4.29861 0
M  V30 10504 N 971.112 -1.45937 0.595003 0
M  V30 10505 C 972.075 -2.2888 -0.121102 0
M  V30 10506 C 973.075 -1.39075 -0.807149 0
M  V30 10507 O 974.265 -1.61326 -0.657228 0
M  V30 10508 C 971.397 -3.19778 -1.1813 0
M  V30 10509 H 972.59 -2.93673 0.607968 0
M  V30 10510 H 970.143 -1.5225 0.353495 0
M  V30 10511 H 970.878 -2.59759 -1.94154 0
M  V30 10512 H 970.663 -3.85914 -0.693724 0
M  V30 10513 H 972.153 -3.82176 -1.68319 0
M  V30 10514 N 972.59 -0.333456 -1.54032 0
M  V30 10515 C 973.553 0.515392 -2.2333 0
M  V30 10516 C 974.553 1.03566 -1.23007 0
M  V30 10517 O 975.743 0.926514 -1.47517 0
M  V30 10518 C 972.875 1.7169 -2.94508 0
M  V30 10519 H 974.068 -0.0905407 -2.99763 0
M  V30 10520 H 971.621 -0.0846651 -1.56071 0
M  V30 10521 H 972.356 2.3618 -2.22237 0
M  V30 10522 H 972.141 1.35115 -3.68085 0
M  V30 10523 H 973.631 2.31922 -3.47278 0
M  V30 10524 N 974.068 1.57479 -0.061844 0
M  V30 10525 C 975.315 1.93108 0.60954 0
M  V30 10526 C 975.643 0.941086 1.70217 0
M  V30 10527 O 974.898 -0.044914 1.95648 0
M  V30 10528 C 975.197 3.35394 1.23474 0
M  V30 10529 C 974.863 4.50095 0.269247 0
M  V30 10530 C 973.525 4.812 0.00360316 0
M  V30 10531 C 975.877 5.19725 -0.391839 0
M  V30 10532 C 973.205 5.79276 -0.930383 0
M  V30 10533 C 975.557 6.18801 -1.31408 0
M  V30 10534 C 974.221 6.48328 -1.58829 0
M  V30 10535 H 973.491 0.706634 0.223046 0
M  V30 10536 H 976.138 1.91054 -0.1306 0
M  V30 10537 H 974.443 3.33866 2.05039 0
M  V30 10538 H 976.14 3.60247 1.76134 0
M  V30 10539 H 972.73 4.2583 0.486477 0
M  V30 10540 H 976.914 4.95898 -0.199713 0
M  V30 10541 H 972.17 6.00484 -1.15019 0
M  V30 10542 H 976.344 6.71862 -1.83234 0
M  V30 10543 H 973.971 7.24137 -2.31363 0
M  V30 10544 N 975.546 -0.211634 1.56173 0
M  V30 10545 C 976.476 -1.26533 1.96244 0
M  V30 10546 C 977.457 -1.48362 0.832028 0
M  V30 10547 O 978.642 -1.60378 1.0951 0
M  V30 10548 C 975.772 -2.61307 2.2877 0
M  V30 10549 C 974.726 -2.54119 3.44395 0
M  V30 10550 C 974.052 -3.93014 3.62552 0
M  V30 10551 C 975.352 -2.08046 4.79076 0
M  V30 10552 H 977.046 -0.932407 2.84511 0
M  V30 10553 H 974.592 -0.447084 1.36884 0
M  V30 10554 H 976.545 -3.35188 2.55396 0
M  V30 10555 H 975.269 -2.96307 1.37367 0
M  V30 10556 H 973.928 -1.82694 3.17834 0
M  V30 10557 H 973.576 -4.25338 2.68508 0
M  V30 10558 H 973.276 -3.89083 4.40327 0
M  V30 10559 H 974.8 -4.68542 3.91537 0
M  V30 10560 H 976.214 -2.71676 5.04842 0
M  V30 10561 H 974.611 -2.15154 5.60204 0
M  V30 10562 H 975.681 -1.03306 4.73768 0
M  V30 10563 N 977.024 -1.50153 -0.478725 0
M  V30 10564 C 978.252 -1.64505 -1.25482 0
M  V30 10565 C 978.667 -0.325295 -1.85977 0
M  V30 10566 O 978.024 0.691885 -1.68876 0
M  V30 10567 C 978.075 -2.73052 -2.36906 0
M  V30 10568 O 977.796 -3.99911 -1.78894 0
M  V30 10569 C 979.297 -2.98309 -3.27912 0
M  V30 10570 H 976.517 -0.55318 -0.379781 0
M  V30 10571 H 979.061 -1.96329 -0.57229 0
M  V30 10572 H 977.216 -2.43944 -3.00949 0
M  V30 10573 H 977.63 -4.5988 -2.52211 0
M  V30 10574 H 979.104 -3.77942 -4.02323 0
M  V30 10575 H 979.581 -2.09082 -3.8624 0
M  V30 10576 H 980.187 -3.2892 -2.69614 0
M  V30 10577 N 978.502 0.731368 -1.39602 0
M  V30 10578 C 979.748 1.49321 -1.37227 0
M  V30 10579 C 980.081 1.94176 0.0306502 0
M  V30 10580 O 979.356 1.67046 0.996294 0
M  V30 10581 C 979.639 2.73035 -2.34784 0
M  V30 10582 C 979.492 2.34176 -3.84033 0
M  V30 10583 C 980.811 3.75146 -2.30116 0
M  V30 10584 H 977.93 0.541652 -0.499783 0
M  V30 10585 H 980.572 0.835968 -1.70621 0
M  V30 10586 H 978.722 3.29114 -2.06437 0
M  V30 10587 H 980.394 1.83701 -4.23145 0
M  V30 10588 H 978.637 1.66361 -4.00633 0
M  V30 10589 H 979.308 3.22786 -4.47787 0
M  V30 10590 H 981.784 3.28661 -2.55189 0
M  V30 10591 H 980.66 4.5937 -3.00451 0
M  V30 10592 H 980.921 4.22326 -1.30741 0
M  V30 10593 N 979.98 1.24838 0.961938 0
M  V30 10594 C 980.89 1.06304 2.09133 0
M  V30 10595 C 981.906 0.00221475 1.74 0
M  V30 10596 O 983.082 0.201611 2.00388 0
M  V30 10597 C 980.147 0.676117 3.40043 0
M  V30 10598 C 979.208 1.81407 3.89089 0
M  V30 10599 C 978.441 1.44551 5.13752 0
M  V30 10600 O 978.664 0.337894 5.69398 0
M  V30 10601 O 977.598 2.27316 5.57325 0
M  V30 10602 H 981.424 2.01001 2.27667 0
M  V30 10603 H 979.009 1.0371 1.07539 0
M  V30 10604 H 980.891 0.472124 4.18747 0
M  V30 10605 H 979.566 -0.241667 3.22797 0
M  V30 10606 H 978.473 2.07286 3.11421 0
M  V30 10607 H 979.806 2.71083 4.10822 0
M  V30 10608 N 981.458 -1.16348 1.06306 0
M  V30 10609 C 982.874 -1.38873 0.786543 0
M  V30 10610 C 983.074 -1.91915 -0.614061 0
M  V30 10611 O 982.13 -2.11804 -1.3746 0
M  V30 10612 C 983.443 -2.36936 1.85154 0
M  V30 10613 C 984.991 -2.5062 1.87506 0
M  V30 10614 C 985.466 -3.51965 2.9306 0
M  V30 10615 N 986.957 -3.59492 2.92095 0
M  V30 10616 C 987.692 -4.37699 3.70415 0
M  V30 10617 N 987.188 -5.19327 4.58553 0
M  V30 10618 N 988.981 -4.32683 3.58806 0
M  V30 10619 H 981.132 -0.802542 1.96655 0
M  V30 10620 H 983.395 -0.415304 0.852189 0
M  V30 10621 H 983.101 -2.05056 2.85736 0
M  V30 10622 H 982.975 -3.36585 1.70267 0
M  V30 10623 H 985.362 -2.81804 0.875827 0
M  V30 10624 H 985.443 -1.51006 2.06472 0
M  V30 10625 H 985.087 -3.21518 3.93177 0
M  V30 10626 H 985.017 -4.51309 2.71344 0
M  V30 10627 H 987.508 -3.01222 2.28197 0
M  V30 10628 H 987.821 -5.76216 5.1497 0
M  V30 10629 H 986.166 -5.1867 4.62608 0
M  V30 10630 H 989.357 -3.67971 2.89335 0
M  V30 10631 H 989.53 -4.93386 4.20088 0
M  V30 10632 N 982.937 -0.845659 -1.3299 0
M  V30 10633 C 983.87 -0.228695 -2.27051 0
M  V30 10634 C 984.848 0.62812 -1.49978 0
M  V30 10635 O 986.032 0.586897 -1.79131 0
M  V30 10636 C 983.159 0.678251 -3.31839 0
M  V30 10637 C 982.205 -0.103994 -4.26373 0
M  V30 10638 S 983.038 -1.46642 -5.1503 0
M  V30 10639 C 984.194 -0.564953 -6.23345 0
M  V30 10640 H 984.427 -1.02609 -2.79032 0
M  V30 10641 H 981.96 -0.642786 -1.40384 0
M  V30 10642 H 983.918 1.1959 -3.92694 0
M  V30 10643 H 982.579 1.44937 -2.78661 0
M  V30 10644 H 981.772 0.586406 -5.00577 0
M  V30 10645 H 981.374 -0.552927 -3.6989 0
M  V30 10646 H 983.666 0.234466 -6.77094 0
M  V30 10647 H 984.609 -1.27736 -6.96483 0
M  V30 10648 H 985.017 -0.143286 -5.64318 0
M  V30 10649 N 984.415 1.45619 -0.602734 0
M  V30 10650 C 985.325 2.34288 0.120902 0
M  V30 10651 C 986.341 1.50952 0.865414 0
M  V30 10652 O 987.517 1.83768 0.824094 0
M  V30 10653 C 984.582 3.28489 1.10888 0
M  V30 10654 C 983.643 4.2773 0.366853 0
M  V30 10655 C 982.876 5.17429 1.30776 0
M  V30 10656 O 983.099 5.10459 2.54535 0
M  V30 10657 O 982.033 5.96459 0.807464 0
M  V30 10658 H 985.859 2.97559 -0.60765 0
M  V30 10659 H 983.444 1.44922 -0.363019 0
M  V30 10660 H 985.326 3.86549 1.67803 0
M  V30 10661 H 984.001 2.67789 1.81854 0
M  V30 10662 H 982.908 3.73299 -0.244643 0
M  V30 10663 H 984.241 4.91271 -0.302226 0
M  V30 10664 N 985.893 0.34162 1.53853 0
M  V30 10665 C 987.118 -0.259608 2.05769 0
M  V30 10666 C 987.543 -1.43588 1.21507 0
M  V30 10667 O 986.901 -1.79856 0.228364 0
M  V30 10668 C 986.949 -0.654455 3.54611 0
M  V30 10669 O 986.053 -1.75472 3.73207 0
M  V30 10670 H 985.394 -0.0434621 0.662576 0
M  V30 10671 H 987.924 0.495274 1.98515 0
M  V30 10672 H 987.934 -0.932142 3.97209 0
M  V30 10673 H 986.609 0.205779 4.15391 0
M  V30 10674 H 985.186 -1.47444 3.42512 0
M  V30 10675 N 987.371 -1.57444 0.0701946 0
M  V30 10676 C 988.782 -1.80875 -0.462709 0
M  V30 10677 C 989.133 -0.983975 -1.69742 0
M  V30 10678 O 988.258 -0.206027 -2.15417 0
M  V30 10679 C 988.853 -3.28062 -0.84623 0
M  V30 10680 C 987.412 -3.52345 -1.32401 0
M  V30 10681 C 986.559 -2.7558 -0.308399 0
M  V30 10682 H 989.51 -1.55917 0.295907 0
M  V30 10683 H 989.531 -3.40023 -1.70776 0
M  V30 10684 H 989.043 -3.88064 0.0526033 0
M  V30 10685 H 987.144 -2.97645 -2.24139 0
M  V30 10686 H 987.257 -4.6104 -1.30304 0
M  V30 10687 H 985.621 -2.4229 -0.785337 0
M  V30 10688 H 986.404 -3.38319 0.582679 0
M  V30 10689 N 988.849 0.203349 -1.56283 0
M  V30 10690 C 990.098 0.92315 -1.79334 0
M  V30 10691 C 990.411 1.84765 -0.641977 0
M  V30 10692 O 991.617 2.60745 -0.756584 0
M  V30 10693 C 990.073 1.69184 -3.17655 0
M  V30 10694 C 989.681 0.812581 -4.40569 0
M  V30 10695 C 991.425 2.40177 -3.50022 0
M  V30 10696 C 989.332 1.57967 -5.69913 0
M  V30 10697 H 988.262 0.348442 -0.668659 0
M  V30 10698 H 990.913 0.1766 -1.82648 0
M  V30 10699 H 989.295 2.48197 -3.08568 0
M  V30 10700 H 990.469 0.0616956 -4.60759 0
M  V30 10701 H 988.784 0.21389 -4.1585 0
M  V30 10702 H 991.381 2.98103 -4.4389 0
M  V30 10703 H 991.724 3.13961 -2.73376 0
M  V30 10704 H 992.257 1.68138 -3.6052 0
M  V30 10705 H 988.996 0.884767 -6.49501 0
M  V30 10706 H 988.516 2.3047 -5.53754 0
M  V30 10707 H 990.195 2.13562 -6.10737 0
M  V30 10708 N 990.327 1.50405 0.470755 0
M  V30 10709 C 991.604 1.51929 1.23195 0
M  V30 10710 C 991.984 0.264159 2.09441 0
M  V30 10711 O 991.332 -0.752395 2.15757 0
M  V30 10712 C 991.542 2.81521 2.06269 0
M  V30 10713 C 992.89 3.32195 2.64446 0
M  V30 10714 O 993.914 2.82845 2.16511 0
M  V30 10715 O 992.773 4.18221 3.51786 0
M  V30 10716 H 989.867 0.609411 0.559059 0
M  V30 10717 H 992.413 1.62695 0.482549 0
M  V30 10718 H 991.185 3.64346 1.42715 0
M  V30 10719 H 990.808 2.7376 2.88342 0
M  V30 10720 N 991.805 -0.723954 1.39988 0
M  V30 10721 C 993.03 -1.5182 1.41299 0
M  V30 10722 C 993.455 -1.88096 0.0122636 0
M  V30 10723 O 992.813 -1.52687 -0.977559 0
M  V30 10724 C 992.861 -2.77532 2.30235 0
M  V30 10725 O 991.965 -3.73903 1.73984 0
M  V30 10726 H 991.306 -0.458058 0.480707 0
M  V30 10727 H 993.836 -0.892291 1.84118 0
M  V30 10728 H 993.846 -3.2615 2.45132 0
M  V30 10729 H 992.521 -2.50462 3.32026 0
M  V30 10730 H 991.098 -3.32715 1.68389 0
M  V30 10731 N 993.283 -1.25346 -0.955304 0
M  V30 10732 C 994.246 -1.05754 -2.03344 0
M  V30 10733 C 995.246 -0.0105743 -1.60797 0
M  V30 10734 O 996.436 -0.252699 -1.72357 0
M  V30 10735 C 993.568 -0.605536 -3.35479 0
M  V30 10736 H 994.761 -2.01459 -2.22158 0
M  V30 10737 H 992.314 -1.07744 -1.1323 0
M  V30 10738 H 993.049 0.354154 -3.2236 0
M  V30 10739 H 992.834 -1.36134 -3.67709 0
M  V30 10740 H 994.324 -0.489867 -4.14717 0
M  V30 10741 N 994.761 1.15782 -1.06922 0
M  V30 10742 C 996.038 1.8253 -0.703 0
M  V30 10743 C 996.418 1.94733 0.814994 0
M  V30 10744 O 995.766 1.49537 1.72774 0
M  V30 10745 C 995.976 3.19145 -1.41234 0
M  V30 10746 C 997.324 3.94839 -1.56164 0
M  V30 10747 O 998.348 3.28685 -1.37277 0
M  V30 10748 O 997.207 5.13436 -1.87205 0
M  V30 10749 H 994.301 0.788425 -0.24963 0
M  V30 10750 H 996.847 1.22931 -1.16988 0
M  V30 10751 H 995.619 3.05336 -2.44715 0
M  V30 10752 H 995.242 3.86427 -0.935959 0
M  V30 10753 N 996.239 0.8527 1.3254 0
M  V30 10754 C 997.516 0.376491 1.91942 0
M  V30 10755 C 997.896 -1.13972 1.7769 0
M  V30 10756 O 997.244 -1.96047 1.17379 0
M  V30 10757 C 997.454 0.838694 3.38773 0
M  V30 10758 C 998.802 0.854736 4.15908 0
M  V30 10759 O 999.826 0.783203 3.47483 0
M  V30 10760 O 998.685 0.955207 5.38087 0
M  V30 10761 H 995.779 0.109412 0.81973 0
M  V30 10762 H 998.325 0.93947 1.41322 0
M  V30 10763 H 997.097 1.88179 3.43081 0
M  V30 10764 H 996.72 0.253055 3.96794 0
M  V30 10765 N 997.718 -1.45297 0.610449 0
M  V30 10766 C 998.648 -2.33311 -0.0939698 0
M  V30 10767 C 999.629 -1.46999 -0.85588 0
M  V30 10768 O 1000.81 -1.75764 -0.825865 0
M  V30 10769 C 997.944 -3.29751 -1.09003 0
M  V30 10770 C 996.898 -4.2572 -0.441146 0
M  V30 10771 C 996.224 -5.11873 -1.54566 0
M  V30 10772 C 997.524 -5.1837 0.639489 0
M  V30 10773 H 999.218 -2.92459 0.640941 0
M  V30 10774 H 996.764 -1.40631 0.309675 0
M  V30 10775 H 998.717 -3.90195 -1.59141 0
M  V30 10776 H 997.441 -2.68768 -1.85557 0
M  V30 10777 H 996.1 -3.66579 0.0393908 0
M  V30 10778 H 995.748 -4.47256 -2.30155 0
M  V30 10779 H 995.448 -5.76886 -1.11698 0
M  V30 10780 H 996.972 -5.75185 -2.04925 0
M  V30 10781 H 998.386 -5.7287 0.22207 0
M  V30 10782 H 996.783 -5.91876 0.990089 0
M  V30 10783 H 997.853 -4.60627 1.51495 0
M  V30 10784 N 999.196 -0.349774 -1.5367 0
M  V30 10785 C 1000.16 0.491676 -2.23864 0
M  V30 10786 C 1001.16 1.02256 -1.24098 0
M  V30 10787 O 1002.35 0.910816 -1.48492 0
M  V30 10788 C 999.481 1.68557 -2.96313 0
M  V30 10789 H 1000.67 -0.12233 -2.9965 0
M  V30 10790 H 998.227 -0.101214 -1.55972 0
M  V30 10791 H 998.962 2.3381 -2.2473 0
M  V30 10792 H 998.747 1.31203 -3.69497 0
M  V30 10793 H 1000.24 2.28225 -3.49718 0
M  V30 10794 N 1000.67 1.57404 -0.0785433 0
M  V30 10795 C 1001.62 2.13104 0.88631 0
M  V30 10796 C 1002.59 1.04527 1.29086 0
M  V30 10797 O 1003.78 1.32226 1.37553 0
M  V30 10798 C 1000.92 2.70252 2.14611 0
M  V30 10799 C 1000.03 3.93007 1.79358 0
M  V30 10800 C 999.164 4.38376 3 0
M  V30 10801 C 998.203 5.53761 2.60796 0
M  V30 10802 N 997.34 5.94058 3.74219 0
M  V30 10803 H 1002.18 2.95243 0.404452 0
M  V30 10804 H 999.717 1.45894 0.187982 0
M  V30 10805 H 1001.67 3.01497 2.88367 0
M  V30 10806 H 1000.3 1.90868 2.60326 0
M  V30 10807 H 999.357 3.68181 0.956384 0
M  V30 10808 H 1000.67 4.76795 1.4652 0
M  V30 10809 H 999.823 4.71317 3.82027 0
M  V30 10810 H 998.562 3.53455 3.36037 0
M  V30 10811 H 997.567 5.20464 1.77192 0
M  V30 10812 H 998.792 6.40419 2.25922 0
M  V30 10813 H 996.738 5.12085 4.10005 0
M  V30 10814 H 996.655 6.72602 3.45171 0
M  V30 10815 H 997.923 6.31624 4.56805 0
M  V30 10816 N 1002.15 -0.195058 1.56388 0
M  V30 10817 C 1003.08 -1.26581 1.91076 0
M  V30 10818 C 1004.1 -1.41707 0.801436 0
M  V30 10819 O 1005.29 -1.42132 1.07985 0
M  V30 10820 C 1002.39 -2.63794 2.12758 0
M  V30 10821 C 1001.56 -2.70275 3.43904 0
M  V30 10822 C 1000.62 -3.88685 3.54698 0
M  V30 10823 O 999.644 -3.75786 4.2752 0
M  V30 10824 N 1000.85 -5.04141 2.87789 0
M  V30 10825 H 1003.61 -0.971401 2.83521 0
M  V30 10826 H 1001.17 -0.384976 1.57256 0
M  V30 10827 H 1003.16 -3.41434 2.17267 0
M  V30 10828 H 1001.73 -2.85723 1.26812 0
M  V30 10829 H 1000.95 -1.78909 3.51262 0
M  V30 10830 H 1002.24 -2.71597 4.30247 0
M  V30 10831 H 1001.64 -5.17519 2.28452 0
M  V30 10832 H 1000.2 -5.79727 2.97925 0
M  V30 10833 N 1003.63 -1.50653 -0.462772 0
M  V30 10834 C 1004.86 -1.65826 -1.23731 0
M  V30 10835 C 1005.27 -0.345002 -1.85621 0
M  V30 10836 O 1004.63 0.673935 -1.69601 0
M  V30 10837 C 1004.68 -2.7555 -2.33997 0
M  V30 10838 O 1004.4 -4.01785 -1.74643 0
M  V30 10839 C 1005.9 -3.0177 -3.2473 0
M  V30 10840 H 1003.12 -0.557177 -0.373892 0
M  V30 10841 H 1005.67 -1.96925 -0.551434 0
M  V30 10842 H 1003.82 -2.47122 -2.98345 0
M  V30 10843 H 1004.24 -4.62529 -2.4732 0
M  V30 10844 H 1005.71 -3.82188 -3.98292 0
M  V30 10845 H 1006.19 -2.13167 -3.84001 0
M  V30 10846 H 1006.79 -3.31761 -2.66111 0
M  V30 10847 N 1005.11 0.71652 -1.4037 0
M  V30 10848 C 1006.06 1.8306 -1.40562 0
M  V30 10849 C 1007.03 1.64009 -0.262697 0
M  V30 10850 O 1008.21 1.85157 -0.460619 0
M  V30 10851 C 1005.35 3.2076 -1.27307 0
M  V30 10852 C 1004.46 3.51389 -2.51296 0
M  V30 10853 C 1003.6 4.78589 -2.30491 0
M  V30 10854 C 1002.64 5.02119 -3.50061 0
M  V30 10855 N 1001.77 6.20533 -3.28457 0
M  V30 10856 H 1006.61 1.82231 -2.35788 0
M  V30 10857 H 1004.15 0.890198 -1.17106 0
M  V30 10858 H 1006.11 4.00274 -1.17628 0
M  V30 10859 H 1004.74 3.2082 -0.357005 0
M  V30 10860 H 1003.79 2.66436 -2.71507 0
M  V30 10861 H 1005.1 3.64686 -3.40302 0
M  V30 10862 H 1004.26 5.66119 -2.1816 0
M  V30 10863 H 1003 4.67499 -1.38909 0
M  V30 10864 H 1002 4.13044 -3.6287 0
M  V30 10865 H 1003.23 5.15082 -4.42569 0
M  V30 10866 H 1001.17 6.10695 -2.39556 0
M  V30 10867 H 1001.09 6.34502 -4.11027 0
M  V30 10868 H 1002.36 7.10853 -3.19857 0
M  V30 10869 N 1006.59 1.25851 0.948643 0
M  V30 10870 C 1007.84 1.10347 1.68838 0
M  V30 10871 C 1008.15 -0.354262 1.92365 0
M  V30 10872 O 1009.35 -0.629847 2.64093 0
M  V30 10873 C 1007.81 1.92659 3.03991 0
M  V30 10874 C 1007.42 3.42962 2.88238 0
M  V30 10875 C 1009.16 1.85743 3.81707 0
M  V30 10876 C 1007.07 4.17547 4.18818 0
M  V30 10877 H 1006 0.409342 0.63321 0
M  V30 10878 H 1008.65 1.50098 1.05559 0
M  V30 10879 H 1007.03 1.45736 3.68208 0
M  V30 10880 H 1008.21 3.97601 2.32917 0
M  V30 10881 H 1006.52 3.51035 2.23972 0
M  V30 10882 H 1009.12 2.38758 4.78434 0
M  V30 10883 H 1009.46 0.826568 4.08012 0
M  V30 10884 H 1009.99 2.30449 3.2425 0
M  V30 10885 H 1006.73 5.21072 3.97699 0
M  V30 10886 H 1006.25 3.6769 4.73882 0
M  V30 10887 H 1007.93 4.25589 4.87322 0
M  V30 10888 N 1008.06 -1.15214 1.07534 0
M  V30 10889 C 1008.97 -2.23636 0.708818 0
M  V30 10890 C 1009.99 -1.7172 -0.280759 0
M  V30 10891 O 1011.17 -2.01 -0.126927 0
M  V30 10892 C 1008.23 -3.46512 0.114167 0
M  V30 10893 C 1007.29 -4.13409 1.15722 0
M  V30 10894 C 1006.53 -5.30419 0.59085 0
M  V30 10895 O 1006.75 -5.67314 -0.592512 0
M  V30 10896 O 1005.68 -5.86871 1.33663 0
M  V30 10897 H 1009.51 -2.57322 1.61305 0
M  V30 10898 H 1007.09 -1.22972 0.848422 0
M  V30 10899 H 1008.98 -4.20851 -0.215091 0
M  V30 10900 H 1007.65 -3.1457 -0.763356 0
M  V30 10901 H 1006.56 -3.40984 1.53886 0
M  V30 10902 H 1007.89 -4.49435 2.00671 0
M  V30 10903 N 1009.54 -0.859717 -1.32086 0
M  V30 10904 C 1010.77 -0.479028 -2.0097 0
M  V30 10905 C 1011.18 0.930242 -1.64752 0
M  V30 10906 O 1010.52 1.6193 -0.867437 0
M  V30 10907 C 1010.59 -0.54431 -3.55355 0
M  V30 10908 C 1010.25 -1.91337 -4.15017 0
M  V30 10909 C 1011.25 -2.87951 -4.32874 0
M  V30 10910 C 1008.93 -2.21189 -4.50977 0
M  V30 10911 C 1010.93 -4.12567 -4.85867 0
M  V30 10912 C 1008.61 -3.46057 -5.03674 0
M  V30 10913 C 1009.61 -4.41562 -5.21068 0
M  V30 10914 O 1009.3 -5.64218 -5.72637 0
M  V30 10915 H 1009.03 -0.186161 -0.649861 0
M  V30 10916 H 1011.58 -1.15976 -1.69525 0
M  V30 10917 H 1009.81 0.1933 -3.86217 0
M  V30 10918 H 1011.5 -0.178506 -4.05507 0
M  V30 10919 H 1012.27 -2.66194 -4.05421 0
M  V30 10920 H 1008.15 -1.47635 -4.36721 0
M  V30 10921 H 1011.69 -4.8712 -4.99359 0
M  V30 10922 H 1007.59 -3.67662 -5.30561 0
M  V30 10923 H 1008.36 -5.66246 -5.91023 0
M  V30 10924 N 1011.02 1.44971 -0.618145 0
M  V30 10925 C 1012.27 2.0176 -0.11725 0
M  V30 10926 C 1012.59 1.48773 1.26062 0
M  V30 10927 O 1011.86 0.686152 1.83491 0
M  V30 10928 H 1010.44 0.745909 -0.0403545 0
M  V30 10929 H 1013.1 1.77638 -0.801923 0
M  V30 10930 H 1012.2 3.1201 -0.0750477 0
M  V30 10931 N 1012.5 0.357919 1.53482 0
M  V30 10932 C 1013.46 -0.479797 2.24122 0
M  V30 10933 C 1014.46 -1.01596 1.24639 0
M  V30 10934 O 1015.65 -0.902928 1.48973 0
M  V30 10935 C 1012.78 -1.66983 2.97203 0
M  V30 10936 H 1013.98 0.138219 2.99581 0
M  V30 10937 H 1011.53 0.109484 1.55916 0
M  V30 10938 H 1012.26 -2.32615 2.25966 0
M  V30 10939 H 1012.05 -1.29242 3.70188 0
M  V30 10940 H 1013.54 -2.26367 3.50924 0
M  V30 10941 N 1013.98 -1.5736 0.0868897 0
M  V30 10942 C 1015.22 -1.94341 -0.579598 0
M  V30 10943 C 1015.56 -0.968238 -1.68341 0
M  V30 10944 O 1014.83 8.29649e-05 -1.945 0
M  V30 10945 C 1015.11 -3.41497 -1.14245 0
M  V30 10946 C 1014.97 -4.49778 -0.044255 0
M  V30 10947 C 1016.29 -3.89788 -2.04336 0
M  V30 10948 H 1013.4 -0.70668 -0.20922 0
M  V30 10949 H 1016.05 -1.89359 0.15593 0
M  V30 10950 H 1014.2 -3.45873 -1.76929 0
M  V30 10951 H 1015.87 -4.57517 0.58959 0
M  V30 10952 H 1014.11 -4.293 0.623207 0
M  V30 10953 H 1014.78 -5.4992 -0.478749 0
M  V30 10954 H 1017.26 -3.87513 -1.51569 0
M  V30 10955 H 1016.13 -4.93335 -2.40648 0
M  V30 10956 H 1016.4 -3.28603 -2.95757 0
M  V30 10957 N 1015.45 0.186762 -1.56489 0
M  V30 10958 C 1016.4 1.23141 -1.95205 0
M  V30 10959 C 1017.37 1.44799 -0.81378 0
M  V30 10960 O 1018.56 1.57795 -1.07263 0
M  V30 10961 C 1015.7 2.56926 -2.30397 0
M  V30 10962 C 1014.81 2.42777 -3.57328 0
M  V30 10963 C 1013.94 3.69323 -3.81804 0
M  V30 10964 C 1012.98 3.50041 -5.02133 0
M  V30 10965 N 1012.12 4.68619 -5.2282 0
M  V30 10966 H 1016.96 0.894256 -2.84266 0
M  V30 10967 H 1014.5 0.430187 -1.40669 0
M  V30 10968 H 1016.46 3.3488 -2.4882 0
M  V30 10969 H 1015.09 2.88668 -1.44466 0
M  V30 10970 H 1014.14 1.56078 -3.46906 0
M  V30 10971 H 1015.45 2.24468 -4.45439 0
M  V30 10972 H 1014.6 4.55715 -4.00511 0
M  V30 10973 H 1013.34 3.90595 -2.92039 0
M  V30 10974 H 1012.35 2.62034 -4.8334 0
M  V30 10975 H 1013.57 3.30206 -5.93414 0
M  V30 10976 H 1011.52 4.90139 -4.36005 0
M  V30 10977 H 1011.44 4.53165 -6.05126 0
M  V30 10978 H 1012.7 5.56338 -5.45993 0
M  V30 10979 N 1016.93 1.50896 0.454776 0
M  V30 10980 C 1018.21 1.53227 1.21576 0
M  V30 10981 C 1018.59 0.286358 2.09149 0
M  V30 10982 O 1017.94 -0.729469 2.16543 0
M  V30 10983 C 1018.15 2.83693 2.03271 0
M  V30 10984 C 1019.5 3.34981 2.60908 0
M  V30 10985 O 1020.52 2.85126 2.13499 0
M  V30 10986 O 1019.38 4.21929 3.4733 0
M  V30 10987 H 1016.47 0.615306 0.552564 0
M  V30 10988 H 1019.02 1.63197 0.465266 0
M  V30 10989 H 1017.79 3.65839 1.38843 0
M  V30 10990 H 1017.41 2.76803 2.85422 0
M  V30 10991 N 1018.41 -0.709066 1.40748 0
M  V30 10992 C 1019.66 -1.46611 1.39103 0
M  V30 10993 C 1019.98 -1.95 -0.00365366 0
M  V30 10994 O 1019.25 -1.70791 -0.959541 0
M  V30 10995 H 1017.83 -0.543954 0.511979 0
M  V30 10996 H 1020.49 -0.840141 1.75863 0
M  V30 10997 H 1019.59 -2.33581 2.06994 0
M  V30 10998 N 1019.89 -1.26353 -0.941956 0
M  V30 10999 C 1020.85 -1.07904 -2.02211 0
M  V30 11000 C 1021.85 -0.0276283 -1.60776 0
M  V30 11001 O 1023.04 -0.270965 -1.7208 0
M  V30 11002 C 1020.17 -0.641084 -3.34818 0
M  V30 11003 H 1021.37 -2.03804 -2.20009 0
M  V30 11004 H 1018.92 -1.08939 -1.12081 0
M  V30 11005 H 1019.66 0.319943 -3.22718 0
M  V30 11006 H 1019.44 -1.40027 -3.66244 0
M  V30 11007 H 1020.93 -0.533826 -4.14174 0
M  V30 11008 N 1021.37 1.14642 -1.08144 0
M  V30 11009 C 1022.6 1.89484 -0.830864 0
M  V30 11010 C 1023.01 1.78443 0.616722 0
M  V30 11011 O 1022.37 1.14191 1.42361 0
M  V30 11012 C 1022.42 3.39554 -1.24039 0
M  V30 11013 O 1022.14 3.50286 -2.63119 0
M  V30 11014 C 1023.64 4.31399 -1.02029 0
M  V30 11015 H 1020.86 0.600283 -0.299835 0
M  V30 11016 H 1023.4 1.45204 -1.44001 0
M  V30 11017 H 1021.56 3.81467 -0.675407 0
M  V30 11018 H 1021.97 4.43481 -2.80045 0
M  V30 11019 H 1023.45 5.35079 -1.35625 0
M  V30 11020 H 1023.92 4.39179 0.0428697 0
M  V30 11021 H 1024.53 3.95238 -1.57057 0
M  V30 11022 N 1022.85 0.866709 1.31628 0
M  V30 11023 C 1023.78 0.264788 2.26659 0
M  V30 11024 C 1024.76 -0.604181 1.50958 0
M  V30 11025 O 1025.94 -0.558324 1.80042 0
M  V30 11026 C 1023.07 -0.625373 3.32877 0
M  V30 11027 C 1022.11 0.171813 4.26154 0
M  V30 11028 S 1022.95 1.54818 5.12632 0
M  V30 11029 C 1024.1 0.66405 6.22367 0
M  V30 11030 H 1024.34 1.07036 2.77364 0
M  V30 11031 H 1021.87 0.665038 1.39343 0
M  V30 11032 H 1023.83 -1.13327 3.94547 0
M  V30 11033 H 1022.49 -1.40486 2.80932 0
M  V30 11034 H 1021.68 -0.506694 5.01447 0
M  V30 11035 H 1021.28 0.611704 3.68964 0
M  V30 11036 H 1023.57 -0.126717 6.77381 0
M  V30 11037 H 1024.52 1.388 6.94363 0
M  V30 11038 H 1024.93 0.233046 5.64019 0
M  V30 11039 N 1024.32 -1.44642 0.625825 0
M  V30 11040 C 1025.55 -2.06458 0.135116 0
M  V30 11041 C 1025.97 -1.46729 -1.18811 0
M  V30 11042 O 1025.32 -0.58818 -1.72762 0
M  V30 11043 C 1025.37 -3.61499 0.00850114 0
M  V30 11044 O 1025.1 -4.19002 1.2794 0
M  V30 11045 C 1026.6 -4.40339 -0.511527 0
M  V30 11046 H 1023.82 -0.666541 0.0772294 0
M  V30 11047 H 1026.36 -1.85597 0.858726 0
M  V30 11048 H 1024.52 -3.81641 -0.665522 0
M  V30 11049 H 1024.93 -5.12385 1.12081 0
M  V30 11050 H 1026.4 -5.49262 -0.549149 0
M  V30 11051 H 1026.88 -4.11409 -1.53752 0
M  V30 11052 H 1027.49 -4.25104 0.129066 0
M  V30 11053 N 1025.8 -0.366053 -1.5329 0
M  V30 11054 C 1027.05 0.223493 -2.01263 0
M  V30 11055 C 1027.38 1.48736 -1.25331 0
M  V30 11056 O 1026.63 1.92805 -0.335341 0
M  V30 11057 C 1026.93 0.560906 -3.52971 0
M  V30 11058 C 1026.6 -0.60869 -4.46773 0
M  V30 11059 C 1025.26 -0.929609 -4.72135 0
M  V30 11060 C 1027.61 -1.39225 -5.02261 0
M  V30 11061 C 1024.94 -2.03606 -5.50238 0
M  V30 11062 C 1027.29 -2.48912 -5.81572 0
M  V30 11063 C 1025.95 -2.81538 -6.05221 0
M  V30 11064 H 1025.22 0.0817818 -0.736473 0
M  V30 11065 H 1027.87 -0.498613 -1.84895 0
M  V30 11066 H 1026.18 1.36403 -3.67289 0
M  V30 11067 H 1027.87 1.02931 -3.87564 0
M  V30 11068 H 1024.46 -0.348529 -4.27181 0
M  V30 11069 H 1028.65 -1.15757 -4.82612 0
M  V30 11070 H 1023.9 -2.29281 -5.6678 0
M  V30 11071 H 1028.08 -3.10044 -6.23575 0
M  V30 11072 H 1025.7 -3.67396 -6.65525 0
M  V30 11073 N 1027.28 1.57312 -0.0952337 0
M  V30 11074 C 1028.53 1.94358 0.568442 0
M  V30 11075 C 1028.85 0.97698 1.68182 0
M  V30 11076 O 1028.11 -0.00340398 1.957 0
M  V30 11077 C 1028.41 3.37937 1.16332 0
M  V30 11078 C 1028.07 4.50565 0.173715 0
M  V30 11079 C 1026.74 4.81099 -0.0984673 0
M  V30 11080 C 1029.09 5.18777 -0.501992 0
M  V30 11081 C 1026.42 5.77172 -1.05305 0
M  V30 11082 C 1028.77 6.15874 -1.44505 0
M  V30 11083 C 1027.43 6.44813 -1.72546 0
M  V30 11084 H 1026.7 0.711206 0.208007 0
M  V30 11085 H 1029.35 1.90734 -0.171096 0
M  V30 11086 H 1027.65 3.3814 1.97911 0
M  V30 11087 H 1029.35 3.63902 1.68453 0
M  V30 11088 H 1025.94 4.26766 0.396042 0
M  V30 11089 H 1030.13 4.95363 -0.304855 0
M  V30 11090 H 1025.38 5.97909 -1.2773 0
M  V30 11091 H 1029.56 6.67824 -1.97444 0
M  V30 11092 H 1027.18 7.19067 -2.46671 0
M  V30 11093 N 1028.76 -0.17846 1.56586 0
M  V30 11094 C 1029.7 -1.22104 1.95855 0
M  V30 11095 C 1030.67 -1.44366 0.821447 0
M  V30 11096 O 1031.86 -1.57224 1.08098 0
M  V30 11097 C 1029 -2.55701 2.31757 0
M  V30 11098 C 1028.11 -2.40879 3.5861 0
M  V30 11099 C 1027.25 -3.67293 3.83757 0
M  V30 11100 C 1026.29 -3.47373 5.03982 0
M  V30 11101 N 1025.42 -4.65839 5.25298 0
M  V30 11102 H 1030.26 -0.879168 2.84736 0
M  V30 11103 H 1027.8 -0.422721 1.40895 0
M  V30 11104 H 1029.76 -3.33556 2.50592 0
M  V30 11105 H 1028.39 -2.87898 1.45995 0
M  V30 11106 H 1027.44 -1.54236 3.47729 0
M  V30 11107 H 1028.75 -2.22102 4.46623 0
M  V30 11108 H 1027.91 -4.53584 4.02922 0
M  V30 11109 H 1026.65 -3.89041 2.94107 0
M  V30 11110 H 1025.65 -2.59467 4.84723 0
M  V30 11111 H 1026.88 -3.27055 5.95157 0
M  V30 11112 H 1024.82 -4.8782 4.38598 0
M  V30 11113 H 1024.74 -4.4995 6.0752 0
M  V30 11114 H 1026.01 -5.53435 5.48936 0
M  V30 11115 N 1030.24 -1.51135 -0.446768 0
M  V30 11116 C 1031.18 -1.71767 -1.54158 0
M  V30 11117 C 1032.15 -0.559201 -1.56404 0
M  V30 11118 O 1033.34 -0.792567 -1.7356 0
M  V30 11119 C 1030.48 -1.84006 -2.91952 0
M  V30 11120 C 1029.59 -3.11511 -2.99308 0
M  V30 11121 C 1028.73 -3.144 -4.28166 0
M  V30 11122 C 1027.76 -4.36258 -4.29355 0
M  V30 11123 N 1026.9 -4.3675 -5.49722 0
M  V30 11124 H 1031.74 -2.65224 -1.35869 0
M  V30 11125 H 1029.28 -1.31453 -0.660186 0
M  V30 11126 H 1031.24 -1.89083 -3.71892 0
M  V30 11127 H 1029.87 -0.939661 -3.08821 0
M  V30 11128 H 1028.92 -3.15788 -2.12089 0
M  V30 11129 H 1030.23 -4.01445 -2.96047 0
M  V30 11130 H 1029.38 -3.18341 -5.16473 0
M  V30 11131 H 1028.12 -2.22338 -4.3407 0
M  V30 11132 H 1027.13 -4.32503 -3.39442 0
M  V30 11133 H 1028.35 -5.29574 -4.25122 0
M  V30 11134 H 1026.3 -3.47554 -5.56365 0
M  V30 11135 H 1026.22 -5.20481 -5.48302 0
M  V30 11136 H 1027.48 -4.4487 -6.40086 0
M  V30 11137 N 1031.71 0.701592 -1.41122 0
M  V30 11138 C 1032.94 1.49553 -1.43696 0
M  V30 11139 C 1033.36 1.88053 -0.0421865 0
M  V30 11140 O 1032.72 1.54223 0.953144 0
M  V30 11141 C 1032.77 2.73834 -2.34622 0
M  V30 11142 O 1031.87 3.71088 -1.7991 0
M  V30 11143 H 1031.21 0.450352 -0.487933 0
M  V30 11144 H 1033.74 0.862886 -1.85514 0
M  V30 11145 H 1033.75 3.22209 -2.5029 0
M  V30 11146 H 1032.43 2.45149 -3.35969 0
M  V30 11147 H 1031.01 3.29994 -1.73661 0
M  V30 11148 N 1033.19 1.2685 0.935242 0
M  V30 11149 C 1034.14 1.08923 2.03481 0
M  V30 11150 C 1035.11 -0.00749786 1.66098 0
M  V30 11151 O 1036.29 0.153401 1.90182 0
M  V30 11152 C 1033.43 0.734529 3.37192 0
M  V30 11153 C 1032.55 1.90812 3.87576 0
M  V30 11154 C 1031.68 1.49599 5.097 0
M  V30 11155 C 1030.72 2.63752 5.5236 0
M  V30 11156 N 1029.86 2.23179 6.65684 0
M  V30 11157 H 1034.7 2.03016 2.18148 0
M  V30 11158 H 1032.23 1.01072 1.06878 0
M  V30 11159 H 1034.19 0.509734 4.14074 0
M  V30 11160 H 1032.82 -0.169438 3.22355 0
M  V30 11161 H 1031.87 2.24567 3.0704 0
M  V30 11162 H 1033.19 2.7647 4.1517 0
M  V30 11163 H 1032.34 1.23199 5.9406 0
M  V30 11164 H 1031.08 0.61039 4.83865 0
M  V30 11165 H 1030.08 2.90874 4.66554 0
M  V30 11166 H 1031.31 3.5292 5.80193 0
M  V30 11167 H 1029.26 1.37061 6.41522 0
M  V30 11168 H 1029.17 3.02379 6.92895 0
M  V30 11169 H 1030.44 2.00007 7.53404 0
M  V30 11170 N 1034.67 -1.14067 1.0875 0
M  V30 11171 C 1035.92 -1.84535 0.814235 0
M  V30 11172 C 1036.23 -1.84044 -0.662355 0
M  V30 11173 O 1037.44 -2.50336 -1.05091 0
M  V30 11174 C 1035.89 -3.31273 1.40663 0
M  V30 11175 C 1035.5 -3.40171 2.91526 0
M  V30 11176 C 1037.25 -4.0683 1.21201 0
M  V30 11177 C 1035.15 -4.81141 3.43885 0
M  V30 11178 H 1034.08 -0.691346 0.300926 0
M  V30 11179 H 1036.73 -1.28562 1.30935 0
M  V30 11180 H 1035.12 -3.87005 0.839215 0
M  V30 11181 H 1036.29 -2.94471 3.54434 0
M  V30 11182 H 1034.61 -2.78073 3.09942 0
M  V30 11183 H 1037.2 -5.10891 1.57781 0
M  V30 11184 H 1037.55 -4.16022 0.152092 0
M  V30 11185 H 1038.08 -3.57408 1.74655 0
M  V30 11186 H 1034.82 -4.77138 4.49466 0
M  V30 11187 H 1034.34 -5.27365 2.85738 0
M  V30 11188 H 1036.02 -5.50042 3.40681 0
M  V30 11189 N 1036.15 -0.873678 -1.31166 0
M  V30 11190 C 1037.37 -0.500242 -2.01277 0
M  V30 11191 C 1037.8 0.900811 -1.65127 0
M  V30 11192 O 1037.16 1.59504 -0.861862 0
M  V30 11193 C 1037.2 -0.668976 -3.5434 0
M  V30 11194 O 1036.31 0.290096 -4.11378 0
M  V30 11195 H 1035.65 -0.198507 -0.633633 0
M  V30 11196 H 1038.18 -1.17811 -1.67277 0
M  V30 11197 H 1038.19 -0.563673 -4.04088 0
M  V30 11198 H 1036.86 -1.69055 -3.79991 0
M  V30 11199 H 1035.44 0.139437 -3.72639 0
M  V30 11200 N 1037.63 1.44308 -0.633487 0
M  V30 11201 C 1038.85 2.06384 -0.146063 0
M  V30 11202 C 1039.27 1.47357 1.18031 0
M  V30 11203 O 1038.63 0.597334 1.72448 0
M  V30 11204 C 1038.68 3.61489 -0.0276722 0
M  V30 11205 O 1038.4 4.18318 -1.3016 0
M  V30 11206 C 1039.9 4.40604 0.488168 0
M  V30 11207 H 1037.12 0.666122 -0.0807632 0
M  V30 11208 H 1039.66 1.85139 -0.868557 0
M  V30 11209 H 1037.82 3.81988 0.645273 0
M  V30 11210 H 1038.23 5.11783 -1.14797 0
M  V30 11211 H 1039.71 5.49545 0.520013 0
M  V30 11212 H 1040.18 4.12218 1.51568 0
M  V30 11213 H 1040.79 4.2503 -0.151608 0
M  V30 11214 N 1039.1 0.374177 1.53094 0
M  V30 11215 C 1040.35 -0.212816 2.01379 0
M  V30 11216 C 1040.68 -1.48069 1.26118 0
M  V30 11217 O 1039.93 -1.92625 0.345561 0
M  V30 11218 C 1040.23 -0.542179 3.53264 0
M  V30 11219 C 1039.9 0.632375 4.46444 0
M  V30 11220 C 1038.56 0.954635 4.71636 0
M  V30 11221 C 1040.91 1.41887 5.01515 0
M  V30 11222 C 1038.24 2.06521 5.4915 0
M  V30 11223 C 1040.59 2.51993 5.80243 0
M  V30 11224 C 1039.26 2.84744 6.03719 0
M  V30 11225 H 1038.53 -0.0778749 0.736897 0
M  V30 11226 H 1041.17 0.508412 1.84628 0
M  V30 11227 H 1039.48 -1.34454 3.68007 0
M  V30 11228 H 1041.18 -1.00874 3.88105 0
M  V30 11229 H 1037.77 0.371179 4.2699 0
M  V30 11230 H 1041.95 1.18315 4.81991 0
M  V30 11231 H 1037.21 2.32284 5.65557 0
M  V30 11232 H 1041.38 3.13346 6.21922 0
M  V30 11233 H 1039.01 3.70921 6.63568 0
M  V30 11234 N 1040.58 -1.57259 0.103575 0
M  V30 11235 C 1041.49 -2.18018 -0.866327 0
M  V30 11236 C 1042.51 -1.15198 -1.30404 0
M  V30 11237 O 1043.68 -1.47605 -1.37021 0
M  V30 11238 C 1040.75 -2.75533 -2.10434 0
M  V30 11239 C 1039.81 -3.93337 -1.72002 0
M  V30 11240 C 1039.04 -4.481 -2.89901 0
M  V30 11241 O 1039.27 -4.01784 -4.04877 0
M  V30 11242 O 1038.2 -5.39004 -2.67877 0
M  V30 11243 H 1042.03 -3.01322 -0.379338 0
M  V30 11244 H 1039.61 -1.48907 -0.121228 0
M  V30 11245 H 1041.49 -3.12259 -2.8297 0
M  V30 11246 H 1040.17 -1.9527 -2.58169 0
M  V30 11247 H 1039.08 -3.61408 -0.966193 0
M  V30 11248 H 1040.41 -4.74989 -1.29022 0
M  V30 11249 N 1042.06 0.170153 -1.56679 0
M  V30 11250 C 1043.01 1.21064 -1.965 0
M  V30 11251 C 1043.98 1.43928 -0.829092 0
M  V30 11252 O 1045.16 1.56649 -1.08931 0
M  V30 11253 C 1042.3 2.54468 -2.33109 0
M  V30 11254 C 1041.42 2.38974 -3.59883 0
M  V30 11255 C 1040.55 3.65252 -3.857 0
M  V30 11256 C 1039.59 3.44696 -5.05817 0
M  V30 11257 N 1038.73 4.63047 -5.27761 0
M  V30 11258 H 1043.57 0.864055 -2.85198 0
M  V30 11259 H 1041.1 0.415243 -1.41117 0
M  V30 11260 H 1043.06 3.32222 -2.52358 0
M  V30 11261 H 1041.69 2.8712 -1.4752 0
M  V30 11262 H 1040.74 1.5239 -3.48542 0
M  V30 11263 H 1042.06 2.19731 -4.47794 0
M  V30 11264 H 1041.21 4.51441 -4.05322 0
M  V30 11265 H 1039.95 3.87475 -2.96166 0
M  V30 11266 H 1038.95 2.56893 -4.86092 0
M  V30 11267 H 1040.18 3.23894 -5.96883 0
M  V30 11268 H 1038.12 4.85487 -4.41179 0
M  V30 11269 H 1038.04 4.46722 -6.09898 0
M  V30 11270 H 1039.31 5.50516 -5.51863 0
M  V30 11271 N 1043.54 1.5137 0.438746 0
M  V30 11272 C 1044.47 1.67264 1.55236 0
M  V30 11273 C 1045.45 0.520238 1.54053 0
M  V30 11274 O 1046.63 0.743897 1.73201 0
M  V30 11275 C 1043.76 1.68492 2.93816 0
M  V30 11276 C 1042.81 2.8968 3.1303 0
M  V30 11277 S 1043.64 4.50514 2.89478 0
M  V30 11278 C 1044.8 4.54485 4.30342 0
M  V30 11279 H 1045.03 2.61456 1.4152 0
M  V30 11280 H 1042.56 1.41036 0.628341 0
M  V30 11281 H 1044.52 1.69884 3.73697 0
M  V30 11282 H 1043.18 0.754787 3.04896 0
M  V30 11283 H 1042.37 2.86936 4.14347 0
M  V30 11284 H 1041.98 2.86022 2.40972 0
M  V30 11285 H 1044.27 4.30039 5.2352 0
M  V30 11286 H 1045.21 5.56288 4.3812 0
M  V30 11287 H 1045.62 3.83824 4.13931 0
M  V30 11288 N 1045.02 -0.694098 1.41492 0
M  V30 11289 C 1046.26 -1.45493 1.42138 0
M  V30 11290 C 1046.62 -1.92376 0.0302688 0
M  V30 11291 O 1045.91 -1.66723 -0.944142 0
M  V30 11292 C 1046.1 -2.6805 2.36398 0
M  V30 11293 C 1045.93 -2.33157 3.84536 0
M  V30 11294 C 1044.7 -2.2345 4.53209 0
M  V30 11295 C 1046.9 -1.96037 4.75473 0
M  V30 11296 N 1044.88 -1.81457 5.8647 0
M  V30 11297 C 1046.25 -1.64814 5.97693 0
M  V30 11298 C 1048.31 -1.8286 4.63106 0
M  V30 11299 C 1047.01 -1.21738 7.08923 0
M  V30 11300 C 1049.04 -1.41188 5.74299 0
M  V30 11301 C 1048.4 -1.10877 6.95619 0
M  V30 11302 H 1044.5 -0.529635 0.575335 0
M  V30 11303 H 1047.08 -0.802901 1.77374 0
M  V30 11304 H 1045.25 -3.30972 2.03254 0
M  V30 11305 H 1046.99 -3.34531 2.27753 0
M  V30 11306 H 1043.74 -2.41894 4.07166 0
M  V30 11307 H 1044.17 -1.62938 6.571 0
M  V30 11308 H 1048.81 -2.04947 3.69806 0
M  V30 11309 H 1046.53 -0.983947 8.02087 0
M  V30 11310 H 1050.11 -1.3154 5.66735 0
M  V30 11311 H 1048.99 -0.791191 7.80199 0
M  V30 11312 N 1046.49 -1.27344 -0.928501 0
M  V30 11313 C 1047.46 -1.10043 -2.01055 0
M  V30 11314 C 1048.46 -0.0446793 -1.60738 0
M  V30 11315 O 1049.65 -0.289202 -1.71783 0
M  V30 11316 C 1046.78 -0.676559 -3.34119 0
M  V30 11317 H 1047.97 -2.06126 -2.17835 0
M  V30 11318 H 1045.53 -1.10121 -1.10919 0
M  V30 11319 H 1046.26 0.285697 -3.23039 0
M  V30 11320 H 1046.05 -1.43903 -3.64739 0
M  V30 11321 H 1047.54 -0.577725 -4.13584 0
M  V30 11322 N 1047.97 1.13488 -1.09353 0
M  V30 11323 C 1049.22 1.84748 -0.829126 0
M  V30 11324 C 1049.55 1.83485 0.645247 0
M  V30 11325 O 1048.8 1.26767 1.49093 0
M  V30 11326 C 1049.1 3.32584 -1.30854 0
M  V30 11327 C 1048.77 3.54028 -2.7924 0
M  V30 11328 C 1047.43 3.59588 -3.19765 0
M  V30 11329 C 1049.78 3.62058 -3.74918 0
M  V30 11330 C 1047.11 3.70712 -4.54741 0
M  V30 11331 C 1049.46 3.7471 -5.09682 0
M  V30 11332 C 1048.13 3.78523 -5.49797 0
M  V30 11333 H 1047.4 0.67604 -0.303399 0
M  V30 11334 H 1050.04 1.33989 -1.36818 0
M  V30 11335 H 1048.35 3.85689 -0.689275 0
M  V30 11336 H 1050.04 3.86166 -1.08059 0
M  V30 11337 H 1046.63 3.50354 -2.4688 0
M  V30 11338 H 1050.82 3.57043 -3.44723 0
M  V30 11339 H 1046.07 3.71931 -4.8526 0
M  V30 11340 H 1050.25 3.79866 -5.83674 0
M  V30 11341 H 1047.88 3.86895 -6.54382 0
M  V30 11342 N 1049.45 0.880621 1.30701 0
M  V30 11343 C 1050.38 0.288813 2.26365 0
M  V30 11344 C 1051.36 -0.588135 1.51591 0
M  V30 11345 O 1052.55 -0.539197 1.80624 0
M  V30 11346 C 1049.67 -0.590032 3.33521 0
M  V30 11347 C 1048.72 0.217003 4.25948 0
M  V30 11348 S 1049.55 1.60246 5.10961 0
M  V30 11349 C 1050.71 0.730023 6.21628 0
M  V30 11350 H 1050.94 1.09971 2.76213 0
M  V30 11351 H 1048.47 0.67978 1.3863 0
M  V30 11352 H 1050.43 -1.09136 3.95727 0
M  V30 11353 H 1049.09 -1.37498 2.82406 0
M  V30 11354 H 1048.29 -0.453481 5.01956 0
M  V30 11355 H 1047.89 0.650803 3.68294 0
M  V30 11356 H 1050.18 -0.0548644 6.77478 0
M  V30 11357 H 1051.12 1.46157 6.92852 0
M  V30 11358 H 1051.53 0.292854 5.6374 0
M  V30 11359 N 1050.93 -1.4397 0.641131 0
M  V30 11360 C 1052.15 -2.06818 0.155318 0
M  V30 11361 C 1052.58 -1.47665 -1.16519 0
M  V30 11362 O 1051.94 -0.58192 -1.71707 0
M  V30 11363 C 1051.99 -3.60542 0.0647537 0
M  V30 11364 O 1051.09 -4.00674 -0.976447 0
M  V30 11365 H 1050.43 -0.657962 0.0893404 0
M  V30 11366 H 1052.96 -1.84678 0.88064 0
M  V30 11367 H 1052.97 -4.07816 -0.122552 0
M  V30 11368 H 1051.65 -4.02975 1.02878 0
M  V30 11369 H 1050.22 -3.65013 -0.762905 0
M  V30 11370 N 1052.41 -0.382291 -1.52893 0
M  V30 11371 C 1053.63 0.204961 -2.06385 0
M  V30 11372 C 1054.06 1.40316 -1.25271 0
M  V30 11373 O 1053.42 1.79187 -0.275969 0
M  V30 11374 C 1053.46 0.560205 -3.56222 0
M  V30 11375 O 1052.57 1.65515 -3.77728 0
M  V30 11376 H 1051.91 0.0258798 -0.663495 0
M  V30 11377 H 1054.44 -0.547733 -1.97132 0
M  V30 11378 H 1054.45 0.826501 -3.99541 0
M  V30 11379 H 1053.12 -0.31584 -4.14699 0
M  V30 11380 H 1051.7 1.38311 -3.46301 0
M  V30 11381 N 1053.89 1.57202 -0.111913 0
M  V30 11382 C 1054.83 2.14936 0.840908 0
M  V30 11383 C 1055.8 1.07242 1.2684 0
M  V30 11384 O 1056.99 1.35114 1.34718 0
M  V30 11385 C 1054.13 2.74743 2.0883 0
M  V30 11386 C 1053.24 3.96723 1.70982 0
M  V30 11387 C 1052.38 4.4464 2.90634 0
M  V30 11388 C 1051.41 5.59169 2.48992 0
M  V30 11389 N 1050.55 6.01862 3.61534 0
M  V30 11390 H 1055.39 2.96034 0.341735 0
M  V30 11391 H 1052.93 1.4626 0.156993 0
M  V30 11392 H 1054.89 3.07546 2.81907 0
M  V30 11393 H 1053.52 1.96346 2.56218 0
M  V30 11394 H 1052.57 3.70127 0.878072 0
M  V30 11395 H 1053.88 4.79795 1.36373 0
M  V30 11396 H 1053.03 4.79315 3.71944 0
M  V30 11397 H 1051.77 3.60503 3.28464 0
M  V30 11398 H 1050.78 5.24106 1.66113 0
M  V30 11399 H 1052 6.45067 2.12287 0
M  V30 11400 H 1049.95 5.20667 3.99051 0
M  V30 11401 H 1049.87 6.79772 3.30827 0
M  V30 11402 H 1051.13 6.41172 4.43305 0
M  V30 11403 N 1055.36 -0.161842 1.56767 0
M  V30 11404 C 1056.77 -0.723385 1.72116 0
M  V30 11405 C 1057.13 -1.82355 0.723961 0
M  V30 11406 O 1056.25 -2.16107 -0.112643 0
M  V30 11407 C 1056.85 -1.31895 3.12072 0
M  V30 11408 C 1055.4 -1.82722 3.29074 0
M  V30 11409 C 1054.55 -0.709863 2.6806 0
M  V30 11410 H 1057.5 0.0636647 1.58572 0
M  V30 11411 H 1057.52 -2.18871 3.11249 0
M  V30 11412 H 1057.04 -0.51801 3.84627 0
M  V30 11413 H 1055.14 -2.6543 2.61491 0
M  V30 11414 H 1055.25 -1.96614 4.36898 0
M  V30 11415 H 1053.61 -1.13273 2.28126 0
M  V30 11416 H 1054.4 0.0793884 3.43208 0
M  V30 11417 N 1056.84 -1.516 -0.430713 0
M  V30 11418 C 1058.07 -1.687 -1.20644 0
M  V30 11419 C 1058.49 -0.386555 -1.84085 0
M  V30 11420 O 1057.85 0.653952 -1.69095 0
M  V30 11421 C 1057.9 -2.80887 -2.2613 0
M  V30 11422 O 1057 -2.44952 -3.31772 0
M  V30 11423 H 1056.34 -0.562289 -0.353167 0
M  V30 11424 H 1058.87 -1.98198 -0.507807 0
M  V30 11425 H 1058.88 -3.05167 -2.70809 0
M  V30 11426 H 1057.56 -3.75249 -1.79334 0
M  V30 11427 H 1056.13 -2.31267 -2.92523 0
M  V30 11428 N 1058.32 0.686584 -1.41858 0
M  V30 11429 C 1059.28 1.78214 -1.44126 0
M  V30 11430 C 1060.28 1.57366 -0.330541 0
M  V30 11431 O 1061.47 1.63874 -0.590837 0
M  V30 11432 C 1058.6 3.16704 -1.26142 0
M  V30 11433 H 1059.8 1.77594 -2.41661 0
M  V30 11434 H 1057.35 0.895085 -1.28132 0
M  V30 11435 H 1058.09 3.22957 -0.294823 0
M  V30 11436 H 1057.87 3.33238 -2.06627 0
M  V30 11437 H 1059.36 3.96658 -1.30584 0
M  V30 11438 N 1059.8 1.27835 0.921735 0
M  V30 11439 C 1060.73 1.136 2.04003 0
M  V30 11440 C 1061.71 0.0358756 1.70062 0
M  V30 11441 O 1062.89 0.211438 1.93046 0
M  V30 11442 C 1060.02 0.788697 3.38226 0
M  V30 11443 C 1058.98 1.84272 3.863 0
M  V30 11444 C 1058.3 1.34923 5.17397 0
M  V30 11445 C 1059.6 3.24788 4.09035 0
M  V30 11446 H 1061.3 2.07149 2.1617 0
M  V30 11447 H 1058.84 0.997349 1.0387 0
M  V30 11448 H 1060.8 0.675911 4.15944 0
M  V30 11449 H 1059.52 -0.182499 3.2609 0
M  V30 11450 H 1058.18 1.94451 3.1078 0
M  V30 11451 H 1057.83 0.367328 5.01657 0
M  V30 11452 H 1057.53 2.05397 5.50532 0
M  V30 11453 H 1059.05 1.24951 5.97678 0
M  V30 11454 H 1060.47 3.17575 4.77304 0
M  V30 11455 H 1058.86 3.93025 4.53488 0
M  V30 11456 H 1059.93 3.69398 3.14122 0
M  V30 11457 N 1061.28 -1.12907 1.09954 0
M  V30 11458 C 1062.52 -1.84579 0.840155 0
M  V30 11459 C 1062.85 -1.83605 -0.632692 0
M  V30 11460 O 1062.13 -1.27803 -1.46617 0
M  V30 11461 C 1062.41 -3.32489 1.38286 0
M  V30 11462 C 1062.27 -3.41946 2.92221 0
M  V30 11463 C 1063.58 -4.28091 1.0211 0
M  V30 11464 H 1060.7 -0.670169 0.306663 0
M  V30 11465 H 1063.35 -1.3249 1.36185 0
M  V30 11466 H 1061.5 -3.76978 0.939123 0
M  V30 11467 H 1063.17 -3.06128 3.45085 0
M  V30 11468 H 1061.41 -2.8265 3.29077 0
M  V30 11469 H 1062.08 -4.45983 3.25274 0
M  V30 11470 H 1064.56 -3.91701 1.4039 0
M  V30 11471 H 1063.43 -5.30005 1.42781 0
M  V30 11472 H 1063.69 -4.42044 -0.0700753 0
M  V30 11473 N 1062.75 -0.88754 -1.30232 0
M  V30 11474 C 1063.7 -0.354497 -2.28061 0
M  V30 11475 C 1064.67 0.556732 -1.56492 0
M  V30 11476 O 1065.86 0.484597 -1.84543 0
M  V30 11477 C 1063 0.422701 -3.42501 0
M  V30 11478 C 1062.11 -0.518036 -4.28883 0
M  V30 11479 C 1061.24 0.275011 -5.30488 0
M  V30 11480 C 1060.28 -0.661032 -6.0852 0
M  V30 11481 N 1059.42 0.0968509 -7.02033 0
M  V30 11482 H 1064.26 -1.19388 -2.73039 0
M  V30 11483 H 1061.8 -0.600091 -1.34303 0
M  V30 11484 H 1063.75 0.889249 -4.07613 0
M  V30 11485 H 1062.38 1.22664 -2.98586 0
M  V30 11486 H 1061.44 -1.10308 -3.64055 0
M  V30 11487 H 1062.75 -1.23504 -4.83268 0
M  V30 11488 H 1061.9 0.803301 -6.01358 0
M  V30 11489 H 1060.64 1.02522 -4.76802 0
M  V30 11490 H 1059.65 -1.20093 -5.36524 0
M  V30 11491 H 1060.87 -1.41037 -6.64293 0
M  V30 11492 H 1058.82 0.829548 -6.50734 0
M  V30 11493 H 1058.73 -0.560476 -7.5392 0
M  V30 11494 H 1060 0.6058 -7.77142 0
M  V30 11495 N 1064.23 1.43628 -0.648757 0
M  V30 11496 C 1065.18 2.32529 0.057536 0
M  V30 11497 C 1066.17 1.48358 0.817699 0
M  V30 11498 O 1067.38 1.64595 0.728605 0
M  V30 11499 H 1063.76 0.75107 0.037388 0
M  V30 11500 H 1065.73 2.89829 -0.710062 0
M  V30 11501 C 1064.48 3.32605 1.01336 0
M  V30 11502 H 1063.8 3.97395 0.437855 0
M  V30 11503 H 1065.24 3.97453 1.47672 0
M  V30 11504 C 1063.7 2.62865 2.10722 0
M  V30 11505 O 1064.23 2.4408 3.19042 0
M  V30 11506 N 1062.43 2.22312 1.87152 0
M  V30 11507 H 1061.98 2.3779 0.990644 0
M  V30 11508 H 1061.94 1.75979 2.60536 0
M  V30 11509 N 1065.71 0.390394 1.52688 0
M  V30 11510 C 1066.66 -0.4591 2.28024 0
M  V30 11511 C 1067.65 -1.06212 1.31967 0
M  V30 11512 O 1068.86 -1.00247 1.49501 0
M  V30 11513 H 1065.23 -0.16681 0.733266 0
M  V30 11514 H 1067.2 0.197747 2.97744 0
M  V30 11515 C 1065.95 -1.5737 3.10048 0
M  V30 11516 H 1065.28 -1.11901 3.83821 0
M  V30 11517 H 1066.72 -2.1423 3.65898 0
M  V30 11518 C 1065.18 -2.53036 2.22429 0
M  V30 11519 O 1065.71 -3.5647 1.85181 0
M  V30 11520 N 1063.91 -2.22802 1.86567 0
M  V30 11521 H 1063.46 -1.38723 2.17057 0
M  V30 11522 H 1063.42 -2.87061 1.28233 0
M  V30 11523 N 1067.19 -1.57141 0.120249 0
M  V30 11524 C 1068.1 -2.18925 -0.843155 0
M  V30 11525 C 1069.11 -1.16575 -1.29175 0
M  V30 11526 O 1070.29 -1.4905 -1.35448 0
M  V30 11527 C 1067.36 -2.7775 -2.075 0
M  V30 11528 C 1066.42 -3.95139 -1.6782 0
M  V30 11529 C 1065.65 -4.51149 -2.85132 0
M  V30 11530 O 1065.87 -4.06056 -4.00593 0
M  V30 11531 O 1064.81 -5.41815 -2.62145 0
M  V30 11532 H 1068.63 -3.01707 -0.347357 0
M  V30 11533 H 1066.22 -1.49028 -0.105427 0
M  V30 11534 H 1068.1 -3.15243 -2.79643 0
M  V30 11535 H 1066.77 -1.97998 -2.56083 0
M  V30 11536 H 1065.68 -3.62412 -0.927807 0
M  V30 11537 H 1067.01 -4.7633 -1.23977 0
M  V30 11538 N 1068.67 0.153526 -1.5685 0
M  V30 11539 C 1069.58 1.20932 -2.01029 0
M  V30 11540 C 1070.59 1.47401 -0.924598 0
M  V30 11541 O 1071.77 1.592 -1.23359 0
M  V30 11542 C 1068.83 2.52438 -2.37647 0
M  V30 11543 C 1067.89 2.33673 -3.60132 0
M  V30 11544 C 1067.13 3.58909 -3.94994 0
M  V30 11545 O 1067.35 4.64823 -3.30599 0
M  V30 11546 O 1066.28 3.5196 -4.8827 0
M  V30 11547 H 1070.11 0.864273 -2.91143 0
M  V30 11548 H 1067.7 0.361755 -1.44954 0
M  V30 11549 H 1069.58 3.29981 -2.62088 0
M  V30 11550 H 1068.25 2.86486 -1.5069 0
M  V30 11551 H 1067.16 1.54102 -3.40886 0
M  V30 11552 H 1068.49 2.04544 -4.47686 0
M  V30 11553 N 1070.14 1.51827 0.422667 0
M  V30 11554 C 1071.39 1.64893 1.16853 0
M  V30 11555 C 1071.71 0.37456 1.91369 0
M  V30 11556 O 1070.98 -0.610128 1.86157 0
M  V30 11557 H 1069.56 0.607744 0.434345 0
M  V30 11558 H 1072.23 1.88816 0.483159 0
M  V30 11559 H 1071.32 2.48361 1.89006 0
M  V30 11560 N 1071.62 -0.679052 1.4222 0
M  V30 11561 C 1072.87 -1.43485 1.41757 0
M  V30 11562 C 1073.18 -1.95567 0.0358698 0
M  V30 11563 O 1074.39 -2.71346 -0.0913713 0
M  V30 11564 C 1072.85 -2.59541 2.49332 0
M  V30 11565 C 1072.45 -2.14176 3.93488 0
M  V30 11566 C 1074.2 -3.37078 2.58029 0
M  V30 11567 C 1072.11 -3.27289 4.92581 0
M  V30 11568 H 1071.04 -0.539022 0.52723 0
M  V30 11569 H 1073.69 -0.735581 1.68111 0
M  V30 11570 H 1072.07 -3.31815 2.16135 0
M  V30 11571 H 1073.24 -1.49082 4.36017 0
M  V30 11572 H 1071.56 -1.49589 3.88603 0
M  V30 11573 H 1074.15 -4.21312 3.29242 0
M  V30 11574 H 1074.5 -3.83383 1.62245 0
M  V30 11575 H 1075.03 -2.7187 2.90399 0
M  V30 11576 H 1071.77 -2.8598 5.89827 0
M  V30 11577 H 1071.29 -3.91178 4.54687 0
M  V30 11578 H 1072.97 -3.9282 5.14103 0
M  V30 11579 N 1073.1 -1.28322 -0.914942 0
M  V30 11580 C 1074.03 -1.07947 -2.02188 0
M  V30 11581 C 1075.05 -0.0315743 -1.62769 0
M  V30 11582 O 1076.23 -0.274503 -1.76377 0
M  V30 11583 C 1073.33 -0.61805 -3.33217 0
M  V30 11584 C 1072.51 -1.74109 -4.01254 0
M  V30 11585 C 1071.57 -1.27325 -5.10563 0
M  V30 11586 O 1070.59 -1.97526 -5.33828 0
M  V30 11587 N 1071.79 -0.1358 -5.80341 0
M  V30 11588 H 1074.56 -2.03275 -2.20225 0
M  V30 11589 H 1072.12 -1.20059 -1.08616 0
M  V30 11590 H 1074.11 -0.288693 -4.03669 0
M  V30 11591 H 1072.68 0.242348 -3.11659 0
M  V30 11592 H 1071.9 -2.2401 -3.24366 0
M  V30 11593 H 1073.19 -2.49448 -4.43456 0
M  V30 11594 H 1072.59 0.449846 -5.63909 0
M  V30 11595 H 1071.15 0.134289 -6.51662 0
M  V30 11596 N 1074.58 1.12322 -1.10551 0
M  V30 11597 C 1075.99 1.35858 -0.837543 0
M  V30 11598 C 1076.19 1.94062 0.54241 0
M  V30 11599 O 1075.25 2.1676 1.29505 0
M  V30 11600 C 1076.56 2.299 -1.9382 0
M  V30 11601 C 1078.11 2.43488 -1.96679 0
M  V30 11602 C 1078.59 3.40846 -3.05922 0
M  V30 11603 N 1080.08 3.48404 -3.05236 0
M  V30 11604 C 1080.81 4.2365 -3.86405 0
M  V30 11605 N 1080.31 5.01951 -4.77512 0
M  V30 11606 N 1082.1 4.19068 -3.74618 0
M  V30 11607 H 1074.25 0.729002 -1.99498 0
M  V30 11608 H 1076.52 0.38339 -0.867016 0
M  V30 11609 H 1076.22 1.94309 -2.9315 0
M  V30 11610 H 1076.1 3.30033 -1.82641 0
M  V30 11611 H 1078.48 2.78359 -0.979813 0
M  V30 11612 H 1078.56 1.43239 -2.11934 0
M  V30 11613 H 1078.21 3.06704 -4.04839 0
M  V30 11614 H 1078.14 4.40927 -2.87907 0
M  V30 11615 H 1080.63 2.92545 -2.39219 0
M  V30 11616 H 1080.94 5.56707 -5.36002 0
M  V30 11617 H 1079.29 5.01143 -4.8154 0
M  V30 11618 H 1082.48 3.5698 -3.02792 0
M  V30 11619 H 1082.65 4.77455 -4.38111 0
M  V30 11620 N 1076.06 0.894434 1.2976 0
M  V30 11621 C 1077.02 0.373094 2.26143 0
M  V30 11622 C 1078.02 -0.489756 1.5316 0
M  V30 11623 O 1079.21 -0.29556 1.71674 0
M  V30 11624 C 1076.34 -0.467234 3.37683 0
M  V30 11625 H 1077.53 1.22427 2.73773 0
M  V30 11626 H 1075.09 0.672112 1.41111 0
M  V30 11627 H 1075.82 -1.33861 2.95384 0
M  V30 11628 H 1075.61 0.150954 3.91809 0
M  V30 11629 H 1077.1 -0.823469 4.094 0
M  V30 11630 N 1077.53 -1.43282 0.656365 0
M  V30 11631 C 1078.46 -2.33492 -0.0196962 0
M  V30 11632 C 1079.45 -1.49647 -0.80868 0
M  V30 11633 O 1080.63 -1.78303 -0.769529 0
M  V30 11634 C 1077.76 -3.33052 -0.984574 0
M  V30 11635 C 1076.71 -4.26908 -0.305483 0
M  V30 11636 C 1076.04 -5.16531 -1.38202 0
M  V30 11637 C 1077.34 -5.16073 0.804081 0
M  V30 11638 H 1079.03 -2.90272 0.733661 0
M  V30 11639 H 1076.58 -1.39574 0.354259 0
M  V30 11640 H 1078.53 -3.9506 -1.46647 0
M  V30 11641 H 1077.26 -2.74535 -1.76913 0
M  V30 11642 H 1075.92 -3.66268 0.155995 0
M  V30 11643 H 1075.56 -4.54351 -2.1581 0
M  V30 11644 H 1075.26 -5.80148 -0.932878 0
M  V30 11645 H 1076.79 -5.81414 -1.86522 0
M  V30 11646 H 1078.2 -5.71873 0.404212 0
M  V30 11647 H 1076.6 -5.88427 1.17789 0
M  V30 11648 H 1077.67 -4.55574 1.66073 0
M  V30 11649 N 1079.01 -0.398486 -1.52479 0
M  V30 11650 C 1080.24 0.180557 -2.06111 0
M  V30 11651 C 1080.66 1.39751 -1.26945 0
M  V30 11652 O 1080.01 1.79699 -0.318497 0
M  V30 11653 C 1080.06 0.541573 -3.5742 0
M  V30 11654 O 1079.79 -0.627043 -4.33589 0
M  V30 11655 C 1081.29 1.17549 -4.27431 0
M  V30 11656 H 1078.51 0.0250754 -0.670531 0
M  V30 11657 H 1081.05 -0.566368 -1.96501 0
M  V30 11658 H 1079.21 1.23839 -3.67073 0
M  V30 11659 H 1079.62 -0.328233 -5.23472 0
M  V30 11660 H 1081.09 1.37839 -5.34513 0
M  V30 11661 H 1081.57 2.14553 -3.83228 0
M  V30 11662 H 1082.18 0.51918 -4.22119 0
M  V30 11663 N 1080.49 1.57075 -0.12858 0
M  V30 11664 C 1081.45 2.14643 0.803813 0
M  V30 11665 C 1082.45 1.08363 1.18803 0
M  V30 11666 O 1083.64 1.34093 1.11197 0
M  V30 11667 C 1080.78 2.6945 2.08829 0
M  V30 11668 H 1081.97 2.98362 0.303347 0
M  V30 11669 H 1079.52 1.55833 0.120735 0
M  V30 11670 H 1080.26 1.89345 2.63285 0
M  V30 11671 H 1080.04 3.47187 1.82218 0
M  V30 11672 H 1081.53 3.13865 2.7546 0
M  V30 11673 N 1081.97 -0.145205 1.5693 0
M  V30 11674 C 1083.25 -0.88631 1.74367 0
M  V30 11675 C 1083.63 -1.99259 0.697081 0
M  V30 11676 O 1082.97 -2.26732 -0.28368 0
M  V30 11677 C 1083.18 -1.42712 3.18488 0
M  V30 11678 C 1084.53 -1.88982 3.80225 0
M  V30 11679 O 1085.56 -1.5245 3.21928 0
M  V30 11680 O 1084.42 -2.56361 4.8264 0
M  V30 11681 H 1081.51 -0.418979 0.713011 0
M  V30 11682 H 1084.06 -0.130991 1.69194 0
M  V30 11683 H 1082.83 -0.632165 3.8616 0
M  V30 11684 H 1082.45 -2.24589 3.28094 0
M  V30 11685 N 1083.45 -1.52049 -0.414609 0
M  V30 11686 C 1084.68 -1.69433 -1.18221 0
M  V30 11687 C 1085.09 -0.40104 -1.84901 0
M  V30 11688 O 1084.43 0.632342 -1.72474 0
M  V30 11689 C 1084.49 -2.76986 -2.2917 0
M  V30 11690 C 1084.15 -4.18903 -1.82671 0
M  V30 11691 C 1085.15 -5.02929 -1.31751 0
M  V30 11692 C 1082.84 -4.65113 -1.89672 0
M  V30 11693 C 1084.83 -6.31234 -0.884461 0
M  V30 11694 C 1082.52 -5.93408 -1.45978 0
M  V30 11695 C 1083.52 -6.76297 -0.9545 0
M  V30 11696 O 1083.2 -8.02191 -0.523852 0
M  V30 11697 H 1082.94 -0.571228 -0.36149 0
M  V30 11698 H 1085.49 -1.99355 -0.494643 0
M  V30 11699 H 1083.72 -2.42428 -3.01273 0
M  V30 11700 H 1085.41 -2.83023 -2.90951 0
M  V30 11701 H 1086.17 -4.68422 -1.2572 0
M  V30 11702 H 1082.05 -4.00702 -2.27945 0
M  V30 11703 H 1085.6 -6.95881 -0.489383 0
M  V30 11704 H 1081.49 -6.27424 -1.51687 0
M  V30 11705 H 1082.26 -8.15934 -0.647656 0
M  V30 11706 N 1084.93 0.6715 -1.42579 0
M  V30 11707 C 1085.89 1.76676 -1.46008 0
M  V30 11708 C 1086.89 1.57007 -0.347213 0
M  V30 11709 O 1088.08 1.63238 -0.608185 0
M  V30 11710 C 1085.21 3.15348 -1.29494 0
M  V30 11711 H 1086.4 1.75021 -2.43531 0
M  V30 11712 H 1083.96 0.881444 -1.29075 0
M  V30 11713 H 1084.69 3.22626 -0.32906 0
M  V30 11714 H 1084.48 3.31028 -2.10149 0
M  V30 11715 H 1085.97 3.95251 -1.34784 0
M  V30 11716 N 1086.4 1.28806 0.908124 0
M  V30 11717 C 1087.33 1.15758 2.02787 0
M  V30 11718 C 1088.31 0.053911 1.70015 0
M  V30 11719 O 1089.5 0.231901 1.9281 0
M  V30 11720 C 1086.63 0.824526 3.37371 0
M  V30 11721 C 1085.58 1.88359 3.84324 0
M  V30 11722 C 1084.91 1.40404 5.15937 0
M  V30 11723 C 1086.21 3.29108 4.05568 0
M  V30 11724 H 1087.9 2.09431 2.13961 0
M  V30 11725 H 1085.45 1.00831 1.02806 0
M  V30 11726 H 1087.4 0.71999 4.15204 0
M  V30 11727 H 1086.13 -0.147902 3.26265 0
M  V30 11728 H 1084.79 1.97736 3.087 0
M  V30 11729 H 1084.43 0.420515 5.01239 0
M  V30 11730 H 1084.13 2.11224 5.48323 0
M  V30 11731 H 1085.66 1.31283 5.9632 0
M  V30 11732 H 1087.07 3.2262 4.73909 0
M  V30 11733 H 1085.47 3.97812 4.49294 0
M  V30 11734 H 1086.54 3.72709 3.10187 0
M  V30 11735 N 1087.88 -1.11734 1.11145 0
M  V30 11736 C 1088.81 -2.1976 0.789152 0
M  V30 11737 C 1089.79 -1.68382 -0.241143 0
M  V30 11738 O 1090.98 -1.93914 -0.105292 0
M  V30 11739 C 1088.11 -3.46549 0.228204 0
M  V30 11740 C 1087.06 -4.11123 1.19002 0
M  V30 11741 C 1086.39 -5.32451 0.489928 0
M  V30 11742 C 1087.69 -4.56406 2.53951 0
M  V30 11743 H 1089.38 -2.46978 1.69241 0
M  V30 11744 H 1086.93 -1.18705 0.81517 0
M  V30 11745 H 1088.88 -4.21399 -0.00945908 0
M  V30 11746 H 1087.6 -3.18782 -0.71033 0
M  V30 11747 H 1086.26 -3.38264 1.41326 0
M  V30 11748 H 1085.91 -5.00953 -0.453315 0
M  V30 11749 H 1085.61 -5.76605 1.1314 0
M  V30 11750 H 1087.14 -6.10042 0.260984 0
M  V30 11751 H 1088.55 -5.22592 2.35733 0
M  V30 11752 H 1086.95 -5.11363 3.14051 0
M  V30 11753 H 1088.02 -3.7001 3.13402 0
M  V30 11754 N 1089.36 -0.901303 -1.29284 0
M  V30 11755 C 1090.29 -0.32479 -2.25877 0
M  V30 11756 C 1091.27 0.563944 -1.52507 0
M  V30 11757 O 1092.45 0.510393 -1.81459 0
M  V30 11758 C 1089.58 0.536897 -3.34418 0
M  V30 11759 C 1088.63 -0.28474 -4.25548 0
M  V30 11760 S 1089.46 -1.68355 -5.08347 0
M  V30 11761 C 1090.62 -0.828826 -6.20388 0
M  V30 11762 H 1090.85 -1.14352 -2.74428 0
M  V30 11763 H 1088.38 -0.701749 -1.37531 0
M  V30 11764 H 1090.34 1.02827 -3.97413 0
M  V30 11765 H 1089 1.32988 -2.84558 0
M  V30 11766 H 1088.19 0.373566 -5.02614 0
M  V30 11767 H 1087.8 -0.709313 -3.67212 0
M  V30 11768 H 1090.09 -0.0529234 -6.77479 0
M  V30 11769 H 1091.03 -1.57161 -6.90439 0
M  V30 11770 H 1091.44 -0.382503 -5.63203 0
M  V30 11771 N 1090.84 1.42931 -0.663954 0
M  V30 11772 C 1091.75 2.3459 0.0214234 0
M  V30 11773 C 1092.76 1.54487 0.800611 0
M  V30 11774 O 1093.94 1.87098 0.74541 0
M  V30 11775 C 1091 3.32896 0.968556 0
M  V30 11776 C 1090.07 4.28901 0.185108 0
M  V30 11777 C 1089.3 5.2251 1.08713 0
M  V30 11778 O 1089.52 5.20795 2.32655 0
M  V30 11779 O 1088.46 5.99347 0.553758 0
M  V30 11780 H 1092.28 2.94714 -0.733308 0
M  V30 11781 H 1089.87 1.43252 -0.424159 0
M  V30 11782 H 1091.75 3.93318 1.51257 0
M  V30 11783 H 1090.42 2.75261 1.70333 0
M  V30 11784 H 1089.33 3.71926 -0.402752 0
M  V30 11785 H 1090.66 4.89547 -0.510319 0
M  V30 11786 N 1092.32 0.406567 1.52266 0
M  V30 11787 C 1093.54 -0.172101 2.06685 0
M  V30 11788 C 1093.97 -1.38306 1.27488 0
M  V30 11789 O 1093.32 -1.78726 0.304441 0
M  V30 11790 C 1093.37 -0.503463 3.57068 0
M  V30 11791 O 1092.48 -1.59485 3.80314 0
M  V30 11792 H 1091.82 -0.0153209 0.663823 0
M  V30 11793 H 1094.35 0.579025 1.96236 0
M  V30 11794 H 1094.36 -0.762833 4.00805 0
M  V30 11795 H 1093.03 0.381775 4.14144 0
M  V30 11796 H 1091.61 -1.32784 3.48458 0
M  V30 11797 N 1093.79 -1.57004 0.136909 0
M  V30 11798 C 1095.02 -2.00156 -0.523936 0
M  V30 11799 C 1095.44 -1.01688 -1.59075 0
M  V30 11800 O 1094.79 -0.0123678 -1.82496 0
M  V30 11801 C 1094.85 -3.4326 -1.13379 0
M  V30 11802 O 1094.57 -4.37963 -0.109598 0
M  V30 11803 C 1096.07 -4.01637 -1.87623 0
M  V30 11804 H 1093.29 -0.65681 -0.137263 0
M  V30 11805 H 1095.83 -2.03219 0.228522 0
M  V30 11806 H 1093.99 -3.4108 -1.83693 0
M  V30 11807 H 1094.4 -5.21555 -0.55503 0
M  V30 11808 H 1095.87 -5.03795 -2.25597 0
M  V30 11809 H 1096.35 -3.41781 -2.75831 0
M  V30 11810 H 1096.96 -4.07417 -1.22031 0
M  V30 11811 N 1095.27 0.136881 -1.57004 0
M  V30 11812 C 1096.5 0.862436 -1.88068 0
M  V30 11813 C 1096.92 1.74274 -0.726227 0
M  V30 11814 O 1096.27 1.79956 0.30366 0
M  V30 11815 C 1096.32 1.71076 -3.18458 0
M  V30 11816 O 1096.04 0.865918 -4.29457 0
M  V30 11817 C 1097.55 2.54302 -3.63105 0
M  V30 11818 H 1094.77 0.248865 -0.623143 0
M  V30 11819 H 1097.31 0.126633 -2.04108 0
M  V30 11820 H 1095.46 2.39951 -3.04142 0
M  V30 11821 H 1095.88 1.4493 -5.04079 0
M  V30 11822 H 1097.35 3.09384 -4.57149 0
M  V30 11823 H 1097.83 3.3082 -2.88886 0
M  V30 11824 H 1098.44 1.907 -3.80149 0
M  V30 11825 N 1096.75 1.52266 0.40654 0
M  V30 11826 C 1098 1.6568 1.15035 0
M  V30 11827 C 1098.31 0.394135 1.91588 0
M  V30 11828 O 1099.52 0.408113 2.68415 0
M  V30 11829 C 1097.97 2.92725 2.0938 0
M  V30 11830 C 1097.58 4.26108 1.38332 0
M  V30 11831 C 1099.33 3.15502 2.84004 0
M  V30 11832 C 1097.23 5.44275 2.3134 0
M  V30 11833 H 1096.16 0.61719 0.43312 0
M  V30 11834 H 1098.81 1.78755 0.414598 0
M  V30 11835 H 1097.2 2.73355 2.86519 0
M  V30 11836 H 1098.37 4.55971 0.665396 0
M  V30 11837 H 1096.69 4.09454 0.757384 0
M  V30 11838 H 1099.28 4.00964 3.5374 0
M  V30 11839 H 1099.63 2.29842 3.471 0
M  V30 11840 H 1100.16 3.35357 2.13964 0
M  V30 11841 H 1096.9 6.3229 1.72887 0
M  V30 11842 H 1096.42 5.18749 3.01098 0
M  V30 11843 H 1098.1 5.77457 2.91809 0
M  V30 11844 N 1098.23 -0.663929 1.42933 0
M  V30 11845 C 1099.14 -1.80643 1.49683 0
M  V30 11846 C 1100.15 -1.69694 0.38472 0
M  V30 11847 O 1101.33 -1.91052 0.637256 0
M  V30 11848 C 1098.4 -3.16858 1.4072 0
M  V30 11849 C 1097.46 -3.39684 2.62514 0
M  V30 11850 C 1096.69 -4.69399 2.53969 0
M  V30 11851 O 1096.91 -5.48037 1.58152 0
M  V30 11852 O 1095.85 -4.93709 3.44289 0
M  V30 11853 H 1099.67 -1.77903 2.46138 0
M  V30 11854 H 1097.26 -0.821059 1.24816 0
M  V30 11855 H 1099.14 -3.9812 1.38124 0
M  V30 11856 H 1097.81 -3.20211 0.473954 0
M  V30 11857 H 1096.72 -2.58227 2.70684 0
M  V30 11858 H 1098.05 -3.41169 3.54774 0
M  V30 11859 N 1099.71 -1.29285 -0.901281 0
M  V30 11860 C 1100.94 -1.19874 -1.68267 0
M  V30 11861 C 1101.34 0.243387 -1.87628 0
M  V30 11862 O 1100.69 1.17497 -1.41209 0
M  V30 11863 C 1100.75 -1.83907 -3.08899 0
M  V30 11864 C 1100.41 -3.33198 -3.12775 0
M  V30 11865 C 1101.41 -4.29446 -2.9304 0
M  V30 11866 C 1099.1 -3.7437 -3.34892 0
M  V30 11867 C 1101.09 -5.64842 -2.95352 0
M  V30 11868 C 1098.78 -5.09888 -3.36834 0
M  V30 11869 C 1099.77 -6.04934 -3.17087 0
M  V30 11870 O 1099.46 -7.37979 -3.18815 0
M  V30 11871 H 1099.19 -0.416601 -0.532372 0
M  V30 11872 H 1101.75 -1.71154 -1.13558 0
M  V30 11873 H 1099.98 -1.27136 -3.65203 0
M  V30 11874 H 1101.67 -1.6884 -3.69118 0
M  V30 11875 H 1102.43 -3.9897 -2.75767 0
M  V30 11876 H 1098.31 -3.00846 -3.49303 0
M  V30 11877 H 1101.86 -6.39004 -2.79856 0
M  V30 11878 H 1097.75 -5.40009 -3.53638 0
M  V30 11879 H 1098.52 -7.46763 -3.35092 0
M  V30 11880 N 1101.18 1.11143 -1.11736 0
M  V30 11881 C 1102.43 1.83219 -0.869413 0
M  V30 11882 C 1102.76 1.84588 0.603402 0
M  V30 11883 O 1102.04 1.30119 1.44566 0
M  V30 11884 C 1102.32 3.30247 -1.43559 0
M  V30 11885 C 1102.17 3.37253 -2.97624 0
M  V30 11886 C 1103.49 4.26412 -1.08907 0
M  V30 11887 H 1100.61 0.665205 -0.317286 0
M  V30 11888 H 1103.25 1.30307 -1.38275 0
M  V30 11889 H 1101.4 3.75437 -0.998978 0
M  V30 11890 H 1103.08 3.00599 -3.49911 0
M  V30 11891 H 1101.32 2.77378 -3.33532 0
M  V30 11892 H 1101.99 4.40752 -3.32328 0
M  V30 11893 H 1104.47 3.89418 -1.46604 0
M  V30 11894 H 1103.34 5.27666 -1.51195 0
M  V30 11895 H 1103.6 4.421 -0.000259009 0
M  V30 11896 N 1102.66 0.908147 1.28804 0
M  V30 11897 C 1103.89 0.55409 1.99343 0
M  V30 11898 C 1104.31 -0.863262 1.67908 0
M  V30 11899 O 1103.66 -1.571 0.92875 0
M  V30 11900 C 1103.71 0.746916 3.537 0
M  V30 11901 O 1103.43 2.10849 3.84024 0
M  V30 11902 C 1104.94 0.398939 4.41501 0
M  V30 11903 H 1102.16 0.211784 0.636701 0
M  V30 11904 H 1104.7 1.21981 1.64137 0
M  V30 11905 H 1102.85 0.128264 3.87188 0
M  V30 11906 H 1103.27 2.14404 4.78676 0
M  V30 11907 H 1104.74 0.584656 5.48895 0
M  V30 11908 H 1105.22 -0.664517 4.34144 0
M  V30 11909 H 1105.83 0.994892 4.135 0
M  V30 11910 N 1104.14 -1.42577 0.671525 0
M  V30 11911 C 1105.07 -2.2915 -0.0477361 0
M  V30 11912 C 1106.09 -1.43503 -0.768805 0
M  V30 11913 O 1107.27 -1.67256 -0.623509 0
M  V30 11914 C 1104.37 -3.20851 -1.09122 0
M  V30 11915 C 1103.55 -4.35134 -0.44463 0
M  V30 11916 C 1102.61 -5.07579 -1.38745 0
M  V30 11917 O 1101.63 -5.62215 -0.889015 0
M  V30 11918 N 1102.83 -5.12786 -2.72086 0
M  V30 11919 H 1105.6 -2.9152 0.695415 0
M  V30 11920 H 1103.16 -1.53467 0.515689 0
M  V30 11921 H 1105.15 -3.66183 -1.72315 0
M  V30 11922 H 1103.72 -2.59956 -1.73614 0
M  V30 11923 H 1102.94 -3.9249 0.36675 0
M  V30 11924 H 1104.23 -5.088 0.00595927 0
M  V30 11925 H 1103.63 -4.69802 -3.15123 0
M  V30 11926 H 1102.19 -5.61774 -3.30535 0
M  V30 11927 N 1105.62 -0.414636 -1.52048 0
M  V30 11928 C 1107.03 -0.0657806 -1.59464 0
M  V30 11929 C 1107.23 1.4225 -1.42713 0
M  V30 11930 O 1106.29 2.18996 -1.25687 0
M  V30 11931 C 1107.6 -0.565618 -2.95332 0
M  V30 11932 C 1109.15 -0.524072 -3.08581 0
M  V30 11933 C 1109.63 -1.00051 -4.46938 0
M  V30 11934 N 1111.12 -0.957555 -4.53194 0
M  V30 11935 C 1111.85 -1.29733 -5.58531 0
M  V30 11936 N 1111.35 -1.70883 -6.71395 0
M  V30 11937 N 1113.14 -1.21694 -5.48769 0
M  V30 11938 H 1105.29 -1.38325 -1.61183 0
M  V30 11939 H 1107.56 -0.568593 -0.758556 0
M  V30 11940 H 1107.26 -1.60604 -3.12888 0
M  V30 11941 H 1107.14 0.0217735 -3.77194 0
M  V30 11942 H 1109.52 0.507319 -2.90707 0
M  V30 11943 H 1109.6 -1.14759 -2.28613 0
M  V30 11944 H 1109.25 -2.03025 -4.65557 0
M  V30 11945 H 1109.18 -0.353754 -5.2541 0
M  V30 11946 H 1111.67 -0.65508 -3.72179 0
M  V30 11947 H 1111.98 -1.95105 -7.47766 0
M  V30 11948 H 1110.33 -1.74791 -6.72661 0
M  V30 11949 H 1113.52 -0.894286 -4.59478 0
M  V30 11950 H 1113.69 -1.48504 -6.30754 0
M  V30 11951 N 1107.1 1.56929 -0.145233 0
M  V30 11952 C 1108.04 2.17958 0.812237 0
M  V30 11953 C 1109.04 1.13608 1.25657 0
M  V30 11954 O 1110.24 1.31861 1.22526 0
M  V30 11955 H 1106.62 0.697876 0.28013 0
M  V30 11956 H 1108.59 2.97146 0.273297 0
M  V30 11957 C 1107.34 2.81418 2.04203 0
M  V30 11958 H 1106.66 3.61427 1.70911 0
M  V30 11959 H 1108.1 3.27624 2.69144 0
M  V30 11960 C 1106.56 1.79835 2.84888 0
M  V30 11961 O 1107.09 1.26773 3.81171 0
M  V30 11962 N 1105.3 1.49179 2.49387 0
M  V30 11963 H 1104.84 1.9252 1.71154 0
M  V30 11964 H 1104.8 0.81458 3.03664 0
M  V30 11965 N 1108.58 -0.128553 1.57075 0
M  V30 11966 C 1109.82 -0.844012 1.86161 0
M  V30 11967 C 1110.18 -1.77499 0.73198 0
M  V30 11968 O 1111.38 -2.5313 0.904357 0
M  V30 11969 C 1109.65 -1.58238 3.20462 0
M  V30 11970 S 1111.21 -2.34073 3.71154 0
M  V30 11971 H 1108.03 -0.281884 0.652734 0
M  V30 11972 H 1110.63 -0.102902 1.95229 0
M  V30 11973 H 1109.33 -0.890246 4.00628 0
M  V30 11974 H 1108.87 -2.36404 3.14446 0
M  V30 11975 H 1110.88 -3.59617 3.41892 0
M  V30 11976 N 1110.05 -1.5248 -0.398459 0
M  V30 11977 C 1111 -1.77211 -1.50662 0
M  V30 11978 C 1112 -0.639638 -1.5686 0
M  V30 11979 O 1113.2 -0.821917 -1.60139 0
M  V30 11980 H 1109.58 -0.56057 -0.501264 0
M  V30 11981 H 1111.55 -2.70028 -1.26993 0
M  V30 11982 C 1110.3 -1.94944 -2.8791 0
M  V30 11983 H 1109.62 -2.8151 -2.83888 0
M  V30 11984 H 1111.06 -2.16243 -3.64712 0
M  V30 11985 C 1109.52 -0.719402 -3.29129 0
M  V30 11986 O 1110.05 0.107671 -4.01556 0
M  V30 11987 N 1108.25 -0.552228 -2.85305 0
M  V30 11988 H 1107.8 -1.22638 -2.26534 0
M  V30 11989 H 1107.76 0.269447 -3.13243 0
M  V30 11990 N 1111.53 0.65634 -1.43283 0
M  V30 11991 C 1112.46 1.78101 -1.51004 0
M  V30 11992 C 1113.44 1.66138 -0.36498 0
M  V30 11993 O 1114.63 1.85281 -0.581778 0
M  V30 11994 C 1111.76 3.16511 -1.42961 0
M  V30 11995 C 1110.71 3.43233 -2.55685 0
M  V30 11996 C 1110.04 4.81411 -2.32696 0
M  V30 11997 C 1111.34 3.38288 -3.97943 0
M  V30 11998 H 1113.03 1.71896 -2.45137 0
M  V30 11999 H 1110.58 0.825575 -1.17984 0
M  V30 12000 H 1112.53 3.94941 -1.46968 0
M  V30 12001 H 1111.25 3.23439 -0.45332 0
M  V30 12002 H 1109.91 2.67173 -2.51026 0
M  V30 12003 H 1109.56 4.85011 -1.33317 0
M  V30 12004 H 1109.26 5.00251 -3.08257 0
M  V30 12005 H 1110.79 5.62102 -2.38481 0
M  V30 12006 H 1112.2 4.06659 -4.04106 0
M  V30 12007 H 1110.6 3.68664 -4.73505 0
M  V30 12008 H 1111.67 2.36525 -4.23301 0
M  V30 12009 N 1113.01 1.29761 0.894412 0
M  V30 12010 C 1114.24 1.2094 1.67872 0
M  V30 12011 C 1114.65 -0.229192 1.87404 0
M  V30 12012 O 1114.01 -1.15278 1.41482 0
M  V30 12013 C 1114.06 1.92424 3.06032 0
M  V30 12014 O 1113.78 3.30665 2.87388 0
M  V30 12015 C 1115.28 1.90144 4.0045 0
M  V30 12016 H 1112.5 0.418942 0.524145 0
M  V30 12017 H 1115.05 1.71226 1.11813 0
M  V30 12018 H 1113.2 1.4596 3.58851 0
M  V30 12019 H 1113.62 3.66741 3.74969 0
M  V30 12020 H 1115.09 2.44716 4.94791 0
M  V30 12021 H 1115.57 0.878175 4.30331 0
M  V30 12022 H 1116.17 2.36375 3.53563 0
M  V30 12023 N 1114.49 -1.10549 1.12324 0
M  V30 12024 C 1115.42 -2.16657 0.747826 0
M  V30 12025 C 1116.43 -1.61238 -0.224981 0
M  V30 12026 O 1117.62 -1.78499 -0.00649408 0
M  V30 12027 C 1114.72 -3.38791 0.0859421 0
M  V30 12028 C 1113.89 -4.23655 1.08792 0
M  V30 12029 C 1112.95 -5.24239 0.453871 0
M  V30 12030 O 1111.98 -5.58262 1.11052 0
M  V30 12031 N 1113.18 -5.75246 -0.779215 0
M  V30 12032 H 1115.95 -2.49472 1.66084 0
M  V30 12033 H 1113.51 -1.26157 1.01469 0
M  V30 12034 H 1115.5 -4.03182 -0.350186 0
M  V30 12035 H 1114.07 -3.03961 -0.729807 0
M  V30 12036 H 1113.29 -3.55578 1.70171 0
M  V30 12037 H 1114.58 -4.77187 1.76549 0
M  V30 12038 H 1113.98 -5.49802 -1.3317 0
M  V30 12039 H 1112.53 -6.41428 -1.15818 0
M  V30 12040 N 1115.97 -0.914965 -1.28321 0
M  V30 12041 C 1117.21 -0.544639 -1.94208 0
M  V30 12042 C 1117.53 0.916368 -1.72806 0
M  V30 12043 O 1118.73 1.39491 -2.32926 0
M  V30 12044 C 1117.19 -0.923209 -3.47858 0
M  V30 12045 C 1116.8 -2.40403 -3.78035 0
M  V30 12046 C 1118.54 -0.623526 -4.19896 0
M  V30 12047 C 1116.45 -2.72266 -5.25 0
M  V30 12048 H 1115.38 -0.199966 -0.727 0
M  V30 12049 H 1118.03 -1.11405 -1.45812 0
M  V30 12050 H 1116.41 -0.282576 -3.94991 0
M  V30 12051 H 1117.59 -3.09149 -3.41706 0
M  V30 12052 H 1115.9 -2.67429 -3.19172 0
M  V30 12053 H 1118.5 -0.838243 -5.28089 0
M  V30 12054 H 1118.84 0.438721 -4.13982 0
M  V30 12055 H 1119.37 -1.22268 -3.78544 0
M  V30 12056 H 1116.11 -3.77349 -5.35993 0
M  V30 12057 H 1115.63 -2.08157 -5.62522 0
M  V30 12058 H 1117.31 -2.59334 -5.92752 0
M  V30 12059 N 1117.44 1.42219 -0.679077 0
M  V30 12060 C 1118.69 2.01081 -0.202718 0
M  V30 12061 C 1119.01 1.53986 1.19639 0
M  V30 12062 O 1118.28 0.763359 1.80415 0
M  V30 12063 H 1116.86 0.743526 -0.0719547 0
M  V30 12064 H 1119.52 1.74077 -0.876544 0
M  V30 12065 H 1118.62 3.11411 -0.207314 0
M  V30 12066 N 1118.92 0.422693 1.51826 0
M  V30 12067 C 1120.17 -0.148348 2.01555 0
M  V30 12068 C 1120.49 -1.44483 1.30956 0
M  V30 12069 O 1119.76 -1.90904 0.439599 0
M  V30 12070 H 1118.34 -0.0578116 0.74476 0
M  V30 12071 H 1121 0.562046 1.8662 0
M  V30 12072 H 1120.1 -0.334766 3.10299 0
M  V30 12073 N 1120.4 -1.5685 0.153553 0
M  V30 12074 C 1121.33 -2.20101 -0.779601 0
M  V30 12075 C 1122.31 -1.15121 -1.25225 0
M  V30 12076 O 1123.5 -1.43487 -1.30862 0
M  V30 12077 C 1120.63 -2.82778 -2.01628 0
M  V30 12078 C 1119.58 -3.93643 -1.68015 0
M  V30 12079 C 1118.91 -4.43286 -2.99001 0
M  V30 12080 C 1120.21 -5.14102 -0.921774 0
M  V30 12081 H 1121.9 -2.98334 -0.252432 0
M  V30 12082 H 1119.45 -1.43499 -0.119975 0
M  V30 12083 H 1121.4 -3.25696 -2.67395 0
M  V30 12084 H 1120.12 -2.01887 -2.56728 0
M  V30 12085 H 1118.78 -3.51354 -1.04624 0
M  V30 12086 H 1118.43 -3.59208 -3.52106 0
M  V30 12087 H 1118.13 -5.18068 -2.77272 0
M  V30 12088 H 1119.65 -4.88878 -3.65828 0
M  V30 12089 H 1121.07 -5.53823 -1.48167 0
M  V30 12090 H 1119.46 -5.94687 -0.804185 0
M  V30 12091 H 1120.53 -4.84825 0.0852757 0
M  V30 12092 N 1121.88 0.120221 -1.57141 0
M  V30 12093 C 1123.13 0.826791 -1.83976 0
M  V30 12094 C 1123.44 1.81102 -0.739014 0
M  V30 12095 O 1124.65 2.56368 -0.893736 0
M  V30 12096 C 1123.1 1.52108 -3.26176 0
M  V30 12097 C 1122.71 0.577902 -4.44257 0
M  V30 12098 C 1124.45 2.21286 -3.62261 0
M  V30 12099 C 1122.36 1.27535 -5.77485 0
M  V30 12100 H 1121.29 0.312508 -0.686189 0
M  V30 12101 H 1123.94 0.0795343 -1.83328 0
M  V30 12102 H 1122.32 2.31492 -3.2129 0
M  V30 12103 H 1123.5 -0.182629 -4.60438 0
M  V30 12104 H 1121.81 -0.00684348 -4.16399 0
M  V30 12105 H 1124.41 2.74154 -4.59068 0
M  V30 12106 H 1124.75 2.99029 -2.89634 0
M  V30 12107 H 1125.29 1.48791 -3.68925 0
M  V30 12108 H 1122.02 0.539237 -6.53278 0
M  V30 12109 H 1121.54 2.00792 -5.65192 0
M  V30 12110 H 1123.22 1.80888 -6.21199 0
M  V30 12111 N 1123.36 1.52689 0.390367 0
M  V30 12112 C 1124.63 1.58246 1.14968 0
M  V30 12113 C 1125.01 0.374808 2.07746 0
M  V30 12114 O 1124.36 -0.636969 2.19442 0
M  V30 12115 C 1124.57 2.92059 1.91056 0
M  V30 12116 C 1125.92 3.45745 2.46466 0
M  V30 12117 O 1126.94 2.93924 2.01214 0
M  V30 12118 O 1125.8 4.3628 3.29122 0
M  V30 12119 H 1122.9 0.638189 0.52597 0
M  V30 12120 H 1125.44 1.65024 0.39563 0
M  V30 12121 H 1124.21 3.71399 1.23201 0
M  V30 12122 H 1123.84 2.8866 2.73425 0
M  V30 12123 N 1124.83 -0.648732 1.43629 0
M  V30 12124 C 1126.06 -1.44117 1.49148 0
M  V30 12125 C 1126.48 -1.87767 0.111952 0
M  V30 12126 O 1125.84 -1.57655 -0.895249 0
M  V30 12127 C 1125.89 -2.64938 2.44623 0
M  V30 12128 O 1124.99 -3.64155 1.93559 0
M  V30 12129 H 1124.34 -0.431933 0.504312 0
M  V30 12130 H 1126.87 -0.793439 1.88589 0
M  V30 12131 H 1126.88 -3.12698 2.62076 0
M  V30 12132 H 1125.55 -2.3251 3.44836 0
M  V30 12133 H 1124.13 -3.23322 1.85789 0
M  V30 12134 N 1126.31 -1.30234 -0.887518 0
M  V30 12135 C 1127.26 -1.164 -1.99298 0
M  V30 12136 C 1128.23 -0.0541536 -1.66012 0
M  V30 12137 O 1129.41 -0.223881 -1.89482 0
M  V30 12138 C 1126.55 -0.859169 -3.34234 0
M  V30 12139 C 1125.67 -2.05065 -3.80227 0
M  V30 12140 C 1124.8 -1.68413 -5.03796 0
M  V30 12141 C 1123.84 -2.8407 -5.4219 0
M  V30 12142 N 1122.98 -2.47732 -6.56942 0
M  V30 12143 H 1127.82 -2.10973 -2.10463 0
M  V30 12144 H 1125.36 -1.04969 -1.03053 0
M  V30 12145 H 1127.31 -0.663064 -4.11897 0
M  V30 12146 H 1125.94 0.0496808 -3.22762 0
M  V30 12147 H 1125 -2.35808 -2.98494 0
M  V30 12148 H 1126.31 -2.91688 -4.04623 0
M  V30 12149 H 1125.46 -1.45162 -5.89078 0
M  V30 12150 H 1124.2 -0.789553 -4.81266 0
M  V30 12151 H 1123.21 -3.0799 -4.55437 0
M  V30 12152 H 1124.43 -3.74211 -5.66695 0
M  V30 12153 H 1122.38 -1.60777 -6.35993 0
M  V30 12154 H 1122.29 -3.27887 -6.81195 0
M  V30 12155 H 1123.56 -2.27831 -7.45462 0
M  V30 12156 N 1127.79 1.09952 -1.12909 0
M  V30 12157 C 1129.04 1.81657 -0.885729 0
M  V30 12158 C 1129.36 1.85863 0.589913 0
M  V30 12159 O 1128.63 1.34028 1.42875 0
M  V30 12160 H 1127.21 0.672743 -0.324694 0
M  V30 12161 H 1129.87 1.33013 -1.42456 0
M  V30 12162 H 1128.97 2.85018 -1.27167 0
M  V30 12163 N 1129.27 0.921757 1.27833 0
M  V30 12164 C 1130.5 0.574368 1.98455 0
M  V30 12165 C 1130.91 -0.850577 1.69002 0
M  V30 12166 O 1130.25 -1.57607 0.943708 0
M  V30 12167 C 1130.31 0.713235 3.52354 0
M  V30 12168 C 1129.98 2.1092 4.05415 0
M  V30 12169 C 1130.97 3.08276 4.18643 0
M  V30 12170 C 1128.66 2.42454 4.3991 0
M  V30 12171 C 1130.65 4.35279 4.6563 0
M  V30 12172 C 1128.34 3.69694 4.8659 0
M  V30 12173 C 1129.34 4.6592 4.99407 0
M  V30 12174 O 1129.02 5.90896 5.45066 0
M  V30 12175 H 1128.76 0.216955 0.640239 0
M  V30 12176 H 1131.31 1.23932 1.63798 0
M  V30 12177 H 1129.54 -0.00881115 3.86699 0
M  V30 12178 H 1131.23 0.371776 4.04194 0
M  V30 12179 H 1132 2.85234 3.92258 0
M  V30 12180 H 1127.87 1.68303 4.2918 0
M  V30 12181 H 1131.42 5.10391 4.75549 0
M  V30 12182 H 1127.32 3.92557 5.12415 0
M  V30 12183 H 1128.08 5.938 5.63333 0
M  V30 12184 N 1130.75 -1.41857 0.686609 0
M  V30 12185 C 1131.99 -2.0097 0.213378 0
M  V30 12186 C 1132.32 -1.54618 -1.1882 0
M  V30 12187 O 1131.59 -0.772916 -1.80008 0
M  V30 12188 H 1130.17 -0.743134 0.0758968 0
M  V30 12189 H 1132.83 -1.73609 0.885763 0
M  V30 12190 H 1131.92 -3.11296 0.223826 0
M  V30 12191 N 1132.22 -0.430739 -1.51599 0
M  V30 12192 C 1133.47 0.139396 -2.01218 0
M  V30 12193 C 1133.79 1.44361 -1.31982 0
M  V30 12194 O 1134.99 2.0963 -1.72533 0
M  V30 12195 C 1133.45 0.298969 -3.58656 0
M  V30 12196 C 1133.06 -0.994424 -4.36824 0
M  V30 12197 C 1134.8 0.82323 -4.16441 0
M  V30 12198 C 1132.71 -0.800855 -5.85952 0
M  V30 12199 H 1131.64 0.0558698 -0.751927 0
M  V30 12200 H 1134.29 -0.559493 -1.74762 0
M  V30 12201 H 1132.67 1.06071 -3.8153 0
M  V30 12202 H 1133.84 -1.76398 -4.257 0
M  V30 12203 H 1132.16 -1.44672 -3.9046 0
M  V30 12204 H 1134.76 0.984434 -5.2556 0
M  V30 12205 H 1135.1 1.80388 -3.75188 0
M  V30 12206 H 1135.63 0.119982 -3.97619 0
M  V30 12207 H 1132.37 -1.75369 -6.31606 0
M  V30 12208 H 1131.89 -0.0709793 -5.99758 0
M  V30 12209 H 1133.57 -0.451459 -6.45423 0
M  V30 12210 N 1133.7 1.56767 -0.161869 0
M  V30 12211 C 1134.95 1.96206 0.484537 0
M  V30 12212 C 1135.27 1.04848 1.64414 0
M  V30 12213 O 1134.54 0.112946 1.95574 0
M  V30 12214 H 1133.12 0.724491 0.181994 0
M  V30 12215 H 1135.78 1.93406 -0.240845 0
M  V30 12216 H 1134.88 3.00279 0.85083 0
M  V30 12217 N 1135.18 -0.111886 1.57202 0
M  V30 12218 C 1136.41 -0.832407 1.89416 0
M  V30 12219 C 1136.82 -1.73096 0.753861 0
M  V30 12220 O 1136.18 -1.80416 -0.274992 0
M  V30 12221 C 1136.23 -1.65988 3.21139 0
M  V30 12222 O 1135.95 -0.797485 4.3078 0
M  V30 12223 C 1137.45 -2.48493 3.67105 0
M  V30 12224 H 1134.67 -0.238919 0.627024 0
M  V30 12225 H 1137.22 -0.0941456 2.04283 0
M  V30 12226 H 1135.37 -2.35082 3.07921 0
M  V30 12227 H 1135.79 -1.36892 5.06321 0
M  V30 12228 H 1137.26 -3.02072 4.62014 0
M  V30 12229 H 1137.74 -3.26182 2.94112 0
M  V30 12230 H 1138.34 -1.84628 3.83135 0
M  V30 12231 N 1136.66 -1.52894 -0.382264 0
M  V30 12232 C 1138.07 -1.60135 -0.959887 0
M  V30 12233 C 1138.42 -0.458363 -1.90771 0
M  V30 12234 O 1137.55 0.417614 -2.12332 0
M  V30 12235 C 1138.14 -2.90243 -1.74769 0
M  V30 12236 C 1136.7 -2.99874 -2.27491 0
M  V30 12237 C 1135.85 -2.55302 -1.0824 0
M  V30 12238 H 1138.8 -1.57875 -0.161589 0
M  V30 12239 H 1138.82 -2.77108 -2.60751 0
M  V30 12240 H 1138.33 -3.73412 -1.0576 0
M  V30 12241 H 1136.43 -2.21258 -2.99793 0
M  V30 12242 H 1136.54 -4.04643 -2.56516 0
M  V30 12243 H 1134.91 -2.09781 -1.44444 0
M  V30 12244 H 1135.69 -3.40872 -0.407553 0
M  V30 12245 N 1138.14 0.641106 -1.43971 0
M  V30 12246 C 1139.07 1.76599 -1.44527 0
M  V30 12247 C 1140.05 1.59709 -0.305257 0
M  V30 12248 O 1141.23 1.81728 -0.50071 0
M  V30 12249 C 1138.36 3.14052 -1.26843 0
M  V30 12250 C 1137.41 3.49615 -2.44278 0
M  V30 12251 S 1138.24 3.4822 -4.06821 0
M  V30 12252 C 1139.39 4.8831 -3.91541 0
M  V30 12253 H 1139.63 1.75858 -2.3971 0
M  V30 12254 H 1137.16 0.814834 -1.31148 0
M  V30 12255 H 1139.12 3.93376 -1.17327 0
M  V30 12256 H 1137.78 3.12342 -0.331872 0
M  V30 12257 H 1136.97 4.49611 -2.2774 0
M  V30 12258 H 1136.57 2.77732 -2.50482 0
M  V30 12259 H 1138.87 5.77282 -3.54615 0
M  V30 12260 H 1139.81 5.099 -4.91333 0
M  V30 12261 H 1140.22 4.62414 -3.2378 0
M  V30 12262 N 1139.62 1.30703 0.880598 0
M  V30 12263 C 1140.86 1.19541 1.62955 0
M  V30 12264 C 1141.18 -0.249089 1.93403 0
M  V30 12265 O 1140.45 -1.1669 1.57354 0
M  V30 12266 H 1139.03 0.439434 0.604075 0
M  V30 12267 H 1141.7 1.63888 1.05483 0
M  V30 12268 H 1140.79 1.75945 2.57779 0
M  V30 12269 N 1141.09 -1.09351 1.1349 0
M  V30 12270 C 1142.32 -1.85844 0.92069 0
M  V30 12271 C 1142.74 -1.80616 -0.525303 0
M  V30 12272 O 1142.1 -1.1842 -1.37282 0
M  V30 12273 C 1142.15 -3.31716 1.4141 0
M  V30 12274 O 1141.25 -4.08014 0.599838 0
M  V30 12275 H 1140.59 -0.576242 0.32991 0
M  V30 12276 H 1143.12 -1.38084 1.50976 0
M  V30 12277 H 1143.13 -3.82564 1.41805 0
M  V30 12278 H 1141.81 -3.34837 2.46692 0
M  V30 12279 H 1140.39 -3.66944 0.663816 0
M  V30 12280 N 1142.57 -0.928524 -1.27343 0
M  V30 12281 C 1143.98 -0.613856 -1.7632 0
M  V30 12282 C 1144.33 0.870983 -1.75808 0
M  V30 12283 O 1143.46 1.68155 -1.36209 0
M  V30 12284 C 1144.05 -1.10755 -3.20186 0
M  V30 12285 C 1142.61 -0.843532 -3.66826 0
M  V30 12286 C 1141.76 -1.26579 -2.46724 0
M  V30 12287 H 1144.71 -1.10821 -1.13598 0
M  V30 12288 H 1144.73 -0.455598 -3.77763 0
M  V30 12289 H 1144.24 -2.18825 -3.20526 0
M  V30 12290 H 1142.34 0.223334 -3.7193 0
M  V30 12291 H 1142.46 -1.46165 -4.56259 0
M  V30 12292 H 1140.82 -0.684334 -2.45334 0
M  V30 12293 H 1141.6 -2.35516 -2.49774 0
M  V30 12294 N 1144.05 1.41491 -0.694123 0
M  V30 12295 C 1145.28 2.0528 -0.233128 0
M  V30 12296 C 1145.69 1.52329 1.12217 0
M  V30 12297 O 1145.03 0.66579 1.7121 0
M  V30 12298 C 1145.09 3.59326 -0.111718 0
M  V30 12299 C 1144.76 4.35065 -1.39882 0
M  V30 12300 C 1145.75 4.64446 -2.33637 0
M  V30 12301 C 1143.44 4.74364 -1.65179 0
M  V30 12302 C 1145.43 5.32083 -3.50951 0
M  V30 12303 C 1143.12 5.41737 -2.82779 0
M  V30 12304 C 1144.12 5.70524 -3.75488 0
M  V30 12305 O 1143.81 6.36511 -4.91029 0
M  V30 12306 H 1143.54 0.667571 -0.106418 0
M  V30 12307 H 1146.09 1.82276 -0.94682 0
M  V30 12308 H 1144.32 3.81065 0.65773 0
M  V30 12309 H 1146.01 4.047 0.311906 0
M  V30 12310 H 1146.78 4.34568 -2.1535 0
M  V30 12311 H 1142.66 4.5134 -0.93881 0
M  V30 12312 H 1146.2 5.54468 -4.23333 0
M  V30 12313 H 1142.1 5.71033 -3.00984 0
M  V30 12314 H 1142.86 6.55006 -4.90825 0
M  V30 12315 N 1145.53 0.438773 1.51369 0
M  V30 12316 C 1146.94 0.0911416 1.5934 0
M  V30 12317 C 1147.14 -1.39962 1.44958 0
M  V30 12318 O 1146.2 -2.16968 1.29155 0
M  V30 12319 C 1147.51 0.612531 2.94395 0
M  V30 12320 C 1149.06 0.573098 3.07709 0
M  V30 12321 C 1149.54 1.07149 4.4529 0
M  V30 12322 N 1151.03 1.02953 4.51614 0
M  V30 12323 C 1151.76 1.38602 5.56397 0
M  V30 12324 N 1151.26 1.81543 6.68591 0
M  V30 12325 N 1153.05 1.30409 5.46763 0
M  V30 12326 H 1145.2 1.40872 1.58962 0
M  V30 12327 H 1147.46 0.580589 0.749414 0
M  V30 12328 H 1147.17 1.65562 3.10294 0
M  V30 12329 H 1147.04 0.0382375 3.77181 0
M  V30 12330 H 1149.43 -0.461006 2.91477 0
M  V30 12331 H 1149.51 1.18381 2.26759 0
M  V30 12332 H 1149.16 2.10406 4.62268 0
M  V30 12333 H 1149.09 0.437297 5.24781 0
M  V30 12334 H 1151.58 0.714208 3.7109 0
M  V30 12335 H 1151.89 2.06977 7.44567 0
M  V30 12336 H 1150.24 1.8547 6.69795 0
M  V30 12337 H 1153.43 0.967272 4.57997 0
M  V30 12338 H 1153.6 1.5852 6.28312 0
M  V30 12339 N 1147.01 -1.56678 0.170181 0
M  V30 12340 C 1148.28 -1.88524 -0.521362 0
M  V30 12341 C 1148.66 -1.07989 -1.81388 0
M  V30 12342 O 1148.01 -0.17347 -2.27841 0
M  V30 12343 C 1148.22 -3.40527 -0.764367 0
M  V30 12344 C 1149.57 -4.10241 -1.09487 0
M  V30 12345 O 1150.59 -3.45837 -0.852945 0
M  V30 12346 O 1149.45 -5.24022 -1.55124 0
M  V30 12347 H 1146.55 -0.782161 -0.268614 0
M  V30 12348 H 1149.09 -1.68414 0.208531 0
M  V30 12349 H 1147.86 -3.91015 0.149416 0
M  V30 12350 H 1147.49 -3.66244 -1.54762 0
M  V30 12351 N 1148.48 0.103547 -1.57259 0
M  V30 12352 C 1149.43 1.12621 -2.01458 0
M  V30 12353 C 1150.4 1.40282 -0.889391 0
M  V30 12354 O 1151.59 1.51887 -1.15477 0
M  V30 12355 C 1148.73 2.44352 -2.43692 0
M  V30 12356 C 1147.84 2.23495 -3.69695 0
M  V30 12357 C 1146.97 3.48565 -4.00844 0
M  V30 12358 C 1146.01 3.22932 -5.19982 0
M  V30 12359 N 1145.15 4.40246 -5.46926 0
M  V30 12360 H 1149.99 0.742315 -2.88606 0
M  V30 12361 H 1147.53 0.355016 -1.42752 0
M  V30 12362 H 1149.48 3.2122 -2.66221 0
M  V30 12363 H 1148.11 2.80605 -1.59565 0
M  V30 12364 H 1147.17 1.3747 -3.54692 0
M  V30 12365 H 1148.48 2.0054 -4.56711 0
M  V30 12366 H 1147.63 4.33844 -4.24104 0
M  V30 12367 H 1146.37 3.74565 -3.12333 0
M  V30 12368 H 1145.38 2.36045 -4.96551 0
M  V30 12369 H 1146.6 2.98286 -6.10084 0
M  V30 12370 H 1144.55 4.66338 -4.61373 0
M  V30 12371 H 1144.46 4.20452 -6.28296 0
M  V30 12372 H 1145.73 5.26614 -5.74716 0
M  V30 12373 N 1149.96 1.53094 0.37415 0
M  V30 12374 C 1151.21 1.68082 1.11495 0
M  V30 12375 C 1151.52 0.434685 1.90709 0
M  V30 12376 O 1152.73 0.464956 2.67489 0
M  V30 12377 C 1151.19 2.97101 2.03124 0
M  V30 12378 C 1150.79 4.28947 1.29262 0
M  V30 12379 C 1152.54 3.21456 2.77248 0
M  V30 12380 C 1150.44 5.4906 2.19743 0
M  V30 12381 H 1149.37 0.626238 0.419931 0
M  V30 12382 H 1152.03 1.79594 0.376588 0
M  V30 12383 H 1150.41 2.79371 2.80656 0
M  V30 12384 H 1151.58 4.57279 0.568528 0
M  V30 12385 H 1149.9 4.10968 0.670362 0
M  V30 12386 H 1152.49 4.08377 3.45155 0
M  V30 12387 H 1152.84 2.37153 3.42146 0
M  V30 12388 H 1153.37 3.3982 2.06803 0
M  V30 12389 H 1150.11 6.35815 1.59437 0
M  V30 12390 H 1149.63 5.25019 2.90027 0
M  V30 12391 H 1151.31 5.83517 2.79495 0
M  V30 12392 N 1151.44 -0.633461 1.44309 0
M  V30 12393 C 1152.67 -1.42033 1.50447 0
M  V30 12394 C 1153.08 -1.88362 0.128585 0
M  V30 12395 O 1152.44 -1.60695 -0.865071 0
M  V30 12396 C 1152.49 -2.6422 2.46719 0
M  V30 12397 O 1152.21 -2.19823 3.78958 0
M  V30 12398 C 1153.71 -3.57372 2.62298 0
M  V30 12399 H 1150.93 -0.435667 0.510329 0
M  V30 12400 H 1153.48 -0.774907 1.8925 0
M  V30 12401 H 1151.63 -3.24859 2.11058 0
M  V30 12402 H 1152.05 -2.99022 4.30913 0
M  V30 12403 H 1153.52 -4.39719 3.33693 0
M  V30 12404 H 1154 -4.06026 1.67449 0
M  V30 12405 H 1154.6 -3.02603 2.9885 0
M  V30 12406 N 1152.92 -1.31168 -0.873655 0
M  V30 12407 C 1154.17 -1.20003 -1.62118 0
M  V30 12408 C 1154.48 0.241505 -1.94103 0
M  V30 12409 O 1155.69 0.474801 -2.67316 0
M  V30 12410 C 1154.14 -2.10055 -2.92241 0
M  V30 12411 C 1153.75 -3.59183 -2.67752 0
M  V30 12412 C 1155.49 -2.07681 -3.70228 0
M  V30 12413 C 1153.4 -4.41255 -3.93761 0
M  V30 12414 H 1152.33 -0.445564 -0.608267 0
M  V30 12415 H 1154.98 -1.55997 -0.966287 0
M  V30 12416 H 1153.36 -1.66956 -3.59085 0
M  V30 12417 H 1154.54 -4.10504 -2.09339 0
M  V30 12418 H 1152.85 -3.63496 -2.03125 0
M  V30 12419 H 1155.45 -2.66246 -4.637 0
M  V30 12420 H 1155.79 -1.06304 -4.02499 0
M  V30 12421 H 1156.33 -2.48961 -3.10263 0
M  V30 12422 H 1153.07 -5.43372 -3.66643 0
M  V30 12423 H 1152.59 -3.94694 -4.51638 0
M  V30 12424 H 1154.26 -4.53278 -4.6168 0
M  V30 12425 N 1154.4 1.08748 -1.14068 0
M  V30 12426 C 1155.36 2.1375 -0.827266 0
M  V30 12427 C 1156.36 1.59936 0.166496 0
M  V30 12428 O 1157.55 1.74092 -0.0614305 0
M  V30 12429 C 1154.68 3.40106 -0.232557 0
M  V30 12430 H 1155.87 2.42985 -1.7578 0
M  V30 12431 H 1153.43 1.24402 -0.946244 0
M  V30 12432 H 1154.16 3.16503 0.706859 0
M  V30 12433 H 1153.95 3.8046 -0.948293 0
M  V30 12434 H 1155.44 4.17589 -0.0303662 0
M  V30 12435 N 1155.87 0.935264 1.26849 0
M  V30 12436 C 1157.12 0.575467 1.93317 0
M  V30 12437 C 1157.44 -0.88876 1.74242 0
M  V30 12438 O 1158.64 -1.35767 2.35116 0
M  V30 12439 C 1157.1 0.978433 3.46345 0
M  V30 12440 C 1156.71 2.46386 3.74163 0
M  V30 12441 C 1158.45 0.690249 4.18851 0
M  V30 12442 C 1156.36 2.80584 5.20602 0
M  V30 12443 H 1155.29 0.211506 0.723727 0
M  V30 12444 H 1157.94 1.1371 1.44022 0
M  V30 12445 H 1156.32 0.345379 3.94491 0
M  V30 12446 H 1157.49 3.14547 3.36745 0
M  V30 12447 H 1155.81 2.72473 3.14877 0
M  V30 12448 H 1158.41 0.922151 5.26688 0
M  V30 12449 H 1158.75 -0.372805 4.14627 0
M  V30 12450 H 1159.28 1.28275 3.76551 0
M  V30 12451 H 1156.02 3.85828 5.29921 0
M  V30 12452 H 1155.54 2.1708 5.59139 0
M  V30 12453 H 1157.22 2.68732 5.88551 0
M  V30 12454 N 1157.35 -1.41121 0.701616 0
M  V30 12455 C 1158.28 -2.33436 0.0545974 0
M  V30 12456 C 1159.26 -1.52144 -0.760662 0
M  V30 12457 O 1160.45 -1.80661 -0.712414 0
M  V30 12458 C 1157.58 -3.36015 -0.878117 0
M  V30 12459 C 1156.53 -4.27664 -0.169511 0
M  V30 12460 C 1155.86 -5.20666 -1.21699 0
M  V30 12461 C 1157.16 -5.13254 0.967859 0
M  V30 12462 H 1158.85 -2.87791 0.825637 0
M  V30 12463 H 1156.4 -1.38377 0.398484 0
M  V30 12464 H 1158.35 -3.99526 -1.34004 0
M  V30 12465 H 1157.08 -2.80024 -1.68089 0
M  V30 12466 H 1155.73 -3.65586 0.272441 0
M  V30 12467 H 1155.38 -4.60987 -2.01246 0
M  V30 12468 H 1155.08 -5.82822 -0.747836 0
M  V30 12469 H 1156.61 -5.87053 -1.6793 0
M  V30 12470 H 1158.02 -5.70298 0.585944 0
M  V30 12471 H 1156.42 -5.84381 1.3645 0
M  V30 12472 H 1157.49 -4.5006 1.80483 0
M  V30 12473 N 1158.83 -0.446794 -1.51134 0
M  V30 12474 C 1159.76 0.395804 -2.25757 0
M  V30 12475 C 1160.78 0.978178 -1.30137 0
M  V30 12476 O 1161.96 0.87071 -1.55823 0
M  V30 12477 C 1159.06 1.56665 -3.00515 0
M  V30 12478 C 1158.24 1.10146 -4.23305 0
M  V30 12479 C 1157.3 2.14352 -4.80562 0
M  V30 12480 O 1156.32 1.73401 -5.42145 0
M  V30 12481 N 1157.52 3.46932 -4.65423 0
M  V30 12482 H 1160.29 -0.243808 -2.98707 0
M  V30 12483 H 1157.85 -0.276205 -1.59527 0
M  V30 12484 H 1159.84 2.26019 -3.35704 0
M  V30 12485 H 1158.41 2.11142 -2.30516 0
M  V30 12486 H 1157.63 0.234644 -3.93501 0
M  V30 12487 H 1158.92 0.768185 -5.02968 0
M  V30 12488 H 1158.32 3.82929 -4.16391 0
M  V30 12489 H 1156.88 4.12154 -5.04948 0
M  V30 12490 N 1160.31 1.56586 -0.178487 0
M  V30 12491 C 1161.24 2.21313 0.744486 0
M  V30 12492 C 1162.22 1.17098 1.23377 0
M  V30 12493 O 1163.4 1.45551 1.28563 0
M  V30 12494 C 1160.53 2.8595 1.97103 0
M  V30 12495 C 1159.49 3.96266 1.61732 0
M  V30 12496 C 1158.81 4.47987 2.91911 0
M  V30 12497 C 1160.11 5.15503 0.839868 0
M  V30 12498 H 1161.81 2.98698 0.204938 0
M  V30 12499 H 1159.35 1.43672 0.0971306 0
M  V30 12500 H 1161.31 3.29909 2.6218 0
M  V30 12501 H 1160.03 2.05946 2.53484 0
M  V30 12502 H 1158.69 3.52974 0.990208 0
M  V30 12503 H 1158.34 3.64765 3.46346 0
M  V30 12504 H 1158.04 5.22413 2.68995 0
M  V30 12505 H 1159.56 4.94637 3.58004 0
M  V30 12506 H 1160.98 5.5611 1.39337 0
M  V30 12507 H 1159.37 5.95891 0.709473 0
M  V30 12508 H 1160.44 4.84628 -0.162396 0
M  V30 12509 N 1161.79 -0.095206 1.57312 0
M  V30 12510 C 1162.72 -1.14173 1.98739 0
M  V30 12511 C 1163.73 -1.36323 0.889934 0
M  V30 12512 O 1164.92 -1.34977 1.16805 0
M  V30 12513 C 1162.02 -2.49729 2.29104 0
M  V30 12514 C 1161.19 -2.47857 3.60396 0
M  V30 12515 C 1160.25 -3.65341 3.78699 0
M  V30 12516 O 1159.28 -3.47837 4.50553 0
M  V30 12517 N 1160.48 -4.84818 3.19268 0
M  V30 12518 H 1163.25 -0.789126 2.89124 0
M  V30 12519 H 1160.81 -0.284187 1.59386 0
M  V30 12520 H 1162.8 -3.26925 2.38541 0
M  V30 12521 H 1161.37 -2.7708 1.44726 0
M  V30 12522 H 1160.59 -1.56208 3.61929 0
M  V30 12523 H 1161.88 -2.43685 4.46649 0
M  V30 12524 H 1161.27 -5.01943 2.60902 0
M  V30 12525 H 1159.83 -5.59607 3.34191 0
M  V30 12526 N 1163.26 -1.53291 -0.366026 0
M  V30 12527 C 1164.17 -1.82656 -1.47221 0
M  V30 12528 C 1165.19 -0.71491 -1.58635 0
M  V30 12529 O 1166.37 -1.00492 -1.74538 0
M  V30 12530 C 1163.43 -2.00995 -2.82492 0
M  V30 12531 C 1162.49 -3.24895 -2.8061 0
M  V30 12532 C 1161.73 -3.4235 -4.09429 0
M  V30 12533 O 1161.95 -2.6411 -5.05571 0
M  V30 12534 O 1160.88 -4.35702 -4.15268 0
M  V30 12535 H 1164.71 -2.76634 -1.2533 0
M  V30 12536 H 1162.29 -1.38665 -0.556084 0
M  V30 12537 H 1164.18 -2.14632 -3.62645 0
M  V30 12538 H 1162.85 -1.10207 -3.04362 0
M  V30 12539 H 1161.76 -3.16682 -1.99157 0
M  V30 12540 H 1163.09 -4.15604 -2.63694 0
M  V30 12541 N 1164.74 0.6258 -1.44643 0
M  V30 12542 C 1165.65 1.76611 -1.5442 0
M  V30 12543 C 1166.67 1.68614 -0.429576 0
M  V30 12544 O 1167.84 1.89296 -0.687686 0
M  V30 12545 C 1164.91 3.13015 -1.49071 0
M  V30 12546 C 1163.97 3.32604 -2.71428 0
M  V30 12547 C 1163.2 4.62501 -2.66325 0
M  V30 12548 O 1163.43 5.43651 -1.72626 0
M  V30 12549 O 1162.36 4.84408 -3.57258 0
M  V30 12550 H 1166.19 1.71315 -2.50769 0
M  V30 12551 H 1163.77 0.787677 -1.26949 0
M  V30 12552 H 1165.65 3.94318 -1.48631 0
M  V30 12553 H 1164.33 3.18842 -0.558686 0
M  V30 12554 H 1163.24 2.50959 -2.77435 0
M  V30 12555 H 1164.57 3.31642 -3.63695 0
M  V30 12556 N 1166.22 1.31629 0.866686 0
M  V30 12557 C 1167.5 1.12136 1.60265 0
M  V30 12558 C 1167.88 -0.322729 2.08618 0
M  V30 12559 O 1167.23 -1.31738 1.86701 0
M  V30 12560 C 1167.44 2.13845 2.7581 0
M  V30 12561 C 1168.78 2.46541 3.45692 0
M  V30 12562 O 1169.81 2.12298 2.86021 0
M  V30 12563 O 1168.67 3.05194 4.53342 0
M  V30 12564 H 1165.76 0.431923 0.705246 0
M  V30 12565 H 1168.31 1.43119 0.911863 0
M  V30 12566 H 1167.08 3.10967 2.37518 0
M  V30 12567 H 1166.7 1.83786 3.52574 0
M  V30 12568 N 1167.7 -1.08142 1.14644 0
M  V30 12569 C 1168.65 -2.15133 0.835845 0
M  V30 12570 C 1169.62 -1.64795 -0.207785 0
M  V30 12571 O 1170.8 -1.90644 -0.07711 0
M  V30 12572 C 1167.94 -3.4359 0.322456 0
M  V30 12573 C 1167.05 -4.07761 1.42671 0
M  V30 12574 C 1166.19 -5.24022 0.870281 0
M  V30 12575 C 1165.23 -5.8014 1.95202 0
M  V30 12576 N 1164.37 -6.87743 1.41257 0
M  V30 12577 H 1169.21 -2.41042 1.75222 0
M  V30 12578 H 1166.74 -1.18288 0.874428 0
M  V30 12579 H 1168.7 -4.17199 0.00657059 0
M  V30 12580 H 1167.33 -3.17958 -0.557014 0
M  V30 12581 H 1166.38 -3.31885 1.85893 0
M  V30 12582 H 1167.69 -4.45485 2.24375 0
M  V30 12583 H 1166.85 -6.04582 0.506459 0
M  V30 12584 H 1165.59 -4.87695 0.0223118 0
M  V30 12585 H 1164.59 -4.98232 2.32476 0
M  V30 12586 H 1165.82 -6.18525 2.80363 0
M  V30 12587 H 1163.76 -6.5337 0.586826 0
M  V30 12588 H 1163.68 -7.24308 2.16596 0
M  V30 12589 H 1164.95 -7.72028 1.07674 0
M  V30 12590 N 1169.18 -0.941978 -1.26351 0
M  V30 12591 C 1170.11 -0.469913 -2.28723 0
M  V30 12592 C 1171.09 0.477218 -1.63269 0
M  V30 12593 O 1172.27 0.378902 -1.90468 0
M  V30 12594 C 1169.4 0.264971 -3.46288 0
M  V30 12595 C 1168.36 -0.595682 -4.23834 0
M  V30 12596 C 1167.68 0.269208 -5.34022 0
M  V30 12597 C 1168.98 -1.86743 -4.87775 0
M  V30 12598 H 1170.68 -1.32551 -2.6846 0
M  V30 12599 H 1168.22 -0.638809 -1.29055 0
M  V30 12600 H 1170.18 0.606259 -4.17016 0
M  V30 12601 H 1168.9 1.15471 -3.05506 0
M  V30 12602 H 1167.56 -0.919875 -3.54872 0
M  V30 12603 H 1167.21 1.15832 -4.89481 0
M  V30 12604 H 1166.91 -0.30325 -5.86817 0
M  V30 12605 H 1168.43 0.605748 -6.07588 0
M  V30 12606 H 1169.85 -1.59333 -5.50714 0
M  V30 12607 H 1168.24 -2.38452 -5.50691 0
M  V30 12608 H 1169.31 -2.57831 -4.10671 0
M  V30 12609 N 1170.66 1.40747 -0.709091 0
M  V30 12610 C 1171.61 2.27982 -0.0289269 0
M  V30 12611 C 1172.59 1.42917 0.739164 0
M  V30 12612 O 1173.78 1.66067 0.612433 0
M  V30 12613 C 1170.91 3.31378 0.896856 0
M  V30 12614 C 1170 4.23918 0.124296 0
M  V30 12615 N 1170.39 4.97925 -0.889043 0
M  V30 12616 C 1168.69 4.44562 0.357808 0
M  V30 12617 C 1169.39 5.65754 -1.35268 0
M  V30 12618 N 1168.36 5.3938 -0.676047 0
M  V30 12619 H 1172.16 2.82641 -0.805676 0
M  V30 12620 H 1169.68 1.5312 -0.541105 0
M  V30 12621 H 1171.68 3.92712 1.39939 0
M  V30 12622 H 1170.34 2.78279 1.67305 0
M  V30 12623 H 1171.35 5.02095 -1.2697 0
M  V30 12624 H 1168.02 4.02451 1.11084 0
M  V30 12625 H 1169.41 6.35058 -2.19432 0
M  V30 12626 N 1172.13 0.454803 1.50895 0
M  V30 12627 C 1173.38 -0.107367 2.01414 0
M  V30 12628 C 1173.7 -1.42243 1.34262 0
M  V30 12629 O 1174.9 -2.06858 1.75846 0
M  V30 12630 C 1173.36 -0.241872 3.59086 0
M  V30 12631 C 1172.97 1.06379 4.35187 0
M  V30 12632 C 1174.71 -0.756873 4.17698 0
M  V30 12633 C 1172.62 0.893973 5.84604 0
M  V30 12634 H 1171.55 -0.0439003 0.752721 0
M  V30 12635 H 1174.2 0.587225 1.7385 0
M  V30 12636 H 1172.58 -0.999873 3.83169 0
M  V30 12637 H 1173.75 1.83148 4.2284 0
M  V30 12638 H 1172.07 1.50865 3.88109 0
M  V30 12639 H 1174.67 -0.900697 5.27059 0
M  V30 12640 H 1175.01 -1.74397 3.7801 0
M  V30 12641 H 1175.54 -0.0567088 3.9776 0
M  V30 12642 H 1172.28 1.85395 6.28736 0
M  V30 12643 H 1171.8 0.166387 5.99569 0
M  V30 12644 H 1173.48 0.554084 6.44623 0
M  V30 12645 N 1173.61 -1.56489 0.186789 0
M  V30 12646 C 1174.54 -2.14583 -0.776487 0
M  V30 12647 C 1175.52 -1.0802 -1.21534 0
M  V30 12648 O 1176.71 -1.36085 -1.30434 0
M  V30 12649 C 1173.83 -2.69798 -2.04761 0
M  V30 12650 C 1172.88 -3.88874 -1.75155 0
M  V30 12651 S 1173.71 -5.27763 -0.907026 0
M  V30 12652 C 1174.87 -5.86393 -2.18847 0
M  V30 12653 H 1175.1 -2.95954 -0.282602 0
M  V30 12654 H 1172.63 -1.54374 -0.0280989 0
M  V30 12655 H 1174.59 -3.02254 -2.77764 0
M  V30 12656 H 1173.25 -1.88484 -2.51262 0
M  V30 12657 H 1172.45 -4.25888 -2.69509 0
M  V30 12658 H 1172.05 -3.57384 -1.10239 0
M  V30 12659 H 1174.34 -6.00249 -3.14177 0
M  V30 12660 H 1175.28 -6.83159 -1.86278 0
M  V30 12661 H 1175.69 -5.14931 -2.31314 0
M  V30 12662 N 1175.09 0.086862 -1.5736 0
M  V30 12663 C 1176.04 1.10478 -2.02641 0
M  V30 12664 C 1177.01 1.39331 -0.904219 0
M  V30 12665 O 1178.19 1.50654 -1.17081 0
M  V30 12666 C 1175.33 2.41754 -2.4627 0
M  V30 12667 C 1174.44 2.19561 -3.72044 0
M  V30 12668 C 1173.58 3.44294 -4.04519 0
M  V30 12669 C 1172.62 3.17399 -5.23378 0
M  V30 12670 N 1171.76 4.3442 -5.51564 0
M  V30 12671 H 1176.6 0.711663 -2.89378 0
M  V30 12672 H 1174.13 0.339856 -1.4312 0
M  V30 12673 H 1176.09 3.18378 -2.69613 0
M  V30 12674 H 1174.72 2.78896 -1.62532 0
M  V30 12675 H 1173.77 1.337 -3.5613 0
M  V30 12676 H 1175.08 1.95685 -4.58812 0
M  V30 12677 H 1174.24 4.29321 -4.28682 0
M  V30 12678 H 1172.98 3.71232 -3.16289 0
M  V30 12679 H 1171.98 2.30765 -4.99026 0
M  V30 12680 H 1173.21 2.91799 -6.13213 0
M  V30 12681 H 1171.15 4.61418 -4.66293 0
M  V30 12682 H 1171.07 4.13764 -6.3272 0
M  V30 12683 H 1172.34 5.20489 -5.80269 0
M  V30 12684 N 1176.57 1.53483 0.357892 0
M  V30 12685 C 1177.48 1.83434 1.4625 0
M  V30 12686 C 1178.49 0.723313 1.58254 0
M  V30 12687 O 1179.67 1.01416 1.74002 0
M  V30 12688 C 1176.73 2.0249 2.81423 0
M  V30 12689 C 1175.8 3.26378 2.78883 0
M  V30 12690 C 1175.03 3.44516 4.07608 0
M  V30 12691 O 1175.25 2.66787 5.04163 0
M  V30 12692 O 1174.19 4.37898 4.12952 0
M  V30 12693 H 1178.01 2.77294 1.23861 0
M  V30 12694 H 1175.6 1.38958 0.548722 0
M  V30 12695 H 1177.48 2.16552 3.61501 0
M  V30 12696 H 1176.15 1.11819 3.03773 0
M  V30 12697 H 1175.06 3.17733 1.97475 0
M  V30 12698 H 1176.39 4.16996 2.61486 0
M  V30 12699 N 1178.05 -0.61812 1.44973 0
M  V30 12700 C 1178.99 -1.72942 1.52838 0
M  V30 12701 C 1179.96 -1.6181 0.375056 0
M  V30 12702 O 1181.15 -1.81544 0.587075 0
M  V30 12703 C 1178.29 -3.11228 1.49101 0
M  V30 12704 C 1177.4 -3.33243 2.74906 0
M  V30 12705 C 1176.54 -4.61574 2.62912 0
M  V30 12706 C 1175.57 -4.76811 3.8382 0
M  V30 12707 N 1174.71 -5.96432 3.70424 0
M  V30 12708 H 1179.55 -1.65556 2.47781 0
M  V30 12709 H 1177.09 -0.807411 1.2296 0
M  V30 12710 H 1179.05 -3.9122 1.44923 0
M  V30 12711 H 1177.68 -3.17598 0.577163 0
M  V30 12712 H 1176.73 -2.471 2.89216 0
M  V30 12713 H 1178.04 -3.40377 3.64616 0
M  V30 12714 H 1177.19 -5.49746 2.56641 0
M  V30 12715 H 1175.93 -4.5682 1.70784 0
M  V30 12716 H 1174.94 -3.87066 3.90461 0
M  V30 12717 H 1176.16 -4.83371 4.77001 0
M  V30 12718 H 1174.11 -5.92742 2.81057 0
M  V30 12719 H 1174.03 -6.0468 4.5376 0
M  V30 12720 H 1175.29 -6.8713 3.68067 0
M  V30 12721 N 1179.52 -1.32087 -0.859693 0
M  V30 12722 C 1180.77 -1.23551 -1.61575 0
M  V30 12723 C 1181.12 0.20199 -1.91337 0
M  V30 12724 O 1180.42 1.13834 -1.54118 0
M  V30 12725 C 1180.61 -2.0234 -2.94607 0
M  V30 12726 C 1180.44 -3.53606 -2.77836 0
M  V30 12727 C 1179.21 -4.22948 -2.76483 0
M  V30 12728 C 1181.41 -4.48356 -2.51955 0
M  V30 12729 N 1179.39 -5.60301 -2.5087 0
M  V30 12730 C 1180.76 -5.7345 -2.35702 0
M  V30 12731 C 1182.82 -4.37669 -2.37383 0
M  V30 12732 C 1181.52 -6.89064 -2.06357 0
M  V30 12733 C 1183.55 -5.53077 -2.09427 0
M  V30 12734 C 1182.91 -6.77167 -1.93971 0
M  V30 12735 H 1179.01 -0.507252 -0.595164 0
M  V30 12736 H 1181.59 -1.66395 -1.01098 0
M  V30 12737 H 1179.76 -1.6185 -3.53071 0
M  V30 12738 H 1181.49 -1.8574 -3.59559 0
M  V30 12739 H 1178.25 -3.75017 -2.89239 0
M  V30 12740 H 1178.67 -6.32649 -2.41006 0
M  V30 12741 H 1183.31 -3.42386 -2.48056 0
M  V30 12742 H 1181.03 -7.84363 -1.94421 0
M  V30 12743 H 1184.62 -5.46731 -1.98937 0
M  V30 12744 H 1183.5 -7.64959 -1.72646 0
M  V30 12745 N 1181 1.07532 -1.15215 0
M  V30 12746 C 1182.25 1.8052 -0.937234 0
M  V30 12747 C 1182.6 1.84954 0.530084 0
M  V30 12748 O 1181.9 1.32091 1.3879 0
M  V30 12749 C 1182.09 3.2518 -1.483 0
M  V30 12750 C 1181.92 3.34841 -3.00185 0
M  V30 12751 C 1180.69 3.45509 -3.68716 0
M  V30 12752 C 1182.89 3.25749 -3.97985 0
M  V30 12753 N 1180.87 3.44055 -5.08429 0
M  V30 12754 C 1182.24 3.31391 -5.24004 0
M  V30 12755 C 1184.29 3.09547 -3.89981 0
M  V30 12756 C 1183 3.22498 -6.42952 0
M  V30 12757 C 1185.02 3.01987 -5.08486 0
M  V30 12758 C 1184.39 3.08239 -6.33378 0
M  V30 12759 H 1180.48 0.673971 -0.396594 0
M  V30 12760 H 1183.07 1.2837 -1.46387 0
M  V30 12761 H 1181.24 3.75754 -0.983021 0
M  V30 12762 H 1182.97 3.86279 -1.20709 0
M  V30 12763 H 1179.73 3.49778 -3.193 0
M  V30 12764 H 1180.15 3.4686 -5.81392 0
M  V30 12765 H 1184.79 3.03568 -2.94289 0
M  V30 12766 H 1182.51 3.27236 -7.38879 0
M  V30 12767 H 1186.1 2.90557 -5.04051 0
M  V30 12768 H 1184.98 3.02431 -7.23537 0
M  V30 12769 N 1182.48 0.948665 1.2585 0
M  V30 12770 C 1183.9 0.652147 1.45668 0
M  V30 12771 C 1184.1 -0.792217 1.85273 0
M  V30 12772 O 1183.15 -1.56812 1.97905 0
M  V30 12773 C 1184.47 1.61998 2.53332 0
M  V30 12774 C 1186.01 1.6305 2.67178 0
M  V30 12775 C 1186.49 2.58582 3.78021 0
M  V30 12776 N 1187.98 2.56911 3.85423 0
M  V30 12777 C 1188.71 3.27511 4.70664 0
M  V30 12778 N 1188.21 4.07563 5.60236 0
M  V30 12779 N 1190 3.16427 4.64576 0
M  V30 12780 H 1182.15 1.88215 0.984325 0
M  V30 12781 H 1184.42 0.809251 0.493778 0
M  V30 12782 H 1184.12 2.65137 2.31075 0
M  V30 12783 H 1184 1.37784 3.51134 0
M  V30 12784 H 1186.38 0.606315 2.88804 0
M  V30 12785 H 1186.47 1.9132 1.69795 0
M  V30 12786 H 1186.11 3.61122 3.57146 0
M  V30 12787 H 1186.04 2.27598 4.74875 0
M  V30 12788 H 1188.53 1.9879 3.21389 0
M  V30 12789 H 1188.84 4.58367 6.22189 0
M  V30 12790 H 1187.19 4.11662 5.59964 0
M  V30 12791 H 1190.38 2.53364 3.93604 0
M  V30 12792 H 1190.55 3.71714 5.30785 0
M  V30 12793 N 1183.96 -1.40369 0.716545 0
M  V30 12794 C 1185.21 -2.00473 0.255959 0
M  V30 12795 C 1185.53 -1.57104 -1.15514 0
M  V30 12796 O 1184.8 -0.810925 -1.78328 0
M  V30 12797 H 1183.38 -0.741357 0.0916427 0
M  V30 12798 H 1186.04 -1.71692 0.922389 0
M  V30 12799 H 1185.14 -3.10752 0.289806 0
M  V30 12800 N 1185.44 -0.462799 -1.50652 0
M  V30 12801 C 1186.66 0.0952726 -2.07181 0
M  V30 12802 C 1187.09 1.33479 -1.32533 0
M  V30 12803 O 1186.44 1.77473 -0.370564 0
M  V30 12804 C 1186.49 0.370592 -3.58691 0
M  V30 12805 O 1185.6 1.4526 -3.85971 0
M  V30 12806 H 1184.94 -0.00932702 -0.663934 0
M  V30 12807 H 1187.47 -0.651458 -1.93951 0
M  V30 12808 H 1187.48 0.613551 -4.0336 0
M  V30 12809 H 1186.15 -0.535219 -4.12442 0
M  V30 12810 H 1184.73 1.1976 -3.53146 0
M  V30 12811 N 1186.91 1.56388 -0.195085 0
M  V30 12812 C 1188.16 1.97189 0.44281 0
M  V30 12813 C 1188.48 1.08312 1.62153 0
M  V30 12814 O 1187.75 0.154404 1.95291 0
M  V30 12815 H 1186.33 0.728188 0.166585 0
M  V30 12816 H 1189 1.92852 -0.281815 0
M  V30 12817 H 1188.09 3.02016 0.786945 0
M  V30 12818 N 1188.39 -0.0785156 1.57404 0
M  V30 12819 C 1189.63 -0.784359 1.88752 0
M  V30 12820 C 1190 -1.75081 0.788079 0
M  V30 12821 O 1191.2 -2.50125 0.984431 0
M  V30 12822 C 1189.47 -1.47962 3.25334 0
M  V30 12823 S 1191.03 -2.22146 3.78413 0
M  V30 12824 H 1187.85 -0.260976 0.661372 0
M  V30 12825 H 1190.45 -0.0407396 1.95458 0
M  V30 12826 H 1189.15 -0.762338 4.03257 0
M  V30 12827 H 1188.68 -2.26281 3.21808 0
M  V30 12828 H 1190.7 -3.48558 3.5316 0
M  V30 12829 N 1189.87 -1.5367 -0.349747 0
M  V30 12830 C 1191.28 -1.62135 -0.925704 0
M  V30 12831 C 1191.63 -0.498725 -1.89756 0
M  V30 12832 O 1190.76 0.372481 -2.1317 0
M  V30 12833 C 1191.35 -2.93885 -1.68573 0
M  V30 12834 C 1189.91 -3.04632 -2.2108 0
M  V30 12835 C 1189.06 -2.57541 -1.02801 0
M  V30 12836 H 1192.01 -1.58182 -0.128065 0
M  V30 12837 H 1192.03 -2.82577 -2.54815 0
M  V30 12838 H 1191.54 -3.75571 -0.978153 0
M  V30 12839 H 1189.64 -2.27567 -2.95032 0
M  V30 12840 H 1189.76 -4.09993 -2.47876 0
M  V30 12841 H 1188.12 -2.12798 -1.39962 0
M  V30 12842 H 1188.9 -3.4166 -0.335157 0
M  V30 12843 N 1191.35 0.610423 -1.45298 0
M  V30 12844 C 1192.26 1.74964 -1.56285 0
M  V30 12845 C 1193.27 1.68149 -0.447436 0
M  V30 12846 O 1194.45 1.88556 -0.707725 0
M  V30 12847 C 1191.52 3.11417 -1.52383 0
M  V30 12848 C 1190.58 3.29707 -2.7494 0
M  V30 12849 C 1189.81 4.5965 -2.71215 0
M  V30 12850 O 1190.03 5.41789 -1.78383 0
M  V30 12851 O 1188.97 4.80591 -3.62375 0
M  V30 12852 H 1192.79 1.68646 -2.52571 0
M  V30 12853 H 1190.38 0.774168 -1.27777 0
M  V30 12854 H 1192.26 3.9272 -1.52805 0
M  V30 12855 H 1190.93 3.18232 -0.592472 0
M  V30 12856 H 1189.84 2.48003 -2.80081 0
M  V30 12857 H 1191.17 3.27766 -3.67192 0
M  V30 12858 N 1192.83 1.32541 0.852676 0
M  V30 12859 C 1193.74 1.23646 1.99371 0
M  V30 12860 C 1194.75 0.149673 1.73355 0
M  V30 12861 O 1195.93 0.370716 1.97959 0
M  V30 12862 C 1192.99 0.961873 3.3309 0
M  V30 12863 C 1192.05 2.1373 3.72315 0
M  V30 12864 C 1191.29 1.87572 4.99652 0
M  V30 12865 O 1191.51 0.819247 5.64486 0
M  V30 12866 O 1190.44 2.73732 5.36054 0
M  V30 12867 H 1194.27 2.19573 2.09813 0
M  V30 12868 H 1191.86 1.12451 0.983627 0
M  V30 12869 H 1193.74 0.825316 4.13239 0
M  V30 12870 H 1192.41 0.0327745 3.23683 0
M  V30 12871 H 1191.32 2.32933 2.92733 0
M  V30 12872 H 1192.65 3.04925 3.86369 0
M  V30 12873 N 1194.3 -1.0692 1.15784 0
M  V30 12874 C 1195.21 -2.17762 0.872753 0
M  V30 12875 C 1196.23 -1.73329 -0.152608 0
M  V30 12876 O 1197.41 -2.01387 0.022519 0
M  V30 12877 C 1194.47 -3.4471 0.370887 0
M  V30 12878 C 1193.53 -4.03686 1.46069 0
M  V30 12879 C 1192.77 -5.24575 0.982675 0
M  V30 12880 O 1192.99 -5.70146 -0.17006 0
M  V30 12881 O 1191.92 -5.7534 1.76828 0
M  V30 12882 H 1195.75 -2.44648 1.79948 0
M  V30 12883 H 1193.33 -1.1634 0.937303 0
M  V30 12884 H 1195.22 -4.21287 0.0976779 0
M  V30 12885 H 1193.89 -3.19366 -0.527912 0
M  V30 12886 H 1192.8 -3.28629 1.78756 0
M  V30 12887 H 1194.13 -4.33312 2.33456 0
M  V30 12888 N 1195.78 -0.955326 -1.25345 0
M  V30 12889 C 1196.73 -0.467205 -2.2786 0
M  V30 12890 C 1197.72 0.462873 -1.62954 0
M  V30 12891 O 1198.93 0.339526 -1.76769 0
M  V30 12892 H 1195.31 -0.132586 -0.74022 0
M  V30 12893 H 1197.28 -1.34406 -2.66416 0
M  V30 12894 C 1196.03 0.238898 -3.46878 0
M  V30 12895 H 1195.35 -0.467644 -3.97056 0
M  V30 12896 H 1196.79 0.544444 -4.2049 0
M  V30 12897 C 1195.25 1.46164 -3.03542 0
M  V30 12898 O 1195.78 2.55933 -3.09615 0
M  V30 12899 N 1193.98 1.32324 -2.58725 0
M  V30 12900 H 1193.53 0.430131 -2.53984 0
M  V30 12901 H 1193.49 2.14253 -2.30094 0
M  V30 12902 N 1197.26 1.39987 -0.723979 0
M  V30 12903 C 1198.21 2.30672 -0.0768286 0
M  V30 12904 C 1199.18 1.48634 0.741422 0
M  V30 12905 O 1200.36 1.77351 0.703649 0
M  V30 12906 C 1197.5 3.34902 0.832729 0
M  V30 12907 C 1196.62 4.32 0.00304942 0
M  V30 12908 C 1195.75 5.23298 0.91286 0
M  V30 12909 C 1194.79 6.12051 0.0777706 0
M  V30 12910 N 1193.93 6.9574 0.942912 0
M  V30 12911 H 1198.77 2.85446 -0.855832 0
M  V30 12912 H 1196.3 1.40561 -0.433718 0
M  V30 12913 H 1198.26 3.93911 1.37441 0
M  V30 12914 H 1196.89 2.81611 1.57782 0
M  V30 12915 H 1195.94 3.74702 -0.655916 0
M  V30 12916 H 1197.26 4.94637 -0.643124 0
M  V30 12917 H 1196.41 5.87279 1.52277 0
M  V30 12918 H 1195.15 4.60956 1.59284 0
M  V30 12919 H 1194.15 5.47092 -0.545022 0
M  V30 12920 H 1195.38 6.76455 -0.598827 0
M  V30 12921 H 1193.33 6.35977 1.60838 0
M  V30 12922 H 1193.24 7.55176 0.352968 0
M  V30 12923 H 1194.51 7.64162 1.53874 0
M  V30 12924 N 1198.74 0.470782 1.50404 0
M  V30 12925 C 1199.65 -0.328877 2.32283 0
M  V30 12926 C 1200.67 -0.99629 1.42654 0
M  V30 12927 O 1201.84 -0.984331 1.75707 0
M  V30 12928 C 1198.91 -1.39675 3.1732 0
M  V30 12929 C 1197.97 -0.745965 4.22769 0
M  V30 12930 C 1197.2 -1.76295 5.03742 0
M  V30 12931 O 1197.42 -2.98943 4.85788 0
M  V30 12932 O 1196.36 -1.33495 5.86909 0
M  V30 12933 H 1200.18 0.340491 3.01785 0
M  V30 12934 H 1197.77 0.232637 1.47578 0
M  V30 12935 H 1199.65 -2.0153 3.70086 0
M  V30 12936 H 1198.33 -2.04959 2.50546 0
M  V30 12937 H 1197.23 -0.0884647 3.73995 0
M  V30 12938 H 1198.57 -0.136074 4.92012 0
M  V30 12939 N 1200.22 -1.56282 0.203376 0
M  V30 12940 C 1201.18 -2.18233 -0.700489 0
M  V30 12941 C 1202.18 -1.13908 -1.13497 0
M  V30 12942 O 1203.37 -1.39246 -1.04672 0
M  V30 12943 C 1200.5 -2.79107 -1.95735 0
M  V30 12944 H 1201.7 -2.99469 -0.160649 0
M  V30 12945 H 1199.25 -1.56232 -0.0462475 0
M  V30 12946 H 1199.98 -2.01691 -2.53951 0
M  V30 12947 H 1199.77 -3.55486 -1.65446 0
M  V30 12948 H 1201.26 -3.2665 -2.60172 0
M  V30 12949 N 1201.7 0.070167 -1.57444 0
M  V30 12950 C 1202.92 0.785703 -1.91941 0
M  V30 12951 C 1203.35 1.70243 -0.799932 0
M  V30 12952 O 1202.7 1.79608 0.247139 0
M  V30 12953 C 1202.75 1.55398 -3.25398 0
M  V30 12954 O 1201.86 2.66475 -3.14746 0
M  V30 12955 H 1201.2 0.214245 -0.628486 0
M  V30 12956 H 1203.73 0.0379243 -2.04565 0
M  V30 12957 H 1203.74 1.93287 -3.5931 0
M  V30 12958 H 1202.41 0.881366 -4.06454 0
M  V30 12959 H 1200.99 2.3143 -2.92394 0
M  V30 12960 N 1203.17 1.53854 0.341593 0
M  V30 12961 C 1204.14 1.8128 1.40251 0
M  V30 12962 C 1205.14 0.683915 1.45531 0
M  V30 12963 O 1206.33 0.952202 1.45872 0
M  V30 12964 C 1203.46 1.95658 2.79161 0
M  V30 12965 H 1204.65 2.76053 1.17195 0
M  V30 12966 H 1202.2 1.45296 0.57609 0
M  V30 12967 H 1202.94 1.03034 3.07497 0
M  V30 12968 H 1202.72 2.77788 2.76724 0
M  V30 12969 H 1204.21 2.18387 3.55945 0
M  V30 12970 N 1204.65 -0.602709 1.4562 0
M  V30 12971 C 1205.58 -1.72374 1.5751 0
M  V30 12972 C 1206.56 -1.64669 0.426389 0
M  V30 12973 O 1207.75 -1.82994 0.650143 0
M  V30 12974 C 1204.88 -3.10987 1.5461 0
M  V30 12975 C 1203.83 -3.33507 2.68248 0
M  V30 12976 C 1203.16 -4.72443 2.50403 0
M  V30 12977 C 1204.46 -3.23285 4.10224 0
M  V30 12978 H 1206.15 -1.62679 2.51348 0
M  V30 12979 H 1203.7 -0.781217 1.20967 0
M  V30 12980 H 1205.65 -3.89214 1.61525 0
M  V30 12981 H 1204.37 -3.21533 0.573049 0
M  V30 12982 H 1203.03 -2.57672 2.60769 0
M  V30 12983 H 1202.68 -4.79729 1.51226 0
M  V30 12984 H 1202.38 -4.88466 3.26611 0
M  V30 12985 H 1203.91 -5.52864 2.59179 0
M  V30 12986 H 1205.32 -3.91381 4.1892 0
M  V30 12987 H 1203.72 -3.50837 4.86861 0
M  V30 12988 H 1204.79 -2.20652 4.31788 0
M  V30 12989 N 1206.13 -1.32992 -0.845635 0
M  V30 12990 C 1207.38 -1.2382 -1.59728 0
M  V30 12991 C 1207.7 0.197724 -1.93995 0
M  V30 12992 O 1206.97 1.12477 -1.60392 0
M  V30 12993 H 1205.55 -0.455296 -0.592212 0
M  V30 12994 H 1208.21 -1.66627 -1.01101 0
M  V30 12995 H 1207.31 -1.82717 -2.53023 0
M  V30 12996 N 1207.61 1.06304 -1.1635 0
M  V30 12997 C 1208.86 1.78487 -0.939423 0
M  V30 12998 C 1209.17 1.8817 0.533998 0
M  V30 12999 O 1210.38 2.56981 0.875962 0
M  V30 13000 C 1208.83 3.20796 -1.63149 0
M  V30 13001 C 1208.44 3.19281 -3.14267 0
M  V30 13002 C 1210.18 3.97514 -1.48938 0
M  V30 13003 C 1208.09 4.56309 -3.76213 0
M  V30 13004 H 1207.02 0.668973 -0.347837 0
M  V30 13005 H 1209.67 1.19237 -1.3948 0
M  V30 13006 H 1208.05 3.80305 -1.10382 0
M  V30 13007 H 1209.23 2.69356 -3.73877 0
M  V30 13008 H 1207.54 2.56062 -3.28362 0
M  V30 13009 H 1210.14 4.98808 -1.926 0
M  V30 13010 H 1210.48 4.13986 -0.438319 0
M  V30 13011 H 1211.02 3.44528 -1.98861 0
M  V30 13012 H 1207.75 4.45042 -4.81267 0
M  V30 13013 H 1207.27 5.06429 -3.21388 0
M  V30 13014 H 1208.95 5.25266 -3.77762 0
M  V30 13015 N 1209.09 0.96196 1.24836 0
M  V30 13016 C 1210.02 0.445329 2.24832 0
M  V30 13017 C 1211.03 -0.442797 1.56663 0
M  V30 13018 O 1212.22 -0.249896 1.76742 0
M  V30 13019 C 1209.32 -0.376953 3.36797 0
M  V30 13020 C 1208.49 0.499908 4.34534 0
M  V30 13021 C 1207.55 -0.265402 5.2553 0
M  V30 13022 O 1206.58 0.338707 5.68191 0
M  V30 13023 N 1207.78 -1.55654 5.59243 0
M  V30 13024 H 1210.54 1.30505 2.69793 0
M  V30 13025 H 1208.11 0.833137 1.38818 0
M  V30 13026 H 1210.1 -0.896831 3.94638 0
M  V30 13027 H 1208.67 -1.13757 2.91167 0
M  V30 13028 H 1207.89 1.20082 3.75465 0
M  V30 13029 H 1209.18 1.09814 4.96808 0
M  V30 13030 H 1208.57 -2.06916 5.265 0
M  V30 13031 H 1207.13 -2.02223 6.19636 0
M  V30 13032 N 1210.56 -1.39601 0.731392 0
M  V30 13033 C 1211.51 -2.30628 0.0890606 0
M  V30 13034 C 1212.48 -1.49025 -0.73353 0
M  V30 13035 O 1213.67 -1.77722 -0.694234 0
M  V30 13036 C 1210.81 -3.35339 -0.814956 0
M  V30 13037 C 1209.92 -4.31995 0.0198606 0
M  V30 13038 C 1209.05 -5.23774 -0.885095 0
M  V30 13039 C 1208.09 -6.12083 -0.045311 0
M  V30 13040 N 1207.23 -6.9623 -0.906002 0
M  V30 13041 H 1212.07 -2.84988 0.870958 0
M  V30 13042 H 1209.61 -1.40329 0.441166 0
M  V30 13043 H 1211.56 -3.94634 -1.3535 0
M  V30 13044 H 1210.19 -2.82443 -1.56287 0
M  V30 13045 H 1209.25 -3.74349 0.675778 0
M  V30 13046 H 1210.56 -4.94289 0.669346 0
M  V30 13047 H 1209.71 -5.88078 -1.49161 0
M  V30 13048 H 1208.45 -4.61794 -1.56837 0
M  V30 13049 H 1207.46 -5.46795 0.574028 0
M  V30 13050 H 1208.68 -6.76128 0.634692 0
M  V30 13051 H 1206.63 -6.36821 -1.57463 0
M  V30 13052 H 1206.54 -7.55352 -0.312914 0
M  V30 13053 H 1207.81 -7.64967 -1.49819 0
M  V30 13054 N 1212.04 -0.478751 -1.50152 0
M  V30 13055 C 1213.29 0.07531 -2.01559 0
M  V30 13056 C 1213.6 1.40089 -1.36508 0
M  V30 13057 O 1214.81 2.04035 -1.79115 0
M  V30 13058 C 1213.27 0.184714 -3.59426 0
M  V30 13059 C 1212.87 -1.13289 -4.33439 0
M  V30 13060 C 1214.62 0.690326 -4.18849 0
M  V30 13061 C 1212.53 -0.986866 -5.83108 0
M  V30 13062 H 1211.46 0.0319196 -0.753324 0
M  V30 13063 H 1214.11 -0.614809 -1.72894 0
M  V30 13064 H 1212.49 0.938788 -3.84711 0
M  V30 13065 H 1213.66 -1.89852 -4.19872 0
M  V30 13066 H 1211.98 -1.57021 -3.8566 0
M  V30 13067 H 1214.57 0.816733 -5.28426 0
M  V30 13068 H 1214.92 1.68361 -3.80737 0
M  V30 13069 H 1215.45 -0.00657846 -3.97799 0
M  V30 13070 H 1212.19 -1.95375 -6.25707 0
M  V30 13071 H 1211.71 -0.261752 -5.99229 0
M  V30 13072 H 1213.39 -0.656567 -6.4366 0
M  V30 13073 N 1213.52 1.56172 -0.211661 0
M  V30 13074 C 1214.77 1.97648 0.421871 0
M  V30 13075 C 1215.09 1.10026 1.60995 0
M  V30 13076 O 1214.36 0.175109 1.95116 0
M  V30 13077 H 1212.94 0.729914 0.158852 0
M  V30 13078 H 1215.6 1.92542 -0.302254 0
M  V30 13079 H 1214.7 3.02834 0.754868 0
M  V30 13080 N 1215 -0.0618163 1.57479 0
M  V30 13081 C 1216.25 -0.757569 1.87364 0
M  V30 13082 C 1216.57 -1.77607 0.805025 0
M  V30 13083 O 1215.84 -1.95202 -0.165216 0
M  V30 13084 H 1214.42 -0.28278 0.691408 0
M  V30 13085 H 1217.08 -0.0355354 1.94868 0
M  V30 13086 H 1216.18 -1.26758 2.85199 0
M  V30 13087 N 1216.48 -1.54033 -0.333429 0
M  V30 13088 C 1217.73 -1.70979 -1.07 0
M  V30 13089 C 1218.04 -0.485095 -1.89489 0
M  V30 13090 O 1219.24 -0.535712 -2.66162 0
M  V30 13091 C 1217.7 -3.02382 -1.95175 0
M  V30 13092 C 1217.31 -4.32223 -1.17844 0
M  V30 13093 C 1219.05 -3.28693 -2.68628 0
M  V30 13094 C 1216.96 -5.54693 -2.05109 0
M  V30 13095 H 1215.89 -0.637152 -0.403179 0
M  V30 13096 H 1218.54 -1.80529 -0.328839 0
M  V30 13097 H 1216.92 -2.86714 -2.73151 0
M  V30 13098 H 1218.1 -4.58626 -0.447089 0
M  V30 13099 H 1216.41 -4.12601 -0.561166 0
M  V30 13100 H 1219.01 -4.17385 -3.34207 0
M  V30 13101 H 1219.35 -2.46141 -3.35738 0
M  V30 13102 H 1219.88 -3.45183 -1.9772 0
M  V30 13103 H 1216.62 -6.39818 -1.42523 0
M  V30 13104 H 1216.14 -5.32524 -2.76005 0
M  V30 13105 H 1217.82 -5.90722 -2.63926 0
M  V30 13106 N 1217.95 0.594978 -1.45938 0
M  V30 13107 C 1219.2 1.35361 -1.50611 0
M  V30 13108 C 1219.53 1.93898 -0.152866 0
M  V30 13109 O 1218.78 1.76275 0.850037 0
M  V30 13110 C 1219.08 2.51129 -2.54301 0
M  V30 13111 C 1218.75 2.1066 -3.98664 0
M  V30 13112 C 1217.41 1.99338 -4.3797 0
M  V30 13113 C 1219.76 1.79267 -4.894 0
M  V30 13114 C 1217.09 1.54863 -5.65893 0
M  V30 13115 C 1219.44 1.36274 -6.17748 0
M  V30 13116 C 1218.11 1.2352 -6.55972 0
M  V30 13117 H 1217.38 0.49532 -0.551125 0
M  V30 13118 H 1220.02 0.671236 -1.79351 0
M  V30 13119 H 1218.33 3.24759 -2.19177 0
M  V30 13120 H 1220.03 3.09353 -2.55151 0
M  V30 13121 H 1216.62 2.20403 -3.67587 0
M  V30 13122 H 1220.8 1.86906 -4.59761 0
M  V30 13123 H 1216.06 1.43621 -5.94292 0
M  V30 13124 H 1220.23 1.11032 -6.87492 0
M  V30 13125 H 1217.86 0.88832 -7.54992 0
M  V30 13126 N 1219.43 1.33438 0.838571 0
M  V30 13127 C 1220.68 1.24259 1.58879 0
M  V30 13128 C 1220.99 -0.189957 1.94675 0
M  V30 13129 O 1222.2 -0.40376 2.68481 0
M  V30 13130 C 1220.66 2.1773 2.86569 0
M  V30 13131 C 1220.26 3.66156 2.58135 0
M  V30 13132 C 1222.01 2.17424 3.64591 0
M  V30 13133 C 1219.92 4.5154 3.81923 0
M  V30 13134 H 1218.85 0.461534 0.59624 0
M  V30 13135 H 1221.5 1.58504 0.924588 0
M  V30 13136 H 1219.88 1.76418 3.54532 0
M  V30 13137 H 1221.05 4.1591 1.98382 0
M  V30 13138 H 1219.37 3.68754 1.93416 0
M  V30 13139 H 1221.96 2.78446 4.56478 0
M  V30 13140 H 1222.31 1.16939 3.99539 0
M  V30 13141 H 1222.84 2.571 3.03553 0
M  V30 13142 H 1219.58 5.52902 3.52107 0
M  V30 13143 H 1219.1 4.06529 4.41015 0
M  V30 13144 H 1220.78 4.65359 4.495 0
M  V30 13145 N 1220.91 -1.05686 1.16912 0
M  V30 13146 C 1222.16 -1.78862 0.955839 0
M  V30 13147 C 1222.49 -1.87257 -0.514645 0
M  V30 13148 O 1221.76 -1.36869 -1.38193 0
M  V30 13149 C 1222.05 -3.23021 1.59152 0
M  V30 13150 C 1221.9 -3.22669 3.13376 0
M  V30 13151 C 1223.22 -4.2073 1.29128 0
M  V30 13152 H 1220.34 -0.64931 0.348663 0
M  V30 13153 H 1222.98 -1.23561 1.44335 0
M  V30 13154 H 1221.13 -3.70243 1.17697 0
M  V30 13155 H 1222.8 -2.83562 3.63855 0
M  V30 13156 H 1221.05 -2.61149 3.46386 0
M  V30 13157 H 1221.72 -4.24394 3.52979 0
M  V30 13158 H 1224.19 -3.8198 1.65017 0
M  V30 13159 H 1223.07 -5.19851 1.76198 0
M  V30 13160 H 1223.33 -4.41595 0.21119 0
M  V30 13161 N 1222.39 -0.968567 -1.24324 0
M  V30 13162 C 1223.32 -0.518323 -2.27674 0
M  V30 13163 C 1224.3 0.442479 -1.64244 0
M  V30 13164 O 1225.48 0.338416 -1.91229 0
M  V30 13165 C 1222.61 0.191459 -3.46772 0
M  V30 13166 C 1221.57 -0.685449 -4.22476 0
M  V30 13167 C 1220.89 0.155873 -5.34473 0
M  V30 13168 C 1222.19 -1.97047 -4.83704 0
M  V30 13169 H 1223.89 -1.38215 -2.65588 0
M  V30 13170 H 1221.43 -0.66604 -1.27671 0
M  V30 13171 H 1223.39 0.517667 -4.18208 0
M  V30 13172 H 1222.11 1.08965 -3.07887 0
M  V30 13173 H 1220.77 -0.994942 -3.52841 0
M  V30 13174 H 1220.42 1.05424 -4.91828 0
M  V30 13175 H 1220.12 -0.427655 -5.86042 0
M  V30 13176 H 1221.64 0.476733 -6.08736 0
M  V30 13177 H 1223.06 -1.70979 -5.4721 0
M  V30 13178 H 1221.45 -2.50079 -5.45509 0
M  V30 13179 H 1222.52 -2.66484 -4.0511 0
M  V30 13180 N 1223.87 1.39211 -0.738786 0
M  V30 13181 C 1224.83 2.28937 -0.109746 0
M  V30 13182 C 1225.83 1.46488 0.663157 0
M  V30 13183 O 1227.02 1.67119 0.491614 0
M  V30 13184 C 1224.15 3.30039 0.853633 0
M  V30 13185 H 1225.34 2.86068 -0.900295 0
M  V30 13186 H 1222.9 1.47922 -0.504853 0
M  V30 13187 H 1223.63 2.77971 1.6704 0
M  V30 13188 H 1223.42 3.90935 0.302007 0
M  V30 13189 H 1224.91 3.97169 1.29022 0
M  V30 13190 N 1225.34 0.486708 1.49896 0
M  V30 13191 C 1226.31 -0.288126 2.27382 0
M  V30 13192 C 1227.31 -0.906675 1.32801 0
M  V30 13193 O 1228.5 -0.773425 1.56089 0
M  V30 13194 C 1225.63 -1.41194 3.10285 0
M  V30 13195 H 1226.82 0.391618 2.97332 0
M  V30 13196 H 1224.38 0.24123 1.54427 0
M  V30 13197 H 1225.11 -2.12627 2.44868 0
M  V30 13198 H 1224.9 -0.974033 3.79809 0
M  V30 13199 H 1226.39 -1.95812 3.68846 0
M  V30 13200 N 1226.82 -1.56058 0.219941 0
M  V30 13201 C 1228.07 -1.97869 -0.411383 0
M  V30 13202 C 1228.39 -1.10878 -1.60409 0
M  V30 13203 O 1227.66 -0.185454 -1.9502 0
M  V30 13204 H 1226.24 -0.730747 -0.154979 0
M  V30 13205 H 1228.9 -1.92379 0.312461 0
M  V30 13206 H 1228 -3.0323 -0.738798 0
M  V30 13207 N 1228.3 0.053464 -1.57509 0
M  V30 13208 C 1229.23 1.06151 -2.07977 0
M  V30 13209 C 1230.21 1.3924 -0.977047 0
M  V30 13210 O 1231.4 1.48549 -1.25087 0
M  V30 13211 C 1228.53 2.36969 -2.53895 0
M  V30 13212 C 1227.48 2.18186 -3.6821 0
M  V30 13213 C 1226.81 3.54551 -4.00247 0
M  V30 13214 C 1228.11 1.588 -4.97574 0
M  V30 13215 H 1229.8 0.641483 -2.92447 0
M  V30 13216 H 1227.35 0.307122 -1.40687 0
M  V30 13217 H 1229.3 3.07797 -2.87817 0
M  V30 13218 H 1228.02 2.80986 -1.66476 0
M  V30 13219 H 1226.68 1.49796 -3.34599 0
M  V30 13220 H 1226.33 3.96171 -3.09932 0
M  V30 13221 H 1226.03 3.42816 -4.77232 0
M  V30 13222 H 1227.56 4.2678 -4.36682 0
M  V30 13223 H 1228.97 2.19515 -5.29609 0
M  V30 13224 H 1227.37 1.57711 -5.79006 0
M  V30 13225 H 1228.44 0.551254 -4.81756 0
M  V30 13226 N 1229.78 1.54207 0.325255 0
M  V30 13227 C 1231.03 1.72587 1.06497 0
M  V30 13228 C 1231.36 0.497228 1.87727 0
M  V30 13229 O 1230.63 -0.505804 1.87808 0
M  V30 13230 C 1230.92 3.00046 1.99109 0
M  V30 13231 C 1230.77 4.33158 1.21221 0
M  V30 13232 C 1232.09 3.23251 2.98658 0
M  V30 13233 H 1229.21 0.627974 0.38577 0
M  V30 13234 H 1231.85 1.869 0.34179 0
M  V30 13235 H 1230 2.87973 2.60775 0
M  V30 13236 H 1231.67 4.57111 0.620289 0
M  V30 13237 H 1229.91 4.30739 0.514462 0
M  V30 13238 H 1230.59 5.18558 1.89214 0
M  V30 13239 H 1233.06 3.34774 2.47114 0
M  V30 13240 H 1231.94 4.13796 3.60645 0
M  V30 13241 H 1232.2 2.40401 3.71026 0
M  V30 13242 N 1231.26 -0.58723 1.46251 0
M  V30 13243 C 1232.19 -1.70694 1.5933 0
M  V30 13244 C 1233.17 -1.64208 0.443831 0
M  V30 13245 O 1234.35 -1.82294 0.669516 0
M  V30 13246 C 1231.48 -3.0933 1.579 0
M  V30 13247 C 1230.44 -3.30643 2.7177 0
M  V30 13248 C 1229.76 -4.69761 2.554 0
M  V30 13249 C 1231.06 -3.18916 4.1363 0
M  V30 13250 H 1232.76 -1.60004 2.53059 0
M  V30 13251 H 1230.3 -0.768343 1.21789 0
M  V30 13252 H 1232.26 -3.87479 1.65644 0
M  V30 13253 H 1230.98 -3.20907 0.60712 0
M  V30 13254 H 1229.64 -2.54892 2.63488 0
M  V30 13255 H 1229.29 -4.78098 1.56306 0
M  V30 13256 H 1228.99 -4.84974 3.31774 0
M  V30 13257 H 1230.51 -5.50084 2.65028 0
M  V30 13258 H 1231.93 -3.86915 4.23048 0
M  V30 13259 H 1230.32 -3.45653 4.90555 0
M  V30 13260 H 1231.39 -2.1606 4.34104 0
M  V30 13261 N 1232.74 -1.33881 -0.831482 0
M  V30 13262 C 1233.96 -1.28961 -1.62431 0
M  V30 13263 C 1234.39 0.135249 -1.87613 0
M  V30 13264 O 1233.74 1.09426 -1.44553 0
M  V30 13265 C 1233.79 -2.07767 -2.94729 0
M  V30 13266 O 1232.9 -1.44133 -3.86393 0
M  V30 13267 H 1232.24 -0.443313 -0.494337 0
M  V30 13268 H 1234.77 -1.76555 -1.0339 0
M  V30 13269 H 1234.78 -2.18806 -3.44366 0
M  V30 13270 H 1233.45 -3.11367 -2.75724 0
M  V30 13271 H 1232.03 -1.41784 -3.44894 0
M  V30 13272 N 1234.21 1.05064 -1.1747 0
M  V30 13273 C 1235.46 1.78352 -0.965311 0
M  V30 13274 C 1235.79 1.87527 0.504707 0
M  V30 13275 O 1235.07 1.376 1.37465 0
M  V30 13276 C 1235.35 3.22173 -1.60862 0
M  V30 13277 C 1235.2 3.21003 -3.15083 0
M  V30 13278 C 1236.52 4.2004 -1.31358 0
M  V30 13279 H 1233.64 0.647452 -0.352101 0
M  V30 13280 H 1236.28 1.22794 -1.44988 0
M  V30 13281 H 1234.43 3.69613 -1.19658 0
M  V30 13282 H 1236.11 2.81629 -3.65353 0
M  V30 13283 H 1234.35 2.59309 -3.47766 0
M  V30 13284 H 1235.02 4.22516 -3.55224 0
M  V30 13285 H 1237.5 3.81099 -1.6704 0
M  V30 13286 H 1236.37 5.1891 -1.78953 0
M  V30 13287 H 1236.63 4.41477 -0.234606 0
M  V30 13288 N 1235.69 0.975146 1.23809 0
M  V30 13289 C 1236.62 0.530389 2.27396 0
M  V30 13290 C 1237.6 -0.433763 1.64476 0
M  V30 13291 O 1238.79 -0.32827 1.91405 0
M  V30 13292 C 1235.92 -0.173066 3.46869 0
M  V30 13293 C 1234.87 0.707844 4.22106 0
M  V30 13294 C 1234.2 -0.127527 5.34548 0
M  V30 13295 C 1235.5 1.99609 4.82652 0
M  V30 13296 H 1237.19 1.39622 2.64851 0
M  V30 13297 H 1234.74 0.672802 1.27316 0
M  V30 13298 H 1236.69 -0.495481 4.18477 0
M  V30 13299 H 1235.41 -1.0733 3.0846 0
M  V30 13300 H 1234.07 1.01364 3.52308 0
M  V30 13301 H 1233.72 -1.02814 4.9238 0
M  V30 13302 H 1233.42 0.458728 5.85807 0
M  V30 13303 H 1234.95 -0.444443 6.0898 0
M  V30 13304 H 1236.36 1.73878 5.46296 0
M  V30 13305 H 1234.76 2.52969 5.44175 0
M  V30 13306 H 1235.83 2.68629 4.03691 0
M  V30 13307 N 1237.17 -1.38817 0.746158 0
M  V30 13308 C 1238.42 -2.00577 0.299458 0
M  V30 13309 C 1238.75 -1.59087 -1.11378 0
M  V30 13310 O 1238.02 -0.824932 -1.7614 0
M  V30 13311 C 1238.31 -3.57713 0.413932 0
M  V30 13312 C 1238.16 -4.09189 1.86774 0
M  V30 13313 C 1239.48 -4.39659 -0.197082 0
M  V30 13314 H 1236.6 -0.728702 0.110285 0
M  V30 13315 H 1239.24 -1.64866 0.944408 0
M  V30 13316 H 1237.39 -3.88265 -0.135155 0
M  V30 13317 H 1239.06 -3.89311 2.47456 0
M  V30 13318 H 1237.3 -3.62333 2.38532 0
M  V30 13319 H 1237.98 -5.18305 1.89904 0
M  V30 13320 H 1240.45 -4.15216 0.271121 0
M  V30 13321 H 1239.33 -5.48832 -0.0867011 0
M  V30 13322 H 1239.59 -4.23028 -1.2845 0
M  V30 13323 N 1238.65 -0.49465 -1.49636 0
M  V30 13324 C 1239.61 0.276064 -2.27531 0
M  V30 13325 C 1240.61 0.899619 -1.3328 0
M  V30 13326 O 1241.8 0.765136 -1.56497 0
M  V30 13327 C 1238.93 1.39547 -3.1103 0
M  V30 13328 H 1240.13 -0.407381 -2.9712 0
M  V30 13329 H 1237.68 -0.249416 -1.54297 0
M  V30 13330 H 1238.41 2.11326 -2.45992 0
M  V30 13331 H 1238.2 0.953877 -3.8032 0
M  V30 13332 H 1239.69 1.93853 -3.69879 0
M  V30 13333 N 1240.13 1.55939 -0.228214 0
M  V30 13334 C 1241.37 1.9877 0.402272 0
M  V30 13335 C 1241.7 1.11587 1.5894 0
M  V30 13336 O 1240.98 0.175032 1.93711 0
M  V30 13337 C 1241.26 3.50396 0.830353 0
M  V30 13338 C 1241.12 4.4835 -0.360876 0
M  V30 13339 C 1242.43 4.06602 1.68413 0
M  V30 13340 H 1239.55 0.722646 0.144746 0
M  V30 13341 H 1242.2 1.87186 -0.325784 0
M  V30 13342 H 1240.35 3.60398 1.4507 0
M  V30 13343 H 1242.02 4.5035 -0.999113 0
M  V30 13344 H 1240.26 4.21946 -1.00719 0
M  V30 13345 H 1240.93 5.51997 -0.0183074 0
M  V30 13346 H 1243.41 3.99585 1.16064 0
M  V30 13347 H 1242.28 5.12998 1.95254 0
M  V30 13348 H 1242.54 3.53897 2.64971 0
M  V30 13349 N 1241.6 -0.0451101 1.57535 0
M  V30 13350 C 1242.85 -0.737654 1.88157 0
M  V30 13351 C 1243.17 -1.76743 0.823817 0
M  V30 13352 O 1242.44 -1.95366 -0.144503 0
M  V30 13353 H 1241.02 -0.275431 0.694368 0
M  V30 13354 H 1243.69 -0.0148651 1.94894 0
M  V30 13355 H 1242.78 -1.23726 2.86528 0
M  V30 13356 N 1243.08 -1.54377 -0.317073 0
M  V30 13357 C 1243.99 -1.87247 -1.41335 0
M  V30 13358 C 1245.01 -0.765017 -1.5628 0
M  V30 13359 O 1246.18 -1.05994 -1.71252 0
M  V30 13360 C 1243.25 -2.0988 -2.75955 0
M  V30 13361 C 1242.31 -3.33658 -2.70131 0
M  V30 13362 C 1241.54 -3.55202 -3.9833 0
M  V30 13363 O 1241.77 -2.80061 -4.96913 0
M  V30 13364 O 1240.7 -4.48693 -4.01196 0
M  V30 13365 H 1244.53 -2.80481 -1.16465 0
M  V30 13366 H 1242.11 -1.40364 -0.511687 0
M  V30 13367 H 1243.99 -2.2606 -3.55633 0
M  V30 13368 H 1242.67 -1.19834 -3.00702 0
M  V30 13369 H 1241.58 -3.22857 -1.88981 0
M  V30 13370 H 1242.91 -4.23782 -2.50338 0
M  V30 13371 N 1244.56 0.579466 -1.4656 0
M  V30 13372 C 1245.81 1.33756 -1.52038 0
M  V30 13373 C 1246.14 1.93725 -0.173423 0
M  V30 13374 O 1245.39 1.77167 0.831293 0
M  V30 13375 C 1245.69 2.48417 -2.56951 0
M  V30 13376 C 1245.36 2.0642 -4.00876 0
M  V30 13377 C 1244.02 1.94682 -4.4006 0
M  V30 13378 C 1246.37 1.74066 -4.91274 0
M  V30 13379 C 1243.7 1.48852 -5.67503 0
M  V30 13380 C 1246.05 1.29714 -6.19158 0
M  V30 13381 C 1244.71 1.16555 -6.57245 0
M  V30 13382 H 1243.98 0.489447 -0.556347 0
M  V30 13383 H 1246.63 0.652176 -1.80053 0
M  V30 13384 H 1244.94 3.22416 -2.2261 0
M  V30 13385 H 1246.63 3.06629 -2.58418 0
M  V30 13386 H 1243.22 2.16492 -3.69904 0
M  V30 13387 H 1247.41 1.82019 -4.61717 0
M  V30 13388 H 1242.66 1.3731 -5.95782 0
M  V30 13389 H 1246.84 1.03734 -6.88631 0
M  V30 13390 H 1244.46 0.808193 -7.55892 0
M  V30 13391 N 1246.04 1.3432 0.824371 0
M  V30 13392 C 1247.28 1.26783 1.58284 0
M  V30 13393 C 1247.62 -0.162282 1.93521 0
M  V30 13394 O 1246.89 -1.1073 1.59903 0
M  V30 13395 C 1247.18 2.15725 2.88331 0
M  V30 13396 C 1247.03 3.67266 2.59684 0
M  V30 13397 C 1248.35 2.04141 3.8989 0
M  V30 13398 H 1245.47 0.461893 0.574303 0
M  V30 13399 H 1248.11 1.64558 0.949769 0
M  V30 13400 H 1246.26 1.83639 3.42358 0
M  V30 13401 H 1247.93 4.09711 2.11978 0
M  V30 13402 H 1246.17 3.88426 1.93151 0
M  V30 13403 H 1246.84 4.24863 3.52414 0
M  V30 13404 H 1249.32 2.3231 3.45212 0
M  V30 13405 H 1248.2 2.68601 4.7869 0
M  V30 13406 H 1248.46 1.01795 4.30221 0
M  V30 13407 N 1247.52 -1.0444 1.18026 0
M  V30 13408 C 1248.75 -1.80971 0.996642 0
M  V30 13409 C 1249.15 -1.83568 -0.458192 0
M  V30 13410 O 1248.5 -1.26713 -1.33002 0
M  V30 13411 C 1248.56 -3.28051 1.47048 0
M  V30 13412 C 1248.22 -3.49122 2.94895 0
M  V30 13413 C 1249.22 -3.40621 3.92777 0
M  V30 13414 C 1246.91 -3.7584 3.33241 0
M  V30 13415 C 1248.9 -3.58535 5.27002 0
M  V30 13416 C 1246.59 -3.93402 4.6763 0
M  V30 13417 C 1247.58 -3.84749 5.6432 0
M  V30 13418 O 1247.27 -4.01813 6.96277 0
M  V30 13419 H 1247 -0.576873 0.352411 0
M  V30 13420 H 1249.56 -1.32542 1.56913 0
M  V30 13421 H 1247.79 -3.77431 0.841609 0
M  V30 13422 H 1249.48 -3.8613 1.25135 0
M  V30 13423 H 1250.24 -3.19948 3.64497 0
M  V30 13424 H 1246.12 -3.81674 2.58545 0
M  V30 13425 H 1249.67 -3.51698 6.02457 0
M  V30 13426 H 1245.56 -4.13568 4.95613 0
M  V30 13427 H 1246.33 -4.18995 7.03126 0
M  V30 13428 N 1248.99 -0.981699 -1.2329 0
M  V30 13429 C 1249.94 -0.52269 -2.24803 0
M  V30 13430 C 1250.91 0.439116 -1.6019 0
M  V30 13431 O 1252.1 0.346372 -1.8763 0
M  V30 13432 C 1249.24 0.167477 -3.44693 0
M  V30 13433 C 1248.35 -0.834744 -4.23858 0
M  V30 13434 C 1247.48 -0.119249 -5.31066 0
M  V30 13435 C 1246.52 -1.1106 -6.0194 0
M  V30 13436 N 1245.66 -0.424167 -7.00818 0
M  V30 13437 H 1250.5 -1.39312 -2.63431 0
M  V30 13438 H 1248.04 -0.698061 -1.29482 0
M  V30 13439 H 1250 0.584442 -4.13086 0
M  V30 13440 H 1248.63 1.00177 -3.06862 0
M  V30 13441 H 1247.68 -1.37009 -3.5487 0
M  V30 13442 H 1248.99 -1.59012 -4.72776 0
M  V30 13443 H 1248.14 0.355015 -6.0566 0
M  V30 13444 H 1246.88 0.668714 -4.83094 0
M  V30 13445 H 1245.89 -1.5956 -5.26138 0
M  V30 13446 H 1247.11 -1.89924 -6.52001 0
M  V30 13447 H 1245.06 0.344564 -6.55094 0
M  V30 13448 H 1244.98 -1.11817 -7.47685 0
M  V30 13449 H 1246.24 0.0276655 -7.79495 0
M  V30 13450 N 1250.47 1.3842 -0.753509 0
M  V30 13451 C 1251.4 2.33073 -0.141198 0
M  V30 13452 C 1252.38 1.54863 0.70367 0
M  V30 13453 O 1253.57 1.8318 0.644872 0
M  V30 13454 C 1250.7 3.39043 0.752802 0
M  V30 13455 C 1249.65 4.27999 0.0106692 0
M  V30 13456 C 1248.98 5.24824 1.02291 0
M  V30 13457 C 1250.28 5.09308 -1.15768 0
M  V30 13458 H 1251.97 2.84528 -0.93188 0
M  V30 13459 H 1249.52 1.36802 -0.449567 0
M  V30 13460 H 1251.47 4.04224 1.19083 0
M  V30 13461 H 1250.2 2.8607 1.57581 0
M  V30 13462 H 1248.85 3.64323 -0.407939 0
M  V30 13463 H 1248.5 4.68139 1.83998 0
M  V30 13464 H 1248.2 5.85196 0.53101 0
M  V30 13465 H 1249.73 5.92882 1.46026 0
M  V30 13466 H 1251.14 5.6773 -0.797203 0
M  V30 13467 H 1249.54 5.78914 -1.58044 0
M  V30 13468 H 1250.61 4.43051 -1.97062 0
M  V30 13469 N 1251.95 0.502579 1.49372 0
M  V30 13470 C 1253.37 0.158641 1.5881 0
M  V30 13471 C 1253.57 -1.33688 1.50764 0
M  V30 13472 O 1252.62 -2.11295 1.38241 0
M  V30 13473 C 1253.94 0.736843 2.91532 0
M  V30 13474 C 1255.48 0.703093 3.05001 0
M  V30 13475 C 1255.96 1.25938 4.40345 0
M  V30 13476 N 1257.45 1.22015 4.46841 0
M  V30 13477 C 1258.18 1.62076 5.50017 0
M  V30 13478 N 1257.68 2.09736 6.6029 0
M  V30 13479 N 1259.47 1.53482 5.4074 0
M  V30 13480 H 1251.62 1.47487 1.52844 0
M  V30 13481 H 1253.89 0.611851 0.724115 0
M  V30 13482 H 1253.59 1.78573 3.02992 0
M  V30 13483 H 1253.47 0.198178 3.76679 0
M  V30 13484 H 1255.85 -0.336965 2.9317 0
M  V30 13485 H 1255.94 1.27892 2.21534 0
M  V30 13486 H 1255.58 2.29823 4.52928 0
M  V30 13487 H 1255.51 0.659481 5.22454 0
M  V30 13488 H 1258 0.870957 3.67726 0
M  V30 13489 H 1258.31 2.3837 7.35119 0
M  V30 13490 H 1256.66 2.13712 6.61326 0
M  V30 13491 H 1259.85 1.16065 4.53483 0
M  V30 13492 H 1260.02 1.85026 6.21023 0
M  V30 13493 N 1253.43 -1.55816 0.23648 0
M  V30 13494 C 1254.38 -2.20938 -0.66745 0
M  V30 13495 C 1255.35 -1.16982 -1.17917 0
M  V30 13496 O 1256.53 -1.45392 -1.23555 0
M  V30 13497 C 1253.67 -2.90469 -1.86337 0
M  V30 13498 C 1252.78 -4.09056 -1.38915 0
M  V30 13499 C 1251.92 -4.6633 -2.54382 0
M  V30 13500 C 1250.96 -5.77187 -2.0377 0
M  V30 13501 N 1250.09 -6.28688 -3.12564 0
M  V30 13502 H 1254.93 -2.97814 -0.105411 0
M  V30 13503 H 1252.47 -1.47045 -0.0402712 0
M  V30 13504 H 1254.43 -3.28975 -2.56576 0
M  V30 13505 H 1253.06 -2.16086 -2.39806 0
M  V30 13506 H 1252.11 -3.75934 -0.581173 0
M  V30 13507 H 1253.42 -4.89115 -0.978152 0
M  V30 13508 H 1252.58 -5.07355 -3.32679 0
M  V30 13509 H 1251.32 -3.85464 -2.98778 0
M  V30 13510 H 1250.32 -5.35648 -1.23939 0
M  V30 13511 H 1251.55 -6.59896 -1.60355 0
M  V30 13512 H 1249.49 -5.50731 -3.56414 0
M  V30 13513 H 1249.41 -7.03911 -2.75762 0
M  V30 13514 H 1250.68 -6.74371 -3.90952 0
M  V30 13515 N 1254.91 0.036755 -1.57557 0
M  V30 13516 C 1256.13 0.741086 -1.93172 0
M  V30 13517 C 1256.55 1.69303 -0.835589 0
M  V30 13518 O 1255.91 1.81523 0.1886 0
M  V30 13519 C 1255.96 1.50477 -3.28693 0
M  V30 13520 O 1255.68 0.591046 -4.34095 0
M  V30 13521 C 1257.18 2.30695 -3.78543 0
M  V30 13522 H 1254.4 0.208731 -0.637709 0
M  V30 13523 H 1256.94 -0.00342776 -2.045 0
M  V30 13524 H 1255.1 2.20123 -3.18786 0
M  V30 13525 H 1255.51 1.12579 -5.12276 0
M  V30 13526 H 1256.99 2.79685 -4.759 0
M  V30 13527 H 1257.46 3.11778 -3.0934 0
M  V30 13528 H 1258.07 1.66138 -3.91508 0
M  V30 13529 N 1256.39 1.54543 0.308881 0
M  V30 13530 C 1257.35 1.84214 1.36374 0
M  V30 13531 C 1258.35 0.71463 1.44047 0
M  V30 13532 O 1259.54 0.98293 1.4382 0
M  V30 13533 C 1256.67 2.01535 2.74948 0
M  V30 13534 H 1257.86 2.78477 1.11314 0
M  V30 13535 H 1255.42 1.46485 0.545141 0
M  V30 13536 H 1256.15 1.09533 3.05242 0
M  V30 13537 H 1255.94 2.83595 2.7077 0
M  V30 13538 H 1257.43 2.25888 3.51233 0
M  V30 13539 N 1257.86 -0.571685 1.46866 0
M  V30 13540 C 1258.77 -1.70758 1.60869 0
M  V30 13541 C 1259.79 -1.66903 0.49186 0
M  V30 13542 O 1260.97 -1.86613 0.757468 0
M  V30 13543 C 1258.03 -3.07267 1.60586 0
M  V30 13544 C 1257.09 -3.22301 2.83585 0
M  V30 13545 C 1256.32 -4.52298 2.83306 0
M  V30 13546 O 1256.55 -5.36869 1.92685 0
M  V30 13547 O 1255.48 -4.70814 3.7499 0
M  V30 13548 H 1259.31 -1.6189 2.56954 0
M  V30 13549 H 1256.89 -0.740018 1.29785 0
M  V30 13550 H 1258.77 -3.8853 1.63163 0
M  V30 13551 H 1257.45 -3.16549 0.676637 0
M  V30 13552 H 1256.36 -2.4049 2.86558 0
M  V30 13553 H 1257.69 -3.17916 3.75753 0
M  V30 13554 N 1259.34 -1.34755 -0.817236 0
M  V30 13555 C 1260.76 -1.14561 -1.11121 0
M  V30 13556 C 1260.96 0.0490776 -2.0144 0
M  V30 13557 O 1260.01 0.722897 -2.41931 0
M  V30 13558 C 1261.33 -2.44356 -1.75244 0
M  V30 13559 C 1262.87 -2.50465 -1.87713 0
M  V30 13560 C 1263.35 -3.80276 -2.55253 0
M  V30 13561 N 1264.84 -3.81468 -2.62747 0
M  V30 13562 C 1265.58 -4.78634 -3.15749 0
M  V30 13563 N 1265.07 -5.86184 -3.6927 0
M  V30 13564 N 1266.86 -4.66083 -3.14203 0
M  V30 13565 H 1259.02 -2.11293 -0.2166 0
M  V30 13566 H 1261.28 -0.934629 -0.158661 0
M  V30 13567 H 1260.98 -3.31899 -1.16344 0
M  V30 13568 H 1260.86 -2.58117 -2.75055 0
M  V30 13569 H 1263.25 -1.63358 -2.45761 0
M  V30 13570 H 1263.33 -2.40627 -0.867887 0
M  V30 13571 H 1262.97 -4.67776 -1.97858 0
M  V30 13572 H 1262.9 -3.87399 -3.56693 0
M  V30 13573 H 1265.39 -3.03753 -2.24817 0
M  V30 13574 H 1265.7 -6.56332 -4.0798 0
M  V30 13575 H 1264.05 -5.8989 -3.67498 0
M  V30 13576 H 1267.24 -3.81206 -2.7166 0
M  V30 13577 H 1267.41 -5.41973 -3.55203 0
M  V30 13578 N 1260.82 1.03812 -1.18578 0
M  V30 13579 C 1261.73 2.15371 -0.930182 0
M  V30 13580 C 1262.75 1.73673 0.106599 0
M  V30 13581 O 1263.92 2.01257 -0.0759054 0
M  V30 13582 C 1260.99 3.43606 -0.462151 0
M  V30 13583 C 1260.05 3.99671 -1.5672 0
M  V30 13584 C 1259.28 5.21785 -1.12141 0
M  V30 13585 O 1259.5 5.70397 0.0188357 0
M  V30 13586 O 1258.44 5.70449 -1.9202 0
M  V30 13587 H 1262.26 2.39791 -1.86371 0
M  V30 13588 H 1259.85 1.13814 -0.967819 0
M  V30 13589 H 1261.73 4.2088 -0.20934 0
M  V30 13590 H 1260.41 3.20654 0.443052 0
M  V30 13591 H 1259.31 3.23774 -1.87406 0
M  V30 13592 H 1260.65 4.2697 -2.44862 0
M  V30 13593 N 1262.3 0.988223 1.22768 0
M  V30 13594 C 1263.23 0.492919 2.23837 0
M  V30 13595 C 1264.24 -0.409467 1.57567 0
M  V30 13596 O 1265.43 -0.21235 1.77232 0
M  V30 13597 C 1262.53 -0.305428 3.37521 0
M  V30 13598 C 1261.7 0.591966 4.33376 0
M  V30 13599 C 1260.76 -0.15387 5.25975 0
M  V30 13600 O 1259.79 0.459153 5.67345 0
M  V30 13601 N 1260.99 -1.43756 5.62418 0
M  V30 13602 H 1263.76 1.36199 2.66965 0
M  V30 13603 H 1261.32 0.862395 1.3702 0
M  V30 13604 H 1263.31 -0.812921 3.96451 0
M  V30 13605 H 1261.88 -1.07556 2.93514 0
M  V30 13606 H 1261.1 1.28019 3.72833 0
M  V30 13607 H 1262.39 1.20327 4.94367 0
M  V30 13608 H 1261.79 -1.95701 5.30771 0
M  V30 13609 H 1260.34 -1.89034 6.23786 0
M  V30 13610 N 1263.78 -1.38018 0.760839 0
M  V30 13611 C 1265.19 -1.53437 0.439239 0
M  V30 13612 C 1265.39 -1.72184 -1.04666 0
M  V30 13613 O 1264.45 -1.73698 -1.83263 0
M  V30 13614 C 1265.76 -2.73724 1.24481 0
M  V30 13615 C 1267.31 -2.87579 1.23561 0
M  V30 13616 C 1267.78 -4.10836 2.02429 0
M  V30 13617 N 1269.27 -4.17928 1.99727 0
M  V30 13618 C 1270.01 -5.12309 2.57541 0
M  V30 13619 N 1269.51 -6.12317 3.24098 0
M  V30 13620 N 1271.3 -5.04712 2.47431 0
M  V30 13621 H 1263.45 -1.241 1.72375 0
M  V30 13622 H 1265.71 -0.603427 0.73115 0
M  V30 13623 H 1265.42 -2.663 2.29732 0
M  V30 13624 H 1265.29 -3.67111 0.866579 0
M  V30 13625 H 1267.68 -2.9448 0.191122 0
M  V30 13626 H 1267.76 -1.95183 1.6534 0
M  V30 13627 H 1267.4 -4.04696 3.06893 0
M  V30 13628 H 1267.33 -5.02326 1.58039 0
M  V30 13629 H 1269.83 -3.46307 1.51262 0
M  V30 13630 H 1270.14 -6.80842 3.65615 0
M  V30 13631 H 1268.48 -6.12628 3.28195 0
M  V30 13632 H 1271.67 -4.25524 1.95057 0
M  V30 13633 H 1271.85 -5.78085 2.92783 0
M  V30 13634 N 1265.25 -0.510493 -1.49103 0
M  V30 13635 C 1266.48 0.0293113 -2.07379 0
M  V30 13636 C 1266.9 1.29195 -1.36713 0
M  V30 13637 O 1266.26 1.76204 -0.426838 0
M  V30 13638 C 1266.31 0.25629 -3.59688 0
M  V30 13639 O 1265.41 1.32907 -3.90397 0
M  V30 13640 H 1264.75 -0.0304449 -0.663302 0
M  V30 13641 H 1267.28 -0.712832 -1.91781 0
M  V30 13642 H 1267.29 0.484915 -4.05108 0
M  V30 13643 H 1265.97 -0.666163 -4.1053 0
M  V30 13644 H 1264.55 1.08464 -3.56777 0
M  V30 13645 N 1266.73 1.55688 -0.24474 0
M  V30 13646 C 1267.98 1.98891 0.380603 0
M  V30 13647 C 1268.31 1.13283 1.58105 0
M  V30 13648 O 1267.56 0.183141 1.94841 0
M  V30 13649 C 1267.86 3.47487 0.835923 0
M  V30 13650 C 1267.53 4.5017 -0.256528 0
M  V30 13651 C 1266.19 4.7797 -0.556573 0
M  V30 13652 C 1268.54 5.1163 -0.994174 0
M  V30 13653 C 1265.87 5.64508 -1.59838 0
M  V30 13654 C 1268.22 5.99297 -2.02548 0
M  V30 13655 C 1266.88 6.25432 -2.3322 0
M  V30 13656 H 1266.15 0.727794 0.139273 0
M  V30 13657 H 1268.8 1.88235 -0.352113 0
M  V30 13658 H 1267.11 3.55464 1.64781 0
M  V30 13659 H 1268.8 3.78301 1.33001 0
M  V30 13660 H 1265.39 4.28598 -0.0125284 0
M  V30 13661 H 1269.58 4.90202 -0.775617 0
M  V30 13662 H 1264.83 5.83012 -1.84138 0
M  V30 13663 H 1269.01 6.45964 -2.60198 0
M  V30 13664 H 1266.63 6.92282 -3.14085 0
M  V30 13665 N 1268.21 -0.0283989 1.57574 0
M  V30 13666 C 1269.45 -0.723912 1.91151 0
M  V30 13667 C 1269.81 -1.72485 0.843381 0
M  V30 13668 O 1271.01 -2.46866 1.06351 0
M  V30 13669 C 1269.29 -1.37537 3.29876 0
M  V30 13670 S 1270.84 -2.09995 3.85289 0
M  V30 13671 H 1267.66 -0.239802 0.66934 0
M  V30 13672 H 1270.26 0.0214644 1.95488 0
M  V30 13673 H 1268.97 -0.633659 4.05479 0
M  V30 13674 H 1268.5 -2.15928 3.28844 0
M  V30 13675 H 1270.51 -3.37146 3.6407 0
M  V30 13676 N 1269.69 -1.54705 -0.300681 0
M  V30 13677 C 1270.91 -1.78318 -1.05913 0
M  V30 13678 C 1271.34 -0.541177 -1.80147 0
M  V30 13679 O 1270.7 0.508291 -1.74029 0
M  V30 13680 C 1270.74 -2.99041 -2.01511 0
M  V30 13681 O 1269.85 -2.72188 -3.09818 0
M  V30 13682 H 1269.19 -0.590197 -0.304242 0
M  V30 13683 H 1271.72 -2.01789 -0.338006 0
M  V30 13684 H 1271.73 -3.2702 -2.43971 0
M  V30 13685 H 1270.4 -3.89098 -1.46886 0
M  V30 13686 H 1268.98 -2.55227 -2.71871 0
M  V30 13687 N 1271.17 0.563888 -1.47167 0
M  V30 13688 C 1272.39 1.34693 -1.57052 0
M  V30 13689 C 1272.81 1.87534 -0.218308 0
M  V30 13690 O 1272.17 1.64639 0.787416 0
M  V30 13691 C 1272.22 2.52148 -2.59044 0
M  V30 13692 O 1271.94 2.01492 -3.89015 0
M  V30 13693 C 1273.44 3.4445 -2.7905 0
M  V30 13694 H 1270.66 0.410822 -0.530534 0
M  V30 13695 H 1273.2 0.683731 -1.92731 0
M  V30 13696 H 1271.36 3.14419 -2.26317 0
M  V30 13697 H 1271.77 2.78122 -4.44689 0
M  V30 13698 H 1273.25 4.23297 -3.54293 0
M  V30 13699 H 1273.72 3.97575 -1.86631 0
M  V30 13700 H 1274.33 2.88 -3.12948 0
M  V30 13701 N 1272.64 1.35187 0.810078 0
M  V30 13702 C 1273.89 1.28454 1.56931 0
M  V30 13703 C 1274.22 -0.141747 1.93682 0
M  V30 13704 O 1273.5 -1.09028 1.61069 0
M  V30 13705 C 1273.78 2.18771 2.86027 0
M  V30 13706 C 1273.63 3.69999 2.55774 0
M  V30 13707 C 1274.95 2.08265 3.87703 0
M  V30 13708 H 1272.07 0.467959 0.569371 0
M  V30 13709 H 1274.71 1.65556 0.932262 0
M  V30 13710 H 1272.86 1.8726 3.40391 0
M  V30 13711 H 1274.54 4.11936 2.07621 0
M  V30 13712 H 1272.78 3.90453 1.89021 0
M  V30 13713 H 1273.45 4.28577 3.47888 0
M  V30 13714 H 1275.93 2.35958 3.42729 0
M  V30 13715 H 1274.8 2.73663 4.75815 0
M  V30 13716 H 1275.06 1.06352 4.29117 0
M  V30 13717 N 1274.12 -1.03182 1.19127 0
M  V30 13718 C 1275.09 -2.09559 0.928307 0
M  V30 13719 C 1276.09 -1.60548 -0.0899992 0
M  V30 13720 O 1277.28 -1.736 0.144422 0
M  V30 13721 C 1274.41 -3.38609 0.394561 0
M  V30 13722 H 1275.6 -2.34321 1.87173 0
M  V30 13723 H 1273.15 -1.19746 1.00452 0
M  V30 13724 H 1273.89 -3.19515 -0.555046 0
M  V30 13725 H 1273.67 -3.75502 1.12873 0
M  V30 13726 H 1275.16 -4.16969 0.229569 0
M  V30 13727 N 1275.6 -0.99472 -1.22242 0
M  V30 13728 C 1276.88 -0.587481 -1.86569 0
M  V30 13729 C 1277.26 0.935174 -1.89256 0
M  V30 13730 O 1276.61 1.81787 -1.3844 0
M  V30 13731 C 1276.82 -1.21001 -3.27353 0
M  V30 13732 C 1278.16 -1.31167 -4.03832 0
M  V30 13733 O 1279.19 -1.16454 -3.36626 0
M  V30 13734 O 1278.05 -1.54731 -5.24138 0
M  V30 13735 H 1275.14 -0.199838 -0.802492 0
M  V30 13736 H 1277.69 -1.09071 -1.30006 0
M  V30 13737 H 1276.46 -2.25143 -3.20041 0
M  V30 13738 H 1276.08 -0.692479 -3.91523 0
M  V30 13739 N 1277.08 1.37613 -0.768148 0
M  V30 13740 C 1277.99 2.34103 -0.152649 0
M  V30 13741 C 1279 1.6 0.683811 0
M  V30 13742 O 1280.18 1.92112 0.604572 0
M  V30 13743 C 1277.25 3.39164 0.718954 0
M  V30 13744 C 1276.31 4.29092 -0.13355 0
M  V30 13745 C 1275.54 5.29135 0.696547 0
M  V30 13746 O 1275.76 5.36618 1.93383 0
M  V30 13747 O 1274.7 6.01804 0.107652 0
M  V30 13748 H 1278.52 2.88462 -0.949899 0
M  V30 13749 H 1276.11 1.39711 -0.529252 0
M  V30 13750 H 1277.99 4.03454 1.21665 0
M  V30 13751 H 1276.66 2.87137 1.49445 0
M  V30 13752 H 1275.57 3.67914 -0.677528 0
M  V30 13753 H 1276.9 4.84413 -0.872048 0
M  V30 13754 N 1278.56 0.518393 1.4883 0
M  V30 13755 C 1279.81 -0.0218436 2.01688 0
M  V30 13756 C 1280.12 -1.36421 1.40174 0
M  V30 13757 O 1281.32 -1.99214 1.84461 0
M  V30 13758 C 1279.78 -0.0893538 3.59789 0
M  V30 13759 C 1279.39 1.24741 4.30283 0
M  V30 13760 C 1281.13 -0.579032 4.20532 0
M  V30 13761 C 1279.04 1.14112 5.80286 0
M  V30 13762 H 1277.97 -0.0119353 0.753906 0
M  V30 13763 H 1280.62 0.660432 1.71203 0
M  V30 13764 H 1279 -0.836458 3.87065 0
M  V30 13765 H 1280.18 2.00917 4.14691 0
M  V30 13766 H 1278.49 1.67191 3.81361 0
M  V30 13767 H 1281.09 -0.676343 5.30405 0
M  V30 13768 H 1281.43 -1.58207 3.85067 0
M  V30 13769 H 1281.96 0.112046 3.97642 0
M  V30 13770 H 1278.7 2.11895 6.20307 0
M  V30 13771 H 1278.22 0.420535 5.98324 0
M  V30 13772 H 1279.9 0.826992 6.41693 0
M  V30 13773 N 1280.03 -1.55556 0.252993 0
M  V30 13774 C 1281.45 -1.59276 -0.101714 0
M  V30 13775 C 1281.65 -1.27018 -1.56424 0
M  V30 13776 O 1280.71 -1.02042 -2.30963 0
M  V30 13777 C 1282.02 -2.99634 0.252969 0
M  V30 13778 C 1283.57 -3.12375 0.197767 0
M  V30 13779 C 1284.04 -4.54963 0.52657 0
M  V30 13780 N 1285.53 -4.60734 0.477296 0
M  V30 13781 C 1286.27 -5.69052 0.704793 0
M  V30 13782 N 1285.76 -6.85607 0.99574 0
M  V30 13783 N 1287.56 -5.58501 0.635086 0
M  V30 13784 H 1279.71 -1.74793 1.2067 0
M  V30 13785 H 1281.97 -0.813971 0.485958 0
M  V30 13786 H 1281.68 -3.27998 1.26926 0
M  V30 13787 H 1281.55 -3.74888 -0.416984 0
M  V30 13788 H 1283.94 -2.83788 -0.809209 0
M  V30 13789 H 1284.02 -2.39382 0.901659 0
M  V30 13790 H 1283.66 -4.84271 1.53113 0
M  V30 13791 H 1283.59 -5.26224 -0.198869 0
M  V30 13792 H 1286.08 -3.76995 0.261398 0
M  V30 13793 H 1286.4 -7.64096 1.15659 0
M  V30 13794 H 1284.74 -6.87276 1.03328 0
M  V30 13795 H 1287.93 -4.6632 0.407789 0
M  V30 13796 H 1288.11 -6.42845 0.815777 0
M  V30 13797 N 1281.51 0.0200419 -1.57587 0
M  V30 13798 C 1282.76 0.709027 -1.89681 0
M  V30 13799 C 1283.09 1.74876 -0.851396 0
M  V30 13800 O 1282.34 1.95151 0.146483 0
M  V30 13801 C 1282.64 1.40729 -3.28527 0
M  V30 13802 C 1282.31 0.502686 -4.48089 0
M  V30 13803 C 1280.97 0.253558 -4.80532 0
M  V30 13804 C 1283.32 -0.121338 -5.21059 0
M  V30 13805 C 1280.65 -0.628221 -5.83327 0
M  V30 13806 C 1283 -0.990873 -6.24792 0
M  V30 13807 C 1281.67 -1.24937 -6.55703 0
M  V30 13808 H 1280.94 0.259451 -0.694094 0
M  V30 13809 H 1283.58 -0.03118 -1.91475 0
M  V30 13810 H 1281.89 2.22105 -3.22764 0
M  V30 13811 H 1283.58 1.94609 -3.50611 0
M  V30 13812 H 1280.17 0.707018 -4.22728 0
M  V30 13813 H 1284.36 0.0581516 -4.96266 0
M  V30 13814 H 1279.61 -0.836712 -6.05648 0
M  V30 13815 H 1283.79 -1.48087 -6.80473 0
M  V30 13816 H 1281.42 -1.93436 -7.35178 0
M  V30 13817 N 1282.99 1.54862 0.292472 0
M  V30 13818 C 1284.22 1.78877 1.04966 0
M  V30 13819 C 1284.64 0.550724 1.79857 0
M  V30 13820 O 1284 -0.499054 1.74296 0
M  V30 13821 C 1284.05 3.00106 1.99922 0
M  V30 13822 O 1283.15 2.73827 3.0837 0
M  V30 13823 H 1282.49 0.591802 0.301108 0
M  V30 13824 H 1285.02 2.01965 0.3273 0
M  V30 13825 H 1285.03 3.28309 2.42233 0
M  V30 13826 H 1283.71 3.89872 1.44821 0
M  V30 13827 H 1282.28 2.56665 2.70513 0
M  V30 13828 N 1284.47 -0.556076 1.47464 0
M  V30 13829 C 1285.4 -1.67275 1.62915 0
M  V30 13830 C 1286.38 -1.63229 0.478562 0
M  V30 13831 O 1287.56 -1.80833 0.708032 0
M  V30 13832 C 1284.69 -3.05911 1.64426 0
M  V30 13833 C 1283.65 -3.24804 2.78722 0
M  V30 13834 C 1282.97 -4.64238 2.65307 0
M  V30 13835 C 1284.27 -3.10071 4.20302 0
M  V30 13836 H 1285.97 -1.54601 2.56396 0
M  V30 13837 H 1283.51 -0.742337 1.23391 0
M  V30 13838 H 1285.47 -3.83878 1.73826 0
M  V30 13839 H 1284.19 -3.19547 0.675053 0
M  V30 13840 H 1282.85 -2.49246 2.68835 0
M  V30 13841 H 1282.5 -4.74675 1.66412 0
M  V30 13842 H 1282.2 -4.77828 3.41986 0
M  V30 13843 H 1283.72 -5.44339 2.76637 0
M  V30 13844 H 1285.14 -3.77855 4.3116 0
M  V30 13845 H 1283.53 -3.3517 4.97776 0
M  V30 13846 H 1284.6 -2.06803 4.38589 0
M  V30 13847 N 1285.95 -1.35615 -0.802897 0
M  V30 13848 C 1287.18 -1.32217 -1.59142 0
M  V30 13849 C 1287.59 0.0995496 -1.88537 0
M  V30 13850 O 1286.95 1.05258 -1.49087 0
M  V30 13851 C 1287 -2.13048 -2.92049 0
M  V30 13852 O 1286.72 -3.49677 -2.63927 0
M  V30 13853 C 1288.22 -2.17278 -3.864 0
M  V30 13854 H 1285.44 -0.454054 -0.49404 0
M  V30 13855 H 1287.98 -1.78521 -0.997516 0
M  V30 13856 H 1286.14 -1.70334 -3.47944 0
M  V30 13857 H 1286.55 -3.917 -3.48814 0
M  V30 13858 H 1288.03 -2.7822 -4.76758 0
M  V30 13859 H 1288.5 -1.17253 -4.23259 0
M  V30 13860 H 1289.11 -2.6017 -3.3644 0
M  V30 13861 N 1287.43 1.02549 -1.19673 0
M  V30 13862 C 1288.67 1.77554 -1.01261 0
M  V30 13863 C 1289.03 1.86692 0.448357 0
M  V30 13864 O 1290.23 2.58055 0.752386 0
M  V30 13865 C 1288.5 3.16132 -1.66719 0
M  V30 13866 S 1290.06 4.07285 -1.63291 0
M  V30 13867 H 1286.88 0.611178 -0.363294 0
M  V30 13868 H 1289.48 1.22852 -1.52078 0
M  V30 13869 H 1288.18 3.07101 -2.72244 0
M  V30 13870 H 1287.72 3.7591 -1.15996 0
M  V30 13871 H 1289.73 4.91798 -0.659499 0
M  V30 13872 N 1288.9 1.00119 1.21713 0
M  V30 13873 C 1289.84 0.516633 2.23301 0
M  V30 13874 C 1290.85 -0.392732 1.57992 0
M  V30 13875 O 1292.04 -0.19354 1.77448 0
M  V30 13876 C 1289.14 -0.269612 3.37826 0
M  V30 13877 C 1288.31 0.637898 4.32723 0
M  V30 13878 C 1287.37 -0.0980745 5.26109 0
M  V30 13879 O 1286.4 0.519302 5.66826 0
M  V30 13880 N 1287.6 -1.37783 5.63911 0
M  V30 13881 H 1290.36 1.39022 2.65505 0
M  V30 13882 H 1287.92 0.87688 1.36097 0
M  V30 13883 H 1289.92 -0.770826 3.97291 0
M  V30 13884 H 1288.49 -1.04436 2.94638 0
M  V30 13885 H 1287.71 1.31966 3.71455 0
M  V30 13886 H 1288.99 1.25564 4.93063 0
M  V30 13887 H 1288.39 -1.90061 5.32817 0
M  V30 13888 H 1286.95 -1.82407 6.25756 0
M  V30 13889 N 1290.38 -1.37203 0.775435 0
M  V30 13890 C 1291.8 -1.52962 0.455488 0
M  V30 13891 C 1292 -1.73284 -1.02834 0
M  V30 13892 O 1291.05 -1.75631 -1.81411 0
M  V30 13893 C 1292.37 -2.72389 1.27377 0
M  V30 13894 C 1293.91 -2.86252 1.26604 0
M  V30 13895 C 1294.39 -4.08666 2.06775 0
M  V30 13896 N 1295.88 -4.15786 2.04148 0
M  V30 13897 C 1296.62 -5.09548 2.6296 0
M  V30 13898 N 1296.11 -6.08845 3.30574 0
M  V30 13899 N 1297.9 -5.02059 2.5277 0
M  V30 13900 H 1290.06 -1.22265 1.73681 0
M  V30 13901 H 1292.32 -0.595638 0.737509 0
M  V30 13902 H 1292.02 -2.63849 2.32544 0
M  V30 13903 H 1291.9 -3.66171 0.905467 0
M  V30 13904 H 1294.29 -2.94261 0.222345 0
M  V30 13905 H 1294.37 -1.93418 1.67401 0
M  V30 13906 H 1294.01 -4.01419 3.11168 0
M  V30 13907 H 1293.94 -5.00621 1.63358 0
M  V30 13908 H 1296.43 -3.44683 1.54926 0
M  V30 13909 H 1296.74 -6.76926 3.72815 0
M  V30 13910 H 1295.09 -6.09113 3.34674 0
M  V30 13911 H 1298.28 -4.23431 1.99559 0
M  V30 13912 H 1298.45 -5.74947 2.98898 0
M  V30 13913 N 1291.86 -0.526279 -1.48553 0
M  V30 13914 C 1293.28 -0.183886 -1.58537 0
M  V30 13915 C 1293.48 1.31272 -1.52872 0
M  V30 13916 O 1292.53 2.09069 -1.41585 0
M  V30 13917 C 1293.84 -0.78313 -2.90323 0
M  V30 13918 C 1295.39 -0.751527 -3.03844 0
M  V30 13919 C 1295.87 -1.32928 -4.38285 0
M  V30 13920 N 1297.36 -1.29109 -4.44843 0
M  V30 13921 C 1298.09 -1.70806 -5.47369 0
M  V30 13922 N 1297.59 -2.20215 -6.56869 0
M  V30 13923 N 1299.38 -1.62065 -5.3823 0
M  V30 13924 H 1291.53 -1.499 -1.50478 0
M  V30 13925 H 1293.8 -0.623294 -0.714289 0
M  V30 13926 H 1293.5 -1.83371 -3.00113 0
M  V30 13927 H 1293.38 -0.25808 -3.76316 0
M  V30 13928 H 1295.76 0.290282 -2.93669 0
M  V30 13929 H 1295.84 -1.314 -2.19471 0
M  V30 13930 H 1295.49 -2.37 -4.49214 0
M  V30 13931 H 1295.42 -0.742516 -5.21339 0
M  V30 13932 H 1297.91 -0.929348 -3.66294 0
M  V30 13933 H 1298.22 -2.50035 -7.31233 0
M  V30 13934 H 1296.57 -2.24206 -6.57842 0
M  V30 13935 H 1299.76 -1.23265 -4.51579 0
M  V30 13936 H 1299.93 -1.94883 -6.18001 0
M  V30 13937 N 1293.34 1.5542 -0.261239 0
M  V30 13938 C 1294.58 1.99579 0.36002 0
M  V30 13939 C 1294.92 1.14933 1.56538 0
M  V30 13940 O 1294.19 0.216082 1.93296 0
M  V30 13941 C 1294.47 3.52078 0.755842 0
M  V30 13942 C 1294.33 4.47484 -0.455896 0
M  V30 13943 C 1295.65 4.10083 1.5975 0
M  V30 13944 H 1292.77 0.725554 0.129385 0
M  V30 13945 H 1295.41 1.86453 -0.365415 0
M  V30 13946 H 1293.56 3.63394 1.37393 0
M  V30 13947 H 1295.23 4.4813 -1.09441 0
M  V30 13948 H 1293.47 4.19714 -1.09646 0
M  V30 13949 H 1294.14 5.51834 -0.13539 0
M  V30 13950 H 1296.62 4.01957 1.07562 0
M  V30 13951 H 1295.5 5.17024 1.84329 0
M  V30 13952 H 1295.76 3.59438 2.57404 0
M  V30 13953 N 1294.82 -0.0116844 1.57596 0
M  V30 13954 C 1295.76 -1.00684 2.07681 0
M  V30 13955 C 1296.73 -1.34858 0.969666 0
M  V30 13956 O 1297.92 -1.44896 1.24136 0
M  V30 13957 C 1295.06 -2.29729 2.57524 0
M  V30 13958 C 1294.17 -2.0156 3.82096 0
M  V30 13959 C 1293.31 -3.24601 4.20485 0
M  V30 13960 C 1292.34 -2.92066 5.37925 0
M  V30 13961 N 1291.48 -4.0761 5.71663 0
M  V30 13962 H 1296.32 -0.572787 2.92443 0
M  V30 13963 H 1293.86 -0.271184 1.44579 0
M  V30 13964 H 1295.82 -3.05152 2.84496 0
M  V30 13965 H 1294.45 -2.70824 1.75653 0
M  V30 13966 H 1293.5 -1.16556 3.62103 0
M  V30 13967 H 1294.81 -1.73572 4.67626 0
M  V30 13968 H 1293.96 -4.08379 4.48677 0
M  V30 13969 H 1292.7 -3.55718 3.3364 0
M  V30 13970 H 1291.71 -2.06693 5.09468 0
M  V30 13971 H 1292.93 -2.62209 6.26437 0
M  V30 13972 H 1290.88 -4.38645 4.87777 0
M  V30 13973 H 1290.8 -3.83105 6.51741 0
M  V30 13974 H 1292.06 -4.92211 6.04441 0
M  V30 13975 N 1296.29 -1.55015 -0.284256 0
M  V30 13976 C 1297.24 -1.83508 -1.3531 0
M  V30 13977 C 1298.23 -0.693244 -1.452 0
M  V30 13978 O 1299.42 -0.954312 -1.4907 0
M  V30 13979 C 1296.55 -2.10059 -2.71533 0
M  V30 13980 C 1295.63 -3.30472 -2.65799 0
M  V30 13981 N 1296.03 -4.50644 -2.29682 0
M  V30 13982 C 1294.32 -3.32836 -2.96878 0
M  V30 13983 C 1295.02 -5.32708 -2.33661 0
M  V30 13984 N 1294 -4.70837 -2.71687 0
M  V30 13985 H 1297.8 -2.73973 -1.06377 0
M  V30 13986 H 1295.32 -1.5474 -0.492875 0
M  V30 13987 H 1297.31 -2.28624 -3.48621 0
M  V30 13988 H 1295.97 -1.20872 -3.01364 0
M  V30 13989 H 1296.98 -4.76945 -2.0185 0
M  V30 13990 H 1293.66 -2.53807 -3.31494 0
M  V30 13991 H 1295.05 -6.38766 -2.08394 0
M  V30 13992 N 1297.77 0.548248 -1.47757 0
M  V30 13993 C 1298.72 1.65453 -1.60916 0
M  V30 13994 C 1299.69 1.59836 -0.451831 0
M  V30 13995 O 1300.87 1.78536 -0.673023 0
M  V30 13996 C 1298.01 3.0376 -1.6378 0
M  V30 13997 C 1297.13 3.19747 -2.90492 0
M  V30 13998 C 1296.26 4.48505 -2.84635 0
M  V30 13999 C 1295.3 4.57956 -4.06132 0
M  V30 14000 N 1294.44 5.78079 -3.98458 0
M  V30 14001 H 1299.28 1.53545 -2.55398 0
M  V30 14002 H 1296.81 0.747826 -1.26673 0
M  V30 14003 H 1298.77 3.8386 -1.63424 0
M  V30 14004 H 1297.4 3.14483 -0.728036 0
M  V30 14005 H 1296.45 2.3302 -3.00676 0
M  V30 14006 H 1297.77 3.22594 -3.8044 0
M  V30 14007 H 1296.92 5.36875 -2.82577 0
M  V30 14008 H 1295.66 4.48151 -1.92385 0
M  V30 14009 H 1294.66 3.67995 -4.08484 0
M  V30 14010 H 1295.89 4.60062 -4.9952 0
M  V30 14011 H 1293.84 5.78657 -3.09017 0
M  V30 14012 H 1293.75 5.82342 -4.82093 0
M  V30 14013 H 1295.02 6.68786 -4.00431 0
M  V30 14014 N 1299.25 1.36039 0.795694 0
M  V30 14015 C 1300.66 1.2679 1.37044 0
M  V30 14016 C 1301.01 -0.0950192 1.9597 0
M  V30 14017 O 1300.14 -0.996311 1.921 0
M  V30 14018 C 1300.73 2.29585 2.49151 0
M  V30 14019 C 1299.29 2.24044 3.02458 0
M  V30 14020 C 1298.44 2.14703 1.75493 0
M  V30 14021 H 1301.39 1.47009 0.597843 0
M  V30 14022 H 1301.41 1.92864 3.27999 0
M  V30 14023 H 1300.92 3.28769 2.06234 0
M  V30 14024 H 1299.02 1.28307 3.49812 0
M  V30 14025 H 1299.14 3.1647 3.597 0
M  V30 14026 H 1297.5 1.60856 1.97478 0
M  V30 14027 H 1298.28 3.15765 1.34713 0
M  V30 14028 N 1300.73 -1.01913 1.20215 0
M  V30 14029 C 1301.66 -2.10513 0.906476 0
M  V30 14030 C 1302.67 -1.62463 -0.104758 0
M  V30 14031 O 1303.86 -1.78055 0.12593 0
M  V30 14032 C 1300.96 -3.3722 0.337012 0
M  V30 14033 C 1300.14 -4.14417 1.39917 0
M  V30 14034 C 1299.19 -5.19428 0.841489 0
M  V30 14035 O 1298.22 -5.48486 1.52157 0
M  V30 14036 N 1299.42 -5.79442 -0.350365 0
M  V30 14037 H 1302.19 -2.36465 1.84132 0
M  V30 14038 H 1299.75 -1.18283 1.10548 0
M  V30 14039 H 1301.74 -4.04669 -0.0501507 0
M  V30 14040 H 1300.31 -3.08538 -0.502325 0
M  V30 14041 H 1299.53 -3.41975 1.96078 0
M  V30 14042 H 1300.82 -4.62777 2.1146 0
M  V30 14043 H 1300.22 -5.58166 -0.920204 0
M  V30 14044 H 1298.77 -6.48252 -0.679194 0
M  V30 14045 N 1302.21 -1.00763 -1.2118 0
M  V30 14046 C 1303.62 -0.724746 -1.72059 0
M  V30 14047 C 1303.97 0.757413 -1.80991 0
M  V30 14048 O 1303.09 1.59152 -1.46627 0
M  V30 14049 C 1303.69 -1.30893 -3.12494 0
M  V30 14050 C 1302.25 -1.07511 -3.60719 0
M  V30 14051 C 1301.39 -1.42014 -2.38175 0
M  V30 14052 H 1304.35 -1.17821 -1.0632 0
M  V30 14053 H 1304.37 -0.694919 -3.741 0
M  V30 14054 H 1303.88 -2.38767 -3.05961 0
M  V30 14055 H 1301.98 -0.0136518 -3.72597 0
M  V30 14056 H 1302.09 -1.74885 -4.4604 0
M  V30 14057 H 1300.46 -0.838972 -2.40486 0
M  V30 14058 H 1301.24 -2.50924 -2.34291 0
M  V30 14059 N 1303.68 1.3679 -0.7827 0
M  V30 14060 C 1305.1 1.82006 -0.41603 0
M  V30 14061 C 1305.45 1.65151 1.05922 0
M  V30 14062 O 1304.57 1.1687 1.82127 0
M  V30 14063 C 1305.17 3.30432 -0.748353 0
M  V30 14064 C 1303.73 3.73883 -0.4346 0
M  V30 14065 C 1302.87 2.59159 -0.986505 0
M  V30 14066 H 1305.82 1.25107 -0.976423 0
M  V30 14067 H 1305.84 3.80482 -0.036985 0
M  V30 14068 H 1305.36 3.42667 -1.82212 0
M  V30 14069 H 1303.46 3.67211 0.631401 0
M  V30 14070 H 1303.57 4.69577 -0.950511 0
M  V30 14071 H 1301.93 2.51377 -0.410108 0
M  V30 14072 H 1302.72 2.74182 -2.06589 0
M  V30 14073 N 1305.16 0.53415 1.48272 0
M  V30 14074 C 1306.1 -0.273689 2.26553 0
M  V30 14075 C 1307.07 -0.941085 1.32598 0
M  V30 14076 O 1308.26 -0.964653 1.61947 0
M  V30 14077 C 1305.38 -1.38796 3.08955 0
M  V30 14078 C 1304.43 -0.831533 4.18315 0
M  V30 14079 S 1305.26 0.303875 5.34637 0
M  V30 14080 C 1306.42 -0.812767 6.206 0
M  V30 14081 H 1306.65 0.390639 2.94722 0
M  V30 14082 H 1304.19 0.320014 1.51047 0
M  V30 14083 H 1306.14 -2.02622 3.57008 0
M  V30 14084 H 1304.8 -2.02402 2.40192 0
M  V30 14085 H 1304 -1.66758 4.75613 0
M  V30 14086 H 1303.6 -0.269881 3.73025 0
M  V30 14087 H 1305.89 -1.71043 6.55554 0
M  V30 14088 H 1306.83 -0.27767 7.07555 0
M  V30 14089 H 1307.24 -1.09505 5.53777 0
M  V30 14090 N 1306.64 -1.55279 0.269478 0
M  V30 14091 C 1307.57 -2.18397 -0.66165 0
M  V30 14092 C 1308.55 -1.1431 -1.15637 0
M  V30 14093 O 1309.74 -1.42808 -1.23037 0
M  V30 14094 C 1306.86 -2.80272 -1.90172 0
M  V30 14095 C 1305.91 -3.97612 -1.54295 0
M  V30 14096 S 1306.74 -5.31828 -0.625995 0
M  V30 14097 C 1307.9 -5.97169 -1.87456 0
M  V30 14098 H 1308.13 -2.97036 -0.125326 0
M  V30 14099 H 1305.66 -1.54306 0.0537711 0
M  V30 14100 H 1307.62 -3.16553 -2.61351 0
M  V30 14101 H 1306.28 -2.01538 -2.40918 0
M  V30 14102 H 1305.48 -4.39576 -2.46555 0
M  V30 14103 H 1305.08 -3.62725 -0.911395 0
M  V30 14104 H 1307.37 -6.16059 -2.81917 0
M  V30 14105 H 1308.31 -6.92073 -1.49803 0
M  V30 14106 H 1308.72 -5.26469 -2.03693 0
M  V30 14107 N 1308.12 0.00332656 -1.576 0
M  V30 14108 C 1309.36 0.68989 -1.90705 0
M  V30 14109 C 1309.7 1.73608 -0.870291 0
M  V30 14110 O 1308.97 1.94181 0.111416 0
M  V30 14111 C 1309.26 1.33605 -3.34397 0
M  V30 14112 C 1309.11 0.301638 -4.48787 0
M  V30 14113 C 1310.43 2.26313 -3.77453 0
M  V30 14114 H 1307.55 0.249328 -0.693545 0
M  V30 14115 H 1310.19 -0.0472847 -1.89941 0
M  V30 14116 H 1308.34 1.96437 -3.35179 0
M  V30 14117 H 1310.01 -0.326738 -4.60141 0
M  V30 14118 H 1308.25 -0.376451 -4.32163 0
M  V30 14119 H 1308.92 0.792741 -5.46278 0
M  V30 14120 H 1311.4 1.73502 -3.78201 0
M  V30 14121 H 1310.28 2.68492 -4.78752 0
M  V30 14122 H 1310.54 3.14082 -3.11135 0
M  V30 14123 N 1309.6 1.55164 0.276031 0
M  V30 14124 C 1310.54 1.87836 1.34113 0
M  V30 14125 C 1311.51 0.729562 1.4922 0
M  V30 14126 O 1312.7 0.980549 1.63676 0
M  V30 14127 C 1309.84 2.15313 2.69693 0
M  V30 14128 C 1308.95 3.42845 2.62833 0
M  V30 14129 C 1308.09 3.60038 3.90572 0
M  V30 14130 C 1307.13 4.81273 3.7821 0
M  V30 14131 N 1306.26 4.95139 4.97777 0
M  V30 14132 H 1311.1 2.78681 1.0555 0
M  V30 14133 H 1308.64 1.37976 0.510001 0
M  V30 14134 H 1310.6 2.29243 3.48573 0
M  V30 14135 H 1309.23 1.27706 2.96464 0
M  V30 14136 H 1308.28 3.37403 1.75679 0
M  V30 14137 H 1309.59 4.3186 2.49597 0
M  V30 14138 H 1308.75 3.73769 4.77893 0
M  V30 14139 H 1307.48 2.69203 4.06671 0
M  V30 14140 H 1306.49 4.67549 2.89271 0
M  V30 14141 H 1307.71 5.7354 3.63632 0
M  V30 14142 H 1305.66 4.07234 5.14292 0
M  V30 14143 H 1305.58 5.78194 4.8706 0
M  V30 14144 H 1306.85 5.13253 5.86679 0
M  V30 14145 N 1311.07 -0.540404 1.48045 0
M  V30 14146 C 1312.3 -1.32177 1.59175 0
M  V30 14147 C 1312.72 -1.87163 0.248115 0
M  V30 14148 O 1312.07 -1.65871 -0.761124 0
M  V30 14149 C 1312.13 -2.47995 2.63023 0
M  V30 14150 O 1311.85 -1.95278 3.92171 0
M  V30 14151 C 1313.35 -3.39967 2.84495 0
M  V30 14152 H 1310.57 -0.40233 0.537002 0
M  V30 14153 H 1313.11 -0.652983 1.93795 0
M  V30 14154 H 1311.27 -3.10779 2.31291 0
M  V30 14155 H 1311.68 -2.71012 4.49058 0
M  V30 14156 H 1313.15 -4.17607 3.60982 0
M  V30 14157 H 1313.63 -3.94555 1.92932 0
M  V30 14158 H 1314.24 -2.82985 3.1749 0
M  V30 14159 N 1312.55 -1.36459 -0.788468 0
M  V30 14160 C 1313.83 -1.21289 -1.53455 0
M  V30 14161 C 1314.21 0.200549 -2.10145 0
M  V30 14162 O 1313.56 1.20629 -1.94064 0
M  V30 14163 C 1313.77 -2.29562 -2.62873 0
M  V30 14164 C 1315.12 -2.66277 -3.30729 0
M  V30 14165 O 1316.14 -2.28612 -2.73157 0
M  V30 14166 O 1315 -3.31106 -4.34777 0
M  V30 14167 H 1312.09 -0.472306 -0.678864 0
M  V30 14168 H 1314.64 -1.48192 -0.826869 0
M  V30 14169 H 1313.41 -3.24286 -2.18984 0
M  V30 14170 H 1313.03 -2.0403 -3.41259 0
M  V30 14171 N 1314.03 1.01274 -1.20754 0
M  V30 14172 C 1314.99 2.08056 -0.961528 0
M  V30 14173 C 1315.99 1.60671 0.0644461 0
M  V30 14174 O 1317.18 1.73349 -0.172022 0
M  V30 14175 C 1314.32 3.37938 -0.448381 0
M  V30 14176 H 1315.51 2.31314 -1.90877 0
M  V30 14177 H 1313.06 1.18133 -1.02344 0
M  V30 14178 H 1313.8 3.20357 0.504144 0
M  V30 14179 H 1313.58 3.73659 -1.18833 0
M  V30 14180 H 1315.07 4.16551 -0.295876 0
M  V30 14181 N 1315.51 1.01404 1.20644 0
M  V30 14182 C 1316.76 0.702949 1.90227 0
M  V30 14183 C 1317.09 -0.765243 1.78487 0
M  V30 14184 O 1316.36 -1.55569 1.16741 0
M  V30 14185 C 1316.65 1.13606 3.4171 0
M  V30 14186 C 1316.5 2.66437 3.62397 0
M  V30 14187 C 1317.82 0.705361 4.34411 0
M  V30 14188 H 1314.94 0.256842 0.690797 0
M  V30 14189 H 1317.58 1.26133 1.42093 0
M  V30 14190 H 1315.73 0.660977 3.82836 0
M  V30 14191 H 1317.4 3.21778 3.3054 0
M  V30 14192 H 1315.64 3.0753 3.05954 0
M  V30 14193 H 1316.32 2.91795 4.68572 0
M  V30 14194 H 1318.79 1.11375 4.00918 0
M  V30 14195 H 1317.67 1.03647 5.39026 0
M  V30 14196 H 1317.93 -0.393094 4.40349 0
M  V30 14197 N 1316.99 -1.36373 0.789944 0
M  V30 14198 C 1318.24 -1.98476 0.359165 0
M  V30 14199 C 1318.55 -1.634 -1.07517 0
M  V30 14200 O 1319.76 -2.18742 -1.60824 0
M  V30 14201 C 1318.21 -3.55011 0.591228 0
M  V30 14202 C 1317.82 -3.99011 2.03701 0
M  V30 14203 C 1319.56 -4.23903 0.224979 0
M  V30 14204 C 1317.47 -5.48325 2.2157 0
M  V30 14205 H 1316.4 -0.742612 0.130552 0
M  V30 14206 H 1319.05 -1.55664 0.971652 0
M  V30 14207 H 1317.43 -3.95895 -0.0909788 0
M  V30 14208 H 1318.61 -3.69324 2.75566 0
M  V30 14209 H 1316.92 -3.42957 2.36155 0
M  V30 14210 H 1319.52 -5.33638 0.336764 0
M  V30 14211 H 1319.86 -4.08004 -0.826964 0
M  V30 14212 H 1320.4 -3.88383 0.860443 0
M  V30 14213 H 1317.13 -5.69173 3.25149 0
M  V30 14214 H 1316.65 -5.79637 1.54211 0
M  V30 14215 H 1318.33 -6.14556 2.0231 0
M  V30 14216 N 1318.47 -0.542005 -1.47987 0
M  V30 14217 C 1319.41 0.227398 -2.31486 0
M  V30 14218 C 1320.41 0.923984 -1.41982 0
M  V30 14219 O 1321.61 0.847 -1.58827 0
M  V30 14220 H 1317.99 0.0922034 -0.746326 0
M  V30 14221 H 1319.96 -0.49625 -2.94245 0
M  V30 14222 C 1318.71 1.25384 -3.24306 0
M  V30 14223 H 1318.03 0.727243 -3.9313 0
M  V30 14224 H 1319.47 1.76337 -3.85592 0
M  V30 14225 C 1317.93 2.29378 -2.46754 0
M  V30 14226 O 1318.46 3.36034 -2.201 0
M  V30 14227 N 1316.67 2.02905 -2.08033 0
M  V30 14228 H 1316.21 1.16186 -2.2991 0
M  V30 14229 H 1316.17 2.72705 -1.56458 0
M  V30 14230 N 1319.94 1.55134 -0.277709 0
M  V30 14231 C 1320.88 2.18745 0.650058 0
M  V30 14232 C 1321.85 1.14922 1.15029 0
M  V30 14233 O 1323.04 1.43458 1.22278 0
M  V30 14234 C 1320.17 2.81277 1.88683 0
M  V30 14235 C 1319.21 3.98425 1.52185 0
M  V30 14236 S 1320.04 5.32153 0.597782 0
M  V30 14237 C 1321.2 5.98155 1.84287 0
M  V30 14238 H 1321.43 2.97098 0.109571 0
M  V30 14239 H 1318.97 1.54276 -0.0619536 0
M  V30 14240 H 1320.92 3.17934 2.59669 0
M  V30 14241 H 1319.59 2.02813 2.39845 0
M  V30 14242 H 1318.78 4.40877 2.4422 0
M  V30 14243 H 1318.38 3.63203 0.892146 0
M  V30 14244 H 1320.67 6.17546 2.78646 0
M  V30 14245 H 1321.62 6.92857 1.46131 0
M  V30 14246 H 1322.02 5.27541 2.00899 0
M  V30 14247 N 1321.42 0.00503138 1.57599 0
M  V30 14248 C 1322.37 -0.993379 2.05222 0
M  V30 14249 C 1323.36 -1.30013 0.947919 0
M  V30 14250 O 1324.55 -1.29027 1.21166 0
M  V30 14251 C 1321.68 -2.28375 2.5632 0
M  V30 14252 C 1320.76 -2.00642 3.73636 0
M  V30 14253 N 1321.15 -1.43087 4.85139 0
M  V30 14254 C 1319.45 -2.30759 3.81662 0
M  V30 14255 C 1320.15 -1.31939 5.66539 0
M  V30 14256 N 1319.13 -1.80672 5.12697 0
M  V30 14257 H 1322.93 -0.542951 2.88841 0
M  V30 14258 H 1320.44 -0.20055 1.61157 0
M  V30 14259 H 1322.44 -3.00748 2.88715 0
M  V30 14260 H 1321.1 -2.74066 1.74121 0
M  V30 14261 H 1322.11 -1.10901 5.05887 0
M  V30 14262 H 1318.79 -2.7929 3.10327 0
M  V30 14263 H 1320.18 -0.876391 6.6616 0
M  V30 14264 N 1322.9 -1.55308 -0.267798 0
M  V30 14265 C 1324.13 -1.80191 -1.01681 0
M  V30 14266 C 1324.54 -0.57783 -1.7974 0
M  V30 14267 O 1323.9 0.4532 -1.76783 0
M  V30 14268 C 1323.95 -3.03023 -1.97127 0
M  V30 14269 O 1323.67 -4.20704 -1.22229 0
M  V30 14270 C 1325.17 -3.40549 -2.83798 0
M  V30 14271 H 1322.39 -0.60013 -0.300142 0
M  V30 14272 H 1324.94 -2.02332 -0.297007 0
M  V30 14273 H 1323.09 -2.82993 -2.64563 0
M  V30 14274 H 1323.51 -4.90181 -1.86608 0
M  V30 14275 H 1324.98 -4.29653 -3.46557 0
M  V30 14276 H 1325.46 -2.60186 -3.53836 0
M  V30 14277 H 1326.06 -3.62856 -2.21846 0
M  V30 14278 N 1324.38 0.532545 -1.4833 0
M  V30 14279 C 1325.62 1.28851 -1.56217 0
M  V30 14280 C 1325.95 1.93076 -0.234967 0
M  V30 14281 O 1325.21 1.79722 0.774508 0
M  V30 14282 C 1325.51 2.40117 -2.64724 0
M  V30 14283 C 1325.17 1.93562 -4.0724 0
M  V30 14284 C 1323.83 1.80583 -4.46031 0
M  V30 14285 C 1326.19 1.58349 -4.96563 0
M  V30 14286 C 1323.51 1.30722 -5.71952 0
M  V30 14287 C 1325.87 1.09951 -6.22972 0
M  V30 14288 C 1324.53 0.955866 -6.60621 0
M  V30 14289 H 1323.8 0.4715 -0.571637 0
M  V30 14290 H 1326.45 0.594564 -1.82036 0
M  V30 14291 H 1324.75 3.15171 -2.32754 0
M  V30 14292 H 1326.45 2.98252 -2.68042 0
M  V30 14293 H 1323.04 2.04614 -3.76605 0
M  V30 14294 H 1327.22 1.67237 -4.67274 0
M  V30 14295 H 1322.48 1.18286 -5.99849 0
M  V30 14296 H 1326.65 0.817736 -6.91582 0
M  V30 14297 H 1324.28 0.567302 -7.5808 0
M  V30 14298 N 1325.86 1.36875 0.78122 0
M  V30 14299 C 1326.8 1.31941 1.91557 0
M  V30 14300 C 1327.8 0.209783 1.68096 0
M  V30 14301 O 1329 0.377266 1.76002 0
M  V30 14302 H 1325.38 0.410955 0.629778 0
M  V30 14303 H 1327.35 2.27721 1.92836 0
M  V30 14304 C 1326.1 1.13379 3.28695 0
M  V30 14305 H 1325.42 1.98013 3.47319 0
M  V30 14306 H 1326.86 1.13976 4.08394 0
M  V30 14307 C 1325.32 -0.161119 3.36515 0
M  V30 14308 O 1325.85 -1.14806 3.84945 0
M  V30 14309 N 1324.06 -0.208594 2.8985 0
M  V30 14310 H 1323.6 0.595187 2.5063 0
M  V30 14311 H 1323.56 -1.07465 2.95463 0
M  V30 14312 N 1327.33 -1.00632 1.21289 0
M  V30 14313 C 1328.61 -1.71635 0.938124 0
M  V30 14314 C 1328.99 -2.03798 -0.550416 0
M  V30 14315 O 1328.34 -1.71065 -1.5149 0
M  V30 14316 C 1328.55 -2.97674 1.82184 0
M  V30 14317 C 1329.9 -3.7073 2.06989 0
M  V30 14318 O 1330.92 -3.07653 1.79522 0
M  V30 14319 O 1329.78 -4.84183 2.53435 0
M  V30 14320 H 1326.87 -0.748506 0.351664 0
M  V30 14321 H 1329.42 -1.06387 1.32212 0
M  V30 14322 H 1328.19 -2.70306 2.82931 0
M  V30 14323 H 1327.81 -3.70663 1.43858 0
M  V30 14324 N 1328.81 -1.02043 -1.20104 0
M  V30 14325 C 1330.23 -0.735967 -1.41618 0
M  V30 14326 C 1330.43 0.68285 -1.89577 0
M  V30 14327 O 1329.48 1.45007 -2.06711 0
M  V30 14328 C 1330.8 -1.76492 -2.43457 0
M  V30 14329 C 1332.34 -1.78349 -2.57217 0
M  V30 14330 C 1332.82 -2.80181 -3.62302 0
M  V30 14331 N 1334.31 -2.78945 -3.69789 0
M  V30 14332 C 1335.05 -3.54395 -4.50768 0
M  V30 14333 N 1334.54 -4.39533 -5.35521 0
M  V30 14334 N 1336.33 -3.42974 -4.45337 0
M  V30 14335 H 1328.49 -1.93634 -0.872916 0
M  V30 14336 H 1330.75 -0.836663 -0.445757 0
M  V30 14337 H 1330.45 -2.78158 -2.15223 0
M  V30 14338 H 1330.33 -1.58022 -3.42504 0
M  V30 14339 H 1332.72 -0.773665 -2.84778 0
M  V30 14340 H 1332.8 -2.00894 -1.58352 0
M  V30 14341 H 1332.44 -3.81331 -3.35484 0
M  V30 14342 H 1332.37 -2.54898 -4.60798 0
M  V30 14343 H 1334.86 -2.17189 -3.09253 0
M  V30 14344 H 1335.17 -4.93863 -5.94407 0
M  V30 14345 H 1333.52 -4.43609 -5.3501 0
M  V30 14346 H 1336.71 -2.75881 -3.78163 0
M  V30 14347 H 1336.88 -4.02028 -5.0821 0
M  V30 14348 N 1330.29 1.35952 -0.797165 0
M  V30 14349 C 1331.71 1.52218 -0.479765 0
M  V30 14350 C 1331.91 1.74898 1.00064 0
M  V30 14351 O 1330.96 1.78495 1.78594 0
M  V30 14352 C 1332.28 2.70328 -1.31694 0
M  V30 14353 C 1333.82 2.84202 -1.31142 0
M  V30 14354 C 1334.3 4.05325 -2.13251 0
M  V30 14355 N 1335.79 4.12485 -2.10737 0
M  V30 14356 C 1336.52 5.053 -2.71033 0
M  V30 14357 N 1336.02 6.03509 -3.40219 0
M  V30 14358 N 1337.81 4.97975 -2.60725 0
M  V30 14359 H 1329.96 1.19486 -1.75604 0
M  V30 14360 H 1332.23 0.58383 -0.746892 0
M  V30 14361 H 1331.93 2.60116 -2.36712 0
M  V30 14362 H 1331.81 3.64684 -0.963607 0
M  V30 14363 H 1334.19 2.9387 -0.269131 0
M  V30 14364 H 1334.28 1.9073 -1.70457 0
M  V30 14365 H 1333.92 3.96417 -3.17515 0
M  V30 14366 H 1333.85 4.97959 -1.71302 0
M  V30 14367 H 1336.34 3.42174 -1.6039 0
M  V30 14368 H 1336.65 6.70909 -3.83537 0
M  V30 14369 H 1335 6.03711 -3.44322 0
M  V30 14370 H 1338.19 4.20203 -2.0627 0
M  V30 14371 H 1338.36 5.70119 -3.08007 0
M  V30 14372 N 1331.77 0.549846 1.47697 0
M  V30 14373 C 1332.7 -0.190364 2.32723 0
M  V30 14374 C 1333.68 -0.915933 1.43334 0
M  V30 14375 O 1334.86 -0.897838 1.72199 0
M  V30 14376 C 1331.99 -1.22545 3.24961 0
M  V30 14377 C 1330.95 -0.616805 4.23532 0
M  V30 14378 C 1330.27 -1.75599 5.05044 0
M  V30 14379 C 1331.57 0.424595 5.20571 0
M  V30 14380 H 1333.27 0.519461 2.94859 0
M  V30 14381 H 1330.81 0.251259 1.41791 0
M  V30 14382 H 1332.77 -1.75139 3.83281 0
M  V30 14383 H 1331.49 -1.96512 2.60865 0
M  V30 14384 H 1330.15 -0.112224 3.66428 0
M  V30 14385 H 1329.8 -2.48453 4.37356 0
M  V30 14386 H 1329.5 -1.35456 5.71774 0
M  V30 14387 H 1331.02 -2.28533 5.6622 0
M  V30 14388 H 1332.44 -0.0150025 5.73298 0
M  V30 14389 H 1330.83 0.7445 5.95464 0
M  V30 14390 H 1331.9 1.32318 4.66497 0
M  V30 14391 N 1333.25 -1.54984 0.285932 0
M  V30 14392 C 1334.66 -1.85519 -0.209707 0
M  V30 14393 C 1335.01 -1.20794 -1.54606 0
M  V30 14394 O 1334.13 -0.500159 -2.10541 0
M  V30 14395 C 1334.73 -3.36579 -0.387283 0
M  V30 14396 C 1333.29 -3.67199 -0.827148 0
M  V30 14397 C 1332.43 -2.77203 0.073308 0
M  V30 14398 H 1335.39 -1.5037 0.507404 0
M  V30 14399 H 1335.41 -3.60269 -1.2242 0
M  V30 14400 H 1334.92 -3.83658 0.585493 0
M  V30 14401 H 1333.02 -3.25627 -1.81101 0
M  V30 14402 H 1333.13 -4.74574 -0.656976 0
M  V30 14403 H 1331.5 -2.50785 -0.444859 0
M  V30 14404 H 1332.28 -3.27099 1.04216 0
M  V30 14405 N 1334.72 -0.0133892 -1.57594 0
M  V30 14406 C 1335.97 0.667313 -1.90765 0
M  V30 14407 C 1336.29 1.73564 -0.888847 0
M  V30 14408 O 1335.56 1.95768 0.0718946 0
M  V30 14409 H 1334.14 0.24947 -0.704112 0
M  V30 14410 H 1336.81 -0.0574789 -1.94815 0
M  V30 14411 H 1335.9 1.13007 -2.90922 0
M  V30 14412 N 1336.2 1.55448 0.259558 0
M  V30 14413 C 1337.15 1.89248 1.32113 0
M  V30 14414 C 1338.12 0.745348 1.48438 0
M  V30 14415 O 1339.3 0.997854 1.62627 0
M  V30 14416 C 1336.44 2.18161 2.67394 0
M  V30 14417 C 1335.56 3.45614 2.59182 0
M  V30 14418 C 1334.69 3.6416 3.86731 0
M  V30 14419 C 1333.73 4.85258 3.73084 0
M  V30 14420 N 1332.87 5.00391 4.92497 0
M  V30 14421 H 1337.71 2.79785 1.02589 0
M  V30 14422 H 1335.25 1.38509 0.495338 0
M  V30 14423 H 1337.2 2.32927 3.46122 0
M  V30 14424 H 1335.83 1.30843 2.95093 0
M  V30 14425 H 1334.89 3.39248 1.72091 0
M  V30 14426 H 1336.2 4.34483 2.45002 0
M  V30 14427 H 1335.35 3.78817 4.73902 0
M  V30 14428 H 1334.09 2.73501 4.03793 0
M  V30 14429 H 1333.1 4.70591 2.84296 0
M  V30 14430 H 1334.32 5.77365 3.57528 0
M  V30 14431 H 1332.27 4.12666 5.09944 0
M  V30 14432 H 1332.18 5.83328 4.809 0
M  V30 14433 H 1333.45 5.19446 5.81202 0
M  V30 14434 N 1337.68 -0.524672 1.4861 0
M  V30 14435 C 1338.96 -1.28592 1.47389 0
M  V30 14436 C 1339.34 -2.10257 0.188482 0
M  V30 14437 O 1338.69 -2.12905 -0.829689 0
M  V30 14438 C 1338.9 -2.16284 2.73902 0
M  V30 14439 C 1340.24 -2.7625 3.22445 0
M  V30 14440 O 1341.27 -2.26567 2.74856 0
M  V30 14441 O 1340.13 -3.66635 4.05267 0
M  V30 14442 H 1337.22 -0.580666 0.58886 0
M  V30 14443 H 1339.77 -0.540888 1.60849 0
M  V30 14444 H 1338.54 -1.55757 3.58964 0
M  V30 14445 H 1338.16 -2.98024 2.63188 0
M  V30 14446 N 1339.16 -1.37287 -0.77395 0
M  V30 14447 C 1340.38 -1.35734 -1.56815 0
M  V30 14448 C 1340.81 0.0555546 -1.88018 0
M  V30 14449 O 1340.17 1.03197 -1.49064 0
M  V30 14450 C 1340.21 -2.2008 -2.85652 0
M  V30 14451 O 1339.32 -1.60391 -3.79932 0
M  V30 14452 H 1338.66 -0.463881 -0.47509 0
M  V30 14453 H 1341.19 -1.80781 -0.958087 0
M  V30 14454 H 1341.2 -2.33215 -3.34776 0
M  V30 14455 H 1339.87 -3.22781 -2.6227 0
M  V30 14456 H 1338.45 -1.56285 -3.3857 0
M  V30 14457 N 1340.64 0.999871 -1.21821 0
M  V30 14458 C 1341.57 2.08597 -0.925334 0
M  V30 14459 C 1342.55 1.62087 0.129103 0
M  V30 14460 O 1343.73 1.885 -0.000975316 0
M  V30 14461 C 1340.86 3.36443 -0.390388 0
M  V30 14462 C 1339.9 4.01869 -1.42842 0
M  V30 14463 S 1340.74 4.43618 -2.99938 0
M  V30 14464 C 1341.89 5.74644 -2.48064 0
M  V30 14465 H 1342.13 2.33119 -1.84507 0
M  V30 14466 H 1339.66 1.13339 -1.04851 0
M  V30 14467 H 1341.62 4.10405 -0.0883221 0
M  V30 14468 H 1340.28 3.09963 0.508115 0
M  V30 14469 H 1339.47 4.93902 -1.00385 0
M  V30 14470 H 1339.07 3.34202 -1.67883 0
M  V30 14471 H 1341.37 6.50642 -1.88869 0
M  V30 14472 H 1342.31 6.21919 -3.3856 0
M  V30 14473 H 1342.72 5.31709 -1.89593 0
M  V30 14474 N 1342.11 1.02678 1.19562 0
M  V30 14475 C 1343.08 0.610407 2.20922 0
M  V30 14476 C 1344.08 -0.324858 1.57484 0
M  V30 14477 O 1345.27 -0.112153 1.73839 0
M  V30 14478 C 1342.4 -0.107115 3.40732 0
M  V30 14479 H 1343.59 1.50722 2.59274 0
M  V30 14480 H 1341.15 0.817725 1.33203 0
M  V30 14481 H 1341.88 -1.01837 3.07896 0
M  V30 14482 H 1341.67 0.564901 3.88009 0
M  V30 14483 H 1343.16 -0.385423 4.15818 0
M  V30 14484 N 1343.59 -1.35528 0.804364 0
M  V30 14485 C 1344.83 -2.00658 0.389299 0
M  V30 14486 C 1345.2 -1.62431 -1.02373 0
M  V30 14487 O 1346.4 -2.20264 -1.54068 0
M  V30 14488 C 1344.67 -3.52913 0.564569 0
M  V30 14489 S 1346.23 -4.38145 0.239597 0
M  V30 14490 H 1343.05 -0.695435 0.147958 0
M  V30 14491 H 1345.65 -1.65156 1.04613 0
M  V30 14492 H 1344.35 -3.78222 1.59299 0
M  V30 14493 H 1343.88 -3.93253 -0.10766 0
M  V30 14494 H 1345.9 -4.86952 -0.953533 0
M  V30 14495 N 1345.07 -0.557671 -1.47404 0
M  V30 14496 C 1346.3 -0.0366797 -2.07368 0
M  V30 14497 C 1346.72 1.2478 -1.40754 0
M  V30 14498 O 1346.08 1.74757 -0.48268 0
M  V30 14499 C 1346.13 0.141728 -3.60321 0
M  V30 14500 O 1345.23 1.20419 -3.94427 0
M  V30 14501 H 1344.57 -0.0515319 -0.661997 0
M  V30 14502 H 1347.1 -0.773485 -1.89416 0
M  V30 14503 H 1347.11 0.355787 -4.06446 0
M  V30 14504 H 1345.79 -0.796433 -4.08203 0
M  V30 14505 H 1344.36 0.970589 -3.60047 0
M  V30 14506 N 1346.55 1.54831 -0.294147 0
M  V30 14507 C 1347.78 2.04411 0.319938 0
M  V30 14508 C 1348.19 1.17174 1.4804 0
M  V30 14509 O 1347.55 0.195881 1.81446 0
M  V30 14510 C 1347.6 3.52924 0.782751 0
M  V30 14511 O 1347.32 4.36844 -0.331512 0
M  V30 14512 C 1348.82 4.18474 1.4627 0
M  V30 14513 H 1346.04 0.667286 0.0704973 0
M  V30 14514 H 1348.59 1.9989 -0.431785 0
M  V30 14515 H 1346.74 3.57828 1.48451 0
M  V30 14516 H 1347.16 5.24493 0.0275743 0
M  V30 14517 H 1348.63 5.23933 1.73776 0
M  V30 14518 H 1349.11 3.67793 2.40052 0
M  V30 14519 H 1349.71 4.17626 0.804291 0
M  V30 14520 N 1348.03 0.0217466 1.57585 0
M  V30 14521 C 1349.25 -0.67246 1.96196 0
M  V30 14522 C 1349.68 -1.6529 0.897827 0
M  V30 14523 O 1349.04 -1.80743 -0.142002 0
M  V30 14524 C 1349.08 -1.36162 3.33905 0
M  V30 14525 O 1348.19 -2.47671 3.29747 0
M  V30 14526 H 1347.53 -0.177238 0.639908 0
M  V30 14527 H 1350.06 0.0814073 2.04438 0
M  V30 14528 H 1350.07 -1.7201 3.69968 0
M  V30 14529 H 1348.74 -0.642893 4.10901 0
M  V30 14530 H 1347.32 -2.13989 3.0539 0
M  V30 14531 N 1349.51 -1.55583 -0.251311 0
M  V30 14532 C 1350.44 -1.9296 -1.31486 0
M  V30 14533 C 1351.42 -0.794001 -1.50431 0
M  V30 14534 O 1352.6 -1.05393 -1.63113 0
M  V30 14535 C 1349.73 -2.22046 -2.67045 0
M  V30 14536 C 1348.69 -3.37816 -2.62801 0
M  V30 14537 C 1348.01 -3.52433 -4.02113 0
M  V30 14538 C 1349.31 -4.73626 -2.20171 0
M  V30 14539 H 1351.01 -2.82046 -1.00451 0
M  V30 14540 H 1348.55 -1.35702 -0.481775 0
M  V30 14541 H 1350.5 -2.46783 -3.41579 0
M  V30 14542 H 1349.23 -1.29782 -2.99707 0
M  V30 14543 H 1347.89 -3.13081 -1.90724 0
M  V30 14544 H 1347.54 -2.57597 -4.32034 0
M  V30 14545 H 1347.24 -4.30283 -4.00163 0
M  V30 14546 H 1348.76 -3.79486 -4.78354 0
M  V30 14547 H 1350.17 -4.97764 -2.84436 0
M  V30 14548 H 1348.57 -5.54547 -2.29341 0
M  V30 14549 H 1349.64 -4.70985 -1.1533 0
M  V30 14550 N 1350.98 0.516783 -1.48886 0
M  V30 14551 C 1351.95 1.60226 -1.63891 0
M  V30 14552 C 1352.95 1.52448 -0.511479 0
M  V30 14553 O 1354.14 1.55882 -0.777582 0
M  V30 14554 C 1351.27 2.99867 -1.62151 0
M  V30 14555 H 1352.46 1.48256 -2.60692 0
M  V30 14556 H 1350.01 0.739844 -1.37681 0
M  V30 14557 H 1350.75 3.1733 -0.668764 0
M  V30 14558 H 1350.53 3.0692 -2.44013 0
M  V30 14559 H 1352.02 3.7876 -1.7587 0
M  V30 14560 N 1352.46 1.37696 0.766659 0
M  V30 14561 C 1353.87 1.29668 1.34324 0
M  V30 14562 C 1354.22 -0.0534297 1.96127 0
M  V30 14563 O 1353.35 -0.95534 1.94171 0
M  V30 14564 C 1353.94 2.34818 2.44225 0
M  V30 14565 C 1352.5 2.3041 2.97638 0
M  V30 14566 C 1351.65 2.18378 1.70899 0
M  V30 14567 H 1354.6 1.48244 0.566526 0
M  V30 14568 H 1354.62 1.99778 3.23835 0
M  V30 14569 H 1354.13 3.3307 1.99214 0
M  V30 14570 H 1352.23 1.35698 3.47011 0
M  V30 14571 H 1352.35 3.24028 3.52906 0
M  V30 14572 H 1350.71 1.65008 1.94021 0
M  V30 14573 H 1351.49 3.18551 1.27985 0
M  V30 14574 N 1353.94 -0.993397 1.22349 0
M  V30 14575 C 1355.19 -1.73544 1.04931 0
M  V30 14576 C 1355.52 -1.89721 -0.414661 0
M  V30 14577 O 1354.79 -1.44001 -1.30743 0
M  V30 14578 C 1355.08 -3.14131 1.7605 0
M  V30 14579 C 1354.93 -3.05604 3.30039 0
M  V30 14580 C 1356.25 -4.13294 1.51249 0
M  V30 14581 H 1353.37 -0.629915 0.382591 0
M  V30 14582 H 1356.01 -1.15737 1.50682 0
M  V30 14583 H 1354.16 -3.63483 1.37157 0
M  V30 14584 H 1355.83 -2.63876 3.78374 0
M  V30 14585 H 1354.07 -2.42421 3.59742 0
M  V30 14586 H 1354.75 -4.05086 3.74979 0
M  V30 14587 H 1357.22 -3.72696 1.85033 0
M  V30 14588 H 1356.1 -5.09781 2.03507 0
M  V30 14589 H 1356.36 -4.39855 0.444973 0
M  V30 14590 N 1355.42 -1.03311 -1.19015 0
M  V30 14591 C 1356.66 -0.732039 -1.88805 0
M  V30 14592 C 1356.99 0.739688 -1.79886 0
M  V30 14593 O 1356.25 1.55476 -1.18851 0
M  V30 14594 C 1356.55 -1.13402 -3.38932 0
M  V30 14595 C 1356.21 -2.60473 -3.68055 0
M  V30 14596 C 1354.87 -3.00654 -3.75713 0
M  V30 14597 C 1357.23 -3.55604 -3.81045 0
M  V30 14598 C 1354.55 -4.3487 -3.93833 0
M  V30 14599 C 1356.91 -4.89529 -4.00679 0
M  V30 14600 C 1355.57 -5.29392 -4.06571 0
M  V30 14601 H 1354.84 -0.267872 -0.690888 0
M  V30 14602 H 1357.49 -1.29673 -1.40915 0
M  V30 14603 H 1355.79 -0.487997 -3.88749 0
M  V30 14604 H 1357.49 -0.878532 -3.91258 0
M  V30 14605 H 1354.08 -2.28348 -3.62706 0
M  V30 14606 H 1358.26 -3.25711 -3.74467 0
M  V30 14607 H 1353.52 -4.65285 -3.96636 0
M  V30 14608 H 1357.69 -5.63153 -4.09672 0
M  V30 14609 H 1355.32 -6.33402 -4.20364 0
M  V30 14610 N 1356.9 1.35099 -0.81154 0
M  V30 14611 C 1358.31 1.81082 -0.454543 0
M  V30 14612 C 1358.66 1.67361 1.02395 0
M  V30 14613 O 1357.78 1.20707 1.79607 0
M  V30 14614 C 1358.38 3.2877 -0.818274 0
M  V30 14615 C 1356.94 3.72877 -0.513808 0
M  V30 14616 C 1356.08 2.57008 -1.04125 0
M  V30 14617 H 1359.03 1.23007 -1.00274 0
M  V30 14618 H 1359.06 3.80318 -0.117683 0
M  V30 14619 H 1358.57 3.38725 -1.89439 0
M  V30 14620 H 1356.67 3.68468 0.553368 0
M  V30 14621 H 1356.78 4.67455 -1.0499 0
M  V30 14622 H 1355.15 2.5045 -0.463337 0
M  V30 14623 H 1355.93 2.69738 -2.12358 0
M  V30 14624 O 1358.41 0.706436 1.4523 0
M  V30 14625 H 1359.1 0.248661 1.92097 0
M  V30 END ATOM
M  V30 BEGIN BOND
M  V30 END BOND
M  V30 END CTAB
M  END
$$$$
