drugbank_target|Q13163 Dual specificity mitogen-activated protein kinase kinase 5 (DB12010)
 OpenBabel12092121163D

  0  0  0     0  0            999 V3000
M  V30 BEGIN CTAB
M  V30 COUNTS 7048 7127 0 0 0
M  V30 BEGIN ATOM
M  V30 1 H -0.908 1.98254 -0.117106 0
M  V30 2 N 0 1.576 0 0
M  V30 3 C 0.933 2.03868 1.02534 0
M  V30 4 C 1.911 0.928543 1.3348 0
M  V30 5 O 3.095 1.19667 1.45644 0
M  V30 6 C 0.222 2.43627 2.35294 0
M  V30 7 C -0.732 3.65373 2.2001 0
M  V30 8 S 0.101 5.13292 1.52614 0
M  V30 9 C 1.257 5.56322 2.86805 0
M  V30 10 H 1.49 2.90518 0.631377 0
M  V30 11 H -0.977 1.52953 0.210867 0
M  V30 12 H 0.981 2.67203 3.11629 0
M  V30 13 H -0.358 1.57376 2.7183 0
M  V30 14 H -1.165 3.90944 3.18086 0
M  V30 15 H -1.563 3.418 1.51819 0
M  V30 16 H 0.729 5.58782 3.83104 0
M  V30 17 H 1.672 6.56266 2.65933 0
M  V30 18 H 2.08 4.83886 2.90714 0
M  V30 19 N 1.4781 -0.272755 1.55222 0
M  V30 20 C 2.4081 -1.34136 1.91127 0
M  V30 21 C 3.3891 -1.51513 0.773168 0
M  V30 22 O 4.5741 -1.64552 1.03132 0
M  V30 23 C 1.7041 -2.70083 2.1834 0
M  V30 24 C 0.6581 -2.67437 3.34158 0
M  V30 25 C -0.0159 -4.06938 3.46851 0
M  V30 26 C 1.2841 -2.26686 4.70543 0
M  V30 27 H 2.9781 -1.04333 2.80633 0
M  V30 28 H 0.5241 -0.500454 1.35024 0
M  V30 29 H 2.4771 -3.44952 2.42046 0
M  V30 30 H 1.2011 -3.01469 1.25634 0
M  V30 31 H -0.1399 -1.95026 3.1042 0
M  V30 32 H -0.4919 -4.35547 2.51611 0
M  V30 33 H -0.7919 -4.06062 4.2472 0
M  V30 34 H 0.7321 -4.83545 3.72849 0
M  V30 35 H 2.1461 -2.91277 4.93792 0
M  V30 36 H 0.5431 -2.36971 5.5133 0
M  V30 37 H 1.6131 -1.21818 4.69349 0
M  V30 38 N 2.9562 -1.48159 -0.537278 0
M  V30 39 C 4.2022 -1.57015 -1.29297 0
M  V30 40 C 4.5572 -0.237791 -1.90925 0
M  V30 41 O 3.8502 0.758621 -1.75942 0
M  V30 42 C 4.0442 -2.63956 -2.40961 0
M  V30 43 C 3.8732 -4.07461 -1.90278 0
M  V30 44 C 2.6432 -4.74685 -1.73213 0
M  V30 45 C 4.8412 -4.93858 -1.43556 0
M  V30 46 N 2.8232 -6.02633 -1.17078 0
M  V30 47 C 4.1942 -6.11993 -0.993204 0
M  V30 48 C 6.2492 -4.80141 -1.31792 0
M  V30 49 C 4.9522 -7.17923 -0.444872 0
M  V30 50 C 6.9782 -5.86186 -0.783585 0
M  V30 51 C 6.3402 -7.03524 -0.351261 0
M  V30 52 H 2.4392 -0.629154 -0.464423 0
M  V30 53 H 5.0232 -1.85006 -0.606705 0
M  V30 54 H 3.1942 -2.378 -3.07093 0
M  V30 55 H 4.9262 -2.62539 -3.07986 0
M  V30 56 H 1.6812 -4.30902 -1.9652 0
M  V30 57 H 2.1052 -6.7085 -0.910421 0
M  V30 58 H 6.7472 -3.89772 -1.63823 0
M  V30 59 H 4.4652 -8.08022 -0.11222 0
M  V30 60 H 8.0512 -5.77624 -0.695835 0
M  V30 61 H 6.9312 -7.8418 0.055777 0
M  V30 62 N 4.4343 0.785586 -1.36625 0
M  V30 63 C 5.3643 1.91259 -1.33949 0
M  V30 64 C 6.3453 1.68795 -0.210325 0
M  V30 65 O 7.5303 1.89854 -0.408561 0
M  V30 66 C 4.6603 3.28339 -1.13186 0
M  V30 67 C 3.6143 3.65335 -2.22967 0
M  V30 68 C 2.9403 5.00806 -1.87342 0
M  V30 69 C 4.2403 3.7352 -3.65075 0
M  V30 70 H 5.9343 1.93755 -2.28253 0
M  V30 71 H 3.4803 0.930788 -1.09874 0
M  V30 72 H 5.4333 4.06804 -1.09948 0
M  V30 73 H 4.1573 3.2624 -0.153332 0
M  V30 74 H 2.8163 2.89169 -2.25337 0
M  V30 75 H 2.4643 4.95233 -0.880545 0
M  V30 76 H 2.1643 5.26529 -2.60846 0
M  V30 77 H 3.6883 5.81687 -1.85667 0
M  V30 78 H 5.1023 4.42168 -3.64911 0
M  V30 79 H 3.4993 4.10731 -4.37516 0
M  V30 80 H 4.5693 2.74527 -3.99703 0
M  V30 81 N 5.9124 1.20967 1.01018 0
M  V30 82 C 6.8754 0.965918 2.07853 0
M  V30 83 C 7.8754 -0.0610545 1.60684 0
M  V30 84 O 9.0654 0.175681 1.73312 0
M  V30 85 C 6.1974 0.455513 3.37843 0
M  V30 86 H 7.3904 1.91365 2.3091 0
M  V30 87 H 4.9434 1.02594 1.17916 0
M  V30 88 H 5.6784 -0.497381 3.20463 0
M  V30 89 H 5.4634 1.19622 3.73407 0
M  V30 90 H 6.9534 0.304667 4.16487 0
M  V30 91 N 7.3905 -1.2043 1.01659 0
M  V30 92 C 8.3205 -2.25466 0.607226 0
M  V30 93 C 9.3015 -1.65853 -0.377716 0
M  V30 94 O 10.4865 -1.92409 -0.263149 0
M  V30 95 C 7.6165 -3.47256 -0.0552949 0
M  V30 96 C 6.5705 -4.19462 0.850632 0
M  V30 97 C 5.8965 -5.34673 0.0538859 0
M  V30 98 C 7.1965 -4.75603 2.15868 0
M  V30 99 H 8.8905 -2.59962 1.48526 0
M  V30 100 H 6.4365 -1.2496 0.715605 0
M  V30 101 H 8.3895 -4.19917 -0.353233 0
M  V30 102 H 7.1135 -3.11924 -0.968045 0
M  V30 103 H 5.7725 -3.48667 1.13257 0
M  V30 104 H 5.4205 -4.95585 -0.860514 0
M  V30 105 H 5.1205 -5.83913 0.657192 0
M  V30 106 H 6.6445 -6.10138 -0.237598 0
M  V30 107 H 8.0585 -5.40083 1.92311 0
M  V30 108 H 6.4555 -5.3528 2.71284 0
M  V30 109 H 7.5255 -3.94346 2.82169 0
M  V30 110 N 8.8686 -0.792821 -1.36206 0
M  V30 111 C 10.1166 -0.366062 -1.98757 0
M  V30 112 C 10.4376 1.0668 -1.63231 0
M  V30 113 O 9.7076 1.73587 -0.907978 0
M  V30 114 H 8.2876 -0.132364 -0.735179 0
M  V30 115 H 10.9496 -1.01562 -1.66347 0
M  V30 116 H 10.0456 -0.460638 -3.08682 0
M  V30 117 N 10.3467 1.47872 -0.545128 0
M  V30 118 C 11.7577 1.86384 -0.108581 0
M  V30 119 C 12.1087 1.45309 1.31832 0
M  V30 120 O 11.2337 0.850641 1.9898 0
M  V30 121 C 11.8287 3.38265 -0.190274 0
M  V30 122 C 10.3877 3.75914 0.191164 0
M  V30 123 C 9.5347 2.71926 -0.543273 0
M  V30 124 H 12.4857 1.39561 -0.755537 0
M  V30 125 H 12.5067 3.75831 0.594217 0
M  V30 126 H 12.0187 3.6813 -1.2289 0
M  V30 127 H 10.1197 3.51665 1.23136 0
M  V30 128 H 10.2327 4.78836 -0.158987 0
M  V30 129 H 8.5967 2.54697 0.0122495 0
M  V30 130 H 9.3797 3.04634 -1.58282 0
M  V30 131 N 11.8248 0.280983 1.55075 0
M  V30 132 C 13.0718 -0.334115 1.99725 0
M  V30 133 C 13.3998 -1.5542 1.1694 0
M  V30 134 O 12.6548 -1.94361 0.228531 0
M  V30 135 C 12.9538 -0.754656 3.49342 0
M  V30 136 C 12.6198 0.361445 4.49449 0
M  V30 137 C 11.2818 0.667893 4.76542 0
M  V30 138 C 13.6338 1.11322 5.09173 0
M  V30 139 C 10.9618 1.7296 5.60626 0
M  V30 140 C 13.3138 2.1647 5.9441 0
M  V30 141 C 11.9778 2.47742 6.19822 0
M  V30 142 H 11.2478 -0.122261 0.730844 0
M  V30 143 H 13.8948 0.395917 1.87363 0
M  V30 144 H 12.1998 -1.56446 3.5921 0
M  V30 145 H 13.8968 -1.24142 3.813 0
M  V30 146 H 10.4868 0.112481 4.28452 0
M  V30 147 H 14.6708 0.88973 4.8826 0
M  V30 148 H 9.9268 1.97684 5.78559 0
M  V30 149 H 14.1008 2.75193 6.3972 0
M  V30 150 H 11.7278 3.30145 6.84769 0
M  V30 151 N 13.3029 -1.57598 0.00835791 0
M  V30 152 C 14.7139 -1.7892 -0.53333 0
M  V30 153 C 15.0649 -0.916609 -1.73473 0
M  V30 154 O 14.1899 -0.121336 -2.1606 0
M  V30 155 C 14.7849 -3.24488 -0.974313 0
M  V30 156 C 13.3439 -3.46878 -1.46125 0
M  V30 157 C 12.4909 -2.74157 -0.416302 0
M  V30 158 H 15.4419 -1.56958 0.234495 0
M  V30 159 H 15.4629 -3.3306 -1.83988 0
M  V30 160 H 14.9749 -3.87972 -0.099718 0
M  V30 161 H 13.0759 -2.8862 -2.35646 0
M  V30 162 H 13.1889 -4.55572 -1.48295 0
M  V30 163 H 11.5529 -2.39022 -0.87981 0
M  V30 164 H 12.3359 -3.40345 0.44947 0
M  V30 165 N 14.781 0.264519 -1.55364 0
M  V30 166 C 15.744 1.31046 -1.88042 0
M  V30 167 C 16.744 1.41943 -0.755569 0
M  V30 168 O 17.934 1.40947 -1.02369 0
M  V30 169 C 15.066 2.69067 -2.09323 0
M  V30 170 H 16.259 1.03297 -2.81549 0
M  V30 171 H 13.812 0.502989 -1.47986 0
M  V30 172 H 14.547 3.01982 -1.18226 0
M  V30 173 H 14.332 2.62542 -2.91229 0
M  V30 174 H 15.822 3.44623 -2.35848 0
M  V30 175 N 16.2591 1.48442 0.529413 0
M  V30 176 C 17.1921 1.57577 1.65059 0
M  V30 177 C 18.1701 0.426198 1.56915 0
M  V30 178 O 19.3541 0.637877 1.77379 0
M  V30 179 C 16.4811 1.5043 3.03461 0
M  V30 180 C 15.5271 2.70235 3.29962 0
M  V30 181 S 16.3601 4.32198 3.16172 0
M  V30 182 C 17.5161 4.2765 4.57019 0
M  V30 183 H 17.7491 2.52427 1.5706 0
M  V30 184 H 15.2821 1.36982 0.712417 0
M  V30 185 H 17.2401 1.46992 3.8328 0
M  V30 186 H 15.9011 0.569167 3.089 0
M  V30 187 H 15.0941 2.61374 4.30929 0
M  V30 188 H 14.6961 2.70938 2.57815 0
M  V30 189 H 16.9881 3.97618 5.48549 0
M  V30 190 H 17.9311 5.28797 4.70934 0
M  V30 191 H 18.3391 3.5811 4.36368 0
M  V30 192 N 17.7372 -0.778329 1.37039 0
M  V30 193 C 18.6472 -1.92253 1.34446 0
M  V30 194 C 19.6632 -1.72267 0.244991 0
M  V30 195 O 20.8392 -1.95615 0.479258 0
M  V30 196 C 17.9042 -3.27282 1.144 0
M  V30 197 C 16.9652 -3.59969 2.33925 0
M  V30 198 C 16.1982 -4.88555 2.14825 0
M  V30 199 O 16.4212 -5.59113 1.12912 0
M  V30 200 O 15.3552 -5.20153 3.02861 0
M  V30 201 H 19.1812 -1.97392 2.30803 0
M  V30 202 H 16.7662 -0.920154 1.17701 0
M  V30 203 H 18.6482 -4.08062 1.05182 0
M  V30 204 H 17.3232 -3.23011 0.211124 0
M  V30 205 H 16.2302 -2.7945 2.48714 0
M  V30 206 H 17.5632 -3.68976 3.25757 0
M  V30 207 N 19.2153 -1.21501 -1.00376 0
M  V30 208 C 20.1633 -0.972442 -2.11297 0
M  V30 209 C 21.1573 0.080731 -1.69208 0
M  V30 210 O 22.3633 -0.0707666 -1.79861 0
M  V30 211 H 18.7383 -0.297218 -0.690772 0
M  V30 212 H 20.7093 -1.91394 -2.28934 0
M  V30 213 C 19.4583 -0.555065 -3.43241 0
M  V30 214 H 18.7813 -1.35709 -3.76062 0
M  V30 215 H 20.2213 -0.424664 -4.21868 0
M  V30 216 C 18.6803 0.734147 -3.28804 0
M  V30 217 O 19.2103 1.78937 -3.59645 0
M  V30 218 N 17.4163 0.701133 -2.82015 0
M  V30 219 H 16.9633 -0.157874 -2.57116 0
M  V30 220 H 16.9213 1.56403 -2.72737 0
M  V30 221 N 20.6934 1.19889 -1.02296 0
M  V30 222 C 21.6254 2.22334 -0.556787 0
M  V30 223 C 22.6384 1.58674 0.364199 0
M  V30 224 O 23.8274 1.77768 0.161533 0
M  V30 225 C 20.9274 3.38257 0.208694 0
M  V30 226 C 20.1004 4.31504 -0.71577 0
M  V30 227 C 19.1594 5.262 0.00325597 0
M  V30 228 O 18.1854 5.65798 -0.621357 0
M  V30 229 N 19.3874 5.66303 1.27599 0
M  V30 230 H 22.1524 2.62957 -1.43784 0
M  V30 231 H 19.7134 1.34495 -0.901261 0
M  V30 232 H 21.7054 3.98616 0.699111 0
M  V30 233 H 20.2754 2.96472 0.991102 0
M  V30 234 H 19.4954 3.69016 -1.38638 0
M  V30 235 H 20.7834 4.9072 -1.34428 0
M  V30 236 H 20.1814 5.36155 1.80429 0
M  V30 237 H 18.7384 6.28942 1.71102 0
M  V30 238 N 22.1715 0.800033 1.35784 0
M  V30 239 C 23.4175 0.377901 1.99248 0
M  V30 240 C 23.7505 -1.05052 1.63333 0
M  V30 241 O 23.0255 -1.72768 0.893385 0
M  V30 242 C 23.3085 0.553922 3.55814 0
M  V30 243 C 23.1615 2.0268 4.01548 0
M  V30 244 C 24.4805 -0.0244802 4.40093 0
M  V30 245 H 21.5995 0.138782 0.723815 0
M  V30 246 H 24.2415 1.00835 1.61035 0
M  V30 247 H 22.3915 0.0172398 3.88496 0
M  V30 248 H 24.0635 2.62536 3.79305 0
M  V30 249 H 22.3065 2.5256 3.52698 0
M  V30 250 H 22.9775 2.10087 5.10458 0
M  V30 251 H 25.4535 0.433775 4.13833 0
M  V30 252 H 24.3295 0.128637 5.48749 0
M  V30 253 H 24.5905 -1.11758 4.27741 0
M  V30 254 N 23.6496 -1.47581 0.552962 0
M  V30 255 C 24.5796 -2.32762 -0.185451 0
M  V30 256 C 25.5606 -1.43527 -0.912905 0
M  V30 257 O 26.7456 -1.72388 -0.894201 0
M  V30 258 C 23.8756 -3.25219 -1.21859 0
M  V30 259 C 22.8296 -4.23661 -0.607864 0
M  V30 260 C 22.1556 -5.05413 -1.74533 0
M  V30 261 C 23.4556 -5.20481 0.435582 0
M  V30 262 H 25.1496 -2.94749 0.525684 0
M  V30 263 H 22.6956 -1.41738 0.254251 0
M  V30 264 H 24.6486 -3.8365 -1.7433 0
M  V30 265 H 23.3726 -2.61279 -1.95961 0
M  V30 266 H 22.0316 -3.66451 -0.104489 0
M  V30 267 H 21.6796 -4.3788 -2.47529 0
M  V30 268 H 21.3796 -5.72059 -1.34249 0
M  V30 269 H 22.9036 -5.66701 -2.27338 0
M  V30 270 H 24.3176 -5.733 -0.00290157 0
M  V30 271 H 22.7146 -5.95305 0.757067 0
M  V30 272 H 23.7846 -4.66217 1.33303 0
M  V30 273 N 25.1277 -0.289203 -1.54924 0
M  V30 274 C 26.3737 0.323998 -2.00195 0
M  V30 275 C 26.7067 1.54441 -1.17735 0
M  V30 276 O 25.9817 1.92875 -0.250878 0
M  V30 277 C 26.2647 0.692276 -3.53383 0
M  V30 278 C 26.1177 -0.536457 -4.46589 0
M  V30 279 C 27.4367 1.52335 -4.12895 0
M  V30 280 H 24.5557 0.116289 -0.727768 0
M  V30 281 H 27.1977 -0.398954 -1.85764 0
M  V30 282 H 25.3477 1.30822 -3.65811 0
M  V30 283 H 27.0197 -1.17499 -4.46085 0
M  V30 284 H 25.2627 -1.17192 -4.1767 0
M  V30 285 H 25.9337 -0.234806 -5.515 0
M  V30 286 H 28.4097 1.00302 -4.0383 0
M  V30 287 H 27.2857 1.74982 -5.20262 0
M  V30 288 H 27.5467 2.50886 -3.64018 0
M  V30 289 N 26.6058 1.57591 -0.0167156 0
M  V30 290 C 27.8548 1.90461 0.663877 0
M  V30 291 C 28.1678 0.893515 1.73999 0
M  V30 292 O 29.3738 1.11302 2.47637 0
M  V30 293 C 27.8298 3.38155 1.23204 0
M  V30 294 C 27.4378 4.47597 0.189866 0
M  V30 295 C 29.1818 3.80111 1.88986 0
M  V30 296 C 27.0888 5.86379 0.768964 0
M  V30 297 H 26.0188 0.710738 0.251729 0
M  V30 298 H 28.6698 1.83326 -0.0799926 0
M  V30 299 H 27.0518 3.40182 2.02712 0
M  V30 300 H 28.2258 4.57112 -0.581846 0
M  V30 301 H 26.5408 4.14766 -0.368475 0
M  V30 302 H 29.1378 4.81145 2.33247 0
M  V30 303 H 29.4808 3.14511 2.72743 0
M  V30 304 H 30.0138 3.80454 1.16187 0
M  V30 305 H 26.7528 6.55493 -0.0301957 0
M  V30 306 H 26.2728 5.80496 1.50945 0
M  V30 307 H 27.9518 6.34563 1.26251 0
M  V30 308 N 28.0839 -0.256276 1.55502 0
M  V30 309 C 29.4999 -0.604325 1.47716 0
M  V30 310 C 29.6999 -1.88763 0.705039 0
M  V30 311 O 28.7559 -2.51445 0.230613 0
M  V30 312 C 30.0689 -0.715756 2.92057 0
M  V30 313 C 31.6169 -0.808706 3.02372 0
M  V30 314 C 32.0919 -0.951777 4.48001 0
M  V30 315 N 33.5829 -1.01688 4.519 0
M  V30 316 C 34.3179 -1.14668 5.61817 0
M  V30 317 N 33.8139 -1.24261 6.81565 0
M  V30 318 N 35.6069 -1.1791 5.49594 0
M  V30 319 H 27.7579 0.586291 2.04148 0
M  V30 320 H 30.0209 0.201015 0.926443 0
M  V30 321 H 29.7269 0.157027 3.51349 0
M  V30 322 H 29.6009 -1.59071 3.42018 0
M  V30 323 H 31.9879 -1.67195 2.43166 0
M  V30 324 H 32.0689 0.0912063 2.55637 0
M  V30 325 H 31.7129 -0.0931291 5.07815 0
M  V30 326 H 31.6429 -1.86659 4.92408 0
M  V30 327 H 34.1339 -0.954468 3.65648 0
M  V30 328 H 34.4469 -1.34046 7.61086 0
M  V30 329 H 32.7919 -1.21236 6.84344 0
M  V30 330 H 35.9829 -1.10057 4.54978 0
M  V30 331 H 36.1559 -1.27681 6.35296 0
M  V30 332 N 29.562 -1.4872 -0.521534 0
M  V30 333 C 30.811 -1.56419 -1.27341 0
M  V30 334 C 31.124 -0.246805 -1.94037 0
M  V30 335 O 32.33 -0.202122 -2.70747 0
M  V30 336 C 30.786 -2.75896 -2.31105 0
M  V30 337 C 30.394 -4.14311 -1.70441 0
M  V30 338 C 32.138 -2.92913 -3.07249 0
M  V30 339 C 30.045 -5.25038 -2.72194 0
M  V30 340 H 28.975 -0.582344 -0.478949 0
M  V30 341 H 31.626 -1.75071 -0.549779 0
M  V30 342 H 30.008 -2.50697 -3.06541 0
M  V30 343 H 31.182 -4.49564 -1.01136 0
M  V30 344 H 29.497 -4.02482 -1.06759 0
M  V30 345 H 32.094 -3.72805 -3.83302 0
M  V30 346 H 32.437 -2.02689 -3.63625 0
M  V30 347 H 32.97 -3.18054 -2.38928 0
M  V30 348 H 29.709 -6.17255 -2.20627 0
M  V30 349 H 29.229 -4.94263 -3.39801 0
M  V30 350 H 30.908 -5.53508 -3.35019 0
M  V30 351 N 31.0401 0.771051 -1.3745 0
M  V30 352 C 31.9871 1.88435 -1.3327 0
M  V30 353 C 32.9571 1.64914 -0.198136 0
M  V30 354 O 34.1421 1.86821 -0.387606 0
M  V30 355 C 31.2821 3.25509 -1.14622 0
M  V30 356 C 30.3951 3.60979 -2.37314 0
M  V30 357 C 29.5301 4.87265 -2.11533 0
M  V30 358 C 28.5691 5.15469 -3.30088 0
M  V30 359 N 27.7061 6.32944 -3.03853 0
M  V30 360 H 32.5461 1.91344 -2.28455 0
M  V30 361 H 30.0831 0.935466 -1.13523 0
M  V30 362 H 32.0411 4.04582 -1.01831 0
M  V30 363 H 30.6711 3.21974 -0.230837 0
M  V30 364 H 29.7231 2.76885 -2.60842 0
M  V30 365 H 31.0351 3.77759 -3.25729 0
M  V30 366 H 30.1891 5.74244 -1.95777 0
M  V30 367 H 28.9281 4.7259 -1.20457 0
M  V30 368 H 27.9331 4.26966 -3.46382 0
M  V30 369 H 29.1581 5.32052 -4.22016 0
M  V30 370 H 27.1041 6.19625 -2.15407 0
M  V30 371 H 27.0211 6.50143 -3.85812 0
M  V30 372 H 28.2891 7.22857 -2.91716 0
M  V30 373 N 32.5182 1.22032 0.997298 0
M  V30 374 C 33.7672 1.03637 1.73038 0
M  V30 375 C 34.0802 -0.429475 1.90827 0
M  V30 376 O 35.2862 -0.732995 2.61418 0
M  V30 377 C 33.7422 1.80582 3.11317 0
M  V30 378 C 33.3502 3.31387 3.01474 0
M  V30 379 C 35.0942 1.70621 3.88701 0
M  V30 380 C 33.0012 4.00791 4.3488 0
M  V30 381 H 31.9312 0.384179 0.648785 0
M  V30 382 H 34.5822 1.4584 1.11368 0
M  V30 383 H 32.9642 1.31175 3.73643 0
M  V30 384 H 34.1382 3.88155 2.4834 0
M  V30 385 H 32.4532 3.41976 2.37575 0
M  V30 386 H 35.0502 2.19799 4.87434 0
M  V30 387 H 35.3932 0.665823 4.10941 0
M  V30 388 H 35.9262 2.17547 3.33044 0
M  V30 389 H 32.6652 5.05064 4.1784 0
M  V30 390 H 32.1852 3.48811 4.87945 0
M  V30 391 H 33.8642 4.06139 5.03647 0
M  V30 392 N 33.9963 -1.19345 1.0293 0
M  V30 393 C 35.4073 -1.70725 0.755633 0
M  V30 394 C 35.7583 -1.82326 -0.724676 0
M  V30 395 O 34.8833 -1.49471 -1.56484 0
M  V30 396 C 35.4783 -3.10084 1.36503 0
M  V30 397 C 34.0373 -3.58723 1.13994 0
M  V30 398 C 33.1843 -2.35577 1.46283 0
M  V30 399 H 36.1353 -1.0418 1.19718 0
M  V30 400 H 36.1563 -3.72787 0.762217 0
M  V30 401 H 35.6683 -3.01609 2.44241 0
M  V30 402 H 33.7693 -3.72512 0.0807901 0
M  V30 403 H 33.8823 -4.42816 1.82894 0
M  V30 404 H 32.2463 -2.38935 0.88217 0
M  V30 405 H 33.0293 -2.29731 2.55105 0
M  V30 406 N 35.4744 -0.807222 -1.35358 0
M  V30 407 C 36.4224 -0.20614 -2.31685 0
M  V30 408 C 37.4164 0.644445 -1.56663 0
M  V30 409 O 38.6224 0.537538 -1.71786 0
M  V30 410 H 34.9974 -0.0479006 -0.750473 0
M  V30 411 H 36.9684 -1.03369 -2.79924 0
M  V30 412 C 35.7174 0.630212 -3.41941 0
M  V30 413 H 35.0404 -0.0149558 -3.99797 0
M  V30 414 H 36.4804 1.01716 -4.11619 0
M  V30 415 C 34.9394 1.79601 -2.85035 0
M  V30 416 O 35.4694 2.89351 -2.78637 0
M  V30 417 N 33.6754 1.60774 -2.42074 0
M  V30 418 H 33.2224 0.715009 -2.47478 0
M  V30 419 H 33.1804 2.38933 -2.04349 0
M  V30 420 N 36.9525 1.47285 -0.560781 0
M  V30 421 C 38.1775 2.07359 -0.0410566 0
M  V30 422 C 38.6025 1.41017 1.24483 0
M  V30 423 O 37.9605 0.486368 1.74654 0
M  V30 424 C 38.0085 3.6035 0.134123 0
M  V30 425 O 37.1125 3.94681 1.19587 0
M  V30 426 H 36.4535 0.661887 -0.0529291 0
M  V30 427 H 38.9835 1.89252 -0.777482 0
M  V30 428 H 38.9935 4.0652 0.347207 0
M  V30 429 H 37.6685 4.08034 -0.805047 0
M  V30 430 H 36.2455 3.60251 0.962987 0
M  V30 431 N 38.4306 0.297415 1.54768 0
M  V30 432 C 39.6786 -0.312295 1.99673 0
M  V30 433 C 39.9996 -1.54686 1.18732 0
M  V30 434 O 39.2696 -1.93854 0.282382 0
M  V30 435 H 37.8496 -0.118381 0.73756 0
M  V30 436 H 40.5116 0.407915 1.90583 0
M  V30 437 H 39.6076 -0.586813 3.06534 0
M  V30 438 N 39.9087 -1.5758 0.0250728 0
M  V30 439 C 40.8717 -2.08896 -0.943139 0
M  V30 440 C 41.8717 -1.00321 -1.25668 0
M  V30 441 O 43.0617 -1.26495 -1.19769 0
M  V30 442 C 40.1937 -2.55143 -2.26086 0
M  V30 443 H 41.3867 -2.95723 -0.498775 0
M  V30 444 H 38.9397 -1.54703 -0.222888 0
M  V30 445 H 39.6747 -1.71633 -2.75159 0
M  V30 446 H 39.4597 -3.34461 -2.04641 0
M  V30 447 H 40.9497 -2.95083 -2.95492 0
M  V30 448 N 41.3868 0.248026 -1.55636 0
M  V30 449 C 42.6328 0.97767 -1.77678 0
M  V30 450 C 42.9658 1.85016 -0.590135 0
M  V30 451 O 42.2408 1.90095 0.411611 0
M  V30 452 C 42.5238 1.83914 -3.09593 0
M  V30 453 C 42.3768 0.99491 -4.38659 0
M  V30 454 C 43.6958 2.82183 -3.37729 0
M  V30 455 H 40.8148 0.354005 -0.646413 0
M  V30 456 H 43.4568 0.248253 -1.88371 0
M  V30 457 H 41.6068 2.46104 -3.00608 0
M  V30 458 H 43.2788 0.391789 -4.59633 0
M  V30 459 H 41.5218 0.299231 -4.32767 0
M  V30 460 H 42.1928 1.63145 -5.2734 0
M  V30 461 H 44.6688 2.30129 -3.4667 0
M  V30 462 H 43.5448 3.39582 -4.31249 0
M  V30 463 H 43.8058 3.58588 -2.58586 0
M  V30 464 N 42.8649 1.48995 0.513639 0
M  V30 465 C 44.1419 1.48338 1.27495 0
M  V30 466 C 44.5219 0.204065 2.10111 0
M  V30 467 O 43.8699 -0.813881 2.13514 0
M  V30 468 C 44.0799 2.75498 2.14247 0
M  V30 469 C 45.4279 3.24484 2.73852 0
M  V30 470 O 46.4519 2.76528 2.24523 0
M  V30 471 O 45.3109 4.07974 3.6362 0
M  V30 472 H 42.4049 0.593149 0.576284 0
M  V30 473 H 44.9509 1.61246 0.528948 0
M  V30 474 H 43.7229 3.60109 1.53092 0
M  V30 475 H 43.3459 2.6539 2.96064 0
M  V30 476 N 44.343 -0.763751 1.37857 0
M  V30 477 C 45.589 -1.52396 1.3471 0
M  V30 478 C 45.944 -1.92288 -0.0656435 0
M  V30 479 O 45.237 -1.6181 -1.02606 0
M  V30 480 C 45.431 -2.79499 2.22745 0
M  V30 481 C 45.26 -2.52031 3.72438 0
M  V30 482 C 44.03 -2.45759 4.4151 0
M  V30 483 C 46.228 -2.19489 4.65112 0
M  V30 484 N 44.21 -2.1046 5.76697 0
M  V30 485 C 45.581 -1.94396 5.88736 0
M  V30 486 C 47.636 -2.05712 4.53417 0
M  V30 487 C 46.339 -1.56917 7.01975 0
M  V30 488 C 48.365 -1.69634 5.66549 0
M  V30 489 C 47.727 -1.45407 6.89229 0
M  V30 490 H 43.826 -0.55765 0.548225 0
M  V30 491 H 46.41 -0.890302 1.73152 0
M  V30 492 H 44.581 -3.4069 1.86507 0
M  V30 493 H 46.313 -3.45465 2.10798 0
M  V30 494 H 43.068 -2.61885 3.94605 0
M  V30 495 H 43.492 -1.95484 6.48163 0
M  V30 496 H 48.134 -2.23123 3.59133 0
M  V30 497 H 45.852 -1.38246 7.96187 0
M  V30 498 H 49.438 -1.59621 5.59475 0
M  V30 499 H 48.318 -1.17904 7.75286 0
M  V30 500 N 45.8211 -1.22559 -0.990812 0
M  V30 501 C 47.0491 -1.07779 -1.76611 0
M  V30 502 C 47.4641 0.371513 -1.85109 0
M  V30 503 O 46.8211 1.25737 -1.32274 0
M  V30 504 C 46.8721 -1.68512 -3.19822 0
M  V30 505 O 46.5931 -3.07774 -3.1178 0
M  V30 506 C 48.0941 -1.59035 -4.13791 0
M  V30 507 H 45.3141 -0.377729 -0.554583 0
M  V30 508 H 47.8581 -1.62195 -1.24551 0
M  V30 509 H 46.0131 -1.18154 -3.68942 0
M  V30 510 H 46.4271 -3.37062 -4.01858 0
M  V30 511 H 47.9011 -2.0625 -5.1202 0
M  V30 512 H 48.3781 -0.547273 -4.35777 0
M  V30 513 H 48.9841 -2.08709 -3.70568 0
M  V30 514 N 47.2992 1.18797 -1.03562 0
M  V30 515 C 48.5452 1.8893 -0.737113 0
M  V30 516 C 48.8782 1.79837 0.732956 0
M  V30 517 O 48.1532 1.19525 1.5344 0
M  V30 518 C 48.4362 3.39607 -1.19745 0
M  V30 519 C 48.2892 3.57537 -2.72924 0
M  V30 520 C 49.6082 4.33069 -0.783526 0
M  V30 521 H 46.7272 0.686057 -0.269249 0
M  V30 522 H 49.3692 1.39797 -1.28673 0
M  V30 523 H 47.5192 3.81583 -0.729855 0
M  V30 524 H 49.1912 3.24688 -3.27682 0
M  V30 525 H 47.4342 3.00363 -3.12993 0
M  V30 526 H 48.1052 4.63238 -3.00191 0
M  V30 527 H 50.5812 3.98846 -1.18581 0
M  V30 528 H 49.4572 5.3707 -1.13343 0
M  V30 529 H 49.7182 4.40986 0.313681 0
M  V30 530 N 48.7773 0.814389 1.34928 0
M  V30 531 C 49.7273 0.202752 2.27097 0
M  V30 532 C 50.7113 -0.62799 1.48139 0
M  V30 533 O 51.9033 -0.483969 1.70255 0
M  V30 534 C 49.0323 -0.64146 3.37254 0
M  V30 535 C 48.1183 0.19944 4.23631 0
M  V30 536 N 48.5093 1.26628 4.89693 0
M  V30 537 C 46.8073 -0.0176433 4.45997 0
M  V30 538 C 47.5083 1.78031 5.53787 0
M  V30 539 N 46.4843 1.08553 5.32651 0
M  V30 540 H 50.2863 1.01893 2.75672 0
M  V30 541 H 47.8003 0.656332 1.48546 0
M  V30 542 H 49.7973 -1.09575 4.02243 0
M  V30 543 H 48.4573 -1.4559 2.9023 0
M  V30 544 H 49.4683 1.64901 4.90946 0
M  V30 545 H 46.1453 -0.800601 4.09752 0
M  V30 546 H 47.5353 2.67236 6.16469 0
M  V30 547 N 50.2554 -1.46986 0.568584 0
M  V30 548 C 51.4804 -2.07335 0.0520528 0
M  V30 549 C 51.9054 -1.41675 -1.23733 0
M  V30 550 O 51.2634 -0.495623 -1.74394 0
M  V30 551 C 51.3114 -3.60417 -0.11501 0
M  V30 552 O 50.4154 -3.95309 -1.17492 0
M  V30 553 H 49.7564 -0.661597 0.0564385 0
M  V30 554 H 52.2864 -1.88837 0.787507 0
M  V30 555 H 52.2964 -4.06698 -0.325644 0
M  V30 556 H 50.9714 -4.07601 0.826675 0
M  V30 557 H 49.5484 -3.60757 -0.943869 0
M  V30 558 N 51.7335 -0.305618 -1.54608 0
M  V30 559 C 52.9815 0.301701 -1.99835 0
M  V30 560 C 53.3025 1.54054 -1.19551 0
M  V30 561 O 52.5725 1.93702 -0.292658 0
M  V30 562 H 51.1525 0.114468 -0.738178 0
M  V30 563 H 53.8145 -0.418016 -1.90364 0
M  V30 564 H 52.9105 0.570548 -3.06841 0
M  V30 565 N 53.2116 1.57565 -0.0334293 0
M  V30 566 C 54.6226 1.79746 0.504798 0
M  V30 567 C 54.9736 0.944091 1.71992 0
M  V30 568 O 54.0986 0.155694 2.15839 0
M  V30 569 C 54.6936 3.25997 0.922567 0
M  V30 570 C 53.2526 3.49159 1.40588 0
M  V30 571 C 52.3996 2.74785 0.372633 0
M  V30 572 H 55.3506 1.56565 -0.259436 0
M  V30 573 H 55.3716 3.35945 1.78666 0
M  V30 574 H 54.8836 3.88081 0.0379825 0
M  V30 575 H 52.9846 2.92332 2.31025 0
M  V30 576 H 53.0976 4.57873 1.41028 0
M  V30 577 H 51.4616 2.40391 0.841672 0
M  V30 578 H 52.2446 3.39587 -0.503559 0
M  V30 579 N 54.6897 -0.239769 1.55765 0
M  V30 580 C 55.6217 -1.32001 1.87372 0
M  V30 581 C 56.6347 -1.43944 0.760522 0
M  V30 582 O 57.8237 -1.45167 1.0387 0
M  V30 583 C 54.9237 -2.69779 2.05115 0
M  V30 584 C 54.0967 -2.80014 3.36022 0
M  V30 585 C 53.1557 -3.98684 3.4342 0
M  V30 586 O 52.1817 -3.87877 4.16582 0
M  V30 587 N 53.3837 -5.12176 2.73232 0
M  V30 588 H 56.1487 -1.0522 2.80622 0
M  V30 589 H 53.7097 -0.429857 1.56089 0
M  V30 590 H 55.7017 -3.47517 2.07399 0
M  V30 591 H 54.2717 -2.89237 1.18577 0
M  V30 592 H 53.4917 -1.88896 3.45994 0
M  V30 593 H 54.7797 -2.83808 4.22292 0
M  V30 594 H 54.1777 -5.2385 2.13536 0
M  V30 595 H 52.7347 -5.88022 2.81199 0
M  V30 596 N 56.1678 -1.49265 -0.50573 0
M  V30 597 C 57.0978 -1.68495 -1.61653 0
M  V30 598 C 58.0788 -0.53366 -1.61512 0
M  V30 599 O 59.2638 -0.76897 -1.78327 0
M  V30 600 C 56.3938 -1.74709 -3.00157 0
M  V30 601 C 55.3478 -2.89581 -3.15162 0
M  V30 602 C 54.6738 -2.80903 -4.5497 0
M  V30 603 C 55.9738 -4.30578 -2.95634 0
M  V30 604 H 57.6678 -2.61493 -1.45814 0
M  V30 605 H 55.2138 -1.25838 -0.70005 0
M  V30 606 H 57.1668 -1.86748 -3.77761 0
M  V30 607 H 55.8908 -0.783067 -3.17074 0
M  V30 608 H 54.5498 -2.77136 -2.39982 0
M  V30 609 H 54.1978 -1.82419 -4.68756 0
M  V30 610 H 53.8978 -3.57999 -4.65951 0
M  V30 611 H 55.4218 -2.94944 -5.34641 0
M  V30 612 H 56.8358 -4.4373 -3.63011 0
M  V30 613 H 55.2328 -5.0886 -3.18091 0
M  V30 614 H 56.3028 -4.45352 -1.91806 0
M  V30 615 N 57.6459 0.756429 -1.3826 0
M  V30 616 C 58.5759 1.88374 -1.37976 0
M  V30 617 C 59.5569 1.68311 -0.246082 0
M  V30 618 O 60.7419 1.88944 -0.44874 0
M  V30 619 C 57.8719 3.25864 -1.20125 0
M  V30 620 C 56.8259 3.60523 -2.30666 0
M  V30 621 C 56.1519 4.9672 -1.97923 0
M  V30 622 C 57.4519 3.65692 -3.72916 0
M  V30 623 H 59.1459 1.88869 -2.32312 0
M  V30 624 H 56.6919 0.907272 -1.11824 0
M  V30 625 H 58.6449 4.0438 -1.18552 0
M  V30 626 H 57.3689 3.25841 -0.222498 0
M  V30 627 H 56.0279 2.84324 -2.3142 0
M  V30 628 H 55.6759 4.93253 -0.985393 0
M  V30 629 H 55.3759 5.20878 -2.71955 0
M  V30 630 H 56.8999 5.77618 -1.97964 0
M  V30 631 H 58.3139 4.34328 -3.74208 0
M  V30 632 H 56.7109 4.01358 -4.4613 0
M  V30 633 H 57.7809 2.65987 -4.05436 0
M  V30 634 N 59.124 1.23083 0.984299 0
M  V30 635 C 60.371 1.06057 1.72505 0
M  V30 636 C 60.699 -0.403105 1.90277 0
M  V30 637 O 59.954 -1.3149 1.44944 0
M  V30 638 C 60.253 1.72673 3.1292 0
M  V30 639 C 59.919 3.22586 3.15038 0
M  V30 640 C 58.581 3.63489 3.15324 0
M  V30 641 C 60.933 4.185 3.10657 0
M  V30 642 C 58.261 4.98772 3.08939 0
M  V30 643 C 60.613 5.53769 3.05814 0
M  V30 644 C 59.277 5.94041 3.04419 0
M  V30 645 H 58.547 0.388091 0.631242 0
M  V30 646 H 61.194 1.52963 1.15215 0
M  V30 647 H 59.499 1.18116 3.73572 0
M  V30 648 H 61.196 1.56982 3.68996 0
M  V30 649 H 57.786 2.90022 3.15571 0
M  V30 650 H 61.97 3.87911 3.09579 0
M  V30 651 H 57.226 5.29193 3.0621 0
M  V30 652 H 61.4 6.27808 3.0138 0
M  V30 653 H 59.027 6.98833 2.99227 0
M  V30 654 N 60.6021 -1.18246 1.0419 0
M  V30 655 C 62.0181 -1.40269 0.761366 0
M  V30 656 C 62.2181 -1.90777 -0.648578 0
M  V30 657 O 61.2741 -2.0929 -1.41258 0
M  V30 658 C 62.5871 -2.40237 1.8085 0
M  V30 659 C 64.1351 -2.53961 1.82955 0
M  V30 660 C 64.6101 -3.57194 2.86664 0
M  V30 661 N 66.1011 -3.64702 2.85563 0
M  V30 662 C 66.8361 -4.44309 3.6246 0
M  V30 663 N 66.3321 -5.27514 4.49111 0
M  V30 664 N 68.1251 -4.39084 3.50944 0
M  V30 665 H 60.2761 -0.837882 1.95175 0
M  V30 666 H 62.5391 -0.430608 0.84456 0
M  V30 667 H 62.2451 -2.10176 2.81991 0
M  V30 668 H 62.1191 -3.39601 1.64168 0
M  V30 669 H 64.5061 -2.83338 0.824855 0
M  V30 670 H 64.5871 -1.54706 2.03715 0
M  V30 671 H 64.2311 -3.28558 3.87314 0
M  V30 672 H 64.1611 -4.5613 2.6316 0
M  V30 673 H 66.6521 -3.05289 2.22727 0
M  V30 674 H 66.9651 -5.85411 5.04493 0
M  V30 675 H 65.3101 -5.2693 4.53178 0
M  V30 676 H 68.5011 -3.7313 2.82651 0
M  V30 677 H 68.6741 -5.00883 4.11121 0
M  V30 678 N 62.0802 -0.821533 -1.34494 0
M  V30 679 C 63.3572 -0.33159 -1.92769 0
M  V30 680 C 63.7372 1.18088 -1.74981 0
M  V30 681 O 63.0852 1.98733 -1.12772 0
M  V30 682 C 63.2952 -0.759398 -3.40638 0
M  V30 683 C 64.6432 -0.757433 -4.1779 0
M  V30 684 O 65.6672 -0.70189 -3.49216 0
M  V30 685 O 64.5262 -0.829361 -5.4017 0
M  V30 686 H 61.6202 -0.0902502 -0.822061 0
M  V30 687 H 64.1662 -0.906231 -1.43477 0
M  V30 688 H 62.9382 -1.8012 -3.47379 0
M  V30 689 H 62.5612 -0.160378 -3.97276 0
M  V30 690 N 63.5583 1.46682 -0.576371 0
M  V30 691 C 64.8043 2.02712 -0.0596221 0
M  V30 692 C 65.1373 1.44765 1.29448 0
M  V30 693 O 64.4123 0.610355 1.84675 0
M  V30 694 C 64.6953 3.60098 0.0129503 0
M  V30 695 C 64.5483 4.28441 -1.3696 0
M  V30 696 C 65.8673 4.34224 0.71678 0
M  V30 697 H 62.9863 0.736637 -0.0231407 0
M  V30 698 H 65.6283 1.74898 -0.742351 0
M  V30 699 H 63.7783 3.83926 0.594378 0
M  V30 700 H 65.4503 4.15896 -1.9957 0
M  V30 701 H 63.6933 3.8805 -1.93907 0
M  V30 702 H 64.3643 5.3716 -1.27135 0
M  V30 703 H 66.8403 4.15503 0.222908 0
M  V30 704 H 65.7163 5.43936 0.73657 0
M  V30 705 H 65.9773 4.04823 1.77682 0
M  V30 706 N 65.0364 0.313813 1.54444 0
M  V30 707 C 65.9664 -0.549454 2.26943 0
M  V30 708 C 66.9474 -1.12741 1.27372 0
M  V30 709 O 68.1324 -1.15436 1.56167 0
M  V30 710 C 65.2624 -1.71523 3.01989 0
M  V30 711 C 64.2164 -1.26703 4.08816 0
M  V30 712 C 63.5424 -2.51898 4.71647 0
M  V30 713 C 64.8424 -0.388962 5.2085 0
M  V30 714 H 66.5364 0.0552661 2.99349 0
M  V30 715 H 64.0824 0.0280207 1.43973 0
M  V30 716 H 66.0354 -2.32535 3.51433 0
M  V30 717 H 64.7594 -2.34639 2.27183 0
M  V30 718 H 63.4184 -0.679896 3.6024 0
M  V30 719 H 63.0664 -3.13356 3.93468 0
M  V30 720 H 62.7664 -2.22605 5.43802 0
M  V30 721 H 64.2904 -3.1369 5.23861 0
M  V30 722 H 65.7044 -0.905107 5.6611 0
M  V30 723 H 64.1014 -0.18924 5.99802 0
M  V30 724 H 65.1714 0.582699 4.81386 0
M  V30 725 N 66.5145 -1.57545 0.0417849 0
M  V30 726 C 67.7915 -1.83642 -0.673433 0
M  V30 727 C 68.1715 -0.928298 -1.89594 0
M  V30 728 O 67.5195 0.0129955 -2.28496 0
M  V30 729 C 67.7295 -3.33155 -1.03964 0
M  V30 730 C 69.0775 -3.99941 -1.42592 0
M  V30 731 O 70.1015 -3.37725 -1.13226 0
M  V30 732 O 68.9605 -5.09619 -1.9736 0
M  V30 733 H 66.0545 -0.757638 -0.331533 0
M  V30 734 H 68.6005 -1.69554 0.070433 0
M  V30 735 H 67.3725 -3.9093 -0.170098 0
M  V30 736 H 66.9955 -3.52396 -1.84126 0
M  V30 737 N 67.9926 0.231505 -1.5589 0
M  V30 738 C 69.2386 0.95877 -1.78705 0
M  V30 739 C 69.5716 1.8438 -0.609725 0
M  V30 740 O 68.8466 1.90521 0.391426 0
M  V30 741 C 69.1296 1.8062 -3.11526 0
M  V30 742 C 68.9826 0.948328 -4.39689 0
M  V30 743 C 70.3016 2.78585 -3.40703 0
M  V30 744 H 67.4206 0.347129 -0.650131 0
M  V30 745 H 70.0626 0.228259 -1.88624 0
M  V30 746 H 68.2126 2.42902 -3.03201 0
M  V30 747 H 69.8846 0.343016 -4.60023 0
M  V30 748 H 68.1276 0.253314 -4.3306 0
M  V30 749 H 68.7986 1.57543 -5.29041 0
M  V30 750 H 71.2746 2.26439 -3.49091 0
M  V30 751 H 70.1506 3.34988 -4.34826 0
M  V30 752 H 70.4116 3.55825 -2.62375 0
M  V30 753 N 69.4707 1.49531 0.497807 0
M  V30 754 C 70.7197 1.58426 1.24837 0
M  V30 755 C 71.0327 0.277643 1.93619 0
M  V30 756 O 72.2387 0.24517 2.70391 0
M  V30 757 C 70.6947 2.79538 2.26686 0
M  V30 758 C 70.3027 4.16971 1.63828 0
M  V30 759 C 72.0467 2.97764 3.0255 0
M  V30 760 C 69.9537 5.29301 2.63807 0
M  V30 761 H 68.8837 0.58989 0.469623 0
M  V30 762 H 71.5347 1.75923 0.521857 0
M  V30 763 H 69.9167 2.55542 3.02514 0
M  V30 764 H 71.0907 4.51116 0.939711 0
M  V30 765 H 69.4057 4.04129 1.00342 0
M  V30 766 H 72.0027 3.78856 3.77323 0
M  V30 767 H 72.3457 2.08448 3.60354 0
M  V30 768 H 72.8787 3.21815 2.33838 0
M  V30 769 H 69.6177 6.20687 2.10779 0
M  V30 770 H 69.1377 4.99606 3.31894 0
M  V30 771 H 70.8167 5.58768 3.2617 0
M  V30 772 N 70.9488 -0.749086 1.3866 0
M  V30 773 C 72.1968 -1.50535 1.34847 0
M  V30 774 C 72.5178 -1.94909 -0.0595016 0
M  V30 775 O 71.7878 -1.67973 -1.00806 0
M  V30 776 H 70.3678 -0.558395 0.49619 0
M  V30 777 H 73.0298 -0.890165 1.73384 0
M  V30 778 H 72.1258 -2.39413 2.00219 0
M  V30 779 N 72.4269 -1.23603 -0.977757 0
M  V30 780 C 73.3589 -0.977369 -2.07317 0
M  V30 781 C 74.3719 0.0495845 -1.62724 0
M  V30 782 O 75.5609 -0.186261 -1.77526 0
M  V30 783 C 72.6609 -0.451216 -3.35883 0
M  V30 784 C 71.8339 -1.53896 -4.09432 0
M  V30 785 C 70.8929 -1.01721 -5.16274 0
M  V30 786 O 69.9189 -1.70676 -5.43009 0
M  V30 787 N 71.1209 0.153594 -5.80297 0
M  V30 788 H 73.8859 -1.92047 -2.30082 0
M  V30 789 H 71.4469 -1.14497 -1.14465 0
M  V30 790 H 73.4389 -0.0871574 -4.04606 0
M  V30 791 H 72.0089 0.397368 -3.10064 0
M  V30 792 H 71.2289 -2.07566 -3.35127 0
M  V30 793 H 72.5169 -2.27037 -4.55337 0
M  V30 794 H 71.9149 0.730323 -5.60966 0
M  V30 795 H 70.4719 0.458892 -6.50183 0
M  V30 796 N 73.905 1.17692 -1.04816 0
M  V30 797 C 75.151 1.88137 -0.75711 0
M  V30 798 C 75.484 1.80604 0.713841 0
M  V30 799 O 74.759 1.21146 1.52164 0
M  V30 800 C 75.042 3.38318 -1.2334 0
M  V30 801 C 74.895 3.54622 -2.76701 0
M  V30 802 C 76.214 4.32214 -0.829415 0
M  V30 803 H 73.333 0.683163 -0.27651 0
M  V30 804 H 75.975 1.38424 -1.30149 0
M  V30 805 H 74.125 3.80787 -0.770286 0
M  V30 806 H 75.797 3.21194 -3.31107 0
M  V30 807 H 74.04 2.97026 -3.16161 0
M  V30 808 H 74.711 4.60028 -3.05088 0
M  V30 809 H 77.187 3.97565 -1.22805 0
M  V30 810 H 76.063 5.35838 -1.19033 0
M  V30 811 H 76.324 4.41294 0.266891 0
M  V30 812 N 75.3831 0.828654 1.34056 0
M  V30 813 C 76.3131 0.269443 2.3194 0
M  V30 814 C 77.2941 -0.617247 1.58506 0
M  V30 815 O 78.4791 -0.542931 1.86456 0
M  V30 816 C 75.6091 -0.564793 3.42677 0
M  V30 817 C 74.5631 0.225241 4.27407 0
M  V30 818 C 73.8891 -0.7321 5.29664 0
M  V30 819 C 75.1891 1.43663 5.02154 0
M  V30 820 H 76.8831 1.08728 2.7896 0
M  V30 821 H 74.4291 0.524283 1.34117 0
M  V30 822 H 76.3821 -0.966233 4.10173 0
M  V30 823 H 75.1061 -1.41574 2.9432 0
M  V30 824 H 73.7651 0.608117 3.61521 0
M  V30 825 H 73.4131 -1.57916 4.77568 0
M  V30 826 H 73.1131 -0.20767 5.87233 0
M  V30 827 H 74.6371 -1.13128 6.00029 0
M  V30 828 H 76.0511 1.1089 5.62473 0
M  V30 829 H 74.4481 1.89711 5.69324 0
M  V30 830 H 75.5181 2.21181 4.31517 0
M  V30 831 N 76.8612 -1.46375 0.584142 0
M  V30 832 C 78.2722 -1.86031 0.157959 0
M  V30 833 C 78.6232 -1.48753 -1.27933 0
M  V30 834 O 77.7482 -0.903098 -1.96655 0
M  V30 835 C 78.3432 -3.37642 0.279892 0
M  V30 836 C 76.9022 -3.76289 -0.09143 0
M  V30 837 C 76.0492 -2.7039 0.615178 0
M  V30 838 H 79.0002 -1.37509 0.792274 0
M  V30 839 H 79.0212 -3.77275 -0.494364 0
M  V30 840 H 78.5332 -3.64742 1.32607 0
M  V30 841 H 76.6342 -3.54806 -1.13769 0
M  V30 842 H 76.7472 -4.78246 0.285886 0
M  V30 843 H 75.1112 -2.5464 0.0552833 0
M  V30 844 H 75.8942 -3.0033 1.66303 0
M  V30 845 N 78.3393 -0.321999 -1.54275 0
M  V30 846 C 79.2493 0.553631 -2.27974 0
M  V30 847 C 80.2653 1.13054 -1.32268 0
M  V30 848 O 81.4413 1.15084 -1.6528 0
M  V30 849 C 78.5063 1.69927 -3.02201 0
M  V30 850 C 77.5673 1.15433 -4.1349 0
M  V30 851 C 76.8003 2.24537 -4.84168 0
M  V30 852 O 77.0233 3.44852 -4.5435 0
M  V30 853 O 75.9573 1.90044 -5.7111 0
M  V30 854 H 79.7833 -0.0448345 -3.03667 0
M  V30 855 H 77.3683 -0.0877418 -1.49142 0
M  V30 856 H 79.2503 2.3663 -3.48689 0
M  V30 857 H 77.9253 2.28395 -2.29385 0
M  V30 858 H 76.8323 0.452436 -3.71354 0
M  V30 859 H 78.1653 0.614805 -4.88345 0
M  V30 860 N 79.8174 1.5752 -0.0501392 0
M  V30 861 C 80.7804 2.1037 0.909786 0
M  V30 862 C 81.7804 1.02308 1.24056 0
M  V30 863 O 82.9704 1.28385 1.17741 0
M  V30 864 C 80.1024 2.58708 2.21998 0
M  V30 865 H 81.2954 2.96479 0.451665 0
M  V30 866 H 78.8484 1.55038 0.198248 0
M  V30 867 H 79.5834 1.75989 2.72394 0
M  V30 868 H 79.3684 3.37675 1.99295 0
M  V30 869 H 80.8584 2.99747 2.9076 0
M  V30 870 N 81.2955 -0.223234 1.56011 0
M  V30 871 C 82.5235 -0.964812 1.83027 0
M  V30 872 C 82.9385 -1.78013 0.62904 0
M  V30 873 O 82.2955 -1.78008 -0.402414 0
M  V30 874 C 82.3465 -1.88373 3.08542 0
M  V30 875 O 82.0675 -1.10137 4.2403 0
M  V30 876 C 83.5685 -2.73934 3.48533 0
M  V30 877 H 80.7885 -0.282842 0.608475 0
M  V30 878 H 83.3325 -0.238971 2.03099 0
M  V30 879 H 81.4875 -2.56354 2.9045 0
M  V30 880 H 81.9015 -1.72501 4.95322 0
M  V30 881 H 83.3755 -3.34117 4.39397 0
M  V30 882 H 83.8525 -3.46244 2.70207 0
M  V30 883 H 84.4585 -2.11369 3.69057 0
M  V30 884 N 82.7736 -1.49793 -0.48987 0
M  V30 885 C 84.0016 -1.63568 -1.26701 0
M  V30 886 C 84.4166 -0.311465 -1.86213 0
M  V30 887 O 83.7736 0.704416 -1.68357 0
M  V30 888 C 83.8246 -2.71284 -2.38929 0
M  V30 889 O 83.5456 -3.9857 -1.81861 0
M  V30 890 C 85.0466 -2.95864 -3.3012 0
M  V30 891 H 82.2666 -0.550342 -0.383881 0
M  V30 892 H 84.8106 -1.95898 -0.586864 0
M  V30 893 H 82.9656 -2.417 -3.02753 0
M  V30 894 H 83.3796 -4.57993 -2.55622 0
M  V30 895 H 84.8536 -3.74941 -4.05121 0
M  V30 896 H 85.3306 -2.06206 -3.87783 0
M  V30 897 H 85.9366 -3.26907 -2.72051 0
M  V30 898 N 84.2517 0.741722 -1.39055 0
M  V30 899 C 85.4797 1.53098 -1.39171 0
M  V30 900 C 85.8947 1.88794 0.0155099 0
M  V30 901 O 85.2517 1.53626 0.985159 0
M  V30 902 C 85.3027 2.82274 -2.2584 0
M  V30 903 O 85.0237 2.48097 -3.61081 0
M  V30 904 C 86.5247 3.76343 -2.34266 0
M  V30 905 H 83.7447 0.473335 -0.4756 0
M  V30 906 H 86.2887 0.917045 -1.82785 0
M  V30 907 H 84.4437 3.40015 -1.85656 0
M  V30 908 H 84.8577 3.31029 -4.06842 0
M  V30 909 H 86.3317 4.63898 -2.9917 0
M  V30 910 H 86.8087 4.17619 -1.35982 0
M  V30 911 H 87.4147 3.24523 -2.74891 0
M  V30 912 N 85.7298 1.2412 0.971189 0
M  V30 913 C 86.6928 1.03156 2.04674 0
M  V30 914 C 87.6928 -0.00990322 1.60797 0
M  V30 915 O 88.8828 0.230729 1.72665 0
M  V30 916 C 86.0148 0.562765 3.36223 0
M  V30 917 H 87.2078 1.98614 2.24705 0
M  V30 918 H 84.7608 1.06293 1.14593 0
M  V30 919 H 85.4958 -0.395176 3.21883 0
M  V30 920 H 85.2808 1.31441 3.69413 0
M  V30 921 H 86.7708 0.437015 4.15307 0
M  V30 922 N 87.2079 -1.17134 1.05439 0
M  V30 923 C 88.4549 -1.87456 0.765942 0
M  V30 924 C 88.7829 -1.81189 -0.707153 0
M  V30 925 O 88.0379 -1.21633 -1.5331 0
M  V30 926 C 88.3369 -3.36833 1.19491 0
M  V30 927 C 88.0029 -3.63301 2.67063 0
M  V30 928 C 86.6649 -3.70234 3.07376 0
M  V30 929 C 89.0169 -3.74575 3.62413 0
M  V30 930 C 86.3449 -3.85933 4.41896 0
M  V30 931 C 88.6969 -3.91793 4.9667 0
M  V30 932 C 87.3609 -3.96966 5.36633 0
M  V30 933 H 86.6309 -0.685948 0.280278 0
M  V30 934 H 89.2779 -1.38556 1.32192 0
M  V30 935 H 87.5829 -3.87807 0.557969 0
M  V30 936 H 89.2799 -3.89611 0.948893 0
M  V30 937 H 85.8699 -3.58532 2.34846 0
M  V30 938 H 90.0539 -3.68537 3.32406 0
M  V30 939 H 85.3099 -3.88187 4.72357 0
M  V30 940 H 89.4839 -3.99458 5.70444 0
M  V30 941 H 87.1109 -4.08883 6.40874 0
M  V30 942 N 88.686 -0.835752 -1.33615 0
M  V30 943 C 89.596 -0.269088 -2.33052 0
M  V30 944 C 90.612 0.603251 -1.63208 0
M  V30 945 O 91.788 0.508112 -1.94885 0
M  V30 946 C 88.853 0.549091 -3.42324 0
M  V30 947 C 87.914 -0.347156 -4.27894 0
M  V30 948 C 87.147 0.43207 -5.31948 0
M  V30 949 O 87.37 1.66409 -5.45586 0
M  V30 950 O 86.304 -0.192298 -6.01593 0
M  V30 951 H 90.13 -1.09243 -2.83372 0
M  V30 952 H 87.715 -0.598198 -1.36901 0
M  V30 953 H 89.597 1.01414 -4.09015 0
M  V30 954 H 88.272 1.34955 -2.94226 0
M  V30 955 H 87.179 -0.859979 -3.64081 0
M  V30 956 H 88.512 -1.1123 -4.79467 0
M  V30 957 N 90.1641 1.46063 -0.591896 0
M  V30 958 C 91.3941 2.06418 -0.0867676 0
M  V30 959 C 91.8021 1.43975 1.22751 0
M  V30 960 O 91.1451 0.542531 1.75506 0
M  V30 961 C 91.2071 3.59213 0.143725 0
M  V30 962 C 90.8711 4.439 -1.08635 0
M  V30 963 C 91.8681 4.79864 -2.00067 0
M  V30 964 C 89.5531 4.84896 -1.31077 0
M  V30 965 C 91.5471 5.55661 -3.12282 0
M  V30 966 C 89.2341 5.6045 -2.43596 0
M  V30 967 C 90.2321 5.95747 -3.34027 0
M  V30 968 O 89.9201 6.69772 -4.4459 0
M  V30 969 H 89.6521 0.673443 -0.0587447 0
M  V30 970 H 92.2061 1.88539 -0.814994 0
M  V30 971 H 90.4361 3.75433 0.926668 0
M  V30 972 H 92.1251 4.01463 0.5985 0
M  V30 973 H 92.8911 4.48763 -1.83947 0
M  V30 974 H 88.7701 4.56867 -0.61594 0
M  V30 975 H 92.3141 5.8313 -3.82891 0
M  V30 976 H 88.2111 5.90965 -2.59674 0
M  V30 977 H 88.9791 6.88207 -4.43073 0
M  V30 978 N 91.6422 0.330177 1.54103 0
M  V30 979 C 92.5522 -0.541534 2.28264 0
M  V30 980 C 93.5682 -1.12351 1.32866 0
M  V30 981 O 94.7442 -1.14206 1.65888 0
M  V30 982 C 91.8092 -1.68322 3.03098 0
M  V30 983 C 90.8702 -1.13238 4.14096 0
M  V30 984 C 90.1032 -2.21966 4.85352 0
M  V30 985 O 90.3262 -3.42437 4.56172 0
M  V30 986 O 89.2602 -1.87013 5.7211 0
M  V30 987 H 93.0862 0.060938 3.03639 0
M  V30 988 H 90.6712 0.09565 1.49093 0
M  V30 989 H 92.5532 -2.34777 3.49939 0
M  V30 990 H 91.2282 -2.27176 2.30593 0
M  V30 991 H 90.1352 -0.432736 3.71589 0
M  V30 992 H 91.4682 -0.588898 4.88664 0
M  V30 993 N 93.1203 -1.57491 0.0584922 0
M  V30 994 C 94.3973 -1.84346 -0.653918 0
M  V30 995 C 94.7773 -0.948355 -1.88599 0
M  V30 996 O 94.1253 -0.0112403 -2.28497 0
M  V30 997 C 94.3353 -3.34239 -1.00425 0
M  V30 998 C 95.6833 -4.01431 -1.38342 0
M  V30 999 O 96.7073 -3.38907 -1.09637 0
M  V30 1000 O 95.5663 -5.11683 -1.91943 0
M  V30 1001 H 92.6603 -0.761112 -0.323478 0
M  V30 1002 H 95.2063 -1.6947 0.0884125 0
M  V30 1003 H 93.9783 -3.91089 -0.128625 0
M  V30 1004 H 93.6013 -3.54329 -1.80378 0
M  V30 1005 N 94.5984 0.214957 -1.56127 0
M  V30 1006 C 95.5084 1.28727 -1.96129 0
M  V30 1007 C 96.5244 1.50916 -0.866044 0
M  V30 1008 O 97.7004 1.63918 -1.17016 0
M  V30 1009 C 94.7654 2.61569 -2.27558 0
M  V30 1010 C 93.8264 2.47625 -3.50685 0
M  V30 1011 C 93.0594 3.74132 -3.80606 0
M  V30 1012 O 93.2824 4.77438 -3.12104 0
M  V30 1013 O 92.2164 3.70849 -4.74083 0
M  V30 1014 H 96.0424 0.977855 -2.87527 0
M  V30 1015 H 93.6274 0.418358 -1.43423 0
M  V30 1016 H 95.5094 3.40012 -2.48938 0
M  V30 1017 H 94.1844 2.92178 -1.39332 0
M  V30 1018 H 93.0914 1.67361 -3.34576 0
M  V30 1019 H 94.4244 2.21954 -4.39315 0
M  V30 1020 N 96.0765 1.50051 0.48192 0
M  V30 1021 C 97.3535 1.51009 1.2432 0
M  V30 1022 C 97.7335 0.248587 2.09631 0
M  V30 1023 O 97.0815 -0.768409 2.15192 0
M  V30 1024 C 97.2915 2.79981 2.08355 0
M  V30 1025 C 98.6395 3.3022 2.66908 0
M  V30 1026 O 99.6635 2.81228 2.18607 0
M  V30 1027 O 98.5225 4.15595 3.54884 0
M  V30 1028 H 95.6165 0.605239 0.563573 0
M  V30 1029 H 98.1625 1.62332 0.494627 0
M  V30 1030 H 96.9345 3.63275 1.45419 0
M  V30 1031 H 96.5575 2.7161 2.90368 0
M  V30 1032 N 97.5546 -0.734337 1.39446 0
M  V30 1033 C 98.8026 -1.49096 1.36436 0
M  V30 1034 C 99.1236 -1.94961 -0.0388255 0
M  V30 1035 O 98.3936 -1.69033 -0.990191 0
M  V30 1036 H 96.9736 -0.5531 0.502085 0
M  V30 1037 H 99.6356 -0.871725 1.74319 0
M  V30 1038 H 98.7316 -2.37276 2.02747 0
M  V30 1039 N 99.0327 -1.24633 -0.964593 0
M  V30 1040 C 100.31 -0.995809 -1.68354 0
M  V30 1041 C 100.69 0.480964 -2.05548 0
M  V30 1042 O 100.038 1.45599 -1.76105 0
M  V30 1043 C 100.248 -1.92177 -2.91323 0
M  V30 1044 C 101.596 -2.19446 -3.63495 0
M  V30 1045 O 102.62 -1.89855 -3.01386 0
M  V30 1046 O 101.479 -2.69714 -4.75307 0
M  V30 1047 H 98.5727 -0.376854 -0.736146 0
M  V30 1048 H 101.119 -1.35745 -1.0184 0
M  V30 1049 H 99.8907 -2.91938 -2.60553 0
M  V30 1050 H 99.5137 -1.56349 -3.65569 0
M  V30 1051 N 100.511 1.16574 -1.06058 0
M  V30 1052 C 101.927 1.3904 -0.783585 0
M  V30 1053 C 102.127 1.91784 0.618145 0
M  V30 1054 O 101.183 2.11511 1.37911 0
M  V30 1055 C 102.496 2.37329 -1.84649 0
M  V30 1056 C 104.044 2.51018 -1.86973 0
M  V30 1057 C 104.519 3.52588 -2.92311 0
M  V30 1058 N 106.01 3.60113 -2.91329 0
M  V30 1059 C 106.745 4.38486 -3.69482 0
M  V30 1060 N 106.241 5.20302 -4.57447 0
M  V30 1061 N 108.034 4.33446 -3.57885 0
M  V30 1062 H 100.185 0.806725 -1.96483 0
M  V30 1063 H 102.448 0.417117 -0.851303 0
M  V30 1064 H 102.154 2.05663 -2.85299 0
M  V30 1065 H 102.028 3.36946 -1.6955 0
M  V30 1066 H 104.415 2.81989 -0.869827 0
M  V30 1067 H 104.496 1.51445 -2.0615 0
M  V30 1068 H 104.14 3.22354 -3.92492 0
M  V30 1069 H 104.07 4.51886 -2.70383 0
M  V30 1070 H 106.561 3.01707 -2.27555 0
M  V30 1071 H 106.874 5.77311 -5.13743 0
M  V30 1072 H 105.219 5.19653 -4.61503 0
M  V30 1073 H 108.41 3.68586 -2.88551 0
M  V30 1074 H 108.583 4.94279 -4.19037 0
M  V30 1075 N 101.989 0.842826 1.3317 0
M  V30 1076 C 103.238 0.436738 1.96915 0
M  V30 1077 C 103.551 -1.01025 1.67491 0
M  V30 1078 O 104.757 -1.5212 2.24881 0
M  V30 1079 C 103.213 0.730021 3.52418 0
M  V30 1080 C 102.821 2.19195 3.90714 0
M  V30 1081 C 104.565 0.391076 4.22695 0
M  V30 1082 C 102.472 2.42907 5.39212 0
M  V30 1083 H 101.402 0.15958 0.736919 0
M  V30 1084 H 104.053 1.03196 1.51733 0
M  V30 1085 H 102.435 0.0643755 3.95948 0
M  V30 1086 H 103.609 2.8984 3.58231 0
M  V30 1087 H 101.924 2.49425 3.33431 0
M  V30 1088 H 104.521 0.545817 5.31907 0
M  V30 1089 H 104.864 -0.666294 4.10933 0
M  V30 1090 H 105.397 1.01212 3.84709 0
M  V30 1091 H 102.136 3.47224 5.55982 0
M  V30 1092 H 101.656 1.76827 5.73142 0
M  V30 1093 H 103.335 2.2626 6.06148 0
M  V30 1094 N 103.467 -1.45747 0.599634 0
M  V30 1095 C 104.695 -2.06668 0.0978551 0
M  V30 1096 C 105.11 -1.44562 -1.21439 0
M  V30 1097 O 104.467 -0.556923 -1.73795 0
M  V30 1098 C 104.518 -3.61456 -0.0567044 0
M  V30 1099 O 104.239 -4.21242 1.20361 0
M  V30 1100 C 105.74 -4.39345 -0.590869 0
M  V30 1101 H 102.96 -0.667825 0.0651943 0
M  V30 1102 H 105.504 -1.87115 0.82511 0
M  V30 1103 H 103.659 -3.80378 -0.734251 0
M  V30 1104 H 104.073 -5.14323 1.02821 0
M  V30 1105 H 105.547 -5.48182 -0.648131 0
M  V30 1106 H 106.024 -4.08568 -1.61147 0
M  V30 1107 H 106.63 -4.25268 0.0523679 0
M  V30 1108 N 104.945 -0.338344 -1.53925 0
M  V30 1109 C 106.191 0.260143 -2.01125 0
M  V30 1110 C 106.524 1.50617 -1.22589 0
M  V30 1111 O 105.799 1.91979 -0.312113 0
M  V30 1112 C 106.082 0.579499 -3.55407 0
M  V30 1113 C 105.935 -0.678264 -4.44657 0
M  V30 1114 C 107.254 1.39122 -4.17532 0
M  V30 1115 H 104.373 0.0930772 -0.731099 0
M  V30 1116 H 107.015 -0.457852 -1.84401 0
M  V30 1117 H 105.165 1.19118 -3.69788 0
M  V30 1118 H 106.837 -1.31631 -4.42121 0
M  V30 1119 H 105.08 -1.3042 -4.13731 0
M  V30 1120 H 105.751 -0.410143 -5.50474 0
M  V30 1121 H 108.227 0.874035 -4.06817 0
M  V30 1122 H 107.103 1.58342 -5.25565 0
M  V30 1123 H 107.364 2.39178 -3.71815 0
M  V30 1124 N 106.423 1.57458 -0.0668435 0
M  V30 1125 C 107.839 1.56947 0.289772 0
M  V30 1126 C 108.039 1.07584 1.70376 0
M  V30 1127 O 107.095 0.739486 2.41429 0
M  V30 1128 C 108.408 3.0052 0.103943 0
M  V30 1129 C 109.956 3.12517 0.173857 0
M  V30 1130 C 110.431 4.57997 0.0163682 0
M  V30 1131 N 111.922 4.63144 0.0721352 0
M  V30 1132 C 112.657 5.73394 -0.0253794 0
M  V30 1133 N 112.153 6.92576 -0.176133 0
M  V30 1134 N 113.946 5.62091 0.0313305 0
M  V30 1135 H 106.097 1.87863 -0.991027 0
M  V30 1136 H 108.36 0.86583 -0.38606 0
M  V30 1137 H 108.066 3.40729 -0.871572 0
M  V30 1138 H 107.94 3.67304 0.858366 0
M  V30 1139 H 110.327 2.72197 1.13985 0
M  V30 1140 H 110.408 2.48381 -0.611586 0
M  V30 1141 H 110.052 4.99005 -0.946374 0
M  V30 1142 H 109.982 5.20158 0.821153 0
M  V30 1143 H 112.473 3.77436 0.187263 0
M  V30 1144 H 112.786 7.72418 -0.242821 0
M  V30 1145 H 111.131 6.94678 -0.211429 0
M  V30 1146 H 114.322 4.67867 0.147773 0
M  V30 1147 H 114.495 6.47982 -0.048121 0
M  V30 1148 N 107.901 -0.206675 1.56239 0
M  V30 1149 C 109.126 -0.949474 1.8439 0
M  V30 1150 C 109.551 -1.76549 0.649016 0
M  V30 1151 O 108.909 -1.76782 -0.402231 0
M  V30 1152 C 108.957 -1.83078 3.10668 0
M  V30 1153 O 108.061 -2.9281 2.90407 0
M  V30 1154 H 107.402 -0.268033 0.607499 0
M  V30 1155 H 109.932 -0.215488 2.03462 0
M  V30 1156 H 109.942 -2.2377 3.41161 0
M  V30 1157 H 108.617 -1.23112 3.97261 0
M  V30 1158 H 107.194 -2.55956 2.71184 0
M  V30 1159 N 109.379 -1.50304 -0.473955 0
M  V30 1160 C 110.656 -1.51667 -1.23518 0
M  V30 1161 C 111.036 -0.259701 -2.09496 0
M  V30 1162 O 110.384 0.756986 -2.15597 0
M  V30 1163 C 110.594 -2.81082 -2.06868 0
M  V30 1164 C 111.942 -3.31631 -2.65153 0
M  V30 1165 O 112.966 -2.82384 -2.17113 0
M  V30 1166 O 111.825 -4.17471 -3.52675 0
M  V30 1167 H 108.919 -0.60822 -0.560355 0
M  V30 1168 H 111.465 -1.62592 -0.486011 0
M  V30 1169 H 110.237 -3.64041 -1.4349 0
M  V30 1170 H 109.86 -2.73146 -2.88924 0
M  V30 1171 N 110.857 0.726932 -1.39834 0
M  V30 1172 C 111.767 1.87131 -1.41489 0
M  V30 1173 C 112.783 1.71239 -0.308757 0
M  V30 1174 O 113.959 1.93701 -0.551529 0
M  V30 1175 C 111.024 3.22811 -1.26468 0
M  V30 1176 C 110.085 3.51039 -2.47124 0
M  V30 1177 C 109.318 4.80245 -2.3281 0
M  V30 1178 O 109.541 5.54537 -1.33585 0
M  V30 1179 O 108.475 5.08554 -3.21957 0
M  V30 1180 H 112.301 1.8869 -2.3797 0
M  V30 1181 H 109.886 0.875837 -1.21035 0
M  V30 1182 H 111.768 4.03877 -1.20255 0
M  V30 1183 H 110.443 3.22005 -0.330862 0
M  V30 1184 H 109.35 2.70027 -2.58914 0
M  V30 1185 H 110.683 3.56632 -3.39227 0
M  V30 1186 N 112.336 1.25143 0.95797 0
M  V30 1187 C 113.246 1.06968 2.08794 0
M  V30 1188 C 114.262 0.00773911 1.73998 0
M  V30 1189 O 115.438 0.207972 2.00323 0
M  V30 1190 C 112.503 0.68691 3.39827 0
M  V30 1191 C 111.564 1.82641 3.88511 0
M  V30 1192 C 110.797 1.46181 5.1329 0
M  V30 1193 O 111.02 0.355971 5.69288 0
M  V30 1194 O 109.954 2.29085 5.566 0
M  V30 1195 H 113.78 2.01723 2.27027 0
M  V30 1196 H 111.365 1.04051 1.07209 0
M  V30 1197 H 113.247 0.485417 4.18595 0
M  V30 1198 H 111.922 -0.231417 3.22872 0
M  V30 1199 H 110.829 2.08274 3.10762 0
M  V30 1200 H 112.162 2.72386 4.09959 0
M  V30 1201 N 113.814 -1.1601 1.06675 0
M  V30 1202 C 114.747 -2.1947 0.625168 0
M  V30 1203 C 115.725 -1.58699 -0.354041 0
M  V30 1204 O 116.909 -1.86669 -0.262098 0
M  V30 1205 C 114.036 -3.38598 -0.0829593 0
M  V30 1206 C 113.082 -4.1787 0.853611 0
M  V30 1207 S 113.915 -4.81135 2.35094 0
M  V30 1208 C 115.071 -6.03639 1.65441 0
M  V30 1209 H 115.304 -2.56587 1.50168 0
M  V30 1210 H 112.837 -1.26862 0.880078 0
M  V30 1211 H 114.795 -4.07621 -0.485288 0
M  V30 1212 H 113.456 -2.99839 -0.935716 0
M  V30 1213 H 112.649 -5.03078 0.304755 0
M  V30 1214 H 112.251 -3.54361 1.196 0
M  V30 1215 H 114.543 -6.70632 0.962201 0
M  V30 1216 H 115.486 -6.63081 2.48454 0
M  V30 1217 H 115.894 -5.52965 1.13534 0
M  V30 1218 N 115.292 -0.849877 -1.32721 0
M  V30 1219 C 116.239 -0.289033 -2.28983 0
M  V30 1220 C 117.209 0.601324 -1.54833 0
M  V30 1221 O 118.394 0.537253 -1.8308 0
M  V30 1222 C 115.534 0.520623 -3.4115 0
M  V30 1223 C 114.647 -0.394989 -4.3019 0
M  V30 1224 C 113.782 0.426834 -5.29482 0
M  V30 1225 C 112.821 -0.486476 -6.10164 0
M  V30 1226 N 111.958 0.297879 -7.01468 0
M  V30 1227 H 116.798 -1.11519 -2.76347 0
M  V30 1228 H 114.335 -0.56138 -1.35967 0
M  V30 1229 H 116.293 1.00563 -4.04899 0
M  V30 1230 H 114.923 1.31165 -2.9495 0
M  V30 1231 H 113.975 -0.99836 -3.67065 0
M  V30 1232 H 115.287 -1.09612 -4.86607 0
M  V30 1233 H 114.441 0.975205 -5.98811 0
M  V30 1234 H 113.18 1.16136 -4.73671 0
M  V30 1235 H 112.185 -1.04677 -5.39743 0
M  V30 1236 H 113.41 -1.21953 -6.6806 0
M  V30 1237 H 111.356 1.01558 -6.48091 0
M  V30 1238 H 111.273 -0.344318 -7.55216 0
M  V30 1239 H 112.541 0.828131 -7.75089 0
M  V30 1240 N 116.77 1.45427 -0.607355 0
M  V30 1241 C 117.733 2.28974 0.101693 0
M  V30 1242 C 118.733 1.39754 0.795329 0
M  V30 1243 O 119.923 1.61878 0.643527 0
M  V30 1244 C 117.055 3.20768 1.15414 0
M  V30 1245 H 118.248 2.93147 -0.632844 0
M  V30 1246 H 115.801 1.51945 -0.366391 0
M  V30 1247 H 116.536 2.61395 1.91945 0
M  V30 1248 H 116.321 3.86489 0.66098 0
M  V30 1249 H 117.811 3.83589 1.65073 0
M  V30 1250 N 118.248 0.346503 1.53744 0
M  V30 1251 C 119.181 -0.552023 2.21423 0
M  V30 1252 C 120.159 -1.09798 1.19929 0
M  V30 1253 O 121.343 -1.1577 1.4876 0
M  V30 1254 C 118.47 -1.75972 2.89398 0
M  V30 1255 C 117.516 -1.34295 4.04805 0
M  V30 1256 S 118.349 -0.360263 5.34287 0
M  V30 1257 C 119.505 -1.57473 6.05767 0
M  V30 1258 H 119.738 0.0228119 2.97291 0
M  V30 1259 H 117.271 0.130579 1.53847 0
M  V30 1260 H 119.229 -2.45256 3.2918 0
M  V30 1261 H 117.89 -2.30578 2.1329 0
M  V30 1262 H 117.083 -2.24349 4.51313 0
M  V30 1263 H 116.685 -0.729555 3.66815 0
M  V30 1264 H 118.977 -2.50875 6.29339 0
M  V30 1265 H 119.92 -1.15138 6.98676 0
M  V30 1266 H 120.328 -1.77212 5.35963 0
M  V30 1267 N 119.726 -1.57421 0.075193 0
M  V30 1268 C 120.656 -2.15942 -0.888324 0
M  V30 1269 C 121.637 -1.08737 -1.30806 0
M  V30 1270 O 122.822 -1.36787 -1.37851 0
M  V30 1271 C 119.952 -2.72379 -2.1547 0
M  V30 1272 C 118.906 -3.8478 -1.87425 0
M  V30 1273 C 118.232 -4.27834 -3.20721 0
M  V30 1274 C 119.532 -5.08869 -1.17684 0
M  V30 1275 H 121.226 -2.96705 -0.400799 0
M  V30 1276 H 118.772 -1.42723 -0.191342 0
M  V30 1277 H 120.725 -3.11965 -2.83295 0
M  V30 1278 H 119.449 -1.88841 -2.6647 0
M  V30 1279 H 118.108 -3.45703 -1.22004 0
M  V30 1280 H 117.756 -3.41214 -3.6957 0
M  V30 1281 H 117.456 -5.03605 -3.02746 0
M  V30 1282 H 118.98 -4.70039 -3.89738 0
M  V30 1283 H 120.394 -5.4575 -1.75584 0
M  V30 1284 H 118.791 -5.8994 -1.09956 0
M  V30 1285 H 119.861 -4.84648 -0.156453 0
M  V30 1286 N 121.204 0.198386 -1.56346 0
M  V30 1287 C 122.429 0.939682 -1.84891 0
M  V30 1288 C 122.854 1.76202 -0.658369 0
M  V30 1289 O 122.212 1.76993 0.392851 0
M  V30 1290 C 122.26 1.81428 -3.11635 0
M  V30 1291 O 121.364 2.91265 -2.91956 0
M  V30 1292 H 120.705 0.264807 -0.608912 0
M  V30 1293 H 123.235 0.204695 -2.03573 0
M  V30 1294 H 123.245 2.21958 -3.42343 0
M  V30 1295 H 121.92 1.21004 -3.97908 0
M  V30 1296 H 120.497 2.54514 -2.72538 0
M  V30 1297 N 122.682 1.50554 0.465978 0
M  V30 1298 C 123.912 1.65323 1.23903 0
M  V30 1299 C 124.32 0.338051 1.86155 0
M  V30 1300 O 123.663 -0.690518 1.70228 0
M  V30 1301 C 123.725 2.69048 2.3844 0
M  V30 1302 C 123.389 4.12462 1.96784 0
M  V30 1303 C 124.386 4.98168 1.48745 0
M  V30 1304 C 122.071 4.58407 2.05349 0
M  V30 1305 C 124.065 6.27868 1.0982 0
M  V30 1306 C 121.752 5.88112 1.66035 0
M  V30 1307 C 122.75 6.72668 1.18349 0
M  V30 1308 O 122.438 7.99951 0.795825 0
M  V30 1309 H 122.17 0.558629 0.38067 0
M  V30 1310 H 124.724 1.97561 0.562022 0
M  V30 1311 H 122.954 2.32062 3.09328 0
M  V30 1312 H 124.643 2.72985 3.0039 0
M  V30 1313 H 125.409 4.63885 1.41546 0
M  V30 1314 H 121.288 3.92735 2.41414 0
M  V30 1315 H 124.832 6.93819 0.725293 0
M  V30 1316 H 120.729 6.21914 1.72895 0
M  V30 1317 H 121.497 8.13265 0.924222 0
M  V30 1318 N 124.16 -0.719506 1.40217 0
M  V30 1319 C 125.39 -1.50646 1.41384 0
M  V30 1320 C 125.798 -1.89197 0.0107743 0
M  V30 1321 O 125.141 -1.55709 -0.974708 0
M  V30 1322 C 125.203 -2.81405 2.23722 0
M  V30 1323 C 124.867 -2.65199 3.72181 0
M  V30 1324 C 125.864 -2.32717 4.64907 0
M  V30 1325 C 123.549 -2.81586 4.1595 0
M  V30 1326 C 125.543 -2.16827 5.99387 0
M  V30 1327 C 123.23 -2.65313 5.50502 0
M  V30 1328 C 124.228 -2.32981 6.42035 0
M  V30 1329 O 123.916 -2.16827 7.74107 0
M  V30 1330 H 123.648 -0.471606 0.484318 0
M  V30 1331 H 126.202 -0.895456 1.84853 0
M  V30 1332 H 124.432 -3.44823 1.75026 0
M  V30 1333 H 126.121 -3.43102 2.16878 0
M  V30 1334 H 126.887 -2.19694 4.32388 0
M  V30 1335 H 122.766 -3.0574 3.45027 0
M  V30 1336 H 126.31 -1.91513 6.70797 0
M  V30 1337 H 122.207 -2.7792 5.82607 0
M  V30 1338 H 122.975 -2.31778 7.84998 0
M  V30 1339 N 125.638 -1.25649 -0.95132 0
M  V30 1340 C 126.868 -1.13179 -1.72841 0
M  V30 1341 C 127.276 0.316827 -1.86528 0
M  V30 1342 O 126.619 1.22948 -1.3649 0
M  V30 1343 C 126.681 -1.71644 -3.15878 0
M  V30 1344 C 126.345 -3.20667 -3.25609 0
M  V30 1345 C 127.342 -4.17616 -3.09666 0
M  V30 1346 C 125.027 -3.6094 -3.49324 0
M  V30 1347 C 127.021 -5.52817 -3.17289 0
M  V30 1348 C 124.708 -4.96278 -3.56584 0
M  V30 1349 C 125.706 -5.92025 -3.40581 0
M  V30 1350 O 125.394 -7.24899 -3.47528 0
M  V30 1351 H 125.126 -0.395389 -0.54831 0
M  V30 1352 H 127.68 -1.66566 -1.20187 0
M  V30 1353 H 125.91 -1.12707 -3.69911 0
M  V30 1354 H 127.599 -1.54225 -3.75459 0
M  V30 1355 H 128.365 -3.87842 -2.91211 0
M  V30 1356 H 124.244 -2.86907 -3.6084 0
M  V30 1357 H 127.788 -6.2753 -3.04716 0
M  V30 1358 H 123.685 -5.25716 -3.74556 0
M  V30 1359 H 124.453 -7.33039 -3.64138 0
M  V30 1360 N 127.117 1.15442 -1.07289 0
M  V30 1361 C 128.342 1.90638 -0.816828 0
M  V30 1362 C 128.767 1.77445 0.624083 0
M  V30 1363 O 128.125 1.10671 1.43602 0
M  V30 1364 C 128.173 3.39008 -1.22906 0
M  V30 1365 O 127.277 4.10701 -0.373975 0
M  V30 1366 H 126.618 0.593555 -0.297638 0
M  V30 1367 H 129.148 1.46198 -1.43134 0
M  V30 1368 H 129.158 3.89801 -1.20497 0
M  V30 1369 H 127.833 3.47929 -2.27856 0
M  V30 1370 H 126.41 3.70046 -0.460499 0
M  V30 1371 N 128.595 0.856903 1.32268 0
M  V30 1372 C 129.823 0.475439 2.01363 0
M  V30 1373 C 130.238 -0.928486 1.64392 0
M  V30 1374 O 129.595 -1.60624 0.866387 0
M  V30 1375 C 129.646 0.607545 3.56358 0
M  V30 1376 O 129.367 1.95617 3.92002 0
M  V30 1377 C 130.868 0.225382 4.42727 0
M  V30 1378 H 128.088 0.186636 0.644521 0
M  V30 1379 H 130.632 1.15446 1.68797 0
M  V30 1380 H 128.787 -0.0237719 3.87393 0
M  V30 1381 H 129.201 1.95455 4.86721 0
M  V30 1382 H 130.675 0.368813 5.50767 0
M  V30 1383 H 131.152 -0.834369 4.31202 0
M  V30 1384 H 131.758 0.831864 4.17085 0
M  V30 1385 N 130.073 -1.45103 0.615059 0
M  V30 1386 C 131.319 -2.02483 0.113347 0
M  V30 1387 C 131.652 -1.48146 -1.25564 0
M  V30 1388 O 130.927 -0.659104 -1.82992 0
M  V30 1389 C 131.21 -3.60005 0.0825278 0
M  V30 1390 C 131.063 -4.2466 1.48271 0
M  V30 1391 C 132.382 -4.35972 -0.601401 0
M  V30 1392 H 129.501 -0.735764 0.0426632 0
M  V30 1393 H 132.143 -1.72868 0.788461 0
M  V30 1394 H 130.293 -3.85367 -0.492378 0
M  V30 1395 H 131.965 -4.10458 2.10527 0
M  V30 1396 H 130.208 -3.82772 2.04127 0
M  V30 1397 H 130.879 -5.336 1.41332 0
M  V30 1398 H 133.355 -4.15947 -0.112666 0
M  V30 1399 H 132.231 -5.45697 -0.592097 0
M  V30 1400 H 132.492 -4.09391 -1.66887 0
M  V30 1401 N 131.551 -0.354651 -1.53558 0
M  V30 1402 C 132.484 0.540273 -2.21712 0
M  V30 1403 C 133.462 1.09161 -1.2051 0
M  V30 1404 O 134.646 1.14979 -1.49372 0
M  V30 1405 C 131.773 1.74435 -2.90328 0
M  V30 1406 C 130.819 1.32146 -4.05512 0
M  V30 1407 S 131.652 0.331924 -5.3447 0
M  V30 1408 C 132.808 1.54258 -6.06593 0
M  V30 1409 H 133.041 -0.0385776 -2.97275 0
M  V30 1410 H 130.574 -0.138736 -1.53775 0
M  V30 1411 H 132.532 2.43507 -3.30476 0
M  V30 1412 H 131.193 2.29444 -2.1451 0
M  V30 1413 H 130.386 2.21952 -4.52497 0
M  V30 1414 H 129.988 0.710091 -3.67197 0
M  V30 1415 H 132.28 2.47534 -6.30661 0
M  V30 1416 H 133.223 1.11431 -6.99277 0
M  V30 1417 H 133.631 1.74367 -5.36895 0
M  V30 1418 N 133.029 1.57378 -0.0835403 0
M  V30 1419 C 133.939 2.16897 0.894021 0
M  V30 1420 C 134.955 1.13528 1.31861 0
M  V30 1421 O 136.131 1.45848 1.3889 0
M  V30 1422 C 133.196 2.72831 2.13925 0
M  V30 1423 C 132.257 3.91115 1.76997 0
M  V30 1424 C 131.49 4.44371 2.95584 0
M  V30 1425 O 131.713 3.96596 4.09961 0
M  V30 1426 O 130.647 5.35549 2.74719 0
M  V30 1427 H 134.473 3.00814 0.417679 0
M  V30 1428 H 132.058 1.48741 0.140181 0
M  V30 1429 H 133.94 3.0863 2.86924 0
M  V30 1430 H 132.615 1.91967 2.60635 0
M  V30 1431 H 131.522 3.60148 1.01214 0
M  V30 1432 H 132.855 4.73307 1.3506 0
M  V30 1433 N 134.507 -0.190092 1.56449 0
M  V30 1434 C 135.439 -1.25973 1.91477 0
M  V30 1435 C 136.452 -1.41452 0.805931 0
M  V30 1436 O 137.641 -1.41789 1.08435 0
M  V30 1437 C 134.741 -2.63117 2.13594 0
M  V30 1438 C 133.914 -2.69182 3.4476 0
M  V30 1439 C 132.973 -3.87557 3.5593 0
M  V30 1440 O 131.999 -3.74427 4.28711 0
M  V30 1441 N 133.201 -5.03224 2.89388 0
M  V30 1442 H 135.966 -0.962394 2.83828 0
M  V30 1443 H 133.527 -0.379981 1.57378 0
M  V30 1444 H 135.519 -3.40742 2.1835 0
M  V30 1445 H 134.089 -2.85319 1.27719 0
M  V30 1446 H 133.309 -1.77793 3.51828 0
M  V30 1447 H 134.597 -2.70229 4.31107 0
M  V30 1448 H 133.995 -5.16791 2.30094 0
M  V30 1449 H 132.552 -5.78778 2.99764 0
M  V30 1450 N 135.985 -1.50799 -0.457987 0
M  V30 1451 C 136.917 -1.66786 -1.57211 0
M  V30 1452 C 137.93 -0.548962 -1.53265 0
M  V30 1453 O 139.119 -0.8226 -1.58416 0
M  V30 1454 C 136.219 -1.64834 -2.96113 0
M  V30 1455 C 135.392 -2.92971 -3.24787 0
M  V30 1456 C 134.451 -2.83485 -4.43309 0
M  V30 1457 O 133.477 -3.5744 -4.42973 0
M  V30 1458 N 134.679 -1.97929 -5.45714 0
M  V30 1459 H 137.444 -2.62889 -1.43909 0
M  V30 1460 H 135.005 -1.48427 -0.646617 0
M  V30 1461 H 136.997 -1.56084 -3.7339 0
M  V30 1462 H 135.567 -0.764118 -3.03117 0
M  V30 1463 H 134.787 -3.15749 -2.36 0
M  V30 1464 H 136.075 -3.77834 -3.40762 0
M  V30 1465 H 135.473 -1.37182 -5.48815 0
M  V30 1466 H 134.03 -1.95073 -6.21924 0
M  V30 1467 N 137.463 0.71206 -1.40597 0
M  V30 1468 C 138.709 1.47416 -1.39271 0
M  V30 1469 C 139.042 1.942 0.00388791 0
M  V30 1470 O 138.317 1.68403 0.973179 0
M  V30 1471 C 138.6 2.69774 -2.38525 0
M  V30 1472 C 138.453 2.28861 -3.87224 0
M  V30 1473 C 139.772 3.71939 -2.35264 0
M  V30 1474 H 136.891 0.534713 -0.5072 0
M  V30 1475 H 139.533 0.812375 -1.71757 0
M  V30 1476 H 137.683 3.26238 -2.10953 0
M  V30 1477 H 139.355 1.77852 -4.25636 0
M  V30 1478 H 137.598 1.60824 -4.02887 0
M  V30 1479 H 138.269 3.16584 -4.52193 0
M  V30 1480 H 140.745 3.25113 -2.59694 0
M  V30 1481 H 139.621 4.55186 -3.06753 0
M  V30 1482 H 139.882 4.20484 -1.36549 0
M  V30 1483 N 138.941 1.26152 0.944643 0
M  V30 1484 C 139.889 1.07215 2.06417 0
M  V30 1485 C 140.883 9.2007e-05 1.694 0
M  V30 1486 O 142.089 0.1565 1.79318 0
M  V30 1487 H 138.464 0.329837 0.675805 0
M  V30 1488 H 140.435 2.02099 2.19541 0
M  V30 1489 C 139.184 0.718197 3.40202 0
M  V30 1490 H 138.507 1.53497 3.69159 0
M  V30 1491 H 139.947 0.625459 4.19361 0
M  V30 1492 C 138.406 -0.576435 3.31932 0
M  V30 1493 O 138.936 -1.61574 3.67773 0
M  V30 1494 N 137.142 -0.565781 2.85039 0
M  V30 1495 H 136.689 0.280367 2.5607 0
M  V30 1496 H 136.647 -1.43213 2.79888 0
M  V30 1497 N 140.419 -1.14872 1.07899 0
M  V30 1498 C 141.667 -1.85422 0.803941 0
M  V30 1499 C 141.988 -1.83051 -0.67211 0
M  V30 1500 O 141.258 -1.27532 -1.48703 0
M  V30 1501 H 139.838 -0.686537 0.294408 0
M  V30 1502 H 142.5 -1.39226 1.3639 0
M  V30 1503 H 141.596 -2.90399 1.14346 0
M  V30 1504 N 141.898 -0.863906 -1.31812 0
M  V30 1505 C 142.83 -0.272485 -2.27575 0
M  V30 1506 C 143.843 0.56104 -1.52827 0
M  V30 1507 O 145.032 0.384021 -1.7432 0
M  V30 1508 C 142.132 0.63283 -3.32939 0
M  V30 1509 C 141.305 -0.166902 -4.37081 0
M  V30 1510 C 140.364 0.665608 -5.21973 0
M  V30 1511 O 139.39 0.0958091 -5.69119 0
M  V30 1512 N 140.592 1.9787 -5.45736 0
M  V30 1513 H 143.357 -1.0954 -2.78964 0
M  V30 1514 H 140.918 -0.724791 -1.4477 0
M  V30 1515 H 142.91 1.19532 -3.86645 0
M  V30 1516 H 141.48 1.35642 -2.81638 0
M  V30 1517 H 140.7 -0.910838 -3.83533 0
M  V30 1518 H 141.988 -0.715874 -5.03739 0
M  V30 1519 H 141.386 2.46484 -5.09178 0
M  V30 1520 H 139.943 2.48911 -6.024 0
M  V30 1521 N 143.376 1.44774 -0.622745 0
M  V30 1522 C 144.306 2.33382 0.0741861 0
M  V30 1523 C 145.287 1.47719 0.843387 0
M  V30 1524 O 146.472 1.76458 0.810934 0
M  V30 1525 C 143.602 3.30663 1.06204 0
M  V30 1526 C 142.556 4.26079 0.405037 0
M  V30 1527 C 141.882 5.13165 1.5022 0
M  V30 1528 C 143.182 5.1781 -0.683414 0
M  V30 1529 H 144.876 2.91905 -0.665713 0
M  V30 1530 H 142.422 1.40363 -0.321587 0
M  V30 1531 H 144.375 3.9153 1.55827 0
M  V30 1532 H 143.099 2.70331 1.83272 0
M  V30 1533 H 141.758 3.66532 -0.0704683 0
M  V30 1534 H 141.406 4.49191 2.26355 0
M  V30 1535 H 141.106 5.77812 1.06803 0
M  V30 1536 H 142.63 5.76902 2.00041 0
M  V30 1537 H 144.044 5.72661 -0.270631 0
M  V30 1538 H 142.441 5.91015 -1.04023 0
M  V30 1539 H 143.511 4.59326 -1.55395 0
M  V30 1540 N 144.854 0.36279 1.53368 0
M  V30 1541 C 146.103 -0.22888 2.00397 0
M  V30 1542 C 146.416 -1.50096 1.25421 0
M  V30 1543 O 147.622 -2.17106 1.63025 0
M  V30 1544 C 146.078 -0.458417 3.56969 0
M  V30 1545 C 145.686 0.798877 4.4082 0
M  V30 1546 C 147.43 -1.00789 4.12361 0
M  V30 1547 C 145.337 0.539078 5.88938 0
M  V30 1548 H 144.267 -0.089305 0.748693 0
M  V30 1549 H 146.918 0.481099 1.77081 0
M  V30 1550 H 145.3 -1.22959 3.76427 0
M  V30 1551 H 146.474 1.57262 4.33134 0
M  V30 1552 H 144.789 1.27137 3.96516 0
M  V30 1553 H 147.386 -1.21754 5.20653 0
M  V30 1554 H 147.729 -1.9692 3.66781 0
M  V30 1555 H 148.262 -0.296961 3.9669 0
M  V30 1556 H 145.001 1.47064 6.3879 0
M  V30 1557 H 144.521 -0.196222 5.99479 0
M  V30 1558 H 146.2 0.163542 6.46793 0
M  V30 1559 N 146.332 -1.57332 0.0918853 0
M  V30 1560 C 147.242 -2.17368 -0.882505 0
M  V30 1561 C 148.258 -1.14226 -1.31257 0
M  V30 1562 O 149.434 -1.46582 -1.38115 0
M  V30 1563 C 146.499 -2.73962 -2.12476 0
M  V30 1564 C 145.56 -3.92048 -1.7492 0
M  V30 1565 C 144.793 -4.45933 -2.93223 0
M  V30 1566 O 145.016 -3.98764 -4.07852 0
M  V30 1567 O 143.95 -5.36999 -2.71875 0
M  V30 1568 H 147.776 -3.01031 -0.40172 0
M  V30 1569 H 145.361 -1.48813 -0.132291 0
M  V30 1570 H 147.243 -3.10147 -2.85283 0
M  V30 1571 H 145.918 -1.93347 -2.59613 0
M  V30 1572 H 144.825 -3.6068 -0.993025 0
M  V30 1573 H 146.158 -4.74017 -1.32548 0
M  V30 1574 N 147.81 0.181792 -1.56548 0
M  V30 1575 C 149.221 0.745244 -1.71181 0
M  V30 1576 C 149.572 1.83262 -0.70068 0
M  V30 1577 O 148.697 2.15946 0.140154 0
M  V30 1578 C 149.292 1.35859 -3.10367 0
M  V30 1579 C 147.851 1.86898 -3.2672 0
M  V30 1580 C 146.998 0.743942 -2.67134 0
M  V30 1581 H 149.949 -0.0434661 -1.5864 0
M  V30 1582 H 149.97 2.22817 -3.08436 0
M  V30 1583 H 149.482 0.566948 -3.83937 0
M  V30 1584 H 147.583 2.68738 -2.5809 0
M  V30 1585 H 147.696 2.02162 -4.34359 0
M  V30 1586 H 146.06 1.16169 -2.26665 0
M  V30 1587 H 146.843 -0.035676 -3.43281 0
M  V30 1588 N 149.288 1.51039 0.449983 0
M  V30 1589 C 150.218 1.74379 1.55288 0
M  V30 1590 C 151.199 0.593236 1.5942 0
M  V30 1591 O 152.384 0.834625 1.7535 0
M  V30 1592 C 149.514 1.85728 2.93466 0
M  V30 1593 C 148.468 3.01078 3.04197 0
M  V30 1594 C 147.794 2.97595 4.44231 0
M  V30 1595 C 149.094 4.41254 2.7945 0
M  V30 1596 H 150.788 2.66725 1.36008 0
M  V30 1597 H 148.334 1.2835 0.652864 0
M  V30 1598 H 150.287 2.0064 3.70569 0
M  V30 1599 H 149.011 0.900207 3.13949 0
M  V30 1600 H 147.67 2.85851 2.29531 0
M  V30 1601 H 147.318 1.99691 4.61663 0
M  V30 1602 H 147.018 3.75046 4.52343 0
M  V30 1603 H 148.542 3.14583 5.23326 0
M  V30 1604 H 149.956 4.56897 3.46292 0
M  V30 1605 H 148.353 5.20315 2.98985 0
M  V30 1606 H 149.423 4.52164 1.75144 0
M  V30 1607 N 150.766 -0.704594 1.40972 0
M  V30 1608 C 151.698 -1.82974 1.38033 0
M  V30 1609 C 152.711 -1.60305 0.283931 0
M  V30 1610 O 153.9 -1.69975 0.545042 0
M  V30 1611 C 151 -3.19578 1.12795 0
M  V30 1612 C 150.173 -3.69352 2.34302 0
M  V30 1613 C 149.232 -4.84601 2.05058 0
M  V30 1614 O 148.258 -4.96682 2.7802 0
M  V30 1615 N 149.46 -5.71194 1.03528 0
M  V30 1616 H 152.225 -1.85991 2.35005 0
M  V30 1617 H 149.786 -0.886567 1.35468 0
M  V30 1618 H 151.778 -3.9429 0.911987 0
M  V30 1619 H 150.348 -3.11642 0.24452 0
M  V30 1620 H 149.568 -2.85649 2.71659 0
M  V30 1621 H 150.856 -3.99345 3.1528 0
M  V30 1622 H 150.254 -5.64054 0.431217 0
M  V30 1623 H 148.811 -6.45843 0.879205 0
M  V30 1624 N 152.244 -1.26651 -0.937939 0
M  V30 1625 C 153.493 -1.11775 -1.67897 0
M  V30 1626 C 153.806 0.33794 -1.92659 0
M  V30 1627 O 155.012 0.607434 -2.64618 0
M  V30 1628 C 153.468 -1.9523 -3.02346 0
M  V30 1629 C 153.076 -3.45393 -2.8532 0
M  V30 1630 C 154.82 -1.88972 -3.80118 0
M  V30 1631 C 152.727 -4.21083 -4.15263 0
M  V30 1632 H 151.657 -0.414696 -0.629717 0
M  V30 1633 H 154.308 -1.50988 -1.04283 0
M  V30 1634 H 152.69 -1.48853 -3.66959 0
M  V30 1635 H 153.864 -3.99561 -2.29537 0
M  V30 1636 H 152.179 -3.52921 -2.20988 0
M  V30 1637 H 154.776 -2.42805 -4.76392 0
M  V30 1638 H 155.119 -0.86113 -4.07296 0
M  V30 1639 H 155.652 -2.33189 -3.22285 0
M  V30 1640 H 152.391 -5.24425 -3.93267 0
M  V30 1641 H 151.911 -3.71695 -4.70747 0
M  V30 1642 H 153.59 -4.29706 -4.83696 0
M  V30 1643 N 153.722 1.14298 -1.08507 0
M  V30 1644 C 154.969 1.85359 -0.815373 0
M  V30 1645 C 155.297 1.83001 0.658865 0
M  V30 1646 O 154.552 1.25655 1.50031 0
M  V30 1647 C 154.851 3.33547 -1.28379 0
M  V30 1648 C 154.517 3.56093 -2.76602 0
M  V30 1649 C 153.179 3.61955 -3.17084 0
M  V30 1650 C 155.531 3.64834 -3.72217 0
M  V30 1651 C 152.859 3.74082 -4.51973 0
M  V30 1652 C 155.211 3.78487 -5.06883 0
M  V30 1653 C 153.875 3.82598 -5.46969 0
M  V30 1654 H 153.145 0.678276 -0.298366 0
M  V30 1655 H 155.792 1.35002 -1.35819 0
M  V30 1656 H 154.097 3.86191 -0.660593 0
M  V30 1657 H 155.794 3.86959 -1.05186 0
M  V30 1658 H 152.384 3.52179 -2.4427 0
M  V30 1659 H 156.568 3.59595 -3.42061 0
M  V30 1660 H 151.824 3.75527 -4.82483 0
M  V30 1661 H 155.998 3.84193 -5.80834 0
M  V30 1662 H 153.625 3.91747 -6.51489 0
M  V30 1663 N 155.201 0.870884 1.31352 0
M  V30 1664 C 156.612 0.534714 1.78879 0
M  V30 1665 C 156.963 -0.948423 1.71754 0
M  V30 1666 O 156.088 -1.74055 1.28584 0
M  V30 1667 C 156.683 0.963839 3.24801 0
M  V30 1668 C 155.242 0.679311 3.70219 0
M  V30 1669 C 154.389 1.15465 2.52117 0
M  V30 1670 H 157.34 1.05651 1.18421 0
M  V30 1671 H 157.361 0.286892 3.79417 0
M  V30 1672 H 156.873 2.04332 3.29955 0
M  V30 1673 H 154.974 -0.388769 3.70566 0
M  V30 1674 H 155.087 1.25698 4.62317 0
M  V30 1675 H 153.451 0.574383 2.48139 0
M  V30 1676 H 154.234 2.24157 2.60016 0
M  V30 1677 N 156.679 -1.44442 0.630414 0
M  V30 1678 C 158.095 -1.56832 0.295973 0
M  V30 1679 C 158.295 -1.61806 -1.20088 0
M  V30 1680 O 157.351 -1.5607 -1.9849 0
M  V30 1681 C 158.664 -2.84031 0.987264 0
M  V30 1682 C 160.212 -2.97742 0.96534 0
M  V30 1683 C 160.687 -4.27743 1.63708 0
M  V30 1684 N 162.178 -4.34555 1.60364 0
M  V30 1685 C 162.913 -5.33862 2.09234 0
M  V30 1686 N 162.409 -6.39578 2.66292 0
M  V30 1687 N 164.202 -5.25366 1.99867 0
M  V30 1688 H 156.353 -1.39457 1.60205 0
M  V30 1689 H 158.616 -0.668237 0.672431 0
M  V30 1690 H 158.322 -2.86338 2.04215 0
M  V30 1691 H 158.196 -3.73534 0.524588 0
M  V30 1692 H 160.583 -2.94989 -0.0810639 0
M  V30 1693 H 160.664 -2.09589 1.4665 0
M  V30 1694 H 160.308 -4.31255 2.68293 0
M  V30 1695 H 160.238 -5.14752 1.11076 0
M  V30 1696 H 162.729 -3.58772 1.18705 0
M  V30 1697 H 163.042 -7.11637 3.01317 0
M  V30 1698 H 161.387 -6.40265 2.70343 0
M  V30 1699 H 164.578 -4.41688 1.55013 0
M  V30 1700 H 164.751 -6.02606 2.38265 0
M  V30 1701 N 158.157 -0.370918 -1.53173 0
M  V30 1702 C 159.12 0.460778 -2.24521 0
M  V30 1703 C 160.12 1.00536 -1.25496 0
M  V30 1704 O 161.31 0.890266 -1.49733 0
M  V30 1705 C 158.442 1.64457 -2.98608 0
M  V30 1706 H 159.635 -0.163613 -2.99453 0
M  V30 1707 H 157.188 -0.122699 -1.55818 0
M  V30 1708 H 157.923 2.30691 -2.2793 0
M  V30 1709 H 157.708 1.26099 -3.7127 0
M  V30 1710 H 159.198 2.23384 -3.5283 0
M  V30 1711 N 159.635 1.57281 -0.100228 0
M  V30 1712 C 160.875 1.96419 0.56558 0
M  V30 1713 C 161.239 0.981265 1.65031 0
M  V30 1714 O 162.44 1.26133 2.37369 0
M  V30 1715 C 160.711 3.39996 1.10171 0
M  V30 1716 S 162.27 4.01134 1.77867 0
M  V30 1717 H 159.088 0.68667 0.184406 0
M  V30 1718 H 161.69 1.94662 -0.180851 0
M  V30 1719 H 160.394 4.09296 0.300803 0
M  V30 1720 H 159.925 3.45361 1.88385 0
M  V30 1721 H 161.94 3.90358 3.06326 0
M  V30 1722 N 161.113 -0.173488 1.56642 0
M  V30 1723 C 162.06 -1.21482 1.96242 0
M  V30 1724 C 163.03 -1.44104 0.826027 0
M  V30 1725 O 164.215 -1.5688 1.08597 0
M  V30 1726 C 161.355 -2.54964 2.32567 0
M  V30 1727 C 160.468 -2.39739 3.59373 0
M  V30 1728 C 159.603 -3.66072 3.84921 0
M  V30 1729 C 158.642 -3.45771 5.05083 0
M  V30 1730 N 157.779 -4.64169 5.26775 0
M  V30 1731 H 162.619 -0.870123 2.85014 0
M  V30 1732 H 160.156 -0.418245 1.41029 0
M  V30 1733 H 162.114 -3.32758 2.5165 0
M  V30 1734 H 160.744 -2.87433 1.46908 0
M  V30 1735 H 159.796 -1.53131 3.48217 0
M  V30 1736 H 161.108 -2.20683 4.47326 0
M  V30 1737 H 160.262 -4.52303 4.0436 0
M  V30 1738 H 159.001 -3.88105 2.9534 0
M  V30 1739 H 158.006 -2.57927 4.85545 0
M  V30 1740 H 159.231 -3.25163 5.96193 0
M  V30 1741 H 157.177 -4.86425 4.40144 0
M  V30 1742 H 157.094 -4.48019 6.08946 0
M  V30 1743 H 158.362 -5.51689 5.5069 0
M  V30 1744 N 162.591 -1.51276 -0.441967 0
M  V30 1745 C 164.002 -1.56244 -1.02199 0
M  V30 1746 C 164.353 -0.383149 -1.92422 0
M  V30 1747 O 163.478 0.500613 -2.1053 0
M  V30 1748 C 164.073 -2.83162 -1.86024 0
M  V30 1749 C 162.632 -2.90716 -2.39084 0
M  V30 1750 C 161.779 -2.50858 -1.18175 0
M  V30 1751 H 164.73 -1.5712 -0.223416 0
M  V30 1752 H 164.751 -2.66663 -2.71425 0
M  V30 1753 H 164.263 -3.68974 -1.20331 0
M  V30 1754 H 162.364 -2.09323 -3.08244 0
M  V30 1755 H 162.477 -3.94266 -2.72198 0
M  V30 1756 H 160.841 -2.03951 -1.52565 0
M  V30 1757 H 161.624 -3.3901 -0.541001 0
M  V30 1758 N 164.069 0.697108 -1.41344 0
M  V30 1759 C 165.48 1.27697 -1.36199 0
M  V30 1760 C 165.831 1.9615 -0.0443463 0
M  V30 1761 O 164.956 1.98689 0.857419 0
M  V30 1762 C 165.551 2.32223 -2.46694 0
M  V30 1763 C 164.11 2.8579 -2.44952 0
M  V30 1764 C 163.257 1.59807 -2.26621 0
M  V30 1765 H 166.208 0.491968 -1.50882 0
M  V30 1766 H 166.229 3.1348 -2.15664 0
M  V30 1767 H 165.741 1.82373 -3.42581 0
M  V30 1768 H 163.842 3.3982 -1.52817 0
M  V30 1769 H 163.955 3.36325 -3.41207 0
M  V30 1770 H 162.319 1.8556 -1.7447 0
M  V30 1771 H 163.102 1.11956 -3.24532 0
M  V30 1772 N 165.547 1.27147 0.931209 0
M  V30 1773 C 166.795 1.13055 1.6752 0
M  V30 1774 C 167.116 -0.324791 1.92276 0
M  V30 1775 O 166.386 -1.22775 1.52654 0
M  V30 1776 H 164.966 0.415391 0.620854 0
M  V30 1777 H 167.628 1.59623 1.11833 0
M  V30 1778 H 166.724 1.65694 2.64485 0
M  V30 1779 N 167.025 -1.13721 1.09112 0
M  V30 1780 C 167.935 -2.22638 0.73957 0
M  V30 1781 C 168.951 -1.72091 -0.257068 0
M  V30 1782 O 170.127 -2.01155 -0.0992154 0
M  V30 1783 C 167.192 -3.46322 0.16191 0
M  V30 1784 C 166.253 -4.11775 1.21408 0
M  V30 1785 C 165.486 -5.29555 0.663891 0
M  V30 1786 O 165.709 -5.68077 -0.514274 0
M  V30 1787 O 164.643 -5.84973 1.41738 0
M  V30 1788 H 168.469 -2.55074 1.64836 0
M  V30 1789 H 166.054 -1.21791 0.865289 0
M  V30 1790 H 167.936 -4.21107 -0.157073 0
M  V30 1791 H 166.611 -3.15593 -0.719932 0
M  V30 1792 H 165.518 -3.3883 1.58571 0
M  V30 1793 H 166.851 -4.46627 2.06845 0
M  V30 1794 N 168.503 -0.877838 -1.30888 0
M  V30 1795 C 169.919 -0.570844 -1.49042 0
M  V30 1796 C 170.119 0.893159 -1.80624 0
M  V30 1797 O 169.175 1.67485 -1.88958 0
M  V30 1798 C 170.488 -1.47784 -2.61878 0
M  V30 1799 C 172.036 -1.48071 -2.75761 0
M  V30 1800 C 172.511 -2.37347 -3.91702 0
M  V30 1801 N 174.002 -2.35271 -3.99001 0
M  V30 1802 C 174.737 -3.01063 -4.88004 0
M  V30 1803 N 174.233 -3.76055 -5.81854 0
M  V30 1804 N 176.026 -2.90332 -4.81315 0
M  V30 1805 H 168.177 -1.82502 -1.0866 0
M  V30 1806 H 170.44 -0.780797 -0.537644 0
M  V30 1807 H 170.146 -2.51993 -2.45341 0
M  V30 1808 H 170.02 -1.18215 -3.58197 0
M  V30 1809 H 172.407 -0.446166 -2.91708 0
M  V30 1810 H 172.488 -1.81668 -1.80085 0
M  V30 1811 H 172.132 -3.40883 -3.76512 0
M  V30 1812 H 172.062 -2.01071 -4.86701 0
M  V30 1813 H 174.553 -1.80768 -3.3186 0
M  V30 1814 H 174.866 -4.23366 -6.46514 0
M  V30 1815 H 173.211 -3.80163 -5.81808 0
M  V30 1816 H 176.402 -2.31278 -4.06974 0
M  V30 1817 H 176.575 -3.41885 -5.50471 0
M  V30 1818 N 169.982 1.44106 -0.638065 0
M  V30 1819 C 170.93 2.3248 0.0748149 0
M  V30 1820 C 171.924 1.47746 0.828702 0
M  V30 1821 O 173.13 1.64049 0.740816 0
M  V30 1822 H 169.505 0.750771 0.0429686 0
M  V30 1823 H 171.476 2.90348 -0.688504 0
M  V30 1824 C 170.225 3.31843 1.03805 0
M  V30 1825 H 169.548 3.97059 0.467375 0
M  V30 1826 H 170.988 3.96345 1.50622 0
M  V30 1827 C 169.447 2.61291 2.1267 0
M  V30 1828 O 169.977 2.41702 3.20847 0
M  V30 1829 N 168.183 2.20915 1.88798 0
M  V30 1830 H 167.73 2.37047 1.00829 0
M  V30 1831 H 167.688 1.74038 2.61836 0
M  V30 1832 N 171.46 0.379036 1.52974 0
M  V30 1833 C 172.709 -0.207612 2.00629 0
M  V30 1834 C 173.022 -1.48758 1.27006 0
M  V30 1835 O 174.228 -2.15365 1.65318 0
M  V30 1836 C 172.684 -0.42053 3.57435 0
M  V30 1837 C 172.292 0.845587 4.39948 0
M  V30 1838 C 174.036 -0.964102 4.13407 0
M  V30 1839 C 171.943 0.601513 5.88333 0
M  V30 1840 H 170.873 -0.0813591 0.749598 0
M  V30 1841 H 173.524 0.499853 1.76561 0
M  V30 1842 H 171.906 -1.18959 3.7771 0
M  V30 1843 H 173.08 1.61848 4.31442 0
M  V30 1844 H 171.395 1.31336 3.95145 0
M  V30 1845 H 173.992 -1.16225 5.21916 0
M  V30 1846 H 174.335 -1.93019 3.68849 0
M  V30 1847 H 174.868 -0.25487 3.96983 0
M  V30 1848 H 171.607 1.53831 6.37194 0
M  V30 1849 H 171.127 -0.132628 5.99653 0
M  V30 1850 H 172.806 0.232134 6.46583 0
M  V30 1851 N 172.938 -1.57226 0.108567 0
M  V30 1852 C 173.888 -2.11305 -0.856396 0
M  V30 1853 C 174.872 -1.03129 -1.23504 0
M  V30 1854 O 176.064 -1.29381 -1.20787 0
M  V30 1855 C 173.193 -2.70771 -2.11041 0
M  V30 1856 C 172.279 -3.86011 -1.7566 0
M  V30 1857 N 172.67 -4.93492 -1.10902 0
M  V30 1858 C 170.968 -3.95999 -2.05185 0
M  V30 1859 C 171.669 -5.73984 -0.944308 0
M  V30 1860 N 170.645 -5.2346 -1.46596 0
M  V30 1861 H 174.447 -2.91784 -0.352002 0
M  V30 1862 H 171.961 -1.62126 -0.0942324 0
M  V30 1863 H 173.958 -3.07851 -2.81128 0
M  V30 1864 H 172.618 -1.91751 -2.62034 0
M  V30 1865 H 173.629 -5.1208 -0.774235 0
M  V30 1866 H 170.306 -3.28007 -2.58298 0
M  V30 1867 H 171.696 -6.70479 -0.436813 0
M  V30 1868 N 174.416 0.165178 -1.56732 0
M  V30 1869 C 175.664 0.879068 -1.8198 0
M  V30 1870 C 175.985 1.82514 -0.686561 0
M  V30 1871 O 175.255 1.93694 0.293146 0
M  V30 1872 H 173.835 0.327608 -0.671329 0
M  V30 1873 H 176.497 0.163526 -1.94213 0
M  V30 1874 H 175.593 1.45228 -2.76252 0
M  V30 1875 N 175.894 1.51508 0.433938 0
M  V30 1876 C 176.824 1.76016 1.53429 0
M  V30 1877 C 177.805 0.610112 1.58782 0
M  V30 1878 O 178.99 0.853177 1.74455 0
M  V30 1879 C 176.12 1.88831 2.9148 0
M  V30 1880 C 175.074 3.04288 3.00987 0
M  V30 1881 C 174.4 3.0229 4.4105 0
M  V30 1882 C 175.7 4.44193 2.74754 0
M  V30 1883 H 177.394 2.68152 1.33171 0
M  V30 1884 H 174.94 1.29035 0.639214 0
M  V30 1885 H 176.893 2.04559 3.6842 0
M  V30 1886 H 175.617 0.933455 3.12976 0
M  V30 1887 H 174.276 2.8827 2.26486 0
M  V30 1888 H 173.924 2.04576 4.59519 0
M  V30 1889 H 173.624 3.79822 4.4834 0
M  V30 1890 H 175.148 3.20116 5.1996 0
M  V30 1891 H 176.562 4.60544 3.41426 0
M  V30 1892 H 174.959 5.23457 2.9345 0
M  V30 1893 H 176.029 4.53996 1.70339 0
M  V30 1894 N 177.372 -0.689602 1.41712 0
M  V30 1895 C 178.319 -1.80345 1.44029 0
M  V30 1896 C 179.289 -1.63478 0.293948 0
M  V30 1897 O 180.474 -1.84244 0.495869 0
M  V30 1898 C 177.614 -3.18272 1.33405 0
M  V30 1899 C 176.727 -3.46529 2.57956 0
M  V30 1900 C 175.862 -4.74103 2.39582 0
M  V30 1901 C 174.901 -4.95347 3.5958 0
M  V30 1902 N 174.038 -6.14151 3.40239 0
M  V30 1903 H 178.878 -1.77698 2.39222 0
M  V30 1904 H 176.415 -0.867688 1.18784 0
M  V30 1905 H 178.373 -3.97956 1.25246 0
M  V30 1906 H 177.003 -3.2008 0.418164 0
M  V30 1907 H 176.055 -2.61207 2.76542 0
M  V30 1908 H 177.367 -3.58126 3.47199 0
M  V30 1909 H 176.521 -5.61853 2.28924 0
M  V30 1910 H 175.26 -4.64763 1.47805 0
M  V30 1911 H 174.265 -4.06044 3.70686 0
M  V30 1912 H 175.49 -5.06542 4.52318 0
M  V30 1913 H 173.436 -6.06013 2.51167 0
M  V30 1914 H 173.353 -6.26543 4.23061 0
M  V30 1915 H 174.621 -7.04619 3.33365 0
M  V30 1916 N 178.85 -1.27639 -0.924453 0
M  V30 1917 C 180.096 -1.14336 -1.67497 0
M  V30 1918 C 180.429 0.309465 -1.91718 0
M  V30 1919 O 179.704 1.22608 -1.50989 0
M  V30 1920 C 179.987 -1.93096 -3.0395 0
M  V30 1921 C 179.84 -3.46381 -2.8695 0
M  V30 1922 C 181.159 -1.73798 -4.0433 0
M  V30 1923 H 178.278 -0.416728 -0.607871 0
M  V30 1924 H 180.92 -1.56832 -1.07256 0
M  V30 1925 H 179.07 -1.56982 -3.55372 0
M  V30 1926 H 180.742 -3.92343 -2.42621 0
M  V30 1927 H 178.985 -3.72557 -2.22225 0
M  V30 1928 H 179.656 -3.96735 -3.83804 0
M  V30 1929 H 182.132 -2.05293 -3.61931 0
M  V30 1930 H 181.008 -2.31294 -4.97789 0
M  V30 1931 H 181.269 -0.686725 -4.36734 0
M  V30 1932 N 180.328 1.1314 -1.09713 0
M  V30 1933 C 181.276 2.20717 -0.733934 0
M  V30 1934 C 182.27 1.6729 0.266506 0
M  V30 1935 O 183.476 1.79547 0.127656 0
M  V30 1936 H 179.851 0.719292 -0.21937 0
M  V30 1937 H 181.822 2.48611 -1.6503 0
M  V30 1938 C 180.571 3.47265 -0.173849 0
M  V30 1939 H 179.894 3.88716 -0.934873 0
M  V30 1940 H 181.334 4.23979 0.0423126 0
M  V30 1941 C 179.793 3.18724 1.09164 0
M  V30 1942 O 180.323 3.37762 2.17439 0
M  V30 1943 N 178.529 2.72583 1.00732 0
M  V30 1944 H 178.076 2.57291 0.126121 0
M  V30 1945 H 178.034 2.53862 1.85476 0
M  V30 1946 N 181.806 0.884767 1.30421 0
M  V30 1947 C 183.034 0.518044 2.0031 0
M  V30 1948 C 183.449 -0.893408 1.66324 0
M  V30 1949 O 182.806 -1.5875 0.900262 0
M  V30 1950 C 182.857 0.682997 3.54989 0
M  V30 1951 O 182.578 2.03888 3.87764 0
M  V30 1952 C 184.079 0.31924 4.42149 0
M  V30 1953 H 181.299 0.200265 0.640418 0
M  V30 1954 H 183.843 1.19001 1.6631 0
M  V30 1955 H 181.998 0.0584052 3.87356 0
M  V30 1956 H 182.412 2.05735 4.82466 0
M  V30 1957 H 183.886 0.485555 5.4986 0
M  V30 1958 H 184.363 -0.742717 4.32875 0
M  V30 1959 H 184.969 0.920147 4.15227 0
M  V30 1960 N 183.284 -1.43765 0.645699 0
M  V30 1961 C 184.7 -1.56509 0.312591 0
M  V30 1962 C 184.9 -1.6307 -1.18365 0
M  V30 1963 O 183.956 -1.58167 -1.96824 0
M  V30 1964 C 185.269 -2.82968 1.01733 0
M  V30 1965 C 186.817 -2.96701 0.996865 0
M  V30 1966 C 187.292 -4.25982 1.68236 0
M  V30 1967 N 188.783 -4.32829 1.64964 0
M  V30 1968 C 189.518 -5.31613 2.14885 0
M  V30 1969 N 189.014 -6.36718 2.73061 0
M  V30 1970 N 190.807 -5.23217 2.05428 0
M  V30 1971 H 182.958 -1.3775 1.61675 0
M  V30 1972 H 185.221 -0.661067 0.679481 0
M  V30 1973 H 184.927 -2.84156 2.0724 0
M  V30 1974 H 184.801 -3.72957 0.564177 0
M  V30 1975 H 187.188 -2.95058 -0.0497719 0
M  V30 1976 H 187.269 -2.08022 1.48865 0
M  V30 1977 H 186.913 -4.28386 2.72852 0
M  V30 1978 H 186.843 -5.13545 1.16529 0
M  V30 1979 H 189.334 -3.57493 1.22503 0
M  V30 1980 H 189.647 -7.08401 3.08848 0
M  V30 1981 H 187.992 -6.37362 2.77118 0
M  V30 1982 H 191.183 -4.40019 1.59689 0
M  V30 1983 H 191.356 -6.00045 2.44643 0
M  V30 1984 N 184.763 -0.387143 -1.52771 0
M  V30 1985 C 185.726 0.436939 -2.24997 0
M  V30 1986 C 186.726 0.991991 -1.26555 0
M  V30 1987 O 187.916 0.874335 -1.50669 0
M  V30 1988 C 185.048 1.61281 -3.00335 0
M  V30 1989 H 186.241 -0.195365 -2.99263 0
M  V30 1990 H 183.794 -0.139218 -1.55679 0
M  V30 1991 H 184.529 2.2826 -2.30364 0
M  V30 1992 H 184.314 1.22154 -3.72587 0
M  V30 1993 H 185.804 2.19629 -3.5518 0
M  V30 1994 N 186.241 1.57166 -0.116904 0
M  V30 1995 C 187.489 1.94737 0.540533 0
M  V30 1996 C 187.81 1.00096 1.67349 0
M  V30 1997 O 187.08 0.0568854 1.95817 0
M  V30 1998 H 185.66 0.718981 0.202669 0
M  V30 1999 H 188.322 1.94017 -0.185353 0
M  V30 2000 H 187.418 2.97719 0.936483 0
M  V30 2001 N 187.719 -0.156864 1.56817 0
M  V30 2002 C 189.13 -0.717916 1.72345 0
M  V30 2003 C 189.481 -1.82124 0.729747 0
M  V30 2004 O 188.606 -2.16141 -0.105781 0
M  V30 2005 C 189.201 -1.30904 3.12489 0
M  V30 2006 C 187.76 -1.81676 3.29653 0
M  V30 2007 C 186.907 -0.701349 2.68284 0
M  V30 2008 H 189.858 0.0686989 1.58551 0
M  V30 2009 H 189.879 -2.17882 3.11942 0
M  V30 2010 H 189.391 -0.505796 3.8479 0
M  V30 2011 H 187.492 -2.64598 2.62333 0
M  V30 2012 H 187.605 -1.95226 4.3752 0
M  V30 2013 H 185.969 -1.12548 2.28484 0
M  V30 2014 H 186.752 0.0902846 3.43181 0
M  V30 2015 N 189.197 -1.51736 -0.425897 0
M  V30 2016 C 190.422 -1.69082 -1.20108 0
M  V30 2017 C 190.847 -0.392398 -1.83962 0
M  V30 2018 O 190.205 0.64858 -1.69302 0
M  V30 2019 C 190.253 -2.81604 -2.25237 0
M  V30 2020 O 189.357 -2.46004 -3.30992 0
M  V30 2021 H 188.698 -0.563408 -0.35138 0
M  V30 2022 H 191.228 -1.98358 -0.501512 0
M  V30 2023 H 191.238 -3.06025 -2.69838 0
M  V30 2024 H 189.913 -3.75817 -1.78142 0
M  V30 2025 H 188.49 -2.32195 -2.91787 0
M  V30 2026 N 190.675 0.682077 -1.42076 0
M  V30 2027 C 191.607 1.80755 -1.40926 0
M  V30 2028 C 192.62 1.59833 -0.309398 0
M  V30 2029 O 193.809 1.69087 -0.572014 0
M  V30 2030 C 190.909 3.17744 -1.17865 0
M  V30 2031 C 190.082 3.65578 -2.40149 0
M  V30 2032 C 189.141 4.81277 -2.12742 0
M  V30 2033 O 188.167 4.92197 -2.85887 0
M  V30 2034 N 189.369 5.69474 -1.12602 0
M  V30 2035 H 192.134 1.82229 -2.37935 0
M  V30 2036 H 189.695 0.864903 -1.36861 0
M  V30 2037 H 191.687 3.9279 -0.9746 0
M  V30 2038 H 190.257 3.11214 -0.294068 0
M  V30 2039 H 189.477 2.81291 -2.76169 0
M  V30 2040 H 190.765 3.94278 -3.21593 0
M  V30 2041 H 190.163 5.63297 -0.520899 0
M  V30 2042 H 188.72 6.44363 -0.981842 0
M  V30 2043 N 192.153 1.28127 0.917671 0
M  V30 2044 C 193.103 1.08361 2.00604 0
M  V30 2045 C 194.087 0.00847518 1.60898 0
M  V30 2046 O 195.279 0.228167 1.75523 0
M  V30 2047 C 192.408 0.743376 3.35155 0
M  V30 2048 C 191.494 1.85716 3.81275 0
M  V30 2049 N 191.885 3.09822 3.99805 0
M  V30 2050 C 190.183 1.74612 4.10398 0
M  V30 2051 C 190.884 3.82368 4.38372 0
M  V30 2052 N 189.86 3.10192 4.4641 0
M  V30 2053 H 193.662 2.02531 2.12975 0
M  V30 2054 H 191.176 1.18989 1.10523 0
M  V30 2055 H 193.173 0.582859 4.12805 0
M  V30 2056 H 191.833 -0.190595 3.2414 0
M  V30 2057 H 192.844 3.45475 3.85833 0
M  V30 2058 H 189.521 0.883657 4.08041 0
M  V30 2059 H 190.911 4.89082 4.60704 0
M  V30 2060 N 193.631 -1.12557 1.10312 0
M  V30 2061 C 194.856 -1.88405 0.867085 0
M  V30 2062 C 195.281 -1.79038 -0.576817 0
M  V30 2063 O 194.639 -1.14439 -1.40618 0
M  V30 2064 C 194.687 -3.3563 1.31851 0
M  V30 2065 O 193.791 -4.09565 0.482734 0
M  V30 2066 H 193.132 -0.585455 0.313271 0
M  V30 2067 H 195.662 -1.42352 1.4696 0
M  V30 2068 H 195.672 -3.86469 1.3079 0
M  V30 2069 H 194.347 -3.41765 2.37001 0
M  V30 2070 H 192.924 -3.68695 0.558448 0
M  V30 2071 N 195.109 -0.891671 -1.2995 0
M  V30 2072 C 196.334 -0.527932 -2.00568 0
M  V30 2073 C 196.759 0.877969 -1.66353 0
M  V30 2074 O 196.117 1.58301 -0.883762 0
M  V30 2075 C 196.165 -0.717745 -3.53385 0
M  V30 2076 O 195.269 0.233376 -4.11739 0
M  V30 2077 H 194.61 -0.20722 -0.630837 0
M  V30 2078 H 197.14 -1.20105 -1.65638 0
M  V30 2079 H 197.15 -0.619307 -4.03272 0
M  V30 2080 H 195.825 -1.74276 -3.77625 0
M  V30 2081 H 194.402 0.0880706 -3.72796 0
M  V30 2082 N 196.587 1.43421 -0.653314 0
M  V30 2083 C 197.998 1.85065 -0.246537 0
M  V30 2084 C 198.349 1.54688 1.2069 0
M  V30 2085 O 197.474 0.995896 1.92122 0
M  V30 2086 C 198.069 3.35922 -0.440666 0
M  V30 2087 C 196.628 3.76297 -0.0882064 0
M  V30 2088 C 195.775 2.67147 -0.743484 0
M  V30 2089 H 198.726 1.33572 -0.856979 0
M  V30 2090 H 198.747 3.79204 0.313798 0
M  V30 2091 H 198.259 3.58 -1.49858 0
M  V30 2092 H 196.36 3.5983 0.96711 0
M  V30 2093 H 196.473 4.76338 -0.513738 0
M  V30 2094 H 194.837 2.54086 -0.176712 0
M  V30 2095 H 195.62 2.92053 -1.80443 0
M  V30 2096 N 198.065 0.39524 1.52563 0
M  V30 2097 C 199.028 -0.425001 2.25225 0
M  V30 2098 C 200.028 -0.985266 1.27079 0
M  V30 2099 O 201.218 -0.866332 1.5113 0
M  V30 2100 C 198.35 -1.59686 3.01186 0
M  V30 2101 H 199.543 0.211233 2.99155 0
M  V30 2102 H 197.096 0.147472 1.55603 0
M  V30 2103 H 197.831 -2.27035 2.31572 0
M  V30 2104 H 197.616 -1.20176 3.73229 0
M  V30 2105 H 199.106 -2.17743 3.5634 0
M  V30 2106 N 199.544 -1.57102 0.125237 0
M  V30 2107 C 200.79 -1.95697 -0.532035 0
M  V30 2108 C 201.123 -1.009 -1.6593 0
M  V30 2109 O 200.398 -0.047347 -1.94442 0
M  V30 2110 C 200.681 -3.44181 -1.05884 0
M  V30 2111 C 200.534 -4.49752 0.0654392 0
M  V30 2112 C 201.853 -3.94655 -1.9477 0
M  V30 2113 H 198.972 -0.711571 -0.191925 0
M  V30 2114 H 201.614 -1.88923 0.20206 0
M  V30 2115 H 199.764 -3.50085 -1.68442 0
M  V30 2116 H 201.436 -4.55943 0.700982 0
M  V30 2117 H 199.679 -4.27653 0.727709 0
M  V30 2118 H 200.35 -5.50924 -0.344505 0
M  V30 2119 H 202.826 -3.91094 -1.42074 0
M  V30 2120 H 201.702 -4.99057 -2.28546 0
M  V30 2121 H 201.963 -3.35718 -2.87656 0
M  V30 2122 N 201.022 0.148545 -1.56898 0
M  V30 2123 C 202.247 0.880385 -1.87787 0
M  V30 2124 C 202.672 1.74018 -0.714093 0
M  V30 2125 O 202.03 1.78153 0.336343 0
M  V30 2126 C 202.078 1.71422 -3.17249 0
M  V30 2127 O 201.182 2.8183 -3.01074 0
M  V30 2128 H 200.523 0.245301 -0.617028 0
M  V30 2129 H 203.053 0.139826 -2.04122 0
M  V30 2130 H 203.063 2.10954 -3.49231 0
M  V30 2131 H 201.738 1.08284 -4.01556 0
M  V30 2132 H 200.315 2.45715 -2.80497 0
M  V30 2133 N 202.5 1.5196 0.417844 0
M  V30 2134 C 203.777 1.56146 1.17803 0
M  V30 2135 C 204.157 0.337275 2.08388 0
M  V30 2136 O 203.505 -0.676447 2.18258 0
M  V30 2137 C 203.715 2.88566 1.96293 0
M  V30 2138 C 205.063 3.41244 2.52662 0
M  V30 2139 O 206.087 2.90247 2.06483 0
M  V30 2140 O 204.946 4.30273 3.36938 0
M  V30 2141 H 202.04 0.628598 0.537395 0
M  V30 2142 H 204.586 1.64283 0.425331 0
M  V30 2143 H 203.358 3.69116 1.2988 0
M  V30 2144 H 202.981 2.83681 2.78587 0
M  V30 2145 N 203.978 -0.674533 1.42435 0
M  V30 2146 C 205.203 -1.46784 1.46524 0
M  V30 2147 C 205.628 -1.87938 0.078066 0
M  V30 2148 O 204.986 -1.56014 -0.92354 0
M  V30 2149 C 205.034 -2.69307 2.39805 0
M  V30 2150 O 204.138 -3.67587 1.86959 0
M  V30 2151 H 203.479 -0.440959 0.496439 0
M  V30 2152 H 206.009 -0.827326 1.87127 0
M  V30 2153 H 206.019 -3.17374 2.56393 0
M  V30 2154 H 204.694 -2.38692 3.40586 0
M  V30 2155 H 203.271 -3.2662 1.79927 0
M  V30 2156 N 205.456 -1.28612 -0.910864 0
M  V30 2157 C 206.386 -1.15326 -2.03032 0
M  V30 2158 C 207.367 -0.0502924 -1.70026 0
M  V30 2159 O 208.552 -0.227797 -1.92859 0
M  V30 2160 C 205.682 -0.817343 -3.37545 0
M  V30 2161 C 204.636 -1.8754 -3.84724 0
M  V30 2162 C 203.962 -1.39305 -5.16235 0
M  V30 2163 C 205.262 -3.28244 -4.06267 0
M  V30 2164 H 206.956 -2.08975 -2.14406 0
M  V30 2165 H 204.502 -1.00612 -1.03021 0
M  V30 2166 H 206.455 -0.711151 -4.15356 0
M  V30 2167 H 205.179 0.154846 -3.26233 0
M  V30 2168 H 203.838 -1.97079 -3.09121 0
M  V30 2169 H 203.486 -0.409846 -5.01328 0
M  V30 2170 H 203.186 -2.10057 -5.48771 0
M  V30 2171 H 204.71 -1.30014 -5.96598 0
M  V30 2172 H 206.124 -3.21611 -4.74594 0
M  V30 2173 H 204.521 -3.96855 -4.5014 0
M  V30 2174 H 205.591 -3.72048 -3.10979 0
M  V30 2175 N 206.934 1.1197 -1.10907 0
M  V30 2176 C 208.345 1.65114 -0.871446 0
M  V30 2177 C 208.696 1.86885 0.597353 0
M  V30 2178 O 207.821 1.59896 1.45816 0
M  V30 2179 C 208.416 2.99944 -1.5754 0
M  V30 2180 C 206.975 3.50018 -1.38435 0
M  V30 2181 C 206.122 2.24941 -1.62164 0
M  V30 2182 H 209.073 0.956851 -1.2661 0
M  V30 2183 H 209.094 3.66651 -1.01721 0
M  V30 2184 H 208.606 2.84067 -2.64438 0
M  V30 2185 H 206.707 3.71071 -0.337214 0
M  V30 2186 H 206.82 4.29165 -2.12965 0
M  V30 2187 H 205.184 2.3229 -1.04467 0
M  V30 2188 H 205.967 2.11612 -2.70324 0
M  V30 2189 N 208.412 0.89855 1.29475 0
M  V30 2190 C 209.637 0.538561 2.00285 0
M  V30 2191 C 210.062 -0.869135 1.66816 0
M  V30 2192 O 209.42 -1.57831 0.892145 0
M  V30 2193 C 209.468 0.736475 3.52999 0
M  V30 2194 O 208.572 -0.211537 4.11857 0
M  V30 2195 H 207.913 0.210563 0.62973 0
M  V30 2196 H 210.443 1.20982 1.64998 0
M  V30 2197 H 210.453 0.640685 4.02938 0
M  V30 2198 H 209.128 1.76276 3.76696 0
M  V30 2199 H 207.705 -0.0682991 3.72837 0
M  V30 2200 N 209.89 -1.43072 0.660911 0
M  V30 2201 C 210.838 -2.32569 -0.0378199 0
M  V30 2202 C 211.832 -1.49046 -0.805092 0
M  V30 2203 O 213.038 -1.65206 -0.714624 0
M  V30 2204 H 209.413 -0.75136 -0.031019 0
M  V30 2205 H 211.384 -2.89216 0.734609 0
M  V30 2206 C 210.133 -3.33453 -0.985124 0
M  V30 2207 H 209.456 -3.97752 -0.404147 0
M  V30 2208 H 210.896 -3.98691 -1.44297 0
M  V30 2209 C 209.355 -2.64642 -2.08486 0
M  V30 2210 O 209.885 -2.46776 -3.16961 0
M  V30 2211 N 208.091 -2.23891 -1.8526 0
M  V30 2212 H 207.638 -2.38621 -0.970449 0
M  V30 2213 H 207.596 -1.78181 -2.59034 0
M  V30 2214 N 211.368 -0.403325 -1.52352 0
M  V30 2215 C 212.593 0.176499 -2.06648 0
M  V30 2216 C 213.018 1.38577 -1.27193 0
M  V30 2217 O 212.376 1.7879 -0.300637 0
M  V30 2218 C 212.424 0.511061 -3.5696 0
M  V30 2219 O 211.528 1.60294 -3.79973 0
M  V30 2220 H 210.869 0.0167337 -0.663789 0
M  V30 2221 H 213.399 -0.574848 -1.96359 0
M  V30 2222 H 213.409 0.771362 -4.00642 0
M  V30 2223 H 212.084 -0.37296 -4.14224 0
M  V30 2224 H 210.661 1.33526 -3.48174 0
M  V30 2225 N 212.846 1.57033 -0.133567 0
M  V30 2226 C 213.776 2.1909 0.807567 0
M  V30 2227 C 214.757 1.13517 1.26681 0
M  V30 2228 O 215.942 1.41809 1.32679 0
M  V30 2229 C 213.072 2.80188 2.05212 0
M  V30 2230 C 212.026 3.91471 1.73015 0
M  V30 2231 C 211.352 4.39443 3.04622 0
M  V30 2232 C 212.652 5.12886 0.987168 0
M  V30 2233 H 214.346 2.97988 0.290403 0
M  V30 2234 H 211.892 1.43335 0.138239 0
M  V30 2235 H 213.845 3.22264 2.71521 0
M  V30 2236 H 212.569 1.98601 2.59278 0
M  V30 2237 H 211.228 3.49993 1.0909 0
M  V30 2238 H 210.876 3.54695 3.56651 0
M  V30 2239 H 210.576 5.14495 2.83847 0
M  V30 2240 H 212.1 4.8418 3.72024 0
M  V30 2241 H 213.514 5.51891 1.55208 0
M  V30 2242 H 211.911 5.93615 0.87985 0
M  V30 2243 H 212.981 4.84894 -0.0235286 0
M  V30 2244 N 214.325 -0.140222 1.56975 0
M  V30 2245 C 215.272 -1.17292 1.98774 0
M  V30 2246 C 216.242 -1.4232 0.856408 0
M  V30 2247 O 217.427 -1.54541 1.119 0
M  V30 2248 C 214.567 -2.49973 2.37923 0
M  V30 2249 C 213.68 -2.32062 3.64378 0
M  V30 2250 C 212.815 -3.57825 3.926 0
M  V30 2251 C 211.854 -3.3498 5.12303 0
M  V30 2252 N 210.991 -4.52891 5.36502 0
M  V30 2253 H 215.831 -0.809472 2.86795 0
M  V30 2254 H 213.368 -0.388237 1.41884 0
M  V30 2255 H 215.326 -3.27346 2.58652 0
M  V30 2256 H 213.956 -2.84252 1.52972 0
M  V30 2257 H 213.008 -1.45711 3.51387 0
M  V30 2258 H 214.32 -2.11145 4.51906 0
M  V30 2259 H 213.474 -4.43624 4.13863 0
M  V30 2260 H 212.213 -3.81753 3.03506 0
M  V30 2261 H 211.218 -2.4757 4.90906 0
M  V30 2262 H 212.443 -3.12444 6.02956 0
M  V30 2263 H 210.389 -4.76979 4.50363 0
M  V30 2264 H 210.306 -4.35001 6.18312 0
M  V30 2265 H 211.574 -5.39884 5.62268 0
M  V30 2266 N 215.803 -1.52179 -0.40978 0
M  V30 2267 C 216.75 -1.75475 -1.49924 0
M  V30 2268 C 217.72 -0.597175 -1.54994 0
M  V30 2269 O 218.905 -0.834655 -1.71575 0
M  V30 2270 C 216.045 -1.9107 -2.87378 0
M  V30 2271 C 215.158 -3.18717 -2.91622 0
M  V30 2272 C 214.293 -3.24747 -4.20372 0
M  V30 2273 C 213.332 -4.46598 -4.18588 0
M  V30 2274 N 212.469 -4.50025 -5.38908 0
M  V30 2275 H 217.309 -2.68458 -1.29361 0
M  V30 2276 H 214.846 -1.33024 -0.627934 0
M  V30 2277 H 216.804 -1.98096 -3.6717 0
M  V30 2278 H 215.434 -1.01469 -3.06437 0
M  V30 2279 H 214.486 -3.20866 -2.04326 0
M  V30 2280 H 215.798 -4.08544 -2.86169 0
M  V30 2281 H 214.952 -3.30841 -5.08556 0
M  V30 2282 H 213.691 -2.32857 -4.28519 0
M  V30 2283 H 212.696 -4.40652 -3.28794 0
M  V30 2284 H 213.921 -5.39783 -4.12081 0
M  V30 2285 H 211.867 -3.61017 -5.47725 0
M  V30 2286 H 211.784 -5.33697 -5.35447 0
M  V30 2287 H 213.052 -4.60347 -6.29048 0
M  V30 2288 N 217.281 0.66697 -1.42791 0
M  V30 2289 C 218.506 1.46004 -1.47301 0
M  V30 2290 C 218.931 1.87894 -0.0880317 0
M  V30 2291 O 218.289 1.56502 0.915253 0
M  V30 2292 C 218.337 2.68031 -2.41229 0
M  V30 2293 O 217.441 3.6659 -1.88906 0
M  V30 2294 H 216.782 0.43832 -0.49877 0
M  V30 2295 H 219.312 0.817391 -1.87563 0
M  V30 2296 H 219.322 3.1601 -2.58073 0
M  V30 2297 H 217.997 2.36883 -3.41847 0
M  V30 2298 H 216.574 3.25661 -1.81656 0
M  V30 2299 N 218.759 1.29093 0.90403 0
M  V30 2300 C 219.984 1.19809 1.69294 0
M  V30 2301 C 220.409 -0.238481 1.86582 0
M  V30 2302 O 219.767 -1.1723 1.383 0
M  V30 2303 C 219.815 1.91202 3.05736 0
M  V30 2304 O 218.919 1.22611 3.93752 0
M  V30 2305 H 218.26 0.415385 0.518027 0
M  V30 2306 H 220.79 1.70586 1.12967 0
M  V30 2307 H 220.8 1.99487 3.55906 0
M  V30 2308 H 219.475 2.95692 2.92471 0
M  V30 2309 H 218.052 1.22554 3.52186 0
M  V30 2310 N 220.237 -1.11381 1.11499 0
M  V30 2311 C 221.2 -2.15622 0.777153 0
M  V30 2312 C 222.2 -1.59504 -0.203779 0
M  V30 2313 O 223.39 -1.74188 0.020782 0
M  V30 2314 C 220.522 -3.40556 0.153116 0
M  V30 2315 H 221.715 -2.47021 1.70061 0
M  V30 2316 H 219.268 -1.26577 0.916952 0
M  V30 2317 H 220.003 -3.14767 -0.780536 0
M  V30 2318 H 219.788 -3.8257 0.859238 0
M  V30 2319 H 221.278 -4.17546 -0.0671044 0
M  V30 2320 N 221.715 -0.905404 -1.28997 0
M  V30 2321 C 222.625 -0.392246 -2.31298 0
M  V30 2322 C 223.641 0.515889 -1.66176 0
M  V30 2323 O 224.817 0.404093 -1.97304 0
M  V30 2324 C 221.882 0.36686 -3.44754 0
M  V30 2325 C 220.943 -0.573485 -4.25452 0
M  V30 2326 C 220.176 0.149488 -5.33491 0
M  V30 2327 O 220.399 1.37255 -5.5364 0
M  V30 2328 O 219.333 -0.510919 -5.99728 0
M  V30 2329 H 223.159 -1.2411 -2.77183 0
M  V30 2330 H 220.744 -0.669926 -1.33538 0
M  V30 2331 H 222.626 0.795907 -4.13816 0
M  V30 2332 H 221.301 1.19169 -3.00966 0
M  V30 2333 H 220.208 -1.05176 -3.59011 0
M  V30 2334 H 221.541 -1.36489 -4.72897 0
M  V30 2335 N 223.193 1.4272 -0.668489 0
M  V30 2336 C 224.123 2.335 -0.000100175 0
M  V30 2337 C 225.104 1.50328 0.795964 0
M  V30 2338 O 226.289 1.78949 0.754385 0
M  V30 2339 C 223.419 3.33874 0.956302 0
M  V30 2340 C 222.373 4.27152 0.269278 0
M  V30 2341 C 221.699 5.17684 1.33818 0
M  V30 2342 C 222.999 5.15373 -0.847805 0
M  V30 2343 H 224.693 2.89639 -0.758244 0
M  V30 2344 H 222.239 1.39269 -0.366079 0
M  V30 2345 H 224.192 3.9629 1.43292 0
M  V30 2346 H 222.916 2.76025 1.74579 0
M  V30 2347 H 221.575 3.66123 -0.187042 0
M  V30 2348 H 221.223 4.56165 2.1195 0
M  V30 2349 H 220.923 5.80918 0.883659 0
M  V30 2350 H 222.447 5.82974 1.81586 0
M  V30 2351 H 223.861 5.7151 -0.452681 0
M  V30 2352 H 222.258 5.87407 -1.22773 0
M  V30 2353 H 223.328 4.5415 -1.69929 0
M  V30 2354 N 224.671 0.411399 1.52136 0
M  V30 2355 C 225.618 -0.412975 2.27075 0
M  V30 2356 C 226.588 -1.03912 1.29582 0
M  V30 2357 O 227.773 -1.06296 1.58448 0
M  V30 2358 C 224.913 -1.52247 3.09701 0
M  V30 2359 C 224.026 -0.917021 4.22155 0
M  V30 2360 C 223.161 -1.9994 4.92135 0
M  V30 2361 C 222.2 -1.37101 5.96548 0
M  V30 2362 N 221.337 -2.39364 6.60038 0
M  V30 2363 H 226.177 0.232499 2.97092 0
M  V30 2364 H 223.714 0.126496 1.46555 0
M  V30 2365 H 225.672 -2.17674 3.55913 0
M  V30 2366 H 224.302 -2.13794 2.41851 0
M  V30 2367 H 223.354 -0.151742 3.80097 0
M  V30 2368 H 224.666 -0.418006 4.97045 0
M  V30 2369 H 223.82 -2.73088 5.41763 0
M  V30 2370 H 222.559 -2.53208 4.16818 0
M  V30 2371 H 221.564 -0.624873 5.46237 0
M  V30 2372 H 222.789 -0.845998 6.7381 0
M  V30 2373 H 220.735 -2.91759 5.87548 0
M  V30 2374 H 220.652 -1.9428 7.3061 0
M  V30 2375 H 221.92 -3.12074 7.14304 0
M  V30 2376 N 226.149 -1.5696 0.141893 0
M  V30 2377 C 227.096 -2.16501 -0.799737 0
M  V30 2378 C 228.066 -1.09643 -1.24771 0
M  V30 2379 O 229.251 -1.3766 -1.32115 0
M  V30 2380 C 226.391 -2.78679 -2.03549 0
M  V30 2381 C 225.504 -3.99914 -1.6338 0
M  V30 2382 C 224.639 -4.50106 -2.82096 0
M  V30 2383 C 223.678 -5.63819 -2.38275 0
M  V30 2384 N 222.815 -6.08651 -3.49983 0
M  V30 2385 H 227.655 -2.96632 -0.285179 0
M  V30 2386 H 225.192 -1.46533 -0.129053 0
M  V30 2387 H 227.15 -3.1287 -2.75986 0
M  V30 2388 H 225.78 -2.012 -2.52425 0
M  V30 2389 H 224.832 -3.71735 -0.807279 0
M  V30 2390 H 226.144 -4.82311 -1.27192 0
M  V30 2391 H 225.298 -4.86325 -3.62729 0
M  V30 2392 H 224.037 -3.66706 -3.21525 0
M  V30 2393 H 223.042 -5.2718 -1.56081 0
M  V30 2394 H 224.267 -6.49 -1.99938 0
M  V30 2395 H 222.213 -5.28188 -3.89042 0
M  V30 2396 H 222.13 -6.85961 -3.17794 0
M  V30 2397 H 223.398 -6.49515 -4.30988 0
M  V30 2398 N 227.627 0.131896 -1.57047 0
M  V30 2399 C 228.876 0.84044 -1.83356 0
M  V30 2400 C 229.189 1.81646 -0.725535 0
M  V30 2401 O 230.395 2.57025 -0.874659 0
M  V30 2402 C 228.851 1.54528 -3.25037 0
M  V30 2403 C 228.459 0.610902 -4.43815 0
M  V30 2404 C 230.203 2.23972 -3.60606 0
M  V30 2405 C 228.11 1.31823 -5.76521 0
M  V30 2406 H 227.04 0.317599 -0.683847 0
M  V30 2407 H 229.691 0.0931561 -1.83263 0
M  V30 2408 H 228.073 2.33873 -3.19561 0
M  V30 2409 H 229.247 -0.148407 -4.60561 0
M  V30 2410 H 227.562 0.0241016 -4.16393 0
M  V30 2411 H 230.159 2.77558 -4.57018 0
M  V30 2412 H 230.502 3.01173 -2.87403 0
M  V30 2413 H 231.035 1.51529 -3.6781 0
M  V30 2414 H 227.774 0.587771 -6.52859 0
M  V30 2415 H 227.294 2.04987 -5.63685 0
M  V30 2416 H 228.973 1.855 -6.19838 0
M  V30 2417 N 229.106 1.52395 0.401703 0
M  V30 2418 C 230.036 1.79231 1.49661 0
M  V30 2419 C 231.017 0.643654 1.57452 0
M  V30 2420 O 232.202 0.889989 1.72606 0
M  V30 2421 C 229.332 1.94971 2.87409 0
M  V30 2422 C 228.286 3.10604 2.94465 0
M  V30 2423 C 227.612 3.11577 4.34538 0
M  V30 2424 C 228.912 4.49921 2.6527 0
M  V30 2425 H 230.606 2.70917 1.27454 0
M  V30 2426 H 228.152 1.30362 0.6117 0
M  V30 2427 H 230.105 2.12328 3.63999 0
M  V30 2428 H 228.829 0.999632 3.10926 0
M  V30 2429 H 227.488 2.93009 2.20321 0
M  V30 2430 H 227.136 2.14277 4.55076 0
M  V30 2431 H 226.836 3.89247 4.40183 0
M  V30 2432 H 228.36 3.31073 5.13053 0
M  V30 2433 H 229.774 4.67683 3.31581 0
M  V30 2434 H 228.171 5.29564 2.82281 0
M  V30 2435 H 229.241 4.57507 1.60671 0
M  V30 2436 N 230.584 -0.659388 1.43143 0
M  V30 2437 C 231.547 -1.75432 1.47501 0
M  V30 2438 C 232.547 -1.56707 0.360512 0
M  V30 2439 O 233.737 -1.62717 0.622002 0
M  V30 2440 C 230.869 -3.14239 1.32162 0
M  V30 2441 H 232.062 -1.7295 2.45006 0
M  V30 2442 H 229.615 -0.870469 1.29817 0
M  V30 2443 H 230.35 -3.22336 0.356401 0
M  V30 2444 H 230.135 -3.29235 2.12948 0
M  V30 2445 H 231.625 -3.94094 1.3813 0
M  V30 2446 N 232.062 -1.29571 -0.897171 0
M  V30 2447 C 233.01 -1.14802 -2.02295 0
M  V30 2448 C 234.004 -0.0629637 -1.69283 0
M  V30 2449 O 235.21 -0.222945 -1.78614 0
M  V30 2450 H 231.585 -0.354692 -0.663097 0
M  V30 2451 H 233.556 -2.10108 -2.11889 0
M  V30 2452 C 232.305 -0.843966 -3.37302 0
M  V30 2453 H 231.628 -1.67093 -3.63208 0
M  V30 2454 H 233.068 -0.780672 -4.16751 0
M  V30 2455 C 231.527 0.452843 -3.33843 0
M  V30 2456 O 232.057 1.47813 -3.73516 0
M  V30 2457 N 230.263 0.459601 -2.86943 0
M  V30 2458 H 229.81 -0.375213 -2.54853 0
M  V30 2459 H 229.768 1.32726 -2.85011 0
M  V30 2460 N 233.54 1.10788 -1.12088 0
M  V30 2461 C 234.788 1.8231 -0.872205 0
M  V30 2462 C 235.109 1.85419 0.603709 0
M  V30 2463 O 234.379 1.32963 1.43867 0
M  V30 2464 H 232.959 0.675137 -0.319686 0
M  V30 2465 H 235.621 1.34068 -1.41463 0
M  V30 2466 H 234.717 2.85955 -1.25045 0
M  V30 2467 N 235.018 0.912232 1.28515 0
M  V30 2468 C 235.95 0.35676 2.26406 0
M  V30 2469 C 236.963 -0.503933 1.54804 0
M  V30 2470 O 238.152 -0.319059 1.75625 0
M  V30 2471 C 235.252 -0.508825 3.35058 0
M  V30 2472 C 234.425 0.329007 4.36161 0
M  V30 2473 C 233.484 -0.471422 5.24084 0
M  V30 2474 O 232.51 0.115482 5.69083 0
M  V30 2475 N 233.712 -1.77479 5.52704 0
M  V30 2476 H 236.477 1.19818 2.74707 0
M  V30 2477 H 234.038 0.778022 1.4198 0
M  V30 2478 H 236.03 -1.051 3.90815 0
M  V30 2479 H 234.6 -1.25095 2.86478 0
M  V30 2480 H 233.82 1.05256 3.79888 0
M  V30 2481 H 235.108 0.90234 5.00735 0
M  V30 2482 H 234.506 -2.27417 5.17975 0
M  V30 2483 H 233.063 -2.26382 6.11224 0
M  V30 2484 N 236.496 -1.42363 0.676048 0
M  V30 2485 C 237.429 -2.28141 -0.0516916 0
M  V30 2486 C 238.407 -1.41135 -0.807439 0
M  V30 2487 O 239.591 -1.70573 -0.802305 0
M  V30 2488 C 236.718 -3.21007 -1.08039 0
M  V30 2489 C 235.764 -4.24426 -0.420076 0
M  V30 2490 S 236.597 -5.29134 0.823246 0
M  V30 2491 C 237.753 -6.25566 -0.204344 0
M  V30 2492 H 237.986 -2.89515 0.675884 0
M  V30 2493 H 235.519 -1.47211 0.465635 0
M  V30 2494 H 237.477 -3.75048 -1.66881 0
M  V30 2495 H 236.138 -2.58766 -1.78042 0
M  V30 2496 H 235.331 -4.89596 -1.19633 0
M  V30 2497 H 234.933 -3.7388 0.0947845 0
M  V30 2498 H 237.225 -6.69098 -1.06369 0
M  V30 2499 H 238.168 -7.06895 0.412915 0
M  V30 2500 H 238.576 -5.61811 -0.55038 0
M  V30 2501 N 237.974 -0.419461 -1.51915 0
M  V30 2502 C 238.922 0.415502 -2.28859 0
M  V30 2503 C 239.916 1.03674 -1.3397 0
M  V30 2504 O 241.122 0.973757 -1.51387 0
M  V30 2505 H 237.497 0.152786 -0.736315 0
M  V30 2506 H 239.468 -0.254531 -2.97312 0
M  V30 2507 C 238.217 1.51425 -3.12995 0
M  V30 2508 H 237.54 1.04556 -3.85886 0
M  V30 2509 H 238.98 2.07208 -3.6992 0
M  V30 2510 C 237.439 2.48745 -2.27217 0
M  V30 2511 O 237.969 3.52871 -1.9195 0
M  V30 2512 N 236.175 2.19202 -1.90785 0
M  V30 2513 H 235.722 1.34556 -2.19664 0
M  V30 2514 H 235.68 2.84561 -1.33687 0
M  V30 2515 N 239.452 1.56882 -0.150215 0
M  V30 2516 C 240.362 2.20494 0.801222 0
M  V30 2517 C 241.378 1.19019 1.26927 0
M  V30 2518 O 242.554 1.51607 1.32579 0
M  V30 2519 C 239.619 2.81659 2.02161 0
M  V30 2520 C 238.68 3.9827 1.60249 0
M  V30 2521 C 237.913 4.56508 2.7647 0
M  V30 2522 O 238.136 4.13627 3.92771 0
M  V30 2523 O 237.07 5.46719 2.51757 0
M  V30 2524 H 240.896 3.02315 0.289717 0
M  V30 2525 H 238.481 1.49202 0.0769684 0
M  V30 2526 H 240.363 3.20522 2.73576 0
M  V30 2527 H 239.038 2.02849 2.52258 0
M  V30 2528 H 237.945 3.64117 0.858477 0
M  V30 2529 H 239.278 4.78609 1.14864 0
M  V30 2530 N 240.93 -0.123565 1.57115 0
M  V30 2531 C 241.862 -1.17739 1.96648 0
M  V30 2532 C 242.875 -1.37906 0.865201 0
M  V30 2533 O 244.064 -1.37062 1.14351 0
M  V30 2534 C 241.164 -2.53821 2.24562 0
M  V30 2535 C 240.337 -2.54317 3.55867 0
M  V30 2536 C 239.396 -3.72112 3.72047 0
M  V30 2537 O 238.422 -3.55907 4.44206 0
M  V30 2538 N 239.624 -4.90498 3.10471 0
M  V30 2539 H 242.389 -0.841147 2.87654 0
M  V30 2540 H 239.95 -0.31289 1.58848 0
M  V30 2541 H 241.942 -3.31175 2.32606 0
M  V30 2542 H 240.512 -2.79645 1.39705 0
M  V30 2543 H 239.732 -1.62711 3.59053 0
M  V30 2544 H 241.02 -2.51701 4.42181 0
M  V30 2545 H 240.418 -5.06567 2.51806 0
M  V30 2546 H 238.975 -5.65544 3.24043 0
M  V30 2547 N 242.408 -1.52605 -0.393616 0
M  V30 2548 C 243.685 -1.58001 -1.15304 0
M  V30 2549 C 244.065 -0.370385 -2.07825 0
M  V30 2550 O 243.413 0.641638 -2.19306 0
M  V30 2551 C 243.623 -2.91652 -1.91677 0
M  V30 2552 C 244.971 -3.4522 -2.47201 0
M  V30 2553 O 245.995 -2.93495 -2.01839 0
M  V30 2554 O 244.854 -4.35579 -3.3005 0
M  V30 2555 H 241.948 -0.637068 -0.527327 0
M  V30 2556 H 244.494 -1.64939 -0.399141 0
M  V30 2557 H 243.266 -3.71136 -1.23992 0
M  V30 2558 H 242.889 -2.88077 -2.74039 0
M  V30 2559 N 243.887 0.651787 -1.4349 0
M  V30 2560 C 245.136 1.40754 -1.44469 0
M  V30 2561 C 245.449 1.95463 -0.0731845 0
M  V30 2562 O 246.655 2.71471 0.0395721 0
M  V30 2563 C 245.111 2.54735 -2.5424 0
M  V30 2564 C 244.719 2.06628 -3.97504 0
M  V30 2565 C 246.463 3.32092 -2.64414 0
M  V30 2566 C 244.37 3.17829 -4.98737 0
M  V30 2567 H 243.3 0.528862 -0.53742 0
M  V30 2568 H 245.951 0.703365 -1.69485 0
M  V30 2569 H 244.333 3.2763 -2.22428 0
M  V30 2570 H 245.507 1.40734 -4.38783 0
M  V30 2571 H 243.822 1.42146 -3.91387 0
M  V30 2572 H 246.419 4.14952 -3.37223 0
M  V30 2573 H 246.762 3.80217 -1.69532 0
M  V30 2574 H 247.295 2.66279 -2.95534 0
M  V30 2575 H 244.034 2.74671 -5.95177 0
M  V30 2576 H 243.554 3.82429 -4.62069 0
M  V30 2577 H 245.233 3.82937 -5.21505 0
M  V30 2578 N 245.365 1.30045 0.890287 0
M  V30 2579 C 246.781 1.08261 1.17268 0
M  V30 2580 C 246.981 -0.160063 2.00863 0
M  V30 2581 O 246.037 -0.855181 2.37577 0
M  V30 2582 C 247.35 2.34323 1.8845 0
M  V30 2583 C 248.898 2.39735 2.01237 0
M  V30 2584 C 249.373 3.65625 2.7583 0
M  V30 2585 N 250.864 3.66402 2.83379 0
M  V30 2586 C 251.599 4.60498 3.41657 0
M  V30 2587 N 251.095 5.64933 4.01026 0
M  V30 2588 N 252.888 4.48051 3.39421 0
M  V30 2589 H 245.039 2.09777 0.332762 0
M  V30 2590 H 247.302 0.92446 0.209948 0
M  V30 2591 H 247.008 3.2498 1.34465 0
M  V30 2592 H 246.882 2.4256 2.88867 0
M  V30 2593 H 249.269 1.4956 2.54393 0
M  V30 2594 H 249.35 2.35476 0.999232 0
M  V30 2595 H 248.994 4.56156 2.23347 0
M  V30 2596 H 248.924 3.67144 3.77509 0
M  V30 2597 H 251.415 2.90896 2.41222 0
M  V30 2598 H 251.728 6.32841 4.43545 0
M  V30 2599 H 250.073 5.68732 3.99461 0
M  V30 2600 H 253.264 3.65649 2.92264 0
M  V30 2601 H 253.437 5.21565 3.84544 0
M  V30 2602 N 246.843 -1.10192 1.12674 0
M  V30 2603 C 248.073 -1.85713 0.905213 0
M  V30 2604 C 248.481 -1.81056 -0.549108 0
M  V30 2605 O 247.824 -1.19927 -1.39151 0
M  V30 2606 C 247.886 -3.34972 1.30516 0
M  V30 2607 C 247.55 -3.63385 2.77129 0
M  V30 2608 C 248.547 -3.59772 3.75313 0
M  V30 2609 C 246.232 -3.91981 3.14096 0
M  V30 2610 C 248.226 -3.84354 5.08479 0
M  V30 2611 C 245.913 -4.16218 4.47443 0
M  V30 2612 C 246.911 -4.12395 5.44444 0
M  V30 2613 O 246.599 -4.36014 6.75387 0
M  V30 2614 H 246.331 -0.593719 0.323223 0
M  V30 2615 H 248.885 -1.40198 1.50112 0
M  V30 2616 H 247.115 -3.81156 0.652463 0
M  V30 2617 H 248.804 -3.91886 1.05736 0
M  V30 2618 H 249.57 -3.37716 3.48099 0
M  V30 2619 H 245.449 -3.94085 2.39202 0
M  V30 2620 H 248.993 -3.81285 5.84181 0
M  V30 2621 H 244.89 -4.37754 4.74386 0
M  V30 2622 H 245.658 -4.53516 6.8137 0
M  V30 2623 N 248.321 -0.919034 -1.28029 0
M  V30 2624 C 249.737 -0.617972 -1.4715 0
M  V30 2625 C 249.937 0.835242 -1.83374 0
M  V30 2626 O 248.993 1.61388 -1.94191 0
M  V30 2627 C 250.306 -1.56041 -2.57044 0
M  V30 2628 C 251.854 -1.56769 -2.7091 0
M  V30 2629 C 252.329 -2.49688 -3.83953 0
M  V30 2630 N 253.82 -2.47845 -3.91314 0
M  V30 2631 C 254.555 -3.16437 -4.78179 0
M  V30 2632 N 254.051 -3.94376 -5.69596 0
M  V30 2633 N 255.844 -3.05498 -4.71834 0
M  V30 2634 H 247.995 -1.85866 -1.02798 0
M  V30 2635 H 250.258 -0.797506 -0.512531 0
M  V30 2636 H 249.964 -2.59671 -2.372 0
M  V30 2637 H 249.838 -1.29551 -3.54255 0
M  V30 2638 H 252.225 -0.538745 -2.90141 0
M  V30 2639 H 252.306 -1.87305 -1.74214 0
M  V30 2640 H 251.95 -3.52688 -3.65477 0
M  V30 2641 H 251.88 -2.16453 -4.80058 0
M  V30 2642 H 254.371 -1.91234 -3.25941 0
M  V30 2643 H 254.684 -4.43721 -6.32718 0
M  V30 2644 H 253.029 -3.98481 -5.69419 0
M  V30 2645 H 256.22 -2.44108 -3.99411 0
M  V30 2646 H 256.393 -3.59225 -5.39316 0
M  V30 2647 N 249.799 1.42003 -0.683588 0
M  V30 2648 C 251.076 1.95112 -0.138075 0
M  V30 2649 C 251.456 1.62359 1.34918 0
M  V30 2650 O 250.804 0.924311 2.08971 0
M  V30 2651 C 251.014 3.46505 -0.416581 0
M  V30 2652 C 252.362 4.23254 -0.337834 0
M  V30 2653 O 253.386 3.54468 -0.35082 0
M  V30 2654 O 252.245 5.45743 -0.287596 0
M  V30 2655 H 249.339 0.826961 -0.00797996 0
M  V30 2656 H 251.885 1.51784 -0.758924 0
M  V30 2657 H 250.657 3.63582 -1.4465 0
M  V30 2658 H 250.28 3.969 0.235839 0
M  V30 2659 N 251.277 0.427512 1.51691 0
M  V30 2660 C 252.505 -0.141191 2.06418 0
M  V30 2661 C 252.92 -1.37303 1.29589 0
M  V30 2662 O 252.277 -1.79059 0.352732 0
M  V30 2663 C 252.328 -0.473266 3.58389 0
M  V30 2664 O 252.049 0.709673 4.32314 0
M  V30 2665 C 253.55 -1.09371 4.29596 0
M  V30 2666 H 250.77 -0.0122747 0.670888 0
M  V30 2667 H 253.314 0.603764 1.95384 0
M  V30 2668 H 251.469 -1.16812 3.69369 0
M  V30 2669 H 251.883 0.42807 5.2275 0
M  V30 2670 H 253.357 -1.27613 5.37046 0
M  V30 2671 H 253.834 -2.072 3.87253 0
M  V30 2672 H 254.44 -0.43853 4.23033 0
M  V30 2673 N 252.755 -1.56801 0.158532 0
M  V30 2674 C 253.685 -2.20347 -0.772609 0
M  V30 2675 C 254.666 -1.15518 -1.24859 0
M  V30 2676 O 255.851 -1.43902 -1.30406 0
M  V30 2677 C 252.981 -2.83417 -2.00729 0
M  V30 2678 C 251.935 -3.94174 -1.66765 0
M  V30 2679 C 251.261 -4.44233 -2.97592 0
M  V30 2680 C 252.561 -5.14392 -0.905447 0
M  V30 2681 H 254.255 -2.98413 -0.242959 0
M  V30 2682 H 251.801 -1.43537 -0.115419 0
M  V30 2683 H 253.754 -3.26543 -2.6636 0
M  V30 2684 H 252.478 -2.02701 -2.56086 0
M  V30 2685 H 251.137 -3.51684 -1.03508 0
M  V30 2686 H 250.785 -3.60325 -3.50963 0
M  V30 2687 H 250.485 -5.18945 -2.75626 0
M  V30 2688 H 252.009 -4.90037 -3.64274 0
M  V30 2689 H 253.423 -5.5429 -1.46408 0
M  V30 2690 H 251.82 -5.9494 -0.7853 0
M  V30 2691 H 252.89 -4.84795 0.100668 0
M  V30 2692 N 254.233 0.115231 -1.57178 0
M  V30 2693 C 255.481 0.820727 -1.84685 0
M  V30 2694 C 255.802 1.80237 -0.744279 0
M  V30 2695 O 255.072 1.94529 0.231375 0
M  V30 2696 H 253.652 0.306084 -0.681411 0
M  V30 2697 H 256.314 0.101656 -1.94635 0
M  V30 2698 H 255.41 1.36366 -2.80733 0
M  V30 2699 N 255.711 1.52812 0.385517 0
M  V30 2700 C 256.661 1.74219 1.47078 0
M  V30 2701 C 257.645 0.59632 1.49442 0
M  V30 2702 O 258.837 0.85428 1.5502 0
M  V30 2703 C 255.966 1.9176 2.84751 0
M  V30 2704 C 255.052 3.12289 2.86943 0
M  V30 2705 N 255.443 4.34575 2.58802 0
M  V30 2706 C 253.741 3.12605 3.1811 0
M  V30 2707 C 254.442 5.162 2.68166 0
M  V30 2708 N 253.418 4.51964 3.02043 0
M  V30 2709 H 257.22 2.6639 1.24152 0
M  V30 2710 H 254.734 1.51166 0.593504 0
M  V30 2711 H 256.731 2.05218 3.62893 0
M  V30 2712 H 255.391 1.00805 3.08656 0
M  V30 2713 H 256.402 4.62649 2.32759 0
M  V30 2714 H 253.079 2.31472 3.47458 0
M  V30 2715 H 254.469 6.23689 2.49923 0
M  V30 2716 N 257.189 -0.644168 1.43834 0
M  V30 2717 C 258.437 -1.40117 1.45642 0
M  V30 2718 C 258.758 -1.94814 0.0852413 0
M  V30 2719 O 258.028 -1.74988 -0.880688 0
M  V30 2720 H 256.608 -0.52005 0.536243 0
M  V30 2721 H 259.27 -0.7591 1.7951 0
M  V30 2722 H 258.366 -2.23902 2.17427 0
M  V30 2723 N 258.668 -1.30515 -0.883378 0
M  V30 2724 C 259.616 -1.16941 -2.01066 0
M  V30 2725 C 260.61 -0.0809148 -1.69207 0
M  V30 2726 O 261.816 -0.241877 -1.78367 0
M  V30 2727 H 258.191 -0.361705 -0.659298 0
M  V30 2728 H 260.162 -2.12344 -2.09649 0
M  V30 2729 C 258.911 -0.879694 -3.36388 0
M  V30 2730 H 258.234 -1.70936 -3.61415 0
M  V30 2731 H 259.674 -0.82483 -4.159 0
M  V30 2732 C 258.133 0.417409 -3.34304 0
M  V30 2733 O 258.663 1.43843 -3.75063 0
M  V30 2734 N 256.869 0.429141 -2.87414 0
M  V30 2735 H 256.416 -0.402222 -2.5444 0
M  V30 2736 H 256.374 1.29696 -2.86403 0
M  V30 2737 N 260.146 1.09593 -1.13257 0
M  V30 2738 C 261.394 1.81375 -0.891492 0
M  V30 2739 C 261.715 1.86049 0.584009 0
M  V30 2740 O 260.985 1.34481 1.42449 0
M  V30 2741 H 259.565 0.671708 -0.326828 0
M  V30 2742 H 262.227 1.3256 -1.42877 0
M  V30 2743 H 261.323 2.84612 -1.28071 0
M  V30 2744 N 261.624 0.925811 1.2754 0
M  V30 2745 C 262.872 0.564138 1.94067 0
M  V30 2746 C 263.193 -0.897188 1.73134 0
M  V30 2747 O 262.463 -1.63573 1.07799 0
M  V30 2748 H 261.043 0.205645 0.718136 0
M  V30 2749 H 263.705 1.1778 1.55287 0
M  V30 2750 H 262.801 0.76881 3.02483 0
M  V30 2751 N 263.102 -1.41638 0.69111 0
M  V30 2752 C 264.33 -2.05628 0.22909 0
M  V30 2753 C 264.745 -1.51992 -1.11999 0
M  V30 2754 O 264.102 -0.666322 -1.69901 0
M  V30 2755 C 264.153 -3.61084 0.173283 0
M  V30 2756 O 263.874 -4.12735 1.46907 0
M  V30 2757 C 265.375 -4.42213 -0.310266 0
M  V30 2758 H 262.595 -0.662327 0.107534 0
M  V30 2759 H 265.139 -1.81489 0.942438 0
M  V30 2760 H 263.294 -3.84278 -0.490858 0
M  V30 2761 H 263.708 -5.06743 1.35322 0
M  V30 2762 H 265.182 -5.51194 -0.298196 0
M  V30 2763 H 265.659 -4.1799 -1.34838 0
M  V30 2764 H 266.265 -4.24074 0.322716 0
M  V30 2765 N 264.58 -0.43555 -1.51462 0
M  V30 2766 C 265.826 0.131709 -2.02372 0
M  V30 2767 C 266.159 1.42516 -1.3192 0
M  V30 2768 O 265.434 1.89606 -0.433573 0
M  V30 2769 C 265.717 0.352301 -3.58373 0
M  V30 2770 C 265.57 -0.959676 -4.39443 0
M  V30 2771 C 266.889 1.12286 -4.25535 0
M  V30 2772 H 264.008 0.0463936 -0.735538 0
M  V30 2773 H 266.65 -0.574197 -1.81116 0
M  V30 2774 H 264.8 0.9536 -3.76615 0
M  V30 2775 H 266.472 -1.59482 -4.32855 0
M  V30 2776 H 264.715 -1.56468 -4.04599 0
M  V30 2777 H 265.386 -0.759394 -5.46752 0
M  V30 2778 H 267.862 0.613545 -4.11552 0
M  V30 2779 H 266.738 1.24598 -5.34571 0
M  V30 2780 H 266.999 2.15048 -3.86273 0
M  V30 2781 N 266.058 1.56714 -0.166846 0
M  V30 2782 C 267.288 2.00828 0.48494 0
M  V30 2783 C 267.696 1.04612 1.57648 0
M  V30 2784 O 267.039 0.0383201 1.8366 0
M  V30 2785 C 267.101 3.4137 1.12723 0
M  V30 2786 C 266.765 4.56654 0.177886 0
M  V30 2787 C 267.762 5.16402 -0.60207 0
M  V30 2788 C 265.447 5.02244 0.0750139 0
M  V30 2789 C 267.441 6.20167 -1.47215 0
M  V30 2790 C 265.128 6.05859 -0.798649 0
M  V30 2791 C 266.126 6.64691 -1.57082 0
M  V30 2792 O 265.814 7.66297 -2.42989 0
M  V30 2793 H 265.546 0.663587 0.128953 0
M  V30 2794 H 268.1 2.03692 -0.264365 0
M  V30 2795 H 266.33 3.35406 1.92457 0
M  V30 2796 H 268.019 3.69466 1.68076 0
M  V30 2797 H 268.785 4.82065 -0.53274 0
M  V30 2798 H 264.664 4.56167 0.665812 0
M  V30 2799 H 268.208 6.66016 -2.07531 0
M  V30 2800 H 264.105 6.39621 -0.869199 0
M  V30 2801 H 264.873 7.83601 -2.36455 0
M  V30 2802 N 267.536 -0.106894 1.57237 0
M  V30 2803 C 268.483 -1.13049 2.01217 0
M  V30 2804 C 269.453 -1.40471 0.886403 0
M  V30 2805 O 270.638 -1.52133 1.15153 0
M  V30 2806 C 267.778 -2.4487 2.43172 0
M  V30 2807 C 266.891 -2.24281 3.69218 0
M  V30 2808 C 266.026 -3.49417 4.00101 0
M  V30 2809 C 265.065 -3.24038 5.19294 0
M  V30 2810 N 264.202 -4.41409 5.45988 0
M  V30 2811 H 269.042 -0.748456 2.88448 0
M  V30 2812 H 266.579 -0.358054 1.42676 0
M  V30 2813 H 268.537 -3.21786 2.65537 0
M  V30 2814 H 267.167 -2.80944 1.58967 0
M  V30 2815 H 266.219 -1.38224 3.54398 0
M  V30 2816 H 267.531 -2.01512 4.56283 0
M  V30 2817 H 266.685 -4.34746 4.2318 0
M  V30 2818 H 265.424 -3.75229 3.11535 0
M  V30 2819 H 264.429 -2.37102 4.96047 0
M  V30 2820 H 265.654 -2.99584 6.09447 0
M  V30 2821 H 263.6 -4.67319 4.60379 0
M  V30 2822 H 263.517 -4.21788 6.274 0
M  V30 2823 H 264.785 -5.27836 5.73593 0
M  V30 2824 N 269.014 -1.53014 -0.377408 0
M  V30 2825 C 269.977 -1.77957 -1.44444 0
M  V30 2826 C 270.977 -0.649763 -1.47087 0
M  V30 2827 O 272.167 -0.917897 -1.48055 0
M  V30 2828 C 269.299 -1.89089 -2.83651 0
M  V30 2829 H 270.492 -2.73243 -1.23606 0
M  V30 2830 H 268.045 -1.43912 -0.609844 0
M  V30 2831 H 268.78 -0.958293 -3.09818 0
M  V30 2832 H 268.565 -2.71254 -2.83132 0
M  V30 2833 H 270.055 -2.1002 -3.60945 0
M  V30 2834 N 270.492 0.636531 -1.44174 0
M  V30 2835 C 271.722 1.42146 -1.49927 0
M  V30 2836 C 272.13 1.88812 -0.121063 0
M  V30 2837 O 271.473 1.61126 0.882267 0
M  V30 2838 C 271.535 2.67883 -2.39748 0
M  V30 2839 C 271.199 2.43048 -3.8701 0
M  V30 2840 C 272.196 2.05216 -4.77684 0
M  V30 2841 C 269.881 2.56856 -4.3166 0
M  V30 2842 C 271.875 1.81512 -6.11009 0
M  V30 2843 C 269.562 2.32766 -5.65034 0
M  V30 2844 C 270.56 1.95152 -6.54526 0
M  V30 2845 O 270.248 1.71326 -7.85431 0
M  V30 2846 H 269.98 0.442567 -0.51099 0
M  V30 2847 H 272.534 0.786158 -1.8976 0
M  V30 2848 H 270.764 3.34032 -1.94832 0
M  V30 2849 H 272.453 3.29874 -2.36513 0
M  V30 2850 H 273.219 1.94111 -4.44462 0
M  V30 2851 H 269.098 2.85104 -3.62266 0
M  V30 2852 H 272.642 1.52077 -6.80822 0
M  V30 2853 H 268.539 2.43479 -5.97819 0
M  V30 2854 H 269.307 1.85616 -7.97176 0
M  V30 2855 N 271.97 1.30982 0.876444 0
M  V30 2856 C 272.92 1.14688 1.97055 0
M  V30 2857 C 273.904 0.0596593 1.60789 0
M  V30 2858 O 275.096 0.283892 1.74708 0
M  V30 2859 C 272.225 0.849627 3.3262 0
M  V30 2860 C 271.311 1.97752 3.75173 0
M  V30 2861 N 271.702 3.22384 3.89746 0
M  V30 2862 C 270 1.8758 4.04635 0
M  V30 2863 C 270.701 3.96121 4.25985 0
M  V30 2864 N 269.677 3.24237 4.36315 0
M  V30 2865 H 273.479 2.09204 2.06424 0
M  V30 2866 H 270.993 1.22445 1.06682 0
M  V30 2867 H 272.99 0.713895 4.10742 0
M  V30 2868 H 271.65 -0.087376 3.24582 0
M  V30 2869 H 272.661 3.57575 3.74647 0
M  V30 2870 H 269.338 1.01303 4.05024 0
M  V30 2871 H 270.728 5.03491 4.44911 0
M  V30 2872 N 273.449 -1.08991 1.13837 0
M  V30 2873 C 274.695 -1.81526 0.90422 0
M  V30 2874 C 275.028 -1.85706 -0.568066 0
M  V30 2875 O 274.303 -1.32855 -1.42056 0
M  V30 2876 C 274.586 -3.27447 1.49835 0
M  V30 2877 C 274.439 -3.31512 3.04006 0
M  V30 2878 C 275.758 -4.24256 1.17025 0
M  V30 2879 H 272.877 -0.659029 0.329923 0
M  V30 2880 H 275.519 -1.27644 1.40737 0
M  V30 2881 H 273.669 -3.73462 1.07044 0
M  V30 2882 H 275.341 -2.93867 3.55584 0
M  V30 2883 H 273.584 -2.70963 3.38765 0
M  V30 2884 H 274.255 -4.34329 3.40679 0
M  V30 2885 H 276.731 -3.86549 1.54009 0
M  V30 2886 H 275.607 -5.24684 1.61237 0
M  V30 2887 H 275.868 -4.42019 0.0846274 0
M  V30 2888 N 274.927 -0.932562 -1.27047 0
M  V30 2889 C 276.338 -0.619451 -1.76124 0
M  V30 2890 C 276.689 0.865397 -1.76083 0
M  V30 2891 O 275.814 1.67722 -1.36742 0
M  V30 2892 C 276.409 -1.11771 -3.19832 0
M  V30 2893 C 274.968 -0.855174 -3.66557 0
M  V30 2894 C 274.115 -1.27362 -2.46321 0
M  V30 2895 H 277.066 -1.11181 -1.13245 0
M  V30 2896 H 277.087 -0.46759 -3.77616 0
M  V30 2897 H 276.599 -2.19842 -3.1983 0
M  V30 2898 H 274.7 0.211524 -3.71999 0
M  V30 2899 H 274.813 -1.47613 -4.55793 0
M  V30 2900 H 273.177 -0.692119 -2.45116 0
M  V30 2901 H 273.96 -2.36307 -2.49025 0
M  V30 2902 N 276.405 1.4127 -0.698611 0
M  V30 2903 C 277.63 2.06024 -0.238512 0
M  V30 2904 C 278.055 1.5224 1.10475 0
M  V30 2905 O 277.413 0.650623 1.69223 0
M  V30 2906 C 277.461 3.59988 -0.209952 0
M  V30 2907 O 276.565 4.04282 0.814235 0
M  V30 2908 H 275.906 0.653829 -0.115775 0
M  V30 2909 H 278.436 1.8098 -0.954326 0
M  V30 2910 H 278.446 4.07979 -0.0418436 0
M  V30 2911 H 277.121 3.98503 -1.1903 0
M  V30 2912 H 275.698 3.6779 0.615234 0
M  V30 2913 N 277.883 0.443576 1.51229 0
M  V30 2914 C 279.131 -0.120557 2.0174 0
M  V30 2915 C 279.452 -1.42665 1.32935 0
M  V30 2916 O 278.722 -1.9028 0.465866 0
M  V30 2917 H 277.302 -0.0475426 0.745486 0
M  V30 2918 H 279.964 0.587711 1.85828 0
M  V30 2919 H 279.06 -0.291972 3.10731 0
M  V30 2920 N 279.361 -1.56624 0.175154 0
M  V30 2921 C 280.308 -2.18149 -0.753634 0
M  V30 2922 C 281.278 -1.12265 -1.22417 0
M  V30 2923 O 282.463 -1.40432 -1.29165 0
M  V30 2924 C 279.603 -2.82933 -1.97592 0
M  V30 2925 C 278.716 -4.03289 -1.5486 0
M  V30 2926 C 277.851 -4.55988 -2.72485 0
M  V30 2927 C 276.89 -5.68746 -2.26262 0
M  V30 2928 N 276.027 -6.15938 -3.36994 0
M  V30 2929 H 280.867 -2.9717 -0.222195 0
M  V30 2930 H 278.404 -1.46774 -0.0979422 0
M  V30 2931 H 280.362 -3.18653 -2.69288 0
M  V30 2932 H 278.992 -2.06509 -2.481 0
M  V30 2933 H 278.044 -3.73364 -0.728246 0
M  V30 2934 H 279.356 -4.849 -1.16933 0
M  V30 2935 H 278.51 -4.9391 -3.52332 0
M  V30 2936 H 277.249 -3.73443 -3.13674 0
M  V30 2937 H 276.254 -5.30372 -1.44863 0
M  V30 2938 H 277.479 -6.53095 -1.86127 0
M  V30 2939 H 275.425 -5.36321 -3.77751 0
M  V30 2940 H 275.342 -6.92548 -3.03172 0
M  V30 2941 H 276.61 -6.58511 -4.17114 0
M  V30 2942 N 280.839 0.0985539 -1.57292 0
M  V30 2943 C 282.088 0.801358 -1.85098 0
M  V30 2944 C 282.401 1.80066 -0.763902 0
M  V30 2945 O 283.607 2.55112 -0.928981 0
M  V30 2946 C 282.063 1.47599 -3.28242 0
M  V30 2947 C 281.671 0.516624 -4.45011 0
M  V30 2948 C 283.415 2.16272 -3.65276 0
M  V30 2949 C 281.322 1.19564 -5.79188 0
M  V30 2950 H 280.252 0.303022 -0.69043 0
M  V30 2951 H 282.903 0.0542623 -1.8342 0
M  V30 2952 H 281.285 2.27042 -3.2445 0
M  V30 2953 H 282.459 -0.246065 -4.60143 0
M  V30 2954 H 280.774 -0.064227 -4.1635 0
M  V30 2955 H 283.371 2.67802 -4.62803 0
M  V30 2956 H 283.714 2.95009 -2.93727 0
M  V30 2957 H 284.247 1.43693 -3.70941 0
M  V30 2958 H 280.986 0.449157 -6.53959 0
M  V30 2959 H 280.506 1.92984 -5.67906 0
M  V30 2960 H 282.185 1.7231 -6.23633 0
M  V30 2961 N 282.317 1.53212 0.369288 0
M  V30 2962 C 283.247 1.82365 1.45826 0
M  V30 2963 C 284.228 0.676907 1.56051 0
M  V30 2964 O 285.413 0.926401 1.70679 0
M  V30 2965 C 282.543 2.01023 2.83208 0
M  V30 2966 C 281.497 3.1678 2.8781 0
M  V30 2967 C 280.823 3.20724 4.27832 0
M  V30 2968 C 282.123 4.55447 2.55667 0
M  V30 2969 H 283.817 2.73559 1.21678 0
M  V30 2970 H 281.363 1.3163 0.583911 0
M  V30 2971 H 283.316 2.20001 3.59413 0
M  V30 2972 H 282.04 1.06536 3.08736 0
M  V30 2973 H 280.699 2.97616 2.14056 0
M  V30 2974 H 280.347 2.23882 4.50429 0
M  V30 2975 H 280.047 3.98496 4.31827 0
M  V30 2976 H 281.571 3.41881 5.05915 0
M  V30 2977 H 282.985 4.74611 3.21586 0
M  V30 2978 H 281.382 5.35432 2.70984 0
M  V30 2979 H 282.452 4.60812 1.5093 0
M  V30 2980 N 283.795 -0.628877 1.44509 0
M  V30 2981 C 284.758 -1.72263 1.51188 0
M  V30 2982 C 285.758 -1.55907 0.39367 0
M  V30 2983 O 286.948 -1.61361 0.656377 0
M  V30 2984 C 284.08 -3.11365 1.38798 0
M  V30 2985 H 285.273 -1.67714 2.4862 0
M  V30 2986 H 282.826 -0.842737 1.31634 0
M  V30 2987 H 283.561 -3.21507 0.424693 0
M  V30 2988 H 283.346 -3.24644 2.19884 0
M  V30 2989 H 284.836 -3.91075 1.46458 0
M  V30 2990 N 285.273 -1.31445 -0.869486 0
M  V30 2991 C 286.519 -1.21337 -1.62496 0
M  V30 2992 C 286.852 0.227872 -1.92858 0
M  V30 2993 O 286.127 1.16094 -1.56053 0
M  V30 2994 C 286.41 -2.05814 -2.95487 0
M  V30 2995 C 286.263 -3.5824 -2.72 0
M  V30 2996 C 287.582 -1.9079 -3.96594 0
M  V30 2997 H 284.701 -0.442135 -0.589649 0
M  V30 2998 H 287.343 -1.6124 -1.00507 0
M  V30 2999 H 285.493 -1.71913 -3.48394 0
M  V30 3000 H 287.165 -4.0228 -2.25762 0
M  V30 3001 H 285.408 -3.81647 -2.06224 0
M  V30 3002 H 286.079 -4.12657 -3.66631 0
M  V30 3003 H 288.555 -2.20459 -3.52898 0
M  V30 3004 H 287.431 -2.52199 -4.87531 0
M  V30 3005 H 287.692 -0.871341 -4.33428 0
M  V30 3006 N 286.751 1.08385 -1.14413 0
M  V30 3007 C 287.698 2.15311 -0.831265 0
M  V30 3008 C 288.668 1.64751 0.211292 0
M  V30 3009 O 289.853 1.90627 0.0811674 0
M  V30 3010 C 286.993 3.43658 -0.315143 0
M  V30 3011 C 286.106 4.08064 -1.41802 0
M  V30 3012 C 285.241 5.24207 -0.859126 0
M  V30 3013 C 284.28 5.80554 -1.93967 0
M  V30 3014 N 283.417 6.88042 -1.39793 0
M  V30 3015 H 288.257 2.41415 -1.74708 0
M  V30 3016 H 285.794 1.18474 -0.871909 0
M  V30 3017 H 287.752 4.172 0.00230884 0
M  V30 3018 H 286.382 3.17839 0.56378 0
M  V30 3019 H 285.434 3.3228 -1.85187 0
M  V30 3020 H 286.746 4.45962 -2.23427 0
M  V30 3021 H 285.9 6.04689 -0.49359 0
M  V30 3022 H 284.639 4.87699 -0.011932 0
M  V30 3023 H 283.644 4.98725 -2.31415 0
M  V30 3024 H 284.869 6.19121 -2.79046 0
M  V30 3025 H 282.815 6.53493 -0.572919 0
M  V30 3026 H 282.732 7.24767 -2.15054 0
M  V30 3027 H 284 7.72255 -1.0603 0
M  V30 3028 N 288.23 0.939286 1.26551 0
M  V30 3029 C 289.476 0.586715 1.94128 0
M  V30 3030 C 289.809 -0.8717 1.73537 0
M  V30 3031 O 289.084 -1.62339 1.07127 0
M  V30 3032 C 289.367 0.927497 3.4795 0
M  V30 3033 C 289.22 2.44052 3.77834 0
M  V30 3034 C 290.539 0.441569 4.37879 0
M  V30 3035 H 287.658 0.21463 0.705055 0
M  V30 3036 H 290.3 1.17316 1.49455 0
M  V30 3037 H 288.45 0.428431 3.8613 0
M  V30 3038 H 290.122 3.01216 3.4938 0
M  V30 3039 H 288.365 2.8848 3.23978 0
M  V30 3040 H 289.036 2.62947 4.85348 0
M  V30 3041 H 291.512 0.869448 4.06915 0
M  V30 3042 H 290.388 0.708856 5.44304 0
M  V30 3043 H 290.649 -0.658467 4.37169 0
M  V30 3044 N 289.708 -1.40897 0.706093 0
M  V30 3045 C 290.957 -2.00284 0.238574 0
M  V30 3046 C 291.27 -1.56604 -1.17194 0
M  V30 3047 O 292.476 -2.08624 -1.73748 0
M  V30 3048 C 290.932 -3.57934 0.375623 0
M  V30 3049 C 290.54 -4.10591 1.79217 0
M  V30 3050 C 292.284 -4.24488 -0.0315857 0
M  V30 3051 C 290.191 -5.60712 1.88032 0
M  V30 3052 H 289.121 -0.749144 0.0854398 0
M  V30 3053 H 291.772 -1.61251 0.875813 0
M  V30 3054 H 290.154 -3.94622 -0.330042 0
M  V30 3055 H 291.328 -3.85301 2.52745 0
M  V30 3056 H 289.643 -3.56601 2.15 0
M  V30 3057 H 292.24 -5.34698 0.0136842 0
M  V30 3058 H 292.583 -4.02261 -1.072 0
M  V30 3059 H 293.116 -3.92873 0.624181 0
M  V30 3060 H 289.855 -5.87781 2.90161 0
M  V30 3061 H 289.375 -5.87896 1.18903 0
M  V30 3062 H 291.054 -6.25658 1.64805 0
M  V30 3063 N 291.186 -0.45159 -1.50991 0
M  V30 3064 C 292.116 0.342898 -2.30969 0
M  V30 3065 C 293.097 1.00815 -1.37005 0
M  V30 3066 O 294.282 1.00907 -1.65926 0
M  V30 3067 C 291.412 1.43637 -3.16205 0
M  V30 3068 C 290.366 0.893818 -4.18563 0
M  V30 3069 C 289.692 2.08411 -4.92411 0
M  V30 3070 C 290.992 -0.0815568 -5.22236 0
M  V30 3071 H 292.686 -0.324556 -2.97636 0
M  V30 3072 H 290.232 -0.157531 -1.43136 0
M  V30 3073 H 292.185 1.9995 -3.70942 0
M  V30 3074 H 290.909 2.13232 -2.47386 0
M  V30 3075 H 289.568 0.352798 -3.64898 0
M  V30 3076 H 289.216 2.76658 -4.20082 0
M  V30 3077 H 288.916 1.72741 -5.61636 0
M  V30 3078 H 290.44 2.65251 -5.49976 0
M  V30 3079 H 291.854 0.391742 -5.7196 0
M  V30 3080 H 290.251 -0.351551 -5.99069 0
M  V30 3081 H 291.321 -1.01374 -4.74185 0
M  V30 3082 N 292.664 1.56529 -0.183458 0
M  V30 3083 C 293.594 2.21549 0.737456 0
M  V30 3084 C 294.575 1.17489 1.23005 0
M  V30 3085 O 295.76 1.45959 1.281 0
M  V30 3086 C 292.89 2.86575 1.96194 0
M  V30 3087 C 291.844 3.96778 1.60473 0
M  V30 3088 C 291.17 4.48911 2.90487 0
M  V30 3089 C 292.47 5.15767 0.823497 0
M  V30 3090 H 294.164 2.98761 0.195453 0
M  V30 3091 H 291.71 1.43702 0.0925686 0
M  V30 3092 H 293.663 3.30739 2.61131 0
M  V30 3093 H 292.387 2.06749 2.52828 0
M  V30 3094 H 291.046 3.53286 0.978997 0
M  V30 3095 H 290.694 3.65862 3.45186 0
M  V30 3096 H 290.394 5.23265 2.67335 0
M  V30 3097 H 291.918 4.95771 3.56432 0
M  V30 3098 H 293.332 5.56549 1.37571 0
M  V30 3099 H 291.729 5.96114 0.690551 0
M  V30 3100 H 292.799 4.84574 -0.177782 0
M  V30 3101 N 294.142 -0.090211 1.57342 0
M  V30 3102 C 295.419 -0.824761 1.77361 0
M  V30 3103 C 295.799 -1.96698 0.76637 0
M  V30 3104 O 295.147 -2.27586 -0.204179 0
M  V30 3105 C 295.357 -1.31481 3.23286 0
M  V30 3106 C 296.705 -1.75563 3.86604 0
M  V30 3107 O 297.729 -1.41093 3.27065 0
M  V30 3108 O 296.588 -2.39317 4.91314 0
M  V30 3109 H 293.682 -0.393776 0.727234 0
M  V30 3110 H 296.228 -0.0717138 1.69548 0
M  V30 3111 H 295 -0.496671 3.88135 0
M  V30 3112 H 294.623 -2.12973 3.35751 0
M  V30 3113 N 295.62 -1.53406 -0.361157 0
M  V30 3114 C 296.869 -1.69022 -1.10066 0
M  V30 3115 C 297.182 -0.450838 -1.90333 0
M  V30 3116 O 298.388 -0.487617 -2.67085 0
M  V30 3117 C 296.844 -2.98812 -2.00598 0
M  V30 3118 C 296.452 -4.30027 -1.25621 0
M  V30 3119 C 298.196 -3.23795 -2.74513 0
M  V30 3120 C 296.103 -5.50903 -2.1508 0
M  V30 3121 H 295.033 -0.629776 -0.414606 0
M  V30 3122 H 297.684 -1.79907 -0.361348 0
M  V30 3123 H 296.066 -2.8174 -2.78278 0
M  V30 3124 H 297.24 -4.57745 -0.529739 0
M  V30 3125 H 295.555 -4.11522 -0.635496 0
M  V30 3126 H 298.152 -4.11289 -3.41681 0
M  V30 3127 H 298.495 -2.40045 -3.40123 0
M  V30 3128 H 299.028 -3.41561 -2.03914 0
M  V30 3129 H 295.767 -6.37143 -1.54041 0
M  V30 3130 H 295.287 -5.27459 -2.85565 0
M  V30 3131 H 296.966 -5.85865 -2.74538 0
M  V30 3132 N 297.098 0.621204 -1.44841 0
M  V30 3133 C 298.326 1.40752 -1.51646 0
M  V30 3134 C 298.741 1.88246 -0.144549 0
M  V30 3135 O 298.098 1.61422 0.851416 0
M  V30 3136 C 298.149 2.62119 -2.4895 0
M  V30 3137 O 297.87 2.16602 -3.80808 0
M  V30 3138 C 299.371 3.55135 -2.65319 0
M  V30 3139 H 296.591 0.431325 -0.514004 0
M  V30 3140 H 299.135 0.758835 -1.899 0
M  V30 3141 H 297.29 3.23058 -2.13805 0
M  V30 3142 H 297.704 2.95358 -4.33433 0
M  V30 3143 H 299.178 4.36874 -3.37409 0
M  V30 3144 H 299.655 4.04592 -1.70886 0
M  V30 3145 H 300.261 3.00058 -3.01405 0
M  V30 3146 N 298.576 1.31904 0.862503 0
M  V30 3147 C 299.506 1.22782 1.98612 0
M  V30 3148 C 300.487 0.113362 1.69722 0
M  V30 3149 O 301.672 0.299218 1.91881 0
M  V30 3150 C 298.802 0.942058 3.34279 0
M  V30 3151 C 297.756 2.0169 3.77499 0
M  V30 3152 C 297.082 1.58369 5.10709 0
M  V30 3153 C 298.382 3.43096 3.93805 0
M  V30 3154 H 300.076 2.16788 2.06502 0
M  V30 3155 H 297.622 1.04366 0.992154 0
M  V30 3156 H 299.575 0.864818 4.1243 0
M  V30 3157 H 298.299 -0.0336603 3.26583 0
M  V30 3158 H 296.958 2.08416 3.01593 0
M  V30 3159 H 296.606 0.595628 4.99461 0
M  V30 3160 H 296.306 2.30279 5.40597 0
M  V30 3161 H 297.83 1.52067 5.91361 0
M  V30 3162 H 299.244 3.39003 4.62331 0
M  V30 3163 H 297.641 4.13288 4.35101 0
M  V30 3164 H 298.711 3.83334 2.96957 0
M  V30 3165 N 300.054 -1.07777 1.14986 0
M  V30 3166 C 300.964 -2.18404 0.856546 0
M  V30 3167 C 301.98 -1.73211 -0.165485 0
M  V30 3168 O 303.156 -2.01399 0.00755219 0
M  V30 3169 C 300.221 -3.44977 0.34526 0
M  V30 3170 C 299.282 -4.0476 1.43065 0
M  V30 3171 C 298.515 -5.25291 0.943663 0
M  V30 3172 O 298.738 -5.70004 -0.212426 0
M  V30 3173 O 297.672 -5.76638 1.72547 0
M  V30 3174 H 301.498 -2.45978 1.78125 0
M  V30 3175 H 299.083 -1.17033 0.928631 0
M  V30 3176 H 300.965 -4.21348 0.0663671 0
M  V30 3177 H 299.64 -3.18965 -0.551631 0
M  V30 3178 H 298.547 -3.29949 1.76309 0
M  V30 3179 H 299.88 -4.35035 2.30229 0
M  V30 3180 N 301.532 -0.945985 -1.26051 0
M  V30 3181 C 302.462 -0.477172 -2.28572 0
M  V30 3182 C 303.443 0.472032 -1.63419 0
M  V30 3183 O 304.628 0.372853 -1.90587 0
M  V30 3184 C 301.758 0.253975 -3.4637 0
M  V30 3185 C 300.712 -0.609135 -4.23643 0
M  V30 3186 C 300.038 0.252252 -5.34105 0
M  V30 3187 C 301.338 -1.8829 -4.8718 0
M  V30 3188 H 303.032 -1.33402 -2.68038 0
M  V30 3189 H 300.578 -0.642904 -1.28852 0
M  V30 3190 H 302.531 0.593016 -4.17207 0
M  V30 3191 H 301.255 1.145 -3.05871 0
M  V30 3192 H 299.914 -0.931138 -3.54578 0
M  V30 3193 H 299.562 1.14278 -4.89846 0
M  V30 3194 H 299.262 -0.32188 -5.86718 0
M  V30 3195 H 300.786 0.586454 -6.07777 0
M  V30 3196 H 302.2 -1.61081 -5.50205 0
M  V30 3197 H 300.597 -2.40199 -5.49931 0
M  V30 3198 H 301.667 -2.59134 -4.09851 0
M  V30 3199 N 303.011 1.40521 -0.713556 0
M  V30 3200 C 303.943 2.29191 -0.0203126 0
M  V30 3201 C 304.956 1.45723 0.725864 0
M  V30 3202 O 306.145 1.69033 0.573581 0
M  V30 3203 C 303.245 3.2395 0.995486 0
M  V30 3204 C 302.418 4.36262 0.315256 0
M  V30 3205 C 301.477 5.11474 1.23616 0
M  V30 3206 O 300.503 5.64606 0.721719 0
M  V30 3207 N 301.705 5.20638 2.56743 0
M  V30 3208 H 304.47 2.89327 -0.781652 0
M  V30 3209 H 302.031 1.51869 -0.561022 0
M  V30 3210 H 304.023 3.71137 1.61368 0
M  V30 3211 H 302.593 2.64995 1.6582 0
M  V30 3212 H 301.813 3.91228 -0.483106 0
M  V30 3213 H 303.101 5.08558 -0.157004 0
M  V30 3214 H 302.499 4.7895 3.01037 0
M  V30 3215 H 301.056 5.71339 3.13712 0
M  V30 3216 N 304.489 0.459591 1.5075 0
M  V30 3217 C 305.436 -0.340524 2.28274 0
M  V30 3218 C 306.406 -0.997371 1.32822 0
M  V30 3219 O 307.591 -1.01202 1.61749 0
M  V30 3220 C 304.731 -1.42317 3.14388 0
M  V30 3221 C 303.844 -0.782251 4.24859 0
M  V30 3222 C 302.979 -1.84182 4.98247 0
M  V30 3223 C 302.018 -1.18053 6.00608 0
M  V30 3224 N 301.155 -2.18244 6.67319 0
M  V30 3225 H 305.995 0.326899 2.96202 0
M  V30 3226 H 303.532 0.173057 1.46078 0
M  V30 3227 H 305.49 -2.06241 3.62658 0
M  V30 3228 H 304.12 -2.05992 2.4853 0
M  V30 3229 H 303.172 -0.0307404 3.80388 0
M  V30 3230 H 304.484 -0.259663 4.98124 0
M  V30 3231 H 303.638 -2.55714 5.50177 0
M  V30 3232 H 302.377 -2.39819 4.24662 0
M  V30 3233 H 301.382 -0.450776 5.47949 0
M  V30 3234 H 302.607 -0.631202 6.7616 0
M  V30 3235 H 300.553 -2.72919 5.96533 0
M  V30 3236 H 300.47 -1.70938 7.36421 0
M  V30 3237 H 301.738 -2.89191 7.23871 0
M  V30 3238 N 305.967 -1.56429 0.191757 0
M  V30 3239 C 306.899 -2.16154 -0.762245 0
M  V30 3240 C 307.912 -1.12247 -1.17917 0
M  V30 3241 O 309.101 -1.39353 -1.11548 0
M  V30 3242 C 306.201 -2.70606 -2.04024 0
M  V30 3243 C 305.374 -3.99381 -1.78364 0
M  V30 3244 C 304.433 -4.38692 -2.90578 0
M  V30 3245 O 303.459 -5.06179 -2.6033 0
M  V30 3246 N 304.661 -4.01922 -4.18854 0
M  V30 3247 H 307.426 -2.98643 -0.251526 0
M  V30 3248 H 304.987 -1.61897 0.00967373 0
M  V30 3249 H 306.979 -2.93891 -2.78227 0
M  V30 3250 H 305.549 -1.9259 -2.46227 0
M  V30 3251 H 304.769 -3.84262 -0.879581 0
M  V30 3252 H 306.057 -4.83445 -1.58614 0
M  V30 3253 H 305.455 -3.47631 -4.46283 0
M  V30 3254 H 304.012 -4.30165 -4.89695 0
M  V30 3255 N 307.445 0.0818655 -1.57387 0
M  V30 3256 C 308.694 0.781681 -1.85937 0
M  V30 3257 C 309.007 1.79246 -0.782957 0
M  V30 3258 O 310.213 2.54112 -0.955987 0
M  V30 3259 C 308.669 1.44109 -3.29789 0
M  V30 3260 C 308.277 0.469396 -4.45534 0
M  V30 3261 C 310.021 2.12386 -3.67549 0
M  V30 3262 C 307.928 1.13415 -5.80423 0
M  V30 3263 H 306.858 0.295682 -0.693605 0
M  V30 3264 H 309.509 0.0348051 -1.83467 0
M  V30 3265 H 307.891 2.23588 -3.2684 0
M  V30 3266 H 309.065 -0.294856 -4.59856 0
M  V30 3267 H 307.38 -0.108383 -4.16259 0
M  V30 3268 H 309.977 2.62878 -4.65617 0
M  V30 3269 H 310.32 2.91877 -2.96839 0
M  V30 3270 H 310.853 1.39751 -3.72444 0
M  V30 3271 H 307.592 0.379771 -6.54399 0
M  V30 3272 H 307.112 1.8695 -5.69921 0
M  V30 3273 H 308.791 1.65686 -6.25426 0
M  V30 3274 N 308.923 1.53595 0.353017 0
M  V30 3275 C 309.856 1.7572 1.45594 0
M  V30 3276 C 310.834 0.605961 1.50887 0
M  V30 3277 O 312.018 0.840023 1.68748 0
M  V30 3278 C 309.145 1.84732 2.83887 0
M  V30 3279 C 308.191 3.06808 2.96262 0
M  V30 3280 S 309.024 4.66065 2.63711 0
M  V30 3281 C 310.18 4.77943 4.04131 0
M  V30 3282 H 310.413 2.68994 1.26608 0
M  V30 3283 H 307.946 1.44343 0.548117 0
M  V30 3284 H 309.904 1.9061 3.63563 0
M  V30 3285 H 308.565 0.92488 3.00175 0
M  V30 3286 H 307.758 3.09761 3.97573 0
M  V30 3287 H 307.36 2.99108 2.24523 0
M  V30 3288 H 309.652 4.5877 4.98534 0
M  V30 3289 H 310.595 5.80022 4.06177 0
M  V30 3290 H 311.003 4.06472 3.91715 0
M  V30 3291 N 310.401 -0.613514 1.45168 0
M  V30 3292 C 311.626 -1.40437 1.52618 0
M  V30 3293 C 312.051 -1.87438 0.157707 0
M  V30 3294 O 311.409 -1.59791 -0.856537 0
M  V30 3295 C 311.457 -2.58894 2.51011 0
M  V30 3296 O 310.561 -3.59326 2.02382 0
M  V30 3297 H 309.902 -0.419506 0.514695 0
M  V30 3298 H 312.432 -0.747215 1.90467 0
M  V30 3299 H 312.442 -3.06214 2.69624 0
M  V30 3300 H 311.117 -2.24032 3.50403 0
M  V30 3301 H 309.694 -3.18695 1.93618 0
M  V30 3302 N 311.879 -1.3236 -0.855495 0
M  V30 3303 C 312.789 -1.23221 -1.99634 0
M  V30 3304 C 313.805 -0.145983 -1.73387 0
M  V30 3305 O 314.981 -0.366502 -1.98037 0
M  V30 3306 C 312.046 -0.954782 -3.33294 0
M  V30 3307 C 311.107 -2.12937 -3.72769 0
M  V30 3308 C 310.34 -1.86508 -5.00051 0
M  V30 3309 O 310.563 -0.807231 -5.64659 0
M  V30 3310 O 309.497 -2.72591 -5.36636 0
M  V30 3311 H 313.323 -2.19126 -2.1028 0
M  V30 3312 H 310.908 -1.12241 -0.986018 0
M  V30 3313 H 312.79 -0.816519 -4.13414 0
M  V30 3314 H 311.465 -0.0258854 -3.2369 0
M  V30 3315 H 310.372 -2.3231 -2.93228 0
M  V30 3316 H 311.705 -3.04102 -3.87018 0
M  V30 3317 N 313.357 1.07166 -1.15556 0
M  V30 3318 C 314.287 2.16403 -0.877046 0
M  V30 3319 C 315.268 1.69217 0.173111 0
M  V30 3320 O 316.453 1.94181 0.027084 0
M  V30 3321 C 313.583 3.45349 -0.367632 0
M  V30 3322 C 312.537 4.05995 -1.35468 0
M  V30 3323 C 311.863 5.30045 -0.704038 0
M  V30 3324 C 313.163 4.45804 -2.72132 0
M  V30 3325 H 314.857 2.39959 -1.79053 0
M  V30 3326 H 312.403 1.15325 -0.862331 0
M  V30 3327 H 314.356 4.21095 -0.160317 0
M  V30 3328 H 313.08 3.21385 0.581326 0
M  V30 3329 H 311.739 3.32296 -1.54839 0
M  V30 3330 H 311.387 5.02373 0.251128 0
M  V30 3331 H 311.087 5.71579 -1.36277 0
M  V30 3332 H 312.611 6.08495 -0.50654 0
M  V30 3333 H 314.025 5.12671 -2.56595 0
M  V30 3334 H 312.422 4.98296 -3.34397 0
M  V30 3335 H 313.492 3.57083 -3.28054 0
M  V30 3336 N 314.835 0.952656 1.25548 0
M  V30 3337 C 315.745 0.47782 2.29682 0
M  V30 3338 C 316.761 -0.453859 1.67977 0
M  V30 3339 O 317.937 -0.330587 1.98668 0
M  V30 3340 C 315.002 -0.238655 3.45878 0
M  V30 3341 C 314.063 0.730994 4.23031 0
M  V30 3342 C 313.296 0.0486165 5.33678 0
M  V30 3343 O 313.519 -1.16612 5.58353 0
M  V30 3344 O 312.453 0.733152 5.97418 0
M  V30 3345 H 316.279 1.34312 2.72386 0
M  V30 3346 H 313.864 0.719026 1.30959 0
M  V30 3347 H 315.746 -0.641774 4.16484 0
M  V30 3348 H 314.421 -1.07916 3.05181 0
M  V30 3349 H 313.328 1.18428 3.5486 0
M  V30 3350 H 314.661 1.53946 4.67506 0
M  V30 3351 N 316.313 -1.40141 0.720998 0
M  V30 3352 C 317.562 -2.0002 0.259804 0
M  V30 3353 C 317.875 -1.57839 -1.15526 0
M  V30 3354 O 319.081 -2.10455 -1.71525 0
M  V30 3355 C 317.537 -3.57516 0.413566 0
M  V30 3356 C 317.145 -4.08667 1.83562 0
M  V30 3357 C 318.889 -4.24498 0.0134387 0
M  V30 3358 C 316.796 -5.58686 1.93968 0
M  V30 3359 H 315.726 -0.748195 0.0933806 0
M  V30 3360 H 318.377 -1.60313 0.892866 0
M  V30 3361 H 316.759 -3.9495 -0.288169 0
M  V30 3362 H 317.933 -3.82598 2.56817 0
M  V30 3363 H 316.248 -3.543 2.1877 0
M  V30 3364 H 318.845 -5.34654 0.0703954 0
M  V30 3365 H 319.188 -4.03375 -1.02927 0
M  V30 3366 H 319.721 -3.92188 0.665815 0
M  V30 3367 H 316.46 -5.8467 2.96379 0
M  V30 3368 H 315.98 -5.86602 1.25131 0
M  V30 3369 H 317.659 -6.23875 1.71431 0
M  V30 3370 N 317.792 -0.46758 -1.50504 0
M  V30 3371 C 318.722 0.318381 -2.31319 0
M  V30 3372 C 319.703 0.993564 -1.38066 0
M  V30 3373 O 320.888 0.991411 -1.66987 0
M  V30 3374 C 318.018 1.40275 -3.17711 0
M  V30 3375 C 316.972 0.849373 -4.19487 0
M  V30 3376 C 316.298 2.03177 -4.94594 0
M  V30 3377 C 317.598 -0.136942 -5.2212 0
M  V30 3378 H 319.292 -0.356106 -2.97275 0
M  V30 3379 H 316.838 -0.172703 -1.42961 0
M  V30 3380 H 318.791 1.96004 -3.73042 0
M  V30 3381 H 317.515 2.10596 -2.49634 0
M  V30 3382 H 316.174 0.314076 -3.65252 0
M  V30 3383 H 315.822 2.72187 -4.22993 0
M  V30 3384 H 315.522 1.66774 -5.63436 0
M  V30 3385 H 317.046 2.59403 -5.52759 0
M  V30 3386 H 318.46 0.331056 -5.72343 0
M  V30 3387 H 316.857 -0.41507 -5.98663 0
M  V30 3388 H 317.927 -1.06398 -4.73083 0
M  V30 3389 N 319.27 1.56325 -0.20005 0
M  V30 3390 C 320.5 2.01811 0.442232 0
M  V30 3391 C 320.908 1.07932 1.55394 0
M  V30 3392 O 320.251 0.0772685 1.83537 0
M  V30 3393 C 320.313 3.43685 1.05457 0
M  V30 3394 C 319.977 4.56928 0.0809833 0
M  V30 3395 C 320.974 5.15009 -0.711471 0
M  V30 3396 C 318.659 5.0229 -0.0315364 0
M  V30 3397 C 320.653 6.16904 -1.60336 0
M  V30 3398 C 318.34 6.04028 -0.926981 0
M  V30 3399 C 319.338 6.6121 -1.71146 0
M  V30 3400 O 319.026 7.60971 -2.59189 0
M  V30 3401 H 318.758 0.666173 0.114848 0
M  V30 3402 H 321.312 2.03085 -0.307511 0
M  V30 3403 H 319.542 3.39413 1.85299 0
M  V30 3404 H 321.231 3.72948 1.60201 0
M  V30 3405 H 321.997 4.80827 -0.634873 0
M  V30 3406 H 317.876 4.57476 0.568902 0
M  V30 3407 H 321.42 6.61464 -2.21611 0
M  V30 3408 H 317.317 6.37634 -1.00468 0
M  V30 3409 H 318.085 7.7841 -2.53023 0
M  V30 3410 N 320.748 -0.0735177 1.57428 0
M  V30 3411 C 321.695 -1.08756 2.0357 0
M  V30 3412 C 322.665 -1.38559 0.916 0
M  V30 3413 O 323.85 -1.49656 1.18354 0
M  V30 3414 C 320.99 -2.39657 2.48311 0
M  V30 3415 C 320.103 -2.16399 3.73892 0
M  V30 3416 C 319.238 -3.40852 4.07423 0
M  V30 3417 C 318.277 -3.1295 5.2605 0
M  V30 3418 N 317.414 -4.29729 5.55228 0
M  V30 3419 H 322.254 -0.687104 2.8997 0
M  V30 3420 H 319.791 -0.327709 1.43403 0
M  V30 3421 H 321.749 -3.16081 2.72303 0
M  V30 3422 H 320.379 -2.77508 1.64891 0
M  V30 3423 H 319.431 -1.30676 3.57251 0
M  V30 3424 H 320.743 -1.91788 4.60455 0
M  V30 3425 H 319.897 -4.25671 4.32306 0
M  V30 3426 H 318.636 -3.68537 3.19425 0
M  V30 3427 H 317.641 -2.26526 5.00965 0
M  V30 3428 H 318.866 -2.86589 6.15665 0
M  V30 3429 H 316.812 -4.57448 4.70188 0
M  V30 3430 H 316.729 -4.08385 6.36206 0
M  V30 3431 H 317.997 -5.1555 5.84661 0
M  V30 3432 N 322.226 -1.5378 -0.344866 0
M  V30 3433 C 323.466 -1.72677 -1.09371 0
M  V30 3434 C 323.83 -0.479084 -1.85927 0
M  V30 3435 O 325.031 -0.54505 -2.63216 0
M  V30 3436 C 323.302 -2.95457 -2.01097 0
M  V30 3437 S 324.861 -3.35158 -2.83222 0
M  V30 3438 H 321.679 -0.607402 -0.369573 0
M  V30 3439 H 324.281 -1.91922 -0.372307 0
M  V30 3440 H 322.985 -3.84437 -1.43655 0
M  V30 3441 H 322.516 -2.78673 -2.77678 0
M  V30 3442 H 324.531 -2.88789 -4.03504 0
M  V30 3443 N 323.704 0.605807 -1.45491 0
M  V30 3444 C 324.981 1.36522 -1.40075 0
M  V30 3445 C 325.361 2.10976 -0.0722744 0
M  V30 3446 O 324.709 2.08007 0.945808 0
M  V30 3447 C 324.919 2.31056 -2.61561 0
M  V30 3448 C 326.267 2.93608 -3.06724 0
M  V30 3449 O 327.291 2.41376 -2.61946 0
M  V30 3450 O 326.15 3.88421 -3.84437 0
M  V30 3451 H 323.244 0.612248 -0.555951 0
M  V30 3452 H 325.79 0.628747 -1.57623 0
M  V30 3453 H 324.562 1.75311 -3.49831 0
M  V30 3454 H 324.185 3.12081 -2.46356 0
M  V30 3455 N 325.182 1.32811 0.848464 0
M  V30 3456 C 326.407 1.26882 1.6406 0
M  V30 3457 C 326.832 -0.15913 1.87426 0
M  V30 3458 O 326.19 -1.11258 1.43148 0
M  V30 3459 C 326.238 2.03997 2.97351 0
M  V30 3460 O 325.342 1.39201 3.88197 0
M  V30 3461 H 324.683 0.436982 0.499943 0
M  V30 3462 H 327.213 1.75224 1.0563 0
M  V30 3463 H 327.223 2.14403 3.47124 0
M  V30 3464 H 325.898 3.0783 2.79666 0
M  V30 3465 H 324.475 1.37381 3.46671 0
M  V30 3466 N 326.66 -1.06551 1.16123 0
M  V30 3467 C 327.885 -1.83544 0.965735 0
M  V30 3468 C 328.31 -1.81843 -0.481102 0
M  V30 3469 O 327.668 -1.21732 -1.34354 0
M  V30 3470 C 327.716 -3.28169 1.49457 0
M  V30 3471 O 326.82 -4.0643 0.699157 0
M  V30 3472 H 326.161 -0.568026 0.343864 0
M  V30 3473 H 328.691 -1.34362 1.54299 0
M  V30 3474 H 328.701 -3.78992 1.51092 0
M  V30 3475 H 327.376 -3.28722 2.54784 0
M  V30 3476 H 325.953 -3.65216 0.7531 0
M  V30 3477 N 328.138 -0.959301 -1.25041 0
M  V30 3478 C 329.368 -0.63303 -1.96663 0
M  V30 3479 C 329.776 0.800031 -1.71453 0
M  V30 3480 O 329.119 1.54736 -0.99008 0
M  V30 3481 C 329.181 -0.817523 -3.50081 0
M  V30 3482 C 328.845 -2.22863 -3.98975 0
M  V30 3483 C 329.842 -3.20569 -4.09306 0
M  V30 3484 C 327.527 -2.55407 -4.32519 0
M  V30 3485 C 329.521 -4.4891 -4.52503 0
M  V30 3486 C 327.208 -3.83976 -4.754 0
M  V30 3487 C 328.206 -4.8054 -4.85356 0
M  V30 3488 O 327.894 -6.06817 -5.27284 0
M  V30 3489 H 327.626 -0.235866 -0.633516 0
M  V30 3490 H 330.18 -1.2874 -1.60047 0
M  V30 3491 H 328.41 -0.105992 -3.86555 0
M  V30 3492 H 330.099 -0.491604 -4.02912 0
M  V30 3493 H 330.865 -2.96753 -3.83618 0
M  V30 3494 H 326.744 -1.8097 -4.23994 0
M  V30 3495 H 330.288 -5.24283 -4.60188 0
M  V30 3496 H 326.185 -4.07596 -5.00535 0
M  V30 3497 H 326.953 -6.10262 -5.45457 0
M  V30 3498 N 329.616 1.39756 -0.72842 0
M  V30 3499 C 330.865 1.99879 -0.270407 0
M  V30 3500 C 331.178 1.58449 1.14688 0
M  V30 3501 O 332.384 2.11362 1.70407 0
M  V30 3502 C 330.84 3.57292 -0.43252 0
M  V30 3503 C 330.448 4.07688 -1.85727 0
M  V30 3504 C 332.192 4.24485 -0.0359507 0
M  V30 3505 C 330.099 5.5765 -1.96928 0
M  V30 3506 H 329.029 0.747689 -0.0973472 0
M  V30 3507 H 331.68 1.59837 -0.901355 0
M  V30 3508 H 330.062 3.95097 0.267219 0
M  V30 3509 H 331.236 3.81231 -2.58843 0
M  V30 3510 H 329.551 3.53135 -2.20646 0
M  V30 3511 H 332.148 5.34609 -0.0987484 0
M  V30 3512 H 332.491 4.03915 1.00787 0
M  V30 3513 H 333.024 3.9183 -0.686604 0
M  V30 3514 H 329.763 5.8309 -2.99476 0
M  V30 3515 H 329.283 5.8593 -1.28241 0
M  V30 3516 H 330.962 6.22957 -1.74737 0
M  V30 3517 N 331.094 0.475555 1.50254 0
M  V30 3518 C 332.343 -0.0795996 2.01543 0
M  V30 3519 C 332.656 -1.4038 1.36209 0
M  V30 3520 O 333.862 -2.04415 1.7868 0
M  V30 3521 C 332.318 -0.192363 3.59386 0
M  V30 3522 C 331.926 1.12367 4.33679 0
M  V30 3523 C 333.67 -0.699238 4.18701 0
M  V30 3524 C 331.577 0.974453 5.83317 0
M  V30 3525 H 330.507 -0.0335228 0.753254 0
M  V30 3526 H 333.158 0.611128 1.73025 0
M  V30 3527 H 331.54 -0.946974 3.84511 0
M  V30 3528 H 332.714 1.88958 4.20276 0
M  V30 3529 H 331.029 1.562 3.85993 0
M  V30 3530 H 333.626 -0.827978 5.28251 0
M  V30 3531 H 333.969 -1.69171 3.80377 0
M  V30 3532 H 334.502 -0.00188807 3.978 0
M  V30 3533 H 331.241 1.94042 6.26121 0
M  V30 3534 H 330.761 0.248998 5.99283 0
M  V30 3535 H 332.44 0.642867 6.43798 0
M  V30 3536 N 332.573 -1.56217 0.208337 0
M  V30 3537 C 333.821 -1.97558 -0.426076 0
M  V30 3538 C 334.142 -1.09683 -1.61229 0
M  V30 3539 O 333.412 -0.170956 -1.95153 0
M  V30 3540 H 331.992 -0.729575 -0.160405 0
M  V30 3541 H 334.654 -1.92606 0.298155 0
M  V30 3542 H 333.75 -3.02672 -0.761312 0
M  V30 3543 N 334.051 0.0651679 -1.57465 0
M  V30 3544 C 335.298 0.763063 -1.87573 0
M  V30 3545 C 335.626 1.77242 -0.800961 0
M  V30 3546 O 334.881 1.94651 0.202316 0
M  V30 3547 C 335.18 1.50081 -3.24362 0
M  V30 3548 C 334.846 0.630816 -4.46466 0
M  V30 3549 C 333.508 0.391082 -4.79608 0
M  V30 3550 C 335.86 0.0279465 -5.21193 0
M  V30 3551 C 333.188 -0.460894 -5.84887 0
M  V30 3552 C 335.54 -0.811522 -6.27373 0
M  V30 3553 C 334.204 -1.06106 -6.59013 0
M  V30 3554 H 333.474 0.279224 -0.686378 0
M  V30 3555 H 336.121 0.0236726 -1.91485 0
M  V30 3556 H 334.426 2.31258 -3.16271 0
M  V30 3557 H 336.123 2.04571 -3.44894 0
M  V30 3558 H 332.713 0.8278 -4.2053 0
M  V30 3559 H 336.897 0.200262 -4.95896 0
M  V30 3560 H 332.153 -0.662907 -6.07796 0
M  V30 3561 H 336.327 -1.28537 -6.84435 0
M  V30 3562 H 333.954 -1.723 -7.40417 0
M  V30 3563 N 335.529 1.53961 0.336706 0
M  V30 3564 C 336.759 1.75229 1.09446 0
M  V30 3565 C 337.167 0.494602 1.82621 0
M  V30 3566 O 336.51 -0.543764 1.75468 0
M  V30 3567 C 336.572 2.88288 2.1478 0
M  V30 3568 C 336.236 4.27656 1.6112 0
M  V30 3569 C 337.233 5.08981 1.0599 0
M  V30 3570 C 334.918 4.74161 1.6576 0
M  V30 3571 C 336.912 6.34916 0.562129 0
M  V30 3572 C 334.599 6.00067 1.15595 0
M  V30 3573 C 335.597 6.80278 0.609147 0
M  V30 3574 O 335.285 8.03818 0.114999 0
M  V30 3575 H 335.017 0.588881 0.331956 0
M  V30 3576 H 337.571 2.01614 0.392566 0
M  V30 3577 H 335.801 2.57443 2.88548 0
M  V30 3578 H 337.49 2.97461 2.76174 0
M  V30 3579 H 338.256 4.74213 1.01722 0
M  V30 3580 H 334.135 4.11781 2.07261 0
M  V30 3581 H 337.679 6.9747 0.134668 0
M  V30 3582 H 333.576 6.3433 1.19566 0
M  V30 3583 H 334.344 8.18172 0.231651 0
M  V30 3584 N 337.007 -0.598083 1.45811 0
M  V30 3585 C 338.255 -1.35413 1.50026 0
M  V30 3586 C 338.576 -1.94444 0.147177 0
M  V30 3587 O 337.846 -1.77701 -0.824571 0
M  V30 3588 H 336.426 -0.502727 0.552517 0
M  V30 3589 H 339.088 -0.701606 1.81834 0
M  V30 3590 H 338.184 -2.16871 2.2444 0
M  V30 3591 N 338.485 -1.33259 -0.841409 0
M  V30 3592 C 339.448 -1.23221 -1.9326 0
M  V30 3593 C 340.448 -0.151895 -1.60081 0
M  V30 3594 O 341.638 -0.403246 -1.69468 0
M  V30 3595 C 338.77 -0.898123 -3.28856 0
M  V30 3596 H 339.963 -2.2021 -2.03587 0
M  V30 3597 H 337.516 -1.17281 -1.03319 0
M  V30 3598 H 338.251 0.0693841 -3.24226 0
M  V30 3599 H 338.036 -1.67934 -3.54317 0
M  V30 3600 H 339.526 -0.852563 -4.08805 0
M  V30 3601 N 339.963 1.05934 -1.16686 0
M  V30 3602 C 341.21 1.788 -0.950622 0
M  V30 3603 C 341.538 1.87384 0.521305 0
M  V30 3604 O 340.793 1.36438 1.40297 0
M  V30 3605 C 341.092 3.23105 -1.52767 0
M  V30 3606 C 340.758 3.34594 -3.02254 0
M  V30 3607 C 339.42 3.37437 -3.43059 0
M  V30 3608 C 341.772 3.36219 -3.98254 0
M  V30 3609 C 339.1 3.39525 -4.78477 0
M  V30 3610 C 341.452 3.39845 -5.33562 0
M  V30 3611 C 340.116 3.40971 -5.73842 0
M  V30 3612 H 339.386 0.654275 -0.347857 0
M  V30 3613 H 342.033 1.24555 -1.45459 0
M  V30 3614 H 340.338 3.80227 -0.94524 0
M  V30 3615 H 342.035 3.7809 -1.336 0
M  V30 3616 H 338.625 3.3309 -2.6972 0
M  V30 3617 H 342.809 3.33231 -3.67792 0
M  V30 3618 H 338.065 3.38703 -5.09009 0
M  V30 3619 H 342.239 3.4005 -6.07733 0
M  V30 3620 H 339.866 3.42342 -6.78753 0
M  V30 3621 N 341.441 0.965919 1.2453 0
M  V30 3622 C 342.688 0.626831 1.92554 0
M  V30 3623 C 343.016 -0.837739 1.75534 0
M  V30 3624 O 342.271 -1.61793 1.10098 0
M  V30 3625 C 342.57 0.945428 3.44669 0
M  V30 3626 C 342.236 2.39785 3.81856 0
M  V30 3627 C 340.898 2.79483 3.91718 0
M  V30 3628 C 343.25 3.34055 4.00071 0
M  V30 3629 C 340.578 4.12496 4.1721 0
M  V30 3630 C 342.93 4.66694 4.27059 0
M  V30 3631 C 341.594 5.06172 4.3514 0
M  V30 3632 H 340.864 0.229374 0.704605 0
M  V30 3633 H 343.511 1.21707 1.4785 0
M  V30 3634 H 341.816 0.272926 3.90848 0
M  V30 3635 H 343.513 0.661484 3.95507 0
M  V30 3636 H 340.103 2.08003 3.74743 0
M  V30 3637 H 344.287 3.04571 3.91855 0
M  V30 3638 H 339.543 4.42709 4.21685 0
M  V30 3639 H 343.717 5.3971 4.40097 0
M  V30 3640 H 341.344 6.09262 4.54646 0
M  V30 3641 N 342.919 -1.39368 0.735821 0
M  V30 3642 C 344.165 -2.00794 0.284544 0
M  V30 3643 C 344.498 -1.58255 -1.12557 0
M  V30 3644 O 343.773 -0.811819 -1.76748 0
M  V30 3645 C 344.056 -3.58011 0.387337 0
M  V30 3646 C 343.909 -4.10566 1.83728 0
M  V30 3647 C 345.228 -4.395 -0.22975 0
M  V30 3648 H 342.347 -0.729501 0.104866 0
M  V30 3649 H 344.989 -1.65564 0.93213 0
M  V30 3650 H 343.139 -3.88154 -0.164006 0
M  V30 3651 H 344.811 -3.91139 2.44556 0
M  V30 3652 H 343.054 -3.64095 2.35833 0
M  V30 3653 H 343.725 -5.19702 1.86047 0
M  V30 3654 H 346.201 -4.15406 0.240257 0
M  V30 3655 H 345.077 -5.48752 -0.127485 0
M  V30 3656 H 345.338 -4.22062 -1.3159 0
M  V30 3657 N 344.397 -0.483516 -1.5 0
M  V30 3658 C 345.307 0.309172 -2.32554 0
M  V30 3659 C 346.323 0.984159 -1.43493 0
M  V30 3660 O 347.499 0.969399 -1.76535 0
M  V30 3661 C 344.564 1.36979 -3.18493 0
M  V30 3662 C 343.625 0.710095 -4.23387 0
M  V30 3663 C 342.858 1.72018 -5.05218 0
M  V30 3664 O 343.081 2.94813 -4.88305 0
M  V30 3665 O 342.015 1.28515 -5.8802 0
M  V30 3666 H 345.841 -0.366064 -3.01486 0
M  V30 3667 H 343.426 -0.24514 -1.47375 0
M  V30 3668 H 345.308 1.98385 -3.71781 0
M  V30 3669 H 343.983 2.02828 -2.52275 0
M  V30 3670 H 342.89 0.0567539 -3.74057 0
M  V30 3671 H 344.223 0.0943557 -4.9211 0
M  V30 3672 N 345.875 1.56104 -0.216619 0
M  V30 3673 C 346.823 2.21434 0.712036 0
M  V30 3674 C 347.817 1.19218 1.20348 0
M  V30 3675 O 349.023 1.3731 1.16387 0
M  V30 3676 H 345.398 0.70992 0.248026 0
M  V30 3677 H 347.369 2.98083 0.137558 0
M  V30 3678 C 346.118 2.90434 1.91163 0
M  V30 3679 H 345.441 3.68842 1.54258 0
M  V30 3680 H 346.881 3.39552 2.5393 0
M  V30 3681 C 345.34 1.92635 2.76394 0
M  V30 3682 O 345.87 1.44017 3.74996 0
M  V30 3683 N 344.076 1.60392 2.42328 0
M  V30 3684 H 343.623 2.00122 1.622 0
M  V30 3685 H 343.581 0.952159 2.99635 0
M  V30 3686 N 347.353 -0.0568162 1.57498 0
M  V30 3687 C 348.769 -0.411933 1.54192 0
M  V30 3688 C 348.969 -1.78287 0.938942 0
M  V30 3689 O 348.025 -2.46483 0.547919 0
M  V30 3690 C 349.338 -0.339244 2.9878 0
M  V30 3691 C 350.886 -0.418348 3.10192 0
M  V30 3692 C 351.361 -0.375407 4.56459 0
M  V30 3693 N 352.852 -0.435038 4.61153 0
M  V30 3694 C 353.587 -0.424265 5.71828 0
M  V30 3695 N 353.083 -0.367418 6.91825 0
M  V30 3696 N 354.876 -0.471938 5.60115 0
M  V30 3697 H 347.027 0.840684 1.95055 0
M  V30 3698 H 349.29 0.316987 0.893433 0
M  V30 3699 H 348.996 0.601742 3.46514 0
M  V30 3700 H 348.87 -1.14371 3.59443 0
M  V30 3701 H 351.257 -1.34976 2.62422 0
M  V30 3702 H 351.338 0.414962 2.52412 0
M  V30 3703 H 350.982 0.552219 5.04889 0
M  V30 3704 H 350.912 -1.22645 5.12119 0
M  V30 3705 H 353.403 -0.482612 3.74806 0
M  V30 3706 H 353.716 -0.363535 7.71944 0
M  V30 3707 H 352.061 -0.333879 6.94198 0
M  V30 3708 H 355.252 -0.514145 4.65268 0
M  V30 3709 H 355.425 -0.460073 6.46365 0
M  V30 3710 N 348.832 -1.54138 -0.328536 0
M  V30 3711 C 350.081 -1.71318 -1.06456 0
M  V30 3712 C 350.394 -0.491109 -1.89334 0
M  V30 3713 O 351.6 -0.54416 -2.65991 0
M  V30 3714 C 350.056 -3.03 -1.94214 0
M  V30 3715 C 349.664 -4.32595 -1.16471 0
M  V30 3716 C 351.408 -3.29544 -2.67583 0
M  V30 3717 C 349.315 -5.55341 -2.03347 0
M  V30 3718 H 348.245 -0.638429 -0.401155 0
M  V30 3719 H 350.896 -1.80633 -0.323106 0
M  V30 3720 H 349.278 -2.87579 -2.72239 0
M  V30 3721 H 350.452 -4.58766 -0.432525 0
M  V30 3722 H 348.767 -4.12777 -0.548063 0
M  V30 3723 H 351.364 -4.18444 -3.3288 0
M  V30 3724 H 351.707 -2.47206 -3.34955 0
M  V30 3725 H 352.24 -3.45809 -1.96623 0
M  V30 3726 H 348.979 -6.40268 -1.40491 0
M  V30 3727 H 348.499 -5.33397 -2.74313 0
M  V30 3728 H 350.178 -5.91557 -2.62049 0
M  V30 3729 N 350.31 0.590341 -1.46126 0
M  V30 3730 C 351.535 1.37991 -1.54833 0
M  V30 3731 C 351.96 1.87163 -0.187506 0
M  V30 3732 O 351.318 1.61133 0.831008 0
M  V30 3733 C 351.366 2.54867 -2.55098 0
M  V30 3734 O 350.47 3.56061 -2.08073 0
M  V30 3735 H 349.811 0.411265 -0.521303 0
M  V30 3736 H 352.341 0.716819 -1.91632 0
M  V30 3737 H 352.351 3.01886 -2.74461 0
M  V30 3738 H 351.026 2.18429 -3.53923 0
M  V30 3739 H 349.603 3.15574 -1.98664 0
M  V30 3740 N 351.788 1.33704 0.83433 0
M  V30 3741 C 353.037 1.24763 1.58484 0
M  V30 3742 C 353.35 -0.183775 1.94735 0
M  V30 3743 O 354.556 -0.395234 2.68608 0
M  V30 3744 C 353.012 2.18638 2.85876 0
M  V30 3745 C 352.62 3.66974 2.56971 0
M  V30 3746 C 354.364 2.18581 3.63899 0
M  V30 3747 C 352.271 4.5275 3.80488 0
M  V30 3748 H 351.201 0.463425 0.594772 0
M  V30 3749 H 353.852 1.58797 0.919551 0
M  V30 3750 H 352.234 1.77542 3.5397 0
M  V30 3751 H 353.408 4.16538 1.9706 0
M  V30 3752 H 351.723 3.69366 1.92244 0
M  V30 3753 H 354.32 2.79894 4.55591 0
M  V30 3754 H 354.663 1.18207 3.99165 0
M  V30 3755 H 355.196 2.58062 3.02735 0
M  V30 3756 H 351.935 5.54017 3.5035 0
M  V30 3757 H 351.455 4.07927 4.39722 0
M  V30 3758 H 353.134 4.66784 4.4802 0
M  V30 3759 N 353.266 -1.05314 1.17247 0
M  V30 3760 C 354.506 -1.79869 0.970898 0
M  V30 3761 C 354.87 -1.85594 -0.491808 0
M  V30 3762 O 356.071 -2.56229 -0.812409 0
M  V30 3763 C 354.342 -3.19937 1.59295 0
M  V30 3764 S 355.901 -4.10986 1.53741 0
M  V30 3765 H 352.719 -0.61949 0.348931 0
M  V30 3766 H 355.321 -1.26368 1.49169 0
M  V30 3767 H 354.025 -3.13372 2.65003 0
M  V30 3768 H 353.556 -3.78515 1.07191 0
M  V30 3769 H 355.571 -4.93203 0.544537 0
M  V30 3770 N 354.744 -0.972509 -1.24016 0
M  V30 3771 C 355.972 -0.654803 -1.96265 0
M  V30 3772 C 356.387 0.776708 -1.72083 0
M  V30 3773 O 355.744 1.52171 -1.00748 0
M  V30 3774 C 355.795 -0.92592 -3.49441 0
M  V30 3775 O 355.516 -2.30116 -3.72798 0
M  V30 3776 C 357.017 -0.623068 -4.38899 0
M  V30 3777 H 354.237 -0.243907 -0.6251 0
M  V30 3778 H 356.781 -1.30175 -1.57717 0
M  V30 3779 H 354.936 -0.325108 -3.86033 0
M  V30 3780 H 355.35 -2.38483 -4.67147 0
M  V30 3781 H 356.824 -0.863189 -5.45209 0
M  V30 3782 H 357.301 0.442754 -4.36963 0
M  V30 3783 H 357.907 -1.204 -4.07902 0
M  V30 3784 N 356.222 1.38976 -0.743202 0
M  V30 3785 C 357.132 2.3434 -0.110399 0
M  V30 3786 C 358.148 1.58741 0.712559 0
M  V30 3787 O 359.324 1.9099 0.639125 0
M  V30 3788 C 356.389 3.37812 0.780012 0
M  V30 3789 C 355.45 4.29263 -0.0561319 0
M  V30 3790 C 354.683 5.27793 0.791875 0
M  V30 3791 O 354.906 5.33043 2.03031 0
M  V30 3792 O 353.84 6.01512 0.216183 0
M  V30 3793 H 357.666 2.90129 -0.897714 0
M  V30 3794 H 355.251 1.40643 -0.503966 0
M  V30 3795 H 357.133 4.01194 1.28923 0
M  V30 3796 H 355.808 2.84395 1.546 0
M  V30 3797 H 354.715 3.69076 -0.611056 0
M  V30 3798 H 356.048 4.85907 -0.784531 0
M  V30 3799 N 357.7 0.491464 1.49741 0
M  V30 3800 C 358.947 -0.0564256 2.02421 0
M  V30 3801 C 359.275 -1.37872 1.37192 0
M  V30 3802 O 358.53 -1.89375 0.493508 0
M  V30 3803 C 358.829 -0.267329 3.56399 0
M  V30 3804 C 358.495 0.975775 4.40215 0
M  V30 3805 C 357.157 1.31655 4.62839 0
M  V30 3806 C 359.509 1.80251 4.89039 0
M  V30 3807 C 356.837 2.48375 5.31532 0
M  V30 3808 C 359.189 2.96116 5.59015 0
M  V30 3809 C 357.853 3.30585 5.79888 0
M  V30 3810 H 357.123 -0.0206476 0.740712 0
M  V30 3811 H 359.77 0.649686 1.80143 0
M  V30 3812 H 358.075 -1.05588 3.77304 0
M  V30 3813 H 359.772 -0.705549 3.94744 0
M  V30 3814 H 356.362 0.700315 4.2284 0
M  V30 3815 H 360.546 1.55239 4.71396 0
M  V30 3816 H 355.802 2.7533 5.45897 0
M  V30 3817 H 359.976 3.60509 5.95824 0
M  V30 3818 H 357.603 4.21132 6.32892 0
M  V30 3819 N 359.178 -1.55987 0.224894 0
M  V30 3820 C 360.111 -2.16413 -0.723929 0
M  V30 3821 C 361.089 -1.10952 -1.18863 0
M  V30 3822 O 362.273 -1.39225 -1.27077 0
M  V30 3823 C 359.4 -2.74711 -1.98121 0
M  V30 3824 C 358.446 -3.9303 -1.6562 0
M  V30 3825 S 359.279 -5.29817 -0.778058 0
M  V30 3826 C 360.435 -5.91555 -2.04483 0
M  V30 3827 H 360.668 -2.96555 -0.210347 0
M  V30 3828 H 358.201 -1.54397 0.00955457 0
M  V30 3829 H 360.159 -3.08938 -2.70311 0
M  V30 3830 H 358.82 -1.94555 -2.46591 0
M  V30 3831 H 358.013 -4.32334 -2.59043 0
M  V30 3832 H 357.615 -3.59966 -1.01491 0
M  V30 3833 H 359.907 -6.07732 -2.99446 0
M  V30 3834 H 360.85 -6.87498 -1.69563 0
M  V30 3835 H 361.258 -5.20419 -2.18688 0
M  V30 3836 N 360.656 0.0484629 -1.57525 0
M  V30 3837 C 361.933 0.777447 -1.79486 0
M  V30 3838 C 362.313 1.94597 -0.818251 0
M  V30 3839 O 361.661 2.28047 0.143767 0
M  V30 3840 C 361.871 1.22864 -3.26658 0
M  V30 3841 C 363.219 1.65251 -3.91123 0
M  V30 3842 O 364.243 1.32372 -3.3069 0
M  V30 3843 O 363.102 2.26207 -4.97486 0
M  V30 3844 H 360.196 0.374357 -0.737419 0
M  V30 3845 H 362.742 0.0267359 -1.69679 0
M  V30 3846 H 361.514 0.393589 -3.89316 0
M  V30 3847 H 361.137 2.03996 -3.41279 0
M  V30 3848 N 362.134 1.5431 0.320358 0
M  V30 3849 C 363.382 1.72327 1.05583 0
M  V30 3850 C 363.703 0.50149 1.88441 0
M  V30 3851 O 362.973 -0.48448 1.89815 0
M  V30 3852 H 361.553 0.635387 0.3928 0
M  V30 3853 H 364.215 1.91621 0.356019 0
M  V30 3854 H 363.311 2.60426 1.72003 0
M  V30 3855 N 363.613 -0.582584 1.46437 0
M  V30 3856 C 364.861 -1.33814 1.51453 0
M  V30 3857 C 365.182 -1.94277 0.167792 0
M  V30 3858 O 364.452 -1.78566 -0.805677 0
M  V30 3859 H 363.032 -0.496838 0.557818 0
M  V30 3860 H 365.694 -0.682281 1.82568 0
M  V30 3861 H 364.79 -2.14479 2.26728 0
M  V30 3862 N 365.091 -1.34144 -0.827227 0
M  V30 3863 C 366.316 -1.29476 -1.62021 0
M  V30 3864 C 366.741 0.129292 -1.87655 0
M  V30 3865 O 366.099 1.08967 -1.449 0
M  V30 3866 C 366.147 -2.08702 -2.94068 0
M  V30 3867 O 365.251 -1.45359 -3.85933 0
M  V30 3868 H 364.592 -0.444881 -0.492927 0
M  V30 3869 H 367.122 -1.76882 -1.02829 0
M  V30 3870 H 367.132 -2.19898 -3.43669 0
M  V30 3871 H 365.807 -3.12241 -2.74734 0
M  V30 3872 H 364.384 -1.42879 -3.44442 0
M  V30 3873 N 366.569 1.04691 -1.17803 0
M  V30 3874 C 367.499 2.14494 -0.92275 0
M  V30 3875 C 368.48 1.69546 0.137179 0
M  V30 3876 O 369.665 1.94195 -0.0141108 0
M  V30 3877 C 366.795 3.44491 -0.440803 0
M  V30 3878 C 365.749 4.03031 -1.4405 0
M  V30 3879 C 365.075 5.28432 -0.81631 0
M  V30 3880 C 366.375 4.39932 -2.81527 0
M  V30 3881 H 368.069 2.36107 -1.84103 0
M  V30 3882 H 365.615 1.1347 -0.886599 0
M  V30 3883 H 367.568 4.2066 -0.249602 0
M  V30 3884 H 366.292 3.22546 0.513025 0
M  V30 3885 H 364.951 3.28937 -1.61853 0
M  V30 3886 H 364.599 5.02792 0.144511 0
M  V30 3887 H 364.299 5.68559 -1.48371 0
M  V30 3888 H 365.823 6.07284 -0.635496 0
M  V30 3889 H 367.237 5.07113 -2.67412 0
M  V30 3890 H 365.634 4.9109 -3.44892 0
M  V30 3891 H 366.704 3.50045 -3.35554 0
M  V30 3892 N 368.047 0.979072 1.23499 0
M  V30 3893 C 369.324 0.563674 1.87302 0
M  V30 3894 C 369.704 -0.959199 1.88049 0
M  V30 3895 O 369.052 -1.83535 1.36114 0
M  V30 3896 C 369.262 1.16822 3.28867 0
M  V30 3897 C 370.61 1.26014 4.0547 0
M  V30 3898 O 371.634 1.12158 3.38082 0
M  V30 3899 O 370.493 1.48044 5.26066 0
M  V30 3900 H 367.587 0.189602 0.804972 0
M  V30 3901 H 370.133 1.07407 1.31384 0
M  V30 3902 H 368.905 2.21049 3.22883 0
M  V30 3903 H 368.528 0.642564 3.92373 0
M  V30 3904 N 369.525 -1.3858 0.750561 0
M  V30 3905 C 370.771 -2.00481 0.305825 0
M  V30 3906 C 371.104 -1.5944 -1.10872 0
M  V30 3907 O 370.379 -0.83052 -1.75877 0
M  V30 3908 C 370.662 -3.5758 0.425287 0
M  V30 3909 C 370.515 -4.08594 1.88072 0
M  V30 3910 C 371.834 -4.39719 -0.183122 0
M  V30 3911 H 368.953 -0.728348 0.112598 0
M  V30 3912 H 371.595 -1.64566 0.949638 0
M  V30 3913 H 369.745 -3.88306 -0.122828 0
M  V30 3914 H 371.417 -3.88523 2.48691 0
M  V30 3915 H 369.66 -3.61574 2.39681 0
M  V30 3916 H 370.331 -5.177 1.91548 0
M  V30 3917 H 372.807 -4.15128 0.284303 0
M  V30 3918 H 371.683 -5.48856 -0.0692757 0
M  V30 3919 H 371.944 -4.23434 -1.27106 0
M  V30 3920 N 371.003 -0.499398 -1.49478 0
M  V30 3921 C 372.233 0.0424839 -2.06556 0
M  V30 3922 C 372.641 1.31514 -1.36018 0
M  V30 3923 O 371.984 1.78555 -0.431718 0
M  V30 3924 C 372.046 0.368074 -3.57611 0
M  V30 3925 C 371.71 -0.806631 -4.49825 0
M  V30 3926 C 372.707 -1.69667 -4.91436 0
M  V30 3927 C 370.392 -1.00498 -4.92144 0
M  V30 3928 C 372.386 -2.76923 -5.74101 0
M  V30 3929 C 370.073 -2.08072 -5.74586 0
M  V30 3930 C 371.071 -2.96119 -6.15469 0
M  V30 3931 O 370.759 -4.01836 -6.96264 0
M  V30 3932 H 370.491 -0.0165165 -0.675798 0
M  V30 3933 H 373.045 -0.695497 -1.93267 0
M  V30 3934 H 371.275 1.15963 -3.68903 0
M  V30 3935 H 372.964 0.848381 -3.96935 0
M  V30 3936 H 373.73 -1.55524 -4.59388 0
M  V30 3937 H 369.609 -0.329036 -4.59824 0
M  V30 3938 H 373.153 -3.45676 -6.05932 0
M  V30 3939 H 369.05 -2.22211 -6.06047 0
M  V30 3940 H 369.818 -3.9917 -7.14567 0
M  V30 3941 N 372.481 1.55866 -0.233164 0
M  V30 3942 C 373.897 1.59133 0.121988 0
M  V30 3943 C 374.097 1.25016 1.58029 0
M  V30 3944 O 373.153 0.990922 2.32243 0
M  V30 3945 C 374.466 2.99932 -0.214792 0
M  V30 3946 C 376.014 3.12601 -0.157971 0
M  V30 3947 C 376.489 4.55597 -0.46859 0
M  V30 3948 N 377.98 4.61305 -0.418585 0
M  V30 3949 C 378.715 5.69903 -0.63227 0
M  V30 3950 N 378.211 6.86819 -0.90835 0
M  V30 3951 N 380.004 5.59264 -0.563913 0
M  V30 3952 H 372.155 1.76315 -1.18434 0
M  V30 3953 H 374.418 0.820093 -0.475553 0
M  V30 3954 H 374.124 3.29588 -1.22739 0
M  V30 3955 H 373.998 3.74327 0.464691 0
M  V30 3956 H 376.385 2.82735 0.845283 0
M  V30 3957 H 376.466 2.40511 -0.871102 0
M  V30 3958 H 376.11 4.86182 -1.46934 0
M  V30 3959 H 376.04 5.25928 0.265865 0
M  V30 3960 H 378.531 3.77297 -0.213368 0
M  V30 3961 H 378.844 7.65507 -1.05919 0
M  V30 3962 H 377.189 6.88536 -0.945673 0
M  V30 3963 H 380.38 4.66802 -0.348372 0
M  V30 3964 H 380.553 6.43831 -0.733847 0
M  V30 3965 N 373.959 -0.0401083 1.57549 0
M  V30 3966 C 374.906 -1.04413 2.05831 0
M  V30 3967 C 375.876 -1.36585 0.945184 0
M  V30 3968 O 377.061 -1.47112 1.21502 0
M  V30 3969 C 374.201 -2.34336 2.53339 0
M  V30 3970 C 373.314 -2.08419 3.78398 0
M  V30 3971 C 372.449 -3.32133 4.14561 0
M  V30 3972 C 371.488 -3.01721 5.3257 0
M  V30 3973 N 370.625 -4.17855 5.64218 0
M  V30 3974 H 375.465 -0.625442 2.91363 0
M  V30 3975 H 373.002 -0.297218 1.44066 0
M  V30 3976 H 374.96 -3.10234 2.78946 0
M  V30 3977 H 373.59 -2.73948 1.7074 0
M  V30 3978 H 372.642 -1.23069 3.59942 0
M  V30 3979 H 373.954 -1.81978 4.64419 0
M  V30 3980 H 373.108 -4.16406 4.41238 0
M  V30 3981 H 371.847 -3.61678 3.2717 0
M  V30 3982 H 370.852 -2.15849 5.05657 0
M  V30 3983 H 372.077 -2.73466 6.21605 0
M  V30 3984 H 370.023 -4.47372 4.79786 0
M  V30 3985 H 369.94 -3.94798 6.44725 0
M  V30 3986 H 371.208 -5.03033 5.95465 0
M  V30 3987 N 375.437 -1.54477 -0.31217 0
M  V30 3988 C 376.37 -1.79519 -1.40884 0
M  V30 3989 C 377.348 -0.645753 -1.49227 0
M  V30 3990 O 378.532 -0.884468 -1.66461 0
M  V30 3991 C 375.659 -1.92194 -2.78889 0
M  V30 3992 C 374.705 -3.14555 -2.88023 0
M  V30 3993 S 375.538 -4.72893 -2.51262 0
M  V30 3994 C 376.694 -4.8849 -3.91317 0
M  V30 3995 H 376.927 -2.72256 -1.19432 0
M  V30 3996 H 374.46 -1.45746 -0.509654 0
M  V30 3997 H 376.418 -2.00182 -3.58382 0
M  V30 3998 H 375.079 -1.00414 -2.97617 0
M  V30 3999 H 374.272 -3.20193 -3.89221 0
M  V30 4000 H 373.874 -3.04955 -2.16514 0
M  V30 4001 H 376.166 -4.71826 -4.86196 0
M  V30 4002 H 377.109 -5.90588 -3.90656 0
M  V30 4003 H 377.517 -4.16715 -3.80801 0
M  V30 4004 N 376.915 0.57481 -1.46744 0
M  V30 4005 C 378.326 1.15695 -1.46532 0
M  V30 4006 C 378.677 1.95068 -0.210425 0
M  V30 4007 O 377.802 2.05241 0.685944 0
M  V30 4008 C 378.397 2.1048 -2.65487 0
M  V30 4009 C 376.956 2.64002 -2.68291 0
M  V30 4010 C 376.103 1.40026 -2.39349 0
M  V30 4011 H 379.054 0.362325 -1.54509 0
M  V30 4012 H 379.075 2.94074 -2.41455 0
M  V30 4013 H 378.587 1.52683 -3.56805 0
M  V30 4014 H 376.688 3.25646 -1.81067 0
M  V30 4015 H 376.801 3.06197 -3.68483 0
M  V30 4016 H 375.165 1.70106 -1.89568 0
M  V30 4017 H 375.948 0.840485 -3.32852 0
M  V30 4018 N 378.394 1.34581 0.820102 0
M  V30 4019 C 379.304 1.28471 1.96297 0
M  V30 4020 C 380.32 0.191902 1.72939 0
M  V30 4021 O 381.496 0.418879 1.96996 0
M  V30 4022 C 378.561 1.04281 3.30645 0
M  V30 4023 C 377.622 2.22745 3.66992 0
M  V30 4024 C 376.855 1.997 4.9493 0
M  V30 4025 O 377.078 0.956656 5.6232 0
M  V30 4026 O 376.012 2.86723 5.2922 0
M  V30 4027 H 379.838 2.24624 2.04396 0
M  V30 4028 H 377.423 1.14816 0.955913 0
M  V30 4029 H 379.305 0.925841 4.11104 0
M  V30 4030 H 377.98 0.111697 3.23507 0
M  V30 4031 H 376.887 2.40003 2.86966 0
M  V30 4032 H 378.22 3.14257 3.78819 0
M  V30 4033 N 379.872 -1.04064 1.18357 0
M  V30 4034 C 380.822 -2.10393 0.878561 0
M  V30 4035 C 381.806 -1.60183 -0.151713 0
M  V30 4036 O 382.998 -1.76923 0.0523303 0
M  V30 4037 C 380.127 -3.4089 0.406096 0
M  V30 4038 C 379.213 -3.97866 1.46844 0
M  V30 4039 N 379.604 -4.28657 2.68489 0
M  V30 4040 C 377.902 -4.2574 1.32896 0
M  V30 4041 C 378.603 -4.74253 3.36836 0
M  V30 4042 N 377.579 -4.75068 2.64219 0
M  V30 4043 H 381.381 -2.32076 1.80327 0
M  V30 4044 H 378.895 -1.21818 1.07397 0
M  V30 4045 H 380.892 -4.16557 0.169088 0
M  V30 4046 H 379.552 -3.20633 -0.512275 0
M  V30 4047 H 380.563 -4.18304 3.05356 0
M  V30 4048 H 377.24 -4.1481 0.473134 0
M  V30 4049 H 378.63 -5.07096 4.40798 0
M  V30 4050 N 381.35 -0.985608 -1.22978 0
M  V30 4051 C 382.596 -0.65836 -1.91816 0
M  V30 4052 C 382.929 0.806692 -1.76653 0
M  V30 4053 O 382.204 1.58252 -1.13078 0
M  V30 4054 C 382.487 -1.056 -3.44268 0
M  V30 4055 C 382.34 -2.57906 -3.68516 0
M  V30 4056 C 383.659 -0.603781 -4.35939 0
M  V30 4057 H 380.778 -0.24065 -0.696604 0
M  V30 4058 H 383.42 -1.22783 -1.44998 0
M  V30 4059 H 381.57 -0.571445 -3.84274 0
M  V30 4060 H 383.242 -3.13976 -3.3796 0
M  V30 4061 H 381.485 -3.00305 -3.13048 0
M  V30 4062 H 382.156 -2.80779 -4.75255 0
M  V30 4063 H 384.632 -1.01987 -4.03408 0
M  V30 4064 H 383.508 -0.910383 -5.41298 0
M  V30 4065 H 383.769 0.495761 -4.39312 0
M  V30 4066 N 382.828 1.3818 -0.7579 0
M  V30 4067 C 383.758 2.33027 -0.148597 0
M  V30 4068 C 384.739 1.55085 0.69875 0
M  V30 4069 O 385.924 1.83384 0.639053 0
M  V30 4070 C 383.054 3.3928 0.742034 0
M  V30 4071 C 382.008 4.28 -0.00291946 0
M  V30 4072 C 381.334 5.25146 1.00625 0
M  V30 4073 C 382.634 5.08938 -1.17385 0
M  V30 4074 H 384.328 2.84231 -0.940909 0
M  V30 4075 H 381.874 1.36659 -0.453908 0
M  V30 4076 H 383.827 4.046 1.17799 0
M  V30 4077 H 382.551 2.86569 1.56671 0
M  V30 4078 H 381.21 3.64192 -0.419504 0
M  V30 4079 H 380.858 4.68721 1.8251 0
M  V30 4080 H 380.558 5.85361 0.512428 0
M  V30 4081 H 382.082 5.93342 1.44143 0
M  V30 4082 H 383.496 5.67474 -0.815224 0
M  V30 4083 H 381.893 5.7841 -1.59882 0
M  V30 4084 H 382.963 4.42424 -1.98468 0
M  V30 4085 N 384.306 0.507319 1.49211 0
M  V30 4086 C 385.554 -0.0348839 2.0207 0
M  V30 4087 C 385.875 -1.36898 1.38866 0
M  V30 4088 O 385.145 -1.88133 0.546151 0
M  V30 4089 H 383.725 -0.0158812 0.746831 0
M  V30 4090 H 386.387 0.665998 1.83168 0
M  V30 4091 H 385.483 -0.159917 3.1169 0
M  V30 4092 N 385.784 -1.5574 0.241426 0
M  V30 4093 C 387.2 -1.59196 -0.113548 0
M  V30 4094 C 387.4 -1.25852 -1.57364 0
M  V30 4095 O 386.456 -1.00322 -2.31715 0
M  V30 4096 C 387.769 -2.99814 0.230695 0
M  V30 4097 C 389.317 -3.12513 0.174547 0
M  V30 4098 C 389.792 -4.55342 0.492744 0
M  V30 4099 N 391.283 -4.61076 0.443043 0
M  V30 4100 C 392.018 -5.6956 0.662484 0
M  V30 4101 N 391.514 -6.86328 0.944761 0
M  V30 4102 N 393.307 -5.58957 0.593564 0
M  V30 4103 H 385.458 -1.75685 1.19368 0
M  V30 4104 H 387.721 -0.81756 0.479896 0
M  V30 4105 H 387.427 -3.28932 1.24485 0
M  V30 4106 H 387.301 -3.74568 -0.444833 0
M  V30 4107 H 389.688 -2.83179 -0.830277 0
M  V30 4108 H 389.769 -2.40045 0.883845 0
M  V30 4109 H 389.413 -4.85396 1.4951 0
M  V30 4110 H 389.343 -5.26062 -0.23797 0
M  V30 4111 H 391.834 -3.77179 0.233374 0
M  V30 4112 H 392.147 -7.64935 1.09977 0
M  V30 4113 H 390.492 -6.88025 0.982175 0
M  V30 4114 H 393.683 -4.66611 0.373123 0
M  V30 4115 H 393.856 -6.43433 0.767981 0
M  V30 4116 N 387.262 0.0317525 -1.57568 0
M  V30 4117 C 388.511 0.722131 -1.8833 0
M  V30 4118 C 388.824 1.76664 -0.839587 0
M  V30 4119 O 390.03 2.50942 -1.03635 0
M  V30 4120 C 388.486 1.33544 -3.34207 0
M  V30 4121 C 388.094 0.327415 -4.46802 0
M  V30 4122 C 389.838 2.00585 -3.7412 0
M  V30 4123 C 387.745 0.948915 -5.83738 0
M  V30 4124 H 386.675 0.273466 -0.702661 0
M  V30 4125 H 389.326 -0.0235811 -1.83485 0
M  V30 4126 H 387.708 2.13077 -3.33788 0
M  V30 4127 H 388.882 -0.441006 -4.58685 0
M  V30 4128 H 387.197 -0.240758 -4.15703 0
M  V30 4129 H 389.794 2.47932 -4.73744 0
M  V30 4130 H 390.137 2.82285 -3.05975 0
M  V30 4131 H 390.67 1.27831 -3.76702 0
M  V30 4132 H 387.409 0.171387 -6.55276 0
M  V30 4133 H 386.929 1.68724 -5.7558 0
M  V30 4134 H 388.608 1.45705 -6.3038 0
M  V30 4135 N 388.74 1.54641 0.303973 0
M  V30 4136 C 389.703 1.84646 1.35789 0
M  V30 4137 C 390.703 0.7192 1.4382 0
M  V30 4138 O 391.893 0.987491 1.43507 0
M  V30 4139 C 389.025 2.02407 2.74307 0
M  V30 4140 H 390.218 2.78829 1.10429 0
M  V30 4141 H 387.771 1.46658 0.540487 0
M  V30 4142 H 388.506 1.10502 3.04893 0
M  V30 4143 H 388.291 2.84453 2.69868 0
M  V30 4144 H 389.781 2.27002 3.50514 0
M  V30 4145 N 390.218 -0.567019 1.47046 0
M  V30 4146 C 391.464 -1.32658 1.53394 0
M  V30 4147 C 391.797 -1.93254 0.19148 0
M  V30 4148 O 391.072 -1.77338 -0.798844 0
M  V30 4149 C 391.355 -2.44412 2.64452 0
M  V30 4150 C 391.208 -1.88749 4.08282 0
M  V30 4151 C 392.527 -3.46387 2.71485 0
M  V30 4152 H 389.646 -0.48098 0.558415 0
M  V30 4153 H 392.288 -0.635481 1.79058 0
M  V30 4154 H 390.438 -3.03363 2.427 0
M  V30 4155 H 392.11 -1.34134 4.41368 0
M  V30 4156 H 390.353 -1.19481 4.17021 0
M  V30 4157 H 391.024 -2.69491 4.81745 0
M  V30 4158 H 393.5 -2.9734 2.91081 0
M  V30 4159 H 392.376 -4.2202 3.50985 0
M  V30 4160 H 392.637 -4.04616 1.78153 0
M  V30 4161 N 391.696 -1.35014 -0.812953 0
M  V30 4162 C 392.659 -1.27292 -1.90602 0
M  V30 4163 C 393.659 -0.185817 -1.59723 0
M  V30 4164 O 394.849 -0.439102 -1.68575 0
M  V30 4165 C 391.981 -0.967676 -3.26877 0
M  V30 4166 H 393.174 -2.24479 -1.9887 0
M  V30 4167 H 390.727 -1.19446 -1.00808 0
M  V30 4168 H 391.462 0.0005954 -3.243 0
M  V30 4169 H 391.247 -1.75412 -3.50675 0
M  V30 4170 H 392.737 -0.939085 -4.06904 0
M  V30 4171 N 393.175 1.03435 -1.18907 0
M  V30 4172 C 394.421 1.77005 -0.989798 0
M  V30 4173 C 394.754 1.88205 0.478816 0
M  V30 4174 O 394.029 1.39481 1.35556 0
M  V30 4175 C 394.312 3.19925 -1.65287 0
M  V30 4176 C 394.165 3.1663 -3.19477 0
M  V30 4177 C 395.484 4.18189 -1.37134 0
M  V30 4178 H 392.603 0.642538 -0.360991 0
M  V30 4179 H 395.245 1.20784 -1.46667 0
M  V30 4180 H 393.395 3.67929 -1.24741 0
M  V30 4181 H 395.067 2.76567 -3.692 0
M  V30 4182 H 393.31 2.54491 -3.51307 0
M  V30 4183 H 393.981 4.1758 -3.61013 0
M  V30 4184 H 396.457 3.78761 -1.72276 0
M  V30 4185 H 395.333 5.16394 -1.86087 0
M  V30 4186 H 395.594 4.41112 -0.295424 0
M  V30 4187 N 394.653 0.992116 1.22453 0
M  V30 4188 C 395.899 0.668523 1.91464 0
M  V30 4189 C 396.232 -0.797313 1.77078 0
M  V30 4190 O 395.507 -1.5765 1.13916 0
M  V30 4191 C 395.79 1.07424 3.43703 0
M  V30 4192 C 395.643 2.59857 3.67143 0
M  V30 4193 C 396.962 0.626891 4.35612 0
M  V30 4194 H 394.081 0.244341 0.695318 0
M  V30 4195 H 396.723 1.2355 1.44345 0
M  V30 4196 H 394.873 0.591816 3.83966 0
M  V30 4197 H 396.545 3.15764 3.3629 0
M  V30 4198 H 394.788 3.01961 3.11451 0
M  V30 4199 H 395.459 2.83296 4.73759 0
M  V30 4200 H 397.935 1.04125 4.02861 0
M  V30 4201 H 396.811 0.939076 5.40807 0
M  V30 4202 H 397.072 -0.472457 4.39568 0
M  V30 4203 N 396.131 -1.37776 0.765217 0
M  V30 4204 C 397.078 -2.30342 0.145274 0
M  V30 4205 C 398.048 -1.5077 -0.696971 0
M  V30 4206 O 399.233 -1.79362 -0.650689 0
M  V30 4207 C 396.373 -3.37227 -0.732939 0
M  V30 4208 C 395.486 -4.31819 0.125199 0
M  V30 4209 C 394.621 -5.25777 -0.757107 0
M  V30 4210 C 393.66 -6.12012 0.103963 0
M  V30 4211 N 392.797 -6.98232 -0.735953 0
M  V30 4212 H 397.637 -2.8278 0.940195 0
M  V30 4213 H 395.174 -1.39211 0.475255 0
M  V30 4214 H 397.132 -3.97818 -1.25686 0
M  V30 4215 H 395.762 -2.86171 -1.49353 0
M  V30 4216 H 394.814 -3.7259 0.766865 0
M  V30 4217 H 396.126 -4.92509 0.789683 0
M  V30 4218 H 395.28 -5.91541 -1.34776 0
M  V30 4219 H 394.019 -4.65481 -1.45529 0
M  V30 4220 H 393.024 -5.45233 0.707197 0
M  V30 4221 H 394.249 -6.74379 0.799381 0
M  V30 4222 H 392.195 -6.40472 -1.41887 0
M  V30 4223 H 392.112 -7.55891 -0.128624 0
M  V30 4224 H 393.38 -7.68393 -1.31121 0
M  V30 4225 N 397.609 -0.515225 -1.4894 0
M  V30 4226 C 398.857 0.0241671 -2.02086 0
M  V30 4227 C 399.178 1.3616 -1.3959 0
M  V30 4228 O 398.448 1.87841 -0.556121 0
M  V30 4229 H 397.028 0.0119203 -0.746905 0
M  V30 4230 H 399.69 -0.675702 -1.82812 0
M  V30 4231 H 398.786 0.143385 -3.1177 0
M  V30 4232 N 399.087 1.5561 -0.249682 0
M  V30 4233 C 400.017 2.24477 0.642826 0
M  V30 4234 C 400.998 1.22601 1.17911 0
M  V30 4235 O 402.183 1.5126 1.21795 0
M  V30 4236 C 399.313 2.94638 1.83863 0
M  V30 4237 C 398.267 4.03227 1.435 0
M  V30 4238 C 397.593 4.60828 2.71186 0
M  V30 4239 C 398.893 5.18796 0.604002 0
M  V30 4240 H 400.587 2.99321 0.0685625 0
M  V30 4241 H 398.133 1.43965 0.0315363 0
M  V30 4242 H 400.086 3.41517 2.46868 0
M  V30 4243 H 398.81 2.17287 2.43832 0
M  V30 4244 H 397.469 3.57121 0.828275 0
M  V30 4245 H 397.117 3.80174 3.29358 0
M  V30 4246 H 396.817 5.34132 2.44901 0
M  V30 4247 H 398.341 5.10442 3.35084 0
M  V30 4248 H 399.755 5.61883 1.13842 0
M  V30 4249 H 398.152 5.98506 0.437097 0
M  V30 4250 H 399.222 4.83384 -0.383147 0
M  V30 4251 N 400.565 -0.0233959 1.57583 0
M  V30 4252 C 401.793 -0.724682 1.93794 0
M  V30 4253 C 402.208 -1.68588 0.849912 0
M  V30 4254 O 401.565 -1.81676 -0.173204 0
M  V30 4255 C 401.616 -1.47684 3.29957 0
M  V30 4256 O 401.337 -0.554222 4.3458 0
M  V30 4257 C 402.838 -2.27477 3.80485 0
M  V30 4258 H 400.058 -0.203317 0.639455 0
M  V30 4259 H 402.602 0.0207653 2.04489 0
M  V30 4260 H 400.757 -2.17412 3.20641 0
M  V30 4261 H 401.171 -1.08232 5.13212 0
M  V30 4262 H 402.645 -2.7564 4.78254 0
M  V30 4263 H 403.122 -3.09144 3.11972 0
M  V30 4264 H 403.728 -1.62813 3.92902 0
M  V30 4265 N 402.043 -1.548 -0.295768 0
M  V30 4266 C 403.273 -1.78069 -1.04762 0
M  V30 4267 C 403.681 -0.542847 -1.81245 0
M  V30 4268 O 403.024 0.497051 -1.76848 0
M  V30 4269 C 403.086 -2.93881 -2.07061 0
M  V30 4270 C 402.75 -4.31777 -1.49725 0
M  V30 4271 C 403.747 -5.11613 -0.924581 0
M  V30 4272 C 401.432 -4.78389 -1.5313 0
M  V30 4273 C 403.426 -6.36184 -0.393594 0
M  V30 4274 C 401.113 -6.02921 -0.996447 0
M  V30 4275 C 402.111 -6.81654 -0.428569 0
M  V30 4276 O 401.799 -8.0384 0.0981593 0
M  V30 4277 H 401.531 -0.597475 -0.316226 0
M  V30 4278 H 404.085 -2.02584 -0.338973 0
M  V30 4279 H 402.315 -2.65003 -2.81621 0
M  V30 4280 H 404.004 -3.04679 -2.6819 0
M  V30 4281 H 404.77 -4.76743 -0.891136 0
M  V30 4282 H 400.649 -4.17132 -1.9627 0
M  V30 4283 H 404.193 -6.97582 0.0503014 0
M  V30 4284 H 400.09 -6.37277 -1.02706 0
M  V30 4285 H 400.858 -8.18499 -0.0146455 0
M  V30 4286 N 403.521 0.559213 -1.47345 0
M  V30 4287 C 404.451 1.67622 -1.62558 0
M  V30 4288 C 405.432 1.63331 -0.475087 0
M  V30 4289 O 406.617 1.80983 -0.704182 0
M  V30 4290 C 403.747 3.0626 -1.63774 0
M  V30 4291 C 402.701 3.25397 -2.7803 0
M  V30 4292 C 402.027 4.64801 -2.64318 0
M  V30 4293 C 403.327 3.10965 -4.19641 0
M  V30 4294 H 405.021 1.55146 -2.56067 0
M  V30 4295 H 402.567 0.744961 -1.23233 0
M  V30 4296 H 404.52 3.84247 -1.73008 0
M  V30 4297 H 403.244 3.1969 -0.66825 0
M  V30 4298 H 401.903 2.49817 -2.68304 0
M  V30 4299 H 401.551 4.75028 -1.65401 0
M  V30 4300 H 401.251 4.78555 -3.40968 0
M  V30 4301 H 402.775 5.44926 -2.75478 0
M  V30 4302 H 404.189 3.78772 -4.30354 0
M  V30 4303 H 402.586 3.36229 -4.97062 0
M  V30 4304 H 403.656 2.07736 -4.38148 0
M  V30 4305 N 404.999 1.35443 0.805782 0
M  V30 4306 C 406.245 1.2996 1.56467 0
M  V30 4307 C 406.6 -0.124742 1.91995 0
M  V30 4308 O 405.893 -1.07533 1.58579 0
M  V30 4309 C 406.087 2.14045 2.86216 0
M  V30 4310 C 405.916 3.64512 2.63365 0
M  V30 4311 C 404.686 4.33744 2.59219 0
M  V30 4312 C 406.884 4.58142 2.33688 0
M  V30 4313 N 404.866 5.69953 2.28094 0
M  V30 4314 C 406.237 5.8248 2.12408 0
M  V30 4315 C 408.292 4.46877 2.19558 0
M  V30 4316 C 406.995 6.96818 1.78429 0
M  V30 4317 C 409.021 5.61065 1.86976 0
M  V30 4318 C 408.383 6.84431 1.66532 0
M  V30 4319 H 404.482 0.530817 0.574245 0
M  V30 4320 H 407.066 1.70333 0.943126 0
M  V30 4321 H 405.237 1.75942 3.46264 0
M  V30 4322 H 406.969 2.00075 3.51784 0
M  V30 4323 H 403.724 3.86365 2.73896 0
M  V30 4324 H 404.148 6.41845 2.15323 0
M  V30 4325 H 408.79 3.52102 2.34061 0
M  V30 4326 H 406.508 7.91559 1.62664 0
M  V30 4327 H 410.094 5.54302 1.7675 0
M  V30 4328 H 408.974 7.71294 1.41688 0
M  V30 4329 N 406.477 -1.02803 1.19454 0
M  V30 4330 C 407.702 -1.80378 1.02364 0
M  V30 4331 C 408.127 -1.83282 -0.423007 0
M  V30 4332 O 407.485 -1.25945 -1.30413 0
M  V30 4333 C 407.533 -3.23248 1.59821 0
M  V30 4334 O 406.637 -4.04 0.828105 0
M  V30 4335 H 405.978 -0.556799 0.361761 0
M  V30 4336 H 408.508 -1.29385 1.58495 0
M  V30 4337 H 408.518 -3.73994 1.63073 0
M  V30 4338 H 407.193 -3.2045 2.65113 0
M  V30 4339 H 405.77 -3.62635 0.86891 0
M  V30 4340 N 407.956 -0.998596 -1.21925 0
M  V30 4341 C 408.886 -0.573688 -2.26343 0
M  V30 4342 C 409.867 0.402296 -1.65274 0
M  V30 4343 O 411.052 0.291683 -1.91997 0
M  V30 4344 C 408.182 0.106839 -3.47136 0
M  V30 4345 C 407.136 -0.788269 -4.20678 0
M  V30 4346 C 406.462 0.0254927 -5.34694 0
M  V30 4347 C 407.762 -2.08784 -4.78755 0
M  V30 4348 H 409.456 -1.44651 -2.62138 0
M  V30 4349 H 407.002 -0.696975 -1.26009 0
M  V30 4350 H 408.955 0.415531 -4.19346 0
M  V30 4351 H 407.679 1.01424 -3.10452 0
M  V30 4352 H 406.338 -1.08069 -3.50309 0
M  V30 4353 H 405.986 0.933989 -4.94253 0
M  V30 4354 H 405.686 -0.570437 -5.84825 0
M  V30 4355 H 407.21 0.328147 -6.09718 0
M  V30 4356 H 408.624 -1.84272 -5.42878 0
M  V30 4357 H 407.021 -2.63307 -5.39249 0
M  V30 4358 H 408.091 -2.76284 -3.98491 0
M  V30 4359 N 409.434 1.37368 -0.772513 0
M  V30 4360 C 410.381 2.30262 -0.157488 0
M  V30 4361 C 411.351 1.51137 0.688965 0
M  V30 4362 O 412.536 1.79704 0.641168 0
M  V30 4363 C 409.676 3.37611 0.715045 0
M  V30 4364 C 408.789 4.31746 -0.148098 0
M  V30 4365 C 407.924 5.26171 0.729213 0
M  V30 4366 C 406.963 6.11948 -0.136418 0
M  V30 4367 N 406.1 6.98613 0.698914 0
M  V30 4368 H 410.94 2.82277 -0.955179 0
M  V30 4369 H 408.477 1.38957 -0.482631 0
M  V30 4370 H 410.435 3.98479 1.23575 0
M  V30 4371 H 409.065 2.86959 1.47833 0
M  V30 4372 H 408.117 3.72178 -0.786613 0
M  V30 4373 H 409.429 4.92084 -0.81579 0
M  V30 4374 H 408.583 5.92247 1.31637 0
M  V30 4375 H 407.322 4.66246 1.43059 0
M  V30 4376 H 406.327 5.4485 -0.736102 0
M  V30 4377 H 407.552 6.73945 -0.835134 0
M  V30 4378 H 405.498 6.41215 1.38489 0
M  V30 4379 H 405.415 7.55948 0.0885358 0
M  V30 4380 H 406.683 7.69077 1.27044 0
M  V30 4381 N 410.912 0.523116 1.48665 0
M  V30 4382 C 412.161 -0.01544 2.01694 0
M  V30 4383 C 412.474 -1.35975 1.40606 0
M  V30 4384 O 413.68 -1.98627 1.85093 0
M  V30 4385 C 412.136 -0.0779303 3.59816 0
M  V30 4386 C 411.744 1.26107 4.29885 0
M  V30 4387 C 413.488 -0.565678 4.20714 0
M  V30 4388 C 411.395 1.15954 5.79921 0
M  V30 4389 H 410.325 -0.00954163 0.75394 0
M  V30 4390 H 412.976 0.665865 1.70993 0
M  V30 4391 H 411.358 -0.824165 3.87329 0
M  V30 4392 H 412.532 2.02233 4.14051 0
M  V30 4393 H 410.847 1.68401 3.80828 0
M  V30 4394 H 413.444 -0.6595 5.30617 0
M  V30 4395 H 413.787 -1.56984 3.85567 0
M  V30 4396 H 414.32 0.12467 3.97605 0
M  V30 4397 H 411.059 2.13864 6.19631 0
M  V30 4398 H 410.579 0.439529 5.98187 0
M  V30 4399 H 412.258 0.847361 6.41427 0
M  V30 4400 N 412.39 -1.55475 0.257931 0
M  V30 4401 C 413.32 -2.24815 -0.630912 0
M  V30 4402 C 414.301 -1.23224 -1.17259 0
M  V30 4403 O 415.486 -1.51904 -1.20991 0
M  V30 4404 C 412.616 -2.95609 -1.82298 0
M  V30 4405 C 411.57 -4.03982 -1.41359 0
M  V30 4406 C 410.896 -4.6226 -2.68738 0
M  V30 4407 C 412.196 -5.19109 -0.57648 0
M  V30 4408 H 413.89 -2.99354 -0.0526878 0
M  V30 4409 H 411.436 -1.4398 -0.023901 0
M  V30 4410 H 413.389 -3.42822 -2.45054 0
M  V30 4411 H 412.113 -2.18577 -2.42676 0
M  V30 4412 H 410.772 -3.57555 -0.809324 0
M  V30 4413 H 410.42 -3.81915 -3.27338 0
M  V30 4414 H 410.12 -5.35424 -2.42065 0
M  V30 4415 H 411.644 -5.12212 -3.32372 0
M  V30 4416 H 413.058 -5.62479 -1.10861 0
M  V30 4417 H 411.455 -5.98729 -0.405351 0
M  V30 4418 H 412.525 -4.83174 0.408776 0
M  V30 4419 N 413.868 0.0150385 -1.57593 0
M  V30 4420 C 414.818 1.01943 -2.0394 0
M  V30 4421 C 415.802 1.31209 -0.931286 0
M  V30 4422 O 416.994 1.30559 -1.19513 0
M  V30 4423 C 414.123 2.31621 -2.53391 0
M  V30 4424 C 413.209 2.05384 -3.7105 0
M  V30 4425 N 413.6 1.49253 -4.83278 0
M  V30 4426 C 411.898 2.35601 -3.78693 0
M  V30 4427 C 412.599 1.39143 -5.64813 0
M  V30 4428 N 411.575 1.87187 -5.10355 0
M  V30 4429 H 415.377 0.57969 -2.88126 0
M  V30 4430 H 412.891 0.221056 -1.60888 0
M  V30 4431 H 414.888 3.044 -2.84862 0
M  V30 4432 H 413.548 2.76261 -1.70616 0
M  V30 4433 H 414.559 1.17334 -5.04433 0
M  V30 4434 H 411.236 2.8322 -3.06746 0
M  V30 4435 H 412.626 0.961153 -6.6499 0
M  V30 4436 N 415.346 1.54954 0.287554 0
M  V30 4437 C 416.762 1.46469 0.633964 0
M  V30 4438 C 416.962 0.666865 1.90145 0
M  V30 4439 O 416.018 0.179906 2.51858 0
M  V30 4440 C 417.331 2.90556 0.774454 0
M  V30 4441 C 418.879 3.00681 0.869462 0
M  V30 4442 C 419.354 4.45993 1.04184 0
M  V30 4443 N 420.845 4.4976 1.10772 0
M  V30 4444 C 421.58 5.59393 1.25964 0
M  V30 4445 N 421.076 6.78923 1.37968 0
M  V30 4446 N 422.869 5.47107 1.28959 0
M  V30 4447 H 415.02 2.05288 -0.545041 0
M  V30 4448 H 417.283 0.930305 -0.182308 0
M  V30 4449 H 416.989 3.51594 -0.086207 0
M  V30 4450 H 416.863 3.38743 1.6593 0
M  V30 4451 H 419.25 2.39749 1.7206 0
M  V30 4452 H 419.331 2.55769 -0.0396831 0
M  V30 4453 H 418.975 5.07524 0.195422 0
M  V30 4454 H 418.905 4.88548 1.96542 0
M  V30 4455 H 421.396 3.63651 1.02794 0
M  V30 4456 H 421.709 7.58231 1.49353 0
M  V30 4457 H 420.054 6.81763 1.34999 0
M  V30 4458 H 423.245 4.52668 1.19202 0
M  V30 4459 H 423.418 6.32595 1.40455 0
M  V30 4460 N 416.824 -0.551391 1.4764 0
M  V30 4461 C 418.101 -1.31229 1.45046 0
M  V30 4462 C 418.481 -2.10563 0.150527 0
M  V30 4463 O 417.829 -2.11374 -0.867956 0
M  V30 4464 C 418.039 -2.21189 2.69956 0
M  V30 4465 C 419.387 -2.82021 3.1741 0
M  V30 4466 O 420.411 -2.31488 2.70724 0
M  V30 4467 O 419.27 -3.73885 3.98588 0
M  V30 4468 H 416.364 -0.591193 0.578291 0
M  V30 4469 H 418.91 -0.569813 1.59847 0
M  V30 4470 H 417.682 -1.62207 3.56096 0
M  V30 4471 H 417.305 -3.02722 2.57769 0
M  V30 4472 N 418.302 -1.35869 -0.798587 0
M  V30 4473 C 419.548 -1.2978 -1.55836 0
M  V30 4474 C 419.881 0.125322 -1.93795 0
M  V30 4475 O 419.156 1.07658 -1.61987 0
M  V30 4476 C 419.439 -2.21188 -2.84162 0
M  V30 4477 C 419.292 -3.72155 -2.52628 0
M  V30 4478 C 420.611 -2.11545 -3.85923 0
M  V30 4479 H 417.73 -0.472769 -0.565383 0
M  V30 4480 H 420.372 -1.66341 -0.918192 0
M  V30 4481 H 418.522 -1.90139 -3.38791 0
M  V30 4482 H 420.194 -4.13682 -2.04121 0
M  V30 4483 H 418.437 -3.92042 -1.85704 0
M  V30 4484 H 419.108 -4.31511 -3.44242 0
M  V30 4485 H 421.584 -2.38855 -3.40716 0
M  V30 4486 H 420.46 -2.77688 -4.73477 0
M  V30 4487 H 420.721 -1.09987 -4.282 0
M  V30 4488 N 419.78 1.02168 -1.19998 0
M  V30 4489 C 420.727 2.10601 -0.944228 0
M  V30 4490 C 421.697 1.65639 0.123664 0
M  V30 4491 O 422.882 1.9079 -0.0199941 0
M  V30 4492 C 420.022 3.41504 -0.496865 0
M  V30 4493 C 419.135 3.99973 -1.63234 0
M  V30 4494 C 418.27 5.18915 -1.13579 0
M  V30 4495 C 417.309 5.69456 -2.24468 0
M  V30 4496 N 416.446 6.79665 -1.76068 0
M  V30 4497 H 421.286 2.31814 -1.8726 0
M  V30 4498 H 418.823 1.13686 -0.933483 0
M  V30 4499 H 420.781 4.16626 -0.218843 0
M  V30 4500 H 419.411 3.2038 0.394508 0
M  V30 4501 H 418.463 3.21997 -2.0254 0
M  V30 4502 H 419.775 4.33492 -2.46752 0
M  V30 4503 H 418.929 6.01222 -0.813429 0
M  V30 4504 H 417.668 4.8695 -0.270434 0
M  V30 4505 H 416.673 4.85757 -2.57526 0
M  V30 4506 H 417.898 6.03459 -3.11472 0
M  V30 4507 H 415.844 6.49538 -0.918516 0
M  V30 4508 H 415.761 7.12349 -2.5317 0
M  V30 4509 H 417.029 7.65549 -1.46817 0
M  V30 4510 N 421.258 1.00505 1.21394 0
M  V30 4511 C 422.669 0.721082 1.72213 0
M  V30 4512 C 423.02 -0.761263 1.80829 0
M  V30 4513 O 422.145 -1.59464 1.46288 0
M  V30 4514 C 422.74 1.30228 3.12772 0
M  V30 4515 C 421.299 1.06743 3.60947 0
M  V30 4516 C 420.446 1.41507 2.38477 0
M  V30 4517 H 423.397 1.17594 1.06571 0
M  V30 4518 H 423.418 0.686955 3.74247 0
M  V30 4519 H 422.93 2.38115 3.06468 0
M  V30 4520 H 421.031 0.00572162 3.726 0
M  V30 4521 H 421.144 1.73936 4.46411 0
M  V30 4522 H 419.508 0.833852 2.40664 0
M  V30 4523 H 420.291 2.50424 2.34824 0
M  V30 4524 N 422.737 -1.36956 0.779787 0
M  V30 4525 C 423.962 -2.04283 0.358224 0
M  V30 4526 C 424.387 -1.58422 -1.01411 0
M  V30 4527 O 423.745 -0.748179 -1.65142 0
M  V30 4528 C 423.793 -3.58152 0.419479 0
M  V30 4529 O 422.897 -4.08342 -0.577142 0
M  V30 4530 H 422.238 -0.645967 0.153698 0
M  V30 4531 H 424.768 -1.75108 1.05822 0
M  V30 4532 H 424.778 -4.07041 0.279636 0
M  V30 4533 H 423.453 -3.90886 1.42061 0
M  V30 4534 H 422.03 -3.70751 -0.399755 0
M  V30 4535 N 424.215 -0.530993 -1.48385 0
M  V30 4536 C 425.163 0.244595 -2.3131 0
M  V30 4537 C 426.157 0.93451 -1.41291 0
M  V30 4538 O 427.363 0.85878 -1.58193 0
M  V30 4539 H 423.738 0.0977472 -0.74562 0
M  V30 4540 H 425.709 -0.474369 -2.94605 0
M  V30 4541 C 424.458 1.2779 -3.23365 0
M  V30 4542 H 423.781 0.756439 -3.92579 0
M  V30 4543 H 425.221 1.79198 -3.84271 0
M  V30 4544 C 423.68 2.31205 -2.45042 0
M  V30 4545 O 424.21 3.37661 -2.17596 0
M  V30 4546 N 422.416 2.04446 -2.0652 0
M  V30 4547 H 421.963 1.17891 -2.2904 0
M  V30 4548 H 421.921 2.73861 -1.54427 0
M  V30 4549 N 425.693 1.55336 -0.266172 0
M  V30 4550 C 426.626 2.18256 0.666296 0
M  V30 4551 C 427.604 1.14064 1.1588 0
M  V30 4552 O 428.788 1.42546 1.23341 0
M  V30 4553 C 425.915 2.79867 1.90768 0
M  V30 4554 C 424.961 3.97283 1.55141 0
M  V30 4555 S 425.794 5.31694 0.637313 0
M  V30 4556 C 426.95 5.96769 1.88727 0
M  V30 4557 H 427.183 2.97008 0.131647 0
M  V30 4558 H 424.716 1.54317 -0.0504869 0
M  V30 4559 H 426.674 3.15996 2.62025 0
M  V30 4560 H 425.335 2.01025 2.41346 0
M  V30 4561 H 424.528 4.3905 2.4749 0
M  V30 4562 H 424.13 3.6253 0.919113 0
M  V30 4563 H 426.422 6.15458 2.83227 0
M  V30 4564 H 427.365 6.91752 1.51276 0
M  V30 4565 H 427.773 5.26034 2.04814 0
M  V30 4566 N 427.171 -0.0066808 1.57599 0
M  V30 4567 C 428.101 -0.999296 2.11036 0
M  V30 4568 C 429.082 -1.36278 1.01795 0
M  V30 4569 O 430.267 -1.4477 1.29442 0
M  V30 4570 C 427.397 -2.29328 2.60818 0
M  V30 4571 C 426.351 -2.07159 3.74525 0
M  V30 4572 C 425.677 -3.42512 4.10596 0
M  V30 4573 C 426.977 -1.43959 5.02069 0
M  V30 4574 H 428.671 -0.554382 2.94223 0
M  V30 4575 H 426.217 -0.265221 1.41536 0
M  V30 4576 H 428.17 -2.99117 2.96828 0
M  V30 4577 H 426.894 -2.7592 1.74745 0
M  V30 4578 H 425.553 -1.39797 3.38899 0
M  V30 4579 H 425.201 -3.86795 3.21556 0
M  V30 4580 H 424.901 -3.28498 4.87199 0
M  V30 4581 H 426.425 -4.13628 4.4916 0
M  V30 4582 H 427.839 -2.03696 5.35893 0
M  V30 4583 H 426.236 -1.40452 5.83432 0
M  V30 4584 H 427.306 -0.407992 4.83181 0
M  V30 4585 N 428.649 -1.55105 -0.279332 0
M  V30 4586 C 429.895 -1.75672 -1.01327 0
M  V30 4587 C 430.228 -0.552739 -1.86168 0
M  V30 4588 O 429.503 0.449827 -1.89227 0
M  V30 4589 C 429.786 -3.05825 -1.90114 0
M  V30 4590 C 429.639 -4.36565 -1.08309 0
M  V30 4591 C 430.958 -3.31975 -2.8893 0
M  V30 4592 H 428.077 -0.639149 -0.366957 0
M  V30 4593 H 430.719 -1.87833 -0.286154 0
M  V30 4594 H 428.869 -2.95588 -2.52111 0
M  V30 4595 H 430.541 -4.58751 -0.484314 0
M  V30 4596 H 428.784 -4.32076 -0.386362 0
M  V30 4597 H 429.455 -5.23946 -1.73737 0
M  V30 4598 H 431.931 -3.41963 -2.37067 0
M  V30 4599 H 430.807 -4.2432 -3.48201 0
M  V30 4600 H 431.068 -2.51309 -3.63725 0
M  V30 4601 N 430.127 0.543554 -1.4793 0
M  V30 4602 C 431.075 1.67039 -1.61866 0
M  V30 4603 C 432.069 1.62294 -0.48549 0
M  V30 4604 O 433.275 1.67315 -0.66376 0
M  V30 4605 H 429.65 0.552954 -0.509652 0
M  V30 4606 H 431.621 1.52426 -2.56533 0
M  V30 4607 C 430.37 3.05357 -1.6629 0
M  V30 4608 H 429.693 3.09696 -2.5284 0
M  V30 4609 H 431.133 3.83855 -1.80088 0
M  V30 4610 C 429.592 3.34531 -0.398861 0
M  V30 4611 O 430.122 3.98649 0.494162 0
M  V30 4612 N 428.328 2.89299 -0.2747 0
M  V30 4613 H 427.875 2.37298 -1.00236 0
M  V30 4614 H 427.833 3.09188 0.570075 0
M  V30 4615 N 431.605 1.3629 0.791371 0
M  V30 4616 C 432.833 1.33562 1.58016 0
M  V30 4617 C 433.248 -0.0835616 1.88615 0
M  V30 4618 O 432.605 -1.0399 1.49974 0
M  V30 4619 C 432.656 2.15517 2.90232 0
M  V30 4620 O 432.377 3.51902 2.60953 0
M  V30 4621 C 433.878 2.20546 3.84544 0
M  V30 4622 H 431.098 0.458226 0.490173 0
M  V30 4623 H 433.642 1.79361 0.982345 0
M  V30 4624 H 431.797 1.73278 3.46487 0
M  V30 4625 H 432.211 3.94644 3.4548 0
M  V30 4626 H 433.685 2.82252 4.74382 0
M  V30 4627 H 434.162 1.20838 4.2225 0
M  V30 4628 H 434.768 2.63013 3.34222 0
M  V30 4629 N 433.083 -1.0153 1.20538 0
M  V30 4630 C 434.499 -1.27461 0.96051 0
M  V30 4631 C 434.699 -1.98273 -0.359193 0
M  V30 4632 O 433.755 -2.27886 -1.0874 0
M  V30 4633 C 435.068 -2.10837 2.14402 0
M  V30 4634 C 436.616 -2.24099 2.18515 0
M  V30 4635 C 437.091 -3.10852 3.36355 0
M  V30 4636 N 438.582 -3.18441 3.36377 0
M  V30 4637 C 439.317 -3.85795 4.24205 0
M  V30 4638 N 438.813 -4.55264 5.22213 0
M  V30 4639 N 440.606 -3.82331 4.12043 0
M  V30 4640 H 432.757 -0.539907 2.05423 0
M  V30 4641 H 435.02 -0.30092 0.898972 0
M  V30 4642 H 434.726 -1.66144 3.09983 0
M  V30 4643 H 434.6 -3.11576 2.12604 0
M  V30 4644 H 436.987 -2.68016 1.23497 0
M  V30 4645 H 437.068 -1.22865 2.24361 0
M  V30 4646 H 436.712 -2.6764 4.31661 0
M  V30 4647 H 436.642 -4.12177 3.27746 0
M  V30 4648 H 439.133 -2.68978 2.65442 0
M  V30 4649 H 439.446 -5.04331 5.85551 0
M  V30 4650 H 437.791 -4.54085 5.26148 0
M  V30 4651 H 440.982 -3.27207 3.34743 0
M  V30 4652 H 441.155 -4.34547 4.807 0
M  V30 4653 N 434.561 -1.01147 -1.20859 0
M  V30 4654 C 435.809 -0.696486 -1.89719 0
M  V30 4655 C 436.13 0.775788 -1.78904 0
M  V30 4656 O 435.4 1.55759 -1.18811 0
M  V30 4657 H 433.98 -0.254628 -0.702263 0
M  V30 4658 H 436.642 -1.28197 -1.46804 0
M  V30 4659 H 435.738 -0.975357 -2.96468 0
M  V30 4660 N 436.039 1.36541 -0.78704 0
M  V30 4661 C 436.971 2.28761 -0.141773 0
M  V30 4662 C 437.984 1.49365 0.647599 0
M  V30 4663 O 439.173 1.71836 0.483173 0
M  V30 4664 C 436.273 3.28771 0.822368 0
M  V30 4665 C 435.446 4.3732 0.0835594 0
M  V30 4666 C 434.505 5.17307 0.963296 0
M  V30 4667 O 433.531 5.67638 0.421419 0
M  V30 4668 N 434.733 5.33515 2.28784 0
M  V30 4669 H 437.498 2.84777 -0.933919 0
M  V30 4670 H 435.059 1.48682 -0.640735 0
M  V30 4671 H 437.051 3.79169 1.41468 0
M  V30 4672 H 435.621 2.73412 1.5154 0
M  V30 4673 H 434.841 3.88118 -0.689809 0
M  V30 4674 H 436.129 5.0701 -0.426358 0
M  V30 4675 H 435.527 4.94234 2.75226 0
M  V30 4676 H 434.084 5.87165 2.82985 0
M  V30 4677 N 437.518 0.538854 1.48102 0
M  V30 4678 C 438.764 0.00801365 2.02798 0
M  V30 4679 C 439.097 -1.3309 1.41424 0
M  V30 4680 O 438.372 -1.86169 0.563158 0
M  V30 4681 C 438.655 -0.104589 3.59948 0
M  V30 4682 C 438.508 1.26012 4.31788 0
M  V30 4683 C 439.827 -0.827055 4.32259 0
M  V30 4684 H 436.946 0.00438624 0.736987 0
M  V30 4685 H 439.588 0.6976 1.7673 0
M  V30 4686 H 437.738 -0.691893 3.82289 0
M  V30 4687 H 439.41 1.88922 4.2084 0
M  V30 4688 H 437.653 1.83968 3.92859 0
M  V30 4689 H 438.324 1.13424 5.40221 0
M  V30 4690 H 440.8 -0.328578 4.14801 0
M  V30 4691 H 439.676 -0.87476 5.41885 0
M  V30 4692 H 439.937 -1.87927 4.0017 0
M  V30 4693 N 438.996 -1.55193 0.274407 0
M  V30 4694 C 439.943 -2.225 -0.613374 0
M  V30 4695 C 440.913 -1.19823 -1.15029 0
M  V30 4696 O 442.098 -1.48362 -1.19973 0
M  V30 4697 C 439.238 -2.94927 -1.79199 0
M  V30 4698 C 438.351 -4.12322 -1.28899 0
M  V30 4699 C 437.486 -4.72394 -2.42934 0
M  V30 4700 C 436.525 -5.81984 -1.89634 0
M  V30 4701 N 435.662 -6.36123 -2.9714 0
M  V30 4702 H 440.502 -2.97982 -0.032756 0
M  V30 4703 H 438.039 -1.47099 -0.00440146 0
M  V30 4704 H 439.997 -3.35134 -2.48478 0
M  V30 4705 H 438.627 -2.2187 -2.34465 0
M  V30 4706 H 437.679 -3.7724 -0.489327 0
M  V30 4707 H 438.991 -4.91355 -0.858587 0
M  V30 4708 H 438.145 -5.15317 -3.20208 0
M  V30 4709 H 436.884 -3.92636 -2.8929 0
M  V30 4710 H 435.889 -5.38511 -1.1084 0
M  V30 4711 H 437.114 -6.6361 -1.44215 0
M  V30 4712 H 435.06 -5.59259 -3.42878 0
M  V30 4713 H 434.977 -7.10427 -2.58515 0
M  V30 4714 H 436.245 -6.83704 -3.74391 0
M  V30 4715 N 440.474 -0.00167713 -1.576 0
M  V30 4716 C 441.404 0.988091 -2.11563 0
M  V30 4717 C 442.385 1.35736 -1.02517 0
M  V30 4718 O 443.57 1.44082 -1.30208 0
M  V30 4719 C 440.7 2.27941 -2.62031 0
M  V30 4720 C 439.654 2.0517 -3.75619 0
M  V30 4721 C 438.98 3.4033 -4.12407 0
M  V30 4722 C 440.28 1.41294 -5.02825 0
M  V30 4723 H 441.974 0.538771 -2.94513 0
M  V30 4724 H 439.52 0.257712 -1.41675 0
M  V30 4725 H 441.473 2.97539 -2.9841 0
M  V30 4726 H 440.197 2.74989 -1.76205 0
M  V30 4727 H 438.856 1.37998 -3.39635 0
M  V30 4728 H 438.504 3.85085 -3.23603 0
M  V30 4729 H 438.204 3.25909 -4.88935 0
M  V30 4730 H 439.728 4.1124 -4.51347 0
M  V30 4731 H 441.142 2.00851 -5.36965 0
M  V30 4732 H 439.539 1.37356 -5.84169 0
M  V30 4733 H 440.609 0.382362 -4.8339 0
M  V30 4734 N 441.952 1.55251 0.271103 0
M  V30 4735 C 443.192 1.77698 1.01008 0
M  V30 4736 C 443.556 0.567246 1.83429 0
M  V30 4737 O 444.757 0.670013 2.60316 0
M  V30 4738 C 443.028 3.04715 1.86772 0
M  V30 4739 S 444.587 3.48289 2.66909 0
M  V30 4740 H 441.405 0.624343 0.340172 0
M  V30 4741 H 444.007 1.9348 0.280315 0
M  V30 4742 H 442.711 3.90853 1.25149 0
M  V30 4743 H 442.242 2.91604 2.64066 0
M  V30 4744 H 444.257 3.07712 3.89266 0
M  V30 4745 N 443.43 -0.535701 1.48216 0
M  V30 4746 C 444.707 -1.29683 1.46429 0
M  V30 4747 C 445.087 -2.10391 0.172852 0
M  V30 4748 O 444.435 -2.12282 -0.845488 0
M  V30 4749 C 444.645 -2.18313 2.72287 0
M  V30 4750 C 445.993 -2.78639 3.20383 0
M  V30 4751 O 447.017 -2.28604 2.73164 0
M  V30 4752 O 445.876 -3.69636 4.02531 0
M  V30 4753 H 442.97 -0.585026 0.584529 0
M  V30 4754 H 445.516 -0.552827 1.60443 0
M  V30 4755 H 444.288 -1.58421 3.57797 0
M  V30 4756 H 443.911 -2.99971 2.60966 0
M  V30 4757 N 444.908 -1.36708 -0.784132 0
M  V30 4758 C 446.155 -1.31231 -1.54222 0
M  V30 4759 C 446.483 0.106864 -1.94206 0
M  V30 4760 O 445.738 1.07734 -1.63376 0
M  V30 4761 C 446.037 -2.18571 -2.82774 0
M  V30 4762 C 445.703 -3.67039 -2.61903 0
M  V30 4763 C 444.365 -4.07503 -2.55919 0
M  V30 4764 C 446.717 -4.61149 -2.4288 0
M  V30 4765 C 444.045 -5.40211 -2.28886 0
M  V30 4766 C 446.397 -5.94081 -2.17373 0
M  V30 4767 C 445.061 -6.33664 -2.09825 0
M  V30 4768 H 444.331 -0.48021 -0.56434 0
M  V30 4769 H 446.978 -1.68807 -0.904233 0
M  V30 4770 H 445.283 -1.73949 -3.51068 0
M  V30 4771 H 446.98 -2.11655 -3.40592 0
M  V30 4772 H 443.57 -3.34941 -2.67418 0
M  V30 4773 H 447.754 -4.30756 -2.46501 0
M  V30 4774 H 443.01 -5.69855 -2.21529 0
M  V30 4775 H 447.184 -6.66566 -2.01649 0
M  V30 4776 H 444.811 -7.36423 -1.88641 0
M  V30 4777 N 446.386 1.0089 -1.21074 0
M  V30 4778 C 447.634 1.74262 -1.02358 0
M  V30 4779 C 447.955 1.89869 0.444393 0
M  V30 4780 O 447.225 1.44677 1.32081 0
M  V30 4781 H 445.805 0.645615 -0.375754 0
M  V30 4782 H 448.467 1.21596 -1.52317 0
M  V30 4783 H 447.563 2.74328 -1.4883 0
M  V30 4784 N 447.864 1.01787 1.20321 0
M  V30 4785 C 449.11 0.708985 1.90003 0
M  V30 4786 C 449.443 -0.759572 1.78729 0
M  V30 4787 O 448.718 -1.55198 1.17234 0
M  V30 4788 C 449.001 1.1469 3.41348 0
M  V30 4789 C 448.854 2.67586 3.61549 0
M  V30 4790 C 450.173 0.71915 4.34185 0
M  V30 4791 H 447.292 0.259034 0.689978 0
M  V30 4792 H 449.934 1.26584 1.41692 0
M  V30 4793 H 448.084 0.673128 3.82624 0
M  V30 4794 H 449.756 3.22826 3.29517 0
M  V30 4795 H 447.999 3.085 3.04976 0
M  V30 4796 H 448.67 2.93281 4.67643 0
M  V30 4797 H 451.146 1.12647 4.00562 0
M  V30 4798 H 450.022 1.05358 5.38694 0
M  V30 4799 H 450.283 -0.379111 4.40472 0
M  V30 4800 N 449.342 -1.36122 0.79427 0
M  V30 4801 C 450.567 -2.03891 0.379871 0
M  V30 4802 C 450.992 -1.59488 -0.997251 0
M  V30 4803 O 450.35 -0.765652 -1.64339 0
M  V30 4804 C 450.398 -3.57687 0.457442 0
M  V30 4805 O 449.502 -4.08931 -0.5338 0
M  V30 4806 H 448.843 -0.6443 0.160541 0
M  V30 4807 H 451.373 -1.73976 1.07673 0
M  V30 4808 H 451.383 -4.06721 0.322792 0
M  V30 4809 H 450.058 -3.89357 1.46199 0
M  V30 4810 H 448.635 -3.71154 -0.360409 0
M  V30 4811 N 450.82 -0.546701 -1.47814 0
M  V30 4812 C 452.048 -0.0232857 -2.06887 0
M  V30 4813 C 452.463 1.26571 -1.4009 0
M  V30 4814 O 451.82 1.7569 -0.493906 0
M  V30 4815 C 451.871 0.186975 -3.61016 0
M  V30 4816 O 451.592 -1.05097 -4.25307 0
M  V30 4817 C 453.093 0.748872 -4.36929 0
M  V30 4818 H 450.313 -0.0410763 -0.669742 0
M  V30 4819 H 452.857 -0.757117 -1.89968 0
M  V30 4820 H 451.012 0.870903 -3.77484 0
M  V30 4821 H 451.426 -0.842121 -5.17695 0
M  V30 4822 H 452.9 0.845334 -5.45489 0
M  V30 4823 H 453.377 1.75772 -4.02493 0
M  V30 4824 H 453.983 0.100979 -4.2518 0
M  V30 4825 N 452.299 1.55045 -0.282633 0
M  V30 4826 C 453.231 2.2023 0.634924 0
M  V30 4827 C 454.244 1.18931 1.11172 0
M  V30 4828 O 455.433 1.4562 1.03233 0
M  V30 4829 C 452.533 2.82041 1.87899 0
M  V30 4830 C 451.706 4.091 1.54776 0
M  V30 4831 C 450.765 4.54887 2.64507 0
M  V30 4832 O 449.791 5.20496 2.30375 0
M  V30 4833 N 450.993 4.25659 3.94709 0
M  V30 4834 H 453.758 2.99601 0.0769811 0
M  V30 4835 H 451.319 1.61565 -0.104048 0
M  V30 4836 H 453.311 3.09613 2.60619 0
M  V30 4837 H 451.881 2.06618 2.3458 0
M  V30 4838 H 451.101 3.88736 0.654049 0
M  V30 4839 H 452.389 4.9187 1.30158 0
M  V30 4840 H 451.787 3.7306 4.25256 0
M  V30 4841 H 450.344 4.57984 4.63782 0
M  V30 4842 N 453.777 0.010035 1.57597 0
M  V30 4843 C 454.707 -0.976857 2.12084 0
M  V30 4844 C 455.688 -1.35191 1.03235 0
M  V30 4845 O 456.873 -1.43389 1.3097 0
M  V30 4846 C 454.003 -2.26548 2.63236 0
M  V30 4847 C 452.957 -2.03175 3.76701 0
M  V30 4848 C 452.283 -3.38138 4.14206 0
M  V30 4849 C 453.583 -1.38625 5.03568 0
M  V30 4850 H 455.277 -0.523145 2.94794 0
M  V30 4851 H 452.823 -0.250195 1.4181 0
M  V30 4852 H 454.776 -2.95952 2.99984 0
M  V30 4853 H 453.5 -2.74051 1.77661 0
M  V30 4854 H 452.159 -1.36195 3.40362 0
M  V30 4855 H 451.807 -3.83363 3.25641 0
M  V30 4856 H 451.507 -3.23312 4.90656 0
M  V30 4857 H 453.031 -4.08841 4.53521 0
M  V30 4858 H 454.445 -1.98 5.38023 0
M  V30 4859 H 452.842 -1.34256 5.84889 0
M  V30 4860 H 453.912 -0.356722 4.83586 0
M  V30 4861 N 455.255 -1.55392 -0.262866 0
M  V30 4862 C 456.501 -1.76737 -0.99458 0
M  V30 4863 C 456.834 -0.572453 -1.85571 0
M  V30 4864 O 456.109 0.429732 -1.89693 0
M  V30 4865 C 456.392 -3.07824 -1.8686 0
M  V30 4866 C 456.245 -4.3769 -1.03672 0
M  V30 4867 C 457.564 -3.35021 -2.85393 0
M  V30 4868 H 454.683 -0.643005 -0.360157 0
M  V30 4869 H 457.325 -1.88126 -0.266216 0
M  V30 4870 H 455.475 -2.98245 -2.48962 0
M  V30 4871 H 457.147 -4.59238 -0.43563 0
M  V30 4872 H 455.39 -4.32461 -0.340513 0
M  V30 4873 H 456.061 -5.25759 -1.6817 0
M  V30 4874 H 458.537 -3.44458 -2.33426 0
M  V30 4875 H 457.413 -4.27989 -3.43681 0
M  V30 4876 H 457.674 -2.55153 -3.61039 0
M  V30 4877 N 456.733 0.527833 -1.48498 0
M  V30 4878 C 457.681 1.65313 -1.63628 0
M  V30 4879 C 458.675 1.6177 -0.502676 0
M  V30 4880 O 459.881 1.66601 -0.681469 0
M  V30 4881 H 456.256 0.547518 -0.515488 0
M  V30 4882 H 458.227 1.49696 -2.58135 0
M  V30 4883 C 456.976 3.03576 -1.6952 0
M  V30 4884 H 456.299 3.06997 -2.56111 0
M  V30 4885 H 457.739 3.81923 -1.84149 0
M  V30 4886 C 456.198 3.34089 -0.43432 0
M  V30 4887 O 456.728 3.99151 0.451852 0
M  V30 4888 N 454.934 2.88991 -0.305368 0
M  V30 4889 H 454.481 2.36222 -1.02747 0
M  V30 4890 H 454.439 3.09776 0.537249 0
M  V30 4891 N 458.211 1.37122 0.776871 0
M  V30 4892 C 459.436 1.354 1.57104 0
M  V30 4893 C 459.861 -0.0595562 1.88006 0
M  V30 4894 O 459.219 -1.03514 1.48844 0
M  V30 4895 C 459.267 2.19472 2.8612 0
M  V30 4896 O 458.371 1.59582 3.80273 0
M  V30 4897 H 457.712 0.462869 0.476076 0
M  V30 4898 H 460.242 1.80577 0.961932 0
M  V30 4899 H 460.252 2.32502 3.35271 0
M  V30 4900 H 458.927 3.22222 2.62956 0
M  V30 4901 H 457.504 1.55564 3.38902 0
M  V30 4902 N 459.689 -1.00246 1.21608 0
M  V30 4903 C 460.938 -1.73476 1.02902 0
M  V30 4904 C 461.251 -1.90643 -0.437561 0
M  V30 4905 O 462.457 -2.61105 -0.74407 0
M  V30 4906 C 460.913 -3.12079 1.79261 0
M  V30 4907 C 460.521 -3.02877 3.30106 0
M  V30 4908 C 462.265 -3.89421 1.68972 0
M  V30 4909 C 460.172 -4.36575 3.98944 0
M  V30 4910 H 459.102 -0.650408 0.381425 0
M  V30 4911 H 461.753 -1.11985 1.45367 0
M  V30 4912 H 460.135 -3.74196 1.2959 0
M  V30 4913 H 461.309 -2.49983 3.87098 0
M  V30 4914 H 459.624 -2.39022 3.40965 0
M  V30 4915 H 462.221 -4.88362 2.17731 0
M  V30 4916 H 462.564 -4.1122 0.648397 0
M  V30 4917 H 463.097 -3.33963 2.16133 0
M  V30 4918 H 459.836 -4.19978 5.03288 0
M  V30 4919 H 459.356 -4.8942 3.4674 0
M  V30 4920 H 461.035 -5.05364 4.04 0
M  V30 4921 N 461.167 -1.02423 -1.1978 0
M  V30 4922 C 462.13 -0.605703 -2.21052 0
M  V30 4923 C 463.13 0.328209 -1.57415 0
M  V30 4924 O 464.32 0.115853 -1.73814 0
M  V30 4925 C 461.452 0.114366 -3.40708 0
M  V30 4926 H 462.645 -1.5017 -2.59594 0
M  V30 4927 H 460.198 -0.814888 -1.33376 0
M  V30 4928 H 460.933 1.02492 -3.07678 0
M  V30 4929 H 460.718 -0.556641 -3.88129 0
M  V30 4930 H 462.208 0.394272 -4.15735 0
M  V30 4931 N 462.645 1.35699 -0.801477 0
M  V30 4932 C 463.592 2.29876 -0.206294 0
M  V30 4933 C 464.562 1.52565 0.656752 0
M  V30 4934 O 465.747 1.81024 0.602906 0
M  V30 4935 C 462.887 3.39052 0.643272 0
M  V30 4936 C 462 4.31335 -0.239644 0
M  V30 4937 C 461.135 5.27599 0.61744 0
M  V30 4938 C 460.174 6.11521 -0.26619 0
M  V30 4939 N 459.311 6.99938 0.550571 0
M  V30 4940 H 464.151 2.80187 -1.01484 0
M  V30 4941 H 461.688 1.37902 -0.511997 0
M  V30 4942 H 463.646 4.0101 1.15094 0
M  V30 4943 H 462.276 2.9003 1.41713 0
M  V30 4944 H 461.328 3.70426 -0.865381 0
M  V30 4945 H 462.64 4.90243 -0.919985 0
M  V30 4946 H 461.794 5.94906 1.19045 0
M  V30 4947 H 460.533 4.69176 1.33137 0
M  V30 4948 H 459.538 5.43166 -0.851507 0
M  V30 4949 H 460.763 6.72022 -0.9779 0
M  V30 4950 H 458.709 6.44008 1.24856 0
M  V30 4951 H 458.626 7.55966 -0.071832 0
M  V30 4952 H 459.894 7.71599 1.10702 0
M  V30 4953 N 464.123 0.554532 1.47522 0
M  V30 4954 C 465.351 0.034257 2.06872 0
M  V30 4955 C 465.766 -1.25826 1.40759 0
M  V30 4956 O 465.123 -1.75425 0.503217 0
M  V30 4957 C 465.174 -0.167827 3.6111 0
M  V30 4958 O 464.895 1.07351 4.24744 0
M  V30 4959 C 466.396 -0.72569 4.3732 0
M  V30 4960 H 463.616 0.0446275 0.669514 0
M  V30 4961 H 466.16 0.767181 1.89564 0
M  V30 4962 H 464.315 -0.850872 3.7794 0
M  V30 4963 H 464.729 0.869563 5.17242 0
M  V30 4964 H 466.203 -0.816394 5.45929 0
M  V30 4965 H 466.68 -1.73635 4.0342 0
M  V30 4966 H 467.286 -0.0784292 4.25228 0
M  V30 4967 N 465.601 -1.54893 0.290851 0
M  V30 4968 C 466.831 -2.04047 -0.323818 0
M  V30 4969 C 467.239 -1.16809 -1.48837 0
M  V30 4970 O 466.582 -0.184145 -1.82775 0
M  V30 4971 C 466.644 -3.49248 -0.852395 0
M  V30 4972 C 466.308 -4.56623 0.185557 0
M  V30 4973 C 467.305 -5.09985 1.01053 0
M  V30 4974 C 464.99 -5.01252 0.324332 0
M  V30 4975 C 466.984 -6.06507 1.96031 0
M  V30 4976 C 464.671 -5.97596 1.27757 0
M  V30 4977 C 465.669 -6.50107 2.09405 0
M  V30 4978 O 465.357 -7.44565 3.03114 0
M  V30 4979 H 465.089 -0.671735 -0.0758129 0
M  V30 4980 H 467.643 -2.00947 0.425393 0
M  V30 4981 H 465.873 -3.49639 -1.65195 0
M  V30 4982 H 467.562 -3.81654 -1.38185 0
M  V30 4983 H 468.328 -4.76307 0.914129 0
M  V30 4984 H 464.207 -4.60015 -0.301213 0
M  V30 4985 H 467.751 -6.47418 2.598 0
M  V30 4986 H 463.648 -6.30691 1.37473 0
M  V30 4987 H 464.416 -7.62334 2.97976 0
M  V30 4988 N 467.08 -0.0183926 -1.57589 0
M  V30 4989 C 468.326 0.663543 -1.91638 0
M  V30 4990 C 468.659 1.72392 -0.894134 0
M  V30 4991 O 467.934 1.94316 0.0846449 0
M  V30 4992 C 468.217 1.28984 -3.36207 0
M  V30 4993 C 468.07 0.239761 -4.49161 0
M  V30 4994 C 469.389 2.2109 -3.80536 0
M  V30 4995 H 466.508 0.239746 -0.696915 0
M  V30 4996 H 469.15 -0.073456 -1.89858 0
M  V30 4997 H 467.3 1.91799 -3.37854 0
M  V30 4998 H 468.972 -0.390119 -4.59647 0
M  V30 4999 H 467.215 -0.435972 -4.31604 0
M  V30 5000 H 467.886 0.717383 -5.47319 0
M  V30 5001 H 470.362 1.68273 -3.80557 0
M  V30 5002 H 469.238 2.61869 -4.82406 0
M  V30 5003 H 469.499 3.09764 -3.15434 0
M  V30 5004 N 468.558 1.5553 0.254621 0
M  V30 5005 C 469.806 1.7665 0.981793 0
M  V30 5006 C 470.127 0.580963 1.86145 0
M  V30 5007 O 469.397 -0.403537 1.91699 0
M  V30 5008 H 467.977 0.651475 0.365498 0
M  V30 5009 H 470.639 1.92958 0.274426 0
M  V30 5010 H 469.735 2.67486 1.60802 0
M  V30 5011 N 470.036 -0.519951 1.48776 0
M  V30 5012 C 471.264 -1.29971 1.60982 0
M  V30 5013 C 471.679 -1.86803 0.273885 0
M  V30 5014 O 471.036 -1.66904 -0.738193 0
M  V30 5015 C 471.087 -2.44346 2.66415 0
M  V30 5016 O 470.808 -1.89855 3.94825 0
M  V30 5017 C 472.309 -3.36014 2.89153 0
M  V30 5018 H 469.529 -0.394891 0.542496 0
M  V30 5019 H 472.073 -0.626214 1.94676 0
M  V30 5020 H 470.228 -3.07562 2.35552 0
M  V30 5021 H 470.642 -2.64798 4.5275 0
M  V30 5022 H 472.116 -4.12593 3.66703 0
M  V30 5023 H 472.593 -3.91859 1.98351 0
M  V30 5024 H 473.199 -2.78582 3.21359 0
M  V30 5025 N 471.514 -1.37532 -0.769588 0
M  V30 5026 C 472.462 -1.33561 -1.90432 0
M  V30 5027 C 473.456 -0.224027 -1.67912 0
M  V30 5028 O 474.662 -0.392174 -1.75676 0
M  V30 5029 H 471.037 -0.416279 -0.626271 0
M  V30 5030 H 473.008 -2.29348 -1.90899 0
M  V30 5031 C 471.757 -1.16162 -3.27722 0
M  V30 5032 H 471.08 -2.00951 -3.45628 0
M  V30 5033 H 472.52 -1.17434 -4.07413 0
M  V30 5034 C 470.979 0.132583 -3.36639 0
M  V30 5035 O 471.509 1.11539 -3.85904 0
M  V30 5036 N 469.715 0.184013 -2.90017 0
M  V30 5037 H 469.262 -0.616415 -2.50116 0
M  V30 5038 H 469.22 1.04956 -2.96364 0
M  V30 5039 N 472.992 0.995999 -1.22138 0
M  V30 5040 C 473.955 2.06711 -0.990109 0
M  V30 5041 C 474.955 1.60744 0.0422978 0
M  V30 5042 O 476.145 1.73095 -0.195895 0
M  V30 5043 C 473.277 3.37288 -0.49491 0
M  V30 5044 H 474.47 2.28661 -1.94047 0
M  V30 5045 H 472.023 1.16711 -1.03963 0
M  V30 5046 H 472.758 3.21022 0.459948 0
M  V30 5047 H 472.543 3.71986 -1.23971 0
M  V30 5048 H 474.033 4.16103 -0.353253 0
M  V30 5049 N 474.47 1.03057 1.19235 0
M  V30 5050 C 475.7 0.746613 1.92638 0
M  V30 5051 C 476.108 -0.698708 1.75826 0
M  V30 5052 O 475.451 -1.487 1.07861 0
M  V30 5053 C 475.513 1.02024 3.44719 0
M  V30 5054 C 475.177 2.45745 3.85303 0
M  V30 5055 C 476.174 3.43887 3.8992 0
M  V30 5056 C 473.859 2.8019 4.16892 0
M  V30 5057 C 475.853 4.74529 4.2556 0
M  V30 5058 C 473.54 4.1104 4.52205 0
M  V30 5059 C 474.538 5.0802 4.56513 0
M  V30 5060 O 474.226 6.36527 4.91008 0
M  V30 5061 H 473.958 0.272401 0.618687 0
M  V30 5062 H 476.512 1.37853 1.52269 0
M  V30 5063 H 474.742 0.331184 3.85279 0
M  V30 5064 H 476.431 0.725677 3.9936 0
M  V30 5065 H 477.197 3.18614 3.65664 0
M  V30 5066 H 473.076 2.05382 4.12722 0
M  V30 5067 H 476.62 5.50222 4.28838 0
M  V30 5068 H 472.517 4.36086 4.7592 0
M  V30 5069 H 473.285 6.41025 5.08949 0
M  V30 5070 N 475.948 -1.35272 0.808662 0
M  V30 5071 C 476.881 -2.27595 0.165994 0
M  V30 5072 C 477.859 -1.48189 -0.669241 0
M  V30 5073 O 479.043 -1.77444 -0.636073 0
M  V30 5074 C 476.17 -3.29843 -0.769505 0
M  V30 5075 C 475.216 -4.26498 -0.0136267 0
M  V30 5076 S 476.049 -5.18878 1.32384 0
M  V30 5077 C 477.205 -6.24666 0.392838 0
M  V30 5078 H 477.438 -2.81755 0.948756 0
M  V30 5079 H 474.971 -1.42103 0.603828 0
M  V30 5080 H 476.929 -3.89247 -1.30374 0
M  V30 5081 H 475.59 -2.74558 -1.52567 0
M  V30 5082 H 474.783 -4.98769 -0.724227 0
M  V30 5083 H 474.385 -3.71274 0.450713 0
M  V30 5084 H 476.677 -6.7619 -0.4211 0
M  V30 5085 H 477.62 -6.99741 1.0848 0
M  V30 5086 H 478.028 -5.64499 -0.0123908 0
M  V30 5087 N 477.426 -0.562348 -1.47226 0
M  V30 5088 C 478.389 0.172056 -2.28553 0
M  V30 5089 C 479.389 0.837928 -1.37242 0
M  V30 5090 O 480.579 0.693001 -1.59822 0
M  V30 5091 C 477.711 1.25223 -3.17068 0
M  V30 5092 H 478.904 -0.542401 -2.94954 0
M  V30 5093 H 476.457 -0.319493 -1.53 0
M  V30 5094 H 477.192 1.99892 -2.55369 0
M  V30 5095 H 476.977 0.779515 -3.84273 0
M  V30 5096 H 478.467 1.76791 -3.78332 0
M  V30 5097 N 478.904 1.54736 -0.299062 0
M  V30 5098 C 480.315 1.8569 0.193971 0
M  V30 5099 C 480.666 1.22101 1.53577 0
M  V30 5100 O 479.791 0.51799 2.10109 0
M  V30 5101 C 480.386 3.36895 0.358733 0
M  V30 5102 C 478.945 3.67887 0.795986 0
M  V30 5103 C 478.092 2.77131 -0.096807 0
M  V30 5104 H 481.043 1.49934 -0.520134 0
M  V30 5105 H 481.064 3.61294 1.19361 0
M  V30 5106 H 480.576 3.83148 -0.617998 0
M  V30 5107 H 478.677 3.27151 1.78334 0
M  V30 5108 H 478.79 4.75114 0.616718 0
M  V30 5109 H 477.154 2.51153 0.423581 0
M  V30 5110 H 477.937 3.26204 -1.06986 0
M  V30 5111 N 480.382 0.0267497 1.57577 0
M  V30 5112 C 481.292 -0.971633 2.13533 0
M  V30 5113 C 482.308 -1.35868 1.08701 0
M  V30 5114 O 483.484 -1.44058 1.40746 0
M  V30 5115 C 480.549 -2.23622 2.64941 0
M  V30 5116 C 479.61 -1.90982 3.8448 0
M  V30 5117 C 478.843 -3.11411 4.33427 0
M  V30 5118 O 479.066 -4.23992 3.81558 0
M  V30 5119 O 478 -2.93848 5.25297 0
M  V30 5120 H 481.826 -0.525853 2.99113 0
M  V30 5121 H 479.411 -0.193712 1.48139 0
M  V30 5122 H 481.293 -2.97864 2.98086 0
M  V30 5123 H 479.968 -2.67386 1.82446 0
M  V30 5124 H 478.875 -1.14132 3.56265 0
M  V30 5125 H 480.208 -1.52036 4.6813 0
M  V30 5126 N 481.861 -1.55662 -0.24637 0
M  V30 5127 C 483.277 -1.48098 -0.594907 0
M  V30 5128 C 483.477 -0.717044 -1.8831 0
M  V30 5129 O 482.533 -0.246618 -2.51293 0
M  V30 5130 C 483.846 -2.92507 -0.697146 0
M  V30 5131 C 485.394 -3.02881 -0.789436 0
M  V30 5132 C 485.869 -4.48598 -0.923232 0
M  V30 5133 N 487.36 -4.52538 -0.988088 0
M  V30 5134 C 488.095 -5.62536 -1.11089 0
M  V30 5135 N 487.591 -6.82342 -1.19919 0
M  V30 5136 N 489.384 -5.50334 -1.14408 0
M  V30 5137 H 481.535 -2.0377 0.599278 0
M  V30 5138 H 483.798 -0.925145 0.20691 0
M  V30 5139 H 483.504 -3.51242 0.179396 0
M  V30 5140 H 483.378 -3.43024 -1.5689 0
M  V30 5141 H 485.765 -2.44226 -1.65643 0
M  V30 5142 H 485.846 -2.55574 0.107482 0
M  V30 5143 H 485.49 -5.07864 -0.0607927 0
M  V30 5144 H 485.42 -4.93587 -1.8352 0
M  V30 5145 H 487.911 -3.66248 -0.931167 0
M  V30 5146 H 488.224 -7.61924 -1.29197 0
M  V30 5147 H 486.569 -6.85102 -1.16876 0
M  V30 5148 H 489.76 -4.5567 -1.07158 0
M  V30 5149 H 489.933 -6.36096 -1.23634 0
M  V30 5150 N 483.339 0.512053 -1.4905 0
M  V30 5151 C 484.588 1.26343 -1.57227 0
M  V30 5152 C 484.901 1.93876 -0.259155 0
M  V30 5153 O 486.107 2.70612 -0.219358 0
M  V30 5154 C 484.563 2.29343 -2.77362 0
M  V30 5155 C 484.171 1.67799 -4.15388 0
M  V30 5156 C 485.915 3.05378 -2.94864 0
M  V30 5157 C 483.822 2.68845 -5.2676 0
M  V30 5158 H 482.752 0.475231 -0.585382 0
M  V30 5159 H 485.403 0.53862 -1.75417 0
M  V30 5160 H 483.785 3.04938 -2.52643 0
M  V30 5161 H 484.959 0.982715 -4.50199 0
M  V30 5162 H 483.274 1.04194 -4.03153 0
M  V30 5163 H 485.871 3.80921 -3.75238 0
M  V30 5164 H 486.214 3.62327 -2.05 0
M  V30 5165 H 486.747 2.36898 -3.19569 0
M  V30 5166 H 483.486 2.16692 -6.18647 0
M  V30 5167 H 483.006 3.36647 -4.96416 0
M  V30 5168 H 484.685 3.31487 -5.5563 0
M  V30 5169 N 484.817 1.37938 0.762283 0
M  V30 5170 C 486.042 1.37059 1.55659 0
M  V30 5171 C 486.467 -0.0396123 1.88058 0
M  V30 5172 O 485.825 -1.01929 1.49934 0
M  V30 5173 C 485.873 2.22494 2.83776 0
M  V30 5174 O 484.977 1.63607 3.78559 0
M  V30 5175 H 484.318 0.467892 0.47114 0
M  V30 5176 H 486.848 1.81587 0.942725 0
M  V30 5177 H 486.858 2.36045 3.32786 0
M  V30 5178 H 485.533 3.24993 2.59524 0
M  V30 5179 H 484.11 1.5915 3.37233 0
M  V30 5180 N 486.295 -0.989507 1.22664 0
M  V30 5181 C 487.543 -1.72612 1.05117 0
M  V30 5182 C 487.864 -1.90552 -0.414131 0
M  V30 5183 O 487.134 -1.4676 -1.29762 0
M  V30 5184 H 485.714 -0.639555 0.385977 0
M  V30 5185 H 488.376 -1.19158 1.54232 0
M  V30 5186 H 487.472 -2.71926 1.53175 0
M  V30 5187 N 487.773 -1.03688 -1.18687 0
M  V30 5188 C 488.683 -0.634908 -2.25845 0
M  V30 5189 C 489.699 0.337065 -1.70704 0
M  V30 5190 O 490.875 0.192943 -2.00474 0
M  V30 5191 C 487.94 -0.000180054 -3.467 0
M  V30 5192 C 487.001 -1.02067 -4.1699 0
M  V30 5193 C 486.234 -0.41614 -5.32075 0
M  V30 5194 O 486.457 0.778712 -5.65059 0
M  V30 5195 O 485.391 -1.14296 -5.90948 0
M  V30 5196 H 489.217 -1.52757 -2.62486 0
M  V30 5197 H 486.802 -0.807533 -1.25695 0
M  V30 5198 H 488.684 0.353342 -4.19916 0
M  V30 5199 H 487.359 0.866367 -3.11891 0
M  V30 5200 H 486.266 -1.42592 -3.45859 0
M  V30 5201 H 487.599 -1.85786 -4.5579 0
M  V30 5202 N 489.251 1.34841 -0.815825 0
M  V30 5203 C 490.183 2.28409 -0.190265 0
M  V30 5204 C 491.196 1.50705 0.615771 0
M  V30 5205 O 492.385 1.72822 0.446616 0
M  V30 5206 C 489.485 3.30441 0.752446 0
M  V30 5207 C 488.658 4.37399 -0.00922152 0
M  V30 5208 C 487.717 5.19234 0.853351 0
M  V30 5209 O 486.743 5.68404 0.300919 0
M  V30 5210 N 487.945 5.38248 2.17416 0
M  V30 5211 H 490.71 2.82732 -0.994114 0
M  V30 5212 H 488.271 1.47289 -0.672129 0
M  V30 5213 H 490.263 3.82084 1.33394 0
M  V30 5214 H 488.833 2.76565 1.45707 0
M  V30 5215 H 488.053 3.86567 -0.771979 0
M  V30 5216 H 489.341 5.05992 -0.533807 0
M  V30 5217 H 488.739 4.99961 2.6468 0
M  V30 5218 H 487.296 5.93035 2.70467 0
M  V30 5219 N 490.729 0.570148 1.46925 0
M  V30 5220 C 491.959 0.0561151 2.06524 0
M  V30 5221 C 492.367 -1.24874 1.42137 0
M  V30 5222 O 491.71 -1.76292 0.516417 0
M  V30 5223 C 491.772 -0.197035 3.5896 0
M  V30 5224 C 491.436 1.02033 4.45464 0
M  V30 5225 C 492.433 1.92921 4.82781 0
M  V30 5226 C 490.118 1.23864 4.86788 0
M  V30 5227 C 492.112 3.03999 5.60235 0
M  V30 5228 C 489.799 2.35249 5.64004 0
M  V30 5229 C 490.797 3.25146 6.0064 0
M  V30 5230 O 490.485 4.34598 6.76299 0
M  V30 5231 H 490.217 0.0487409 0.674241 0
M  V30 5232 H 492.771 0.786915 1.89728 0
M  V30 5233 H 491.001 -0.982299 3.74016 0
M  V30 5234 H 492.69 -0.658032 4.00531 0
M  V30 5235 H 493.456 1.77265 4.51444 0
M  V30 5236 H 489.335 0.54805 4.57731 0
M  V30 5237 H 492.879 3.74192 5.8875 0
M  V30 5238 H 488.776 2.50873 5.94755 0
M  V30 5239 H 489.544 4.32808 6.94708 0
M  V30 5240 N 492.207 -1.54576 0.307264 0
M  V30 5241 C 493.455 -1.99867 -0.299574 0
M  V30 5242 C 493.776 -1.19714 -1.53927 0
M  V30 5243 O 493.046 -0.29472 -1.9367 0
M  V30 5244 H 491.626 -0.738299 -0.113683 0
M  V30 5245 H 494.288 -1.9032 0.420042 0
M  V30 5246 H 493.384 -3.06901 -0.567283 0
M  V30 5247 N 493.685 -0.035106 -1.57561 0
M  V30 5248 C 494.934 0.641604 -1.91223 0
M  V30 5249 C 495.247 1.72944 -0.913761 0
M  V30 5250 O 496.453 2.46321 -1.14185 0
M  V30 5251 C 494.909 1.19249 -3.3957 0
M  V30 5252 C 494.517 0.137616 -4.47789 0
M  V30 5253 C 496.261 1.84537 -3.82291 0
M  V30 5254 C 494.168 0.700478 -5.87237 0
M  V30 5255 H 493.098 0.243417 -0.713627 0
M  V30 5256 H 495.749 -0.101382 -1.8322 0
M  V30 5257 H 494.131 1.98728 -3.42525 0
M  V30 5258 H 495.305 -0.635153 -4.56402 0
M  V30 5259 H 493.62 -0.416855 -4.14308 0
M  V30 5260 H 496.217 2.27616 -4.83834 0
M  V30 5261 H 496.56 2.69054 -3.17672 0
M  V30 5262 H 497.093 1.11739 -3.81784 0
M  V30 5263 H 493.832 -0.106693 -6.55413 0
M  V30 5264 H 493.352 1.4416 -5.82218 0
M  V30 5265 H 495.031 1.18837 -6.35993 0
M  V30 5266 N 495.163 1.55791 0.238111 0
M  V30 5267 C 496.113 1.87444 1.29803 0
M  V30 5268 C 497.097 0.736043 1.43078 0
M  V30 5269 O 498.289 0.998146 1.46171 0
M  V30 5270 C 495.418 2.18028 2.65177 0
M  V30 5271 C 494.504 3.38217 2.55871 0
M  V30 5272 N 494.895 4.57264 2.16202 0
M  V30 5273 C 493.193 3.41502 2.86866 0
M  V30 5274 C 493.894 5.3941 2.17744 0
M  V30 5275 N 492.87 4.78695 2.57589 0
M  V30 5276 H 496.672 2.7701 0.981965 0
M  V30 5277 H 494.186 1.56135 0.44672 0
M  V30 5278 H 496.183 2.38873 3.4168 0
M  V30 5279 H 494.843 1.29765 2.97643 0
M  V30 5280 H 495.854 4.82727 1.87602 0
M  V30 5281 H 492.531 2.63536 3.23813 0
M  V30 5282 H 493.921 6.44671 1.89339 0
M  V30 5283 N 496.642 -0.504142 1.49319 0
M  V30 5284 C 497.867 -1.28729 1.62615 0
M  V30 5285 C 498.292 -1.85752 0.296309 0
M  V30 5286 O 497.65 -1.65704 -0.735649 0
M  V30 5287 C 497.698 -2.39561 2.69524 0
M  V30 5288 O 496.802 -3.43324 2.28478 0
M  V30 5289 H 496.143 -0.380172 0.544395 0
M  V30 5290 H 498.673 -0.603872 1.95485 0
M  V30 5291 H 498.683 -2.8537 2.91595 0
M  V30 5292 H 497.358 -1.97423 3.66056 0
M  V30 5293 H 495.935 -3.03455 2.16725 0
M  V30 5294 N 498.12 -1.38341 -0.754957 0
M  V30 5295 C 499.397 -1.24995 -1.50451 0
M  V30 5296 C 499.777 0.149244 -2.10572 0
M  V30 5297 O 499.125 1.15861 -1.96948 0
M  V30 5298 C 499.335 -2.35904 -2.57197 0
M  V30 5299 C 500.683 -2.74262 -3.24138 0
M  V30 5300 O 501.707 -2.35205 -2.67501 0
M  V30 5301 O 500.566 -3.4161 -4.26574 0
M  V30 5302 H 497.66 -0.48872 -0.667144 0
M  V30 5303 H 500.206 -1.50165 -0.790486 0
M  V30 5304 H 498.978 -3.2953 -2.11011 0
M  V30 5305 H 498.601 -2.12291 -3.36182 0
M  V30 5306 N 499.598 0.982988 -1.23187 0
M  V30 5307 C 500.844 1.72648 -1.06398 0
M  V30 5308 C 501.177 1.90066 0.398561 0
M  V30 5309 O 500.452 1.45105 1.29518 0
M  V30 5310 C 500.735 3.12627 -1.78707 0
M  V30 5311 C 500.588 3.02795 -3.32618 0
M  V30 5312 C 501.907 4.11997 -1.54747 0
M  V30 5313 H 499.026 0.626649 -0.387918 0
M  V30 5314 H 501.668 1.14455 -1.51658 0
M  V30 5315 H 499.818 3.62308 -1.40234 0
M  V30 5316 H 501.49 2.60659 -3.80598 0
M  V30 5317 H 499.733 2.39362 -3.61785 0
M  V30 5318 H 500.404 4.01893 -3.78399 0
M  V30 5319 H 502.88 3.71114 -1.88186 0
M  V30 5320 H 501.756 5.08037 -2.07821 0
M  V30 5321 H 502.017 4.39462 -0.482249 0
M  V30 5322 N 501.076 1.04316 1.18135 0
M  V30 5323 C 502.322 0.758899 1.88712 0
M  V30 5324 C 502.677 -0.705863 1.78984 0
M  V30 5325 O 501.97 -1.50874 1.18101 0
M  V30 5326 C 502.164 1.16271 3.37958 0
M  V30 5327 C 501.993 2.66518 3.62213 0
M  V30 5328 C 500.763 3.33702 3.79436 0
M  V30 5329 C 502.961 3.64739 3.62588 0
M  V30 5330 N 500.943 4.72904 3.91452 0
M  V30 5331 C 502.314 4.89627 3.80348 0
M  V30 5332 C 504.369 3.58333 3.4569 0
M  V30 5333 C 503.072 6.08879 3.8296 0
M  V30 5334 C 505.098 4.77016 3.49586 0
M  V30 5335 C 504.46 6.00724 3.67845 0
M  V30 5336 H 500.559 0.329795 0.709055 0
M  V30 5337 H 503.143 1.33334 1.4188 0
M  V30 5338 H 501.314 0.616319 3.83479 0
M  V30 5339 H 503.046 0.829205 3.96114 0
M  V30 5340 H 499.801 2.84105 3.78921 0
M  V30 5341 H 500.225 5.45258 4.01277 0
M  V30 5342 H 504.867 2.63663 3.30517 0
M  V30 5343 H 502.585 7.03903 3.96921 0
M  V30 5344 H 506.171 4.73703 3.37782 0
M  V30 5345 H 505.051 6.91022 3.70753 0
M  V30 5346 N 502.554 -1.34406 0.822964 0
M  V30 5347 C 503.779 -2.0304 0.423034 0
M  V30 5348 C 504.204 -1.61568 -0.963196 0
M  V30 5349 O 503.562 -0.800339 -1.62678 0
M  V30 5350 C 503.61 -3.56636 0.53321 0
M  V30 5351 O 502.714 -4.09971 -0.446939 0
M  V30 5352 H 502.055 -0.64075 0.174171 0
M  V30 5353 H 504.585 -1.71653 1.11339 0
M  V30 5354 H 504.595 -4.05945 0.408991 0
M  V30 5355 H 503.27 -3.86168 1.54425 0
M  V30 5356 H 501.847 -3.71835 -0.281601 0
M  V30 5357 N 504.032 -0.577932 -1.46621 0
M  V30 5358 C 504.962 0.145917 -2.33044 0
M  V30 5359 C 505.943 0.888412 -1.45056 0
M  V30 5360 O 507.128 0.864812 -1.73881 0
M  V30 5361 C 504.258 1.16322 -3.27241 0
M  V30 5362 C 503.212 0.535868 -4.24632 0
M  V30 5363 C 502.538 1.65929 -5.08303 0
M  V30 5364 C 503.838 -0.523861 -5.19666 0
M  V30 5365 H 505.532 -0.575636 -2.93814 0
M  V30 5366 H 503.078 -0.278272 -1.41286 0
M  V30 5367 H 505.031 1.67793 -3.86553 0
M  V30 5368 H 503.755 1.91498 -2.64567 0
M  V30 5369 H 502.414 0.0422759 -3.66576 0
M  V30 5370 H 502.062 2.40061 -4.42018 0
M  V30 5371 H 501.762 1.2452 -5.74255 0
M  V30 5372 H 503.286 2.17686 -5.70478 0
M  V30 5373 H 504.7 -0.0944059 -5.73222 0
M  V30 5374 H 503.097 -0.858 -5.93935 0
M  V30 5375 H 504.167 -1.41197 -4.63887 0
M  V30 5376 N 505.51 1.54411 -0.315457 0
M  V30 5377 C 506.758 2.00023 0.288971 0
M  V30 5378 C 507.079 1.20529 1.5329 0
M  V30 5379 O 506.349 0.304986 1.93511 0
M  V30 5380 H 504.929 0.738891 0.109766 0
M  V30 5381 H 507.591 1.90094 -0.430129 0
M  V30 5382 H 506.687 3.07198 0.550999 0
M  V30 5383 N 506.988 0.0434614 1.5754 0
M  V30 5384 C 508.237 -0.631454 1.91561 0
M  V30 5385 C 508.55 -1.72457 0.92292 0
M  V30 5386 O 509.756 -2.45712 1.15489 0
M  V30 5387 C 508.212 -1.17447 3.40197 0
M  V30 5388 C 507.82 -0.113867 4.47855 0
M  V30 5389 C 509.564 -1.82507 3.83264 0
M  V30 5390 C 507.471 -0.669326 5.876 0
M  V30 5391 H 506.401 -0.239629 0.714908 0
M  V30 5392 H 509.052 0.111097 1.83163 0
M  V30 5393 H 507.434 -1.96909 3.43574 0
M  V30 5394 H 508.608 0.659348 4.56058 0
M  V30 5395 H 506.923 0.438821 4.14081 0
M  V30 5396 H 509.52 -2.25047 4.85034 0
M  V30 5397 H 509.863 -2.67365 3.19095 0
M  V30 5398 H 510.396 -1.09712 3.82372 0
M  V30 5399 H 507.135 0.141449 6.55347 0
M  V30 5400 H 506.655 -1.4107 5.82974 0
M  V30 5401 H 508.334 -1.15463 6.36614 0
M  V30 5402 N 508.466 -1.55915 -0.229846 0
M  V30 5403 C 509.691 -1.8296 -0.976743 0
M  V30 5404 C 510.116 -0.622735 -1.77493 0
M  V30 5405 O 509.474 0.428431 -1.76165 0
M  V30 5406 C 509.522 -3.07916 -1.8767 0
M  V30 5407 O 508.626 -2.86028 -2.97088 0
M  V30 5408 H 507.967 -0.603453 -0.277021 0
M  V30 5409 H 510.497 -2.0312 -0.245669 0
M  V30 5410 H 510.507 -3.37802 -2.2881 0
M  V30 5411 H 509.182 -3.95389 -1.28996 0
M  V30 5412 H 507.759 -2.67355 -2.59954 0
M  V30 5413 N 509.944 0.496216 -1.49584 0
M  V30 5414 C 511.191 1.25003 -1.59312 0
M  V30 5415 C 511.519 1.92445 -0.28198 0
M  V30 5416 O 510.774 1.81557 0.730452 0
M  V30 5417 C 511.073 2.3359 -2.705 0
M  V30 5418 C 510.739 1.83574 -4.11839 0
M  V30 5419 C 509.401 1.69653 -4.50302 0
M  V30 5420 C 511.753 1.46193 -5.00277 0
M  V30 5421 C 509.081 1.16736 -5.74969 0
M  V30 5422 C 511.433 0.947265 -6.25468 0
M  V30 5423 C 510.097 0.794485 -6.62755 0
M  V30 5424 H 509.367 0.45742 -0.582965 0
M  V30 5425 H 512.014 0.549996 -1.83432 0
M  V30 5426 H 510.319 3.09401 -2.40371 0
M  V30 5427 H 512.016 2.91627 -2.75235 0
M  V30 5428 H 508.606 1.9537 -3.81482 0
M  V30 5429 H 512.79 1.55793 -4.71214 0
M  V30 5430 H 508.046 1.03623 -6.02555 0
M  V30 5431 H 512.22 0.648846 -6.93371 0
M  V30 5432 H 509.847 0.382271 -7.59238 0
M  V30 5433 N 511.423 1.38739 0.74761 0
M  V30 5434 C 512.356 1.3083 1.86972 0
M  V30 5435 C 513.334 0.184229 1.61553 0
M  V30 5436 O 514.518 0.36256 1.8498 0
M  V30 5437 C 511.645 1.02854 3.22705 0
M  V30 5438 C 510.691 2.17281 3.67003 0
M  V30 5439 S 511.524 3.79468 3.77842 0
M  V30 5440 C 512.68 3.53692 5.16385 0
M  V30 5441 H 512.913 2.258 1.93395 0
M  V30 5442 H 510.446 1.24646 0.911199 0
M  V30 5443 H 512.404 0.87397 4.01089 0
M  V30 5444 H 511.065 0.0959295 3.13953 0
M  V30 5445 H 510.258 1.93267 4.65472 0
M  V30 5446 H 509.86 2.28876 2.9579 0
M  V30 5447 H 512.152 3.10176 6.02327 0
M  V30 5448 H 513.095 4.51576 5.45422 0
M  V30 5449 H 513.503 2.8807 4.85464 0
M  V30 5450 N 512.901 -0.976442 1.23707 0
M  V30 5451 C 513.811 -2.10359 1.03856 0
M  V30 5452 C 514.827 -1.73991 -0.0180919 0
M  V30 5453 O 516.003 -2.0061 0.178211 0
M  V30 5454 C 513.068 -3.40809 0.636387 0
M  V30 5455 C 512.129 -3.91179 1.76854 0
M  V30 5456 C 511.362 -5.15404 1.38546 0
M  V30 5457 O 511.585 -5.69754 0.27142 0
M  V30 5458 O 510.519 -5.5994 2.20797 0
M  V30 5459 H 514.345 -2.29997 1.98331 0
M  V30 5460 H 511.93 -1.08742 1.02448 0
M  V30 5461 H 513.812 -4.19269 0.423223 0
M  V30 5462 H 512.487 -3.22493 -0.279322 0
M  V30 5463 H 511.394 -3.13819 2.03638 0
M  V30 5464 H 512.727 -4.13958 2.6627 0
M  V30 5465 N 514.379 -1.04941 -1.1758 0
M  V30 5466 C 515.309 -0.669172 -2.23706 0
M  V30 5467 C 516.29 0.331835 -1.66832 0
M  V30 5468 O 517.475 0.209988 -1.93061 0
M  V30 5469 C 514.605 -0.0404889 -3.47276 0
M  V30 5470 C 513.559 -0.965983 -4.16957 0
M  V30 5471 C 512.885 -0.201312 -5.34321 0
M  V30 5472 C 514.185 -2.28902 -4.69469 0
M  V30 5473 H 515.879 -1.55639 -2.55767 0
M  V30 5474 H 513.425 -0.749793 -1.22939 0
M  V30 5475 H 515.378 0.237298 -4.20731 0
M  V30 5476 H 514.102 0.881658 -3.14475 0
M  V30 5477 H 512.761 -1.22829 -3.45411 0
M  V30 5478 H 512.409 0.723519 -4.97769 0
M  V30 5479 H 512.109 -0.817968 -5.81879 0
M  V30 5480 H 513.633 0.0692499 -6.10561 0
M  V30 5481 H 515.047 -2.07132 -5.34574 0
M  V30 5482 H 513.444 -2.85942 -5.27596 0
M  V30 5483 H 514.514 -2.92937 -3.86414 0
M  V30 5484 N 515.857 1.33968 -0.830081 0
M  V30 5485 C 516.82 2.27694 -0.26235 0
M  V30 5486 C 517.82 1.50589 0.563876 0
M  V30 5487 O 519.01 1.70028 0.378941 0
M  V30 5488 C 516.142 3.35002 0.63138 0
M  V30 5489 H 517.335 2.79419 -1.08928 0
M  V30 5490 H 514.888 1.44221 -0.602486 0
M  V30 5491 H 515.623 2.88504 1.48109 0
M  V30 5492 H 515.408 3.92079 0.0403276 0
M  V30 5493 H 516.898 4.04897 1.02217 0
M  V30 5494 N 517.335 0.585699 1.46312 0
M  V30 5495 C 518.265 -0.133556 2.33118 0
M  V30 5496 C 519.246 -0.880707 1.45525 0
M  V30 5497 O 520.431 -0.855579 1.74337 0
M  V30 5498 C 517.561 -1.14585 3.27853 0
M  V30 5499 C 516.515 -0.513341 4.2491 0
M  V30 5500 C 515.841 -1.63231 5.09175 0
M  V30 5501 C 517.141 0.551413 5.19381 0
M  V30 5502 H 518.835 0.59121 2.93505 0
M  V30 5503 H 516.381 0.285761 1.41136 0
M  V30 5504 H 518.334 -1.65741 3.87438 0
M  V30 5505 H 517.058 -1.90093 2.65579 0
M  V30 5506 H 515.717 -0.0228349 3.66593 0
M  V30 5507 H 515.365 -2.37713 4.43285 0
M  V30 5508 H 515.065 -1.21473 5.74907 0
M  V30 5509 H 516.589 -2.14658 5.71624 0
M  V30 5510 H 518.003 0.124804 5.73164 0
M  V30 5511 H 516.4 0.889486 5.93471 0
M  V30 5512 H 517.47 1.43655 4.63132 0
M  V30 5513 N 518.813 -1.54241 0.323641 0
M  V30 5514 C 520.061 -2.00174 -0.278359 0
M  V30 5515 C 520.382 -1.2134 -1.52648 0
M  V30 5516 O 519.652 -0.315244 -1.93347 0
M  V30 5517 H 518.232 -0.739463 -0.105845 0
M  V30 5518 H 520.894 -1.89864 0.440204 0
M  V30 5519 H 519.99 -3.07486 -0.5347 0
M  V30 5520 N 520.291 -0.0518155 -1.57515 0
M  V30 5521 C 521.707 0.304735 -1.56664 0
M  V30 5522 C 521.907 1.71395 -1.05953 0
M  V30 5523 O 520.963 2.42123 -0.716414 0
M  V30 5524 C 522.276 0.132614 -3.00407 0
M  V30 5525 C 523.824 0.20367 -3.12337 0
M  V30 5526 C 524.299 0.0600706 -4.57961 0
M  V30 5527 N 525.79 0.116326 -4.63054 0
M  V30 5528 C 526.525 0.0293363 -5.73392 0
M  V30 5529 N 526.021 -0.110038 -6.92713 0
M  V30 5530 N 527.814 0.0849651 -5.62036 0
M  V30 5531 H 519.965 -0.973056 -1.888 0
M  V30 5532 H 522.228 -0.377781 -0.869474 0
M  V30 5533 H 521.934 -0.839019 -3.41546 0
M  V30 5534 H 521.808 0.893376 -3.66468 0
M  V30 5535 H 524.195 1.16578 -2.71097 0
M  V30 5536 H 524.276 -0.587857 -2.48954 0
M  V30 5537 H 523.92 -0.898715 -4.99886 0
M  V30 5538 H 523.85 0.87075 -5.19351 0
M  V30 5539 H 526.341 0.22327 -3.7724 0
M  V30 5540 H 526.654 -0.169104 -7.72615 0
M  V30 5541 H 524.999 -0.145132 -6.94848 0
M  V30 5542 H 528.19 0.192411 -4.67704 0
M  V30 5543 H 528.363 0.0137131 -6.47999 0
M  V30 5544 N 521.769 1.56035 0.221574 0
M  V30 5545 C 523.016 1.79047 0.94597 0
M  V30 5546 C 523.344 0.62057 1.84334 0
M  V30 5547 O 522.599 -0.395053 1.91671 0
M  V30 5548 C 522.898 3.07813 1.8162 0
M  V30 5549 C 522.564 4.3797 1.07206 0
M  V30 5550 C 521.226 4.73334 0.866508 0
M  V30 5551 C 523.578 5.18326 0.546565 0
M  V30 5552 C 520.906 5.8657 0.123549 0
M  V30 5553 C 523.258 6.32335 -0.18305 0
M  V30 5554 C 521.922 6.66301 -0.399861 0
M  V30 5555 H 521.192 0.655178 0.346155 0
M  V30 5556 H 523.839 1.90299 0.214146 0
M  V30 5557 H 522.144 2.91682 2.61589 0
M  V30 5558 H 523.841 3.2282 2.37884 0
M  V30 5559 H 520.431 4.10202 1.24226 0
M  V30 5560 H 524.615 4.9144 0.692847 0
M  V30 5561 H 519.871 6.11376 -0.0546591 0
M  V30 5562 H 524.045 6.9383 -0.59775 0
M  V30 5563 H 521.672 7.53889 -0.977489 0
M  V30 5564 N 523.247 -0.488276 1.49845 0
M  V30 5565 C 524.658 -1.06955 1.53028 0
M  V30 5566 C 525.009 -1.9351 0.323797 0
M  V30 5567 O 524.134 -2.08891 -0.565116 0
M  V30 5568 C 524.729 -1.94643 2.77307 0
M  V30 5569 C 523.288 -2.4791 2.83227 0
M  V30 5570 C 522.435 -1.25833 2.47106 0
M  V30 5571 H 525.386 -0.271626 1.56358 0
M  V30 5572 H 525.407 -2.79496 2.5819 0
M  V30 5573 H 524.919 -1.31621 3.65099 0
M  V30 5574 H 523.02 -3.14535 1.99745 0
M  V30 5575 H 523.133 -2.84193 3.85709 0
M  V30 5576 H 521.497 -1.58764 1.99163 0
M  V30 5577 H 522.28 -0.644993 3.37186 0
M  V30 5578 N 524.725 -1.39134 -0.740242 0
M  V30 5579 C 525.955 -1.39132 -1.52728 0
M  V30 5580 C 526.363 0.0173133 -1.89192 0
M  V30 5581 O 525.706 0.997715 -1.54244 0
M  V30 5582 C 525.768 -2.1952 -2.84695 0
M  V30 5583 C 525.432 -3.68203 -2.70695 0
M  V30 5584 C 526.429 -4.61401 -2.39593 0
M  V30 5585 C 524.114 -4.11724 -2.8773 0
M  V30 5586 C 526.108 -5.96102 -2.25701 0
M  V30 5587 C 523.795 -5.46503 -2.73456 0
M  V30 5588 C 524.793 -6.38506 -2.42486 0
M  V30 5589 O 524.481 -7.70803 -2.28295 0
M  V30 5590 H 524.213 -0.477263 -0.478744 0
M  V30 5591 H 526.767 -1.83504 -0.922799 0
M  V30 5592 H 524.997 -1.69888 -3.47383 0
M  V30 5593 H 526.686 -2.1176 -3.46284 0
M  V30 5594 H 527.452 -4.29079 -2.26088 0
M  V30 5595 H 523.331 -3.4045 -3.10829 0
M  V30 5596 H 526.875 -6.6788 -2.0145 0
M  V30 5597 H 522.772 -5.78417 -2.86538 0
M  V30 5598 H 523.54 -7.8147 -2.43405 0
M  V30 5599 N 526.204 0.969867 -1.24223 0
M  V30 5600 C 527.615 1.52717 -1.07399 0
M  V30 5601 C 527.966 1.92956 0.355298 0
M  V30 5602 O 527.091 1.77112 1.2434 0
M  V30 5603 C 527.686 2.77521 -1.94339 0
M  V30 5604 C 526.245 3.29615 -1.81744 0
M  V30 5605 C 525.392 2.02537 -1.89405 0
M  V30 5606 H 528.343 0.788399 -1.37732 0
M  V30 5607 H 528.364 3.50773 -1.47439 0
M  V30 5608 H 527.876 2.48203 -2.98357 0
M  V30 5609 H 525.977 3.63789 -0.805505 0
M  V30 5610 H 526.09 3.98661 -2.65718 0
M  V30 5611 H 524.454 2.17151 -1.33108 0
M  V30 5612 H 525.237 1.75587 -2.94999 0
M  V30 5613 N 527.682 1.05563 1.17022 0
M  V30 5614 C 528.614 0.617888 2.20714 0
M  V30 5615 C 529.627 -0.320303 1.59618 0
M  V30 5616 O 530.816 -0.112449 1.78145 0
M  V30 5617 C 527.916 -0.115333 3.38704 0
M  V30 5618 C 527.089 0.834493 4.29366 0
M  V30 5619 C 526.148 0.141855 5.26009 0
M  V30 5620 O 525.174 0.777151 5.6387 0
M  V30 5621 N 526.376 -1.11934 5.69606 0
M  V30 5622 H 529.141 1.50981 2.58892 0
M  V30 5623 H 526.702 0.938008 1.31958 0
M  V30 5624 H 528.694 -0.588918 4.00392 0
M  V30 5625 H 527.264 -0.908967 2.99093 0
M  V30 5626 H 526.484 1.48762 3.65053 0
M  V30 5627 H 527.772 1.4791 4.86827 0
M  V30 5628 H 527.17 -1.65574 5.40927 0
M  V30 5629 H 525.727 -1.53692 6.33421 0
M  V30 5630 N 529.16 -1.33526 0.837174 0
M  V30 5631 C 530.409 -1.97098 0.428387 0
M  V30 5632 C 530.722 -1.67062 -1.01734 0
M  V30 5633 O 531.928 -2.24235 -1.53072 0
M  V30 5634 C 530.384 -3.52725 0.715075 0
M  V30 5635 C 529.992 -3.9164 2.17537 0
M  V30 5636 C 531.736 -4.22857 0.373154 0
M  V30 5637 C 529.643 -5.40237 2.40619 0
M  V30 5638 H 528.573 -0.737589 0.156455 0
M  V30 5639 H 531.224 -1.52169 1.02552 0
M  V30 5640 H 529.606 -3.95971 0.0475904 0
M  V30 5641 H 530.78 -3.59456 2.88319 0
M  V30 5642 H 529.095 -3.34485 2.4801 0
M  V30 5643 H 531.692 -5.32133 0.523264 0
M  V30 5644 H 532.035 -4.10647 -0.683708 0
M  V30 5645 H 532.568 -3.85135 0.995801 0
M  V30 5646 H 529.307 -5.57449 3.44864 0
M  V30 5647 H 528.827 -5.73887 1.74396 0
M  V30 5648 H 530.506 -6.07102 2.23688 0
M  V30 5649 N 530.638 -0.59345 -1.46 0
M  V30 5650 C 531.57 0.171569 -2.28557 0
M  V30 5651 C 532.583 0.845273 -1.39137 0
M  V30 5652 O 533.772 0.713033 -1.6364 0
M  V30 5653 C 530.872 1.26311 -3.14482 0
M  V30 5654 C 530.045 0.679258 -4.32094 0
M  V30 5655 C 529.104 1.65987 -4.99334 0
M  V30 5656 O 528.13 1.19171 -5.56585 0
M  V30 5657 N 529.332 2.99414 -4.97324 0
M  V30 5658 H 532.097 -0.536771 -2.94854 0
M  V30 5659 H 529.658 -0.431954 -1.56031 0
M  V30 5660 H 531.65 1.91863 -3.5633 0
M  V30 5661 H 530.22 1.87416 -2.50188 0
M  V30 5662 H 529.44 -0.153992 -3.93899 0
M  V30 5663 H 530.728 0.26916 -5.08088 0
M  V30 5664 H 530.126 3.40064 -4.52076 0
M  V30 5665 H 528.683 3.60426 -5.4308 0
M  V30 5666 N 532.116 1.54067 -0.331816 0
M  V30 5667 C 533.063 2.24623 0.530372 0
M  V30 5668 C 534.033 1.24009 1.10503 0
M  V30 5669 O 535.218 1.52712 1.14384 0
M  V30 5670 C 532.358 3.01374 1.68129 0
M  V30 5671 C 531.471 4.16821 1.13507 0
M  V30 5672 C 530.606 4.81085 2.25234 0
M  V30 5673 C 529.645 5.88621 1.67903 0
M  V30 5674 N 528.782 6.46713 2.73326 0
M  V30 5675 H 533.622 2.97898 -0.0778607 0
M  V30 5676 H 531.159 1.47014 -0.0501965 0
M  V30 5677 H 533.117 3.44125 2.35868 0
M  V30 5678 H 531.747 2.30419 2.26069 0
M  V30 5679 H 530.799 3.78796 0.348979 0
M  V30 5680 H 532.111 4.94203 0.675633 0
M  V30 5681 H 531.265 5.26846 3.00862 0
M  V30 5682 H 530.004 4.03102 2.74518 0
M  V30 5683 H 529.009 5.42254 0.907773 0
M  V30 5684 H 530.234 6.68506 1.19487 0
M  V30 5685 H 528.18 5.71599 3.21886 0
M  V30 5686 H 528.097 7.19532 2.3197 0
M  V30 5687 H 529.365 6.97129 3.48758 0
M  V30 5688 N 533.594 0.0601682 1.57485 0
M  V30 5689 C 534.542 -0.928899 2.13247 0
M  V30 5690 C 535.536 -1.31616 1.06647 0
M  V30 5691 O 536.742 -1.29476 1.25043 0
M  V30 5692 H 533.117 -0.317455 0.681708 0
M  V30 5693 H 535.088 -0.433566 2.95233 0
M  V30 5694 C 533.837 -2.19121 2.69965 0
M  V30 5695 H 533.16 -1.90204 3.51657 0
M  V30 5696 H 534.6 -2.86465 3.12592 0
M  V30 5697 C 533.059 -2.94195 1.64168 0
M  V30 5698 O 533.589 -3.87468 1.05978 0
M  V30 5699 N 531.795 -2.57089 1.35476 0
M  V30 5700 H 531.342 -1.81314 1.82984 0
M  V30 5701 H 531.3 -3.07624 0.649196 0
M  V30 5702 N 535.072 -1.5615 -0.213296 0
M  V30 5703 C 536.004 -1.89586 -1.28802 0
M  V30 5704 C 537.017 -0.784844 -1.42633 0
M  V30 5705 O 538.206 -1.06319 -1.43383 0
M  V30 5706 C 535.306 -2.09665 -2.66259 0
M  V30 5707 C 534.479 -3.40726 -2.7427 0
M  V30 5708 C 533.538 -3.50137 -3.92798 0
M  V30 5709 O 532.564 -4.23105 -3.8075 0
M  V30 5710 N 533.766 -2.81886 -5.07465 0
M  V30 5711 H 536.531 -2.82368 -1.00442 0
M  V30 5712 H 534.092 -1.56796 -0.403302 0
M  V30 5713 H 536.084 -2.13268 -3.43946 0
M  V30 5714 H 534.654 -1.23469 -2.87183 0
M  V30 5715 H 533.874 -3.4915 -1.82997 0
M  V30 5716 H 535.162 -4.27048 -2.76599 0
M  V30 5717 H 534.56 -2.22397 -5.2015 0
M  V30 5718 H 533.117 -2.91139 -5.83165 0
M  V30 5719 N 536.55 0.480323 -1.50102 0
M  V30 5720 C 537.798 1.23063 -1.60312 0
M  V30 5721 C 538.119 1.92659 -0.301226 0
M  V30 5722 O 537.389 1.83691 0.680753 0
M  V30 5723 H 535.969 0.457231 -0.590719 0
M  V30 5724 H 538.631 0.554893 -1.86834 0
M  V30 5725 H 537.727 1.9835 -2.40964 0
M  V30 5726 N 538.028 1.39524 0.732853 0
M  V30 5727 C 539.253 1.40329 1.52717 0
M  V30 5728 C 539.678 0.000286574 1.881 0
M  V30 5729 O 539.036 -0.987262 1.52062 0
M  V30 5730 C 539.084 2.28464 2.78992 0
M  V30 5731 O 538.188 1.716 3.75003 0
M  V30 5732 H 537.529 0.47778 0.461109 0
M  V30 5733 H 540.059 1.83546 0.903996 0
M  V30 5734 H 540.069 2.43051 3.27705 0
M  V30 5735 H 538.744 3.30425 2.52572 0
M  V30 5736 H 537.321 1.66267 3.33781 0
M  V30 5737 N 539.506 -0.963266 1.24736 0
M  V30 5738 C 540.436 -2.07628 1.06832 0
M  V30 5739 C 541.417 -1.70088 -0.0200566 0
M  V30 5740 O 542.602 -1.93636 0.147854 0
M  V30 5741 C 539.732 -3.40636 0.677069 0
M  V30 5742 C 538.686 -3.9215 1.71471 0
M  V30 5743 C 538.012 -5.21553 1.1784 0
M  V30 5744 C 539.312 -4.19493 3.11164 0
M  V30 5745 H 541.006 -2.22864 1.9993 0
M  V30 5746 H 538.552 -1.07093 0.96266 0
M  V30 5747 H 540.505 -4.17941 0.538792 0
M  V30 5748 H 539.229 -3.25313 -0.289612 0
M  V30 5749 H 537.888 -3.17005 1.84128 0
M  V30 5750 H 537.536 -5.02593 0.202195 0
M  V30 5751 H 537.236 -5.56988 1.87185 0
M  V30 5752 H 538.76 -6.01463 1.05233 0
M  V30 5753 H 540.174 -4.87487 3.01711 0
M  V30 5754 H 538.571 -4.66165 3.77902 0
M  V30 5755 H 539.641 -3.26097 3.58871 0
M  V30 5756 N 540.985 -1.06182 -1.16461 0
M  V30 5757 C 541.918 -0.615859 -2.19733 0
M  V30 5758 C 542.896 0.360766 -1.58547 0
M  V30 5759 O 544.08 0.270009 -1.86556 0
M  V30 5760 C 541.207 0.097312 -3.3856 0
M  V30 5761 C 540.253 -0.835889 -4.18229 0
M  V30 5762 S 541.086 -2.33052 -4.82128 0
M  V30 5763 C 542.242 -1.62881 -6.04335 0
M  V30 5764 H 542.475 -1.49079 -2.57221 0
M  V30 5765 H 540.008 -0.874692 -1.27234 0
M  V30 5766 H 541.966 0.502563 -4.07412 0
M  V30 5767 H 540.627 0.948418 -2.99439 0
M  V30 5768 H 539.82 -0.283426 -5.03202 0
M  V30 5769 H 539.422 -1.18097 -3.54865 0
M  V30 5770 H 541.714 -0.933764 -6.71034 0
M  V30 5771 H 542.657 -2.45641 -6.64128 0
M  V30 5772 H 543.065 -1.11189 -5.53441 0
M  V30 5773 N 542.463 1.3308 -0.844243 0
M  V30 5774 C 543.874 1.7992 -0.498566 0
M  V30 5775 C 544.225 1.69808 0.982834 0
M  V30 5776 O 543.35 1.25051 1.7661 0
M  V30 5777 C 543.945 3.26677 -0.898204 0
M  V30 5778 C 542.504 3.71513 -0.604583 0
M  V30 5779 C 541.651 2.54393 -1.10362 0
M  V30 5780 H 544.602 1.20526 -1.03244 0
M  V30 5781 H 544.623 3.79918 -0.21039 0
M  V30 5782 H 544.135 3.34004 -1.97643 0
M  V30 5783 H 542.236 3.69708 0.46335 0
M  V30 5784 H 542.349 4.64755 -1.16358 0
M  V30 5785 H 540.713 2.49246 -0.524273 0
M  V30 5786 H 541.496 2.6448 -2.18873 0
M  V30 5787 N 543.941 0.601185 1.45683 0
M  V30 5788 C 544.871 -0.108824 2.33246 0
M  V30 5789 C 545.852 -0.865223 1.46451 0
M  V30 5790 O 547.037 -0.83704 1.75235 0
M  V30 5791 C 544.167 -1.11101 3.2905 0
M  V30 5792 C 543.121 -0.468244 4.25431 0
M  V30 5793 C 542.447 -1.57822 5.10878 0
M  V30 5794 C 543.747 0.606469 5.18767 0
M  V30 5795 H 545.441 0.622306 2.92861 0
M  V30 5796 H 542.987 0.300714 1.40825 0
M  V30 5797 H 544.94 -1.61622 3.89174 0
M  V30 5798 H 543.664 -1.87265 2.67581 0
M  V30 5799 H 542.323 0.0160484 3.66596 0
M  V30 5800 H 541.971 -2.32998 4.45781 0
M  V30 5801 H 541.671 -1.15369 5.76163 0
M  V30 5802 H 543.195 -2.08583 5.73869 0
M  V30 5803 H 544.609 0.185589 5.73 0
M  V30 5804 H 543.006 0.952381 5.92494 0
M  V30 5805 H 544.076 1.48559 4.61582 0
M  V30 5806 N 545.419 -1.53889 0.339982 0
M  V30 5807 C 546.351 -2.22435 -0.55275 0
M  V30 5808 C 547.364 -1.22975 -1.06681 0
M  V30 5809 O 548.553 -1.49351 -0.977575 0
M  V30 5810 C 545.653 -2.8882 -1.77302 0
M  V30 5811 C 544.826 -4.14563 -1.39486 0
M  V30 5812 C 543.885 -4.64391 -2.47442 0
M  V30 5813 O 542.911 -5.28687 -2.10899 0
M  V30 5814 N 544.113 -4.40015 -3.78639 0
M  V30 5815 H 546.878 -2.9968 0.0342669 0
M  V30 5816 H 544.439 -1.61068 0.16394 0
M  V30 5817 H 546.431 -3.19072 -2.48948 0
M  V30 5818 H 545.001 -2.15182 -2.26749 0
M  V30 5819 H 544.221 -3.90896 -0.509321 0
M  V30 5820 H 545.509 -4.96362 -1.11813 0
M  V30 5821 H 544.907 -3.88586 -4.11118 0
M  V30 5822 H 543.464 -4.74881 -4.46465 0
M  V30 5823 N 546.897 -0.0685191 -1.57451 0
M  V30 5824 C 547.827 0.89747 -2.15564 0
M  V30 5825 C 548.808 1.31266 -1.08181 0
M  V30 5826 O 549.993 1.38429 -1.36202 0
M  V30 5827 C 547.123 2.16623 -2.71463 0
M  V30 5828 C 546.077 1.89054 -3.83982 0
M  V30 5829 C 545.403 3.22532 -4.26471 0
M  V30 5830 C 546.703 1.1984 -5.08366 0
M  V30 5831 H 548.397 0.413373 -2.96533 0
M  V30 5832 H 545.943 0.197391 -1.42641 0
M  V30 5833 H 547.896 2.84614 -3.10761 0
M  V30 5834 H 546.62 2.67269 -1.8771 0
M  V30 5835 H 545.279 1.23469 -3.45183 0
M  V30 5836 H 544.927 3.71013 -3.39644 0
M  V30 5837 H 544.627 3.04879 -5.02317 0
M  V30 5838 H 546.151 3.91727 -4.68383 0
M  V30 5839 H 547.565 1.77896 -5.45001 0
M  V30 5840 H 545.962 1.12456 -5.89469 0
M  V30 5841 H 547.032 0.176996 -4.84577 0
M  V30 5842 N 548.375 1.56261 0.205012 0
M  V30 5843 C 549.305 1.96779 1.257 0
M  V30 5844 C 550.286 0.838309 1.48008 0
M  V30 5845 O 551.471 1.10189 1.59913 0
M  V30 5846 C 548.601 2.29876 2.60335 0
M  V30 5847 C 547.555 3.45469 2.52656 0
M  V30 5848 C 546.881 3.64215 3.91473 0
M  V30 5849 C 548.181 4.79954 2.06014 0
M  V30 5850 H 549.875 2.84904 0.920338 0
M  V30 5851 H 547.421 1.37072 0.441277 0
M  V30 5852 H 549.374 2.56814 3.34102 0
M  V30 5853 H 548.098 1.38622 2.95722 0
M  V30 5854 H 546.757 3.18605 1.81345 0
M  V30 5855 H 546.405 2.70309 4.24196 0
M  V30 5856 H 546.105 4.41973 3.87213 0
M  V30 5857 H 547.629 3.93519 4.66878 0
M  V30 5858 H 549.043 5.05989 2.69533 0
M  V30 5859 H 547.44 5.61111 2.12777 0
M  V30 5860 H 548.51 4.74201 1.01297 0
M  V30 5861 N 549.853 -0.472356 1.50355 0
M  V30 5862 C 550.785 -1.58795 1.65278 0
M  V30 5863 C 551.798 -1.53782 0.534313 0
M  V30 5864 O 552.987 -1.59193 0.807446 0
M  V30 5865 C 550.087 -2.97672 1.62001 0
M  V30 5866 C 549.26 -3.27568 2.89859 0
M  V30 5867 C 548.319 -4.45993 2.79242 0
M  V30 5868 O 547.345 -4.46364 3.53197 0
M  V30 5869 N 548.547 -5.47578 1.92713 0
M  V30 5870 H 551.312 -1.46411 2.61503 0
M  V30 5871 H 548.873 -0.660751 1.47803 0
M  V30 5872 H 550.865 -3.74862 1.52513 0
M  V30 5873 H 549.435 -3.03832 0.735159 0
M  V30 5874 H 548.655 -2.39003 3.13483 0
M  V30 5875 H 549.943 -3.44352 3.74565 0
M  V30 5876 H 549.341 -5.50099 1.31939 0
M  V30 5877 H 547.898 -6.23757 1.8913 0
M  V30 5878 N 551.331 -1.39911 -0.725443 0
M  V30 5879 C 552.571 -1.39096 -1.49772 0
M  V30 5880 C 552.935 0.0106452 -1.91997 0
M  V30 5881 O 554.136 0.143859 -2.68415 0
M  V30 5882 C 552.407 -2.34441 -2.69764 0
M  V30 5883 S 553.966 -2.51898 -3.59295 0
M  V30 5884 H 550.784 -0.49314 -0.512186 0
M  V30 5885 H 553.386 -1.76093 -0.849197 0
M  V30 5886 H 552.09 -3.35123 -2.36898 0
M  V30 5887 H 551.621 -1.98692 -3.39537 0
M  V30 5888 H 553.636 -1.76402 -4.63785 0
M  V30 5889 N 552.809 0.956637 -1.25245 0
M  V30 5890 C 554.058 1.69537 -1.0927 0
M  V30 5891 C 554.371 1.92136 0.366503 0
M  V30 5892 O 555.577 2.63687 0.64665 0
M  V30 5893 C 554.033 3.05211 -1.9072 0
M  V30 5894 C 553.641 2.90416 -3.41119 0
M  V30 5895 C 555.385 3.82882 -1.83308 0
M  V30 5896 C 553.292 4.21468 -4.14872 0
M  V30 5897 H 552.222 0.635804 -0.405302 0
M  V30 5898 H 554.873 1.06513 -1.49423 0
M  V30 5899 H 553.255 3.69128 -1.43389 0
M  V30 5900 H 554.429 2.35444 -3.9611 0
M  V30 5901 H 552.744 2.26203 -3.49602 0
M  V30 5902 H 555.341 4.79944 -2.35706 0
M  V30 5903 H 555.684 4.0853 -0.800572 0
M  V30 5904 H 556.217 3.25711 -2.28379 0
M  V30 5905 H 552.956 4.01009 -5.18529 0
M  V30 5906 H 552.476 4.76213 -3.64665 0
M  V30 5907 H 554.155 4.90022 -4.22478 0
M  V30 5908 N 554.287 1.06798 1.15896 0
M  V30 5909 C 555.533 0.788934 1.86825 0
M  V30 5910 C 555.866 -0.683084 1.8179 0
M  V30 5911 O 555.141 -1.50086 1.23711 0
M  V30 5912 C 555.424 1.29065 3.36176 0
M  V30 5913 C 555.277 2.8268 3.49874 0
M  V30 5914 C 556.596 0.902655 4.30744 0
M  V30 5915 H 553.715 0.288066 0.678371 0
M  V30 5916 H 556.357 1.32479 1.36195 0
M  V30 5917 H 554.507 0.834806 3.79425 0
M  V30 5918 H 556.179 3.36511 3.15528 0
M  V30 5919 H 554.422 3.21157 2.91617 0
M  V30 5920 H 555.093 3.12852 4.54783 0
M  V30 5921 H 557.569 1.29535 3.95424 0
M  V30 5922 H 556.445 1.28111 5.3374 0
M  V30 5923 H 556.706 -0.191951 4.41683 0
M  V30 5924 N 555.766 -1.3263 0.851289 0
M  V30 5925 C 557.043 -1.91982 0.374448 0
M  V30 5926 C 557.423 -1.77568 -1.14161 0
M  V30 5927 O 556.771 -1.1717 -1.96172 0
M  V30 5928 C 556.981 -3.38862 0.835088 0
M  V30 5929 C 558.329 -4.15999 0.850309 0
M  V30 5930 O 559.353 -3.47566 0.779505 0
M  V30 5931 O 558.212 -5.38189 0.949481 0
M  V30 5932 H 555.306 -0.819846 0.10854 0
M  V30 5933 H 557.852 -1.41422 0.937966 0
M  V30 5934 H 556.624 -3.43281 1.87814 0
M  V30 5935 H 556.247 -3.96821 0.248833 0
M  V30 5936 N 557.244 -0.608902 -1.45362 0
M  V30 5937 C 558.154 0.110969 -2.34337 0
M  V30 5938 C 559.17 0.859007 -1.51318 0
M  V30 5939 O 560.346 0.816296 -1.84116 0
M  V30 5940 C 557.411 1.09494 -3.28956 0
M  V30 5941 C 556.472 0.348718 -4.27881 0
M  V30 5942 C 555.705 1.28582 -5.17979 0
M  V30 5943 O 555.928 2.52369 -5.11533 0
M  V30 5944 O 554.862 0.782172 -5.96796 0
M  V30 5945 H 558.688 -0.620258 -2.97299 0
M  V30 5946 H 556.273 -0.36916 -1.44767 0
M  V30 5947 H 558.155 1.66163 -3.87257 0
M  V30 5948 H 556.83 1.80717 -2.68557 0
M  V30 5949 H 555.737 -0.260465 -3.73192 0
M  V30 5950 H 557.07 -0.323049 -4.91139 0
M  V30 5951 N 558.722 1.53707 -0.348139 0
M  V30 5952 C 559.999 1.93247 0.302475 0
M  V30 5953 C 560.379 1.28012 1.67857 0
M  V30 5954 O 559.727 0.43274 2.24365 0
M  V30 5955 C 559.937 3.47031 0.370159 0
M  V30 5956 C 561.285 4.20066 0.61882 0
M  V30 5957 O 562.309 3.53319 0.452087 0
M  V30 5958 O 561.168 5.38318 0.94215 0
M  V30 5959 H 558.262 0.807736 0.177458 0
M  V30 5960 H 560.808 1.64927 -0.399651 0
M  V30 5961 H 559.58 3.86745 -0.59534 0
M  V30 5962 H 559.203 3.81532 1.11888 0
M  V30 5963 N 560.2 0.0768682 1.57412 0
M  V30 5964 C 561.425 -0.603404 1.98428 0
M  V30 5965 C 561.85 -1.62047 0.955108 0
M  V30 5966 O 561.208 -1.81129 -0.0786778 0
M  V30 5967 C 561.256 -1.24396 3.38464 0
M  V30 5968 O 560.36 -2.35982 3.3821 0
M  V30 5969 H 559.701 -0.154741 0.645718 0
M  V30 5970 H 562.231 0.152885 2.04028 0
M  V30 5971 H 562.241 -1.5896 3.7576 0
M  V30 5972 H 560.916 -0.498735 4.12899 0
M  V30 5973 H 559.493 -2.03173 3.1269 0
M  V30 5974 N 561.678 -1.56367 -0.196722 0
M  V30 5975 C 563.089 -1.70462 -0.761545 0
M  V30 5976 C 563.44 -0.683161 -1.83922 0
M  V30 5977 O 562.565 0.160753 -2.15802 0
M  V30 5978 C 563.16 -3.09057 -1.38814 0
M  V30 5979 C 561.719 -3.24922 -1.90007 0
M  V30 5980 C 560.866 -2.66412 -0.769399 0
M  V30 5981 H 563.817 -1.58675 0.0283263 0
M  V30 5982 H 563.838 -3.06296 -2.2575 0
M  V30 5983 H 563.35 -3.83378 -0.603559 0
M  V30 5984 H 561.451 -2.55514 -2.71189 0
M  V30 5985 H 561.564 -4.3241 -2.06297 0
M  V30 5986 H 559.928 -2.25546 -1.18326 0
M  V30 5987 H 560.711 -3.433 0.00291773 0
M  V30 5988 N 563.156 0.464375 -1.50603 0
M  V30 5989 C 564.402 1.21776 -1.62168 0
M  V30 5990 C 564.735 1.91476 -0.324154 0
M  V30 5991 O 564.01 1.8242 0.674782 0
M  V30 5992 C 564.293 2.25614 -2.80661 0
M  V30 5993 C 564.146 1.60175 -4.20314 0
M  V30 5994 C 565.465 3.26862 -2.94702 0
M  V30 5995 H 562.584 0.44137 -0.590222 0
M  V30 5996 H 565.226 0.510623 -1.8301 0
M  V30 5997 H 563.376 2.85923 -2.63021 0
M  V30 5998 H 565.048 1.03411 -4.4956 0
M  V30 5999 H 563.291 0.904697 -4.24261 0
M  V30 6000 H 563.962 2.35665 -4.99165 0
M  V30 6001 H 566.438 2.76582 -3.10872 0
M  V30 6002 H 565.314 3.96839 -3.79223 0
M  V30 6003 H 565.575 3.91382 -2.05603 0
M  V30 6004 N 564.634 1.40294 0.718013 0
M  V30 6005 C 565.564 1.43118 1.84498 0
M  V30 6006 C 566.545 0.292403 1.67568 0
M  V30 6007 O 567.73 0.500675 1.87635 0
M  V30 6008 C 564.86 1.29065 3.22427 0
M  V30 6009 C 563.814 2.40521 3.54025 0
M  V30 6010 C 563.14 2.11546 4.91073 0
M  V30 6011 C 564.44 3.82859 3.55269 0
M  V30 6012 H 566.134 2.37432 1.82391 0
M  V30 6013 H 563.68 1.14283 0.87609 0
M  V30 6014 H 565.633 1.29658 4.00957 0
M  V30 6015 H 564.357 0.312271 3.25104 0
M  V30 6016 H 563.016 2.39173 2.77834 0
M  V30 6017 H 562.664 1.12104 4.90348 0
M  V30 6018 H 562.364 2.86216 5.1318 0
M  V30 6019 H 563.888 2.13817 5.71939 0
M  V30 6020 H 565.302 3.86044 4.23843 0
M  V30 6021 H 563.699 4.57029 3.88902 0
M  V30 6022 H 564.769 4.12617 2.54706 0
M  V30 6023 N 566.112 -0.949982 1.2575 0
M  V30 6024 C 567.523 -1.50989 1.09815 0
M  V30 6025 C 567.874 -1.93497 -0.324556 0
M  V30 6026 O 566.999 -1.79068 -1.21506 0
M  V30 6027 C 567.594 -2.74394 1.98729 0
M  V30 6028 C 566.153 -3.26682 1.86965 0
M  V30 6029 C 565.3 -1.99498 1.92603 0
M  V30 6030 H 568.251 -0.766387 1.38968 0
M  V30 6031 H 568.272 -3.48383 1.53001 0
M  V30 6032 H 567.784 -2.43425 3.02268 0
M  V30 6033 H 565.885 -3.62461 0.863279 0
M  V30 6034 H 565.998 -3.94383 2.72027 0
M  V30 6035 H 564.362 -2.15005 1.36546 0
M  V30 6036 H 565.145 -1.70871 2.97755 0
M  V30 6037 N 567.59 -1.07411 -1.15328 0
M  V30 6038 C 568.836 -0.798831 -1.86404 0
M  V30 6039 C 569.169 0.673433 -1.8215 0
M  V30 6040 O 568.444 1.49428 -1.24505 0
M  V30 6041 C 568.727 -1.30846 -3.35487 0
M  V30 6042 C 568.58 -2.84532 -3.4837 0
M  V30 6043 C 569.899 -0.925486 -4.30259 0
M  V30 6044 H 567.018 -0.291659 -0.676834 0
M  V30 6045 H 569.66 -1.332 -1.35491 0
M  V30 6046 H 567.81 -0.854916 -3.78977 0
M  V30 6047 H 569.482 -3.3818 -3.13739 0
M  V30 6048 H 567.725 -3.22699 -2.8991 0
M  V30 6049 H 568.396 -3.15259 -4.53118 0
M  V30 6050 H 570.872 -1.3163 -3.94731 0
M  V30 6051 H 569.748 -1.3094 -5.33053 0
M  V30 6052 H 570.009 0.168525 -4.41779 0
M  V30 6053 N 569.068 1.32177 -0.85831 0
M  V30 6054 C 570.316 1.96735 -0.462568 0
M  V30 6055 C 570.637 1.6824 0.985911 0
M  V30 6056 O 569.907 0.991564 1.68952 0
M  V30 6057 H 568.487 0.727849 -0.168064 0
M  V30 6058 H 571.149 1.61195 -1.09554 0
M  V30 6059 H 570.245 3.06068 -0.610647 0
M  V30 6060 N 570.547 0.616602 1.45037 0
M  V30 6061 C 571.457 -0.0985401 2.34393 0
M  V30 6062 C 572.473 -0.850971 1.51771 0
M  V30 6063 O 573.649 -0.806521 1.84546 0
M  V30 6064 C 570.714 -1.07748 3.29532 0
M  V30 6065 C 569.775 -0.326022 4.2806 0
M  V30 6066 C 569.008 -1.25833 5.18654 0
M  V30 6067 O 569.231 -2.49652 5.12864 0
M  V30 6068 O 568.165 -0.750512 5.97203 0
M  V30 6069 H 571.991 0.636016 2.96966 0
M  V30 6070 H 569.576 0.376832 1.44569 0
M  V30 6071 H 571.458 -1.64107 3.88133 0
M  V30 6072 H 570.133 -1.79291 2.69512 0
M  V30 6073 H 569.04 0.280253 3.73049 0
M  V30 6074 H 570.373 0.349091 4.9096 0
M  V30 6075 N 572.025 -1.5352 0.356285 0
M  V30 6076 C 573.272 -2.01117 -0.236303 0
M  V30 6077 C 573.6 -1.24381 -1.49531 0
M  V30 6078 O 572.855 -0.323057 -1.93015 0
M  V30 6079 C 573.154 -3.52607 -0.583369 0
M  V30 6080 C 572.82 -4.47151 0.58023 0
M  V30 6081 C 571.482 -4.72718 0.899528 0
M  V30 6082 C 573.834 -5.03137 1.36024 0
M  V30 6083 C 571.162 -5.51523 2.00098 0
M  V30 6084 C 573.514 -5.83145 2.45204 0
M  V30 6085 C 572.178 -6.07001 2.77679 0
M  V30 6086 H 571.448 -0.735938 -0.0864695 0
M  V30 6087 H 574.095 -1.85209 0.48683 0
M  V30 6088 H 572.4 -3.66413 -1.38739 0
M  V30 6089 H 574.097 -3.86901 -1.05397 0
M  V30 6090 H 570.687 -4.27394 0.321322 0
M  V30 6091 H 574.871 -4.83339 1.12682 0
M  V30 6092 H 570.127 -5.68229 2.25668 0
M  V30 6093 H 574.301 -6.25537 3.06067 0
M  V30 6094 H 571.928 -6.67851 3.63151 0
M  V30 6095 N 573.503 -0.0852151 -1.57369 0
M  V30 6096 C 574.728 0.592872 -1.98746 0
M  V30 6097 C 575.153 1.61538 -0.963689 0
M  V30 6098 O 574.511 1.81168 0.069071 0
M  V30 6099 C 574.559 1.22599 -3.39119 0
M  V30 6100 O 573.663 2.34185 -3.39457 0
M  V30 6101 H 573.004 0.151314 -0.646529 0
M  V30 6102 H 575.534 -0.163703 -2.03944 0
M  V30 6103 H 575.544 1.56965 -3.76598 0
M  V30 6104 H 574.219 0.476831 -4.13158 0
M  V30 6105 H 572.796 2.01512 -3.13763 0
M  V30 6106 N 574.981 1.5647 0.188427 0
M  V30 6107 C 575.891 1.98285 1.2538 0
M  V30 6108 C 576.907 0.891535 1.49424 0
M  V30 6109 O 578.083 1.19782 1.61908 0
M  V30 6110 C 575.148 2.31965 2.57669 0
M  V30 6111 C 574.209 3.54838 2.41638 0
M  V30 6112 C 573.442 3.86901 3.67618 0
M  V30 6113 O 573.665 3.20163 4.72072 0
M  V30 6114 O 572.599 4.80309 3.62749 0
M  V30 6115 H 576.425 2.89145 0.928912 0
M  V30 6116 H 574.01 1.44112 0.393955 0
M  V30 6117 H 575.892 2.54673 3.35737 0
M  V30 6118 H 574.567 1.44271 2.89771 0
M  V30 6119 H 573.474 3.37369 1.61658 0
M  V30 6120 H 574.807 4.43019 2.14465 0
M  V30 6121 N 576.459 -0.456382 1.50847 0
M  V30 6122 C 577.87 -1.03685 1.55262 0
M  V30 6123 C 578.221 -1.92779 0.364771 0
M  V30 6124 O 577.346 -2.10043 -0.52068 0
M  V30 6125 C 577.941 -1.88718 2.81374 0
M  V30 6126 C 576.5 -2.41847 2.88422 0
M  V30 6127 C 575.647 -1.20564 2.49719 0
M  V30 6128 H 578.598 -0.238399 1.56899 0
M  V30 6129 H 578.619 -2.73957 2.6406 0
M  V30 6130 H 578.131 -1.23847 3.67809 0
M  V30 6131 H 576.232 -3.10228 2.06372 0
M  V30 6132 H 576.345 -2.75947 3.9165 0
M  V30 6133 H 574.709 -1.54504 2.02486 0
M  V30 6134 H 575.492 -0.573326 3.38479 0
M  V30 6135 N 577.937 -1.40673 -0.710563 0
M  V30 6136 C 579.184 -1.39222 -1.47049 0
M  V30 6137 C 579.512 0.0037691 -1.945 0
M  V30 6138 O 578.767 0.989224 -1.68857 0
M  V30 6139 C 579.066 -2.33253 -2.70791 0
M  V30 6140 C 578.732 -3.80406 -2.42079 0
M  V30 6141 C 577.394 -4.20496 -2.33959 0
M  V30 6142 C 579.746 -4.73375 -2.18094 0
M  V30 6143 C 577.074 -5.51584 -1.99929 0
M  V30 6144 C 579.426 -6.04768 -1.85576 0
M  V30 6145 C 578.09 -6.43895 -1.75941 0
M  V30 6146 H 577.36 -0.509449 -0.538092 0
M  V30 6147 H 580.007 -1.73363 -0.81348 0
M  V30 6148 H 578.312 -1.92314 -3.41354 0
M  V30 6149 H 580.009 -2.29412 -3.28894 0
M  V30 6150 H 576.599 -3.48645 -2.49288 0
M  V30 6151 H 580.783 -4.43217 -2.23321 0
M  V30 6152 H 576.039 -5.80797 -1.91011 0
M  V30 6153 H 580.213 -6.76318 -1.66033 0
M  V30 6154 H 577.84 -7.45387 -1.4934 0
M  V30 6155 N 579.415 0.9433 -1.26252 0
M  V30 6156 C 580.661 1.69175 -1.11837 0
M  V30 6157 C 580.994 1.91238 0.337891 0
M  V30 6158 O 580.269 1.49152 1.24836 0
M  V30 6159 C 580.552 3.06783 -1.88563 0
M  V30 6160 C 580.405 2.9206 -3.42083 0
M  V30 6161 C 581.724 4.06865 -1.67776 0
M  V30 6162 H 578.843 0.61399 -0.407658 0
M  V30 6163 H 581.485 1.09572 -1.55222 0
M  V30 6164 H 579.635 3.57663 -1.51689 0
M  V30 6165 H 581.307 2.48419 -3.88698 0
M  V30 6166 H 579.55 2.27731 -3.69217 0
M  V30 6167 H 580.221 3.89651 -3.90994 0
M  V30 6168 H 582.697 3.64939 -1.99897 0
M  V30 6169 H 581.573 5.01168 -2.23879 0
M  V30 6170 H 581.834 4.37705 -0.621816 0
M  V30 6171 N 580.893 1.08022 1.14757 0
M  V30 6172 C 581.843 0.676345 2.17737 0
M  V30 6173 C 582.827 -0.302018 1.5804 0
M  V30 6174 O 584.019 -0.11466 1.76628 0
M  V30 6175 C 581.148 0.082984 3.432 0
M  V30 6176 C 580.234 1.0869 4.09936 0
M  V30 6177 N 580.625 2.26891 4.52055 0
M  V30 6178 C 578.923 0.921768 4.36371 0
M  V30 6179 C 579.624 2.90636 5.0389 0
M  V30 6180 N 578.6 2.18266 4.97856 0
M  V30 6181 H 582.402 1.5765 2.4804 0
M  V30 6182 H 579.916 0.954374 1.31398 0
M  V30 6183 H 581.913 -0.224289 4.16296 0
M  V30 6184 H 580.573 -0.812206 3.14378 0
M  V30 6185 H 581.584 2.6457 4.45223 0
M  V30 6186 H 578.261 0.0800499 4.17423 0
M  V30 6187 H 579.651 3.9104 5.46386 0
M  V30 6188 N 582.371 -1.3172 0.865308 0
M  V30 6189 C 583.618 -1.96876 0.473931 0
M  V30 6190 C 583.946 -1.68425 -0.972786 0
M  V30 6191 O 583.201 -0.970742 -1.69927 0
M  V30 6192 C 583.5 -3.5102 0.672283 0
M  V30 6193 C 583.166 -3.9948 2.09108 0
M  V30 6194 C 581.828 -4.12425 2.4791 0
M  V30 6195 C 584.18 -4.2503 3.0166 0
M  V30 6196 C 581.508 -4.48267 3.78515 0
M  V30 6197 C 583.86 -4.62335 4.31774 0
M  V30 6198 C 582.524 -4.73486 4.70497 0
M  V30 6199 H 581.794 -0.72042 0.173424 0
M  V30 6200 H 584.441 -1.56937 1.0974 0
M  V30 6201 H 582.746 -3.91785 -0.034356 0
M  V30 6202 H 584.443 -3.99475 0.349353 0
M  V30 6203 H 581.033 -3.89898 1.77981 0
M  V30 6204 H 585.217 -4.14529 2.7291 0
M  V30 6205 H 580.473 -4.55097 4.08285 0
M  V30 6206 H 584.647 -4.81058 5.03543 0
M  V30 6207 H 582.274 -5.01016 5.71741 0
M  V30 6208 N 583.85 -0.624285 -1.44708 0
M  V30 6209 C 585.099 -0.123539 -2.01321 0
M  V30 6210 C 585.412 1.25966 -1.49639 0
M  V30 6211 O 586.618 1.85405 -1.98336 0
M  V30 6212 C 585.074 -0.170124 -3.59498 0
M  V30 6213 C 584.682 -1.55421 -4.20176 0
M  V30 6214 C 586.426 0.274513 -4.23611 0
M  V30 6215 C 584.332 -1.55628 -5.70556 0
M  V30 6216 H 583.263 -0.0424183 -0.752806 0
M  V30 6217 H 585.913 -0.782076 -1.65999 0
M  V30 6218 H 584.296 0.555385 -3.92086 0
M  V30 6219 H 585.47 -2.30276 -3.99136 0
M  V30 6220 H 583.784 -1.94235 -3.68323 0
M  V30 6221 H 586.382 0.292402 -5.339 0
M  V30 6222 H 586.725 1.3005 -3.95465 0
M  V30 6223 H 587.258 -0.398275 -3.95801 0
M  V30 6224 H 583.997 -2.56041 -6.03426 0
M  V30 6225 H 583.517 -0.850563 -5.93739 0
M  V30 6226 H 585.196 -1.28721 -6.34066 0
M  V30 6227 N 585.328 1.53329 -0.364422 0
M  V30 6228 C 586.556 2.05657 0.226424 0
M  V30 6229 C 586.971 1.23801 1.42544 0
M  V30 6230 O 586.328 0.27839 1.80364 0
M  V30 6231 C 586.379 3.56125 0.621056 0
M  V30 6232 O 586.1 4.34879 -0.530304 0
M  V30 6233 C 587.601 4.24706 1.27041 0
M  V30 6234 H 584.821 0.669806 0.0400056 0
M  V30 6235 H 587.365 1.97714 -0.522456 0
M  V30 6236 H 585.52 3.64223 1.31985 0
M  V30 6237 H 585.934 5.24073 -0.211546 0
M  V30 6238 H 587.408 5.3131 1.49711 0
M  V30 6239 H 587.885 3.78354 2.23036 0
M  V30 6240 H 588.491 4.20858 0.613079 0
M  V30 6241 N 586.806 0.0935595 1.57322 0
M  V30 6242 C 587.738 -0.895923 2.10964 0
M  V30 6243 C 588.751 -1.24705 1.04654 0
M  V30 6244 O 589.94 -1.20044 1.32105 0
M  V30 6245 C 587.04 -2.20546 2.57318 0
M  V30 6246 C 586.213 -2.0299 3.87445 0
M  V30 6247 C 585.272 -3.17443 4.19662 0
M  V30 6248 O 584.298 -2.91474 4.88909 0
M  V30 6249 N 585.5 -4.43168 3.74943 0
M  V30 6250 H 588.265 -0.437788 2.96485 0
M  V30 6251 H 585.826 -0.0915863 1.61641 0
M  V30 6252 H 587.818 -2.9606 2.75917 0
M  V30 6253 H 586.388 -2.57789 1.76816 0
M  V30 6254 H 585.608 -1.11815 3.78009 0
M  V30 6255 H 586.896 -1.88535 4.7258 0
M  V30 6256 H 586.294 -4.67149 3.19043 0
M  V30 6257 H 584.851 -5.15637 3.987 0
M  V30 6258 N 588.284 -1.56567 -0.180126 0
M  V30 6259 C 589.524 -1.83285 -0.904761 0
M  V30 6260 C 589.888 -0.673226 -1.7981 0
M  V30 6261 O 591.089 -0.820645 -2.55967 0
M  V30 6262 C 589.36 -3.15086 -1.68688 0
M  V30 6263 S 590.919 -3.63258 -2.46149 0
M  V30 6264 H 587.737 -0.643114 -0.303193 0
M  V30 6265 H 590.339 -1.94785 -0.167034 0
M  V30 6266 H 589.043 -3.97484 -1.02148 0
M  V30 6267 H 588.574 -3.06504 -2.46615 0
M  V30 6268 H 590.589 -3.29884 -3.70663 0
M  V30 6269 N 589.762 0.448376 -1.51087 0
M  V30 6270 C 590.695 1.56298 -1.66272 0
M  V30 6271 C 591.673 1.54381 -0.510419 0
M  V30 6272 O 592.857 1.73671 -0.732854 0
M  V30 6273 C 589.984 2.94883 -1.66618 0
M  V30 6274 C 589.03 3.14868 -2.87681 0
M  V30 6275 S 589.863 2.9234 -4.48662 0
M  V30 6276 C 591.019 4.33227 -4.51735 0
M  V30 6277 H 591.252 1.43182 -2.6055 0
M  V30 6278 H 588.785 0.637309 -1.40633 0
M  V30 6279 H 590.743 3.74771 -1.67502 0
M  V30 6280 H 589.404 3.05371 -0.735358 0
M  V30 6281 H 588.597 4.16166 -2.84292 0
M  V30 6282 H 588.199 2.42788 -2.84482 0
M  V30 6283 H 590.491 5.26247 -4.26697 0
M  V30 6284 H 591.434 4.41653 -5.53487 0
M  V30 6285 H 591.842 4.16367 -3.81181 0
M  V30 6286 N 591.24 1.41047 0.703093 0
M  V30 6287 C 592.656 1.23351 1.01275 0
M  V30 6288 C 592.856 0.11754 2.01157 0
M  V30 6289 O 591.912 -0.520518 2.47077 0
M  V30 6290 C 593.225 2.58001 1.54454 0
M  V30 6291 C 594.773 2.65119 1.66376 0
M  V30 6292 C 595.248 4.00067 2.22958 0
M  V30 6293 N 596.739 4.01875 2.30328 0
M  V30 6294 C 597.474 5.03087 2.75119 0
M  V30 6295 N 596.97 6.14692 3.19571 0
M  V30 6296 N 598.763 4.90451 2.74616 0
M  V30 6297 H 590.914 2.1236 0.0412686 0
M  V30 6298 H 593.177 0.944543 0.08089 0
M  V30 6299 H 592.883 3.40378 0.88521 0
M  V30 6300 H 592.757 2.79962 2.52786 0
M  V30 6301 H 595.144 1.83106 2.31422 0
M  V30 6302 H 595.225 2.46975 0.666089 0
M  V30 6303 H 594.869 4.82526 1.58529 0
M  V30 6304 H 594.799 4.15547 3.23462 0
M  V30 6305 H 597.29 3.21291 1.98949 0
M  V30 6306 H 597.603 6.87799 3.52352 0
M  V30 6307 H 595.948 6.18239 3.17498 0
M  V30 6308 H 599.139 4.0235 2.39233 0
M  V30 6309 H 599.312 5.6947 3.09206 0
M  V30 6310 N 592.718 -0.936591 1.26751 0
M  V30 6311 C 593.665 -2.03597 1.08706 0
M  V30 6312 C 594.635 -1.66097 -0.00926542 0
M  V30 6313 O 595.82 -1.90199 0.151377 0
M  V30 6314 C 592.96 -3.3727 0.73094 0
M  V30 6315 C 592.073 -3.87778 1.90399 0
M  V30 6316 C 591.208 -5.09859 1.49056 0
M  V30 6317 C 590.247 -5.5264 2.63164 0
M  V30 6318 N 589.384 -6.65921 2.22471 0
M  V30 6319 H 594.224 -2.18364 2.02784 0
M  V30 6320 H 591.761 -1.06985 1.00958 0
M  V30 6321 H 593.719 -4.14128 0.505328 0
M  V30 6322 H 592.349 -3.22337 -0.172868 0
M  V30 6323 H 591.401 -3.07279 2.2424 0
M  V30 6324 H 592.713 -4.15464 2.76028 0
M  V30 6325 H 591.867 -5.9419 1.22567 0
M  V30 6326 H 590.606 -4.8393 0.60524 0
M  V30 6327 H 589.611 -4.66863 2.90377 0
M  V30 6328 H 590.836 -5.80568 3.52303 0
M  V30 6329 H 588.782 -6.41667 1.36379 0
M  V30 6330 H 588.699 -6.93216 3.01641 0
M  V30 6331 H 589.967 -7.53616 1.99205 0
M  V30 6332 N 594.196 -1.08629 -1.14182 0
M  V30 6333 C 595.128 -0.676189 -2.18998 0
M  V30 6334 C 596.141 0.277871 -1.60411 0
M  V30 6335 O 597.33 0.0651771 -1.78381 0
M  V30 6336 C 594.43 0.0254916 -3.3889 0
M  V30 6337 C 593.603 -0.948039 -4.27002 0
M  V30 6338 C 592.662 -0.281268 -5.25448 0
M  V30 6339 O 591.688 -0.926378 -5.61611 0
M  V30 6340 N 592.89 0.967923 -5.72374 0
M  V30 6341 H 595.655 -1.57792 -2.54798 0
M  V30 6342 H 593.216 -0.972665 -1.29425 0
M  V30 6343 H 595.208 0.482554 -4.01813 0
M  V30 6344 H 593.778 0.829348 -3.01398 0
M  V30 6345 H 592.998 -1.58388 -3.6098 0
M  V30 6346 H 594.286 -1.60765 -4.82734 0
M  V30 6347 H 593.684 1.51175 -5.45126 0
M  V30 6348 H 592.241 1.36844 -6.37273 0
M  V30 6349 N 595.674 1.31259 -0.872281 0
M  V30 6350 C 597.085 1.78822 -0.536617 0
M  V30 6351 C 597.436 1.71855 0.946594 0
M  V30 6352 O 596.561 1.28769 1.73918 0
M  V30 6353 C 597.156 3.24698 -0.967294 0
M  V30 6354 C 595.715 3.70147 -0.683251 0
M  V30 6355 C 594.862 2.51994 -1.15733 0
M  V30 6356 H 597.813 1.18308 -1.05777 0
M  V30 6357 H 597.834 3.79386 -0.290929 0
M  V30 6358 H 597.346 3.29737 -2.04683 0
M  V30 6359 H 595.447 3.70607 0.384825 0
M  V30 6360 H 595.56 4.62183 -1.2619 0
M  V30 6361 H 593.924 2.48078 -0.577024 0
M  V30 6362 H 594.707 2.59778 -2.24434 0
M  V30 6363 N 597.152 0.631951 1.44375 0
M  V30 6364 C 598.099 -0.0724807 2.30686 0
M  V30 6365 C 599.069 -0.835975 1.43529 0
M  V30 6366 O 600.254 -0.816849 1.7243 0
M  V30 6367 C 597.394 -1.04753 3.28817 0
M  V30 6368 C 596.507 -0.282367 4.31076 0
M  V30 6369 C 595.642 -1.2493 5.163 0
M  V30 6370 C 594.681 -0.473349 6.10267 0
M  V30 6371 N 593.818 -1.39079 6.88187 0
M  V30 6372 H 598.658 0.669477 2.90383 0
M  V30 6373 H 596.195 0.341927 1.43071 0
M  V30 6374 H 598.153 -1.62623 3.842 0
M  V30 6375 H 596.783 -1.75661 2.70819 0
M  V30 6376 H 595.835 0.412268 3.78159 0
M  V30 6377 H 597.147 0.321955 4.9776 0
M  V30 6378 H 596.301 -1.89931 5.76204 0
M  V30 6379 H 595.04 -1.88755 4.49692 0
M  V30 6380 H 594.045 0.190142 5.49471 0
M  V30 6381 H 595.27 0.16019 6.78911 0
M  V30 6382 H 593.216 -2.01623 6.24247 0
M  V30 6383 H 593.133 -0.840513 7.51313 0
M  V30 6384 H 594.401 -2.02961 7.52613 0
M  V30 6385 N 598.631 -1.53133 0.372548 0
M  V30 6386 C 599.541 -2.29671 -0.478379 0
M  V30 6387 C 600.557 -1.35913 -1.08644 0
M  V30 6388 O 601.733 -1.68975 -1.09588 0
M  V30 6389 C 598.798 -3.07625 -1.599 0
M  V30 6390 C 597.859 -4.17061 -1.01776 0
M  V30 6391 C 597.092 -4.91289 -2.08497 0
M  V30 6392 O 597.315 -4.65442 -3.29727 0
M  V30 6393 O 596.249 -5.7705 -1.71164 0
M  V30 6394 H 600.075 -3.03355 0.144649 0
M  V30 6395 H 597.66 -1.48773 0.136729 0
M  V30 6396 H 599.542 -3.56281 -2.25038 0
M  V30 6397 H 598.217 -2.3677 -2.2073 0
M  V30 6398 H 597.124 -3.72641 -0.330098 0
M  V30 6399 H 598.457 -4.90102 -0.453915 0
M  V30 6400 N 600.109 -0.101901 -1.5727 0
M  V30 6401 C 601.525 0.254739 -1.57554 0
M  V30 6402 C 601.725 1.67937 -1.11352 0
M  V30 6403 O 600.781 2.39722 -0.793081 0
M  V30 6404 C 602.094 0.036975 -3.00677 0
M  V30 6405 C 603.642 0.104199 -3.12827 0
M  V30 6406 C 604.117 -0.0856565 -4.5792 0
M  V30 6407 N 605.608 -0.0310498 -4.6319 0
M  V30 6408 C 606.343 -0.153099 -5.73196 0
M  V30 6409 N 605.839 -0.330364 -6.92012 0
M  V30 6410 N 607.632 -0.0938854 -5.62022 0
M  V30 6411 H 599.783 -1.03263 -1.85609 0
M  V30 6412 H 602.046 -0.405251 -0.857016 0
M  V30 6413 H 601.752 -0.947254 -3.38703 0
M  V30 6414 H 601.626 0.776335 -3.69124 0
M  V30 6415 H 604.013 1.07894 -2.74669 0
M  V30 6416 H 604.094 -0.666762 -2.46957 0
M  V30 6417 H 603.738 -1.05729 -4.96773 0
M  V30 6418 H 603.668 0.705082 -5.21858 0
M  V30 6419 H 606.159 0.103141 -3.77759 0
M  V30 6420 H 606.472 -0.41482 -7.71686 0
M  V30 6421 H 604.817 -0.366119 -6.94035 0
M  V30 6422 H 608.008 0.0435168 -4.6808 0
M  V30 6423 H 608.181 -0.19245 -6.47714 0
M  V30 6424 N 601.587 1.56661 0.17182 0
M  V30 6425 C 602.998 1.71652 0.734329 0
M  V30 6426 C 603.349 0.712335 1.82812 0
M  V30 6427 O 602.474 -0.126401 2.16031 0
M  V30 6428 C 603.069 3.11226 1.3388 0
M  V30 6429 C 601.628 3.27904 1.84813 0
M  V30 6430 C 600.775 2.67603 0.726917 0
M  V30 6431 H 603.726 1.5861 -0.0535665 0
M  V30 6432 H 603.747 3.09849 2.20849 0
M  V30 6433 H 603.259 3.8429 0.54249 0
M  V30 6434 H 601.36 2.59796 2.6709 0
M  V30 6435 H 601.473 4.35637 1.99392 0
M  V30 6436 H 599.837 2.274 1.14723 0
M  V30 6437 H 600.62 3.43252 -0.0575334 0
M  V30 6438 N 603.065 -0.440357 1.51323 0
M  V30 6439 C 604.028 -1.51679 1.71832 0
M  V30 6440 C 605.028 -1.49648 0.588386 0
M  V30 6441 O 606.218 -1.51724 0.855891 0
M  V30 6442 C 603.35 -2.91228 1.77199 0
M  V30 6443 H 604.543 -1.34799 2.67898 0
M  V30 6444 H 602.096 -0.66883 1.41267 0
M  V30 6445 H 602.831 -3.13516 0.829363 0
M  V30 6446 H 602.616 -2.94107 2.59314 0
M  V30 6447 H 604.106 -3.69321 1.94915 0
M  V30 6448 N 604.543 -1.41418 -0.695603 0
M  V30 6449 C 605.954 -1.36335 -1.27552 0
M  V30 6450 C 606.305 -0.0464336 -1.96145 0
M  V30 6451 O 605.43 0.855304 -1.9878 0
M  V30 6452 C 606.025 -2.46941 -2.3196 0
M  V30 6453 C 604.584 -2.45256 -2.85529 0
M  V30 6454 C 603.731 -2.2679 -1.59566 0
M  V30 6455 H 606.682 -1.50934 -0.490362 0
M  V30 6456 H 606.703 -2.15997 -3.1325 0
M  V30 6457 H 606.215 -3.42775 -1.82008 0
M  V30 6458 H 604.316 -1.53179 -3.39657 0
M  V30 6459 H 604.429 -3.41565 -3.35961 0
M  V30 6460 H 602.793 -1.74667 -1.85374 0
M  V30 6461 H 603.576 -3.24651 -1.1161 0
M  V30 6462 N 606.021 0.929856 -1.27246 0
M  V30 6463 C 606.931 2.0636 -1.11592 0
M  V30 6464 C 607.947 1.73938 -0.046496 0
M  V30 6465 O 609.123 1.9981 -0.252544 0
M  V30 6466 C 606.188 3.38213 -0.762437 0
M  V30 6467 C 605.249 3.84346 -1.9125 0
M  V30 6468 C 604.482 5.09906 -1.57579 0
M  V30 6469 O 604.705 5.68354 -0.482694 0
M  V30 6470 O 603.639 5.51359 -2.41426 0
M  V30 6471 H 607.465 2.22478 -2.0673 0
M  V30 6472 H 605.05 1.04865 -1.06413 0
M  V30 6473 H 606.932 4.1741 -0.57854 0
M  V30 6474 H 605.607 3.23307 0.159439 0
M  V30 6475 H 604.514 3.06045 -2.15144 0
M  V30 6476 H 605.847 4.0379 -2.81451 0
M  V30 6477 N 607.499 1.09233 1.13605 0
M  V30 6478 C 608.409 0.741939 2.22559 0
M  V30 6479 C 609.425 -0.255236 1.72118 0
M  V30 6480 O 610.601 -0.0970747 2.01166 0
M  V30 6481 C 607.666 0.165595 3.46304 0
M  V30 6482 C 606.727 1.21846 4.11645 0
M  V30 6483 C 605.96 0.669526 5.29484 0
M  V30 6484 O 606.183 -0.508228 5.68131 0
M  V30 6485 O 605.117 1.42361 5.84822 0
M  V30 6486 H 608.943 1.65107 2.54899 0
M  V30 6487 H 606.528 0.866584 1.21699 0
M  V30 6488 H 608.41 -0.152592 4.21124 0
M  V30 6489 H 607.085 -0.716573 3.15669 0
M  V30 6490 H 605.992 1.58931 3.38662 0
M  V30 6491 H 607.325 2.07321 4.46407 0
M  V30 6492 N 608.977 -1.30795 0.87923 0
M  V30 6493 C 609.907 -2.30742 0.357796 0
M  V30 6494 C 610.888 -1.60747 -0.556283 0
M  V30 6495 O 612.073 -1.88393 -0.47135 0
M  V30 6496 C 609.203 -3.44583 -0.433555 0
M  V30 6497 C 608.157 -4.26235 0.388251 0
M  V30 6498 C 607.483 -5.32073 -0.529352 0
M  V30 6499 C 608.783 -4.96303 1.62729 0
M  V30 6500 H 610.477 -2.74605 1.19299 0
M  V30 6501 H 608.023 -1.32017 0.575104 0
M  V30 6502 H 609.976 -4.13563 -0.808934 0
M  V30 6503 H 608.7 -2.99511 -1.30234 0
M  V30 6504 H 607.359 -3.58936 0.745695 0
M  V30 6505 H 607.007 -4.83249 -1.39569 0
M  V30 6506 H 606.707 -5.87598 0.0166741 0
M  V30 6507 H 608.231 -6.0391 -0.901373 0
M  V30 6508 H 609.645 -5.5783 1.32283 0
M  V30 6509 H 608.042 -5.61666 2.11309 0
M  V30 6510 H 609.112 -4.22758 2.37494 0
M  V30 6511 N 610.455 -0.639598 -1.44038 0
M  V30 6512 C 611.388 0.109736 -2.27936 0
M  V30 6513 C 612.366 0.843095 -1.39035 0
M  V30 6514 O 613.55 0.845456 -1.68476 0
M  V30 6515 C 610.677 1.16173 -3.18153 0
M  V30 6516 C 609.723 0.527954 -4.2322 0
M  V30 6517 S 610.556 -0.688318 -5.31058 0
M  V30 6518 C 611.712 0.363481 -6.24844 0
M  V30 6519 H 611.945 -0.601986 -2.91142 0
M  V30 6520 H 609.478 -0.42802 -1.48349 0
M  V30 6521 H 611.436 1.76372 -3.7068 0
M  V30 6522 H 610.097 1.84569 -2.54151 0
M  V30 6523 H 609.29 1.32054 -4.86393 0
M  V30 6524 H 608.892 0.000396444 -3.74 0
M  V30 6525 H 611.184 1.23362 -6.66174 0
M  V30 6526 H 612.127 -0.23288 -7.07717 0
M  V30 6527 H 612.535 0.693179 -5.60228 0
M  V30 6528 N 611.933 1.52934 -0.380664 0
M  V30 6529 C 613.181 2.01069 0.203874 0
M  V30 6530 C 613.502 1.26922 1.4804 0
M  V30 6531 O 612.772 0.386787 1.92044 0
M  V30 6532 H 611.352 0.742882 0.0783279 0
M  V30 6533 H 614.014 1.88099 -0.510368 0
M  V30 6534 H 613.11 3.09258 0.42021 0
M  V30 6535 N 613.412 0.11024 1.57214 0
M  V30 6536 C 614.362 -0.854147 2.11396 0
M  V30 6537 C 615.346 -1.23394 1.03261 0
M  V30 6538 O 616.538 -1.20649 1.2951 0
M  V30 6539 C 613.667 -2.10752 2.70995 0
M  V30 6540 C 612.753 -1.75249 3.86198 0
M  V30 6541 N 613.144 -1.10377 4.9361 0
M  V30 6542 C 611.442 -2.04763 3.96217 0
M  V30 6543 C 612.143 -0.938199 5.74084 0
M  V30 6544 N 611.119 -1.46039 5.23616 0
M  V30 6545 H 614.921 -0.348897 2.91822 0
M  V30 6546 H 612.435 -0.0925071 1.62136 0
M  V30 6547 H 614.432 -2.80801 3.0815 0
M  V30 6548 H 613.092 -2.61829 1.9203 0
M  V30 6549 H 614.103 -0.768785 5.12162 0
M  V30 6550 H 610.78 -2.57948 3.28282 0
M  V30 6551 H 612.17 -0.429678 6.70525 0
M  V30 6552 N 614.89 -1.56749 -0.16351 0
M  V30 6553 C 616.301 -1.72039 -0.725216 0
M  V30 6554 C 616.652 -0.72202 -1.82432 0
M  V30 6555 O 615.777 0.114942 -2.16095 0
M  V30 6556 C 616.372 -3.11932 -1.32227 0
M  V30 6557 C 614.931 -3.28879 -1.83072 0
M  V30 6558 C 614.078 -2.67984 -0.712716 0
M  V30 6559 H 617.029 -1.58579 0.0619772 0
M  V30 6560 H 617.05 -3.11015 -2.19202 0
M  V30 6561 H 616.562 -3.84572 -0.522103 0
M  V30 6562 H 614.663 -2.61209 -2.65708 0
M  V30 6563 H 614.776 -4.36688 -1.97079 0
M  V30 6564 H 613.14 -2.28005 -1.13515 0
M  V30 6565 H 613.923 -3.43216 0.0757361 0
M  V30 6566 N 616.368 0.432326 -1.51554 0
M  V30 6567 C 617.615 1.18134 -1.64471 0
M  V30 6568 C 617.943 1.91076 -0.363349 0
M  V30 6569 O 617.198 1.84492 0.65279 0
M  V30 6570 C 617.497 2.21907 -2.80164 0
M  V30 6571 C 617.163 1.65941 -4.19255 0
M  V30 6572 C 615.825 1.50401 -4.57092 0
M  V30 6573 C 618.177 1.24843 -5.06027 0
M  V30 6574 C 615.505 0.922443 -5.79403 0
M  V30 6575 C 617.857 0.68113 -6.28922 0
M  V30 6576 C 616.521 0.512673 -6.65528 0
M  V30 6577 H 615.791 0.432283 -0.601841 0
M  V30 6578 H 618.438 0.471701 -1.856 0
M  V30 6579 H 616.743 2.98928 -2.53277 0
M  V30 6580 H 618.44 2.79691 -2.87357 0
M  V30 6581 H 615.03 1.79014 -3.89425 0
M  V30 6582 H 619.214 1.35667 -4.77397 0
M  V30 6583 H 614.47 0.779733 -6.06408 0
M  V30 6584 H 618.644 0.35418 -6.95499 0
M  V30 6585 H 616.271 0.0599084 -7.60176 0
M  V30 6586 N 617.846 1.41785 0.688094 0
M  V30 6587 C 619.095 1.4084 1.44385 0
M  V30 6588 C 619.408 0.0234166 1.95586 0
M  V30 6589 O 620.614 -0.108647 2.71283 0
M  V30 6590 C 619.07 2.47675 2.61123 0
M  V30 6591 C 618.678 3.92116 2.16677 0
M  V30 6592 C 620.422 2.55877 3.38714 0
M  V30 6593 C 618.329 4.90487 3.30419 0
M  V30 6594 H 617.259 0.523787 0.542368 0
M  V30 6595 H 619.91 1.6764 0.74627 0
M  V30 6596 H 618.292 2.14018 3.33185 0
M  V30 6597 H 619.466 4.35059 1.51856 0
M  V30 6598 H 617.781 3.87642 1.5206 0
M  V30 6599 H 620.378 3.26553 4.234 0
M  V30 6600 H 620.721 1.59801 3.84408 0
M  V30 6601 H 621.254 2.88662 2.73714 0
M  V30 6602 H 617.993 5.87994 2.89729 0
M  V30 6603 H 617.513 4.52187 3.94065 0
M  V30 6604 H 619.192 5.11591 3.96085 0
M  V30 6605 N 619.324 -0.923095 1.27737 0
M  V30 6606 C 620.57 -1.67375 1.14514 0
M  V30 6607 C 620.903 -1.91751 -0.307424 0
M  V30 6608 O 620.178 -1.51119 -1.22447 0
M  V30 6609 C 620.461 -3.03745 1.9342 0
M  V30 6610 C 620.314 -2.86581 3.46686 0
M  V30 6611 C 621.633 -4.04144 1.74228 0
M  V30 6612 H 618.752 -0.607427 0.417374 0
M  V30 6613 H 621.394 -1.07089 1.56946 0
M  V30 6614 H 619.544 -3.55204 1.5736 0
M  V30 6615 H 621.216 -2.42203 3.92601 0
M  V30 6616 H 619.459 -2.21829 3.72793 0
M  V30 6617 H 620.13 -3.83381 3.97143 0
M  V30 6618 H 622.606 -3.61712 2.05678 0
M  V30 6619 H 621.482 -4.97543 2.31824 0
M  V30 6620 H 621.743 -4.36661 0.691373 0
M  V30 6621 N 620.802 -1.09834 -1.13024 0
M  V30 6622 C 621.734 -0.699379 -2.18269 0
M  V30 6623 C 622.747 0.260841 -1.60697 0
M  V30 6624 O 623.936 0.0462538 -1.7844 0
M  V30 6625 C 621.036 -0.0104537 -3.38898 0
M  V30 6626 C 620.209 -0.993275 -4.25973 0
M  V30 6627 C 619.268 -0.336982 -5.2512 0
M  V30 6628 O 618.294 -0.985892 -5.60597 0
M  V30 6629 N 619.496 0.90716 -5.73368 0
M  V30 6630 H 622.261 -1.60486 -2.5311 0
M  V30 6631 H 619.822 -0.986337 -1.28386 0
M  V30 6632 H 621.814 0.43991 -4.02302 0
M  V30 6633 H 620.384 0.797335 -3.0226 0
M  V30 6634 H 619.604 -1.62208 -3.5928 0
M  V30 6635 H 620.892 -1.65876 -4.81002 0
M  V30 6636 H 620.29 1.45384 -5.46699 0
M  V30 6637 H 618.847 1.30077 -6.38689 0
M  V30 6638 N 622.28 1.30327 -0.886154 0
M  V30 6639 C 623.527 1.96097 -0.505192 0
M  V30 6640 C 623.855 1.69952 0.945868 0
M  V30 6641 O 623.11 0.997653 1.68361 0
M  V30 6642 C 623.409 3.49906 -0.728042 0
M  V30 6643 C 623.075 3.96103 -2.15437 0
M  V30 6644 C 621.737 4.08428 -2.5444 0
M  V30 6645 C 624.089 4.20177 -3.08384 0
M  V30 6646 C 621.417 4.42189 -3.85598 0
M  V30 6647 C 623.769 4.55407 -4.39075 0
M  V30 6648 C 622.433 4.65941 -4.7797 0
M  V30 6649 H 621.703 0.71757 -0.184863 0
M  V30 6650 H 624.35 1.55171 -1.12223 0
M  V30 6651 H 622.655 3.9179 -0.027978 0
M  V30 6652 H 624.352 3.98869 -0.412862 0
M  V30 6653 H 620.942 3.87017 -1.84162 0
M  V30 6654 H 625.126 4.10134 -2.7947 0
M  V30 6655 H 620.382 4.48544 -4.15473 0
M  V30 6656 H 624.556 4.72986 -5.11133 0
M  V30 6657 H 622.183 4.91856 -5.79639 0
M  V30 6658 N 623.758 0.647228 1.43697 0
M  V30 6659 C 624.706 -0.0600105 2.32523 0
M  V30 6660 C 625.7 -0.819277 1.48271 0
M  V30 6661 O 626.906 -0.730356 1.64517 0
M  V30 6662 H 623.281 -0.0381872 0.75103 0
M  V30 6663 H 625.252 0.706978 2.89904 0
M  V30 6664 C 624.001 -1.0169 3.32497 0
M  V30 6665 H 623.324 -0.442083 3.97348 0
M  V30 6666 H 624.764 -1.48095 3.97296 0
M  V30 6667 C 623.223 -2.11002 2.6264 0
M  V30 6668 O 623.753 -3.19302 2.4374 0
M  V30 6669 N 621.959 -1.87388 2.22113 0
M  V30 6670 H 621.506 -0.993174 2.37684 0
M  V30 6671 H 621.464 -2.60723 1.75701 0
M  V30 6672 N 625.236 -1.5273 0.388769 0
M  V30 6673 C 626.513 -1.93981 -0.251133 0
M  V30 6674 C 626.893 -1.32418 -1.64404 0
M  V30 6675 O 626.241 -0.492074 -2.23139 0
M  V30 6676 C 626.451 -3.47891 -0.27802 0
M  V30 6677 C 627.799 -4.21559 -0.507229 0
M  V30 6678 O 628.823 -3.54394 -0.358252 0
M  V30 6679 O 627.682 -5.40626 -0.799094 0
M  V30 6680 H 624.776 -0.812157 -0.15598 0
M  V30 6681 H 627.322 -1.63809 0.443237 0
M  V30 6682 H 626.094 -3.8503 0.697669 0
M  V30 6683 H 625.717 -3.84364 -1.01733 0
M  V30 6684 N 626.714 -0.118576 -1.57153 0
M  V30 6685 C 627.962 0.538461 -1.94795 0
M  V30 6686 C 628.283 1.67243 -1.00274 0
M  V30 6687 O 627.553 1.95811 -0.0589692 0
M  V30 6688 H 626.133 0.201904 -0.719197 0
M  V30 6689 H 628.795 -0.187418 -1.93997 0
M  V30 6690 H 627.891 0.933315 -2.97818 0
M  V30 6691 N 628.193 1.56834 0.155195 0
M  V30 6692 C 629.141 1.98584 1.21107 0
M  V30 6693 C 630.135 0.876987 1.44932 0
M  V30 6694 O 631.341 1.06215 1.45322 0
M  V30 6695 H 627.716 0.632039 0.407469 0
M  V30 6696 H 629.687 2.86561 0.832195 0
M  V30 6697 C 628.436 2.37555 2.53895 0
M  V30 6698 H 627.759 3.22428 2.3639 0
M  V30 6699 H 629.199 2.70598 3.26424 0
M  V30 6700 C 627.658 1.22507 3.13837 0
M  V30 6701 O 628.188 0.521388 3.98302 0
M  V30 6702 N 626.394 0.991444 2.73164 0
M  V30 6703 H 625.941 1.56544 2.04577 0
M  V30 6704 H 625.899 0.223546 3.13604 0
M  V30 6705 N 629.671 -0.424282 1.51781 0
M  V30 6706 C 630.634 -1.49848 1.73431 0
M  V30 6707 C 631.634 -1.49016 0.604225 0
M  V30 6708 O 632.824 -1.50808 0.871935 0
M  V30 6709 C 629.956 -2.89332 1.80277 0
M  V30 6710 H 631.149 -1.3195 2.69312 0
M  V30 6711 H 628.702 -0.653809 1.41968 0
M  V30 6712 H 629.437 -3.12618 0.862568 0
M  V30 6713 H 629.222 -2.9134 2.62419 0
M  V30 6714 H 630.712 -3.67233 1.98821 0
M  V30 6715 N 631.149 -1.42148 -0.680565 0
M  V30 6716 C 632.112 -1.4488 -1.77602 0
M  V30 6717 C 633.112 -0.337209 -1.57224 0
M  V30 6718 O 634.302 -0.597778 -1.63622 0
M  V30 6719 C 631.434 -1.27483 -3.16166 0
M  V30 6720 H 632.627 -2.42412 -1.76568 0
M  V30 6721 H 630.18 -1.28511 -0.889645 0
M  V30 6722 H 630.915 -0.30851 -3.22829 0
M  V30 6723 H 630.7 -2.08037 -3.3236 0
M  V30 6724 H 632.19 -1.32265 -3.96101 0
M  V30 6725 N 632.627 0.916307 -1.28225 0
M  V30 6726 C 633.873 1.66765 -1.154 0
M  V30 6727 C 634.206 1.91912 0.297251 0
M  V30 6728 O 633.481 1.51766 1.21644 0
M  V30 6729 C 633.764 3.02715 -1.95028 0
M  V30 6730 C 633.617 2.84738 -3.48201 0
M  V30 6731 C 634.936 4.03215 -1.76369 0
M  V30 6732 H 632.055 0.605205 -0.42059 0
M  V30 6733 H 634.697 1.06255 -1.57512 0
M  V30 6734 H 632.847 3.54365 -1.59242 0
M  V30 6735 H 634.519 2.40118 -3.9388 0
M  V30 6736 H 632.762 2.19848 -3.73964 0
M  V30 6737 H 633.433 3.8127 -3.99171 0
M  V30 6738 H 635.909 3.60617 -2.07593 0
M  V30 6739 H 634.785 4.96306 -2.34459 0
M  V30 6740 H 635.046 4.36288 -0.71452 0
M  V30 6741 N 634.105 1.10431 1.1244 0
M  V30 6742 C 635.351 0.847972 1.84221 0
M  V30 6743 C 635.684 -0.624903 1.83871 0
M  V30 6744 O 634.959 -1.46074 1.28423 0
M  V30 6745 C 635.242 1.39695 3.319 0
M  V30 6746 C 635.095 2.93668 3.40704 0
M  V30 6747 C 636.414 1.03924 4.27654 0
M  V30 6748 H 633.533 0.309502 0.668863 0
M  V30 6749 H 636.175 1.36745 1.31912 0
M  V30 6750 H 634.325 0.955095 3.76577 0
M  V30 6751 H 635.997 3.46379 3.04662 0
M  V30 6752 H 634.24 3.30272 2.81252 0
M  V30 6753 H 634.911 3.27162 4.446 0
M  V30 6754 H 637.387 1.42049 3.91102 0
M  V30 6755 H 636.263 1.45027 5.29394 0
M  V30 6756 H 636.524 -0.051336 4.4207 0
M  V30 6757 N 635.583 -1.29855 0.893053 0
M  V30 6758 C 636.808 -2.00512 0.530066 0
M  V30 6759 C 637.233 -1.66446 -0.876199 0
M  V30 6760 O 636.591 -0.885446 -1.58207 0
M  V30 6761 C 636.639 -3.53308 0.721505 0
M  V30 6762 O 635.743 -4.11764 -0.228994 0
M  V30 6763 H 635.084 -0.630617 0.207891 0
M  V30 6764 H 637.614 -1.6551 1.20282 0
M  V30 6765 H 637.624 -4.03206 0.623599 0
M  V30 6766 H 636.299 -3.77439 1.74678 0
M  V30 6767 H 634.876 -3.72805 -0.0841034 0
M  V30 6768 N 637.061 -0.65484 -1.43351 0
M  V30 6769 C 637.994 0.0855537 -2.2804 0
M  V30 6770 C 638.972 0.828301 -1.39921 0
M  V30 6771 O 640.156 0.827539 -1.69364 0
M  V30 6772 C 637.283 1.12792 -3.19368 0
M  V30 6773 C 636.329 0.483037 -4.23756 0
M  V30 6774 S 637.162 -0.744605 -5.30298 0
M  V30 6775 C 638.318 0.297187 -6.25194 0
M  V30 6776 H 638.551 -0.632831 -2.90487 0
M  V30 6777 H 636.084 -0.44373 -1.47886 0
M  V30 6778 H 638.042 1.7243 -3.72529 0
M  V30 6779 H 636.703 1.81863 -2.56095 0
M  V30 6780 H 635.896 1.26888 -4.87766 0
M  V30 6781 H 635.498 -0.0392713 -3.73979 0
M  V30 6782 H 637.79 1.1629 -6.67445 0
M  V30 6783 H 638.733 -0.30793 -7.0743 0
M  V30 6784 H 639.141 0.633721 -5.60932 0
M  V30 6785 N 638.539 1.52521 -0.396863 0
M  V30 6786 C 639.785 2.02641 0.175606 0
M  V30 6787 C 640.14 1.27782 1.43839 0
M  V30 6788 O 639.433 0.371921 1.87956 0
M  V30 6789 C 639.627 3.5403 0.489677 0
M  V30 6790 C 639.456 4.43551 -0.741113 0
M  V30 6791 C 638.226 4.8927 -1.26265 0
M  V30 6792 C 640.424 4.88263 -1.61565 0
M  V30 6793 N 638.406 5.62884 -2.4502 0
M  V30 6794 C 639.777 5.60534 -2.64955 0
M  V30 6795 C 641.832 4.70294 -1.63486 0
M  V30 6796 C 640.535 6.16744 -3.70162 0
M  V30 6797 C 642.561 5.27392 -2.67603 0
M  V30 6798 C 641.923 5.99575 -3.69715 0
M  V30 6799 H 638.022 0.781563 0.0261477 0
M  V30 6800 H 640.606 1.86816 -0.548454 0
M  V30 6801 H 638.777 3.69952 1.18279 0
M  V30 6802 H 640.509 3.90843 1.04996 0
M  V30 6803 H 637.264 4.66403 -0.822509 0
M  V30 6804 H 637.688 6.04339 -3.05128 0
M  V30 6805 H 642.33 4.13985 -0.858848 0
M  V30 6806 H 640.048 6.72131 -4.48626 0
M  V30 6807 H 643.634 5.15365 -2.69982 0
M  V30 6808 H 642.514 6.42967 -4.48958 0
M  V30 6809 N 640.017 0.126909 1.57088 0
M  V30 6810 C 641.263 -0.529952 1.95753 0
M  V30 6811 C 641.596 -1.65823 1.01077 0
M  V30 6812 O 640.871 -1.94437 0.0494162 0
M  V30 6813 C 641.154 -1.05517 3.44294 0
M  V30 6814 C 641.007 0.0702253 4.49745 0
M  V30 6815 C 642.326 -1.9435 3.94862 0
M  V30 6816 H 639.445 -0.191168 0.711775 0
M  V30 6817 H 642.087 0.204071 1.88901 0
M  V30 6818 H 640.237 -1.68069 3.50264 0
M  V30 6819 H 641.909 0.705834 4.55868 0
M  V30 6820 H 640.152 0.732259 4.27575 0
M  V30 6821 H 640.823 -0.338642 5.5096 0
M  V30 6822 H 643.299 -1.41658 3.91244 0
M  V30 6823 H 642.175 -2.28015 4.993 0
M  V30 6824 H 642.436 -2.87299 3.36024 0
M  V30 6825 N 641.495 -1.56914 -0.146875 0
M  V30 6826 C 642.735 -1.85163 -0.86568 0
M  V30 6827 C 643.099 -0.711215 -1.78342 0
M  V30 6828 O 644.3 -0.874754 -2.54168 0
M  V30 6829 C 642.571 -3.18593 -1.61967 0
M  V30 6830 S 644.13 -3.68397 -2.38388 0
M  V30 6831 H 640.948 -0.6494 -0.289483 0
M  V30 6832 H 643.55 -1.95096 -0.125679 0
M  V30 6833 H 642.254 -3.99562 -0.93694 0
M  V30 6834 H 641.785 -3.11666 -2.40058 0
M  V30 6835 H 643.8 -3.37672 -3.63582 0
M  V30 6836 N 642.974 0.416227 -1.52004 0
M  V30 6837 C 644.39 0.754319 -1.40649 0
M  V30 6838 C 644.59 1.95059 -0.505392 0
M  V30 6839 O 643.646 2.5248 0.0315057 0
M  V30 6840 C 644.959 1.0149 -2.83055 0
M  V30 6841 C 646.507 1.11805 -2.9235 0
M  V30 6842 C 646.982 1.41144 -4.35709 0
M  V30 6843 N 648.473 1.48024 -4.38911 0
M  V30 6844 C 649.208 1.72338 -5.46889 0
M  V30 6845 N 648.704 1.94303 -6.64995 0
M  V30 6846 N 650.497 1.74294 -5.34395 0
M  V30 6847 H 642.648 -0.371324 -2.09129 0
M  V30 6848 H 644.911 -0.103811 -0.942299 0
M  V30 6849 H 644.617 0.208345 -3.51082 0
M  V30 6850 H 644.491 1.93697 -3.23668 0
M  V30 6851 H 646.878 1.91521 -2.24508 0
M  V30 6852 H 646.959 0.17451 -2.55204 0
M  V30 6853 H 646.603 0.619484 -5.04108 0
M  V30 6854 H 646.533 2.36739 -4.70385 0
M  V30 6855 H 649.024 1.32868 -3.53772 0
M  V30 6856 H 649.337 2.12286 -7.43071 0
M  V30 6857 H 647.682 1.91582 -6.68073 0
M  V30 6858 H 650.873 1.56667 -4.41104 0
M  V30 6859 H 651.046 1.92904 -6.18621 0
M  V30 6860 N 644.452 1.42507 0.673017 0
M  V30 6861 C 645.415 1.4582 1.76831 0
M  V30 6862 C 646.415 0.345542 1.57043 0
M  V30 6863 O 647.605 0.606447 1.63303 0
M  V30 6864 C 644.737 1.29158 3.15485 0
M  V30 6865 H 645.93 2.43345 1.7528 0
M  V30 6866 H 643.483 1.28981 0.882817 0
M  V30 6867 H 644.218 0.325626 3.22661 0
M  V30 6868 H 644.003 2.09797 3.31252 0
M  V30 6869 H 645.493 1.34363 3.95394 0
M  V30 6870 N 645.93 -0.909495 1.28709 0
M  V30 6871 C 646.86 -2.0291 1.15542 0
M  V30 6872 C 647.841 -1.7002 0.0521017 0
M  V30 6873 O 649.026 -1.92835 0.229849 0
M  V30 6874 C 646.156 -3.37458 0.820935 0
M  V30 6875 C 645.11 -3.84524 1.87949 0
M  V30 6876 C 644.436 -5.16086 1.39854 0
M  V30 6877 C 645.736 -4.05918 3.28676 0
M  V30 6878 H 647.43 -2.14183 2.09203 0
M  V30 6879 H 644.976 -1.02913 1.00722 0
M  V30 6880 H 646.929 -4.1528 0.715571 0
M  V30 6881 H 645.653 -3.26249 -0.151374 0
M  V30 6882 H 644.312 -3.08911 1.97408 0
M  V30 6883 H 643.96 -5.01284 0.41518 0
M  V30 6884 H 643.66 -5.48547 2.1064 0
M  V30 6885 H 645.184 -5.96459 1.30649 0
M  V30 6886 H 646.598 -4.74252 3.22115 0
M  V30 6887 H 644.995 -4.49717 3.97334 0
M  V30 6888 H 646.065 -3.10583 3.72379 0
M  V30 6889 N 647.408 -1.11026 -1.11852 0
M  V30 6890 C 648.318 -0.777252 -2.2135 0
M  V30 6891 C 649.334 0.227821 -1.72502 0
M  V30 6892 O 650.51 0.0650587 -2.01295 0
M  V30 6893 C 647.575 -0.220668 -3.45997 0
M  V30 6894 C 646.636 -1.2838 -4.09655 0
M  V30 6895 C 645.869 -0.753678 -5.28352 0
M  V30 6896 O 646.092 0.417779 -5.68868 0
M  V30 6897 O 645.026 -1.51647 -5.82483 0
M  V30 6898 H 648.852 -1.69141 -2.5224 0
M  V30 6899 H 646.437 -0.885836 -1.20305 0
M  V30 6900 H 648.319 0.0855756 -4.21313 0
M  V30 6901 H 646.994 0.666262 -3.16769 0
M  V30 6902 H 645.901 -1.64299 -3.3609 0
M  V30 6903 H 647.234 -2.14396 -4.43052 0
M  V30 6904 N 648.886 1.2938 -0.899927 0
M  V30 6905 C 649.796 2.31462 -0.382437 0
M  V30 6906 C 650.812 1.65956 0.522929 0
M  V30 6907 O 651.988 1.97131 0.412454 0
M  V30 6908 C 649.053 3.44595 0.381472 0
M  V30 6909 C 648.114 4.25692 -0.555444 0
M  V30 6910 C 647.347 5.33422 0.172102 0
M  V30 6911 O 647.57 5.53053 1.396 0
M  V30 6912 O 646.504 5.99939 -0.485491 0
M  V30 6913 H 650.33 2.77706 -1.22934 0
M  V30 6914 H 647.915 1.33821 -0.664259 0
M  V30 6915 H 649.797 4.13474 0.813442 0
M  V30 6916 H 648.472 3.00458 1.20443 0
M  V30 6917 H 647.379 3.59453 -1.03653 0
M  V30 6918 H 648.712 4.73471 -1.34483 0
M  V30 6919 N 650.364 0.662433 1.43002 0
M  V30 6920 C 651.78 0.330835 1.56133 0
M  V30 6921 C 651.98 -1.16454 1.64441 0
M  V30 6922 O 651.036 -1.94964 1.60453 0
M  V30 6923 C 652.349 1.05029 2.81761 0
M  V30 6924 C 653.897 1.03142 2.95518 0
M  V30 6925 C 654.372 1.73196 4.2399 0
M  V30 6926 N 655.863 1.70004 4.30875 0
M  V30 6927 C 656.598 2.21074 5.29069 0
M  V30 6928 N 656.094 2.80473 6.33488 0
M  V30 6929 N 657.887 2.1152 5.20784 0
M  V30 6930 H 650.038 1.63272 1.35853 0
M  V30 6931 H 652.301 0.687149 0.653092 0
M  V30 6932 H 652.007 2.10542 2.81718 0
M  V30 6933 H 651.881 0.607664 3.72273 0
M  V30 6934 H 654.268 -0.0153339 2.95096 0
M  V30 6935 H 654.349 1.51282 2.0627 0
M  V30 6936 H 653.993 2.77833 4.25172 0
M  V30 6937 H 653.923 1.22515 5.1215 0
M  V30 6938 H 656.414 1.26667 3.56039 0
M  V30 6939 H 656.727 3.17094 7.04749 0
M  V30 6940 H 655.072 2.84538 6.34085 0
M  V30 6941 H 658.263 1.64814 4.38126 0
M  V30 6942 H 658.436 2.51629 5.97149 0
M  V30 6943 N 651.842 -1.52309 0.404946 0
M  V30 6944 C 653.258 -1.59503 0.0556255 0
M  V30 6945 C 653.458 -1.41805 -1.43156 0
M  V30 6946 O 652.514 -1.2429 -2.19792 0
M  V30 6947 C 653.827 -2.95687 0.546801 0
M  V30 6948 C 655.375 -3.08909 0.504413 0
M  V30 6949 C 655.85 -4.47566 0.97203 0
M  V30 6950 N 657.341 -4.53795 0.928679 0
M  V30 6951 C 658.076 -5.59346 1.26174 0
M  V30 6952 N 657.572 -6.72469 1.66604 0
M  V30 6953 N 659.365 -5.49532 1.18198 0
M  V30 6954 H 651.516 -1.6206 1.37296 0
M  V30 6955 H 653.779 -0.762161 0.563751 0
M  V30 6956 H 653.485 -3.13905 1.58609 0
M  V30 6957 H 653.359 -3.77172 -0.0457905 0
M  V30 6958 H 655.746 -2.90378 -0.525819 0
M  V30 6959 H 655.827 -2.2934 1.13301 0
M  V30 6960 H 655.471 -4.6684 2.00057 0
M  V30 6961 H 655.401 -5.25625 0.320292 0
M  V30 6962 H 657.892 -3.72588 0.631369 0
M  V30 6963 H 658.205 -7.48993 1.9034 0
M  V30 6964 H 656.55 -6.73761 1.70504 0
M  V30 6965 H 659.741 -4.60038 0.865011 0
M  V30 6966 H 659.914 -6.31687 1.44485 0
M  V30 6967 N 653.32 -0.135238 -1.57019 0
M  V30 6968 C 654.545 0.529343 -2.00531 0
M  V30 6969 C 654.97 1.58391 -1.01459 0
M  V30 6970 O 654.328 1.81296 0.0113986 0
M  V30 6971 C 654.376 1.11748 -3.42848 0
M  V30 6972 O 653.48 2.23267 -3.46736 0
M  V30 6973 H 652.821 0.130669 -0.651016 0
M  V30 6974 H 655.351 -0.228503 -2.0332 0
M  V30 6975 H 655.361 1.44905 -3.81401 0
M  V30 6976 H 654.036 0.345147 -4.14465 0
M  V30 6977 H 652.613 1.91428 -3.20015 0
M  V30 6978 N 654.798 1.5699 0.138552 0
M  V30 6979 C 655.73 1.95515 1.1961 0
M  V30 6980 C 656.743 0.852002 1.38726 0
M  V30 6981 O 657.932 1.13038 1.38147 0
M  V30 6982 C 655.032 2.2213 2.55952 0
M  V30 6983 C 654.205 3.53424 2.57702 0
M  V30 6984 C 653.264 3.6848 3.75645 0
M  V30 6985 O 652.29 4.4079 3.60129 0
M  V30 6986 N 653.492 3.05777 4.93438 0
M  V30 6987 H 656.257 2.86838 0.868557 0
M  V30 6988 H 653.818 1.58542 0.328033 0
M  V30 6989 H 655.81 2.29435 3.33379 0
M  V30 6990 H 654.38 1.3703 2.80965 0
M  V30 6991 H 653.6 3.57484 1.6613 0
M  V30 6992 H 654.888 4.39759 2.55909 0
M  V30 6993 H 654.286 2.46961 5.08947 0
M  V30 6994 H 652.843 3.18631 5.6861 0
M  V30 6995 N 656.276 -0.40816 1.52223 0
M  V30 6996 C 657.208 -1.51642 1.71864 0
M  V30 6997 C 658.221 -1.51378 0.599056 0
M  V30 6998 O 659.41 -1.55626 0.874239 0
M  V30 6999 C 656.51 -2.90534 1.74481 0
M  V30 7000 C 655.683 -3.14979 3.03491 0
M  V30 7001 C 654.742 -4.33749 2.97907 0
M  V30 7002 O 653.768 -4.30982 3.71811 0
M  V30 7003 N 654.97 -5.38912 2.15764 0
M  V30 7004 H 657.735 -1.35188 2.67478 0
M  V30 7005 H 655.296 -0.597468 1.50472 0
M  V30 7006 H 657.288 -3.68056 1.68275 0
M  V30 7007 H 655.858 -3.00441 0.863363 0
M  V30 7008 H 655.078 -2.25492 3.23337 0
M  V30 7009 H 656.366 -3.28156 3.88833 0
M  V30 7010 H 655.764 -5.44008 1.55152 0
M  V30 7011 H 654.321 -6.15174 2.15415 0
M  V30 7012 N 657.755 -1.42862 -0.66545 0
M  V30 7013 C 659.003 -1.43546 -1.42264 0
M  V30 7014 C 659.324 -0.0563116 -1.94919 0
M  V30 7015 O 658.594 0.906568 -1.73661 0
M  V30 7016 H 657.174 -0.528464 -0.527953 0
M  V30 7017 H 659.836 -1.78363 -0.785665 0
M  V30 7018 H 658.932 -2.14079 -2.27105 0
M  V30 7019 N 659.233 0.902656 -1.29189 0
M  V30 7020 C 660.644 1.46809 -1.15343 0
M  V30 7021 C 660.995 1.94568 0.252517 0
M  V30 7022 O 660.12 1.83454 1.14777 0
M  V30 7023 C 660.715 2.66829 -2.08776 0
M  V30 7024 C 659.274 3.19518 -1.98961 0
M  V30 7025 C 658.421 1.92212 -1.99874 0
M  V30 7026 H 661.372 0.714282 -1.41717 0
M  V30 7027 H 661.393 3.42465 -1.65826 0
M  V30 7028 H 660.905 2.32039 -3.11094 0
M  V30 7029 H 659.006 3.59008 -0.99721 0
M  V30 7030 H 659.119 3.84016 -2.86477 0
M  V30 7031 H 657.483 2.0979 -1.44431 0
M  V30 7032 H 658.266 1.59702 -3.03891 0
M  V30 7033 N 660.711 1.11618 1.11262 0
M  V30 7034 C 662.122 0.881942 1.64556 0
M  V30 7035 C 662.473 -0.585442 1.87262 0
M  V30 7036 O 661.598 -1.44795 1.60821 0
M  V30 7037 C 662.193 1.59446 2.98935 0
M  V30 7038 C 660.752 1.40661 3.4913 0
M  V30 7039 C 659.899 1.63593 2.23903 0
M  V30 7040 H 662.85 1.27217 0.94877 0
M  V30 7041 H 662.871 1.04054 3.65996 0
M  V30 7042 H 662.383 2.66241 2.82378 0
M  V30 7043 H 660.484 0.360835 3.70849 0
M  V30 7044 H 660.597 2.15693 4.27801 0
M  V30 7045 H 658.961 1.05944 2.3162 0
M  V30 7046 H 659.744 2.71666 2.09886 0
M  V30 7047 O 662.228 -1.23648 1.03892 0
M  V30 7048 H 662.919 -1.80254 0.709093 0
M  V30 END ATOM
M  V30 BEGIN BOND
M  V30 END BOND
M  V30 END CTAB
M  END
$$$$
