drugbank_target|Q13133 Oxysterols receptor LXR-alpha (DB07080; DB07929; DB08063; DB08175; DB11994; DB13174)
 OpenBabel12092120393D

  0  0  0     0  0            999 V3000
M  V30 BEGIN CTAB
M  V30 COUNTS 7066 7145 0 0 0
M  V30 BEGIN ATOM
M  V30 1 H -0.908 1.98254 -0.117106 0
M  V30 2 N 0 1.576 0 0
M  V30 3 C 0.933 2.03868 1.02534 0
M  V30 4 C 1.911 0.928543 1.3348 0
M  V30 5 O 3.095 1.19667 1.45644 0
M  V30 6 C 0.222 2.43627 2.35294 0
M  V30 7 C -0.732 3.65373 2.2001 0
M  V30 8 S 0.101 5.13292 1.52614 0
M  V30 9 C 1.257 5.56322 2.86805 0
M  V30 10 H 1.49 2.90518 0.631377 0
M  V30 11 H -0.977 1.52953 0.210867 0
M  V30 12 H 0.981 2.67203 3.11629 0
M  V30 13 H -0.358 1.57376 2.7183 0
M  V30 14 H -1.165 3.90944 3.18086 0
M  V30 15 H -1.563 3.418 1.51819 0
M  V30 16 H 0.729 5.58782 3.83104 0
M  V30 17 H 1.672 6.56266 2.65933 0
M  V30 18 H 2.08 4.83886 2.90714 0
M  V30 19 N 1.4781 -0.272755 1.55222 0
M  V30 20 C 2.7031 -1.02683 1.80197 0
M  V30 21 C 3.1281 -1.79142 0.573551 0
M  V30 22 O 2.4861 -1.74917 -0.476849 0
M  V30 23 C 2.5341 -1.9609 3.02624 0
M  V30 24 O 1.6381 -3.04863 2.77727 0
M  V30 25 H 0.9791 -0.293557 0.595584 0
M  V30 26 H 3.5091 -0.30159 2.02365 0
M  V30 27 H 3.5191 -2.38039 3.31363 0
M  V30 28 H 2.1941 -1.39851 3.91682 0
M  V30 29 H 0.7711 -2.67228 2.60084 0
M  V30 30 N 2.9562 -1.48159 -0.537278 0
M  V30 31 C 3.8862 -1.65029 -1.6519 0
M  V30 32 C 4.8672 -0.499281 -1.62607 0
M  V30 33 O 6.0522 -0.730972 -1.79918 0
M  V30 34 C 3.1822 -1.68303 -3.03795 0
M  V30 35 C 2.1362 -2.8283 -3.21234 0
M  V30 36 C 1.4622 -2.71189 -4.60826 0
M  V30 37 C 2.7622 -4.24211 -3.04701 0
M  V30 38 H 4.4562 -2.58341 -1.51328 0
M  V30 39 H 2.0022 -1.24325 -0.726585 0
M  V30 40 H 3.9552 -1.78693 -3.81637 0
M  V30 41 H 2.6792 -0.715635 -3.18663 0
M  V30 42 H 1.3382 -2.71983 -2.45807 0
M  V30 43 H 0.9862 -1.72435 -4.7252 0
M  V30 44 H 0.6862 -3.48035 -4.7344 0
M  V30 45 H 2.2102 -2.83537 -5.40777 0
M  V30 46 H 3.6242 -4.3593 -3.72341 0
M  V30 47 H 2.0212 -5.01998 -3.28813 0
M  V30 48 H 3.0912 -4.41184 -2.01209 0
M  V30 49 N 4.4343 0.785586 -1.36625 0
M  V30 50 C 5.6803 1.5452 -1.32269 0
M  V30 51 C 6.0353 1.92159 0.0962266 0
M  V30 52 O 5.3283 1.60158 1.05167 0
M  V30 53 C 5.5223 2.83007 -2.1827 0
M  V30 54 C 5.3513 2.57925 -3.68382 0
M  V30 55 C 4.1213 2.52752 -4.37544 0
M  V30 56 C 6.3193 2.26861 -4.61561 0
M  V30 57 N 4.3013 2.19608 -5.73276 0
M  V30 58 C 5.6723 2.03738 -5.85569 0
M  V30 59 C 7.7273 2.129 -4.50087 0
M  V30 60 C 6.4303 1.68065 -6.9939 0
M  V30 61 C 8.4563 1.78626 -5.63779 0
M  V30 62 C 7.8183 1.56353 -6.86828 0
M  V30 63 H 3.9173 0.566301 -0.539283 0
M  V30 64 H 6.5013 0.917736 -1.71714 0
M  V30 65 H 4.6723 3.43614 -1.81063 0
M  V30 66 H 6.4043 3.48775 -2.05275 0
M  V30 67 H 3.1593 2.6813 -3.90389 0
M  V30 68 H 3.5833 2.05771 -6.44971 0
M  V30 69 H 8.2253 2.28808 -3.55537 0
M  V30 70 H 5.9433 1.50895 -7.93887 0
M  V30 71 H 9.5293 1.68502 -5.56865 0
M  V30 72 H 8.4093 1.30223 -7.73312 0
M  V30 73 N 5.9124 1.20967 1.01018 0
M  V30 74 C 6.8424 0.988272 2.11555 0
M  V30 75 C 7.8234 -0.0849778 1.69888 0
M  V30 76 O 9.0084 0.0738202 1.9406 0
M  V30 77 C 6.1384 0.546528 3.42973 0
M  V30 78 C 5.0924 1.56375 3.9841 0
M  V30 79 C 4.4184 0.97842 5.25672 0
M  V30 80 C 5.7184 2.94922 4.31066 0
M  V30 81 H 7.4124 1.91276 2.30334 0
M  V30 82 H 4.9584 0.921073 1.1069 0
M  V30 83 H 6.9114 0.378839 4.19694 0
M  V30 84 H 5.6354 -0.413598 3.23971 0
M  V30 85 H 4.2944 1.71891 3.23804 0
M  V30 86 H 3.9424 0.0101688 5.02999 0
M  V30 87 H 3.6424 1.65784 5.63728 0
M  V30 88 H 5.1664 0.821939 6.05043 0
M  V30 89 H 6.5804 2.8288 4.9865 0
M  V30 90 H 4.9774 3.5983 4.80253 0
M  V30 91 H 6.0474 3.4616 3.39561 0
M  V30 92 N 7.3905 -1.2043 1.01659 0
M  V30 93 C 8.6385 -1.89423 0.704522 0
M  V30 94 C 8.9595 -1.79231 -0.768197 0
M  V30 95 O 8.2295 -1.1947 -1.55254 0
M  V30 96 H 6.8095 -0.701178 0.257602 0
M  V30 97 H 9.4715 -1.4626 1.28818 0
M  V30 98 H 8.5675 -2.96052 0.987916 0
M  V30 99 N 8.8686 -0.792821 -1.36206 0
M  V30 100 C 9.8316 -0.199459 -2.2833 0
M  V30 101 C 10.8316 0.605189 -1.48977 0
M  V30 102 O 12.0216 0.425685 -1.68919 0
M  V30 103 C 9.1536 0.723523 -3.33134 0
M  V30 104 H 10.3466 -1.01181 -2.82316 0
M  V30 105 H 7.8996 -0.562485 -1.45828 0
M  V30 106 H 8.6346 1.56008 -2.84309 0
M  V30 107 H 8.4196 0.148436 -3.91819 0
M  V30 108 H 9.9096 1.13344 -4.01924 0
M  V30 109 N 10.3467 1.47872 -0.545128 0
M  V30 110 C 11.7577 1.86384 -0.108581 0
M  V30 111 C 12.1087 1.45309 1.31832 0
M  V30 112 O 11.2337 0.850641 1.9898 0
M  V30 113 C 11.8287 3.38265 -0.190274 0
M  V30 114 C 10.3877 3.75914 0.191164 0
M  V30 115 C 9.5347 2.71926 -0.543273 0
M  V30 116 H 12.4857 1.39561 -0.755537 0
M  V30 117 H 12.5067 3.75831 0.594217 0
M  V30 118 H 12.0187 3.6813 -1.2289 0
M  V30 119 H 10.1197 3.51665 1.23136 0
M  V30 120 H 10.2327 4.78836 -0.158987 0
M  V30 121 H 8.5967 2.54697 0.0122495 0
M  V30 122 H 9.3797 3.04634 -1.58282 0
M  V30 123 N 11.8248 0.280983 1.55075 0
M  V30 124 C 13.0708 -0.33461 2.00021 0
M  V30 125 C 13.4038 -1.55063 1.16915 0
M  V30 126 O 12.6788 -1.93006 0.240646 0
M  V30 127 C 12.9618 -0.711007 3.53011 0
M  V30 128 C 12.8148 0.512766 4.46868 0
M  V30 129 C 14.1338 -1.54522 4.12081 0
M  V30 130 H 11.2528 -0.120147 0.727141 0
M  V30 131 H 13.8948 0.389097 1.85973 0
M  V30 132 H 12.0448 -1.32761 3.65112 0
M  V30 133 H 13.7168 1.15131 4.46702 0
M  V30 134 H 11.9598 1.14975 4.18286 0
M  V30 135 H 12.6308 0.205556 5.51617 0
M  V30 136 H 15.1068 -1.02442 4.03293 0
M  V30 137 H 13.9828 -1.77739 5.19327 0
M  V30 138 H 14.2438 -2.52813 3.62682 0
M  V30 139 N 13.3029 -1.57598 0.00835791 0
M  V30 140 C 14.7139 -1.7892 -0.53333 0
M  V30 141 C 15.0649 -0.916609 -1.73473 0
M  V30 142 O 14.1899 -0.121336 -2.1606 0
M  V30 143 C 14.7849 -3.24488 -0.974313 0
M  V30 144 C 13.3439 -3.46878 -1.46125 0
M  V30 145 C 12.4909 -2.74157 -0.416302 0
M  V30 146 H 15.4419 -1.56958 0.234495 0
M  V30 147 H 15.4629 -3.3306 -1.83988 0
M  V30 148 H 14.9749 -3.87972 -0.099718 0
M  V30 149 H 13.0759 -2.8862 -2.35646 0
M  V30 150 H 13.1889 -4.55572 -1.48295 0
M  V30 151 H 11.5529 -2.39022 -0.87981 0
M  V30 152 H 12.3359 -3.40345 0.44947 0
M  V30 153 N 14.781 0.264519 -1.55364 0
M  V30 154 C 16.058 1.01677 -1.67096 0
M  V30 155 C 16.438 2.03996 -0.543015 0
M  V30 156 O 15.786 2.23907 0.45585 0
M  V30 157 C 15.996 1.66596 -3.0667 0
M  V30 158 C 17.344 2.17442 -3.64697 0
M  V30 159 O 18.368 1.76568 -3.09358 0
M  V30 160 O 17.227 2.92439 -4.61673 0
M  V30 161 H 14.321 0.472161 -0.678965 0
M  V30 162 H 16.867 0.259703 -1.67701 0
M  V30 163 H 15.639 0.924962 -3.80211 0
M  V30 164 H 15.262 2.48968 -3.10001 0
M  V30 165 N 16.2591 1.48442 0.529413 0
M  V30 166 C 17.5081 1.55742 1.28169 0
M  V30 167 C 17.8211 0.236511 1.94165 0
M  V30 168 O 19.0271 0.187761 2.7085 0
M  V30 169 C 17.4831 2.74667 2.32564 0
M  V30 170 C 17.0911 4.13402 1.72636 0
M  V30 171 C 18.8351 2.9128 3.08798 0
M  V30 172 C 16.7421 5.23587 2.74975 0
M  V30 173 H 15.6721 0.579796 0.48203 0
M  V30 174 H 18.3231 1.74776 0.559056 0
M  V30 175 H 16.7051 2.49067 3.07866 0
M  V30 176 H 17.8791 4.49022 1.03519 0
M  V30 177 H 16.1941 4.0191 1.08892 0
M  V30 178 H 18.7911 3.70767 3.85274 0
M  V30 179 H 19.1341 2.00757 3.64695 0
M  V30 180 H 19.6671 3.16782 2.40611 0
M  V30 181 H 16.4061 6.16076 2.23897 0
M  V30 182 H 15.9261 4.92454 3.42417 0
M  V30 183 H 17.6051 5.51724 3.37949 0
M  V30 184 N 17.7372 -0.778329 1.37039 0
M  V30 185 C 19.1482 -1.35421 1.28523 0
M  V30 186 C 19.4992 -1.96075 -0.0700901 0
M  V30 187 O 18.6242 -1.93352 -0.971801 0
M  V30 188 C 19.2192 -2.46211 2.32735 0
M  V30 189 C 17.7782 -2.99585 2.27873 0
M  V30 190 C 16.9252 -1.72748 2.16918 0
M  V30 191 H 19.8762 -0.5791 1.47757 0
M  V30 192 H 19.8972 -3.2552 1.9702 0
M  V30 193 H 19.4092 -2.02036 3.31365 0
M  V30 194 H 17.5102 -3.48152 1.32745 0
M  V30 195 H 17.6232 -3.55646 3.21018 0
M  V30 196 H 15.9872 -1.95416 1.63354 0
M  V30 197 H 16.7702 -1.30686 3.17452 0
M  V30 198 N 19.2153 -1.21501 -1.00376 0
M  V30 199 C 20.6263 -1.03146 -1.55621 0
M  V30 200 C 20.9773 0.408375 -1.91903 0
M  V30 201 O 20.1023 1.29177 -1.73616 0
M  V30 202 C 20.6973 -1.86612 -2.82775 0
M  V30 203 C 19.2563 -1.72586 -3.34501 0
M  V30 204 C 18.4033 -1.83747 -2.07683 0
M  V30 205 H 21.3543 -1.35505 -0.826081 0
M  V30 206 H 21.3753 -1.3771 -3.54706 0
M  V30 207 H 20.8873 -2.91399 -2.56336 0
M  V30 208 H 18.9883 -0.704877 -3.65872 0
M  V30 209 H 19.1013 -2.54623 -4.05837 0
M  V30 210 H 17.4653 -1.27069 -2.20739 0
M  V30 211 H 18.2483 -2.90044 -1.83655 0
M  V30 212 N 20.6934 1.19889 -1.02296 0
M  V30 213 C 21.9704 1.85148 -0.630832 0
M  V30 214 C 22.3504 1.91385 0.890782 0
M  V30 215 O 21.6984 1.42642 1.78509 0
M  V30 216 C 21.9084 3.24442 -1.28602 0
M  V30 217 C 23.2564 4.00663 -1.4055 0
M  V30 218 O 24.2804 3.33818 -1.24273 0
M  V30 219 O 23.1394 5.20387 -1.66913 0
M  V30 220 H 20.2334 0.797613 -0.218499 0
M  V30 221 H 22.7794 1.27427 -1.12074 0
M  V30 222 H 21.5514 3.14704 -2.32545 0
M  V30 223 H 21.1744 3.89802 -0.7836 0
M  V30 224 N 22.1715 0.800033 1.35784 0
M  V30 225 C 23.3965 0.388511 2.03729 0
M  V30 226 C 23.8215 -0.990481 1.5991 0
M  V30 227 O 23.1795 -1.64013 0.772612 0
M  V30 228 C 23.2275 0.4726 3.5749 0
M  V30 229 O 22.3315 -0.51646 4.09153 0
M  V30 230 H 21.6725 0.163271 0.643614 0
M  V30 231 H 24.2025 1.0841 1.73518 0
M  V30 232 H 24.2125 0.34003 4.06581 0
M  V30 233 H 22.8875 1.47848 3.88734 0
M  V30 234 H 21.4645 -0.344673 3.71304 0
M  V30 235 N 23.6496 -1.47581 0.552962 0
M  V30 236 C 24.6126 -2.28439 -0.186605 0
M  V30 237 C 25.6126 -1.36706 -0.84665 0
M  V30 238 O 26.8026 -1.59378 -0.703164 0
M  V30 239 C 23.9346 -3.16264 -1.2724 0
M  V30 240 H 25.1276 -2.95294 0.523609 0
M  V30 241 H 22.6806 -1.532 0.309745 0
M  V30 242 H 23.4156 -2.54091 -2.01514 0
M  V30 243 H 23.2006 -3.83769 -0.803968 0
M  V30 244 H 24.6906 -3.77198 -1.79196 0
M  V30 245 N 25.1277 -0.289203 -1.54924 0
M  V30 246 C 26.3737 0.323998 -2.00195 0
M  V30 247 C 26.7067 1.54441 -1.17735 0
M  V30 248 O 25.9817 1.92875 -0.250878 0
M  V30 249 C 26.2647 0.692276 -3.53383 0
M  V30 250 C 26.1177 -0.536457 -4.46589 0
M  V30 251 C 27.4367 1.52335 -4.12895 0
M  V30 252 H 24.5557 0.116289 -0.727768 0
M  V30 253 H 27.1977 -0.398954 -1.85764 0
M  V30 254 H 25.3477 1.30822 -3.65811 0
M  V30 255 H 27.0197 -1.17499 -4.46085 0
M  V30 256 H 25.2627 -1.17192 -4.1767 0
M  V30 257 H 25.9337 -0.234806 -5.515 0
M  V30 258 H 28.4097 1.00302 -4.0383 0
M  V30 259 H 27.2857 1.74982 -5.20262 0
M  V30 260 H 27.5467 2.50886 -3.64018 0
M  V30 261 N 26.6058 1.57591 -0.0167156 0
M  V30 262 C 27.5158 2.1291 0.98521 0
M  V30 263 C 28.5318 1.07834 1.36557 0
M  V30 264 O 29.7078 1.39826 1.44951 0
M  V30 265 C 26.7728 2.63512 2.25305 0
M  V30 266 C 25.8338 3.83256 1.93426 0
M  V30 267 C 25.0668 4.31435 3.14165 0
M  V30 268 O 25.2898 3.78851 4.26413 0
M  V30 269 O 24.2238 5.23416 2.97186 0
M  V30 270 H 28.0498 2.98772 0.544888 0
M  V30 271 H 25.6348 1.48012 0.203141 0
M  V30 272 H 27.5168 2.96183 2.99756 0
M  V30 273 H 26.1918 1.8074 2.68542 0
M  V30 274 H 25.0988 3.55531 1.16398 0
M  V30 275 H 26.4318 4.67153 1.55013 0
M  V30 276 N 28.0839 -0.256276 1.55502 0
M  V30 277 C 29.0139 -1.32102 1.92539 0
M  V30 278 C 29.9949 -1.50684 0.789194 0
M  V30 279 O 31.1799 -1.63449 1.04872 0
M  V30 280 C 28.3099 -2.67752 2.21192 0
M  V30 281 C 27.2639 -2.63878 3.36975 0
M  V30 282 C 26.5899 -4.03236 3.51147 0
M  V30 283 C 27.8899 -2.21682 4.72921 0
M  V30 284 H 29.5839 -1.01351 2.81724 0
M  V30 285 H 27.1299 -0.486105 1.35547 0
M  V30 286 H 29.0829 -3.42365 2.45691 0
M  V30 287 H 27.8069 -3.0012 1.28824 0
M  V30 288 H 26.4659 -1.91722 3.12471 0
M  V30 289 H 26.1139 -4.32854 2.56216 0
M  V30 290 H 25.8139 -4.01535 4.29003 0
M  V30 291 H 27.3379 -4.79563 3.77957 0
M  V30 292 H 28.7519 -2.86023 4.96854 0
M  V30 293 H 27.1489 -2.3111 5.53812 0
M  V30 294 H 28.2189 -1.16833 4.70615 0
M  V30 295 N 29.562 -1.4872 -0.521534 0
M  V30 296 C 30.808 -1.58378 -1.27624 0
M  V30 297 C 31.163 -0.258028 -1.90662 0
M  V30 298 O 30.456 0.739917 -1.76736 0
M  V30 299 C 30.65 -2.66497 -2.38148 0
M  V30 300 C 30.479 -4.09456 -1.85945 0
M  V30 301 C 29.249 -4.76495 -1.68168 0
M  V30 302 C 31.447 -4.95353 -1.3831 0
M  V30 303 N 29.429 -6.0384 -1.1068 0
M  V30 304 C 30.8 -6.13012 -0.928238 0
M  V30 305 C 32.855 -4.81512 -1.26692 0
M  V30 306 C 31.558 -7.18354 -0.368701 0
M  V30 307 C 33.584 -5.86984 -0.721368 0
M  V30 308 C 32.946 -7.03857 -0.276623 0
M  V30 309 H 29.045 -0.634045 -0.457724 0
M  V30 310 H 31.629 -1.85639 -0.587049 0
M  V30 311 H 29.8 -2.41043 -3.04553 0
M  V30 312 H 31.532 -2.65791 -3.05184 0
M  V30 313 H 28.287 -4.32962 -1.91939 0
M  V30 314 H 28.711 -6.71778 -0.839217 0
M  V30 315 H 33.353 -3.91487 -1.5968 0
M  V30 316 H 31.071 -8.08096 -0.0265122 0
M  V30 317 H 34.657 -5.78329 -0.634531 0
M  V30 318 H 33.537 -7.84077 0.138947 0
M  V30 319 N 31.0401 0.771051 -1.3745 0
M  V30 320 C 31.9871 1.88435 -1.3327 0
M  V30 321 C 32.9571 1.64914 -0.198136 0
M  V30 322 O 34.1421 1.86821 -0.387606 0
M  V30 323 C 31.2821 3.25509 -1.14622 0
M  V30 324 C 30.3951 3.60979 -2.37314 0
M  V30 325 C 29.5301 4.87265 -2.11533 0
M  V30 326 C 28.5691 5.15469 -3.30088 0
M  V30 327 N 27.7061 6.32944 -3.03853 0
M  V30 328 H 32.5461 1.91344 -2.28455 0
M  V30 329 H 30.0831 0.935466 -1.13523 0
M  V30 330 H 32.0411 4.04582 -1.01831 0
M  V30 331 H 30.6711 3.21974 -0.230837 0
M  V30 332 H 29.7231 2.76885 -2.60842 0
M  V30 333 H 31.0351 3.77759 -3.25729 0
M  V30 334 H 30.1891 5.74244 -1.95777 0
M  V30 335 H 28.9281 4.7259 -1.20457 0
M  V30 336 H 27.9331 4.26966 -3.46382 0
M  V30 337 H 29.1581 5.32052 -4.22016 0
M  V30 338 H 27.1041 6.19625 -2.15407 0
M  V30 339 H 27.0211 6.50143 -3.85812 0
M  V30 340 H 28.2891 7.22857 -2.91716 0
M  V30 341 N 32.5182 1.22032 0.997298 0
M  V30 342 C 33.9292 1.0397 1.55071 0
M  V30 343 C 34.2802 -0.398192 1.92117 0
M  V30 344 O 33.4052 -1.28254 1.74298 0
M  V30 345 C 34.0002 1.88109 2.81781 0
M  V30 346 C 32.5592 1.74357 3.33581 0
M  V30 347 C 31.7062 1.84846 2.06706 0
M  V30 348 H 34.6572 1.35941 0.818883 0
M  V30 349 H 34.6782 1.39589 3.53971 0
M  V30 350 H 34.1902 2.92754 2.54787 0
M  V30 351 H 32.2912 0.72427 3.65493 0
M  V30 352 H 32.4042 2.56772 4.04481 0
M  V30 353 H 30.7682 1.28238 2.20062 0
M  V30 354 H 31.5512 2.91014 1.82114 0
M  V30 355 N 33.9963 -1.19345 1.0293 0
M  V30 356 C 35.2443 -1.88665 0.724574 0
M  V30 357 C 35.5653 -1.80036 -0.749144 0
M  V30 358 O 34.8353 -1.2111 -1.53978 0
M  V30 359 H 33.4153 -0.698406 0.265025 0
M  V30 360 H 36.0773 -1.44885 1.30362 0
M  V30 361 H 35.1733 -2.94987 1.01926 0
M  V30 362 N 35.4744 -0.807222 -1.35358 0
M  V30 363 C 36.4374 -0.223665 -2.28106 0
M  V30 364 C 37.4374 0.589354 -1.4961 0
M  V30 365 O 38.6274 0.407745 -1.69361 0
M  V30 366 C 35.7594 0.688149 -3.33882 0
M  V30 367 H 36.9524 -1.04169 -2.81227 0
M  V30 368 H 34.5054 -0.577921 -1.45223 0
M  V30 369 H 35.2404 1.52984 -2.85948 0
M  V30 370 H 35.0254 0.10687 -3.91954 0
M  V30 371 H 36.5154 1.09075 -4.03104 0
M  V30 372 N 36.9525 1.47285 -0.560781 0
M  V30 373 C 37.8845 2.28118 0.222438 0
M  V30 374 C 38.8975 1.37219 0.876056 0
M  V30 375 O 40.0865 1.62011 0.749307 0
M  V30 376 C 37.1865 3.1159 1.33285 0
M  V30 377 C 36.3595 4.30473 0.77534 0
M  V30 378 C 35.4185 4.95513 1.77069 0
M  V30 379 O 34.4445 5.53792 1.31539 0
M  V30 380 N 35.6465 4.90531 3.10418 0
M  V30 381 H 38.4115 2.95976 -0.470958 0
M  V30 382 H 35.9725 1.56955 -0.39709 0
M  V30 383 H 37.9645 3.51967 1.99752 0
M  V30 384 H 36.5345 2.45951 1.92943 0
M  V30 385 H 35.7545 3.94144 -0.0662113 0
M  V30 386 H 37.0425 5.07362 0.382272 0
M  V30 387 H 36.4405 4.44389 3.5005 0
M  V30 388 H 34.9975 5.34917 3.72434 0
M  V30 389 N 38.4306 0.297415 1.54768 0
M  V30 390 C 39.7076 -0.365847 1.92148 0
M  V30 391 C 40.0876 -1.71975 1.22424 0
M  V30 392 O 39.4356 -2.25666 0.358739 0
M  V30 393 C 39.6456 -0.484056 3.45627 0
M  V30 394 C 40.9936 -0.756594 4.17805 0
M  V30 395 O 42.0176 -0.568007 3.51642 0
M  V30 396 O 40.8766 -1.11863 5.34929 0
M  V30 397 H 37.9706 -0.203919 0.801465 0
M  V30 398 H 40.5166 0.34521 1.66152 0
M  V30 399 H 39.2886 0.467865 3.88493 0
M  V30 400 H 38.9116 -1.24372 3.77647 0
M  V30 401 N 39.9087 -1.5758 0.0250728 0
M  V30 402 C 40.8717 -2.08896 -0.943139 0
M  V30 403 C 41.8717 -1.00321 -1.25668 0
M  V30 404 O 43.0617 -1.26495 -1.19769 0
M  V30 405 C 40.1937 -2.55143 -2.26086 0
M  V30 406 H 41.3867 -2.95723 -0.498775 0
M  V30 407 H 38.9397 -1.54703 -0.222888 0
M  V30 408 H 39.6747 -1.71633 -2.75159 0
M  V30 409 H 39.4597 -3.34461 -2.04641 0
M  V30 410 H 40.9497 -2.95083 -2.95492 0
M  V30 411 N 41.3868 0.248026 -1.55636 0
M  V30 412 C 42.6118 0.998028 -1.81808 0
M  V30 413 C 43.0368 1.78207 -0.601979 0
M  V30 414 O 42.3948 1.75653 0.448961 0
M  V30 415 C 42.4428 1.9125 -3.05705 0
M  V30 416 O 41.5468 3.00406 -2.82542 0
M  V30 417 H 40.8878 0.284045 -0.600179 0
M  V30 418 H 43.4178 0.269357 -2.02819 0
M  V30 419 H 43.4278 2.32737 -3.35108 0
M  V30 420 H 42.1028 1.33602 -3.93857 0
M  V30 421 H 40.6798 2.63056 -2.64303 0
M  V30 422 N 42.8649 1.48995 0.513639 0
M  V30 423 C 44.0899 1.61792 1.29762 0
M  V30 424 C 44.5149 0.284475 1.85936 0
M  V30 425 O 43.8729 -0.746185 1.65232 0
M  V30 426 C 43.9209 2.67993 2.41272 0
M  V30 427 O 43.0249 2.26287 3.44772 0
M  V30 428 H 42.3659 0.541963 0.38363 0
M  V30 429 H 44.8959 1.95097 0.616307 0
M  V30 430 H 44.9059 2.89772 2.87221 0
M  V30 431 H 43.5809 3.64791 1.9975 0
M  V30 432 H 42.1579 2.14788 3.04829 0
M  V30 433 N 44.343 -0.763751 1.37857 0
M  V30 434 C 45.275 -1.88664 1.30148 0
M  V30 435 C 46.288 -1.61365 0.215685 0
M  V30 436 O 47.477 -1.72134 0.472459 0
M  V30 437 C 44.577 -3.24075 0.991396 0
M  V30 438 C 43.75 -3.78958 2.18426 0
M  V30 439 C 42.809 -4.92862 1.8432 0
M  V30 440 O 41.835 -5.08027 2.56704 0
M  V30 441 N 43.037 -5.75071 0.792081 0
M  V30 442 H 45.802 -1.95791 2.26905 0
M  V30 443 H 43.363 -0.943226 1.31586 0
M  V30 444 H 45.355 -3.97804 0.743935 0
M  V30 445 H 43.925 -3.12399 0.112122 0
M  V30 446 H 43.145 -2.96913 2.59299 0
M  V30 447 H 44.433 -4.12357 2.98058 0
M  V30 448 H 43.831 -5.65375 0.191595 0
M  V30 449 H 42.388 -6.48991 0.60449 0
M  V30 450 N 45.8211 -1.22559 -0.990812 0
M  V30 451 C 46.7841 -0.998863 -2.0629 0
M  V30 452 C 47.7841 0.0354834 -1.60761 0
M  V30 453 O 48.9741 -0.203231 -1.7301 0
M  V30 454 C 46.1061 -0.509203 -3.37076 0
M  V30 455 H 47.2991 -1.95014 -2.27837 0
M  V30 456 H 44.8521 -1.04456 -1.16269 0
M  V30 457 H 45.5871 0.446335 -3.21214 0
M  V30 458 H 45.3721 -1.25547 -3.71457 0
M  V30 459 H 46.8621 -0.370888 -4.1595 0
M  V30 460 N 47.2992 1.18797 -1.03562 0
M  V30 461 C 48.2312 2.21731 -0.580337 0
M  V30 462 C 49.2442 1.59051 0.347349 0
M  V30 463 O 50.4332 1.77929 0.142669 0
M  V30 464 C 47.5332 3.38459 0.172805 0
M  V30 465 C 46.7062 4.3072 -0.761496 0
M  V30 466 C 45.7652 5.26174 -0.0525547 0
M  V30 467 O 44.7912 5.65108 -0.681333 0
M  V30 468 N 45.9932 5.67624 1.21586 0
M  V30 469 H 48.7582 2.61417 -1.46565 0
M  V30 470 H 46.3192 1.33531 -0.915476 0
M  V30 471 H 48.3112 3.99335 0.656793 0
M  V30 472 H 46.8812 2.97507 0.959602 0
M  V30 473 H 46.1012 3.67525 -1.42544 0
M  V30 474 H 47.3892 4.89267 -1.39626 0
M  V30 475 H 46.7872 5.38038 1.74732 0
M  V30 476 H 45.3442 6.30721 1.64421 0
M  V30 477 N 48.7773 0.814389 1.34928 0
M  V30 478 C 50.0253 0.397636 1.9815 0
M  V30 479 C 50.3463 -1.04069 1.64908 0
M  V30 480 O 49.6163 -1.72121 0.93548 0
M  V30 481 H 48.1963 0.144043 0.732981 0
M  V30 482 H 50.8583 1.04195 1.6471 0
M  V30 483 H 49.9543 0.509688 3.0791 0
M  V30 484 N 50.2554 -1.46986 0.568584 0
M  V30 485 C 51.5034 -2.02041 0.0487022 0
M  V30 486 C 51.8244 -1.44408 -1.31039 0
M  V30 487 O 51.0944 -0.623477 -1.85714 0
M  V30 488 H 49.6744 -0.746849 0.015014 0
M  V30 489 H 52.3364 -1.80257 0.741168 0
M  V30 490 H 51.4324 -3.12085 -0.0308961 0
M  V30 491 N 51.7335 -0.305618 -1.54608 0
M  V30 492 C 52.9585 0.307562 -2.05107 0
M  V30 493 C 53.3835 1.46385 -1.18123 0
M  V30 494 O 52.7415 1.8034 -0.186324 0
M  V30 495 C 52.7895 0.73704 -3.52987 0
M  V30 496 O 51.8935 1.84134 -3.6901 0
M  V30 497 H 51.2345 0.0589143 -0.661381 0
M  V30 498 H 53.7645 -0.448807 -1.99617 0
M  V30 499 H 53.7745 1.02459 -3.94925 0
M  V30 500 H 52.4495 -0.108773 -4.15758 0
M  V30 501 H 51.0265 1.55398 -3.38978 0
M  V30 502 N 53.2116 1.57565 -0.0334293 0
M  V30 503 C 54.4366 1.96689 0.657895 0
M  V30 504 C 54.8616 0.910057 1.64619 0
M  V30 505 O 54.2196 -0.128598 1.80843 0
M  V30 506 C 54.2676 3.34905 1.33683 0
M  V30 507 O 53.3716 3.31574 2.45219 0
M  V30 508 H 52.7126 0.641205 0.172489 0
M  V30 509 H 55.2426 2.04372 -0.0965621 0
M  V30 510 H 55.2526 3.71234 1.69262 0
M  V30 511 H 53.9276 4.11366 0.612411 0
M  V30 512 H 52.5046 3.06968 2.11719 0
M  V30 513 N 54.6897 -0.239769 1.55765 0
M  V30 514 C 55.9297 -0.974076 1.79697 0
M  V30 515 C 56.2937 -1.82249 0.604088 0
M  V30 516 O 57.4947 -2.58913 0.722324 0
M  V30 517 C 55.7657 -1.80595 3.08416 0
M  V30 518 S 57.3247 -2.59838 3.53596 0
M  V30 519 H 54.1427 -0.327524 0.63107 0
M  V30 520 H 56.7447 -0.241277 1.94005 0
M  V30 521 H 55.4487 -1.17249 3.93295 0
M  V30 522 H 54.9797 -2.58137 2.96865 0
M  V30 523 H 56.9947 -3.82987 3.15492 0
M  V30 524 N 56.1678 -1.49265 -0.50573 0
M  V30 525 C 57.4168 -1.57761 -1.25675 0
M  V30 526 C 57.7298 -0.267371 -1.93764 0
M  V30 527 O 58.9358 -0.230827 -2.70517 0
M  V30 528 C 57.3918 -2.78332 -2.28165 0
M  V30 529 C 56.9998 -4.16096 -1.66037 0
M  V30 530 C 58.7438 -2.96155 -3.04125 0
M  V30 531 C 56.6508 -5.27895 -2.6661 0
M  V30 532 H 55.5808 -0.587391 -0.472745 0
M  V30 533 H 58.2318 -1.75644 -0.53118 0
M  V30 534 H 56.6138 -2.53934 -3.03865 0
M  V30 535 H 57.7878 -4.50612 -0.963622 0
M  V30 536 H 56.1028 -4.03591 -1.02484 0
M  V30 537 H 58.6998 -3.76849 -3.79327 0
M  V30 538 H 59.0428 -2.06534 -3.61455 0
M  V30 539 H 59.5758 -3.2057 -2.35541 0
M  V30 540 H 56.3148 -6.1956 -2.14068 0
M  V30 541 H 55.8348 -4.97839 -3.34539 0
M  V30 542 H 57.5138 -5.57031 -3.29129 0
M  V30 543 N 57.6459 0.756429 -1.3826 0
M  V30 544 C 58.5759 1.88374 -1.37976 0
M  V30 545 C 59.5569 1.68311 -0.246082 0
M  V30 546 O 60.7419 1.88944 -0.44874 0
M  V30 547 C 57.8719 3.25864 -1.20125 0
M  V30 548 C 56.8259 3.60523 -2.30666 0
M  V30 549 C 56.1519 4.9672 -1.97923 0
M  V30 550 C 57.4519 3.65692 -3.72916 0
M  V30 551 H 59.1459 1.88869 -2.32312 0
M  V30 552 H 56.6919 0.907272 -1.11824 0
M  V30 553 H 58.6449 4.0438 -1.18552 0
M  V30 554 H 57.3689 3.25841 -0.222498 0
M  V30 555 H 56.0279 2.84324 -2.3142 0
M  V30 556 H 55.6759 4.93253 -0.985393 0
M  V30 557 H 55.3759 5.20878 -2.71955 0
M  V30 558 H 56.8999 5.77618 -1.97964 0
M  V30 559 H 58.3139 4.34328 -3.74208 0
M  V30 560 H 56.7109 4.01358 -4.4613 0
M  V30 561 H 57.7809 2.65987 -4.05436 0
M  V30 562 N 59.124 1.23083 0.984299 0
M  V30 563 C 60.54 0.992637 1.24975 0
M  V30 564 C 60.74 -0.308618 1.99123 0
M  V30 565 O 59.796 -1.02905 2.30579 0
M  V30 566 C 61.109 2.19698 2.05312 0
M  V30 567 C 62.657 2.24147 2.18465 0
M  V30 568 C 63.132 3.44157 3.02192 0
M  V30 569 N 64.623 3.44372 3.09777 0
M  V30 570 C 65.358 4.33886 3.74874 0
M  V30 571 N 64.854 5.3363 4.41827 0
M  V30 572 N 66.647 4.21639 3.71721 0
M  V30 573 H 58.798 2.06731 0.487453 0
M  V30 574 H 61.061 0.906339 0.277944 0
M  V30 575 H 60.767 3.1411 1.58201 0
M  V30 576 H 60.641 2.20465 3.06064 0
M  V30 577 H 63.028 1.30277 2.64786 0
M  V30 578 H 63.109 2.27415 1.17115 0
M  V30 579 H 62.753 4.38332 2.56568 0
M  V30 580 H 62.683 3.3813 4.03702 0
M  V30 581 H 65.174 2.72201 2.62135 0
M  V30 582 H 65.487 5.98196 4.89266 0
M  V30 583 H 63.832 5.37534 4.40548 0
M  V30 584 H 67.023 3.42962 3.18582 0
M  V30 585 H 67.196 4.91604 4.22173 0
M  V30 586 N 60.6021 -1.18246 1.0419 0
M  V30 587 C 61.5121 -2.25574 0.644476 0
M  V30 588 C 62.5281 -1.70845 -0.329826 0
M  V30 589 O 63.7041 -2.00554 -0.184443 0
M  V30 590 C 60.7691 -3.46697 0.014877 0
M  V30 591 C 59.8301 -4.16554 1.03834 0
M  V30 592 C 59.0631 -5.31894 0.438692 0
M  V30 593 O 59.2861 -5.65385 -0.754752 0
M  V30 594 O 58.2201 -5.90459 1.168 0
M  V30 595 H 62.0461 -2.61836 1.53869 0
M  V30 596 H 59.6311 -1.25352 0.812854 0
M  V30 597 H 61.5131 -4.20062 -0.335538 0
M  V30 598 H 60.1881 -3.12255 -0.853138 0
M  V30 599 H 59.0951 -3.45251 1.44057 0
M  V30 600 H 60.4281 -4.54998 1.87716 0
M  V30 601 N 62.0802 -0.821533 -1.34494 0
M  V30 602 C 62.9902 -0.244355 -2.33324 0
M  V30 603 C 64.0062 0.620527 -1.62559 0
M  V30 604 O 65.1822 0.528754 -1.94335 0
M  V30 605 C 62.2472 0.585368 -3.41723 0
M  V30 606 C 61.3082 -0.301752 -4.28238 0
M  V30 607 C 60.5412 0.488466 -5.3146 0
M  V30 608 O 60.7642 1.72186 -5.4379 0
M  V30 609 O 59.6982 -0.12848 -6.01763 0
M  V30 610 H 63.5242 -1.06231 -2.84515 0
M  V30 611 H 61.1092 -0.583645 -1.37528 0
M  V30 612 H 62.9912 1.05747 -4.07916 0
M  V30 613 H 61.6662 1.38068 -2.92778 0
M  V30 614 H 60.5732 -0.821315 -3.64973 0
M  V30 615 H 61.9062 -1.06138 -4.8062 0
M  V30 616 N 63.5583 1.46682 -0.576371 0
M  V30 617 C 64.5213 2.28707 0.150239 0
M  V30 618 C 65.5213 1.38035 0.824794 0
M  V30 619 O 66.7113 1.60476 0.677719 0
M  V30 620 C 63.8433 3.18248 1.22192 0
M  V30 621 H 65.0363 2.94423 -0.570521 0
M  V30 622 H 62.5893 1.52688 -0.334078 0
M  V30 623 H 63.3243 2.57265 1.97447 0
M  V30 624 H 63.1093 3.85 0.742812 0
M  V30 625 H 64.5993 3.80001 1.73172 0
M  V30 626 N 65.0364 0.313813 1.54444 0
M  V30 627 C 66.4524 -0.0391619 1.59552 0
M  V30 628 C 66.6524 -1.51322 1.33056 0
M  V30 629 O 65.7084 -2.26782 1.11022 0
M  V30 630 C 67.0214 0.370302 2.98411 0
M  V30 631 C 68.5694 0.320139 3.11358 0
M  V30 632 C 69.0444 0.704617 4.52547 0
M  V30 633 N 70.5354 0.657645 4.58508 0
M  V30 634 C 71.2704 0.927453 5.6585 0
M  V30 635 N 70.7664 1.26389 6.81174 0
M  V30 636 N 72.5594 0.853662 5.5558 0
M  V30 637 H 64.7104 1.27433 1.69925 0
M  V30 638 H 66.9734 0.517511 0.794284 0
M  V30 639 H 66.6794 1.39694 3.22767 0
M  V30 640 H 66.5534 -0.269619 3.76235 0
M  V30 641 H 68.9404 -0.697275 2.86744 0
M  V30 642 H 69.0214 0.99486 2.35661 0
M  V30 643 H 68.6654 1.7199 4.77893 0
M  V30 644 H 68.5954 0.00768843 5.26599 0
M  V30 645 H 71.0864 0.409067 3.75679 0
M  V30 646 H 71.3994 1.4554 7.58972 0
M  V30 647 H 69.7444 1.30206 6.82694 0
M  V30 648 H 72.9354 0.590383 4.64362 0
M  V30 649 H 73.1084 1.0673 6.3915 0
M  V30 650 N 66.5145 -1.57545 0.0417849 0
M  V30 651 C 67.4475 -2.06514 -0.970928 0
M  V30 652 C 68.4255 -0.963607 -1.30971 0
M  V30 653 O 69.6095 -1.23486 -1.4242 0
M  V30 654 C 66.7365 -2.4978 -2.28752 0
M  V30 655 C 65.7825 -3.71078 -2.10246 0
M  V30 656 S 66.6155 -5.17158 -1.38952 0
M  V30 657 C 67.7715 -5.6373 -2.71954 0
M  V30 658 H 68.0045 -2.9209 -0.554129 0
M  V30 659 H 65.5375 -1.53459 -0.17024 0
M  V30 660 H 67.4955 -2.75371 -3.04435 0
M  V30 661 H 66.1565 -1.64527 -2.67562 0
M  V30 662 H 65.3495 -3.9924 -3.07609 0
M  V30 663 H 64.9515 -3.45705 -1.42704 0
M  V30 664 H 67.2435 -5.68743 -3.68154 0
M  V30 665 H 68.1865 -6.63086 -2.4844 0
M  V30 666 H 68.5945 -4.91424 -2.77782 0
M  V30 667 N 67.9926 0.231505 -1.5589 0
M  V30 668 C 69.4036 0.799327 -1.68724 0
M  V30 669 C 69.7546 1.85398 -0.642022 0
M  V30 670 O 68.8796 2.1539 0.208784 0
M  V30 671 C 69.4746 1.45664 -3.05888 0
M  V30 672 C 68.0336 1.97197 -3.20609 0
M  V30 673 C 67.1806 0.828552 -2.64632 0
M  V30 674 H 70.1316 0.00702616 -1.58698 0
M  V30 675 H 70.1526 2.32517 -3.01191 0
M  V30 676 H 69.6646 0.688808 -3.81939 0
M  V30 677 H 67.7656 2.76813 -2.4941 0
M  V30 678 H 67.8786 2.15878 -4.27707 0
M  V30 679 H 66.2426 1.23321 -2.22854 0
M  V30 680 H 67.0256 0.0735544 -3.43221 0
M  V30 681 N 69.4707 1.49531 0.497807 0
M  V30 682 C 70.4207 1.62829 1.59596 0
M  V30 683 C 71.4047 0.483824 1.53453 0
M  V30 684 O 72.5967 0.736937 1.60929 0
M  V30 685 C 69.7257 1.7011 2.98191 0
M  V30 686 C 68.8117 2.90144 3.09317 0
M  V30 687 N 69.2027 4.1418 2.90324 0
M  V30 688 C 67.5007 2.88148 3.40422 0
M  V30 689 C 68.2017 4.94886 3.05717 0
M  V30 690 N 67.1777 4.28314 3.34736 0
M  V30 691 H 70.9797 2.56446 1.4357 0
M  V30 692 H 68.4937 1.46347 0.704001 0
M  V30 693 H 70.4907 1.77735 3.77115 0
M  V30 694 H 69.1507 0.776315 3.15283 0
M  V30 695 H 70.1617 4.44109 2.66436 0
M  V30 696 H 66.8387 2.05061 3.63671 0
M  V30 697 H 68.2287 6.03432 2.95499 0
M  V30 698 N 70.9488 -0.749086 1.3866 0
M  V30 699 C 72.1738 -1.54344 1.38538 0
M  V30 700 C 72.5988 -1.88088 -0.0216655 0
M  V30 701 O 71.9568 -1.50899 -1.00494 0
M  V30 702 C 72.0048 -2.8164 2.25192 0
M  V30 703 O 71.1088 -3.7698 1.67212 0
M  V30 704 H 70.4498 -0.466654 0.472367 0
M  V30 705 H 72.9798 -0.925355 1.82478 0
M  V30 706 H 72.9898 -3.30519 2.3921 0
M  V30 707 H 71.6648 -2.56411 3.27454 0
M  V30 708 H 70.2418 -3.35699 1.6236 0
M  V30 709 N 72.4269 -1.23603 -0.977757 0
M  V30 710 C 73.3899 -1.02069 -2.05218 0
M  V30 711 C 74.3899 0.0184305 -1.60789 0
M  V30 712 O 75.5799 -0.221569 -1.72785 0
M  V30 713 C 72.7119 -0.544926 -3.36517 0
M  V30 714 H 73.9049 -1.9742 -2.25755 0
M  V30 715 H 71.4579 -1.05684 -1.15155 0
M  V30 716 H 72.1929 0.412241 -3.21669 0
M  V30 717 H 71.9779 -1.2948 -3.70105 0
M  V30 718 H 73.4679 -0.414985 -4.15533 0
M  V30 719 N 73.905 1.17692 -1.04816 0
M  V30 720 C 75.153 1.87488 -0.754497 0
M  V30 721 C 75.474 1.81205 0.720407 0
M  V30 722 O 74.744 1.23544 1.52032 0
M  V30 723 H 73.324 0.694101 -0.276102 0
M  V30 724 H 75.986 1.42793 -1.32651 0
M  V30 725 H 75.082 2.93328 -1.06606 0
M  V30 726 N 75.3831 0.828654 1.34056 0
M  V30 727 C 76.6311 0.41863 1.97717 0
M  V30 728 C 76.9521 -1.02314 1.66002 0
M  V30 729 O 76.2221 -1.71119 0.953683 0
M  V30 730 H 74.8021 0.151809 0.731412 0
M  V30 731 H 77.4641 1.05936 1.63596 0
M  V30 732 H 76.5601 0.542318 3.07352 0
M  V30 733 N 76.8612 -1.46375 0.584142 0
M  V30 734 C 78.0892 -2.06761 0.0759296 0
M  V30 735 C 78.5042 -1.43266 -1.22965 0
M  V30 736 O 77.8612 -0.538458 -1.74376 0
M  V30 737 C 77.9122 -3.61375 -0.0950384 0
M  V30 738 O 77.6332 -4.22495 1.15887 0
M  V30 739 C 79.1342 -4.38693 -0.637434 0
M  V30 740 H 76.3542 -0.668479 0.0581075 0
M  V30 741 H 78.8982 -1.8798 0.805218 0
M  V30 742 H 77.0532 -3.79578 -0.774554 0
M  V30 743 H 77.4672 -5.15385 0.973598 0
M  V30 744 H 78.9412 -5.47464 -0.706237 0
M  V30 745 H 79.4182 -4.06836 -1.65472 0
M  V30 746 H 80.0242 -4.25299 0.00725967 0
M  V30 747 N 78.3393 -0.321999 -1.54275 0
M  V30 748 C 79.3023 0.531975 -2.22941 0
M  V30 749 C 80.3023 1.04478 -1.22234 0
M  V30 750 O 81.4923 0.937452 -1.46825 0
M  V30 751 C 78.6243 1.73874 -2.93224 0
M  V30 752 H 79.8173 -0.0682612 -2.99822 0
M  V30 753 H 77.3703 -0.0730644 -1.56129 0
M  V30 754 H 78.1053 2.37825 -2.20476 0
M  V30 755 H 77.8903 1.37847 -3.6707 0
M  V30 756 H 79.3803 2.34496 -3.45545 0
M  V30 757 N 79.8174 1.5752 -0.0501392 0
M  V30 758 C 81.0654 1.9227 0.622642 0
M  V30 759 C 81.3864 0.929083 1.71444 0
M  V30 760 O 80.6564 -0.0262186 1.95882 0
M  V30 761 H 79.2364 0.709739 0.232981 0
M  V30 762 H 81.8984 1.94628 -0.102898 0
M  V30 763 H 80.9944 2.93479 1.06191 0
M  V30 764 N 81.2955 -0.223234 1.56011 0
M  V30 765 C 82.5415 -0.949279 1.79211 0
M  V30 766 C 82.8745 -1.84054 0.619494 0
M  V30 767 O 82.1495 -1.90726 -0.381317 0
M  V30 768 C 82.4325 -1.78965 3.12479 0
M  V30 769 C 82.2855 -0.924997 4.40186 0
M  V30 770 C 83.6045 -2.76774 3.42175 0
M  V30 771 H 80.7235 -0.343676 0.651963 0
M  V30 772 H 83.3655 -0.218253 1.88742 0
M  V30 773 H 81.5155 -2.41291 3.04485 0
M  V30 774 H 83.1875 -0.318615 4.60198 0
M  V30 775 H 81.4305 -0.230344 4.33188 0
M  V30 776 H 82.1015 -1.54735 5.29869 0
M  V30 777 H 84.5775 -2.24584 3.50287 0
M  V30 778 H 83.4535 -3.32678 4.36597 0
M  V30 779 H 83.7145 -3.54429 2.64258 0
M  V30 780 N 82.7736 -1.49793 -0.48987 0
M  V30 781 C 84.0216 -1.59525 -1.24081 0
M  V30 782 C 84.3426 -0.288953 -1.92847 0
M  V30 783 O 83.6126 0.692436 -1.83254 0
M  V30 784 H 82.1926 -0.587796 -0.460983 0
M  V30 785 H 84.8546 -1.86477 -0.566778 0
M  V30 786 H 83.9506 -2.39696 -1.99881 0
M  V30 787 N 84.2517 0.741722 -1.39055 0
M  V30 788 C 85.1817 1.869 -1.39966 0
M  V30 789 C 86.1627 1.6804 -0.26392 0
M  V30 790 O 87.3477 1.88458 -0.468755 0
M  V30 791 C 84.4777 3.24572 -1.23574 0
M  V30 792 C 83.4317 3.58056 -2.34477 0
M  V30 793 C 82.7577 4.94593 -2.0318 0
M  V30 794 C 84.0577 3.61716 -3.76774 0
M  V30 795 H 85.7517 1.86395 -2.34302 0
M  V30 796 H 83.2977 0.895361 -1.1278 0
M  V30 797 H 85.2507 4.031 -1.22834 0
M  V30 798 H 83.9747 3.25587 -0.257045 0
M  V30 799 H 82.6337 2.81854 -2.34423 0
M  V30 800 H 82.2817 4.92181 -1.03765 0
M  V30 801 H 81.9817 5.17964 -2.77465 0
M  V30 802 H 83.5057 5.75486 -2.04079 0
M  V30 803 H 84.9197 4.30335 -3.78794 0
M  V30 804 H 83.3167 3.96603 -4.50362 0
M  V30 805 H 84.3867 2.61672 -4.08235 0
M  V30 806 N 85.7298 1.2412 0.971189 0
M  V30 807 C 86.6398 1.04747 2.09917 0
M  V30 808 C 87.6558 -0.0107162 1.73997 0
M  V30 809 O 88.8318 0.186714 2.00533 0
M  V30 810 C 85.8968 0.650828 3.40537 0
M  V30 811 C 84.9578 1.7851 3.90426 0
M  V30 812 C 84.1908 1.40729 5.14812 0
M  V30 813 O 84.4138 0.29557 5.69634 0
M  V30 814 O 83.3478 2.23168 5.58999 0
M  V30 815 H 87.1738 1.99304 2.29154 0
M  V30 816 H 84.7588 1.02908 1.08307 0
M  V30 817 H 86.6408 0.440992 4.19086 0
M  V30 818 H 85.3158 -0.265649 3.22608 0
M  V30 819 H 84.2228 2.04966 3.12953 0
M  V30 820 H 85.5558 2.68023 4.12825 0
M  V30 821 N 87.2079 -1.17134 1.05439 0
M  V30 822 C 88.1709 -2.19439 0.661764 0
M  V30 823 C 89.1709 -1.58199 -0.288042 0
M  V30 824 O 90.3609 -1.74053 -0.0715803 0
M  V30 825 C 87.4929 -3.40889 -0.0276209 0
M  V30 826 H 88.6859 -2.55688 1.56728 0
M  V30 827 H 86.2389 -1.31259 0.848567 0
M  V30 828 H 86.9739 -3.10187 -0.94629 0
M  V30 829 H 86.7589 -3.86586 0.655238 0
M  V30 830 H 88.2489 -4.16603 -0.288342 0
M  V30 831 N 88.686 -0.835752 -1.33615 0
M  V30 832 C 89.649 -0.272 -2.2758 0
M  V30 833 C 90.649 0.557487 -1.50827 0
M  V30 834 O 91.839 0.37173 -1.70188 0
M  V30 835 C 88.971 0.617173 -3.35267 0
M  V30 836 H 90.164 -1.10111 -2.78954 0
M  V30 837 H 87.717 -0.608594 -1.43965 0
M  V30 838 H 88.452 1.46884 -2.89129 0
M  V30 839 H 88.237 0.0237066 -3.92093 0
M  V30 840 H 89.727 1.005 -4.05326 0
M  V30 841 N 90.1641 1.46063 -0.591896 0
M  V30 842 C 91.0741 2.34192 0.13831 0
M  V30 843 C 92.0901 1.50305 0.876608 0
M  V30 844 O 93.2661 1.8315 0.837728 0
M  V30 845 C 90.3311 3.27656 1.13326 0
M  V30 846 C 89.3921 4.27445 0.39863 0
M  V30 847 C 88.6251 5.16443 1.34618 0
M  V30 848 O 88.8481 5.08553 2.58321 0
M  V30 849 O 87.7821 5.95843 0.851768 0
M  V30 850 H 91.6081 2.98002 -0.58552 0
M  V30 851 H 89.1931 1.45188 -0.352239 0
M  V30 852 H 91.0751 3.85291 1.70671 0
M  V30 853 H 89.7501 2.6643 1.83839 0
M  V30 854 H 88.6571 3.73471 -0.216895 0
M  V30 855 H 89.9901 4.91482 -0.265709 0
M  V30 856 N 91.6422 0.330177 1.54103 0
M  V30 857 C 93.0532 -0.15652 1.86043 0
M  V30 858 C 93.4042 -1.51086 1.2517 0
M  V30 859 O 92.5292 -2.09023 0.560217 0
M  V30 860 C 93.1242 -0.290784 3.3755 0
M  V30 861 C 91.6832 -0.721705 3.69416 0
M  V30 862 C 90.8302 0.152622 2.7688 0
M  V30 863 H 93.7812 0.550237 1.48856 0
M  V30 864 H 93.8022 -1.12058 3.63625 0
M  V30 865 H 93.3142 0.695068 3.81825 0
M  V30 866 H 91.4152 -1.71706 3.30678 0
M  V30 867 H 91.5282 -0.520869 4.7626 0
M  V30 868 H 89.8922 -0.372894 2.51956 0
M  V30 869 H 90.6752 1.13536 3.23982 0
M  V30 870 N 93.1203 -1.57491 0.0584922 0
M  V30 871 C 94.3483 -1.97296 -0.623037 0
M  V30 872 C 94.7633 -0.936338 -1.63946 0
M  V30 873 O 94.1203 0.0785981 -1.82331 0
M  V30 874 C 94.1713 -3.37183 -1.30345 0
M  V30 875 O 93.8923 -4.36872 -0.32773 0
M  V30 876 C 95.3933 -3.91788 -2.07406 0
M  V30 877 H 92.6133 -0.649153 -0.169826 0
M  V30 878 H 95.1573 -2.04106 0.12696 0
M  V30 879 H 93.3123 -3.31502 -2.00463 0
M  V30 880 H 93.7263 -5.18141 -0.814269 0
M  V30 881 H 95.2003 -4.91926 -2.50425 0
M  V30 882 H 95.6773 -3.27609 -2.92521 0
M  V30 883 H 96.2833 -4.00829 -1.42184 0
M  V30 884 N 94.5984 0.214957 -1.56127 0
M  V30 885 C 95.5614 1.24997 -1.92116 0
M  V30 886 C 96.5614 1.39467 -0.800344 0
M  V30 887 O 97.7514 1.37619 -1.06802 0
M  V30 888 C 94.8834 2.62271 -2.17777 0
M  V30 889 H 96.0764 0.942875 -2.84693 0
M  V30 890 H 93.6294 0.455654 -1.49511 0
M  V30 891 H 94.3644 2.98068 -1.27773 0
M  V30 892 H 94.1494 2.53143 -2.99434 0
M  V30 893 H 95.6394 3.36946 -2.46693 0
M  V30 894 N 96.0765 1.50051 0.48192 0
M  V30 895 C 97.0065 1.71046 1.58951 0
M  V30 896 C 97.9875 0.559288 1.60642 0
M  V30 897 O 99.1725 0.797243 1.77081 0
M  V30 898 C 96.3025 1.79462 2.97339 0
M  V30 899 C 95.2565 2.94558 3.10515 0
M  V30 900 C 94.5825 2.88105 4.50444 0
M  V30 901 C 95.8825 4.35227 2.88747 0
M  V30 902 H 97.5765 2.6378 1.41635 0
M  V30 903 H 95.1225 1.26936 0.679942 0
M  V30 904 H 97.0755 1.92734 3.74742 0
M  V30 905 H 95.7995 0.833412 3.15788 0
M  V30 906 H 94.4585 2.80918 2.35543 0
M  V30 907 H 94.1065 1.89853 4.65795 0
M  V30 908 H 93.8065 3.65366 4.60197 0
M  V30 909 H 95.3305 3.03412 5.29881 0
M  V30 910 H 96.7445 4.49449 3.55905 0
M  V30 911 H 95.1415 5.13856 3.09955 0
M  V30 912 H 96.2115 4.48347 1.84696 0
M  V30 913 N 97.5546 -0.734337 1.39446 0
M  V30 914 C 98.4846 -1.86155 1.40955 0
M  V30 915 C 99.4656 -1.67898 0.272827 0
M  V30 916 O 100.651 -1.88207 0.478743 0
M  V30 917 C 97.7806 -3.23912 1.25294 0
M  V30 918 C 96.7346 -3.56808 2.36373 0
M  V30 919 C 96.0606 -4.93508 2.058 0
M  V30 920 C 97.3606 -3.59713 3.78687 0
M  V30 921 H 99.0546 -1.8515 2.35287 0
M  V30 922 H 96.6006 -0.889367 1.13253 0
M  V30 923 H 98.5536 -4.02443 1.2497 0
M  V30 924 H 97.2776 -3.25446 0.274308 0
M  V30 925 H 95.9366 -2.80606 2.35914 0
M  V30 926 H 95.5846 -4.91623 1.06374 0
M  V30 927 H 95.2846 -5.16486 2.80208 0
M  V30 928 H 96.8086 -5.74396 2.07128 0
M  V30 929 H 98.2226 -4.2832 3.81071 0
M  V30 930 H 96.6196 -3.94209 4.52459 0
M  V30 931 H 97.6896 -2.59504 4.09617 0
M  V30 932 N 99.0327 -1.24633 -0.964593 0
M  V30 933 C 100.261 -1.11501 -1.74285 0
M  V30 934 C 100.676 0.332165 -1.85855 0
M  V30 935 O 100.033 1.22903 -1.34911 0
M  V30 936 C 100.084 -1.75258 -3.16175 0
M  V30 937 O 99.8047 -3.14318 -3.05182 0
M  V30 938 C 101.306 -1.67776 -4.10324 0
M  V30 939 H 98.5257 -0.389407 -0.546446 0
M  V30 940 H 101.07 -1.64801 -1.21083 0
M  V30 941 H 99.2247 -1.25954 -3.66353 0
M  V30 942 H 99.6387 -3.4551 -3.94618 0
M  V30 943 H 101.113 -2.17064 -5.0753 0
M  V30 944 H 101.59 -0.639584 -4.34518 0
M  V30 945 H 102.196 -2.16522 -3.66058 0
M  V30 946 N 100.511 1.16574 -1.06058 0
M  V30 947 C 101.927 1.3904 -0.783585 0
M  V30 948 C 102.127 1.91784 0.618145 0
M  V30 949 O 101.183 2.11511 1.37911 0
M  V30 950 C 102.496 2.37329 -1.84649 0
M  V30 951 C 104.044 2.51018 -1.86973 0
M  V30 952 C 104.519 3.52588 -2.92311 0
M  V30 953 N 106.01 3.60113 -2.91329 0
M  V30 954 C 106.745 4.38486 -3.69482 0
M  V30 955 N 106.241 5.20302 -4.57447 0
M  V30 956 N 108.034 4.33446 -3.57885 0
M  V30 957 H 100.185 0.806725 -1.96483 0
M  V30 958 H 102.448 0.417117 -0.851303 0
M  V30 959 H 102.154 2.05663 -2.85299 0
M  V30 960 H 102.028 3.36946 -1.6955 0
M  V30 961 H 104.415 2.81989 -0.869827 0
M  V30 962 H 104.496 1.51445 -2.0615 0
M  V30 963 H 104.14 3.22354 -3.92492 0
M  V30 964 H 104.07 4.51886 -2.70383 0
M  V30 965 H 106.561 3.01707 -2.27555 0
M  V30 966 H 106.874 5.77311 -5.13743 0
M  V30 967 H 105.219 5.19653 -4.61503 0
M  V30 968 H 108.41 3.68586 -2.88551 0
M  V30 969 H 108.583 4.94279 -4.19037 0
M  V30 970 N 101.989 0.842826 1.3317 0
M  V30 971 C 102.952 0.284065 2.27433 0
M  V30 972 C 103.952 -0.54948 1.5112 0
M  V30 973 O 105.142 -0.362699 1.70382 0
M  V30 974 C 102.274 -0.599384 3.35589 0
M  V30 975 H 103.467 1.11589 2.78366 0
M  V30 976 H 101.02 0.616221 1.4364 0
M  V30 977 H 101.755 -1.45349 2.89904 0
M  V30 978 H 101.54 -0.00291266 3.921 0
M  V30 979 H 103.03 -0.983488 4.05854 0
M  V30 980 N 103.467 -1.45747 0.599634 0
M  V30 981 C 104.377 -2.34262 -0.125888 0
M  V30 982 C 105.393 -1.50768 -0.868625 0
M  V30 983 O 106.569 -1.83592 -0.828003 0
M  V30 984 C 103.634 -3.28252 -1.11587 0
M  V30 985 C 102.695 -4.27651 -0.375956 0
M  V30 986 C 101.928 -5.1715 -1.31877 0
M  V30 987 O 102.151 -5.09916 -2.55621 0
M  V30 988 O 101.085 -5.96286 -0.820157 0
M  V30 989 H 104.911 -2.97688 0.601315 0
M  V30 990 H 102.496 -1.44999 0.359934 0
M  V30 991 H 104.378 -3.86191 -1.68626 0
M  V30 992 H 103.053 -2.67401 -1.82424 0
M  V30 993 H 101.96 -3.7335 0.236698 0
M  V30 994 H 103.293 -4.91334 0.29177 0
M  V30 995 N 104.945 -0.338344 -1.53925 0
M  V30 996 C 106.356 0.146651 -1.86123 0
M  V30 997 C 106.707 1.5042 -1.2597 0
M  V30 998 O 105.832 2.08723 -0.571294 0
M  V30 999 C 106.427 0.272879 -3.37699 0
M  V30 1000 C 104.986 0.702103 -3.69794 0
M  V30 1001 C 104.133 -0.167304 -2.76795 0
M  V30 1002 H 107.084 -0.558123 -1.48562 0
M  V30 1003 H 107.105 1.10128 -3.64214 0
M  V30 1004 H 106.617 -0.715307 -3.81451 0
M  V30 1005 H 104.718 1.6995 -3.31584 0
M  V30 1006 H 104.831 0.495604 -4.7653 0
M  V30 1007 H 103.195 0.359527 -2.5215 0
M  V30 1008 H 103.978 -1.15253 -3.23375 0
M  V30 1009 N 106.423 1.57458 -0.0668435 0
M  V30 1010 C 107.834 1.80776 0.466558 0
M  V30 1011 C 108.185 0.980361 1.69951 0
M  V30 1012 O 107.31 0.201441 2.1546 0
M  V30 1013 C 107.905 3.27881 0.85321 0
M  V30 1014 C 106.464 3.52062 1.3315 0
M  V30 1015 C 105.611 2.75513 0.314264 0
M  V30 1016 H 108.562 1.5598 -0.292588 0
M  V30 1017 H 108.583 3.39659 1.715 0
M  V30 1018 H 108.095 3.88075 -0.0443439 0
M  V30 1019 H 106.196 2.97167 2.24772 0
M  V30 1020 H 106.309 4.60762 1.31285 0
M  V30 1021 H 104.673 2.42123 0.790492 0
M  V30 1022 H 105.456 3.38442 -0.575477 0
M  V30 1023 N 107.901 -0.206675 1.56239 0
M  V30 1024 C 109.126 -0.949474 1.8439 0
M  V30 1025 C 109.551 -1.76549 0.649016 0
M  V30 1026 O 108.909 -1.76782 -0.402231 0
M  V30 1027 C 108.957 -1.83078 3.10668 0
M  V30 1028 O 108.061 -2.9281 2.90407 0
M  V30 1029 H 107.402 -0.268033 0.607499 0
M  V30 1030 H 109.932 -0.215488 2.03462 0
M  V30 1031 H 109.942 -2.2377 3.41161 0
M  V30 1032 H 108.617 -1.23112 3.97261 0
M  V30 1033 H 107.194 -2.55956 2.71184 0
M  V30 1034 N 109.379 -1.50304 -0.473955 0
M  V30 1035 C 110.289 -1.7174 -1.5982 0
M  V30 1036 C 111.305 -0.600457 -1.63311 0
M  V30 1037 O 112.481 -0.878441 -1.81233 0
M  V30 1038 C 109.546 -1.80427 -2.96052 0
M  V30 1039 C 108.607 -3.04148 -3.02972 0
M  V30 1040 C 107.84 -3.12411 -4.32706 0
M  V30 1041 O 108.063 -2.27542 -5.23049 0
M  V30 1042 O 106.997 -4.05113 -4.45159 0
M  V30 1043 H 110.823 -2.67035 -1.44657 0
M  V30 1044 H 108.408 -1.34366 -0.653148 0
M  V30 1045 H 110.29 -1.88338 -3.7697 0
M  V30 1046 H 108.965 -0.883156 -3.11419 0
M  V30 1047 H 107.872 -3.0174 -2.21142 0
M  V30 1048 H 109.205 -3.95829 -2.92541 0
M  V30 1049 N 110.857 0.726932 -1.39834 0
M  V30 1050 C 112.268 1.30558 -1.3346 0
M  V30 1051 C 112.619 1.962 -0.00273003 0
M  V30 1052 O 111.744 1.96826 0.899371 0
M  V30 1053 C 112.339 2.37404 -2.41713 0
M  V30 1054 C 110.898 2.90921 -2.38835 0
M  V30 1055 C 110.045 1.64578 -2.2318 0
M  V30 1056 H 112.996 0.523862 -1.49804 0
M  V30 1057 H 113.017 3.17984 -2.08966 0
M  V30 1058 H 112.529 1.89599 -3.38635 0
M  V30 1059 H 110.63 3.42985 -1.45575 0
M  V30 1060 H 110.743 3.43487 -3.33997 0
M  V30 1061 H 109.107 1.89219 -1.70494 0
M  V30 1062 H 109.89 1.18814 -3.22084 0
M  V30 1063 N 112.336 1.25143 0.95797 0
M  V30 1064 C 113.564 1.12424 1.73691 0
M  V30 1065 C 113.979 -0.322304 1.86029 0
M  V30 1066 O 113.336 -1.22186 1.35561 0
M  V30 1067 C 113.387 1.76933 3.15241 0
M  V30 1068 O 113.108 3.15932 3.03511 0
M  V30 1069 C 114.609 1.6995 4.09429 0
M  V30 1070 H 111.829 0.3923 0.544373 0
M  V30 1071 H 114.373 1.6544 1.20207 0
M  V30 1072 H 112.528 1.27895 3.6568 0
M  V30 1073 H 112.942 3.47598 3.9278 0
M  V30 1074 H 114.416 2.19753 5.06372 0
M  V30 1075 H 114.893 0.662619 4.34173 0
M  V30 1076 H 115.499 2.18461 3.64904 0
M  V30 1077 N 113.814 -1.1601 1.06675 0
M  V30 1078 C 114.724 -2.24156 0.692179 0
M  V30 1079 C 115.74 -1.71507 -0.293513 0
M  V30 1080 O 116.916 -2.009 -0.141861 0
M  V30 1081 C 113.981 -3.46587 0.0884131 0
M  V30 1082 C 113.042 -4.14257 1.12646 0
M  V30 1083 C 112.275 -5.30844 0.551416 0
M  V30 1084 O 112.498 -5.66858 -0.634656 0
M  V30 1085 O 111.432 -5.87848 1.29298 0
M  V30 1086 H 115.258 -2.58513 1.59388 0
M  V30 1087 H 112.843 -1.23599 0.83926 0
M  V30 1088 H 114.725 -4.20679 -0.246361 0
M  V30 1089 H 113.4 -3.13994 -0.786712 0
M  V30 1090 H 112.307 -3.42118 1.51348 0
M  V30 1091 H 113.64 -4.50914 1.97325 0
M  V30 1092 N 115.292 -0.849877 -1.32721 0
M  V30 1093 C 116.541 -0.447175 -1.96681 0
M  V30 1094 C 116.854 1.00135 -1.68025 0
M  V30 1095 O 118.06 1.50926 -2.25685 0
M  V30 1096 C 116.516 -0.7487 -3.52026 0
M  V30 1097 C 116.124 -2.21264 -3.89546 0
M  V30 1098 C 117.868 -0.413487 -4.22481 0
M  V30 1099 C 115.775 -2.45763 -5.37917 0
M  V30 1100 H 114.705 -0.163486 -0.736063 0
M  V30 1101 H 117.356 -1.03999 -1.51183 0
M  V30 1102 H 115.738 -0.0853727 -3.95908 0
M  V30 1103 H 116.912 -2.91736 -3.56689 0
M  V30 1104 H 115.227 -2.5119 -3.32103 0
M  V30 1105 H 117.824 -0.574017 -5.3161 0
M  V30 1106 H 118.167 0.644492 -4.11281 0
M  V30 1107 H 118.7 -1.03251 -3.84167 0
M  V30 1108 H 115.439 -3.50168 -5.54132 0
M  V30 1109 H 114.959 -1.79864 -5.72197 0
M  V30 1110 H 116.638 -2.29471 -6.0494 0
M  V30 1111 N 116.77 1.45427 -0.607355 0
M  V30 1112 C 118.186 1.57283 -0.270985 0
M  V30 1113 C 118.386 1.59875 1.22647 0
M  V30 1114 O 117.442 1.52893 2.00948 0
M  V30 1115 C 118.755 2.85566 -0.941952 0
M  V30 1116 C 120.303 2.9924 -0.917849 0
M  V30 1117 C 120.778 4.30293 -1.56882 0
M  V30 1118 N 122.269 4.37051 -1.5343 0
M  V30 1119 C 123.004 5.37123 -2.00715 0
M  V30 1120 N 122.5 6.43734 -2.56084 0
M  V30 1121 N 124.293 5.28479 -1.91484 0
M  V30 1122 H 116.444 1.41988 -1.57966 0
M  V30 1123 H 118.707 0.67885 -0.661715 0
M  V30 1124 H 118.413 2.8955 -1.99633 0
M  V30 1125 H 118.287 3.74322 -0.465096 0
M  V30 1126 H 120.674 2.94822 0.127984 0
M  V30 1127 H 120.755 2.11895 -1.43297 0
M  V30 1128 H 120.399 4.35469 -2.61398 0
M  V30 1129 H 120.329 5.16454 -1.02873 0
M  V30 1130 H 122.82 3.60615 -1.12982 0
M  V30 1131 H 123.133 7.16341 -2.89958 0
M  V30 1132 H 121.478 6.44485 -2.60122 0
M  V30 1133 H 124.669 4.44098 -1.47967 0
M  V30 1134 H 124.842 6.0632 -2.28648 0
M  V30 1135 N 118.248 0.346503 1.53744 0
M  V30 1136 C 119.659 -0.136779 1.86198 0
M  V30 1137 C 120.01 -1.49749 1.26766 0
M  V30 1138 O 119.135 -2.08417 0.582355 0
M  V30 1139 C 119.73 -0.254966 3.37839 0
M  V30 1140 C 118.289 -0.682482 3.70161 0
M  V30 1141 C 117.436 0.181981 2.76702 0
M  V30 1142 H 120.387 0.565994 1.48264 0
M  V30 1143 H 120.408 -1.08195 3.64793 0
M  V30 1144 H 119.92 0.735526 3.81066 0
M  V30 1145 H 118.021 -1.68189 3.3248 0
M  V30 1146 H 118.134 -0.470326 4.76786 0
M  V30 1147 H 116.498 -0.34615 2.52337 0
M  V30 1148 H 117.281 1.16966 3.2276 0
M  V30 1149 N 119.726 -1.57421 0.075193 0
M  V30 1150 C 120.658 -2.09904 -0.920483 0
M  V30 1151 C 121.671 -1.03191 -1.25918 0
M  V30 1152 O 122.86 -1.30695 -1.21577 0
M  V30 1153 C 119.96 -2.54726 -2.23534 0
M  V30 1154 C 119.133 -3.8505 -2.07498 0
M  V30 1155 C 118.192 -4.15929 -3.22319 0
M  V30 1156 O 117.218 -4.85474 -2.9716 0
M  V30 1157 N 118.42 -3.69745 -4.47514 0
M  V30 1158 H 121.185 -2.95954 -0.472359 0
M  V30 1159 H 118.746 -1.61523 -0.110444 0
M  V30 1160 H 120.738 -2.72443 -2.9926 0
M  V30 1161 H 119.308 -1.73795 -2.59835 0
M  V30 1162 H 118.528 -3.76679 -1.16219 0
M  V30 1163 H 119.816 -4.70348 -1.94038 0
M  V30 1164 H 119.214 -3.13569 -4.7084 0
M  V30 1165 H 117.771 -3.92655 -5.20255 0
M  V30 1166 N 121.204 0.198386 -1.56346 0
M  V30 1167 C 122.151 1.24589 -1.94284 0
M  V30 1168 C 123.121 1.454 -0.802997 0
M  V30 1169 O 124.306 1.58588 -1.06087 0
M  V30 1170 C 121.446 2.58631 -2.28482 0
M  V30 1171 C 120.559 2.45426 -3.55514 0
M  V30 1172 C 119.694 3.7215 -3.79049 0
M  V30 1173 C 118.733 3.53763 -4.99518 0
M  V30 1174 N 117.87 4.72491 -5.19323 0
M  V30 1175 H 122.71 0.915356 -2.83593 0
M  V30 1176 H 120.247 0.440629 -1.40346 0
M  V30 1177 H 122.205 3.3672 -2.46324 0
M  V30 1178 H 120.835 2.89734 -1.42317 0
M  V30 1179 H 119.887 1.58652 -3.45737 0
M  V30 1180 H 121.199 2.27772 -4.43758 0
M  V30 1181 H 120.353 4.58679 -3.97113 0
M  V30 1182 H 119.092 3.92754 -2.89129 0
M  V30 1183 H 118.097 2.65619 -4.8138 0
M  V30 1184 H 119.322 3.34607 -5.90944 0
M  V30 1185 H 117.268 4.93365 -4.3235 0
M  V30 1186 H 117.185 4.5765 -6.01741 0
M  V30 1187 H 118.453 5.6038 -5.41843 0
M  V30 1188 N 122.682 1.50554 0.465978 0
M  V30 1189 C 124.098 1.38093 0.800154 0
M  V30 1190 C 124.298 0.440988 1.96615 0
M  V30 1191 O 123.354 -0.114499 2.5224 0
M  V30 1192 C 124.667 2.79565 1.10742 0
M  V30 1193 C 126.215 2.88516 1.21357 0
M  V30 1194 C 126.69 4.30833 1.55393 0
M  V30 1195 N 128.181 4.33807 1.62375 0
M  V30 1196 C 128.916 5.40927 1.90225 0
M  V30 1197 N 128.412 6.58247 2.16062 0
M  V30 1198 N 130.205 5.28376 1.9177 0
M  V30 1199 H 122.356 2.10237 -0.302366 0
M  V30 1200 H 124.619 0.945203 -0.0727746 0
M  V30 1201 H 124.325 3.50208 0.323661 0
M  V30 1202 H 124.199 3.17125 2.04234 0
M  V30 1203 H 126.586 2.1809 1.98799 0
M  V30 1204 H 126.667 2.54492 0.258321 0
M  V30 1205 H 126.311 5.01799 0.784889 0
M  V30 1206 H 126.241 4.62347 2.52076 0
M  V30 1207 H 128.732 3.49212 1.44427 0
M  V30 1208 H 129.045 7.3569 2.36601 0
M  V30 1209 H 127.39 6.61413 2.13444 0
M  V30 1210 H 130.581 4.35715 1.71085 0
M  V30 1211 H 130.754 6.11944 2.13139 0
M  V30 1212 N 124.16 -0.719506 1.40217 0
M  V30 1213 C 125.107 -1.83359 1.40172 0
M  V30 1214 C 126.077 -1.64065 0.259206 0
M  V30 1215 O 127.262 -1.85254 0.456677 0
M  V30 1216 C 124.402 -3.2103 1.26624 0
M  V30 1217 C 123.515 -3.51923 2.50548 0
M  V30 1218 C 122.65 -4.79079 2.29471 0
M  V30 1219 C 121.689 -5.02863 3.48992 0
M  V30 1220 N 120.826 -6.2123 3.27135 0
M  V30 1221 H 125.666 -1.82733 2.35399 0
M  V30 1222 H 123.203 -0.892688 1.16917 0
M  V30 1223 H 125.161 -4.00524 1.16776 0
M  V30 1224 H 123.791 -3.20895 0.350176 0
M  V30 1225 H 122.843 -2.67014 2.70939 0
M  V30 1226 H 124.155 -3.6541 3.39525 0
M  V30 1227 H 123.309 -5.66582 2.16955 0
M  V30 1228 H 122.048 -4.67794 1.37913 0
M  V30 1229 H 121.053 -4.13816 3.6199 0
M  V30 1230 H 122.278 -5.16023 4.41472 0
M  V30 1231 H 120.224 -6.11204 2.38256 0
M  V30 1232 H 120.141 -6.35375 4.09675 0
M  V30 1233 H 121.409 -7.11532 3.18344 0
M  V30 1234 N 125.638 -1.25649 -0.95132 0
M  V30 1235 C 126.585 -1.06323 -2.04851 0
M  V30 1236 C 127.555 0.0286491 -1.66075 0
M  V30 1237 O 128.74 -0.12917 -1.90362 0
M  V30 1238 C 125.88 -0.691529 -3.381 0
M  V30 1239 C 124.993 -1.85861 -3.89974 0
M  V30 1240 C 124.128 -1.43096 -5.11563 0
M  V30 1241 C 123.167 -2.56696 -5.55674 0
M  V30 1242 N 122.304 -2.14684 -6.68472 0
M  V30 1243 H 127.144 -2.00222 -2.20715 0
M  V30 1244 H 124.681 -0.997027 -1.08156 0
M  V30 1245 H 126.639 -0.456963 -4.1469 0
M  V30 1246 H 125.269 0.210474 -3.22113 0
M  V30 1247 H 124.321 -2.20639 -3.09875 0
M  V30 1248 H 125.633 -2.71161 -4.18657 0
M  V30 1249 H 124.787 -1.15624 -5.9558 0
M  V30 1250 H 123.526 -0.548722 -4.84603 0
M  V30 1251 H 122.531 -2.84909 -4.7022 0
M  V30 1252 H 123.756 -3.45503 -5.8464 0
M  V30 1253 H 121.702 -1.28881 -6.43215 0
M  V30 1254 H 121.619 -2.9353 -6.96689 0
M  V30 1255 H 122.887 -1.90397 -7.5589 0
M  V30 1256 N 127.117 1.15442 -1.07289 0
M  V30 1257 C 128.365 1.85845 -0.794096 0
M  V30 1258 C 128.686 1.82692 0.681809 0
M  V30 1259 O 127.956 1.26741 1.49377 0
M  V30 1260 H 126.536 0.688089 -0.290763 0
M  V30 1261 H 129.198 1.39947 -1.3565 0
M  V30 1262 H 128.294 2.91001 -1.12804 0
M  V30 1263 N 128.595 0.856903 1.32268 0
M  V30 1264 C 130.006 0.515711 1.79436 0
M  V30 1265 C 130.357 -0.966586 1.70738 0
M  V30 1266 O 129.482 -1.75409 1.26731 0
M  V30 1267 C 130.077 0.929335 3.25805 0
M  V30 1268 C 128.636 0.640006 3.70919 0
M  V30 1269 C 127.783 1.12784 2.53328 0
M  V30 1270 H 130.734 1.04389 1.19535 0
M  V30 1271 H 130.755 0.246633 3.797 0
M  V30 1272 H 130.267 2.00821 3.32103 0
M  V30 1273 H 128.368 -0.428051 3.70133 0
M  V30 1274 H 128.481 1.20788 4.63624 0
M  V30 1275 H 126.845 0.548033 2.48734 0
M  V30 1276 H 127.628 2.21387 2.62379 0
M  V30 1277 N 130.073 -1.45103 0.615059 0
M  V30 1278 C 131.036 -2.29025 -0.0895485 0
M  V30 1279 C 132.036 -1.40174 -0.787906 0
M  V30 1280 O 133.226 -1.62217 -0.634933 0
M  V30 1281 C 130.358 -3.21376 -1.13711 0
M  V30 1282 H 131.551 -2.92807 0.648382 0
M  V30 1283 H 129.104 -1.51749 0.374444 0
M  V30 1284 H 129.839 -2.6241 -1.90556 0
M  V30 1285 H 129.624 -3.86834 -0.640475 0
M  V30 1286 H 131.114 -3.84459 -1.63036 0
M  V30 1287 N 131.551 -0.354651 -1.53558 0
M  V30 1288 C 132.962 0.126902 -1.86268 0
M  V30 1289 C 133.313 1.49075 -1.27558 0
M  V30 1290 O 132.438 2.08105 -0.5934 0
M  V30 1291 C 133.033 0.237046 -3.3797 0
M  V30 1292 C 131.592 0.662842 -3.70518 0
M  V30 1293 C 130.739 -0.196652 -2.76602 0
M  V30 1294 H 133.69 -0.573849 -1.47962 0
M  V30 1295 H 133.711 1.06259 -3.65362 0
M  V30 1296 H 133.223 -0.755725 -3.80671 0
M  V30 1297 H 131.324 1.66424 -3.33367 0
M  V30 1298 H 131.437 0.445034 -4.77029 0
M  V30 1299 H 129.801 0.332763 -2.52517 0
M  V30 1300 H 130.584 -1.18676 -3.22135 0
M  V30 1301 N 133.029 1.57378 -0.0835403 0
M  V30 1302 C 133.976 2.13384 0.879539 0
M  V30 1303 C 134.946 1.04936 1.28754 0
M  V30 1304 O 136.131 1.32662 1.37133 0
M  V30 1305 C 133.271 2.70932 2.13752 0
M  V30 1306 C 132.384 3.93575 1.7811 0
M  V30 1307 C 131.519 4.39326 2.98607 0
M  V30 1308 C 130.558 5.54587 2.59037 0
M  V30 1309 N 129.695 5.95243 3.72331 0
M  V30 1310 H 134.535 2.9537 0.395076 0
M  V30 1311 H 132.072 1.45953 0.183349 0
M  V30 1312 H 134.03 3.02411 2.87408 0
M  V30 1313 H 132.66 1.91693 2.59718 0
M  V30 1314 H 131.712 3.68483 0.94469 0
M  V30 1315 H 133.024 4.77258 1.45005 0
M  V30 1316 H 132.178 4.72528 3.80529 0
M  V30 1317 H 130.917 3.5452 3.34913 0
M  V30 1318 H 129.922 5.21024 1.75539 0
M  V30 1319 H 131.147 6.41133 2.23887 0
M  V30 1320 H 129.093 5.13385 4.08378 0
M  V30 1321 H 129.01 6.73694 3.43034 0
M  V30 1322 H 130.278 6.33072 4.54797 0
M  V30 1323 N 134.507 -0.190092 1.56449 0
M  V30 1324 C 135.44 -1.26375 1.90012 0
M  V30 1325 C 136.418 -1.43705 0.760765 0
M  V30 1326 O 137.602 -1.59014 1.01226 0
M  V30 1327 C 134.729 -2.62962 2.13468 0
M  V30 1328 C 133.775 -2.62474 3.36169 0
M  V30 1329 S 134.608 -2.13412 4.91137 0
M  V30 1330 C 135.764 -3.51812 5.17667 0
M  V30 1331 H 135.997 -0.977181 2.80782 0
M  V30 1332 H 133.53 -0.393814 1.49293 0
M  V30 1333 H 135.488 -3.41583 2.27664 0
M  V30 1334 H 134.149 -2.88828 1.23439 0
M  V30 1335 H 133.342 -3.62918 3.49723 0
M  V30 1336 H 132.944 -1.91937 3.20992 0
M  V30 1337 H 135.236 -4.47706 5.08494 0
M  V30 1338 H 136.179 -3.43148 6.19399 0
M  V30 1339 H 136.587 -3.46956 4.45288 0
M  V30 1340 N 135.985 -1.50799 -0.457987 0
M  V30 1341 C 136.915 -1.73553 -1.5621 0
M  V30 1342 C 137.896 -0.584774 -1.59732 0
M  V30 1343 O 139.081 -0.825314 -1.7579 0
M  V30 1344 C 136.211 -1.84169 -2.94447 0
M  V30 1345 C 135.165 -2.99461 -3.0579 0
M  V30 1346 C 134.491 -2.95235 -4.45803 0
M  V30 1347 C 135.791 -4.39766 -2.81786 0
M  V30 1348 H 137.485 -2.66 -1.37421 0
M  V30 1349 H 135.031 -1.28002 -0.659662 0
M  V30 1350 H 136.984 -1.98672 -3.71628 0
M  V30 1351 H 135.708 -0.883545 -3.14422 0
M  V30 1352 H 134.367 -2.8463 -2.31044 0
M  V30 1353 H 134.015 -1.97239 -4.62715 0
M  V30 1354 H 133.715 -3.72642 -4.54326 0
M  V30 1355 H 135.239 -3.11803 -5.24987 0
M  V30 1356 H 136.653 -4.55054 -3.4871 0
M  V30 1357 H 135.05 -5.18722 -3.0174 0
M  V30 1358 H 136.12 -4.51229 -1.7754 0
M  V30 1359 N 137.463 0.71206 -1.40597 0
M  V30 1360 C 138.711 1.46907 -1.38791 0
M  V30 1361 C 139.032 1.94998 0.00780391 0
M  V30 1362 O 138.302 1.70587 0.963174 0
M  V30 1363 H 136.882 0.545043 -0.51082 0
M  V30 1364 H 139.544 0.843882 -1.75683 0
M  V30 1365 H 138.64 2.34021 -2.06496 0
M  V30 1366 N 138.941 1.26152 0.944643 0
M  V30 1367 C 139.889 1.07215 2.06417 0
M  V30 1368 C 140.883 9.2007e-05 1.694 0
M  V30 1369 O 142.089 0.1565 1.79318 0
M  V30 1370 H 138.464 0.329837 0.675805 0
M  V30 1371 H 140.435 2.02099 2.19541 0
M  V30 1372 C 139.184 0.718197 3.40202 0
M  V30 1373 H 138.507 1.53497 3.69159 0
M  V30 1374 H 139.947 0.625459 4.19361 0
M  V30 1375 C 138.406 -0.576435 3.31932 0
M  V30 1376 O 138.936 -1.61574 3.67773 0
M  V30 1377 N 137.142 -0.565781 2.85039 0
M  V30 1378 H 136.689 0.280367 2.5607 0
M  V30 1379 H 136.647 -1.43213 2.79888 0
M  V30 1380 N 140.419 -1.14872 1.07899 0
M  V30 1381 C 141.329 -2.2341 0.715915 0
M  V30 1382 C 142.345 -1.71808 -0.275306 0
M  V30 1383 O 143.521 -2.01039 -0.120545 0
M  V30 1384 C 140.586 -3.46474 0.125168 0
M  V30 1385 C 139.647 -4.13039 1.17034 0
M  V30 1386 C 138.88 -5.30229 0.607688 0
M  V30 1387 O 139.103 -5.675 -0.574497 0
M  V30 1388 O 138.037 -5.86444 1.35526 0
M  V30 1389 H 141.863 -2.56808 1.62121 0
M  V30 1390 H 139.448 -1.22702 0.852322 0
M  V30 1391 H 141.33 -4.20917 -0.201729 0
M  V30 1392 H 140.005 -3.14811 -0.753364 0
M  V30 1393 H 138.912 -3.40493 1.54968 0
M  V30 1394 H 140.245 -4.48796 2.02097 0
M  V30 1395 N 141.898 -0.863906 -1.31812 0
M  V30 1396 C 142.828 -0.330843 -2.31144 0
M  V30 1397 C 143.809 0.575005 -1.60087 0
M  V30 1398 O 144.994 0.493304 -1.8783 0
M  V30 1399 C 142.124 0.47374 -3.44054 0
M  V30 1400 C 141.078 -0.338481 -4.26659 0
M  V30 1401 C 140.404 0.591412 -5.31419 0
M  V30 1402 C 141.704 -1.56926 -4.98168 0
M  V30 1403 H 143.398 -1.16086 -2.75979 0
M  V30 1404 H 140.944 -0.559657 -1.32679 0
M  V30 1405 H 142.897 0.857143 -4.12591 0
M  V30 1406 H 141.621 1.33721 -2.9797 0
M  V30 1407 H 140.28 -0.703754 -3.59782 0
M  V30 1408 H 139.928 1.45199 -4.81587 0
M  V30 1409 H 139.628 0.0519022 -5.87577 0
M  V30 1410 H 141.152 0.97179 -6.02817 0
M  V30 1411 H 142.566 -1.25764 -5.59336 0
M  V30 1412 H 140.963 -2.04739 -5.64094 0
M  V30 1413 H 142.033 -2.32544 -4.25501 0
M  V30 1414 N 143.376 1.44774 -0.622745 0
M  V30 1415 C 144.616 2.04004 -0.127102 0
M  V30 1416 C 144.98 1.47862 1.22478 0
M  V30 1417 O 146.181 1.98541 1.81204 0
M  V30 1418 C 144.452 3.57247 -0.104429 0
M  V30 1419 S 146.011 4.37574 0.327814 0
M  V30 1420 H 142.829 0.708713 -0.0569776 0
M  V30 1421 H 145.431 1.77275 -0.824253 0
M  V30 1422 H 144.135 3.95616 -1.09159 0
M  V30 1423 H 143.666 3.88575 0.614236 0
M  V30 1424 H 145.681 4.70575 1.57395 0
M  V30 1425 N 144.854 0.36279 1.53368 0
M  V30 1426 C 146.079 -0.231226 2.06107 0
M  V30 1427 C 146.504 -1.419 1.23474 0
M  V30 1428 O 145.862 -1.79524 0.253128 0
M  V30 1429 C 145.91 -0.605523 3.5548 0
M  V30 1430 O 145.014 -1.70312 3.7559 0
M  V30 1431 H 144.355 -0.034327 0.663112 0
M  V30 1432 H 146.885 0.522584 1.97814 0
M  V30 1433 H 146.895 -0.877314 3.98456 0
M  V30 1434 H 145.57 0.263004 4.15068 0
M  V30 1435 H 144.147 -1.4271 3.44512 0
M  V30 1436 N 146.332 -1.57332 0.0918853 0
M  V30 1437 C 147.578 -1.94524 -0.573425 0
M  V30 1438 C 147.911 -0.973578 -1.68033 0
M  V30 1439 O 147.186 -0.00609226 -1.94499 0
M  V30 1440 C 147.469 -3.41858 -1.13161 0
M  V30 1441 C 147.322 -4.4979 -0.0299747 0
M  V30 1442 C 148.641 -3.90435 -2.03098 0
M  V30 1443 H 145.76 -0.70734 -0.206975 0
M  V30 1444 H 148.402 -1.89309 0.161942 0
M  V30 1445 H 146.552 -3.46433 -1.7583 0
M  V30 1446 H 148.224 -4.57327 0.604112 0
M  V30 1447 H 146.467 -4.291 0.636833 0
M  V30 1448 H 147.138 -5.50069 -0.461287 0
M  V30 1449 H 149.614 -3.87992 -1.50338 0
M  V30 1450 H 148.49 -4.94097 -2.39081 0
M  V30 1451 H 148.751 -3.29541 -2.94712 0
M  V30 1452 N 147.81 0.181792 -1.56548 0
M  V30 1453 C 149.05 0.906711 -1.83189 0
M  V30 1454 C 149.414 1.79882 -0.671312 0
M  V30 1455 O 150.615 2.56054 -0.81792 0
M  V30 1456 C 148.886 1.69023 -3.14906 0
M  V30 1457 S 150.445 2.46535 -3.62996 0
M  V30 1458 H 147.263 0.303877 -0.642791 0
M  V30 1459 H 149.865 0.169107 -1.94767 0
M  V30 1460 H 148.569 1.02571 -3.97376 0
M  V30 1461 H 148.1 2.46941 -3.06241 0
M  V30 1462 H 150.115 3.71014 -3.29489 0
M  V30 1463 N 149.288 1.51039 0.449983 0
M  V30 1464 C 150.536 1.62759 1.19808 0
M  V30 1465 C 150.857 0.339981 1.92013 0
M  V30 1466 O 150.127 -0.643606 1.85026 0
M  V30 1467 H 148.707 0.599811 0.445237 0
M  V30 1468 H 151.369 1.87914 0.517138 0
M  V30 1469 H 150.465 2.44911 1.93455 0
M  V30 1470 N 150.766 -0.704594 1.40972 0
M  V30 1471 C 152.043 -1.45847 1.30338 0
M  V30 1472 C 152.423 -2.10973 -0.0732344 0
M  V30 1473 O 151.771 -2.00997 -1.08685 0
M  V30 1474 C 151.981 -2.48525 2.45023 0
M  V30 1475 C 153.329 -3.1404 2.8577 0
M  V30 1476 O 154.353 -2.58848 2.44696 0
M  V30 1477 O 153.212 -4.13981 3.56766 0
M  V30 1478 H 150.306 -0.649092 0.512454 0
M  V30 1479 H 152.852 -0.735836 1.52917 0
M  V30 1480 H 151.624 -1.98994 3.36923 0
M  V30 1481 H 151.247 -3.2831 2.24272 0
M  V30 1482 N 152.244 -1.26651 -0.937939 0
M  V30 1483 C 153.191 -1.0849 -2.03712 0
M  V30 1484 C 154.161 0.011033 -1.66096 0
M  V30 1485 O 155.346 -0.149353 -1.90215 0
M  V30 1486 C 152.486 -0.72735 -3.37348 0
M  V30 1487 C 151.599 -1.89986 -3.87981 0
M  V30 1488 C 150.734 -1.48513 -5.10017 0
M  V30 1489 C 149.773 -2.62575 -5.5292 0
M  V30 1490 N 148.91 -2.21762 -6.66158 0
M  V30 1491 H 153.75 -2.02551 -2.18579 0
M  V30 1492 H 151.287 -1.00844 -1.07093 0
M  V30 1493 H 153.245 -0.50092 -4.14182 0
M  V30 1494 H 151.875 0.176298 -3.22318 0
M  V30 1495 H 150.927 -2.23913 -3.07518 0
M  V30 1496 H 152.239 -2.75586 -4.15757 0
M  V30 1497 H 151.393 -1.21934 -5.94321 0
M  V30 1498 H 150.132 -0.60009 -4.83994 0
M  V30 1499 H 149.137 -2.8988 -4.67172 0
M  V30 1500 H 150.362 -3.51685 -5.80943 0
M  V30 1501 H 148.308 -1.35696 -6.41812 0
M  V30 1502 H 148.225 -3.00903 -6.93537 0
M  V30 1503 H 149.493 -1.98403 -7.53828 0
M  V30 1504 N 153.722 1.14298 -1.08507 0
M  V30 1505 C 154.685 2.17607 -0.719711 0
M  V30 1506 C 155.685 1.58907 0.245997 0
M  V30 1507 O 156.875 1.74181 0.0254081 0
M  V30 1508 C 154.007 3.40842 -0.0627695 0
M  V30 1509 H 155.2 2.51443 -1.63452 0
M  V30 1510 H 152.753 1.28963 -0.88307 0
M  V30 1511 H 153.488 3.12587 0.863716 0
M  V30 1512 H 153.273 3.84713 -0.757504 0
M  V30 1513 H 154.763 4.17221 0.177786 0
M  V30 1514 N 155.201 0.870884 1.31352 0
M  V30 1515 C 156.426 0.495957 2.01383 0
M  V30 1516 C 156.851 -0.904324 1.64935 0
M  V30 1517 O 156.209 -1.59687 0.858466 0
M  V30 1518 C 156.257 0.661433 3.54482 0
M  V30 1519 O 155.361 -0.298851 4.11316 0
M  V30 1520 H 154.702 0.197158 0.634054 0
M  V30 1521 H 157.232 1.17455 1.67527 0
M  V30 1522 H 157.242 0.555072 4.04207 0
M  V30 1523 H 155.917 1.68246 3.8035 0
M  V30 1524 H 154.494 -0.147368 3.72609 0
M  V30 1525 N 156.679 -1.44442 0.630414 0
M  V30 1526 C 157.927 -2.01653 0.134351 0
M  V30 1527 C 158.248 -1.49836 -1.24796 0
M  V30 1528 O 157.518 -0.701684 -1.82902 0
M  V30 1529 H 156.098 -0.74554 0.0466769 0
M  V30 1530 H 158.76 -1.76952 0.816955 0
M  V30 1531 H 157.856 -3.11935 0.101498 0
M  V30 1532 N 158.157 -0.370918 -1.53173 0
M  V30 1533 C 159.404 0.217102 -2.01333 0
M  V30 1534 C 159.732 1.48338 -1.25802 0
M  V30 1535 O 158.987 1.92698 -0.34146 0
M  V30 1536 C 159.286 0.549696 -3.53147 0
M  V30 1537 C 158.952 -0.622872 -4.46577 0
M  V30 1538 C 157.614 -0.944595 -4.71838 0
M  V30 1539 C 159.966 -1.40819 -5.01816 0
M  V30 1540 C 157.294 -2.05351 -5.49589 0
M  V30 1541 C 159.646 -2.50757 -5.80778 0
M  V30 1542 C 158.31 -2.83458 -6.04324 0
M  V30 1543 H 157.58 0.0794431 -0.736729 0
M  V30 1544 H 160.227 -0.504481 -1.84736 0
M  V30 1545 H 158.532 1.35237 -3.6772 0
M  V30 1546 H 160.229 1.017 -3.87889 0
M  V30 1547 H 156.819 -0.36209 -4.27068 0
M  V30 1548 H 161.003 -1.17289 -4.82242 0
M  V30 1549 H 156.259 -2.3108 -5.6605 0
M  V30 1550 H 160.433 -3.12022 -6.22588 0
M  V30 1551 H 158.06 -3.69508 -6.64355 0
M  V30 1552 N 159.635 1.57281 -0.100228 0
M  V30 1553 C 160.585 2.10848 0.86759 0
M  V30 1554 C 161.569 1.02473 1.24049 0
M  V30 1555 O 162.761 1.28739 1.21471 0
M  V30 1556 C 159.89 2.69648 2.12474 0
M  V30 1557 C 158.976 3.85074 1.77704 0
M  V30 1558 N 159.367 4.92897 1.13518 0
M  V30 1559 C 157.665 3.94905 2.07282 0
M  V30 1560 C 158.366 5.73475 0.974735 0
M  V30 1561 N 157.342 5.22675 1.4937 0
M  V30 1562 H 161.144 2.91594 0.367471 0
M  V30 1563 H 158.658 1.62074 0.102829 0
M  V30 1564 H 160.655 3.06356 2.82757 0
M  V30 1565 H 159.315 1.90359 2.63047 0
M  V30 1566 H 160.326 5.11662 0.801381 0
M  V30 1567 H 157.003 3.26633 2.60033 0
M  V30 1568 H 158.393 6.70238 0.472364 0
M  V30 1569 N 161.113 -0.173488 1.56642 0
M  V30 1570 C 162.343 -0.904781 1.85734 0
M  V30 1571 C 162.751 -1.76431 0.68328 0
M  V30 1572 O 162.094 -1.802 -0.356865 0
M  V30 1573 C 162.156 -1.83382 3.09211 0
M  V30 1574 C 161.82 -1.15411 4.42187 0
M  V30 1575 C 162.817 -0.520609 5.17287 0
M  V30 1576 C 160.502 -1.15151 4.88923 0
M  V30 1577 C 162.496 0.106412 6.37311 0
M  V30 1578 C 160.183 -0.520664 6.08878 0
M  V30 1579 C 161.181 0.107196 6.82916 0
M  V30 1580 O 160.869 0.728102 8.00596 0
M  V30 1581 H 160.601 -0.268408 0.62043 0
M  V30 1582 H 163.155 -0.179096 2.04618 0
M  V30 1583 H 161.385 -2.59976 2.86268 0
M  V30 1584 H 163.074 -2.43476 3.24768 0
M  V30 1585 H 163.84 -0.514606 4.82262 0
M  V30 1586 H 159.719 -1.62961 4.31236 0
M  V30 1587 H 163.263 0.597081 6.9504 0
M  V30 1588 H 159.16 -0.524242 6.43368 0
M  V30 1589 H 159.928 0.627138 8.16094 0
M  V30 1590 N 162.591 -1.51276 -0.441967 0
M  V30 1591 C 163.539 -1.72823 -1.55676 0
M  V30 1592 C 164.533 -0.59445 -1.58627 0
M  V30 1593 O 165.739 -0.775715 -1.62427 0
M  V30 1594 H 162.114 -0.545983 -0.517113 0
M  V30 1595 H 164.085 -2.6628 -1.34675 0
M  V30 1596 C 162.834 -1.86619 -2.93375 0
M  V30 1597 H 162.157 -2.73264 -2.91834 0
M  V30 1598 H 163.597 -2.05709 -3.70756 0
M  V30 1599 C 162.056 -0.624842 -3.31055 0
M  V30 1600 O 162.586 0.222636 -4.01083 0
M  V30 1601 N 160.792 -0.470288 -2.86769 0
M  V30 1602 H 160.339 -1.161 -2.29953 0
M  V30 1603 H 160.297 0.359051 -3.12343 0
M  V30 1604 N 164.069 0.697108 -1.41344 0
M  V30 1605 C 165.315 1.4593 -1.40827 0
M  V30 1606 C 165.648 1.94193 -0.0167098 0
M  V30 1607 O 164.923 1.69425 0.955263 0
M  V30 1608 C 165.206 2.67229 -2.41373 0
M  V30 1609 C 165.059 2.24741 -3.8963 0
M  V30 1610 C 166.378 3.69423 -2.39196 0
M  V30 1611 H 163.497 0.529303 -0.512842 0
M  V30 1612 H 166.139 0.794112 -1.72609 0
M  V30 1613 H 164.289 3.23982 -2.14401 0
M  V30 1614 H 165.961 1.73327 -4.27499 0
M  V30 1615 H 164.204 1.56542 -4.0457 0
M  V30 1616 H 164.875 3.1177 -4.55525 0
M  V30 1617 H 167.351 3.2234 -2.63128 0
M  V30 1618 H 166.227 4.51907 -3.11563 0
M  V30 1619 H 166.488 4.19012 -1.41001 0
M  V30 1620 N 165.547 1.27147 0.931209 0
M  V30 1621 C 166.477 1.12081 2.04842 0
M  V30 1622 C 167.458 0.0232364 1.70084 0
M  V30 1623 O 168.643 0.197085 1.93197 0
M  V30 1624 C 165.773 0.76354 3.38803 0
M  V30 1625 C 164.727 1.81396 3.87659 0
M  V30 1626 C 164.053 1.31075 5.18385 0
M  V30 1627 C 165.353 3.21739 4.11438 0
M  V30 1628 H 167.047 2.05537 2.17703 0
M  V30 1629 H 164.593 0.989603 1.04608 0
M  V30 1630 H 166.546 0.644982 4.16435 0
M  V30 1631 H 165.27 -0.206727 3.25945 0
M  V30 1632 H 163.929 1.92136 3.12217 0
M  V30 1633 H 163.577 0.330037 5.01916 0
M  V30 1634 H 163.277 2.013 5.52044 0
M  V30 1635 H 164.801 1.20506 5.98591 0
M  V30 1636 H 166.215 3.14019 4.79651 0
M  V30 1637 H 164.612 3.89644 4.56397 0
M  V30 1638 H 165.682 3.67054 3.16859 0
M  V30 1639 N 167.025 -1.13721 1.09112 0
M  V30 1640 C 168.25 -1.89314 0.847053 0
M  V30 1641 C 168.675 -1.78416 -0.595774 0
M  V30 1642 O 168.033 -1.12942 -1.41823 0
M  V30 1643 C 168.081 -3.3701 1.28284 0
M  V30 1644 O 167.185 -4.10054 0.439267 0
M  V30 1645 H 166.526 -0.588745 0.307044 0
M  V30 1646 H 169.056 -1.43902 1.45442 0
M  V30 1647 H 169.066 -3.87834 1.26683 0
M  V30 1648 H 167.741 -3.4426 2.33363 0
M  V30 1649 H 166.318 -3.69266 0.519312 0
M  V30 1650 N 168.503 -0.877838 -1.30888 0
M  V30 1651 C 169.743 -0.499301 -1.98208 0
M  V30 1652 C 170.107 0.932649 -1.67826 0
M  V30 1653 O 171.308 1.41694 -2.28421 0
M  V30 1654 C 169.579 -0.758221 -3.49265 0
M  V30 1655 S 171.138 -0.480719 -4.36159 0
M  V30 1656 H 167.956 -0.186062 -0.686223 0
M  V30 1657 H 170.558 -1.13556 -1.59139 0
M  V30 1658 H 169.262 -1.79903 -3.68867 0
M  V30 1659 H 168.793 -0.109247 -3.93248 0
M  V30 1660 H 170.808 0.683698 -4.91467 0
M  V30 1661 N 169.982 1.44106 -0.638065 0
M  V30 1662 C 170.892 2.34513 0.0637334 0
M  V30 1663 C 171.908 1.53018 0.828346 0
M  V30 1664 O 173.084 1.85723 0.779036 0
M  V30 1665 C 170.149 3.31095 1.02844 0
M  V30 1666 C 169.21 4.28497 0.26244 0
M  V30 1667 C 168.443 5.20465 1.1812 0
M  V30 1668 O 168.666 5.16514 2.42011 0
M  V30 1669 O 167.6 5.98251 0.661774 0
M  V30 1670 H 171.426 2.95989 -0.68003 0
M  V30 1671 H 169.011 1.43994 -0.398252 0
M  V30 1672 H 170.893 3.90526 1.58327 0
M  V30 1673 H 169.568 2.72144 1.7527 0
M  V30 1674 H 168.475 3.72592 -0.335602 0
M  V30 1675 H 169.808 4.90388 -0.421936 0
M  V30 1676 N 171.46 0.379036 1.52974 0
M  V30 1677 C 172.708 -0.206014 2.01047 0
M  V30 1678 C 173.029 -1.48175 1.26765 0
M  V30 1679 O 172.299 -1.92085 0.384743 0
M  V30 1680 H 170.879 -0.0791184 0.742798 0
M  V30 1681 H 173.541 0.508366 1.88153 0
M  V30 1682 H 172.637 -0.423501 3.09213 0
M  V30 1683 N 172.938 -1.57226 0.108567 0
M  V30 1684 C 174.178 -1.96717 -0.555155 0
M  V30 1685 C 174.542 -0.990003 -1.64508 0
M  V30 1686 O 175.743 -1.2739 -2.36696 0
M  V30 1687 C 174.014 -3.40575 -1.08367 0
M  V30 1688 S 175.573 -4.02072 -1.75737 0
M  V30 1689 H 172.391 -0.687638 -0.180762 0
M  V30 1690 H 174.993 -1.94563 0.191172 0
M  V30 1691 H 173.697 -4.0945 -0.279092 0
M  V30 1692 H 173.228 -3.46356 -1.86551 0
M  V30 1693 H 175.243 -3.91977 -3.04251 0
M  V30 1694 N 174.416 0.165178 -1.56732 0
M  V30 1695 C 175.363 1.2044 -1.96883 0
M  V30 1696 C 176.333 1.43664 -0.833657 0
M  V30 1697 O 177.518 1.56302 -1.09427 0
M  V30 1698 C 174.658 2.53727 -2.33916 0
M  V30 1699 C 173.771 2.3783 -3.6064 0
M  V30 1700 C 172.906 3.64026 -3.86857 0
M  V30 1701 C 171.945 3.43088 -5.06909 0
M  V30 1702 N 171.082 4.61369 -5.29229 0
M  V30 1703 H 175.922 0.854996 -2.85471 0
M  V30 1704 H 173.459 0.41076 -1.41249 0
M  V30 1705 H 175.417 3.31419 -2.53411 0
M  V30 1706 H 174.047 2.8665 -1.48431 0
M  V30 1707 H 173.099 1.51282 -3.49024 0
M  V30 1708 H 174.411 2.18308 -4.4849 0
M  V30 1709 H 173.565 4.50152 -4.06753 0
M  V30 1710 H 172.304 3.86533 -2.97394 0
M  V30 1711 H 171.309 2.55349 -4.86906 0
M  V30 1712 H 172.534 3.21997 -5.97909 0
M  V30 1713 H 170.48 4.84084 -4.42718 0
M  V30 1714 H 170.397 4.44783 -6.11313 0
M  V30 1715 H 171.665 5.48761 -5.53608 0
M  V30 1716 N 175.894 1.51508 0.433938 0
M  V30 1717 C 177.142 1.6402 1.18075 0
M  V30 1718 C 177.463 0.360328 1.91642 0
M  V30 1719 O 176.733 -0.623945 1.85698 0
M  V30 1720 H 175.313 0.6045 0.43885 0
M  V30 1721 H 177.975 1.88452 0.497178 0
M  V30 1722 H 177.071 2.46949 1.90847 0
M  V30 1723 N 177.372 -0.689602 1.41712 0
M  V30 1724 C 178.619 -1.44966 1.4139 0
M  V30 1725 C 178.947 -1.94484 0.025105 0
M  V30 1726 O 178.202 -1.70307 -0.964048 0
M  V30 1727 C 178.501 -2.67298 2.37247 0
M  V30 1728 C 178.167 -2.36405 3.83958 0
M  V30 1729 C 176.829 -2.27691 4.23923 0
M  V30 1730 C 179.181 -2.11043 4.76561 0
M  V30 1731 C 176.509 -1.91719 5.54492 0
M  V30 1732 C 178.861 -1.76578 6.07456 0
M  V30 1733 C 177.525 -1.66363 6.46436 0
M  V30 1734 H 176.795 -0.53047 0.517381 0
M  V30 1735 H 179.442 -0.787655 1.74552 0
M  V30 1736 H 177.747 -3.38461 1.9736 0
M  V30 1737 H 179.444 -3.25452 2.34269 0
M  V30 1738 H 176.034 -2.44085 3.52308 0
M  V30 1739 H 180.218 -2.16717 4.46483 0
M  V30 1740 H 175.474 -1.82367 5.83568 0
M  V30 1741 H 179.648 -1.55974 6.78708 0
M  V30 1742 H 177.275 -1.38258 7.47522 0
M  V30 1743 N 178.85 -1.27639 -0.924453 0
M  V30 1744 C 180.097 -1.14167 -1.67249 0
M  V30 1745 C 180.425 0.311863 -1.91984 0
M  V30 1746 O 179.68 1.24425 -1.51053 0
M  V30 1747 C 179.979 -1.87407 -3.04325 0
M  V30 1748 C 179.645 -3.37249 -2.99289 0
M  V30 1749 C 178.307 -3.7812 -2.97622 0
M  V30 1750 C 180.659 -4.32845 -2.90336 0
M  V30 1751 C 177.987 -5.12944 -2.8479 0
M  V30 1752 C 180.339 -5.6773 -2.79045 0
M  V30 1753 C 179.003 -6.07889 -2.7573 0
M  V30 1754 H 178.273 -0.417766 -0.612007 0
M  V30 1755 H 180.92 -1.58286 -1.07786 0
M  V30 1756 H 179.225 -1.35805 -3.67511 0
M  V30 1757 H 180.922 -1.74408 -3.61086 0
M  V30 1758 H 177.512 -3.04748 -3.01374 0
M  V30 1759 H 181.696 -4.02239 -2.90719 0
M  V30 1760 H 176.952 -5.432 -2.80612 0
M  V30 1761 H 181.126 -6.41472 -2.71083 0
M  V30 1762 H 178.753 -7.12314 -2.65544 0
M  V30 1763 N 180.328 1.1314 -1.09713 0
M  V30 1764 C 181.744 1.36477 -0.827423 0
M  V30 1765 C 181.944 1.93654 0.556817 0
M  V30 1766 O 181 2.15791 1.31112 0
M  V30 1767 C 182.313 2.31334 -1.92106 0
M  V30 1768 C 183.861 2.44943 -1.94864 0
M  V30 1769 C 184.336 3.4311 -3.0338 0
M  V30 1770 N 185.827 3.50662 -3.02639 0
M  V30 1771 C 186.562 4.2651 -3.83246 0
M  V30 1772 N 186.058 5.05485 -4.73768 0
M  V30 1773 N 187.851 4.2184 -3.71493 0
M  V30 1774 H 180.002 0.743807 -1.9895 0
M  V30 1775 H 182.265 0.389823 -0.864143 0
M  V30 1776 H 181.971 1.96483 -2.91698 0
M  V30 1777 H 181.845 3.31381 -1.80184 0
M  V30 1778 H 184.232 2.79079 -0.959099 0
M  V30 1779 H 184.313 1.4481 -2.10864 0
M  V30 1780 H 183.957 3.09704 -4.02549 0
M  V30 1781 H 183.887 4.43055 -2.84622 0
M  V30 1782 H 186.378 2.94315 -2.37039 0
M  V30 1783 H 186.691 5.60675 -5.3185 0
M  V30 1784 H 185.036 5.04708 -4.77802 0
M  V30 1785 H 188.227 3.5922 -3.00131 0
M  V30 1786 H 188.4 4.80697 -4.3455 0
M  V30 1787 N 181.806 0.884767 1.30421 0
M  V30 1788 C 183.222 0.57874 1.48737 0
M  V30 1789 C 183.422 -0.883567 1.81095 0
M  V30 1790 O 182.478 -1.6648 1.89844 0
M  V30 1791 C 183.791 1.49171 2.61091 0
M  V30 1792 C 185.339 1.49532 2.74971 0
M  V30 1793 C 185.814 2.39421 3.90438 0
M  V30 1794 N 187.305 2.37383 3.97748 0
M  V30 1795 C 188.04 3.03647 4.86401 0
M  V30 1796 N 187.536 3.79136 5.79852 0
M  V30 1797 N 189.329 2.9288 4.79768 0
M  V30 1798 H 181.48 1.83075 1.0769 0
M  V30 1799 H 183.743 0.783637 0.533495 0
M  V30 1800 H 183.449 2.53291 2.44001 0
M  V30 1801 H 183.323 1.20113 3.57565 0
M  V30 1802 H 185.71 0.46163 2.91467 0
M  V30 1803 H 185.791 1.8262 1.79119 0
M  V30 1804 H 185.435 3.42874 3.74699 0
M  V30 1805 H 185.365 2.03649 4.85628 0
M  V30 1806 H 187.856 1.82525 3.30897 0
M  V30 1807 H 188.169 4.26789 6.4426 0
M  V30 1808 H 186.514 3.83243 5.79784 0
M  V30 1809 H 189.705 2.33433 4.05742 0
M  V30 1810 H 189.878 3.448 5.4865 0
M  V30 1811 N 183.284 -1.43765 0.645699 0
M  V30 1812 C 184.509 -2.06767 0.161883 0
M  V30 1813 C 184.934 -1.48034 -1.16049 0
M  V30 1814 O 184.292 -0.587369 -1.71522 0
M  V30 1815 C 184.34 -3.60519 0.0762003 0
M  V30 1816 O 183.444 -4.00982 -0.963721 0
M  V30 1817 H 182.785 -0.657675 0.091429 0
M  V30 1818 H 185.315 -1.84397 0.886499 0
M  V30 1819 H 185.325 -4.07853 -0.109604 0
M  V30 1820 H 184 -4.02646 1.04157 0
M  V30 1821 H 182.577 -3.65253 -0.751312 0
M  V30 1822 N 184.763 -0.387143 -1.52771 0
M  V30 1823 C 186.009 0.196025 -2.0185 0
M  V30 1824 C 186.342 1.46641 -1.27319 0
M  V30 1825 O 185.617 1.90889 -0.373032 0
M  V30 1826 C 185.9 0.466136 -3.5707 0
M  V30 1827 C 185.753 -0.819385 -4.42274 0
M  V30 1828 C 187.072 1.25768 -4.21747 0
M  V30 1829 H 184.191 0.0697708 -0.73369 0
M  V30 1830 H 186.833 -0.516286 -1.82851 0
M  V30 1831 H 184.983 1.07293 -3.7339 0
M  V30 1832 H 186.655 -1.4563 -4.37709 0
M  V30 1833 H 184.898 -1.43517 -4.09372 0
M  V30 1834 H 185.569 -0.585065 -5.48891 0
M  V30 1835 H 188.045 0.744167 -4.09391 0
M  V30 1836 H 186.921 1.41541 -5.30337 0
M  V30 1837 H 187.182 2.27228 -3.79236 0
M  V30 1838 N 186.241 1.57166 -0.116904 0
M  V30 1839 C 187.49 1.94298 0.541407 0
M  V30 1840 C 187.803 1.00236 1.67964 0
M  V30 1841 O 189.009 1.26826 2.40057 0
M  V30 1842 C 187.465 3.45306 1.01449 0
M  V30 1843 C 187.073 4.47899 -0.0951738 0
M  V30 1844 C 188.817 3.91361 1.6443 0
M  V30 1845 C 186.724 5.90083 0.394491 0
M  V30 1846 H 185.654 0.725308 0.206019 0
M  V30 1847 H 188.305 1.82446 -0.196419 0
M  V30 1848 H 186.687 3.52385 1.80667 0
M  V30 1849 H 187.861 4.52486 -0.871374 0
M  V30 1850 H 186.176 4.11583 -0.631505 0
M  V30 1851 H 188.773 4.95004 2.02176 0
M  V30 1852 H 189.116 3.3122 2.52189 0
M  V30 1853 H 189.649 3.87073 0.917559 0
M  V30 1854 H 186.388 6.53974 -0.447004 0
M  V30 1855 H 185.908 5.88921 1.13722 0
M  V30 1856 H 187.587 6.41307 0.856399 0
M  V30 1857 N 187.719 -0.156864 1.56817 0
M  V30 1858 C 188.666 -1.19394 1.97519 0
M  V30 1859 C 189.636 -1.4322 0.841265 0
M  V30 1860 O 190.821 -1.55719 1.10255 0
M  V30 1861 C 187.961 -2.52483 2.35258 0
M  V30 1862 C 187.074 -2.35914 3.61896 0
M  V30 1863 C 186.209 -3.61969 3.88782 0
M  V30 1864 C 185.248 -3.40395 5.08722 0
M  V30 1865 N 184.385 -4.58556 5.31668 0
M  V30 1866 H 189.225 -0.839845 2.85921 0
M  V30 1867 H 186.762 -0.403264 1.41464 0
M  V30 1868 H 188.72 -3.30071 2.55165 0
M  V30 1869 H 187.35 -2.85859 1.49949 0
M  V30 1870 H 186.402 -1.49429 3.49821 0
M  V30 1871 H 187.714 -2.15926 4.49641 0
M  V30 1872 H 186.868 -4.47989 4.09135 0
M  V30 1873 H 185.607 -3.84951 2.9944 0
M  V30 1874 H 184.612 -2.52763 4.88253 0
M  V30 1875 H 185.837 -3.18822 5.99608 0
M  V30 1876 H 183.783 -4.81729 4.45279 0
M  V30 1877 H 183.7 -4.41535 6.13664 0
M  V30 1878 H 184.968 -5.45817 5.5651 0
M  V30 1879 N 189.197 -1.51736 -0.425897 0
M  V30 1880 C 190.445 -1.64644 -1.17204 0
M  V30 1881 C 190.766 -0.370486 -1.91448 0
M  V30 1882 O 190.036 0.614088 -1.86026 0
M  V30 1883 H 188.616 -0.606819 -0.435638 0
M  V30 1884 H 191.278 -1.88713 -0.487177 0
M  V30 1885 H 190.374 -2.47958 -1.89534 0
M  V30 1886 N 190.675 0.682077 -1.42076 0
M  V30 1887 C 191.638 1.77756 -1.44691 0
M  V30 1888 C 192.638 1.5726 -0.335535 0
M  V30 1889 O 193.828 1.63686 -0.596037 0
M  V30 1890 C 190.96 3.16301 -1.27146 0
M  V30 1891 H 192.153 1.76826 -2.42224 0
M  V30 1892 H 189.706 0.891012 -1.28416 0
M  V30 1893 H 190.441 3.22862 -0.305075 0
M  V30 1894 H 190.226 3.32581 -2.07683 0
M  V30 1895 H 191.716 3.96241 -1.31843 0
M  V30 1896 N 192.153 1.28127 0.917671 0
M  V30 1897 C 193.103 1.08361 2.00604 0
M  V30 1898 C 194.087 0.00847518 1.60898 0
M  V30 1899 O 195.279 0.228167 1.75523 0
M  V30 1900 C 192.408 0.743376 3.35155 0
M  V30 1901 C 191.494 1.85716 3.81275 0
M  V30 1902 N 191.885 3.09822 3.99805 0
M  V30 1903 C 190.183 1.74612 4.10398 0
M  V30 1904 C 190.884 3.82368 4.38372 0
M  V30 1905 N 189.86 3.10192 4.4641 0
M  V30 1906 H 193.662 2.02531 2.12975 0
M  V30 1907 H 191.176 1.18989 1.10523 0
M  V30 1908 H 193.173 0.582859 4.12805 0
M  V30 1909 H 191.833 -0.190595 3.2414 0
M  V30 1910 H 192.844 3.45475 3.85833 0
M  V30 1911 H 189.521 0.883657 4.08041 0
M  V30 1912 H 190.911 4.89082 4.60704 0
M  V30 1913 N 193.631 -1.12557 1.10312 0
M  V30 1914 C 194.861 -1.87592 0.865617 0
M  V30 1915 C 195.269 -1.79851 -0.587389 0
M  V30 1916 O 194.612 -1.16949 -1.41664 0
M  V30 1917 C 194.674 -3.37665 1.23381 0
M  V30 1918 C 194.338 -3.69181 2.69359 0
M  V30 1919 C 195.335 -3.67652 3.67597 0
M  V30 1920 C 193.02 -3.98555 3.05711 0
M  V30 1921 C 195.014 -3.95053 5.00212 0
M  V30 1922 C 192.701 -4.25616 4.38514 0
M  V30 1923 C 193.699 -4.23851 5.35574 0
M  V30 1924 O 193.387 -4.50242 6.65986 0
M  V30 1925 H 193.119 -0.600442 0.310557 0
M  V30 1926 H 195.673 -1.4335 1.47105 0
M  V30 1927 H 193.903 -3.82454 0.571467 0
M  V30 1928 H 195.592 -3.94041 0.973994 0
M  V30 1929 H 196.358 -3.45024 3.40857 0
M  V30 1930 H 192.237 -3.99071 2.30789 0
M  V30 1931 H 195.781 -3.93591 5.75962 0
M  V30 1932 H 191.678 -4.47718 4.64994 0
M  V30 1933 H 192.446 -4.67867 6.71597 0
M  V30 1934 N 195.109 -0.891671 -1.2995 0
M  V30 1935 C 196.358 -0.509521 -1.95158 0
M  V30 1936 C 196.671 0.947388 -1.71125 0
M  V30 1937 O 197.877 1.43669 -2.30372 0
M  V30 1938 C 196.333 -0.860315 -3.49466 0
M  V30 1939 C 195.941 -2.33545 -3.8231 0
M  V30 1940 C 197.685 -0.547687 -4.20952 0
M  V30 1941 C 195.592 -2.62752 -5.29826 0
M  V30 1942 H 194.522 -0.18682 -0.730489 0
M  V30 1943 H 197.173 -1.08756 -1.47798 0
M  V30 1944 H 195.555 -0.211285 -3.95436 0
M  V30 1945 H 196.729 -3.02936 -3.47227 0
M  V30 1946 H 195.044 -2.61629 -3.23944 0
M  V30 1947 H 197.641 -0.742854 -5.29515 0
M  V30 1948 H 197.984 0.51332 -4.13123 0
M  V30 1949 H 198.517 -1.1542 -3.80688 0
M  V30 1950 H 195.256 -3.6762 -5.42712 0
M  V30 1951 H 194.776 -1.97977 -5.66185 0
M  V30 1952 H 196.455 -2.48601 -5.97333 0
M  V30 1953 N 196.587 1.43421 -0.653314 0
M  V30 1954 C 197.827 2.03689 -0.170346 0
M  V30 1955 C 198.191 1.50427 1.19314 0
M  V30 1956 O 199.392 2.0234 1.76952 0
M  V30 1957 C 197.663 3.56946 -0.180183 0
M  V30 1958 S 199.222 4.38171 0.234925 0
M  V30 1959 H 196.04 0.707345 -0.0719976 0
M  V30 1960 H 198.642 1.75486 -0.86167 0
M  V30 1961 H 197.346 3.93212 -1.17526 0
M  V30 1962 H 196.877 3.89791 0.531675 0
M  V30 1963 H 198.892 4.73808 1.47378 0
M  V30 1964 N 198.065 0.39524 1.52563 0
M  V30 1965 C 199.015 -0.4541 2.23432 0
M  V30 1966 C 199.999 -1.02482 1.24042 0
M  V30 1967 O 201.191 -0.949938 1.49349 0
M  V30 1968 C 198.32 -1.57769 3.049 0
M  V30 1969 C 197.406 -1.01842 4.1169 0
M  V30 1970 N 197.797 -0.184613 5.05463 0
M  V30 1971 C 196.095 -1.29033 4.26927 0
M  V30 1972 C 196.796 0.125013 5.81566 0
M  V30 1973 N 195.772 -0.480498 5.41472 0
M  V30 1974 H 199.574 0.189413 2.93289 0
M  V30 1975 H 197.088 0.204877 1.61102 0
M  V30 1976 H 199.085 -2.19862 3.54212 0
M  V30 1977 H 197.745 -2.22397 2.36579 0
M  V30 1978 H 198.756 0.178602 5.17592 0
M  V30 1979 H 195.433 -1.93721 3.69836 0
M  V30 1980 H 196.823 0.800962 6.67109 0
M  V30 1981 N 199.544 -1.57102 0.125237 0
M  V30 1982 C 200.769 -2.0019 -0.542101 0
M  V30 1983 C 201.194 -1.00449 -1.59034 0
M  V30 1984 O 200.552 0.0229423 -1.81285 0
M  V30 1985 C 200.6 -3.42129 -1.13929 0
M  V30 1986 O 199.704 -3.45307 -2.2547 0
M  V30 1987 H 199.045 -0.650171 -0.134812 0
M  V30 1988 H 201.575 -2.03461 0.215553 0
M  V30 1989 H 201.585 -3.80471 -1.4733 0
M  V30 1990 H 200.26 -4.14237 -0.371531 0
M  V30 1991 H 198.837 -3.1879 -1.93462 0
M  V30 1992 N 201.022 0.148545 -1.56898 0
M  V30 1993 C 202.27 0.859717 -1.82902 0
M  V30 1994 C 202.591 1.81775 -0.70588 0
M  V30 1995 O 201.861 1.93994 0.272586 0
M  V30 1996 H 200.441 0.320469 -0.674766 0
M  V30 1997 H 203.103 0.142918 -1.94375 0
M  V30 1998 H 202.199 1.4229 -2.77777 0
M  V30 1999 N 202.5 1.5196 0.417844 0
M  V30 2000 C 203.748 1.65263 1.16329 0
M  V30 2001 C 204.069 0.380634 1.91249 0
M  V30 2002 O 203.339 -0.604214 1.86349 0
M  V30 2003 H 201.919 0.60912 0.432414 0
M  V30 2004 H 204.581 1.88969 0.477162 0
M  V30 2005 H 203.677 2.4896 1.88217 0
M  V30 2006 N 203.978 -0.674533 1.42435 0
M  V30 2007 C 204.928 -1.7807 1.4239 0
M  V30 2008 C 205.912 -1.58169 0.295202 0
M  V30 2009 O 207.104 -1.68643 0.537449 0
M  V30 2010 C 204.233 -3.16532 1.32901 0
M  V30 2011 C 203.319 -3.42055 2.50717 0
M  V30 2012 N 203.71 -3.38162 3.76139 0
M  V30 2013 C 202.008 -3.72692 2.44983 0
M  V30 2014 C 202.709 -3.63177 4.54398 0
M  V30 2015 N 201.685 -3.83954 3.84812 0
M  V30 2016 H 205.487 -1.73454 2.37257 0
M  V30 2017 H 203.001 -0.875381 1.36788 0
M  V30 2018 H 204.998 -3.958 1.30951 0
M  V30 2019 H 203.658 -3.22345 0.390363 0
M  V30 2020 H 204.669 -3.18057 4.0873 0
M  V30 2021 H 201.346 -3.85749 1.59699 0
M  V30 2022 H 202.736 -3.66125 5.63384 0
M  V30 2023 N 205.456 -1.28612 -0.910864 0
M  V30 2024 C 206.696 -1.1719 -1.67469 0
M  V30 2025 C 207.06 0.274441 -1.90028 0
M  V30 2026 O 208.261 0.511425 -2.6389 0
M  V30 2027 C 206.532 -1.95137 -2.99427 0
M  V30 2028 S 208.091 -2.00122 -3.90508 0
M  V30 2029 H 204.909 -0.41806 -0.575106 0
M  V30 2030 H 207.511 -1.6275 -1.08317 0
M  V30 2031 H 206.215 -2.99381 -2.80712 0
M  V30 2032 H 205.746 -1.50137 -3.63624 0
M  V30 2033 H 207.761 -1.10981 -4.8363 0
M  V30 2034 N 206.934 1.1197 -1.10907 0
M  V30 2035 C 208.345 1.65114 -0.871446 0
M  V30 2036 C 208.696 1.86885 0.597353 0
M  V30 2037 O 207.821 1.59896 1.45816 0
M  V30 2038 C 208.416 2.99944 -1.5754 0
M  V30 2039 C 206.975 3.50018 -1.38435 0
M  V30 2040 C 206.122 2.24941 -1.62164 0
M  V30 2041 H 209.073 0.956851 -1.2661 0
M  V30 2042 H 209.094 3.66651 -1.01721 0
M  V30 2043 H 208.606 2.84067 -2.64438 0
M  V30 2044 H 206.707 3.71071 -0.337214 0
M  V30 2045 H 206.82 4.29165 -2.12965 0
M  V30 2046 H 205.184 2.3229 -1.04467 0
M  V30 2047 H 205.967 2.11612 -2.70324 0
M  V30 2048 N 208.412 0.89855 1.29475 0
M  V30 2049 C 209.345 0.319981 2.25945 0
M  V30 2050 C 210.323 -0.567189 1.52387 0
M  V30 2051 O 211.507 -0.514254 1.8135 0
M  V30 2052 C 208.634 -0.544013 3.34303 0
M  V30 2053 C 207.68 0.275682 4.25608 0
M  V30 2054 S 208.513 1.67272 5.08704 0
M  V30 2055 C 209.669 0.815621 6.20563 0
M  V30 2056 H 209.902 1.13767 2.74671 0
M  V30 2057 H 207.435 0.69882 1.3768 0
M  V30 2058 H 209.393 -1.03673 3.97193 0
M  V30 2059 H 208.054 -1.33593 2.84274 0
M  V30 2060 H 207.247 -0.384263 5.02533 0
M  V30 2061 H 206.849 0.701496 3.67362 0
M  V30 2062 H 209.141 0.0385042 6.77489 0
M  V30 2063 H 210.084 1.55691 6.90772 0
M  V30 2064 H 210.492 0.370516 5.63283 0
M  V30 2065 N 209.89 -1.43072 0.660911 0
M  V30 2066 C 211.167 -1.95307 0.107017 0
M  V30 2067 C 211.547 -1.60192 -1.37484 0
M  V30 2068 O 210.895 -0.890949 -2.10415 0
M  V30 2069 C 211.105 -3.47124 0.361402 0
M  V30 2070 C 212.453 -4.23738 0.270455 0
M  V30 2071 O 213.477 -3.54981 0.294382 0
M  V30 2072 O 212.336 -5.46131 0.200737 0
M  V30 2073 H 209.43 -0.826984 -0.00517729 0
M  V30 2074 H 211.976 -1.52972 0.734681 0
M  V30 2075 H 210.748 -3.65837 1.38848 0
M  V30 2076 H 210.371 -3.96475 -0.298953 0
M  V30 2077 N 211.368 -0.403325 -1.52352 0
M  V30 2078 C 212.596 0.174012 -2.06167 0
M  V30 2079 C 213.011 1.39347 -1.27388 0
M  V30 2080 O 212.368 1.79597 -0.324201 0
M  V30 2081 C 212.419 0.530223 -3.5759 0
M  V30 2082 O 212.14 -0.640806 -4.33388 0
M  V30 2083 C 213.641 1.16192 -4.27802 0
M  V30 2084 H 210.861 0.0229464 -0.670608 0
M  V30 2085 H 213.405 -0.572604 -1.9632 0
M  V30 2086 H 211.56 1.22673 -3.67464 0
M  V30 2087 H 211.974 -0.344851 -5.23365 0
M  V30 2088 H 213.448 1.36141 -5.34948 0
M  V30 2089 H 213.925 2.13335 -3.83907 0
M  V30 2090 H 214.531 0.505775 -4.22282 0
M  V30 2091 N 212.846 1.57033 -0.133567 0
M  V30 2092 C 214.076 1.99754 0.527429 0
M  V30 2093 C 214.484 1.01245 1.59832 0
M  V30 2094 O 213.827 -0.000645496 1.837 0
M  V30 2095 C 213.889 3.38903 1.19939 0
M  V30 2096 C 213.553 4.56174 0.274709 0
M  V30 2097 C 214.55 5.17563 -0.492398 0
M  V30 2098 C 212.235 5.01972 0.18153 0
M  V30 2099 C 214.229 6.2315 -1.34027 0
M  V30 2100 C 211.916 6.07416 -0.669958 0
M  V30 2101 C 212.914 6.67874 -1.42947 0
M  V30 2102 O 212.602 7.71279 -2.2668 0
M  V30 2103 H 212.334 0.660702 0.142999 0
M  V30 2104 H 214.888 2.04207 -0.221099 0
M  V30 2105 H 213.118 3.31248 1.99528 0
M  V30 2106 H 214.807 3.65818 1.75875 0
M  V30 2107 H 215.573 4.83087 -0.430367 0
M  V30 2108 H 211.452 4.54652 0.762422 0
M  V30 2109 H 214.996 6.70268 -1.93357 0
M  V30 2110 H 210.893 6.41321 -0.73333 0
M  V30 2111 H 211.661 7.88441 -2.1978 0
M  V30 2112 N 214.325 -0.140222 1.56975 0
M  V30 2113 C 215.258 -1.20266 1.93936 0
M  V30 2114 C 216.236 -1.41212 0.806099 0
M  V30 2115 O 217.42 -1.55713 1.06234 0
M  V30 2116 C 214.547 -2.56037 2.21726 0
M  V30 2117 C 213.593 -2.51646 3.44349 0
M  V30 2118 S 214.426 -1.97678 4.97678 0
M  V30 2119 C 215.582 -3.35165 5.28597 0
M  V30 2120 H 215.815 -0.887358 2.83749 0
M  V30 2121 H 213.348 -0.346119 1.50471 0
M  V30 2122 H 215.306 -3.34167 2.38416 0
M  V30 2123 H 213.967 -2.84755 1.32566 0
M  V30 2124 H 213.16 -3.51608 3.61092 0
M  V30 2125 H 212.762 -1.81628 3.26936 0
M  V30 2126 H 215.054 -4.31302 5.2248 0
M  V30 2127 H 215.997 -3.23269 6.30002 0
M  V30 2128 H 216.405 -3.32614 4.56101 0
M  V30 2129 N 215.803 -1.52179 -0.40978 0
M  V30 2130 C 217.219 -1.40968 -0.74835 0
M  V30 2131 C 217.419 -0.513657 -1.94843 0
M  V30 2132 O 216.475 0.0208026 -2.52491 0
M  V30 2133 C 217.788 -2.83483 -1.0029 0
M  V30 2134 C 219.336 -2.92821 -1.10565 0
M  V30 2135 C 219.811 -4.36303 -1.39296 0
M  V30 2136 N 221.302 -4.39535 -1.46162 0
M  V30 2137 C 222.037 -5.47614 -1.70018 0
M  V30 2138 N 221.533 -6.65812 -1.91483 0
M  V30 2139 N 223.326 -5.35129 -1.72027 0
M  V30 2140 H 215.477 -2.0897 0.380186 0
M  V30 2141 H 217.74 -0.94185 0.107805 0
M  V30 2142 H 217.446 -3.51168 -0.193461 0
M  V30 2143 H 217.32 -3.24487 -1.92323 0
M  V30 2144 H 219.707 -2.25318 -1.90568 0
M  V30 2145 H 219.788 -2.55276 -0.16369 0
M  V30 2146 H 219.432 -5.04366 -0.598109 0
M  V30 2147 H 219.362 -4.71385 -2.34743 0
M  V30 2148 H 221.853 -3.54332 -1.31367 0
M  V30 2149 H 222.166 -7.43964 -2.09134 0
M  V30 2150 H 220.511 -6.68879 -1.88749 0
M  V30 2151 H 223.702 -4.41764 -1.54796 0
M  V30 2152 H 223.875 -6.19433 -1.9028 0
M  V30 2153 N 217.281 0.66697 -1.42791 0
M  V30 2154 C 218.697 0.981027 -1.25889 0
M  V30 2155 C 218.897 2.00793 -0.168695 0
M  V30 2156 O 217.953 2.48321 0.45747 0
M  V30 2157 C 219.266 1.47838 -2.61848 0
M  V30 2158 C 220.814 1.59575 -2.69267 0
M  V30 2159 C 221.289 2.12704 -4.05612 0
M  V30 2160 N 222.78 2.20026 -4.07606 0
M  V30 2161 C 223.515 2.62227 -5.09926 0
M  V30 2162 N 223.011 3.03824 -6.22626 0
M  V30 2163 N 224.804 2.62045 -4.97281 0
M  V30 2164 H 216.955 -0.0127891 -2.12396 0
M  V30 2165 H 219.218 0.0568258 -0.946295 0
M  V30 2166 H 218.924 0.798299 -3.4252 0
M  V30 2167 H 218.798 2.45579 -2.86305 0
M  V30 2168 H 221.185 2.26687 -1.88936 0
M  V30 2169 H 221.266 0.60302 -2.48591 0
M  V30 2170 H 220.91 1.46198 -4.86404 0
M  V30 2171 H 220.84 3.12782 -4.23645 0
M  V30 2172 H 223.331 1.90708 -3.2625 0
M  V30 2173 H 223.644 3.34734 -6.96544 0
M  V30 2174 H 221.989 3.01662 -6.26119 0
M  V30 2175 H 225.18 2.28916 -4.08308 0
M  V30 2176 H 225.353 2.94613 -5.77154 0
M  V30 2177 N 218.759 1.29093 0.90403 0
M  V30 2178 C 219.706 1.13853 2.00764 0
M  V30 2179 C 220.676 0.0330084 1.66067 0
M  V30 2180 O 221.861 0.199733 1.89752 0
M  V30 2181 C 219.001 0.816537 3.35301 0
M  V30 2182 C 218.114 2.00206 3.82807 0
M  V30 2183 C 217.249 1.61983 5.059 0
M  V30 2184 C 216.288 2.77143 5.45764 0
M  V30 2185 N 215.425 2.39346 6.60044 0
M  V30 2186 H 220.265 2.08276 2.13132 0
M  V30 2187 H 217.802 1.03648 1.04381 0
M  V30 2188 H 219.76 0.610557 4.12708 0
M  V30 2189 H 218.39 -0.090779 3.22672 0
M  V30 2190 H 217.442 2.31988 3.01473 0
M  V30 2191 H 218.754 2.86512 4.08304 0
M  V30 2192 H 217.908 1.37649 5.90879 0
M  V30 2193 H 216.647 0.728202 4.82233 0
M  V30 2194 H 215.652 3.02165 4.59322 0
M  V30 2195 H 216.877 3.66964 5.71414 0
M  V30 2196 H 214.823 1.52665 6.37989 0
M  V30 2197 H 214.74 3.19185 6.85315 0
M  V30 2198 H 216.008 2.1832 7.48303 0
M  V30 2199 N 220.237 -1.11381 1.11499 0
M  V30 2200 C 221.477 -1.84763 0.874188 0
M  V30 2201 C 221.841 -1.82726 -0.589496 0
M  V30 2202 O 223.042 -2.51562 -0.947089 0
M  V30 2203 C 221.313 -3.27931 1.42112 0
M  V30 2204 S 222.872 -4.18557 1.31739 0
M  V30 2205 H 219.69 -0.637115 0.315603 0
M  V30 2206 H 222.292 -1.34097 1.42261 0
M  V30 2207 H 220.996 -3.26978 2.48019 0
M  V30 2208 H 220.527 -3.83665 0.869761 0
M  V30 2209 H 222.542 -4.95396 0.282335 0
M  V30 2210 N 221.715 -0.905404 -1.28997 0
M  V30 2211 C 222.647 -0.344748 -2.26592 0
M  V30 2212 C 223.66 0.512135 -1.54535 0
M  V30 2213 O 224.849 0.328368 -1.75454 0
M  V30 2214 C 221.949 0.526587 -3.34784 0
M  V30 2215 C 221.122 -0.305871 -4.36329 0
M  V30 2216 C 220.181 0.499209 -5.23827 0
M  V30 2217 O 219.207 -0.0853004 -5.69136 0
M  V30 2218 N 220.409 1.80408 -5.51755 0
M  V30 2219 H 223.174 -1.18359 -2.75338 0
M  V30 2220 H 220.735 -0.770481 -1.42391 0
M  V30 2221 H 222.727 1.07171 -3.90252 0
M  V30 2222 H 221.297 1.26613 -2.85811 0
M  V30 2223 H 220.517 -1.0324 -3.80441 0
M  V30 2224 H 221.805 -0.875773 -5.01206 0
M  V30 2225 H 221.203 2.3016 -5.16762 0
M  V30 2226 H 219.76 2.29621 -6.10014 0
M  V30 2227 N 223.193 1.4272 -0.668489 0
M  V30 2228 C 224.103 2.34596 0.0139753 0
M  V30 2229 C 225.119 1.5474 0.795703 0
M  V30 2230 O 226.295 1.87334 0.739466 0
M  V30 2231 C 223.36 3.33202 0.957982 0
M  V30 2232 C 222.421 4.28957 0.17149 0
M  V30 2233 C 221.654 5.22853 1.07053 0
M  V30 2234 O 221.877 5.21531 2.31001 0
M  V30 2235 O 220.811 5.9952 0.534727 0
M  V30 2236 H 224.637 2.9448 -0.742661 0
M  V30 2237 H 222.222 1.43117 -0.428705 0
M  V30 2238 H 224.104 3.93796 1.50008 0
M  V30 2239 H 222.779 2.758 1.69458 0
M  V30 2240 H 221.686 3.71796 -0.414558 0
M  V30 2241 H 223.019 4.89383 -0.52586 0
M  V30 2242 N 224.671 0.411399 1.52136 0
M  V30 2243 C 225.911 -0.163143 2.03748 0
M  V30 2244 C 226.275 -1.42187 1.29022 0
M  V30 2245 O 227.476 -2.075 1.70872 0
M  V30 2246 C 225.747 -0.402651 3.55125 0
M  V30 2247 S 227.306 -0.944315 4.28519 0
M  V30 2248 H 224.124 -0.0439833 0.709638 0
M  V30 2249 H 226.726 0.56484 1.87163 0
M  V30 2250 H 225.43 0.520212 4.0709 0
M  V30 2251 H 224.961 -1.15844 3.75957 0
M  V30 2252 H 226.976 -2.22463 4.43536 0
M  V30 2253 N 226.149 -1.5696 0.141893 0
M  V30 2254 C 227.565 -1.58151 -0.21456 0
M  V30 2255 C 227.765 -1.1559 -1.65049 0
M  V30 2256 O 226.821 -0.853832 -2.37626 0
M  V30 2257 C 228.134 -3.00674 0.0395576 0
M  V30 2258 C 229.682 -3.1299 -0.0245529 0
M  V30 2259 C 230.157 -4.57554 0.202167 0
M  V30 2260 N 231.648 -4.62961 0.148919 0
M  V30 2261 C 232.383 -5.7262 0.298924 0
M  V30 2262 N 231.879 -6.90947 0.50637 0
M  V30 2263 N 233.672 -5.61601 0.236886 0
M  V30 2264 H 225.823 -1.8292 1.07953 0
M  V30 2265 H 228.086 -0.846425 0.42693 0
M  V30 2266 H 227.792 -3.36183 1.03315 0
M  V30 2267 H 227.666 -3.70981 -0.682143 0
M  V30 2268 H 230.053 -2.77326 -1.00869 0
M  V30 2269 H 230.134 -2.4518 0.729396 0
M  V30 2270 H 229.778 -4.93922 1.18338 0
M  V30 2271 H 229.708 -5.23484 -0.572044 0
M  V30 2272 H 232.199 -3.77899 -0.00697015 0
M  V30 2273 H 232.512 -7.7038 0.611076 0
M  V30 2274 H 230.857 -6.92878 0.542628 0
M  V30 2275 H 234.048 -4.68039 0.0756209 0
M  V30 2276 H 234.221 -6.47015 0.357227 0
M  V30 2277 N 227.627 0.131896 -1.57047 0
M  V30 2278 C 228.557 1.16384 -2.02428 0
M  V30 2279 C 229.538 1.43936 -0.90644 0
M  V30 2280 O 230.723 1.54599 -1.17528 0
M  V30 2281 C 227.853 2.49328 -2.4177 0
M  V30 2282 C 226.807 2.36266 -3.56879 0
M  V30 2283 C 226.133 3.74057 -3.8208 0
M  V30 2284 C 227.433 1.834 -4.89042 0
M  V30 2285 H 229.127 0.786433 -2.88887 0
M  V30 2286 H 226.673 0.376855 -1.38981 0
M  V30 2287 H 228.626 3.21759 -2.7212 0
M  V30 2288 H 227.35 2.88934 -1.52266 0
M  V30 2289 H 226.009 1.66286 -3.26718 0
M  V30 2290 H 225.657 4.11125 -2.89803 0
M  V30 2291 H 225.357 3.66174 -4.59554 0
M  V30 2292 H 226.881 4.48012 -4.1487 0
M  V30 2293 H 228.295 2.45636 -5.18011 0
M  V30 2294 H 226.692 1.8637 -5.70426 0
M  V30 2295 H 227.762 0.790662 -4.7841 0
M  V30 2296 N 229.106 1.52395 0.401703 0
M  V30 2297 C 230.522 1.41363 0.740864 0
M  V30 2298 C 230.722 0.523982 1.94568 0
M  V30 2299 O 229.778 -0.00741204 2.52499 0
M  V30 2300 C 231.091 2.84011 0.987847 0
M  V30 2301 C 232.639 2.93404 1.09011 0
M  V30 2302 C 233.114 4.37036 1.3698 0
M  V30 2303 N 234.605 4.40304 1.43829 0
M  V30 2304 C 235.34 5.48508 1.67112 0
M  V30 2305 N 234.836 6.66819 1.87949 0
M  V30 2306 N 236.629 5.36034 1.69187 0
M  V30 2307 H 228.78 2.08765 -0.391262 0
M  V30 2308 H 231.043 0.941265 -0.112798 0
M  V30 2309 H 230.749 3.51265 0.174835 0
M  V30 2310 H 230.623 3.25502 1.906 0
M  V30 2311 H 233.01 2.26325 1.8937 0
M  V30 2312 H 233.091 2.55359 0.15015 0
M  V30 2313 H 232.735 5.04676 0.571353 0
M  V30 2314 H 232.665 4.72623 2.3224 0
M  V30 2315 H 235.156 3.55024 1.29486 0
M  V30 2316 H 235.469 7.45063 2.05185 0
M  V30 2317 H 233.814 6.6987 1.85199 0
M  V30 2318 H 237.005 4.42579 1.52451 0
M  V30 2319 H 237.178 6.20434 1.86993 0
M  V30 2320 N 230.584 -0.659388 1.43143 0
M  V30 2321 C 231.531 -1.77249 1.47822 0
M  V30 2322 C 232.501 -1.62818 0.328558 0
M  V30 2323 O 233.686 -1.83151 0.534838 0
M  V30 2324 C 230.826 -3.15371 1.40126 0
M  V30 2325 C 229.939 -3.4098 2.65249 0
M  V30 2326 C 229.074 -4.68915 2.49584 0
M  V30 2327 C 228.113 -4.87608 3.70006 0
M  V30 2328 N 227.25 -6.06796 3.53189 0
M  V30 2329 H 232.09 -1.72584 2.42938 0
M  V30 2330 H 229.627 -0.842297 1.20598 0
M  V30 2331 H 231.585 -3.9521 1.33659 0
M  V30 2332 H 230.215 -3.19121 0.485964 0
M  V30 2333 H 229.267 -2.55282 2.8202 0
M  V30 2334 H 230.579 -3.50681 3.54717 0
M  V30 2335 H 229.733 -5.56871 2.4079 0
M  V30 2336 H 228.472 -4.61524 1.5763 0
M  V30 2337 H 227.477 -3.9809 3.79215 0
M  V30 2338 H 228.702 -4.96834 4.62961 0
M  V30 2339 H 226.648 -6.00549 2.63965 0
M  V30 2340 H 226.565 -6.17428 4.36255 0
M  V30 2341 H 227.833 -6.9739 3.48236 0
M  V30 2342 N 232.062 -1.29571 -0.897171 0
M  V30 2343 C 233.302 -1.18959 -1.66217 0
M  V30 2344 C 233.666 0.254271 -1.90309 0
M  V30 2345 O 234.867 0.483407 -2.64417 0
M  V30 2346 C 233.138 -1.98302 -2.9734 0
M  V30 2347 S 234.697 -2.04253 -3.88364 0
M  V30 2348 H 231.515 -0.424137 -0.570639 0
M  V30 2349 H 234.117 -1.6389 -1.06585 0
M  V30 2350 H 232.821 -3.02342 -2.77521 0
M  V30 2351 H 232.352 -1.53986 -3.62011 0
M  V30 2352 H 234.367 -1.16105 -4.82425 0
M  V30 2353 N 233.54 1.10788 -1.12088 0
M  V30 2354 C 234.956 1.34691 -0.856186 0
M  V30 2355 C 235.156 1.94791 0.515615 0
M  V30 2356 O 234.212 2.18524 1.26505 0
M  V30 2357 C 235.525 2.27208 -1.9697 0
M  V30 2358 C 237.073 2.40755 -2.00016 0
M  V30 2359 C 237.548 3.36598 -3.1059 0
M  V30 2360 N 239.039 3.44164 -3.10008 0
M  V30 2361 C 239.774 4.18284 -3.92206 0
M  V30 2362 N 239.27 4.95322 -4.84384 0
M  V30 2363 N 241.063 4.13865 -3.80357 0
M  V30 2364 H 233.214 0.70144 -2.00483 0
M  V30 2365 H 235.477 0.371405 -0.872217 0
M  V30 2366 H 235.183 1.90251 -2.958 0
M  V30 2367 H 235.057 3.27485 -1.87172 0
M  V30 2368 H 237.444 2.76982 -1.01808 0
M  V30 2369 H 237.525 1.40305 -2.13888 0
M  V30 2370 H 237.169 3.01096 -4.09028 0
M  V30 2371 H 237.099 4.36918 -2.93956 0
M  V30 2372 H 239.59 2.8922 -2.43228 0
M  V30 2373 H 239.903 5.49267 -5.43623 0
M  V30 2374 H 238.248 4.94459 -4.884 0
M  V30 2375 H 241.439 3.52773 -3.07683 0
M  V30 2376 H 241.612 4.71372 -4.44649 0
M  V30 2377 N 235.018 0.912232 1.28515 0
M  V30 2378 C 235.95 0.35676 2.26406 0
M  V30 2379 C 236.963 -0.503933 1.54804 0
M  V30 2380 O 238.152 -0.319059 1.75625 0
M  V30 2381 C 235.252 -0.508825 3.35058 0
M  V30 2382 C 234.425 0.329007 4.36161 0
M  V30 2383 C 233.484 -0.471422 5.24084 0
M  V30 2384 O 232.51 0.115482 5.69083 0
M  V30 2385 N 233.712 -1.77479 5.52704 0
M  V30 2386 H 236.477 1.19818 2.74707 0
M  V30 2387 H 234.038 0.778022 1.4198 0
M  V30 2388 H 236.03 -1.051 3.90815 0
M  V30 2389 H 234.6 -1.25095 2.86478 0
M  V30 2390 H 233.82 1.05256 3.79888 0
M  V30 2391 H 235.108 0.90234 5.00735 0
M  V30 2392 H 234.506 -2.27417 5.17975 0
M  V30 2393 H 233.063 -2.26382 6.11224 0
M  V30 2394 N 236.496 -1.42363 0.676048 0
M  V30 2395 C 237.459 -2.29199 0.00766941 0
M  V30 2396 C 238.459 -1.43389 -0.727745 0
M  V30 2397 O 239.649 -1.64764 -0.56556 0
M  V30 2398 C 236.781 -3.2591 -0.999785 0
M  V30 2399 H 237.974 -2.89794 0.771988 0
M  V30 2400 H 235.527 -1.50024 0.438468 0
M  V30 2401 H 236.262 -2.70256 -1.79255 0
M  V30 2402 H 236.047 -3.89202 -0.475829 0
M  V30 2403 H 237.537 -3.91028 -1.46583 0
M  V30 2404 N 237.974 -0.419461 -1.51915 0
M  V30 2405 C 239.222 0.152637 -2.01523 0
M  V30 2406 C 239.543 1.44762 -1.30649 0
M  V30 2407 O 238.813 1.90997 -0.435535 0
M  V30 2408 H 237.393 0.0593966 -0.744635 0
M  V30 2409 H 240.055 -0.558073 -1.86739 0
M  V30 2410 H 239.151 0.341369 -3.10227 0
M  V30 2411 N 239.452 1.56882 -0.150215 0
M  V30 2412 C 240.385 2.12712 0.826358 0
M  V30 2413 C 241.363 1.05154 1.24022 0
M  V30 2414 O 242.547 1.33004 1.33575 0
M  V30 2415 C 239.674 2.64945 2.11002 0
M  V30 2416 C 238.72 3.8468 1.84183 0
M  V30 2417 S 239.553 5.25502 1.02995 0
M  V30 2418 C 240.709 5.81125 2.32474 0
M  V30 2419 H 240.942 2.95214 0.351598 0
M  V30 2420 H 238.475 1.54267 0.0641211 0
M  V30 2421 H 240.433 2.95689 2.84742 0
M  V30 2422 H 239.094 1.82568 2.55593 0
M  V30 2423 H 238.287 4.19482 2.79375 0
M  V30 2424 H 237.889 3.54714 1.1855 0
M  V30 2425 H 240.181 5.92753 3.281 0
M  V30 2426 H 241.124 6.78625 2.02171 0
M  V30 2427 H 241.532 5.09392 2.43269 0
M  V30 2428 N 240.93 -0.123565 1.57115 0
M  V30 2429 C 242.346 -0.476961 1.52306 0
M  V30 2430 C 242.546 -1.82109 0.86248 0
M  V30 2431 O 241.602 -2.48586 0.442884 0
M  V30 2432 C 242.915 -0.465661 2.97073 0
M  V30 2433 C 244.463 -0.549534 3.08138 0
M  V30 2434 C 244.938 -0.568669 4.54456 0
M  V30 2435 N 246.429 -0.630237 4.58892 0
M  V30 2436 C 247.164 -0.666415 5.69514 0
M  V30 2437 N 246.66 -0.660514 6.89644 0
M  V30 2438 N 248.453 -0.709077 5.5761 0
M  V30 2439 H 240.604 0.757198 1.98445 0
M  V30 2440 H 242.867 0.278808 0.906074 0
M  V30 2441 H 242.573 0.454232 3.48754 0
M  V30 2442 H 242.447 -1.29513 3.54269 0
M  V30 2443 H 244.834 -1.45985 2.56461 0
M  V30 2444 H 244.915 0.307532 2.53945 0
M  V30 2445 H 244.559 0.337581 5.06777 0
M  V30 2446 H 244.489 -1.44256 5.06456 0
M  V30 2447 H 246.98 -0.641146 3.72421 0
M  V30 2448 H 247.293 -0.690616 7.69708 0
M  V30 2449 H 245.638 -0.628012 6.92157 0
M  V30 2450 H 248.829 -0.711019 4.62668 0
M  V30 2451 H 249.002 -0.733804 6.43832 0
M  V30 2452 N 242.408 -1.52605 -0.393616 0
M  V30 2453 C 243.318 -1.79971 -1.50492 0
M  V30 2454 C 244.334 -0.686181 -1.59899 0
M  V30 2455 O 245.51 -0.973274 -1.76322 0
M  V30 2456 C 242.575 -1.95867 -2.86072 0
M  V30 2457 C 241.636 -3.19781 -2.86424 0
M  V30 2458 C 240.869 -3.34909 -4.15538 0
M  V30 2459 O 241.092 -2.54948 -5.10253 0
M  V30 2460 O 240.026 -4.28141 -4.23059 0
M  V30 2461 H 243.852 -2.74328 -1.30299 0
M  V30 2462 H 241.437 -1.3764 -0.581005 0
M  V30 2463 H 243.319 -2.08056 -3.66457 0
M  V30 2464 H 241.994 -1.04699 -3.063 0
M  V30 2465 H 240.901 -3.13038 -2.04837 0
M  V30 2466 H 242.234 -4.1078 -2.71147 0
M  V30 2467 N 243.887 0.651787 -1.4349 0
M  V30 2468 C 244.797 1.79368 -1.5121 0
M  V30 2469 C 245.813 1.69361 -0.399093 0
M  V30 2470 O 246.989 1.90505 -0.653431 0
M  V30 2471 C 244.054 3.15653 -1.43401 0
M  V30 2472 C 243.115 3.37446 -2.65384 0
M  V30 2473 C 242.348 4.67229 -2.57939 0
M  V30 2474 O 242.571 5.46676 -1.62792 0
M  V30 2475 O 241.505 4.90773 -3.48462 0
M  V30 2476 H 245.331 1.7581 -2.47638 0
M  V30 2477 H 242.916 0.810447 -1.25507 0
M  V30 2478 H 244.798 3.96935 -1.41494 0
M  V30 2479 H 243.473 3.19798 -0.501085 0
M  V30 2480 H 242.38 2.55923 -2.72863 0
M  V30 2481 H 243.713 3.38148 -3.57654 0
M  V30 2482 N 245.365 1.30045 0.890287 0
M  V30 2483 C 246.605 1.19839 1.65584 0
M  V30 2484 C 246.969 -0.244175 1.90441 0
M  V30 2485 O 248.17 -0.469378 2.6467 0
M  V30 2486 C 246.441 1.99876 2.96284 0
M  V30 2487 S 248 2.06309 3.87275 0
M  V30 2488 H 244.818 0.427157 0.568382 0
M  V30 2489 H 247.42 1.64453 1.05715 0
M  V30 2490 H 246.124 3.03809 2.75913 0
M  V30 2491 H 245.655 1.55903 3.61189 0
M  V30 2492 H 247.67 1.18661 4.81803 0
M  V30 2493 N 246.843 -1.10192 1.12674 0
M  V30 2494 C 248.089 -1.82475 0.884915 0
M  V30 2495 C 248.422 -1.85093 -0.58773 0
M  V30 2496 O 247.697 -1.3134 -1.43457 0
M  V30 2497 C 247.98 -3.29018 1.46353 0
M  V30 2498 C 247.833 -3.34718 3.00473 0
M  V30 2499 C 249.152 -4.25473 1.12519 0
M  V30 2500 H 246.271 -0.662492 0.322915 0
M  V30 2501 H 248.913 -1.2913 1.39375 0
M  V30 2502 H 247.063 -3.74576 1.03077 0
M  V30 2503 H 248.735 -2.97622 3.52447 0
M  V30 2504 H 246.978 -2.74541 3.35872 0
M  V30 2505 H 247.649 -4.37918 3.36053 0
M  V30 2506 H 250.125 -3.88161 1.499 0
M  V30 2507 H 249.001 -5.26365 1.55663 0
M  V30 2508 H 249.262 -4.42084 0.0377407 0
M  V30 2509 N 248.321 -0.919034 -1.28029 0
M  V30 2510 C 249.251 -0.428581 -2.29533 0
M  V30 2511 C 250.232 0.50659 -1.62381 0
M  V30 2512 O 251.417 0.413195 -1.89753 0
M  V30 2513 C 248.547 0.327388 -3.45753 0
M  V30 2514 C 247.501 -0.519137 -4.2484 0
M  V30 2515 C 246.827 0.365486 -5.33449 0
M  V30 2516 C 248.127 -1.77914 -4.91064 0
M  V30 2517 H 249.821 -1.27687 -2.70807 0
M  V30 2518 H 247.367 -0.615428 -1.30186 0
M  V30 2519 H 249.32 0.681378 -4.15855 0
M  V30 2520 H 248.044 1.20963 -3.03374 0
M  V30 2521 H 246.703 -0.855717 -3.56473 0
M  V30 2522 H 246.351 1.24642 -4.87312 0
M  V30 2523 H 246.051 -0.197356 -5.87268 0
M  V30 2524 H 247.575 0.715241 -6.06396 0
M  V30 2525 H 248.989 -1.49374 -5.53498 0
M  V30 2526 H 247.386 -2.2848 -5.54903 0
M  V30 2527 H 248.456 -2.50382 -4.15255 0
M  V30 2528 N 249.799 1.42003 -0.683588 0
M  V30 2529 C 251.024 2.06265 -0.216647 0
M  V30 2530 C 251.449 1.51059 1.12083 0
M  V30 2531 O 250.807 0.632638 1.69904 0
M  V30 2532 C 250.855 3.60191 -0.171759 0
M  V30 2533 O 249.959 4.03396 0.857069 0
M  V30 2534 H 249.3 0.65502 -0.108834 0
M  V30 2535 H 251.83 1.81982 -0.935077 0
M  V30 2536 H 251.84 4.08 0.0014303 0
M  V30 2537 H 250.515 3.99743 -1.14796 0
M  V30 2538 H 249.092 3.67117 0.654208 0
M  V30 2539 N 251.277 0.427512 1.51691 0
M  V30 2540 C 252.187 -0.39527 2.31246 0
M  V30 2541 C 253.203 -1.03674 1.39742 0
M  V30 2542 O 254.379 -1.03425 1.72816 0
M  V30 2543 C 251.444 -1.48706 3.13189 0
M  V30 2544 C 250.505 -0.866743 4.20459 0
M  V30 2545 C 249.738 -1.90651 4.98486 0
M  V30 2546 O 249.961 -3.12733 4.77026 0
M  V30 2547 O 248.895 -1.5025 5.82845 0
M  V30 2548 H 252.721 0.253918 3.02637 0
M  V30 2549 H 250.306 0.190274 1.48183 0
M  V30 2550 H 252.188 -2.12047 3.64162 0
M  V30 2551 H 250.863 -2.12051 2.44573 0
M  V30 2552 H 249.77 -0.195544 3.73589 0
M  V30 2553 H 251.103 -0.276934 4.9142 0
M  V30 2554 N 252.755 -1.56801 0.158532 0
M  V30 2555 C 253.665 -2.20916 -0.789518 0
M  V30 2556 C 254.681 -1.1969 -1.26294 0
M  V30 2557 O 255.857 -1.52308 -1.31773 0
M  V30 2558 C 252.922 -2.82727 -2.00665 0
M  V30 2559 C 251.983 -3.99114 -1.58134 0
M  V30 2560 C 251.216 -4.57968 -2.74045 0
M  V30 2561 O 251.439 -4.15704 -3.90572 0
M  V30 2562 O 250.373 -5.48047 -2.48855 0
M  V30 2563 H 254.199 -3.02464 -0.273681 0
M  V30 2564 H 251.784 -1.4924 -0.0690548 0
M  V30 2565 H 253.666 -3.21968 -2.71872 0
M  V30 2566 H 252.341 -2.04184 -2.51179 0
M  V30 2567 H 251.248 -3.64567 -0.839155 0
M  V30 2568 H 252.581 -4.79212 -1.12325 0
M  V30 2569 N 254.233 0.115231 -1.57178 0
M  V30 2570 C 255.165 1.16694 -1.97269 0
M  V30 2571 C 256.178 1.37445 -0.872502 0
M  V30 2572 O 257.367 1.36454 -1.15077 0
M  V30 2573 C 254.467 2.52627 -2.25905 0
M  V30 2574 C 253.64 2.52427 -3.57211 0
M  V30 2575 C 252.699 3.70134 -3.74016 0
M  V30 2576 O 251.725 3.53546 -4.46087 0
M  V30 2577 N 252.927 4.88844 -3.13068 0
M  V30 2578 H 255.692 0.82588 -2.88096 0
M  V30 2579 H 253.253 0.304461 -1.59011 0
M  V30 2580 H 255.245 3.29937 -2.34359 0
M  V30 2581 H 253.815 2.789 -1.41186 0
M  V30 2582 H 253.035 1.60805 -3.5991 0
M  V30 2583 H 254.323 2.49353 -4.43509 0
M  V30 2584 H 253.721 5.05225 -2.54489 0
M  V30 2585 H 252.278 5.63817 -3.27037 0
M  V30 2586 N 255.711 1.52812 0.385517 0
M  V30 2587 C 256.96 1.67249 1.12741 0
M  V30 2588 C 257.273 0.4205 1.91027 0
M  V30 2589 O 258.479 0.445064 2.67827 0
M  V30 2590 C 256.935 2.95583 2.05326 0
M  V30 2591 C 256.543 4.27974 1.32447 0
M  V30 2592 C 258.287 3.19386 2.7963 0
M  V30 2593 C 256.194 5.47412 2.23818 0
M  V30 2594 H 255.124 0.6231 0.424573 0
M  V30 2595 H 257.775 1.79309 0.389924 0
M  V30 2596 H 256.157 2.77277 2.82725 0
M  V30 2597 H 257.331 4.56844 0.602495 0
M  V30 2598 H 255.646 4.10459 0.700885 0
M  V30 2599 H 258.243 4.05801 3.48181 0
M  V30 2600 H 258.586 2.34604 3.43899 0
M  V30 2601 H 259.119 3.38274 2.09322 0
M  V30 2602 H 255.858 6.34612 1.64157 0
M  V30 2603 H 255.378 5.22849 2.93921 0
M  V30 2604 H 257.057 5.81423 2.83824 0
M  V30 2605 N 257.189 -0.644168 1.43834 0
M  V30 2606 C 258.605 -0.960875 1.27434 0
M  V30 2607 C 258.805 -2.00499 0.200618 0
M  V30 2608 O 257.861 -2.49018 -0.417906 0
M  V30 2609 C 259.174 -1.43653 2.64167 0
M  V30 2610 C 260.722 -1.55271 2.71772 0
M  V30 2611 C 261.197 -2.06224 4.08944 0
M  V30 2612 N 262.688 -2.13513 4.11055 0
M  V30 2613 C 263.423 -2.54081 5.14033 0
M  V30 2614 N 262.919 -2.9388 6.27381 0
M  V30 2615 N 264.712 -2.54101 5.01387 0
M  V30 2616 H 256.863 0.0465779 2.12349 0
M  V30 2617 H 259.126 -0.0417638 0.94708 0
M  V30 2618 H 258.832 -0.743706 3.43747 0
M  V30 2619 H 258.706 -2.40993 2.90176 0
M  V30 2620 H 261.093 -2.23653 1.92519 0
M  V30 2621 H 261.174 -0.563395 2.49519 0
M  V30 2622 H 260.818 -1.38441 4.88668 0
M  V30 2623 H 260.748 -3.06003 4.28567 0
M  V30 2624 H 263.239 -1.85493 3.29242 0
M  V30 2625 H 263.552 -3.2361 7.01781 0
M  V30 2626 H 261.897 -2.91663 6.30839 0
M  V30 2627 H 265.088 -2.22391 4.11898 0
M  V30 2628 H 265.261 -2.85394 5.81768 0
M  V30 2629 N 258.668 -1.30515 -0.883378 0
M  V30 2630 C 259.598 -1.19607 -2.00541 0
M  V30 2631 C 260.579 -0.086346 -1.69881 0
M  V30 2632 O 261.764 -0.268654 -1.92333 0
M  V30 2633 C 258.894 -0.888758 -3.35736 0
M  V30 2634 C 257.848 -1.95659 -3.8066 0
M  V30 2635 C 257.174 -1.50224 -5.13164 0
M  V30 2636 C 258.474 -3.36788 -3.99213 0
M  V30 2637 H 260.168 -2.13476 -2.09925 0
M  V30 2638 H 257.714 -1.02775 -1.00863 0
M  V30 2639 H 259.667 -0.799094 -4.13754 0
M  V30 2640 H 258.391 0.0856125 -3.26488 0
M  V30 2641 H 257.05 -2.03591 -3.04871 0
M  V30 2642 H 256.698 -0.516092 -5.00345 0
M  V30 2643 H 256.398 -2.2165 -5.44192 0
M  V30 2644 H 257.922 -1.42639 -5.93706 0
M  V30 2645 H 259.336 -3.31605 -4.67665 0
M  V30 2646 H 257.733 -4.06314 -4.41621 0
M  V30 2647 H 258.803 -3.78561 -3.03017 0
M  V30 2648 N 260.146 1.09593 -1.13257 0
M  V30 2649 C 261.093 2.1618 -0.808381 0
M  V30 2650 C 262.063 1.64517 0.228754 0
M  V30 2651 O 263.248 1.9053 0.101381 0
M  V30 2652 C 260.388 3.43973 -0.278675 0
M  V30 2653 C 259.501 4.09545 -1.37466 0
M  V30 2654 C 258.636 5.25088 -0.803479 0
M  V30 2655 C 257.675 5.82579 -1.87799 0
M  V30 2656 N 256.812 6.89486 -1.32488 0
M  V30 2657 H 261.652 2.43254 -1.72138 0
M  V30 2658 H 259.189 1.19392 -0.859294 0
M  V30 2659 H 261.147 4.17174 0.0465583 0
M  V30 2660 H 259.777 3.17223 0.597459 0
M  V30 2661 H 258.829 3.34226 -1.81652 0
M  V30 2662 H 260.141 4.48307 -2.18684 0
M  V30 2663 H 259.295 6.05178 -0.429427 0
M  V30 2664 H 258.034 4.87684 0.0397956 0
M  V30 2665 H 257.039 5.01152 -2.26113 0
M  V30 2666 H 258.264 6.22045 -2.72463 0
M  V30 2667 H 256.21 6.54064 -0.503575 0
M  V30 2668 H 256.127 7.27007 -2.07355 0
M  V30 2669 H 257.395 7.73336 -0.978336 0
M  V30 2670 N 261.624 0.925811 1.2754 0
M  V30 2671 C 262.571 0.422045 2.26908 0
M  V30 2672 C 263.541 -0.510029 1.58076 0
M  V30 2673 O 264.726 -0.429599 1.85901 0
M  V30 2674 C 261.866 -0.320837 3.43605 0
M  V30 2675 C 260.979 0.64513 4.27156 0
M  V30 2676 C 260.114 -0.117405 5.3107 0
M  V30 2677 C 259.153 0.841391 6.0629 0
M  V30 2678 N 258.29 0.111604 7.02011 0
M  V30 2679 H 263.13 1.27441 2.69375 0
M  V30 2680 H 260.667 0.639697 1.32462 0
M  V30 2681 H 262.625 -0.76785 4.10073 0
M  V30 2682 H 261.255 -1.13745 3.02096 0
M  V30 2683 H 260.307 1.21067 3.6062 0
M  V30 2684 H 261.619 1.37797 4.79389 0
M  V30 2685 H 260.773 -0.624422 6.03478 0
M  V30 2686 H 259.512 -0.883219 4.79636 0
M  V30 2687 H 258.517 1.35967 5.32722 0
M  V30 2688 H 259.742 1.60696 6.59813 0
M  V30 2689 H 257.688 -0.635999 6.5291 0
M  V30 2690 H 257.605 0.784044 7.51923 0
M  V30 2691 H 258.873 -0.374823 7.78598 0
M  V30 2692 N 263.102 -1.41638 0.69111 0
M  V30 2693 C 264.032 -2.3347 0.037248 0
M  V30 2694 C 265.013 -1.51575 -0.771947 0
M  V30 2695 O 266.198 -1.80126 -0.72582 0
M  V30 2696 C 263.328 -3.35354 -0.903064 0
M  V30 2697 C 262.282 -4.27526 -0.201288 0
M  V30 2698 C 261.608 -5.19747 -1.25565 0
M  V30 2699 C 262.908 -5.13959 0.929689 0
M  V30 2700 H 264.602 -2.88397 0.804227 0
M  V30 2701 H 262.148 -1.38669 0.388189 0
M  V30 2702 H 264.101 -3.98519 -1.36969 0
M  V30 2703 H 262.825 -2.78767 -1.70166 0
M  V30 2704 H 261.484 -3.65779 0.245265 0
M  V30 2705 H 261.132 -4.59479 -2.04666 0
M  V30 2706 H 260.832 -5.8225 -0.791128 0
M  V30 2707 H 262.356 -5.85789 -1.72288 0
M  V30 2708 H 263.77 -5.70718 0.543546 0
M  V30 2709 H 262.167 -5.85379 1.32103 0
M  V30 2710 H 263.237 -4.51389 1.77133 0
M  V30 2711 N 264.58 -0.43555 -1.51462 0
M  V30 2712 C 265.527 0.376797 -2.27703 0
M  V30 2713 C 266.497 1.01838 -1.31219 0
M  V30 2714 O 267.682 1.03762 -1.60119 0
M  V30 2715 C 264.822 1.47301 -3.12084 0
M  V30 2716 C 263.935 0.849744 -4.2356 0
M  V30 2717 C 263.07 1.92086 -4.95254 0
M  V30 2718 C 262.109 1.27593 -5.98654 0
M  V30 2719 N 261.246 2.28833 -6.63762 0
M  V30 2720 H 266.086 -0.279734 -2.96684 0
M  V30 2721 H 263.623 -0.149795 -1.46335 0
M  V30 2722 H 265.581 2.11984 -3.59331 0
M  V30 2723 H 264.211 2.0992 -2.45221 0
M  V30 2724 H 263.263 0.0912529 -3.80291 0
M  V30 2725 H 264.575 0.338878 -4.97648 0
M  V30 2726 H 263.729 2.64435 -5.46039 0
M  V30 2727 H 262.468 2.46545 -4.20793 0
M  V30 2728 H 261.473 0.537893 -5.47162 0
M  V30 2729 H 262.698 0.738693 -6.7507 0
M  V30 2730 H 260.644 2.82375 -5.92115 0
M  V30 2731 H 260.561 1.82632 -7.33608 0
M  V30 2732 H 261.829 3.00671 -7.19178 0
M  V30 2733 N 266.058 1.56714 -0.166846 0
M  V30 2734 C 267.474 1.58473 0.189372 0
M  V30 2735 C 267.674 1.18201 1.63189 0
M  V30 2736 O 266.73 0.891528 2.36237 0
M  V30 2737 C 268.043 3.00573 -0.0873872 0
M  V30 2738 C 269.591 3.1299 -0.0252443 0
M  V30 2739 C 270.066 4.57174 -0.274934 0
M  V30 2740 N 271.557 4.62665 -0.222553 0
M  V30 2741 C 272.292 5.72072 -0.389985 0
M  V30 2742 N 271.788 6.90054 -0.616229 0
M  V30 2743 N 273.581 5.61153 -0.326202 0
M  V30 2744 H 265.732 1.8118 -1.10849 0
M  V30 2745 H 267.995 0.839525 -0.440342 0
M  V30 2746 H 267.701 3.34497 -1.0865 0
M  V30 2747 H 267.575 3.72019 0.623037 0
M  V30 2748 H 269.962 2.78895 0.96444 0
M  V30 2749 H 270.043 2.43989 -0.768309 0
M  V30 2750 H 269.687 4.91976 -1.26181 0
M  V30 2751 H 269.617 5.24328 0.48869 0
M  V30 2752 H 272.108 3.77863 -0.0531512 0
M  V30 2753 H 272.421 7.69311 -0.733559 0
M  V30 2754 H 270.766 6.91927 -0.652791 0
M  V30 2755 H 273.957 4.67859 -0.150072 0
M  V30 2756 H 274.13 6.46364 -0.460116 0
M  V30 2757 N 267.536 -0.106894 1.57237 0
M  V30 2758 C 268.468 -1.15646 1.97885 0
M  V30 2759 C 269.481 -1.36981 0.879779 0
M  V30 2760 O 270.67 -1.35841 1.15799 0
M  V30 2761 C 267.77 -2.51425 2.27241 0
M  V30 2762 C 266.943 -2.50529 3.58545 0
M  V30 2763 C 266.002 -3.68145 3.75973 0
M  V30 2764 O 265.028 -3.51176 4.47956 0
M  V30 2765 N 266.23 -4.87177 3.15656 0
M  V30 2766 H 268.995 -0.81059 2.8853 0
M  V30 2767 H 266.556 -0.296024 1.59171 0
M  V30 2768 H 268.548 -3.28689 2.36105 0
M  V30 2769 H 267.118 -2.78147 1.42663 0
M  V30 2770 H 266.338 -1.58894 3.60758 0
M  V30 2771 H 267.626 -2.46997 4.44826 0
M  V30 2772 H 267.024 -5.03868 2.57165 0
M  V30 2773 H 265.581 -5.62075 3.30023 0
M  V30 2774 N 269.014 -1.53014 -0.377408 0
M  V30 2775 C 269.924 -1.81557 -1.48574 0
M  V30 2776 C 270.94 -0.703102 -1.59162 0
M  V30 2777 O 272.116 -0.99192 -1.75279 0
M  V30 2778 C 269.181 -1.9889 -2.83978 0
M  V30 2779 C 268.242 -3.22801 -2.83016 0
M  V30 2780 C 267.475 -3.39298 -4.11962 0
M  V30 2781 O 267.698 -2.60345 -5.0752 0
M  V30 2782 O 266.632 -4.32604 -4.18494 0
M  V30 2783 H 270.458 -2.75695 -1.27382 0
M  V30 2784 H 268.043 -1.38248 -0.566373 0
M  V30 2785 H 269.925 -2.11931 -3.6423 0
M  V30 2786 H 268.6 -1.07942 -3.05172 0
M  V30 2787 H 267.507 -3.15193 -2.01505 0
M  V30 2788 H 268.84 -4.13632 -2.66775 0
M  V30 2789 N 270.492 0.636531 -1.44174 0
M  V30 2790 C 271.402 1.77754 -1.53103 0
M  V30 2791 C 272.418 1.68928 -0.417034 0
M  V30 2792 O 273.594 1.89801 -0.6736 0
M  V30 2793 C 270.659 3.14115 -1.46741 0
M  V30 2794 C 269.72 3.34612 -2.68948 0
M  V30 2795 C 268.953 4.64467 -2.6288 0
M  V30 2796 O 269.176 5.44919 -1.68581 0
M  V30 2797 O 268.11 4.87049 -3.53648 0
M  V30 2798 H 271.936 1.73174 -2.49489 0
M  V30 2799 H 269.521 0.79709 -1.2636 0
M  V30 2800 H 271.403 3.95412 -1.45696 0
M  V30 2801 H 270.078 3.19249 -0.534975 0
M  V30 2802 H 268.985 2.53014 -2.75562 0
M  V30 2803 H 270.318 3.34336 -3.61221 0
M  V30 2804 N 271.97 1.30982 0.876444 0
M  V30 2805 C 272.88 1.2003 2.01569 0
M  V30 2806 C 273.896 0.11838 1.73597 0
M  V30 2807 O 275.072 0.33495 1.98595 0
M  V30 2808 C 272.137 0.901637 3.34771 0
M  V30 2809 C 271.198 2.06979 3.76109 0
M  V30 2810 C 270.431 1.78529 5.02954 0
M  V30 2811 O 270.654 0.717296 5.65872 0
M  V30 2812 O 269.588 2.64019 5.40905 0
M  V30 2813 H 273.414 2.15753 2.13739 0
M  V30 2814 H 270.999 1.10658 1.00375 0
M  V30 2815 H 272.881 0.750645 4.1466 0
M  V30 2816 H 271.556 -0.0256141 3.2369 0
M  V30 2817 H 270.463 2.27616 2.96887 0
M  V30 2818 H 271.796 2.97907 3.91807 0
M  V30 2819 N 273.449 -1.08991 1.13837 0
M  V30 2820 C 274.381 -2.15606 0.777612 0
M  V30 2821 C 275.394 -1.61533 -0.202739 0
M  V30 2822 O 276.583 -1.78491 0.0181055 0
M  V30 2823 C 273.683 -3.3864 0.132623 0
M  V30 2824 C 272.856 -4.22115 1.1462 0
M  V30 2825 C 271.915 -5.23564 0.526074 0
M  V30 2826 O 270.941 -5.56678 1.18735 0
M  V30 2827 N 272.143 -5.76266 -0.699866 0
M  V30 2828 H 274.908 -2.47159 1.69506 0
M  V30 2829 H 272.469 -1.24747 1.03198 0
M  V30 2830 H 274.461 -4.03626 -0.29459 0
M  V30 2831 H 273.031 -3.04938 -0.687849 0
M  V30 2832 H 272.251 -3.53199 1.75055 0
M  V30 2833 H 273.539 -4.74709 1.83109 0
M  V30 2834 H 272.937 -5.51585 -1.25581 0
M  V30 2835 H 271.494 -6.42963 -1.06968 0
M  V30 2836 N 274.927 -0.932562 -1.27047 0
M  V30 2837 C 275.89 -0.440064 -2.24936 0
M  V30 2838 C 276.89 0.444071 -1.54547 0
M  V30 2839 O 278.08 0.244465 -1.72476 0
M  V30 2840 C 275.212 0.36678 -3.38921 0
M  V30 2841 H 276.405 -1.305 -2.70018 0
M  V30 2842 H 273.958 -0.713707 -1.39054 0
M  V30 2843 H 274.693 1.25033 -2.99228 0
M  V30 2844 H 274.478 -0.267204 -3.91188 0
M  V30 2845 H 275.968 0.701567 -4.11665 0
M  V30 2846 N 276.405 1.4127 -0.698611 0
M  V30 2847 C 277.355 2.27997 -0.0119836 0
M  V30 2848 C 278.339 1.42363 0.749765 0
M  V30 2849 O 279.531 1.65607 0.624758 0
M  V30 2850 C 276.66 3.30702 0.921458 0
M  V30 2851 C 275.746 4.23814 0.155796 0
M  V30 2852 N 276.137 4.98572 -0.852015 0
M  V30 2853 C 274.435 4.44284 0.390836 0
M  V30 2854 C 275.136 5.66744 -1.3106 0
M  V30 2855 N 274.112 5.39867 -0.635944 0
M  V30 2856 H 277.914 2.83232 -0.784649 0
M  V30 2857 H 275.428 1.53518 -0.529711 0
M  V30 2858 H 277.425 3.91661 1.42854 0
M  V30 2859 H 276.085 2.77028 1.69369 0
M  V30 2860 H 277.096 5.03024 -1.23235 0
M  V30 2861 H 273.773 4.01614 1.14071 0
M  V30 2862 H 275.163 6.36672 -2.14707 0
M  V30 2863 N 277.883 0.443576 1.51229 0
M  V30 2864 C 278.846 -0.353132 2.26463 0
M  V30 2865 C 279.846 -0.944338 1.3015 0
M  V30 2866 O 281.036 -0.817813 1.5381 0
M  V30 2867 C 278.168 -1.50023 3.06114 0
M  V30 2868 H 279.361 0.3063 2.98332 0
M  V30 2869 H 276.914 0.196902 1.55055 0
M  V30 2870 H 277.649 -2.19553 2.38677 0
M  V30 2871 H 277.434 -1.08241 3.76864 0
M  V30 2872 H 278.924 -2.06296 3.63087 0
M  V30 2873 N 279.361 -1.56624 0.175154 0
M  V30 2874 C 280.589 -2.01374 -0.474971 0
M  V30 2875 C 281.004 -1.05537 -1.56548 0
M  V30 2876 O 280.361 -0.0568668 -1.82411 0
M  V30 2877 C 280.412 -3.45923 -1.04975 0
M  V30 2878 O 280.133 -4.381 -0.00276605 0
M  V30 2879 C 281.634 -4.06093 -1.77773 0
M  V30 2880 H 278.854 -0.659962 -0.121206 0
M  V30 2881 H 281.398 -2.02601 0.27801 0
M  V30 2882 H 279.553 -3.45458 -1.75321 0
M  V30 2883 H 279.967 -5.22753 -0.427681 0
M  V30 2884 H 281.441 -5.09147 -2.13245 0
M  V30 2885 H 281.918 -3.48405 -2.67414 0
M  V30 2886 H 282.524 -4.10272 -1.12059 0
M  V30 2887 N 280.839 0.0985539 -1.57292 0
M  V30 2888 C 282.064 0.820196 -1.90493 0
M  V30 2889 C 282.489 1.71658 -0.769094 0
M  V30 2890 O 281.847 1.79133 0.279495 0
M  V30 2891 C 281.895 1.61242 -3.22542 0
M  V30 2892 O 280.999 2.72108 -3.09888 0
M  V30 2893 H 280.34 0.225547 -0.62452 0
M  V30 2894 H 282.87 0.0748159 -2.04463 0
M  V30 2895 H 282.88 1.99737 -3.55766 0
M  V30 2896 H 281.555 0.954535 -4.04798 0
M  V30 2897 H 280.132 2.36667 -2.88172 0
M  V30 2898 N 282.317 1.53212 0.369288 0
M  V30 2899 C 283.247 1.82365 1.45826 0
M  V30 2900 C 284.228 0.676907 1.56051 0
M  V30 2901 O 285.413 0.926401 1.70679 0
M  V30 2902 C 282.543 2.01023 2.83208 0
M  V30 2903 C 281.497 3.1678 2.8781 0
M  V30 2904 C 280.823 3.20724 4.27832 0
M  V30 2905 C 282.123 4.55447 2.55667 0
M  V30 2906 H 283.817 2.73559 1.21678 0
M  V30 2907 H 281.363 1.3163 0.583911 0
M  V30 2908 H 283.316 2.20001 3.59413 0
M  V30 2909 H 282.04 1.06536 3.08736 0
M  V30 2910 H 280.699 2.97616 2.14056 0
M  V30 2911 H 280.347 2.23882 4.50429 0
M  V30 2912 H 280.047 3.98496 4.31827 0
M  V30 2913 H 281.571 3.41881 5.05915 0
M  V30 2914 H 282.985 4.74611 3.21586 0
M  V30 2915 H 281.382 5.35432 2.70984 0
M  V30 2916 H 282.452 4.60812 1.5093 0
M  V30 2917 N 283.795 -0.628877 1.44509 0
M  V30 2918 C 285.206 -1.21054 1.42137 0
M  V30 2919 C 285.557 -1.95715 0.137881 0
M  V30 2920 O 284.682 -2.02554 -0.761645 0
M  V30 2921 C 285.277 -2.20189 2.57493 0
M  V30 2922 C 283.836 -2.73777 2.58308 0
M  V30 2923 C 282.983 -1.48813 2.33987 0
M  V30 2924 H 285.934 -0.41942 1.53057 0
M  V30 2925 H 285.955 -3.02833 2.30375 0
M  V30 2926 H 285.467 -1.6582 3.50892 0
M  V30 2927 H 283.568 -3.32142 1.68856 0
M  V30 2928 H 283.681 -3.19662 3.56865 0
M  V30 2929 H 282.045 -1.77024 1.83124 0
M  V30 2930 H 282.828 -0.963442 3.29504 0
M  V30 2931 N 285.273 -1.31445 -0.869486 0
M  V30 2932 C 286.684 -1.19042 -1.43826 0
M  V30 2933 C 287.035 0.202919 -1.95148 0
M  V30 2934 O 286.16 1.10071 -1.86315 0
M  V30 2935 C 286.755 -2.15499 -2.6143 0
M  V30 2936 C 285.314 -2.07028 -3.14351 0
M  V30 2937 C 284.461 -2.04701 -1.87063 0
M  V30 2938 H 287.412 -1.43489 -0.677984 0
M  V30 2939 H 287.433 -1.74488 -3.38134 0
M  V30 2940 H 286.945 -3.16899 -2.24046 0
M  V30 2941 H 285.046 -1.08825 -3.56354 0
M  V30 2942 H 285.159 -2.96157 -3.766 0
M  V30 2943 H 283.523 -1.49724 -2.06046 0
M  V30 2944 H 284.306 -3.07857 -1.51917 0
M  V30 2945 N 286.751 1.08385 -1.14413 0
M  V30 2946 C 288.167 1.32844 -0.884563 0
M  V30 2947 C 288.367 1.95841 0.474181 0
M  V30 2948 O 287.423 2.21158 1.21842 0
M  V30 2949 C 288.736 2.22978 -2.01745 0
M  V30 2950 C 290.284 2.36458 -2.05077 0
M  V30 2951 C 290.759 3.29934 -3.1766 0
M  V30 2952 N 292.25 3.37511 -3.17239 0
M  V30 2953 C 292.985 4.09871 -4.0099 0
M  V30 2954 N 292.481 4.84936 -4.94781 0
M  V30 2955 N 294.274 4.05704 -3.89051 0
M  V30 2956 H 286.425 0.658756 -2.01926 0
M  V30 2957 H 288.688 0.352821 -0.879899 0
M  V30 2958 H 288.394 1.83934 -2.99769 0
M  V30 2959 H 288.268 3.23441 -1.94077 0
M  V30 2960 H 290.655 2.7476 -1.0766 0
M  V30 2961 H 290.736 1.35736 -2.16816 0
M  V30 2962 H 290.38 2.92352 -4.15322 0
M  V30 2963 H 290.31 4.30584 -3.03158 0
M  V30 2964 H 292.801 2.83996 -2.49308 0
M  V30 2965 H 293.114 5.37612 -5.55151 0
M  V30 2966 H 291.459 4.83988 -4.98779 0
M  V30 2967 H 294.65 3.46167 -3.15097 0
M  V30 2968 H 294.823 4.61834 -4.54547 0
M  V30 2969 N 288.23 0.939286 1.26551 0
M  V30 2970 C 289.193 0.451987 2.24699 0
M  V30 2971 C 290.193 -0.435869 1.5478 0
M  V30 2972 O 291.383 -0.235314 1.72603 0
M  V30 2973 C 288.515 -0.348801 3.39111 0
M  V30 2974 H 289.708 1.3193 2.69322 0
M  V30 2975 H 287.261 0.721072 1.38673 0
M  V30 2976 H 287.996 -1.23444 2.99887 0
M  V30 2977 H 287.781 0.287945 3.91041 0
M  V30 2978 H 289.271 -0.679726 4.12031 0
M  V30 2979 N 289.708 -1.40897 0.706093 0
M  V30 2980 C 290.933 -2.05895 0.249435 0
M  V30 2981 C 291.358 -1.52823 -1.09666 0
M  V30 2982 O 290.716 -0.659589 -1.68876 0
M  V30 2983 C 290.764 -3.59872 0.22904 0
M  V30 2984 O 289.868 -4.04708 -0.792784 0
M  V30 2985 H 289.209 -0.653206 0.119241 0
M  V30 2986 H 291.739 -1.80471 0.96391 0
M  V30 2987 H 291.749 -4.07951 0.0634791 0
M  V30 2988 H 290.424 -3.97866 1.21141 0
M  V30 2989 H 289.001 -3.68111 -0.59572 0
M  V30 2990 N 291.186 -0.45159 -1.50991 0
M  V30 2991 C 292.411 0.110667 -2.07105 0
M  V30 2992 C 292.836 1.3446 -1.31538 0
M  V30 2993 O 292.194 1.77743 -0.357365 0
M  V30 2994 C 292.242 0.397238 -3.58405 0
M  V30 2995 O 291.346 1.48124 -3.84881 0
M  V30 2996 H 290.687 -0.00439271 -0.663985 0
M  V30 2997 H 293.217 -0.637026 -1.9443 0
M  V30 2998 H 293.227 0.64351 -4.02893 0
M  V30 2999 H 291.902 -0.504553 -4.12828 0
M  V30 3000 H 290.479 1.22381 -3.52246 0
M  V30 3001 N 292.664 1.56529 -0.183458 0
M  V30 3002 C 294.075 1.83739 0.331177 0
M  V30 3003 C 294.426 1.10373 1.62211 0
M  V30 3004 O 293.551 0.36071 2.13373 0
M  V30 3005 C 294.146 3.33306 0.607646 0
M  V30 3006 C 292.705 3.60969 1.06668 0
M  V30 3007 C 291.852 2.77086 0.109029 0
M  V30 3008 H 294.803 1.53379 -0.407484 0
M  V30 3009 H 294.824 3.51444 1.45832 0
M  V30 3010 H 294.336 3.86677 -0.332086 0
M  V30 3011 H 292.437 3.13021 2.0211 0
M  V30 3012 H 292.55 4.69231 0.967447 0
M  V30 3013 H 290.914 2.47319 0.608714 0
M  V30 3014 H 291.697 3.33241 -0.82494 0
M  V30 3015 N 294.142 -0.090211 1.57342 0
M  V30 3016 C 295.553 -0.644173 1.75235 0
M  V30 3017 C 295.904 -1.78865 0.806335 0
M  V30 3018 O 295.029 -2.16395 -0.0140128 0
M  V30 3019 C 295.624 -1.17532 3.1776 0
M  V30 3020 C 294.183 -1.67531 3.37061 0
M  V30 3021 C 293.33 -0.58693 2.71017 0
M  V30 3022 H 296.281 0.135884 1.58117 0
M  V30 3023 H 296.302 -2.04455 3.20902 0
M  V30 3024 H 295.814 -0.342138 3.86589 0
M  V30 3025 H 293.915 -2.53234 2.73319 0
M  V30 3026 H 294.028 -1.76493 4.45406 0
M  V30 3027 H 292.392 -1.02756 2.33052 0
M  V30 3028 H 293.175 0.235758 3.4249 0
M  V30 3029 N 295.62 -1.53406 -0.361157 0
M  V30 3030 C 296.552 -1.76446 -1.46286 0
M  V30 3031 C 297.565 -0.645322 -1.49464 0
M  V30 3032 O 298.754 -0.921681 -1.52864 0
M  V30 3033 C 295.854 -1.83332 -2.85031 0
M  V30 3034 C 295.027 -3.13033 -3.05498 0
M  V30 3035 C 294.086 -3.11104 -4.24383 0
M  V30 3036 O 293.112 -3.84888 -4.19344 0
M  V30 3037 N 294.314 -2.32234 -5.32022 0
M  V30 3038 H 297.079 -2.71508 -1.26899 0
M  V30 3039 H 294.64 -1.52238 -0.550915 0
M  V30 3040 H 296.632 -1.79514 -3.62708 0
M  V30 3041 H 295.202 -0.955342 -2.97644 0
M  V30 3042 H 294.422 -3.30119 -2.15442 0
M  V30 3043 H 295.71 -3.9874 -3.16044 0
M  V30 3044 H 295.108 -1.71807 -5.38979 0
M  V30 3045 H 293.665 -2.3423 -6.08259 0
M  V30 3046 N 297.098 0.621204 -1.44841 0
M  V30 3047 C 298.347 1.37658 -1.47422 0
M  V30 3048 C 298.66 1.95264 -0.114629 0
M  V30 3049 O 299.866 2.71494 -0.0180199 0
M  V30 3050 C 298.322 2.49285 -2.59586 0
M  V30 3051 C 297.93 1.98149 -4.01797 0
M  V30 3052 C 299.674 3.26409 -2.71399 0
M  V30 3053 C 297.581 3.07178 -5.05367 0
M  V30 3054 H 296.511 0.517344 -0.548517 0
M  V30 3055 H 299.162 0.667257 -1.70938 0
M  V30 3056 H 297.544 3.22839 -2.29328 0
M  V30 3057 H 298.718 1.31395 -4.41669 0
M  V30 3058 H 297.033 1.33812 -3.94314 0
M  V30 3059 H 299.63 4.07706 -3.45948 0
M  V30 3060 H 299.973 3.76535 -1.77559 0
M  V30 3061 H 300.506 2.5995 -3.01116 0
M  V30 3062 H 297.245 2.61985 -6.00869 0
M  V30 3063 H 296.765 3.72542 -4.70077 0
M  V30 3064 H 298.444 3.71789 -5.29511 0
M  V30 3065 N 298.576 1.31904 0.862503 0
M  V30 3066 C 299.506 1.22782 1.98612 0
M  V30 3067 C 300.487 0.113362 1.69722 0
M  V30 3068 O 301.672 0.299218 1.91881 0
M  V30 3069 C 298.802 0.942058 3.34279 0
M  V30 3070 C 297.756 2.0169 3.77499 0
M  V30 3071 C 297.082 1.58369 5.10709 0
M  V30 3072 C 298.382 3.43096 3.93805 0
M  V30 3073 H 300.076 2.16788 2.06502 0
M  V30 3074 H 297.622 1.04366 0.992154 0
M  V30 3075 H 299.575 0.864818 4.1243 0
M  V30 3076 H 298.299 -0.0336603 3.26583 0
M  V30 3077 H 296.958 2.08416 3.01593 0
M  V30 3078 H 296.606 0.595628 4.99461 0
M  V30 3079 H 296.306 2.30279 5.40597 0
M  V30 3080 H 297.83 1.52067 5.91361 0
M  V30 3081 H 299.244 3.39003 4.62331 0
M  V30 3082 H 297.641 4.13288 4.35101 0
M  V30 3083 H 298.711 3.83334 2.96957 0
M  V30 3084 N 300.054 -1.07777 1.14986 0
M  V30 3085 C 301.465 -1.61766 0.932127 0
M  V30 3086 C 301.816 -1.88974 -0.527581 0
M  V30 3087 O 300.941 -1.65198 -1.39781 0
M  V30 3088 C 301.536 -2.93891 1.68563 0
M  V30 3089 C 300.095 -3.44639 1.5133 0
M  V30 3090 C 299.242 -2.18767 1.704 0
M  V30 3091 H 302.193 -0.909201 1.30074 0
M  V30 3092 H 302.214 -3.62623 1.15259 0
M  V30 3093 H 301.726 -2.74057 2.74799 0
M  V30 3094 H 299.827 -3.69564 0.474702 0
M  V30 3095 H 299.94 -4.20966 2.28746 0
M  V30 3096 H 298.304 -2.28253 1.13016 0
M  V30 3097 H 299.087 -2.01433 2.77992 0
M  V30 3098 N 301.532 -0.945985 -1.26051 0
M  V30 3099 C 302.464 -0.416662 -2.25381 0
M  V30 3100 C 303.477 0.462712 -1.56086 0
M  V30 3101 O 304.666 0.272383 -1.7641 0
M  V30 3102 C 301.766 0.419812 -3.3629 0
M  V30 3103 C 300.939 -0.444531 -4.35135 0
M  V30 3104 C 299.998 0.332305 -5.2515 0
M  V30 3105 O 299.024 -0.266324 -5.68577 0
M  V30 3106 N 300.226 1.62763 -5.57215 0
M  V30 3107 H 302.991 -1.27059 -2.71433 0
M  V30 3108 H 300.552 -0.815392 -1.39868 0
M  V30 3109 H 302.544 0.947013 -3.93464 0
M  V30 3110 H 301.114 1.17456 -2.89694 0
M  V30 3111 H 300.334 -1.15291 -3.76964 0
M  V30 3112 H 301.622 -1.03478 -4.98166 0
M  V30 3113 H 301.02 2.13603 -5.23823 0
M  V30 3114 H 299.577 2.10097 -6.17011 0
M  V30 3115 N 303.011 1.40521 -0.713556 0
M  V30 3116 C 303.941 2.33381 -0.0743864 0
M  V30 3117 C 304.922 1.52784 0.747735 0
M  V30 3118 O 306.107 1.81258 0.697071 0
M  V30 3119 C 303.237 3.36748 0.849598 0
M  V30 3120 C 302.191 4.27793 0.133247 0
M  V30 3121 C 301.517 5.21679 1.17281 0
M  V30 3122 C 302.817 5.12415 -1.01134 0
M  V30 3123 H 304.511 2.87081 -0.850007 0
M  V30 3124 H 302.057 1.38034 -0.410201 0
M  V30 3125 H 304.01 4.00648 1.30612 0
M  V30 3126 H 302.734 2.81439 1.65709 0
M  V30 3127 H 301.393 3.65342 -0.303426 0
M  V30 3128 H 301.041 4.62677 1.9733 0
M  V30 3129 H 300.741 5.83435 0.698397 0
M  V30 3130 H 302.265 5.88456 1.62947 0
M  V30 3131 H 303.679 5.69781 -0.634274 0
M  V30 3132 H 302.076 5.83203 -1.41399 0
M  V30 3133 H 303.146 4.48514 -1.84292 0
M  V30 3134 N 304.489 0.459591 1.5075 0
M  V30 3135 C 305.714 -0.0996819 2.0716 0
M  V30 3136 C 306.139 -1.33761 1.32249 0
M  V30 3137 O 305.497 -1.77551 0.366786 0
M  V30 3138 C 305.545 -0.378226 3.58611 0
M  V30 3139 O 304.649 -1.46081 3.85661 0
M  V30 3140 H 303.99 0.00791392 0.663953 0
M  V30 3141 H 306.52 0.647329 1.9409 0
M  V30 3142 H 306.53 -0.622135 4.03229 0
M  V30 3143 H 305.205 0.526439 4.12555 0
M  V30 3144 H 303.782 -1.20511 3.5289 0
M  V30 3145 N 305.967 -1.56429 0.191757 0
M  V30 3146 C 307.378 -1.83912 -0.321428 0
M  V30 3147 C 307.729 -1.11231 -1.61623 0
M  V30 3148 O 306.854 -0.37202 -2.13178 0
M  V30 3149 C 307.449 -3.33624 -0.589961 0
M  V30 3150 C 306.008 -3.6153 -1.04753 0
M  V30 3151 C 305.155 -2.7714 -0.0943327 0
M  V30 3152 H 308.106 -1.53161 0.415612 0
M  V30 3153 H 308.127 -3.52213 -1.43966 0
M  V30 3154 H 307.639 -3.86495 0.352588 0
M  V30 3155 H 305.74 -3.14089 -2.00447 0
M  V30 3156 H 305.853 -4.69737 -0.942549 0
M  V30 3157 H 304.217 -2.47638 -0.595589 0
M  V30 3158 H 305 -3.32799 0.842601 0
M  V30 3159 N 307.445 0.0818655 -1.57387 0
M  V30 3160 C 308.355 1.11642 -2.06333 0
M  V30 3161 C 309.371 1.43033 -0.99083 0
M  V30 3162 O 310.547 1.53411 -1.30488 0
M  V30 3163 C 307.612 2.41342 -2.48907 0
M  V30 3164 C 306.673 2.17014 -3.7041 0
M  V30 3165 C 305.906 3.4053 -4.10944 0
M  V30 3166 O 306.129 4.4927 -3.51444 0
M  V30 3167 O 305.063 3.29336 -5.03807 0
M  V30 3168 H 308.889 0.730657 -2.9478 0
M  V30 3169 H 306.474 0.295301 -1.46452 0
M  V30 3170 H 308.356 3.17691 -2.76858 0
M  V30 3171 H 307.031 2.79319 -1.63593 0
M  V30 3172 H 305.938 1.38403 -3.47556 0
M  V30 3173 H 307.271 1.83923 -4.56545 0
M  V30 3174 N 308.923 1.53595 0.353017 0
M  V30 3175 C 309.855 1.77219 1.45348 0
M  V30 3176 C 310.868 0.65324 1.49119 0
M  V30 3177 O 312.057 0.929775 1.52373 0
M  V30 3178 C 309.157 1.84841 2.84055 0
M  V30 3179 C 308.33 3.14649 3.03833 0
M  V30 3180 C 307.389 3.13351 4.22727 0
M  V30 3181 O 306.415 3.87107 4.17297 0
M  V30 3182 N 307.617 2.35052 5.30783 0
M  V30 3183 H 310.382 2.72178 1.25457 0
M  V30 3184 H 307.943 1.52528 0.542833 0
M  V30 3185 H 309.935 1.81435 3.61751 0
M  V30 3186 H 308.505 0.971114 2.97133 0
M  V30 3187 H 307.725 3.31256 2.13689 0
M  V30 3188 H 309.013 4.00411 3.13925 0
M  V30 3189 H 308.411 1.74663 5.38061 0
M  V30 3190 H 306.968 2.37453 6.07009 0
M  V30 3191 N 310.401 -0.613514 1.45168 0
M  V30 3192 C 311.331 -1.7354 1.56225 0
M  V30 3193 C 312.312 -1.64981 0.41414 0
M  V30 3194 O 313.497 -1.83472 0.636526 0
M  V30 3195 C 310.627 -3.12128 1.52295 0
M  V30 3196 C 309.581 -3.35491 2.65762 0
M  V30 3197 C 308.907 -4.74291 2.46885 0
M  V30 3198 C 310.207 -3.26325 4.0781 0
M  V30 3199 H 311.901 -1.64543 2.50132 0
M  V30 3200 H 309.447 -0.790185 1.20383 0
M  V30 3201 H 311.4 -3.90404 1.58628 0
M  V30 3202 H 310.124 -3.2195 0.549139 0
M  V30 3203 H 308.783 -2.59603 2.58847 0
M  V30 3204 H 308.431 -4.80839 1.47657 0
M  V30 3205 H 308.131 -4.9088 3.22972 0
M  V30 3206 H 309.655 -5.54775 2.55063 0
M  V30 3207 H 311.069 -3.94483 4.16 0
M  V30 3208 H 309.466 -3.54445 4.8424 0
M  V30 3209 H 310.536 -2.23855 4.30136 0
M  V30 3210 N 311.879 -1.3236 -0.855495 0
M  V30 3211 C 313.127 -1.22629 -1.60644 0
M  V30 3212 C 313.448 0.212136 -1.93843 0
M  V30 3213 O 312.718 1.13666 -1.59552 0
M  V30 3214 H 311.298 -0.450882 -0.595579 0
M  V30 3215 H 313.96 -1.65871 -1.02337 0
M  V30 3216 H 313.056 -1.80832 -2.54374 0
M  V30 3217 N 313.357 1.07166 -1.15556 0
M  V30 3218 C 314.29 2.13808 -0.797593 0
M  V30 3219 C 315.268 1.6101 0.226812 0
M  V30 3220 O 316.452 1.88161 0.112932 0
M  V30 3221 C 313.579 3.38187 -0.186371 0
M  V30 3222 C 312.625 4.09766 -1.18297 0
M  V30 3223 S 313.458 4.60932 -2.72584 0
M  V30 3224 C 314.614 5.88583 -2.12886 0
M  V30 3225 H 314.847 2.43843 -1.70083 0
M  V30 3226 H 312.38 1.19467 -0.978106 0
M  V30 3227 H 314.338 4.10189 0.159837 0
M  V30 3228 H 312.999 3.06326 0.694489 0
M  V30 3229 H 312.192 4.99065 -0.703562 0
M  V30 3230 H 311.794 3.43736 -1.47381 0
M  V30 3231 H 314.086 6.60866 -1.49208 0
M  V30 3232 H 315.029 6.41241 -3.0036 0
M  V30 3233 H 315.437 5.42194 -1.57116 0
M  V30 3234 N 314.835 0.952656 1.25548 0
M  V30 3235 C 316.084 0.602053 1.92505 0
M  V30 3236 C 316.397 -0.864663 1.75451 0
M  V30 3237 O 317.603 -1.32514 2.36965 0
M  V30 3238 C 316.059 1.02607 3.44963 0
M  V30 3239 C 315.667 2.51519 3.70732 0
M  V30 3240 C 317.411 0.747905 4.1786 0
M  V30 3241 C 315.318 2.87732 5.16686 0
M  V30 3242 H 314.248 0.22146 0.720744 0
M  V30 3243 H 316.899 1.15684 1.42441 0
M  V30 3244 H 315.281 0.399712 3.93978 0
M  V30 3245 H 316.455 3.19157 3.32378 0
M  V30 3246 H 314.77 2.76786 3.11092 0
M  V30 3247 H 317.367 0.994647 5.25367 0
M  V30 3248 H 317.71 -0.315629 4.15102 0
M  V30 3249 H 318.243 1.33452 3.74747 0
M  V30 3250 H 314.982 3.93095 5.24554 0
M  V30 3251 H 314.502 2.24765 5.56094 0
M  V30 3252 H 316.181 2.76817 5.84792 0
M  V30 3253 N 316.313 -1.40141 0.720998 0
M  V30 3254 C 317.223 -2.34486 0.0731031 0
M  V30 3255 C 318.239 -1.57587 -0.737723 0
M  V30 3256 O 319.415 -1.89949 -0.669429 0
M  V30 3257 C 316.48 -3.36528 -0.833656 0
M  V30 3258 C 315.541 -4.29298 -0.0121673 0
M  V30 3259 C 314.774 -5.26466 -0.875742 0
M  V30 3260 O 314.997 -5.29745 -2.11485 0
M  V30 3261 O 313.931 -6.01092 -0.31185 0
M  V30 3262 H 317.757 -2.9152 0.851444 0
M  V30 3263 H 315.342 -1.41427 0.481527 0
M  V30 3264 H 317.224 -3.99093 -1.35289 0
M  V30 3265 H 315.899 -2.81899 -1.59105 0
M  V30 3266 H 314.806 -3.70001 0.552262 0
M  V30 3267 H 316.139 -4.87094 0.707129 0
M  V30 3268 N 317.792 -0.46758 -1.50504 0
M  V30 3269 C 318.739 0.328413 -2.28452 0
M  V30 3270 C 319.709 0.990313 -1.33349 0
M  V30 3271 O 320.894 1.00343 -1.62284 0
M  V30 3272 C 318.034 1.40648 -3.15138 0
M  V30 3273 C 317.147 0.759709 -4.25267 0
M  V30 3274 C 316.282 1.81537 -4.99217 0
M  V30 3275 C 315.321 1.14866 -6.01226 0
M  V30 3276 N 314.458 2.14702 -6.68467 0
M  V30 3277 H 319.298 -0.342603 -2.96024 0
M  V30 3278 H 316.835 -0.180801 -1.45985 0
M  V30 3279 H 318.793 2.04315 -3.63746 0
M  V30 3280 H 317.423 2.04671 -2.49619 0
M  V30 3281 H 316.475 0.0105671 -3.80399 0
M  V30 3282 H 317.787 0.233243 -4.98254 0
M  V30 3283 H 316.941 2.52793 -5.51526 0
M  V30 3284 H 315.68 2.37564 -4.25928 0
M  V30 3285 H 314.685 0.42171 -5.4818 0
M  V30 3286 H 315.91 0.595334 -6.76485 0
M  V30 3287 H 313.856 2.69752 -5.97972 0
M  V30 3288 H 313.773 1.6703 -7.37317 0
M  V30 3289 H 315.041 2.85348 -7.25394 0
M  V30 3290 N 319.27 1.56325 -0.20005 0
M  V30 3291 C 320.2 2.22318 0.713916 0
M  V30 3292 C 321.181 1.18788 1.21752 0
M  V30 3293 O 322.366 1.47309 1.26545 0
M  V30 3294 C 319.496 2.88639 1.93144 0
M  V30 3295 C 318.45 3.98457 1.56255 0
M  V30 3296 C 317.776 4.51967 2.85709 0
M  V30 3297 C 319.076 5.16612 0.768747 0
M  V30 3298 H 320.77 2.98952 0.163755 0
M  V30 3299 H 318.316 1.43792 0.0773219 0
M  V30 3300 H 320.269 3.33491 2.57608 0
M  V30 3301 H 318.993 2.09419 2.50621 0
M  V30 3302 H 317.652 3.54305 0.941471 0
M  V30 3303 H 317.3 3.69503 3.41287 0
M  V30 3304 H 317 5.26071 2.6177 0
M  V30 3305 H 318.524 4.99523 3.51154 0
M  V30 3306 H 319.938 5.57977 1.3166 0
M  V30 3307 H 318.335 5.96812 0.627286 0
M  V30 3308 H 319.405 4.84358 -0.229168 0
M  V30 3309 N 320.748 -0.0735177 1.57428 0
M  V30 3310 C 321.994 -0.774145 1.87443 0
M  V30 3311 C 322.327 -1.77311 0.792103 0
M  V30 3312 O 321.602 -1.93492 -0.197793 0
M  V30 3313 C 321.885 -1.48367 3.28115 0
M  V30 3314 C 321.738 -0.501227 4.46999 0
M  V30 3315 C 323.057 -2.429 3.66998 0
M  V30 3316 H 320.176 -0.279971 0.681752 0
M  V30 3317 H 322.818 -0.0373616 1.89963 0
M  V30 3318 H 320.968 -2.11171 3.26097 0
M  V30 3319 H 322.64 0.121468 4.6114 0
M  V30 3320 H 320.883 0.183593 4.33411 0
M  V30 3321 H 321.554 -1.03526 5.42205 0
M  V30 3322 H 324.03 -1.90175 3.70098 0
M  V30 3323 H 322.906 -2.89549 4.66318 0
M  V30 3324 H 323.167 -3.27628 2.96837 0
M  V30 3325 N 322.226 -1.5378 -0.344866 0
M  V30 3326 C 323.189 -1.80981 -1.40637 0
M  V30 3327 C 324.189 -0.680816 -1.45676 0
M  V30 3328 O 325.379 -0.949095 -1.46075 0
M  V30 3329 C 322.511 -1.95063 -2.79577 0
M  V30 3330 H 323.704 -2.75803 -1.17783 0
M  V30 3331 H 321.257 -1.45173 -0.579181 0
M  V30 3332 H 321.992 -1.02379 -3.07716 0
M  V30 3333 H 321.777 -2.77198 -2.77315 0
M  V30 3334 H 323.267 -2.17629 -3.56409 0
M  V30 3335 N 323.704 0.605807 -1.45491 0
M  V30 3336 C 324.667 1.69836 -1.5391 0
M  V30 3337 C 325.667 1.55261 -0.418424 0
M  V30 3338 O 326.857 1.60296 -0.681965 0
M  V30 3339 C 323.989 3.09117 -1.43734 0
M  V30 3340 H 325.182 1.63738 -2.51257 0
M  V30 3341 H 322.735 0.821689 -1.32959 0
M  V30 3342 H 323.47 3.20791 -0.475788 0
M  V30 3343 H 323.255 3.21104 -2.25021 0
M  V30 3344 H 324.745 3.88696 -1.52661 0
M  V30 3345 N 325.182 1.32811 0.848464 0
M  V30 3346 C 326.114 1.18095 1.96433 0
M  V30 3347 C 327.127 0.114354 1.62398 0
M  V30 3348 O 328.316 0.363892 1.74751 0
M  V30 3349 C 325.416 0.786798 3.2964 0
M  V30 3350 C 324.589 1.943 3.91875 0
M  V30 3351 C 323.648 1.53138 5.03423 0
M  V30 3352 O 322.674 2.24432 5.23086 0
M  V30 3353 N 323.876 0.430915 5.78898 0
M  V30 3354 H 326.641 2.14218 2.09597 0
M  V30 3355 H 324.202 1.2543 1.02367 0
M  V30 3356 H 326.194 0.493715 4.01677 0
M  V30 3357 H 324.764 -0.0834541 3.12489 0
M  V30 3358 H 323.984 2.40224 3.12547 0
M  V30 3359 H 325.272 2.71689 4.30189 0
M  V30 3360 H 324.67 -0.162333 5.65467 0
M  V30 3361 H 323.227 0.197466 6.51501 0
M  V30 3362 N 326.66 -1.06551 1.16123 0
M  V30 3363 C 327.592 -2.13908 0.823171 0
M  V30 3364 C 328.605 -1.61926 -0.16843 0
M  V30 3365 O 329.794 -1.78412 0.055962 0
M  V30 3366 C 326.894 -3.38283 0.204424 0
M  V30 3367 C 326.067 -4.19589 1.23548 0
M  V30 3368 C 325.126 -5.2233 0.637011 0
M  V30 3369 O 324.152 -5.54034 1.30516 0
M  V30 3370 N 325.354 -5.77621 -0.577474 0
M  V30 3371 H 328.119 -2.43508 1.74711 0
M  V30 3372 H 325.68 -1.2253 1.05821 0
M  V30 3373 H 327.672 -4.0416 -0.208909 0
M  V30 3374 H 326.242 -3.06329 -0.623012 0
M  V30 3375 H 325.462 -3.49406 1.82507 0
M  V30 3376 H 326.75 -4.70718 1.93137 0
M  V30 3377 H 326.148 -5.54125 -1.13853 0
M  V30 3378 H 324.705 -6.45087 -0.933053 0
M  V30 3379 N 328.138 -0.959301 -1.25041 0
M  V30 3380 C 329.07 -0.440543 -2.24926 0
M  V30 3381 C 330.083 0.446131 -1.56568 0
M  V30 3382 O 331.272 0.253657 -1.76689 0
M  V30 3383 C 328.372 0.38412 -3.36716 0
M  V30 3384 C 327.545 -0.490658 -4.34639 0
M  V30 3385 C 326.604 0.276587 -5.25473 0
M  V30 3386 O 325.63 -0.326614 -5.68262 0
M  V30 3387 N 326.832 1.56844 -5.5891 0
M  V30 3388 H 329.597 -1.29931 -2.70071 0
M  V30 3389 H 327.158 -0.830181 -1.38995 0
M  V30 3390 H 329.15 0.905228 -3.94446 0
M  V30 3391 H 327.72 1.14377 -2.90924 0
M  V30 3392 H 326.94 -1.19282 -3.7572 0
M  V30 3393 H 328.228 -1.08756 -4.97041 0
M  V30 3394 H 327.626 2.08036 -5.26059 0
M  V30 3395 H 326.183 2.03541 -6.19205 0
M  V30 3396 N 329.616 1.39756 -0.72842 0
M  V30 3397 C 330.856 2.025 -0.278078 0
M  V30 3398 C 331.22 1.5654 1.11173 0
M  V30 3399 O 332.421 2.11435 1.65978 0
M  V30 3400 C 330.692 3.55489 -0.369139 0
M  V30 3401 S 332.251 4.388 0.00232983 0
M  V30 3402 H 329.069 0.702534 -0.109391 0
M  V30 3403 H 331.671 1.70672 -0.95348 0
M  V30 3404 H 330.375 3.86429 -1.38204 0
M  V30 3405 H 329.906 3.92061 0.324308 0
M  V30 3406 H 331.921 4.80954 1.22055 0
M  V30 3407 N 331.094 0.475555 1.50254 0
M  V30 3408 C 332.042 -0.330276 2.30243 0
M  V30 3409 C 333.036 -0.986306 1.37726 0
M  V30 3410 O 334.242 -0.9169 1.54897 0
M  V30 3411 H 330.617 -0.125353 0.741479 0
M  V30 3412 H 332.588 0.364702 2.96163 0
M  V30 3413 C 331.337 -1.39704 3.18399 0
M  V30 3414 H 330.66 -0.901621 3.89501 0
M  V30 3415 H 332.1 -1.93336 3.77355 0
M  V30 3416 C 330.559 -2.4014 2.36293 0
M  V30 3417 O 331.089 -3.45504 2.04914 0
M  V30 3418 N 329.295 -2.1197 1.98789 0
M  V30 3419 H 328.842 -1.2631 2.24507 0
M  V30 3420 H 328.8 -2.79403 1.44157 0
M  V30 3421 N 332.573 -1.56217 0.208337 0
M  V30 3422 C 333.989 -1.58919 -0.14729 0
M  V30 3423 C 334.189 -1.22486 -1.59998 0
M  V30 3424 O 333.245 -0.953849 -2.3379 0
M  V30 3425 C 334.558 -3.00236 0.167048 0
M  V30 3426 C 336.106 -3.12813 0.108219 0
M  V30 3427 C 336.581 -4.56284 0.396049 0
M  V30 3428 N 338.072 -4.61912 0.345142 0
M  V30 3429 C 338.807 -5.70837 0.541523 0
M  V30 3430 N 338.303 -6.88178 0.798968 0
M  V30 3431 N 340.096 -5.60091 0.474867 0
M  V30 3432 H 332.247 -1.78177 1.15614 0
M  V30 3433 H 334.51 -0.827555 0.462446 0
M  V30 3434 H 334.216 -3.31499 1.1748 0
M  V30 3435 H 334.09 -3.7354 -0.524184 0
M  V30 3436 H 336.477 -2.81354 -0.890157 0
M  V30 3437 H 336.558 -2.41866 0.832729 0
M  V30 3438 H 336.202 -4.88458 1.3918 0
M  V30 3439 H 336.132 -5.25439 -0.349502 0
M  V30 3440 H 338.623 -3.77589 0.153316 0
M  V30 3441 H 338.936 -7.67095 0.93727 0
M  V30 3442 H 337.281 -6.89953 0.836013 0
M  V30 3443 H 340.472 -4.67297 0.274064 0
M  V30 3444 H 340.645 -6.44917 0.631326 0
M  V30 3445 N 334.051 0.0651679 -1.57465 0
M  V30 3446 C 335.467 0.420105 -1.53972 0
M  V30 3447 C 335.667 1.78782 -0.929474 0
M  V30 3448 O 334.723 2.46771 -0.534839 0
M  V30 3449 C 336.036 0.355084 -2.98596 0
M  V30 3450 C 337.584 0.434792 -3.09965 0
M  V30 3451 C 338.059 0.399609 -4.56253 0
M  V30 3452 N 339.55 0.459488 -4.60915 0
M  V30 3453 C 340.285 0.454584 -5.71595 0
M  V30 3454 N 339.781 0.404102 -6.9162 0
M  V30 3455 N 341.574 0.501635 -5.59857 0
M  V30 3456 H 333.725 -0.830328 -1.95498 0
M  V30 3457 H 335.988 -0.312244 -0.895102 0
M  V30 3458 H 335.694 -0.583357 -3.46828 0
M  V30 3459 H 335.568 1.16275 -3.58831 0
M  V30 3460 H 337.955 1.36366 -2.61703 0
M  V30 3461 H 338.036 -0.40157 -2.52628 0
M  V30 3462 H 337.68 -0.525436 -5.05175 0
M  V30 3463 H 337.61 1.25359 -5.11461 0
M  V30 3464 H 340.101 0.502482 -3.74544 0
M  V30 3465 H 340.414 0.404468 -7.71741 0
M  V30 3466 H 338.759 0.37069 -6.94011 0
M  V30 3467 H 341.95 0.538812 -4.64989 0
M  V30 3468 H 342.123 0.494345 -6.46112 0
M  V30 3469 N 335.529 1.53961 0.336706 0
M  V30 3470 C 336.754 1.75797 1.10046 0
M  V30 3471 C 337.179 0.498985 1.81361 0
M  V30 3472 O 336.537 -0.548769 1.72795 0
M  V30 3473 C 336.585 2.94257 2.08436 0
M  V30 3474 O 335.689 2.64883 3.16087 0
M  V30 3475 H 335.03 0.582936 0.317934 0
M  V30 3476 H 337.56 2.00945 0.38501 0
M  V30 3477 H 337.57 3.21237 2.51537 0
M  V30 3478 H 336.245 3.85564 1.55927 0
M  V30 3479 H 334.822 2.48812 2.77753 0
M  V30 3480 N 337.007 -0.598083 1.45811 0
M  V30 3481 C 338.254 -1.35681 1.50323 0
M  V30 3482 C 338.582 -1.9393 0.148739 0
M  V30 3483 O 337.837 -1.76094 -0.853787 0
M  V30 3484 C 338.136 -2.51669 2.53766 0
M  V30 3485 C 337.802 -2.11508 3.98215 0
M  V30 3486 C 336.464 -2.0027 4.37545 0
M  V30 3487 C 338.816 -1.80308 4.89018 0
M  V30 3488 C 336.144 -1.56067 5.65562 0
M  V30 3489 C 338.496 -1.37589 6.17456 0
M  V30 3490 C 337.16 -1.24916 6.55708 0
M  V30 3491 H 336.43 -0.496492 0.550069 0
M  V30 3492 H 339.077 -0.675052 1.79207 0
M  V30 3493 H 337.382 -3.25225 2.18486 0
M  V30 3494 H 339.079 -3.09895 2.54492 0
M  V30 3495 H 335.669 -2.21185 3.67117 0
M  V30 3496 H 339.853 -1.87884 4.59362 0
M  V30 3497 H 335.109 -1.44886 5.93985 0
M  V30 3498 H 339.283 -1.12495 6.87254 0
M  V30 3499 H 336.91 -0.904386 7.54801 0
M  V30 3500 N 338.485 -1.33259 -0.841409 0
M  V30 3501 C 339.71 -1.2775 -1.63385 0
M  V30 3502 C 340.135 0.149188 -1.87507 0
M  V30 3503 O 339.493 1.10498 -1.43736 0
M  V30 3504 C 339.541 -2.05571 -2.96265 0
M  V30 3505 O 338.645 -1.41257 -3.87453 0
M  V30 3506 H 337.986 -0.439627 -0.497618 0
M  V30 3507 H 340.516 -1.75782 -1.04699 0
M  V30 3508 H 340.526 -2.16241 -3.45982 0
M  V30 3509 H 339.201 -3.09309 -2.7803 0
M  V30 3510 H 337.778 -1.39217 -3.45938 0
M  V30 3511 N 339.963 1.05934 -1.16686 0
M  V30 3512 C 341.24 1.75643 -0.860747 0
M  V30 3513 C 341.62 2.01144 0.640641 0
M  V30 3514 O 340.968 1.64147 1.58959 0
M  V30 3515 C 341.178 3.05493 -1.68745 0
M  V30 3516 C 342.526 3.79581 -1.90271 0
M  V30 3517 O 343.55 3.15344 -1.65641 0
M  V30 3518 O 342.409 4.9499 -2.31618 0
M  V30 3519 H 339.503 0.763426 -0.317977 0
M  V30 3520 H 342.049 1.1217 -1.27342 0
M  V30 3521 H 340.821 2.8264 -2.70611 0
M  V30 3522 H 340.444 3.76702 -1.27206 0
M  V30 3523 N 341.441 0.965919 1.2453 0
M  V30 3524 C 342.857 0.67216 1.44756 0
M  V30 3525 C 343.057 -0.766609 1.86347 0
M  V30 3526 O 342.113 -1.5407 2.00047 0
M  V30 3527 C 343.426 1.65473 2.51076 0
M  V30 3528 C 344.974 1.66716 2.64905 0
M  V30 3529 C 345.449 2.63766 3.74421 0
M  V30 3530 N 346.94 2.62198 3.81846 0
M  V30 3531 C 347.675 3.33966 4.66106 0
M  V30 3532 N 347.171 4.15245 5.54566 0
M  V30 3533 N 348.964 3.22799 4.60171 0
M  V30 3534 H 341.115 1.89553 0.958293 0
M  V30 3535 H 343.378 0.815979 0.482579 0
M  V30 3536 H 343.084 2.68296 2.27399 0
M  V30 3537 H 342.958 1.4261 3.49202 0
M  V30 3538 H 345.345 0.646057 2.87941 0
M  V30 3539 H 345.426 1.93642 1.67142 0
M  V30 3540 H 345.07 3.6601 3.52135 0
M  V30 3541 H 345 2.34121 4.71694 0
M  V30 3542 H 347.491 2.032 3.18619 0
M  V30 3543 H 347.804 4.66898 6.15814 0
M  V30 3544 H 346.149 4.1934 5.54237 0
M  V30 3545 H 349.34 2.58764 3.90075 0
M  V30 3546 H 349.513 3.78994 5.25612 0
M  V30 3547 N 342.919 -1.39368 0.735821 0
M  V30 3548 C 343.849 -2.33234 0.111506 0
M  V30 3549 C 344.83 -1.53954 -0.723334 0
M  V30 3550 O 346.015 -1.82344 -0.668147 0
M  V30 3551 C 343.145 -3.38057 -0.795917 0
M  V30 3552 C 342.099 -4.2795 -0.065172 0
M  V30 3553 C 341.425 -5.23479 -1.08967 0
M  V30 3554 C 342.725 -5.10741 1.09273 0
M  V30 3555 H 344.419 -2.85692 0.895571 0
M  V30 3556 H 341.965 -1.37364 0.432109 0
M  V30 3557 H 343.918 -4.02675 -1.24221 0
M  V30 3558 H 342.642 -2.8404 -1.61211 0
M  V30 3559 H 341.301 -3.64813 0.361511 0
M  V30 3560 H 340.949 -4.65758 -1.89944 0
M  V30 3561 H 340.649 -5.84472 -0.605489 0
M  V30 3562 H 342.173 -5.90974 -1.53565 0
M  V30 3563 H 343.587 -5.68699 0.724841 0
M  V30 3564 H 341.984 -5.8088 1.50659 0
M  V30 3565 H 343.054 -4.45525 1.91404 0
M  V30 3566 N 344.397 -0.483516 -1.5 0
M  V30 3567 C 345.813 -0.138404 -1.58999 0
M  V30 3568 C 346.013 1.35597 -1.4905 0
M  V30 3569 O 345.069 2.13039 -1.35539 0
M  V30 3570 C 346.382 -0.699658 -2.92447 0
M  V30 3571 C 347.93 -0.664195 -3.05872 0
M  V30 3572 C 348.405 -1.20321 -4.41913 0
M  V30 3573 N 349.896 -1.16315 -4.48358 0
M  V30 3574 C 350.631 -1.55058 -5.52037 0
M  V30 3575 N 350.127 -2.01311 -6.62907 0
M  V30 3576 N 351.92 -1.46584 -5.42651 0
M  V30 3577 H 344.071 -1.45529 -1.5471 0
M  V30 3578 H 346.334 -0.60258 -0.731848 0
M  V30 3579 H 346.04 -1.747 -3.05242 0
M  V30 3580 H 345.914 -0.150194 -3.76901 0
M  V30 3581 H 348.301 0.374272 -2.92717 0
M  V30 3582 H 348.382 -1.25061 -2.23144 0
M  V30 3583 H 348.026 -2.24037 -4.55818 0
M  V30 3584 H 347.956 -0.592896 -5.23252 0
M  V30 3585 H 350.447 -0.824058 -3.68806 0
M  V30 3586 H 350.76 -2.2899 -7.38095 0
M  V30 3587 H 349.105 -2.05273 -6.63994 0
M  V30 3588 H 352.296 -1.10281 -4.54924 0
M  V30 3589 H 352.469 -1.77103 -6.23329 0
M  V30 3590 N 345.875 1.56104 -0.216619 0
M  V30 3591 C 347.121 1.98466 0.417033 0
M  V30 3592 C 347.454 1.10403 1.59765 0
M  V30 3593 O 346.729 0.160632 1.93836 0
M  V30 3594 C 347.012 3.49769 0.85637 0
M  V30 3595 C 346.865 4.48606 -0.327546 0
M  V30 3596 C 348.184 4.05339 1.7143 0
M  V30 3597 H 345.303 0.721551 0.150112 0
M  V30 3598 H 347.945 1.87423 -0.311864 0
M  V30 3599 H 346.095 3.5931 1.47745 0
M  V30 3600 H 347.767 4.5108 -0.965618 0
M  V30 3601 H 346.01 4.22682 -0.975805 0
M  V30 3602 H 346.681 5.51995 0.0227149 0
M  V30 3603 H 349.157 3.98712 1.19031 0
M  V30 3604 H 348.033 5.11533 1.99061 0
M  V30 3605 H 348.294 3.51918 2.67593 0
M  V30 3606 N 347.353 -0.0568162 1.57498 0
M  V30 3607 C 348.581 -0.765626 1.92213 0
M  V30 3608 C 348.996 -1.70353 0.813961 0
M  V30 3609 O 348.353 -1.81268 -0.211701 0
M  V30 3610 C 348.404 -1.5465 3.2675 0
M  V30 3611 O 348.125 -0.646278 4.33307 0
M  V30 3612 C 349.626 -2.35497 3.75574 0
M  V30 3613 H 346.846 -0.216835 0.634999 0
M  V30 3614 H 349.39 -0.0226146 2.04487 0
M  V30 3615 H 347.545 -2.24165 3.15957 0
M  V30 3616 H 347.959 -1.19093 5.108 0
M  V30 3617 H 349.433 -2.85722 4.72299 0
M  V30 3618 H 349.91 -3.15692 3.05344 0
M  V30 3619 H 350.516 -1.7111 3.8936 0
M  V30 3620 N 348.832 -1.54138 -0.328536 0
M  V30 3621 C 350.243 -1.63395 -0.903272 0
M  V30 3622 C 350.594 -0.524828 -1.8905 0
M  V30 3623 O 349.719 0.343068 -2.13663 0
M  V30 3624 C 350.314 -2.9618 -1.64507 0
M  V30 3625 C 348.873 -3.0765 -2.1686 0
M  V30 3626 C 348.02 -2.58933 -0.992416 0
M  V30 3627 H 350.971 -1.58344 -0.106253 0
M  V30 3628 H 350.992 -2.86061 -2.50897 0
M  V30 3629 H 350.504 -3.76884 -0.926302 0
M  V30 3630 H 348.605 -2.31611 -2.91868 0
M  V30 3631 H 348.718 -4.1337 -2.42202 0
M  V30 3632 H 347.082 -2.14706 -1.37016 0
M  V30 3633 H 347.865 -3.42089 -0.288041 0
M  V30 3634 N 350.31 0.590341 -1.46126 0
M  V30 3635 C 351.556 1.34874 -1.52252 0
M  V30 3636 C 351.911 1.91658 -0.168807 0
M  V30 3637 O 351.204 1.73093 0.821556 0
M  V30 3638 C 351.398 2.5032 -2.55097 0
M  V30 3639 C 351.227 2.04843 -4.00337 0
M  V30 3640 C 349.997 1.90213 -4.68132 0
M  V30 3641 C 352.195 1.61267 -4.88362 0
M  V30 3642 N 350.177 1.38727 -5.9802 0
M  V30 3643 C 351.548 1.21319 -6.08015 0
M  V30 3644 C 353.603 1.49015 -4.75078 0
M  V30 3645 C 352.306 0.7034 -7.15852 0
M  V30 3646 C 354.332 0.994401 -5.8298 0
M  V30 3647 C 353.694 0.604659 -7.018 0
M  V30 3648 H 349.793 0.486803 -0.612002 0
M  V30 3649 H 352.377 0.673007 -1.82698 0
M  V30 3650 H 350.548 3.15466 -2.26574 0
M  V30 3651 H 352.28 3.1725 -2.51266 0
M  V30 3652 H 349.035 2.11927 -4.23537 0
M  V30 3653 H 349.459 1.15168 -6.67132 0
M  V30 3654 H 354.101 1.77768 -3.83612 0
M  V30 3655 H 351.819 0.403446 -8.07092 0
M  V30 3656 H 355.405 0.903621 -5.7474 0
M  V30 3657 H 354.285 0.226963 -7.83871 0
M  V30 3658 N 351.788 1.33704 0.83433 0
M  V30 3659 C 353.199 1.22813 1.4062 0
M  V30 3660 C 353.55 -0.151107 1.95617 0
M  V30 3661 O 352.675 -1.05092 1.89168 0
M  V30 3662 C 353.27 2.22355 2.55624 0
M  V30 3663 C 351.829 2.1529 3.08751 0
M  V30 3664 C 350.976 2.09589 1.8157 0
M  V30 3665 H 353.927 1.45236 0.639702 0
M  V30 3666 H 353.948 1.83391 3.33389 0
M  V30 3667 H 353.46 3.22728 2.15566 0
M  V30 3668 H 351.561 1.18235 3.53343 0
M  V30 3669 H 351.674 3.06038 3.68616 0
M  V30 3670 H 350.038 1.55134 2.02004 0
M  V30 3671 H 350.821 3.11777 1.43701 0
M  V30 3672 N 353.266 -1.05314 1.17247 0
M  V30 3673 C 354.199 -2.12512 0.831507 0
M  V30 3674 C 355.177 -1.61351 -0.201168 0
M  V30 3675 O 356.361 -1.88317 -0.0829831 0
M  V30 3676 C 353.488 -3.37848 0.24015 0
M  V30 3677 C 352.534 -4.07832 1.24801 0
M  V30 3678 S 353.367 -4.56537 2.79882 0
M  V30 3679 C 354.523 -5.85122 2.22223 0
M  V30 3680 H 354.756 -2.41106 1.7394 0
M  V30 3681 H 352.289 -1.17896 0.996988 0
M  V30 3682 H 354.247 -4.10391 -0.0945588 0
M  V30 3683 H 352.908 -3.07392 -0.645668 0
M  V30 3684 H 352.101 -4.97883 0.78287 0
M  V30 3685 H 351.703 -3.41348 1.52831 0
M  V30 3686 H 353.995 -6.58408 1.59703 0
M  V30 3687 H 354.938 -6.36381 3.10523 0
M  V30 3688 H 355.346 -5.39626 1.65722 0
M  V30 3689 N 354.744 -0.972509 -1.24016 0
M  V30 3690 C 355.707 -0.511403 -2.23422 0
M  V30 3691 C 356.707 0.394679 -1.55881 0
M  V30 3692 O 357.897 0.189469 -1.73167 0
M  V30 3693 C 355.029 0.258769 -3.39916 0
M  V30 3694 H 356.222 -1.39024 -2.6573 0
M  V30 3695 H 353.775 -0.757585 -1.36713 0
M  V30 3696 H 354.51 1.1545 -3.03054 0
M  V30 3697 H 354.295 -0.391522 -3.9014 0
M  V30 3698 H 355.785 0.570244 -4.13688 0
M  V30 3699 N 356.222 1.38976 -0.743202 0
M  V30 3700 C 357.633 1.83123 -0.363732 0
M  V30 3701 C 357.984 1.6205 1.10609 0
M  V30 3702 O 357.109 1.11606 1.854 0
M  V30 3703 C 357.704 3.32439 -0.653408 0
M  V30 3704 C 356.263 3.74974 -0.327338 0
M  V30 3705 C 355.41 2.61878 -0.911875 0
M  V30 3706 H 358.361 1.27852 -0.940191 0
M  V30 3707 H 358.382 3.80432 0.0720031 0
M  V30 3708 H 357.894 3.47745 -1.72323 0
M  V30 3709 H 355.995 3.65252 0.736314 0
M  V30 3710 H 356.108 4.72106 -0.815631 0
M  V30 3711 H 354.472 2.52448 -0.337944 0
M  V30 3712 H 355.255 2.79987 -1.98651 0
M  V30 3713 N 357.7 0.491464 1.49741 0
M  V30 3714 C 358.977 -0.118984 1.95238 0
M  V30 3715 C 359.357 -1.55044 1.43264 0
M  V30 3716 O 358.705 -2.19287 0.642287 0
M  V30 3717 C 358.915 -0.0414187 3.48975 0
M  V30 3718 C 360.263 -0.220133 4.24029 0
M  V30 3719 O 361.287 -0.117055 3.56008 0
M  V30 3720 O 360.146 -0.430567 5.44801 0
M  V30 3721 H 357.24 -0.100536 0.820866 0
M  V30 3722 H 359.786 0.553322 1.60426 0
M  V30 3723 H 358.558 0.957214 3.79412 0
M  V30 3724 H 358.181 -0.754292 3.9038 0
M  V30 3725 N 359.178 -1.55987 0.224894 0
M  V30 3726 C 360.589 -1.84553 -0.282345 0
M  V30 3727 C 360.94 -1.14634 -1.59227 0
M  V30 3728 O 360.065 -0.417155 -2.12341 0
M  V30 3729 C 360.66 -3.348 -0.519062 0
M  V30 3730 C 359.219 -3.63671 -0.970604 0
M  V30 3731 C 358.366 -2.77277 -0.0355261 0
M  V30 3732 H 361.317 -1.52245 0.448006 0
M  V30 3733 H 361.338 -3.55187 -1.36463 0
M  V30 3734 H 360.85 -3.8566 0.43449 0
M  V30 3735 H 358.951 -3.1827 -1.9374 0
M  V30 3736 H 359.064 -4.71631 -0.842698 0
M  V30 3737 H 357.428 -2.48846 -0.542927 0
M  V30 3738 H 358.211 -3.30937 0.913003 0
M  V30 3739 N 360.656 0.0484629 -1.57525 0
M  V30 3740 C 361.606 1.06246 -2.01732 0
M  V30 3741 C 362.59 1.33155 -0.903245 0
M  V30 3742 O 363.782 1.33065 -1.16717 0
M  V30 3743 C 360.911 2.36943 -2.48421 0
M  V30 3744 C 359.997 2.13208 -3.6661 0
M  V30 3745 N 360.388 1.5947 -4.80003 0
M  V30 3746 C 358.686 2.43581 -3.7361 0
M  V30 3747 C 359.387 1.51092 -5.61735 0
M  V30 3748 N 358.363 1.9797 -5.0627 0
M  V30 3749 H 362.165 0.640675 -2.86832 0
M  V30 3750 H 359.679 0.255134 -1.60383 0
M  V30 3751 H 361.676 3.10374 -2.78341 0
M  V30 3752 H 360.336 2.79818 -1.64718 0
M  V30 3753 H 361.347 1.28008 -5.01831 0
M  V30 3754 H 358.024 2.89662 -3.00669 0
M  V30 3755 H 359.414 1.10199 -6.62801 0
M  V30 3756 N 362.134 1.5431 0.320358 0
M  V30 3757 C 363.359 1.76954 1.08175 0
M  V30 3758 C 363.784 0.518193 1.80821 0
M  V30 3759 O 363.142 -0.530411 1.73368 0
M  V30 3760 C 363.19 2.96451 2.05303 0
M  V30 3761 O 362.294 2.68221 3.13259 0
M  V30 3762 H 361.635 0.586275 0.311733 0
M  V30 3763 H 364.165 2.01342 0.363676 0
M  V30 3764 H 364.175 3.23887 2.48116 0
M  V30 3765 H 362.85 3.87196 1.51829 0
M  V30 3766 H 361.427 2.51744 2.75099 0
M  V30 3767 N 363.613 -0.582584 1.46437 0
M  V30 3768 C 365.029 -0.905962 1.31394 0
M  V30 3769 C 365.229 -1.99468 0.285476 0
M  V30 3770 O 364.285 -2.50566 -0.311914 0
M  V30 3771 C 365.598 -1.3232 2.70022 0
M  V30 3772 C 367.146 -1.43604 2.78113 0
M  V30 3773 C 367.621 -1.88694 4.17323 0
M  V30 3774 N 369.112 -1.95887 4.19741 0
M  V30 3775 C 369.847 -2.32051 5.24347 0
M  V30 3776 N 369.343 -2.67006 6.39281 0
M  V30 3777 N 371.136 -2.32606 5.11713 0
M  V30 3778 H 363.287 0.1366 2.1196 0
M  V30 3779 H 365.55 -0.00155736 0.947999 0
M  V30 3780 H 365.256 -0.597242 3.46592 0
M  V30 3781 H 365.13 -2.28469 3.00136 0
M  V30 3782 H 367.517 -2.15286 2.01832 0
M  V30 3783 H 367.598 -0.457059 2.51684 0
M  V30 3784 H 367.242 -1.1759 4.941 0
M  V30 3785 H 367.172 -2.8755 4.4116 0
M  V30 3786 H 369.663 -1.71362 3.36814 0
M  V30 3787 H 369.976 -2.93554 7.14875 0
M  V30 3788 H 368.321 -2.64644 6.42642 0
M  V30 3789 H 371.512 -2.04721 4.2096 0
M  V30 3790 H 371.685 -2.60462 5.93349 0
M  V30 3791 N 365.091 -1.34144 -0.827227 0
M  V30 3792 C 366.001 -1.27428 -1.96975 0
M  V30 3793 C 367.017 -0.182728 -1.73038 0
M  V30 3794 O 368.193 -0.408426 -1.97215 0
M  V30 3795 C 365.258 -1.02526 -3.31194 0
M  V30 3796 C 364.319 -2.20796 -3.68168 0
M  V30 3797 C 363.552 -1.97073 -4.95982 0
M  V30 3798 O 363.775 -0.926822 -5.6282 0
M  V30 3799 O 362.709 -2.83912 -5.30733 0
M  V30 3800 H 366.535 -2.23537 -2.05584 0
M  V30 3801 H 364.12 -1.14307 -0.961989 0
M  V30 3802 H 366.002 -0.904026 -4.11589 0
M  V30 3803 H 364.677 -0.0945389 -3.23562 0
M  V30 3804 H 363.584 -2.38477 -2.88235 0
M  V30 3805 H 364.917 -3.12243 -3.8048 0
M  V30 3806 N 366.569 1.04691 -1.17803 0
M  V30 3807 C 367.532 2.10724 -0.901545 0
M  V30 3808 C 368.532 1.6042 0.110437 0
M  V30 3809 O 369.722 1.7377 -0.122303 0
M  V30 3810 C 366.854 3.39084 -0.351409 0
M  V30 3811 H 368.047 2.36686 -1.84174 0
M  V30 3812 H 365.6 1.21015 -0.98919 0
M  V30 3813 H 366.335 3.18782 0.59569 0
M  V30 3814 H 366.12 3.76909 -1.08083 0
M  V30 3815 H 367.61 4.17227 -0.176451 0
M  V30 3816 N 368.047 0.979072 1.23499 0
M  V30 3817 C 369.463 0.687475 1.44034 0
M  V30 3818 C 369.663 -0.746801 1.8715 0
M  V30 3819 O 368.719 -1.51939 2.0167 0
M  V30 3820 C 370.032 1.68127 2.49307 0
M  V30 3821 C 371.58 1.69516 2.63122 0
M  V30 3822 C 372.055 2.67723 3.71603 0
M  V30 3823 N 373.546 2.66233 3.79044 0
M  V30 3824 C 374.281 3.38891 4.62537 0
M  V30 3825 N 373.777 4.21103 5.50131 0
M  V30 3826 N 375.57 3.27661 4.56721 0
M  V30 3827 H 367.721 1.90559 0.938135 0
M  V30 3828 H 369.984 0.821051 0.473897 0
M  V30 3829 H 369.69 2.70693 2.2454 0
M  V30 3830 H 369.564 1.46306 3.4767 0
M  V30 3831 H 371.951 0.676561 2.8724 0
M  V30 3832 H 372.032 1.95404 1.65079 0
M  V30 3833 H 371.676 3.69724 3.48233 0
M  V30 3834 H 371.606 2.39111 4.69184 0
M  V30 3835 H 374.097 2.06568 3.16446 0
M  V30 3836 H 374.41 4.73403 6.10827 0
M  V30 3837 H 372.755 4.25195 5.49759 0
M  V30 3838 H 375.946 2.62887 3.87309 0
M  V30 3839 H 376.119 3.84547 5.21562 0
M  V30 3840 N 369.525 -1.3858 0.750561 0
M  V30 3841 C 370.457 -2.29057 0.0810714 0
M  V30 3842 C 371.47 -1.47596 -0.686973 0
M  V30 3843 O 372.659 -1.70495 -0.528563 0
M  V30 3844 C 369.759 -3.26475 -0.909247 0
M  V30 3845 C 368.932 -4.36945 -0.199478 0
M  V30 3846 C 367.991 -5.14572 -1.10011 0
M  V30 3847 O 367.017 -5.66321 -0.57177 0
M  V30 3848 N 368.219 -5.27262 -2.42849 0
M  V30 3849 H 370.984 -2.87153 0.858087 0
M  V30 3850 H 368.545 -1.50328 0.60109 0
M  V30 3851 H 370.537 -3.75285 -1.51471 0
M  V30 3852 H 369.107 -2.69298 -1.58736 0
M  V30 3853 H 368.327 -3.8981 0.586664 0
M  V30 3854 H 369.615 -5.07963 0.291783 0
M  V30 3855 H 369.013 -4.86763 -2.88233 0
M  V30 3856 H 367.57 -5.79456 -2.98453 0
M  V30 3857 N 371.003 -0.499398 -1.49478 0
M  V30 3858 C 371.935 0.316575 -2.27003 0
M  V30 3859 C 372.948 0.932047 -1.33479 0
M  V30 3860 O 374.137 0.815658 -1.58774 0
M  V30 3861 C 371.237 1.46055 -3.05812 0
M  V30 3862 C 370.41 0.952679 -4.26899 0
M  V30 3863 C 369.469 1.97407 -4.87767 0
M  V30 3864 O 368.495 1.54326 -5.4788 0
M  V30 3865 N 369.697 3.30436 -4.77276 0
M  V30 3866 H 372.462 -0.348168 -2.97671 0
M  V30 3867 H 370.023 -0.33185 -1.58463 0
M  V30 3868 H 372.015 2.14135 -3.43407 0
M  V30 3869 H 370.585 2.02948 -2.37762 0
M  V30 3870 H 369.805 0.0968248 -3.94081 0
M  V30 3871 H 371.093 0.59174 -5.05347 0
M  V30 3872 H 370.491 3.68126 -4.29534 0
M  V30 3873 H 369.048 3.94235 -5.19059 0
M  V30 3874 N 372.481 1.55866 -0.233164 0
M  V30 3875 C 373.897 1.59133 0.121988 0
M  V30 3876 C 374.097 1.25016 1.58029 0
M  V30 3877 O 373.153 0.990922 2.32243 0
M  V30 3878 C 374.466 2.99932 -0.214792 0
M  V30 3879 C 376.014 3.12601 -0.157971 0
M  V30 3880 C 376.489 4.55597 -0.46859 0
M  V30 3881 N 377.98 4.61305 -0.418585 0
M  V30 3882 C 378.715 5.69903 -0.63227 0
M  V30 3883 N 378.211 6.86819 -0.90835 0
M  V30 3884 N 380.004 5.59264 -0.563913 0
M  V30 3885 H 372.155 1.76315 -1.18434 0
M  V30 3886 H 374.418 0.820093 -0.475553 0
M  V30 3887 H 374.124 3.29588 -1.22739 0
M  V30 3888 H 373.998 3.74327 0.464691 0
M  V30 3889 H 376.385 2.82735 0.845283 0
M  V30 3890 H 376.466 2.40511 -0.871102 0
M  V30 3891 H 376.11 4.86182 -1.46934 0
M  V30 3892 H 376.04 5.25928 0.265865 0
M  V30 3893 H 378.531 3.77297 -0.213368 0
M  V30 3894 H 378.844 7.65507 -1.05919 0
M  V30 3895 H 377.189 6.88536 -0.945673 0
M  V30 3896 H 380.38 4.66802 -0.348372 0
M  V30 3897 H 380.553 6.43831 -0.733847 0
M  V30 3898 N 373.959 -0.0401083 1.57549 0
M  V30 3899 C 375.206 -0.733125 1.88763 0
M  V30 3900 C 375.534 -1.75946 0.829058 0
M  V30 3901 O 374.789 -1.94949 -0.171323 0
M  V30 3902 C 375.088 -1.44902 3.26708 0
M  V30 3903 C 374.754 -0.559707 4.47413 0
M  V30 3904 C 373.416 -0.314731 4.8017 0
M  V30 3905 C 375.768 0.0549743 5.21171 0
M  V30 3906 C 373.096 0.553886 5.8408 0
M  V30 3907 C 375.448 0.911229 6.26003 0
M  V30 3908 C 374.112 1.16577 6.57241 0
M  V30 3909 H 373.382 -0.268269 0.690733 0
M  V30 3910 H 376.029 0.00679408 1.91499 0
M  V30 3911 H 374.334 -2.26197 3.1991 0
M  V30 3912 H 376.031 -1.99058 3.48105 0
M  V30 3913 H 372.621 -0.760793 4.21794 0
M  V30 3914 H 376.805 -0.121344 4.96152 0
M  V30 3915 H 372.061 0.759518 6.06664 0
M  V30 3916 H 376.235 1.3941 6.82303 0
M  V30 3917 H 373.862 1.84058 7.37582 0
M  V30 3918 N 375.437 -1.54477 -0.31217 0
M  V30 3919 C 376.4 -1.83923 -1.36766 0
M  V30 3920 C 377.4 -0.711563 -1.44199 0
M  V30 3921 O 378.59 -0.979866 -1.44029 0
M  V30 3922 C 375.722 -2.0095 -2.75376 0
M  V30 3923 H 376.915 -2.78239 -1.11906 0
M  V30 3924 H 374.468 -1.46369 -0.548257 0
M  V30 3925 H 375.203 -1.08883 -3.05475 0
M  V30 3926 H 374.988 -2.83018 -2.71373 0
M  V30 3927 H 376.478 -2.2514 -3.51713 0
M  V30 3928 N 376.915 0.57481 -1.46744 0
M  V30 3929 C 377.865 1.67838 -1.54319 0
M  V30 3930 C 378.849 1.55759 -0.40346 0
M  V30 3931 O 380.041 1.6454 -0.652347 0
M  V30 3932 C 377.17 3.06624 -1.5439 0
M  V30 3933 C 376.256 3.23971 -2.73685 0
M  V30 3934 N 376.647 3.11447 -3.9854 0
M  V30 3935 C 374.945 3.5493 -2.70075 0
M  V30 3936 C 375.646 3.31011 -4.78337 0
M  V30 3937 N 374.622 3.56533 -4.10348 0
M  V30 3938 H 378.424 1.56698 -2.48642 0
M  V30 3939 H 375.938 0.779071 -1.42493 0
M  V30 3940 H 377.935 3.85839 -1.57905 0
M  V30 3941 H 376.595 3.1889 -0.611493 0
M  V30 3942 H 377.606 2.89145 -4.29669 0
M  V30 3943 H 374.283 3.73832 -1.85893 0
M  V30 3944 H 375.673 3.26445 -5.87268 0
M  V30 3945 N 378.394 1.34581 0.820102 0
M  V30 3946 C 379.641 1.27096 1.57648 0
M  V30 3947 C 379.969 -0.158317 1.93855 0
M  V30 3948 O 379.224 -1.12028 1.60463 0
M  V30 3949 C 379.523 2.10997 2.8847 0
M  V30 3950 C 379.189 3.59966 2.71543 0
M  V30 3951 C 377.851 4.00575 2.66634 0
M  V30 3952 C 380.203 4.54548 2.55021 0
M  V30 3953 C 377.531 5.33953 2.43128 0
M  V30 3954 C 379.883 5.88109 2.33047 0
M  V30 3955 C 378.547 6.27878 2.26552 0
M  V30 3956 H 377.817 0.465078 0.576874 0
M  V30 3957 H 380.464 1.6635 0.948671 0
M  V30 3958 H 378.769 1.6458 3.55557 0
M  V30 3959 H 380.466 2.0255 3.46084 0
M  V30 3960 H 377.056 3.27733 2.76205 0
M  V30 3961 H 381.24 4.24069 2.57835 0
M  V30 3962 H 376.496 5.63781 2.3656 0
M  V30 3963 H 380.67 6.60985 2.19251 0
M  V30 3964 H 378.297 7.31162 2.081 0
M  V30 3965 N 379.872 -1.04064 1.18357 0
M  V30 3966 C 381.1 -1.80916 1.00384 0
M  V30 3967 C 381.515 -1.83414 -0.447738 0
M  V30 3968 O 380.872 -1.26962 -1.31099 0
M  V30 3969 C 380.923 -3.26516 1.55144 0
M  V30 3970 O 380.644 -3.2424 2.94618 0
M  V30 3971 C 382.145 -4.20013 1.41789 0
M  V30 3972 H 379.365 -0.569728 0.354474 0
M  V30 3973 H 381.909 -1.31151 1.56906 0
M  V30 3974 H 380.064 -3.73512 1.02798 0
M  V30 3975 H 380.478 -4.15452 3.20156 0
M  V30 3976 H 381.952 -5.20111 1.84901 0
M  V30 3977 H 382.429 -4.37667 0.36661 0
M  V30 3978 H 383.035 -3.78881 1.93207 0
M  V30 3979 N 381.35 -0.985608 -1.22978 0
M  V30 3980 C 382.26 -0.538548 -2.28335 0
M  V30 3981 C 383.276 0.409163 -1.69121 0
M  V30 3982 O 384.452 0.277797 -1.99475 0
M  V30 3983 C 381.517 0.146867 -3.46389 0
M  V30 3984 C 380.578 -0.842896 -4.20944 0
M  V30 3985 C 379.811 -0.190095 -5.33361 0
M  V30 3986 O 380.034 1.01767 -5.61248 0
M  V30 3987 O 378.968 -0.891289 -5.95264 0
M  V30 3988 H 382.794 -1.41487 -2.68729 0
M  V30 3989 H 380.379 -0.753495 -1.29007 0
M  V30 3990 H 382.261 0.531125 -4.1804 0
M  V30 3991 H 380.936 0.997871 -3.07935 0
M  V30 3992 H 379.843 -1.27795 -3.51595 0
M  V30 3993 H 381.176 -1.66287 -4.6326 0
M  V30 3994 N 382.828 1.3818 -0.7579 0
M  V30 3995 C 383.758 2.33027 -0.148597 0
M  V30 3996 C 384.739 1.55085 0.69875 0
M  V30 3997 O 385.924 1.83384 0.639053 0
M  V30 3998 C 383.054 3.3928 0.742034 0
M  V30 3999 C 382.008 4.28 -0.00291946 0
M  V30 4000 C 381.334 5.25146 1.00625 0
M  V30 4001 C 382.634 5.08938 -1.17385 0
M  V30 4002 H 384.328 2.84231 -0.940909 0
M  V30 4003 H 381.874 1.36659 -0.453908 0
M  V30 4004 H 383.827 4.046 1.17799 0
M  V30 4005 H 382.551 2.86569 1.56671 0
M  V30 4006 H 381.21 3.64192 -0.419504 0
M  V30 4007 H 380.858 4.68721 1.8251 0
M  V30 4008 H 380.558 5.85361 0.512428 0
M  V30 4009 H 382.082 5.93342 1.44143 0
M  V30 4010 H 383.496 5.67474 -0.815224 0
M  V30 4011 H 381.893 5.7841 -1.59882 0
M  V30 4012 H 382.963 4.42424 -1.98468 0
M  V30 4013 N 384.306 0.507319 1.49211 0
M  V30 4014 C 385.269 -0.256763 2.27757 0
M  V30 4015 C 386.269 -0.888287 1.34038 0
M  V30 4016 O 387.459 -0.751841 1.5714 0
M  V30 4017 C 384.591 -1.36905 3.12202 0
M  V30 4018 H 385.784 0.432557 2.96764 0
M  V30 4019 H 383.337 0.262488 1.5408 0
M  V30 4020 H 384.072 -2.09233 2.47775 0
M  V30 4021 H 383.857 -0.921599 3.81115 0
M  V30 4022 H 385.347 -1.9071 3.7151 0
M  V30 4023 N 385.784 -1.5574 0.241426 0
M  V30 4024 C 387.033 -1.97986 -0.385295 0
M  V30 4025 C 387.346 -1.13267 -1.59468 0
M  V30 4026 O 388.552 -1.45501 -2.2922 0
M  V30 4027 C 387.008 -3.52275 -0.736884 0
M  V30 4028 C 386.616 -4.45726 0.450796 0
M  V30 4029 C 388.36 -4.03189 -1.3281 0
M  V30 4030 C 386.267 -5.91352 0.0756662 0
M  V30 4031 H 385.197 -0.739386 -0.147731 0
M  V30 4032 H 387.848 -1.80308 0.340779 0
M  V30 4033 H 386.23 -3.65628 -1.52094 0
M  V30 4034 H 387.404 -4.44131 1.22819 0
M  V30 4035 H 385.719 -4.05264 0.956573 0
M  V30 4036 H 388.316 -5.09505 -1.62201 0
M  V30 4037 H 388.659 -3.50212 -2.25071 0
M  V30 4038 H 389.192 -3.93141 -0.607069 0
M  V30 4039 H 385.931 -6.48354 0.965272 0
M  V30 4040 H 385.451 -5.96095 -0.665635 0
M  V30 4041 H 387.13 -6.46084 -0.344075 0
M  V30 4042 N 387.262 0.0317525 -1.57568 0
M  V30 4043 C 388.508 0.724175 -1.8943 0
M  V30 4044 C 388.841 1.75149 -0.838836 0
M  V30 4045 O 388.116 1.93948 0.146422 0
M  V30 4046 C 388.399 1.39615 -3.31933 0
M  V30 4047 C 388.252 0.382537 -4.4817 0
M  V30 4048 C 389.571 2.33084 -3.73309 0
M  V30 4049 H 386.69 0.261797 -0.688935 0
M  V30 4050 H 389.332 -0.013017 -1.89996 0
M  V30 4051 H 387.482 2.02451 -3.31581 0
M  V30 4052 H 389.154 -0.243689 -4.60656 0
M  V30 4053 H 387.397 -0.29844 -4.32772 0
M  V30 4054 H 388.068 0.891145 -5.44759 0
M  V30 4055 H 390.544 1.80295 -3.7501 0
M  V30 4056 H 389.42 2.77084 -4.73831 0
M  V30 4057 H 389.681 3.19643 -3.05419 0
M  V30 4058 N 388.74 1.54641 0.303973 0
M  V30 4059 C 389.965 1.78092 1.06292 0
M  V30 4060 C 390.39 0.537342 1.80262 0
M  V30 4061 O 389.748 -0.511993 1.7392 0
M  V30 4062 C 389.796 2.98612 2.02147 0
M  V30 4063 O 388.9 2.71528 3.10397 0
M  V30 4064 H 388.241 0.589548 0.305497 0
M  V30 4065 H 390.771 2.01716 0.3423 0
M  V30 4066 H 390.781 3.265 2.44667 0
M  V30 4067 H 389.456 3.88785 1.47714 0
M  V30 4068 H 388.033 2.54648 2.72413 0
M  V30 4069 N 390.218 -0.567019 1.47046 0
M  V30 4070 C 391.464 -1.32658 1.53394 0
M  V30 4071 C 391.797 -1.93254 0.19148 0
M  V30 4072 O 391.072 -1.77338 -0.798844 0
M  V30 4073 C 391.355 -2.44412 2.64452 0
M  V30 4074 C 391.208 -1.88749 4.08282 0
M  V30 4075 C 392.527 -3.46387 2.71485 0
M  V30 4076 H 389.646 -0.48098 0.558415 0
M  V30 4077 H 392.288 -0.635481 1.79058 0
M  V30 4078 H 390.438 -3.03363 2.427 0
M  V30 4079 H 392.11 -1.34134 4.41368 0
M  V30 4080 H 390.353 -1.19481 4.17021 0
M  V30 4081 H 391.024 -2.69491 4.81745 0
M  V30 4082 H 393.5 -2.9734 2.91081 0
M  V30 4083 H 392.376 -4.2202 3.50985 0
M  V30 4084 H 392.637 -4.04616 1.78153 0
M  V30 4085 N 391.696 -1.35014 -0.812953 0
M  V30 4086 C 392.628 -1.23262 -1.93233 0
M  V30 4087 C 393.641 -0.157371 -1.62038 0
M  V30 4088 O 394.83 -0.410096 -1.73725 0
M  V30 4089 C 391.93 -0.87392 -3.27438 0
M  V30 4090 C 391.103 -2.04622 -3.86586 0
M  V30 4091 C 390.162 -1.66432 -4.99186 0
M  V30 4092 O 389.188 -2.38222 -5.16951 0
M  V30 4093 N 390.39 -0.584248 -5.77552 0
M  V30 4094 H 393.155 -2.19699 -2.03844 0
M  V30 4095 H 390.716 -1.281 -0.99005 0
M  V30 4096 H 392.708 -0.600039 -4.00227 0
M  V30 4097 H 391.278 0.00057392 -3.126 0
M  V30 4098 H 390.498 -2.48427 -3.06068 0
M  V30 4099 H 391.786 -2.82999 -4.22835 0
M  V30 4100 H 391.184 0.0123526 -5.65699 0
M  V30 4101 H 389.741 -0.37013 -6.50748 0
M  V30 4102 N 393.175 1.03435 -1.18907 0
M  V30 4103 C 394.085 2.15075 -0.937015 0
M  V30 4104 C 395.101 1.73706 0.101085 0
M  V30 4105 O 396.277 2.01232 -0.0822948 0
M  V30 4106 C 393.342 3.43458 -0.473057 0
M  V30 4107 C 392.403 3.99172 -1.57989 0
M  V30 4108 C 391.636 5.21427 -1.13797 0
M  V30 4109 O 391.859 5.704 0.000725941 0
M  V30 4110 O 390.793 5.69837 -1.9383 0
M  V30 4111 H 394.619 2.39198 -1.87131 0
M  V30 4112 H 392.204 1.13506 -0.971427 0
M  V30 4113 H 394.086 4.20811 -0.222702 0
M  V30 4114 H 392.761 3.20793 0.432869 0
M  V30 4115 H 391.668 3.23178 -1.88433 0
M  V30 4116 H 393.001 4.2619 -2.46217 0
M  V30 4117 N 394.653 0.992116 1.22453 0
M  V30 4118 C 395.902 0.662992 1.90492 0
M  V30 4119 C 396.215 -0.808407 1.78113 0
M  V30 4120 O 397.421 -1.24908 2.41061 0
M  V30 4121 C 395.877 1.1353 3.41524 0
M  V30 4122 C 395.485 2.63187 3.62542 0
M  V30 4123 C 397.229 0.880465 4.15269 0
M  V30 4124 C 395.136 3.04024 5.0727 0
M  V30 4125 H 394.066 0.244278 0.713333 0
M  V30 4126 H 396.717 1.20157 1.38688 0
M  V30 4127 H 395.099 0.52485 3.92506 0
M  V30 4128 H 396.273 3.2957 3.22056 0
M  V30 4129 H 394.588 2.86543 3.02129 0
M  V30 4130 H 397.185 1.16128 5.21937 0
M  V30 4131 H 397.528 -0.183408 4.15896 0
M  V30 4132 H 398.061 1.45307 3.70312 0
M  V30 4133 H 394.8 4.09584 5.11782 0
M  V30 4134 H 394.32 2.42343 5.48662 0
M  V30 4135 H 395.999 2.95282 5.75689 0
M  V30 4136 N 396.131 -1.37776 0.765217 0
M  V30 4137 C 397.377 -2.00145 0.327072 0
M  V30 4138 C 397.71 -1.60607 -1.09175 0
M  V30 4139 O 396.985 -0.849127 -1.74986 0
M  V30 4140 C 397.268 -3.57109 0.46319 0
M  V30 4141 C 397.121 -4.06576 1.92395 0
M  V30 4142 C 398.44 -4.39888 -0.136473 0
M  V30 4143 H 395.559 -0.727113 0.120316 0
M  V30 4144 H 398.201 -1.63549 0.967039 0
M  V30 4145 H 396.351 -3.88414 -0.0816358 0
M  V30 4146 H 398.023 -3.85864 2.52798 0
M  V30 4147 H 396.266 -3.59011 2.43503 0
M  V30 4148 H 396.937 -5.15639 1.97028 0
M  V30 4149 H 399.413 -4.14803 0.328317 0
M  V30 4150 H 398.289 -5.48899 -0.0110582 0
M  V30 4151 H 398.55 -4.24758 -1.22608 0
M  V30 4152 N 397.609 -0.515225 -1.4894 0
M  V30 4153 C 398.886 0.0879088 -1.95402 0
M  V30 4154 C 399.266 1.52745 -1.45712 0
M  V30 4155 O 398.614 2.18238 -0.677093 0
M  V30 4156 C 398.824 -0.0141055 -3.48997 0
M  V30 4157 C 400.172 0.152646 -4.24326 0
M  V30 4158 O 401.196 0.0604025 -3.56149 0
M  V30 4159 O 400.055 0.34384 -5.45417 0
M  V30 4160 H 397.149 0.0874636 -0.822362 0
M  V30 4161 H 399.695 -0.578775 -1.59525 0
M  V30 4162 H 398.467 -1.01745 -3.77841 0
M  V30 4163 H 398.09 0.692091 -3.9153 0
M  V30 4164 N 399.087 1.5561 -0.249682 0
M  V30 4165 C 400.334 1.99011 0.374287 0
M  V30 4166 C 400.662 1.13785 1.57744 0
M  V30 4167 O 399.917 0.189326 1.94782 0
M  V30 4168 C 400.216 3.4775 0.824887 0
M  V30 4169 C 399.882 4.50086 -0.270819 0
M  V30 4170 C 398.544 4.77791 -0.571746 0
M  V30 4171 C 400.896 5.11312 -1.01041 0
M  V30 4172 C 398.224 5.63997 -1.61629 0
M  V30 4173 C 400.576 5.98651 -2.0445 0
M  V30 4174 C 399.24 6.24688 -2.35204 0
M  V30 4175 H 398.51 0.728233 0.136961 0
M  V30 4176 H 401.157 1.88122 -0.358087 0
M  V30 4177 H 399.462 3.55985 1.63651 0
M  V30 4178 H 401.159 3.78721 1.31799 0
M  V30 4179 H 397.749 4.28592 -0.026136 0
M  V30 4180 H 401.933 4.89953 -0.791177 0
M  V30 4181 H 397.189 5.82425 -1.85988 0
M  V30 4182 H 401.363 6.45135 -2.62248 0
M  V30 4183 H 398.99 6.91281 -3.16282 0
M  V30 4184 N 400.565 -0.0233959 1.57583 0
M  V30 4185 C 401.528 -1.00693 2.05897 0
M  V30 4186 C 402.528 -1.28693 0.964092 0
M  V30 4187 O 403.718 -1.23602 1.22753 0
M  V30 4188 C 400.85 -2.33825 2.4807 0
M  V30 4189 H 402.043 -0.589476 2.9405 0
M  V30 4190 H 399.596 -0.270354 1.53944 0
M  V30 4191 H 400.331 -2.80307 1.6309 0
M  V30 4192 H 400.116 -2.1483 3.2801 0
M  V30 4193 H 401.606 -3.04426 2.85857 0
M  V30 4194 N 402.043 -1.548 -0.295768 0
M  V30 4195 C 402.99 -1.86113 -1.36494 0
M  V30 4196 C 403.96 -0.7105 -1.50137 0
M  V30 4197 O 405.145 -0.959626 -1.64912 0
M  V30 4198 C 402.285 -2.11861 -2.72413 0
M  V30 4199 C 401.398 -3.39471 -2.67177 0
M  V30 4200 C 400.533 -3.55035 -3.95125 0
M  V30 4201 C 399.572 -4.76418 -3.84308 0
M  V30 4202 N 398.709 -4.8876 -5.04042 0
M  V30 4203 H 403.549 -2.77314 -1.09091 0
M  V30 4204 H 401.086 -1.37315 -0.52753 0
M  V30 4205 H 403.044 -2.24786 -3.51464 0
M  V30 4206 H 401.674 -1.2392 -2.98066 0
M  V30 4207 H 400.726 -3.35139 -1.79962 0
M  V30 4208 H 402.038 -4.28646 -2.55076 0
M  V30 4209 H 401.192 -3.67653 -4.82614 0
M  V30 4210 H 399.931 -2.64002 -4.10066 0
M  V30 4211 H 398.936 -4.63827 -2.95202 0
M  V30 4212 H 400.161 -5.68863 -3.70906 0
M  V30 4213 H 398.107 -4.00652 -5.19436 0
M  V30 4214 H 398.024 -5.71945 -4.94384 0
M  V30 4215 H 399.292 -5.0574 -5.93167 0
M  V30 4216 N 403.521 0.559213 -1.47345 0
M  V30 4217 C 404.453 1.68161 -1.55738 0
M  V30 4218 C 405.466 1.56636 -0.443744 0
M  V30 4219 O 406.655 1.6363 -0.713258 0
M  V30 4220 C 403.755 3.06611 -1.4437 0
M  V30 4221 C 402.928 3.4391 -2.70268 0
M  V30 4222 C 401.987 4.61515 -2.52765 0
M  V30 4223 O 401.013 4.66197 -3.26572 0
M  V30 4224 N 402.215 5.57883 -1.6046 0
M  V30 4225 H 404.98 1.61408 -2.52522 0
M  V30 4226 H 402.541 0.7458 -1.43699 0
M  V30 4227 H 404.533 3.83117 -1.30398 0
M  V30 4228 H 403.103 3.07602 -0.556766 0
M  V30 4229 H 402.323 2.56873 -2.99015 0
M  V30 4230 H 403.611 3.65605 -3.53851 0
M  V30 4231 H 403.009 5.56855 -0.996422 0
M  V30 4232 H 401.566 6.33723 -1.52441 0
M  V30 4233 N 404.999 1.35443 0.805782 0
M  V30 4234 C 405.929 1.31095 1.93226 0
M  V30 4235 C 406.91 0.185244 1.69088 0
M  V30 4236 O 408.095 0.380332 1.90439 0
M  V30 4237 C 405.225 1.08299 3.29983 0
M  V30 4238 C 404.179 2.17519 3.68605 0
M  V30 4239 C 403.505 1.79887 5.03532 0
M  V30 4240 C 404.805 3.5949 3.78898 0
M  V30 4241 H 406.499 2.25352 1.97122 0
M  V30 4242 H 404.045 1.0848 0.946996 0
M  V30 4243 H 405.998 1.03897 4.08391 0
M  V30 4244 H 404.722 0.104885 3.26432 0
M  V30 4245 H 403.381 2.2102 2.92482 0
M  V30 4246 H 403.029 0.80693 4.96485 0
M  V30 4247 H 402.729 2.53001 5.30344 0
M  V30 4248 H 404.253 1.77011 5.84379 0
M  V30 4249 H 405.667 3.58307 4.47536 0
M  V30 4250 H 404.064 4.31371 4.1718 0
M  V30 4251 H 405.134 3.95584 2.80431 0
M  V30 4252 N 406.477 -1.02803 1.19454 0
M  V30 4253 C 407.888 -1.57667 0.999899 0
M  V30 4254 C 408.239 -1.91041 -0.446956 0
M  V30 4255 O 407.364 -1.70978 -1.32648 0
M  V30 4256 C 407.959 -2.86477 1.80877 0
M  V30 4257 C 406.518 -3.37911 1.65811 0
M  V30 4258 C 405.665 -2.11343 1.79526 0
M  V30 4259 H 408.616 -0.853214 1.33813 0
M  V30 4260 H 408.637 -3.57408 1.30536 0
M  V30 4261 H 408.149 -2.62155 2.86175 0
M  V30 4262 H 406.25 -3.67218 0.63102 0
M  V30 4263 H 406.363 -4.10885 2.46395 0
M  V30 4264 H 404.727 -2.23254 1.22596 0
M  V30 4265 H 405.51 -1.89461 2.86285 0
M  V30 4266 N 407.956 -0.998596 -1.21925 0
M  V30 4267 C 409.204 -0.676325 -1.90448 0
M  V30 4268 C 409.525 0.794719 -1.78071 0
M  V30 4269 O 408.795 1.5701 -1.17152 0
M  V30 4270 H 407.375 -0.247165 -0.704925 0
M  V30 4271 H 410.037 -1.26633 -1.48156 0
M  V30 4272 H 409.133 -0.943858 -2.97486 0
M  V30 4273 N 409.434 1.37368 -0.772513 0
M  V30 4274 C 410.681 1.99673 -0.337182 0
M  V30 4275 C 411.009 1.61324 1.0865 0
M  V30 4276 O 410.264 0.851377 1.7621 0
M  V30 4277 C 410.563 3.54817 -0.428876 0
M  V30 4278 C 410.229 4.12936 -1.81092 0
M  V30 4279 C 408.891 4.28523 -2.1891 0
M  V30 4280 C 411.243 4.44801 -2.71664 0
M  V30 4281 C 408.571 4.73277 -3.46735 0
M  V30 4282 C 410.923 4.90981 -3.98899 0
M  V30 4283 C 409.587 5.04773 -4.36761 0
M  V30 4284 H 408.857 0.730656 -0.123384 0
M  V30 4285 H 411.504 1.64124 -0.986686 0
M  V30 4286 H 409.809 3.90618 0.304167 0
M  V30 4287 H 411.506 4.00933 -0.0733334 0
M  V30 4288 H 408.096 4.01233 -1.50699 0
M  V30 4289 H 412.28 4.32344 -2.43706 0
M  V30 4290 H 407.536 4.82142 -3.75964 0
M  V30 4291 H 411.71 5.14603 -4.69208 0
M  V30 4292 H 409.337 5.39211 -5.35868 0
M  V30 4293 N 410.912 0.523116 1.48665 0
M  V30 4294 C 411.842 -0.23231 2.32342 0
M  V30 4295 C 412.823 -0.941637 1.41659 0
M  V30 4296 O 414.008 -0.928751 1.70552 0
M  V30 4297 C 411.138 -1.28387 3.22698 0
M  V30 4298 C 410.092 -0.693098 4.22351 0
M  V30 4299 C 409.418 -1.8468 5.01794 0
M  V30 4300 C 410.718 0.33063 5.21252 0
M  V30 4301 H 412.412 0.466192 2.95748 0
M  V30 4302 H 409.958 0.225643 1.42221 0
M  V30 4303 H 411.911 -1.82024 3.80059 0
M  V30 4304 H 410.635 -2.01186 2.57278 0
M  V30 4305 H 409.294 -0.178299 3.66166 0
M  V30 4306 H 408.942 -2.56301 4.32804 0
M  V30 4307 H 408.642 -1.45747 5.69238 0
M  V30 4308 H 410.166 -2.38709 5.62006 0
M  V30 4309 H 411.58 -0.118407 5.73178 0
M  V30 4310 H 409.977 0.636974 5.9671 0
M  V30 4311 H 411.047 1.23883 4.68808 0
M  V30 4312 N 412.39 -1.55475 0.257931 0
M  V30 4313 C 413.322 -2.19192 -0.669881 0
M  V30 4314 C 414.335 -1.17148 -1.1305 0
M  V30 4315 O 415.524 -1.43959 -1.05537 0
M  V30 4316 C 412.624 -2.79016 -1.92363 0
M  V30 4317 C 411.797 -4.06586 -1.61265 0
M  V30 4318 C 410.856 -4.50622 -2.7171 0
M  V30 4319 O 409.882 -5.16765 -2.38627 0
M  V30 4320 N 411.084 -4.19325 -4.01431 0
M  V30 4321 H 413.849 -2.99441 -0.124635 0
M  V30 4322 H 411.41 -1.6171 0.0783311 0
M  V30 4323 H 413.402 -3.05427 -2.65511 0
M  V30 4324 H 411.972 -2.0286 -2.37837 0
M  V30 4325 H 411.192 -3.87646 -0.715811 0
M  V30 4326 H 412.48 -4.89737 -1.37967 0
M  V30 4327 H 411.878 -3.66247 -4.31138 0
M  V30 4328 H 410.435 -4.50547 -4.7101 0
M  V30 4329 N 413.868 0.0150385 -1.57593 0
M  V30 4330 C 414.798 1.01047 -2.10503 0
M  V30 4331 C 415.779 1.36816 -1.01071 0
M  V30 4332 O 416.964 1.45455 -1.28672 0
M  V30 4333 C 414.094 2.30708 -2.59598 0
M  V30 4334 C 413.048 2.09142 -3.73421 0
M  V30 4335 C 412.374 3.44685 -4.08774 0
M  V30 4336 C 413.674 1.46619 -5.01298 0
M  V30 4337 H 415.368 0.569978 -2.93925 0
M  V30 4338 H 412.914 0.272724 -1.41394 0
M  V30 4339 H 414.867 3.00687 -2.95238 0
M  V30 4340 H 413.591 2.76843 -1.73279 0
M  V30 4341 H 412.25 1.41592 -3.38153 0
M  V30 4342 H 411.898 3.88495 -3.195 0
M  V30 4343 H 411.598 3.31077 -4.8545 0
M  V30 4344 H 413.122 4.16004 -4.4696 0
M  V30 4345 H 414.536 2.06535 -5.34805 0
M  V30 4346 H 412.933 1.43544 -5.82679 0
M  V30 4347 H 414.003 0.433611 -4.82957 0
M  V30 4348 N 415.346 1.54954 0.287554 0
M  V30 4349 C 416.571 1.79209 1.04397 0
M  V30 4350 C 416.996 0.556431 1.79682 0
M  V30 4351 O 416.354 -0.493518 1.74454 0
M  V30 4352 C 416.402 3.00739 1.98969 0
M  V30 4353 O 415.506 2.74805 3.075 0
M  V30 4354 H 414.847 0.592755 0.299227 0
M  V30 4355 H 417.377 2.02068 0.320886 0
M  V30 4356 H 417.387 3.29077 2.4119 0
M  V30 4357 H 416.062 3.90329 1.43582 0
M  V30 4358 H 414.639 2.57523 2.69697 0
M  V30 4359 N 416.824 -0.551391 1.4764 0
M  V30 4360 C 418.24 -0.877887 1.33287 0
M  V30 4361 C 418.44 -1.98817 0.327721 0
M  V30 4362 O 417.496 -2.51171 -0.258695 0
M  V30 4363 C 418.809 -1.26563 2.72768 0
M  V30 4364 C 420.357 -1.37673 2.81097 0
M  V30 4365 C 420.832 -1.79799 4.21232 0
M  V30 4366 N 422.323 -1.8694 4.23802 0
M  V30 4367 C 423.058 -2.20876 5.29151 0
M  V30 4368 N 422.554 -2.53386 6.448 0
M  V30 4369 N 424.347 -2.217 5.16532 0
M  V30 4370 H 416.498 0.18153 2.11623 0
M  V30 4371 H 418.761 0.0185514 0.947818 0
M  V30 4372 H 418.467 -0.523591 3.47781 0
M  V30 4373 H 418.341 -2.22052 3.04915 0
M  V30 4374 H 420.728 -2.10956 2.06353 0
M  V30 4375 H 420.809 -0.40357 2.52596 0
M  V30 4376 H 420.453 -1.07083 4.96483 0
M  V30 4377 H 420.383 -2.78128 4.4716 0
M  V30 4378 H 422.874 -1.64179 3.40373 0
M  V30 4379 H 423.187 -2.78325 7.20941 0
M  V30 4380 H 421.532 -2.50953 6.48111 0
M  V30 4381 H 424.723 -1.95745 4.25207 0
M  V30 4382 H 424.896 -2.47818 5.98741 0
M  V30 4383 N 418.302 -1.35869 -0.798587 0
M  V30 4384 C 419.212 -1.31578 -1.94228 0
M  V30 4385 C 420.228 -0.21939 -1.72611 0
M  V30 4386 O 421.404 -0.450167 -1.96305 0
M  V30 4387 C 418.469 -1.09528 -3.28944 0
M  V30 4388 C 417.53 -2.28556 -3.63402 0
M  V30 4389 C 416.763 -2.07549 -4.9169 0
M  V30 4390 O 416.986 -1.046 -5.60727 0
M  V30 4391 O 415.92 -2.95106 -5.24591 0
M  V30 4392 H 419.746 -2.27847 -2.00796 0
M  V30 4393 H 417.331 -1.16322 -0.937526 0
M  V30 4394 H 419.213 -0.991127 -4.09579 0
M  V30 4395 H 417.888 -0.16315 -3.23289 0
M  V30 4396 H 416.795 -2.44538 -2.83112 0
M  V30 4397 H 418.128 -3.20244 -3.73771 0
M  V30 4398 N 419.78 1.02168 -1.19998 0
M  V30 4399 C 421.057 1.72816 -0.916191 0
M  V30 4400 C 421.437 2.03081 0.576325 0
M  V30 4401 O 420.785 1.69122 1.53656 0
M  V30 4402 C 420.995 2.9997 -1.78378 0
M  V30 4403 C 422.343 3.73336 -2.02251 0
M  V30 4404 O 423.367 3.09914 -1.75589 0
M  V30 4405 O 422.226 4.87371 -2.47249 0
M  V30 4406 H 419.32 0.752924 -0.342103 0
M  V30 4407 H 421.866 1.08062 -1.30846 0
M  V30 4408 H 420.638 2.73888 -2.79466 0
M  V30 4409 H 420.261 3.72464 -1.39126 0
M  V30 4410 N 421.258 1.00505 1.21394 0
M  V30 4411 C 422.19 0.52372 2.23136 0
M  V30 4412 C 423.203 -0.387714 1.58116 0
M  V30 4413 O 424.392 -0.187905 1.77508 0
M  V30 4414 C 421.492 -0.258885 3.3791 0
M  V30 4415 C 420.665 0.651634 4.32519 0
M  V30 4416 C 419.724 -0.0813705 5.26137 0
M  V30 4417 O 418.75 0.537295 5.66658 0
M  V30 4418 N 419.952 -1.35992 5.64346 0
M  V30 4419 H 422.717 1.39865 2.65062 0
M  V30 4420 H 420.278 0.881196 1.35818 0
M  V30 4421 H 422.27 -0.758208 3.97534 0
M  V30 4422 H 420.84 -1.035 2.94968 0
M  V30 4423 H 420.06 1.33145 3.71034 0
M  V30 4424 H 421.348 1.27129 4.92662 0
M  V30 4425 H 420.746 -1.88368 5.33417 0
M  V30 4426 H 419.303 -1.8042 6.26332 0
M  V30 4427 N 422.737 -1.36956 0.779787 0
M  V30 4428 C 423.986 -1.98738 0.344405 0
M  V30 4429 C 424.299 -1.62596 -1.08728 0
M  V30 4430 O 425.505 -2.1754 -1.62445 0
M  V30 4431 C 423.961 -3.5544 0.564829 0
M  V30 4432 C 423.569 -4.00514 2.0073 0
M  V30 4433 C 425.313 -4.24059 0.193471 0
M  V30 4434 C 423.22 -5.49957 2.17489 0
M  V30 4435 H 422.15 -0.743561 0.12503 0
M  V30 4436 H 424.801 -1.56381 0.960057 0
M  V30 4437 H 423.183 -3.95817 -0.120397 0
M  V30 4438 H 424.357 -3.71362 2.72814 0
M  V30 4439 H 422.672 -3.44703 2.336 0
M  V30 4440 H 425.269 -5.33874 0.297097 0
M  V30 4441 H 425.612 -4.07378 -0.857263 0
M  V30 4442 H 426.145 -3.89012 0.831556 0
M  V30 4443 H 422.884 -5.71574 3.2091 0
M  V30 4444 H 422.404 -5.80767 1.49899 0
M  V30 4445 H 424.083 -6.16043 1.97738 0
M  V30 4446 N 424.215 -0.530993 -1.48385 0
M  V30 4447 C 425.178 0.220497 -2.28137 0
M  V30 4448 C 426.178 0.866851 -1.35434 0
M  V30 4449 O 427.368 0.726746 -1.58316 0
M  V30 4450 C 424.5 1.31921 -3.1434 0
M  V30 4451 H 425.693 -0.479714 -2.96038 0
M  V30 4452 H 423.246 -0.286968 -1.53643 0
M  V30 4453 H 423.981 2.05264 -2.51072 0
M  V30 4454 H 423.766 0.86085 -3.82533 0
M  V30 4455 H 425.256 1.84776 -3.74497 0
M  V30 4456 N 425.693 1.55336 -0.266172 0
M  V30 4457 C 426.623 2.25146 0.618981 0
M  V30 4458 C 427.604 1.23845 1.16604 0
M  V30 4459 O 428.789 1.52544 1.20183 0
M  V30 4460 C 425.919 2.96572 1.80728 0
M  V30 4461 C 424.873 4.04726 1.39215 0
M  V30 4462 C 424.199 4.63678 2.66283 0
M  V30 4463 C 425.499 5.19407 0.548942 0
M  V30 4464 H 427.193 2.99377 0.0368116 0
M  V30 4465 H 424.739 1.43991 0.0162651 0
M  V30 4466 H 426.692 3.44116 2.43232 0
M  V30 4467 H 425.416 2.19861 2.41514 0
M  V30 4468 H 424.075 3.57979 0.790351 0
M  V30 4469 H 423.723 3.83646 3.25308 0
M  V30 4470 H 423.423 5.367 2.39222 0
M  V30 4471 H 424.947 5.13967 3.29651 0
M  V30 4472 H 426.361 5.63059 1.07876 0
M  V30 4473 H 424.758 5.98936 0.373593 0
M  V30 4474 H 425.828 4.8295 -0.434394 0
M  V30 4475 N 427.171 -0.0066808 1.57599 0
M  V30 4476 C 428.101 -0.999296 2.11036 0
M  V30 4477 C 429.082 -1.36278 1.01795 0
M  V30 4478 O 430.267 -1.4477 1.29442 0
M  V30 4479 C 427.397 -2.29328 2.60818 0
M  V30 4480 C 426.351 -2.07159 3.74525 0
M  V30 4481 C 425.677 -3.42512 4.10596 0
M  V30 4482 C 426.977 -1.43959 5.02069 0
M  V30 4483 H 428.671 -0.554382 2.94223 0
M  V30 4484 H 426.217 -0.265221 1.41536 0
M  V30 4485 H 428.17 -2.99117 2.96828 0
M  V30 4486 H 426.894 -2.7592 1.74745 0
M  V30 4487 H 425.553 -1.39797 3.38899 0
M  V30 4488 H 425.201 -3.86795 3.21556 0
M  V30 4489 H 424.901 -3.28498 4.87199 0
M  V30 4490 H 426.425 -4.13628 4.4916 0
M  V30 4491 H 427.839 -2.03696 5.35893 0
M  V30 4492 H 426.236 -1.40452 5.83432 0
M  V30 4493 H 427.306 -0.407992 4.83181 0
M  V30 4494 N 428.649 -1.55105 -0.279332 0
M  V30 4495 C 429.596 -1.8755 -1.34513 0
M  V30 4496 C 430.566 -0.726384 -1.49375 0
M  V30 4497 O 431.751 -0.977063 -1.63884 0
M  V30 4498 C 428.891 -2.14738 -2.70151 0
M  V30 4499 C 428.004 -3.42285 -2.63562 0
M  V30 4500 C 427.139 -3.59206 -3.91337 0
M  V30 4501 C 426.178 -4.80467 -3.79233 0
M  V30 4502 N 425.315 -4.94079 -4.98829 0
M  V30 4503 H 430.155 -2.78456 -1.06143 0
M  V30 4504 H 427.692 -1.37867 -0.512936 0
M  V30 4505 H 429.65 -2.28501 -3.49061 0
M  V30 4506 H 428.28 -1.27075 -2.96735 0
M  V30 4507 H 427.332 -3.37029 -1.76397 0
M  V30 4508 H 428.644 -4.31328 -2.50515 0
M  V30 4509 H 427.798 -3.72751 -4.78687 0
M  V30 4510 H 426.537 -2.68337 -4.07243 0
M  V30 4511 H 425.542 -4.66932 -2.90266 0
M  V30 4512 H 426.767 -5.72765 -3.64852 0
M  V30 4513 H 424.713 -4.06139 -5.15158 0
M  V30 4514 H 424.63 -5.77156 -4.8829 0
M  V30 4515 H 425.898 -5.12003 -5.8777 0
M  V30 4516 N 430.127 0.543554 -1.4793 0
M  V30 4517 C 431.355 1.32516 -1.58894 0
M  V30 4518 C 431.77 1.87215 -0.244131 0
M  V30 4519 O 431.127 1.65709 0.764652 0
M  V30 4520 C 431.178 2.48554 -2.62494 0
M  V30 4521 O 430.899 1.96112 -3.91755 0
M  V30 4522 C 432.4 3.40572 -2.8377 0
M  V30 4523 H 429.62 0.403472 -0.536145 0
M  V30 4524 H 432.164 0.657106 -1.93655 0
M  V30 4525 H 430.319 3.1127 -2.30629 0
M  V30 4526 H 430.733 2.71967 -4.4848 0
M  V30 4527 H 432.207 4.18375 -3.60093 0
M  V30 4528 H 432.684 3.94965 -1.92092 0
M  V30 4529 H 433.29 2.8366 -3.16887 0
M  V30 4530 N 431.605 1.3629 0.791371 0
M  V30 4531 C 432.83 1.33726 1.58531 0
M  V30 4532 C 433.255 -0.0794933 1.87932 0
M  V30 4533 O 432.613 -1.05087 1.47738 0
M  V30 4534 C 432.661 2.16425 2.88431 0
M  V30 4535 O 431.765 1.5554 3.81944 0
M  V30 4536 H 431.106 0.457793 0.480959 0
M  V30 4537 H 433.636 1.79547 0.981031 0
M  V30 4538 H 433.646 2.28933 3.37718 0
M  V30 4539 H 432.321 3.19415 2.66359 0
M  V30 4540 H 430.898 1.51961 3.40532 0
M  V30 4541 N 433.083 -1.0153 1.20538 0
M  V30 4542 C 434.046 -2.0826 0.957098 0
M  V30 4543 C 435.046 -1.60657 -0.0678655 0
M  V30 4544 O 436.236 -1.73385 0.168332 0
M  V30 4545 C 433.368 -3.38033 0.441188 0
M  V30 4546 H 434.561 -2.31719 1.90384 0
M  V30 4547 H 432.114 -1.1835 1.02093 0
M  V30 4548 H 432.849 -3.20249 -0.510961 0
M  V30 4549 H 432.634 -3.73911 1.18038 0
M  V30 4550 H 434.124 -4.16613 0.287009 0
M  V30 4551 N 434.561 -1.01147 -1.20859 0
M  V30 4552 C 435.81 -0.693214 -1.89413 0
M  V30 4553 C 436.123 0.779969 -1.79376 0
M  V30 4554 O 437.329 1.21057 -2.43017 0
M  V30 4555 C 435.785 -1.18949 -3.39675 0
M  V30 4556 C 435.393 -2.68921 -3.58309 0
M  V30 4557 C 437.137 -0.94642 -4.13815 0
M  V30 4558 C 435.044 -3.12056 -5.0237 0
M  V30 4559 H 433.974 -0.255595 -0.709357 0
M  V30 4560 H 436.625 -1.22349 -1.36759 0
M  V30 4561 H 435.007 -0.587228 -3.91622 0
M  V30 4562 H 436.181 -3.34652 -3.16772 0
M  V30 4563 H 434.496 -2.91314 -2.97532 0
M  V30 4564 H 437.093 -1.24417 -5.20023 0
M  V30 4565 H 437.436 0.117219 -4.16135 0
M  V30 4566 H 437.969 -1.5118 -3.67953 0
M  V30 4567 H 434.708 -4.17674 -5.05202 0
M  V30 4568 H 434.228 -2.51041 -5.44737 0
M  V30 4569 H 435.907 -3.04403 -5.70918 0
M  V30 4570 N 436.039 1.36541 -0.78704 0
M  V30 4571 C 436.949 2.3387 -0.184896 0
M  V30 4572 C 437.965 1.60927 0.661697 0
M  V30 4573 O 439.141 1.92927 0.57804 0
M  V30 4574 C 436.206 3.40122 0.672145 0
M  V30 4575 C 435.267 4.28867 -0.19267 0
M  V30 4576 C 434.5 5.30045 0.623561 0
M  V30 4577 O 434.723 5.39232 1.8597 0
M  V30 4578 O 433.657 6.01895 0.0247068 0
M  V30 4579 H 437.483 2.87126 -0.989562 0
M  V30 4580 H 435.068 1.38969 -0.548455 0
M  V30 4581 H 436.95 4.05093 1.16094 0
M  V30 4582 H 435.625 2.89169 1.45474 0
M  V30 4583 H 434.532 3.66945 -0.728166 0
M  V30 4584 H 435.865 4.83165 -0.938722 0
M  V30 4585 N 437.518 0.538854 1.48102 0
M  V30 4586 C 438.764 0.00801365 2.02798 0
M  V30 4587 C 439.097 -1.3309 1.41424 0
M  V30 4588 O 438.372 -1.86169 0.563158 0
M  V30 4589 C 438.655 -0.104589 3.59948 0
M  V30 4590 C 438.508 1.26012 4.31788 0
M  V30 4591 C 439.827 -0.827055 4.32259 0
M  V30 4592 H 436.946 0.00438624 0.736987 0
M  V30 4593 H 439.588 0.6976 1.7673 0
M  V30 4594 H 437.738 -0.691893 3.82289 0
M  V30 4595 H 439.41 1.88922 4.2084 0
M  V30 4596 H 437.653 1.83968 3.92859 0
M  V30 4597 H 438.324 1.13424 5.40221 0
M  V30 4598 H 440.8 -0.328578 4.14801 0
M  V30 4599 H 439.676 -0.87476 5.41885 0
M  V30 4600 H 439.937 -1.87927 4.0017 0
M  V30 4601 N 438.996 -1.55193 0.274407 0
M  V30 4602 C 439.929 -2.18606 -0.654712 0
M  V30 4603 C 440.907 -1.14677 -1.15273 0
M  V30 4604 O 442.091 -1.43198 -1.22583 0
M  V30 4605 C 439.218 -2.80875 -1.89281 0
M  V30 4606 C 438.264 -3.981 -1.53032 0
M  V30 4607 S 439.097 -5.32025 -0.609107 0
M  V30 4608 C 440.253 -5.97761 -1.85559 0
M  V30 4609 H 440.486 -2.97074 -0.115894 0
M  V30 4610 H 438.019 -1.54288 0.05867 0
M  V30 4611 H 439.977 -3.17381 -2.60345 0
M  V30 4612 H 438.638 -2.02302 -2.40277 0
M  V30 4613 H 437.831 -4.40356 -2.45158 0
M  V30 4614 H 437.433 -3.63013 -0.899874 0
M  V30 4615 H 439.725 -6.16951 -2.7996 0
M  V30 4616 H 440.668 -6.92545 -1.47605 0
M  V30 4617 H 441.076 -5.27113 -2.02021 0
M  V30 4618 N 440.474 -0.00167713 -1.576 0
M  V30 4619 C 441.404 0.988091 -2.11563 0
M  V30 4620 C 442.385 1.35736 -1.02517 0
M  V30 4621 O 443.57 1.44082 -1.30208 0
M  V30 4622 C 440.7 2.27941 -2.62031 0
M  V30 4623 C 439.654 2.0517 -3.75619 0
M  V30 4624 C 438.98 3.4033 -4.12407 0
M  V30 4625 C 440.28 1.41294 -5.02825 0
M  V30 4626 H 441.974 0.538771 -2.94513 0
M  V30 4627 H 439.52 0.257712 -1.41675 0
M  V30 4628 H 441.473 2.97539 -2.9841 0
M  V30 4629 H 440.197 2.74989 -1.76205 0
M  V30 4630 H 438.856 1.37998 -3.39635 0
M  V30 4631 H 438.504 3.85085 -3.23603 0
M  V30 4632 H 438.204 3.25909 -4.88935 0
M  V30 4633 H 439.728 4.1124 -4.51347 0
M  V30 4634 H 441.142 2.00851 -5.36965 0
M  V30 4635 H 439.539 1.37356 -5.84169 0
M  V30 4636 H 440.609 0.382362 -4.8339 0
M  V30 4637 N 441.952 1.55251 0.271103 0
M  V30 4638 C 442.882 1.9127 1.33933 0
M  V30 4639 C 443.863 0.77478 1.5143 0
M  V30 4640 O 445.048 1.03307 1.64442 0
M  V30 4641 C 442.178 2.18627 2.69851 0
M  V30 4642 C 441.132 3.34442 2.67081 0
M  V30 4643 C 440.458 3.47284 4.06569 0
M  V30 4644 C 441.758 4.70784 2.26185 0
M  V30 4645 H 443.452 2.80744 1.04035 0
M  V30 4646 H 440.998 1.35077 0.499017 0
M  V30 4647 H 442.951 2.42413 3.44694 0
M  V30 4648 H 441.675 1.25955 3.01335 0
M  V30 4649 H 440.334 3.10627 1.94695 0
M  V30 4650 H 439.982 2.52074 4.35279 0
M  V30 4651 H 439.682 4.25152 4.0561 0
M  V30 4652 H 441.206 3.73363 4.83148 0
M  V30 4653 H 442.62 4.94102 2.90751 0
M  V30 4654 H 441.017 5.51582 2.36384 0
M  V30 4655 H 442.087 4.69478 1.21319 0
M  V30 4656 N 443.43 -0.535701 1.48216 0
M  V30 4657 C 444.34 -1.66785 1.64985 0
M  V30 4658 C 445.356 -1.65654 0.532414 0
M  V30 4659 O 446.532 -1.8471 0.80275 0
M  V30 4660 C 443.597 -3.0326 1.68031 0
M  V30 4661 C 442.658 -3.1529 2.9136 0
M  V30 4662 C 441.891 -4.45255 2.94252 0
M  V30 4663 O 442.114 -5.32011 2.05719 0
M  V30 4664 O 441.048 -4.6153 3.86359 0
M  V30 4665 H 444.874 -1.55576 2.60825 0
M  V30 4666 H 442.459 -0.70815 1.31551 0
M  V30 4667 H 444.341 -3.84436 1.72589 0
M  V30 4668 H 443.016 -3.14805 0.753628 0
M  V30 4669 H 441.923 -2.3343 2.92337 0
M  V30 4670 H 443.256 -3.08658 3.83394 0
M  V30 4671 N 444.908 -1.36708 -0.784132 0
M  V30 4672 C 446.136 -1.34398 -1.57305 0
M  V30 4673 C 446.551 0.0735577 -1.88657 0
M  V30 4674 O 445.908 1.03193 -1.50524 0
M  V30 4675 C 445.959 -2.17053 -2.89085 0
M  V30 4676 O 445.68 -3.53281 -2.59083 0
M  V30 4677 C 447.181 -2.22583 -3.83369 0
M  V30 4678 H 444.401 -0.460819 -0.487736 0
M  V30 4679 H 446.945 -1.79879 -0.972819 0
M  V30 4680 H 445.1 -1.75113 -3.45564 0
M  V30 4681 H 445.514 -3.9647 -3.43383 0
M  V30 4682 H 446.988 -2.84763 -4.72878 0
M  V30 4683 H 447.465 -1.23075 -4.21603 0
M  V30 4684 H 448.071 -2.64781 -3.32823 0
M  V30 4685 N 446.386 1.0089 -1.21074 0
M  V30 4686 C 447.611 1.78727 -1.05221 0
M  V30 4687 C 448.036 1.83932 0.393795 0
M  V30 4688 O 447.394 1.28004 1.28393 0
M  V30 4689 C 447.442 3.20665 -1.64944 0
M  V30 4690 O 446.546 4.02632 -0.892273 0
M  V30 4691 H 445.887 0.550973 -0.370574 0
M  V30 4692 H 448.417 1.26847 -1.60534 0
M  V30 4693 H 448.427 3.71352 -1.69002 0
M  V30 4694 H 447.102 3.16191 -2.70177 0
M  V30 4695 H 445.679 3.61207 -0.926492 0
M  V30 4696 N 447.864 1.01787 1.20321 0
M  V30 4697 C 449.28 0.732951 1.41774 0
M  V30 4698 C 449.48 -0.686883 1.89431 0
M  V30 4699 O 448.536 -1.45446 2.06402 0
M  V30 4700 C 449.849 1.75973 2.43832 0
M  V30 4701 C 451.397 1.77802 2.57596 0
M  V30 4702 C 451.872 2.7941 3.62897 0
M  V30 4703 N 453.363 2.78157 3.70382 0
M  V30 4704 C 454.098 3.53434 4.51521 0
M  V30 4705 N 453.594 4.38392 5.36455 0
M  V30 4706 N 455.387 3.42026 4.46066 0
M  V30 4707 H 447.538 1.93447 0.877035 0
M  V30 4708 H 449.801 0.835712 0.447536 0
M  V30 4709 H 449.507 2.77699 2.15815 0
M  V30 4710 H 449.381 1.57292 3.4284 0
M  V30 4711 H 451.768 0.767602 2.84942 0
M  V30 4712 H 451.849 2.00557 1.58779 0
M  V30 4713 H 451.493 3.80616 3.36295 0
M  V30 4714 H 451.423 2.53916 4.61339 0
M  V30 4715 H 453.914 2.16531 3.09714 0
M  V30 4716 H 454.227 4.92596 5.95457 0
M  V30 4717 H 452.572 4.4247 5.35953 0
M  V30 4718 H 455.763 2.75075 3.78749 0
M  V30 4719 H 455.936 4.00946 5.09064 0
M  V30 4720 N 449.342 -1.36122 0.79427 0
M  V30 4721 C 450.758 -1.5232 0.476525 0
M  V30 4722 C 450.958 -1.74685 -1.00436 0
M  V30 4723 O 450.014 -1.78115 -1.78973 0
M  V30 4724 C 451.327 -2.70607 1.31119 0
M  V30 4725 C 452.875 -2.8448 1.30537 0
M  V30 4726 C 453.35 -4.05778 2.12387 0
M  V30 4727 N 454.841 -4.12933 2.09859 0
M  V30 4728 C 455.576 -5.05876 2.69957 0
M  V30 4729 N 455.072 -6.04232 3.38934 0
M  V30 4730 N 456.865 -4.98528 2.59665 0
M  V30 4731 H 449.016 -1.1986 1.75349 0
M  V30 4732 H 451.279 -0.585418 0.745647 0
M  V30 4733 H 450.985 -2.60619 2.36158 0
M  V30 4734 H 450.859 -3.64888 0.955843 0
M  V30 4735 H 453.246 -2.93927 0.262876 0
M  V30 4736 H 453.327 -1.91093 1.70051 0
M  V30 4737 H 452.971 -3.97092 3.1667 0
M  V30 4738 H 452.901 -4.98323 1.70242 0
M  V30 4739 H 455.392 -3.42515 1.59662 0
M  V30 4740 H 455.705 -6.71724 3.82109 0
M  V30 4741 H 454.05 -6.04443 3.43036 0
M  V30 4742 H 457.241 -4.20641 2.05375 0
M  V30 4743 H 457.414 -5.70773 3.06793 0
M  V30 4744 N 450.82 -0.546701 -1.47814 0
M  V30 4745 C 452.05 -0.0232519 -2.06587 0
M  V30 4746 C 452.458 1.2712 -1.40133 0
M  V30 4747 O 451.801 1.77091 -0.488305 0
M  V30 4748 C 451.863 0.254117 -3.58601 0
M  V30 4749 C 451.527 -0.949331 -4.47031 0
M  V30 4750 C 452.524 -1.85216 -4.85789 0
M  V30 4751 C 450.209 -1.16104 -4.88697 0
M  V30 4752 C 452.203 -2.95047 -5.65001 0
M  V30 4753 C 449.89 -2.26247 -5.67676 0
M  V30 4754 C 450.888 -3.1555 -6.05737 0
M  V30 4755 O 450.576 -4.23784 -6.83127 0
M  V30 4756 H 450.308 -0.0380082 -0.674931 0
M  V30 4757 H 452.862 -0.756631 -1.90956 0
M  V30 4758 H 451.092 1.04168 -3.72406 0
M  V30 4759 H 452.781 0.72167 -3.99433 0
M  V30 4760 H 453.547 -1.70061 -4.54207 0
M  V30 4761 H 449.426 -0.475159 -4.58545 0
M  V30 4762 H 452.97 -3.64778 -5.94628 0
M  V30 4763 H 448.867 -2.41379 -5.98671 0
M  V30 4764 H 449.635 -4.21701 -7.01506 0
M  V30 4765 N 452.299 1.55045 -0.282633 0
M  V30 4766 C 453.247 2.24254 0.617478 0
M  V30 4767 C 454.241 1.24215 1.15183 0
M  V30 4768 O 455.447 1.42123 1.10459 0
M  V30 4769 H 451.822 0.719801 0.217693 0
M  V30 4770 H 453.793 2.98398 0.0110076 0
M  V30 4771 C 452.542 2.98281 1.78672 0
M  V30 4772 H 451.865 3.75053 1.38475 0
M  V30 4773 H 453.305 3.50017 2.393 0
M  V30 4774 C 451.764 2.04184 2.67975 0
M  V30 4775 O 452.294 1.59792 3.6855 0
M  V30 4776 N 450.5 1.70526 2.35307 0
M  V30 4777 H 450.047 2.06821 1.53567 0
M  V30 4778 H 450.005 1.07839 2.95327 0
M  V30 4779 N 453.777 0.010035 1.57597 0
M  V30 4780 C 455.188 -0.531426 1.78977 0
M  V30 4781 C 455.539 -1.73375 0.918454 0
M  V30 4782 O 454.664 -2.16047 0.123635 0
M  V30 4783 C 455.259 -0.97086 3.24592 0
M  V30 4784 C 453.818 -1.45756 3.47033 0
M  V30 4785 C 452.965 -0.413384 2.74201 0
M  V30 4786 H 455.916 0.236166 1.56933 0
M  V30 4787 H 455.937 -1.83633 3.33255 0
M  V30 4788 H 455.449 -0.0955893 3.87982 0
M  V30 4789 H 453.55 -2.35339 2.88871 0
M  V30 4790 H 453.663 -1.4781 4.55729 0
M  V30 4791 H 452.027 -0.877266 2.39115 0
M  V30 4792 H 452.81 0.453092 3.40297 0
M  V30 4793 N 455.255 -1.55392 -0.262866 0
M  V30 4794 C 456.503 -1.76127 -0.991147 0
M  V30 4795 C 456.824 -0.571083 -1.8645 0
M  V30 4796 O 456.094 0.413698 -1.91482 0
M  V30 4797 H 454.674 -0.649528 -0.368948 0
M  V30 4798 H 457.336 -1.9281 -0.284655 0
M  V30 4799 H 456.432 -2.6663 -1.62219 0
M  V30 4800 N 456.733 0.527833 -1.48498 0
M  V30 4801 C 457.958 1.313 -1.60546 0
M  V30 4802 C 458.383 1.86199 -0.26672 0
M  V30 4803 O 457.741 1.64513 0.761918 0
M  V30 4804 C 457.789 2.43818 -2.65678 0
M  V30 4805 O 456.893 3.46916 -2.22987 0
M  V30 4806 H 456.234 0.388784 -0.538277 0
M  V30 4807 H 458.764 0.634896 -1.945 0
M  V30 4808 H 458.774 2.89973 -2.87018 0
M  V30 4809 H 457.449 2.03222 -3.62869 0
M  V30 4810 H 456.026 3.06864 -2.11869 0
M  V30 4811 N 458.211 1.37122 0.776871 0
M  V30 4812 C 459.121 1.34651 1.9211 0
M  V30 4813 C 460.137 0.246824 1.7224 0
M  V30 4814 O 461.313 0.48134 1.95563 0
M  V30 4815 C 458.378 1.14748 3.2716 0
M  V30 4816 C 457.439 2.34308 3.5972 0
M  V30 4817 C 456.672 2.15345 4.88326 0
M  V30 4818 O 456.895 1.13507 5.58992 0
M  V30 4819 O 455.829 3.03414 5.1983 0
M  V30 4820 H 459.655 2.31013 1.97146 0
M  V30 4821 H 457.24 1.17799 0.918901 0
M  V30 4822 H 459.122 1.05616 4.0795 0
M  V30 4823 H 457.797 0.214562 3.22988 0
M  V30 4824 H 456.704 2.49011 2.79185 0
M  V30 4825 H 458.037 3.26149 3.68629 0
M  V30 4826 N 459.689 -1.00246 1.21608 0
M  V30 4827 C 460.914 -1.78167 1.06167 0
M  V30 4828 C 461.339 -1.84138 -0.384035 0
M  V30 4829 O 460.697 -1.28683 -1.27712 0
M  V30 4830 C 460.745 -3.19786 1.66642 0
M  V30 4831 O 459.849 -4.02153 0.913613 0
M  V30 4832 H 459.19 -0.549 0.37349 0
M  V30 4833 H 461.72 -1.25994 1.61204 0
M  V30 4834 H 461.73 -3.70451 1.70969 0
M  V30 4835 H 460.405 -3.14754 2.7185 0
M  V30 4836 H 458.982 -3.60711 0.945635 0
M  V30 4837 N 461.167 -1.02423 -1.1978 0
M  V30 4838 C 462.416 -0.713265 -1.88667 0
M  V30 4839 C 462.729 0.7609 -1.80193 0
M  V30 4840 O 463.935 1.18473 -2.44288 0
M  V30 4841 C 462.391 -1.22545 -3.38394 0
M  V30 4842 C 461.999 -2.72706 -3.55437 0
M  V30 4843 C 463.743 -0.990257 -4.12788 0
M  V30 4844 C 461.65 -3.17367 -4.99031 0
M  V30 4845 H 460.58 -0.263105 -0.706606 0
M  V30 4846 H 463.231 -1.23792 -1.35454 0
M  V30 4847 H 461.613 -0.628732 -3.90977 0
M  V30 4848 H 462.787 -3.37993 -3.13205 0
M  V30 4849 H 461.102 -2.94453 -2.94425 0
M  V30 4850 H 463.699 -1.29926 -5.18675 0
M  V30 4851 H 464.042 0.0730761 -4.16236 0
M  V30 4852 H 464.575 -1.55074 -3.66329 0
M  V30 4853 H 461.314 -4.23009 -5.00743 0
M  V30 4854 H 460.834 -2.56805 -5.42044 0
M  V30 4855 H 462.513 -3.10441 -5.67658 0
M  V30 4856 N 462.645 1.35699 -0.801477 0
M  V30 4857 C 463.873 2.03157 -0.391768 0
M  V30 4858 C 464.288 1.60412 0.995668 0
M  V30 4859 O 463.645 0.799228 1.64069 0
M  V30 4860 C 463.696 3.58566 -0.459671 0
M  V30 4861 O 463.417 3.99756 -1.7924 0
M  V30 4862 C 464.918 4.4328 -0.0421205 0
M  V30 4863 H 462.138 0.651688 -0.159825 0
M  V30 4864 H 464.682 1.73426 -1.08368 0
M  V30 4865 H 462.837 3.86963 0.183939 0
M  V30 4866 H 463.251 4.94387 -1.75162 0
M  V30 4867 H 464.725 5.51821 -0.140754 0
M  V30 4868 H 465.202 4.27383 1.01196 0
M  V30 4869 H 465.808 4.20168 -0.658687 0
M  V30 4870 N 464.123 0.554532 1.47522 0
M  V30 4871 C 465.37 0.029479 2.02479 0
M  V30 4872 C 465.698 -1.31929 1.42916 0
M  V30 4873 O 464.953 -1.87112 0.573385 0
M  V30 4874 C 465.252 -0.115927 3.57212 0
M  V30 4875 C 464.918 1.16161 4.3568 0
M  V30 4876 C 463.58 1.51168 4.56839 0
M  V30 4877 C 465.932 2.0083 4.80954 0
M  V30 4878 C 463.26 2.70696 5.2052 0
M  V30 4879 C 465.612 3.19559 5.45953 0
M  V30 4880 C 464.276 3.54882 5.65345 0
M  V30 4881 H 463.546 0.0107871 0.740921 0
M  V30 4882 H 466.193 0.725506 1.77225 0
M  V30 4883 H 464.498 -0.894902 3.81443 0
M  V30 4884 H 466.195 -0.53749 3.97381 0
M  V30 4885 H 462.785 0.879026 4.19489 0
M  V30 4886 H 466.969 1.75093 4.64388 0
M  V30 4887 H 462.225 2.98236 5.33728 0
M  V30 4888 H 466.399 3.85456 5.79997 0
M  V30 4889 H 464.026 4.47596 6.1446 0
M  V30 4890 N 465.601 -1.54893 0.290851 0
M  V30 4891 C 466.531 -2.26103 -0.583084 0
M  V30 4892 C 467.512 -1.25684 -1.14619 0
M  V30 4893 O 468.697 -1.54436 -1.17741 0
M  V30 4894 C 465.827 -2.99409 -1.75987 0
M  V30 4895 C 464.781 -4.0689 -1.32758 0
M  V30 4896 C 464.107 -4.67856 -2.58872 0
M  V30 4897 C 465.407 -5.20215 -0.46624 0
M  V30 4898 H 467.101 -2.99398 0.0108214 0
M  V30 4899 H 464.647 -1.43998 0.00664468 0
M  V30 4900 H 466.6 -3.47943 -2.37727 0
M  V30 4901 H 465.324 -2.23675 -2.37985 0
M  V30 4902 H 463.983 -3.59191 -0.733299 0
M  V30 4903 H 463.631 -3.88772 -3.19163 0
M  V30 4904 H 463.331 -5.40438 -2.30653 0
M  V30 4905 H 464.855 -5.19147 -3.21433 0
M  V30 4906 H 466.269 -5.64704 -0.989047 0
M  V30 4907 H 464.666 -5.99455 -0.27826 0
M  V30 4908 H 465.736 -4.82198 0.511173 0
M  V30 4909 N 467.08 -0.0183926 -1.57589 0
M  V30 4910 C 468.027 0.967022 -2.09565 0
M  V30 4911 C 468.997 1.32983 -0.995225 0
M  V30 4912 O 470.182 1.42501 -1.26878 0
M  V30 4913 C 467.322 2.24772 -2.61861 0
M  V30 4914 C 466.435 1.94232 -3.85873 0
M  V30 4915 C 465.57 3.16518 -4.26603 0
M  V30 4916 C 464.609 2.81748 -5.43401 0
M  V30 4917 N 463.746 3.96626 -5.79338 0
M  V30 4918 H 468.586 0.516874 -2.93483 0
M  V30 4919 H 466.123 0.243544 -1.4507 0
M  V30 4920 H 468.081 2.99667 -2.90268 0
M  V30 4921 H 466.711 2.67423 -1.8079 0
M  V30 4922 H 465.763 1.09625 -3.64262 0
M  V30 4923 H 467.075 1.64616 -4.70853 0
M  V30 4924 H 466.229 3.99743 -4.56389 0
M  V30 4925 H 464.968 3.49286 -3.40368 0
M  V30 4926 H 463.973 1.96933 -5.1332 0
M  V30 4927 H 465.198 2.50207 -6.31327 0
M  V30 4928 H 463.144 4.29257 -4.96059 0
M  V30 4929 H 463.061 3.70598 -6.58933 0
M  V30 4930 H 464.329 4.80586 -6.13724 0
M  V30 4931 N 468.558 1.5553 0.254621 0
M  V30 4932 C 469.835 1.6774 1.00611 0
M  V30 4933 C 470.215 0.555993 2.03647 0
M  V30 4934 O 469.563 -0.441583 2.24193 0
M  V30 4935 C 469.773 3.07725 1.6464 0
M  V30 4936 C 471.121 3.66074 2.15116 0
M  V30 4937 O 472.145 3.10476 1.74595 0
M  V30 4938 O 471.004 4.63526 2.89493 0
M  V30 4939 H 468.098 0.681958 0.467828 0
M  V30 4940 H 470.644 1.67863 0.24902 0
M  V30 4941 H 469.416 3.80792 0.900734 0
M  V30 4942 H 469.039 3.1158 2.46989 0
M  V30 4943 N 470.036 -0.519951 1.48776 0
M  V30 4944 C 471.283 -1.27522 1.57303 0
M  V30 4945 C 471.611 -1.92869 0.251328 0
M  V30 4946 O 470.866 -1.80372 -0.759243 0
M  V30 4947 C 471.165 -2.37864 2.6675 0
M  V30 4948 C 470.831 -1.90103 4.08867 0
M  V30 4949 C 469.493 -1.76795 4.47546 0
M  V30 4950 C 471.845 -1.54133 4.97888 0
M  V30 4951 C 469.173 -1.25868 5.73039 0
M  V30 4952 C 471.525 -1.04665 6.23881 0
M  V30 4953 C 470.189 -0.899823 6.61407 0
M  V30 4954 H 469.459 -0.466636 0.575614 0
M  V30 4955 H 472.106 -0.579109 1.82534 0
M  V30 4956 H 470.411 -3.13186 2.35418 0
M  V30 4957 H 472.108 -2.95969 2.70561 0
M  V30 4958 H 468.698 -2.01414 3.78326 0
M  V30 4959 H 472.882 -1.6327 4.68675 0
M  V30 4960 H 468.138 -1.13196 6.0083 0
M  V30 4961 H 472.312 -0.759074 6.92251 0
M  V30 4962 H 469.939 -0.503011 7.58534 0
M  V30 4963 N 471.514 -1.37532 -0.769588 0
M  V30 4964 C 472.739 -1.36231 -1.56384 0
M  V30 4965 C 473.164 0.0495849 -1.88035 0
M  V30 4966 O 472.522 1.02723 -1.49391 0
M  V30 4967 C 472.57 -2.20986 -2.84952 0
M  V30 4968 O 471.674 -1.61597 -3.79421 0
M  V30 4969 H 471.015 -0.465387 -0.473615 0
M  V30 4970 H 473.545 -1.81085 -0.952342 0
M  V30 4971 H 473.555 -2.34277 -3.34034 0
M  V30 4972 H 472.23 -3.23612 -2.61243 0
M  V30 4973 H 470.807 -1.57359 -3.38072 0
M  V30 4974 N 472.992 0.995999 -1.22138 0
M  V30 4975 C 474.222 1.76809 -1.06874 0
M  V30 4976 C 474.63 1.85265 0.383866 0
M  V30 4977 O 473.973 1.31969 1.27789 0
M  V30 4978 C 474.035 3.2186 -1.60144 0
M  V30 4979 C 473.699 3.36958 -3.0872 0
M  V30 4980 C 474.696 3.2452 -4.0618 0
M  V30 4981 C 472.381 3.62109 -3.48112 0
M  V30 4982 C 474.375 3.37013 -5.41019 0
M  V30 4983 C 472.062 3.74243 -4.831 0
M  V30 4984 C 473.06 3.61702 -5.79362 0
M  V30 4985 O 472.748 3.73436 -7.119 0
M  V30 4986 H 472.48 0.562207 -0.375365 0
M  V30 4987 H 475.034 1.26113 -1.62125 0
M  V30 4988 H 473.264 3.73734 -0.992981 0
M  V30 4989 H 474.953 3.80775 -1.40589 0
M  V30 4990 H 475.719 3.05004 -3.77091 0
M  V30 4991 H 471.598 3.70949 -2.73712 0
M  V30 4992 H 475.142 3.27141 -6.16137 0
M  V30 4993 H 471.039 3.93266 -5.11872 0
M  V30 4994 H 471.807 3.90328 -7.19435 0
M  V30 4995 N 474.47 1.03057 1.19235 0
M  V30 4996 C 475.418 0.606391 2.24557 0
M  V30 4997 C 476.412 -0.361826 1.65491 0
M  V30 4998 O 477.618 -0.23022 1.78522 0
M  V30 4999 H 473.993 0.177838 0.730669 0
M  V30 5000 H 475.964 1.50529 2.5765 0
M  V30 5001 C 474.713 -0.0252127 3.47691 0
M  V30 5002 H 474.036 0.710838 3.9343 0
M  V30 5003 H 475.476 -0.284931 4.23042 0
M  V30 5004 C 473.935 -1.27229 3.11953 0
M  V30 5005 O 474.465 -2.36416 3.24762 0
M  V30 5006 N 472.671 -1.16169 2.6637 0
M  V30 5007 H 472.218 -0.273189 2.56147 0
M  V30 5008 H 472.176 -1.99703 2.42829 0
M  V30 5009 N 475.948 -1.35272 0.808662 0
M  V30 5010 C 477.364 -1.51806 0.492653 0
M  V30 5011 C 477.564 -1.7574 -0.985778 0
M  V30 5012 O 476.62 -1.80003 -1.77074 0
M  V30 5013 C 477.933 -2.69202 1.33981 0
M  V30 5014 C 479.481 -2.8308 1.33547 0
M  V30 5015 C 479.956 -4.03502 2.16679 0
M  V30 5016 N 481.447 -4.10684 2.14227 0
M  V30 5017 C 482.182 -5.02984 2.75308 0
M  V30 5018 N 481.678 -6.00603 3.45323 0
M  V30 5019 N 483.471 -4.95746 2.64938 0
M  V30 5020 H 475.622 -1.17993 1.76611 0
M  V30 5021 H 477.885 -0.577476 0.751814 0
M  V30 5022 H 477.591 -2.581 2.38909 0
M  V30 5023 H 477.465 -3.63854 0.994491 0
M  V30 5024 H 479.852 -2.93631 0.294036 0
M  V30 5025 H 479.933 -1.89278 1.72068 0
M  V30 5026 H 479.577 -3.93711 3.20864 0
M  V30 5027 H 479.507 -4.96489 1.75517 0
M  V30 5028 H 481.998 -3.40802 1.63285 0
M  V30 5029 H 482.311 -6.67633 3.89212 0
M  V30 5030 H 480.656 -6.0077 3.49428 0
M  V30 5031 H 483.847 -4.18439 2.09825 0
M  V30 5032 H 484.02 -5.67487 3.12829 0
M  V30 5033 N 477.426 -0.562348 -1.47226 0
M  V30 5034 C 478.336 0.185466 -2.33866 0
M  V30 5035 C 479.352 0.906713 -1.48508 0
M  V30 5036 O 480.528 0.874458 -1.81425 0
M  V30 5037 C 477.593 1.19904 -3.25306 0
M  V30 5038 C 476.654 0.484669 -4.26555 0
M  V30 5039 C 475.887 1.44996 -5.13626 0
M  V30 5040 O 476.11 2.68515 -5.03245 0
M  V30 5041 O 475.044 0.971642 -5.94006 0
M  V30 5042 H 478.87 -0.525361 -2.99121 0
M  V30 5043 H 476.455 -0.322916 -1.45868 0
M  V30 5044 H 478.337 1.78399 -3.81774 0
M  V30 5045 H 477.012 1.8917 -2.62672 0
M  V30 5046 H 475.919 -0.141605 -3.73832 0
M  V30 5047 H 477.252 -0.166634 -4.91918 0
M  V30 5048 N 478.904 1.54736 -0.299062 0
M  V30 5049 C 480.181 1.92187 0.363802 0
M  V30 5050 C 480.561 1.22607 1.71845 0
M  V30 5051 O 479.909 0.361141 2.25628 0
M  V30 5052 C 480.119 3.45678 0.480377 0
M  V30 5053 C 481.467 4.17885 0.752147 0
M  V30 5054 O 482.491 3.51702 0.564264 0
M  V30 5055 O 481.35 5.35048 1.11294 0
M  V30 5056 H 478.444 0.801681 0.203066 0
M  V30 5057 H 480.99 1.66115 -0.346978 0
M  V30 5058 H 479.762 3.88443 -0.471999 0
M  V30 5059 H 479.385 3.77779 1.2397 0
M  V30 5060 N 480.382 0.0267497 1.57577 0
M  V30 5061 C 481.629 -0.652404 1.91703 0
M  V30 5062 C 481.957 -1.72271 0.902936 0
M  V30 5063 O 481.212 -1.955 -0.0884843 0
M  V30 5064 C 481.511 -1.30914 3.3256 0
M  V30 5065 C 481.177 -0.369441 4.49384 0
M  V30 5066 C 479.839 -0.110791 4.81072 0
M  V30 5067 C 482.191 0.275971 5.20469 0
M  V30 5068 C 479.519 0.801116 5.81205 0
M  V30 5069 C 481.871 1.17592 6.21575 0
M  V30 5070 C 480.535 1.44348 6.51705 0
M  V30 5071 H 479.805 -0.238732 0.70149 0
M  V30 5072 H 482.452 0.0880091 1.91298 0
M  V30 5073 H 480.757 -2.12425 3.29216 0
M  V30 5074 H 482.454 -1.84115 3.56234 0
M  V30 5075 H 479.044 -0.581211 4.24641 0
M  V30 5076 H 483.228 0.0892 4.9622 0
M  V30 5077 H 478.484 1.01614 6.02897 0
M  V30 5078 H 482.658 1.68223 6.75777 0
M  V30 5079 H 480.285 2.15176 7.29111 0
M  V30 5080 N 481.861 -1.55662 -0.24637 0
M  V30 5081 C 482.824 -1.89558 -1.28842 0
M  V30 5082 C 483.824 -0.772082 -1.41052 0
M  V30 5083 O 485.014 -1.04007 -1.39743 0
M  V30 5084 C 482.146 -2.12449 -2.66605 0
M  V30 5085 H 483.339 -2.82735 -1.00004 0
M  V30 5086 H 480.892 -1.48562 -0.485684 0
M  V30 5087 H 481.627 -1.21742 -3.00582 0
M  V30 5088 H 481.412 -2.94273 -2.59125 0
M  V30 5089 H 482.902 -2.39854 -3.41847 0
M  V30 5090 N 483.339 0.512053 -1.4905 0
M  V30 5091 C 484.286 1.6148 -1.64902 0
M  V30 5092 C 485.256 1.58687 -0.490673 0
M  V30 5093 O 486.441 1.76842 -0.71636 0
M  V30 5094 C 483.581 2.99676 -1.71139 0
M  V30 5095 C 482.694 3.12568 -2.98203 0
M  V30 5096 C 481.829 4.4143 -2.95487 0
M  V30 5097 C 480.868 4.47916 -4.17179 0
M  V30 5098 N 480.005 5.68191 -4.12437 0
M  V30 5099 H 484.845 1.47271 -2.59066 0
M  V30 5100 H 482.382 0.716713 -1.28459 0
M  V30 5101 H 484.34 3.79761 -1.72736 0
M  V30 5102 H 482.97 3.12614 -0.804508 0
M  V30 5103 H 482.022 2.25618 -3.06269 0
M  V30 5104 H 483.334 3.1322 -3.88194 0
M  V30 5105 H 482.488 5.29825 -2.95585 0
M  V30 5106 H 481.227 4.43326 -2.03256 0
M  V30 5107 H 480.232 3.57925 -4.17337 0
M  V30 5108 H 481.457 4.47744 -5.1059 0
M  V30 5109 H 479.403 5.7095 -3.23036 0
M  V30 5110 H 479.32 5.70413 -4.96151 0
M  V30 5111 H 480.588 6.58823 -4.16621 0
M  V30 5112 N 484.817 1.37938 0.762283 0
M  V30 5113 C 485.78 1.34279 1.85747 0
M  V30 5114 C 486.78 0.244969 1.58923 0
M  V30 5115 O 487.97 0.501365 1.66829 0
M  V30 5116 C 485.102 1.08833 3.23061 0
M  V30 5117 H 486.295 2.31705 1.90401 0
M  V30 5118 H 483.848 1.23105 0.963057 0
M  V30 5119 H 484.583 0.119767 3.24079 0
M  V30 5120 H 484.368 1.88306 3.43923 0
M  V30 5121 H 485.858 1.08946 4.03138 0
M  V30 5122 N 486.295 -0.989507 1.22664 0
M  V30 5123 C 487.543 -1.72612 1.05117 0
M  V30 5124 C 487.864 -1.90552 -0.414131 0
M  V30 5125 O 487.134 -1.4676 -1.29762 0
M  V30 5126 H 485.714 -0.639555 0.385977 0
M  V30 5127 H 488.376 -1.19158 1.54232 0
M  V30 5128 H 487.472 -2.71926 1.53175 0
M  V30 5129 N 487.773 -1.03688 -1.18687 0
M  V30 5130 C 488.703 -0.645407 -2.24403 0
M  V30 5131 C 489.684 0.349511 -1.66471 0
M  V30 5132 O 490.869 0.230453 -1.92828 0
M  V30 5133 C 487.999 -0.00365337 -3.473 0
M  V30 5134 C 486.953 -0.921705 -4.17958 0
M  V30 5135 C 486.279 -0.144629 -5.34504 0
M  V30 5136 C 487.579 -2.23909 -4.71871 0
M  V30 5137 H 489.273 -1.52917 -2.57404 0
M  V30 5138 H 486.819 -0.736711 -1.23728 0
M  V30 5139 H 488.772 0.281908 -4.20456 0
M  V30 5140 H 487.496 0.914963 -3.13522 0
M  V30 5141 H 486.155 -1.19159 -3.46694 0
M  V30 5142 H 485.803 0.776274 -4.96974 0
M  V30 5143 H 485.503 -0.756206 -5.82714 0
M  V30 5144 H 487.027 0.134004 -6.10453 0
M  V30 5145 H 488.441 -2.0145 -5.36741 0
M  V30 5146 H 486.838 -2.8033 -5.30599 0
M  V30 5147 H 487.908 -2.88822 -3.895 0
M  V30 5148 N 489.251 1.34841 -0.815825 0
M  V30 5149 C 490.183 2.28409 -0.190265 0
M  V30 5150 C 491.196 1.50705 0.615771 0
M  V30 5151 O 492.385 1.72822 0.446616 0
M  V30 5152 C 489.485 3.30441 0.752446 0
M  V30 5153 C 488.658 4.37399 -0.00922152 0
M  V30 5154 C 487.717 5.19234 0.853351 0
M  V30 5155 O 486.743 5.68404 0.300919 0
M  V30 5156 N 487.945 5.38248 2.17416 0
M  V30 5157 H 490.71 2.82732 -0.994114 0
M  V30 5158 H 488.271 1.47289 -0.672129 0
M  V30 5159 H 490.263 3.82084 1.33394 0
M  V30 5160 H 488.833 2.76565 1.45707 0
M  V30 5161 H 488.053 3.86567 -0.771979 0
M  V30 5162 H 489.341 5.05992 -0.533807 0
M  V30 5163 H 488.739 4.99961 2.6468 0
M  V30 5164 H 487.296 5.93035 2.70467 0
M  V30 5165 N 490.729 0.570148 1.46925 0
M  V30 5166 C 491.975 0.0510284 2.02736 0
M  V30 5167 C 492.308 -1.3006 1.44215 0
M  V30 5168 O 491.583 -1.84932 0.602521 0
M  V30 5169 C 491.866 -0.028215 3.60089 0
M  V30 5170 C 491.719 1.35142 4.29018 0
M  V30 5171 C 493.038 -0.735181 4.33916 0
M  V30 5172 H 490.157 0.0200178 0.736728 0
M  V30 5173 H 492.799 0.73493 1.75211 0
M  V30 5174 H 490.949 -0.610648 3.83671 0
M  V30 5175 H 492.621 1.97806 4.16738 0
M  V30 5176 H 490.864 1.9226 3.88868 0
M  V30 5177 H 491.535 1.24857 5.37694 0
M  V30 5178 H 494.011 -0.240519 4.15404 0
M  V30 5179 H 492.887 -0.759622 5.43618 0
M  V30 5180 H 493.148 -1.79397 4.04066 0
M  V30 5181 N 492.207 -1.54576 0.307264 0
M  V30 5182 C 493.117 -2.27435 -0.57536 0
M  V30 5183 C 494.133 -1.31183 -1.14311 0
M  V30 5184 O 495.309 -1.64175 -1.16656 0
M  V30 5185 C 492.374 -3.00566 -1.72803 0
M  V30 5186 C 491.435 -4.12369 -1.19373 0
M  V30 5187 C 490.668 -4.82003 -2.29147 0
M  V30 5188 O 490.891 -4.51038 -3.49171 0
M  V30 5189 O 489.825 -5.69271 -1.95485 0
M  V30 5190 H 493.651 -3.03696 0.0158558 0
M  V30 5191 H 491.236 -1.49219 0.0735064 0
M  V30 5192 H 493.118 -3.46416 -2.39946 0
M  V30 5193 H 491.793 -2.27195 -2.30574 0
M  V30 5194 H 490.7 -3.70905 -0.487851 0
M  V30 5195 H 492.033 -4.87736 -0.661376 0
M  V30 5196 N 493.685 -0.035106 -1.57561 0
M  V30 5197 C 494.932 0.642229 -1.92046 0
M  V30 5198 C 495.26 1.7179 -0.91206 0
M  V30 5199 O 494.515 1.95544 0.0781153 0
M  V30 5200 C 494.814 1.29149 -3.3325 0
M  V30 5201 C 494.48 0.345604 -4.49574 0
M  V30 5202 C 493.142 0.0852775 -4.81124 0
M  V30 5203 C 495.494 -0.303569 -5.20315 0
M  V30 5204 C 492.822 -0.831927 -5.80772 0
M  V30 5205 C 495.174 -1.20886 -6.20942 0
M  V30 5206 C 493.838 -1.47802 -6.50931 0
M  V30 5207 H 493.108 0.235008 -0.702746 0
M  V30 5208 H 495.755 -0.0981529 -1.91248 0
M  V30 5209 H 494.06 2.10676 -3.30337 0
M  V30 5210 H 495.757 1.82223 -3.57205 0
M  V30 5211 H 492.347 0.558683 -4.24943 0
M  V30 5212 H 496.531 -0.115515 -4.96166 0
M  V30 5213 H 491.787 -1.0481 -6.02349 0
M  V30 5214 H 495.961 -1.71804 -6.74875 0
M  V30 5215 H 493.588 -2.19039 -7.2796 0
M  V30 5216 N 495.163 1.55791 0.238111 0
M  V30 5217 C 496.412 1.77234 0.962868 0
M  V30 5218 C 496.725 0.600661 1.86149 0
M  V30 5219 O 497.931 0.698315 2.62366 0
M  V30 5220 C 496.387 3.13808 1.76218 0
M  V30 5221 C 495.995 4.3865 0.910518 0
M  V30 5222 C 497.739 3.44585 2.47914 0
M  V30 5223 C 495.646 5.66252 1.70623 0
M  V30 5224 H 494.576 0.660731 0.36325 0
M  V30 5225 H 497.227 1.8221 0.217242 0
M  V30 5226 H 495.609 3.02963 2.55009 0
M  V30 5227 H 496.783 4.60507 0.164316 0
M  V30 5228 H 495.098 4.15271 0.30647 0
M  V30 5229 H 497.695 4.3714 3.07917 0
M  V30 5230 H 498.038 2.66314 3.19973 0
M  V30 5231 H 498.571 3.56685 1.76127 0
M  V30 5232 H 495.31 6.47369 1.02923 0
M  V30 5233 H 494.83 5.48483 2.42748 0
M  V30 5234 H 496.509 6.05829 2.27114 0
M  V30 5235 N 496.642 -0.504142 1.49319 0
M  V30 5236 C 497.59 -1.62689 1.66238 0
M  V30 5237 C 498.584 -1.6095 0.528349 0
M  V30 5238 O 499.79 -1.65496 0.707887 0
M  V30 5239 H 496.165 -0.539247 0.524134 0
M  V30 5240 H 498.136 -1.45571 2.60484 0
M  V30 5241 C 496.885 -3.00841 1.74328 0
M  V30 5242 H 496.208 -3.02884 2.60963 0
M  V30 5243 H 497.648 -3.78945 1.90202 0
M  V30 5244 C 496.107 -3.33355 0.487416 0
M  V30 5245 O 496.637 -3.99819 -0.388294 0
M  V30 5246 N 494.843 -2.88469 0.351306 0
M  V30 5247 H 494.39 -2.34557 1.06492 0
M  V30 5248 H 494.348 -3.10591 -0.487899 0
M  V30 5249 N 498.12 -1.38341 -0.754957 0
M  V30 5250 C 499.531 -1.30803 -1.3322 0
M  V30 5251 C 499.882 0.0368 -1.96165 0
M  V30 5252 O 499.007 0.938844 -1.94974 0
M  V30 5253 C 499.602 -2.3688 -2.42225 0
M  V30 5254 C 498.161 -2.32925 -2.95674 0
M  V30 5255 C 497.308 -2.19819 -1.69042 0
M  V30 5256 H 500.259 -1.48719 -0.553937 0
M  V30 5257 H 500.28 -2.02517 -3.22129 0
M  V30 5258 H 499.792 -3.34747 -1.96383 0
M  V30 5259 H 497.893 -1.38635 -3.45848 0
M  V30 5260 H 498.006 -3.27008 -3.50146 0
M  V30 5261 H 496.37 -1.66648 -1.92615 0
M  V30 5262 H 497.153 -3.19625 -1.25279 0
M  V30 5263 N 499.598 0.982988 -1.23187 0
M  V30 5264 C 500.847 1.71817 -1.05649 0
M  V30 5265 C 501.16 1.91315 0.407176 0
M  V30 5266 O 502.366 2.62256 0.702436 0
M  V30 5267 C 500.822 3.09188 -1.84203 0
M  V30 5268 C 500.43 2.97586 -3.34882 0
M  V30 5269 C 502.174 3.86684 -1.75146 0
M  V30 5270 C 500.081 4.30173 -4.05839 0
M  V30 5271 H 499.011 0.644258 -0.391724 0
M  V30 5272 H 501.662 1.09659 -1.4713 0
M  V30 5273 H 500.044 3.72087 -1.35527 0
M  V30 5274 H 501.218 2.43793 -3.91026 0
M  V30 5275 H 499.533 2.33567 -3.44725 0
M  V30 5276 H 502.13 4.84836 -2.25473 0
M  V30 5277 H 502.473 4.10136 -0.713737 0
M  V30 5278 H 503.006 3.30482 -2.21419 0
M  V30 5279 H 499.745 4.11918 -5.09906 0
M  V30 5280 H 499.265 4.83841 -3.54482 0
M  V30 5281 H 500.944 4.98873 -4.11989 0
M  V30 5282 N 501.076 1.04316 1.18135 0
M  V30 5283 C 502.323 0.74802 1.88178 0
M  V30 5284 C 502.651 -0.72441 1.80506 0
M  V30 5285 O 501.906 -1.54463 1.20165 0
M  V30 5286 C 502.205 1.16271 3.37958 0
M  V30 5287 C 501.871 2.63585 3.65833 0
M  V30 5288 C 500.533 3.03829 3.73151 0
M  V30 5289 C 502.885 3.58822 3.78016 0
M  V30 5290 C 500.213 4.38194 3.90132 0
M  V30 5291 C 502.565 4.92909 3.96514 0
M  V30 5292 C 501.229 5.3282 4.02068 0
M  V30 5293 H 500.499 0.27372 0.688592 0
M  V30 5294 H 503.146 1.30863 1.39811 0
M  V30 5295 H 501.451 0.520938 3.88321 0
M  V30 5296 H 503.148 0.911672 3.90499 0
M  V30 5297 H 499.738 2.31414 3.60757 0
M  V30 5298 H 503.922 3.28875 3.71692 0
M  V30 5299 H 499.178 4.68631 3.92677 0
M  V30 5300 H 503.352 5.66606 4.04883 0
M  V30 5301 H 500.979 6.36943 4.14979 0
M  V30 5302 N 502.554 -1.34406 0.822964 0
M  V30 5303 C 503.464 -2.33298 0.246838 0
M  V30 5304 C 504.48 -1.62625 -0.618797 0
M  V30 5305 O 505.656 -1.94391 -0.526685 0
M  V30 5306 C 502.721 -3.41785 -0.581731 0
M  V30 5307 C 501.782 -4.28206 0.306309 0
M  V30 5308 C 501.015 -5.31512 -0.48281 0
M  V30 5309 O 501.238 -5.43973 -1.71607 0
M  V30 5310 O 500.172 -6.01749 0.134884 0
M  V30 5311 H 503.998 -2.84401 1.06534 0
M  V30 5312 H 501.583 -1.37466 0.585108 0
M  V30 5313 H 503.465 -4.08028 -1.05313 0
M  V30 5314 H 502.14 -2.92925 -1.37756 0
M  V30 5315 H 501.047 -3.64885 0.825199 0
M  V30 5316 H 502.38 -4.80507 1.06649 0
M  V30 5317 N 504.032 -0.577932 -1.46621 0
M  V30 5318 C 505.279 -0.0616879 -2.02406 0
M  V30 5319 C 505.607 1.29638 -1.44997 0
M  V30 5320 O 504.862 1.86176 -0.60308 0
M  V30 5321 C 505.161 0.0590832 -3.57351 0
M  V30 5322 C 504.827 -1.23077 -4.33777 0
M  V30 5323 C 503.489 -1.58416 -4.54376 0
M  V30 5324 C 505.841 -2.08457 -4.77698 0
M  V30 5325 C 503.169 -2.78943 -5.16147 0
M  V30 5326 C 505.521 -3.28204 -5.408 0
M  V30 5327 C 504.185 -3.63832 -5.59627 0
M  V30 5328 H 503.455 -0.0225732 -0.740656 0
M  V30 5329 H 506.102 -0.753609 -1.76048 0
M  V30 5330 H 504.407 0.834104 -3.82818 0
M  V30 5331 H 506.104 0.474202 -3.98186 0
M  V30 5332 H 502.694 -0.945652 -4.18038 0
M  V30 5333 H 506.878 -1.82459 -4.61544 0
M  V30 5334 H 502.134 -3.06689 -5.28916 0
M  V30 5335 H 506.308 -3.94634 -5.73792 0
M  V30 5336 H 503.935 -4.57315 -6.07262 0
M  V30 5337 N 505.51 1.54411 -0.315457 0
M  V30 5338 C 506.735 2.05299 0.294496 0
M  V30 5339 C 507.16 1.19052 1.4563 0
M  V30 5340 O 506.518 0.197804 1.80218 0
M  V30 5341 C 506.566 3.5345 0.714549 0
M  V30 5342 O 505.67 3.70175 1.81781 0
M  V30 5343 H 505.011 0.661743 0.0547019 0
M  V30 5344 H 507.541 1.99327 -0.461508 0
M  V30 5345 H 507.551 3.9557 0.999426 0
M  V30 5346 H 506.226 4.1568 -0.135244 0
M  V30 5347 H 504.803 3.3996 1.53236 0
M  V30 5348 N 506.988 0.0434614 1.5754 0
M  V30 5349 C 508.404 -0.313039 1.565 0
M  V30 5350 C 508.604 -1.71954 1.05043 0
M  V30 5351 O 507.66 -2.425 0.703564 0
M  V30 5352 C 508.973 -0.148544 3.00333 0
M  V30 5353 C 510.521 -0.220231 3.12224 0
M  V30 5354 C 510.996 -0.0843565 4.57922 0
M  V30 5355 N 512.487 -0.140881 4.62986 0
M  V30 5356 C 513.222 -0.0597443 5.73369 0
M  V30 5357 N 512.718 0.0733004 6.92761 0
M  V30 5358 N 514.511 -0.11477 5.61983 0
M  V30 5359 H 506.662 0.96303 1.89313 0
M  V30 5360 H 508.925 0.373164 0.871466 0
M  V30 5361 H 508.631 0.820894 3.41986 0
M  V30 5362 H 508.505 -0.912798 3.65989 0
M  V30 5363 H 510.892 -1.18014 2.70475 0
M  V30 5364 H 510.973 0.574646 2.49262 0
M  V30 5365 H 510.617 0.872192 5.00355 0
M  V30 5366 H 510.547 -0.898281 5.18882 0
M  V30 5367 H 513.038 -0.243273 3.77116 0
M  V30 5368 H 513.351 0.128128 7.72694 0
M  V30 5369 H 511.696 0.10828 6.94916 0
M  V30 5370 H 514.887 -0.217212 4.67596 0
M  V30 5371 H 515.06 -0.0480779 6.47982 0
M  V30 5372 N 508.466 -1.55915 -0.229846 0
M  V30 5373 C 509.429 -1.90914 -1.26824 0
M  V30 5374 C 510.429 -0.786999 -1.40225 0
M  V30 5375 O 511.619 -1.05484 -1.38632 0
M  V30 5376 C 508.751 -2.15264 -2.64337 0
M  V30 5377 H 509.944 -2.8378 -0.969998 0
M  V30 5378 H 507.497 -1.49069 -0.4699 0
M  V30 5379 H 508.232 -1.24923 -2.99274 0
M  V30 5380 H 508.017 -2.97005 -2.55989 0
M  V30 5381 H 509.507 -2.43467 -3.39284 0
M  V30 5382 N 509.944 0.496216 -1.49584 0
M  V30 5383 C 510.877 1.61508 -1.61215 0
M  V30 5384 C 511.855 1.55927 -0.461045 0
M  V30 5385 O 513.039 1.75914 -0.677231 0
M  V30 5386 C 510.166 3.00035 -1.57152 0
M  V30 5387 C 509.212 3.23861 -2.77518 0
M  V30 5388 S 510.045 3.06466 -4.39134 0
M  V30 5389 C 511.201 4.4738 -4.37724 0
M  V30 5390 H 511.434 1.51398 -2.55863 0
M  V30 5391 H 508.967 0.681727 -1.38535 0
M  V30 5392 H 510.925 3.7991 -1.55494 0
M  V30 5393 H 509.586 3.07556 -0.637834 0
M  V30 5394 H 508.779 4.25 -2.70908 0
M  V30 5395 H 508.381 2.51716 -2.76614 0
M  V30 5396 H 510.673 5.39556 -4.09738 0
M  V30 5397 H 511.616 4.59038 -5.39156 0
M  V30 5398 H 512.024 4.28283 -3.67742 0
M  V30 5399 N 511.423 1.38739 0.74761 0
M  V30 5400 C 512.371 1.36573 1.88283 0
M  V30 5401 C 513.365 0.250712 1.67534 0
M  V30 5402 O 514.571 0.420073 1.7503 0
M  V30 5403 H 510.946 0.42619 0.619569 0
M  V30 5404 H 512.917 2.32356 1.87226 0
M  V30 5405 C 511.666 1.21361 3.25832 0
M  V30 5406 H 510.989 2.06424 3.42388 0
M  V30 5407 H 512.429 1.23901 4.05493 0
M  V30 5408 C 510.888 -0.0790099 3.36807 0
M  V30 5409 O 511.418 -1.05385 3.8763 0
M  V30 5410 N 509.624 -0.13785 2.90273 0
M  V30 5411 H 509.171 0.656128 2.49104 0
M  V30 5412 H 509.129 -1.00228 2.97996 0
M  V30 5413 N 512.901 -0.976442 1.23707 0
M  V30 5414 C 513.811 -2.10359 1.03856 0
M  V30 5415 C 514.827 -1.73991 -0.0180919 0
M  V30 5416 O 516.003 -2.0061 0.178211 0
M  V30 5417 C 513.068 -3.40809 0.636387 0
M  V30 5418 C 512.129 -3.91179 1.76854 0
M  V30 5419 C 511.362 -5.15404 1.38546 0
M  V30 5420 O 511.585 -5.69754 0.27142 0
M  V30 5421 O 510.519 -5.5994 2.20797 0
M  V30 5422 H 514.345 -2.29997 1.98331 0
M  V30 5423 H 511.93 -1.08742 1.02448 0
M  V30 5424 H 513.812 -4.19269 0.423223 0
M  V30 5425 H 512.487 -3.22493 -0.279322 0
M  V30 5426 H 511.394 -3.13819 2.03638 0
M  V30 5427 H 512.727 -4.13958 2.6627 0
M  V30 5428 N 514.379 -1.04941 -1.1758 0
M  V30 5429 C 515.309 -0.669172 -2.23706 0
M  V30 5430 C 516.29 0.331835 -1.66832 0
M  V30 5431 O 517.475 0.209988 -1.93061 0
M  V30 5432 C 514.605 -0.0404889 -3.47276 0
M  V30 5433 C 513.559 -0.965983 -4.16957 0
M  V30 5434 C 512.885 -0.201312 -5.34321 0
M  V30 5435 C 514.185 -2.28902 -4.69469 0
M  V30 5436 H 515.879 -1.55639 -2.55767 0
M  V30 5437 H 513.425 -0.749793 -1.22939 0
M  V30 5438 H 515.378 0.237298 -4.20731 0
M  V30 5439 H 514.102 0.881658 -3.14475 0
M  V30 5440 H 512.761 -1.22829 -3.45411 0
M  V30 5441 H 512.409 0.723519 -4.97769 0
M  V30 5442 H 512.109 -0.817968 -5.81879 0
M  V30 5443 H 513.633 0.0692499 -6.10561 0
M  V30 5444 H 515.047 -2.07132 -5.34574 0
M  V30 5445 H 513.444 -2.85942 -5.27596 0
M  V30 5446 H 514.514 -2.92937 -3.86414 0
M  V30 5447 N 515.857 1.33968 -0.830081 0
M  V30 5448 C 516.789 2.28194 -0.21448 0
M  V30 5449 C 517.802 1.5135 0.599752 0
M  V30 5450 O 518.991 1.73286 0.42826 0
M  V30 5451 C 516.091 3.31221 0.717356 0
M  V30 5452 C 515.264 4.37365 -0.055613 0
M  V30 5453 C 514.323 5.2011 0.798231 0
M  V30 5454 O 513.349 5.68691 0.240616 0
M  V30 5455 N 514.551 5.40523 2.11695 0
M  V30 5456 H 517.316 2.81662 -1.02405 0
M  V30 5457 H 514.877 1.46568 -0.687713 0
M  V30 5458 H 516.869 3.83477 1.29334 0
M  V30 5459 H 515.439 2.78095 1.42765 0
M  V30 5460 H 514.659 3.85727 -0.812936 0
M  V30 5461 H 515.947 5.05397 -0.587444 0
M  V30 5462 H 515.345 5.0274 2.59363 0
M  V30 5463 H 513.902 5.95871 2.64162 0
M  V30 5464 N 517.335 0.585699 1.46312 0
M  V30 5465 C 518.265 -0.133556 2.33118 0
M  V30 5466 C 519.246 -0.880707 1.45525 0
M  V30 5467 O 520.431 -0.855579 1.74337 0
M  V30 5468 C 517.561 -1.14585 3.27853 0
M  V30 5469 C 516.515 -0.513341 4.2491 0
M  V30 5470 C 515.841 -1.63231 5.09175 0
M  V30 5471 C 517.141 0.551413 5.19381 0
M  V30 5472 H 518.835 0.59121 2.93505 0
M  V30 5473 H 516.381 0.285761 1.41136 0
M  V30 5474 H 518.334 -1.65741 3.87438 0
M  V30 5475 H 517.058 -1.90093 2.65579 0
M  V30 5476 H 515.717 -0.0228349 3.66593 0
M  V30 5477 H 515.365 -2.37713 4.43285 0
M  V30 5478 H 515.065 -1.21473 5.74907 0
M  V30 5479 H 516.589 -2.14658 5.71624 0
M  V30 5480 H 518.003 0.124804 5.73164 0
M  V30 5481 H 516.4 0.889486 5.93471 0
M  V30 5482 H 517.47 1.43655 4.63132 0
M  V30 5483 N 518.813 -1.54241 0.323641 0
M  V30 5484 C 519.761 -2.25813 -0.557804 0
M  V30 5485 C 520.755 -1.27225 -1.11849 0
M  V30 5486 O 521.961 -1.45001 -1.06652 0
M  V30 5487 H 518.336 -0.72532 -0.198532 0
M  V30 5488 H 520.307 -2.98322 0.0681112 0
M  V30 5489 C 519.056 -3.02913 -1.70701 0
M  V30 5490 H 518.379 -3.78593 -1.28482 0
M  V30 5491 H 519.819 -3.56238 -2.29935 0
M  V30 5492 C 518.278 -2.11217 -2.62467 0
M  V30 5493 O 518.808 -1.69508 -3.64184 0
M  V30 5494 N 517.014 -1.76704 -2.30703 0
M  V30 5495 H 516.561 -2.1082 -1.48029 0
M  V30 5496 H 516.519 -1.15631 -2.92364 0
M  V30 5497 N 520.291 -0.0518155 -1.57515 0
M  V30 5498 C 521.568 0.661727 -1.84067 0
M  V30 5499 C 521.948 1.88999 -0.940351 0
M  V30 5500 O 521.296 2.285 -0.00155404 0
M  V30 5501 C 521.506 1.01841 -3.3381 0
M  V30 5502 C 522.854 1.40043 -4.00841 0
M  V30 5503 O 523.878 1.11073 -3.38439 0
M  V30 5504 O 522.737 1.94111 -5.10865 0
M  V30 5505 H 519.831 0.326702 -0.759733 0
M  V30 5506 H 522.377 -0.0812277 -1.69505 0
M  V30 5507 H 521.149 0.145202 -3.91031 0
M  V30 5508 H 520.772 1.81879 -3.53562 0
M  V30 5509 N 521.769 1.56035 0.221574 0
M  V30 5510 C 522.732 1.91584 1.2581 0
M  V30 5511 C 523.732 0.794425 1.39805 0
M  V30 5512 O 524.922 1.06217 1.38071 0
M  V30 5513 C 522.054 2.16663 2.63192 0
M  V30 5514 H 523.247 2.8429 0.954935 0
M  V30 5515 H 520.8 1.49316 0.461988 0
M  V30 5516 H 521.535 1.26508 2.98607 0
M  V30 5517 H 521.32 2.98358 2.5441 0
M  V30 5518 H 522.81 2.45262 3.37988 0
M  V30 5519 N 523.247 -0.488276 1.49845 0
M  V30 5520 C 524.157 -1.61451 1.70207 0
M  V30 5521 C 525.173 -1.63877 0.584846 0
M  V30 5522 O 526.349 -1.82063 0.861107 0
M  V30 5523 C 523.414 -2.9776 1.77594 0
M  V30 5524 C 522.475 -3.05861 3.01243 0
M  V30 5525 C 521.708 -4.35668 3.08268 0
M  V30 5526 O 521.931 -5.25197 2.22541 0
M  V30 5527 O 520.865 -4.49005 4.00847 0
M  V30 5528 H 524.691 -1.47199 2.65643 0
M  V30 5529 H 522.276 -0.665939 1.33737 0
M  V30 5530 H 524.158 -3.7875 1.84732 0
M  V30 5531 H 522.833 -3.12248 0.8534 0
M  V30 5532 H 521.74 -2.24012 2.99616 0
M  V30 5533 H 523.073 -2.96304 3.9302 0
M  V30 5534 N 524.725 -1.39134 -0.740242 0
M  V30 5535 C 525.972 -1.36071 -1.49969 0
M  V30 5536 C 526.3 0.0450245 -1.94448 0
M  V30 5537 O 525.555 1.02482 -1.66721 0
M  V30 5538 C 525.854 -2.27457 -2.75678 0
M  V30 5539 C 525.52 -3.75185 -2.50094 0
M  V30 5540 C 524.182 -4.15439 -2.42825 0
M  V30 5541 C 526.534 -4.68643 -2.28086 0
M  V30 5542 C 523.862 -5.4722 -2.11584 0
M  V30 5543 C 526.214 -6.00695 -1.98363 0
M  V30 5544 C 524.878 -6.40018 -1.8956 0
M  V30 5545 H 524.148 -0.497921 -0.548777 0
M  V30 5546 H 526.795 -1.71599 -0.85007 0
M  V30 5547 H 525.1 -1.8503 -3.45356 0
M  V30 5548 H 526.797 -2.22384 -3.33686 0
M  V30 5549 H 523.387 -3.43279 -2.56627 0
M  V30 5550 H 527.571 -4.3838 -2.32672 0
M  V30 5551 H 522.827 -5.76615 -2.03287 0
M  V30 5552 H 527.001 -6.72644 -1.80341 0
M  V30 5553 H 524.628 -7.42051 -1.65117 0
M  V30 5554 N 526.204 0.969867 -1.24223 0
M  V30 5555 C 527.167 2.04564 -1.03373 0
M  V30 5556 C 528.167 1.60798 0.00819206 0
M  V30 5557 O 529.357 1.72641 -0.232567 0
M  V30 5558 C 526.489 3.36163 -0.566343 0
M  V30 5559 H 527.682 2.24494 -1.98853 0
M  V30 5560 H 525.235 1.1448 -1.06415 0
M  V30 5561 H 525.97 3.21925 0.391751 0
M  V30 5562 H 525.755 3.69273 -1.31834 0
M  V30 5563 H 527.245 4.1526 -0.441435 0
M  V30 5564 N 527.682 1.05563 1.17022 0
M  V30 5565 C 528.612 0.681026 2.23348 0
M  V30 5566 C 529.593 -0.322983 1.67005 0
M  V30 5567 O 530.778 -0.199746 1.9317 0
M  V30 5568 C 527.908 0.0589053 3.4725 0
M  V30 5569 C 526.862 0.988082 4.16438 0
M  V30 5570 C 526.188 0.229646 5.34207 0
M  V30 5571 C 527.488 2.31388 4.68249 0
M  V30 5572 H 529.182 1.56993 2.54938 0
M  V30 5573 H 526.728 0.756302 1.2254 0
M  V30 5574 H 528.681 -0.214982 4.20851 0
M  V30 5575 H 527.405 -0.864968 3.14938 0
M  V30 5576 H 526.064 1.24659 3.44754 0
M  V30 5577 H 525.712 -0.697111 4.98146 0
M  V30 5578 H 525.412 0.848815 5.81437 0
M  V30 5579 H 526.936 -0.0368694 6.10589 0
M  V30 5580 H 528.35 2.09964 5.33468 0
M  V30 5581 H 526.747 2.88736 5.26072 0
M  V30 5582 H 527.817 2.94982 3.84855 0
M  V30 5583 N 529.16 -1.33526 0.837174 0
M  V30 5584 C 530.09 -2.31764 0.284206 0
M  V30 5585 C 531.071 -1.58896 -0.607142 0
M  V30 5586 O 532.256 -1.86798 -0.531047 0
M  V30 5587 C 529.386 -3.43029 -0.542962 0
M  V30 5588 C 528.34 -4.27255 0.252451 0
M  V30 5589 C 527.666 -5.3012 -0.69836 0
M  V30 5590 C 528.966 -5.01229 1.46858 0
M  V30 5591 H 530.66 -2.78262 1.10502 0
M  V30 5592 H 528.206 -1.3378 0.532812 0
M  V30 5593 H 530.159 -4.1078 -0.940096 0
M  V30 5594 H 528.883 -2.95216 -1.39697 0
M  V30 5595 H 527.542 -3.61127 0.631124 0
M  V30 5596 H 527.19 -4.78564 -1.54872 0
M  V30 5597 H 526.89 -5.87353 -0.170274 0
M  V30 5598 H 528.414 -6.00737 -1.09305 0
M  V30 5599 H 529.828 -5.61756 1.14469 0
M  V30 5600 H 528.225 -5.68104 1.93333 0
M  V30 5601 H 529.295 -4.301 2.23924 0
M  V30 5602 N 530.638 -0.59345 -1.46 0
M  V30 5603 C 531.887 -0.0808084 -2.01538 0
M  V30 5604 C 532.2 1.29112 -1.46934 0
M  V30 5605 O 533.406 1.8957 -1.94359 0
M  V30 5606 C 531.862 -0.0938311 -3.59778 0
M  V30 5607 C 531.47 -1.46474 -4.23379 0
M  V30 5608 C 533.214 0.364306 -4.22934 0
M  V30 5609 C 531.121 -1.4349 -5.73729 0
M  V30 5610 H 530.051 -0.0264407 -0.753536 0
M  V30 5611 H 532.702 -0.746689 -1.67621 0
M  V30 5612 H 531.084 0.638427 -3.9082 0
M  V30 5613 H 532.258 -2.21758 -4.03931 0
M  V30 5614 H 530.573 -1.86379 -3.7236 0
M  V30 5615 H 533.17 0.405584 -5.3316 0
M  V30 5616 H 533.513 1.38409 -3.92618 0
M  V30 5617 H 534.046 -0.31423 -3.96557 0
M  V30 5618 H 530.785 -2.43184 -6.08722 0
M  V30 5619 H 530.305 -0.724431 -5.95409 0
M  V30 5620 H 531.984 -1.15243 -6.36654 0
M  V30 5621 N 532.116 1.54067 -0.331816 0
M  V30 5622 C 533.079 2.23275 0.517768 0
M  V30 5623 C 534.079 1.22897 1.03697 0
M  V30 5624 O 535.269 1.47419 0.928084 0
M  V30 5625 C 532.401 2.94326 1.72004 0
M  V30 5626 H 533.594 2.99773 -0.0873507 0
M  V30 5627 H 531.147 1.56079 -0.0830042 0
M  V30 5628 H 531.882 2.21986 2.36417 0
M  V30 5629 H 531.667 3.67941 1.35507 0
M  V30 5630 H 533.157 3.47031 2.32291 0
M  V30 5631 N 533.594 0.0601682 1.57485 0
M  V30 5632 C 534.843 -0.611101 1.9222 0
M  V30 5633 C 535.156 -1.71469 0.941159 0
M  V30 5634 O 536.362 -2.44473 1.18089 0
M  V30 5635 C 534.818 -1.13832 3.41424 0
M  V30 5636 C 534.426 -0.0663596 4.47951 0
M  V30 5637 C 536.17 -1.78432 3.85178 0
M  V30 5638 C 534.077 -0.606965 5.88277 0
M  V30 5639 H 533.007 -0.232033 0.71741 0
M  V30 5640 H 535.658 0.130518 1.83035 0
M  V30 5641 H 534.04 -1.93254 3.45643 0
M  V30 5642 H 535.214 0.707682 4.55333 0
M  V30 5643 H 533.529 0.482715 4.13593 0
M  V30 5644 H 536.126 -2.1989 4.87394 0
M  V30 5645 H 536.469 -2.63966 3.21913 0
M  V30 5646 H 537.002 -1.05651 3.83514 0
M  V30 5647 H 533.741 0.21095 6.5516 0
M  V30 5648 H 533.261 -1.34879 5.84438 0
M  V30 5649 H 534.94 -1.08704 6.37803 0
M  V30 5650 N 535.072 -1.5615 -0.213296 0
M  V30 5651 C 536.297 -1.83986 -0.957282 0
M  V30 5652 C 536.722 -0.641526 -1.76822 0
M  V30 5653 O 536.08 0.409722 -1.7661 0
M  V30 5654 C 536.128 -3.09889 -1.84393 0
M  V30 5655 O 535.232 -2.89163 -2.94038 0
M  V30 5656 H 534.573 -0.606357 -0.270605 0
M  V30 5657 H 537.103 -2.03369 -0.224111 0
M  V30 5658 H 537.113 -3.40209 -2.25215 0
M  V30 5659 H 535.788 -3.96735 -1.24795 0
M  V30 5660 H 534.365 -2.70097 -2.57103 0
M  V30 5661 N 536.55 0.480323 -1.50102 0
M  V30 5662 C 537.799 1.22979 -1.59872 0
M  V30 5663 C 538.112 1.93282 -0.30022 0
M  V30 5664 O 539.318 2.70086 -0.276709 0
M  V30 5665 C 537.774 2.23408 -2.82164 0
M  V30 5666 C 537.382 1.5895 -4.18854 0
M  V30 5667 C 539.126 2.99055 -3.01275 0
M  V30 5668 C 537.033 2.57611 -5.32344 0
M  V30 5669 H 535.963 0.462707 -0.59533 0
M  V30 5670 H 538.614 0.501291 -1.7652 0
M  V30 5671 H 536.996 2.99511 -2.59055 0
M  V30 5672 H 538.17 0.887 -4.52182 0
M  V30 5673 H 536.485 0.956191 -4.05273 0
M  V30 5674 H 539.082 3.72876 -3.83233 0
M  V30 5675 H 539.425 3.57897 -2.12639 0
M  V30 5676 H 539.958 2.30066 -3.24522 0
M  V30 5677 H 536.697 2.03521 -6.23105 0
M  V30 5678 H 536.217 3.26041 -5.03445 0
M  V30 5679 H 537.896 3.19627 -5.62537 0
M  V30 5680 N 538.028 1.39524 0.732853 0
M  V30 5681 C 539.275 1.36865 1.49246 0
M  V30 5682 C 539.603 -0.0347118 1.94469 0
M  V30 5683 O 538.858 -1.01596 1.67262 0
M  V30 5684 C 539.157 2.28916 2.74468 0
M  V30 5685 C 538.823 3.76506 2.481 0
M  V30 5686 C 537.485 4.16721 2.40619 0
M  V30 5687 C 539.837 4.69846 2.25598 0
M  V30 5688 C 537.165 5.48334 2.08679 0
M  V30 5689 C 539.517 6.01739 1.95174 0
M  V30 5690 C 538.181 6.41015 1.86163 0
M  V30 5691 H 537.451 0.500824 0.546129 0
M  V30 5692 H 540.098 1.72047 0.840958 0
M  V30 5693 H 538.403 1.86859 3.4437 0
M  V30 5694 H 540.1 2.2415 3.32502 0
M  V30 5695 H 536.69 3.44635 2.54803 0
M  V30 5696 H 540.874 4.39608 2.30344 0
M  V30 5697 H 536.13 5.77685 2.00226 0
M  V30 5698 H 540.304 6.73591 1.76771 0
M  V30 5699 H 537.931 7.42917 1.61179 0
M  V30 5700 N 539.506 -0.963266 1.24736 0
M  V30 5701 C 540.731 -1.74699 1.11781 0
M  V30 5702 C 541.156 -1.85267 -0.325258 0
M  V30 5703 O 540.514 -1.32681 -1.23553 0
M  V30 5704 C 540.562 -3.14322 1.76731 0
M  V30 5705 O 539.666 -3.99043 1.04109 0
M  V30 5706 H 539.007 -0.53684 0.390767 0
M  V30 5707 H 541.537 -1.20801 1.65131 0
M  V30 5708 H 541.547 -3.64824 1.82668 0
M  V30 5709 H 540.222 -3.05946 2.81726 0
M  V30 5710 H 538.799 -3.5752 1.05991 0
M  V30 5711 N 540.985 -1.06182 -1.16461 0
M  V30 5712 C 541.948 -0.675723 -2.19013 0
M  V30 5713 C 542.948 0.277963 -1.58379 0
M  V30 5714 O 544.138 0.0604962 -1.74095 0
M  V30 5715 C 541.27 0.00591459 -3.40899 0
M  V30 5716 H 542.463 -1.58353 -2.54685 0
M  V30 5717 H 540.016 -0.856908 -1.30716 0
M  V30 5718 H 540.751 0.92652 -3.10783 0
M  V30 5719 H 540.536 -0.67984 -3.86161 0
M  V30 5720 H 542.026 0.26181 -4.16778 0
M  V30 5721 N 542.463 1.3308 -0.844243 0
M  V30 5722 C 543.74 1.92178 -0.364261 0
M  V30 5723 C 544.12 1.76961 1.15101 0
M  V30 5724 O 543.468 1.16128 1.9679 0
M  V30 5725 C 543.678 3.393 -0.817106 0
M  V30 5726 C 545.026 4.16444 -0.828236 0
M  V30 5727 O 546.05 3.47975 -0.761062 0
M  V30 5728 O 544.909 5.38685 -0.920926 0
M  V30 5729 H 542.003 0.820411 -0.10419 0
M  V30 5730 H 544.549 1.41918 -0.930453 0
M  V30 5731 H 543.321 3.44272 -1.85991 0
M  V30 5732 H 542.944 3.96947 -0.227785 0
M  V30 5733 N 543.941 0.601185 1.45683 0
M  V30 5734 C 545.357 0.264315 1.57396 0
M  V30 5735 C 545.557 -1.23324 1.59353 0
M  V30 5736 O 544.613 -2.01594 1.52039 0
M  V30 5737 C 545.926 0.929839 2.85962 0
M  V30 5738 C 547.474 0.905156 2.99626 0
M  V30 5739 C 547.949 1.55057 4.30954 0
M  V30 5740 N 549.44 1.51576 4.37697 0
M  V30 5741 C 550.175 1.98436 5.37969 0
M  V30 5742 N 549.671 2.53352 6.44813 0
M  V30 5743 N 551.464 1.89242 5.29286 0
M  V30 5744 H 543.615 1.57363 1.42656 0
M  V30 5745 H 545.878 0.658831 0.681649 0
M  V30 5746 H 545.584 1.98404 2.90394 0
M  V30 5747 H 545.458 0.449224 3.74515 0
M  V30 5748 H 547.845 -0.14048 2.94765 0
M  V30 5749 H 547.926 1.42397 2.12501 0
M  V30 5750 H 547.57 2.5955 4.36573 0
M  V30 5751 H 547.5 1.00682 5.16886 0
M  V30 5752 H 549.991 1.11452 3.61091 0
M  V30 5753 H 550.304 2.86918 7.17564 0
M  V30 5754 H 548.649 2.57388 6.45582 0
M  V30 5755 H 551.84 1.46083 4.44722 0
M  V30 5756 H 552.013 2.26075 6.07284 0
M  V30 5757 N 545.419 -1.53889 0.339982 0
M  V30 5758 C 546.83 -1.86139 -0.144671 0
M  V30 5759 C 547.181 -1.2613 -1.50285 0
M  V30 5760 O 546.306 -0.573515 -2.08662 0
M  V30 5761 C 546.901 -3.37728 -0.269285 0
M  V30 5762 C 545.46 -3.69868 -0.698168 0
M  V30 5763 C 544.607 -2.76777 0.170249 0
M  V30 5764 H 547.558 -1.48503 0.559704 0
M  V30 5765 H 547.579 -3.64331 -1.0974 0
M  V30 5766 H 547.091 -3.81375 0.719366 0
M  V30 5767 H 545.192 -3.31764 -1.69597 0
M  V30 5768 H 545.305 -4.76582 -0.490533 0
M  V30 5769 H 543.669 -2.52188 -0.356844 0
M  V30 5770 H 544.452 -3.23253 1.15597 0
M  V30 5771 N 546.897 -0.0685191 -1.57451 0
M  V30 5772 C 547.845 0.917577 -2.13736 0
M  V30 5773 C 548.839 1.31049 -1.07344 0
M  V30 5774 O 550.045 1.28811 -1.25728 0
M  V30 5775 H 546.42 0.313835 -0.683382 0
M  V30 5776 H 548.391 0.417903 -2.95459 0
M  V30 5777 C 547.14 2.17686 -2.71123 0
M  V30 5778 H 546.463 1.88336 -3.52661 0
M  V30 5779 H 547.903 2.84803 -3.14107 0
M  V30 5780 C 546.362 2.9332 -1.65726 0
M  V30 5781 O 546.892 3.86901 -1.08031 0
M  V30 5782 N 545.098 2.56367 -1.36837 0
M  V30 5783 H 544.645 1.80341 -1.83943 0
M  V30 5784 H 544.603 3.07276 -0.665501 0
M  V30 5785 N 548.375 1.56261 0.205012 0
M  V30 5786 C 549.621 1.80306 0.9283 0
M  V30 5787 C 549.954 0.640932 1.83319 0
M  V30 5788 O 549.229 -0.359032 1.91158 0
M  V30 5789 C 549.512 3.14547 1.75306 0
M  V30 5790 C 549.365 4.41236 0.873562 0
M  V30 5791 C 550.684 3.45382 2.72762 0
M  V30 5792 H 547.803 0.655929 0.336044 0
M  V30 5793 H 550.445 1.88984 0.196211 0
M  V30 5794 H 548.595 3.0728 2.37721 0
M  V30 5795 H 550.267 4.60539 0.264887 0
M  V30 5796 H 548.51 4.33427 0.179773 0
M  V30 5797 H 549.181 5.31639 1.48541 0
M  V30 5798 H 551.657 3.52884 2.20481 0
M  V30 5799 H 550.533 4.40449 3.2756 0
M  V30 5800 H 550.794 2.68377 3.51321 0
M  V30 5801 N 549.853 -0.472356 1.50355 0
M  V30 5802 C 550.785 -1.58795 1.65278 0
M  V30 5803 C 551.798 -1.53782 0.534313 0
M  V30 5804 O 552.987 -1.59193 0.807446 0
M  V30 5805 C 550.087 -2.97672 1.62001 0
M  V30 5806 C 549.26 -3.27568 2.89859 0
M  V30 5807 C 548.319 -4.45993 2.79242 0
M  V30 5808 O 547.345 -4.46364 3.53197 0
M  V30 5809 N 548.547 -5.47578 1.92713 0
M  V30 5810 H 551.312 -1.46411 2.61503 0
M  V30 5811 H 548.873 -0.660751 1.47803 0
M  V30 5812 H 550.865 -3.74862 1.52513 0
M  V30 5813 H 549.435 -3.03832 0.735159 0
M  V30 5814 H 548.655 -2.39003 3.13483 0
M  V30 5815 H 549.943 -3.44352 3.74565 0
M  V30 5816 H 549.341 -5.50099 1.31939 0
M  V30 5817 H 547.898 -6.23757 1.8913 0
M  V30 5818 N 551.331 -1.39911 -0.725443 0
M  V30 5819 C 552.608 -1.28158 -1.47766 0
M  V30 5820 C 552.988 0.104545 -2.10841 0
M  V30 5821 O 552.336 1.11657 -1.99361 0
M  V30 5822 C 552.546 -2.41306 -2.52135 0
M  V30 5823 C 553.894 -2.81076 -3.18247 0
M  V30 5824 O 554.918 -2.40827 -2.62452 0
M  V30 5825 O 553.777 -3.50581 -4.19231 0
M  V30 5826 H 550.871 -0.502761 -0.656628 0
M  V30 5827 H 553.417 -1.51808 -0.758456 0
M  V30 5828 H 552.189 -3.33932 -2.03974 0
M  V30 5829 H 551.812 -2.19374 -3.31603 0
M  V30 5830 N 552.809 0.956637 -1.25245 0
M  V30 5831 C 553.741 2.05628 -1.01242 0
M  V30 5832 C 554.754 1.62785 0.0219579 0
M  V30 5833 O 555.943 1.77184 -0.216365 0
M  V30 5834 C 553.043 3.35069 -0.508161 0
M  V30 5835 C 552.216 4.06761 -1.60823 0
M  V30 5836 C 551.275 5.14473 -1.1047 0
M  V30 5837 O 550.301 5.40033 -1.79868 0
M  V30 5838 N 551.503 5.80474 0.0550773 0
M  V30 5839 H 554.268 2.2679 -1.95925 0
M  V30 5840 H 551.829 1.12505 -1.16423 0
M  V30 5841 H 553.821 4.044 -0.155819 0
M  V30 5842 H 552.391 3.10694 0.344683 0
M  V30 5843 H 551.611 3.31555 -2.13224 0
M  V30 5844 H 552.899 4.51418 -2.34733 0
M  V30 5845 H 552.297 5.62125 0.635004 0
M  V30 5846 H 550.854 6.50868 0.348469 0
M  V30 5847 N 554.287 1.06798 1.15896 0
M  V30 5848 C 555.217 0.704677 2.22613 0
M  V30 5849 C 556.198 -0.305252 1.67339 0
M  V30 5850 O 557.383 -0.179247 1.93371 0
M  V30 5851 C 554.513 0.0957325 3.47168 0
M  V30 5852 C 553.467 1.0322 4.15367 0
M  V30 5853 C 552.793 0.286293 5.33933 0
M  V30 5854 C 554.093 2.36341 4.65768 0
M  V30 5855 H 555.787 1.59688 2.53259 0
M  V30 5856 H 553.333 0.769257 1.21731 0
M  V30 5857 H 555.286 -0.170333 4.21056 0
M  V30 5858 H 554.01 -0.831516 3.15838 0
M  V30 5859 H 552.669 1.28309 3.43413 0
M  V30 5860 H 552.317 -0.644237 4.98857 0
M  V30 5861 H 552.017 0.910436 5.80504 0
M  V30 5862 H 553.541 0.0278938 6.10594 0
M  V30 5863 H 554.955 2.1561 5.31211 0
M  V30 5864 H 553.352 2.94299 5.2298 0
M  V30 5865 H 554.422 2.99047 3.81705 0
M  V30 5866 N 555.766 -1.3263 0.851289 0
M  V30 5867 C 556.698 -2.27824 0.250757 0
M  V30 5868 C 557.711 -1.52285 -0.575598 0
M  V30 5869 O 558.9 -1.73946 -0.400638 0
M  V30 5870 C 556 -3.3232 -0.664571 0
M  V30 5871 C 555.173 -4.37221 0.125187 0
M  V30 5872 C 554.232 -5.21314 -0.715385 0
M  V30 5873 O 553.258 -5.69002 -0.150111 0
M  V30 5874 N 554.46 -5.43823 -2.03069 0
M  V30 5875 H 557.225 -2.79997 1.06873 0
M  V30 5876 H 554.786 -1.45455 0.710943 0
M  V30 5877 H 556.778 -3.85486 -1.23216 0
M  V30 5878 H 555.348 -2.80331 -1.38323 0
M  V30 5879 H 554.568 -3.84384 0.874199 0
M  V30 5880 H 555.856 -5.04399 0.667774 0
M  V30 5881 H 555.254 -5.06803 -2.51332 0
M  V30 5882 H 553.811 -5.99998 -2.54648 0
M  V30 5883 N 557.244 -0.608902 -1.45362 0
M  V30 5884 C 558.49 -0.104762 -2.02529 0
M  V30 5885 C 558.823 1.26191 -1.47613 0
M  V30 5886 O 558.098 1.8327 -0.65134 0
M  V30 5887 C 558.381 -0.0672661 -3.60037 0
M  V30 5888 C 558.234 -1.4647 -4.25284 0
M  V30 5889 C 559.553 0.619877 -4.35713 0
M  V30 5890 H 556.672 -0.0395438 -0.735938 0
M  V30 5891 H 559.314 -0.781126 -1.73201 0
M  V30 5892 H 557.464 0.50871 -3.85155 0
M  V30 5893 H 559.136 -2.08785 -4.11347 0
M  V30 5894 H 557.379 -2.02502 -3.83634 0
M  V30 5895 H 558.05 -1.39069 -5.34195 0
M  V30 5896 H 560.526 0.130297 -4.15896 0
M  V30 5897 H 559.402 0.615224 -5.45441 0
M  V30 5898 H 559.663 1.68621 -4.0868 0
M  V30 5899 N 558.722 1.53707 -0.348139 0
M  V30 5900 C 559.632 2.28881 0.514857 0
M  V30 5901 C 560.648 1.34168 1.10793 0
M  V30 5902 O 561.824 1.6721 1.12262 0
M  V30 5903 C 558.889 3.05042 1.64774 0
M  V30 5904 C 557.95 4.15389 1.08398 0
M  V30 5905 C 557.183 4.87909 2.16287 0
M  V30 5906 O 557.406 4.60137 3.3709 0
M  V30 5907 O 556.34 5.74254 1.80323 0
M  V30 5908 H 560.166 3.03547 -0.0963699 0
M  V30 5909 H 557.751 1.48972 -0.113043 0
M  V30 5910 H 559.633 3.52656 2.30677 0
M  V30 5911 H 558.308 2.33228 2.24469 0
M  V30 5912 H 557.215 3.72068 0.389341 0
M  V30 5913 H 558.548 4.89318 0.531829 0
M  V30 5914 N 560.2 0.0768682 1.57412 0
M  V30 5915 C 561.616 -0.279772 1.57129 0
M  V30 5916 C 561.816 -1.69688 1.08666 0
M  V30 5917 O 560.872 -2.40953 0.754843 0
M  V30 5918 C 562.185 -0.0848055 3.0058 0
M  V30 5919 C 563.733 -0.153954 3.12621 0
M  V30 5920 C 564.208 0.0127946 4.57998 0
M  V30 5921 N 565.699 -0.0426435 4.6318 0
M  V30 5922 C 566.434 0.0618892 5.73367 0
M  V30 5923 N 565.93 0.220229 6.9245 0
M  V30 5924 N 567.723 0.00446072 5.621 0
M  V30 5925 H 559.874 1.00297 1.87228 0
M  V30 5926 H 562.137 0.391565 0.863354 0
M  V30 5927 H 561.843 0.89325 3.40168 0
M  V30 5928 H 561.717 -0.834961 3.67843 0
M  V30 5929 H 564.104 -1.1225 2.72917 0
M  V30 5930 H 564.185 0.627389 2.47987 0
M  V30 5931 H 563.829 0.978128 4.98392 0
M  V30 5932 H 563.759 -0.788016 5.20671 0
M  V30 5933 H 566.25 -0.163226 3.77547 0
M  V30 5934 H 566.563 0.291999 7.72248 0
M  V30 5935 H 564.908 0.255658 6.9453 0
M  V30 5936 H 568.099 -0.117979 4.67951 0
M  V30 5937 H 568.272 0.0893796 6.47938 0
M  V30 5938 N 561.678 -1.56367 -0.196722 0
M  V30 5939 C 562.608 -1.97442 -1.24655 0
M  V30 5940 C 563.589 -0.846147 -1.47561 0
M  V30 5941 O 564.774 -1.11035 -1.59326 0
M  V30 5942 C 561.904 -2.31253 -2.59112 0
M  V30 5943 C 560.858 -3.46804 -2.50821 0
M  V30 5944 C 560.184 -3.66286 -3.89536 0
M  V30 5945 C 561.484 -4.8104 -2.03465 0
M  V30 5946 H 563.178 -2.85388 -0.905216 0
M  V30 5947 H 560.724 -1.37304 -0.434002 0
M  V30 5948 H 562.677 -2.58583 -3.32736 0
M  V30 5949 H 561.401 -1.40188 -2.94983 0
M  V30 5950 H 560.06 -3.19563 -1.79653 0
M  V30 5951 H 559.708 -2.72555 -4.22756 0
M  V30 5952 H 559.408 -4.4402 -3.84864 0
M  V30 5953 H 560.932 -3.9599 -4.64784 0
M  V30 5954 H 562.346 -5.07411 -2.66846 0
M  V30 5955 H 560.743 -5.62232 -2.09798 0
M  V30 5956 H 561.813 -4.74732 -0.98781 0
M  V30 5957 N 563.156 0.464375 -1.50603 0
M  V30 5958 C 564.088 1.57916 -1.66118 0
M  V30 5959 C 565.101 1.53497 -0.54246 0
M  V30 5960 O 566.29 1.58763 -0.815877 0
M  V30 5961 C 563.39 2.96809 -1.63577 0
M  V30 5962 C 562.563 3.26026 -2.91592 0
M  V30 5963 C 561.622 4.44506 -2.81604 0
M  V30 5964 O 560.648 4.44484 -3.55559 0
M  V30 5965 N 561.85 5.46549 -1.95614 0
M  V30 5966 H 564.615 1.45022 -2.62276 0
M  V30 5967 H 562.176 0.652903 -1.48151 0
M  V30 5968 H 564.168 3.74048 -1.54499 0
M  V30 5969 H 562.738 3.03438 -0.751262 0
M  V30 5970 H 561.958 2.37337 -3.14746 0
M  V30 5971 H 563.246 3.42361 -3.76386 0
M  V30 5972 H 562.644 5.49391 -1.34854 0
M  V30 5973 H 561.201 6.22746 -1.92435 0
M  V30 5974 N 564.634 1.40294 0.718013 0
M  V30 5975 C 565.584 1.36847 1.82365 0
M  V30 5976 C 566.568 0.246424 1.59002 0
M  V30 5977 O 567.76 0.485336 1.70216 0
M  V30 5978 C 564.889 1.23105 3.20469 0
M  V30 5979 C 563.975 2.4008 3.49603 0
M  V30 5980 N 564.366 3.65562 3.49568 0
M  V30 5981 C 562.664 2.33407 3.80049 0
M  V30 5982 C 563.365 4.43015 3.76978 0
M  V30 5983 N 562.341 3.72823 3.95606 0
M  V30 5984 H 566.143 2.31811 1.80668 0
M  V30 5985 H 563.657 1.34031 0.91703 0
M  V30 5986 H 565.654 1.18718 3.9964 0
M  V30 5987 H 564.314 0.291056 3.23393 0
M  V30 5988 H 565.325 3.98756 3.30476 0
M  V30 5989 H 562.002 1.47762 3.90478 0
M  V30 5990 H 563.392 5.51859 3.83276 0
M  V30 5991 N 566.112 -0.949982 1.2575 0
M  V30 5992 C 567.34 -1.72972 1.13527 0
M  V30 5993 C 567.755 -1.8623 -0.310453 0
M  V30 5994 O 567.112 -1.36336 -1.2132 0
M  V30 5995 C 567.163 -3.14108 1.78936 0
M  V30 5996 O 566.884 -3.01493 3.17858 0
M  V30 5997 C 568.385 -4.08338 1.72554 0
M  V30 5998 H 565.605 -0.541864 0.395758 0
M  V30 5999 H 568.149 -1.19151 1.66202 0
M  V30 6000 H 566.304 -3.64858 1.30221 0
M  V30 6001 H 566.718 -3.90559 3.50092 0
M  V30 6002 H 568.192 -5.04963 2.22973 0
M  V30 6003 H 568.669 -4.33742 0.690251 0
M  V30 6004 H 569.275 -3.63506 2.2078 0
M  V30 6005 N 567.59 -1.07411 -1.15328 0
M  V30 6006 C 568.82 -0.817595 -1.89734 0
M  V30 6007 C 569.228 0.63297 -1.78298 0
M  V30 6008 O 568.571 1.44594 -1.13306 0
M  V30 6009 C 568.633 -1.14748 -3.40695 0
M  V30 6010 C 568.297 -2.59876 -3.75917 0
M  V30 6011 C 569.294 -3.58122 -3.76888 0
M  V30 6012 C 566.979 -2.95469 -4.06206 0
M  V30 6013 C 568.973 -4.89996 -4.07655 0
M  V30 6014 C 566.66 -4.2754 -4.36638 0
M  V30 6015 C 567.658 -5.24614 -4.37344 0
M  V30 6016 O 567.346 -6.54312 -4.67045 0
M  V30 6017 H 567.078 -0.295175 -0.608151 0
M  V30 6018 H 569.632 -1.43409 -1.47048 0
M  V30 6019 H 567.862 -0.47395 -3.83785 0
M  V30 6020 H 569.551 -0.873397 -3.96392 0
M  V30 6021 H 570.317 -3.31966 -3.53587 0
M  V30 6022 H 566.196 -2.20558 -4.04815 0
M  V30 6023 H 569.74 -5.65759 -4.08121 0
M  V30 6024 H 565.637 -4.53449 -4.59407 0
M  V30 6025 H 566.405 -6.59473 -4.84807 0
M  V30 6026 N 569.068 1.32177 -0.85831 0
M  V30 6027 C 570.314 1.97417 -0.46417 0
M  V30 6028 C 570.647 1.67746 0.978514 0
M  V30 6029 O 569.922 0.967654 1.68721 0
M  V30 6030 C 570.205 3.53069 -0.708094 0
M  V30 6031 C 570.058 3.92357 -2.19946 0
M  V30 6032 C 571.377 4.39783 -0.166881 0
M  V30 6033 H 568.496 0.717097 -0.17012 0
M  V30 6034 H 571.138 1.56499 -1.07741 0
M  V30 6035 H 569.288 3.88054 -0.186128 0
M  V30 6036 H 570.96 3.67533 -2.78779 0
M  V30 6037 H 569.203 3.41384 -2.67656 0
M  V30 6038 H 569.874 5.00841 -2.32082 0
M  V30 6039 H 572.35 4.11556 -0.613285 0
M  V30 6040 H 571.226 5.47671 -0.367093 0
M  V30 6041 H 571.487 4.32196 0.930559 0
M  V30 6042 N 570.547 0.616602 1.45037 0
M  V30 6043 C 571.457 -0.0985401 2.34393 0
M  V30 6044 C 572.473 -0.850971 1.51771 0
M  V30 6045 O 573.649 -0.806521 1.84546 0
M  V30 6046 C 570.714 -1.07748 3.29532 0
M  V30 6047 C 569.775 -0.326022 4.2806 0
M  V30 6048 C 569.008 -1.25833 5.18654 0
M  V30 6049 O 569.231 -2.49652 5.12864 0
M  V30 6050 O 568.165 -0.750512 5.97203 0
M  V30 6051 H 571.991 0.636016 2.96966 0
M  V30 6052 H 569.576 0.376832 1.44569 0
M  V30 6053 H 571.458 -1.64107 3.88133 0
M  V30 6054 H 570.133 -1.79291 2.69512 0
M  V30 6055 H 569.04 0.280253 3.73049 0
M  V30 6056 H 570.373 0.349091 4.9096 0
M  V30 6057 N 572.025 -1.5352 0.356285 0
M  V30 6058 C 572.988 -2.24071 -0.482182 0
M  V30 6059 C 573.988 -1.24531 -1.01729 0
M  V30 6060 O 575.178 -1.48876 -0.904513 0
M  V30 6061 C 572.31 -2.97025 -1.67299 0
M  V30 6062 H 573.503 -2.99596 0.135031 0
M  V30 6063 H 571.056 -1.55928 0.107825 0
M  V30 6064 H 571.791 -2.25719 -2.32855 0
M  V30 6065 H 571.576 -3.7005 -1.29636 0
M  V30 6066 H 573.066 -3.50683 -2.26741 0
M  V30 6067 N 573.503 -0.0852151 -1.57369 0
M  V30 6068 C 574.433 0.874556 -2.16503 0
M  V30 6069 C 575.414 1.30111 -1.09568 0
M  V30 6070 O 576.599 1.36977 -1.37662 0
M  V30 6071 C 573.729 2.13731 -2.73745 0
M  V30 6072 C 572.683 1.84971 -3.85966 0
M  V30 6073 C 572.009 3.17991 -4.29867 0
M  V30 6074 C 573.309 1.14442 -5.09608 0
M  V30 6075 H 575.003 0.381899 -2.96954 0
M  V30 6076 H 572.549 0.18225 -1.42842 0
M  V30 6077 H 574.502 2.81302 -3.13763 0
M  V30 6078 H 573.226 2.65263 -1.90534 0
M  V30 6079 H 571.885 1.19801 -3.46473 0
M  V30 6080 H 571.533 3.6739 -3.4356 0
M  V30 6081 H 571.233 2.99534 -5.05523 0
M  V30 6082 H 572.757 3.86737 -4.72511 0
M  V30 6083 H 574.171 1.72105 -5.46857 0
M  V30 6084 H 572.568 1.06197 -5.90629 0
M  V30 6085 H 573.638 0.12559 -4.84737 0
M  V30 6086 N 574.981 1.5647 0.188427 0
M  V30 6087 C 575.931 1.91479 1.23774 0
M  V30 6088 C 576.915 0.78119 1.40664 0
M  V30 6089 O 578.107 1.04414 1.42922 0
M  V30 6090 C 575.236 2.26354 2.58106 0
M  V30 6091 C 574.322 3.46186 2.44981 0
M  V30 6092 N 574.713 4.63911 2.01546 0
M  V30 6093 C 573.011 3.50456 2.75856 0
M  V30 6094 C 573.712 5.46064 2.00472 0
M  V30 6095 N 572.688 4.86648 2.42229 0
M  V30 6096 H 576.49 2.79994 0.893339 0
M  V30 6097 H 574.004 1.57477 0.39682 0
M  V30 6098 H 576.001 2.49622 3.33908 0
M  V30 6099 H 574.661 1.39168 2.93364 0
M  V30 6100 H 575.672 4.88451 1.7215 0
M  V30 6101 H 572.349 2.73704 3.15265 0
M  V30 6102 H 573.739 6.50368 1.68734 0
M  V30 6103 N 576.459 -0.456382 1.50847 0
M  V30 6104 C 577.422 -1.53493 1.70213 0
M  V30 6105 C 578.422 -1.50264 0.572481 0
M  V30 6106 O 579.612 -1.52623 0.839751 0
M  V30 6107 C 576.744 -2.93091 1.741 0
M  V30 6108 H 577.937 -1.37633 2.66453 0
M  V30 6109 H 575.49 -0.683776 1.4055 0
M  V30 6110 H 576.225 -3.14378 0.796063 0
M  V30 6111 H 576.01 -2.9684 2.5618 0
M  V30 6112 H 577.5 -3.71368 1.90987 0
M  V30 6113 N 577.937 -1.40673 -0.710563 0
M  V30 6114 C 579.167 -1.4234 -1.49742 0
M  V30 6115 C 579.575 -0.022821 -1.89186 0
M  V30 6116 O 578.918 0.964773 -1.56326 0
M  V30 6117 C 578.98 -2.25509 -2.79975 0
M  V30 6118 C 578.644 -3.73862 -2.62824 0
M  V30 6119 C 579.641 -4.66379 -2.29752 0
M  V30 6120 C 577.326 -4.17735 -2.78932 0
M  V30 6121 C 579.32 -6.00756 -2.13006 0
M  V30 6122 C 577.007 -5.5218 -2.61802 0
M  V30 6123 C 578.005 -6.43505 -2.28888 0
M  V30 6124 O 577.693 -7.75472 -2.11894 0
M  V30 6125 H 577.425 -0.487311 -0.468513 0
M  V30 6126 H 579.979 -1.8542 -0.883668 0
M  V30 6127 H 578.209 -1.77218 -3.43701 0
M  V30 6128 H 579.898 -2.19058 -3.41714 0
M  V30 6129 H 580.664 -4.33778 -2.16936 0
M  V30 6130 H 576.543 -3.46967 -3.03537 0
M  V30 6131 H 580.087 -6.72003 -1.87237 0
M  V30 6132 H 575.984 -5.84365 -2.74204 0
M  V30 6133 H 576.752 -7.86458 -2.26775 0
M  V30 6134 N 579.415 0.9433 -1.26252 0
M  V30 6135 C 580.661 1.69175 -1.11837 0
M  V30 6136 C 580.994 1.91238 0.337891 0
M  V30 6137 O 580.269 1.49152 1.24836 0
M  V30 6138 C 580.552 3.06783 -1.88563 0
M  V30 6139 C 580.405 2.9206 -3.42083 0
M  V30 6140 C 581.724 4.06865 -1.67776 0
M  V30 6141 H 578.843 0.61399 -0.407658 0
M  V30 6142 H 581.485 1.09572 -1.55222 0
M  V30 6143 H 579.635 3.57663 -1.51689 0
M  V30 6144 H 581.307 2.48419 -3.88698 0
M  V30 6145 H 579.55 2.27731 -3.69217 0
M  V30 6146 H 580.221 3.89651 -3.90994 0
M  V30 6147 H 582.697 3.64939 -1.99897 0
M  V30 6148 H 581.573 5.01168 -2.23879 0
M  V30 6149 H 581.834 4.37705 -0.621816 0
M  V30 6150 N 580.893 1.08022 1.14757 0
M  V30 6151 C 582.118 0.82895 1.90114 0
M  V30 6152 C 582.543 -0.612772 1.77839 0
M  V30 6153 O 581.901 -1.42895 1.11583 0
M  V30 6154 C 581.949 1.25062 3.38219 0
M  V30 6155 O 581.053 0.400119 4.10454 0
M  V30 6156 H 580.394 0.301412 0.591648 0
M  V30 6157 H 582.924 1.44062 1.45284 0
M  V30 6158 H 582.934 1.22977 3.89025 0
M  V30 6159 H 581.609 2.30067 3.46471 0
M  V30 6160 H 580.186 0.484052 3.69745 0
M  V30 6161 N 582.371 -1.3172 0.865308 0
M  V30 6162 C 583.62 -1.96145 0.470098 0
M  V30 6163 C 583.933 -1.69182 -0.981674 0
M  V30 6164 O 585.139 -2.27431 -1.48281 0
M  V30 6165 C 583.595 -3.51129 0.789732 0
M  V30 6166 C 583.203 -3.86938 2.25795 0
M  V30 6167 C 584.947 -4.2197 0.462765 0
M  V30 6168 C 582.854 -5.35012 2.52024 0
M  V30 6169 H 581.784 -0.734105 0.172065 0
M  V30 6170 H 584.435 -1.49959 1.05757 0
M  V30 6171 H 582.817 -3.95781 0.131571 0
M  V30 6172 H 583.991 -3.5326 2.95879 0
M  V30 6173 H 582.306 -3.29149 2.55049 0
M  V30 6174 H 584.903 -5.30904 0.636019 0
M  V30 6175 H 585.246 -4.12005 -0.59645 0
M  V30 6176 H 585.779 -3.82936 1.07727 0
M  V30 6177 H 582.518 -5.50008 3.56611 0
M  V30 6178 H 582.038 -5.70058 1.8653 0
M  V30 6179 H 583.717 -6.0222 2.36515 0
M  V30 6180 N 583.85 -0.624285 -1.44708 0
M  V30 6181 C 584.8 0.106466 -2.27751 0
M  V30 6182 C 585.784 0.822703 -1.38277 0
M  V30 6183 O 586.976 0.709939 -1.62138 0
M  V30 6184 C 584.105 1.092 -3.25469 0
M  V30 6185 C 583.191 0.375737 -4.22432 0
M  V30 6186 N 583.582 -0.591881 -5.02325 0
M  V30 6187 C 581.88 0.621093 -4.41654 0
M  V30 6188 C 582.581 -1.01443 -5.72786 0
M  V30 6189 N 581.557 -0.354651 -5.42442 0
M  V30 6190 H 585.359 -0.636464 -2.86926 0
M  V30 6191 H 582.873 -0.44925 -1.56062 0
M  V30 6192 H 584.87 1.63006 -3.83712 0
M  V30 6193 H 583.529 1.8353 -2.67856 0
M  V30 6194 H 584.541 -0.969389 -5.08747 0
M  V30 6195 H 581.218 1.34779 -3.95147 0
M  V30 6196 H 582.608 -1.81345 -6.46965 0
M  V30 6197 N 585.328 1.53329 -0.364422 0
M  V30 6198 C 586.278 2.22472 0.499024 0
M  V30 6199 C 587.262 1.21952 1.0496 0
M  V30 6200 O 588.454 1.47405 0.979836 0
M  V30 6201 C 585.583 3.01659 1.6388 0
M  V30 6202 C 584.669 4.09555 1.10116 0
M  V30 6203 N 585.06 5.04988 0.286414 0
M  V30 6204 C 583.358 4.2424 1.37608 0
M  V30 6205 C 584.059 5.81699 -0.00781682 0
M  V30 6206 N 583.035 5.40394 0.589494 0
M  V30 6207 H 586.837 2.93611 -0.130284 0
M  V30 6208 H 584.351 1.61483 -0.172377 0
M  V30 6209 H 586.348 3.4971 2.26954 0
M  V30 6210 H 585.008 2.32051 2.27118 0
M  V30 6211 H 586.019 5.17847 -0.0742839 0
M  V30 6212 H 582.696 3.65858 2.01133 0
M  V30 6213 H 584.086 6.68587 -0.666394 0
M  V30 6214 N 586.806 0.0935595 1.57322 0
M  V30 6215 C 588.217 -0.435807 1.81542 0
M  V30 6216 C 588.568 -1.68263 1.00907 0
M  V30 6217 O 587.693 -2.15087 0.237983 0
M  V30 6218 C 588.288 -0.797436 3.29282 0
M  V30 6219 C 586.847 -1.27155 3.54272 0
M  V30 6220 C 585.994 -0.267455 2.76007 0
M  V30 6221 H 588.945 0.31902 1.5546 0
M  V30 6222 H 588.966 -1.6571 3.42521 0
M  V30 6223 H 588.478 0.110206 3.87943 0
M  V30 6224 H 586.579 -2.19696 3.00939 0
M  V30 6225 H 586.692 -1.23445 4.62923 0
M  V30 6226 H 585.056 -0.749282 2.43429 0
M  V30 6227 H 585.839 0.632839 3.37417 0
M  V30 6228 N 588.284 -1.56567 -0.180126 0
M  V30 6229 C 589.234 -1.92132 -1.22756 0
M  V30 6230 C 590.218 -0.788639 -1.40247 0
M  V30 6231 O 591.41 -1.05171 -1.42366 0
M  V30 6232 C 588.539 -2.27719 -2.56902 0
M  V30 6233 C 587.625 -3.47481 -2.43142 0
M  V30 6234 N 588.016 -4.64973 -1.99082 0
M  V30 6235 C 586.314 -3.51914 -2.73994 0
M  V30 6236 C 587.015 -5.47119 -1.97574 0
M  V30 6237 N 585.991 -4.87925 -2.39645 0
M  V30 6238 H 589.793 -2.80464 -0.878478 0
M  V30 6239 H 587.307 -1.57686 -0.388463 0
M  V30 6240 H 589.304 -2.51389 -3.32579 0
M  V30 6241 H 587.964 -1.40722 -2.92621 0
M  V30 6242 H 588.975 -4.89358 -1.69557 0
M  V30 6243 H 585.652 -2.75372 -3.13809 0
M  V30 6244 H 587.042 -6.51254 -1.65282 0
M  V30 6245 N 589.762 0.448376 -1.51087 0
M  V30 6246 C 591.039 1.20926 -1.53741 0
M  V30 6247 C 591.419 2.09025 -0.295222 0
M  V30 6248 O 590.767 2.16851 0.720283 0
M  V30 6249 C 590.977 2.02067 -2.84552 0
M  V30 6250 C 592.325 2.59486 -3.36084 0
M  V30 6251 O 593.349 2.12289 -2.86028 0
M  V30 6252 O 592.208 3.45539 -4.23397 0
M  V30 6253 H 589.302 0.549951 -0.617643 0
M  V30 6254 H 591.848 0.458344 -1.63393 0
M  V30 6255 H 590.62 1.37291 -3.66425 0
M  V30 6256 H 590.243 2.84246 -2.78011 0
M  V30 6257 N 591.24 1.41047 0.703093 0
M  V30 6258 C 592.656 1.23351 1.01275 0
M  V30 6259 C 592.856 0.11754 2.01157 0
M  V30 6260 O 591.912 -0.520518 2.47077 0
M  V30 6261 C 593.225 2.58001 1.54454 0
M  V30 6262 C 594.773 2.65119 1.66376 0
M  V30 6263 C 595.248 4.00067 2.22958 0
M  V30 6264 N 596.739 4.01875 2.30328 0
M  V30 6265 C 597.474 5.03087 2.75119 0
M  V30 6266 N 596.97 6.14692 3.19571 0
M  V30 6267 N 598.763 4.90451 2.74616 0
M  V30 6268 H 590.914 2.1236 0.0412686 0
M  V30 6269 H 593.177 0.944543 0.08089 0
M  V30 6270 H 592.883 3.40378 0.88521 0
M  V30 6271 H 592.757 2.79962 2.52786 0
M  V30 6272 H 595.144 1.83106 2.31422 0
M  V30 6273 H 595.225 2.46975 0.666089 0
M  V30 6274 H 594.869 4.82526 1.58529 0
M  V30 6275 H 594.799 4.15547 3.23462 0
M  V30 6276 H 597.29 3.21291 1.98949 0
M  V30 6277 H 597.603 6.87799 3.52352 0
M  V30 6278 H 595.948 6.18239 3.17498 0
M  V30 6279 H 599.139 4.0235 2.39233 0
M  V30 6280 H 599.312 5.6947 3.09206 0
M  V30 6281 N 592.718 -0.936591 1.26751 0
M  V30 6282 C 593.648 -2.05315 1.11212 0
M  V30 6283 C 594.629 -1.70092 0.0160262 0
M  V30 6284 O 595.814 -1.93279 0.188894 0
M  V30 6285 C 592.944 -3.39123 0.749171 0
M  V30 6286 C 591.898 -3.88425 1.79751 0
M  V30 6287 C 591.224 -5.18936 1.28876 0
M  V30 6288 C 592.524 -4.12798 3.19992 0
M  V30 6289 H 594.218 -2.18573 2.04613 0
M  V30 6290 H 591.764 -1.05027 0.985159 0
M  V30 6291 H 593.717 -4.16704 0.627323 0
M  V30 6292 H 592.441 -3.25855 -0.220543 0
M  V30 6293 H 591.1 -3.13028 1.90811 0
M  V30 6294 H 590.748 -5.02051 0.308757 0
M  V30 6295 H 590.448 -5.52892 1.98958 0
M  V30 6296 H 591.972 -5.99096 1.17967 0
M  V30 6297 H 593.386 -4.80977 3.11983 0
M  V30 6298 H 591.783 -4.58044 3.87705 0
M  V30 6299 H 592.853 -3.18412 3.65707 0
M  V30 6300 N 594.196 -1.08629 -1.14182 0
M  V30 6301 C 595.129 -0.662329 -2.18377 0
M  V30 6302 C 596.107 0.327054 -1.59277 0
M  V30 6303 O 597.291 0.230376 -1.87087 0
M  V30 6304 C 594.418 0.0254765 -3.3869 0
M  V30 6305 C 593.464 -0.924414 -4.16361 0
M  V30 6306 S 594.297 -2.43226 -4.77076 0
M  V30 6307 C 595.453 -1.75663 -6.00744 0
M  V30 6308 H 595.686 -1.54501 -2.54001 0
M  V30 6309 H 593.219 -0.901484 -1.2535 0
M  V30 6310 H 595.177 0.416032 -4.08386 0
M  V30 6311 H 593.838 0.884689 -3.01384 0
M  V30 6312 H 593.031 -0.390099 -5.02488 0
M  V30 6313 H 592.633 -1.25598 -3.5228 0
M  V30 6314 H 594.925 -1.07589 -6.68903 0
M  V30 6315 H 595.868 -2.59673 -6.58768 0
M  V30 6316 H 596.276 -1.22903 -5.50958 0
M  V30 6317 N 595.674 1.31259 -0.872281 0
M  V30 6318 C 596.921 1.96622 -0.484365 0
M  V30 6319 C 597.249 1.68939 0.963841 0
M  V30 6320 O 596.504 0.97974 1.6941 0
M  V30 6321 C 596.803 3.50659 -0.690889 0
M  V30 6322 C 596.469 3.98366 -2.11224 0
M  V30 6323 C 595.131 4.11104 -2.50094 0
M  V30 6324 C 597.483 4.23425 -3.0391 0
M  V30 6325 C 594.811 4.46254 -3.80887 0
M  V30 6326 C 597.163 4.60039 -4.3422 0
M  V30 6327 C 595.827 4.70984 -4.73001 0
M  V30 6328 H 595.097 0.71949 -0.177242 0
M  V30 6329 H 597.744 1.56353 -1.10571 0
M  V30 6330 H 596.049 3.91798 0.0135782 0
M  V30 6331 H 597.746 3.99284 -0.370534 0
M  V30 6332 H 594.336 3.88949 -1.80047 0
M  V30 6333 H 598.52 4.13075 -2.75104 0
M  V30 6334 H 593.776 4.52926 -4.10692 0
M  V30 6335 H 597.95 4.78381 -5.06088 0
M  V30 6336 H 595.577 4.97977 -5.7439 0
M  V30 6337 N 597.152 0.631951 1.44375 0
M  V30 6338 C 598.563 0.219036 1.85411 0
M  V30 6339 C 598.914 -1.22974 1.52879 0
M  V30 6340 O 598.039 -1.93579 0.967266 0
M  V30 6341 C 598.634 0.39075 3.36539 0
M  V30 6342 C 597.193 0.0323351 3.76386 0
M  V30 6343 C 596.34 0.703744 2.68221 0
M  V30 6344 H 599.291 0.837056 1.3483 0
M  V30 6345 H 599.312 -0.370056 3.78696 0
M  V30 6346 H 598.824 1.44527 3.60185 0
M  V30 6347 H 596.925 -1.02042 3.58355 0
M  V30 6348 H 597.038 0.442969 4.77048 0
M  V30 6349 H 595.402 0.138974 2.54321 0
M  V30 6350 H 596.185 1.76088 2.947 0
M  V30 6351 N 598.631 -1.53133 0.372548 0
M  V30 6352 C 600.047 -1.59585 0.02178 0
M  V30 6353 C 600.247 -1.38736 -1.46132 0
M  V30 6354 O 599.303 -1.19599 -2.22379 0
M  V30 6355 C 600.616 -2.9678 0.483959 0
M  V30 6356 C 602.164 -3.09909 0.438775 0
M  V30 6357 C 602.639 -4.49527 0.876876 0
M  V30 6358 N 604.13 -4.55663 0.832214 0
M  V30 6359 C 604.865 -5.61896 1.14281 0
M  V30 6360 N 604.361 -6.75852 1.52303 0
M  V30 6361 N 606.154 -5.51916 1.06515 0
M  V30 6362 H 598.305 -1.64936 1.33827 0
M  V30 6363 H 600.568 -0.773947 0.547458 0
M  V30 6364 H 600.274 -3.17198 1.51915 0
M  V30 6365 H 600.148 -3.7699 -0.125784 0
M  V30 6366 H 602.535 -2.89197 -0.587294 0
M  V30 6367 H 602.616 -2.31691 1.0841 0
M  V30 6368 H 602.26 -4.70979 1.90109 0
M  V30 6369 H 602.19 -5.26186 0.208727 0
M  V30 6370 H 604.681 -3.73844 0.552195 0
M  V30 6371 H 604.994 -7.52862 1.7441 0
M  V30 6372 H 603.339 -6.77226 1.56175 0
M  V30 6373 H 606.53 -4.6177 0.767235 0
M  V30 6374 H 606.703 -6.34609 1.31053 0
M  V30 6375 N 600.109 -0.101901 -1.5727 0
M  V30 6376 C 601.042 0.891377 -2.10071 0
M  V30 6377 C 602.02 1.27197 -1.01291 0
M  V30 6378 O 603.204 1.37602 -1.28833 0
M  V30 6379 C 600.331 2.19049 -2.58331 0
M  V30 6380 C 599.377 1.95925 -3.78834 0
M  V30 6381 S 600.21 1.19106 -5.22086 0
M  V30 6382 C 601.366 2.50234 -5.73702 0
M  V30 6383 H 601.599 0.442212 -2.93993 0
M  V30 6384 H 599.132 0.111529 -1.53997 0
M  V30 6385 H 601.09 2.937 -2.86793 0
M  V30 6386 H 599.751 2.61086 -1.74622 0
M  V30 6387 H 598.944 2.92143 -4.10693 0
M  V30 6388 H 598.546 1.29401 -3.50901 0
M  V30 6389 H 600.838 3.46173 -5.82384 0
M  V30 6390 H 601.781 2.22944 -6.72088 0
M  V30 6391 H 602.189 2.58818 -5.01671 0
M  V30 6392 N 601.587 1.56661 0.17182 0
M  V30 6393 C 602.517 1.99401 1.21498 0
M  V30 6394 C 603.498 0.869516 1.46197 0
M  V30 6395 O 604.683 1.13556 1.57539 0
M  V30 6396 C 601.813 2.35346 2.55401 0
M  V30 6397 C 600.767 3.5075 2.45272 0
M  V30 6398 C 600.093 3.72437 3.8366 0
M  V30 6399 C 601.393 4.84216 1.95787 0
M  V30 6400 H 603.087 2.86792 0.859699 0
M  V30 6401 H 600.633 1.37977 0.412103 0
M  V30 6402 H 602.586 2.63843 3.2858 0
M  V30 6403 H 601.31 1.44864 2.92715 0
M  V30 6404 H 599.969 3.2238 1.74547 0
M  V30 6405 H 599.617 2.79246 4.18367 0
M  V30 6406 H 599.317 4.50087 3.77751 0
M  V30 6407 H 600.841 4.03334 4.58426 0
M  V30 6408 H 602.255 5.11592 2.5874 0
M  V30 6409 H 600.652 5.65498 2.00827 0
M  V30 6410 H 601.722 4.76243 0.912159 0
M  V30 6411 N 603.065 -0.440357 1.51323 0
M  V30 6412 C 603.998 -1.55414 1.67098 0
M  V30 6413 C 604.976 -1.54108 0.518599 0
M  V30 6414 O 606.16 -1.7328 0.742054 0
M  V30 6415 C 603.287 -2.93996 1.68179 0
M  V30 6416 C 602.333 -3.13338 2.89347 0
M  V30 6417 S 603.166 -2.89957 4.50206 0
M  V30 6418 C 604.322 -4.30826 4.54027 0
M  V30 6419 H 604.555 -1.41798 2.61306 0
M  V30 6420 H 602.088 -0.629841 1.40969 0
M  V30 6421 H 604.046 -3.73878 1.69487 0
M  V30 6422 H 602.707 -3.04976 0.751542 0
M  V30 6423 H 601.9 -4.14652 2.86495 0
M  V30 6424 H 601.502 -2.41276 2.85766 0
M  V30 6425 H 603.794 -5.23977 4.29481 0
M  V30 6426 H 604.737 -4.38712 5.55822 0
M  V30 6427 H 605.145 -4.1434 3.83384 0
M  V30 6428 N 604.543 -1.41418 -0.695603 0
M  V30 6429 C 605.49 -1.43264 -1.80954 0
M  V30 6430 C 606.46 -0.287016 -1.63601 0
M  V30 6431 O 607.645 -0.488054 -1.84452 0
M  V30 6432 C 604.785 -1.32054 -3.18835 0
M  V30 6433 C 603.898 -2.56485 -3.4762 0
M  V30 6434 C 603.033 -2.3757 -4.75115 0
M  V30 6435 C 602.072 -3.57477 -4.96867 0
M  V30 6436 N 601.209 -3.37632 -6.15588 0
M  V30 6437 H 606.049 -2.38467 -1.78711 0
M  V30 6438 H 603.586 -1.18415 -0.872715 0
M  V30 6439 H 605.544 -1.23558 -3.98484 0
M  V30 6440 H 604.174 -0.404592 -3.20254 0
M  V30 6441 H 603.226 -2.75432 -2.62376 0
M  V30 6442 H 604.538 -3.45678 -3.59594 0
M  V30 6443 H 603.692 -2.2654 -5.62818 0
M  V30 6444 H 602.431 -1.45834 -4.65386 0
M  V30 6445 H 601.436 -3.68961 -4.07612 0
M  V30 6446 H 602.661 -4.50167 -5.08455 0
M  V30 6447 H 600.607 -2.48596 -6.07072 0
M  V30 6448 H 600.524 -4.20401 -6.2833 0
M  V30 6449 H 601.792 -3.30375 -7.06026 0
M  V30 6450 N 606.021 0.929856 -1.27246 0
M  V30 6451 C 606.951 2.04722 -1.12299 0
M  V30 6452 C 607.932 1.70082 -0.0250464 0
M  V30 6453 O 609.117 1.93176 -0.199141 0
M  V30 6454 C 606.247 3.38721 -0.767145 0
M  V30 6455 C 605.201 3.87466 -1.81808 0
M  V30 6456 C 604.527 5.18246 -1.31626 0
M  V30 6457 C 605.827 4.11095 -3.22177 0
M  V30 6458 H 607.521 2.17485 -2.05769 0
M  V30 6459 H 605.067 1.04503 -0.990715 0
M  V30 6460 H 607.02 4.16366 -0.649413 0
M  V30 6461 H 605.744 3.25967 0.203259 0
M  V30 6462 H 604.403 3.12012 -1.92468 0
M  V30 6463 H 604.051 5.01881 -0.335378 0
M  V30 6464 H 603.751 5.51829 -2.01887 0
M  V30 6465 H 605.275 5.98462 -1.21143 0
M  V30 6466 H 606.689 4.79316 -3.1453 0
M  V30 6467 H 605.086 4.55982 -3.90129 0
M  V30 6468 H 606.156 3.16468 -3.67391 0
M  V30 6469 N 607.499 1.09233 1.13605 0
M  V30 6470 C 608.745 0.828385 1.8511 0
M  V30 6471 C 609.078 -0.64437 1.83198 0
M  V30 6472 O 608.353 -1.47428 1.26867 0
M  V30 6473 C 608.636 1.36167 3.33363 0
M  V30 6474 C 608.489 2.90038 3.438 0
M  V30 6475 C 609.808 0.993819 4.28732 0
M  V30 6476 H 606.927 0.30239 0.672108 0
M  V30 6477 H 609.569 1.35339 1.33355 0
M  V30 6478 H 607.719 0.9151 3.77569 0
M  V30 6479 H 609.391 3.43128 3.08319 0
M  V30 6480 H 607.634 3.27271 2.84739 0
M  V30 6481 H 608.305 3.22428 4.48045 0
M  V30 6482 H 610.781 1.37893 3.92587 0
M  V30 6483 H 609.657 1.39403 5.30903 0
M  V30 6484 H 609.918 -0.0982206 4.41991 0
M  V30 6485 N 608.977 -1.30795 0.87923 0
M  V30 6486 C 610.202 -2.01063 0.508769 0
M  V30 6487 C 610.627 -1.65508 -0.893803 0
M  V30 6488 O 609.985 -0.868616 -1.59138 0
M  V30 6489 C 610.033 -3.54054 0.683991 0
M  V30 6490 O 609.137 -4.11498 -0.272654 0
M  V30 6491 H 608.478 -0.632786 0.201191 0
M  V30 6492 H 611.008 -1.66776 1.18519 0
M  V30 6493 H 611.018 -4.03845 0.580798 0
M  V30 6494 H 609.693 -3.79271 1.70665 0
M  V30 6495 H 608.27 -3.72695 -0.12364 0
M  V30 6496 N 610.455 -0.639598 -1.44038 0
M  V30 6497 C 611.385 0.0469443 -2.33453 0
M  V30 6498 C 612.366 0.82609 -1.48694 0
M  V30 6499 O 613.551 0.790285 -1.77393 0
M  V30 6500 C 610.681 1.02338 -3.3188 0
M  V30 6501 C 609.635 0.355284 -4.26523 0
M  V30 6502 C 608.961 1.44221 -5.14883 0
M  V30 6503 C 610.261 -0.743798 -5.16977 0
M  V30 6504 H 611.955 -0.699735 -2.91108 0
M  V30 6505 H 609.501 -0.337946 -1.39978 0
M  V30 6506 H 611.454 1.51247 -3.93322 0
M  V30 6507 H 610.178 1.80105 -2.72451 0
M  V30 6508 H 608.837 -0.113239 -3.66425 0
M  V30 6509 H 608.485 2.21097 -4.51802 0
M  V30 6510 H 608.185 1.00052 -5.79019 0
M  V30 6511 H 609.709 1.93295 -5.79197 0
M  V30 6512 H 611.123 -0.337444 -5.72306 0
M  V30 6513 H 609.52 -1.10914 -5.89761 0
M  V30 6514 H 610.59 -1.60745 -4.57481 0
M  V30 6515 N 611.933 1.52934 -0.380664 0
M  V30 6516 C 613.349 1.59571 -0.0302429 0
M  V30 6517 C 613.549 1.39509 1.45394 0
M  V30 6518 O 612.605 1.20777 2.21741 0
M  V30 6519 C 613.918 2.96519 -0.499691 0
M  V30 6520 C 615.466 3.09672 -0.455204 0
M  V30 6521 C 615.941 4.49056 -0.900703 0
M  V30 6522 N 617.432 4.55215 -0.856367 0
M  V30 6523 C 618.167 5.61282 -1.17259 0
M  V30 6524 N 617.663 6.75035 -1.55885 0
M  V30 6525 N 619.456 5.51343 -1.0944 0
M  V30 6526 H 611.607 1.64224 -1.347 0
M  V30 6527 H 613.87 0.771033 -0.551554 0
M  V30 6528 H 613.576 3.16388 -1.53595 0
M  V30 6529 H 613.45 3.77052 0.105789 0
M  V30 6530 H 615.837 2.89504 0.571949 0
M  V30 6531 H 615.918 2.31113 -1.09638 0
M  V30 6532 H 615.562 4.69964 -1.92604 0
M  V30 6533 H 615.492 5.26068 -0.236629 0
M  V30 6534 H 617.983 3.73546 -0.572013 0
M  V30 6535 H 618.296 7.51926 -1.784 0
M  V30 6536 H 616.641 6.76388 -1.59764 0
M  V30 6537 H 619.832 4.61356 -0.791713 0
M  V30 6538 H 620.005 6.33905 -1.34417 0
M  V30 6539 N 613.412 0.11024 1.57214 0
M  V30 6540 C 614.64 -0.557834 1.99238 0
M  V30 6541 C 615.055 -1.60778 0.989734 0
M  V30 6542 O 614.412 -1.82491 -0.0186092 0
M  V30 6543 C 614.463 -1.19189 3.41286 0
M  V30 6544 O 614.184 -0.183919 4.37714 0
M  V30 6545 C 615.685 -1.94413 3.98395 0
M  V30 6546 H 612.905 -0.148392 0.654386 0
M  V30 6547 H 615.449 0.193996 2.03578 0
M  V30 6548 H 613.604 -1.89456 3.37913 0
M  V30 6549 H 614.018 -0.643475 5.20538 0
M  V30 6550 H 615.492 -2.34116 4.99894 0
M  V30 6551 H 615.969 -2.81592 3.3705 0
M  V30 6552 H 616.575 -1.28928 4.05287 0
M  V30 6553 N 614.89 -1.56749 -0.16351 0
M  V30 6554 C 615.82 -2.00042 -1.20438 0
M  V30 6555 C 616.801 -0.877256 -1.45733 0
M  V30 6556 O 617.986 -1.1439 -1.56935 0
M  V30 6557 C 615.116 -2.36697 -2.54149 0
M  V30 6558 C 614.07 -3.52046 -2.43408 0
M  V30 6559 C 613.396 -3.74466 -3.81679 0
M  V30 6560 C 614.696 -4.85247 -1.93216 0
M  V30 6561 H 616.39 -2.87244 -0.844477 0
M  V30 6562 H 613.936 -1.38194 -0.40478 0
M  V30 6563 H 615.889 -2.65582 -3.27176 0
M  V30 6564 H 614.613 -1.46414 -2.91943 0
M  V30 6565 H 613.272 -3.23301 -1.72834 0
M  V30 6566 H 612.92 -2.81461 -4.1688 0
M  V30 6567 H 612.62 -4.52084 -3.75359 0
M  V30 6568 H 614.144 -4.0576 -4.5628 0
M  V30 6569 H 615.558 -5.12957 -2.56023 0
M  V30 6570 H 613.955 -5.66556 -1.97825 0
M  V30 6571 H 615.025 -4.7672 -0.88689 0
M  V30 6572 N 616.368 0.432326 -1.51554 0
M  V30 6573 C 617.593 1.20824 -1.68571 0
M  V30 6574 C 618.018 1.84126 -0.384596 0
M  V30 6575 O 617.376 1.69025 0.655751 0
M  V30 6576 C 617.424 2.26429 -2.80646 0
M  V30 6577 O 616.528 3.32032 -2.44598 0
M  V30 6578 H 615.869 0.353765 -0.561913 0
M  V30 6579 H 618.399 0.509916 -1.98144 0
M  V30 6580 H 618.409 2.71133 -3.04878 0
M  V30 6581 H 617.084 1.79733 -3.75058 0
M  V30 6582 H 615.661 2.92769 -2.30956 0
M  V30 6583 N 617.846 1.41785 0.688094 0
M  V30 6584 C 619.071 1.45117 1.48175 0
M  V30 6585 C 619.496 0.060129 1.88004 0
M  V30 6586 O 618.854 -0.938385 1.55126 0
M  V30 6587 C 618.902 2.37224 2.71583 0
M  V30 6588 O 618.006 1.83443 3.69354 0
M  V30 6589 H 617.347 0.492208 0.445676 0
M  V30 6590 H 619.877 1.86329 0.845145 0
M  V30 6591 H 619.887 2.53353 3.19806 0
M  V30 6592 H 618.562 3.38293 2.41931 0
M  V30 6593 H 617.139 1.76802 3.28322 0
M  V30 6594 N 619.324 -0.923095 1.27737 0
M  V30 6595 C 620.57 -1.67375 1.14514 0
M  V30 6596 C 620.903 -1.91751 -0.307424 0
M  V30 6597 O 620.178 -1.51119 -1.22447 0
M  V30 6598 C 620.461 -3.03745 1.9342 0
M  V30 6599 C 620.314 -2.86581 3.46686 0
M  V30 6600 C 621.633 -4.04144 1.74228 0
M  V30 6601 H 618.752 -0.607427 0.417374 0
M  V30 6602 H 621.394 -1.07089 1.56946 0
M  V30 6603 H 619.544 -3.55204 1.5736 0
M  V30 6604 H 621.216 -2.42203 3.92601 0
M  V30 6605 H 619.459 -2.21829 3.72793 0
M  V30 6606 H 620.13 -3.83381 3.97143 0
M  V30 6607 H 622.606 -3.61712 2.05678 0
M  V30 6608 H 621.482 -4.97543 2.31824 0
M  V30 6609 H 621.743 -4.36661 0.691373 0
M  V30 6610 N 620.802 -1.09834 -1.13024 0
M  V30 6611 C 621.752 -0.710899 -2.16634 0
M  V30 6612 C 622.736 0.276836 -1.58501 0
M  V30 6613 O 623.928 0.0865457 -1.76788 0
M  V30 6614 C 621.057 -0.137574 -3.43024 0
M  V30 6615 C 620.143 -1.15198 -4.08155 0
M  V30 6616 N 620.534 -2.34054 -4.48388 0
M  V30 6617 C 618.832 -0.991074 -4.34849 0
M  V30 6618 C 619.533 -2.98616 -4.99203 0
M  V30 6619 N 618.509 -2.26159 -4.94321 0
M  V30 6620 H 622.311 -1.61576 -2.455 0
M  V30 6621 H 619.825 -0.975158 -1.29863 0
M  V30 6622 H 621.822 0.158031 -4.166 0
M  V30 6623 H 620.482 0.762088 -3.1563 0
M  V30 6624 H 621.493 -2.7162 -4.40957 0
M  V30 6625 H 618.17 -0.146448 -4.17243 0
M  V30 6626 H 619.56 -3.99683 -5.40096 0
M  V30 6627 N 622.28 1.30327 -0.886154 0
M  V30 6628 C 623.505 2.0079 -0.519425 0
M  V30 6629 C 623.93 1.65979 0.885013 0
M  V30 6630 O 623.288 0.877043 1.58675 0
M  V30 6631 C 623.336 3.53686 -0.702758 0
M  V30 6632 O 622.44 4.11637 0.250828 0
M  V30 6633 H 621.781 0.63171 -0.204544 0
M  V30 6634 H 624.311 1.66145 -1.19402 0
M  V30 6635 H 624.321 4.03531 -0.602207 0
M  V30 6636 H 622.996 3.78361 -1.72673 0
M  V30 6637 H 621.573 3.72755 0.103873 0
M  V30 6638 N 623.758 0.647228 1.43697 0
M  V30 6639 C 624.668 -0.0487997 2.34549 0
M  V30 6640 C 625.684 -0.818586 1.53542 0
M  V30 6641 O 626.86 -0.767195 1.86215 0
M  V30 6642 C 623.925 -1.00734 3.31743 0
M  V30 6643 C 622.986 -0.23515 4.28655 0
M  V30 6644 C 622.219 -1.14803 5.21206 0
M  V30 6645 O 622.442 -2.38717 5.18045 0
M  V30 6646 O 621.376 -0.623667 5.9866 0
M  V30 6647 H 625.202 0.698863 2.9555 0
M  V30 6648 H 622.787 0.407412 1.43738 0
M  V30 6649 H 624.669 -1.55837 3.91526 0
M  V30 6650 H 623.344 -1.73534 2.73254 0
M  V30 6651 H 622.251 0.359319 3.7237 0
M  V30 6652 H 623.584 0.453152 4.9011 0
M  V30 6653 N 625.236 -1.5273 0.388769 0
M  V30 6654 C 626.168 -2.24081 -0.481704 0
M  V30 6655 C 627.181 -1.26307 -1.02715 0
M  V30 6656 O 628.37 -1.52386 -0.929565 0
M  V30 6657 C 625.47 -2.94315 -1.68024 0
M  V30 6658 C 624.643 -4.18791 -1.26226 0
M  V30 6659 C 623.702 -4.72028 -2.32542 0
M  V30 6660 O 622.728 -5.35129 -1.93972 0
M  V30 6661 N 623.93 -4.51838 -3.64448 0
M  V30 6662 H 626.695 -2.9942 0.129591 0
M  V30 6663 H 624.256 -1.60465 0.2151 0
M  V30 6664 H 626.248 -3.26831 -2.38671 0
M  V30 6665 H 624.818 -2.22287 -2.19789 0
M  V30 6666 H 624.038 -3.92318 -0.384703 0
M  V30 6667 H 625.326 -4.99668 -0.959647 0
M  V30 6668 H 624.724 -4.01468 -3.98547 0
M  V30 6669 H 623.281 -4.88845 -4.31131 0
M  V30 6670 N 626.714 -0.118576 -1.57153 0
M  V30 6671 C 627.96 0.540326 -1.95469 0
M  V30 6672 C 628.293 1.66356 -1.00196 0
M  V30 6673 O 627.568 1.94461 -0.039104 0
M  V30 6674 C 627.851 1.07342 -3.43729 0
M  V30 6675 C 627.704 -0.0463732 -4.49776 0
M  V30 6676 C 629.023 1.96442 -3.93826 0
M  V30 6677 H 626.142 0.19494 -0.710751 0
M  V30 6678 H 628.784 -0.19405 -1.89006 0
M  V30 6679 H 626.934 1.69925 -3.49368 0
M  V30 6680 H 628.606 -0.681648 -4.56236 0
M  V30 6681 H 626.849 -0.709574 -4.27957 0
M  V30 6682 H 627.52 0.367856 -5.50773 0
M  V30 6683 H 629.996 1.43731 -3.90488 0
M  V30 6684 H 628.872 2.3066 -4.98084 0
M  V30 6685 H 629.133 2.89077 -3.34495 0
M  V30 6686 N 628.193 1.56834 0.155195 0
M  V30 6687 C 629.44 1.82898 0.869179 0
M  V30 6688 C 629.768 0.698194 1.81537 0
M  V30 6689 O 629.023 -0.313404 1.93174 0
M  V30 6690 C 629.322 3.15239 1.68402 0
M  V30 6691 C 628.988 4.42123 0.885341 0
M  V30 6692 C 627.65 4.76583 0.664971 0
M  V30 6693 C 630.002 5.20178 0.326234 0
M  V30 6694 C 627.33 5.86566 -0.125346 0
M  V30 6695 C 629.682 6.3099 -0.45108 0
M  V30 6696 C 628.346 6.64006 -0.682102 0
M  V30 6697 H 627.616 0.66927 0.318055 0
M  V30 6698 H 630.263 1.91036 0.133241 0
M  V30 6699 H 628.568 3.02515 2.48982 0
M  V30 6700 H 630.265 3.32618 2.23978 0
M  V30 6701 H 626.855 4.15102 1.06716 0
M  V30 6702 H 631.039 4.93936 0.483787 0
M  V30 6703 H 626.295 6.10594 -0.313915 0
M  V30 6704 H 630.469 6.9067 -0.89149 0
M  V30 6705 H 628.096 7.49065 -1.29636 0
M  V30 6706 N 629.671 -0.424282 1.51781 0
M  V30 6707 C 630.634 -1.49848 1.73431 0
M  V30 6708 C 631.634 -1.49016 0.604225 0
M  V30 6709 O 632.824 -1.50808 0.871935 0
M  V30 6710 C 629.956 -2.89332 1.80277 0
M  V30 6711 H 631.149 -1.3195 2.69312 0
M  V30 6712 H 628.702 -0.653809 1.41968 0
M  V30 6713 H 629.437 -3.12618 0.862568 0
M  V30 6714 H 629.222 -2.9134 2.62419 0
M  V30 6715 H 630.712 -3.67233 1.98821 0
M  V30 6716 N 631.149 -1.42148 -0.680565 0
M  V30 6717 C 632.079 -1.4796 -1.80638 0
M  V30 6718 C 633.06 -0.336728 -1.66734 0
M  V30 6719 O 634.245 -0.550247 -1.86242 0
M  V30 6720 C 631.375 -1.37569 -3.18892 0
M  V30 6721 C 630.329 -2.49823 -3.47524 0
M  V30 6722 C 629.655 -2.24491 -4.85291 0
M  V30 6723 C 630.955 -3.92144 -3.44994 0
M  V30 6724 H 632.649 -2.42184 -1.76032 0
M  V30 6725 H 630.195 -1.16566 -0.845481 0
M  V30 6726 H 632.148 -1.40243 -3.97379 0
M  V30 6727 H 630.872 -0.398357 -3.24162 0
M  V30 6728 H 629.531 -2.46455 -2.71395 0
M  V30 6729 H 629.179 -1.25066 -4.87204 0
M  V30 6730 H 628.879 -2.99722 -5.05411 0
M  V30 6731 H 630.403 -2.28906 -5.66069 0
M  V30 6732 H 631.817 -3.97145 -4.13459 0
M  V30 6733 H 630.214 -4.67179 -3.76648 0
M  V30 6734 H 631.284 -4.19225 -2.43676 0
M  V30 6735 N 632.627 0.916307 -1.28225 0
M  V30 6736 C 634.043 1.19425 -1.05876 0
M  V30 6737 C 634.243 2.005 0.2005 0
M  V30 6738 O 633.299 2.35806 0.902873 0
M  V30 6739 C 634.612 1.93133 -2.30478 0
M  V30 6740 C 636.16 2.06026 -2.35632 0
M  V30 6741 C 636.635 2.83141 -3.59994 0
M  V30 6742 N 638.126 2.90704 -3.60618 0
M  V30 6743 C 638.861 3.50865 -4.53521 0
M  V30 6744 N 638.357 4.12327 -5.56739 0
M  V30 6745 N 640.15 3.48379 -4.41122 0
M  V30 6746 H 632.301 0.37496 -2.09064 0
M  V30 6747 H 634.564 0.228531 -0.920042 0
M  V30 6748 H 634.27 1.40985 -3.22205 0
M  V30 6749 H 634.144 2.93696 -2.36691 0
M  V30 6750 H 636.531 2.57355 -1.44404 0
M  V30 6751 H 636.612 1.04647 -2.33415 0
M  V30 6752 H 636.256 2.32492 -4.51564 0
M  V30 6753 H 636.186 3.84829 -3.59464 0
M  V30 6754 H 638.677 2.47034 -2.85977 0
M  V30 6755 H 638.99 4.56205 -6.23776 0
M  V30 6756 H 637.335 4.10839 -5.60568 0
M  V30 6757 H 640.526 2.99572 -3.59686 0
M  V30 6758 H 640.699 3.94974 -5.13712 0
M  V30 6759 N 634.105 1.10431 1.1244 0
M  V30 6760 C 635.035 0.775143 2.20258 0
M  V30 6761 C 636.016 -0.25186 1.68225 0
M  V30 6762 O 637.201 -0.117637 1.93843 0
M  V30 6763 C 634.331 0.206133 3.46688 0
M  V30 6764 C 633.285 1.16382 4.11873 0
M  V30 6765 C 632.611 0.456014 5.32752 0
M  V30 6766 C 633.911 2.5104 4.58013 0
M  V30 6767 H 635.605 1.67665 2.4805 0
M  V30 6768 H 633.151 0.807595 1.19222 0
M  V30 6769 H 635.104 -0.036291 4.21384 0
M  V30 6770 H 633.828 -0.730614 3.18323 0
M  V30 6771 H 632.487 1.39169 3.39157 0
M  V30 6772 H 632.135 -0.485203 5.00654 0
M  V30 6773 H 631.835 1.09466 5.77314 0
M  V30 6774 H 633.359 0.222135 6.10196 0
M  V30 6775 H 634.773 2.32401 5.24083 0
M  V30 6776 H 633.17 3.10789 5.13352 0
M  V30 6777 H 634.24 3.11039 3.71998 0
M  V30 6778 N 635.583 -1.29855 0.893053 0
M  V30 6779 C 636.515 -2.26911 0.32311 0
M  V30 6780 C 637.528 -1.54039 -0.526858 0
M  V30 6781 O 638.717 -1.75132 -0.345095 0
M  V30 6782 C 635.817 -3.34266 -0.558509 0
M  V30 6783 C 634.99 -4.36601 0.264222 0
M  V30 6784 C 634.049 -5.23326 -0.549171 0
M  V30 6785 O 633.075 -5.69192 0.0309883 0
M  V30 6786 N 634.277 -5.50008 -1.85664 0
M  V30 6787 H 637.042 -2.76455 1.15726 0
M  V30 6788 H 634.603 -1.4312 0.756859 0
M  V30 6789 H 636.595 -3.89211 -1.1089 0
M  V30 6790 H 635.165 -2.8459 -1.29334 0
M  V30 6791 H 634.385 -3.81409 0.996046 0
M  V30 6792 H 635.673 -5.02019 0.827906 0
M  V30 6793 H 635.071 -5.14542 -2.35081 0
M  V30 6794 H 633.628 -6.07796 -2.35431 0
M  V30 6795 N 637.061 -0.65484 -1.43351 0
M  V30 6796 C 638.338 -0.0987371 -1.95351 0
M  V30 6797 C 638.718 1.38161 -1.59608 0
M  V30 6798 O 638.066 2.10791 -0.882021 0
M  V30 6799 C 638.276 -0.346684 -3.47274 0
M  V30 6800 C 639.624 -0.25249 -4.23849 0
M  V30 6801 O 640.648 -0.279332 -3.55103 0
M  V30 6802 O 639.507 -0.177584 -5.46211 0
M  V30 6803 H 636.601 0.0086829 -0.826954 0
M  V30 6804 H 639.147 -0.728189 -1.53282 0
M  V30 6805 H 637.919 -1.37296 -3.66423 0
M  V30 6806 H 637.542 0.315757 -3.96344 0
M  V30 6807 N 638.539 1.52521 -0.396863 0
M  V30 6808 C 639.486 2.26671 0.434624 0
M  V30 6809 C 640.456 1.28584 1.05144 0
M  V30 6810 O 641.641 1.57426 1.07804 0
M  V30 6811 C 638.781 3.08234 1.55196 0
M  V30 6812 C 637.894 4.21261 0.957262 0
M  V30 6813 C 637.029 4.90205 2.04627 0
M  V30 6814 C 636.068 5.95213 1.42787 0
M  V30 6815 N 635.205 6.57723 2.45651 0
M  V30 6816 H 640.045 2.973 -0.204139 0
M  V30 6817 H 637.582 1.46669 -0.112505 0
M  V30 6818 H 639.54 3.53819 2.2106 0
M  V30 6819 H 638.17 2.398 2.16092 0
M  V30 6820 H 637.222 3.79935 0.188005 0
M  V30 6821 H 638.534 4.96624 0.465416 0
M  V30 6822 H 637.688 5.39133 2.78246 0
M  V30 6823 H 636.427 4.14383 2.57174 0
M  V30 6824 H 635.432 5.45616 0.676968 0
M  V30 6825 H 636.657 6.72972 0.910255 0
M  V30 6826 H 634.603 5.84737 2.97353 0
M  V30 6827 H 634.52 7.28723 2.01243 0
M  V30 6828 H 635.788 7.11293 3.18876 0
M  V30 6829 N 640.017 0.126909 1.57088 0
M  V30 6830 C 640.964 -0.82036 2.15728 0
M  V30 6831 C 641.934 -1.25811 1.08447 0
M  V30 6832 O 643.119 -1.33422 1.36393 0
M  V30 6833 C 640.259 -2.06199 2.76724 0
M  V30 6834 C 639.372 -1.67188 3.98337 0
M  V30 6835 C 638.507 -2.86378 4.47393 0
M  V30 6836 C 637.546 -2.43644 5.61519 0
M  V30 6837 N 636.683 -3.55775 6.05284 0
M  V30 6838 H 641.523 -0.313472 2.96347 0
M  V30 6839 H 639.06 -0.14303 1.46403 0
M  V30 6840 H 641.018 -2.78959 3.10222 0
M  V30 6841 H 639.648 -2.54333 1.98782 0
M  V30 6842 H 638.7 -0.842714 3.70948 0
M  V30 6843 H 640.012 -1.31789 4.81075 0
M  V30 6844 H 639.166 -3.67353 4.82842 0
M  V30 6845 H 637.905 -3.25009 3.63621 0
M  V30 6846 H 636.91 -1.61104 5.25667 0
M  V30 6847 H 638.135 -2.06122 6.47063 0
M  V30 6848 H 636.081 -3.94065 5.24451 0
M  V30 6849 H 635.998 -3.24325 6.82898 0
M  V30 6850 H 637.266 -4.37166 6.45373 0
M  V30 6851 N 641.495 -1.56914 -0.146875 0
M  V30 6852 C 642.425 -2.01308 -1.1831 0
M  V30 6853 C 643.406 -0.892664 -1.44795 0
M  V30 6854 O 644.591 -1.16048 -1.55713 0
M  V30 6855 C 641.721 -2.3938 -2.51624 0
M  V30 6856 C 640.675 -3.54608 -2.3966 0
M  V30 6857 C 640.001 -3.78493 -3.77686 0
M  V30 6858 C 641.301 -4.87269 -1.88058 0
M  V30 6859 H 642.995 -2.88123 -0.813964 0
M  V30 6860 H 640.541 -1.38615 -0.3901 0
M  V30 6861 H 642.494 -2.69037 -3.24341 0
M  V30 6862 H 641.218 -1.49502 -2.90373 0
M  V30 6863 H 639.877 -3.25116 -1.69396 0
M  V30 6864 H 639.525 -2.85866 -4.13871 0
M  V30 6865 H 639.225 -4.56039 -3.70543 0
M  V30 6866 H 640.749 -4.10576 -4.51951 0
M  V30 6867 H 642.163 -5.15644 -2.50568 0
M  V30 6868 H 640.56 -5.68622 -1.91805 0
M  V30 6869 H 641.63 -4.77634 -0.836277 0
M  V30 6870 N 642.974 0.416227 -1.52004 0
M  V30 6871 C 644.385 0.995319 -1.57957 0
M  V30 6872 C 644.736 1.91744 -0.415754 0
M  V30 6873 O 643.861 2.11349 0.464808 0
M  V30 6874 C 644.456 1.81191 -2.86278 0
M  V30 6875 C 643.015 2.34115 -2.94732 0
M  V30 6876 C 642.162 1.139 -2.52828 0
M  V30 6877 H 645.113 0.196716 -1.57476 0
M  V30 6878 H 645.134 2.66859 -2.71231 0
M  V30 6879 H 644.646 1.14051 -3.70963 0
M  V30 6880 H 642.747 3.04647 -2.14525 0
M  V30 6881 H 642.86 2.65466 -3.98829 0
M  V30 6882 H 641.224 1.49081 -2.06511 0
M  V30 6883 H 642.007 0.483383 -3.3988 0
M  V30 6884 N 644.452 1.42507 0.673017 0
M  V30 6885 C 645.863 1.38347 1.25367 0
M  V30 6886 C 646.214 0.0776327 1.96046 0
M  V30 6887 O 645.339 -0.823571 2.00116 0
M  V30 6888 C 645.934 2.506 2.28002 0
M  V30 6889 C 644.493 2.49767 2.81591 0
M  V30 6890 C 643.64 2.293 1.55938 0
M  V30 6891 H 646.591 1.51695 0.466288 0
M  V30 6892 H 646.612 2.20953 3.09774 0
M  V30 6893 H 646.124 3.45627 1.76532 0
M  V30 6894 H 644.225 1.58563 3.37177 0
M  V30 6895 H 644.338 3.46867 3.30485 0
M  V30 6896 H 642.702 1.77594 1.82572 0
M  V30 6897 H 643.485 3.26385 1.06431 0
M  V30 6898 N 645.93 -0.909495 1.28709 0
M  V30 6899 C 646.86 -2.0291 1.15542 0
M  V30 6900 C 647.841 -1.7002 0.0521017 0
M  V30 6901 O 649.026 -1.92835 0.229849 0
M  V30 6902 C 646.156 -3.37458 0.820935 0
M  V30 6903 C 645.11 -3.84524 1.87949 0
M  V30 6904 C 644.436 -5.16086 1.39854 0
M  V30 6905 C 645.736 -4.05918 3.28676 0
M  V30 6906 H 647.43 -2.14183 2.09203 0
M  V30 6907 H 644.976 -1.02913 1.00722 0
M  V30 6908 H 646.929 -4.1528 0.715571 0
M  V30 6909 H 645.653 -3.26249 -0.151374 0
M  V30 6910 H 644.312 -3.08911 1.97408 0
M  V30 6911 H 643.96 -5.01284 0.41518 0
M  V30 6912 H 643.66 -5.48547 2.1064 0
M  V30 6913 H 645.184 -5.96459 1.30649 0
M  V30 6914 H 646.598 -4.74252 3.22115 0
M  V30 6915 H 644.995 -4.49717 3.97334 0
M  V30 6916 H 646.065 -3.10583 3.72379 0
M  V30 6917 N 647.408 -1.11026 -1.11852 0
M  V30 6918 C 648.338 -0.786812 -2.19844 0
M  V30 6919 C 649.319 0.242935 -1.68356 0
M  V30 6920 O 650.504 0.107355 -1.93903 0
M  V30 6921 C 647.634 -0.224516 -3.46574 0
M  V30 6922 C 646.588 -1.18564 -4.1125 0
M  V30 6923 C 645.914 -0.484261 -5.32503 0
M  V30 6924 C 647.214 -2.53465 -4.56676 0
M  V30 6925 H 648.908 -1.68978 -2.47158 0
M  V30 6926 H 646.454 -0.813906 -1.18792 0
M  V30 6927 H 648.407 0.0139435 -4.21398 0
M  V30 6928 H 647.131 0.713722 -3.18706 0
M  V30 6929 H 645.79 -1.40966 -3.38414 0
M  V30 6930 H 645.438 0.458646 -5.00905 0
M  V30 6931 H 645.138 -1.12526 -5.76725 0
M  V30 6932 H 646.662 -0.254492 -6.10069 0
M  V30 6933 H 648.076 -2.35177 -5.22843 0
M  V30 6934 H 646.473 -3.13507 -5.11697 0
M  V30 6935 H 647.543 -3.13008 -3.70343 0
M  V30 6936 N 648.886 1.2938 -0.899927 0
M  V30 6937 C 650.111 2.00228 -0.540692 0
M  V30 6938 C 650.536 1.66909 0.867359 0
M  V30 6939 O 649.894 0.893824 1.57735 0
M  V30 6940 C 649.942 3.52921 -0.740232 0
M  V30 6941 O 649.046 4.11879 0.207154 0
M  V30 6942 H 648.387 0.629505 -0.211233 0
M  V30 6943 H 650.917 1.6487 -1.21158 0
M  V30 6944 H 650.927 4.0287 -0.644973 0
M  V30 6945 H 649.602 3.76508 -1.76677 0
M  V30 6946 H 648.179 3.72845 0.0643315 0
M  V30 6947 N 650.364 0.662433 1.43002 0
M  V30 6948 C 651.274 -0.0239199 2.34588 0
M  V30 6949 C 652.29 -0.802255 1.54402 0
M  V30 6950 O 653.466 -0.747401 1.87018 0
M  V30 6951 C 650.531 -0.972098 3.32793 0
M  V30 6952 C 649.592 -0.189673 4.28881 0
M  V30 6953 C 648.825 -1.09269 5.22395 0
M  V30 6954 O 649.048 -2.33209 5.20547 0
M  V30 6955 O 647.982 -0.560136 5.99288 0
M  V30 6956 H 651.808 0.730171 2.94792 0
M  V30 6957 H 649.393 0.422635 1.43297 0
M  V30 6958 H 651.275 -1.51676 3.93157 0
M  V30 6959 H 649.95 -1.70626 2.75079 0
M  V30 6960 H 648.857 0.398794 3.71968 0
M  V30 6961 H 650.19 0.50511 4.89601 0
M  V30 6962 N 651.842 -1.52309 0.404946 0
M  V30 6963 C 653.091 -2.00952 -0.173529 0
M  V30 6964 C 653.404 -1.29512 -1.46581 0
M  V30 6965 O 654.61 -1.6895 -2.12528 0
M  V30 6966 C 653.066 -3.58097 -0.359801 0
M  V30 6967 C 652.674 -4.38449 0.920138 0
M  V30 6968 C 654.418 -4.14984 -0.893794 0
M  V30 6969 C 652.325 -5.87227 0.701285 0
M  V30 6970 H 651.255 -0.750871 -0.0686244 0
M  V30 6971 H 653.906 -1.75687 0.529749 0
M  V30 6972 H 652.288 -3.79675 -1.12531 0
M  V30 6973 H 653.462 -4.28633 1.69147 0
M  V30 6974 H 651.777 -3.92859 1.38024 0
M  V30 6975 H 654.374 -5.23813 -1.0735 0
M  V30 6976 H 654.717 -3.72072 -1.8673 0
M  V30 6977 H 655.25 -3.97358 -0.187453 0
M  V30 6978 H 651.989 -6.34491 1.64624 0
M  V30 6979 H 651.509 -5.99792 -0.0308288 0
M  V30 6980 H 653.188 -6.46096 0.341846 0
M  V30 6981 N 653.32 -0.135238 -1.57019 0
M  V30 6982 C 654.566 0.513232 -1.96818 0
M  V30 6983 C 654.921 1.63245 -1.01827 0
M  V30 6984 O 654.214 1.91532 -0.0511756 0
M  V30 6985 C 654.408 1.07694 -3.40788 0
M  V30 6986 C 654.237 0.0138667 -4.49698 0
M  V30 6987 C 653.007 -0.423532 -5.03522 0
M  V30 6988 C 655.205 -0.77322 -5.08454 0
M  V30 6989 N 653.187 -1.47068 -5.96024 0
M  V30 6990 C 654.558 -1.67115 -5.97053 0
M  V30 6991 C 656.613 -0.822313 -4.91063 0
M  V30 6992 C 655.316 -2.61395 -6.70123 0
M  V30 6993 C 657.342 -1.75288 -5.64826 0
M  V30 6994 C 656.704 -2.63836 -6.53123 0
M  V30 6995 H 652.803 0.156956 -0.766087 0
M  V30 6996 H 655.387 -0.227118 -1.93371 0
M  V30 6997 H 653.558 1.78694 -3.44852 0
M  V30 6998 H 655.29 1.69106 -3.67675 0
M  V30 6999 H 652.045 -0.0280202 -4.73592 0
M  V30 7000 H 652.469 -1.99366 -6.46979 0
M  V30 7001 H 657.111 -0.151822 -4.22527 0
M  V30 7002 H 654.829 -3.2945 -7.37895 0
M  V30 7003 H 658.415 -1.79652 -5.53368 0
M  V30 7004 H 657.295 -3.34672 -7.092 0
M  V30 7005 N 654.798 1.5699 0.138552 0
M  V30 7006 C 656.075 1.74741 0.87891 0
M  V30 7007 C 656.455 0.705522 1.98961 0
M  V30 7008 O 655.803 -0.274066 2.2685 0
M  V30 7009 C 656.013 3.1909 1.4136 0
M  V30 7010 C 657.361 3.81023 1.87368 0
M  V30 7011 O 658.385 3.22571 1.51084 0
M  V30 7012 O 657.244 4.83722 2.54312 0
M  V30 7013 H 654.338 0.714781 0.415953 0
M  V30 7014 H 656.884 1.69248 0.123817 0
M  V30 7015 H 655.656 3.86424 0.61579 0
M  V30 7016 H 655.279 3.29043 2.23196 0
M  V30 7017 N 656.276 -0.40816 1.52223 0
M  V30 7018 C 657.522 -1.15673 1.66576 0
M  V30 7019 C 657.855 -1.90141 0.394996 0
M  V30 7020 O 657.13 -1.84798 -0.606613 0
M  V30 7021 C 657.413 -2.15042 2.88841 0
M  V30 7022 C 657.266 -1.44465 4.25969 0
M  V30 7023 C 658.585 -3.15699 3.0663 0
M  V30 7024 H 655.704 -0.41916 0.606196 0
M  V30 7025 H 658.346 -0.442348 1.84779 0
M  V30 7026 H 656.496 -2.75964 2.73452 0
M  V30 7027 H 658.168 -0.866544 4.53088 0
M  V30 7028 H 656.411 -0.746612 4.27327 0
M  V30 7029 H 657.082 -2.16976 5.07568 0
M  V30 7030 H 659.558 -2.64854 3.20923 0
M  V30 7031 H 658.434 -3.82491 3.9369 0
M  V30 7032 H 658.695 -3.83481 2.19987 0
M  V30 7033 N 657.755 -1.42862 -0.66545 0
M  V30 7034 C 658.705 -1.43521 -1.7716 0
M  V30 7035 C 659.689 -0.305267 -1.57978 0
M  V30 7036 O 660.881 -0.548176 -1.68297 0
M  V30 7037 C 658.01 -1.34914 -3.15679 0
M  V30 7038 C 657.096 -2.5289 -3.40452 0
M  V30 7039 N 657.487 -3.78284 -3.3576 0
M  V30 7040 C 655.785 -2.47351 -3.71124 0
M  V30 7041 C 656.486 -4.56701 -3.60276 0
M  V30 7042 N 655.462 -3.87249 -3.81496 0
M  V30 7043 H 659.264 -2.38357 -1.7194 0
M  V30 7044 H 656.778 -1.37342 -0.866653 0
M  V30 7045 H 658.775 -1.33468 -3.94958 0
M  V30 7046 H 657.435 -0.410881 -3.2209 0
M  V30 7047 H 658.446 -4.10746 -3.15448 0
M  V30 7048 H 655.123 -1.62152 -3.84725 0
M  V30 7049 H 656.513 -5.65704 -3.6253 0
M  V30 7050 N 659.233 0.902656 -1.29189 0
M  V30 7051 C 660.143 2.03946 -1.15944 0
M  V30 7052 C 661.159 1.738 -0.0833803 0
M  V30 7053 O 662.335 1.9923 -0.29487 0
M  V30 7054 C 659.4 3.36519 -0.834006 0
M  V30 7055 C 658.461 3.80203 -1.9936 0
M  V30 7056 C 657.694 5.06449 -1.68359 0
M  V30 7057 O 657.917 5.67202 -0.603141 0
M  V30 7058 O 656.851 5.46114 -2.53067 0
M  V30 7059 H 660.677 2.18043 -2.11403 0
M  V30 7060 H 658.262 1.02584 -1.08613 0
M  V30 7061 H 660.144 4.16089 -0.666949 0
M  V30 7062 H 658.819 3.23573 0.0908245 0
M  V30 7063 H 657.726 3.01413 -2.21588 0
M  V30 7064 H 659.059 3.97729 -2.89952 0
M  V30 7065 O 660.75 1.23723 1.03802 0
M  V30 7066 H 661.441 1.01035 1.65262 0
M  V30 END ATOM
M  V30 BEGIN BOND
M  V30 END BOND
M  V30 END CTAB
M  END
$$$$
