drugbank_target|Q13285 Steroidogenic factor 1 (DB04683; DB04752)
 OpenBabel12092120303D

  0  0  0     0  0            999 V3000
M  V30 BEGIN CTAB
M  V30 COUNTS 7266 7358 0 0 0
M  V30 BEGIN ATOM
M  V30 1 H -0.908 1.98254 -0.117106 0
M  V30 2 N 0 1.576 0 0
M  V30 3 C 0.933 2.03868 1.02534 0
M  V30 4 C 1.911 0.928543 1.3348 0
M  V30 5 O 3.095 1.19667 1.45644 0
M  V30 6 C 0.222 2.43627 2.35294 0
M  V30 7 C -0.732 3.65373 2.2001 0
M  V30 8 S 0.101 5.13292 1.52614 0
M  V30 9 C 1.257 5.56322 2.86805 0
M  V30 10 H 1.49 2.90518 0.631377 0
M  V30 11 H -0.977 1.52953 0.210867 0
M  V30 12 H 0.981 2.67203 3.11629 0
M  V30 13 H -0.358 1.57376 2.7183 0
M  V30 14 H -1.165 3.90944 3.18086 0
M  V30 15 H -1.563 3.418 1.51819 0
M  V30 16 H 0.729 5.58782 3.83104 0
M  V30 17 H 1.672 6.56266 2.65933 0
M  V30 18 H 2.08 4.83886 2.90714 0
M  V30 19 N 1.4781 -0.272755 1.55222 0
M  V30 20 C 2.7551 -1.02562 1.66555 0
M  V30 21 C 3.1351 -2.04282 0.532189 0
M  V30 22 O 2.4831 -2.23662 -0.467717 0
M  V30 23 C 2.6931 -1.6822 3.05782 0
M  V30 24 C 4.0411 -2.19373 3.63539 0
M  V30 25 O 5.0651 -1.78206 3.08417 0
M  V30 26 O 3.9241 -2.94883 4.60115 0
M  V30 27 H 1.0181 -0.475755 0.676451 0
M  V30 28 H 3.5641 -0.268593 1.67561 0
M  V30 29 H 2.3361 -0.945112 3.79715 0
M  V30 30 H 1.9591 -2.50609 3.08676 0
M  V30 31 N 2.9562 -1.48159 -0.537278 0
M  V30 32 C 4.1862 -1.59223 -1.3165 0
M  V30 33 C 4.5942 -0.248849 -1.87556 0
M  V30 34 O 3.9372 0.770949 -1.6674 0
M  V30 35 C 3.9992 -2.57365 -2.51005 0
M  V30 36 C 3.6632 -4.02603 -2.16239 0
M  V30 37 C 4.6602 -4.90503 -1.72344 0
M  V30 38 C 2.3452 -4.48088 -2.26986 0
M  V30 39 C 4.3392 -6.21913 -1.39651 0
M  V30 40 C 2.0262 -5.7952 -1.93906 0
M  V30 41 C 3.0242 -6.66255 -1.50309 0
M  V30 42 O 2.7122 -7.95243 -1.17659 0
M  V30 43 H 2.4442 -0.539831 -0.406889 0
M  V30 44 H 4.9982 -1.94655 -0.655641 0
M  V30 45 H 3.2282 -2.1704 -3.20048 0
M  V30 46 H 4.9172 -2.58342 -3.13072 0
M  V30 47 H 5.6832 -4.56604 -1.63517 0
M  V30 48 H 1.5622 -3.80769 -2.59877 0
M  V30 49 H 5.1062 -6.89569 -1.0555 0
M  V30 50 H 1.0032 -6.12957 -2.02371 0
M  V30 51 H 1.7712 -8.0793 -1.31119 0
M  V30 52 N 4.4343 0.785586 -1.36625 0
M  V30 53 C 5.6593 1.57963 -1.34397 0
M  V30 54 C 6.0843 1.87964 0.071526 0
M  V30 55 O 5.4423 1.48182 1.0446 0
M  V30 56 C 5.4903 2.87511 -2.17646 0
M  V30 57 O 4.5943 3.81281 -1.57158 0
M  V30 58 H 3.9353 0.479014 -0.459828 0
M  V30 59 H 6.4653 0.973411 -1.79961 0
M  V30 60 H 6.4753 3.36745 -2.30362 0
M  V30 61 H 5.1503 2.65002 -3.20541 0
M  V30 62 H 3.7273 3.39885 -1.53403 0
M  V30 63 N 5.9124 1.20967 1.01018 0
M  V30 64 C 7.1424 1.04803 1.78044 0
M  V30 65 C 7.5504 -0.405462 1.84804 0
M  V30 66 O 6.8934 -1.2932 1.30468 0
M  V30 67 C 6.9554 1.56377 3.23707 0
M  V30 68 C 6.6194 3.04767 3.40538 0
M  V30 69 C 7.6164 4.02366 3.29239 0
M  V30 70 C 5.3014 3.43862 3.66147 0
M  V30 71 C 7.2954 5.37049 3.43304 0
M  V30 72 C 4.9824 4.78699 3.79855 0
M  V30 73 C 5.9804 5.75101 3.68439 0
M  V30 74 O 5.6684 7.07493 3.81719 0
M  V30 75 H 5.4004 0.368778 0.56655 0
M  V30 76 H 7.9544 1.60642 1.27997 0
M  V30 77 H 6.1844 0.949297 3.74867 0
M  V30 78 H 7.8734 1.36136 3.8239 0
M  V30 79 H 8.6394 3.73506 3.09384 0
M  V30 80 H 4.5184 2.69364 3.74118 0
M  V30 81 H 8.0624 6.12277 3.34309 0
M  V30 82 H 3.9594 5.07247 3.99213 0
M  V30 83 H 4.7274 7.1483 3.98697 0
M  V30 84 N 7.3905 -1.2043 1.01659 0
M  V30 85 C 8.6675 -1.8548 0.621004 0
M  V30 86 C 9.0475 -1.9091 -0.900919 0
M  V30 87 O 8.3955 -1.41694 -1.79263 0
M  V30 88 C 8.6055 -3.25119 1.2688 0
M  V30 89 C 9.9535 -4.01403 1.38423 0
M  V30 90 O 10.9775 -3.34473 1.22501 0
M  V30 91 O 9.8365 -5.21265 1.64151 0
M  V30 92 H 6.9305 -0.798761 0.214266 0
M  V30 93 H 9.4765 -1.28019 1.11396 0
M  V30 94 H 8.2485 -3.15932 2.30873 0
M  V30 95 H 7.8715 -3.90212 0.762917 0
M  V30 96 N 8.8686 -0.792821 -1.36206 0
M  V30 97 C 9.7786 -0.194808 -2.3379 0
M  V30 98 C 10.7946 0.654869 -1.61206 0
M  V30 99 O 11.9706 0.569856 -1.9317 0
M  V30 100 C 9.0356 0.657721 -3.40404 0
M  V30 101 C 8.0966 -0.210849 -4.28782 0
M  V30 102 C 7.3296 0.601086 -5.30304 0
M  V30 103 O 7.5526 1.83682 -5.40016 0
M  V30 104 O 6.4866 -0.000808277 -6.019 0
M  V30 105 H 10.3126 -1.00172 -2.86704 0
M  V30 106 H 7.8976 -0.554341 -1.38735 0
M  V30 107 H 9.7796 1.14375 -4.05581 0
M  V30 108 H 8.4546 1.44247 -2.89784 0
M  V30 109 H 7.3616 -0.743714 -3.66633 0
M  V30 110 H 8.6946 -0.959195 -4.82763 0
M  V30 111 N 10.3467 1.47872 -0.545128 0
M  V30 112 C 11.6237 1.9554 0.0485222 0
M  V30 113 C 12.0037 1.4876 1.49779 0
M  V30 114 O 11.3517 0.720925 2.16829 0
M  V30 115 C 11.5617 3.48898 -0.084417 0
M  V30 116 C 12.9097 4.24547 0.0671239 0
M  V30 117 O 13.9337 3.56198 -0.0113649 0
M  V30 118 O 12.7927 5.45999 0.233882 0
M  V30 119 H 9.8867 0.823957 0.0708773 0
M  V30 120 H 12.4327 1.58327 -0.610798 0
M  V30 121 H 11.2047 3.75714 -1.09337 0
M  V30 122 H 10.8277 3.92845 0.613066 0
M  V30 123 N 11.8248 0.280983 1.55075 0
M  V30 124 C 12.7548 -0.597469 2.25727 0
M  V30 125 C 13.7358 -1.15417 1.24952 0
M  V30 126 O 14.9208 -1.18722 1.53684 0
M  V30 127 C 12.0508 -1.7789 2.98283 0
M  V30 128 C 11.0048 -1.35347 4.06036 0
M  V30 129 C 10.3308 -2.61846 4.66198 0
M  V30 130 C 11.6308 -0.499354 5.19907 0
M  V30 131 H 13.3248 -0.00824265 2.99399 0
M  V30 132 H 10.8708 -0.0025244 1.44 0
M  V30 133 H 12.8238 -2.39937 3.46422 0
M  V30 134 H 11.5478 -2.39405 2.22155 0
M  V30 135 H 10.2068 -0.756156 3.58717 0
M  V30 136 H 9.8548 -3.21632 3.86732 0
M  V30 137 H 9.5548 -2.3409 5.38958 0
M  V30 138 H 11.0788 -3.24732 5.1709 0
M  V30 139 H 12.4928 -1.02498 5.64063 0
M  V30 140 H 10.8898 -0.316424 5.99265 0
M  V30 141 H 11.9598 0.480459 4.82514 0
M  V30 142 N 13.3029 -1.57598 0.00835791 0
M  V30 143 C 14.5799 -1.82172 -0.712235 0
M  V30 144 C 14.9599 -0.887873 -1.9152 0
M  V30 145 O 14.3079 0.06146 -2.28417 0
M  V30 146 C 14.5179 -3.30875 -1.11008 0
M  V30 147 C 15.8659 -3.96826 -1.51044 0
M  V30 148 O 16.8899 -3.35248 -1.20364 0
M  V30 149 O 15.7489 -5.05318 -2.08125 0
M  V30 150 H 12.8429 -0.750435 -0.347529 0
M  V30 151 H 15.3889 -1.69665 0.0344523 0
M  V30 152 H 14.1609 -3.90481 -0.252982 0
M  V30 153 H 13.7839 -3.48412 -1.9156 0
M  V30 154 N 14.781 0.264519 -1.55364 0
M  V30 155 C 15.691 1.34902 -1.91934 0
M  V30 156 C 16.707 1.53595 -0.817593 0
M  V30 157 O 17.883 1.67558 -1.11742 0
M  V30 158 C 14.948 2.68676 -2.19121 0
M  V30 159 C 14.009 2.58657 -3.4263 0
M  V30 160 C 13.242 3.86051 -3.68511 0
M  V30 161 O 13.465 4.87126 -2.96757 0
M  V30 162 O 12.399 3.85744 -4.62045 0
M  V30 163 H 16.225 1.06883 -2.8427 0
M  V30 164 H 13.81 0.463775 -1.42019 0
M  V30 165 H 15.692 3.47759 -2.37995 0
M  V30 166 H 14.367 2.96463 -1.29966 0
M  V30 167 H 13.274 1.7792 -3.29082 0
M  V30 168 H 14.607 2.35818 -4.32031 0
M  V30 169 N 16.2591 1.48442 0.529413 0
M  V30 170 C 17.1891 1.65902 1.64313 0
M  V30 171 C 18.1701 0.507897 1.6234 0
M  V30 172 O 19.3551 0.740503 1.79528 0
M  V30 173 C 16.4851 1.69911 3.02898 0
M  V30 174 C 15.4391 2.8453 3.19729 0
M  V30 175 C 14.7651 2.73629 4.59381 0
M  V30 176 C 16.0651 4.25821 3.02447 0
M  V30 177 H 17.7591 2.5914 1.49955 0
M  V30 178 H 15.3051 1.24709 0.719982 0
M  V30 179 H 17.2581 1.80715 3.80684 0
M  V30 180 H 15.9821 0.732524 3.18279 0
M  V30 181 H 14.6411 2.73283 2.44361 0
M  V30 182 H 14.2891 1.74938 4.71599 0
M  V30 183 H 13.9891 3.50541 4.71588 0
M  V30 184 H 15.5131 2.86401 5.39265 0
M  V30 185 H 16.9271 4.37898 3.70024 0
M  V30 186 H 15.3241 5.03735 3.26146 0
M  V30 187 H 16.3941 4.42244 1.98867 0
M  V30 188 N 17.7372 -0.778329 1.37039 0
M  V30 189 C 18.9772 -1.54973 1.33276 0
M  V30 190 C 19.3412 -1.91816 -0.0839376 0
M  V30 191 O 20.5422 -2.6767 -0.246228 0
M  V30 192 C 18.8132 -2.78517 2.23971 0
M  V30 193 S 20.3722 -3.6865 2.37997 0
M  V30 194 H 17.1902 -0.530639 0.473226 0
M  V30 195 H 19.7922 -0.915806 1.72723 0
M  V30 196 H 18.4962 -2.4952 3.25835 0
M  V30 197 H 18.0272 -3.46875 1.85584 0
M  V30 198 H 20.0422 -4.70182 1.58567 0
M  V30 199 N 19.2153 -1.21501 -1.00376 0
M  V30 200 C 20.6263 -1.03146 -1.55621 0
M  V30 201 C 20.9773 0.408375 -1.91903 0
M  V30 202 O 20.1023 1.29177 -1.73616 0
M  V30 203 C 20.6973 -1.86612 -2.82775 0
M  V30 204 C 19.2563 -1.72586 -3.34501 0
M  V30 205 C 18.4033 -1.83747 -2.07683 0
M  V30 206 H 21.3543 -1.35505 -0.826081 0
M  V30 207 H 21.3753 -1.3771 -3.54706 0
M  V30 208 H 20.8873 -2.91399 -2.56336 0
M  V30 209 H 18.9883 -0.704877 -3.65872 0
M  V30 210 H 19.1013 -2.54623 -4.05837 0
M  V30 211 H 17.4653 -1.27069 -2.20739 0
M  V30 212 H 18.2483 -2.90044 -1.83655 0
M  V30 213 N 20.6934 1.19889 -1.02296 0
M  V30 214 C 21.9394 1.89701 -0.717033 0
M  V30 215 C 22.2724 1.7905 0.751989 0
M  V30 216 O 21.5474 1.17891 1.547 0
M  V30 217 C 21.8304 3.40858 -1.16136 0
M  V30 218 C 21.6834 3.60411 -2.69117 0
M  V30 219 C 23.0024 4.33876 -0.737549 0
M  V30 220 H 20.1214 0.688874 -0.261957 0
M  V30 221 H 22.7634 1.41154 -1.27183 0
M  V30 222 H 20.9134 3.82335 -0.689342 0
M  V30 223 H 22.5854 3.28145 -3.2422 0
M  V30 224 H 20.8284 3.03665 -3.0979 0
M  V30 225 H 21.4994 4.66396 -2.95261 0
M  V30 226 H 23.9754 4.00081 -1.14344 0
M  V30 227 H 22.8514 5.38242 -1.0764 0
M  V30 228 H 23.1124 4.40628 0.360436 0
M  V30 229 N 22.1715 0.800033 1.35784 0
M  V30 230 C 23.4115 0.382891 2.00782 0
M  V30 231 C 23.7755 -1.02891 1.62103 0
M  V30 232 O 24.9765 -1.54771 2.19771 0
M  V30 233 C 23.2475 0.553299 3.53091 0
M  V30 234 S 24.8065 0.225608 4.3822 0
M  V30 235 H 21.6245 0.145737 0.695904 0
M  V30 236 H 24.2265 1.04085 1.65489 0
M  V30 237 H 22.9305 1.58091 3.78729 0
M  V30 238 H 22.4615 -0.120214 3.93216 0
M  V30 239 H 24.4765 -0.969074 4.86645 0
M  V30 240 N 23.6496 -1.47581 0.552962 0
M  V30 241 C 24.8976 -2.02082 0.0272703 0
M  V30 242 C 25.2186 -1.4301 -1.32563 0
M  V30 243 O 24.4886 -0.603745 -1.86365 0
M  V30 244 H 23.0686 -0.746966 0.00709182 0
M  V30 245 H 25.7306 -1.81033 0.722008 0
M  V30 246 H 24.8266 -3.12034 -0.0639951 0
M  V30 247 N 25.1277 -0.289203 -1.54924 0
M  V30 248 C 26.4047 0.376032 -1.91951 0
M  V30 249 C 26.7847 1.72622 -1.21511 0
M  V30 250 O 26.1327 2.25853 -0.346767 0
M  V30 251 C 26.3427 0.502378 -3.45365 0
M  V30 252 C 27.6907 0.778741 -4.17398 0
M  V30 253 O 28.7147 0.586647 -3.51336 0
M  V30 254 O 27.5737 1.14698 -5.34328 0
M  V30 255 H 24.6677 0.208167 -0.800372 0
M  V30 256 H 27.2137 -0.336394 -1.66332 0
M  V30 257 H 25.9857 -0.447255 -3.88736 0
M  V30 258 H 25.6087 1.26373 -3.76982 0
M  V30 259 N 26.6058 1.57591 -0.0167156 0
M  V30 260 C 27.5528 2.09462 0.969251 0
M  V30 261 C 28.5228 0.99381 1.33089 0
M  V30 262 O 29.7078 1.26726 1.42636 0
M  V30 263 C 26.8478 2.61622 2.25051 0
M  V30 264 C 25.9608 3.85666 1.94642 0
M  V30 265 C 25.0958 4.26266 3.16972 0
M  V30 266 C 24.1348 5.43101 2.82326 0
M  V30 267 N 23.2718 5.78915 3.97243 0
M  V30 268 H 28.1118 2.93428 0.519997 0
M  V30 269 H 25.6488 1.45044 0.245087 0
M  V30 270 H 27.6068 2.89949 2.99976 0
M  V30 271 H 26.2368 1.80505 2.67615 0
M  V30 272 H 25.2888 3.64145 1.10013 0
M  V30 273 H 26.6008 4.70678 1.65117 0
M  V30 274 H 25.7548 4.55963 4.00228 0
M  V30 275 H 24.4938 3.39996 3.49648 0
M  V30 276 H 23.4988 5.1311 1.97479 0
M  V30 277 H 24.7238 6.3106 2.50879 0
M  V30 278 H 22.6698 4.95602 4.29785 0
M  V30 279 H 22.5868 6.58539 3.71299 0
M  V30 280 H 23.8548 6.13212 4.81239 0
M  V30 281 N 28.0839 -0.256276 1.55502 0
M  V30 282 C 29.3299 -0.987079 1.77157 0
M  V30 283 C 29.6629 -1.85327 0.580315 0
M  V30 284 O 28.9379 -1.89874 -0.421686 0
M  V30 285 C 29.2209 -1.85553 3.08613 0
M  V30 286 C 29.0739 -1.01816 4.38125 0
M  V30 287 C 30.3929 -2.8397 3.36228 0
M  V30 288 H 27.5119 -0.357428 0.644526 0
M  V30 289 H 30.1539 -0.258239 1.88237 0
M  V30 290 H 28.3039 -2.47695 2.99298 0
M  V30 291 H 29.9759 -0.416159 4.59419 0
M  V30 292 H 28.2189 -0.322178 4.32602 0
M  V30 293 H 28.8899 -1.65939 5.26468 0
M  V30 294 H 31.3659 -2.31964 3.45445 0
M  V30 295 H 30.2419 -3.41864 4.29442 0
M  V30 296 H 30.5029 -3.59955 2.56681 0
M  V30 297 N 29.562 -1.4872 -0.521534 0
M  V30 298 C 30.787 -1.61101 -1.30618 0
M  V30 299 C 31.212 -0.274611 -1.86085 0
M  V30 300 O 30.57 0.754937 -1.64834 0
M  V30 301 C 30.618 -2.66709 -2.4269 0
M  V30 302 O 29.722 -2.24456 -3.45967 0
M  V30 303 H 29.063 -0.539921 -0.386499 0
M  V30 304 H 31.593 -1.94767 -0.626645 0
M  V30 305 H 31.603 -2.88245 -2.88754 0
M  V30 306 H 30.278 -3.63727 -2.01682 0
M  V30 307 H 28.855 -2.13168 -3.05964 0
M  V30 308 N 31.0401 0.771051 -1.3745 0
M  V30 309 C 32.2881 1.52661 -1.32435 0
M  V30 310 C 32.6091 1.9479 0.0905024 0
M  V30 311 O 31.8791 1.66348 1.03466 0
M  V30 312 H 30.4591 0.566218 -0.487244 0
M  V30 313 H 33.1211 0.917636 -1.71946 0
M  V30 314 H 32.2171 2.42568 -1.96385 0
M  V30 315 N 32.5182 1.22032 0.997298 0
M  V30 316 C 33.7482 1.06686 1.76923 0
M  V30 317 C 34.1562 -0.385838 1.85224 0
M  V30 318 O 33.4992 -1.27929 1.31833 0
M  V30 319 C 33.5612 1.59802 3.22031 0
M  V30 320 C 33.2252 3.08362 3.37286 0
M  V30 321 C 34.2222 4.05835 3.24952 0
M  V30 322 C 31.9072 3.47727 3.6248 0
M  V30 323 C 33.9012 5.4066 3.37588 0
M  V30 324 C 31.5882 4.82701 3.74757 0
M  V30 325 C 32.5862 5.78977 3.62319 0
M  V30 326 O 32.2742 7.11502 3.74193 0
M  V30 327 H 32.0062 0.374767 0.562606 0
M  V30 328 H 34.5602 1.61991 1.26286 0
M  V30 329 H 32.7902 0.989003 3.73839 0
M  V30 330 H 34.4792 1.40184 3.80924 0
M  V30 331 H 35.2452 3.76766 3.05405 0
M  V30 332 H 31.1242 2.73317 3.7124 0
M  V30 333 H 34.6682 6.15788 3.27796 0
M  V30 334 H 30.5652 5.11453 3.9381 0
M  V30 335 H 31.3332 7.19019 3.91093 0
M  V30 336 N 33.9963 -1.19345 1.0293 0
M  V30 337 C 34.9463 -2.20472 0.58104 0
M  V30 338 C 35.9303 -1.56578 -0.370442 0
M  V30 339 O 37.1223 -1.75963 -0.191344 0
M  V30 340 C 34.2513 -3.43236 -0.066306 0
M  V30 341 C 33.3373 -4.14274 0.907642 0
M  V30 342 N 33.7283 -4.61492 2.07023 0
M  V30 343 C 32.0263 -4.39966 0.731177 0
M  V30 344 C 32.7273 -5.1605 2.68454 0
M  V30 345 N 31.7033 -5.06875 1.96414 0
M  V30 346 H 35.5053 -2.54659 1.46717 0
M  V30 347 H 33.0193 -1.35423 0.896345 0
M  V30 348 H 35.0163 -4.14927 -0.405068 0
M  V30 349 H 33.6763 -3.10549 -0.948118 0
M  V30 350 H 34.6873 -4.56304 2.44963 0
M  V30 351 H 31.3643 -4.17377 -0.101507 0
M  V30 352 H 32.7543 -5.6287 3.66915 0
M  V30 353 N 35.4744 -0.807222 -1.35358 0
M  V30 354 C 36.7044 -0.399796 -2.02695 0
M  V30 355 C 37.1124 0.994176 -1.60974 0
M  V30 356 O 36.4554 1.65209 -0.803226 0
M  V30 357 C 36.5174 -0.404445 -3.57218 0
M  V30 358 C 36.1814 -1.74904 -4.22206 0
M  V30 359 C 37.1784 -2.70743 -4.4384 0
M  V30 360 C 34.8634 -2.03322 -4.5931 0
M  V30 361 C 36.8574 -3.93183 -5.01683 0
M  V30 362 C 34.5444 -3.26026 -5.16866 0
M  V30 363 C 35.5424 -4.20774 -5.37994 0
M  V30 364 O 35.2304 -5.41312 -5.94337 0
M  V30 365 H 34.9624 -0.160517 -0.656666 0
M  V30 366 H 37.5164 -1.09235 -1.73945 0
M  V30 367 H 35.7464 0.344707 -3.85161 0
M  V30 368 H 37.4354 -0.0192429 -4.05895 0
M  V30 369 H 38.2014 -2.5008 -4.15554 0
M  V30 370 H 34.0804 -1.30384 -4.42178 0
M  V30 371 H 37.6244 -4.6715 -5.1809 0
M  V30 372 H 33.5214 -3.46559 -5.44579 0
M  V30 373 H 34.2894 -5.42618 -6.12787 0
M  V30 374 N 36.9525 1.47285 -0.560781 0
M  V30 375 C 38.2005 2.02064 -0.0379868 0
M  V30 376 C 38.5215 1.43711 1.31803 0
M  V30 377 O 37.7915 0.61362 1.86042 0
M  V30 378 H 36.3715 0.746918 -0.0110531 0
M  V30 379 H 39.0335 1.80648 -0.731598 0
M  V30 380 H 38.1295 3.12064 0.0474463 0
M  V30 381 N 38.4306 0.297415 1.54768 0
M  V30 382 C 39.3606 -0.573494 2.26348 0
M  V30 383 C 40.3416 -1.14085 1.26169 0
M  V30 384 O 41.5266 -1.17086 1.54934 0
M  V30 385 C 38.6566 -1.74716 3.00153 0
M  V30 386 C 37.6106 -1.31032 4.07449 0
M  V30 387 C 36.9366 -2.56887 4.68949 0
M  V30 388 C 38.2366 -0.444183 5.20408 0
M  V30 389 H 39.9306 0.0235131 2.99391 0
M  V30 390 H 37.4766 0.0127488 1.43994 0
M  V30 391 H 39.4296 -2.3625 3.48947 0
M  V30 392 H 38.1536 -2.37035 2.24682 0
M  V30 393 H 36.8126 -0.718066 3.59499 0
M  V30 394 H 36.4606 -3.17512 3.90122 0
M  V30 395 H 36.1606 -2.2836 5.41411 0
M  V30 396 H 37.6846 -3.19229 5.20505 0
M  V30 397 H 39.0986 -0.9651 5.65118 0
M  V30 398 H 37.4956 -0.252846 5.99567 0
M  V30 399 H 38.5656 0.531609 4.81977 0
M  V30 400 N 39.9087 -1.5758 0.0250728 0
M  V30 401 C 40.8387 -2.13007 -0.956575 0
M  V30 402 C 41.8197 -1.0452 -1.342 0
M  V30 403 O 43.0047 -1.32332 -1.42133 0
M  V30 404 C 40.1347 -2.65386 -2.24026 0
M  V30 405 C 39.0887 -3.78623 -1.99571 0
M  V30 406 C 38.4147 -4.17414 -3.3417 0
M  V30 407 C 39.7147 -5.04867 -1.33814 0
M  V30 408 H 41.4087 -2.9528 -0.494991 0
M  V30 409 H 38.9547 -1.42042 -0.236651 0
M  V30 410 H 40.9077 -3.02794 -2.93076 0
M  V30 411 H 39.6317 -1.80268 -2.72343 0
M  V30 412 H 38.2907 -3.41646 -1.32941 0
M  V30 413 H 37.9387 -3.29284 -3.80238 0
M  V30 414 H 37.6387 -4.93719 -3.18615 0
M  V30 415 H 39.1627 -4.57402 -4.04495 0
M  V30 416 H 40.5767 -5.39888 -1.92857 0
M  V30 417 H 38.9737 -5.86144 -1.28669 0
M  V30 418 H 40.0437 -4.83904 -0.310561 0
M  V30 419 N 41.3868 0.248026 -1.55636 0
M  V30 420 C 42.6148 0.993808 -1.81469 0
M  V30 421 C 43.0298 1.78991 -0.60064 0
M  V30 422 O 42.3868 1.77345 0.430682 0
M  V30 423 C 42.4378 1.93258 -3.05506 0
M  V30 424 O 42.1588 1.16869 -4.22224 0
M  V30 425 C 43.6598 2.79444 -3.4413 0
M  V30 426 H 40.8798 0.292486 -0.603898 0
M  V30 427 H 43.4238 0.271253 -2.02693 0
M  V30 428 H 41.5788 2.60943 -2.86335 0
M  V30 429 H 41.9928 1.80359 -4.92515 0
M  V30 430 H 43.4668 3.41066 -4.34026 0
M  V30 431 H 43.9438 3.50499 -2.64665 0
M  V30 432 H 44.5498 2.17214 -3.65648 0
M  V30 433 N 42.8649 1.48995 0.513639 0
M  V30 434 C 44.1049 1.59452 1.27885 0
M  V30 435 C 44.4689 0.269479 1.90099 0
M  V30 436 O 45.6699 0.249139 2.67643 0
M  V30 437 C 43.9409 2.71277 2.32688 0
M  V30 438 S 45.4999 3.01604 3.18717 0
M  V30 439 H 42.3179 0.562565 0.434789 0
M  V30 440 H 44.9199 1.86595 0.583301 0
M  V30 441 H 43.6239 3.66089 1.8549 0
M  V30 442 H 43.1549 2.46086 3.06929 0
M  V30 443 H 45.1699 2.42155 4.331 0
M  V30 444 N 44.343 -0.763751 1.37857 0
M  V30 445 C 45.253 -1.90817 1.36478 0
M  V30 446 C 46.269 -1.71997 0.263248 0
M  V30 447 O 47.445 -1.95095 0.499979 0
M  V30 448 C 44.51 -3.2605 1.17864 0
M  V30 449 C 43.571 -3.57467 2.3773 0
M  V30 450 C 42.804 -4.86249 2.19995 0
M  V30 451 O 43.027 -5.57884 1.18836 0
M  V30 452 O 41.961 -5.16911 3.08361 0
M  V30 453 H 45.787 -1.94933 2.32884 0
M  V30 454 H 43.372 -0.907619 1.1867 0
M  V30 455 H 45.254 -4.06924 1.09504 0
M  V30 456 H 43.929 -3.22769 0.245372 0
M  V30 457 H 42.836 -2.76796 2.51664 0
M  V30 458 H 44.169 -3.655 3.29652 0
M  V30 459 N 45.8211 -1.22559 -0.990812 0
M  V30 460 C 47.0461 -1.07862 -1.77145 0
M  V30 461 C 47.4711 0.366447 -1.84496 0
M  V30 462 O 46.8291 1.26478 -1.29896 0
M  V30 463 C 46.8771 -1.69686 -3.18181 0
M  V30 464 O 45.9811 -0.951946 -4.01263 0
M  V30 465 H 45.3221 -0.378712 -0.545411 0
M  V30 466 H 47.8521 -1.62399 -1.2445 0
M  V30 467 H 47.8621 -1.74496 -3.68802 0
M  V30 468 H 46.5371 -2.74841 -3.12146 0
M  V30 469 H 45.1141 -0.980011 -3.59792 0
M  V30 470 N 47.2992 1.18797 -1.03562 0
M  V30 471 C 48.5392 1.90346 -0.744832 0
M  V30 472 C 48.9032 1.78231 0.713972 0
M  V30 473 O 50.1042 2.44441 1.11813 0
M  V30 474 C 48.3752 3.36942 -1.19184 0
M  V30 475 S 49.9342 4.26638 -1.02593 0
M  V30 476 H 46.7522 0.657343 -0.270963 0
M  V30 477 H 49.3542 1.43579 -1.32685 0
M  V30 478 H 48.0582 3.43287 -2.24905 0
M  V30 479 H 47.5892 3.88745 -0.603397 0
M  V30 480 H 49.6042 4.96164 0.0596033 0
M  V30 481 N 48.7773 0.814389 1.34928 0
M  V30 482 C 49.7243 0.22822 2.29669 0
M  V30 483 C 50.6943 -0.642164 1.53184 0
M  V30 484 O 51.8793 -0.585605 1.81591 0
M  V30 485 C 49.0193 -0.61089 3.3965 0
M  V30 486 C 48.1323 0.280792 4.31086 0
M  V30 487 C 47.2673 -0.567067 5.28165 0
M  V30 488 C 46.3063 0.324531 6.11239 0
M  V30 489 N 45.4433 -0.483756 7.00431 0
M  V30 490 H 50.2833 1.04153 2.79206 0
M  V30 491 H 47.8203 0.525133 1.37407 0
M  V30 492 H 49.7783 -1.11263 4.0209 0
M  V30 493 H 48.4083 -1.38939 2.91369 0
M  V30 494 H 47.4603 0.900688 3.69583 0
M  V30 495 H 48.7723 0.966723 4.89342 0
M  V30 496 H 47.9263 -1.13363 5.96015 0
M  V30 497 H 46.6653 -1.28654 4.70425 0
M  V30 498 H 45.6703 0.903298 5.42329 0
M  V30 499 H 46.8953 1.04198 6.71059 0
M  V30 500 H 44.8413 -1.18706 6.45171 0
M  V30 501 H 44.7583 0.143965 7.55863 0
M  V30 502 H 46.0263 -1.03334 7.7262 0
M  V30 503 N 50.2554 -1.46986 0.568584 0
M  V30 504 C 51.5034 -2.02041 0.0487022 0
M  V30 505 C 51.8244 -1.44408 -1.31039 0
M  V30 506 O 51.0944 -0.623477 -1.85714 0
M  V30 507 H 49.6744 -0.746849 0.015014 0
M  V30 508 H 52.3364 -1.80257 0.741168 0
M  V30 509 H 51.4324 -3.12085 -0.0308961 0
M  V30 510 N 51.7335 -0.305618 -1.54608 0
M  V30 511 C 52.9805 0.302298 -2.00231 0
M  V30 512 C 53.3085 1.5354 -1.19398 0
M  V30 513 O 52.5635 1.93973 -0.259423 0
M  V30 514 C 52.8625 0.698983 -3.50498 0
M  V30 515 C 52.5285 -0.432903 -4.48817 0
M  V30 516 C 51.1905 -0.743622 -4.75419 0
M  V30 517 C 53.5425 -1.19409 -5.07337 0
M  V30 518 C 50.8705 -1.81857 -5.57804 0
M  V30 519 C 53.2225 -2.25899 -5.90891 0
M  V30 520 C 51.8865 -2.57572 -6.15803 0
M  V30 521 H 51.1565 0.110619 -0.732697 0
M  V30 522 H 53.8035 -0.425674 -1.86709 0
M  V30 523 H 52.1085 1.50711 -3.61654 0
M  V30 524 H 53.8055 1.1806 -3.83227 0
M  V30 525 H 50.3955 -0.18063 -4.28219 0
M  V30 526 H 54.5795 -0.967295 -4.86782 0
M  V30 527 H 49.8355 -2.06864 -5.75341 0
M  V30 528 H 54.0095 -2.85335 -6.35261 0
M  V30 529 H 51.6365 -3.40998 -6.7943 0
M  V30 530 N 53.2116 1.57565 -0.0334293 0
M  V30 531 C 54.4586 1.91978 0.644272 0
M  V30 532 C 54.7866 0.910231 1.71887 0
M  V30 533 O 54.0416 -0.0801961 1.95536 0
M  V30 534 C 54.3406 3.33112 1.29504 0
M  V30 535 C 54.0066 4.49537 0.350388 0
M  V30 536 C 52.6686 4.81115 0.0903974 0
M  V30 537 C 55.0206 5.20347 -0.298032 0
M  V30 538 C 52.3486 5.8086 -0.825746 0
M  V30 539 C 54.7006 6.2107 -1.20226 0
M  V30 540 C 53.3646 6.51088 -1.4711 0
M  V30 541 H 52.6346 0.702496 0.235756 0
M  V30 542 H 55.2816 1.91259 -0.0961176 0
M  V30 543 H 53.5866 3.30113 2.11028 0
M  V30 544 H 55.2836 3.57011 1.82603 0
M  V30 545 H 51.8736 4.24883 0.563205 0
M  V30 546 H 56.0576 4.96178 -0.110234 0
M  V30 547 H 51.3136 6.02461 -1.04169 0
M  V30 548 H 55.4876 6.75057 -1.71086 0
M  V30 549 H 53.1146 7.28193 -2.18264 0
M  V30 550 N 54.6897 -0.239769 1.55765 0
M  V30 551 C 55.6367 -1.29696 1.90913 0
M  V30 552 C 56.6067 -1.47478 0.764164 0
M  V30 553 O 57.7917 -1.61345 1.01845 0
M  V30 554 C 54.9317 -2.64598 2.21544 0
M  V30 555 C 54.0447 -2.54765 3.48882 0
M  V30 556 C 53.1797 -3.82069 3.69049 0
M  V30 557 C 52.2187 -3.66883 4.89963 0
M  V30 558 N 51.3557 -4.86094 5.06614 0
M  V30 559 H 56.1957 -0.990224 2.81067 0
M  V30 560 H 53.7327 -0.477684 1.39128 0
M  V30 561 H 55.6907 -3.43132 2.3731 0
M  V30 562 H 54.3207 -2.93405 1.34585 0
M  V30 563 H 53.3727 -1.67763 3.41409 0
M  V30 564 H 54.6847 -2.39457 4.37563 0
M  V30 565 H 53.8387 -4.69046 3.84812 0
M  V30 566 H 52.5777 -4.00282 2.78614 0
M  V30 567 H 51.5827 -2.78289 4.74168 0
M  V30 568 H 52.8077 -3.50157 5.81865 0
M  V30 569 H 50.7537 -5.04655 4.19117 0
M  V30 570 H 50.6707 -4.73443 5.89396 0
M  V30 571 H 51.9387 -5.74549 5.26795 0
M  V30 572 N 56.1678 -1.49265 -0.50573 0
M  V30 573 C 57.5838 -1.35923 -0.836486 0
M  V30 574 C 57.7838 -0.388704 -1.97715 0
M  V30 575 O 56.8398 0.181336 -2.51848 0
M  V30 576 C 58.1528 -2.76531 -1.18115 0
M  V30 577 C 59.7008 -2.85197 -1.28964 0
M  V30 578 C 60.1758 -4.26561 -1.66761 0
M  V30 579 N 61.6668 -4.2935 -1.73819 0
M  V30 580 C 62.4018 -5.35693 -2.045 0
M  V30 581 N 61.8978 -6.52287 -2.33438 0
M  V30 582 N 63.6908 -5.23105 -2.05711 0
M  V30 583 H 55.8418 -2.10965 0.246519 0
M  V30 584 H 58.1048 -0.9468 0.0476887 0
M  V30 585 H 57.8108 -3.49226 -0.416398 0
M  V30 586 H 57.6848 -3.11599 -2.1257 0
M  V30 587 H 60.0718 -2.12742 -2.04511 0
M  V30 588 H 60.1528 -2.53718 -0.325704 0
M  V30 589 H 59.7968 -4.99541 -0.917656 0
M  V30 590 H 59.7268 -4.55502 -2.64246 0
M  V30 591 H 62.2178 -3.4526 -1.53635 0
M  V30 592 H 62.5308 -7.29158 -2.56024 0
M  V30 593 H 60.8758 -6.55521 -2.30905 0
M  V30 594 H 64.0668 -4.31026 -1.82577 0
M  V30 595 H 64.2398 -6.06078 -2.29289 0
M  V30 596 N 57.6459 0.756429 -1.3826 0
M  V30 597 C 58.8739 1.54565 -1.3754 0
M  V30 598 C 59.2889 1.88767 0.0355331 0
M  V30 599 O 58.6459 1.52572 1.0014 0
M  V30 600 C 58.6969 2.84654 -2.22833 0
M  V30 601 O 58.4179 2.51912 -3.5843 0
M  V30 602 C 59.9189 3.78807 -2.30261 0
M  V30 603 H 57.1389 0.478353 -0.470553 0
M  V30 604 H 59.6829 0.936381 -1.81803 0
M  V30 605 H 57.8379 3.41965 -1.8204 0
M  V30 606 H 58.2519 3.35325 -4.03308 0
M  V30 607 H 59.7259 4.67045 -2.94233 0
M  V30 608 H 60.2029 4.19038 -1.31545 0
M  V30 609 H 60.8089 3.2742 -2.71433 0
M  V30 610 N 59.124 1.23083 0.984299 0
M  V30 611 C 60.37 1.06214 1.72761 0
M  V30 612 C 60.703 -0.400584 1.90024 0
M  V30 613 O 59.978 -1.29672 1.44967 0
M  V30 614 C 60.261 1.78375 3.12817 0
M  V30 615 C 60.114 3.32296 3.03149 0
M  V30 616 C 61.433 1.54309 4.12161 0
M  V30 617 H 58.552 0.387251 0.627061 0
M  V30 618 H 61.194 1.51536 1.14616 0
M  V30 619 H 59.344 1.39848 3.62457 0
M  V30 620 H 61.016 3.8032 2.61064 0
M  V30 621 H 59.259 3.6153 2.39747 0
M  V30 622 H 59.93 3.77972 4.02295 0
M  V30 623 H 62.406 1.87791 3.71314 0
M  V30 624 H 61.282 2.07281 5.08258 0
M  V30 625 H 61.543 0.477572 4.39513 0
M  V30 626 N 60.6021 -1.18246 1.0419 0
M  V30 627 C 61.5341 -2.2142 0.592088 0
M  V30 628 C 62.5471 -1.59233 -0.338909 0
M  V30 629 O 63.7361 -1.78002 -0.133231 0
M  V30 630 C 60.8361 -3.38546 -0.154854 0
M  V30 631 C 60.0091 -4.3031 0.784328 0
M  V30 632 C 59.0681 -5.26138 0.0804583 0
M  V30 633 O 58.0941 -5.64738 0.711292 0
M  V30 634 N 59.2961 -5.68261 -1.18574 0
M  V30 635 H 62.0611 -2.60636 1.47949 0
M  V30 636 H 59.6221 -1.33044 0.922544 0
M  V30 637 H 61.6141 -3.99678 -0.635606 0
M  V30 638 H 60.1841 -2.98012 -0.943811 0
M  V30 639 H 59.4041 -3.66764 1.44491 0
M  V30 640 H 60.6921 -4.8852 1.42218 0
M  V30 641 H 60.0901 -5.38957 -1.71876 0
M  V30 642 H 58.6471 -6.31584 -1.61074 0
M  V30 643 N 62.0802 -0.821533 -1.34494 0
M  V30 644 C 63.0282 -0.230702 -2.31453 0
M  V30 645 C 64.0222 0.627793 -1.57338 0
M  V30 646 O 65.2282 0.519288 -1.72347 0
M  V30 647 H 61.6032 -0.0558577 -0.749923 0
M  V30 648 H 63.5742 -1.06332 -2.78812 0
M  V30 649 C 62.3232 0.59391 -3.4259 0
M  V30 650 H 61.6462 -0.0573588 -3.99759 0
M  V30 651 H 63.0862 0.973446 -4.12674 0
M  V30 652 C 61.5452 1.76568 -2.86924 0
M  V30 653 O 62.0752 2.8638 -2.81691 0
M  V30 654 N 60.2812 1.58198 -2.43766 0
M  V30 655 H 59.8282 0.68872 -2.48222 0
M  V30 656 H 59.7862 2.36752 -2.06871 0
M  V30 657 N 63.5583 1.46682 -0.576371 0
M  V30 658 C 64.5063 2.31953 0.17335 0
M  V30 659 C 65.5003 1.44098 0.89062 0
M  V30 660 O 66.7063 1.60759 0.809728 0
M  V30 661 H 63.0813 0.748273 0.0747727 0
M  V30 662 H 65.0523 2.93007 -0.564738 0
M  V30 663 C 63.8013 3.27142 1.17786 0
M  V30 664 H 63.1243 3.94719 0.635361 0
M  V30 665 H 64.5643 3.896 1.67296 0
M  V30 666 C 63.0233 2.52036 2.23561 0
M  V30 667 O 63.5533 2.27877 3.3081 0
M  V30 668 N 61.7593 2.12709 1.97998 0
M  V30 669 H 61.3063 2.32557 1.10792 0
M  V30 670 H 61.2643 1.62776 2.68982 0
M  V30 671 N 65.0364 0.313813 1.54444 0
M  V30 672 C 65.9834 -0.55655 2.23989 0
M  V30 673 C 66.9534 -1.11943 1.22711 0
M  V30 674 O 68.1384 -1.16158 1.51367 0
M  V30 675 C 65.2784 -1.71635 2.99392 0
M  V30 676 C 64.3914 -1.18364 4.15468 0
M  V30 677 C 63.5264 -2.30834 4.78424 0
M  V30 678 C 62.5654 -1.74762 5.86622 0
M  V30 679 N 61.7024 -2.80855 6.43479 0
M  V30 680 H 66.5424 0.0430893 2.97969 0
M  V30 681 H 64.0794 0.0330359 1.47063 0
M  V30 682 H 66.0374 -2.39868 3.41349 0
M  V30 683 H 64.6674 -2.28742 2.27765 0
M  V30 684 H 63.7194 -0.393163 3.78363 0
M  V30 685 H 65.0314 -0.733262 4.93381 0
M  V30 686 H 64.1854 -3.0699 5.23299 0
M  V30 687 H 62.9244 -2.79204 3.99871 0
M  V30 688 H 61.9294 -0.970995 5.41158 0
M  V30 689 H 63.1544 -1.2728 6.67066 0
M  V30 690 H 61.1004 -3.28535 5.67804 0
M  V30 691 H 61.0174 -2.40351 7.16776 0
M  V30 692 H 62.2854 -3.5687 6.93011 0
M  V30 693 N 66.5145 -1.57545 0.0417849 0
M  V30 694 C 67.4645 -2.07483 -0.945247 0
M  V30 695 C 68.4485 -0.977983 -1.27767 0
M  V30 696 O 69.6405 -1.24142 -1.26166 0
M  V30 697 C 66.7695 -2.61576 -2.22335 0
M  V30 698 C 65.8555 -3.78213 -1.91874 0
M  V30 699 N 66.2465 -4.88344 -1.31733 0
M  V30 700 C 64.5445 -3.8694 -2.21796 0
M  V30 701 C 65.2455 -5.69462 -1.1869 0
M  V30 702 N 64.2215 -5.16771 -1.68666 0
M  V30 703 H 68.0235 -2.90029 -0.475441 0
M  V30 704 H 65.5375 -1.61581 -0.162911 0
M  V30 705 H 67.5345 -2.95651 -2.93932 0
M  V30 706 H 66.1945 -1.80465 -2.69931 0
M  V30 707 H 67.2055 -5.08335 -0.990729 0
M  V30 708 H 63.8825 -3.16757 -2.71977 0
M  V30 709 H 65.2725 -6.68023 -0.720793 0
M  V30 710 N 67.9926 0.231505 -1.5589 0
M  V30 711 C 69.2226 0.973092 -1.82248 0
M  V30 712 C 69.6306 1.78845 -0.617328 0
M  V30 713 O 68.9736 1.78752 0.423499 0
M  V30 714 C 69.0356 1.94732 -3.02192 0
M  V30 715 C 68.6996 1.31743 -4.37599 0
M  V30 716 C 69.6966 0.712238 -5.14998 0
M  V30 717 C 67.3816 1.33218 -4.84312 0
M  V30 718 C 69.3756 0.130195 -6.37267 0
M  V30 719 C 67.0626 0.746286 -6.06526 0
M  V30 720 C 68.0606 0.146337 -6.82843 0
M  V30 721 O 67.7486 -0.430465 -8.02747 0
M  V30 722 H 67.4806 0.29125 -0.61004 0
M  V30 723 H 70.0346 0.254915 -2.03812 0
M  V30 724 H 68.2646 2.70422 -2.76422 0
M  V30 725 H 69.9536 2.55362 -3.15508 0
M  V30 726 H 70.7196 0.69324 -4.8002 0
M  V30 727 H 66.5986 1.78854 -4.24891 0
M  V30 728 H 70.1426 -0.33871 -6.96777 0
M  V30 729 H 66.0396 0.762663 -6.40979 0
M  V30 730 H 66.8076 -0.323818 -8.17859 0
M  V30 731 N 69.4707 1.49531 0.497807 0
M  V30 732 C 70.6987 1.62893 1.27567 0
M  V30 733 C 71.1137 0.301585 1.86376 0
M  V30 734 O 70.4707 -0.713335 1.67982 0
M  V30 735 C 70.5217 2.70013 2.40364 0
M  V30 736 O 70.2427 3.976 1.83972 0
M  V30 737 C 71.7437 2.94109 3.31685 0
M  V30 738 H 68.9637 0.548298 0.386794 0
M  V30 739 H 71.5077 1.95584 0.597245 0
M  V30 740 H 69.6627 2.40092 3.04031 0
M  V30 741 H 70.0767 4.56631 2.58047 0
M  V30 742 H 71.5507 3.72788 4.07104 0
M  V30 743 H 72.0277 2.04147 3.88871 0
M  V30 744 H 72.6337 3.2546 2.73781 0
M  V30 745 N 70.9488 -0.749086 1.3866 0
M  V30 746 C 72.1888 -1.52112 1.36534 0
M  V30 747 C 72.5528 -1.91951 -0.0432316 0
M  V30 748 O 73.7538 -2.68132 -0.189396 0
M  V30 749 C 72.0248 -2.73704 2.29828 0
M  V30 750 S 73.5838 -3.63519 2.45763 0
M  V30 751 H 70.4018 -0.520482 0.484375 0
M  V30 752 H 73.0038 -0.878963 1.74627 0
M  V30 753 H 71.7078 -2.42552 3.31054 0
M  V30 754 H 71.2388 -3.4286 1.929 0
M  V30 755 H 73.2538 -4.66712 1.68505 0
M  V30 756 N 72.4269 -1.23603 -0.977757 0
M  V30 757 C 73.6549 -1.09646 -1.75458 0
M  V30 758 C 74.0699 0.351859 -1.85492 0
M  V30 759 O 73.4269 1.24327 -1.336 0
M  V30 760 C 73.4779 -1.71895 -3.18016 0
M  V30 761 O 73.1989 -3.11063 -3.08498 0
M  V30 762 C 74.6999 -1.63415 -4.12081 0
M  V30 763 H 71.9199 -0.38359 -0.550545 0
M  V30 764 H 74.4639 -1.63507 -1.22824 0
M  V30 765 H 72.6189 -1.22061 -3.67668 0
M  V30 766 H 73.0329 -3.41305 -3.9826 0
M  V30 767 H 74.5069 -2.11669 -5.09804 0
M  V30 768 H 74.9839 -0.593462 -4.35172 0
M  V30 769 H 75.5899 -2.12628 -3.68334 0
M  V30 770 N 73.905 1.17692 -1.04816 0
M  V30 771 C 74.815 2.25229 -0.65643 0
M  V30 772 C 75.831 1.71018 0.320761 0
M  V30 773 O 77.007 2.00649 0.173805 0
M  V30 774 C 74.072 3.46684 -0.0332629 0
M  V30 775 C 73.133 4.15997 -1.06042 0
M  V30 776 C 72.366 5.31654 -0.466893 0
M  V30 777 O 72.589 5.65777 0.724758 0
M  V30 778 O 71.523 5.89831 -1.1993 0
M  V30 779 H 75.349 2.61016 -1.55255 0
M  V30 780 H 72.934 1.24919 -0.81949 0
M  V30 781 H 74.816 4.20234 0.313256 0
M  V30 782 H 73.491 3.12703 0.836566 0
M  V30 783 H 72.398 3.44482 -1.45886 0
M  V30 784 H 73.731 4.53996 -1.90127 0
M  V30 785 N 75.3831 0.828654 1.34056 0
M  V30 786 C 76.6081 0.431637 2.02859 0
M  V30 787 C 77.0331 -0.956339 1.61975 0
M  V30 788 O 76.3911 -1.62338 0.807228 0
M  V30 789 C 76.4391 0.548323 3.56407 0
M  V30 790 O 75.5431 -0.429556 4.10157 0
M  V30 791 H 74.8841 0.176886 0.640006 0
M  V30 792 H 77.4141 1.12066 1.71179 0
M  V30 793 H 77.4241 0.426196 4.05768 0
M  V30 794 H 76.0991 1.5606 3.8551 0
M  V30 795 H 74.6761 -0.265836 3.71951 0
M  V30 796 N 76.8612 -1.46375 0.584142 0
M  V30 797 C 77.7932 -2.28443 -0.186119 0
M  V30 798 C 78.8062 -1.38596 -0.854115 0
M  V30 799 O 79.9952 -1.63183 -0.723438 0
M  V30 800 C 77.0952 -3.13671 -1.28311 0
M  V30 801 C 76.2682 -4.31652 -0.706758 0
M  V30 802 C 75.3272 -4.98267 -1.69163 0
M  V30 803 O 74.3532 -5.55815 -1.22712 0
M  V30 804 N 75.5552 -4.95408 -3.02575 0
M  V30 805 H 78.3202 -2.9519 0.517986 0
M  V30 806 H 75.8812 -1.56303 0.42201 0
M  V30 807 H 77.8732 -3.55101 -1.94128 0
M  V30 808 H 76.4432 -2.48989 -1.89005 0
M  V30 809 H 75.6632 -3.93989 0.128908 0
M  V30 810 H 76.9512 -5.07906 -0.301506 0
M  V30 811 H 76.3492 -4.49902 -3.42936 0
M  V30 812 H 74.9062 -5.40774 -3.63877 0
M  V30 813 N 78.3393 -0.321999 -1.54275 0
M  V30 814 C 79.5643 0.285791 -2.05422 0
M  V30 815 C 79.9893 1.45124 -1.19669 0
M  V30 816 O 79.3473 1.80132 -0.205441 0
M  V30 817 C 79.3953 0.69956 -3.53749 0
M  V30 818 O 78.4993 1.8021 -3.70942 0
M  V30 819 H 77.8403 0.0518962 -0.661969 0
M  V30 820 H 80.3703 -0.469954 -1.9913 0
M  V30 821 H 80.3803 0.982649 -3.9599 0
M  V30 822 H 79.0553 -0.152864 -4.15619 0
M  V30 823 H 77.6323 1.51794 -3.40607 0
M  V30 824 N 79.8174 1.5752 -0.0501392 0
M  V30 825 C 81.0574 1.94521 0.627783 0
M  V30 826 C 81.4214 0.928265 1.68069 0
M  V30 827 O 82.6224 1.18517 2.41261 0
M  V30 828 C 80.8934 3.36319 1.20932 0
M  V30 829 S 82.4524 3.95272 1.90539 0
M  V30 830 H 79.2704 0.680456 0.206158 0
M  V30 831 H 81.8724 1.95139 -0.118829 0
M  V30 832 H 80.5764 4.08132 0.430865 0
M  V30 833 H 80.1074 3.39193 1.99277 0
M  V30 834 H 82.1224 3.80415 3.18589 0
M  V30 835 N 81.2955 -0.223234 1.56011 0
M  V30 836 C 82.2425 -1.27664 1.92277 0
M  V30 837 C 83.2125 -1.46659 0.779763 0
M  V30 838 O 84.3975 -1.60256 1.03551 0
M  V30 839 C 81.5375 -2.62234 2.24338 0
M  V30 840 C 80.6505 -2.51051 3.51564 0
M  V30 841 C 79.7855 -3.78133 3.7308 0
M  V30 842 C 78.8245 -3.61665 4.93827 0
M  V30 843 N 77.9615 -4.80693 5.11741 0
M  V30 844 H 82.8015 -0.960358 2.82101 0
M  V30 845 H 80.3385 -0.462901 1.39627 0
M  V30 846 H 82.2965 -3.40596 2.40936 0
M  V30 847 H 80.9265 -2.91961 1.3769 0
M  V30 848 H 79.9785 -1.64132 3.43169 0
M  V30 849 H 81.2905 -2.34803 4.40079 0
M  V30 850 H 80.4445 -4.64938 3.89766 0
M  V30 851 H 79.1835 -3.97304 2.82844 0
M  V30 852 H 78.1885 -2.73244 4.77093 0
M  V30 853 H 79.4135 -3.43966 5.85546 0
M  V30 854 H 77.3595 -5.00181 4.24446 0
M  V30 855 H 77.2765 -4.67165 5.94384 0
M  V30 856 H 78.5445 -5.6893 5.3286 0
M  V30 857 N 82.7736 -1.49793 -0.48987 0
M  V30 858 C 84.0226 -1.59085 -1.23995 0
M  V30 859 C 84.3356 -0.287907 -1.9347 0
M  V30 860 O 85.5416 -0.259506 -2.70257 0
M  V30 861 C 83.9976 -2.80736 -2.252 0
M  V30 862 C 83.6056 -4.17833 -1.61614 0
M  V30 863 C 85.3496 -2.99364 -3.00967 0
M  V30 864 C 83.2566 -5.30693 -2.60996 0
M  V30 865 H 82.1866 -0.592372 -0.466488 0
M  V30 866 H 84.8376 -1.76197 -0.51252 0
M  V30 867 H 83.2196 -2.57142 -3.01154 0
M  V30 868 H 84.3936 -4.51608 -0.915774 0
M  V30 869 H 82.7086 -4.04656 -0.981977 0
M  V30 870 H 85.3056 -3.80851 -3.75308 0
M  V30 871 H 85.6486 -2.10356 -3.59244 0
M  V30 872 H 86.1816 -3.2305 -2.32128 0
M  V30 873 H 82.9206 -6.21796 -2.07485 0
M  V30 874 H 82.4406 -5.01359 -3.2924 0
M  V30 875 H 84.1196 -5.6049 -3.23202 0
M  V30 876 N 84.2517 0.741722 -1.39055 0
M  V30 877 C 85.5287 1.49252 -1.26425 0
M  V30 878 C 85.9087 2.10705 0.129144 0
M  V30 879 O 85.2567 1.98045 1.13976 0
M  V30 880 C 85.4667 2.54934 -2.38347 0
M  V30 881 C 86.8147 3.21506 -2.77343 0
M  V30 882 O 87.8387 2.65245 -2.37747 0
M  V30 883 O 86.6977 4.23294 -3.45665 0
M  V30 884 H 83.7917 0.662451 -0.495064 0
M  V30 885 H 86.3377 0.776121 -1.50912 0
M  V30 886 H 85.1097 2.07857 -3.31529 0
M  V30 887 H 84.7327 3.34141 -2.15489 0
M  V30 888 N 85.7298 1.2412 0.971189 0
M  V30 889 C 86.6768 1.0305 2.06517 0
M  V30 890 C 87.6468 -0.0550666 1.66009 0
M  V30 891 O 88.8318 0.0988688 1.90544 0
M  V30 892 C 85.9718 0.637653 3.39158 0
M  V30 893 C 85.0848 1.79633 3.92882 0
M  V30 894 C 84.2198 1.34939 5.13775 0
M  V30 895 C 83.2588 2.47823 5.59687 0
M  V30 896 N 82.3958 2.04022 6.71803 0
M  V30 897 H 87.2358 1.96685 2.23873 0
M  V30 898 H 84.7728 0.979694 1.09729 0
M  V30 899 H 86.7308 0.390931 4.15364 0
M  V30 900 H 85.3608 -0.261693 3.21737 0
M  V30 901 H 84.4128 2.15681 3.13346 0
M  V30 902 H 85.7248 2.64466 4.22918 0
M  V30 903 H 84.8788 1.06134 5.97345 0
M  V30 904 H 83.6178 0.471557 4.85415 0
M  V30 905 H 82.6228 2.77392 4.74693 0
M  V30 906 H 83.8478 3.36158 5.90063 0
M  V30 907 H 81.7938 1.18632 6.45184 0
M  V30 908 H 81.7108 2.82409 7.01271 0
M  V30 909 H 82.9788 1.78347 7.58823 0
M  V30 910 N 87.2079 -1.17134 1.05439 0
M  V30 911 C 88.4359 -1.91372 0.786414 0
M  V30 912 C 88.8509 -1.76955 -0.658202 0
M  V30 913 O 88.2079 -1.10838 -1.44987 0
M  V30 914 C 88.2589 -3.42356 1.1608 0
M  V30 915 O 87.9799 -3.56332 2.54871 0
M  V30 916 C 89.4809 -4.33663 0.919322 0
M  V30 917 H 86.7009 -0.607118 0.285743 0
M  V30 918 H 89.2449 -1.48525 1.40572 0
M  V30 919 H 87.3999 -3.82939 0.586191 0
M  V30 920 H 87.8139 -4.49896 2.69618 0
M  V30 921 H 89.2879 -5.38099 1.231 0
M  V30 922 H 89.7649 -4.38959 -0.145359 0
M  V30 923 H 90.3709 -3.98796 1.47789 0
M  V30 924 N 88.686 -0.835752 -1.33615 0
M  V30 925 C 89.618 -0.224151 -2.28101 0
M  V30 926 C 90.631 0.593331 -1.51603 0
M  V30 927 O 91.82 0.420911 -1.73466 0
M  V30 928 C 88.92 0.703309 -3.31522 0
M  V30 929 C 88.093 -0.0741528 -4.37337 0
M  V30 930 C 87.152 0.776176 -5.20444 0
M  V30 931 O 86.178 0.216506 -5.68788 0
M  V30 932 N 87.38 2.09401 -5.41416 0
M  V30 933 H 90.145 -1.03598 -2.81225 0
M  V30 934 H 87.706 -0.69392 -1.46275 0
M  V30 935 H 89.698 1.27707 -3.84022 0
M  V30 936 H 88.268 1.41585 -2.78698 0
M  V30 937 H 87.488 -0.82928 -3.85378 0
M  V30 938 H 88.776 -0.608863 -5.05144 0
M  V30 939 H 88.174 2.57229 -5.03835 0
M  V30 940 H 86.731 2.61633 -5.96985 0
M  V30 941 N 90.1641 1.46063 -0.591896 0
M  V30 942 C 91.5801 1.57561 -0.254288 0
M  V30 943 C 91.7801 1.58565 1.24336 0
M  V30 944 O 90.8361 1.50753 2.02558 0
M  V30 945 C 92.1491 2.86549 -0.911611 0
M  V30 946 C 93.6971 3.00197 -0.886059 0
M  V30 947 C 94.1721 4.31933 -1.5231 0
M  V30 948 N 95.6631 4.38654 -1.48786 0
M  V30 949 C 96.3981 5.39222 -1.95006 0
M  V30 950 N 95.8941 6.46414 -2.49241 0
M  V30 951 N 97.6871 5.3048 -1.85868 0
M  V30 952 H 89.8381 1.43655 -1.56451 0
M  V30 953 H 92.1011 0.68583 -0.654478 0
M  V30 954 H 91.8071 2.91651 -1.96551 0
M  V30 955 H 91.6811 3.74794 -0.425368 0
M  V30 956 H 94.0681 2.9467 0.159246 0
M  V30 957 H 94.1491 2.13403 -1.41041 0
M  V30 958 H 93.7931 4.38217 -2.56765 0
M  V30 959 H 93.7231 5.17516 -0.973891 0
M  V30 960 H 96.2141 3.61793 -1.09151 0
M  V30 961 H 96.5271 7.19376 -2.82344 0
M  V30 962 H 94.8721 6.47208 -2.53272 0
M  V30 963 H 98.0631 4.45643 -1.43248 0
M  V30 964 H 98.2361 6.08711 -2.22204 0
M  V30 965 N 91.6422 0.330177 1.54103 0
M  V30 966 C 92.5892 -0.532762 2.24567 0
M  V30 967 C 93.5592 -1.10635 1.23892 0
M  V30 968 O 94.7442 -1.14546 1.5259 0
M  V30 969 C 91.8842 -1.6845 3.01195 0
M  V30 970 C 90.9972 -1.13951 4.167 0
M  V30 971 C 90.1322 -2.25746 4.80845 0
M  V30 972 C 89.1712 -1.6853 5.88442 0
M  V30 973 N 88.3082 -2.74014 6.46421 0
M  V30 974 H 93.1482 0.0746905 2.97906 0
M  V30 975 H 90.6852 0.048632 1.4702 0
M  V30 976 H 92.6432 -2.36234 3.43874 0
M  V30 977 H 91.2732 -2.26314 2.30178 0
M  V30 978 H 90.3252 -0.35301 3.78758 0
M  V30 979 H 91.6372 -0.680892 4.94131 0
M  V30 980 H 90.7912 -3.01422 5.26526 0
M  V30 981 H 89.5302 -2.74947 4.0281 0
M  V30 982 H 88.5352 -0.913543 5.42157 0
M  V30 983 H 89.7602 -1.20198 6.68378 0
M  V30 984 H 87.7062 -3.22494 5.71256 0
M  V30 985 H 87.6232 -2.32735 7.19285 0
M  V30 986 H 88.8912 -3.49499 6.96757 0
M  V30 987 N 93.1203 -1.57491 0.0584922 0
M  V30 988 C 94.5363 -1.56792 -0.298091 0
M  V30 989 C 94.7363 -1.06679 -1.70944 0
M  V30 990 O 93.7923 -0.726672 -2.41818 0
M  V30 991 C 95.1053 -3.00461 -0.119879 0
M  V30 992 C 96.6533 -3.1242 -0.190428 0
M  V30 993 C 97.1283 -4.57982 -0.0406567 0
M  V30 994 N 98.6193 -4.63099 -0.0966958 0
M  V30 995 C 99.3543 -5.734 -0.00502943 0
M  V30 996 N 98.8503 -6.9266 0.139402 0
M  V30 997 N 100.643 -5.62067 -0.0611391 0
M  V30 998 H 92.7943 -1.88386 0.98105 0
M  V30 999 H 95.0573 -0.867865 0.381463 0
M  V30 1000 H 94.7633 -3.41187 0.85349 0
M  V30 1001 H 94.6373 -3.66843 -0.877833 0
M  V30 1002 H 97.0243 -2.71589 -1.15427 0
M  V30 1003 H 97.1053 -2.48702 0.598405 0
M  V30 1004 H 96.7493 -4.995 0.919897 0
M  V30 1005 H 96.6793 -5.19715 -0.848727 0
M  V30 1006 H 99.1703 -3.77331 -0.207277 0
M  V30 1007 H 99.4833 -7.72536 0.201855 0
M  V30 1008 H 97.8283 -6.94781 0.174586 0
M  V30 1009 H 101.019 -4.67782 -0.172583 0
M  V30 1010 H 101.192 -6.47999 0.0137562 0
M  V30 1011 N 94.5984 0.214957 -1.56127 0
M  V30 1012 C 95.8384 0.945364 -1.81224 0
M  V30 1013 C 96.2024 1.81265 -0.633005 0
M  V30 1014 O 97.4034 2.57731 -0.763423 0
M  V30 1015 C 95.6744 1.75665 -3.1125 0
M  V30 1016 S 97.2334 2.54179 -3.57685 0
M  V30 1017 H 94.0514 0.317443 -0.6362 0
M  V30 1018 H 96.6534 0.210381 -1.94365 0
M  V30 1019 H 95.3574 1.10977 -3.9511 0
M  V30 1020 H 94.8884 2.53381 -3.00934 0
M  V30 1021 H 96.9034 3.7792 -3.21545 0
M  V30 1022 N 96.0765 1.50051 0.48192 0
M  V30 1023 C 97.4875 1.5348 1.06305 0
M  V30 1024 C 97.8385 0.331997 1.93371 0
M  V30 1025 O 96.9635 -0.556256 2.09129 0
M  V30 1026 C 97.5585 2.7813 1.93466 0
M  V30 1027 C 96.1175 2.84275 2.46707 0
M  V30 1028 C 95.2645 2.47637 1.24785 0
M  V30 1029 H 98.2155 1.56472 0.264995 0
M  V30 1030 H 98.2365 2.59372 2.78399 0
M  V30 1031 H 97.7485 3.65654 1.30072 0
M  V30 1032 H 95.8495 2.01077 3.13686 0
M  V30 1033 H 95.9625 3.8691 2.82555 0
M  V30 1034 H 94.3265 1.99835 1.57918 0
M  V30 1035 H 95.1095 3.37457 0.630694 0
M  V30 1036 N 97.5546 -0.734337 1.39446 0
M  V30 1037 C 98.8016 -1.49391 1.36706 0
M  V30 1038 C 99.1296 -1.94465 -0.0367813 0
M  V30 1039 O 98.3846 -1.67154 -1.01774 0
M  V30 1040 C 98.6836 -2.74711 2.28623 0
M  V30 1041 C 98.3496 -2.48501 3.76242 0
M  V30 1042 C 97.0116 -2.41062 4.16464 0
M  V30 1043 C 99.3636 -2.26098 4.69606 0
M  V30 1044 C 96.6916 -2.09262 5.48112 0
M  V30 1045 C 99.0436 -1.95814 6.01531 0
M  V30 1046 C 97.7076 -1.86845 6.40816 0
M  V30 1047 H 96.9776 -0.546661 0.500243 0
M  V30 1048 H 99.6246 -0.842788 1.71957 0
M  V30 1049 H 97.9296 -3.44569 1.86492 0
M  V30 1050 H 99.6266 -3.32741 2.23796 0
M  V30 1051 H 96.2166 -2.55169 3.44364 0
M  V30 1052 H 100.401 -2.30812 4.39363 0
M  V30 1053 H 95.6566 -2.00841 5.77471 0
M  V30 1054 H 99.8306 -1.77488 6.73403 0
M  V30 1055 H 97.4576 -1.6197 7.42745 0
M  V30 1056 N 99.0327 -1.24633 -0.964593 0
M  V30 1057 C 100.273 -1.09981 -1.72289 0
M  V30 1058 C 100.637 0.354792 -1.88693 0
M  V30 1059 O 101.838 0.62289 -2.61483 0
M  V30 1060 C 100.109 -1.82262 -3.07434 0
M  V30 1061 S 101.668 -1.83379 -3.98645 0
M  V30 1062 H 98.4857 -0.393292 -0.59232 0
M  V30 1063 H 101.088 -1.58009 -1.15123 0
M  V30 1064 H 99.7917 -2.87206 -2.93157 0
M  V30 1065 H 99.3227 -1.3458 -3.69664 0
M  V30 1066 H 101.338 -0.903691 -4.87901 0
M  V30 1067 N 100.511 1.16574 -1.06058 0
M  V30 1068 C 101.927 1.3904 -0.783585 0
M  V30 1069 C 102.127 1.91784 0.618145 0
M  V30 1070 O 101.183 2.11511 1.37911 0
M  V30 1071 C 102.496 2.37329 -1.84649 0
M  V30 1072 C 104.044 2.51018 -1.86973 0
M  V30 1073 C 104.519 3.52588 -2.92311 0
M  V30 1074 N 106.01 3.60113 -2.91329 0
M  V30 1075 C 106.745 4.38486 -3.69482 0
M  V30 1076 N 106.241 5.20302 -4.57447 0
M  V30 1077 N 108.034 4.33446 -3.57885 0
M  V30 1078 H 100.185 0.806725 -1.96483 0
M  V30 1079 H 102.448 0.417117 -0.851303 0
M  V30 1080 H 102.154 2.05663 -2.85299 0
M  V30 1081 H 102.028 3.36946 -1.6955 0
M  V30 1082 H 104.415 2.81989 -0.869827 0
M  V30 1083 H 104.496 1.51445 -2.0615 0
M  V30 1084 H 104.14 3.22354 -3.92492 0
M  V30 1085 H 104.07 4.51886 -2.70383 0
M  V30 1086 H 106.561 3.01707 -2.27555 0
M  V30 1087 H 106.874 5.77311 -5.13743 0
M  V30 1088 H 105.219 5.19653 -4.61503 0
M  V30 1089 H 108.41 3.68586 -2.88551 0
M  V30 1090 H 108.583 4.94279 -4.19037 0
M  V30 1091 N 101.989 0.842826 1.3317 0
M  V30 1092 C 103.236 0.440447 1.97652 0
M  V30 1093 C 103.564 -1.00123 1.6675 0
M  V30 1094 O 102.819 -1.7155 0.941761 0
M  V30 1095 C 103.118 0.612607 3.52111 0
M  V30 1096 C 102.784 2.02297 4.02972 0
M  V30 1097 C 101.446 2.40874 4.16573 0
M  V30 1098 C 103.798 2.94402 4.30089 0
M  V30 1099 C 101.126 3.70852 4.54627 0
M  V30 1100 C 103.478 4.23865 4.69597 0
M  V30 1101 C 102.142 4.62392 4.81404 0
M  V30 1102 H 101.412 0.161171 0.72326 0
M  V30 1103 H 104.059 1.07061 1.58777 0
M  V30 1104 H 102.364 -0.100849 3.9167 0
M  V30 1105 H 104.061 0.2815 4.00011 0
M  V30 1106 H 100.651 1.71338 3.92863 0
M  V30 1107 H 104.835 2.65835 4.19101 0
M  V30 1108 H 100.091 4.00501 4.61962 0
M  V30 1109 H 104.265 4.95306 4.89536 0
M  V30 1110 H 101.892 5.63154 5.10648 0
M  V30 1111 N 103.467 -1.45747 0.599634 0
M  V30 1112 C 104.399 -2.28628 -0.161879 0
M  V30 1113 C 105.412 -1.39494 -0.839367 0
M  V30 1114 O 106.601 -1.63941 -0.706089 0
M  V30 1115 C 103.701 -3.15014 -1.24976 0
M  V30 1116 C 102.874 -4.32378 -0.660935 0
M  V30 1117 C 101.933 -5.00033 -1.63869 0
M  V30 1118 O 100.959 -5.57085 -1.1681 0
M  V30 1119 N 102.161 -4.98589 -2.97303 0
M  V30 1120 H 104.926 -2.94624 0.549265 0
M  V30 1121 H 102.487 -1.55847 0.438565 0
M  V30 1122 H 104.479 -3.5714 -1.9035 0
M  V30 1123 H 103.049 -2.5098 -1.86354 0
M  V30 1124 H 102.269 -3.9383 0.170688 0
M  V30 1125 H 103.557 -5.08197 -0.247619 0
M  V30 1126 H 102.955 -4.53514 -3.38145 0
M  V30 1127 H 101.512 -5.44603 -3.58121 0
M  V30 1128 N 104.945 -0.338344 -1.53925 0
M  V30 1129 C 105.892 0.520845 -2.24846 0
M  V30 1130 C 106.862 1.09976 -1.24477 0
M  V30 1131 O 108.047 1.13735 -1.53196 0
M  V30 1132 C 105.187 1.6685 -3.02084 0
M  V30 1133 C 104.3 1.11739 -4.17299 0
M  V30 1134 C 103.435 2.23193 -4.82036 0
M  V30 1135 C 102.474 1.65407 -5.89328 0
M  V30 1136 N 101.611 2.70582 -6.47866 0
M  V30 1137 H 106.451 -0.0904881 -2.97863 0
M  V30 1138 H 103.988 -0.0564282 -1.46992 0
M  V30 1139 H 105.946 2.34407 -3.45122 0
M  V30 1140 H 104.576 2.2509 -2.31375 0
M  V30 1141 H 103.628 0.332919 -3.7894 0
M  V30 1142 H 104.94 0.654677 -4.94485 0
M  V30 1143 H 104.094 2.98626 -5.28117 0
M  V30 1144 H 102.833 2.72807 -4.04262 0
M  V30 1145 H 101.838 0.884779 -5.42634 0
M  V30 1146 H 103.063 1.16652 -6.69006 0
M  V30 1147 H 101.009 3.1946 -5.72959 0
M  V30 1148 H 100.926 2.28917 -7.20509 0
M  V30 1149 H 102.194 3.45799 -6.98601 0
M  V30 1150 N 106.423 1.57458 -0.0668435 0
M  V30 1151 C 107.663 1.95175 0.607116 0
M  V30 1152 C 108.027 0.946039 1.67075 0
M  V30 1153 O 109.228 1.2107 2.39991 0
M  V30 1154 C 107.499 3.37582 1.17358 0
M  V30 1155 S 109.058 3.97271 1.86336 0
M  V30 1156 H 105.876 0.682604 0.19893 0
M  V30 1157 H 108.478 1.95002 -0.139519 0
M  V30 1158 H 107.182 4.08566 0.387553 0
M  V30 1159 H 106.713 3.41288 1.95669 0
M  V30 1160 H 108.728 3.83772 3.14537 0
M  V30 1161 N 107.901 -0.206675 1.56239 0
M  V30 1162 C 108.831 -1.25909 1.96645 0
M  V30 1163 C 109.812 -1.48097 0.836734 0
M  V30 1164 O 110.997 -1.6003 1.10019 0
M  V30 1165 C 108.127 -2.6058 2.29599 0
M  V30 1166 C 107.081 -2.53024 3.452 0
M  V30 1167 C 106.407 -3.91861 3.63798 0
M  V30 1168 C 107.707 -2.06524 4.79734 0
M  V30 1169 H 109.401 -0.923369 2.84806 0
M  V30 1170 H 106.947 -0.442735 1.37025 0
M  V30 1171 H 108.9 -3.34375 2.56459 0
M  V30 1172 H 107.624 -2.95869 1.38307 0
M  V30 1173 H 106.283 -1.81684 3.18412 0
M  V30 1174 H 105.931 -4.24483 2.69857 0
M  V30 1175 H 105.631 -3.87683 4.4156 0
M  V30 1176 H 107.155 -4.67296 3.93022 0
M  V30 1177 H 108.569 -2.70072 5.05702 0
M  V30 1178 H 106.966 -2.13374 5.60885 0
M  V30 1179 H 108.036 -1.01802 4.74093 0
M  V30 1180 N 109.379 -1.50304 -0.473955 0
M  V30 1181 C 110.607 -1.64902 -1.24959 0
M  V30 1182 C 111.022 -0.331198 -1.85872 0
M  V30 1183 O 110.379 0.68652 -1.69095 0
M  V30 1184 C 110.43 -2.73803 -2.36038 0
M  V30 1185 O 110.151 -4.00477 -1.77624 0
M  V30 1186 C 111.652 -2.99349 -3.26964 0
M  V30 1187 H 108.872 -0.554383 -0.378022 0
M  V30 1188 H 111.416 -1.9651 -0.566054 0
M  V30 1189 H 109.571 -2.44898 -3.00173 0
M  V30 1190 H 109.985 -4.60678 -2.5075 0
M  V30 1191 H 111.459 -3.79217 -4.01121 0
M  V30 1192 H 111.936 -2.10307 -3.85574 0
M  V30 1193 H 112.542 -3.29774 -2.68569 0
M  V30 1194 N 110.857 0.726932 -1.39834 0
M  V30 1195 C 112.103 1.48884 -1.377 0
M  V30 1196 C 112.436 1.94185 0.0244852 0
M  V30 1197 O 111.711 1.67361 0.990986 0
M  V30 1198 C 111.994 2.72288 -2.3565 0
M  V30 1199 C 111.847 2.32956 -3.84775 0
M  V30 1200 C 113.166 3.74414 -2.31306 0
M  V30 1201 H 110.285 0.540062 -0.5015 0
M  V30 1202 H 112.927 0.830547 -1.70886 0
M  V30 1203 H 111.077 3.28457 -2.07481 0
M  V30 1204 H 112.749 1.82356 -4.23726 0
M  V30 1205 H 110.992 1.65088 -4.01159 0
M  V30 1206 H 111.663 3.21362 -4.4881 0
M  V30 1207 H 114.139 3.27849 -2.56231 0
M  V30 1208 H 113.015 4.58414 -3.01907 0
M  V30 1209 H 113.276 4.21909 -1.32081 0
M  V30 1210 N 112.336 1.25143 0.95797 0
M  V30 1211 C 113.584 1.09476 1.69881 0
M  V30 1212 C 113.905 -0.365502 1.91544 0
M  V30 1213 O 113.175 -1.25985 1.50015 0
M  V30 1214 H 111.755 0.402128 0.629525 0
M  V30 1215 H 114.417 1.57214 1.15194 0
M  V30 1216 H 113.513 1.60046 2.6794 0
M  V30 1217 N 113.814 -1.1601 1.06675 0
M  V30 1218 C 114.747 -2.1947 0.625168 0
M  V30 1219 C 115.725 -1.58699 -0.354041 0
M  V30 1220 O 116.909 -1.86669 -0.262098 0
M  V30 1221 C 114.036 -3.38598 -0.0829593 0
M  V30 1222 C 113.082 -4.1787 0.853611 0
M  V30 1223 S 113.915 -4.81135 2.35094 0
M  V30 1224 C 115.071 -6.03639 1.65441 0
M  V30 1225 H 115.304 -2.56587 1.50168 0
M  V30 1226 H 112.837 -1.26862 0.880078 0
M  V30 1227 H 114.795 -4.07621 -0.485288 0
M  V30 1228 H 113.456 -2.99839 -0.935716 0
M  V30 1229 H 112.649 -5.03078 0.304755 0
M  V30 1230 H 112.251 -3.54361 1.196 0
M  V30 1231 H 114.543 -6.70632 0.962201 0
M  V30 1232 H 115.486 -6.63081 2.48454 0
M  V30 1233 H 115.894 -5.52965 1.13534 0
M  V30 1234 N 115.292 -0.849877 -1.32721 0
M  V30 1235 C 116.708 -0.539102 -1.50219 0
M  V30 1236 C 116.908 0.931271 -1.78689 0
M  V30 1237 O 115.964 1.71455 -1.85363 0
M  V30 1238 C 117.277 -1.42196 -2.64954 0
M  V30 1239 C 118.825 -1.42189 -2.78839 0
M  V30 1240 C 119.3 -2.28985 -3.96648 0
M  V30 1241 N 120.791 -2.26754 -4.03902 0
M  V30 1242 C 121.526 -2.90644 -4.94281 0
M  V30 1243 N 121.022 -3.63629 -5.897 0
M  V30 1244 N 122.815 -2.80057 -4.87365 0
M  V30 1245 H 114.966 -1.80156 -1.12506 0
M  V30 1246 H 117.229 -0.769217 -0.554085 0
M  V30 1247 H 116.935 -2.46733 -2.50631 0
M  V30 1248 H 116.809 -1.10591 -3.60624 0
M  V30 1249 H 119.196 -0.38419 -2.92588 0
M  V30 1250 H 119.277 -1.77807 -1.83898 0
M  V30 1251 H 118.921 -3.32819 -3.83658 0
M  V30 1252 H 118.851 -1.90702 -4.90857 0
M  V30 1253 H 121.342 -1.73688 -3.3562 0
M  V30 1254 H 121.655 -4.09558 -6.55349 0
M  V30 1255 H 120 -3.67737 -5.89741 0
M  V30 1256 H 123.191 -2.22593 -4.11789 0
M  V30 1257 H 123.364 -3.30132 -5.57599 0
M  V30 1258 N 116.77 1.45427 -0.607355 0
M  V30 1259 C 117.7 2.3329 0.0989352 0
M  V30 1260 C 118.681 1.46816 0.859007 0
M  V30 1261 O 119.866 1.75588 0.829604 0
M  V30 1262 C 116.996 3.29518 1.09705 0
M  V30 1263 C 115.95 4.25626 0.450206 0
M  V30 1264 C 115.276 5.11542 1.55655 0
M  V30 1265 C 116.576 5.18505 -0.628455 0
M  V30 1266 H 118.27 2.92595 -0.634716 0
M  V30 1267 H 115.816 1.40696 -0.306681 0
M  V30 1268 H 117.769 3.89855 1.59971 0
M  V30 1269 H 116.493 2.68372 1.86129 0
M  V30 1270 H 115.152 3.66586 -0.0315886 0
M  V30 1271 H 114.8 4.46765 2.31107 0
M  V30 1272 H 114.5 5.76647 1.12925 0
M  V30 1273 H 116.024 5.74748 2.06148 0
M  V30 1274 H 117.438 5.72916 -0.209877 0
M  V30 1275 H 115.835 5.92085 -0.977489 0
M  V30 1276 H 116.905 4.60948 -1.50514 0
M  V30 1277 N 118.248 0.346503 1.53744 0
M  V30 1278 C 119.158 -0.517293 2.28826 0
M  V30 1279 C 120.174 -1.10935 1.3405 0
M  V30 1280 O 121.35 -1.1244 1.6709 0
M  V30 1281 C 118.415 -1.65098 3.04866 0
M  V30 1282 C 117.476 -1.0884 4.15274 0
M  V30 1283 C 116.709 -2.16806 4.87679 0
M  V30 1284 O 116.932 -3.3758 4.59778 0
M  V30 1285 O 115.866 -1.80934 5.74061 0
M  V30 1286 H 119.692 0.0931396 3.03557 0
M  V30 1287 H 117.277 0.111458 1.48984 0
M  V30 1288 H 119.159 -2.31053 3.5241 0
M  V30 1289 H 117.834 -2.24717 2.32989 0
M  V30 1290 H 116.741 -0.3933 3.72027 0
M  V30 1291 H 118.074 -0.537036 4.89261 0
M  V30 1292 N 119.726 -1.57421 0.075193 0
M  V30 1293 C 120.689 -2.11791 -0.876203 0
M  V30 1294 C 121.689 -1.04268 -1.22412 0
M  V30 1295 O 122.879 -1.30242 -1.15684 0
M  V30 1296 C 120.011 -2.62207 -2.17854 0
M  V30 1297 H 121.204 -2.9716 -0.40444 0
M  V30 1298 H 118.757 -1.55333 -0.173557 0
M  V30 1299 H 119.492 -1.803 -2.6956 0
M  V30 1300 H 119.277 -3.40802 -1.93897 0
M  V30 1301 H 120.767 -3.04335 -2.85955 0
M  V30 1302 N 121.204 0.198386 -1.56346 0
M  V30 1303 C 122.45 0.920648 -1.80698 0
M  V30 1304 C 122.783 1.83045 -0.648697 0
M  V30 1305 O 122.058 1.91308 0.350925 0
M  V30 1306 C 122.341 1.73971 -3.15287 0
M  V30 1307 C 122.194 0.85485 -4.41602 0
M  V30 1308 C 123.513 2.71296 -3.46535 0
M  V30 1309 H 120.632 0.333261 -0.657348 0
M  V30 1310 H 123.274 0.188198 -1.89066 0
M  V30 1311 H 121.424 2.36416 -3.08285 0
M  V30 1312 H 123.096 0.245362 -4.60647 0
M  V30 1313 H 121.339 0.161398 -4.335 0
M  V30 1314 H 122.01 1.46286 -5.32264 0
M  V30 1315 H 124.486 2.18983 -3.53816 0
M  V30 1316 H 123.362 3.2569 -4.41834 0
M  V30 1317 H 123.623 3.5018 -2.69864 0
M  V30 1318 N 122.682 1.50554 0.465978 0
M  V30 1319 C 124.098 1.38093 0.800154 0
M  V30 1320 C 124.298 0.440988 1.96615 0
M  V30 1321 O 123.354 -0.114499 2.5224 0
M  V30 1322 C 124.667 2.79565 1.10742 0
M  V30 1323 C 126.215 2.88516 1.21357 0
M  V30 1324 C 126.69 4.30833 1.55393 0
M  V30 1325 N 128.181 4.33807 1.62375 0
M  V30 1326 C 128.916 5.40927 1.90225 0
M  V30 1327 N 128.412 6.58247 2.16062 0
M  V30 1328 N 130.205 5.28376 1.9177 0
M  V30 1329 H 122.356 2.10237 -0.302366 0
M  V30 1330 H 124.619 0.945203 -0.0727746 0
M  V30 1331 H 124.325 3.50208 0.323661 0
M  V30 1332 H 124.199 3.17125 2.04234 0
M  V30 1333 H 126.586 2.1809 1.98799 0
M  V30 1334 H 126.667 2.54492 0.258321 0
M  V30 1335 H 126.311 5.01799 0.784889 0
M  V30 1336 H 126.241 4.62347 2.52076 0
M  V30 1337 H 128.732 3.49212 1.44427 0
M  V30 1338 H 129.045 7.3569 2.36601 0
M  V30 1339 H 127.39 6.61413 2.13444 0
M  V30 1340 H 130.581 4.35715 1.71085 0
M  V30 1341 H 130.754 6.11944 2.13139 0
M  V30 1342 N 124.16 -0.719506 1.40217 0
M  V30 1343 C 125.123 -1.8153 1.39927 0
M  V30 1344 C 126.123 -1.58095 0.293723 0
M  V30 1345 O 127.313 -1.65209 0.552429 0
M  V30 1346 C 124.445 -3.19561 1.18716 0
M  V30 1347 H 125.638 -1.83186 2.37451 0
M  V30 1348 H 123.191 -0.924746 1.26008 0
M  V30 1349 H 123.926 -3.23557 0.219366 0
M  V30 1350 H 123.711 -3.3797 1.98793 0
M  V30 1351 H 125.201 -3.99598 1.21291 0
M  V30 1352 N 125.638 -1.25649 -0.95132 0
M  V30 1353 C 126.915 -1.01361 -1.67288 0
M  V30 1354 C 127.295 0.459135 -2.06046 0
M  V30 1355 O 126.643 1.43723 -1.7764 0
M  V30 1356 C 126.853 -1.95256 -2.89268 0
M  V30 1357 C 128.201 -2.23289 -3.61147 0
M  V30 1358 O 129.225 -1.93041 -2.99355 0
M  V30 1359 O 128.084 -2.74741 -4.72419 0
M  V30 1360 H 125.178 -0.38464 -0.732107 0
M  V30 1361 H 127.724 -1.36817 -1.00395 0
M  V30 1362 H 126.496 -2.94685 -2.57442 0
M  V30 1363 H 126.119 -1.60218 -3.6389 0
M  V30 1364 N 127.117 1.15442 -1.07289 0
M  V30 1365 C 128.533 1.38201 -0.798288 0
M  V30 1366 C 128.733 1.92429 0.597769 0
M  V30 1367 O 127.789 2.12962 1.3566 0
M  V30 1368 C 129.102 2.35357 -1.87156 0
M  V30 1369 C 130.65 2.49021 -1.89624 0
M  V30 1370 C 131.125 3.49468 -2.96034 0
M  V30 1371 N 132.616 3.57003 -2.95132 0
M  V30 1372 C 133.351 4.34543 -3.74112 0
M  V30 1373 N 132.847 5.15421 -4.6294 0
M  V30 1374 N 134.64 4.29625 -3.62462 0
M  V30 1375 H 126.791 0.78584 -1.97328 0
M  V30 1376 H 129.054 0.408065 -0.855679 0
M  V30 1377 H 128.76 2.02626 -2.87464 0
M  V30 1378 H 128.634 3.35129 -1.73114 0
M  V30 1379 H 131.021 2.81051 -0.899687 0
M  V30 1380 H 131.102 1.4925 -2.07745 0
M  V30 1381 H 130.746 3.18173 -3.95889 0
M  V30 1382 H 130.676 4.48992 -2.75161 0
M  V30 1383 H 133.167 2.99276 -2.30743 0
M  V30 1384 H 133.48 5.7183 -5.19837 0
M  V30 1385 H 131.825 5.14729 -4.66989 0
M  V30 1386 H 135.016 3.65505 -2.92444 0
M  V30 1387 H 135.189 4.89807 -4.24256 0
M  V30 1388 N 128.595 0.856903 1.32268 0
M  V30 1389 C 129.528 0.247937 2.26849 0
M  V30 1390 C 130.506 -0.615382 1.50505 0
M  V30 1391 O 131.69 -0.571689 1.79622 0
M  V30 1392 C 128.817 -0.650093 3.32403 0
M  V30 1393 C 127.863 0.140138 4.2627 0
M  V30 1394 S 128.696 1.51004 5.13769 0
M  V30 1395 C 129.852 0.61778 6.22844 0
M  V30 1396 H 130.085 1.04971 2.78152 0
M  V30 1397 H 127.618 0.654665 1.39834 0
M  V30 1398 H 129.576 -1.16256 3.93694 0
M  V30 1399 H 128.237 -1.4257 2.7988 0
M  V30 1400 H 127.43 -0.543945 5.01056 0
M  V30 1401 H 127.032 0.584267 3.69408 0
M  V30 1402 H 129.324 -0.177053 6.77269 0
M  V30 1403 H 130.267 1.33636 6.95375 0
M  V30 1404 H 130.675 0.191124 5.64176 0
M  V30 1405 N 130.073 -1.45103 0.615059 0
M  V30 1406 C 131.489 -1.57137 0.279322 0
M  V30 1407 C 131.689 -1.60523 -1.21797 0
M  V30 1408 O 130.745 -1.53956 -2.00134 0
M  V30 1409 C 132.058 -2.85062 0.957083 0
M  V30 1410 C 133.606 -2.98749 0.933706 0
M  V30 1411 C 134.081 -4.29455 1.59162 0
M  V30 1412 N 135.572 -4.36231 1.55746 0
M  V30 1413 C 136.307 -5.36051 2.0356 0
M  V30 1414 N 135.803 -6.42367 2.59494 0
M  V30 1415 N 137.596 -5.27456 1.94284 0
M  V30 1416 H 129.747 -1.41148 1.58717 0
M  V30 1417 H 132.01 -0.675331 0.665306 0
M  V30 1418 H 131.716 -2.88488 2.01166 0
M  V30 1419 H 131.59 -3.7407 0.48494 0
M  V30 1420 H 133.977 -2.94886 -0.112347 0
M  V30 1421 H 134.058 -2.11132 1.44419 0
M  V30 1422 H 133.702 -4.34077 2.63704 0
M  V30 1423 H 133.632 -5.15901 1.0561 0
M  V30 1424 H 136.123 -3.60011 1.14893 0
M  V30 1425 H 136.436 -7.14793 2.93752 0
M  V30 1426 H 134.781 -6.43097 2.63537 0
M  V30 1427 H 137.972 -4.43308 1.5032 0
M  V30 1428 H 138.145 -6.05099 2.3186 0
M  V30 1429 N 131.551 -0.354651 -1.53558 0
M  V30 1430 C 132.799 0.237972 -2.00694 0
M  V30 1431 C 133.12 1.50173 -1.24391 0
M  V30 1432 O 132.39 1.92673 -0.354135 0
M  V30 1433 H 130.97 0.0909256 -0.741446 0
M  V30 1434 H 133.632 -0.478368 -1.88938 0
M  V30 1435 H 132.728 0.47264 -3.085 0
M  V30 1436 N 133.029 1.57378 -0.0835403 0
M  V30 1437 C 134.277 1.93547 0.581718 0
M  V30 1438 C 134.598 0.96524 1.69435 0
M  V30 1439 O 133.868 0.0153369 1.95894 0
M  V30 1440 H 132.448 0.714521 0.217874 0
M  V30 1441 H 135.11 1.94366 -0.144158 0
M  V30 1442 H 134.206 2.95665 0.999423 0
M  V30 1443 N 134.507 -0.190092 1.56449 0
M  V30 1444 C 135.923 -0.54113 1.50146 0
M  V30 1445 C 136.123 -1.85603 0.784465 0
M  V30 1446 O 135.179 -2.5024 0.337051 0
M  V30 1447 C 136.492 -0.591241 2.9483 0
M  V30 1448 C 138.04 -0.679732 3.0553 0
M  V30 1449 C 138.515 -0.760908 4.51635 0
M  V30 1450 N 140.006 -0.824302 4.55806 0
M  V30 1451 C 140.741 -0.907365 5.66175 0
M  V30 1452 N 140.237 -0.952422 6.86222 0
M  V30 1453 N 142.03 -0.94494 5.541 0
M  V30 1454 H 134.181 0.67235 2.01478 0
M  V30 1455 H 136.444 0.240127 0.917084 0
M  V30 1456 H 136.15 0.305905 3.50367 0
M  V30 1457 H 136.024 -1.44422 3.48457 0
M  V30 1458 H 138.411 -1.56731 2.50039 0
M  V30 1459 H 138.492 0.199549 2.5502 0
M  V30 1460 H 138.136 0.122336 5.07753 0
M  V30 1461 H 138.066 -1.65606 4.99882 0
M  V30 1462 H 140.557 -0.798526 3.69367 0
M  V30 1463 H 140.87 -1.01645 7.66086 0
M  V30 1464 H 139.215 -0.921014 6.8887 0
M  V30 1465 H 142.406 -0.906612 4.59236 0
M  V30 1466 H 142.579 -1.00622 6.4014 0
M  V30 1467 N 135.985 -1.50799 -0.457987 0
M  V30 1468 C 136.933 -1.71162 -1.575 0
M  V30 1469 C 137.927 -0.577592 -1.59249 0
M  V30 1470 O 139.133 -0.758443 -1.63241 0
M  V30 1471 H 135.508 -0.540468 -0.522875 0
M  V30 1472 H 137.479 -2.64837 -1.37492 0
M  V30 1473 C 136.228 -1.83496 -2.95338 0
M  V30 1474 H 135.551 -2.70153 -2.94716 0
M  V30 1475 H 136.991 -2.01765 -3.72917 0
M  V30 1476 C 135.45 -0.589694 -3.31699 0
M  V30 1477 O 135.98 0.265163 -4.00824 0
M  V30 1478 N 134.186 -0.439845 -2.87252 0
M  V30 1479 H 133.733 -1.13655 -2.31172 0
M  V30 1480 H 133.691 0.392159 -3.11945 0
M  V30 1481 N 137.463 0.71206 -1.40597 0
M  V30 1482 C 138.41 1.82613 -1.41142 0
M  V30 1483 C 139.38 1.63925 -0.267903 0
M  V30 1484 O 140.565 1.85009 -0.466495 0
M  V30 1485 C 137.705 3.20354 -1.28324 0
M  V30 1486 C 136.818 3.50589 -2.52411 0
M  V30 1487 C 135.953 4.77855 -2.32009 0
M  V30 1488 C 134.992 5.01005 -3.51654 0
M  V30 1489 N 134.129 6.19487 -3.30425 0
M  V30 1490 H 138.969 1.81482 -2.36365 0
M  V30 1491 H 136.506 0.886475 -1.17388 0
M  V30 1492 H 138.464 3.99899 -1.18899 0
M  V30 1493 H 137.094 3.20705 -0.367189 0
M  V30 1494 H 136.146 2.65573 -2.72351 0
M  V30 1495 H 137.458 3.63604 -3.41458 0
M  V30 1496 H 136.612 5.65424 -2.19956 0
M  V30 1497 H 135.351 4.67056 -1.40392 0
M  V30 1498 H 134.356 4.1189 -3.64179 0
M  V30 1499 H 135.581 5.13674 -4.44202 0
M  V30 1500 H 133.527 6.09932 -2.41494 0
M  V30 1501 H 133.444 6.33194 -4.13039 0
M  V30 1502 H 134.712 7.09834 -3.22113 0
M  V30 1503 N 138.941 1.26152 0.944643 0
M  V30 1504 C 140.188 1.11492 1.69044 0
M  V30 1505 C 140.516 -0.342366 1.91463 0
M  V30 1506 O 139.771 -1.26812 1.49054 0
M  V30 1507 C 140.07 1.82541 3.07268 0
M  V30 1508 C 139.736 3.32445 3.04616 0
M  V30 1509 C 138.398 3.73337 3.036 0
M  V30 1510 C 140.75 4.28171 2.97185 0
M  V30 1511 C 138.078 5.08348 2.92915 0
M  V30 1512 C 140.43 5.63218 2.88041 0
M  V30 1513 C 139.094 6.03426 2.85366 0
M  V30 1514 H 138.364 0.407977 0.618576 0
M  V30 1515 H 141.011 1.56551 1.10291 0
M  V30 1516 H 139.316 1.29941 3.69625 0
M  V30 1517 H 141.013 1.68642 3.63815 0
M  V30 1518 H 137.603 2.99915 3.06185 0
M  V30 1519 H 141.787 3.97563 2.97081 0
M  V30 1520 H 137.043 5.38667 2.89219 0
M  V30 1521 H 141.217 6.37078 2.81254 0
M  V30 1522 H 138.844 7.07999 2.76842 0
M  V30 1523 N 140.419 -1.14872 1.07899 0
M  V30 1524 C 141.667 -1.85422 0.803941 0
M  V30 1525 C 141.988 -1.83051 -0.67211 0
M  V30 1526 O 141.258 -1.27532 -1.48703 0
M  V30 1527 H 139.838 -0.686537 0.294408 0
M  V30 1528 H 142.5 -1.39226 1.3639 0
M  V30 1529 H 141.596 -2.90399 1.14346 0
M  V30 1530 N 141.898 -0.863906 -1.31812 0
M  V30 1531 C 143.309 -0.52522 -1.7916 0
M  V30 1532 C 143.66 0.957518 -1.71248 0
M  V30 1533 O 142.785 1.74734 -1.27659 0
M  V30 1534 C 143.38 -0.9466 -3.25307 0
M  V30 1535 C 141.939 -0.659668 -3.70574 0
M  V30 1536 C 141.086 -1.14126 -2.52726 0
M  V30 1537 H 144.037 -1.05022 -1.1898 0
M  V30 1538 H 144.058 -0.266766 -3.79564 0
M  V30 1539 H 143.57 -2.02579 -3.31034 0
M  V30 1540 H 141.671 0.408416 -3.70355 0
M  V30 1541 H 141.784 -1.23245 -4.62977 0
M  V30 1542 H 140.148 -0.561216 -2.4844 0
M  V30 1543 H 140.931 -2.22775 -2.61201 0
M  V30 1544 N 143.376 1.44774 -0.622745 0
M  V30 1545 C 144.309 2.27792 0.136329 0
M  V30 1546 C 145.287 1.38041 0.859264 0
M  V30 1547 O 146.471 1.67478 0.86506 0
M  V30 1548 C 143.598 3.16776 1.19878 0
M  V30 1549 C 142.644 4.22575 0.57731 0
M  V30 1550 S 143.477 5.31825 -0.626294 0
M  V30 1551 C 144.633 6.24377 0.436378 0
M  V30 1552 H 144.866 2.91824 -0.567967 0
M  V30 1553 H 142.399 1.48838 -0.410677 0
M  V30 1554 H 144.357 3.68596 1.80686 0
M  V30 1555 H 143.018 2.5198 1.87523 0
M  V30 1556 H 142.211 4.84818 1.37721 0
M  V30 1557 H 141.813 3.73974 0.0440439 0
M  V30 1558 H 144.105 6.64689 1.31128 0
M  V30 1559 H 145.048 7.07941 -0.150271 0
M  V30 1560 H 145.456 5.59381 0.758513 0
M  V30 1561 N 144.854 0.36279 1.53368 0
M  V30 1562 C 146.084 -0.228281 2.05335 0
M  V30 1563 C 146.492 -1.43226 1.23625 0
M  V30 1564 O 145.835 -1.81717 0.269206 0
M  V30 1565 C 145.897 -0.688549 3.52845 0
M  V30 1566 C 145.561 0.398362 4.5526 0
M  V30 1567 C 146.558 1.24732 5.04716 0
M  V30 1568 C 144.243 0.557805 4.99193 0
M  V30 1569 C 146.237 2.2411 5.96702 0
M  V30 1570 C 143.924 1.55495 5.90986 0
M  V30 1571 C 144.922 2.39503 6.39631 0
M  V30 1572 O 144.61 3.37517 7.29615 0
M  V30 1573 H 144.342 -0.044395 0.674541 0
M  V30 1574 H 146.896 0.518668 1.98744 0
M  V30 1575 H 145.126 -1.48706 3.56964 0
M  V30 1576 H 146.815 -1.20231 3.87685 0
M  V30 1577 H 147.581 1.13532 4.71525 0
M  V30 1578 H 143.46 -0.0862959 4.60919 0
M  V30 1579 H 147.004 2.89718 6.34594 0
M  V30 1580 H 142.901 1.66744 6.23592 0
M  V30 1581 H 143.669 3.33213 7.47604 0
M  V30 1582 N 146.332 -1.57332 0.0918853 0
M  V30 1583 C 147.279 -2.13847 -0.868211 0
M  V30 1584 C 148.249 -1.05618 -1.28196 0
M  V30 1585 O 149.434 -1.33387 -1.36427 0
M  V30 1586 C 146.574 -2.72062 -2.12312 0
M  V30 1587 C 145.687 -3.94514 -1.7602 0
M  V30 1588 C 144.822 -4.40903 -2.96273 0
M  V30 1589 C 143.861 -5.55953 -2.56092 0
M  V30 1590 N 142.998 -5.97209 -3.69169 0
M  V30 1591 H 147.838 -2.95575 -0.379406 0
M  V30 1592 H 145.375 -1.46048 -0.175606 0
M  V30 1593 H 147.333 -3.03931 -2.858 0
M  V30 1594 H 145.963 -1.93068 -2.58698 0
M  V30 1595 H 145.015 -3.68979 -0.925135 0
M  V30 1596 H 146.327 -4.7802 -1.42472 0
M  V30 1597 H 145.481 -4.74539 -3.78018 0
M  V30 1598 H 144.22 -3.56291 -3.33029 0
M  V30 1599 H 143.225 -5.21948 -1.72773 0
M  V30 1600 H 144.45 -6.42311 -2.20484 0
M  V30 1601 H 142.396 -5.15543 -4.05649 0
M  V30 1602 H 142.313 -6.75504 -3.39456 0
M  V30 1603 H 143.581 -6.35475 -4.51434 0
M  V30 1604 N 147.81 0.181792 -1.56548 0
M  V30 1605 C 149.226 0.53316 -1.50431 0
M  V30 1606 C 149.426 1.85184 -0.794297 0
M  V30 1607 O 148.482 2.50058 -0.350318 0
M  V30 1608 C 149.795 0.575597 -2.9514 0
M  V30 1609 C 151.343 0.663519 -3.05886 0
M  V30 1610 C 151.818 0.736946 -4.52032 0
M  V30 1611 N 153.309 0.800118 -4.56237 0
M  V30 1612 C 154.044 0.877327 -5.66649 0
M  V30 1613 N 153.54 0.916016 -6.86718 0
M  V30 1614 N 155.333 0.915542 -5.54594 0
M  V30 1615 H 147.484 -0.683025 -2.01118 0
M  V30 1616 H 149.747 -0.244988 -0.915797 0
M  V30 1617 H 149.453 -0.324482 -3.502 0
M  V30 1618 H 149.327 1.42572 -3.49218 0
M  V30 1619 H 151.714 1.55403 -2.50867 0
M  V30 1620 H 151.795 -0.21307 -2.54911 0
M  V30 1621 H 151.439 -0.149262 -5.07681 0
M  V30 1622 H 151.369 1.62953 -5.00753 0
M  V30 1623 H 153.86 0.778926 -3.69785 0
M  V30 1624 H 154.173 0.975813 -7.66614 0
M  V30 1625 H 152.518 0.884469 -6.89349 0
M  V30 1626 H 155.709 0.882245 -4.59711 0
M  V30 1627 H 155.882 0.972253 -6.40665 0
M  V30 1628 N 149.288 1.51039 0.449983 0
M  V30 1629 C 150.565 1.53612 1.21089 0
M  V30 1630 C 150.945 0.292997 2.09057 0
M  V30 1631 O 150.293 -0.72259 2.16774 0
M  V30 1632 C 150.503 2.84337 2.0237 0
M  V30 1633 C 151.851 3.35807 2.59843 0
M  V30 1634 O 152.875 2.85802 2.12593 0
M  V30 1635 O 151.734 4.23029 3.45989 0
M  V30 1636 H 148.828 0.617057 0.550608 0
M  V30 1637 H 151.374 1.63344 0.460082 0
M  V30 1638 H 150.146 3.66278 1.37681 0
M  V30 1639 H 149.769 2.77708 2.84542 0
M  V30 1640 N 150.766 -0.704594 1.40972 0
M  V30 1641 C 152.182 -1.01406 1.23244 0
M  V30 1642 C 152.382 -2.01169 0.115399 0
M  V30 1643 O 151.438 -2.47021 -0.523147 0
M  V30 1644 C 152.751 -1.54728 2.57836 0
M  V30 1645 C 154.299 -1.66658 2.64942 0
M  V30 1646 C 154.774 -2.23383 3.9983 0
M  V30 1647 N 156.265 -2.30756 4.01629 0
M  V30 1648 C 157 -2.75655 5.02794 0
M  V30 1649 N 156.496 -3.20225 6.14352 0
M  V30 1650 N 158.289 -2.75138 4.90159 0
M  V30 1651 H 150.44 -0.0435285 2.12355 0
M  V30 1652 H 152.703 -0.0818951 0.944456 0
M  V30 1653 H 152.409 -0.888832 3.40283 0
M  V30 1654 H 152.283 -2.53084 2.79693 0
M  V30 1655 H 154.67 -2.31617 1.8286 0
M  V30 1656 H 154.751 -0.668717 2.46904 0
M  V30 1657 H 154.395 -1.59043 4.82357 0
M  V30 1658 H 154.325 -3.23904 4.15203 0
M  V30 1659 H 156.816 -1.99291 3.21079 0
M  V30 1660 H 157.129 -3.53084 6.87424 0
M  V30 1661 H 155.474 -3.18156 6.17901 0
M  V30 1662 H 158.665 -2.39661 4.02095 0
M  V30 1663 H 158.838 -3.09812 5.6914 0
M  V30 1664 N 152.244 -1.26651 -0.937939 0
M  V30 1665 C 153.207 -1.08546 -2.01867 0
M  V30 1666 C 154.207 -0.0327327 -1.60767 0
M  V30 1667 O 155.397 -0.276427 -1.71993 0
M  V30 1668 C 152.529 -0.651711 -3.34613 0
M  V30 1669 H 153.722 -2.04502 -2.1936 0
M  V30 1670 H 151.275 -1.09294 -1.11734 0
M  V30 1671 H 152.01 0.309696 -3.22818 0
M  V30 1672 H 151.795 -1.41189 -3.65798 0
M  V30 1673 H 153.285 -0.546973 -4.14002 0
M  V30 1674 N 153.722 1.14298 -1.08507 0
M  V30 1675 C 154.652 2.21542 -0.737646 0
M  V30 1676 C 155.633 1.67773 0.280377 0
M  V30 1677 O 156.818 1.93616 0.150521 0
M  V30 1678 C 153.948 3.46988 -0.147259 0
M  V30 1679 C 152.902 4.13789 -1.09374 0
M  V30 1680 C 152.228 5.33449 -0.365524 0
M  V30 1681 C 153.528 4.62208 -2.4323 0
M  V30 1682 H 155.222 2.5086 -1.6343 0
M  V30 1683 H 152.768 1.20576 -0.787243 0
M  V30 1684 H 154.721 4.21262 0.107808 0
M  V30 1685 H 153.445 3.17037 0.784538 0
M  V30 1686 H 152.104 3.4147 -1.33393 0
M  V30 1687 H 151.752 4.99759 0.57011 0
M  V30 1688 H 151.452 5.79088 -0.996512 0
M  V30 1689 H 152.976 6.10485 -0.118534 0
M  V30 1690 H 154.39 5.27952 -2.23472 0
M  V30 1691 H 152.787 5.18553 -3.02031 0
M  V30 1692 H 153.857 3.77224 -3.04681 0
M  V30 1693 N 155.201 0.870884 1.31352 0
M  V30 1694 C 156.148 0.325425 2.28494 0
M  V30 1695 C 157.118 -0.576615 1.5577 0
M  V30 1696 O 158.303 -0.508059 1.83911 0
M  V30 1697 C 155.443 -0.466283 3.41935 0
M  V30 1698 C 154.556 0.463378 4.29508 0
M  V30 1699 C 153.691 -0.342544 5.30094 0
M  V30 1700 C 152.73 0.583486 6.09313 0
M  V30 1701 N 151.867 -0.186244 7.01853 0
M  V30 1702 H 156.707 1.15901 2.74538 0
M  V30 1703 H 154.244 0.58294 1.35056 0
M  V30 1704 H 156.202 -0.941085 4.06447 0
M  V30 1705 H 154.832 -1.26456 2.97 0
M  V30 1706 H 153.884 1.05663 3.65431 0
M  V30 1707 H 155.196 1.1734 4.84802 0
M  V30 1708 H 154.35 -0.879816 6.00287 0
M  V30 1709 H 153.089 -1.08585 4.75458 0
M  V30 1710 H 152.094 1.13251 5.3801 0
M  V30 1711 H 153.319 1.32566 6.66035 0
M  V30 1712 H 151.265 -0.912348 6.49625 0
M  V30 1713 H 151.182 0.464422 7.54572 0
M  V30 1714 H 152.45 -0.704716 7.76308 0
M  V30 1715 N 156.679 -1.44442 0.630414 0
M  V30 1716 C 157.611 -2.2892 -0.113347 0
M  V30 1717 C 158.624 -1.41243 -0.80959 0
M  V30 1718 O 159.813 -1.65402 -0.671156 0
M  V30 1719 C 156.913 -3.17594 -1.18266 0
M  V30 1720 C 156.086 -4.33682 -0.569073 0
M  V30 1721 C 155.145 -5.03397 -1.53226 0
M  V30 1722 O 154.171 -5.59438 -1.04967 0
M  V30 1723 N 155.373 -5.04783 -2.86661 0
M  V30 1724 H 158.138 -2.93392 0.611636 0
M  V30 1725 H 155.699 -1.54881 0.471523 0
M  V30 1726 H 157.691 -3.61097 -1.82732 0
M  V30 1727 H 156.261 -2.54876 -1.80988 0
M  V30 1728 H 155.481 -3.9338 0.254187 0
M  V30 1729 H 156.769 -5.08608 -0.139767 0
M  V30 1730 H 156.167 -4.60584 -3.28449 0
M  V30 1731 H 154.724 -5.52077 -3.46489 0
M  V30 1732 N 158.157 -0.370918 -1.53173 0
M  V30 1733 C 159.089 0.507823 -2.23503 0
M  V30 1734 C 160.102 1.04182 -1.251 0
M  V30 1735 O 161.291 0.947286 -1.5129 0
M  V30 1736 C 158.391 1.71447 -2.92334 0
M  V30 1737 C 157.564 1.31105 -4.17289 0
M  V30 1738 C 156.623 2.38035 -4.69282 0
M  V30 1739 O 155.649 2.00204 -5.32829 0
M  V30 1740 N 156.851 3.69697 -4.47554 0
M  V30 1741 H 159.616 -0.0946382 -2.99551 0
M  V30 1742 H 157.177 -0.196358 -1.60705 0
M  V30 1743 H 159.169 2.42469 -3.24023 0
M  V30 1744 H 157.739 2.22368 -2.19707 0
M  V30 1745 H 156.959 0.430462 -3.91843 0
M  V30 1746 H 158.247 1.0179 -4.98514 0
M  V30 1747 H 157.645 4.03205 -3.9679 0
M  V30 1748 H 156.202 4.36807 -4.8378 0
M  V30 1749 N 159.635 1.57281 -0.100228 0
M  V30 1750 C 160.582 2.14305 0.856858 0
M  V30 1751 C 161.552 1.06296 1.27634 0
M  V30 1752 O 162.737 1.34109 1.35718 0
M  V30 1753 C 159.877 2.73184 2.10866 0
M  V30 1754 C 158.99 3.95442 1.73925 0
M  V30 1755 C 158.125 4.42468 2.93931 0
M  V30 1756 C 157.164 5.57303 2.5314 0
M  V30 1757 N 156.301 5.99158 3.65997 0
M  V30 1758 H 161.141 2.95772 0.363726 0
M  V30 1759 H 158.678 1.46139 0.167858 0
M  V30 1760 H 160.636 3.05442 2.84185 0
M  V30 1761 H 159.266 1.94437 2.57671 0
M  V30 1762 H 158.318 3.69464 0.905554 0
M  V30 1763 H 159.63 4.78769 1.39935 0
M  V30 1764 H 158.784 4.76537 3.75496 0
M  V30 1765 H 157.523 3.58052 3.31134 0
M  V30 1766 H 156.528 5.22857 1.70003 0
M  V30 1767 H 157.753 6.43471 2.17075 0
M  V30 1768 H 155.699 5.17687 4.02909 0
M  V30 1769 H 155.616 6.77295 3.35869 0
M  V30 1770 H 156.884 6.3786 4.48057 0
M  V30 1771 N 161.113 -0.173488 1.56642 0
M  V30 1772 C 162.06 -1.21482 1.96242 0
M  V30 1773 C 163.03 -1.44104 0.826027 0
M  V30 1774 O 164.215 -1.5688 1.08597 0
M  V30 1775 C 161.355 -2.54964 2.32567 0
M  V30 1776 C 160.468 -2.39739 3.59373 0
M  V30 1777 C 159.603 -3.66072 3.84921 0
M  V30 1778 C 158.642 -3.45771 5.05083 0
M  V30 1779 N 157.779 -4.64169 5.26775 0
M  V30 1780 H 162.619 -0.870123 2.85014 0
M  V30 1781 H 160.156 -0.418245 1.41029 0
M  V30 1782 H 162.114 -3.32758 2.5165 0
M  V30 1783 H 160.744 -2.87433 1.46908 0
M  V30 1784 H 159.796 -1.53131 3.48217 0
M  V30 1785 H 161.108 -2.20683 4.47326 0
M  V30 1786 H 160.262 -4.52303 4.0436 0
M  V30 1787 H 159.001 -3.88105 2.9534 0
M  V30 1788 H 158.006 -2.57927 4.85545 0
M  V30 1789 H 159.231 -3.25163 5.96193 0
M  V30 1790 H 157.177 -4.86425 4.40144 0
M  V30 1791 H 157.094 -4.48019 6.08946 0
M  V30 1792 H 158.362 -5.51689 5.5069 0
M  V30 1793 N 162.591 -1.51276 -0.441967 0
M  V30 1794 C 163.554 -1.7167 -1.51862 0
M  V30 1795 C 164.554 -0.586793 -1.49711 0
M  V30 1796 O 165.744 -0.854276 -1.51815 0
M  V30 1797 C 162.876 -1.76889 -2.91416 0
M  V30 1798 H 164.069 -2.67754 -1.35084 0
M  V30 1799 H 161.622 -1.41196 -0.670333 0
M  V30 1800 H 162.357 -0.826026 -3.13604 0
M  V30 1801 H 162.142 -2.59001 -2.94382 0
M  V30 1802 H 163.632 -1.94522 -3.69528 0
M  V30 1803 N 164.069 0.697108 -1.41344 0
M  V30 1804 C 165.001 1.8224 -1.39001 0
M  V30 1805 C 166.014 1.60152 -0.292428 0
M  V30 1806 O 167.203 1.69684 -0.554048 0
M  V30 1807 C 164.303 3.18976 -1.14489 0
M  V30 1808 C 163.476 3.68105 -2.36258 0
M  V30 1809 C 162.535 4.83506 -2.07625 0
M  V30 1810 O 161.561 4.95201 -2.8065 0
M  V30 1811 N 162.763 5.70637 -1.06555 0
M  V30 1812 H 165.528 1.84742 -2.35988 0
M  V30 1813 H 163.089 0.87937 -1.35936 0
M  V30 1814 H 165.081 3.93801 -0.932885 0
M  V30 1815 H 163.651 3.11508 -0.261043 0
M  V30 1816 H 162.871 2.84204 -2.7317 0
M  V30 1817 H 164.159 3.97667 -3.17393 0
M  V30 1818 H 163.557 5.63817 -0.461125 0
M  V30 1819 H 162.114 6.45368 -0.913444 0
M  V30 1820 N 165.547 1.27147 0.931209 0
M  V30 1821 C 166.796 1.12664 1.67302 0
M  V30 1822 C 167.109 -0.327718 1.92835 0
M  V30 1823 O 168.315 -0.593392 2.64936 0
M  V30 1824 C 166.771 1.9683 3.01307 0
M  V30 1825 C 166.379 3.46901 2.83485 0
M  V30 1826 C 168.123 1.90985 3.79111 0
M  V30 1827 C 166.03 4.23279 4.13024 0
M  V30 1828 H 164.96 0.41803 0.627509 0
M  V30 1829 H 167.611 1.51539 1.03481 0
M  V30 1830 H 165.993 1.50797 3.66164 0
M  V30 1831 H 167.167 4.00773 2.27415 0
M  V30 1832 H 165.482 3.54088 2.19113 0
M  V30 1833 H 168.079 2.45328 4.75098 0
M  V30 1834 H 168.422 0.882718 4.06834 0
M  V30 1835 H 168.955 2.34895 3.21044 0
M  V30 1836 H 165.694 5.26503 3.90481 0
M  V30 1837 H 165.214 3.74186 4.6877 0
M  V30 1838 H 166.893 4.32265 4.81411 0
M  V30 1839 N 167.025 -1.13721 1.09112 0
M  V30 1840 C 168.441 -1.36914 0.820174 0
M  V30 1841 C 168.641 -1.93356 -0.567079 0
M  V30 1842 O 167.697 -2.15093 -1.32255 0
M  V30 1843 C 169.01 -2.3235 1.90877 0
M  V30 1844 C 170.558 -2.45973 1.93562 0
M  V30 1845 C 171.033 -3.44714 3.01556 0
M  V30 1846 N 172.524 -3.52263 3.00775 0
M  V30 1847 C 173.259 -4.28536 3.80978 0
M  V30 1848 N 172.755 -5.07991 4.71081 0
M  V30 1849 N 174.548 -4.23804 3.69251 0
M  V30 1850 H 166.699 -0.754348 1.98553 0
M  V30 1851 H 168.962 -0.3944 0.862063 0
M  V30 1852 H 168.668 -1.98027 2.90651 0
M  V30 1853 H 168.542 -3.32332 1.78424 0
M  V30 1854 H 170.929 -2.79584 0.944286 0
M  V30 1855 H 171.01 -1.45926 2.10093 0
M  V30 1856 H 170.654 -3.11835 4.00901 0
M  V30 1857 H 170.584 -4.44558 2.82269 0
M  V30 1858 H 173.075 -2.95567 2.35475 0
M  V30 1859 H 173.388 -5.63487 5.28869 0
M  V30 1860 H 171.733 -5.07235 4.75119 0
M  V30 1861 H 174.924 -3.60806 2.98222 0
M  V30 1862 H 175.097 -4.82995 4.31995 0
M  V30 1863 N 168.503 -0.877838 -1.30888 0
M  V30 1864 C 169.466 -0.344265 -2.266 0
M  V30 1865 C 170.466 0.50922 -1.52524 0
M  V30 1866 O 171.656 0.317398 -1.71284 0
M  V30 1867 C 168.788 0.510198 -3.37061 0
M  V30 1868 H 169.981 -1.1893 -2.7531 0
M  V30 1869 H 167.534 -0.654088 -1.41956 0
M  V30 1870 H 168.269 1.37612 -2.93655 0
M  V30 1871 H 168.054 -0.101047 -3.9197 0
M  V30 1872 H 169.544 0.875537 -4.08319 0
M  V30 1873 N 169.982 1.44106 -0.638065 0
M  V30 1874 C 170.93 2.3248 0.0748149 0
M  V30 1875 C 171.924 1.47746 0.828702 0
M  V30 1876 O 173.13 1.64049 0.740816 0
M  V30 1877 H 169.505 0.750771 0.0429686 0
M  V30 1878 H 171.476 2.90348 -0.688504 0
M  V30 1879 C 170.225 3.31843 1.03805 0
M  V30 1880 H 169.548 3.97059 0.467375 0
M  V30 1881 H 170.988 3.96345 1.50622 0
M  V30 1882 C 169.447 2.61291 2.1267 0
M  V30 1883 O 169.977 2.41702 3.20847 0
M  V30 1884 N 168.183 2.20915 1.88798 0
M  V30 1885 H 167.73 2.37047 1.00829 0
M  V30 1886 H 167.688 1.74038 2.61836 0
M  V30 1887 N 171.46 0.379036 1.52974 0
M  V30 1888 C 172.708 -0.206014 2.01047 0
M  V30 1889 C 173.029 -1.48175 1.26765 0
M  V30 1890 O 172.299 -1.92085 0.384743 0
M  V30 1891 H 170.879 -0.0791184 0.742798 0
M  V30 1892 H 173.541 0.508366 1.88153 0
M  V30 1893 H 172.637 -0.423501 3.09213 0
M  V30 1894 N 172.938 -1.57226 0.108567 0
M  V30 1895 C 174.185 -1.94833 -0.551943 0
M  V30 1896 C 174.513 -0.991204 -1.67348 0
M  V30 1897 O 173.768 -0.0131878 -1.95696 0
M  V30 1898 C 174.067 -3.38911 -1.13463 0
M  V30 1899 C 173.733 -4.50696 -0.135509 0
M  V30 1900 C 172.395 -4.80998 0.139252 0
M  V30 1901 C 174.747 -5.18333 0.545957 0
M  V30 1902 C 172.075 -5.76259 1.10194 0
M  V30 1903 C 174.427 -6.14627 1.49721 0
M  V30 1904 C 173.091 -6.43327 1.78006 0
M  V30 1905 H 172.361 -0.712944 -0.20197 0
M  V30 1906 H 175.008 -1.90582 0.18726 0
M  V30 1907 H 173.313 -3.39805 -1.95037 0
M  V30 1908 H 175.01 -3.65317 -1.65362 0
M  V30 1909 H 171.6 -4.27087 -0.359846 0
M  V30 1910 H 175.784 -4.95087 0.346842 0
M  V30 1911 H 171.04 -5.96804 1.32795 0
M  V30 1912 H 175.214 -6.66126 2.03099 0
M  V30 1913 H 172.841 -7.1695 2.52759 0
M  V30 1914 N 174.416 0.165178 -1.56732 0
M  V30 1915 C 175.363 1.2044 -1.96883 0
M  V30 1916 C 176.333 1.43664 -0.833657 0
M  V30 1917 O 177.518 1.56302 -1.09427 0
M  V30 1918 C 174.658 2.53727 -2.33916 0
M  V30 1919 C 173.771 2.3783 -3.6064 0
M  V30 1920 C 172.906 3.64026 -3.86857 0
M  V30 1921 C 171.945 3.43088 -5.06909 0
M  V30 1922 N 171.082 4.61369 -5.29229 0
M  V30 1923 H 175.922 0.854996 -2.85471 0
M  V30 1924 H 173.459 0.41076 -1.41249 0
M  V30 1925 H 175.417 3.31419 -2.53411 0
M  V30 1926 H 174.047 2.8665 -1.48431 0
M  V30 1927 H 173.099 1.51282 -3.49024 0
M  V30 1928 H 174.411 2.18308 -4.4849 0
M  V30 1929 H 173.565 4.50152 -4.06753 0
M  V30 1930 H 172.304 3.86533 -2.97394 0
M  V30 1931 H 171.309 2.55349 -4.86906 0
M  V30 1932 H 172.534 3.21997 -5.97909 0
M  V30 1933 H 170.48 4.84084 -4.42718 0
M  V30 1934 H 170.397 4.44783 -6.11313 0
M  V30 1935 H 171.665 5.48761 -5.53608 0
M  V30 1936 N 175.894 1.51508 0.433938 0
M  V30 1937 C 176.824 1.76016 1.53429 0
M  V30 1938 C 177.805 0.610112 1.58782 0
M  V30 1939 O 178.99 0.853177 1.74455 0
M  V30 1940 C 176.12 1.88831 2.9148 0
M  V30 1941 C 175.074 3.04288 3.00987 0
M  V30 1942 C 174.4 3.0229 4.4105 0
M  V30 1943 C 175.7 4.44193 2.74754 0
M  V30 1944 H 177.394 2.68152 1.33171 0
M  V30 1945 H 174.94 1.29035 0.639214 0
M  V30 1946 H 176.893 2.04559 3.6842 0
M  V30 1947 H 175.617 0.933455 3.12976 0
M  V30 1948 H 174.276 2.8827 2.26486 0
M  V30 1949 H 173.924 2.04576 4.59519 0
M  V30 1950 H 173.624 3.79822 4.4834 0
M  V30 1951 H 175.148 3.20116 5.1996 0
M  V30 1952 H 176.562 4.60544 3.41426 0
M  V30 1953 H 174.959 5.23457 2.9345 0
M  V30 1954 H 176.029 4.53996 1.70339 0
M  V30 1955 N 177.372 -0.689602 1.41712 0
M  V30 1956 C 178.282 -1.83314 1.46401 0
M  V30 1957 C 179.298 -1.7036 0.35405 0
M  V30 1958 O 180.474 -1.92171 0.602692 0
M  V30 1959 C 177.539 -3.19344 1.34982 0
M  V30 1960 C 176.6 -3.44363 2.56344 0
M  V30 1961 C 175.833 -4.73904 2.45461 0
M  V30 1962 O 176.056 -5.508 1.48241 0
M  V30 1963 O 174.99 -4.99839 3.35328 0
M  V30 1964 H 178.816 -1.82314 2.42889 0
M  V30 1965 H 176.401 -0.843438 1.23315 0
M  V30 1966 H 178.283 -4.00547 1.3092 0
M  V30 1967 H 176.958 -3.21014 0.41612 0
M  V30 1968 H 175.865 -2.63067 2.65982 0
M  V30 1969 H 177.198 -3.47512 3.48563 0
M  V30 1970 N 178.85 -1.27639 -0.924453 0
M  V30 1971 C 180.078 -1.16989 -1.70649 0
M  V30 1972 C 180.493 0.272869 -1.86818 0
M  V30 1973 O 179.85 1.18549 -1.38753 0
M  V30 1974 C 179.901 -1.85229 -3.10439 0
M  V30 1975 O 179.622 -3.23868 -2.95028 0
M  V30 1976 C 181.123 -1.80746 -4.04779 0
M  V30 1977 H 178.343 -0.406595 -0.53378 0
M  V30 1978 H 180.887 -1.68569 -1.15778 0
M  V30 1979 H 179.042 -1.37545 -3.6216 0
M  V30 1980 H 179.456 -3.57889 -3.83426 0
M  V30 1981 H 180.93 -2.33101 -5.00368 0
M  V30 1982 H 181.407 -0.777499 -4.32263 0
M  V30 1983 H 182.013 -2.28059 -3.58984 0
M  V30 1984 N 180.328 1.1314 -1.09713 0
M  V30 1985 C 181.576 1.84119 -0.833338 0
M  V30 1986 C 181.897 1.84097 0.642904 0
M  V30 1987 O 181.167 1.29881 1.46655 0
M  V30 1988 H 179.747 0.681766 -0.305293 0
M  V30 1989 H 182.409 1.37038 -1.38588 0
M  V30 1990 H 181.505 2.88543 -1.18951 0
M  V30 1991 N 181.806 0.884767 1.30421 0
M  V30 1992 C 183.217 0.553656 1.78302 0
M  V30 1993 C 183.568 -0.930153 1.7275 0
M  V30 1994 O 182.693 -1.72681 1.30423 0
M  V30 1995 C 183.288 0.998234 3.2376 0
M  V30 1996 C 181.847 0.71854 3.69478 0
M  V30 1997 C 180.994 1.18132 2.50879 0
M  V30 1998 H 183.945 1.06901 1.17294 0
M  V30 1999 H 183.966 0.327118 3.79091 0
M  V30 2000 H 183.478 2.0782 3.27769 0
M  V30 2001 H 181.579 -0.349444 3.70958 0
M  V30 2002 H 181.692 1.30595 4.60958 0
M  V30 2003 H 180.056 0.600669 2.47516 0
M  V30 2004 H 180.839 2.26902 2.57624 0
M  V30 2005 N 183.284 -1.43765 0.645699 0
M  V30 2006 C 184.695 -1.85193 0.236719 0
M  V30 2007 C 185.046 -1.54045 -1.21509 0
M  V30 2008 O 184.171 -0.985694 -1.92647 0
M  V30 2009 C 184.766 -3.36151 0.422845 0
M  V30 2010 C 183.325 -3.76338 0.0682492 0
M  V30 2011 C 182.472 -2.67538 0.729306 0
M  V30 2012 H 185.423 -1.34025 0.849883 0
M  V30 2013 H 185.444 -3.79032 -0.333904 0
M  V30 2014 H 184.956 -3.5879 1.47958 0
M  V30 2015 H 183.057 -3.59312 -0.986179 0
M  V30 2016 H 183.17 -4.76603 0.488469 0
M  V30 2017 H 181.534 -2.54176 0.163235 0
M  V30 2018 H 182.317 -2.93006 1.78892 0
M  V30 2019 N 184.763 -0.387143 -1.52771 0
M  V30 2020 C 185.696 0.493123 -2.22808 0
M  V30 2021 C 186.674 1.0658 -1.22798 0
M  V30 2022 O 187.858 1.11785 -1.51777 0
M  V30 2023 C 184.985 1.68238 -2.93962 0
M  V30 2024 C 184.031 1.23515 -4.08223 0
M  V30 2025 S 184.864 0.21848 -5.35054 0
M  V30 2026 C 186.02 1.41357 -6.09729 0
M  V30 2027 H 186.253 -0.101625 -2.97126 0
M  V30 2028 H 183.786 -0.171323 -1.53447 0
M  V30 2029 H 185.744 2.36443 -3.35567 0
M  V30 2030 H 184.405 2.24842 -2.19328 0
M  V30 2031 H 183.598 2.12304 -4.57103 0
M  V30 2032 H 183.2 0.632044 -3.68621 0
M  V30 2033 H 185.492 2.34101 -6.3577 0
M  V30 2034 H 186.435 0.965736 -7.01484 0
M  V30 2035 H 186.843 1.6294 -5.40473 0
M  V30 2036 N 186.241 1.57166 -0.116904 0
M  V30 2037 C 187.489 1.94737 0.540533 0
M  V30 2038 C 187.81 1.00096 1.67349 0
M  V30 2039 O 187.08 0.0568854 1.95817 0
M  V30 2040 H 185.66 0.718981 0.202669 0
M  V30 2041 H 188.322 1.94017 -0.185353 0
M  V30 2042 H 187.418 2.97719 0.936483 0
M  V30 2043 N 187.719 -0.156864 1.56817 0
M  V30 2044 C 188.965 -0.872416 1.83076 0
M  V30 2045 C 189.298 -1.81261 0.697001 0
M  V30 2046 O 188.573 -1.92171 -0.30008 0
M  V30 2047 C 188.856 -1.65551 3.19789 0
M  V30 2048 C 188.709 -0.737467 4.43713 0
M  V30 2049 C 190.028 -2.62012 3.53606 0
M  V30 2050 H 187.147 -0.315715 0.665953 0
M  V30 2051 H 189.789 -0.138004 1.89498 0
M  V30 2052 H 187.939 -2.28159 3.14445 0
M  V30 2053 H 189.611 -0.123143 4.61136 0
M  V30 2054 H 187.854 -0.0464067 4.33775 0
M  V30 2055 H 188.525 -1.32122 5.35955 0
M  V30 2056 H 191.001 -2.09525 3.59497 0
M  V30 2057 H 189.877 -3.13861 4.50314 0
M  V30 2058 H 190.138 -3.42902 2.79053 0
M  V30 2059 N 189.197 -1.51736 -0.425897 0
M  V30 2060 C 190.608 -1.5732 -1.00536 0
M  V30 2061 C 190.959 -0.403537 -1.92005 0
M  V30 2062 O 190.084 0.478256 -2.11049 0
M  V30 2063 C 190.679 -2.85119 -1.8301 0
M  V30 2064 C 189.238 -2.93236 -2.35987 0
M  V30 2065 C 188.385 -2.52098 -1.15508 0
M  V30 2066 H 191.336 -1.57348 -0.206739 0
M  V30 2067 H 191.357 -2.69526 -2.68581 0
M  V30 2068 H 190.869 -3.7023 -1.16411 0
M  V30 2069 H 188.97 -2.12581 -3.06007 0
M  V30 2070 H 189.083 -3.9713 -2.68001 0
M  V30 2071 H 187.447 -2.05558 -1.50393 0
M  V30 2072 H 188.23 -3.39565 -0.505014 0
M  V30 2073 N 190.675 0.682077 -1.42076 0
M  V30 2074 C 192.086 1.26246 -1.37546 0
M  V30 2075 C 192.437 1.96092 -0.0651481 0
M  V30 2076 O 191.562 1.99587 0.836297 0
M  V30 2077 C 192.157 2.29594 -2.49143 0
M  V30 2078 C 190.716 2.83175 -2.47969 0
M  V30 2079 C 189.863 1.57395 -2.28303 0
M  V30 2080 H 192.814 0.475937 -1.51395 0
M  V30 2081 H 192.835 3.11175 -2.18976 0
M  V30 2082 H 192.347 1.78729 -3.44496 0
M  V30 2083 H 190.448 3.3818 -1.56413 0
M  V30 2084 H 190.561 3.32687 -3.44755 0
M  V30 2085 H 188.925 1.83699 -1.76428 0
M  V30 2086 H 189.708 1.08507 -3.25701 0
M  V30 2087 N 192.153 1.28127 0.917671 0
M  V30 2088 C 193.564 1.13622 1.48145 0
M  V30 2089 C 193.915 -0.275207 1.9426 0
M  V30 2090 O 193.04 -1.1691 1.82102 0
M  V30 2091 C 193.635 2.05648 2.69248 0
M  V30 2092 C 192.194 1.95219 3.21818 0
M  V30 2093 C 191.341 1.97618 1.94532 0
M  V30 2094 H 194.292 1.40874 0.730772 0
M  V30 2095 H 194.313 1.61818 3.44377 0
M  V30 2096 H 193.825 3.08365 2.35653 0
M  V30 2097 H 191.926 0.955244 3.60147 0
M  V30 2098 H 192.039 2.81976 3.87333 0
M  V30 2099 H 190.403 1.41973 2.11461 0
M  V30 2100 H 191.186 3.02007 1.63238 0
M  V30 2101 N 193.631 -1.12557 1.10312 0
M  V30 2102 C 195.042 -1.65574 0.862678 0
M  V30 2103 C 195.393 -1.86566 -0.607256 0
M  V30 2104 O 194.518 -1.59121 -1.46662 0
M  V30 2105 C 195.113 -3.00776 1.55947 0
M  V30 2106 C 193.672 -3.50748 1.36576 0
M  V30 2107 C 192.819 -2.25797 1.60968 0
M  V30 2108 H 195.77 -0.963552 1.26101 0
M  V30 2109 H 195.791 -3.67185 0.997753 0
M  V30 2110 H 195.303 -2.85465 2.62928 0
M  V30 2111 H 193.404 -3.71245 0.317531 0
M  V30 2112 H 193.517 -4.30289 2.10686 0
M  V30 2113 H 191.881 -2.32841 1.03234 0
M  V30 2114 H 192.664 -2.13043 2.69198 0
M  V30 2115 N 195.109 -0.891671 -1.2995 0
M  V30 2116 C 196.52 -0.563104 -1.78006 0
M  V30 2117 C 196.871 0.920978 -1.73241 0
M  V30 2118 O 195.996 1.71987 -1.31337 0
M  V30 2119 C 196.591 -1.01539 -3.23226 0
M  V30 2120 C 195.15 -0.738124 -3.69092 0
M  V30 2121 C 194.297 -1.19461 -2.50249 0
M  V30 2122 H 197.248 -1.07522 -1.16725 0
M  V30 2123 H 197.269 -0.347217 -3.78912 0
M  V30 2124 H 196.781 -2.09555 -3.26662 0
M  V30 2125 H 194.882 0.329766 -3.71138 0
M  V30 2126 H 194.995 -1.33037 -4.60259 0
M  V30 2127 H 193.359 -0.613787 -2.47194 0
M  V30 2128 H 194.142 -2.28265 -2.56417 0
M  V30 2129 N 196.587 1.43421 -0.653314 0
M  V30 2130 C 197.998 1.85065 -0.246537 0
M  V30 2131 C 198.349 1.54688 1.2069 0
M  V30 2132 O 197.474 0.995896 1.92122 0
M  V30 2133 C 198.069 3.35922 -0.440666 0
M  V30 2134 C 196.628 3.76297 -0.0882064 0
M  V30 2135 C 195.775 2.67147 -0.743484 0
M  V30 2136 H 198.726 1.33572 -0.856979 0
M  V30 2137 H 198.747 3.79204 0.313798 0
M  V30 2138 H 198.259 3.58 -1.49858 0
M  V30 2139 H 196.36 3.5983 0.96711 0
M  V30 2140 H 196.473 4.76338 -0.513738 0
M  V30 2141 H 194.837 2.54086 -0.176712 0
M  V30 2142 H 195.62 2.92053 -1.80443 0
M  V30 2143 N 198.065 0.39524 1.52563 0
M  V30 2144 C 199.028 -0.425001 2.25225 0
M  V30 2145 C 200.028 -0.985266 1.27079 0
M  V30 2146 O 201.218 -0.866332 1.5113 0
M  V30 2147 C 198.35 -1.59686 3.01186 0
M  V30 2148 H 199.543 0.211233 2.99155 0
M  V30 2149 H 197.096 0.147472 1.55603 0
M  V30 2150 H 197.831 -2.27035 2.31572 0
M  V30 2151 H 197.616 -1.20176 3.73229 0
M  V30 2152 H 199.106 -2.17743 3.5634 0
M  V30 2153 N 199.544 -1.57102 0.125237 0
M  V30 2154 C 200.955 -1.82384 -0.399142 0
M  V30 2155 C 201.306 -1.04276 -1.66195 0
M  V30 2156 O 200.431 -0.281269 -2.14564 0
M  V30 2157 C 201.026 -3.30821 -0.730932 0
M  V30 2158 C 199.585 -3.56762 -1.19992 0
M  V30 2159 C 198.732 -2.7649 -0.211792 0
M  V30 2160 H 201.683 -1.54786 0.350277 0
M  V30 2161 H 201.704 -3.4579 -1.58775 0
M  V30 2162 H 201.216 -3.87643 0.188345 0
M  V30 2163 H 199.317 -3.05305 -2.13588 0
M  V30 2164 H 199.43 -4.65317 -1.14093 0
M  V30 2165 H 197.794 -2.4489 -0.700085 0
M  V30 2166 H 198.577 -3.36073 0.700691 0
M  V30 2167 N 201.022 0.148545 -1.56898 0
M  V30 2168 C 202.299 0.890019 -1.74178 0
M  V30 2169 C 202.679 1.99407 -0.692839 0
M  V30 2170 O 202.027 2.26671 0.288505 0
M  V30 2171 C 202.237 1.43389 -3.18183 0
M  V30 2172 C 203.585 1.89791 -3.79822 0
M  V30 2173 O 204.609 1.53134 -3.21603 0
M  V30 2174 O 203.468 2.57387 -4.82093 0
M  V30 2175 H 200.562 0.420496 -0.712118 0
M  V30 2176 H 203.108 0.134591 -1.69165 0
M  V30 2177 H 201.88 0.640383 -3.86024 0
M  V30 2178 H 201.503 2.25287 -3.27615 0
M  V30 2179 N 202.5 1.5196 0.417844 0
M  V30 2180 C 203.73 1.69181 1.18581 0
M  V30 2181 C 204.138 0.397104 1.84986 0
M  V30 2182 O 203.481 -0.636011 1.72339 0
M  V30 2183 C 203.543 2.76497 2.29759 0
M  V30 2184 C 203.207 4.18514 1.83563 0
M  V30 2185 C 204.204 5.02648 1.32821 0
M  V30 2186 C 201.889 4.64708 1.90661 0
M  V30 2187 C 203.883 6.31044 0.897894 0
M  V30 2188 C 201.57 5.93096 1.47241 0
M  V30 2189 C 202.568 6.76093 0.968891 0
M  V30 2190 O 202.256 8.02078 0.540924 0
M  V30 2191 H 201.988 0.570457 0.362705 0
M  V30 2192 H 204.542 1.99249 0.498885 0
M  V30 2193 H 202.772 2.41786 3.01789 0
M  V30 2194 H 204.461 2.82403 2.91553 0
M  V30 2195 H 205.227 4.68154 1.26716 0
M  V30 2196 H 201.106 4.00216 2.28797 0
M  V30 2197 H 204.65 6.95776 0.504192 0
M  V30 2198 H 200.547 6.271 1.53022 0
M  V30 2199 H 201.315 8.15794 0.66502 0
M  V30 2200 N 203.978 -0.674533 1.42435 0
M  V30 2201 C 205.224 -1.43671 1.43131 0
M  V30 2202 C 205.557 -1.94142 0.0476021 0
M  V30 2203 O 204.832 -1.70924 -0.928188 0
M  V30 2204 C 205.115 -2.63355 2.45594 0
M  V30 2205 C 204.968 -2.18514 3.93156 0
M  V30 2206 C 206.287 -3.65571 2.45043 0
M  V30 2207 H 203.406 -0.521077 0.521198 0
M  V30 2208 H 206.048 -0.766551 1.7385 0
M  V30 2209 H 204.198 -3.2053 2.19528 0
M  V30 2210 H 205.87 -1.66504 4.30202 0
M  V30 2211 H 204.113 -1.50086 4.07009 0
M  V30 2212 H 204.784 -3.04484 4.60428 0
M  V30 2213 H 207.26 -3.18113 2.68223 0
M  V30 2214 H 206.136 -4.46893 3.18713 0
M  V30 2215 H 206.397 -4.16716 1.47649 0
M  V30 2216 N 205.456 -1.28612 -0.910864 0
M  V30 2217 C 206.386 -1.15326 -2.03032 0
M  V30 2218 C 207.367 -0.0502924 -1.70026 0
M  V30 2219 O 208.552 -0.227797 -1.92859 0
M  V30 2220 C 205.682 -0.817343 -3.37545 0
M  V30 2221 C 204.636 -1.8754 -3.84724 0
M  V30 2222 C 203.962 -1.39305 -5.16235 0
M  V30 2223 C 205.262 -3.28244 -4.06267 0
M  V30 2224 H 206.956 -2.08975 -2.14406 0
M  V30 2225 H 204.502 -1.00612 -1.03021 0
M  V30 2226 H 206.455 -0.711151 -4.15356 0
M  V30 2227 H 205.179 0.154846 -3.26233 0
M  V30 2228 H 203.838 -1.97079 -3.09121 0
M  V30 2229 H 203.486 -0.409846 -5.01328 0
M  V30 2230 H 203.186 -2.10057 -5.48771 0
M  V30 2231 H 204.71 -1.30014 -5.96598 0
M  V30 2232 H 206.124 -3.21611 -4.74594 0
M  V30 2233 H 204.521 -3.96855 -4.5014 0
M  V30 2234 H 205.591 -3.72048 -3.10979 0
M  V30 2235 N 206.934 1.1197 -1.10907 0
M  V30 2236 C 208.345 1.65114 -0.871446 0
M  V30 2237 C 208.696 1.86885 0.597353 0
M  V30 2238 O 207.821 1.59896 1.45816 0
M  V30 2239 C 208.416 2.99944 -1.5754 0
M  V30 2240 C 206.975 3.50018 -1.38435 0
M  V30 2241 C 206.122 2.24941 -1.62164 0
M  V30 2242 H 209.073 0.956851 -1.2661 0
M  V30 2243 H 209.094 3.66651 -1.01721 0
M  V30 2244 H 208.606 2.84067 -2.64438 0
M  V30 2245 H 206.707 3.71071 -0.337214 0
M  V30 2246 H 206.82 4.29165 -2.12965 0
M  V30 2247 H 205.184 2.3229 -1.04467 0
M  V30 2248 H 205.967 2.11612 -2.70324 0
M  V30 2249 N 208.412 0.89855 1.29475 0
M  V30 2250 C 209.823 0.572537 1.77705 0
M  V30 2251 C 210.174 -0.911778 1.73727 0
M  V30 2252 O 209.299 -1.71288 1.32247 0
M  V30 2253 C 209.894 1.03252 3.22683 0
M  V30 2254 C 208.453 0.757687 3.68695 0
M  V30 2255 C 207.6 1.20787 2.49612 0
M  V30 2256 H 210.551 1.08139 1.16153 0
M  V30 2257 H 210.572 0.367307 3.78723 0
M  V30 2258 H 210.084 2.11285 3.25546 0
M  V30 2259 H 208.185 -0.310079 3.71308 0
M  V30 2260 H 208.298 1.35476 4.59547 0
M  V30 2261 H 206.662 0.626888 2.46865 0
M  V30 2262 H 207.445 2.29622 2.55203 0
M  V30 2263 N 209.89 -1.43072 0.660911 0
M  V30 2264 C 211.115 -2.06584 0.183805 0
M  V30 2265 C 211.54 -1.49257 -1.14472 0
M  V30 2266 O 210.898 -0.605528 -1.70889 0
M  V30 2267 C 210.946 -3.60418 0.114434 0
M  V30 2268 O 210.05 -4.01981 -0.921137 0
M  V30 2269 H 209.391 -0.656669 0.0983994 0
M  V30 2270 H 211.921 -1.83447 0.906006 0
M  V30 2271 H 211.931 -4.07946 -0.0663394 0
M  V30 2272 H 210.606 -4.01519 1.08422 0
M  V30 2273 H 209.183 -3.66029 -0.71253 0
M  V30 2274 N 211.368 -0.403325 -1.52352 0
M  V30 2275 C 212.298 0.416205 -2.29761 0
M  V30 2276 C 213.279 1.05123 -1.33728 0
M  V30 2277 O 214.464 1.06134 -1.62632 0
M  V30 2278 C 211.594 1.53624 -3.11475 0
M  V30 2279 C 210.548 1.02653 -4.15507 0
M  V30 2280 C 209.874 2.23971 -4.85532 0
M  V30 2281 C 211.174 0.08463 -5.22231 0
M  V30 2282 H 212.868 -0.229701 -2.98518 0
M  V30 2283 H 210.414 -0.111913 -1.43564 0
M  V30 2284 H 212.367 2.1165 -3.64393 0
M  V30 2285 H 211.091 2.20994 -2.40477 0
M  V30 2286 H 209.75 0.46871 -3.63591 0
M  V30 2287 H 209.398 2.89883 -4.11068 0
M  V30 2288 H 209.098 1.90521 -5.55856 0
M  V30 2289 H 210.622 2.82614 -5.41259 0
M  V30 2290 H 212.036 0.573509 -5.70424 0
M  V30 2291 H 210.433 -0.160783 -5.99885 0
M  V30 2292 H 211.503 -0.86237 -4.7717 0
M  V30 2293 N 212.846 1.57033 -0.133567 0
M  V30 2294 C 213.796 2.12641 0.822671 0
M  V30 2295 C 214.78 1.05081 1.21847 0
M  V30 2296 O 215.972 1.31287 1.18713 0
M  V30 2297 C 213.101 2.74094 2.06706 0
M  V30 2298 C 212.187 3.88757 1.69497 0
M  V30 2299 N 212.578 4.95194 1.03037 0
M  V30 2300 C 210.876 3.99213 1.98859 0
M  V30 2301 C 211.577 5.75414 0.852873 0
M  V30 2302 N 210.553 5.25726 1.3825 0
M  V30 2303 H 214.355 2.92308 0.305537 0
M  V30 2304 H 211.869 1.62256 0.0684276 0
M  V30 2305 H 213.866 3.12285 2.76195 0
M  V30 2306 H 212.526 1.95896 2.5895 0
M  V30 2307 H 213.537 5.13247 0.692669 0
M  V30 2308 H 210.214 3.32075 2.53047 0
M  V30 2309 H 211.604 6.71089 0.330091 0
M  V30 2310 N 214.325 -0.140222 1.56975 0
M  V30 2311 C 215.573 -0.850005 1.83356 0
M  V30 2312 C 215.894 -1.81399 0.71551 0
M  V30 2313 O 215.164 -1.94136 -0.262294 0
M  V30 2314 H 213.744 -0.316886 0.676456 0
M  V30 2315 H 216.406 -0.132608 1.94448 0
M  V30 2316 H 215.502 -1.40814 2.78528 0
M  V30 2317 N 215.803 -1.52179 -0.40978 0
M  V30 2318 C 217.214 -1.58377 -0.988615 0
M  V30 2319 C 217.565 -0.423879 -1.91566 0
M  V30 2320 O 216.69 0.455844 -2.11544 0
M  V30 2321 C 217.285 -2.87044 -1.79976 0
M  V30 2322 C 215.844 -2.95722 -2.32863 0
M  V30 2323 C 214.991 -2.53309 -1.12828 0
M  V30 2324 H 217.942 -1.57558 -0.190039 0
M  V30 2325 H 217.963 -2.7236 -2.65707 0
M  V30 2326 H 217.475 -3.71444 -1.12478 0
M  V30 2327 H 215.576 -2.15814 -3.03735 0
M  V30 2328 H 215.689 -3.99951 -2.63773 0
M  V30 2329 H 214.053 -2.07142 -1.48204 0
M  V30 2330 H 214.836 -3.40082 -0.46897 0
M  V30 2331 N 217.281 0.66697 -1.42791 0
M  V30 2332 C 218.191 1.80962 -1.49299 0
M  V30 2333 C 219.207 1.69775 -0.381108 0
M  V30 2334 O 220.383 1.91188 -0.633188 0
M  V30 2335 C 217.448 3.17156 -1.40045 0
M  V30 2336 C 216.509 3.40242 -2.6179 0
M  V30 2337 C 215.742 4.69939 -2.52969 0
M  V30 2338 O 215.965 5.48372 -1.56985 0
M  V30 2339 O 214.899 4.94441 -3.43237 0
M  V30 2340 H 218.725 1.78427 -2.45759 0
M  V30 2341 H 216.31 0.823713 -1.24641 0
M  V30 2342 H 218.192 3.98413 -1.37276 0
M  V30 2343 H 216.867 3.20312 -0.467138 0
M  V30 2344 H 215.774 2.58802 -2.70134 0
M  V30 2345 H 217.107 3.41923 -3.54047 0
M  V30 2346 N 218.759 1.29093 0.90403 0
M  V30 2347 C 220.17 1.15186 1.46932 0
M  V30 2348 C 220.521 -0.254587 1.94541 0
M  V30 2349 O 219.646 -1.14972 1.83332 0
M  V30 2350 C 220.241 2.08492 2.67051 0
M  V30 2351 C 218.8 1.98621 3.19729 0
M  V30 2352 C 217.947 1.9967 1.92425 0
M  V30 2353 H 220.898 1.41641 0.715789 0
M  V30 2354 H 220.919 1.65461 3.42641 0
M  V30 2355 H 220.431 3.10847 2.3237 0
M  V30 2356 H 218.532 0.993389 3.59114 0
M  V30 2357 H 218.645 2.86068 3.8432 0
M  V30 2358 H 217.009 1.44208 2.09943 0
M  V30 2359 H 217.792 3.03721 1.60026 0
M  V30 2360 N 220.237 -1.11381 1.11499 0
M  V30 2361 C 221.184 -2.17439 0.773887 0
M  V30 2362 C 222.154 -1.64132 -0.254899 0
M  V30 2363 O 223.339 -1.90345 -0.13168 0
M  V30 2364 C 220.479 -3.44373 0.223917 0
M  V30 2365 C 219.592 -4.1168 1.30934 0
M  V30 2366 C 218.727 -5.263 0.71984 0
M  V30 2367 C 217.766 -5.85493 1.78507 0
M  V30 2368 N 216.903 -6.91507 1.21502 0
M  V30 2369 H 221.743 -2.45962 1.68246 0
M  V30 2370 H 219.28 -1.20744 0.840191 0
M  V30 2371 H 221.238 -4.17047 -0.112921 0
M  V30 2372 H 219.868 -3.16232 -0.647851 0
M  V30 2373 H 218.92 -3.37073 1.76312 0
M  V30 2374 H 220.232 -4.51729 2.11524 0
M  V30 2375 H 219.386 -6.05785 0.333094 0
M  V30 2376 H 218.125 -4.87559 -0.117377 0
M  V30 2377 H 217.13 -5.04686 2.18111 0
M  V30 2378 H 218.355 -6.26301 2.62533 0
M  V30 2379 H 216.301 -6.54783 0.399455 0
M  V30 2380 H 216.218 -7.30214 1.95763 0
M  V30 2381 H 217.486 -7.74795 0.855181 0
M  V30 2382 N 221.715 -0.905404 -1.28997 0
M  V30 2383 C 222.963 -0.533192 -1.9494 0
M  V30 2384 C 223.284 0.924618 -1.71685 0
M  V30 2385 O 222.554 1.65268 -1.05183 0
M  V30 2386 H 221.134 -0.194194 -0.721317 0
M  V30 2387 H 223.796 -1.15294 -1.57141 0
M  V30 2388 H 222.892 -0.72059 -3.03667 0
M  V30 2389 N 223.193 1.4272 -0.668489 0
M  V30 2390 C 224.123 2.335 -0.000100175 0
M  V30 2391 C 225.104 1.50328 0.795964 0
M  V30 2392 O 226.289 1.78949 0.754385 0
M  V30 2393 C 223.419 3.33874 0.956302 0
M  V30 2394 C 222.373 4.27152 0.269278 0
M  V30 2395 C 221.699 5.17684 1.33818 0
M  V30 2396 C 222.999 5.15373 -0.847805 0
M  V30 2397 H 224.693 2.89639 -0.758244 0
M  V30 2398 H 222.239 1.39269 -0.366079 0
M  V30 2399 H 224.192 3.9629 1.43292 0
M  V30 2400 H 222.916 2.76025 1.74579 0
M  V30 2401 H 221.575 3.66123 -0.187042 0
M  V30 2402 H 221.223 4.56165 2.1195 0
M  V30 2403 H 220.923 5.80918 0.883659 0
M  V30 2404 H 222.447 5.82974 1.81586 0
M  V30 2405 H 223.861 5.7151 -0.452681 0
M  V30 2406 H 222.258 5.87407 -1.22773 0
M  V30 2407 H 223.328 4.5415 -1.69929 0
M  V30 2408 N 224.671 0.411399 1.52136 0
M  V30 2409 C 225.634 -0.401089 2.25663 0
M  V30 2410 C 226.634 -0.971732 1.28117 0
M  V30 2411 O 227.824 -0.850254 1.52041 0
M  V30 2412 C 224.956 -1.56483 3.02863 0
M  V30 2413 H 226.149 0.24295 2.98914 0
M  V30 2414 H 223.702 0.163968 1.55438 0
M  V30 2415 H 224.437 -2.24567 2.33967 0
M  V30 2416 H 224.222 -1.16211 3.74483 0
M  V30 2417 H 225.712 -2.13951 3.58629 0
M  V30 2418 N 226.149 -1.5696 0.141893 0
M  V30 2419 C 227.112 -2.15316 -0.785587 0
M  V30 2420 C 228.112 -1.09366 -1.1788 0
M  V30 2421 O 229.302 -1.35031 -1.10056 0
M  V30 2422 C 226.434 -2.71211 -2.06537 0
M  V30 2423 H 227.627 -2.98608 -0.278041 0
M  V30 2424 H 225.18 -1.5593 -0.107519 0
M  V30 2425 H 225.915 -1.91571 -2.6167 0
M  V30 2426 H 225.7 -3.4872 -1.79268 0
M  V30 2427 H 227.19 -3.16189 -2.72789 0
M  V30 2428 N 227.627 0.131896 -1.57047 0
M  V30 2429 C 228.875 0.840269 -1.83804 0
M  V30 2430 C 229.196 1.81017 -0.72512 0
M  V30 2431 O 228.466 1.94272 0.251995 0
M  V30 2432 H 227.046 0.313294 -0.678127 0
M  V30 2433 H 229.708 0.122294 -1.94516 0
M  V30 2434 H 228.804 1.39335 -2.79271 0
M  V30 2435 N 229.106 1.52395 0.401703 0
M  V30 2436 C 230.517 1.58899 0.980202 0
M  V30 2437 C 230.868 0.434032 1.91339 0
M  V30 2438 O 229.993 -0.444619 2.11783 0
M  V30 2439 C 230.588 2.87994 1.78451 0
M  V30 2440 C 229.147 2.96953 2.31292 0
M  V30 2441 C 228.294 2.53903 1.11483 0
M  V30 2442 H 231.245 1.57657 0.18168 0
M  V30 2443 H 231.266 2.73765 2.64259 0
M  V30 2444 H 230.778 3.72035 1.10506 0
M  V30 2445 H 228.879 2.17422 3.02586 0
M  V30 2446 H 228.992 4.01344 2.61649 0
M  V30 2447 H 227.356 2.07925 1.47104 0
M  V30 2448 H 228.139 3.40326 0.450928 0
M  V30 2449 N 230.584 -0.659388 1.43143 0
M  V30 2450 C 231.995 -1.24041 1.39537 0
M  V30 2451 C 232.346 -1.95963 0.0963364 0
M  V30 2452 O 231.471 -2.00892 -0.804438 0
M  V30 2453 C 232.066 -2.25601 2.52764 0
M  V30 2454 C 230.625 -2.79195 2.52443 0
M  V30 2455 C 229.772 -1.53743 2.30778 0
M  V30 2456 H 232.723 -0.451792 1.52133 0
M  V30 2457 H 232.744 -3.07651 2.23899 0
M  V30 2458 H 232.256 -1.73226 3.47296 0
M  V30 2459 H 230.357 -3.35649 1.61773 0
M  V30 2460 H 230.47 -3.2716 3.50004 0
M  V30 2461 H 228.834 -1.80869 1.79328 0
M  V30 2462 H 229.617 -1.03312 3.27386 0
M  V30 2463 N 232.062 -1.29571 -0.897171 0
M  V30 2464 C 233.025 -1.14913 -1.98312 0
M  V30 2465 C 234.025 -0.0838629 -1.60581 0
M  V30 2466 O 235.215 -0.331006 -1.71026 0
M  V30 2467 C 232.347 -0.757835 -3.3237 0
M  V30 2468 H 233.54 -2.11377 -2.12743 0
M  V30 2469 H 231.093 -1.12793 -1.08201 0
M  V30 2470 H 231.828 0.206837 -3.2364 0
M  V30 2471 H 231.613 -1.52755 -3.61121 0
M  V30 2472 H 233.103 -0.678408 -4.12053 0
M  V30 2473 N 233.54 1.10788 -1.12088 0
M  V30 2474 C 234.788 1.8231 -0.872205 0
M  V30 2475 C 235.109 1.85419 0.603709 0
M  V30 2476 O 234.379 1.32963 1.43867 0
M  V30 2477 H 232.959 0.675137 -0.319686 0
M  V30 2478 H 235.621 1.34068 -1.41463 0
M  V30 2479 H 234.717 2.85955 -1.25045 0
M  V30 2480 N 235.018 0.912232 1.28515 0
M  V30 2481 C 236.429 0.591352 1.77087 0
M  V30 2482 C 236.78 -0.8933 1.74684 0
M  V30 2483 O 235.905 -1.69876 1.34056 0
M  V30 2484 C 236.5 1.06668 3.2157 0
M  V30 2485 C 235.059 0.79675 3.67871 0
M  V30 2486 C 234.206 1.23427 2.48316 0
M  V30 2487 H 237.157 1.09365 1.15 0
M  V30 2488 H 237.178 0.407455 3.78312 0
M  V30 2489 H 236.69 2.14726 3.23287 0
M  V30 2490 H 234.791 -0.270679 3.71616 0
M  V30 2491 H 234.904 1.40343 4.58084 0
M  V30 2492 H 233.268 0.653036 2.46186 0
M  V30 2493 H 234.051 2.32316 2.52753 0
M  V30 2494 N 236.496 -1.42363 0.676048 0
M  V30 2495 C 237.426 -2.33497 0.0124832 0
M  V30 2496 C 238.407 -1.50748 -0.787981 0
M  V30 2497 O 239.592 -1.79346 -0.744884 0
M  V30 2498 C 236.722 -3.34377 -0.938582 0
M  V30 2499 C 235.676 -4.27289 -0.246622 0
M  V30 2500 C 235.002 -5.18386 -1.31071 0
M  V30 2501 C 236.302 -5.14916 0.875125 0
M  V30 2502 H 237.996 -2.89233 0.773593 0
M  V30 2503 H 235.542 -1.39073 0.37346 0
M  V30 2504 H 237.495 -3.97044 -1.41188 0
M  V30 2505 H 236.219 -2.76947 -1.73113 0
M  V30 2506 H 234.878 -3.66018 0.206456 0
M  V30 2507 H 234.526 -4.57282 -2.09528 0
M  V30 2508 H 234.226 -5.81378 -0.852839 0
M  V30 2509 H 235.75 -5.83929 -1.78492 0
M  V30 2510 H 237.164 -5.71262 0.482983 0
M  V30 2511 H 235.561 -5.86747 1.25887 0
M  V30 2512 H 236.631 -4.53242 1.72335 0
M  V30 2513 N 237.974 -0.419461 -1.51915 0
M  V30 2514 C 239.222 0.152637 -2.01523 0
M  V30 2515 C 239.543 1.44762 -1.30649 0
M  V30 2516 O 238.813 1.90997 -0.435535 0
M  V30 2517 H 237.393 0.0593966 -0.744635 0
M  V30 2518 H 240.055 -0.558073 -1.86739 0
M  V30 2519 H 239.151 0.341369 -3.10227 0
M  V30 2520 N 239.452 1.56882 -0.150215 0
M  V30 2521 C 240.729 1.87844 0.545327 0
M  V30 2522 C 241.109 1.0567 1.82749 0
M  V30 2523 O 240.457 0.144442 2.28043 0
M  V30 2524 C 240.667 3.39526 0.80767 0
M  V30 2525 C 242.015 4.08814 1.14703 0
M  V30 2526 O 243.039 3.44723 0.896917 0
M  V30 2527 O 241.898 5.22004 1.61784 0
M  V30 2528 H 238.992 0.778677 0.278553 0
M  V30 2529 H 241.538 1.68666 -0.187068 0
M  V30 2530 H 240.31 3.91173 -0.0996096 0
M  V30 2531 H 239.933 3.64243 1.59413 0
M  V30 2532 N 240.93 -0.123565 1.57115 0
M  V30 2533 C 242.177 -0.832153 1.84612 0
M  V30 2534 C 242.505 -1.80093 0.734627 0
M  V30 2535 O 241.76 -1.93766 -0.27442 0
M  V30 2536 C 242.059 -1.62016 3.18568 0
M  V30 2537 C 241.725 -0.796084 4.43817 0
M  V30 2538 C 240.387 -0.568816 4.77826 0
M  V30 2539 C 242.739 -0.221364 5.2073 0
M  V30 2540 C 240.067 0.243499 5.86194 0
M  V30 2541 C 242.419 0.578117 6.29953 0
M  V30 2542 C 241.083 0.815744 6.62497 0
M  V30 2543 H 240.353 -0.304507 0.675542 0
M  V30 2544 H 243 -0.0947248 1.91266 0
M  V30 2545 H 241.305 -2.42837 3.0747 0
M  V30 2546 H 243.002 -2.17231 3.37064 0
M  V30 2547 H 239.592 -0.983307 4.17168 0
M  V30 2548 H 243.776 -0.384173 4.94811 0
M  V30 2549 H 239.032 0.436871 6.09837 0
M  V30 2550 H 243.206 1.03046 6.88734 0
M  V30 2551 H 240.833 1.44701 7.46301 0
M  V30 2552 N 242.408 -1.52605 -0.393616 0
M  V30 2553 C 243.656 -1.67093 -1.13685 0
M  V30 2554 C 243.977 -0.411011 -1.90619 0
M  V30 2555 O 243.247 0.574491 -1.87287 0
M  V30 2556 H 241.827 -0.615923 -0.422668 0
M  V30 2557 H 244.489 -1.89704 -0.447039 0
M  V30 2558 H 243.585 -2.51922 -1.84232 0
M  V30 2559 N 243.887 0.651787 -1.4349 0
M  V30 2560 C 244.85 1.74647 -1.48429 0
M  V30 2561 C 245.85 1.56513 -0.368817 0
M  V30 2562 O 247.04 1.62385 -0.630623 0
M  V30 2563 C 244.172 3.13533 -1.33827 0
M  V30 2564 H 245.365 1.71649 -2.4592 0
M  V30 2565 H 242.918 0.863573 -1.30277 0
M  V30 2566 H 243.653 3.22142 -0.37349 0
M  V30 2567 H 243.438 3.28101 -2.14691 0
M  V30 2568 H 244.928 3.93356 -1.40218 0
M  V30 2569 N 245.365 1.30045 0.890287 0
M  V30 2570 C 246.776 1.16738 1.45702 0
M  V30 2571 C 247.127 -0.233939 1.948 0
M  V30 2572 O 246.252 -1.13021 1.84541 0
M  V30 2573 C 246.847 2.11313 2.64825 0
M  V30 2574 C 245.406 2.02001 3.17604 0
M  V30 2575 C 244.553 2.01699 1.90296 0
M  V30 2576 H 247.504 1.42392 0.700726 0
M  V30 2577 H 247.525 1.69086 3.40867 0
M  V30 2578 H 247.037 3.13294 2.2906 0
M  V30 2579 H 245.138 1.03142 3.5804 0
M  V30 2580 H 245.251 2.90128 3.81264 0
M  V30 2581 H 243.615 1.46427 2.08402 0
M  V30 2582 H 244.398 3.05402 1.56795 0
M  V30 2583 N 246.843 -1.10192 1.12674 0
M  V30 2584 C 247.806 -2.14786 0.799979 0
M  V30 2585 C 248.806 -1.59711 -0.18685 0
M  V30 2586 O 249.996 -1.74156 0.0392558 0
M  V30 2587 C 247.128 -3.40374 0.189228 0
M  V30 2588 H 248.321 -2.45203 1.72671 0
M  V30 2589 H 245.874 -1.25597 0.930326 0
M  V30 2590 H 246.609 -3.15577 -0.747107 0
M  V30 2591 H 246.394 -3.81637 0.899766 0
M  V30 2592 H 247.884 -4.17594 -0.0228143 0
M  V30 2593 N 248.321 -0.919034 -1.28029 0
M  V30 2594 C 249.251 -0.428581 -2.29533 0
M  V30 2595 C 250.232 0.50659 -1.62381 0
M  V30 2596 O 251.417 0.413195 -1.89753 0
M  V30 2597 C 248.547 0.327388 -3.45753 0
M  V30 2598 C 247.501 -0.519137 -4.2484 0
M  V30 2599 C 246.827 0.365486 -5.33449 0
M  V30 2600 C 248.127 -1.77914 -4.91064 0
M  V30 2601 H 249.821 -1.27687 -2.70807 0
M  V30 2602 H 247.367 -0.615428 -1.30186 0
M  V30 2603 H 249.32 0.681378 -4.15855 0
M  V30 2604 H 248.044 1.20963 -3.03374 0
M  V30 2605 H 246.703 -0.855717 -3.56473 0
M  V30 2606 H 246.351 1.24642 -4.87312 0
M  V30 2607 H 246.051 -0.197356 -5.87268 0
M  V30 2608 H 247.575 0.715241 -6.06396 0
M  V30 2609 H 248.989 -1.49374 -5.53498 0
M  V30 2610 H 247.386 -2.2848 -5.54903 0
M  V30 2611 H 248.456 -2.50382 -4.15255 0
M  V30 2612 N 249.799 1.42003 -0.683588 0
M  V30 2613 C 251.21 1.84501 -0.285736 0
M  V30 2614 C 251.561 1.57213 1.17382 0
M  V30 2615 O 250.686 1.03642 1.89966 0
M  V30 2616 C 251.281 3.34912 -0.511821 0
M  V30 2617 C 249.84 3.76025 -0.168005 0
M  V30 2618 C 248.987 2.6551 -0.799983 0
M  V30 2619 H 251.938 1.31724 -0.885119 0
M  V30 2620 H 251.959 3.79784 0.233292 0
M  V30 2621 H 251.471 3.54741 -1.57418 0
M  V30 2622 H 249.572 3.61801 0.890567 0
M  V30 2623 H 249.685 4.75141 -0.614661 0
M  V30 2624 H 248.049 2.53654 -0.230568 0
M  V30 2625 H 248.832 2.8816 -1.86597 0
M  V30 2626 N 251.277 0.427512 1.51691 0
M  V30 2627 C 252.21 -0.433876 2.24037 0
M  V30 2628 C 253.188 -1.03287 1.25581 0
M  V30 2629 O 254.372 -1.07722 1.54688 0
M  V30 2630 C 251.499 -1.60385 2.98319 0
M  V30 2631 C 250.545 -1.12648 4.11355 0
M  V30 2632 S 251.378 -0.076543 5.35445 0
M  V30 2633 C 252.534 -1.25141 6.13262 0
M  V30 2634 H 252.767 0.180367 2.96752 0
M  V30 2635 H 250.3 0.211946 1.52938 0
M  V30 2636 H 252.258 -2.27462 3.41718 0
M  V30 2637 H 250.919 -2.18948 2.25213 0
M  V30 2638 H 250.112 -2.0011 4.62571 0
M  V30 2639 H 249.714 -0.534088 3.70167 0
M  V30 2640 H 252.006 -2.17162 6.41753 0
M  V30 2641 H 252.949 -0.779411 7.03797 0
M  V30 2642 H 253.357 -1.48553 5.44603 0
M  V30 2643 N 252.755 -1.56801 0.158532 0
M  V30 2644 C 253.718 -2.16138 -0.762705 0
M  V30 2645 C 254.718 -1.1061 -1.16713 0
M  V30 2646 O 255.908 -1.36191 -1.08617 0
M  V30 2647 C 253.04 -2.73386 -2.03649 0
M  V30 2648 H 254.233 -2.98886 -0.246354 0
M  V30 2649 H 251.786 -1.56035 -0.0909744 0
M  V30 2650 H 252.521 -1.94335 -2.59623 0
M  V30 2651 H 252.306 -3.50601 -1.75559 0
M  V30 2652 H 253.796 -3.19065 -2.6942 0
M  V30 2653 N 254.233 0.115231 -1.57178 0
M  V30 2654 C 255.479 0.82357 -1.85325 0
M  V30 2655 C 255.812 1.79349 -0.744814 0
M  V30 2656 O 255.087 1.92899 0.249024 0
M  V30 2657 C 255.37 1.57014 -3.24066 0
M  V30 2658 C 255.223 0.619565 -4.45513 0
M  V30 2659 C 256.542 2.52545 -3.60429 0
M  V30 2660 H 253.661 0.297948 -0.674089 0
M  V30 2661 H 256.303 0.0877138 -1.89797 0
M  V30 2662 H 254.453 2.19742 -3.20383 0
M  V30 2663 H 256.125 0.000837639 -4.613 0
M  V30 2664 H 254.368 -0.0686174 -4.33746 0
M  V30 2665 H 255.039 1.17866 -5.3927 0
M  V30 2666 H 257.515 1.9992 -3.64926 0
M  V30 2667 H 256.391 3.01811 -4.58477 0
M  V30 2668 H 256.652 3.35383 -2.88047 0
M  V30 2669 N 255.711 1.52812 0.385517 0
M  V30 2670 C 257.122 1.5993 0.963293 0
M  V30 2671 C 257.473 0.454302 1.90868 0
M  V30 2672 O 256.598 -0.422132 2.12243 0
M  V30 2673 C 257.193 2.89871 1.75387 0
M  V30 2674 C 255.752 2.99389 2.28129 0
M  V30 2675 C 254.899 2.55071 1.08783 0
M  V30 2676 H 257.85 1.5784 0.164948 0
M  V30 2677 H 257.871 2.76553 2.61341 0
M  V30 2678 H 257.383 3.73186 1.06554 0
M  V30 2679 H 255.484 2.20619 3.00263 0
M  V30 2680 H 255.597 4.04096 2.57377 0
M  V30 2681 H 253.961 2.09473 1.4489 0
M  V30 2682 H 254.744 3.40785 0.414807 0
M  V30 2683 N 257.189 -0.644168 1.43834 0
M  V30 2684 C 258.437 -1.40117 1.45642 0
M  V30 2685 C 258.758 -1.94814 0.0852413 0
M  V30 2686 O 258.028 -1.74988 -0.880688 0
M  V30 2687 H 256.608 -0.52005 0.536243 0
M  V30 2688 H 259.27 -0.7591 1.7951 0
M  V30 2689 H 258.366 -2.23902 2.17427 0
M  V30 2690 N 258.668 -1.30515 -0.883378 0
M  V30 2691 C 259.631 -1.1701 -1.97082 0
M  V30 2692 C 260.631 -0.10089 -1.60483 0
M  V30 2693 O 261.821 -0.349127 -1.70666 0
M  V30 2694 C 258.953 -0.793045 -3.31547 0
M  V30 2695 H 260.146 -2.13622 -2.10489 0
M  V30 2696 H 257.699 -1.13935 -1.06998 0
M  V30 2697 H 258.434 0.172499 -3.23841 0
M  V30 2698 H 258.219 -1.56576 -3.5948 0
M  V30 2699 H 259.709 -0.722073 -4.1131 0
M  V30 2700 N 260.146 1.09593 -1.13257 0
M  V30 2701 C 261.096 2.14345 -0.777179 0
M  V30 2702 C 262.08 1.59277 0.227966 0
M  V30 2703 O 263.272 1.76971 0.0321413 0
M  V30 2704 C 260.401 3.42439 -0.242991 0
M  V30 2705 C 259.487 4.04419 -1.27694 0
M  V30 2706 N 259.878 4.40979 -2.47732 0
M  V30 2707 C 258.176 4.31596 -1.12432 0
M  V30 2708 C 258.877 4.89784 -3.13826 0
M  V30 2709 N 257.853 4.87133 -2.41252 0
M  V30 2710 H 261.655 2.40415 -1.69049 0
M  V30 2711 H 259.169 1.26803 -1.01463 0
M  V30 2712 H 261.166 4.16889 0.0298496 0
M  V30 2713 H 259.826 3.17824 0.66467 0
M  V30 2714 H 260.837 4.32396 -2.85051 0
M  V30 2715 H 257.514 4.16595 -0.274684 0
M  V30 2716 H 258.904 5.2755 -4.16102 0
M  V30 2717 N 261.624 0.925811 1.2754 0
M  V30 2718 C 262.872 0.564138 1.94067 0
M  V30 2719 C 263.193 -0.897188 1.73134 0
M  V30 2720 O 262.463 -1.63573 1.07799 0
M  V30 2721 H 261.043 0.205645 0.718136 0
M  V30 2722 H 263.705 1.1778 1.55287 0
M  V30 2723 H 262.801 0.76881 3.02483 0
M  V30 2724 N 263.102 -1.41638 0.69111 0
M  V30 2725 C 264.513 -1.84346 0.295517 0
M  V30 2726 C 264.864 -1.57833 -1.16547 0
M  V30 2727 O 263.989 -1.04648 -1.89414 0
M  V30 2728 C 264.584 -3.34636 0.529575 0
M  V30 2729 C 263.143 -3.7593 0.187944 0
M  V30 2730 C 262.29 -2.65082 0.814052 0
M  V30 2731 H 265.241 -1.31253 0.892092 0
M  V30 2732 H 265.262 -3.79903 -0.213148 0
M  V30 2733 H 264.774 -3.53901 1.59297 0
M  V30 2734 H 262.875 -3.62268 -0.871367 0
M  V30 2735 H 262.988 -4.74808 0.63985 0
M  V30 2736 H 261.352 -2.53528 0.244017 0
M  V30 2737 H 262.135 -2.87167 1.88123 0
M  V30 2738 N 264.58 -0.43555 -1.51462 0
M  V30 2739 C 265.51 0.367376 -2.30592 0
M  V30 2740 C 266.491 1.02263 -1.35928 0
M  V30 2741 O 267.676 1.02661 -1.64847 0
M  V30 2742 C 264.806 1.46983 -3.14664 0
M  V30 2743 C 263.76 0.938161 -4.17591 0
M  V30 2744 C 263.086 2.13622 -4.90173 0
M  V30 2745 C 264.386 -0.0261621 -5.22293 0
M  V30 2746 H 266.08 -0.292969 -2.97963 0
M  V30 2747 H 263.626 -0.14234 -1.43295 0
M  V30 2748 H 265.579 2.03873 -3.688 0
M  V30 2749 H 264.303 2.15843 -2.4511 0
M  V30 2750 H 262.962 0.391481 -3.64504 0
M  V30 2751 H 262.61 2.81098 -4.17124 0
M  V30 2752 H 262.31 1.78688 -5.59772 0
M  V30 2753 H 263.834 2.7107 -5.47132 0
M  V30 2754 H 265.248 0.452384 -5.71512 0
M  V30 2755 H 263.645 -0.287992 -5.99409 0
M  V30 2756 H 264.715 -0.963391 -4.75233 0
M  V30 2757 N 266.058 1.56714 -0.166846 0
M  V30 2758 C 267.021 2.16539 0.751232 0
M  V30 2759 C 268.021 1.11228 1.16125 0
M  V30 2760 O 269.211 1.36765 1.07894 0
M  V30 2761 C 266.343 2.74462 2.02196 0
M  V30 2762 H 267.536 2.99013 0.230499 0
M  V30 2763 H 265.089 1.56081 0.0826982 0
M  V30 2764 H 265.824 1.95709 2.58589 0
M  V30 2765 H 265.609 3.51527 1.73698 0
M  V30 2766 H 267.099 3.20489 2.67725 0
M  V30 2767 N 267.536 -0.106894 1.57237 0
M  V30 2768 C 268.784 -0.810921 1.85117 0
M  V30 2769 C 269.105 -1.7984 0.753827 0
M  V30 2770 O 268.375 -1.94649 -0.221056 0
M  V30 2771 H 266.955 -0.302466 0.683025 0
M  V30 2772 H 269.617 -0.0913324 1.94686 0
M  V30 2773 H 268.713 -1.34875 2.81452 0
M  V30 2774 N 269.014 -1.53014 -0.377408 0
M  V30 2775 C 270.244 -1.72265 -1.14054 0
M  V30 2776 C 270.652 -0.44601 -1.83868 0
M  V30 2777 O 269.995 0.590095 -1.73964 0
M  V30 2778 C 270.057 -2.82492 -2.22348 0
M  V30 2779 C 269.721 -4.23233 -1.72402 0
M  V30 2780 C 270.718 -5.05992 -1.19448 0
M  V30 2781 C 268.403 -4.696 -1.78273 0
M  V30 2782 C 270.397 -6.33203 -0.730268 0
M  V30 2783 C 268.084 -5.96792 -1.31464 0
M  V30 2784 C 269.082 -6.78424 -0.789297 0
M  V30 2785 O 268.77 -8.0323 -0.328077 0
M  V30 2786 H 268.502 -0.579873 -0.347453 0
M  V30 2787 H 271.056 -2.00502 -0.445882 0
M  V30 2788 H 269.286 -2.49702 -2.95272 0
M  V30 2789 H 270.975 -2.90034 -2.83963 0
M  V30 2790 H 271.741 -4.71349 -1.14259 0
M  V30 2791 H 267.62 -4.06142 -2.18106 0
M  V30 2792 H 271.164 -6.96868 -0.319542 0
M  V30 2793 H 267.061 -6.30937 -1.36342 0
M  V30 2794 H 267.829 -8.1727 -0.448493 0
M  V30 2795 N 270.492 0.636531 -1.44174 0
M  V30 2796 C 271.422 1.76003 -1.53444 0
M  V30 2797 C 272.403 1.65619 -0.387841 0
M  V30 2798 O 273.588 1.84461 -0.607257 0
M  V30 2799 C 270.718 3.14511 -1.4731 0
M  V30 2800 C 269.672 3.39677 -2.60391 0
M  V30 2801 C 268.998 4.78159 -2.39308 0
M  V30 2802 C 270.298 3.32772 -4.02567 0
M  V30 2803 H 271.992 1.68501 -2.47483 0
M  V30 2804 H 269.538 0.809237 -1.19111 0
M  V30 2805 H 271.491 3.92878 -1.52397 0
M  V30 2806 H 270.215 3.22783 -0.49785 0
M  V30 2807 H 268.874 2.63688 -2.54684 0
M  V30 2808 H 268.522 4.83128 -1.39988 0
M  V30 2809 H 268.222 4.95956 -3.15122 0
M  V30 2810 H 269.746 5.58762 -2.46205 0
M  V30 2811 H 271.16 4.01051 -4.09672 0
M  V30 2812 H 269.557 3.62104 -4.7854 0
M  V30 2813 H 270.627 2.30669 -4.2652 0
M  V30 2814 N 271.97 1.30982 0.876444 0
M  V30 2815 C 273.2 1.23063 1.65949 0
M  V30 2816 C 273.608 -0.207537 1.88058 0
M  V30 2817 O 272.951 -1.14781 1.43426 0
M  V30 2818 C 273.013 1.89768 3.05333 0
M  V30 2819 C 272.677 3.39106 3.0636 0
M  V30 2820 C 273.674 4.3496 2.84791 0
M  V30 2821 C 271.359 3.80693 3.27686 0
M  V30 2822 C 273.353 5.70375 2.84519 0
M  V30 2823 C 271.04 5.16223 3.27043 0
M  V30 2824 C 272.038 6.10875 3.05485 0
M  V30 2825 O 271.726 7.43928 3.04674 0
M  V30 2826 H 271.458 0.426685 0.524324 0
M  V30 2827 H 274.012 1.7329 1.10271 0
M  V30 2828 H 272.242 1.34082 3.6271 0
M  V30 2829 H 273.931 1.75853 3.65829 0
M  V30 2830 H 274.697 4.0416 2.68103 0
M  V30 2831 H 270.576 3.07457 3.43499 0
M  V30 2832 H 274.12 6.44228 2.67611 0
M  V30 2833 H 270.017 5.4666 3.43269 0
M  V30 2834 H 270.785 7.53022 3.2078 0
M  V30 2835 N 273.449 -1.08991 1.13837 0
M  V30 2836 C 274.86 -1.62746 0.914917 0
M  V30 2837 C 275.211 -1.88403 -0.547594 0
M  V30 2838 O 274.336 -1.63706 -1.41525 0
M  V30 2839 C 274.931 -2.95662 1.65437 0
M  V30 2840 C 273.49 -3.46225 1.47666 0
M  V30 2841 C 272.637 -2.20562 1.6807 0
M  V30 2842 H 275.588 -0.922946 1.29102 0
M  V30 2843 H 275.609 -3.63825 1.11407 0
M  V30 2844 H 275.121 -2.76956 2.71877 0
M  V30 2845 H 273.222 -3.70046 0.435478 0
M  V30 2846 H 273.335 -4.23368 2.24268 0
M  V30 2847 H 271.699 -2.29439 1.10589 0
M  V30 2848 H 272.482 -2.0437 2.7584 0
M  V30 2849 N 274.927 -0.932562 -1.27047 0
M  V30 2850 C 275.89 -0.440064 -2.24936 0
M  V30 2851 C 276.89 0.444071 -1.54547 0
M  V30 2852 O 278.08 0.244465 -1.72476 0
M  V30 2853 C 275.212 0.36678 -3.38921 0
M  V30 2854 H 276.405 -1.305 -2.70018 0
M  V30 2855 H 273.958 -0.713707 -1.39054 0
M  V30 2856 H 274.693 1.25033 -2.99228 0
M  V30 2857 H 274.478 -0.267204 -3.91188 0
M  V30 2858 H 275.968 0.701567 -4.11665 0
M  V30 2859 N 276.405 1.4127 -0.698611 0
M  V30 2860 C 277.652 2.0118 -0.230865 0
M  V30 2861 C 277.98 1.55338 1.17049 0
M  V30 2862 O 277.235 0.756775 1.80475 0
M  V30 2863 C 277.534 3.56592 -0.240192 0
M  V30 2864 C 277.2 4.21955 -1.58948 0
M  V30 2865 C 275.862 4.39524 -1.95887 0
M  V30 2866 C 278.214 4.58576 -2.47704 0
M  V30 2867 C 275.542 4.90992 -3.2116 0
M  V30 2868 C 277.894 5.11435 -3.72313 0
M  V30 2869 C 276.558 5.27215 -4.0939 0
M  V30 2870 H 275.828 0.736169 -0.0844796 0
M  V30 2871 H 278.475 1.69124 -0.8983 0
M  V30 2872 H 276.78 3.88456 0.510797 0
M  V30 2873 H 278.477 4.00758 0.139296 0
M  V30 2874 H 275.067 4.08657 -1.29219 0
M  V30 2875 H 279.251 4.44654 -2.20445 0
M  V30 2876 H 274.507 5.01393 -3.49878 0
M  V30 2877 H 278.681 5.38752 -4.4127 0
M  V30 2878 H 276.308 5.66859 -5.06533 0
M  V30 2879 N 277.883 0.443576 1.51229 0
M  V30 2880 C 279.294 -0.0180867 1.86691 0
M  V30 2881 C 279.645 -1.41384 1.36033 0
M  V30 2882 O 278.77 -2.04291 0.713722 0
M  V30 2883 C 279.365 -0.039597 3.38777 0
M  V30 2884 C 277.924 -0.445692 3.73752 0
M  V30 2885 C 277.071 0.357584 2.74985 0
M  V30 2886 H 280.022 0.659138 1.44364 0
M  V30 2887 H 280.043 -0.847761 3.70936 0
M  V30 2888 H 279.555 0.976382 3.75617 0
M  V30 2889 H 277.656 -1.46704 3.42503 0
M  V30 2890 H 277.769 -0.166155 4.78812 0
M  V30 2891 H 276.133 -0.184973 2.54027 0
M  V30 2892 H 276.916 1.37256 3.14668 0
M  V30 2893 N 279.361 -1.56624 0.175154 0
M  V30 2894 C 280.609 -1.96609 -0.467885 0
M  V30 2895 C 280.93 -1.06238 -1.63519 0
M  V30 2896 O 280.2 -0.129523 -1.95471 0
M  V30 2897 H 278.78 -0.726008 -0.175845 0
M  V30 2898 H 281.442 -1.93195 0.257234 0
M  V30 2899 H 280.538 -3.00989 -0.825342 0
M  V30 2900 N 280.839 0.0985539 -1.57292 0
M  V30 2901 C 282.255 0.45267 -1.53046 0
M  V30 2902 C 282.455 1.80713 -0.891342 0
M  V30 2903 O 281.511 2.4785 -0.482375 0
M  V30 2904 C 282.824 0.418341 -2.97776 0
M  V30 2905 C 284.372 0.500443 -3.08973 0
M  V30 2906 C 284.847 0.496297 -4.55303 0
M  V30 2907 N 286.338 0.557151 -4.59837 0
M  V30 2908 C 287.073 0.575726 -5.70502 0
M  V30 2909 N 286.569 0.550714 -6.90608 0
M  V30 2910 N 288.362 0.620277 -5.58667 0
M  V30 2911 H 280.513 -0.788673 -1.97215 0
M  V30 2912 H 282.776 -0.293188 -0.901524 0
M  V30 2913 H 282.482 -0.509659 -3.47988 0
M  V30 2914 H 282.356 1.2386 -3.56284 0
M  V30 2915 H 284.743 1.41886 -2.58751 0
M  V30 2916 H 284.824 -0.347894 -2.53423 0
M  V30 2917 H 284.468 -0.418162 -5.06176 0
M  V30 2918 H 284.398 1.3618 -5.08687 0
M  V30 2919 H 286.889 0.581816 -3.73394 0
M  V30 2920 H 287.202 0.568075 -7.70709 0
M  V30 2921 H 285.547 0.517816 -6.93068 0
M  V30 2922 H 288.738 0.637322 -4.63741 0
M  V30 2923 H 288.911 0.631283 -6.44918 0
M  V30 2924 N 282.317 1.53212 0.369288 0
M  V30 2925 C 283.28 1.7872 1.43498 0
M  V30 2926 C 284.28 0.657554 1.46741 0
M  V30 2927 O 285.47 0.925736 1.47566 0
M  V30 2928 C 282.602 1.90591 2.82645 0
M  V30 2929 H 283.795 2.73894 1.22156 0
M  V30 2930 H 281.348 1.44233 0.602203 0
M  V30 2931 H 282.083 0.974709 3.09306 0
M  V30 2932 H 281.868 2.72751 2.8169 0
M  V30 2933 H 283.358 2.11931 3.59826 0
M  V30 2934 N 283.795 -0.628877 1.44509 0
M  V30 2935 C 285.044 -1.38437 1.4669 0
M  V30 2936 C 285.357 -1.95322 0.104272 0
M  V30 2937 O 286.563 -2.715 0.00362163 0
M  V30 2938 C 285.019 -2.50659 2.5826 0
M  V30 2939 C 284.627 -2.00277 4.0074 0
M  V30 2940 C 286.371 -3.27844 2.69664 0
M  V30 2941 C 284.278 -3.09854 5.0373 0
M  V30 2942 H 283.208 -0.520245 0.545766 0
M  V30 2943 H 285.859 -0.676313 1.70582 0
M  V30 2944 H 284.241 -3.2405 2.27612 0
M  V30 2945 H 285.415 -1.33736 4.40966 0
M  V30 2946 H 283.73 -1.35901 3.93599 0
M  V30 2947 H 286.327 -4.09534 3.43781 0
M  V30 2948 H 286.67 -3.77471 1.75559 0
M  V30 2949 H 287.203 -2.61543 2.99733 0
M  V30 2950 H 283.942 -2.65168 5.99472 0
M  V30 2951 H 283.462 -3.7503 4.68095 0
M  V30 2952 H 285.141 -3.74592 5.27532 0
M  V30 2953 N 285.273 -1.31445 -0.869486 0
M  V30 2954 C 286.22 -1.19135 -1.97675 0
M  V30 2955 C 287.19 -0.0770266 -1.65921 0
M  V30 2956 O 288.375 -0.249972 -1.89155 0
M  V30 2957 C 285.515 -0.905149 -3.33018 0
M  V30 2958 C 284.628 -2.10285 -3.77365 0
M  V30 2959 C 283.763 -1.75339 -5.01427 0
M  V30 2960 C 282.802 -2.91515 -5.38224 0
M  V30 2961 N 281.939 -2.56762 -6.53466 0
M  V30 2962 H 286.779 -2.13853 -2.07535 0
M  V30 2963 H 284.316 -1.06379 -1.01597 0
M  V30 2964 H 286.274 -0.719765 -4.10944 0
M  V30 2965 H 284.904 0.00519624 -3.228 0
M  V30 2966 H 283.956 -2.39899 -2.95216 0
M  V30 2967 H 285.268 -2.97237 -4.00564 0
M  V30 2968 H 284.422 -1.53266 -5.87022 0
M  V30 2969 H 283.161 -0.855801 -4.80133 0
M  V30 2970 H 282.166 -3.14237 -4.51149 0
M  V30 2971 H 283.391 -3.81985 -5.61484 0
M  V30 2972 H 281.337 -1.69526 -6.33717 0
M  V30 2973 H 281.254 -3.37243 -6.76612 0
M  V30 2974 H 282.522 -2.38083 -7.42251 0
M  V30 2975 N 286.751 1.08385 -1.14413 0
M  V30 2976 C 287.976 1.85057 -0.936413 0
M  V30 2977 C 288.401 1.81055 0.509971 0
M  V30 2978 O 287.759 1.1958 1.36273 0
M  V30 2979 C 287.807 3.30505 -1.44217 0
M  V30 2980 O 286.911 4.07491 -0.634409 0
M  V30 2981 H 286.252 0.573425 -0.334784 0
M  V30 2982 H 288.782 1.36799 -1.52142 0
M  V30 2983 H 288.792 3.81348 -1.45043 0
M  V30 2984 H 287.467 3.32734 -2.49522 0
M  V30 2985 H 286.044 3.66368 -0.694902 0
M  V30 2986 N 288.23 0.939286 1.26551 0
M  V30 2987 C 289.14 0.453432 2.30176 0
M  V30 2988 C 290.156 -0.471649 1.67486 0
M  V30 2989 O 291.332 -0.35164 1.98306 0
M  V30 2990 C 288.397 -0.275326 3.45605 0
M  V30 2991 C 287.458 0.686084 4.23782 0
M  V30 2992 C 286.691 -0.00798994 5.33699 0
M  V30 2993 O 286.914 -1.22528 5.57085 0
M  V30 2994 O 285.848 0.669746 5.98162 0
M  V30 2995 H 289.674 1.31416 2.73795 0
M  V30 2996 H 287.259 0.705095 1.31715 0
M  V30 2997 H 289.141 -0.685911 4.1578 0
M  V30 2998 H 287.816 -1.11147 3.0402 0
M  V30 2999 H 286.723 1.14658 3.56096 0
M  V30 3000 H 288.056 1.48979 4.69112 0
M  V30 3001 N 289.708 -1.40897 0.706093 0
M  V30 3002 C 290.938 -2.05075 0.250523 0
M  V30 3003 C 291.346 -1.53275 -1.10921 0
M  V30 3004 O 290.689 -0.680281 -1.7064 0
M  V30 3005 C 290.751 -3.59219 0.142178 0
M  V30 3006 C 290.415 -4.33864 1.43566 0
M  V30 3007 C 291.412 -4.62448 2.37566 0
M  V30 3008 C 289.097 -4.72946 1.69195 0
M  V30 3009 C 291.091 -5.29088 3.5545 0
M  V30 3010 C 288.778 -5.3932 2.87362 0
M  V30 3011 C 289.776 -5.6732 3.80312 0
M  V30 3012 O 289.464 -6.32325 4.96408 0
M  V30 3013 H 289.196 -0.666645 0.112074 0
M  V30 3014 H 291.75 -1.81467 0.962239 0
M  V30 3015 H 289.98 -3.81609 -0.6254 0
M  V30 3016 H 291.669 -4.0495 -0.277584 0
M  V30 3017 H 292.435 -4.32727 2.19027 0
M  V30 3018 H 288.314 -4.50527 0.977042 0
M  V30 3019 H 291.858 -5.50859 4.28018 0
M  V30 3020 H 287.755 -5.68461 3.05814 0
M  V30 3021 H 288.523 -6.50821 4.9636 0
M  V30 3022 N 291.186 -0.45159 -1.50991 0
M  V30 3023 C 292.597 0.00818571 -1.86698 0
M  V30 3024 C 292.948 1.40661 -1.3678 0
M  V30 3025 O 292.073 2.0391 -0.724546 0
M  V30 3026 C 292.668 0.0216303 -3.38793 0
M  V30 3027 C 291.227 0.425865 -3.73983 0
M  V30 3028 C 290.374 -0.372163 -2.74791 0
M  V30 3029 H 293.325 -0.666785 -1.44013 0
M  V30 3030 H 293.346 0.828078 -3.7138 0
M  V30 3031 H 292.858 -0.996288 -3.75094 0
M  V30 3032 H 290.959 1.44886 -3.43277 0
M  V30 3033 H 291.072 0.140761 -4.78893 0
M  V30 3034 H 289.436 0.171498 -2.54122 0
M  V30 3035 H 290.219 -1.38922 -3.13935 0
M  V30 3036 N 292.664 1.56529 -0.183458 0
M  V30 3037 C 293.574 2.22144 0.754272 0
M  V30 3038 C 294.59 1.21684 1.24374 0
M  V30 3039 O 295.766 1.54385 1.29333 0
M  V30 3040 C 292.831 2.85884 1.96141 0
M  V30 3041 C 291.892 4.01579 1.51765 0
M  V30 3042 C 291.125 4.6227 2.66725 0
M  V30 3043 O 291.348 4.21865 3.83909 0
M  V30 3044 O 290.282 5.51936 2.40104 0
M  V30 3045 H 294.108 3.02861 0.225527 0
M  V30 3046 H 291.693 1.49331 0.0453032 0
M  V30 3047 H 293.575 3.26253 2.66715 0
M  V30 3048 H 292.25 2.08154 2.47899 0
M  V30 3049 H 291.157 3.65856 0.781049 0
M  V30 3050 H 292.49 4.80938 1.04686 0
M  V30 3051 N 294.142 -0.090211 1.57342 0
M  V30 3052 C 295.553 -0.644173 1.75235 0
M  V30 3053 C 295.904 -1.78865 0.806335 0
M  V30 3054 O 295.029 -2.16395 -0.0140128 0
M  V30 3055 C 295.624 -1.17532 3.1776 0
M  V30 3056 C 294.183 -1.67531 3.37061 0
M  V30 3057 C 293.33 -0.58693 2.71017 0
M  V30 3058 H 296.281 0.135884 1.58117 0
M  V30 3059 H 296.302 -2.04455 3.20902 0
M  V30 3060 H 295.814 -0.342138 3.86589 0
M  V30 3061 H 293.915 -2.53234 2.73319 0
M  V30 3062 H 294.028 -1.76493 4.45406 0
M  V30 3063 H 292.392 -1.02756 2.33052 0
M  V30 3064 H 293.175 0.235758 3.4249 0
M  V30 3065 N 295.62 -1.53406 -0.361157 0
M  V30 3066 C 296.85 -1.73465 -1.1222 0
M  V30 3067 C 297.258 -0.465486 -1.83384 0
M  V30 3068 O 296.601 0.571611 -1.7458 0
M  V30 3069 C 296.663 -2.84834 -2.19339 0
M  V30 3070 C 296.327 -4.25038 -1.67903 0
M  V30 3071 C 297.324 -5.07231 -1.14074 0
M  V30 3072 C 295.009 -4.71464 -1.73282 0
M  V30 3073 C 297.003 -6.33942 -0.663068 0
M  V30 3074 C 294.69 -5.98153 -1.25127 0
M  V30 3075 C 295.688 -6.79223 -0.717296 0
M  V30 3076 O 295.376 -8.03533 -0.242865 0
M  V30 3077 H 295.108 -0.583526 -0.341283 0
M  V30 3078 H 297.662 -2.00964 -0.424591 0
M  V30 3079 H 295.892 -2.5282 -2.92607 0
M  V30 3080 H 297.581 -2.9303 -2.80871 0
M  V30 3081 H 298.347 -4.72534 -1.09254 0
M  V30 3082 H 294.226 -4.08432 -2.13786 0
M  V30 3083 H 297.77 -6.97167 -0.245612 0
M  V30 3084 H 293.667 -6.32347 -1.29642 0
M  V30 3085 H 294.435 -8.177 -0.361786 0
M  V30 3086 N 297.098 0.621204 -1.44841 0
M  V30 3087 C 298.061 1.71459 -1.521 0
M  V30 3088 C 299.061 1.55696 -0.401933 0
M  V30 3089 O 300.251 1.61011 -0.664925 0
M  V30 3090 C 297.383 3.10624 -1.40447 0
M  V30 3091 H 298.576 1.66394 -2.49506 0
M  V30 3092 H 296.129 0.835745 -1.3208 0
M  V30 3093 H 296.864 3.21277 -0.441737 0
M  V30 3094 H 296.649 3.23473 -2.21602 0
M  V30 3095 H 298.139 3.90293 -1.4853 0
M  V30 3096 N 298.576 1.31904 0.862503 0
M  V30 3097 C 299.801 1.25135 1.65397 0
M  V30 3098 C 300.226 -0.179 1.87246 0
M  V30 3099 O 299.584 -1.1277 1.4196 0
M  V30 3100 C 299.632 2.00832 2.99498 0
M  V30 3101 O 298.736 1.35075 3.89652 0
M  V30 3102 H 298.077 0.431655 0.504549 0
M  V30 3103 H 300.607 1.74094 1.07483 0
M  V30 3104 H 300.617 2.10709 3.49379 0
M  V30 3105 H 299.292 3.04847 2.82916 0
M  V30 3106 H 297.869 1.33696 3.48109 0
M  V30 3107 N 300.054 -1.07777 1.14986 0
M  V30 3108 C 301.465 -1.61766 0.932127 0
M  V30 3109 C 301.816 -1.88974 -0.527581 0
M  V30 3110 O 300.941 -1.65198 -1.39781 0
M  V30 3111 C 301.536 -2.93891 1.68563 0
M  V30 3112 C 300.095 -3.44639 1.5133 0
M  V30 3113 C 299.242 -2.18767 1.704 0
M  V30 3114 H 302.193 -0.909201 1.30074 0
M  V30 3115 H 302.214 -3.62623 1.15259 0
M  V30 3116 H 301.726 -2.74057 2.74799 0
M  V30 3117 H 299.827 -3.69564 0.474702 0
M  V30 3118 H 299.94 -4.20966 2.28746 0
M  V30 3119 H 298.304 -2.28253 1.13016 0
M  V30 3120 H 299.087 -2.01433 2.77992 0
M  V30 3121 N 301.532 -0.945985 -1.26051 0
M  V30 3122 C 302.943 -0.638096 -1.75457 0
M  V30 3123 C 303.294 0.846672 -1.76991 0
M  V30 3124 O 302.419 1.66262 -1.38513 0
M  V30 3125 C 303.014 -1.15157 -3.18629 0
M  V30 3126 C 301.573 -0.894004 -3.65629 0
M  V30 3127 C 300.72 -1.29967 -2.44957 0
M  V30 3128 H 303.671 -1.12376 -1.1206 0
M  V30 3129 H 303.692 -0.507615 -3.77099 0
M  V30 3130 H 303.204 -2.23222 -3.1748 0
M  V30 3131 H 301.305 0.172057 -3.72203 0
M  V30 3132 H 301.418 -1.52439 -4.54202 0
M  V30 3133 H 299.782 -0.718078 -2.44368 0
M  V30 3134 H 300.565 -2.38935 -2.46505 0
M  V30 3135 N 303.011 1.40521 -0.713556 0
M  V30 3136 C 303.943 2.29191 -0.0203126 0
M  V30 3137 C 304.956 1.45723 0.725864 0
M  V30 3138 O 306.145 1.69033 0.573581 0
M  V30 3139 C 303.245 3.2395 0.995486 0
M  V30 3140 C 302.418 4.36262 0.315256 0
M  V30 3141 C 301.477 5.11474 1.23616 0
M  V30 3142 O 300.503 5.64606 0.721719 0
M  V30 3143 N 301.705 5.20638 2.56743 0
M  V30 3144 H 304.47 2.89327 -0.781652 0
M  V30 3145 H 302.031 1.51869 -0.561022 0
M  V30 3146 H 304.023 3.71137 1.61368 0
M  V30 3147 H 302.593 2.64995 1.6582 0
M  V30 3148 H 301.813 3.91228 -0.483106 0
M  V30 3149 H 303.101 5.08558 -0.157004 0
M  V30 3150 H 302.499 4.7895 3.01037 0
M  V30 3151 H 301.056 5.71339 3.13712 0
M  V30 3152 N 304.489 0.459591 1.5075 0
M  V30 3153 C 305.9 0.00171547 1.867 0
M  V30 3154 C 306.251 -1.39934 1.37525 0
M  V30 3155 O 305.376 -2.03523 0.735349 0
M  V30 3156 C 305.971 -0.00366298 3.388 0
M  V30 3157 C 304.53 -0.406026 3.74204 0
M  V30 3158 C 303.677 0.38673 2.7459 0
M  V30 3159 H 306.628 0.674413 1.43657 0
M  V30 3160 H 306.649 -0.808371 3.71814 0
M  V30 3161 H 306.161 1.01617 3.74561 0
M  V30 3162 H 304.262 -1.43063 3.4404 0
M  V30 3163 H 304.375 -0.115362 4.78961 0
M  V30 3164 H 302.739 -0.158019 2.54209 0
M  V30 3165 H 303.522 1.40585 3.13194 0
M  V30 3166 N 305.967 -1.56429 0.191757 0
M  V30 3167 C 307.215 -1.97095 -0.447006 0
M  V30 3168 C 307.536 -1.07967 -1.62383 0
M  V30 3169 O 306.806 -0.150248 -1.95323 0
M  V30 3170 H 305.386 -0.727832 -0.168135 0
M  V30 3171 H 308.048 -1.92911 0.27771 0
M  V30 3172 H 307.144 -3.01848 -0.793371 0
M  V30 3173 N 307.445 0.0818655 -1.57387 0
M  V30 3174 C 308.375 1.09885 -2.06028 0
M  V30 3175 C 309.356 1.4098 -0.951774 0
M  V30 3176 O 310.541 1.50781 -1.22387 0
M  V30 3177 C 307.671 2.4151 -2.4958 0
M  V30 3178 C 306.625 2.24792 -3.64215 0
M  V30 3179 C 305.951 3.61712 -3.93787 0
M  V30 3180 C 307.251 1.67749 -4.94629 0
M  V30 3181 H 308.945 0.694128 -2.91243 0
M  V30 3182 H 306.491 0.332448 -1.4011 0
M  V30 3183 H 308.444 3.12939 -2.82219 0
M  V30 3184 H 307.168 2.83943 -1.61381 0
M  V30 3185 H 305.827 1.55807 -3.31843 0
M  V30 3186 H 305.475 4.01697 -3.02735 0
M  V30 3187 H 305.175 3.51368 -4.70971 0
M  V30 3188 H 306.699 4.34587 -4.28913 0
M  V30 3189 H 308.113 2.29032 -5.25564 0
M  V30 3190 H 306.51 1.68128 -5.76067 0
M  V30 3191 H 307.58 0.638059 -4.80684 0
M  V30 3192 N 308.923 1.53595 0.353017 0
M  V30 3193 C 310.334 1.61937 0.929153 0
M  V30 3194 C 310.685 0.494686 1.89861 0
M  V30 3195 O 309.81 -0.377017 2.1309 0
M  V30 3196 C 310.405 2.93526 1.69199 0
M  V30 3197 C 308.964 3.04161 2.21727 0
M  V30 3198 C 308.111 2.57322 1.03348 0
M  V30 3199 H 311.062 1.58155 0.131431 0
M  V30 3200 H 311.083 2.82034 2.55416 0
M  V30 3201 H 310.595 3.75362 0.986144 0
M  V30 3202 H 308.696 2.26938 2.95516 0
M  V30 3203 H 308.809 4.09465 2.48748 0
M  V30 3204 H 307.173 2.12499 1.40414 0
M  V30 3205 H 307.956 3.41588 0.342428 0
M  V30 3206 N 310.401 -0.613514 1.45168 0
M  V30 3207 C 311.631 -1.39743 1.52169 0
M  V30 3208 C 312.039 -1.88596 0.151086 0
M  V30 3209 O 311.382 -1.6251 -0.856521 0
M  V30 3210 C 311.444 -2.64035 2.43979 0
M  V30 3211 C 311.108 -2.36861 3.90827 0
M  V30 3212 C 312.105 -1.97591 4.80889 0
M  V30 3213 C 309.79 -2.49956 4.35692 0
M  V30 3214 C 311.784 -1.71768 6.1382 0
M  V30 3215 C 309.471 -2.23747 5.68665 0
M  V30 3216 C 310.469 -1.84714 6.57548 0
M  V30 3217 O 310.157 -1.58809 7.88058 0
M  V30 3218 H 309.889 -0.434382 0.517966 0
M  V30 3219 H 312.443 -0.75587 1.90986 0
M  V30 3220 H 310.673 -3.3089 2.00122 0
M  V30 3221 H 312.362 -3.26069 2.41731 0
M  V30 3222 H 313.128 -1.87015 4.47493 0
M  V30 3223 H 309.007 -2.79305 3.66756 0
M  V30 3224 H 312.551 -1.41227 6.83155 0
M  V30 3225 H 308.448 -2.33938 6.01617 0
M  V30 3226 H 309.216 -1.7291 8.00028 0
M  V30 3227 N 311.879 -1.3236 -0.855495 0
M  V30 3228 C 313.127 -1.22629 -1.60644 0
M  V30 3229 C 313.448 0.212136 -1.93843 0
M  V30 3230 O 312.718 1.13666 -1.59552 0
M  V30 3231 H 311.298 -0.450882 -0.595579 0
M  V30 3232 H 313.96 -1.65871 -1.02337 0
M  V30 3233 H 313.056 -1.80832 -2.54374 0
M  V30 3234 N 313.357 1.07166 -1.15556 0
M  V30 3235 C 314.587 1.83248 -0.954133 0
M  V30 3236 C 314.995 1.82449 0.500911 0
M  V30 3237 O 314.338 1.23575 1.35923 0
M  V30 3238 C 314.4 3.31393 -1.39351 0
M  V30 3239 C 314.064 3.5591 -2.86666 0
M  V30 3240 C 315.061 3.49695 -3.8472 0
M  V30 3241 C 312.746 3.83515 -3.24379 0
M  V30 3242 C 314.74 3.70737 -5.18491 0
M  V30 3243 C 312.427 4.04209 -4.58321 0
M  V30 3244 C 313.425 3.97815 -5.55186 0
M  V30 3245 O 313.113 4.17954 -6.86709 0
M  V30 3246 H 312.845 0.584941 -0.338851 0
M  V30 3247 H 315.399 1.36169 -1.53777 0
M  V30 3248 H 313.629 3.79292 -0.75329 0
M  V30 3249 H 315.318 3.88945 -1.16089 0
M  V30 3250 H 316.084 3.28368 -3.56931 0
M  V30 3251 H 311.963 3.87605 -2.49567 0
M  V30 3252 H 315.507 3.65663 -5.94085 0
M  V30 3253 H 311.404 4.25023 -4.85825 0
M  V30 3254 H 312.172 4.35291 -6.93155 0
M  V30 3255 N 314.835 0.952656 1.25548 0
M  V30 3256 C 316.246 0.647392 1.75116 0
M  V30 3257 C 316.597 -0.837274 1.77438 0
M  V30 3258 O 315.722 -1.65525 1.39393 0
M  V30 3259 C 316.317 1.16845 3.18014 0
M  V30 3260 C 314.876 0.913382 3.6515 0
M  V30 3261 C 314.023 1.31265 2.44264 0
M  V30 3262 H 316.974 1.12968 1.11462 0
M  V30 3263 H 316.995 0.527606 3.76824 0
M  V30 3264 H 316.507 2.24902 3.16292 0
M  V30 3265 H 314.608 -0.152316 3.72289 0
M  V30 3266 H 314.721 1.54845 4.53387 0
M  V30 3267 H 313.085 0.731028 2.43984 0
M  V30 3268 H 313.868 2.40239 2.45234 0
M  V30 3269 N 316.313 -1.40141 0.720998 0
M  V30 3270 C 317.223 -2.34486 0.0731031 0
M  V30 3271 C 318.239 -1.57587 -0.737723 0
M  V30 3272 O 319.415 -1.89949 -0.669429 0
M  V30 3273 C 316.48 -3.36528 -0.833656 0
M  V30 3274 C 315.541 -4.29298 -0.0121673 0
M  V30 3275 C 314.774 -5.26466 -0.875742 0
M  V30 3276 O 314.997 -5.29745 -2.11485 0
M  V30 3277 O 313.931 -6.01092 -0.31185 0
M  V30 3278 H 317.757 -2.9152 0.851444 0
M  V30 3279 H 315.342 -1.41427 0.481527 0
M  V30 3280 H 317.224 -3.99093 -1.35289 0
M  V30 3281 H 315.899 -2.81899 -1.59105 0
M  V30 3282 H 314.806 -3.70001 0.552262 0
M  V30 3283 H 316.139 -4.87094 0.707129 0
M  V30 3284 N 317.792 -0.46758 -1.50504 0
M  V30 3285 C 319.203 -0.0116166 -1.86696 0
M  V30 3286 C 319.554 1.39202 -1.38265 0
M  V30 3287 O 318.679 2.0313 -0.746132 0
M  V30 3288 C 319.274 -0.0143044 -3.38797 0
M  V30 3289 C 317.833 0.386175 -3.74414 0
M  V30 3290 C 316.98 -0.401287 -2.74381 0
M  V30 3291 H 319.931 -0.682022 -1.43297 0
M  V30 3292 H 319.952 0.788641 -3.72237 0
M  V30 3293 H 319.464 -1.03602 -3.74016 0
M  V30 3294 H 317.565 1.41237 -3.44794 0
M  V30 3295 H 317.678 0.0899596 -4.79016 0
M  V30 3296 H 316.042 0.144536 -2.5429 0
M  V30 3297 H 316.825 -1.42244 -3.12444 0
M  V30 3298 N 319.27 1.56325 -0.20005 0
M  V30 3299 C 320.517 1.97719 0.437411 0
M  V30 3300 C 320.845 1.08709 1.61284 0
M  V30 3301 O 320.1 0.127261 1.95286 0
M  V30 3302 C 320.399 3.4495 0.935103 0
M  V30 3303 C 320.065 4.5072 -0.12749 0
M  V30 3304 C 318.727 4.79368 -0.419451 0
M  V30 3305 C 321.079 5.14268 -0.847231 0
M  V30 3306 C 318.407 5.68854 -1.43604 0
M  V30 3307 C 320.759 6.04852 -1.85301 0
M  V30 3308 C 319.423 6.31855 -2.15211 0
M  V30 3309 H 318.693 0.723507 0.16006 0
M  V30 3310 H 321.34 1.89166 -0.298056 0
M  V30 3311 H 319.645 3.50599 1.74894 0
M  V30 3312 H 321.342 3.74337 1.43781 0
M  V30 3313 H 317.932 4.28458 0.11023 0
M  V30 3314 H 322.116 4.92222 -0.634901 0
M  V30 3315 H 317.372 5.88047 -1.67364 0
M  V30 3316 H 321.546 6.53152 -2.41591 0
M  V30 3317 H 319.173 7.00994 -2.94129 0
M  V30 3318 N 320.748 -0.0735177 1.57428 0
M  V30 3319 C 321.973 -0.789787 1.91774 0
M  V30 3320 C 322.398 -1.70413 0.796306 0
M  V30 3321 O 321.756 -1.79555 -0.250961 0
M  V30 3322 C 321.804 -1.5609 3.25067 0
M  V30 3323 O 320.908 -2.67144 3.14178 0
M  V30 3324 H 320.249 -0.215582 0.628029 0
M  V30 3325 H 322.779 -0.0422781 2.04556 0
M  V30 3326 H 322.789 -1.94052 3.58898 0
M  V30 3327 H 321.464 -0.890015 4.06265 0
M  V30 3328 H 320.041 -2.32052 2.91901 0
M  V30 3329 N 322.226 -1.5378 -0.344866 0
M  V30 3330 C 323.474 -1.70625 -1.08311 0
M  V30 3331 C 323.795 -0.471447 -1.89215 0
M  V30 3332 O 323.065 0.514616 -1.8902 0
M  V30 3333 H 321.645 -0.629058 -0.402859 0
M  V30 3334 H 324.307 -1.9103 -0.386459 0
M  V30 3335 H 323.403 -2.57656 -1.76124 0
M  V30 3336 N 323.704 0.605807 -1.45491 0
M  V30 3337 C 324.952 1.36207 -1.49305 0
M  V30 3338 C 325.273 1.94519 -0.136863 0
M  V30 3339 O 324.543 1.77261 0.833983 0
M  V30 3340 H 323.123 0.50565 -0.549843 0
M  V30 3341 H 325.785 0.711239 -1.81459 0
M  V30 3342 H 324.881 2.18058 -2.23287 0
M  V30 3343 N 325.182 1.32811 0.848464 0
M  V30 3344 C 326.593 1.21315 1.41914 0
M  V30 3345 C 326.944 -0.171847 1.95446 0
M  V30 3346 O 326.069 -1.07093 1.88043 0
M  V30 3347 C 326.664 2.19631 2.57968 0
M  V30 3348 C 325.223 2.12003 3.11017 0
M  V30 3349 C 324.37 2.07651 1.83783 0
M  V30 3350 H 327.321 1.44549 0.655071 0
M  V30 3351 H 327.342 1.79845 3.35315 0
M  V30 3352 H 326.854 3.20423 2.18976 0
M  V30 3353 H 324.955 1.14481 3.54577 0
M  V30 3354 H 325.068 3.02111 3.71841 0
M  V30 3355 H 323.432 1.52983 2.03638 0
M  V30 3356 H 324.215 3.10235 1.47 0
M  V30 3357 N 326.66 -1.06551 1.16123 0
M  V30 3358 C 327.608 -2.16063 0.861371 0
M  V30 3359 C 328.602 -1.6856 -0.168517 0
M  V30 3360 O 329.808 -1.79986 -0.0227579 0
M  V30 3361 H 326.183 -0.705278 0.260934 0
M  V30 3362 H 328.154 -2.38567 1.79244 0
M  V30 3363 C 326.903 -3.45661 0.376018 0
M  V30 3364 H 326.226 -3.82604 1.15992 0
M  V30 3365 H 327.666 -4.23504 0.204951 0
M  V30 3366 C 326.125 -3.24546 -0.903954 0
M  V30 3367 O 326.655 -3.49865 -1.97377 0
M  V30 3368 N 324.861 -2.77992 -0.846679 0
M  V30 3369 H 324.408 -2.57589 0.0241017 0
M  V30 3370 H 324.366 -2.64244 -1.70359 0
M  V30 3371 N 328.138 -0.959301 -1.25041 0
M  V30 3372 C 329.384 -0.617525 -1.9317 0
M  V30 3373 C 329.717 0.843981 -1.74902 0
M  V30 3374 O 328.992 1.60615 -1.09696 0
M  V30 3375 C 329.275 -0.982736 -3.46431 0
M  V30 3376 C 329.128 -2.50032 -3.73904 0
M  V30 3377 C 330.447 -0.511176 -4.37121 0
M  V30 3378 H 327.566 -0.22582 -0.701552 0
M  V30 3379 H 330.208 -1.19679 -1.4757 0
M  V30 3380 H 328.358 -0.489806 -3.854 0
M  V30 3381 H 330.03 -3.06737 -3.44544 0
M  V30 3382 H 328.273 -2.93598 -3.19348 0
M  V30 3383 H 328.944 -2.70635 -4.81103 0
M  V30 3384 H 331.42 -0.934075 -4.0548 0
M  V30 3385 H 330.296 -0.795361 -5.43107 0
M  V30 3386 H 330.557 0.588834 -4.38161 0
M  V30 3387 N 329.616 1.39756 -0.72842 0
M  V30 3388 C 331.027 1.83498 -0.344289 0
M  V30 3389 C 331.378 1.60868 1.12321 0
M  V30 3390 O 330.503 1.09634 1.86573 0
M  V30 3391 C 331.098 3.33114 -0.618112 0
M  V30 3392 C 329.657 3.753 -0.287549 0
M  V30 3393 C 328.804 2.62831 -0.884048 0
M  V30 3394 H 331.755 1.28842 -0.926578 0
M  V30 3395 H 331.776 3.80334 0.112349 0
M  V30 3396 H 331.288 3.49553 -1.68625 0
M  V30 3397 H 329.389 3.64451 0.775012 0
M  V30 3398 H 329.502 4.72945 -0.765512 0
M  V30 3399 H 327.866 2.52792 -0.311149 0
M  V30 3400 H 328.649 2.82078 -1.95671 0
M  V30 3401 N 331.094 0.475555 1.50254 0
M  V30 3402 C 332.004 -0.321501 2.32387 0
M  V30 3403 C 333.02 -0.991755 1.42969 0
M  V30 3404 O 334.196 -0.978747 1.76018 0
M  V30 3405 C 331.261 -1.38667 3.17762 0
M  V30 3406 C 330.322 -0.732538 4.23004 0
M  V30 3407 C 329.555 -1.74695 5.04299 0
M  V30 3408 O 329.778 -2.97399 4.86734 0
M  V30 3409 O 328.712 -1.31631 5.8733 0
M  V30 3410 H 332.538 0.350071 3.01676 0
M  V30 3411 H 330.123 0.237321 1.47503 0
M  V30 3412 H 332.005 -2.00354 3.70724 0
M  V30 3413 H 330.68 -2.04163 2.51196 0
M  V30 3414 H 329.587 -0.0765902 3.74022 0
M  V30 3415 H 330.92 -0.120452 4.92053 0
M  V30 3416 N 332.573 -1.56217 0.208337 0
M  V30 3417 C 333.503 -2.22694 -0.702116 0
M  V30 3418 C 334.484 -1.19432 -1.2112 0
M  V30 3419 O 335.669 -1.47978 -1.25762 0
M  V30 3420 C 332.799 -2.8966 -1.9161 0
M  V30 3421 C 331.753 -3.9928 -1.5414 0
M  V30 3422 C 331.079 -4.53476 -2.83308 0
M  V30 3423 C 332.379 -5.17012 -0.741339 0
M  V30 3424 H 334.073 -2.99034 -0.147898 0
M  V30 3425 H 331.619 -1.43831 -0.0696951 0
M  V30 3426 H 333.572 -3.34852 -2.55836 0
M  V30 3427 H 332.296 -2.10746 -2.49507 0
M  V30 3428 H 330.955 -3.54799 -0.922668 0
M  V30 3429 H 330.603 -3.71308 -3.39322 0
M  V30 3430 H 330.303 -5.27451 -2.58976 0
M  V30 3431 H 331.827 -5.01378 -3.485 0
M  V30 3432 H 333.241 -5.58667 -1.28699 0
M  V30 3433 H 331.638 -5.97137 -0.595627 0
M  V30 3434 H 332.708 -4.8423 0.254851 0
M  V30 3435 N 334.051 0.0651679 -1.57465 0
M  V30 3436 C 335.3 0.761916 -1.86756 0
M  V30 3437 C 335.613 1.78406 -0.801925 0
M  V30 3438 O 336.819 2.53084 -0.982885 0
M  V30 3439 C 335.275 1.40603 -3.31299 0
M  V30 3440 C 334.883 0.422115 -4.46007 0
M  V30 3441 C 336.627 2.08476 -3.69781 0
M  V30 3442 C 334.534 1.07252 -5.81593 0
M  V30 3443 H 333.464 0.288308 -0.696702 0
M  V30 3444 H 336.115 0.015344 -1.83494 0
M  V30 3445 H 334.497 2.20109 -3.29193 0
M  V30 3446 H 335.671 -0.343613 -4.59517 0
M  V30 3447 H 333.986 -0.152527 -4.16121 0
M  V30 3448 H 336.583 2.57925 -4.68379 0
M  V30 3449 H 336.926 2.88712 -2.99919 0
M  V30 3450 H 337.459 1.35792 -3.73905 0
M  V30 3451 H 334.198 0.310342 -6.54765 0
M  V30 3452 H 333.718 1.80895 -5.71872 0
M  V30 3453 H 335.397 1.59043 -6.27148 0
M  V30 3454 N 335.529 1.53961 0.336706 0
M  V30 3455 C 336.459 1.85417 1.41925 0
M  V30 3456 C 337.44 0.709856 1.5458 0
M  V30 3457 O 338.625 0.962396 1.68676 0
M  V30 3458 C 335.755 2.06985 2.78881 0
M  V30 3459 C 334.709 3.22813 2.81026 0
M  V30 3460 C 334.035 3.29727 4.20932 0
M  V30 3461 C 335.335 4.60767 2.45949 0
M  V30 3462 H 337.029 2.76079 1.15848 0
M  V30 3463 H 334.575 1.32839 0.555859 0
M  V30 3464 H 336.528 2.27575 3.54665 0
M  V30 3465 H 335.252 1.13061 3.06406 0
M  V30 3466 H 333.911 3.0209 2.07695 0
M  V30 3467 H 333.559 2.33385 4.45579 0
M  V30 3468 H 333.259 4.07566 4.23277 0
M  V30 3469 H 334.783 3.52536 4.98549 0
M  V30 3470 H 336.197 4.81325 3.11446 0
M  V30 3471 H 334.594 5.4106 2.59566 0
M  V30 3472 H 335.664 4.6391 1.41122 0
M  V30 3473 N 337.007 -0.598083 1.45811 0
M  V30 3474 C 337.939 -1.72231 1.51225 0
M  V30 3475 C 338.952 -1.57757 0.402059 0
M  V30 3476 O 340.141 -1.65464 0.669624 0
M  V30 3477 C 337.241 -3.10331 1.3619 0
M  V30 3478 C 336.414 -3.50955 2.61054 0
M  V30 3479 C 335.473 -4.68055 2.40439 0
M  V30 3480 O 334.499 -4.74691 3.14097 0
M  V30 3481 N 335.701 -5.61941 1.45612 0
M  V30 3482 H 338.466 -1.68046 2.48154 0
M  V30 3483 H 336.027 -0.783637 1.41671 0
M  V30 3484 H 338.019 -3.86439 1.20195 0
M  V30 3485 H 336.589 -3.0897 0.475015 0
M  V30 3486 H 335.809 -2.64711 2.92099 0
M  V30 3487 H 337.097 -3.74858 3.44034 0
M  V30 3488 H 336.495 -5.59301 0.848431 0
M  V30 3489 H 335.052 -6.37542 1.35585 0
M  V30 3490 N 338.485 -1.33259 -0.841409 0
M  V30 3491 C 339.415 -1.25926 -1.96634 0
M  V30 3492 C 340.396 -0.140349 -1.6952 0
M  V30 3493 O 341.581 -0.329707 -1.91381 0
M  V30 3494 C 338.711 -0.99512 -3.32738 0
M  V30 3495 C 337.665 -2.0767 -3.74242 0
M  V30 3496 C 336.991 -1.66474 -5.08125 0
M  V30 3497 C 338.291 -3.49318 -3.88297 0
M  V30 3498 H 339.985 -2.20046 -2.03027 0
M  V30 3499 H 337.531 -1.05931 -0.975425 0
M  V30 3500 H 339.484 -0.930323 -4.11002 0
M  V30 3501 H 338.208 -0.0183004 -3.26595 0
M  V30 3502 H 336.867 -2.13187 -2.98239 0
M  V30 3503 H 336.515 -0.675012 -4.9845 0
M  V30 3504 H 336.215 -2.3885 -5.36865 0
M  V30 3505 H 337.739 -1.61455 -5.88867 0
M  V30 3506 H 339.153 -3.46316 -4.56879 0
M  V30 3507 H 337.55 -4.20158 -4.28471 0
M  V30 3508 H 338.62 -3.8801 -2.9082 0
M  V30 3509 N 339.963 1.05934 -1.16686 0
M  V30 3510 C 340.893 2.1546 -0.899949 0
M  V30 3511 C 341.874 1.69391 0.155154 0
M  V30 3512 O 343.059 1.94199 0.00648693 0
M  V30 3513 C 340.189 3.44939 -0.404241 0
M  V30 3514 C 339.143 4.04536 -1.39767 0
M  V30 3515 C 338.469 5.29268 -0.760216 0
M  V30 3516 C 339.769 4.42893 -2.76845 0
M  V30 3517 H 341.463 2.38046 -1.81588 0
M  V30 3518 H 339.009 1.14404 -0.874514 0
M  V30 3519 H 340.962 4.20901 -0.204971 0
M  V30 3520 H 339.686 3.21983 0.547206 0
M  V30 3521 H 338.345 3.30635 -1.58355 0
M  V30 3522 H 337.993 5.02611 0.197831 0
M  V30 3523 H 337.693 5.70101 -1.42332 0
M  V30 3524 H 339.217 6.07924 -0.57105 0
M  V30 3525 H 340.631 5.09921 -2.62019 0
M  V30 3526 H 339.028 4.94721 -3.39663 0
M  V30 3527 H 340.098 3.53584 -3.31823 0
M  V30 3528 N 341.441 0.965919 1.2453 0
M  V30 3529 C 342.373 0.452465 2.2469 0
M  V30 3530 C 343.386 -0.437821 1.56802 0
M  V30 3531 O 344.575 -0.244283 1.76821 0
M  V30 3532 C 341.675 -0.366258 3.36915 0
M  V30 3533 C 340.848 0.513701 4.34373 0
M  V30 3534 C 339.907 -0.248716 5.25612 0
M  V30 3535 O 338.933 0.356745 5.68081 0
M  V30 3536 N 340.135 -1.53877 5.59734 0
M  V30 3537 H 342.9 1.31361 2.69378 0
M  V30 3538 H 340.461 0.837541 1.38553 0
M  V30 3539 H 342.453 -0.884297 3.94921 0
M  V30 3540 H 341.023 -1.12832 2.91526 0
M  V30 3541 H 340.243 1.21273 3.75082 0
M  V30 3542 H 341.531 1.11391 4.96457 0
M  V30 3543 H 340.929 -2.05243 5.27154 0
M  V30 3544 H 339.486 -2.00254 6.20275 0
M  V30 3545 N 342.919 -1.39368 0.735821 0
M  V30 3546 C 343.849 -2.33234 0.111506 0
M  V30 3547 C 344.83 -1.53954 -0.723334 0
M  V30 3548 O 346.015 -1.82344 -0.668147 0
M  V30 3549 C 343.145 -3.38057 -0.795917 0
M  V30 3550 C 342.099 -4.2795 -0.065172 0
M  V30 3551 C 341.425 -5.23479 -1.08967 0
M  V30 3552 C 342.725 -5.10741 1.09273 0
M  V30 3553 H 344.419 -2.85692 0.895571 0
M  V30 3554 H 341.965 -1.37364 0.432109 0
M  V30 3555 H 343.918 -4.02675 -1.24221 0
M  V30 3556 H 342.642 -2.8404 -1.61211 0
M  V30 3557 H 341.301 -3.64813 0.361511 0
M  V30 3558 H 340.949 -4.65758 -1.89944 0
M  V30 3559 H 340.649 -5.84472 -0.605489 0
M  V30 3560 H 342.173 -5.90974 -1.53565 0
M  V30 3561 H 343.587 -5.68699 0.724841 0
M  V30 3562 H 341.984 -5.8088 1.50659 0
M  V30 3563 H 343.054 -4.45525 1.91404 0
M  V30 3564 N 344.397 -0.483516 -1.5 0
M  V30 3565 C 345.307 0.309172 -2.32554 0
M  V30 3566 C 346.323 0.984159 -1.43493 0
M  V30 3567 O 347.499 0.969399 -1.76535 0
M  V30 3568 C 344.564 1.36979 -3.18493 0
M  V30 3569 C 343.625 0.710095 -4.23387 0
M  V30 3570 C 342.858 1.72018 -5.05218 0
M  V30 3571 O 343.081 2.94813 -4.88305 0
M  V30 3572 O 342.015 1.28515 -5.8802 0
M  V30 3573 H 345.841 -0.366064 -3.01486 0
M  V30 3574 H 343.426 -0.24514 -1.47375 0
M  V30 3575 H 345.308 1.98385 -3.71781 0
M  V30 3576 H 343.983 2.02828 -2.52275 0
M  V30 3577 H 342.89 0.0567539 -3.74057 0
M  V30 3578 H 344.223 0.0943557 -4.9211 0
M  V30 3579 N 345.875 1.56104 -0.216619 0
M  V30 3580 C 347.286 1.844 0.292128 0
M  V30 3581 C 347.637 1.13788 1.59833 0
M  V30 3582 O 346.762 0.405888 2.12559 0
M  V30 3583 C 347.357 3.3452 0.53681 0
M  V30 3584 C 345.916 3.63151 0.989876 0
M  V30 3585 C 345.063 2.77255 0.0502302 0
M  V30 3586 H 348.014 1.52481 -0.439926 0
M  V30 3587 H 348.035 3.54459 1.38345 0
M  V30 3588 H 347.547 3.85885 -0.414031 0
M  V30 3589 H 345.648 3.17238 1.95425 0
M  V30 3590 H 345.761 4.71177 0.867698 0
M  V30 3591 H 344.125 2.48555 0.556117 0
M  V30 3592 H 344.908 3.31416 -0.89544 0
M  V30 3593 N 347.353 -0.0568162 1.57498 0
M  V30 3594 C 348.63 -0.786954 1.79071 0
M  V30 3595 C 349.01 -1.95028 0.80792 0
M  V30 3596 O 348.358 -2.27968 -0.155858 0
M  V30 3597 C 348.568 -1.24594 3.26002 0
M  V30 3598 C 349.916 -1.67323 3.90241 0
M  V30 3599 O 350.94 -1.34124 3.29984 0
M  V30 3600 O 349.799 -2.28842 4.9628 0
M  V30 3601 H 346.893 -0.378262 0.735423 0
M  V30 3602 H 349.439 -0.035734 1.69662 0
M  V30 3603 H 348.211 -0.41423 3.89101 0
M  V30 3604 H 347.834 -2.05803 3.40192 0
M  V30 3605 N 348.832 -1.54138 -0.328536 0
M  V30 3606 C 349.742 -1.86192 -1.42723 0
M  V30 3607 C 350.758 -0.753382 -1.56844 0
M  V30 3608 O 351.934 -1.04718 -1.72035 0
M  V30 3609 C 348.999 -2.07824 -2.77507 0
M  V30 3610 C 348.06 -3.31641 -2.72603 0
M  V30 3611 C 347.293 -3.52232 -4.00959 0
M  V30 3612 O 347.516 -2.7636 -4.9898 0
M  V30 3613 O 346.45 -4.45699 -4.0452 0
M  V30 3614 H 350.276 -2.79608 -1.18547 0
M  V30 3615 H 347.861 -1.3998 -0.522104 0
M  V30 3616 H 349.743 -2.23411 -3.57303 0
M  V30 3617 H 348.418 -1.17596 -3.01584 0
M  V30 3618 H 347.325 -3.21444 -1.91376 0
M  V30 3619 H 348.658 -4.2191 -2.53481 0
M  V30 3620 N 350.31 0.590341 -1.46126 0
M  V30 3621 C 351.587 1.35029 -1.41515 0
M  V30 3622 C 351.967 2.10888 -0.0946472 0
M  V30 3623 O 351.315 2.08998 0.923693 0
M  V30 3624 C 351.525 2.28269 -2.63997 0
M  V30 3625 C 352.873 2.90338 -3.09821 0
M  V30 3626 O 353.897 2.38585 -2.64492 0
M  V30 3627 O 352.756 3.84321 -3.88535 0
M  V30 3628 H 349.85 0.606317 -0.562413 0
M  V30 3629 H 352.396 0.611994 -1.58281 0
M  V30 3630 H 351.168 1.71591 -3.51671 0
M  V30 3631 H 350.791 3.0945 -2.49652 0
M  V30 3632 N 351.788 1.33704 0.83433 0
M  V30 3633 C 352.72 1.20172 1.9517 0
M  V30 3634 C 353.733 0.131572 1.62267 0
M  V30 3635 O 354.922 0.382406 1.74356 0
M  V30 3636 C 352.022 0.821716 3.28787 0
M  V30 3637 C 351.195 1.98446 3.89792 0
M  V30 3638 C 350.254 1.58469 5.01771 0
M  V30 3639 O 349.28 2.29968 5.20676 0
M  V30 3640 N 350.482 0.492291 5.78409 0
M  V30 3641 H 353.247 2.16429 2.07313 0
M  V30 3642 H 350.808 1.26509 1.0103 0
M  V30 3643 H 352.8 0.536291 4.01131 0
M  V30 3644 H 351.37 -0.0503058 3.1256 0
M  V30 3645 H 350.59 2.43526 3.09982 0
M  V30 3646 H 351.878 2.76236 4.27283 0
M  V30 3647 H 351.276 -0.102349 5.65607 0
M  V30 3648 H 349.833 0.266555 6.51255 0
M  V30 3649 N 353.266 -1.05314 1.17247 0
M  V30 3650 C 354.512 -1.78557 0.961513 0
M  V30 3651 C 354.845 -1.87419 -0.508697 0
M  V30 3652 O 354.12 -1.37307 -1.37757 0
M  V30 3653 C 354.403 -3.22514 1.60176 0
M  V30 3654 C 354.256 -3.21673 3.14399 0
M  V30 3655 C 355.575 -4.20318 1.30463 0
M  V30 3656 H 352.694 -0.6482 0.350723 0
M  V30 3657 H 355.336 -1.23102 1.44727 0
M  V30 3658 H 353.486 -3.69867 1.18871 0
M  V30 3659 H 355.158 -2.82405 3.64753 0
M  V30 3660 H 353.401 -2.60048 3.47214 0
M  V30 3661 H 354.072 -4.23271 3.54324 0
M  V30 3662 H 356.548 -3.81454 1.66229 0
M  V30 3663 H 355.424 -5.19289 1.77848 0
M  V30 3664 H 355.685 -4.41526 0.22521 0
M  V30 3665 N 354.744 -0.972509 -1.24016 0
M  V30 3666 C 356.16 -0.679827 -1.44397 0
M  V30 3667 C 356.36 0.756716 -1.86751 0
M  V30 3668 O 355.416 1.53007 -2.00861 0
M  V30 3669 C 356.729 -1.66803 -2.50195 0
M  V30 3670 C 358.277 -1.68119 -2.64017 0
M  V30 3671 C 358.752 -2.65748 -3.73017 0
M  V30 3672 N 360.243 -2.64219 -3.8045 0
M  V30 3673 C 360.978 -3.36433 -4.64328 0
M  V30 3674 N 360.474 -4.1818 -5.52356 0
M  V30 3675 N 362.267 -3.25235 -4.58453 0
M  V30 3676 H 354.418 -1.90059 -0.948228 0
M  V30 3677 H 356.681 -0.818527 -0.478245 0
M  V30 3678 H 356.387 -2.69498 -2.25973 0
M  V30 3679 H 356.261 -1.4446 -3.48441 0
M  V30 3680 H 358.648 -0.661319 -2.87594 0
M  V30 3681 H 358.729 -1.94525 -1.66113 0
M  V30 3682 H 358.373 -3.67872 -3.50189 0
M  V30 3683 H 358.303 -2.36619 -4.70446 0
M  V30 3684 H 360.794 -2.04887 -3.17537 0
M  V30 3685 H 361.107 -4.70157 -6.13329 0
M  V30 3686 H 359.452 -4.22273 -5.52006 0
M  V30 3687 H 362.643 -2.60829 -3.88698 0
M  V30 3688 H 362.816 -3.81776 -5.23594 0
M  V30 3689 N 356.222 1.38976 -0.743202 0
M  V30 3690 C 357.185 2.28901 -0.117014 0
M  V30 3691 C 358.185 1.46698 0.658503 0
M  V30 3692 O 359.375 1.67274 0.486305 0
M  V30 3693 C 356.507 3.30309 0.84315 0
M  V30 3694 H 357.7 2.8578 -0.909373 0
M  V30 3695 H 355.253 1.47761 -0.509547 0
M  V30 3696 H 355.988 2.785 1.66157 0
M  V30 3697 H 355.773 3.91029 0.289594 0
M  V30 3698 H 357.263 3.97577 1.2776 0
M  V30 3699 N 357.7 0.491464 1.49741 0
M  V30 3700 C 359.116 0.146835 1.58923 0
M  V30 3701 C 359.316 -1.34804 1.49767 0
M  V30 3702 O 358.372 -2.12317 1.36667 0
M  V30 3703 C 359.685 0.715157 2.92072 0
M  V30 3704 C 361.233 0.680407 3.05515 0
M  V30 3705 C 361.708 1.22663 4.41269 0
M  V30 3706 N 363.199 1.18691 4.47735 0
M  V30 3707 C 363.934 1.57984 5.51207 0
M  V30 3708 N 363.43 2.04824 6.6183 0
M  V30 3709 N 365.223 1.49459 5.41866 0
M  V30 3710 H 357.374 1.46347 1.53936 0
M  V30 3711 H 359.637 0.606453 0.728642 0
M  V30 3712 H 359.343 1.76317 3.04311 0
M  V30 3713 H 359.217 0.17018 3.76816 0
M  V30 3714 H 361.604 -0.358743 2.92911 0
M  V30 3715 H 361.685 1.26242 2.22478 0
M  V30 3716 H 361.329 2.26451 4.54623 0
M  V30 3717 H 361.259 0.620637 5.2293 0
M  V30 3718 H 363.75 0.843605 3.68364 0
M  V30 3719 H 364.063 2.32901 7.3687 0
M  V30 3720 H 362.408 2.08791 6.62896 0
M  V30 3721 H 365.599 1.12692 4.54333 0
M  V30 3722 H 365.772 1.80406 6.22381 0
M  V30 3723 N 359.178 -1.55987 0.224894 0
M  V30 3724 C 360.427 -1.97566 -0.406273 0
M  V30 3725 C 360.74 -1.11569 -1.6066 0
M  V30 3726 O 361.946 -1.43062 -2.3075 0
M  V30 3727 C 360.402 -3.51474 -0.774207 0
M  V30 3728 C 360.01 -4.46179 0.403496 0
M  V30 3729 C 361.754 -4.01758 -1.37079 0
M  V30 3730 C 359.661 -5.91399 0.0129412 0
M  V30 3731 H 358.591 -0.737777 -0.155565 0
M  V30 3732 H 361.242 -1.80659 0.321635 0
M  V30 3733 H 359.624 -3.63994 -1.55963 0
M  V30 3734 H 360.798 -4.45409 1.18101 0
M  V30 3735 H 359.113 -4.06255 0.913536 0
M  V30 3736 H 361.71 -5.07756 -1.67596 0
M  V30 3737 H 362.053 -3.47805 -2.28773 0
M  V30 3738 H 362.586 -3.92475 -0.648733 0
M  V30 3739 H 359.325 -6.49341 0.896451 0
M  V30 3740 H 358.845 -5.95356 -0.728821 0
M  V30 3741 H 360.524 -6.45683 -0.412582 0
M  V30 3742 N 360.656 0.0484629 -1.57525 0
M  V30 3743 C 361.586 1.0549 -2.08313 0
M  V30 3744 C 362.567 1.38929 -0.981463 0
M  V30 3745 O 363.752 1.48151 -1.25558 0
M  V30 3746 C 360.882 2.36162 -2.54646 0
M  V30 3747 C 359.836 2.17016 -3.68901 0
M  V30 3748 C 359.162 3.53278 -4.01371 0
M  V30 3749 C 360.462 1.57219 -4.98076 0
M  V30 3750 H 362.156 0.632195 -2.92649 0
M  V30 3751 H 359.702 0.302654 -1.40784 0
M  V30 3752 H 361.655 3.06882 -2.88793 0
M  V30 3753 H 360.379 2.80456 -1.67368 0
M  V30 3754 H 359.038 1.48733 -3.35073 0
M  V30 3755 H 358.686 3.95185 -3.11188 0
M  V30 3756 H 358.386 3.41299 -4.78318 0
M  V30 3757 H 359.91 4.25391 -4.38035 0
M  V30 3758 H 361.324 2.17832 -5.30304 0
M  V30 3759 H 359.721 1.55871 -5.79503 0
M  V30 3760 H 360.791 0.535956 -4.81929 0
M  V30 3761 N 362.134 1.5431 0.320358 0
M  V30 3762 C 363.382 1.72327 1.05583 0
M  V30 3763 C 363.703 0.50149 1.88441 0
M  V30 3764 O 362.973 -0.48448 1.89815 0
M  V30 3765 H 361.553 0.635387 0.3928 0
M  V30 3766 H 364.215 1.91621 0.356019 0
M  V30 3767 H 363.311 2.60426 1.72003 0
M  V30 3768 N 363.613 -0.582584 1.46437 0
M  V30 3769 C 364.853 -1.35184 1.53312 0
M  V30 3770 C 365.217 -1.9115 0.180508 0
M  V30 3771 O 366.418 -2.68514 0.124017 0
M  V30 3772 C 364.689 -2.45089 2.60127 0
M  V30 3773 S 366.248 -3.32439 2.86408 0
M  V30 3774 H 363.066 -0.460559 0.54167 0
M  V30 3775 H 365.668 -0.669709 1.83671 0
M  V30 3776 H 364.372 -2.02366 3.57038 0
M  V30 3777 H 363.903 -3.18074 2.315 0
M  V30 3778 H 365.918 -4.43924 2.21688 0
M  V30 3779 N 365.091 -1.34144 -0.827227 0
M  V30 3780 C 366.021 -1.28005 -1.95287 0
M  V30 3781 C 367.002 -0.158321 -1.69362 0
M  V30 3782 O 368.187 -0.349987 -1.9102 0
M  V30 3783 C 365.317 -1.03036 -3.31664 0
M  V30 3784 C 364.271 -2.11628 -3.72019 0
M  V30 3785 C 363.597 -1.71854 -5.0633 0
M  V30 3786 C 364.897 -3.53417 -3.8457 0
M  V30 3787 H 366.591 -2.22187 -2.00682 0
M  V30 3788 H 364.137 -1.0696 -0.964135 0
M  V30 3789 H 366.09 -0.973863 -4.09993 0
M  V30 3790 H 364.814 -0.0529391 -3.26557 0
M  V30 3791 H 363.473 -2.16339 -2.95961 0
M  V30 3792 H 363.121 -0.727841 -4.97706 0
M  V30 3793 H 362.821 -2.44531 -5.34302 0
M  V30 3794 H 364.345 -1.67692 -5.87122 0
M  V30 3795 H 365.759 -3.51142 -4.5318 0
M  V30 3796 H 364.156 -4.24679 -4.2399 0
M  V30 3797 H 365.226 -3.91072 -2.86689 0
M  V30 3798 N 366.569 1.04691 -1.17803 0
M  V30 3799 C 367.501 2.12571 -0.857097 0
M  V30 3800 C 368.514 1.62174 0.142647 0
M  V30 3801 O 369.703 1.78301 -0.0843387 0
M  V30 3802 C 366.803 3.37915 -0.258216 0
M  V30 3803 C 365.976 4.1757 -1.30207 0
M  V30 3804 C 365.035 5.2125 -0.720029 0
M  V30 3805 O 364.061 5.51888 -1.39314 0
M  V30 3806 N 365.263 5.78466 0.485507 0
M  V30 3807 H 368.028 2.40698 -1.78562 0
M  V30 3808 H 365.589 1.20831 -1.07757 0
M  V30 3809 H 367.581 4.04442 0.144584 0
M  V30 3810 H 366.151 3.07281 0.574199 0
M  V30 3811 H 365.371 3.46458 -1.88043 0
M  V30 3812 H 366.659 4.67586 -2.00601 0
M  V30 3813 H 366.057 5.55866 1.05022 0
M  V30 3814 H 364.614 6.4649 0.830307 0
M  V30 3815 N 368.047 0.979072 1.23499 0
M  V30 3816 C 368.957 0.526431 2.28617 0
M  V30 3817 C 369.973 -0.418126 1.68901 0
M  V30 3818 O 371.149 -0.288372 1.99325 0
M  V30 3819 C 368.214 -0.165235 3.46306 0
M  V30 3820 C 367.275 0.82056 4.21385 0
M  V30 3821 C 366.508 0.161807 5.33455 0
M  V30 3822 O 366.731 -1.04742 5.60701 0
M  V30 3823 O 365.665 0.859708 5.95729 0
M  V30 3824 H 369.491 1.4006 2.69475 0
M  V30 3825 H 367.076 0.746643 1.29405 0
M  V30 3826 H 368.958 -0.553287 4.17752 0
M  V30 3827 H 367.633 -1.01419 3.07402 0
M  V30 3828 H 366.54 1.25929 3.52268 0
M  V30 3829 H 367.873 1.63828 4.64135 0
M  V30 3830 N 369.525 -1.3858 0.750561 0
M  V30 3831 C 370.936 -1.82927 0.373438 0
M  V30 3832 C 371.287 -1.62634 -1.09748 0
M  V30 3833 O 370.412 -1.12588 -1.84805 0
M  V30 3834 C 371.007 -3.32088 0.671029 0
M  V30 3835 C 369.566 -3.74795 0.34722 0
M  V30 3836 C 368.713 -2.61391 0.92575 0
M  V30 3837 H 371.664 -1.27351 0.946958 0
M  V30 3838 H 371.685 -3.80465 -0.0518269 0
M  V30 3839 H 371.197 -3.46826 1.74164 0
M  V30 3840 H 369.298 -3.65638 -0.716933 0
M  V30 3841 H 369.411 -4.71667 0.840656 0
M  V30 3842 H 367.775 -2.52265 0.351327 0
M  V30 3843 H 368.558 -2.78929 2.00133 0
M  V30 3844 N 371.003 -0.499398 -1.49478 0
M  V30 3845 C 372.231 0.0425456 -2.06856 0
M  V30 3846 C 372.646 1.30964 -1.35992 0
M  V30 3847 O 372.003 1.77172 -0.437762 0
M  V30 3848 C 372.054 0.301735 -3.60239 0
M  V30 3849 O 371.775 -0.915127 -4.28436 0
M  V30 3850 C 373.276 0.887499 -4.34325 0
M  V30 3851 H 370.496 -0.0197482 -0.670709 0
M  V30 3852 H 373.04 -0.696297 -1.92281 0
M  V30 3853 H 371.195 0.990556 -3.74522 0
M  V30 3854 H 371.609 -0.676993 -5.20113 0
M  V30 3855 H 373.083 1.01845 -5.42523 0
M  V30 3856 H 373.56 1.88488 -3.96698 0
M  V30 3857 H 374.166 0.236196 -4.24644 0
M  V30 3858 N 372.481 1.55866 -0.233164 0
M  V30 3859 C 373.428 2.20796 0.67215 0
M  V30 3860 C 374.398 1.16731 1.18166 0
M  V30 3861 O 375.583 1.45129 1.23864 0
M  V30 3862 C 372.723 2.90072 1.86955 0
M  V30 3863 C 371.836 4.08759 1.39786 0
M  V30 3864 C 370.971 4.65787 2.55374 0
M  V30 3865 C 370.01 5.76752 2.04998 0
M  V30 3866 N 369.147 6.28021 3.13901 0
M  V30 3867 H 373.987 2.9779 0.111749 0
M  V30 3868 H 371.524 1.47036 0.0434007 0
M  V30 3869 H 373.482 3.28428 2.57276 0
M  V30 3870 H 372.112 2.15575 2.40265 0
M  V30 3871 H 371.164 3.7581 0.589173 0
M  V30 3872 H 372.476 4.88906 0.98856 0
M  V30 3873 H 371.63 5.06646 3.33758 0
M  V30 3874 H 370.369 3.84828 2.99598 0
M  V30 3875 H 369.374 5.35383 1.25079 0
M  V30 3876 H 370.599 6.59553 1.61759 0
M  V30 3877 H 368.545 5.49971 3.57586 0
M  V30 3878 H 368.462 7.03323 2.7726 0
M  V30 3879 H 369.73 6.73538 3.92386 0
M  V30 3880 N 373.959 -0.0401083 1.57549 0
M  V30 3881 C 375.184 -0.748931 1.93406 0
M  V30 3882 C 375.609 -1.68686 0.832274 0
M  V30 3883 O 374.967 -1.80047 -0.212818 0
M  V30 3884 C 375.015 -1.4916 3.28304 0
M  V30 3885 O 374.119 -2.6042 3.19774 0
M  V30 3886 H 373.46 -0.202212 0.63246 0
M  V30 3887 H 375.99 0.00112086 2.046 0
M  V30 3888 H 376 -1.86395 3.62934 0
M  V30 3889 H 374.675 -0.80364 4.08062 0
M  V30 3890 H 373.252 -2.25808 2.96758 0
M  V30 3891 N 375.437 -1.54477 -0.31217 0
M  V30 3892 C 376.853 -1.45442 -0.657185 0
M  V30 3893 C 377.053 -0.63653 -1.91182 0
M  V30 3894 O 376.109 -0.139815 -2.52113 0
M  V30 3895 C 377.422 -2.89287 -0.82058 0
M  V30 3896 C 378.97 -2.9926 -0.917188 0
M  V30 3897 C 379.445 -4.44279 -1.11267 0
M  V30 3898 N 380.936 -4.4794 -1.17914 0
M  V30 3899 C 381.671 -5.57318 -1.34848 0
M  V30 3900 N 381.167 -6.76642 -1.48752 0
M  V30 3901 N 382.96 -5.44986 -1.37647 0
M  V30 3902 H 375.111 -2.06129 0.512313 0
M  V30 3903 H 377.374 -0.933088 0.167485 0
M  V30 3904 H 377.08 -3.51687 0.0302604 0
M  V30 3905 H 376.954 -3.36061 -1.71298 0
M  V30 3906 H 379.341 -2.36981 -1.75852 0
M  V30 3907 H 379.422 -2.558 -0.00101257 0
M  V30 3908 H 379.066 -5.07149 -0.27614 0
M  V30 3909 H 378.996 -4.85359 -2.04289 0
M  V30 3910 H 381.487 -3.61969 -1.08567 0
M  V30 3911 H 381.8 -7.55758 -1.61397 0
M  V30 3912 H 380.145 -6.79529 -1.45828 0
M  V30 3913 H 383.336 -4.50715 -1.26388 0
M  V30 3914 H 383.509 -6.3028 -1.50501 0
M  V30 3915 N 376.915 0.57481 -1.46744 0
M  V30 3916 C 378.326 1.15695 -1.46532 0
M  V30 3917 C 378.677 1.95068 -0.210425 0
M  V30 3918 O 377.802 2.05241 0.685944 0
M  V30 3919 C 378.397 2.1048 -2.65487 0
M  V30 3920 C 376.956 2.64002 -2.68291 0
M  V30 3921 C 376.103 1.40026 -2.39349 0
M  V30 3922 H 379.054 0.362325 -1.54509 0
M  V30 3923 H 379.075 2.94074 -2.41455 0
M  V30 3924 H 378.587 1.52683 -3.56805 0
M  V30 3925 H 376.688 3.25646 -1.81067 0
M  V30 3926 H 376.801 3.06197 -3.68483 0
M  V30 3927 H 375.165 1.70106 -1.89568 0
M  V30 3928 H 375.948 0.840485 -3.32852 0
M  V30 3929 N 378.394 1.34581 0.820102 0
M  V30 3930 C 379.671 1.17675 1.56244 0
M  V30 3931 C 380.051 -0.249541 2.0962 0
M  V30 3932 O 379.399 -1.25125 1.91196 0
M  V30 3933 C 379.609 2.23364 2.6816 0
M  V30 3934 C 380.957 2.58485 3.36854 0
M  V30 3935 O 381.981 2.22175 2.78418 0
M  V30 3936 O 380.84 3.20868 4.42386 0
M  V30 3937 H 377.934 0.456333 0.689702 0
M  V30 3938 H 380.48 1.46222 0.861231 0
M  V30 3939 H 379.252 3.19087 2.26493 0
M  V30 3940 H 378.875 1.96009 3.45928 0
M  V30 3941 N 379.872 -1.04064 1.18357 0
M  V30 3942 C 380.804 -2.12114 0.868358 0
M  V30 3943 C 381.817 -1.62247 -0.134045 0
M  V30 3944 O 383.006 -1.78253 0.0937933 0
M  V30 3945 C 380.106 -3.37773 0.276132 0
M  V30 3946 C 379.279 -4.16874 1.3242 0
M  V30 3947 C 378.338 -5.20861 0.747662 0
M  V30 3948 O 377.364 -5.51141 1.42239 0
M  V30 3949 N 378.566 -5.78715 -0.454823 0
M  V30 3950 H 381.331 -2.39748 1.79836 0
M  V30 3951 H 378.892 -1.20258 1.08396 0
M  V30 3952 H 380.884 -4.04513 -0.123133 0
M  V30 3953 H 379.454 -3.07581 -0.557895 0
M  V30 3954 H 378.674 -3.45456 1.89878 0
M  V30 3955 H 379.962 -4.66516 2.03078 0
M  V30 3956 H 379.36 -5.56415 -1.02073 0
M  V30 3957 H 377.917 -6.46921 -0.79601 0
M  V30 3958 N 381.35 -0.985608 -1.22978 0
M  V30 3959 C 382.761 -0.693593 -1.73338 0
M  V30 3960 C 383.112 0.789935 -1.79595 0
M  V30 3961 O 382.237 1.61771 -1.43733 0
M  V30 3962 C 382.832 -1.25235 -3.14804 0
M  V30 3963 C 381.391 -1.00987 -3.626 0
M  V30 3964 C 380.538 -1.37695 -2.40698 0
M  V30 3965 H 383.489 -1.15884 -1.08428 0
M  V30 3966 H 383.51 -0.627329 -3.75293 0
M  V30 3967 H 383.022 -2.33209 -3.10218 0
M  V30 3968 H 381.123 0.0535565 -3.72562 0
M  V30 3969 H 381.236 -1.66812 -4.49122 0
M  V30 3970 H 379.6 -0.795459 -2.4196 0
M  V30 3971 H 380.383 -2.46657 -2.38779 0
M  V30 3972 N 382.828 1.3818 -0.7579 0
M  V30 3973 C 383.791 2.28764 -0.141286 0
M  V30 3974 C 384.791 1.47388 0.642907 0
M  V30 3975 O 385.981 1.67781 0.468536 0
M  V30 3976 C 383.113 3.31184 0.808069 0
M  V30 3977 H 384.306 2.848 -0.939633 0
M  V30 3978 H 381.859 1.47212 -0.525191 0
M  V30 3979 H 382.594 2.80247 1.63193 0
M  V30 3980 H 382.379 3.91314 0.248104 0
M  V30 3981 H 383.869 3.98909 1.23536 0
M  V30 3982 N 384.306 0.507319 1.49211 0
M  V30 3983 C 385.269 -0.256763 2.27757 0
M  V30 3984 C 386.269 -0.888287 1.34038 0
M  V30 3985 O 387.459 -0.751841 1.5714 0
M  V30 3986 C 384.591 -1.36905 3.12202 0
M  V30 3987 H 385.784 0.432557 2.96764 0
M  V30 3988 H 383.337 0.262488 1.5408 0
M  V30 3989 H 384.072 -2.09233 2.47775 0
M  V30 3990 H 383.857 -0.921599 3.81115 0
M  V30 3991 H 385.347 -1.9071 3.7151 0
M  V30 3992 N 385.784 -1.5574 0.241426 0
M  V30 3993 C 387.031 -1.9881 -0.384836 0
M  V30 3994 C 387.359 -1.12947 -1.58346 0
M  V30 3995 O 386.614 -0.178993 -1.9488 0
M  V30 3996 C 386.913 -3.47308 -0.843317 0
M  V30 3997 C 386.579 -4.50223 0.246946 0
M  V30 3998 C 385.241 -4.78088 0.546399 0
M  V30 3999 C 387.593 -5.11841 0.983282 0
M  V30 4000 C 384.921 -5.64846 1.58636 0
M  V30 4001 C 387.273 -5.99727 2.01272 0
M  V30 4002 C 385.937 -6.25927 2.31888 0
M  V30 4003 H 385.207 -0.727496 -0.140821 0
M  V30 4004 H 387.854 -1.8831 0.348106 0
M  V30 4005 H 386.159 -3.55112 -1.65537 0
M  V30 4006 H 387.856 -3.78017 -1.33806 0
M  V30 4007 H 384.446 -4.286 0.00340639 0
M  V30 4008 H 388.63 -4.90366 0.765182 0
M  V30 4009 H 383.886 -5.83403 1.82896 0
M  V30 4010 H 388.06 -6.46517 2.58823 0
M  V30 4011 H 385.687 -6.92949 3.12611 0
M  V30 4012 N 387.262 0.0317525 -1.57568 0
M  V30 4013 C 388.51 0.721676 -1.88776 0
M  V30 4014 C 388.831 1.76039 -0.838772 0
M  V30 4015 O 388.101 1.95482 0.127935 0
M  V30 4016 H 386.681 0.269534 -0.696678 0
M  V30 4017 H 389.343 -0.00165879 -1.949 0
M  V30 4018 H 388.439 1.21293 -2.87566 0
M  V30 4019 N 388.74 1.54641 0.303973 0
M  V30 4020 C 389.67 1.88386 1.3796 0
M  V30 4021 C 390.651 0.742485 1.5304 0
M  V30 4022 O 391.836 0.997959 1.66597 0
M  V30 4023 C 388.966 2.12854 2.74427 0
M  V30 4024 C 387.92 3.28702 2.74115 0
M  V30 4025 C 387.246 3.38582 4.13844 0
M  V30 4026 C 388.546 4.65881 2.3612 0
M  V30 4027 H 390.24 2.78474 1.09966 0
M  V30 4028 H 387.786 1.33988 0.527556 0
M  V30 4029 H 389.739 2.35047 3.49758 0
M  V30 4030 H 388.463 1.19535 3.03939 0
M  V30 4031 H 387.122 3.06428 2.0124 0
M  V30 4032 H 386.77 2.42784 4.40528 0
M  V30 4033 H 386.47 4.16453 4.14537 0
M  V30 4034 H 387.994 3.63031 4.90959 0
M  V30 4035 H 389.408 4.87823 3.01167 0
M  V30 4036 H 387.805 5.46444 2.48031 0
M  V30 4037 H 388.875 4.66799 1.3125 0
M  V30 4038 N 390.218 -0.567019 1.47046 0
M  V30 4039 C 391.148 -1.68482 1.61667 0
M  V30 4040 C 392.129 -1.6358 0.466418 0
M  V30 4041 O 393.314 -1.81354 0.694574 0
M  V30 4042 C 390.444 -3.07124 1.62148 0
M  V30 4043 C 389.398 -3.26867 2.76301 0
M  V30 4044 C 388.724 -4.66196 2.61849 0
M  V30 4045 C 390.024 -3.13186 4.17986 0
M  V30 4046 H 391.718 -1.56502 2.5524 0
M  V30 4047 H 389.264 -0.751486 1.22836 0
M  V30 4048 H 391.217 -3.8516 1.70968 0
M  V30 4049 H 389.941 -3.2004 0.651287 0
M  V30 4050 H 388.6 -2.51237 2.66975 0
M  V30 4051 H 388.248 -4.75898 1.62879 0
M  V30 4052 H 387.948 -4.80356 3.38425 0
M  V30 4053 H 389.472 -5.46379 2.72584 0
M  V30 4054 H 390.886 -3.81049 4.2834 0
M  V30 4055 H 389.283 -3.3886 4.95272 0
M  V30 4056 H 390.353 -2.10057 4.3704 0
M  V30 4057 N 391.696 -1.35014 -0.812953 0
M  V30 4058 C 392.936 -1.29289 -1.58315 0
M  V30 4059 C 393.3 0.132727 -1.91541 0
M  V30 4060 O 394.501 0.314269 -2.66957 0
M  V30 4061 C 392.772 -2.1681 -2.84127 0
M  V30 4062 S 394.331 -2.28538 -3.74588 0
M  V30 4063 H 391.149 -0.459569 -0.542511 0
M  V30 4064 H 393.751 -1.70336 -0.959467 0
M  V30 4065 H 392.455 -3.19379 -2.57731 0
M  V30 4066 H 391.986 -1.76697 -3.51485 0
M  V30 4067 H 394.001 -1.4655 -4.74065 0
M  V30 4068 N 393.175 1.03435 -1.18907 0
M  V30 4069 C 394.591 1.28973 -0.940111 0
M  V30 4070 C 394.791 1.97676 0.390691 0
M  V30 4071 O 393.847 2.26127 1.12352 0
M  V30 4072 C 395.16 2.14221 -2.11021 0
M  V30 4073 C 396.708 2.27547 -2.14922 0
M  V30 4074 C 397.183 3.16164 -3.31367 0
M  V30 4075 N 398.674 3.23752 -3.31269 0
M  V30 4076 C 399.409 3.92495 -4.18014 0
M  V30 4077 N 398.905 4.63515 -5.14904 0
M  V30 4078 N 400.698 3.88838 -4.05908 0
M  V30 4079 H 392.849 0.57252 -2.04538 0
M  V30 4080 H 395.112 0.315184 -0.894071 0
M  V30 4081 H 394.818 1.71054 -3.073 0
M  V30 4082 H 394.692 3.14919 -2.0762 0
M  V30 4083 H 397.079 2.69947 -1.19217 0
M  V30 4084 H 397.16 1.26418 -2.22378 0
M  V30 4085 H 396.804 2.74474 -4.27348 0
M  V30 4086 H 396.734 4.17339 -3.21148 0
M  V30 4087 H 399.225 2.73167 -2.61129 0
M  V30 4088 H 399.538 5.13583 -5.77453 0
M  V30 4089 H 397.883 4.62398 -5.18857 0
M  V30 4090 H 401.074 3.32491 -3.29495 0
M  V30 4091 H 401.247 4.4214 -4.73726 0
M  V30 4092 N 394.653 0.992116 1.22453 0
M  V30 4093 C 395.586 0.486701 2.22949 0
M  V30 4094 C 396.564 -0.45259 1.56174 0
M  V30 4095 O 397.748 -0.378317 1.84665 0
M  V30 4096 C 394.875 -0.294537 3.37417 0
M  V30 4097 C 393.921 0.590628 4.22391 0
M  V30 4098 S 394.754 2.04546 4.94895 0
M  V30 4099 C 395.91 1.27369 6.12803 0
M  V30 4100 H 396.143 1.33828 2.65475 0
M  V30 4101 H 393.676 0.799023 1.32117 0
M  V30 4102 H 395.634 -0.739241 4.03789 0
M  V30 4103 H 394.295 -1.12139 2.934 0
M  V30 4104 H 393.488 -0.0104375 5.03999 0
M  V30 4105 H 393.09 0.972064 3.61147 0
M  V30 4106 H 395.382 0.540943 6.75337 0
M  V30 4107 H 396.325 2.06502 6.7732 0
M  V30 4108 H 396.733 0.787324 5.58983 0
M  V30 4109 N 396.131 -1.37776 0.765217 0
M  V30 4110 C 397.094 -2.28686 0.153416 0
M  V30 4111 C 398.094 -1.47727 -0.635081 0
M  V30 4112 O 399.284 -1.68027 -0.459632 0
M  V30 4113 C 396.416 -3.31608 -0.790495 0
M  V30 4114 H 397.609 -2.84297 0.954723 0
M  V30 4115 H 395.162 -1.46932 0.53299 0
M  V30 4116 H 395.897 -2.81109 -1.61705 0
M  V30 4117 H 395.682 -3.9144 -0.227348 0
M  V30 4118 H 397.172 -3.99559 -1.21419 0
M  V30 4119 N 397.609 -0.515225 -1.4894 0
M  V30 4120 C 398.886 0.0879088 -1.95402 0
M  V30 4121 C 399.266 1.52745 -1.45712 0
M  V30 4122 O 398.614 2.18238 -0.677093 0
M  V30 4123 C 398.824 -0.0141055 -3.48997 0
M  V30 4124 C 400.172 0.152646 -4.24326 0
M  V30 4125 O 401.196 0.0604025 -3.56149 0
M  V30 4126 O 400.055 0.34384 -5.45417 0
M  V30 4127 H 397.149 0.0874636 -0.822362 0
M  V30 4128 H 399.695 -0.578775 -1.59525 0
M  V30 4129 H 398.467 -1.01745 -3.77841 0
M  V30 4130 H 398.09 0.692091 -3.9153 0
M  V30 4131 N 399.087 1.5561 -0.249682 0
M  V30 4132 C 400.019 2.18834 0.681496 0
M  V30 4133 C 401.032 1.16546 1.1367 0
M  V30 4134 O 402.221 1.43397 1.06299 0
M  V30 4135 C 399.321 2.77992 1.9384 0
M  V30 4136 C 398.494 4.05725 1.63419 0
M  V30 4137 C 397.553 4.49174 2.74096 0
M  V30 4138 O 396.579 5.15492 2.41364 0
M  V30 4139 N 397.781 4.17191 4.03649 0
M  V30 4140 H 400.546 2.9937 0.140514 0
M  V30 4141 H 398.107 1.6175 -0.0697541 0
M  V30 4142 H 400.099 3.04015 2.67127 0
M  V30 4143 H 398.669 2.01596 2.38909 0
M  V30 4144 H 397.889 3.87261 0.736358 0
M  V30 4145 H 399.177 4.88999 1.40562 0
M  V30 4146 H 398.575 3.63955 4.33074 0
M  V30 4147 H 397.132 4.48043 4.73393 0
M  V30 4148 N 400.565 -0.0233959 1.57583 0
M  V30 4149 C 401.793 -0.724682 1.93794 0
M  V30 4150 C 402.208 -1.68588 0.849912 0
M  V30 4151 O 401.565 -1.81676 -0.173204 0
M  V30 4152 C 401.616 -1.47684 3.29957 0
M  V30 4153 O 401.337 -0.554222 4.3458 0
M  V30 4154 C 402.838 -2.27477 3.80485 0
M  V30 4155 H 400.058 -0.203317 0.639455 0
M  V30 4156 H 402.602 0.0207653 2.04489 0
M  V30 4157 H 400.757 -2.17412 3.20641 0
M  V30 4158 H 401.171 -1.08232 5.13212 0
M  V30 4159 H 402.645 -2.7564 4.78254 0
M  V30 4160 H 403.122 -3.09144 3.11972 0
M  V30 4161 H 403.728 -1.62813 3.92902 0
M  V30 4162 N 402.043 -1.548 -0.295768 0
M  V30 4163 C 403.29 -1.74329 -1.03032 0
M  V30 4164 C 403.618 -0.531915 -1.87085 0
M  V30 4165 O 402.873 0.486052 -1.89568 0
M  V30 4166 C 403.172 -2.98797 -1.961 0
M  V30 4167 C 402.838 -4.32356 -1.2798 0
M  V30 4168 C 401.5 -4.68661 -1.09135 0
M  V30 4169 C 403.852 -5.15128 -0.793243 0
M  V30 4170 C 401.18 -5.85312 -0.403269 0
M  V30 4171 C 403.532 -6.32488 -0.118854 0
M  V30 4172 C 402.196 -6.6745 0.0815043 0
M  V30 4173 H 401.466 -0.637916 -0.37702 0
M  V30 4174 H 404.113 -1.8906 -0.304696 0
M  V30 4175 H 402.418 -2.78869 -2.75207 0
M  V30 4176 H 404.115 -3.11102 -2.53015 0
M  V30 4177 H 400.705 -4.03808 -1.43655 0
M  V30 4178 H 404.889 -4.87575 -0.92653 0
M  V30 4179 H 400.145 -6.1094 -0.237098 0
M  V30 4180 H 404.319 -6.95892 0.266035 0
M  V30 4181 H 401.946 -7.57695 0.616685 0
M  V30 4182 N 403.521 0.559213 -1.47345 0
M  V30 4183 C 404.77 1.31281 -1.53128 0
M  V30 4184 C 405.083 1.94602 -0.197344 0
M  V30 4185 O 406.289 2.71173 -0.133154 0
M  V30 4186 C 404.745 2.38051 -2.69925 0
M  V30 4187 C 404.353 1.8093 -4.0984 0
M  V30 4188 C 406.097 3.14604 -2.84999 0
M  V30 4189 C 404.004 2.85468 -5.1794 0
M  V30 4190 H 402.934 0.493614 -0.569966 0
M  V30 4191 H 405.585 0.594155 -1.73615 0
M  V30 4192 H 403.967 3.12822 -2.42814 0
M  V30 4193 H 405.141 1.12544 -4.46845 0
M  V30 4194 H 403.456 1.16967 -3.99634 0
M  V30 4195 H 406.053 3.92666 -3.62929 0
M  V30 4196 H 406.396 3.68665 -1.93369 0
M  V30 4197 H 406.929 2.46945 -3.1187 0
M  V30 4198 H 403.668 2.36264 -6.1144 0
M  V30 4199 H 403.188 3.52269 -4.85455 0
M  V30 4200 H 404.867 3.48996 -5.44803 0
M  V30 4201 N 404.999 1.35443 0.805782 0
M  V30 4202 C 406.224 1.32037 1.59941 0
M  V30 4203 C 406.649 -0.0994215 1.87837 0
M  V30 4204 O 406.007 -1.06648 1.46615 0
M  V30 4205 C 406.055 2.13354 2.90711 0
M  V30 4206 O 405.159 1.5148 3.83572 0
M  V30 4207 H 404.5 0.452666 0.485787 0
M  V30 4208 H 407.03 1.78496 1.00002 0
M  V30 4209 H 407.04 2.25338 3.40128 0
M  V30 4210 H 405.715 3.16572 2.69732 0
M  V30 4211 H 404.292 1.4834 3.42125 0
M  V30 4212 N 406.477 -1.02803 1.19454 0
M  V30 4213 C 407.726 -1.7562 0.991996 0
M  V30 4214 C 408.039 -1.89672 -0.477901 0
M  V30 4215 O 409.245 -2.59468 -0.799287 0
M  V30 4216 C 407.701 -3.15812 1.72601 0
M  V30 4217 C 407.309 -3.0981 3.23607 0
M  V30 4218 C 409.053 -3.92918 1.60674 0
M  V30 4219 C 406.96 -4.44939 3.89594 0
M  V30 4220 H 405.89 -0.658352 0.367543 0
M  V30 4221 H 408.541 -1.15044 1.42959 0
M  V30 4222 H 406.923 -3.7686 1.21624 0
M  V30 4223 H 408.097 -2.58138 3.81709 0
M  V30 4224 H 406.412 -2.46201 3.35819 0
M  V30 4225 H 409.009 -4.9287 2.07323 0
M  V30 4226 H 409.352 -4.12502 0.561025 0
M  V30 4227 H 409.885 -3.38472 2.09001 0
M  V30 4228 H 406.624 -4.30559 4.94267 0
M  V30 4229 H 406.144 -4.96664 3.36281 0
M  V30 4230 H 407.823 -5.1382 3.93189 0
M  V30 4231 N 407.956 -0.998596 -1.21925 0
M  V30 4232 C 409.202 -0.678667 -1.91107 0
M  V30 4233 C 409.535 0.78791 -1.77498 0
M  V30 4234 O 408.81 1.57043 -1.1475 0
M  V30 4235 C 409.093 -1.09245 -3.43129 0
M  V30 4236 C 408.946 -2.61801 -3.6576 0
M  V30 4237 C 410.265 -0.649984 -4.35274 0
M  V30 4238 H 407.384 -0.248025 -0.694012 0
M  V30 4239 H 410.026 -1.24314 -1.43688 0
M  V30 4240 H 408.176 -0.612171 -3.83647 0
M  V30 4241 H 409.848 -3.17543 -3.34611 0
M  V30 4242 H 408.091 -3.03609 -3.09845 0
M  V30 4243 H 408.762 -2.85804 -4.7225 0
M  V30 4244 H 411.238 -1.0626 -4.02303 0
M  V30 4245 H 410.114 -0.967743 -5.40302 0
M  V30 4246 H 410.375 0.449139 -4.39813 0
M  V30 4247 N 409.434 1.37368 -0.772513 0
M  V30 4248 C 410.711 1.93839 -0.26188 0
M  V30 4249 C 411.091 1.7061 1.24319 0
M  V30 4250 O 410.439 1.05534 2.02669 0
M  V30 4251 C 410.649 3.43154 -0.636102 0
M  V30 4252 C 411.997 4.20249 -0.606324 0
M  V30 4253 O 413.021 3.5152 -0.575538 0
M  V30 4254 O 411.88 5.42809 -0.634086 0
M  V30 4255 H 408.974 0.82478 -0.0605555 0
M  V30 4256 H 411.52 1.4665 -0.853917 0
M  V30 4257 H 410.292 3.53647 -1.6748 0
M  V30 4258 H 409.915 3.97596 -0.0170516 0
M  V30 4259 N 410.912 0.523116 1.48665 0
M  V30 4260 C 412.158 -0.00540031 2.03399 0
M  V30 4261 C 412.513 -1.3264 1.39372 0
M  V30 4262 O 411.806 -1.84184 0.527916 0
M  V30 4263 C 412 -0.191671 3.56886 0
M  V30 4264 C 411.829 1.10972 4.35793 0
M  V30 4265 C 410.599 1.66769 4.76987 0
M  V30 4266 C 412.797 2.01861 4.73029 0
M  V30 4267 N 410.779 2.91268 5.40404 0
M  V30 4268 C 412.15 3.10937 5.36394 0
M  V30 4269 C 414.205 2.02271 4.54962 0
M  V30 4270 C 412.908 4.20478 5.83601 0
M  V30 4271 C 414.934 3.10802 5.03146 0
M  V30 4272 C 414.296 4.18597 5.6653 0
M  V30 4273 H 410.395 0.0393531 0.781009 0
M  V30 4274 H 412.979 0.702876 1.8157 0
M  V30 4275 H 411.15 -0.869025 3.78553 0
M  V30 4276 H 412.882 -0.719177 3.98259 0
M  V30 4277 H 409.637 1.20996 4.57883 0
M  V30 4278 H 410.061 3.54635 5.76683 0
M  V30 4279 H 414.703 1.2023 4.05345 0
M  V30 4280 H 412.421 5.03303 6.32228 0
M  V30 4281 H 416.007 3.12166 4.90962 0
M  V30 4282 H 414.887 5.01193 6.03138 0
M  V30 4283 N 412.39 -1.55475 0.257931 0
M  V30 4284 C 413.353 -2.20551 -0.623706 0
M  V30 4285 C 414.353 -1.17809 -1.09443 0
M  V30 4286 O 415.543 -1.42823 -0.997362 0
M  V30 4287 C 412.675 -2.85784 -1.8585 0
M  V30 4288 H 413.868 -2.99848 -0.0557743 0
M  V30 4289 H 411.421 -1.56298 0.0084422 0
M  V30 4290 H 412.156 -2.10453 -2.46739 0
M  V30 4291 H 411.941 -3.61057 -1.52907 0
M  V30 4292 H 413.431 -3.35553 -2.48584 0
M  V30 4293 N 413.868 0.0150385 -1.57593 0
M  V30 4294 C 415.284 0.370907 -1.5523 0
M  V30 4295 C 415.484 1.75735 -0.985882 0
M  V30 4296 O 414.54 2.44944 -0.613077 0
M  V30 4297 C 415.853 0.259908 -2.99575 0
M  V30 4298 C 417.401 0.335959 -3.11192 0
M  V30 4299 C 417.876 0.254253 -4.57294 0
M  V30 4300 N 419.367 0.312618 -4.62144 0
M  V30 4301 C 420.102 0.272505 -5.72752 0
M  V30 4302 N 419.598 0.183864 -6.92556 0
M  V30 4303 N 421.391 0.323267 -5.6117 0
M  V30 4304 H 413.542 -0.892104 -1.92757 0
M  V30 4305 H 415.805 -0.340563 -0.884715 0
M  V30 4306 H 415.511 -0.693403 -3.44797 0
M  V30 4307 H 415.385 1.048 -3.62349 0
M  V30 4308 H 417.772 1.27971 -2.65909 0
M  V30 4309 H 417.853 -0.481739 -2.51223 0
M  V30 4310 H 417.497 -0.685887 -5.03247 0
M  V30 4311 H 417.427 1.09024 -5.15191 0
M  V30 4312 H 419.918 0.38307 -3.75953 0
M  V30 4313 H 420.231 0.15874 -7.72637 0
M  V30 4314 H 418.576 0.149708 -6.94839 0
M  V30 4315 H 421.767 0.390607 -4.66467 0
M  V30 4316 H 421.94 0.288539 -6.47357 0
M  V30 4317 N 415.346 1.54954 0.287554 0
M  V30 4318 C 416.762 1.46469 0.633964 0
M  V30 4319 C 416.962 0.666865 1.90145 0
M  V30 4320 O 416.018 0.179906 2.51858 0
M  V30 4321 C 417.331 2.90556 0.774454 0
M  V30 4322 C 418.879 3.00681 0.869462 0
M  V30 4323 C 419.354 4.45993 1.04184 0
M  V30 4324 N 420.845 4.4976 1.10772 0
M  V30 4325 C 421.58 5.59393 1.25964 0
M  V30 4326 N 421.076 6.78923 1.37968 0
M  V30 4327 N 422.869 5.47107 1.28959 0
M  V30 4328 H 415.02 2.05288 -0.545041 0
M  V30 4329 H 417.283 0.930305 -0.182308 0
M  V30 4330 H 416.989 3.51594 -0.086207 0
M  V30 4331 H 416.863 3.38743 1.6593 0
M  V30 4332 H 419.25 2.39749 1.7206 0
M  V30 4333 H 419.331 2.55769 -0.0396831 0
M  V30 4334 H 418.975 5.07524 0.195422 0
M  V30 4335 H 418.905 4.88548 1.96542 0
M  V30 4336 H 421.396 3.63651 1.02794 0
M  V30 4337 H 421.709 7.58231 1.49353 0
M  V30 4338 H 420.054 6.81763 1.34999 0
M  V30 4339 H 423.245 4.52668 1.19202 0
M  V30 4340 H 423.418 6.32595 1.40455 0
M  V30 4341 N 416.824 -0.551391 1.4764 0
M  V30 4342 C 418.064 -1.31901 1.56145 0
M  V30 4343 C 418.428 -1.90724 0.221013 0
M  V30 4344 O 419.629 -2.6819 0.180945 0
M  V30 4345 C 417.9 -2.39517 2.65267 0
M  V30 4346 S 419.459 -3.26289 2.93395 0
M  V30 4347 H 416.277 -0.448965 0.551318 0
M  V30 4348 H 418.879 -0.630599 1.85051 0
M  V30 4349 H 417.583 -1.94747 3.6125 0
M  V30 4350 H 417.114 -3.13092 2.38195 0
M  V30 4351 H 419.129 -4.39122 2.31055 0
M  V30 4352 N 418.302 -1.35869 -0.798587 0
M  V30 4353 C 419.235 -1.23801 -1.91699 0
M  V30 4354 C 420.213 -0.124143 -1.62125 0
M  V30 4355 O 421.397 -0.293656 -1.86199 0
M  V30 4356 C 418.524 -0.908063 -3.263 0
M  V30 4357 C 417.57 -2.0351 -3.74815 0
M  V30 4358 S 418.403 -3.65183 -3.91665 0
M  V30 4359 C 419.559 -3.34283 -5.29156 0
M  V30 4360 H 419.792 -2.18466 -2.01643 0
M  V30 4361 H 417.325 -1.21178 -0.956833 0
M  V30 4362 H 419.283 -0.724506 -4.04056 0
M  V30 4363 H 417.944 0.0206584 -3.14093 0
M  V30 4364 H 417.137 -1.75858 -4.72324 0
M  V30 4365 H 416.739 -2.1774 -3.04081 0
M  V30 4366 H 419.031 -2.87607 -6.13424 0
M  V30 4367 H 419.974 -4.31022 -5.61806 0
M  V30 4368 H 420.382 -2.69854 -4.95822 0
M  V30 4369 N 419.78 1.02168 -1.19998 0
M  V30 4370 C 421.026 1.75945 -1.00852 0
M  V30 4371 C 421.359 1.88702 0.458828 0
M  V30 4372 O 420.634 1.40911 1.34069 0
M  V30 4373 C 420.917 3.18154 -1.68671 0
M  V30 4374 C 420.77 3.13224 -3.22817 0
M  V30 4375 C 422.089 4.16711 -1.41561 0
M  V30 4376 H 419.208 0.638673 -0.367785 0
M  V30 4377 H 421.85 1.19222 -1.4794 0
M  V30 4378 H 420 3.66586 -1.28636 0
M  V30 4379 H 421.672 2.72635 -3.72112 0
M  V30 4380 H 419.915 2.50751 -3.53986 0
M  V30 4381 H 420.586 4.13728 -3.65422 0
M  V30 4382 H 423.062 3.76913 -1.76284 0
M  V30 4383 H 421.938 5.14391 -1.91553 0
M  V30 4384 H 422.199 4.40774 -0.342193 0
M  V30 4385 N 421.258 1.00505 1.21394 0
M  V30 4386 C 422.505 0.687774 1.90462 0
M  V30 4387 C 422.833 -0.78147 1.7811 0
M  V30 4388 O 422.088 -1.58208 1.1519 0
M  V30 4389 C 422.387 1.0546 3.41486 0
M  V30 4390 C 422.053 2.51812 3.74034 0
M  V30 4391 C 420.715 2.91804 3.82628 0
M  V30 4392 C 423.067 3.46614 3.8924 0
M  V30 4393 C 420.395 4.2556 4.03876 0
M  V30 4394 C 422.747 4.80044 4.11995 0
M  V30 4395 C 421.411 5.19759 4.18816 0
M  V30 4396 H 420.681 0.251674 0.696951 0
M  V30 4397 H 423.328 1.26349 1.43903 0
M  V30 4398 H 421.633 0.397133 3.89782 0
M  V30 4399 H 423.33 0.786976 3.93202 0
M  V30 4400 H 419.92 2.1982 3.67936 0
M  V30 4401 H 424.104 3.16883 3.81967 0
M  V30 4402 H 419.36 4.55901 4.07387 0
M  V30 4403 H 423.534 5.53439 4.22704 0
M  V30 4404 H 421.161 6.23418 4.35033 0
M  V30 4405 N 422.737 -1.36956 0.779787 0
M  V30 4406 C 423.684 -2.30175 0.169697 0
M  V30 4407 C 424.654 -1.51501 -0.68094 0
M  V30 4408 O 425.839 -1.80042 -0.631629 0
M  V30 4409 C 422.979 -3.37985 -0.697131 0
M  V30 4410 C 422.092 -4.31661 0.170992 0
M  V30 4411 C 421.227 -5.2655 -0.701298 0
M  V30 4412 C 420.266 -6.11867 0.168869 0
M  V30 4413 N 419.403 -6.98973 -0.661855 0
M  V30 4414 H 424.243 -2.81767 0.970135 0
M  V30 4415 H 421.78 -1.38699 0.489994 0
M  V30 4416 H 423.738 -3.99128 -1.2146 0
M  V30 4417 H 422.368 -2.87739 -1.46309 0
M  V30 4418 H 421.42 -3.71756 0.80634 0
M  V30 4419 H 422.732 -4.91644 0.841875 0
M  V30 4420 H 421.886 -5.92937 -1.28494 0
M  V30 4421 H 420.625 -4.66998 -1.40584 0
M  V30 4422 H 419.63 -5.44452 0.764986 0
M  V30 4423 H 420.855 -6.73493 0.870863 0
M  V30 4424 H 418.801 -6.41941 -1.35086 0
M  V30 4425 H 418.718 -7.55984 -0.0484447 0
M  V30 4426 H 419.986 -7.6974 -1.22963 0
M  V30 4427 N 424.215 -0.530993 -1.48385 0
M  V30 4428 C 425.125 0.23503 -2.3342 0
M  V30 4429 C 426.141 0.93801 -1.46552 0
M  V30 4430 O 427.317 0.912745 -1.7953 0
M  V30 4431 C 424.382 1.26778 -3.22689 0
M  V30 4432 C 423.443 0.575038 -4.25431 0
M  V30 4433 C 422.676 1.55858 -5.10435 0
M  V30 4434 O 422.899 2.79129 -4.97437 0
M  V30 4435 O 421.833 1.09742 -5.91811 0
M  V30 4436 H 425.659 -0.461794 -3.00169 0
M  V30 4437 H 423.244 -0.291903 -1.46521 0
M  V30 4438 H 425.126 1.86457 -3.77904 0
M  V30 4439 H 423.801 1.94699 -2.586 0
M  V30 4440 H 422.708 -0.0622782 -3.74048 0
M  V30 4441 H 424.041 -0.062253 -4.92161 0
M  V30 4442 N 425.693 1.55336 -0.266172 0
M  V30 4443 C 426.623 2.25146 0.618981 0
M  V30 4444 C 427.604 1.23845 1.16604 0
M  V30 4445 O 428.789 1.52544 1.20183 0
M  V30 4446 C 425.919 2.96572 1.80728 0
M  V30 4447 C 424.873 4.04726 1.39215 0
M  V30 4448 C 424.199 4.63678 2.66283 0
M  V30 4449 C 425.499 5.19407 0.548942 0
M  V30 4450 H 427.193 2.99377 0.0368116 0
M  V30 4451 H 424.739 1.43991 0.0162651 0
M  V30 4452 H 426.692 3.44116 2.43232 0
M  V30 4453 H 425.416 2.19861 2.41514 0
M  V30 4454 H 424.075 3.57979 0.790351 0
M  V30 4455 H 423.723 3.83646 3.25308 0
M  V30 4456 H 423.423 5.367 2.39222 0
M  V30 4457 H 424.947 5.13967 3.29651 0
M  V30 4458 H 426.361 5.63059 1.07876 0
M  V30 4459 H 424.758 5.98936 0.373593 0
M  V30 4460 H 425.828 4.8295 -0.434394 0
M  V30 4461 N 427.171 -0.0066808 1.57599 0
M  V30 4462 C 428.081 -1.01671 2.11424 0
M  V30 4463 C 429.097 -1.38143 1.05795 0
M  V30 4464 O 430.273 -1.47011 1.37658 0
M  V30 4465 C 427.338 -2.29192 2.60139 0
M  V30 4466 C 426.399 -1.99094 3.80342 0
M  V30 4467 C 425.632 -3.20535 4.26724 0
M  V30 4468 O 425.855 -4.3199 3.72479 0
M  V30 4469 O 424.789 -3.04924 5.18946 0
M  V30 4470 H 428.615 -0.589181 2.9793 0
M  V30 4471 H 426.2 -0.225091 1.47695 0
M  V30 4472 H 428.082 -3.0412 2.917 0
M  V30 4473 H 426.757 -2.71195 1.76733 0
M  V30 4474 H 425.664 -1.21663 3.53764 0
M  V30 4475 H 426.997 -1.61931 4.648 0
M  V30 4476 N 428.649 -1.55105 -0.279332 0
M  V30 4477 C 429.895 -1.75672 -1.01327 0
M  V30 4478 C 430.228 -0.552739 -1.86168 0
M  V30 4479 O 429.503 0.449827 -1.89227 0
M  V30 4480 C 429.786 -3.05825 -1.90114 0
M  V30 4481 C 429.639 -4.36565 -1.08309 0
M  V30 4482 C 430.958 -3.31975 -2.8893 0
M  V30 4483 H 428.077 -0.639149 -0.366957 0
M  V30 4484 H 430.719 -1.87833 -0.286154 0
M  V30 4485 H 428.869 -2.95588 -2.52111 0
M  V30 4486 H 430.541 -4.58751 -0.484314 0
M  V30 4487 H 428.784 -4.32076 -0.386362 0
M  V30 4488 H 429.455 -5.23946 -1.73737 0
M  V30 4489 H 431.931 -3.41963 -2.37067 0
M  V30 4490 H 430.807 -4.2432 -3.48201 0
M  V30 4491 H 431.068 -2.51309 -3.63725 0
M  V30 4492 N 430.127 0.543554 -1.4793 0
M  V30 4493 C 431.09 1.63156 -1.60975 0
M  V30 4494 C 432.09 1.53346 -0.483899 0
M  V30 4495 O 433.28 1.5726 -0.749339 0
M  V30 4496 C 430.412 3.02743 -1.56716 0
M  V30 4497 H 431.605 1.52934 -2.57975 0
M  V30 4498 H 429.158 0.764557 -1.36324 0
M  V30 4499 H 429.893 3.18484 -0.611418 0
M  V30 4500 H 429.678 3.11272 -2.38438 0
M  V30 4501 H 431.168 3.81871 -1.6901 0
M  V30 4502 N 431.605 1.3629 0.791371 0
M  V30 4503 C 432.882 1.20962 1.53712 0
M  V30 4504 C 433.262 -0.205021 2.10102 0
M  V30 4505 O 432.61 -1.21042 1.93807 0
M  V30 4506 C 432.82 2.29002 2.63361 0
M  V30 4507 C 434.168 2.65572 3.31295 0
M  V30 4508 O 435.192 2.2803 2.73643 0
M  V30 4509 O 434.051 3.3018 4.35481 0
M  V30 4510 H 431.145 0.47086 0.679867 0
M  V30 4511 H 433.691 1.48016 0.830021 0
M  V30 4512 H 432.463 3.2382 2.19674 0
M  V30 4513 H 432.086 2.03303 3.41692 0
M  V30 4514 N 433.083 -1.0153 1.20538 0
M  V30 4515 C 434.015 -2.10224 0.913155 0
M  V30 4516 C 435.028 -1.62495 -0.0995998 0
M  V30 4517 O 436.217 -1.78014 0.131582 0
M  V30 4518 C 433.317 -3.37111 0.347717 0
M  V30 4519 C 432.49 -4.13971 1.41233 0
M  V30 4520 C 431.549 -5.19158 0.857976 0
M  V30 4521 O 430.575 -5.48 1.53897 0
M  V30 4522 N 431.777 -5.7955 -0.331966 0
M  V30 4523 H 434.542 -2.35879 1.84881 0
M  V30 4524 H 432.103 -1.17931 1.10923 0
M  V30 4525 H 434.095 -4.04683 -0.0373026 0
M  V30 4526 H 432.665 -3.08696 -0.492527 0
M  V30 4527 H 431.885 -3.41351 1.97163 0
M  V30 4528 H 433.173 -4.62103 2.12928 0
M  V30 4529 H 432.571 -5.58455 -0.902478 0
M  V30 4530 H 431.128 -6.48464 -0.65861 0
M  V30 4531 N 434.561 -1.01147 -1.20859 0
M  V30 4532 C 435.494 -0.522108 -2.22147 0
M  V30 4533 C 436.472 0.427686 -1.56874 0
M  V30 4534 O 437.656 0.34889 -1.85243 0
M  V30 4535 C 434.783 0.240819 -3.37843 0
M  V30 4536 C 433.829 -0.657752 -4.21398 0
M  V30 4537 S 434.662 -2.12393 -4.91578 0
M  V30 4538 C 435.818 -1.37102 -6.10699 0
M  V30 4539 H 436.051 -1.38035 -2.63313 0
M  V30 4540 H 433.584 -0.819941 -1.30829 0
M  V30 4541 H 435.542 0.674908 -4.04914 0
M  V30 4542 H 434.203 1.07457 -2.95147 0
M  V30 4543 H 433.396 -0.0697456 -5.03952 0
M  V30 4544 H 432.998 -1.0294 -3.59555 0
M  V30 4545 H 435.29 -0.648315 -6.74391 0
M  V30 4546 H 436.233 -2.17252 -6.73949 0
M  V30 4547 H 436.641 -0.876154 -5.57659 0
M  V30 4548 N 436.039 1.36541 -0.78704 0
M  V30 4549 C 437.267 2.03561 -0.370199 0
M  V30 4550 C 437.682 1.59347 1.01263 0
M  V30 4551 O 437.039 0.781781 1.64907 0
M  V30 4552 C 437.09 3.59033 -0.421614 0
M  V30 4553 O 436.811 4.01634 -1.7499 0
M  V30 4554 C 438.312 4.433 0.00489763 0
M  V30 4555 H 435.532 0.653346 -0.152904 0
M  V30 4556 H 438.076 1.74566 -1.06522 0
M  V30 4557 H 436.231 3.86746 0.224971 0
M  V30 4558 H 436.645 4.96217 -1.69909 0
M  V30 4559 H 438.119 5.51939 -0.0822184 0
M  V30 4560 H 438.596 4.26285 1.05723 0
M  V30 4561 H 439.202 4.20843 -0.614085 0
M  V30 4562 N 437.518 0.538854 1.48102 0
M  V30 4563 C 438.448 -0.207654 2.32575 0
M  V30 4564 C 439.429 -0.926559 1.4265 0
M  V30 4565 O 440.614 -0.91061 1.71527 0
M  V30 4566 C 437.744 -1.24957 3.24042 0
M  V30 4567 C 436.698 -0.648263 4.23062 0
M  V30 4568 C 436.024 -1.79348 5.03725 0
M  V30 4569 C 437.324 0.385897 5.20872 0
M  V30 4570 H 439.018 0.497534 2.95237 0
M  V30 4571 H 436.564 0.240715 1.41974 0
M  V30 4572 H 438.517 -1.77983 3.81969 0
M  V30 4573 H 437.241 -1.98446 2.59397 0
M  V30 4574 H 435.9 -0.139452 3.66335 0
M  V30 4575 H 435.548 -2.51696 4.35498 0
M  V30 4576 H 435.248 -1.39702 5.70751 0
M  V30 4577 H 436.772 -2.32735 5.64506 0
M  V30 4578 H 438.186 -0.057607 5.73271 0
M  V30 4579 H 436.583 0.700227 5.96001 0
M  V30 4580 H 437.653 1.28848 4.67468 0
M  V30 4581 N 438.996 -1.55193 0.274407 0
M  V30 4582 C 439.926 -2.25471 -0.607032 0
M  V30 4583 C 440.907 -1.24461 -1.15946 0
M  V30 4584 O 442.092 -1.53179 -1.19373 0
M  V30 4585 C 439.222 -2.97526 -1.79153 0
M  V30 4586 C 438.176 -4.05459 -1.37067 0
M  V30 4587 C 437.502 -4.65084 -2.6382 0
M  V30 4588 C 438.802 -5.19691 -0.521389 0
M  V30 4589 H 440.496 -2.99393 -0.0209343 0
M  V30 4590 H 438.042 -1.43997 -0.00862866 0
M  V30 4591 H 439.995 -3.45402 -2.41404 0
M  V30 4592 H 438.719 -2.21138 -2.40344 0
M  V30 4593 H 437.378 -3.58393 -0.771355 0
M  V30 4594 H 437.026 -3.85365 -3.23268 0
M  V30 4595 H 436.726 -5.37961 -2.36372 0
M  V30 4596 H 438.25 -5.15708 -3.26921 0
M  V30 4597 H 439.664 -5.63623 -1.04889 0
M  V30 4598 H 438.061 -5.99126 -0.341825 0
M  V30 4599 H 439.131 -4.82713 0.46 0
M  V30 4600 N 440.474 -0.00167713 -1.576 0
M  V30 4601 C 441.406 1.0174 -2.05382 0
M  V30 4602 C 442.419 1.30595 -0.972052 0
M  V30 4603 O 443.608 1.27542 -1.24882 0
M  V30 4604 C 440.708 2.35174 -2.44022 0
M  V30 4605 C 439.881 2.25234 -3.74951 0
M  V30 4606 C 438.94 3.4137 -4.00441 0
M  V30 4607 O 437.966 3.19483 -4.71083 0
M  V30 4608 N 439.168 4.64275 -3.48467 0
M  V30 4609 H 441.933 0.609902 -2.93428 0
M  V30 4610 H 439.494 0.185672 -1.60832 0
M  V30 4611 H 441.486 3.11643 -2.58187 0
M  V30 4612 H 440.056 2.67659 -1.61485 0
M  V30 4613 H 439.276 1.33664 -3.70847 0
M  V30 4614 H 440.564 2.15767 -4.60784 0
M  V30 4615 H 439.962 4.84955 -2.91264 0
M  V30 4616 H 438.519 5.38005 -3.67959 0
M  V30 4617 N 441.952 1.55251 0.271103 0
M  V30 4618 C 442.9 1.89054 1.35504 0
M  V30 4619 C 443.894 0.767064 1.51038 0
M  V30 4620 O 445.1 0.951429 1.528 0
M  V30 4621 H 441.475 0.600072 0.45323 0
M  V30 4622 H 443.446 2.79598 1.04247 0
M  V30 4623 C 442.195 2.18068 2.70817 0
M  V30 4624 H 441.518 3.04005 2.59656 0
M  V30 4625 H 442.958 2.4564 3.45597 0
M  V30 4626 C 441.417 0.988901 3.2206 0
M  V30 4627 O 441.947 0.224501 4.01072 0
M  V30 4628 N 440.153 0.786085 2.79766 0
M  V30 4629 H 439.7 1.40937 2.15626 0
M  V30 4630 H 439.658 -0.00969349 3.14399 0
M  V30 4631 N 443.43 -0.535701 1.48216 0
M  V30 4632 C 444.67 -1.30238 1.57536 0
M  V30 4633 C 445.034 -1.90479 0.241229 0
M  V30 4634 O 446.235 -2.67983 0.20938 0
M  V30 4635 C 444.506 -2.3669 2.67792 0
M  V30 4636 S 446.065 -3.23159 2.9684 0
M  V30 4637 H 442.883 -0.443093 0.556048 0
M  V30 4638 H 445.485 -0.610937 1.85709 0
M  V30 4639 H 444.189 -1.90905 3.63296 0
M  V30 4640 H 443.72 -3.10548 2.41502 0
M  V30 4641 H 445.735 -4.36647 2.35699 0
M  V30 4642 N 444.908 -1.36708 -0.784132 0
M  V30 4643 C 446.154 -1.32433 -1.54379 0
M  V30 4644 C 446.509 0.0941816 -1.92169 0
M  V30 4645 O 445.802 1.04997 -1.60269 0
M  V30 4646 C 445.996 -2.18571 -2.82774 0
M  V30 4647 C 445.825 -3.68656 -2.57533 0
M  V30 4648 C 444.595 -4.37813 -2.52286 0
M  V30 4649 C 446.793 -4.61802 -2.2637 0
M  V30 4650 N 444.775 -5.7351 -2.18997 0
M  V30 4651 C 446.146 -5.85785 -2.03115 0
M  V30 4652 C 448.201 -4.50313 -2.12421 0
M  V30 4653 C 446.904 -6.99569 -1.67321 0
M  V30 4654 C 448.93 -5.63969 -1.78026 0
M  V30 4655 C 448.292 -6.86994 -1.55622 0
M  V30 4656 H 444.391 -0.539886 -0.565727 0
M  V30 4657 H 446.975 -1.71812 -0.915908 0
M  V30 4658 H 445.146 -1.81429 -3.43421 0
M  V30 4659 H 446.878 -2.05646 -3.48557 0
M  V30 4660 H 443.633 -3.90674 -2.67714 0
M  V30 4661 H 444.057 -6.45189 -2.05084 0
M  V30 4662 H 448.699 -3.55781 -2.28429 0
M  V30 4663 H 446.417 -7.94047 -1.5005 0
M  V30 4664 H 450.003 -5.57044 -1.67909 0
M  V30 4665 H 448.883 -7.7345 -1.294 0
M  V30 4666 N 446.386 1.0089 -1.21074 0
M  V30 4667 C 447.611 1.78727 -1.05221 0
M  V30 4668 C 448.036 1.83932 0.393795 0
M  V30 4669 O 447.394 1.28004 1.28393 0
M  V30 4670 C 447.442 3.20665 -1.64944 0
M  V30 4671 O 446.546 4.02632 -0.892273 0
M  V30 4672 H 445.887 0.550973 -0.370574 0
M  V30 4673 H 448.417 1.26847 -1.60534 0
M  V30 4674 H 448.427 3.71352 -1.69002 0
M  V30 4675 H 447.102 3.16191 -2.70177 0
M  V30 4676 H 445.679 3.61207 -0.926492 0
M  V30 4677 N 447.864 1.01787 1.20321 0
M  V30 4678 C 448.774 0.598898 2.26827 0
M  V30 4679 C 449.79 -0.36418 1.70146 0
M  V30 4680 O 450.966 -0.224812 2.00141 0
M  V30 4681 C 448.031 -0.0549769 3.46656 0
M  V30 4682 C 447.092 0.954205 4.18561 0
M  V30 4683 C 446.325 0.331439 5.3267 0
M  V30 4684 O 446.548 -0.86851 5.63749 0
M  V30 4685 O 445.482 1.0488 5.92692 0
M  V30 4686 H 449.308 1.48562 2.64883 0
M  V30 4687 H 446.893 0.787434 1.26964 0
M  V30 4688 H 448.775 -0.420102 4.19301 0
M  V30 4689 H 447.45 -0.915876 3.10473 0
M  V30 4690 H 446.357 1.37072 3.48083 0
M  V30 4691 H 447.69 1.78511 4.58688 0
M  V30 4692 N 449.342 -1.36122 0.79427 0
M  V30 4693 C 450.272 -2.32551 0.210328 0
M  V30 4694 C 451.253 -1.56884 -0.657386 0
M  V30 4695 O 452.438 -1.85014 -0.590207 0
M  V30 4696 C 449.568 -3.41128 -0.651819 0
M  V30 4697 C 448.522 -4.27842 0.116395 0
M  V30 4698 C 447.848 -5.2763 -0.86666 0
M  V30 4699 C 449.148 -5.05647 1.30837 0
M  V30 4700 H 450.842 -2.81636 1.01594 0
M  V30 4701 H 448.388 -1.35407 0.489981 0
M  V30 4702 H 450.341 -4.07581 -1.07031 0
M  V30 4703 H 449.065 -2.90622 -1.49019 0
M  V30 4704 H 447.724 -3.62952 0.515915 0
M  V30 4705 H 447.372 -4.73395 -1.70019 0
M  V30 4706 H 447.072 -5.86514 -0.35705 0
M  V30 4707 H 448.596 -5.96955 -1.28361 0
M  V30 4708 H 450.01 -5.65113 0.965393 0
M  V30 4709 H 448.407 -5.73967 1.75161 0
M  V30 4710 H 449.477 -4.37006 2.10128 0
M  V30 4711 N 450.82 -0.546701 -1.47814 0
M  V30 4712 C 451.75 0.195317 -2.32682 0
M  V30 4713 C 452.731 0.918981 -1.43139 0
M  V30 4714 O 453.916 0.901501 -1.72008 0
M  V30 4715 C 451.046 1.23237 -3.247 0
M  V30 4716 C 450 0.625818 -4.234 0
M  V30 4717 C 449.326 1.76674 -5.04669 0
M  V30 4718 C 450.626 -0.413515 -5.2066 0
M  V30 4719 H 452.32 -0.513184 -2.94969 0
M  V30 4720 H 449.866 -0.248241 -1.41844 0
M  V30 4721 H 451.819 1.75955 -3.82907 0
M  V30 4722 H 450.543 1.97067 -2.60446 0
M  V30 4723 H 449.202 0.120023 -3.66403 0
M  V30 4724 H 448.85 2.49383 -4.36826 0
M  V30 4725 H 448.55 1.36673 -5.71484 0
M  V30 4726 H 450.074 2.29738 -5.65732 0
M  V30 4727 H 451.488 0.0272042 -5.73294 0
M  V30 4728 H 449.885 -0.731825 -5.95621 0
M  V30 4729 H 450.955 -1.31325 -4.66778 0
M  V30 4730 N 452.299 1.55045 -0.282633 0
M  V30 4731 C 453.545 2.00056 0.332481 0
M  V30 4732 C 453.878 1.1708 1.54939 0
M  V30 4733 O 453.153 0.2427 1.9298 0
M  V30 4734 C 453.436 3.53086 0.70725 0
M  V30 4735 C 453.289 4.46813 -0.517521 0
M  V30 4736 C 454.608 4.12245 1.54084 0
M  V30 4737 H 451.727 0.727268 0.119373 0
M  V30 4738 H 454.369 1.85932 -0.391076 0
M  V30 4739 H 452.519 3.65253 1.32372 0
M  V30 4740 H 454.191 4.46579 -1.15607 0
M  V30 4741 H 452.434 4.18163 -1.1542 0
M  V30 4742 H 453.105 5.51595 -0.211426 0
M  V30 4743 H 455.581 4.03401 1.02013 0
M  V30 4744 H 454.457 5.19515 1.77186 0
M  V30 4745 H 454.718 3.62951 2.52427 0
M  V30 4746 N 453.777 0.010035 1.57597 0
M  V30 4747 C 455.024 -0.6727 1.91 0
M  V30 4748 C 455.352 -1.73219 0.884614 0
M  V30 4749 O 454.607 -1.95395 -0.109215 0
M  V30 4750 C 454.906 -1.34434 3.31153 0
M  V30 4751 C 454.572 -0.417083 4.48967 0
M  V30 4752 C 453.234 -0.161809 4.80928 0
M  V30 4753 C 455.586 0.220753 5.20732 0
M  V30 4754 C 452.914 0.739426 5.82022 0
M  V30 4755 C 455.266 1.10993 6.22787 0
M  V30 4756 C 453.93 1.37428 6.532 0
M  V30 4757 H 453.2 -0.246158 0.698918 0
M  V30 4758 H 455.847 0.0677145 1.9138 0
M  V30 4759 H 454.152 -2.15905 3.26944 0
M  V30 4760 H 455.849 -1.87883 3.54261 0
M  V30 4761 H 452.439 -0.626217 4.24001 0
M  V30 4762 H 456.623 0.0365643 4.96287 0
M  V30 4763 H 451.879 0.952139 6.03941 0
M  V30 4764 H 456.053 1.61046 6.77523 0
M  V30 4765 H 453.68 2.0743 7.31353 0
M  V30 4766 N 455.255 -1.55392 -0.262866 0
M  V30 4767 C 456.532 -1.67204 -1.01499 0
M  V30 4768 C 456.912 -0.545186 -2.03939 0
M  V30 4769 O 456.26 0.453467 -2.23955 0
M  V30 4770 C 456.47 -3.06847 -1.6627 0
M  V30 4771 C 457.818 -3.64928 -2.17054 0
M  V30 4772 O 458.842 -3.09545 -1.76239 0
M  V30 4773 O 457.701 -4.61984 -2.91947 0
M  V30 4774 H 454.795 -0.679467 -0.471438 0
M  V30 4775 H 457.341 -1.67729 -0.257918 0
M  V30 4776 H 456.113 -3.80309 -0.920915 0
M  V30 4777 H 455.736 -3.10266 -2.48638 0
M  V30 4778 N 456.733 0.527833 -1.48498 0
M  V30 4779 C 457.683 1.62844 -1.5958 0
M  V30 4780 C 458.667 1.54397 -0.452809 0
M  V30 4781 O 459.859 1.62381 -0.704364 0
M  V30 4782 C 456.988 3.01557 -1.64067 0
M  V30 4783 C 456.074 3.151 -2.83853 0
M  V30 4784 N 456.465 2.9861 -4.08247 0
M  V30 4785 C 454.763 3.46158 -2.8123 0
M  V30 4786 C 455.464 3.15626 -4.88626 0
M  V30 4787 N 454.44 3.43298 -4.21483 0
M  V30 4788 H 458.242 1.48708 -2.53502 0
M  V30 4789 H 455.756 0.733343 -1.44899 0
M  V30 4790 H 457.753 3.8062 -1.70101 0
M  V30 4791 H 456.413 3.16783 -0.712636 0
M  V30 4792 H 457.424 2.75329 -4.3865 0
M  V30 4793 H 454.101 3.67728 -1.97692 0
M  V30 4794 H 455.491 3.07596 -5.97356 0
M  V30 4795 N 458.211 1.37122 0.776871 0
M  V30 4796 C 459.46 1.31373 1.53049 0
M  V30 4797 C 459.773 -0.101016 1.95339 0
M  V30 4798 O 460.979 -0.280953 2.70042 0
M  V30 4799 C 459.435 2.30567 2.76346 0
M  V30 4800 C 459.043 3.77543 2.41175 0
M  V30 4801 C 460.787 2.33818 3.54301 0
M  V30 4802 C 458.694 4.68481 3.60943 0
M  V30 4803 H 457.624 0.488234 0.574581 0
M  V30 4804 H 460.275 1.62554 0.851372 0
M  V30 4805 H 458.657 1.92396 3.46121 0
M  V30 4806 H 459.831 4.24521 1.79216 0
M  V30 4807 H 458.146 3.77187 1.76405 0
M  V30 4808 H 460.743 2.98965 4.4331 0
M  V30 4809 H 461.086 1.3503 3.93793 0
M  V30 4810 H 461.619 2.7067 2.91518 0
M  V30 4811 H 458.358 5.68378 3.26537 0
M  V30 4812 H 457.878 4.2621 4.22025 0
M  V30 4813 H 459.557 4.85366 4.27819 0
M  V30 4814 N 459.689 -1.00246 1.21608 0
M  V30 4815 C 460.919 -1.77373 1.05935 0
M  V30 4816 C 461.327 -1.85059 -0.393686 0
M  V30 4817 O 460.67 -1.31289 -1.28487 0
M  V30 4818 C 460.732 -3.22705 1.58435 0
M  V30 4819 C 460.396 -3.38591 3.06929 0
M  V30 4820 C 461.393 -3.2667 4.04454 0
M  V30 4821 C 459.078 -3.6395 3.46187 0
M  V30 4822 C 461.072 -3.39877 5.39224 0
M  V30 4823 C 458.759 -3.768 4.81108 0
M  V30 4824 C 459.757 -3.6477 5.77436 0
M  V30 4825 O 459.445 -3.77206 7.09909 0
M  V30 4826 H 459.177 -0.56419 0.372378 0
M  V30 4827 H 461.731 -1.26971 1.61454 0
M  V30 4828 H 459.961 -3.74255 0.973147 0
M  V30 4829 H 461.65 -3.81515 1.38568 0
M  V30 4830 H 462.416 -3.06999 3.75468 0
M  V30 4831 H 458.295 -3.72395 2.71741 0
M  V30 4832 H 461.839 -3.30404 6.14393 0
M  V30 4833 H 457.736 -3.95975 5.09779 0
M  V30 4834 H 458.504 -3.94138 7.17355 0
M  V30 4835 N 461.167 -1.02423 -1.1978 0
M  V30 4836 C 462.583 -0.740459 -1.41384 0
M  V30 4837 C 462.783 0.676827 -1.89793 0
M  V30 4838 O 461.839 1.4435 -2.0717 0
M  V30 4839 C 463.152 -1.77264 -2.42895 0
M  V30 4840 C 464.7 -1.79165 -2.56649 0
M  V30 4841 C 465.175 -2.8133 -3.6141 0
M  V30 4842 N 466.666 -2.80118 -3.68901 0
M  V30 4843 C 467.401 -3.55824 -4.49641 0
M  V30 4844 N 466.897 -4.41231 -5.34123 0
M  V30 4845 N 468.69 -3.44387 -4.44246 0
M  V30 4846 H 460.841 -1.9391 -0.866764 0
M  V30 4847 H 463.104 -0.838074 -0.443098 0
M  V30 4848 H 462.81 -2.7884 -2.14339 0
M  V30 4849 H 462.684 -1.59108 -3.42001 0
M  V30 4850 H 465.071 -0.782702 -2.84531 0
M  V30 4851 H 465.152 -2.01396 -1.57713 0
M  V30 4852 H 464.796 -3.82394 -3.34271 0
M  V30 4853 H 464.726 -2.56359 -4.59986 0
M  V30 4854 H 467.217 -2.1817 -3.08562 0
M  V30 4855 H 467.53 -4.95747 -5.92836 0
M  V30 4856 H 465.875 -4.45306 -5.33599 0
M  V30 4857 H 469.066 -2.7708 -3.77285 0
M  V30 4858 H 469.239 -4.0364 -5.06931 0
M  V30 4859 N 462.645 1.35699 -0.801477 0
M  V30 4860 C 463.577 2.28598 -0.166028 0
M  V30 4861 C 464.59 1.50044 0.631721 0
M  V30 4862 O 465.779 1.72339 0.464921 0
M  V30 4863 C 462.879 3.29625 0.787451 0
M  V30 4864 C 462.052 4.37384 0.037171 0
M  V30 4865 C 461.111 5.183 0.908375 0
M  V30 4866 O 460.137 5.68053 0.361189 0
M  V30 4867 N 461.339 5.35912 2.23112 0
M  V30 4868 H 464.104 2.83771 -0.964071 0
M  V30 4869 H 461.665 1.47994 -0.656469 0
M  V30 4870 H 463.657 3.80648 1.37439 0
M  V30 4871 H 462.227 2.75004 1.48632 0
M  V30 4872 H 461.447 3.87364 -0.730935 0
M  V30 4873 H 462.735 5.0653 -0.480109 0
M  V30 4874 H 462.133 4.97125 2.69968 0
M  V30 4875 H 460.69 5.90133 2.76741 0
M  V30 4876 N 464.123 0.554532 1.47522 0
M  V30 4877 C 465.369 0.0295227 2.02779 0
M  V30 4878 C 465.702 -1.31582 1.42828 0
M  V30 4879 O 464.977 -1.85561 0.582872 0
M  V30 4880 C 465.26 -0.0664057 3.60039 0
M  V30 4881 C 465.113 1.30585 4.30427 0
M  V30 4882 C 466.432 -0.781162 4.33112 0
M  V30 4883 H 463.551 0.0122027 0.736899 0
M  V30 4884 H 466.193 0.716305 1.7598 0
M  V30 4885 H 464.343 -0.651307 3.83002 0
M  V30 4886 H 466.015 1.93374 4.18813 0
M  V30 4887 H 464.258 1.88125 3.90886 0
M  V30 4888 H 464.929 1.19147 5.38988 0
M  V30 4889 H 467.405 -0.284565 4.15126 0
M  V30 4890 H 466.281 -0.817237 5.42782 0
M  V30 4891 H 466.542 -1.83672 4.0214 0
M  V30 4892 N 465.601 -1.54893 0.290851 0
M  V30 4893 C 466.533 -2.20564 -0.623236 0
M  V30 4894 C 467.546 -1.19519 -1.1054 0
M  V30 4895 O 468.735 -1.46165 -1.02459 0
M  V30 4896 C 465.835 -2.83033 -1.86401 0
M  V30 4897 C 465.008 -4.09916 -1.52604 0
M  V30 4898 C 464.067 -4.56284 -2.62091 0
M  V30 4899 O 463.093 -5.2171 -2.27612 0
M  V30 4900 N 464.295 -4.27746 -3.92446 0
M  V30 4901 H 467.06 -2.99638 -0.0610915 0
M  V30 4902 H 464.621 -1.61508 0.112615 0
M  V30 4903 H 466.613 -3.1099 -2.58973 0
M  V30 4904 H 465.183 -2.0786 -2.33481 0
M  V30 4905 H 464.403 -3.89078 -0.633424 0
M  V30 4906 H 465.691 -4.92554 -1.27547 0
M  V30 4907 H 465.089 -3.7531 -4.23272 0
M  V30 4908 H 463.646 -4.60437 -4.61347 0
M  V30 4909 N 467.08 -0.0183926 -1.57589 0
M  V30 4910 C 468.03 0.975944 -2.06057 0
M  V30 4911 C 469.014 1.29204 -0.958908 0
M  V30 4912 O 470.206 1.27995 -1.22255 0
M  V30 4913 C 467.335 2.26194 -2.58247 0
M  V30 4914 C 466.421 1.97467 -3.75323 0
M  V30 4915 N 466.812 1.38968 -4.86335 0
M  V30 4916 C 465.11 2.27515 -3.83605 0
M  V30 4917 C 465.811 1.27131 -5.67638 0
M  V30 4918 N 464.787 1.76319 -5.14211 0
M  V30 4919 H 468.589 0.518444 -2.89291 0
M  V30 4920 H 466.103 0.18688 -1.61321 0
M  V30 4921 H 468.1 2.98289 -2.91255 0
M  V30 4922 H 466.76 2.7258 -1.76438 0
M  V30 4923 H 467.771 1.06608 -5.06809 0
M  V30 4924 H 464.448 2.76649 -3.12684 0
M  V30 4925 H 465.838 0.819882 -6.66879 0
M  V30 4926 N 468.558 1.5553 0.254621 0
M  V30 4927 C 469.806 1.7665 0.981793 0
M  V30 4928 C 470.127 0.580963 1.86145 0
M  V30 4929 O 469.397 -0.403537 1.91699 0
M  V30 4930 H 467.977 0.651475 0.365498 0
M  V30 4931 H 470.639 1.92958 0.274426 0
M  V30 4932 H 469.735 2.67486 1.60802 0
M  V30 4933 N 470.036 -0.519951 1.48776 0
M  V30 4934 C 470.983 -1.62352 1.64044 0
M  V30 4935 C 471.953 -1.58945 0.482251 0
M  V30 4936 O 473.138 -1.77219 0.706971 0
M  V30 4937 C 470.278 -3.00579 1.69547 0
M  V30 4938 C 469.391 -3.14145 2.96541 0
M  V30 4939 C 468.526 -4.42991 2.93142 0
M  V30 4940 C 467.565 -4.50122 4.14797 0
M  V30 4941 N 466.702 -5.7037 4.09418 0
M  V30 4942 H 471.542 -1.48643 2.58281 0
M  V30 4943 H 469.079 -0.723516 1.28077 0
M  V30 4944 H 471.037 -3.80671 1.70719 0
M  V30 4945 H 469.667 -3.13036 0.787918 0
M  V30 4946 H 468.719 -2.27239 3.05068 0
M  V30 4947 H 470.031 -3.15275 3.86527 0
M  V30 4948 H 469.185 -5.31385 2.92772 0
M  V30 4949 H 467.924 -4.44398 2.00902 0
M  V30 4950 H 466.929 -3.60133 4.15433 0
M  V30 4951 H 468.154 -4.50445 5.08208 0
M  V30 4952 H 466.1 -5.72655 3.20004 0
M  V30 4953 H 466.017 -5.73036 4.93119 0
M  V30 4954 H 467.285 -6.61023 4.13121 0
M  V30 4955 N 471.514 -1.37532 -0.769588 0
M  V30 4956 C 472.424 -1.35668 -1.91393 0
M  V30 4957 C 473.44 -0.255954 -1.72107 0
M  V30 4958 O 474.616 -0.491704 -1.95305 0
M  V30 4959 C 471.681 -1.16481 -3.26547 0
M  V30 4960 C 470.742 -2.36212 -3.58472 0
M  V30 4961 C 469.975 -2.17932 -4.87177 0
M  V30 4962 O 470.198 -1.1647 -5.58382 0
M  V30 4963 O 469.132 -3.06167 -5.18214 0
M  V30 4964 H 472.958 -2.32055 -1.95918 0
M  V30 4965 H 470.543 -1.18284 -0.912641 0
M  V30 4966 H 472.425 -1.07778 -4.07384 0
M  V30 4967 H 471.1 -0.231687 -3.2287 0
M  V30 4968 H 470.007 -2.50488 -2.77861 0
M  V30 4969 H 471.34 -3.281 -3.66894 0
M  V30 4970 N 472.992 0.995999 -1.22138 0
M  V30 4971 C 474.24 1.73167 -1.042 0
M  V30 4972 C 474.561 1.90329 0.42423 0
M  V30 4973 O 473.831 1.4607 1.30539 0
M  V30 4974 H 472.411 0.641593 -0.38258 0
M  V30 4975 H 475.073 1.19974 -1.53598 0
M  V30 4976 H 474.169 2.72734 -1.51731 0
M  V30 4977 N 474.47 1.03057 1.19235 0
M  V30 4978 C 475.695 0.74757 1.93458 0
M  V30 4979 C 476.12 -0.687648 1.7508 0
M  V30 4980 O 475.478 -1.47499 1.05422 0
M  V30 4981 C 475.526 1.10604 3.43219 0
M  V30 4982 O 474.63 0.225671 4.11782 0
M  V30 4983 H 473.971 0.276047 0.603899 0
M  V30 4984 H 476.501 1.3777 1.51263 0
M  V30 4985 H 476.511 1.06366 3.93891 0
M  V30 4986 H 475.186 2.15165 3.55917 0
M  V30 4987 H 473.763 0.326795 3.71465 0
M  V30 4988 N 475.948 -1.35272 0.808662 0
M  V30 4989 C 477.197 -1.97963 0.386483 0
M  V30 4990 C 477.51 -1.64866 -1.05255 0
M  V30 4991 O 478.716 -2.20937 -1.57794 0
M  V30 4992 C 477.172 -3.54162 0.640096 0
M  V30 4993 C 476.78 -3.96166 2.0918 0
M  V30 4994 C 478.524 -4.23553 0.283376 0
M  V30 4995 C 476.431 -5.4522 2.29106 0
M  V30 4996 H 475.361 -0.740742 0.140774 0
M  V30 4997 H 478.012 -1.5431 0.993012 0
M  V30 4998 H 476.394 -3.95983 -0.0364117 0
M  V30 4999 H 477.568 -3.65491 2.80629 0
M  V30 5000 H 475.883 -3.3967 2.40859 0
M  V30 5001 H 478.48 -5.33124 0.410273 0
M  V30 5002 H 478.823 -4.09105 -0.770659 0
M  V30 5003 H 479.356 -3.8716 0.913884 0
M  V30 5004 H 476.095 -5.64638 3.32962 0
M  V30 5005 H 475.615 -5.77457 1.62184 0
M  V30 5006 H 477.294 -6.1171 2.1076 0
M  V30 5007 N 477.426 -0.562348 -1.47226 0
M  V30 5008 C 478.356 0.170627 -2.32876 0
M  V30 5009 C 479.337 0.903748 -1.44106 0
M  V30 5010 O 480.522 0.883206 -1.72954 0
M  V30 5011 C 477.652 1.19786 -3.25989 0
M  V30 5012 C 476.606 0.580875 -4.2404 0
M  V30 5013 C 475.932 1.71311 -5.06514 0
M  V30 5014 C 477.232 -0.468714 -5.20193 0
M  V30 5015 H 478.926 -0.544441 -2.94408 0
M  V30 5016 H 476.472 -0.263271 -1.41573 0
M  V30 5017 H 478.425 1.71884 -3.84752 0
M  V30 5018 H 477.149 1.94294 -2.62521 0
M  V30 5019 H 475.808 0.0811538 -3.6651 0
M  V30 5020 H 475.456 2.44736 -4.39447 0
M  V30 5021 H 475.156 1.30604 -5.72902 0
M  V30 5022 H 476.68 2.23725 -5.68137 0
M  V30 5023 H 478.094 -0.0336028 -5.7329 0
M  V30 5024 H 476.491 -0.794957 -5.94811 0
M  V30 5025 H 477.561 -1.36269 -4.65359 0
M  V30 5026 N 478.904 1.54736 -0.299062 0
M  V30 5027 C 479.834 2.26409 0.571085 0
M  V30 5028 C 480.815 1.2629 1.13951 0
M  V30 5029 O 482 1.55059 1.16921 0
M  V30 5030 C 479.13 3.00338 1.74396 0
M  V30 5031 C 478.084 4.07588 1.30599 0
M  V30 5032 C 477.41 4.69222 2.56387 0
M  V30 5033 C 478.71 5.20455 0.438645 0
M  V30 5034 H 480.404 2.99388 -0.0266991 0
M  V30 5035 H 477.95 1.43993 -0.0142812 0
M  V30 5036 H 479.903 3.49198 2.35878 0
M  V30 5037 H 478.627 2.24934 2.36796 0
M  V30 5038 H 477.286 3.59575 0.71424 0
M  V30 5039 H 476.934 3.9046 3.17097 0
M  V30 5040 H 476.634 5.41653 2.27784 0
M  V30 5041 H 478.158 5.20844 3.18675 0
M  V30 5042 H 479.572 5.65221 0.959085 0
M  V30 5043 H 477.969 5.99594 0.246466 0
M  V30 5044 H 479.039 4.8192 -0.536738 0
M  V30 5045 N 480.382 0.0267497 1.57577 0
M  V30 5046 C 481.628 -0.653371 1.91987 0
M  V30 5047 C 481.961 -1.71915 0.903263 0
M  V30 5048 O 481.236 -1.94358 -0.0743387 0
M  V30 5049 C 481.519 -1.272 3.36886 0
M  V30 5050 C 481.372 -0.215938 4.49281 0
M  V30 5051 C 482.691 -2.19069 3.81703 0
M  V30 5052 H 479.81 -0.236047 0.698177 0
M  V30 5053 H 482.452 0.0835236 1.89816 0
M  V30 5054 H 480.602 -1.90005 3.38866 0
M  V30 5055 H 482.274 0.41449 4.59434 0
M  V30 5056 H 480.517 0.458855 4.31366 0
M  V30 5057 H 481.188 -0.688347 5.47691 0
M  V30 5058 H 483.664 -1.66253 3.81444 0
M  V30 5059 H 482.54 -2.59307 4.83788 0
M  V30 5060 H 482.801 -3.08087 3.17072 0
M  V30 5061 N 481.861 -1.55662 -0.24637 0
M  V30 5062 C 483.089 -1.81575 -0.991876 0
M  V30 5063 C 483.504 -0.602545 -1.78927 0
M  V30 5064 O 482.861 0.428795 -1.77391 0
M  V30 5065 C 482.912 -3.05711 -1.92933 0
M  V30 5066 O 482.633 -4.22348 -1.1642 0
M  V30 5067 C 484.134 -3.44428 -2.79078 0
M  V30 5068 H 481.354 -0.604209 -0.291844 0
M  V30 5069 H 483.898 -2.02722 -0.269095 0
M  V30 5070 H 482.053 -2.86612 -2.60638 0
M  V30 5071 H 482.467 -4.92706 -1.79835 0
M  V30 5072 H 483.941 -4.34388 -3.40603 0
M  V30 5073 H 484.418 -2.65037 -3.50217 0
M  V30 5074 H 485.024 -3.65879 -2.16824 0
M  V30 5075 N 483.339 0.512053 -1.4905 0
M  V30 5076 C 484.587 1.26436 -1.57665 0
M  V30 5077 C 484.908 1.93255 -0.260293 0
M  V30 5078 O 484.178 1.82206 0.719564 0
M  V30 5079 H 482.758 0.469658 -0.580888 0
M  V30 5080 H 485.42 0.594398 -1.85615 0
M  V30 5081 H 484.516 2.03417 -2.36702 0
M  V30 5082 N 484.817 1.37938 0.762283 0
M  V30 5083 C 485.749 1.30349 1.88525 0
M  V30 5084 C 486.762 0.217402 1.61342 0
M  V30 5085 O 487.951 0.474291 1.72084 0
M  V30 5086 C 485.051 0.994844 3.23969 0
M  V30 5087 C 484.224 2.18829 3.78725 0
M  V30 5088 C 483.283 1.84844 4.92665 0
M  V30 5089 O 482.309 2.57244 5.07754 0
M  V30 5090 N 483.511 0.798201 5.74986 0
M  V30 5091 H 486.276 2.27114 1.95549 0
M  V30 5092 H 483.837 1.31686 0.941825 0
M  V30 5093 H 485.829 0.748168 3.97724 0
M  V30 5094 H 484.399 0.115446 3.12387 0
M  V30 5095 H 483.619 2.59615 2.96637 0
M  V30 5096 H 484.907 2.98497 4.1204 0
M  V30 5097 H 484.305 0.197611 5.65355 0
M  V30 5098 H 482.862 0.611396 6.48926 0
M  V30 5099 N 486.295 -0.989507 1.22664 0
M  V30 5100 C 487.205 -2.11449 1.01619 0
M  V30 5101 C 488.221 -1.73962 -0.036545 0
M  V30 5102 O 489.397 -2.00788 0.156924 0
M  V30 5103 C 486.462 -3.41465 0.600204 0
M  V30 5104 C 485.523 -3.93033 1.72695 0
M  V30 5105 C 484.756 -5.16844 1.33071 0
M  V30 5106 O 484.979 -5.7001 0.210975 0
M  V30 5107 O 483.913 -5.6225 2.14845 0
M  V30 5108 H 487.739 -2.32088 1.9588 0
M  V30 5109 H 485.324 -1.09823 1.01289 0
M  V30 5110 H 487.206 -4.19695 0.37873 0
M  V30 5111 H 485.881 -3.22178 -0.313511 0
M  V30 5112 H 484.788 -3.15961 2.00298 0
M  V30 5113 H 486.121 -4.16758 2.61865 0
M  V30 5114 N 487.773 -1.03688 -1.18687 0
M  V30 5115 C 489.019 -0.739123 -1.88851 0
M  V30 5116 C 489.352 0.731042 -1.79915 0
M  V30 5117 O 488.627 1.53313 -1.19688 0
M  V30 5118 C 488.91 -1.20106 -3.3948 0
M  V30 5119 C 488.763 -2.73304 -3.57246 0
M  V30 5120 C 490.082 -0.788134 -4.32986 0
M  V30 5121 H 487.201 -0.269978 -0.68577 0
M  V30 5122 H 489.843 -1.28822 -1.3966 0
M  V30 5123 H 487.993 -0.733915 -3.81505 0
M  V30 5124 H 489.665 -3.28027 -3.24339 0
M  V30 5125 H 487.908 -3.13313 -3.00029 0
M  V30 5126 H 488.579 -3.00684 -4.62918 0
M  V30 5127 H 491.055 -1.19005 -3.98719 0
M  V30 5128 H 489.931 -1.13915 -5.36949 0
M  V30 5129 H 490.192 0.308988 -4.41019 0
M  V30 5130 N 489.251 1.34841 -0.815825 0
M  V30 5131 C 490.161 2.33425 -0.234462 0
M  V30 5132 C 491.177 1.62295 0.627413 0
M  V30 5133 O 492.353 1.94109 0.536987 0
M  V30 5134 C 489.418 3.41471 0.599849 0
M  V30 5135 C 488.479 4.28362 -0.283596 0
M  V30 5136 C 487.712 5.31248 0.51099 0
M  V30 5137 O 487.935 5.43056 1.7449 0
M  V30 5138 O 486.869 6.01812 -0.10297 0
M  V30 5139 H 490.695 2.84962 -1.05024 0
M  V30 5140 H 488.28 1.37774 -0.577809 0
M  V30 5141 H 490.162 4.07464 1.07475 0
M  V30 5142 H 488.837 2.9219 1.39308 0
M  V30 5143 H 487.744 3.65318 -0.805836 0
M  V30 5144 H 489.077 4.81066 -1.041 0
M  V30 5145 N 490.729 0.570148 1.46925 0
M  V30 5146 C 491.659 -0.158274 2.32963 0
M  V30 5147 C 492.64 -0.896093 1.44583 0
M  V30 5148 O 493.825 -0.874022 1.7342 0
M  V30 5149 C 490.955 -1.18055 3.26619 0
M  V30 5150 C 489.909 -0.558379 4.24342 0
M  V30 5151 C 489.235 -1.68623 5.07415 0
M  V30 5152 C 490.535 0.496295 5.19937 0
M  V30 5153 H 492.229 0.560046 2.94115 0
M  V30 5154 H 489.775 0.270775 1.41431 0
M  V30 5155 H 491.728 -1.69841 3.85658 0
M  V30 5156 H 490.452 -1.92899 2.63548 0
M  V30 5157 H 489.111 -0.0617157 3.66548 0
M  V30 5158 H 488.759 -2.42402 4.40738 0
M  V30 5159 H 488.459 -1.27564 5.73586 0
M  V30 5160 H 489.983 -2.20709 5.69315 0
M  V30 5161 H 491.397 0.0640052 5.73264 0
M  V30 5162 H 489.794 0.82649 5.94381 0
M  V30 5163 H 490.864 1.38735 4.6463 0
M  V30 5164 N 492.207 -1.54576 0.307264 0
M  V30 5165 C 493.435 -2.04675 -0.302597 0
M  V30 5166 C 493.85 -1.18425 -1.47041 0
M  V30 5167 O 493.207 -0.211257 -1.81273 0
M  V30 5168 C 493.258 -3.53575 -0.752801 0
M  V30 5169 O 492.979 -4.36547 0.368536 0
M  V30 5170 C 494.48 -4.19699 -1.42717 0
M  V30 5171 H 491.7 -0.66786 -0.0648374 0
M  V30 5172 H 494.244 -1.99516 0.448716 0
M  V30 5173 H 492.399 -3.59074 -1.45412 0
M  V30 5174 H 492.813 -5.24497 0.0168937 0
M  V30 5175 H 494.287 -5.25388 -1.69327 0
M  V30 5176 H 494.764 -3.69815 -2.36925 0
M  V30 5177 H 495.37 -4.18293 -0.768856 0
M  V30 5178 N 493.685 -0.035106 -1.57561 0
M  V30 5179 C 494.913 0.652258 -1.9635 0
M  V30 5180 C 495.328 1.65317 -0.911897 0
M  V30 5181 O 494.685 1.82194 0.105657 0
M  V30 5182 C 494.736 1.35337 -3.35211 0
M  V30 5183 O 494.457 0.392548 -4.36338 0
M  V30 5184 C 495.958 2.13199 -3.88666 0
M  V30 5185 H 493.178 0.179444 -0.646561 0
M  V30 5186 H 495.722 -0.0966459 -2.04271 0
M  V30 5187 H 493.877 2.05362 -3.28489 0
M  V30 5188 H 494.291 0.891097 -5.16875 0
M  V30 5189 H 495.765 2.577 -4.88154 0
M  V30 5190 H 496.242 2.97353 -3.23231 0
M  V30 5191 H 496.848 1.48118 -3.98674 0
M  V30 5192 N 495.163 1.55791 0.238111 0
M  V30 5193 C 496.409 1.78297 0.966337 0
M  V30 5194 C 496.742 0.601903 1.84637 0
M  V30 5195 O 496.017 -0.399499 1.90353 0
M  V30 5196 C 496.3 3.10758 1.81939 0
M  V30 5197 C 496.153 4.39283 0.966958 0
M  V30 5198 C 497.472 3.39519 2.80027 0
M  V30 5199 H 494.591 0.648654 0.349882 0
M  V30 5200 H 497.233 1.88525 0.236253 0
M  V30 5201 H 495.383 3.02168 2.44185 0
M  V30 5202 H 497.055 4.59873 0.362514 0
M  V30 5203 H 495.298 4.32948 0.271669 0
M  V30 5204 H 495.969 5.28368 1.59784 0
M  V30 5205 H 498.445 3.48128 2.27917 0
M  V30 5206 H 497.321 4.33402 3.36829 0
M  V30 5207 H 497.582 2.60864 3.56934 0
M  V30 5208 N 496.642 -0.504142 1.49319 0
M  V30 5209 C 497.605 -1.5883 1.65244 0
M  V30 5210 C 498.605 -1.52009 0.524386 0
M  V30 5211 O 499.795 -1.55218 0.79077 0
M  V30 5212 C 496.927 -2.98481 1.64687 0
M  V30 5213 H 498.12 -1.4604 2.61939 0
M  V30 5214 H 495.673 -0.728144 1.38303 0
M  V30 5215 H 496.408 -3.16751 0.695644 0
M  V30 5216 H 496.193 -3.0484 2.46607 0
M  V30 5217 H 497.683 -3.77256 1.79075 0
M  V30 5218 N 498.12 -1.38341 -0.754957 0
M  V30 5219 C 499.348 -1.37704 -1.54419 0
M  V30 5220 C 499.763 0.0335243 -1.8877 0
M  V30 5221 O 499.12 0.999773 -1.52679 0
M  V30 5222 C 499.171 -2.23136 -2.84416 0
M  V30 5223 O 498.892 -3.58697 -2.51531 0
M  V30 5224 C 500.393 -2.30664 -3.78562 0
M  V30 5225 H 497.613 -0.471061 -0.477852 0
M  V30 5226 H 500.157 -1.81902 -0.934446 0
M  V30 5227 H 498.312 -1.82403 -3.41772 0
M  V30 5228 H 498.726 -4.03665 -3.34896 0
M  V30 5229 H 500.2 -2.9473 -4.66732 0
M  V30 5230 H 500.677 -1.3199 -4.18898 0
M  V30 5231 H 501.283 -2.71781 -3.27131 0
M  V30 5232 N 499.598 0.982988 -1.23187 0
M  V30 5233 C 500.53 2.07729 -0.968572 0
M  V30 5234 C 501.543 1.62702 0.0564821 0
M  V30 5235 O 502.732 1.77603 -0.178733 0
M  V30 5236 C 499.832 3.36071 -0.436974 0
M  V30 5237 C 499.005 4.10081 -1.52159 0
M  V30 5238 C 498.064 5.16701 -0.99532 0
M  V30 5239 O 497.09 5.43727 -1.68373 0
M  V30 5240 N 498.292 5.80226 0.178192 0
M  V30 5241 H 501.057 2.30894 -1.9107 0
M  V30 5242 H 498.618 1.14949 -1.1401 0
M  V30 5243 H 500.61 4.04639 -0.0700051 0
M  V30 5244 H 499.18 3.09893 0.410509 0
M  V30 5245 H 498.4 3.36004 -2.06144 0
M  V30 5246 H 499.688 4.56295 -2.25105 0
M  V30 5247 H 499.086 5.60651 0.754096 0
M  V30 5248 H 497.643 6.49982 0.486449 0
M  V30 5249 N 501.076 1.04316 1.18135 0
M  V30 5250 C 502.039 0.640794 2.2006 0
M  V30 5251 C 503.039 -0.303124 1.57917 0
M  V30 5252 O 504.229 -0.0881855 1.73977 0
M  V30 5253 C 501.361 -0.060148 3.40847 0
M  V30 5254 H 502.554 1.54281 2.57172 0
M  V30 5255 H 500.107 0.836004 1.32063 0
M  V30 5256 H 500.842 -0.975845 3.0927 0
M  V30 5257 H 500.627 0.618319 3.87194 0
M  V30 5258 H 502.117 -0.328082 4.16309 0
M  V30 5259 N 502.554 -1.34406 0.822964 0
M  V30 5260 C 503.802 -1.97892 0.410245 0
M  V30 5261 C 504.123 -1.65567 -1.03017 0
M  V30 5262 O 503.393 -0.94642 -1.71522 0
M  V30 5263 H 501.973 -0.732049 0.148707 0
M  V30 5264 H 504.635 -1.64043 1.05242 0
M  V30 5265 H 503.731 -3.07579 0.529284 0
M  V30 5266 N 504.032 -0.577932 -1.46621 0
M  V30 5267 C 505.257 -0.0652536 -2.07297 0
M  V30 5268 C 505.682 1.22828 -1.4246 0
M  V30 5269 O 505.04 1.74075 -0.506718 0
M  V30 5270 C 505.088 0.0920589 -3.60482 0
M  V30 5271 O 504.192 1.14972 -3.96049 0
M  V30 5272 H 503.533 -0.06065 -0.661224 0
M  V30 5273 H 506.063 -0.799515 -1.88332 0
M  V30 5274 H 506.073 0.299741 -4.06897 0
M  V30 5275 H 504.748 -0.852612 -4.07067 0
M  V30 5276 H 503.325 0.920879 -3.61351 0
M  V30 5277 N 505.51 1.54411 -0.315457 0
M  V30 5278 C 506.44 2.27002 0.547039 0
M  V30 5279 C 507.421 1.27492 1.12605 0
M  V30 5280 O 508.606 1.5629 1.15269 0
M  V30 5281 C 505.736 3.02171 1.71201 0
M  V30 5282 C 504.69 4.0895 1.26268 0
M  V30 5283 C 504.016 4.71915 2.51396 0
M  V30 5284 C 505.316 5.20891 0.383419 0
M  V30 5285 H 507.01 2.99343 -0.0584517 0
M  V30 5286 H 504.556 1.4397 -0.0295527 0
M  V30 5287 H 506.509 3.51681 2.32161 0
M  V30 5288 H 505.233 2.27433 2.34397 0
M  V30 5289 H 503.892 3.60312 0.676062 0
M  V30 5290 H 503.54 3.93801 3.12937 0
M  V30 5291 H 503.24 5.44039 2.22026 0
M  V30 5292 H 504.764 5.24195 3.13133 0
M  V30 5293 H 506.178 5.66206 0.899082 0
M  V30 5294 H 504.575 5.99821 0.182857 0
M  V30 5295 H 505.645 4.81324 -0.587821 0
M  V30 5296 N 506.988 0.0434614 1.5754 0
M  V30 5297 C 507.918 -0.931651 2.14109 0
M  V30 5298 C 508.899 -1.32971 1.06079 0
M  V30 5299 O 510.084 -1.40579 1.33982 0
M  V30 5300 C 507.214 -2.20914 2.67982 0
M  V30 5301 C 506.168 -1.95139 3.80926 0
M  V30 5302 C 505.494 -3.29276 4.21285 0
M  V30 5303 C 506.794 -1.27913 5.06395 0
M  V30 5304 H 508.488 -0.460497 2.95837 0
M  V30 5305 H 506.034 -0.220058 1.42309 0
M  V30 5306 H 507.987 -2.89522 3.06194 0
M  V30 5307 H 506.711 -2.70221 1.83434 0
M  V30 5308 H 505.37 -1.28945 3.43175 0
M  V30 5309 H 505.018 -3.76369 3.33699 0
M  V30 5310 H 504.718 -3.12831 4.97404 0
M  V30 5311 H 506.242 -3.99129 4.62091 0
M  V30 5312 H 507.656 -1.86544 5.42102 0
M  V30 5313 H 506.053 -1.2182 5.87605 0
M  V30 5314 H 507.123 -0.254066 4.84234 0
M  V30 5315 N 508.466 -1.55915 -0.229846 0
M  V30 5316 C 509.416 -1.8813 -1.28807 0
M  V30 5317 C 510.4 -0.743621 -1.42685 0
M  V30 5318 O 511.592 -1.00588 -1.4564 0
M  V30 5319 C 508.721 -2.19431 -2.64017 0
M  V30 5320 C 507.807 -3.39569 -2.54074 0
M  V30 5321 N 508.198 -4.58404 -2.13774 0
M  V30 5322 C 506.496 -3.43019 -2.85051 0
M  V30 5323 C 507.197 -5.40557 -2.1488 0
M  V30 5324 N 506.173 -4.80054 -2.55047 0
M  V30 5325 H 509.975 -2.77527 -0.967261 0
M  V30 5326 H 507.489 -1.5637 -0.438433 0
M  V30 5327 H 509.486 -2.40681 -3.40409 0
M  V30 5328 H 508.146 -1.31341 -2.9695 0
M  V30 5329 H 509.157 -4.83716 -1.8504 0
M  V30 5330 H 505.834 -2.65249 -3.22411 0
M  V30 5331 H 507.224 -6.45666 -1.85918 0
M  V30 5332 N 509.944 0.496216 -1.49584 0
M  V30 5333 C 511.169 1.27865 -1.63295 0
M  V30 5334 C 511.594 1.85592 -0.306156 0
M  V30 5335 O 510.952 1.66092 0.726851 0
M  V30 5336 C 511 2.38128 -2.7079 0
M  V30 5337 O 510.104 3.42108 -2.30296 0
M  V30 5338 H 509.445 0.377279 -0.546403 0
M  V30 5339 H 511.975 0.593497 -1.95803 0
M  V30 5340 H 511.985 2.8382 -2.93104 0
M  V30 5341 H 510.66 1.95479 -3.67098 0
M  V30 5342 H 509.237 3.02301 -2.18331 0
M  V30 5343 N 511.423 1.38739 0.74761 0
M  V30 5344 C 512.353 1.39173 1.87492 0
M  V30 5345 C 513.334 0.256794 1.6815 0
M  V30 5346 O 514.519 0.460762 1.88655 0
M  V30 5347 C 511.649 1.22197 3.25093 0
M  V30 5348 C 510.603 2.32957 3.59047 0
M  V30 5349 C 509.929 2.01082 4.95449 0
M  V30 5350 C 511.229 3.75237 3.6331 0
M  V30 5351 H 512.923 2.3351 1.87386 0
M  V30 5352 H 510.469 1.12399 0.900134 0
M  V30 5353 H 512.422 1.21124 4.03617 0
M  V30 5354 H 511.146 0.243241 3.25693 0
M  V30 5355 H 509.805 2.33226 2.82845 0
M  V30 5356 H 509.453 1.01678 4.92616 0
M  V30 5357 H 509.153 2.75267 5.19136 0
M  V30 5358 H 510.677 2.01638 5.76346 0
M  V30 5359 H 512.091 3.76966 4.31937 0
M  V30 5360 H 510.488 4.48677 3.98509 0
M  V30 5361 H 511.558 4.07122 2.634 0
M  V30 5362 N 512.901 -0.976442 1.23707 0
M  V30 5363 C 514.147 -1.72081 1.07312 0
M  V30 5364 C 514.48 -1.90275 -0.388476 0
M  V30 5365 O 513.755 -1.4579 -1.28746 0
M  V30 5366 C 514.038 -3.11675 1.80363 0
M  V30 5367 C 513.891 -3.01027 3.3422 0
M  V30 5368 C 515.21 -4.1117 1.5693 0
M  V30 5369 H 512.329 -0.624583 0.391236 0
M  V30 5370 H 514.971 -1.13649 1.52263 0
M  V30 5371 H 513.121 -3.61559 1.42153 0
M  V30 5372 H 514.793 -2.58637 3.81975 0
M  V30 5373 H 513.036 -2.3744 3.63049 0
M  V30 5374 H 513.707 -3.9988 3.80525 0
M  V30 5375 H 516.183 -3.7011 1.90151 0
M  V30 5376 H 515.059 -5.06928 2.10513 0
M  V30 5377 H 515.32 -4.392 0.505548 0
M  V30 5378 N 514.379 -1.04941 -1.1758 0
M  V30 5379 C 515.309 -0.669172 -2.23706 0
M  V30 5380 C 516.29 0.331835 -1.66832 0
M  V30 5381 O 517.475 0.209988 -1.93061 0
M  V30 5382 C 514.605 -0.0404889 -3.47276 0
M  V30 5383 C 513.559 -0.965983 -4.16957 0
M  V30 5384 C 512.885 -0.201312 -5.34321 0
M  V30 5385 C 514.185 -2.28902 -4.69469 0
M  V30 5386 H 515.879 -1.55639 -2.55767 0
M  V30 5387 H 513.425 -0.749793 -1.22939 0
M  V30 5388 H 515.378 0.237298 -4.20731 0
M  V30 5389 H 514.102 0.881658 -3.14475 0
M  V30 5390 H 512.761 -1.22829 -3.45411 0
M  V30 5391 H 512.409 0.723519 -4.97769 0
M  V30 5392 H 512.109 -0.817968 -5.81879 0
M  V30 5393 H 513.633 0.0692499 -6.10561 0
M  V30 5394 H 515.047 -2.07132 -5.34574 0
M  V30 5395 H 513.444 -2.85942 -5.27596 0
M  V30 5396 H 514.514 -2.92937 -3.86414 0
M  V30 5397 N 515.857 1.33968 -0.830081 0
M  V30 5398 C 517.273 1.51003 -0.516742 0
M  V30 5399 C 517.473 1.77286 0.957694 0
M  V30 5400 O 516.529 1.82797 1.74188 0
M  V30 5401 C 517.842 2.67036 -1.38247 0
M  V30 5402 C 519.39 2.80919 -1.38034 0
M  V30 5403 C 519.865 4.00004 -2.23071 0
M  V30 5404 N 521.356 4.07224 -2.20733 0
M  V30 5405 C 522.091 4.98541 -2.83275 0
M  V30 5406 N 521.587 5.95033 -3.54835 0
M  V30 5407 N 523.38 4.91469 -2.72791 0
M  V30 5408 H 515.531 1.15168 -1.78466 0
M  V30 5409 H 517.794 0.565443 -0.760906 0
M  V30 5410 H 517.5 2.54266 -2.42985 0
M  V30 5411 H 517.374 3.62226 -1.05225 0
M  V30 5412 H 519.761 2.93127 -0.340713 0
M  V30 5413 H 519.842 1.86517 -1.75057 0
M  V30 5414 H 519.486 3.88557 -3.27087 0
M  V30 5415 H 519.416 4.93634 -1.83394 0
M  V30 5416 H 521.907 3.38162 -1.68687 0
M  V30 5417 H 522.22 6.61357 -3.99784 0
M  V30 5418 H 520.565 5.95135 -3.58942 0
M  V30 5419 H 523.756 4.15048 -2.16456 0
M  V30 5420 H 523.929 5.62439 -3.21818 0
M  V30 5421 N 517.335 0.585699 1.46312 0
M  V30 5422 C 518.298 -0.135673 2.28798 0
M  V30 5423 C 519.298 -0.815988 1.38558 0
M  V30 5424 O 520.488 -0.667487 1.60904 0
M  V30 5425 C 517.62 -1.20163 3.1902 0
M  V30 5426 H 518.813 0.589257 2.94054 0
M  V30 5427 H 516.366 0.343794 1.52472 0
M  V30 5428 H 517.101 -1.95804 2.58517 0
M  V30 5429 H 516.886 -0.718282 3.85465 0
M  V30 5430 H 518.376 -1.70749 3.81096 0
M  V30 5431 N 518.813 -1.54241 0.323641 0
M  V30 5432 C 519.745 -2.21836 -0.576311 0
M  V30 5433 C 520.758 -1.21837 -1.07979 0
M  V30 5434 O 521.947 -1.48306 -0.99336 0
M  V30 5435 C 519.047 -2.86923 -1.80356 0
M  V30 5436 C 518.22 -4.1306 -1.43875 0
M  V30 5437 C 517.279 -4.6174 -2.52353 0
M  V30 5438 O 516.305 -5.26421 -2.16494 0
M  V30 5439 N 517.507 -4.35974 -3.83284 0
M  V30 5440 H 520.272 -2.997 0.00247987 0
M  V30 5441 H 517.833 -1.61233 0.146848 0
M  V30 5442 H 519.825 -3.16414 -2.52318 0
M  V30 5443 H 518.395 -2.12765 -2.29019 0
M  V30 5444 H 517.615 -3.90334 -0.550752 0
M  V30 5445 H 518.903 -4.95148 -1.17071 0
M  V30 5446 H 518.301 -3.84203 -4.15216 0
M  V30 5447 H 516.858 -4.70119 -4.51477 0
M  V30 5448 N 520.291 -0.0518155 -1.57515 0
M  V30 5449 C 521.201 0.937539 -2.15052 0
M  V30 5450 C 522.217 1.34121 -1.10849 0
M  V30 5451 O 523.393 1.418 -1.4302 0
M  V30 5452 C 520.458 2.19379 -2.68466 0
M  V30 5453 C 519.519 1.84841 -3.87469 0
M  V30 5454 C 518.752 3.04477 -4.38326 0
M  V30 5455 O 518.975 4.17868 -3.88256 0
M  V30 5456 O 517.909 2.85453 -5.29906 0
M  V30 5457 H 521.735 0.478201 -2.99912 0
M  V30 5458 H 519.32 0.17012 -1.48428 0
M  V30 5459 H 521.202 2.93084 -3.02787 0
M  V30 5460 H 519.877 2.64449 -1.86677 0
M  V30 5461 H 518.784 1.08449 -3.58036 0
M  V30 5462 H 520.117 1.44569 -4.7049 0
M  V30 5463 N 521.769 1.56035 0.221574 0
M  V30 5464 C 522.699 1.95434 1.2778 0
M  V30 5465 C 523.68 0.822564 1.48889 0
M  V30 5466 O 524.865 1.08486 1.61072 0
M  V30 5467 C 521.995 2.27102 2.62759 0
M  V30 5468 C 520.949 3.4277 2.56306 0
M  V30 5469 C 520.275 3.60043 3.95314 0
M  V30 5470 C 521.575 4.77742 2.11093 0
M  V30 5471 H 523.269 2.83912 0.950504 0
M  V30 5472 H 520.815 1.36596 0.455791 0
M  V30 5473 H 522.768 2.53256 3.36807 0
M  V30 5474 H 521.492 1.35478 2.97176 0
M  V30 5475 H 520.151 3.16664 1.84715 0
M  V30 5476 H 519.799 2.65794 4.27039 0
M  V30 5477 H 519.499 4.37841 3.91879 0
M  V30 5478 H 521.023 3.88545 4.71025 0
M  V30 5479 H 522.437 5.03102 2.74885 0
M  V30 5480 H 520.834 5.58823 2.18716 0
M  V30 5481 H 521.904 4.731 1.06321 0
M  V30 5482 N 523.247 -0.488276 1.49845 0
M  V30 5483 C 524.493 -1.24341 1.6021 0
M  V30 5484 C 524.826 -1.91967 0.293651 0
M  V30 5485 O 524.101 -1.81323 -0.703718 0
M  V30 5486 C 524.384 -2.3005 2.77036 0
M  V30 5487 C 524.237 -1.66842 4.17713 0
M  V30 5488 C 525.556 -3.31509 2.89464 0
M  V30 5489 H 522.675 -0.450704 0.583125 0
M  V30 5490 H 525.317 -0.539673 1.82174 0
M  V30 5491 H 523.467 -2.90071 2.58439 0
M  V30 5492 H 525.139 -1.1055 4.47858 0
M  V30 5493 H 523.382 -0.972079 4.22768 0
M  V30 5494 H 524.053 -2.43576 4.95353 0
M  V30 5495 H 526.529 -2.81493 3.06433 0
M  V30 5496 H 525.405 -4.02822 3.72861 0
M  V30 5497 H 525.666 -3.94603 1.99351 0
M  V30 5498 N 524.725 -1.39134 -0.740242 0
M  V30 5499 C 525.655 -1.40165 -1.86751 0
M  V30 5500 C 526.636 -0.265708 -1.68012 0
M  V30 5501 O 527.821 -0.47076 -1.88408 0
M  V30 5502 C 524.951 -1.2392 -3.2444 0
M  V30 5503 C 523.905 -2.34858 -3.57807 0
M  V30 5504 C 523.231 -2.03707 -4.94376 0
M  V30 5505 C 524.531 -3.77159 -3.61315 0
M  V30 5506 H 526.225 -2.345 -1.86145 0
M  V30 5507 H 523.771 -1.12875 -0.89416 0
M  V30 5508 H 525.724 -1.23263 -4.02969 0
M  V30 5509 H 524.448 -0.26051 -3.25559 0
M  V30 5510 H 523.107 -2.34723 -2.81604 0
M  V30 5511 H 522.755 -1.04289 -4.9207 0
M  V30 5512 H 522.455 -2.78016 -5.17669 0
M  V30 5513 H 523.979 -2.04691 -5.75268 0
M  V30 5514 H 525.393 -3.79252 -4.29931 0
M  V30 5515 H 523.79 -4.50784 -3.96124 0
M  V30 5516 H 524.86 -4.08513 -2.61238 0
M  V30 5517 N 526.204 0.969867 -1.24223 0
M  V30 5518 C 527.136 2.0669 -0.99055 0
M  V30 5519 C 528.149 1.62753 0.0392222 0
M  V30 5520 O 529.338 1.77403 -0.197561 0
M  V30 5521 C 526.438 3.35589 -0.472594 0
M  V30 5522 C 525.611 4.08444 -1.56499 0
M  V30 5523 C 524.67 5.15616 -1.05007 0
M  V30 5524 O 523.696 5.41911 -1.7413 0
M  V30 5525 N 524.898 5.80383 0.116641 0
M  V30 5526 H 527.663 2.28855 -1.93508 0
M  V30 5527 H 525.224 1.13733 -1.15223 0
M  V30 5528 H 527.216 4.04542 -0.112919 0
M  V30 5529 H 525.786 3.10311 0.377617 0
M  V30 5530 H 525.006 3.33798 -2.09696 0
M  V30 5531 H 526.294 4.53882 -2.29932 0
M  V30 5532 H 525.692 5.6142 0.694589 0
M  V30 5533 H 524.249 6.50462 0.417483 0
M  V30 5534 N 527.682 1.05563 1.17022 0
M  V30 5535 C 528.612 0.681026 2.23348 0
M  V30 5536 C 529.593 -0.322983 1.67005 0
M  V30 5537 O 530.778 -0.199746 1.9317 0
M  V30 5538 C 527.908 0.0589053 3.4725 0
M  V30 5539 C 526.862 0.988082 4.16438 0
M  V30 5540 C 526.188 0.229646 5.34207 0
M  V30 5541 C 527.488 2.31388 4.68249 0
M  V30 5542 H 529.182 1.56993 2.54938 0
M  V30 5543 H 526.728 0.756302 1.2254 0
M  V30 5544 H 528.681 -0.214982 4.20851 0
M  V30 5545 H 527.405 -0.864968 3.14938 0
M  V30 5546 H 526.064 1.24659 3.44754 0
M  V30 5547 H 525.712 -0.697111 4.98146 0
M  V30 5548 H 525.412 0.848815 5.81437 0
M  V30 5549 H 526.936 -0.0368694 6.10589 0
M  V30 5550 H 528.35 2.09964 5.33468 0
M  V30 5551 H 526.747 2.88736 5.26072 0
M  V30 5552 H 527.817 2.94982 3.84855 0
M  V30 5553 N 529.16 -1.33526 0.837174 0
M  V30 5554 C 530.09 -2.31764 0.284206 0
M  V30 5555 C 531.071 -1.58896 -0.607142 0
M  V30 5556 O 532.256 -1.86798 -0.531047 0
M  V30 5557 C 529.386 -3.43029 -0.542962 0
M  V30 5558 C 528.34 -4.27255 0.252451 0
M  V30 5559 C 527.666 -5.3012 -0.69836 0
M  V30 5560 C 528.966 -5.01229 1.46858 0
M  V30 5561 H 530.66 -2.78262 1.10502 0
M  V30 5562 H 528.206 -1.3378 0.532812 0
M  V30 5563 H 530.159 -4.1078 -0.940096 0
M  V30 5564 H 528.883 -2.95216 -1.39697 0
M  V30 5565 H 527.542 -3.61127 0.631124 0
M  V30 5566 H 527.19 -4.78564 -1.54872 0
M  V30 5567 H 526.89 -5.87353 -0.170274 0
M  V30 5568 H 528.414 -6.00737 -1.09305 0
M  V30 5569 H 529.828 -5.61756 1.14469 0
M  V30 5570 H 528.225 -5.68104 1.93333 0
M  V30 5571 H 529.295 -4.301 2.23924 0
M  V30 5572 N 530.638 -0.59345 -1.46 0
M  V30 5573 C 531.601 0.123538 -2.28867 0
M  V30 5574 C 532.601 0.808628 -1.38989 0
M  V30 5575 O 533.791 0.658945 -1.61256 0
M  V30 5576 C 530.923 1.1847 -3.19653 0
M  V30 5577 H 532.116 -0.604843 -2.93737 0
M  V30 5578 H 529.669 -0.351875 -1.52288 0
M  V30 5579 H 530.404 1.94431 -2.59552 0
M  V30 5580 H 530.189 0.69783 -3.8584 0
M  V30 5581 H 531.679 1.68726 -3.81997 0
M  V30 5582 N 532.116 1.54067 -0.331816 0
M  V30 5583 C 533.046 2.27569 0.522932 0
M  V30 5584 C 534.027 1.28679 1.11247 0
M  V30 5585 O 535.212 1.57504 1.13605 0
M  V30 5586 C 532.342 3.0397 1.67987 0
M  V30 5587 C 531.296 4.10267 1.21924 0
M  V30 5588 C 530.622 4.74555 2.46377 0
M  V30 5589 C 531.922 5.21268 0.32815 0
M  V30 5590 H 533.616 2.99264 -0.0901977 0
M  V30 5591 H 531.162 1.4393 -0.044821 0
M  V30 5592 H 533.115 3.54123 2.28418 0
M  V30 5593 H 531.839 2.29906 2.31971 0
M  V30 5594 H 530.498 3.61009 0.637809 0
M  V30 5595 H 530.146 3.97098 3.08743 0
M  V30 5596 H 529.846 5.46363 2.16243 0
M  V30 5597 H 531.37 5.27487 3.07555 0
M  V30 5598 H 532.784 5.67128 0.838978 0
M  V30 5599 H 531.181 5.99982 0.119228 0
M  V30 5600 H 532.251 4.80673 -0.638839 0
M  V30 5601 N 533.594 0.0601682 1.57485 0
M  V30 5602 C 534.526 -0.94047 2.09016 0
M  V30 5603 C 535.539 -1.26897 1.01985 0
M  V30 5604 O 536.728 -1.22819 1.29529 0
M  V30 5605 C 533.828 -2.25955 2.52582 0
M  V30 5606 C 533.001 -2.11163 3.83052 0
M  V30 5607 C 532.06 -3.26273 4.12835 0
M  V30 5608 O 531.086 -3.01779 4.82616 0
M  V30 5609 N 532.288 -4.51022 3.65458 0
M  V30 5610 H 535.053 -0.500578 2.9549 0
M  V30 5611 H 532.614 -0.125852 1.6141 0
M  V30 5612 H 534.606 -3.01846 2.69575 0
M  V30 5613 H 533.176 -2.61481 1.71308 0
M  V30 5614 H 532.396 -1.19808 3.75552 0
M  V30 5615 H 533.684 -1.98517 4.68475 0
M  V30 5616 H 533.082 -4.73811 3.09062 0
M  V30 5617 H 531.639 -5.23978 3.87673 0
M  V30 5618 N 535.072 -1.5615 -0.213296 0
M  V30 5619 C 536.002 -1.96109 -1.26742 0
M  V30 5620 C 536.983 -0.830448 -1.48451 0
M  V30 5621 O 538.168 -1.09339 -1.60495 0
M  V30 5622 C 535.298 -2.28492 -2.61551 0
M  V30 5623 C 534.252 -3.44124 -2.54485 0
M  V30 5624 C 533.578 -3.62134 -3.93399 0
M  V30 5625 C 534.878 -4.78855 -2.08556 0
M  V30 5626 H 536.572 -2.84412 -0.935434 0
M  V30 5627 H 534.118 -1.36836 -0.44854 0
M  V30 5628 H 536.071 -2.55039 -3.3546 0
M  V30 5629 H 534.795 -1.37052 -2.96453 0
M  V30 5630 H 533.454 -3.17639 -1.83033 0
M  V30 5631 H 533.102 -2.68055 -4.25623 0
M  V30 5632 H 532.802 -4.39913 -3.89551 0
M  V30 5633 H 534.326 -3.91038 -4.68958 0
M  V30 5634 H 535.74 -5.04552 -2.72213 0
M  V30 5635 H 534.137 -5.59975 -2.1575 0
M  V30 5636 H 535.207 -4.73657 -1.03811 0
M  V30 5637 N 536.55 0.480323 -1.50102 0
M  V30 5638 C 537.827 1.24159 -1.51142 0
M  V30 5639 C 538.207 2.09605 -0.250818 0
M  V30 5640 O 537.555 2.15274 0.766118 0
M  V30 5641 C 537.765 2.08057 -2.80202 0
M  V30 5642 C 539.113 2.66556 -3.30504 0
M  V30 5643 O 540.137 2.18308 -2.81461 0
M  V30 5644 O 538.996 3.54442 -4.15973 0
M  V30 5645 H 536.09 0.562928 -0.605839 0
M  V30 5646 H 538.636 0.492899 -1.62384 0
M  V30 5647 H 537.408 1.45032 -3.6343 0
M  V30 5648 H 537.031 2.90079 -2.71919 0
M  V30 5649 N 538.028 1.39524 0.732853 0
M  V30 5650 C 539.444 1.21176 1.03868 0
M  V30 5651 C 539.644 0.0748448 2.01361 0
M  V30 5652 O 538.7 -0.57281 2.45917 0
M  V30 5653 C 540.013 2.54667 1.59892 0
M  V30 5654 C 541.561 2.6153 1.71962 0
M  V30 5655 C 542.036 3.95248 2.31394 0
M  V30 5656 N 543.527 3.96899 2.38801 0
M  V30 5657 C 544.262 4.97138 2.85729 0
M  V30 5658 N 543.758 6.07775 3.32537 0
M  V30 5659 N 545.551 4.84516 2.84957 0
M  V30 5660 H 537.702 2.12225 0.086304 0
M  V30 5661 H 539.965 0.942614 0.100907 0
M  V30 5662 H 539.671 3.38423 0.95721 0
M  V30 5663 H 539.545 2.74538 2.58668 0
M  V30 5664 H 541.932 1.78156 2.35254 0
M  V30 5665 H 542.013 2.45507 0.718327 0
M  V30 5666 H 541.657 4.79054 1.68729 0
M  V30 5667 H 541.587 4.08593 3.32204 0
M  V30 5668 H 544.078 3.16998 2.05719 0
M  V30 5669 H 544.391 6.8017 3.66862 0
M  V30 5670 H 542.736 6.11366 3.30541 0
M  V30 5671 H 545.927 3.97185 2.47713 0
M  V30 5672 H 546.1 5.62783 3.21215 0
M  V30 5673 N 539.506 -0.963266 1.24736 0
M  V30 5674 C 540.438 -2.06162 1.0015 0
M  V30 5675 C 541.451 -1.62771 -0.0305905 0
M  V30 5676 O 542.64 -1.77296 0.206966 0
M  V30 5677 C 539.74 -3.35333 0.490385 0
M  V30 5678 C 538.913 -4.07609 1.58663 0
M  V30 5679 C 537.972 -5.15052 1.0774 0
M  V30 5680 O 536.998 -5.4098 1.77002 0
M  V30 5681 N 538.2 -5.80436 -0.0858605 0
M  V30 5682 H 540.965 -2.27825 1.94719 0
M  V30 5683 H 538.526 -1.13121 1.15825 0
M  V30 5684 H 540.518 -4.04477 0.134371 0
M  V30 5685 H 539.088 -3.10507 -0.361155 0
M  V30 5686 H 538.308 -3.32681 2.11463 0
M  V30 5687 H 539.596 -4.52656 2.32336 0
M  V30 5688 H 538.994 -5.6178 -0.664806 0
M  V30 5689 H 537.551 -6.50674 -0.382981 0
M  V30 5690 N 540.985 -1.06182 -1.16461 0
M  V30 5691 C 541.895 -0.682671 -2.24448 0
M  V30 5692 C 542.911 0.30078 -1.71381 0
M  V30 5693 O 544.087 0.150376 -2.00838 0
M  V30 5694 C 541.152 -0.0737202 -3.46622 0
M  V30 5695 C 540.213 -1.10889 -4.14731 0
M  V30 5696 C 539.446 -0.528908 -5.31073 0
M  V30 5697 O 539.669 0.65868 -5.66584 0
M  V30 5698 O 538.603 -1.26805 -5.88391 0
M  V30 5699 H 542.429 -1.58291 -2.59187 0
M  V30 5700 H 540.014 -0.834013 -1.23954 0
M  V30 5701 H 541.896 0.264192 -4.20571 0
M  V30 5702 H 540.571 0.800015 -3.13658 0
M  V30 5703 H 539.478 -1.49896 -3.42756 0
M  V30 5704 H 540.811 -1.95412 -4.51747 0
M  V30 5705 N 542.463 1.3308 -0.844243 0
M  V30 5706 C 543.71 1.97605 -0.44255 0
M  V30 5707 C 544.038 1.66856 0.999458 0
M  V30 5708 O 543.293 0.943586 1.7145 0
M  V30 5709 C 543.592 3.52045 -0.616354 0
M  V30 5710 C 543.258 4.02757 -2.02726 0
M  V30 5711 C 541.92 4.16316 -2.41317 0
M  V30 5712 C 544.272 4.29776 -2.9486 0
M  V30 5713 C 541.6 4.54232 -3.71335 0
M  V30 5714 C 543.952 4.69146 -4.24364 0
M  V30 5715 C 542.616 4.80911 -4.62904 0
M  V30 5716 H 541.886 0.723088 -0.161941 0
M  V30 5717 H 544.533 1.58663 -1.0723 0
M  V30 5718 H 542.838 3.91681 0.0966812 0
M  V30 5719 H 544.535 3.99981 -0.285756 0
M  V30 5720 H 541.125 3.9268 -1.71756 0
M  V30 5721 H 545.309 4.18818 -2.6628 0
M  V30 5722 H 540.565 4.61535 -4.00993 0
M  V30 5723 H 544.739 4.89008 -4.95827 0
M  V30 5724 H 542.366 5.10048 -5.63698 0
M  V30 5725 N 543.941 0.601185 1.45683 0
M  V30 5726 C 545.187 0.0940202 2.02582 0
M  V30 5727 C 545.52 -1.26972 1.46941 0
M  V30 5728 O 544.795 -1.83613 0.641612 0
M  V30 5729 C 545.078 0.0481715 3.60068 0
M  V30 5730 C 544.931 1.44212 4.26055 0
M  V30 5731 C 546.25 -0.642975 4.35378 0
M  V30 5732 H 543.369 0.0356404 0.736138 0
M  V30 5733 H 546.011 0.771929 1.73612 0
M  V30 5734 H 544.161 -0.529128 3.8488 0
M  V30 5735 H 545.833 2.06601 4.12449 0
M  V30 5736 H 544.076 2.00465 3.84703 0
M  V30 5737 H 544.747 1.36234 5.34925 0
M  V30 5738 H 547.223 -0.152351 4.15821 0
M  V30 5739 H 546.099 -0.644141 5.45107 0
M  V30 5740 H 546.36 -1.70785 4.0778 0
M  V30 5741 N 545.419 -1.53889 0.339982 0
M  V30 5742 C 546.659 -2.02765 -0.258011 0
M  V30 5743 C 547.023 -1.22249 -1.48051 0
M  V30 5744 O 548.224 -1.61007 -2.15245 0
M  V30 5745 C 546.495 -3.5286 -0.567872 0
M  V30 5746 S 548.054 -4.23647 -1.14318 0
M  V30 5747 H 544.872 -0.706814 -0.0770389 0
M  V30 5748 H 547.474 -1.89594 0.476917 0
M  V30 5749 H 546.178 -4.09073 0.329745 0
M  V30 5750 H 545.709 -3.70144 -1.33256 0
M  V30 5751 H 547.724 -4.32676 -2.42911 0
M  V30 5752 N 546.897 -0.0685191 -1.57451 0
M  V30 5753 C 547.827 0.89747 -2.15564 0
M  V30 5754 C 548.808 1.31266 -1.08181 0
M  V30 5755 O 549.993 1.38429 -1.36202 0
M  V30 5756 C 547.123 2.16623 -2.71463 0
M  V30 5757 C 546.077 1.89054 -3.83982 0
M  V30 5758 C 545.403 3.22532 -4.26471 0
M  V30 5759 C 546.703 1.1984 -5.08366 0
M  V30 5760 H 548.397 0.413373 -2.96533 0
M  V30 5761 H 545.943 0.197391 -1.42641 0
M  V30 5762 H 547.896 2.84614 -3.10761 0
M  V30 5763 H 546.62 2.67269 -1.8771 0
M  V30 5764 H 545.279 1.23469 -3.45183 0
M  V30 5765 H 544.927 3.71013 -3.39644 0
M  V30 5766 H 544.627 3.04879 -5.02317 0
M  V30 5767 H 546.151 3.91727 -4.68383 0
M  V30 5768 H 547.565 1.77896 -5.45001 0
M  V30 5769 H 545.962 1.12456 -5.89469 0
M  V30 5770 H 547.032 0.176996 -4.84577 0
M  V30 5771 N 548.375 1.56261 0.205012 0
M  V30 5772 C 549.322 1.93754 1.25411 0
M  V30 5773 C 550.292 0.796826 1.45739 0
M  V30 5774 O 551.477 1.05414 1.59036 0
M  V30 5775 C 548.617 2.27383 2.59598 0
M  V30 5776 C 547.73 3.5447 2.46931 0
M  V30 5777 C 546.865 3.77468 3.73753 0
M  V30 5778 C 545.904 4.98014 3.55877 0
M  V30 5779 N 545.041 5.17316 4.74688 0
M  V30 5780 H 549.881 2.83203 0.92737 0
M  V30 5781 H 547.418 1.40158 0.446574 0
M  V30 5782 H 549.376 2.44895 3.37761 0
M  V30 5783 H 548.006 1.41088 2.90335 0
M  V30 5784 H 547.058 3.45061 1.60116 0
M  V30 5785 H 548.37 4.42789 2.29651 0
M  V30 5786 H 547.524 3.95165 4.60358 0
M  V30 5787 H 546.263 2.87461 3.93976 0
M  V30 5788 H 545.268 4.80249 2.67657 0
M  V30 5789 H 546.493 5.8952 3.37109 0
M  V30 5790 H 544.439 4.30255 4.95194 0
M  V30 5791 H 544.356 5.99796 4.60197 0
M  V30 5792 H 545.624 5.39463 5.62672 0
M  V30 5793 N 549.853 -0.472356 1.50355 0
M  V30 5794 C 551.1 -1.22453 1.61281 0
M  V30 5795 C 551.428 -1.91972 0.31256 0
M  V30 5796 O 550.683 -1.82696 -0.701475 0
M  V30 5797 C 550.982 -2.29257 2.74182 0
M  V30 5798 C 550.648 -1.76999 4.14708 0
M  V30 5799 C 549.31 -1.62467 4.52944 0
M  V30 5800 C 551.662 -1.38215 5.0254 0
M  V30 5801 C 548.99 -1.07574 5.76754 0
M  V30 5802 C 551.342 -0.847638 6.26895 0
M  V30 5803 C 550.006 -0.688946 6.63935 0
M  V30 5804 H 549.276 -0.448087 0.590168 0
M  V30 5805 H 551.923 -0.520744 1.84284 0
M  V30 5806 H 550.228 -3.05538 2.45263 0
M  V30 5807 H 551.925 -2.87212 2.7984 0
M  V30 5808 H 548.515 -1.89276 3.84542 0
M  V30 5809 H 552.699 -1.48276 4.73633 0
M  V30 5810 H 547.955 -0.940237 6.04127 0
M  V30 5811 H 552.129 -0.538455 6.94315 0
M  V30 5812 H 549.756 -0.261435 7.5975 0
M  V30 5813 N 551.331 -1.39911 -0.725443 0
M  V30 5814 C 552.58 -1.36963 -1.48068 0
M  V30 5815 C 552.893 0.0284478 -1.95579 0
M  V30 5816 O 554.099 0.180535 -2.70899 0
M  V30 5817 C 552.555 -2.40664 -2.67598 0
M  V30 5818 C 552.163 -3.86234 -2.26997 0
M  V30 5819 C 553.907 -2.46807 -3.45379 0
M  V30 5820 C 551.814 -4.81554 -3.43307 0
M  V30 5821 H 550.744 -0.509223 -0.556065 0
M  V30 5822 H 553.395 -1.65602 -0.790454 0
M  V30 5823 H 551.777 -2.05109 -3.38742 0
M  V30 5824 H 552.951 -4.3088 -1.63337 0
M  V30 5825 H 551.266 -3.83475 -1.62284 0
M  V30 5826 H 553.863 -3.15213 -4.31909 0
M  V30 5827 H 554.206 -1.49552 -3.8851 0
M  V30 5828 H 554.739 -2.81303 -2.81271 0
M  V30 5829 H 551.478 -5.80106 -3.05217 0
M  V30 5830 H 550.998 -4.4158 -4.05915 0
M  V30 5831 H 552.677 -5.0091 -4.0951 0
M  V30 5832 N 552.809 0.956637 -1.25245 0
M  V30 5833 C 554.058 1.69537 -1.0927 0
M  V30 5834 C 554.371 1.92136 0.366503 0
M  V30 5835 O 555.577 2.63687 0.64665 0
M  V30 5836 C 554.033 3.05211 -1.9072 0
M  V30 5837 C 553.641 2.90416 -3.41119 0
M  V30 5838 C 555.385 3.82882 -1.83308 0
M  V30 5839 C 553.292 4.21468 -4.14872 0
M  V30 5840 H 552.222 0.635804 -0.405302 0
M  V30 5841 H 554.873 1.06513 -1.49423 0
M  V30 5842 H 553.255 3.69128 -1.43389 0
M  V30 5843 H 554.429 2.35444 -3.9611 0
M  V30 5844 H 552.744 2.26203 -3.49602 0
M  V30 5845 H 555.341 4.79944 -2.35706 0
M  V30 5846 H 555.684 4.0853 -0.800572 0
M  V30 5847 H 556.217 3.25711 -2.28379 0
M  V30 5848 H 552.956 4.01009 -5.18529 0
M  V30 5849 H 552.476 4.76213 -3.64665 0
M  V30 5850 H 554.155 4.90022 -4.22478 0
M  V30 5851 N 554.287 1.06798 1.15896 0
M  V30 5852 C 555.217 0.704677 2.22613 0
M  V30 5853 C 556.198 -0.305252 1.67339 0
M  V30 5854 O 557.383 -0.179247 1.93371 0
M  V30 5855 C 554.513 0.0957325 3.47168 0
M  V30 5856 C 553.467 1.0322 4.15367 0
M  V30 5857 C 552.793 0.286293 5.33933 0
M  V30 5858 C 554.093 2.36341 4.65768 0
M  V30 5859 H 555.787 1.59688 2.53259 0
M  V30 5860 H 553.333 0.769257 1.21731 0
M  V30 5861 H 555.286 -0.170333 4.21056 0
M  V30 5862 H 554.01 -0.831516 3.15838 0
M  V30 5863 H 552.669 1.28309 3.43413 0
M  V30 5864 H 552.317 -0.644237 4.98857 0
M  V30 5865 H 552.017 0.910436 5.80504 0
M  V30 5866 H 553.541 0.0278938 6.10594 0
M  V30 5867 H 554.955 2.1561 5.31211 0
M  V30 5868 H 553.352 2.94299 5.2298 0
M  V30 5869 H 554.422 2.99047 3.81705 0
M  V30 5870 N 555.766 -1.3263 0.851289 0
M  V30 5871 C 557.013 -1.97368 0.453023 0
M  V30 5872 C 557.341 -1.67384 -0.990596 0
M  V30 5873 O 556.596 -0.952665 -1.70947 0
M  V30 5874 C 556.895 -3.51713 0.635015 0
M  V30 5875 C 556.561 -4.01676 2.04859 0
M  V30 5876 C 555.223 -4.15031 2.43522 0
M  V30 5877 C 557.575 -4.28206 2.97135 0
M  V30 5878 C 554.903 -4.52257 3.73739 0
M  V30 5879 C 557.255 -4.66889 4.26846 0
M  V30 5880 C 555.919 -4.7845 4.65448 0
M  V30 5881 H 555.189 -0.722219 0.165773 0
M  V30 5882 H 557.836 -1.58092 1.0807 0
M  V30 5883 H 556.141 -3.91726 -0.0759081 0
M  V30 5884 H 557.838 -3.99823 0.306964 0
M  V30 5885 H 554.428 -3.91764 1.73836 0
M  V30 5886 H 558.612 -4.174 2.68498 0
M  V30 5887 H 553.868 -4.59402 4.03435 0
M  V30 5888 H 558.042 -4.86372 4.98413 0
M  V30 5889 H 555.669 -5.07052 5.66395 0
M  V30 5890 N 557.244 -0.608902 -1.45362 0
M  V30 5891 C 558.469 -0.10921 -2.07112 0
M  V30 5892 C 558.894 1.19779 -1.45033 0
M  V30 5893 O 558.252 1.72961 -0.543527 0
M  V30 5894 C 558.3 0.0155745 -3.60597 0
M  V30 5895 O 557.404 1.06546 -3.98399 0
M  V30 5896 H 556.745 -0.0746619 -0.659789 0
M  V30 5897 H 559.275 -0.839283 -1.86594 0
M  V30 5898 H 559.285 0.213364 -4.07442 0
M  V30 5899 H 557.96 -0.938765 -4.05167 0
M  V30 5900 H 556.537 0.844024 -3.63223 0
M  V30 5901 N 558.722 1.53707 -0.348139 0
M  V30 5902 C 559.652 2.28111 0.498766 0
M  V30 5903 C 560.633 1.29851 1.09876 0
M  V30 5904 O 561.818 1.587 1.11928 0
M  V30 5905 C 558.948 3.05735 1.64753 0
M  V30 5906 C 557.902 4.11537 1.17565 0
M  V30 5907 C 557.228 4.77142 2.4133 0
M  V30 5908 C 558.528 5.21587 0.272844 0
M  V30 5909 H 560.222 2.99152 -0.121934 0
M  V30 5910 H 557.768 1.43875 -0.0600842 0
M  V30 5911 H 559.721 3.56526 2.24649 0
M  V30 5912 H 558.445 2.32354 2.2952 0
M  V30 5913 H 557.104 3.61665 0.599483 0
M  V30 5914 H 556.752 4.0035 3.04514 0
M  V30 5915 H 556.452 5.48626 2.10436 0
M  V30 5916 H 557.976 5.30719 3.01943 0
M  V30 5917 H 559.39 5.67986 0.778779 0
M  V30 5918 H 557.787 6.00074 0.0555849 0
M  V30 5919 H 558.857 4.79969 -0.689785 0
M  V30 5920 N 560.2 0.0768682 1.57412 0
M  V30 5921 C 561.477 -0.632359 1.85096 0
M  V30 5922 C 561.857 -1.87479 0.9703 0
M  V30 5923 O 561.205 -2.28469 0.0379062 0
M  V30 5924 C 561.415 -0.965174 3.35388 0
M  V30 5925 C 562.763 -1.33648 4.03018 0
M  V30 5926 O 563.787 -1.05675 3.40164 0
M  V30 5927 O 562.646 -1.85959 5.13889 0
M  V30 5928 H 559.74 -0.314574 0.764835 0
M  V30 5929 H 562.286 0.108184 1.69355 0
M  V30 5930 H 561.058 -0.0829745 3.91212 0
M  V30 5931 H 560.681 -1.76231 3.5641 0
M  V30 5932 N 561.678 -1.56367 -0.196722 0
M  V30 5933 C 562.608 -1.97442 -1.24655 0
M  V30 5934 C 563.589 -0.846147 -1.47561 0
M  V30 5935 O 564.774 -1.11035 -1.59326 0
M  V30 5936 C 561.904 -2.31253 -2.59112 0
M  V30 5937 C 560.858 -3.46804 -2.50821 0
M  V30 5938 C 560.184 -3.66286 -3.89536 0
M  V30 5939 C 561.484 -4.8104 -2.03465 0
M  V30 5940 H 563.178 -2.85388 -0.905216 0
M  V30 5941 H 560.724 -1.37304 -0.434002 0
M  V30 5942 H 562.677 -2.58583 -3.32736 0
M  V30 5943 H 561.401 -1.40188 -2.94983 0
M  V30 5944 H 560.06 -3.19563 -1.79653 0
M  V30 5945 H 559.708 -2.72555 -4.22756 0
M  V30 5946 H 559.408 -4.4402 -3.84864 0
M  V30 5947 H 560.932 -3.9599 -4.64784 0
M  V30 5948 H 562.346 -5.07411 -2.66846 0
M  V30 5949 H 560.743 -5.62232 -2.09798 0
M  V30 5950 H 561.813 -4.74732 -0.98781 0
M  V30 5951 N 563.156 0.464375 -1.50603 0
M  V30 5952 C 564.103 1.56152 -1.69956 0
M  V30 5953 C 565.073 1.57046 -0.54091 0
M  V30 5954 O 566.258 1.74473 -0.772258 0
M  V30 5955 C 563.398 2.94079 -1.80586 0
M  V30 5956 C 562.511 3.02923 -3.07996 0
M  V30 5957 C 561.646 4.31806 -3.09382 0
M  V30 5958 C 560.685 4.34417 -4.31218 0
M  V30 5959 N 559.822 5.54782 -4.30304 0
M  V30 5960 H 564.662 1.38955 -2.6362 0
M  V30 5961 H 562.199 0.675482 -1.30674 0
M  V30 5962 H 564.157 3.74073 -1.8473 0
M  V30 5963 H 562.787 3.09896 -0.903556 0
M  V30 5964 H 561.839 2.1576 -3.13292 0
M  V30 5965 H 563.151 3.00712 -3.97962 0
M  V30 5966 H 562.305 5.20153 -3.12292 0
M  V30 5967 H 561.044 4.36636 -2.17257 0
M  V30 5968 H 560.049 3.44467 -4.28512 0
M  V30 5969 H 561.274 4.31273 -5.24576 0
M  V30 5970 H 559.22 5.60384 -3.41037 0
M  V30 5971 H 559.137 5.54339 -5.14047 0
M  V30 5972 H 560.405 6.45235 -4.3737 0
M  V30 5973 N 564.634 1.40294 0.718013 0
M  V30 5974 C 565.881 1.3844 1.47786 0
M  V30 5975 C 566.209 -0.0140838 1.94495 0
M  V30 5976 O 565.464 -0.998165 1.68331 0
M  V30 5977 C 565.763 2.31814 2.72024 0
M  V30 5978 C 565.429 3.79117 2.44093 0
M  V30 5979 C 564.091 4.19249 2.36185 0
M  V30 5980 C 566.443 4.72212 2.20602 0
M  V30 5981 C 563.771 5.50516 2.02851 0
M  V30 5982 C 566.123 6.03775 1.88781 0
M  V30 5983 C 564.787 6.42953 1.79354 0
M  V30 5984 H 564.057 0.506588 0.540786 0
M  V30 5985 H 566.704 1.72929 0.822663 0
M  V30 5986 H 565.009 1.90501 3.42369 0
M  V30 5987 H 566.706 2.27664 3.30106 0
M  V30 5988 H 563.296 3.47318 2.51133 0
M  V30 5989 H 567.48 4.42026 2.25669 0
M  V30 5990 H 562.736 5.79776 1.94088 0
M  V30 5991 H 566.91 6.75428 1.69617 0
M  V30 5992 H 564.537 7.44584 1.53291 0
M  V30 5993 N 566.112 -0.949982 1.2575 0
M  V30 5994 C 567.042 -2.06483 1.09028 0
M  V30 5995 C 568.023 -1.701 -0.00201532 0
M  V30 5996 O 569.208 -1.93469 0.168383 0
M  V30 5997 C 566.338 -3.39899 0.71316 0
M  V30 5998 C 565.292 -3.90309 1.75621 0
M  V30 5999 C 564.618 -5.20274 1.23365 0
M  V30 6000 C 565.918 -4.16169 3.15596 0
M  V30 6001 H 567.612 -2.20731 2.02283 0
M  V30 6002 H 565.158 -1.06066 0.973964 0
M  V30 6003 H 567.111 -4.17346 0.58309 0
M  V30 6004 H 565.835 -3.25602 -0.255091 0
M  V30 6005 H 564.494 -3.15035 1.8748 0
M  V30 6006 H 564.142 -5.02351 0.255491 0
M  V30 6007 H 563.842 -5.54971 1.93082 0
M  V30 6008 H 565.366 -6.00314 1.11607 0
M  V30 6009 H 566.78 -4.84259 3.06864 0
M  V30 6010 H 565.177 -4.62131 3.82825 0
M  V30 6011 H 566.247 -3.22273 3.6231 0
M  V30 6012 N 567.59 -1.07411 -1.15328 0
M  V30 6013 C 568.538 -0.689316 -2.22151 0
M  V30 6014 C 569.532 0.300156 -1.6672 0
M  V30 6015 O 570.738 0.163804 -1.79253 0
M  V30 6016 H 567.113 -0.204834 -0.723566 0
M  V30 6017 H 569.084 -1.59988 -2.51886 0
M  V30 6018 C 567.833 -0.103848 -3.47545 0
M  V30 6019 H 567.156 -0.856367 -3.90521 0
M  V30 6020 H 568.596 0.127725 -4.23808 0
M  V30 6021 C 567.055 1.15563 -3.1646 0
M  V30 6022 O 567.585 2.242 -3.33312 0
M  V30 6023 N 565.791 1.06203 -2.70498 0
M  V30 6024 H 565.338 0.177933 -2.56985 0
M  V30 6025 H 565.296 1.90553 -2.50074 0
M  V30 6026 N 569.068 1.32177 -0.85831 0
M  V30 6027 C 570.016 2.30729 -0.294442 0
M  V30 6028 C 571.01 1.59009 0.584165 0
M  V30 6029 O 572.216 1.73713 0.471562 0
M  V30 6030 H 568.591 0.748097 -0.0765171 0
M  V30 6031 H 570.562 2.75774 -1.1398 0
M  V30 6032 C 569.311 3.44098 0.499208 0
M  V30 6033 H 568.634 3.99449 -0.167579 0
M  V30 6034 H 570.074 4.15202 0.859273 0
M  V30 6035 C 568.533 2.91684 1.68588 0
M  V30 6036 O 569.063 2.89481 2.78503 0
M  V30 6037 N 567.269 2.48036 1.51415 0
M  V30 6038 H 566.816 2.50027 0.620006 0
M  V30 6039 H 566.774 2.13322 2.30957 0
M  V30 6040 N 570.547 0.616602 1.45037 0
M  V30 6041 C 571.497 -0.118543 2.27692 0
M  V30 6042 C 572.481 -0.830025 1.37838 0
M  V30 6043 O 573.673 -0.718528 1.6176 0
M  V30 6044 C 570.802 -1.10924 3.24886 0
M  V30 6045 C 569.888 -0.398134 4.22227 0
M  V30 6046 N 570.279 0.565233 5.02632 0
M  V30 6047 C 568.577 -0.644506 4.41319 0
M  V30 6048 C 569.278 0.984043 5.73316 0
M  V30 6049 N 568.254 0.325879 5.42622 0
M  V30 6050 H 572.056 0.621239 2.87259 0
M  V30 6051 H 569.57 0.440968 1.56299 0
M  V30 6052 H 571.567 -1.65038 3.82842 0
M  V30 6053 H 570.227 -1.84948 2.66879 0
M  V30 6054 H 571.238 0.942395 5.09254 0
M  V30 6055 H 567.915 -1.36873 3.94426 0
M  V30 6056 H 569.305 1.77911 6.47918 0
M  V30 6057 N 572.025 -1.5352 0.356285 0
M  V30 6058 C 573.274 -2.00298 -0.237373 0
M  V30 6059 C 573.587 -1.24784 -1.50627 0
M  V30 6060 O 574.793 -1.62103 -2.17795 0
M  V30 6061 C 573.249 -3.56771 -0.473545 0
M  V30 6062 C 572.857 -4.41154 0.780183 0
M  V30 6063 C 574.601 -4.1193 -1.02537 0
M  V30 6064 C 572.508 -5.89161 0.514108 0
M  V30 6065 H 571.438 -0.748307 -0.092478 0
M  V30 6066 H 574.089 -1.77283 0.473588 0
M  V30 6067 H 572.471 -3.75902 -1.24553 0
M  V30 6068 H 573.645 -4.33797 1.55425 0
M  V30 6069 H 571.96 -3.97052 1.25455 0
M  V30 6070 H 574.557 -5.20133 -1.2396 0
M  V30 6071 H 574.9 -3.65943 -1.98473 0
M  V30 6072 H 575.433 -3.96561 -0.313775 0
M  V30 6073 H 572.172 -6.39408 1.44355 0
M  V30 6074 H 571.692 -5.9939 -0.221632 0
M  V30 6075 H 573.371 -6.46857 0.136122 0
M  V30 6076 N 573.503 -0.0852151 -1.57369 0
M  V30 6077 C 574.433 0.874556 -2.16503 0
M  V30 6078 C 575.414 1.30111 -1.09568 0
M  V30 6079 O 576.599 1.36977 -1.37662 0
M  V30 6080 C 573.729 2.13731 -2.73745 0
M  V30 6081 C 572.683 1.84971 -3.85966 0
M  V30 6082 C 572.009 3.17991 -4.29867 0
M  V30 6083 C 573.309 1.14442 -5.09608 0
M  V30 6084 H 575.003 0.381899 -2.96954 0
M  V30 6085 H 572.549 0.18225 -1.42842 0
M  V30 6086 H 574.502 2.81302 -3.13763 0
M  V30 6087 H 573.226 2.65263 -1.90534 0
M  V30 6088 H 571.885 1.19801 -3.46473 0
M  V30 6089 H 571.533 3.6739 -3.4356 0
M  V30 6090 H 571.233 2.99534 -5.05523 0
M  V30 6091 H 572.757 3.86737 -4.72511 0
M  V30 6092 H 574.171 1.72105 -5.46857 0
M  V30 6093 H 572.568 1.06197 -5.90629 0
M  V30 6094 H 573.638 0.12559 -4.84737 0
M  V30 6095 N 574.981 1.5647 0.188427 0
M  V30 6096 C 576.227 1.81281 0.909124 0
M  V30 6097 C 576.56 0.66034 1.82628 0
M  V30 6098 O 575.835 -0.338737 1.91528 0
M  V30 6099 C 576.118 3.16388 1.7196 0
M  V30 6100 C 575.971 4.42137 0.826714 0
M  V30 6101 C 577.29 3.48256 2.69083 0
M  V30 6102 H 574.409 0.659457 0.329068 0
M  V30 6103 H 577.051 1.89182 0.176156 0
M  V30 6104 H 575.201 3.09784 2.34448 0
M  V30 6105 H 576.873 4.60794 0.216025 0
M  V30 6106 H 575.116 4.33594 0.133792 0
M  V30 6107 H 575.787 5.33184 1.42893 0
M  V30 6108 H 578.263 3.55203 2.16726 0
M  V30 6109 H 577.139 4.43899 3.2287 0
M  V30 6110 H 577.4 2.72088 3.48455 0
M  V30 6111 N 576.459 -0.456382 1.50847 0
M  V30 6112 C 577.406 -1.55249 1.70782 0
M  V30 6113 C 578.376 -1.56757 0.549231 0
M  V30 6114 O 579.561 -1.74061 0.7815 0
M  V30 6115 C 576.701 -2.93118 1.82143 0
M  V30 6116 C 575.814 -3.01285 3.09598 0
M  V30 6117 C 574.949 -4.30159 3.11667 0
M  V30 6118 C 573.988 -4.32124 4.33515 0
M  V30 6119 N 573.125 -5.52492 4.3324 0
M  V30 6120 H 577.965 -1.37555 2.64353 0
M  V30 6121 H 575.502 -0.668543 1.3103 0
M  V30 6122 H 577.46 -3.73088 1.86711 0
M  V30 6123 H 576.09 -3.09413 0.919978 0
M  V30 6124 H 575.142 -2.14096 3.14431 0
M  V30 6125 H 576.454 -2.98597 3.99551 0
M  V30 6126 H 575.608 -5.18489 3.15046 0
M  V30 6127 H 574.347 -4.35477 2.1957 0
M  V30 6128 H 573.352 -3.42189 4.30333 0
M  V30 6129 H 574.577 -4.28485 5.26856 0
M  V30 6130 H 572.523 -5.58567 3.44004 0
M  V30 6131 H 572.44 -5.51605 5.16979 0
M  V30 6132 H 573.708 -6.42906 4.40786 0
M  V30 6133 N 577.937 -1.40673 -0.710563 0
M  V30 6134 C 579.214 -1.29718 -1.46398 0
M  V30 6135 C 579.594 0.082177 -2.1094 0
M  V30 6136 O 578.942 1.09536 -2.00534 0
M  V30 6137 C 579.152 -2.43967 -2.49562 0
M  V30 6138 C 580.5 -2.84436 -3.15248 0
M  V30 6139 O 581.524 -2.43597 -2.59883 0
M  V30 6140 O 580.383 -3.55008 -4.1549 0
M  V30 6141 H 577.477 -0.509697 -0.651258 0
M  V30 6142 H 580.023 -1.52603 -0.742312 0
M  V30 6143 H 578.795 -3.36076 -2.0042 0
M  V30 6144 H 578.418 -2.22879 -3.29258 0
M  V30 6145 N 579.415 0.9433 -1.26252 0
M  V30 6146 C 580.378 2.02326 -1.07689 0
M  V30 6147 C 581.378 1.60779 -0.0259174 0
M  V30 6148 O 582.568 1.72108 -0.269134 0
M  V30 6149 C 579.7 3.34886 -0.63752 0
M  V30 6150 H 580.893 2.20225 -2.0357 0
M  V30 6151 H 578.446 1.12197 -1.08819 0
M  V30 6152 H 579.181 3.22684 0.323377 0
M  V30 6153 H 578.966 3.66393 -1.39637 0
M  V30 6154 H 580.456 4.14231 -0.529418 0
M  V30 6155 N 580.893 1.08022 1.14757 0
M  V30 6156 C 581.825 0.664566 2.19354 0
M  V30 6157 C 582.838 -0.286374 1.60261 0
M  V30 6158 O 584.027 -0.0746362 1.78344 0
M  V30 6159 C 581.127 -0.0434634 3.38872 0
M  V30 6160 C 580.3 0.925381 4.27499 0
M  V30 6161 C 579.359 0.253398 5.2559 0
M  V30 6162 O 578.385 0.896581 5.62094 0
M  V30 6163 N 579.587 -0.998263 5.71852 0
M  V30 6164 H 582.352 1.56438 2.55631 0
M  V30 6165 H 579.913 0.965788 1.29939 0
M  V30 6166 H 581.905 -0.503857 4.01551 0
M  V30 6167 H 580.475 -0.845321 3.00954 0
M  V30 6168 H 579.695 1.56472 3.61815 0
M  V30 6169 H 580.983 1.58203 4.8358 0
M  V30 6170 H 580.381 -1.54063 5.44317 0
M  V30 6171 H 578.938 -1.40222 6.36538 0
M  V30 6172 N 582.371 -1.3172 0.865308 0
M  V30 6173 C 583.281 -2.32394 0.320935 0
M  V30 6174 C 584.297 -1.64511 -0.566746 0
M  V30 6175 O 585.473 -1.95969 -0.464575 0
M  V30 6176 C 582.538 -3.43462 -0.472701 0
M  V30 6177 C 581.599 -4.27015 0.442385 0
M  V30 6178 C 580.832 -5.32779 -0.313469 0
M  V30 6179 O 581.055 -5.49158 -1.54214 0
M  V30 6180 O 579.989 -6.01015 0.326257 0
M  V30 6181 H 583.815 -2.80868 1.15528 0
M  V30 6182 H 581.4 -1.35535 0.628545 0
M  V30 6183 H 583.282 -4.11172 -0.922781 0
M  V30 6184 H 581.957 -2.97159 -1.28367 0
M  V30 6185 H 580.864 -3.62075 0.940866 0
M  V30 6186 H 582.197 -4.76871 1.21882 0
M  V30 6187 N 583.85 -0.624285 -1.44708 0
M  V30 6188 C 584.797 0.0847135 -2.30644 0
M  V30 6189 C 585.767 0.843575 -1.43084 0
M  V30 6190 O 586.952 0.825982 -1.71995 0
M  V30 6191 C 584.091 1.06495 -3.28257 0
M  V30 6192 C 583.205 0.305224 -4.3092 0
M  V30 6193 C 582.34 1.27667 -5.1563 0
M  V30 6194 C 581.379 0.505706 -6.10007 0
M  V30 6195 N 580.516 1.42727 -6.8744 0
M  V30 6196 H 585.356 -0.654068 -2.90733 0
M  V30 6197 H 582.893 -0.334334 -1.4325 0
M  V30 6198 H 584.851 1.64658 -3.83332 0
M  V30 6199 H 583.481 1.77094 -2.69884 0
M  V30 6200 H 582.533 -0.392207 -3.78373 0
M  V30 6201 H 583.845 -0.295553 -4.97924 0
M  V30 6202 H 582.999 1.92984 -5.75189 0
M  V30 6203 H 581.738 1.91137 -4.48685 0
M  V30 6204 H 580.743 -0.160999 -5.49564 0
M  V30 6205 H 581.968 -0.124183 -6.78986 0
M  V30 6206 H 579.913 2.04931 -6.23169 0
M  V30 6207 H 579.831 0.880345 -7.50857 0
M  V30 6208 H 581.099 2.0695 -7.51526 0
M  V30 6209 N 585.328 1.53329 -0.364422 0
M  V30 6210 C 586.291 2.24323 0.470292 0
M  V30 6211 C 587.291 1.25068 1.01067 0
M  V30 6212 O 588.481 1.49354 0.896605 0
M  V30 6213 C 585.613 2.97908 1.65722 0
M  V30 6214 H 586.806 2.9952 -0.150917 0
M  V30 6215 H 584.359 1.55868 -0.116092 0
M  V30 6216 H 585.094 2.2695 2.31655 0
M  V30 6217 H 584.879 3.70732 1.27671 0
M  V30 6218 H 586.369 3.5188 2.24878 0
M  V30 6219 N 586.806 0.0935595 1.57322 0
M  V30 6220 C 587.754 -0.883457 2.15169 0
M  V30 6221 C 588.748 -1.29324 1.09415 0
M  V30 6222 O 589.954 -1.26795 1.27762 0
M  V30 6223 H 586.329 -0.302923 0.688289 0
M  V30 6224 H 588.3 -0.370845 2.96087 0
M  V30 6225 C 587.049 -2.13345 2.74552 0
M  V30 6226 H 586.372 -1.82702 3.55612 0
M  V30 6227 H 587.812 -2.7977 3.18598 0
M  V30 6228 C 586.271 -2.90646 1.70371 0
M  V30 6229 O 586.801 -3.85133 1.14173 0
M  V30 6230 N 585.007 -2.54157 1.40899 0
M  V30 6231 H 584.554 -1.77391 1.86789 0
M  V30 6232 H 584.512 -3.06178 0.714301 0
M  V30 6233 N 588.284 -1.56567 -0.180126 0
M  V30 6234 C 589.247 -1.94852 -1.20686 0
M  V30 6235 C 590.247 -0.831212 -1.3765 0
M  V30 6236 O 591.437 -1.09841 -1.35206 0
M  V30 6237 C 588.569 -2.23565 -2.57355 0
M  V30 6238 H 589.762 -2.86722 -0.879225 0
M  V30 6239 H 587.315 -1.50489 -0.422237 0
M  V30 6240 H 588.05 -1.34381 -2.95148 0
M  V30 6241 H 587.835 -3.04999 -2.46411 0
M  V30 6242 H 589.325 -2.54137 -3.31367 0
M  V30 6243 N 589.762 0.448376 -1.51087 0
M  V30 6244 C 590.725 1.52588 -1.71025 0
M  V30 6245 C 591.725 1.49958 -0.580442 0
M  V30 6246 O 592.915 1.52176 -0.847833 0
M  V30 6247 C 590.047 2.92163 -1.75652 0
M  V30 6248 H 591.24 1.36218 -2.67179 0
M  V30 6249 H 588.793 0.676313 -1.4091 0
M  V30 6250 H 589.528 3.13951 -0.812724 0
M  V30 6251 H 589.313 2.95478 -2.57751 0
M  V30 6252 H 590.803 3.70349 -1.92953 0
M  V30 6253 N 591.24 1.41047 0.703093 0
M  V30 6254 C 592.17 1.45067 1.82969 0
M  V30 6255 C 593.151 0.31016 1.67248 0
M  V30 6256 O 594.336 0.520548 1.87093 0
M  V30 6257 C 591.466 1.32478 3.2104 0
M  V30 6258 C 590.42 2.44262 3.51454 0
M  V30 6259 C 589.746 2.16742 4.88801 0
M  V30 6260 C 591.046 3.86606 3.51189 0
M  V30 6261 H 592.74 2.39353 1.79863 0
M  V30 6262 H 590.286 1.15206 0.863919 0
M  V30 6263 H 592.239 1.33904 3.99559 0
M  V30 6264 H 590.963 0.346735 3.24754 0
M  V30 6265 H 589.622 2.42107 2.75282 0
M  V30 6266 H 589.27 1.17299 4.89132 0
M  V30 6267 H 588.97 2.91643 5.10116 0
M  V30 6268 H 590.494 2.19872 5.69639 0
M  V30 6269 H 591.908 3.90517 4.19725 0
M  V30 6270 H 590.305 4.61128 3.84033 0
M  V30 6271 H 591.375 4.15296 2.50315 0
M  V30 6272 N 592.718 -0.936591 1.26751 0
M  V30 6273 C 593.648 -2.05315 1.11212 0
M  V30 6274 C 594.629 -1.70092 0.0160262 0
M  V30 6275 O 595.814 -1.93279 0.188894 0
M  V30 6276 C 592.944 -3.39123 0.749171 0
M  V30 6277 C 591.898 -3.88425 1.79751 0
M  V30 6278 C 591.224 -5.18936 1.28876 0
M  V30 6279 C 592.524 -4.12798 3.19992 0
M  V30 6280 H 594.218 -2.18573 2.04613 0
M  V30 6281 H 591.764 -1.05027 0.985159 0
M  V30 6282 H 593.717 -4.16704 0.627323 0
M  V30 6283 H 592.441 -3.25855 -0.220543 0
M  V30 6284 H 591.1 -3.13028 1.90811 0
M  V30 6285 H 590.748 -5.02051 0.308757 0
M  V30 6286 H 590.448 -5.52892 1.98958 0
M  V30 6287 H 591.972 -5.99096 1.17967 0
M  V30 6288 H 593.386 -4.80977 3.11983 0
M  V30 6289 H 591.783 -4.58044 3.87705 0
M  V30 6290 H 592.853 -3.18412 3.65707 0
M  V30 6291 N 594.196 -1.08629 -1.14182 0
M  V30 6292 C 595.473 -0.73002 -1.81466 0
M  V30 6293 C 595.853 0.785996 -1.95922 0
M  V30 6294 O 595.201 1.70535 -1.52086 0
M  V30 6295 C 595.411 -1.45957 -3.17014 0
M  V30 6296 C 596.759 -1.62008 -3.92477 0
M  V30 6297 O 597.783 -1.42141 -3.26611 0
M  V30 6298 O 596.642 -1.94806 -5.106 0
M  V30 6299 H 593.736 -0.261307 -0.784632 0
M  V30 6300 H 596.282 -1.188 -1.2118 0
M  V30 6301 H 595.054 -2.49221 -3.01669 0
M  V30 6302 H 594.677 -0.993222 -3.84995 0
M  V30 6303 N 595.674 1.31259 -0.872281 0
M  V30 6304 C 596.904 2.00504 -0.498183 0
M  V30 6305 C 597.312 1.65632 0.914479 0
M  V30 6306 O 596.655 0.882849 1.61095 0
M  V30 6307 C 596.717 3.5482 -0.578194 0
M  V30 6308 C 596.381 4.13172 -1.95289 0
M  V30 6309 C 597.378 4.30107 -2.92069 0
M  V30 6310 C 595.063 4.48846 -2.25483 0
M  V30 6311 C 597.057 4.81908 -4.17185 0
M  V30 6312 C 594.744 5.00349 -3.50847 0
M  V30 6313 C 595.742 5.16831 -4.46514 0
M  V30 6314 O 595.43 5.67228 -5.69656 0
M  V30 6315 H 595.162 0.648055 -0.192354 0
M  V30 6316 H 597.716 1.6841 -1.17589 0
M  V30 6317 H 595.946 3.86383 0.156438 0
M  V30 6318 H 597.635 4.05318 -0.217192 0
M  V30 6319 H 598.401 4.02862 -2.7005 0
M  V30 6320 H 594.28 4.35292 -1.51795 0
M  V30 6321 H 597.824 4.94688 -4.91863 0
M  V30 6322 H 593.721 5.27028 -3.72708 0
M  V30 6323 H 594.489 5.85592 -5.7186 0
M  V30 6324 N 597.152 0.631951 1.44375 0
M  V30 6325 C 598.38 0.143867 2.06399 0
M  V30 6326 C 598.795 -1.18188 1.47231 0
M  V30 6327 O 598.152 -1.72511 0.595498 0
M  V30 6328 C 598.203 0.0238253 3.61492 0
M  V30 6329 O 597.924 1.29715 4.18456 0
M  V30 6330 C 599.425 -0.492856 4.40552 0
M  V30 6331 H 596.645 0.0800542 0.666207 0
M  V30 6332 H 599.189 0.866586 1.85231 0
M  V30 6333 H 597.344 -0.649338 3.81919 0
M  V30 6334 H 597.758 1.14252 5.11905 0
M  V30 6335 H 599.232 -0.525861 5.49489 0
M  V30 6336 H 599.709 -1.52006 4.12057 0
M  V30 6337 H 600.315 0.147085 4.25046 0
M  V30 6338 N 598.631 -1.53133 0.372548 0
M  V30 6339 C 599.561 -2.28876 -0.462412 0
M  V30 6340 C 600.542 -1.31583 -1.07796 0
M  V30 6341 O 601.727 -1.60461 -1.09389 0
M  V30 6342 C 598.857 -3.08317 -1.59868 0
M  V30 6343 C 597.811 -4.13355 -1.11003 0
M  V30 6344 C 597.137 -4.8092 -2.33708 0
M  V30 6345 C 598.437 -5.21955 -0.18983 0
M  V30 6346 H 600.131 -2.9892 0.169511 0
M  V30 6347 H 597.677 -1.43761 0.0829658 0
M  V30 6348 H 599.63 -3.60055 -2.18949 0
M  V30 6349 H 598.354 -2.35976 -2.25794 0
M  V30 6350 H 597.013 -3.62573 -0.541869 0
M  V30 6351 H 596.661 -4.05144 -2.98106 0
M  V30 6352 H 596.361 -5.51904 -2.01682 0
M  V30 6353 H 597.885 -5.35455 -2.93462 0
M  V30 6354 H 599.299 -5.69153 -0.688319 0
M  V30 6355 H 597.696 -6.00087 0.0398887 0
M  V30 6356 H 598.766 -4.78811 0.766057 0
M  V30 6357 N 600.109 -0.101901 -1.5727 0
M  V30 6358 C 601.349 0.563489 -1.96479 0
M  V30 6359 C 601.713 1.64926 -0.983021 0
M  V30 6360 O 602.914 2.37234 -1.26386 0
M  V30 6361 C 601.185 1.09809 -3.40113 0
M  V30 6362 S 602.744 1.7744 -4.01323 0
M  V30 6363 H 599.562 0.183675 -0.686866 0
M  V30 6364 H 602.164 -0.182922 -1.94642 0
M  V30 6365 H 600.868 0.296447 -4.09328 0
M  V30 6366 H 600.399 1.88018 -3.45562 0
M  V30 6367 H 602.414 3.0591 -3.90683 0
M  V30 6368 N 601.587 1.56661 0.17182 0
M  V30 6369 C 602.537 1.92781 1.21736 0
M  V30 6370 C 603.521 0.796065 1.39827 0
M  V30 6371 O 604.713 1.05924 1.41806 0
M  V30 6372 C 601.842 2.29079 2.55691 0
M  V30 6373 C 600.928 3.48765 2.41296 0
M  V30 6374 N 601.319 4.66022 1.96614 0
M  V30 6375 C 599.617 3.53362 2.72124 0
M  V30 6376 C 600.318 5.48159 1.94669 0
M  V30 6377 N 599.294 4.89189 2.37054 0
M  V30 6378 H 603.096 2.80926 0.863592 0
M  V30 6379 H 600.61 1.57889 0.380096 0
M  V30 6380 H 602.607 2.5315 3.31241 0
M  V30 6381 H 601.267 1.42272 2.91871 0
M  V30 6382 H 602.278 4.9025 1.66959 0
M  V30 6383 H 598.955 2.77033 3.12345 0
M  V30 6384 H 600.345 6.52121 1.61826 0
M  V30 6385 N 603.065 -0.440357 1.51323 0
M  V30 6386 C 604.295 -1.21079 1.67402 0
M  V30 6387 C 604.703 -1.85555 0.369599 0
M  V30 6388 O 604.046 -1.71375 -0.661525 0
M  V30 6389 C 604.108 -2.33839 2.73056 0
M  V30 6390 C 603.772 -1.89755 4.15743 0
M  V30 6391 C 604.769 -1.40268 5.0062 0
M  V30 6392 C 602.454 -1.97539 4.61826 0
M  V30 6393 C 604.448 -0.991474 6.29642 0
M  V30 6394 C 602.135 -1.56029 5.90845 0
M  V30 6395 C 603.133 -1.06915 6.7458 0
M  V30 6396 O 602.821 -0.659933 8.01187 0
M  V30 6397 H 602.553 -0.371133 0.56501 0
M  V30 6398 H 605.107 -0.528409 1.98487 0
M  V30 6399 H 603.337 -3.05345 2.37279 0
M  V30 6400 H 605.026 -2.95713 2.78044 0
M  V30 6401 H 605.792 -1.33652 4.66221 0
M  V30 6402 H 601.671 -2.34713 3.96776 0
M  V30 6403 H 605.215 -0.607425 6.9495 0
M  V30 6404 H 601.112 -1.62315 6.24759 0
M  V30 6405 H 601.88 -0.786052 8.14717 0
M  V30 6406 N 604.543 -1.41418 -0.695603 0
M  V30 6407 C 605.954 -1.36335 -1.27552 0
M  V30 6408 C 606.305 -0.0464336 -1.96145 0
M  V30 6409 O 605.43 0.855304 -1.9878 0
M  V30 6410 C 606.025 -2.46941 -2.3196 0
M  V30 6411 C 604.584 -2.45256 -2.85529 0
M  V30 6412 C 603.731 -2.2679 -1.59566 0
M  V30 6413 H 606.682 -1.50934 -0.490362 0
M  V30 6414 H 606.703 -2.15997 -3.1325 0
M  V30 6415 H 606.215 -3.42775 -1.82008 0
M  V30 6416 H 604.316 -1.53179 -3.39657 0
M  V30 6417 H 604.429 -3.41565 -3.35961 0
M  V30 6418 H 602.793 -1.74667 -1.85374 0
M  V30 6419 H 603.576 -3.24651 -1.1161 0
M  V30 6420 N 606.021 0.929856 -1.27246 0
M  V30 6421 C 606.971 2.01629 -1.06442 0
M  V30 6422 C 607.955 1.60899 0.00687842 0
M  V30 6423 O 609.147 1.75733 -0.211407 0
M  V30 6424 C 606.276 3.35849 -0.711361 0
M  V30 6425 C 605.362 3.8303 -1.82069 0
M  V30 6426 N 605.753 4.02743 -3.05993 0
M  V30 6427 C 604.051 4.12046 -1.70687 0
M  V30 6428 C 604.752 4.42001 -3.78167 0
M  V30 6429 N 603.728 4.4935 -3.05918 0
M  V30 6430 H 607.53 2.14898 -2.00489 0
M  V30 6431 H 605.044 1.11654 -1.17929 0
M  V30 6432 H 607.041 4.13343 -0.543442 0
M  V30 6433 H 605.701 3.23944 0.221517 0
M  V30 6434 H 606.712 3.89112 -3.41778 0
M  V30 6435 H 603.389 4.08866 -0.844681 0
M  V30 6436 H 604.779 4.6535 -4.84664 0
M  V30 6437 N 607.499 1.09233 1.13605 0
M  V30 6438 C 608.739 0.836786 1.86487 0
M  V30 6439 C 609.103 -0.626191 1.81502 0
M  V30 6440 O 610.304 -0.99758 2.49603 0
M  V30 6441 C 608.575 1.35476 3.30728 0
M  V30 6442 S 610.134 1.2328 4.21126 0
M  V30 6443 H 606.952 0.302702 0.643345 0
M  V30 6444 H 609.554 1.3953 1.36936 0
M  V30 6445 H 608.258 2.41381 3.31909 0
M  V30 6446 H 607.789 0.792286 3.85339 0
M  V30 6447 H 609.804 0.182468 4.95864 0
M  V30 6448 N 608.977 -1.30795 0.87923 0
M  V30 6449 C 610.225 -1.95974 0.493809 0
M  V30 6450 C 610.546 -1.69787 -0.959021 0
M  V30 6451 O 609.816 -1.01832 -1.67353 0
M  V30 6452 H 608.396 -0.725083 0.179622 0
M  V30 6453 H 611.058 -1.59432 1.12105 0
M  V30 6454 H 610.154 -3.05058 0.659263 0
M  V30 6455 N 610.455 -0.639598 -1.44038 0
M  V30 6456 C 611.732 -0.078012 -1.95444 0
M  V30 6457 C 612.112 1.39847 -1.58133 0
M  V30 6458 O 611.46 2.11714 -0.859614 0
M  V30 6459 C 611.67 -0.309832 -3.47622 0
M  V30 6460 C 613.018 -0.207521 -4.24093 0
M  V30 6461 O 614.042 -0.241653 -3.55379 0
M  V30 6462 O 612.901 -0.119641 -5.46369 0
M  V30 6463 H 609.995 0.0174534 -0.826816 0
M  V30 6464 H 612.541 -0.711891 -1.54046 0
M  V30 6465 H 611.313 -1.33401 -3.67858 0
M  V30 6466 H 610.936 0.357777 -3.95987 0
M  V30 6467 N 611.933 1.52934 -0.380664 0
M  V30 6468 C 612.88 2.26197 0.458641 0
M  V30 6469 C 613.85 1.27462 1.06502 0
M  V30 6470 O 615.035 1.56274 1.09467 0
M  V30 6471 C 612.175 3.06571 1.58456 0
M  V30 6472 C 611.288 4.20222 1.00189 0
M  V30 6473 C 610.423 4.88007 2.09815 0
M  V30 6474 C 609.462 5.93665 1.49092 0
M  V30 6475 N 608.599 6.55081 2.52613 0
M  V30 6476 H 613.439 2.975 -0.172595 0
M  V30 6477 H 610.976 1.4678 -0.0969426 0
M  V30 6478 H 612.934 3.51455 2.24801 0
M  V30 6479 H 611.564 2.37494 2.18624 0
M  V30 6480 H 610.616 3.79714 0.228292 0
M  V30 6481 H 611.928 4.96102 0.518064 0
M  V30 6482 H 611.082 5.36151 2.83948 0
M  V30 6483 H 609.821 4.11632 2.61555 0
M  V30 6484 H 608.826 5.44868 0.7348 0
M  V30 6485 H 610.051 6.71969 0.981582 0
M  V30 6486 H 607.997 5.8155 3.03538 0
M  V30 6487 H 607.914 7.26548 2.08961 0
M  V30 6488 H 609.182 7.07871 3.26402 0
M  V30 6489 N 613.412 0.11024 1.57214 0
M  V30 6490 C 614.659 -0.54987 1.94891 0
M  V30 6491 C 614.987 -1.67243 0.992984 0
M  V30 6492 O 614.242 -1.95694 0.0152703 0
M  V30 6493 C 614.541 -1.13102 3.39032 0
M  V30 6494 C 614.207 -0.130713 4.5071 0
M  V30 6495 C 612.869 0.14437 4.80983 0
M  V30 6496 C 615.221 0.551472 5.18274 0
M  V30 6497 C 612.549 1.10807 5.76141 0
M  V30 6498 C 614.901 1.50375 6.14467 0
M  V30 6499 C 613.565 1.78691 6.43138 0
M  V30 6500 H 612.835 -0.201212 0.713158 0
M  V30 6501 H 615.482 0.189288 1.90562 0
M  V30 6502 H 613.787 -1.94675 3.40013 0
M  V30 6503 H 615.484 -1.64973 3.65493 0
M  V30 6504 H 612.074 -0.355301 4.27125 0
M  V30 6505 H 616.258 0.35211 4.95049 0
M  V30 6506 H 611.514 1.3343 5.96663 0
M  V30 6507 H 615.688 2.03808 6.65909 0
M  V30 6508 H 613.315 2.53522 7.1668 0
M  V30 6509 N 614.89 -1.56749 -0.16351 0
M  V30 6510 C 615.822 -1.93587 -1.22705 0
M  V30 6511 C 616.835 -0.829824 -1.40063 0
M  V30 6512 O 618.024 -1.10826 -1.39928 0
M  V30 6513 C 615.124 -2.1803 -2.59454 0
M  V30 6514 C 614.297 -3.4928 -2.63292 0
M  V30 6515 C 613.356 -3.62457 -3.8146 0
M  V30 6516 O 612.382 -4.35004 -3.67096 0
M  V30 6517 N 613.584 -2.97888 -4.9824 0
M  V30 6518 H 616.349 -2.8542 -0.914081 0
M  V30 6519 H 613.91 -1.58 -0.353214 0
M  V30 6520 H 615.902 -2.24102 -3.36987 0
M  V30 6521 H 614.472 -1.32543 -2.8311 0
M  V30 6522 H 613.692 -3.54795 -1.71796 0
M  V30 6523 H 614.98 -4.35632 -2.62873 0
M  V30 6524 H 614.378 -2.38833 -5.12811 0
M  V30 6525 H 612.935 -3.09545 -5.73607 0
M  V30 6526 N 616.368 0.432326 -1.51554 0
M  V30 6527 C 617.3 1.54357 -1.6943 0
M  V30 6528 C 618.313 1.52311 -0.574897 0
M  V30 6529 O 619.502 1.56997 -0.849369 0
M  V30 6530 C 616.602 2.93273 -1.69836 0
M  V30 6531 C 615.775 3.19768 -2.98442 0
M  V30 6532 C 614.834 4.38433 -2.90969 0
M  V30 6533 O 613.86 4.36842 -3.64908 0
M  V30 6534 N 615.062 5.42276 -2.07163 0
M  V30 6535 H 617.827 1.39426 -2.65293 0
M  V30 6536 H 615.388 0.621331 -1.49503 0
M  V30 6537 H 617.38 3.70687 -1.62399 0
M  V30 6538 H 615.95 3.01777 -0.815456 0
M  V30 6539 H 615.17 2.30607 -3.19709 0
M  V30 6540 H 616.458 3.343 -3.83563 0
M  V30 6541 H 615.856 5.46407 -1.46477 0
M  V30 6542 H 614.413 6.18524 -2.05601 0
M  V30 6543 N 617.846 1.41785 0.688094 0
M  V30 6544 C 618.776 1.47 1.8142 0
M  V30 6545 C 619.757 0.327881 1.6691 0
M  V30 6546 O 620.942 0.540362 1.86531 0
M  V30 6547 C 618.072 1.35876 3.19617 0
M  V30 6548 C 617.026 2.47976 3.48844 0
M  V30 6549 C 616.352 2.21915 4.86475 0
M  V30 6550 C 617.652 3.90309 3.47068 0
M  V30 6551 H 619.346 2.41247 1.77314 0
M  V30 6552 H 616.892 1.16116 0.851651 0
M  V30 6553 H 618.845 1.38134 3.98117 0
M  V30 6554 H 617.569 0.38116 3.24368 0
M  V30 6555 H 616.228 2.45013 2.72698 0
M  V30 6556 H 615.876 1.2248 4.8786 0
M  V30 6557 H 615.576 2.97037 5.06994 0
M  V30 6558 H 617.1 2.25901 5.67275 0
M  V30 6559 H 618.514 3.94947 4.1556 0
M  V30 6560 H 616.911 4.65175 3.7912 0
M  V30 6561 H 617.981 4.17927 2.45896 0
M  V30 6562 N 619.324 -0.923095 1.27737 0
M  V30 6563 C 620.254 -2.04124 1.13383 0
M  V30 6564 C 621.235 -1.70066 0.0340658 0
M  V30 6565 O 622.42 -1.93068 0.209383 0
M  V30 6566 C 619.55 -3.3831 0.785097 0
M  V30 6567 C 618.504 -3.86496 1.8386 0
M  V30 6568 C 617.83 -5.1754 1.34373 0
M  V30 6569 C 619.13 -4.09381 3.24353 0
M  V30 6570 H 620.824 -2.1639 2.06919 0
M  V30 6571 H 618.37 -1.03976 0.996243 0
M  V30 6572 H 620.323 -4.16016 0.671485 0
M  V30 6573 H 619.047 -3.2607 -0.185969 0
M  V30 6574 H 617.706 -3.10987 1.9412 0
M  V30 6575 H 617.354 -5.01696 0.361989 0
M  V30 6576 H 617.054 -5.50751 2.04811 0
M  V30 6577 H 618.578 -5.97811 1.24315 0
M  V30 6578 H 619.992 -4.77641 3.17067 0
M  V30 6579 H 618.389 -4.53906 3.92542 0
M  V30 6580 H 619.459 -3.14515 3.69064 0
M  V30 6581 N 620.802 -1.09834 -1.13024 0
M  V30 6582 C 621.732 -0.763451 -2.20666 0
M  V30 6583 C 622.713 0.260778 -1.68089 0
M  V30 6584 O 623.898 0.127915 -1.93778 0
M  V30 6585 C 621.028 -0.187744 -3.46792 0
M  V30 6586 C 619.982 -1.14196 -4.12484 0
M  V30 6587 C 619.308 -0.427755 -5.32986 0
M  V30 6588 C 620.608 -2.48607 -4.59338 0
M  V30 6589 H 622.302 -1.66347 -2.48936 0
M  V30 6590 H 619.848 -0.801261 -1.19649 0
M  V30 6591 H 621.801 0.0586375 -4.21359 0
M  V30 6592 H 620.525 0.747485 -3.17931 0
M  V30 6593 H 619.184 -1.37369 -3.3989 0
M  V30 6594 H 618.832 0.511747 -5.0039 0
M  V30 6595 H 618.532 -1.06403 -5.77886 0
M  V30 6596 H 620.056 -0.189772 -6.10305 0
M  V30 6597 H 621.47 -2.29618 -5.25308 0
M  V30 6598 H 619.867 -3.08062 -5.14993 0
M  V30 6599 H 620.937 -3.09062 -3.73642 0
M  V30 6600 N 622.28 1.30327 -0.886154 0
M  V30 6601 C 623.52 1.97886 -0.511912 0
M  V30 6602 C 623.884 1.68417 0.921944 0
M  V30 6603 O 625.085 2.29319 1.40237 0
M  V30 6604 C 623.356 3.48775 -0.780444 0
M  V30 6605 S 624.915 4.35844 -0.508482 0
M  V30 6606 H 621.733 0.685024 -0.190428 0
M  V30 6607 H 624.335 1.58413 -1.14567 0
M  V30 6608 H 623.039 3.67714 -1.82248 0
M  V30 6609 H 622.57 3.93171 -0.134284 0
M  V30 6610 H 624.585 4.91893 0.65239 0
M  V30 6611 N 623.758 0.647228 1.43697 0
M  V30 6612 C 624.688 -0.0345631 2.33474 0
M  V30 6613 C 625.669 -0.818193 1.4913 0
M  V30 6614 O 626.854 -0.780867 1.77809 0
M  V30 6615 C 623.984 -1.00576 3.32418 0
M  V30 6616 C 622.938 -0.33266 4.26705 0
M  V30 6617 C 622.264 -1.41489 5.1564 0
M  V30 6618 C 623.564 0.771204 5.16575 0
M  V30 6619 H 625.258 0.715163 2.90733 0
M  V30 6620 H 622.804 0.345364 1.39797 0
M  V30 6621 H 624.757 -1.49159 3.94119 0
M  V30 6622 H 623.481 -1.78657 2.73403 0
M  V30 6623 H 622.14 0.13267 3.6636 0
M  V30 6624 H 621.788 -2.18698 4.52968 0
M  V30 6625 H 621.488 -0.969799 5.79542 0
M  V30 6626 H 623.012 -1.9022 5.80214 0
M  V30 6627 H 624.426 0.36779 5.72119 0
M  V30 6628 H 622.823 1.1404 5.89165 0
M  V30 6629 H 623.893 1.63169 4.56622 0
M  V30 6630 N 625.236 -1.5273 0.388769 0
M  V30 6631 C 626.482 -2.01871 -0.193877 0
M  V30 6632 C 626.815 -1.27475 -1.46505 0
M  V30 6633 O 626.09 -0.375063 -1.90849 0
M  V30 6634 C 626.373 -3.5712 -0.462336 0
M  V30 6635 C 626.226 -4.42186 0.824091 0
M  V30 6636 C 627.545 -4.21881 -1.25319 0
M  V30 6637 H 624.664 -0.733764 -0.0689899 0
M  V30 6638 H 627.306 -1.82796 0.518231 0
M  V30 6639 H 625.456 -3.73504 -1.06896 0
M  V30 6640 H 627.128 -4.37554 1.46096 0
M  V30 6641 H 625.371 -4.09219 1.43952 0
M  V30 6642 H 626.042 -5.48828 0.590905 0
M  V30 6643 H 628.518 -4.0947 -0.73981 0
M  V30 6644 H 627.394 -5.30487 -1.40977 0
M  V30 6645 H 627.655 -3.79478 -2.26824 0
M  V30 6646 N 626.714 -0.118576 -1.57153 0
M  V30 6647 C 627.624 0.845484 -2.18835 0
M  V30 6648 C 628.64 1.29299 -1.16438 0
M  V30 6649 O 629.816 1.35607 -1.48905 0
M  V30 6650 C 626.881 2.07795 -2.77529 0
M  V30 6651 C 625.942 1.6824 -3.9496 0
M  V30 6652 C 625.175 2.85612 -4.50845 0
M  V30 6653 O 625.398 4.01025 -4.05629 0
M  V30 6654 O 624.332 2.62721 -5.41536 0
M  V30 6655 H 628.158 0.350568 -3.0167 0
M  V30 6656 H 625.743 0.107013 -1.49016 0
M  V30 6657 H 627.625 2.79978 -3.14945 0
M  V30 6658 H 626.3 2.56294 -1.97725 0
M  V30 6659 H 625.207 0.931663 -3.62313 0
M  V30 6660 H 626.54 1.24484 -4.76198 0
M  V30 6661 N 628.193 1.56834 0.155195 0
M  V30 6662 C 629.439 1.83169 0.870467 0
M  V30 6663 C 629.772 0.698929 1.81187 0
M  V30 6664 O 629.047 -0.298035 1.92203 0
M  V30 6665 C 629.33 3.19965 1.65211 0
M  V30 6666 C 629.183 4.43792 0.732744 0
M  V30 6667 C 630.502 3.53885 2.61636 0
M  V30 6668 H 627.621 0.666288 0.315006 0
M  V30 6669 H 630.263 1.89513 0.135988 0
M  V30 6670 H 628.413 3.14687 2.27825 0
M  V30 6671 H 630.085 4.61148 0.118236 0
M  V30 6672 H 628.328 4.3378 0.0417906 0
M  V30 6673 H 628.999 5.36095 1.31552 0
M  V30 6674 H 631.475 3.5972 2.09143 0
M  V30 6675 H 630.351 4.50648 3.13381 0
M  V30 6676 H 630.612 2.79418 3.42605 0
M  V30 6677 N 629.671 -0.424282 1.51781 0
M  V30 6678 C 631.087 -0.761768 1.40247 0
M  V30 6679 C 631.287 -1.95324 0.495041 0
M  V30 6680 O 630.343 -2.5246 -0.0448949 0
M  V30 6681 C 631.656 -1.0299 2.82513 0
M  V30 6682 C 633.204 -1.13354 2.91753 0
M  V30 6683 C 633.679 -1.43453 4.34954 0
M  V30 6684 N 635.17 -1.5035 4.3812 0
M  V30 6685 C 635.905 -1.75236 5.45967 0
M  V30 6686 N 635.401 -1.97827 6.63955 0
M  V30 6687 N 637.194 -1.77126 5.33463 0
M  V30 6688 H 629.345 0.360228 2.09323 0
M  V30 6689 H 631.608 0.0988128 0.942836 0
M  V30 6690 H 631.314 -0.226961 3.50967 0
M  V30 6691 H 631.188 -1.95411 3.22637 0
M  V30 6692 H 633.575 -1.92709 2.23489 0
M  V30 6693 H 633.656 -0.188041 2.55108 0
M  V30 6694 H 633.3 -0.646209 5.03772 0
M  V30 6695 H 633.23 -2.3923 4.69123 0
M  V30 6696 H 635.721 -1.34742 3.53062 0
M  V30 6697 H 636.034 -2.16223 7.41935 0
M  V30 6698 H 634.379 -1.95123 6.67047 0
M  V30 6699 H 637.57 -1.59005 4.40267 0
M  V30 6700 H 637.743 -1.96182 6.17589 0
M  V30 6701 N 631.149 -1.42148 -0.680565 0
M  V30 6702 C 632.112 -1.4488 -1.77602 0
M  V30 6703 C 633.112 -0.337209 -1.57224 0
M  V30 6704 O 634.302 -0.597778 -1.63622 0
M  V30 6705 C 631.434 -1.27483 -3.16166 0
M  V30 6706 H 632.627 -2.42412 -1.76568 0
M  V30 6707 H 630.18 -1.28511 -0.889645 0
M  V30 6708 H 630.915 -0.30851 -3.22829 0
M  V30 6709 H 630.7 -2.08037 -3.3236 0
M  V30 6710 H 632.19 -1.32265 -3.96101 0
M  V30 6711 N 632.627 0.916307 -1.28225 0
M  V30 6712 C 633.557 2.0352 -1.14464 0
M  V30 6713 C 634.538 1.70045 -0.0430844 0
M  V30 6714 O 635.723 1.92954 -0.219619 0
M  V30 6715 C 632.853 3.37889 -0.803027 0
M  V30 6716 C 631.807 3.85516 -1.85908 0
M  V30 6717 C 631.133 5.1682 -1.37116 0
M  V30 6718 C 632.433 4.07655 -3.26519 0
M  V30 6719 H 634.127 2.1529 -2.08064 0
M  V30 6720 H 631.673 1.03446 -1.00174 0
M  V30 6721 H 633.626 4.15654 -0.693537 0
M  V30 6722 H 632.35 3.26164 0.168674 0
M  V30 6723 H 631.009 3.09953 -1.95767 0
M  V30 6724 H 630.657 5.01497 -0.38859 0
M  V30 6725 H 630.357 5.49657 -2.07728 0
M  V30 6726 H 631.881 5.97143 -1.27484 0
M  V30 6727 H 633.295 4.75953 -3.19596 0
M  V30 6728 H 631.692 4.51818 -3.94943 0
M  V30 6729 H 632.762 3.12553 -3.70727 0
M  V30 6730 N 634.105 1.10431 1.1244 0
M  V30 6731 C 635.33 0.869089 1.88313 0
M  V30 6732 C 635.755 -0.574912 1.79099 0
M  V30 6733 O 635.113 -1.40496 1.14589 0
M  V30 6734 C 635.161 1.32208 3.3549 0
M  V30 6735 O 634.265 0.487092 4.09513 0
M  V30 6736 H 633.606 0.313894 0.585121 0
M  V30 6737 H 636.136 1.47111 1.42195 0
M  V30 6738 H 636.146 1.31201 3.86329 0
M  V30 6739 H 634.821 2.37364 3.41513 0
M  V30 6740 H 633.398 0.562372 3.68635 0
M  V30 6741 N 635.583 -1.29855 0.893053 0
M  V30 6742 C 636.516 -2.26079 0.3104 0
M  V30 6743 C 637.494 -1.52145 -0.573644 0
M  V30 6744 O 638.678 -1.8113 -0.521937 0
M  V30 6745 C 635.805 -3.34069 -0.558179 0
M  V30 6746 C 634.851 -4.25721 0.257638 0
M  V30 6747 S 635.684 -5.09409 1.65114 0
M  V30 6748 C 636.84 -6.20903 0.789307 0
M  V30 6749 H 637.073 -2.75151 1.12602 0
M  V30 6750 H 634.606 -1.37975 0.692978 0
M  V30 6751 H 636.564 -3.9675 -1.05355 0
M  V30 6752 H 635.225 -2.83705 -1.34797 0
M  V30 6753 H 634.418 -5.02366 -0.405562 0
M  V30 6754 H 634.02 -3.67656 0.685917 0
M  V30 6755 H 636.312 -6.77499 0.00978451 0
M  V30 6756 H 637.255 -6.91426 1.52762 0
M  V30 6757 H 637.663 -5.63435 0.346634 0
M  V30 6758 N 637.061 -0.65484 -1.43351 0
M  V30 6759 C 637.993 0.0744757 -2.29079 0
M  V30 6760 C 639.006 0.7855 -1.42596 0
M  V30 6761 O 640.195 0.642986 -1.66517 0
M  V30 6762 C 637.295 1.12859 -3.19556 0
M  V30 6763 C 636.468 0.495381 -4.34586 0
M  V30 6764 C 635.527 1.44659 -5.05925 0
M  V30 6765 O 634.553 0.954567 -5.61139 0
M  V30 6766 N 635.755 2.78051 -5.09576 0
M  V30 6767 H 638.52 -0.661346 -2.92312 0
M  V30 6768 H 636.081 -0.497744 -1.54059 0
M  V30 6769 H 638.073 1.76577 -3.64147 0
M  V30 6770 H 636.643 1.76636 -2.57912 0
M  V30 6771 H 635.863 -0.32092 -3.92892 0
M  V30 6772 H 637.151 0.0534203 -5.08772 0
M  V30 6773 H 636.549 3.20584 -4.66093 0
M  V30 6774 H 635.106 3.37068 -5.57878 0
M  V30 6775 N 638.539 1.52521 -0.396863 0
M  V30 6776 C 639.502 2.2527 0.422604 0
M  V30 6777 C 640.502 1.27184 0.983913 0
M  V30 6778 O 641.692 1.51222 0.864723 0
M  V30 6779 C 638.824 3.01356 1.59365 0
M  V30 6780 H 640.017 2.99133 -0.214416 0
M  V30 6781 H 637.57 1.55587 -0.149128 0
M  V30 6782 H 638.305 2.31813 2.26789 0
M  V30 6783 H 638.09 3.73357 1.19779 0
M  V30 6784 H 639.58 3.56571 2.17363 0
M  V30 6785 N 640.017 0.126909 1.57088 0
M  V30 6786 C 640.964 -0.82036 2.15728 0
M  V30 6787 C 641.934 -1.25811 1.08447 0
M  V30 6788 O 643.119 -1.33422 1.36393 0
M  V30 6789 C 640.259 -2.06199 2.76724 0
M  V30 6790 C 639.372 -1.67188 3.98337 0
M  V30 6791 C 638.507 -2.86378 4.47393 0
M  V30 6792 C 637.546 -2.43644 5.61519 0
M  V30 6793 N 636.683 -3.55775 6.05284 0
M  V30 6794 H 641.523 -0.313472 2.96347 0
M  V30 6795 H 639.06 -0.14303 1.46403 0
M  V30 6796 H 641.018 -2.78959 3.10222 0
M  V30 6797 H 639.648 -2.54333 1.98782 0
M  V30 6798 H 638.7 -0.842714 3.70948 0
M  V30 6799 H 640.012 -1.31789 4.81075 0
M  V30 6800 H 639.166 -3.67353 4.82842 0
M  V30 6801 H 637.905 -3.25009 3.63621 0
M  V30 6802 H 636.91 -1.61104 5.25667 0
M  V30 6803 H 638.135 -2.06122 6.47063 0
M  V30 6804 H 636.081 -3.94065 5.24451 0
M  V30 6805 H 635.998 -3.24325 6.82898 0
M  V30 6806 H 637.266 -4.37166 6.45373 0
M  V30 6807 N 641.495 -1.56914 -0.146875 0
M  V30 6808 C 642.405 -2.0154 -1.20079 0
M  V30 6809 C 643.421 -0.930838 -1.47008 0
M  V30 6810 O 644.597 -1.24032 -1.58676 0
M  V30 6811 C 641.662 -2.38715 -2.51428 0
M  V30 6812 C 640.723 -3.6112 -2.32145 0
M  V30 6813 C 639.956 -3.96512 -3.57231 0
M  V30 6814 O 640.179 -3.32566 -4.63418 0
M  V30 6815 O 639.113 -4.89758 -3.49887 0
M  V30 6816 H 642.939 -2.91506 -0.851924 0
M  V30 6817 H 640.524 -1.45106 -0.355607 0
M  V30 6818 H 642.406 -2.63485 -3.28867 0
M  V30 6819 H 641.081 -1.51903 -2.85845 0
M  V30 6820 H 639.988 -3.41536 -1.52656 0
M  V30 6821 H 641.321 -4.48549 -2.02644 0
M  V30 6822 N 642.974 0.416227 -1.52004 0
M  V30 6823 C 644.204 1.18401 -1.69307 0
M  V30 6824 C 644.612 1.84943 -0.399072 0
M  V30 6825 O 643.955 1.72406 0.634177 0
M  V30 6826 C 644.017 2.29465 -2.76742 0
M  V30 6827 C 643.681 1.83117 -4.18709 0
M  V30 6828 C 644.678 1.32286 -5.02789 0
M  V30 6829 C 642.363 1.90167 -4.64911 0
M  V30 6830 C 644.357 0.891178 -6.31139 0
M  V30 6831 C 642.044 1.4661 -5.93253 0
M  V30 6832 C 643.042 0.961696 -6.76196 0
M  V30 6833 O 642.73 0.532388 -8.02135 0
M  V30 6834 H 642.462 0.362098 -0.570843 0
M  V30 6835 H 645.016 0.496764 -1.99302 0
M  V30 6836 H 643.246 3.01531 -2.42107 0
M  V30 6837 H 644.935 2.91252 -2.82713 0
M  V30 6838 H 645.701 1.26218 -4.68288 0
M  V30 6839 H 641.58 2.28371 -4.00459 0
M  V30 6840 H 645.124 0.496788 -6.95829 0
M  V30 6841 H 641.021 1.52355 -6.27263 0
M  V30 6842 H 641.789 0.656339 -8.15864 0
M  V30 6843 N 644.452 1.42507 0.673017 0
M  V30 6844 C 645.382 1.48916 1.79851 0
M  V30 6845 C 646.363 0.345566 1.66553 0
M  V30 6846 O 647.548 0.560116 1.85947 0
M  V30 6847 C 644.678 1.39258 3.18158 0
M  V30 6848 C 643.632 2.51662 3.46194 0
M  V30 6849 C 642.958 2.27062 4.84094 0
M  V30 6850 C 644.258 3.93968 3.42909 0
M  V30 6851 H 645.952 2.43114 1.74745 0
M  V30 6852 H 643.498 1.17013 0.839288 0
M  V30 6853 H 645.451 1.42349 3.96629 0
M  V30 6854 H 644.175 0.415542 3.23946 0
M  V30 6855 H 642.834 2.47891 2.70084 0
M  V30 6856 H 642.482 1.27648 4.86534 0
M  V30 6857 H 642.182 3.02398 5.03815 0
M  V30 6858 H 643.706 2.31905 5.64847 0
M  V30 6859 H 645.12 3.99332 4.11347 0
M  V30 6860 H 643.517 4.6917 3.74165 0
M  V30 6861 H 644.587 4.20512 2.41449 0
M  V30 6862 N 645.93 -0.909495 1.28709 0
M  V30 6863 C 647.16 -1.69027 1.188 0
M  V30 6864 C 647.568 -1.87469 -0.255329 0
M  V30 6865 O 646.911 -1.40458 -1.18394 0
M  V30 6866 C 646.973 -3.10064 1.81936 0
M  V30 6867 C 646.637 -3.14891 3.31199 0
M  V30 6868 C 647.634 -2.95768 4.27571 0
M  V30 6869 C 645.319 -3.37269 3.7223 0
M  V30 6870 C 647.313 -2.98942 5.6295 0
M  V30 6871 C 645 -3.40074 5.07733 0
M  V30 6872 C 645.998 -3.20932 6.02903 0
M  V30 6873 O 645.686 -3.23507 7.35934 0
M  V30 6874 H 645.418 -0.535014 0.413203 0
M  V30 6875 H 647.972 -1.14645 1.70428 0
M  V30 6876 H 646.202 -3.66005 1.24808 0
M  V30 6877 H 647.891 -3.70185 1.66486 0
M  V30 6878 H 648.657 -2.78302 3.97206 0
M  V30 6879 H 644.536 -3.51212 2.98615 0
M  V30 6880 H 648.08 -2.83919 6.37209 0
M  V30 6881 H 643.977 -3.5707 5.37747 0
M  V30 6882 H 644.745 -3.3984 7.44615 0
M  V30 6883 N 647.408 -1.11026 -1.11852 0
M  V30 6884 C 648.358 -0.733836 -2.15868 0
M  V30 6885 C 649.342 0.26001 -1.58785 0
M  V30 6886 O 650.534 0.0677901 -1.7687 0
M  V30 6887 C 647.663 -0.173948 -3.42859 0
M  V30 6888 C 646.749 -1.1952 -4.0691 0
M  V30 6889 N 647.14 -2.38797 -4.45881 0
M  V30 6890 C 645.438 -1.03714 -4.33773 0
M  V30 6891 C 646.139 -3.03894 -4.96007 0
M  V30 6892 N 645.115 -2.31389 -4.91894 0
M  V30 6893 H 648.917 -1.64171 -2.43773 0
M  V30 6894 H 646.431 -0.988877 -1.28822 0
M  V30 6895 H 648.428 0.113836 -4.16745 0
M  V30 6896 H 647.088 0.728568 -3.16421 0
M  V30 6897 H 648.099 -2.76281 -4.38051 0
M  V30 6898 H 644.776 -0.190694 -4.17064 0
M  V30 6899 H 646.166 -4.05389 -5.35826 0
M  V30 6900 N 648.886 1.2938 -0.899927 0
M  V30 6901 C 649.833 2.27713 -0.376243 0
M  V30 6902 C 650.803 1.57016 0.541774 0
M  V30 6903 O 651.988 1.84997 0.466966 0
M  V30 6904 C 649.128 3.42889 0.39 0
M  V30 6905 C 648.241 4.28369 -0.558938 0
M  V30 6906 C 647.376 5.30726 0.224379 0
M  V30 6907 C 646.415 6.07862 -0.719068 0
M  V30 6908 N 645.552 7.02094 0.0298569 0
M  V30 6909 H 650.392 2.71888 -1.21988 0
M  V30 6910 H 647.929 1.33724 -0.612879 0
M  V30 6911 H 649.887 4.08443 0.850314 0
M  V30 6912 H 648.517 2.99743 1.19809 0
M  V30 6913 H 647.569 3.62986 -1.13777 0
M  V30 6914 H 648.881 4.82068 -1.2811 0
M  V30 6915 H 648.035 6.02098 0.745881 0
M  V30 6916 H 646.774 4.77759 0.979674 0
M  V30 6917 H 645.779 5.35353 -1.25207 0
M  V30 6918 H 647.004 6.62917 -1.4737 0
M  V30 6919 H 644.95 6.51496 0.767415 0
M  V30 6920 H 644.867 7.5335 -0.632391 0
M  V30 6921 H 646.135 7.77685 0.531615 0
M  V30 6922 N 650.364 0.662433 1.43002 0
M  V30 6923 C 651.314 -0.0460442 2.27954 0
M  V30 6924 C 652.298 -0.785753 1.40409 0
M  V30 6925 O 653.49 -0.666701 1.63964 0
M  V30 6926 C 650.619 -1.00532 3.2825 0
M  V30 6927 C 649.705 -0.263604 4.2328 0
M  V30 6928 N 650.096 0.724855 5.00579 0
M  V30 6929 C 648.394 -0.503778 4.43146 0
M  V30 6930 C 649.095 1.16594 5.69895 0
M  V30 6931 N 648.071 0.498345 5.41311 0
M  V30 6932 H 651.873 0.712314 2.85137 0
M  V30 6933 H 649.387 0.490469 1.54817 0
M  V30 6934 H 651.384 -1.52775 3.87899 0
M  V30 6935 H 650.044 -1.76364 2.72628 0
M  V30 6936 H 651.055 1.10393 5.05998 0
M  V30 6937 H 647.732 -1.24255 3.98581 0
M  V30 6938 H 649.122 1.98434 6.4193 0
M  V30 6939 N 651.842 -1.52309 0.404946 0
M  V30 6940 C 652.772 -2.29805 -0.41376 0
M  V30 6941 C 653.753 -1.3384 -1.0498 0
M  V30 6942 O 654.938 -1.62745 -1.05961 0
M  V30 6943 C 652.068 -3.11639 -1.53292 0
M  V30 6944 C 651.022 -4.15616 -1.02211 0
M  V30 6945 C 650.348 -4.8577 -2.23455 0
M  V30 6946 C 651.648 -5.2224 -0.0790725 0
M  V30 6947 H 653.342 -2.98493 0.232878 0
M  V30 6948 H 650.888 -1.43552 0.113441 0
M  V30 6949 H 652.841 -3.64618 -2.11262 0
M  V30 6950 H 651.565 -2.40712 -2.20738 0
M  V30 6951 H 650.224 -3.63641 -0.46484 0
M  V30 6952 H 649.872 -4.11376 -2.89445 0
M  V30 6953 H 649.572 -5.56058 -1.89929 0
M  V30 6954 H 651.096 -5.4156 -2.82038 0
M  V30 6955 H 652.51 -5.70485 -0.567438 0
M  V30 6956 H 650.907 -5.99867 0.167167 0
M  V30 6957 H 651.977 -4.77078 0.867447 0
M  V30 6958 N 653.32 -0.135238 -1.57019 0
M  V30 6959 C 654.568 0.51777 -1.95355 0
M  V30 6960 C 654.889 1.6617 -1.02042 0
M  V30 6961 O 654.159 1.95738 -0.0797343 0
M  V30 6962 H 652.739 0.194264 -0.721298 0
M  V30 6963 H 655.401 -0.207983 -1.93787 0
M  V30 6964 H 654.497 0.901675 -2.98791 0
M  V30 6965 N 654.798 1.5699 0.138552 0
M  V30 6966 C 655.746 1.99858 1.18994 0
M  V30 6967 C 656.74 0.89231 1.43994 0
M  V30 6968 O 657.946 1.0775 1.44187 0
M  V30 6969 H 654.321 0.636325 0.400743 0
M  V30 6970 H 656.292 2.87427 0.801755 0
M  V30 6971 C 655.041 2.40235 2.51361 0
M  V30 6972 H 654.364 3.24917 2.32957 0
M  V30 6973 H 655.804 2.74045 3.23535 0
M  V30 6974 C 654.263 1.25829 3.1252 0
M  V30 6975 O 654.793 0.563604 3.97727 0
M  V30 6976 N 652.999 1.02036 2.72097 0
M  V30 6977 H 652.546 1.58705 2.02905 0
M  V30 6978 H 652.504 0.256796 3.1335 0
M  V30 6979 N 656.276 -0.40816 1.52223 0
M  V30 6980 C 657.186 -1.52202 1.78526 0
M  V30 6981 C 658.202 -1.60546 0.670892 0
M  V30 6982 O 659.378 -1.77242 0.956404 0
M  V30 6983 C 656.443 -2.87928 1.93128 0
M  V30 6984 C 655.504 -2.89463 3.17033 0
M  V30 6985 C 654.737 -4.18715 3.30929 0
M  V30 6986 O 654.96 -5.12662 2.50067 0
M  V30 6987 O 653.894 -4.27125 4.24084 0
M  V30 6988 H 657.72 -1.32911 2.73072 0
M  V30 6989 H 655.305 -0.594112 1.37079 0
M  V30 6990 H 657.187 -3.68426 2.04549 0
M  V30 6991 H 655.862 -3.07285 1.01772 0
M  V30 6992 H 654.769 -2.07815 3.11069 0
M  V30 6993 H 656.102 -2.75055 4.08174 0
M  V30 6994 N 657.755 -1.42862 -0.66545 0
M  V30 6995 C 658.688 -1.41509 -1.79026 0
M  V30 6996 C 659.666 -0.278106 -1.60204 0
M  V30 6997 O 660.85 -0.469792 -1.82552 0
M  V30 6998 C 657.977 -1.21494 -3.1616 0
M  V30 6999 C 657.023 -2.38308 -3.53711 0
M  V30 7000 S 657.856 -4.00852 -3.55075 0
M  V30 7001 C 659.012 -3.83197 -4.94885 0
M  V30 7002 H 659.245 -2.36691 -1.79902 0
M  V30 7003 H 656.778 -1.29746 -0.836977 0
M  V30 7004 H 658.736 -1.10633 -3.95311 0
M  V30 7005 H 657.397 -0.27881 -3.1286 0
M  V30 7006 H 656.59 -2.20076 -4.53412 0
M  V30 7007 H 656.192 -2.45732 -2.81943 0
M  V30 7008 H 658.484 -3.44765 -5.83218 0
M  V30 7009 H 659.427 -4.82607 -5.18166 0
M  V30 7010 H 659.835 -3.15884 -4.67843 0
M  V30 7011 N 659.233 0.902656 -1.29189 0
M  V30 7012 C 660.644 1.46809 -1.15343 0
M  V30 7013 C 660.995 1.94568 0.252517 0
M  V30 7014 O 660.12 1.83454 1.14777 0
M  V30 7015 C 660.715 2.66829 -2.08776 0
M  V30 7016 C 659.274 3.19518 -1.98961 0
M  V30 7017 C 658.421 1.92212 -1.99874 0
M  V30 7018 H 661.372 0.714282 -1.41717 0
M  V30 7019 H 661.393 3.42465 -1.65826 0
M  V30 7020 H 660.905 2.32039 -3.11094 0
M  V30 7021 H 659.006 3.59008 -0.99721 0
M  V30 7022 H 659.119 3.84016 -2.86477 0
M  V30 7023 H 657.483 2.0979 -1.44431 0
M  V30 7024 H 658.266 1.59702 -3.03891 0
M  V30 7025 N 660.711 1.11618 1.11262 0
M  V30 7026 C 662.127 0.850468 1.35053 0
M  V30 7027 C 662.327 -0.523868 1.94571 0
M  V30 7028 O 661.383 -1.2743 2.17986 0
M  V30 7029 C 662.696 1.96005 2.28041 0
M  V30 7030 C 664.244 1.98993 2.416 0
M  V30 7031 C 664.719 3.0916 3.37911 0
M  V30 7032 N 666.21 3.08547 3.45475 0
M  V30 7033 C 666.945 3.9043 4.19943 0
M  V30 7034 N 666.441 4.8228 4.97371 0
M  V30 7035 N 668.234 3.786 4.15474 0
M  V30 7036 H 660.385 2.00184 0.709932 0
M  V30 7037 H 662.648 0.870635 0.375099 0
M  V30 7038 H 662.354 2.9499 1.91503 0
M  V30 7039 H 662.228 1.85782 3.28275 0
M  V30 7040 H 664.615 1.00633 2.77411 0
M  V30 7041 H 664.696 2.13292 1.4121 0
M  V30 7042 H 664.34 4.07748 3.02827 0
M  V30 7043 H 664.27 2.92102 4.3816 0
M  V30 7044 H 666.761 2.42 2.90249 0
M  V30 7045 H 667.074 5.41289 5.51567 0
M  V30 7046 H 665.419 4.863 4.96525 0
M  V30 7047 H 668.61 3.06185 3.54074 0
M  V30 7048 H 668.783 4.42647 4.73253 0
M  V30 7049 N 662.189 -1.289 0.906776 0
M  V30 7050 C 663.137 -2.29477 0.379873 0
M  V30 7051 C 664.131 -1.61068 -0.524747 0
M  V30 7052 O 665.337 -1.75344 -0.406765 0
M  V30 7053 H 661.712 -0.744742 0.10423 0
M  V30 7054 H 663.683 -2.71353 1.24137 0
M  V30 7055 C 662.432 -3.45713 -0.371154 0
M  V30 7056 H 661.755 -3.98551 0.315716 0
M  V30 7057 H 663.195 -4.18105 -0.704581 0
M  V30 7058 C 661.654 -2.9774 -1.57646 0
M  V30 7059 O 662.184 -2.99618 -2.67567 0
M  V30 7060 N 660.39 -2.53485 -1.42105 0
M  V30 7061 H 659.937 -2.52156 -0.526783 0
M  V30 7062 H 659.895 -2.21747 -2.22881 0
M  V30 7063 N 663.667 -0.670007 -1.42649 0
M  V30 7064 C 664.615 0.0230106 -2.32589 0
M  V30 7065 C 665.609 0.795585 -1.49555 0
M  V30 7066 O 666.815 0.70409 -1.65658 0
M  V30 7067 H 663.19 0.0262342 -0.751542 0
M  V30 7068 H 665.161 -0.753009 -2.88743 0
M  V30 7069 C 663.91 0.963872 -3.34073 0
M  V30 7070 H 663.233 0.378813 -3.98001 0
M  V30 7071 H 664.673 1.41755 -3.99602 0
M  V30 7072 C 663.132 2.06797 -2.65964 0
M  V30 7073 O 663.662 3.15383 -2.48789 0
M  V30 7074 N 661.868 1.83831 -2.25066 0
M  V30 7075 H 661.415 0.955235 -2.39234 0
M  V30 7076 H 661.373 2.57895 -1.79827 0
M  V30 7077 N 665.145 1.52092 -0.413018 0
M  V30 7078 C 666.075 2.30021 0.401567 0
M  V30 7079 C 667.056 1.34395 1.04269 0
M  V30 7080 O 668.241 1.63304 1.05097 0
M  V30 7081 C 665.371 3.12447 1.51638 0
M  V30 7082 C 664.325 4.16153 1.00005 0
M  V30 7083 C 663.651 4.86948 2.20875 0
M  V30 7084 C 664.951 5.22275 0.0513757 0
M  V30 7085 H 666.645 2.98365 -0.248704 0
M  V30 7086 H 664.191 1.4349 -0.121052 0
M  V30 7087 H 666.144 3.65733 2.09326 0
M  V30 7088 H 664.868 2.41879 2.19458 0
M  V30 7089 H 663.527 3.63882 0.445549 0
M  V30 7090 H 663.175 4.12905 2.8726 0
M  V30 7091 H 662.875 5.57057 1.86978 0
M  V30 7092 H 664.399 5.43048 2.79162 0
M  V30 7093 H 665.813 5.70778 0.537176 0
M  V30 7094 H 664.21 5.9977 -0.198977 0
M  V30 7095 H 665.28 4.76611 -0.892736 0
M  V30 7096 N 666.623 0.143563 1.56945 0
M  V30 7097 C 667.553 -0.7936 2.196 0
M  V30 7098 C 668.534 -1.25955 1.14321 0
M  V30 7099 O 669.719 -1.31773 1.42651 0
M  V30 7100 C 666.849 -2.03424 2.81489 0
M  V30 7101 C 665.803 -1.70519 3.92565 0
M  V30 7102 C 665.129 -3.01817 4.41373 0
M  V30 7103 C 666.429 -0.95449 5.13504 0
M  V30 7104 H 668.123 -0.271423 2.98167 0
M  V30 7105 H 665.669 -0.12911 1.4342 0
M  V30 7106 H 667.622 -2.69463 3.23987 0
M  V30 7107 H 666.346 -2.58008 2.00248 0
M  V30 7108 H 665.005 -1.06859 3.5068 0
M  V30 7109 H 664.653 -3.54386 3.56959 0
M  V30 7110 H 664.353 -2.80565 5.16292 0
M  V30 7111 H 665.877 -3.68934 4.86539 0
M  V30 7112 H 667.291 -1.5169 5.52868 0
M  V30 7113 H 665.688 -0.842035 5.94163 0
M  V30 7114 H 666.758 0.0544033 4.84869 0
M  V30 7115 N 668.101 -1.57061 -0.130224 0
M  V30 7116 C 669.35 -1.83446 -0.838488 0
M  V30 7117 C 669.663 -0.727468 -1.81569 0
M  V30 7118 O 670.869 -0.877394 -2.56932 0
M  V30 7119 C 669.325 -3.25201 -1.54182 0
M  V30 7120 C 668.933 -4.4388 -0.606178 0
M  V30 7121 C 670.677 -3.60844 -2.23588 0
M  V30 7122 C 668.584 -5.76661 -1.31209 0
M  V30 7123 H 667.514 -0.684185 -0.316871 0
M  V30 7124 H 670.165 -1.83273 -0.0912059 0
M  V30 7125 H 668.547 -3.1981 -2.33533 0
M  V30 7126 H 669.721 -4.60545 0.153308 0
M  V30 7127 H 668.036 -4.16395 -0.0196705 0
M  V30 7128 H 670.633 -4.57313 -2.77072 0
M  V30 7129 H 670.976 -2.87724 -3.00867 0
M  V30 7130 H 671.509 -3.67971 -1.51137 0
M  V30 7131 H 668.248 -6.52922 -0.580823 0
M  V30 7132 H 667.768 -5.63902 -2.04387 0
M  V30 7133 H 669.447 -6.20035 -1.8484 0
M  V30 7134 N 669.579 0.400081 -1.52437 0
M  V30 7135 C 670.489 1.51253 -1.79331 0
M  V30 7136 C 671.505 1.60188 -0.679396 0
M  V30 7137 O 672.681 1.76733 -0.965791 0
M  V30 7138 C 669.746 2.869 -1.94652 0
M  V30 7139 C 668.807 2.87777 -3.18564 0
M  V30 7140 C 668.04 4.16954 -3.33145 0
M  V30 7141 O 668.263 5.11329 -2.52783 0
M  V30 7142 O 667.197 4.2487 -4.26343 0
M  V30 7143 H 671.023 1.31461 -2.73773 0
M  V30 7144 H 668.608 0.586834 -1.37392 0
M  V30 7145 H 670.49 3.67336 -2.065 0
M  V30 7146 H 669.165 3.06741 -1.034 0
M  V30 7147 H 668.072 2.06162 -3.12167 0
M  V30 7148 H 669.405 2.72886 -4.09627 0
M  V30 7149 N 671.057 1.43213 0.657864 0
M  V30 7150 C 671.99 1.42456 1.78273 0
M  V30 7151 C 672.968 0.286598 1.60054 0
M  V30 7152 O 674.152 0.479467 1.823 0
M  V30 7153 C 671.279 1.23169 3.15511 0
M  V30 7154 C 670.325 2.40181 3.52442 0
M  V30 7155 S 671.158 4.02729 3.52944 0
M  V30 7156 C 672.314 3.85816 4.92846 0
M  V30 7157 H 672.547 2.37642 1.78644 0
M  V30 7158 H 670.08 1.30188 0.830084 0
M  V30 7159 H 672.038 1.12728 3.94719 0
M  V30 7160 H 670.699 0.295398 3.12708 0
M  V30 7161 H 669.892 2.22478 4.52239 0
M  V30 7162 H 669.494 2.47224 2.80636 0
M  V30 7163 H 671.786 3.47853 5.81381 0
M  V30 7164 H 672.729 4.85348 5.15599 0
M  V30 7165 H 673.137 3.18361 4.66162 0
M  V30 7166 N 672.536 -0.895792 1.29666 0
M  V30 7167 C 673.466 -2.01673 1.17688 0
M  V30 7168 C 674.447 -1.69955 0.0701317 0
M  V30 7169 O 675.632 -1.9258 0.250289 0
M  V30 7170 C 672.762 -3.36568 0.856681 0
M  V30 7171 C 671.716 -3.82509 1.92017 0
M  V30 7172 C 671.042 -5.14574 1.4532 0
M  V30 7173 C 672.342 -4.02409 3.32963 0
M  V30 7174 H 674.036 -2.11953 2.11463 0
M  V30 7175 H 671.582 -1.01839 1.01807 0
M  V30 7176 H 673.535 -4.14498 0.759577 0
M  V30 7177 H 672.259 -3.26391 -0.116763 0
M  V30 7178 H 670.918 -3.068 2.00673 0
M  V30 7179 H 670.566 -5.00815 0.468325 0
M  V30 7180 H 670.266 -5.46283 2.16447 0
M  V30 7181 H 671.79 -5.9504 1.36968 0
M  V30 7182 H 673.204 -4.70808 3.27127 0
M  V30 7183 H 671.601 -4.45478 4.02082 0
M  V30 7184 H 672.671 -3.06616 3.75652 0
M  V30 7185 N 674.014 -1.12206 -1.10668 0
M  V30 7186 C 674.946 -0.74552 -2.16736 0
M  V30 7187 C 675.959 0.226696 -1.61214 0
M  V30 7188 O 677.148 0.0083936 -1.78498 0
M  V30 7189 C 674.248 -0.0823368 -3.388 0
M  V30 7190 C 673.421 -1.08341 -4.2377 0
M  V30 7191 C 672.48 -0.448292 -5.24287 0
M  V30 7192 O 671.506 -1.10458 -5.58379 0
M  V30 7193 N 672.708 0.785336 -5.75163 0
M  V30 7194 H 675.473 -1.65818 -2.49649 0
M  V30 7195 H 673.034 -1.01335 -1.26265 0
M  V30 7196 H 675.026 0.354476 -4.03145 0
M  V30 7197 H 673.596 0.733041 -3.03884 0
M  V30 7198 H 672.816 -1.69792 -3.55759 0
M  V30 7199 H 674.104 -1.76042 -4.77375 0
M  V30 7200 H 673.502 1.33755 -5.4966 0
M  V30 7201 H 672.059 1.16501 -6.41304 0
M  V30 7202 N 675.492 1.28418 -0.913599 0
M  V30 7203 C 676.455 2.25564 -0.406624 0
M  V30 7204 C 677.455 1.5387 0.466965 0
M  V30 7205 O 678.645 1.72094 0.270042 0
M  V30 7206 C 675.777 3.38339 0.417053 0
M  V30 7207 H 676.97 2.71926 -1.26477 0
M  V30 7208 H 674.523 1.40098 -0.692986 0
M  V30 7209 H 675.258 2.97339 1.29461 0
M  V30 7210 H 675.043 3.91542 -0.209102 0
M  V30 7211 H 676.533 4.10578 0.762602 0
M  V30 7212 N 676.97 0.677563 1.42291 0
M  V30 7213 C 677.917 0.000947061 2.308 0
M  V30 7214 C 678.887 -0.789889 1.46116 0
M  V30 7215 O 680.072 -0.761578 1.74942 0
M  V30 7216 C 677.212 -0.942387 3.31984 0
M  V30 7217 C 676.325 -0.14508 4.31756 0
M  V30 7218 C 675.46 -1.08442 5.20013 0
M  V30 7219 C 674.499 -0.278958 6.11464 0
M  V30 7220 N 673.636 -1.17115 6.92263 0
M  V30 7221 H 678.476 0.761521 2.88106 0
M  V30 7222 H 676.013 0.38727 1.41911 0
M  V30 7223 H 677.971 -1.50317 3.89179 0
M  V30 7224 H 676.601 -1.66956 2.76271 0
M  V30 7225 H 675.653 0.532368 3.76656 0
M  V30 7226 H 676.965 0.48015 4.96484 0
M  V30 7227 H 676.119 -1.71504 5.81955 0
M  V30 7228 H 674.858 -1.74353 4.55469 0
M  V30 7229 H 673.863 0.364856 5.48588 0
M  V30 7230 H 675.088 0.376099 6.78058 0
M  V30 7231 H 673.034 -1.81661 6.30345 0
M  V30 7232 H 672.951 -0.601063 7.53607 0
M  V30 7233 H 674.219 -1.78915 7.58689 0
M  V30 7234 N 678.448 -1.51871 0.421078 0
M  V30 7235 C 679.38 -2.25052 -0.434065 0
M  V30 7236 C 680.393 -1.28458 -1.00013 0
M  V30 7237 O 681.582 -1.54323 -0.897033 0
M  V30 7238 C 678.682 -2.97813 -1.61743 0
M  V30 7239 C 677.855 -4.21374 -1.17315 0
M  V30 7240 C 676.914 -4.76854 -2.22478 0
M  V30 7241 O 675.94 -5.39123 -1.82577 0
M  V30 7242 N 677.142 -4.59467 -3.54782 0
M  V30 7243 H 679.907 -2.99077 0.193073 0
M  V30 7244 H 677.468 -1.59972 0.249088 0
M  V30 7245 H 679.46 -3.3182 -2.31685 0
M  V30 7246 H 678.03 -2.26899 -2.15024 0
M  V30 7247 H 677.25 -3.93046 -0.3014 0
M  V30 7248 H 678.538 -5.01591 -0.853444 0
M  V30 7249 H 677.936 -4.09832 -3.89941 0
M  V30 7250 H 676.493 -4.9788 -4.20665 0
M  V30 7251 N 679.926 -0.151884 -1.56866 0
M  V30 7252 C 681.154 0.504813 -2.00647 0
M  V30 7253 C 681.569 1.58098 -1.03201 0
M  V30 7254 O 680.926 1.82476 -0.0297814 0
M  V30 7255 C 680.977 1.10099 -3.44326 0
M  V30 7256 O 680.698 0.0678021 -4.38048 0
M  V30 7257 C 682.199 1.83782 -4.03409 0
M  V30 7258 H 679.419 0.130989 -0.65809 0
M  V30 7259 H 681.963 -0.247903 -2.02992 0
M  V30 7260 H 680.118 1.8043 -3.42817 0
M  V30 7261 H 680.532 0.505237 -5.22061 0
M  V30 7262 H 682.006 2.2078 -5.05925 0
M  V30 7263 H 682.483 2.72557 -3.44397 0
M  V30 7264 H 683.089 1.18138 -4.08563 0
M  V30 7265 O 681.443 1.61494 -0.0134355 0
M  V30 7266 H 682.134 1.84128 0.601368 0
M  V30 END ATOM
M  V30 BEGIN BOND
M  V30 END BOND
M  V30 END CTAB
M  END
$$$$
