drugbank_target|Q13315 Serine-protein kinase ATM (DB00201)
 OpenBabel12092120593D

  0  0  0     0  0            999 V3000
M  V30 BEGIN CTAB
M  V30 COUNTS 49413 49877 0 0 0
M  V30 BEGIN ATOM
M  V30 1 H -0.908 1.98254 -0.117106 0
M  V30 2 N 0 1.576 0 0
M  V30 3 C 0.933 2.03868 1.02534 0
M  V30 4 C 1.911 0.928543 1.3348 0
M  V30 5 O 3.095 1.19667 1.45644 0
M  V30 6 C 0.222 2.43627 2.35294 0
M  V30 7 C -0.732 3.65373 2.2001 0
M  V30 8 S 0.101 5.13292 1.52614 0
M  V30 9 C 1.257 5.56322 2.86805 0
M  V30 10 H 1.49 2.90518 0.631377 0
M  V30 11 H -0.977 1.52953 0.210867 0
M  V30 12 H 0.981 2.67203 3.11629 0
M  V30 13 H -0.358 1.57376 2.7183 0
M  V30 14 H -1.165 3.90944 3.18086 0
M  V30 15 H -1.563 3.418 1.51819 0
M  V30 16 H 0.729 5.58782 3.83104 0
M  V30 17 H 1.672 6.56266 2.65933 0
M  V30 18 H 2.08 4.83886 2.90714 0
M  V30 19 N 1.4781 -0.272755 1.55222 0
M  V30 20 C 2.7031 -1.02683 1.80197 0
M  V30 21 C 3.1281 -1.79142 0.573551 0
M  V30 22 O 2.4861 -1.74917 -0.476849 0
M  V30 23 C 2.5341 -1.9609 3.02624 0
M  V30 24 O 1.6381 -3.04863 2.77727 0
M  V30 25 H 0.9791 -0.293557 0.595584 0
M  V30 26 H 3.5091 -0.30159 2.02365 0
M  V30 27 H 3.5191 -2.38039 3.31363 0
M  V30 28 H 2.1941 -1.39851 3.91682 0
M  V30 29 H 0.7711 -2.67228 2.60084 0
M  V30 30 N 2.9562 -1.48159 -0.537278 0
M  V30 31 C 3.8862 -1.65029 -1.6519 0
M  V30 32 C 4.8672 -0.499281 -1.62607 0
M  V30 33 O 6.0522 -0.730972 -1.79918 0
M  V30 34 C 3.1822 -1.68303 -3.03795 0
M  V30 35 C 2.1362 -2.8283 -3.21234 0
M  V30 36 C 1.4622 -2.71189 -4.60826 0
M  V30 37 C 2.7622 -4.24211 -3.04701 0
M  V30 38 H 4.4562 -2.58341 -1.51328 0
M  V30 39 H 2.0022 -1.24325 -0.726585 0
M  V30 40 H 3.9552 -1.78693 -3.81637 0
M  V30 41 H 2.6792 -0.715635 -3.18663 0
M  V30 42 H 1.3382 -2.71983 -2.45807 0
M  V30 43 H 0.9862 -1.72435 -4.7252 0
M  V30 44 H 0.6862 -3.48035 -4.7344 0
M  V30 45 H 2.2102 -2.83537 -5.40777 0
M  V30 46 H 3.6242 -4.3593 -3.72341 0
M  V30 47 H 2.0212 -5.01998 -3.28813 0
M  V30 48 H 3.0912 -4.41184 -2.01209 0
M  V30 49 N 4.4343 0.785586 -1.36625 0
M  V30 50 C 5.6803 1.54591 -1.31261 0
M  V30 51 C 6.0133 1.93906 0.106823 0
M  V30 52 O 5.2883 1.63007 1.06108 0
M  V30 53 C 5.5713 2.82038 -2.23889 0
M  V30 54 C 5.4243 2.49066 -3.74548 0
M  V30 55 C 6.7433 3.83887 -2.15217 0
M  V30 56 H 3.8623 0.560846 -0.478143 0
M  V30 57 H 6.5043 0.902278 -1.67209 0
M  V30 58 H 4.6543 3.36961 -1.93363 0
M  V30 59 H 6.3263 2.00164 -4.15611 0
M  V30 60 H 4.5693 1.81954 -3.93796 0
M  V30 61 H 5.2403 3.40109 -4.34776 0
M  V30 62 H 7.7163 3.38421 -2.42096 0
M  V30 63 H 6.5923 4.70806 -2.82193 0
M  V30 64 H 6.8533 4.27131 -1.14068 0
M  V30 65 N 5.9124 1.20967 1.01018 0
M  V30 66 C 6.8424 0.988272 2.11555 0
M  V30 67 C 7.8234 -0.0849778 1.69888 0
M  V30 68 O 9.0084 0.0738202 1.9406 0
M  V30 69 C 6.1384 0.546528 3.42973 0
M  V30 70 C 5.0924 1.56375 3.9841 0
M  V30 71 C 4.4184 0.97842 5.25672 0
M  V30 72 C 5.7184 2.94922 4.31066 0
M  V30 73 H 7.4124 1.91276 2.30334 0
M  V30 74 H 4.9584 0.921073 1.1069 0
M  V30 75 H 6.9114 0.378839 4.19694 0
M  V30 76 H 5.6354 -0.413598 3.23971 0
M  V30 77 H 4.2944 1.71891 3.23804 0
M  V30 78 H 3.9424 0.0101688 5.02999 0
M  V30 79 H 3.6424 1.65784 5.63728 0
M  V30 80 H 5.1664 0.821939 6.05043 0
M  V30 81 H 6.5804 2.8288 4.9865 0
M  V30 82 H 4.9774 3.5983 4.80253 0
M  V30 83 H 6.0474 3.4616 3.39561 0
M  V30 84 N 7.3905 -1.2043 1.01659 0
M  V30 85 C 8.3385 -2.25249 0.580143 0
M  V30 86 C 9.3325 -1.65057 -0.381115 0
M  V30 87 O 10.5385 -1.78241 -0.251039 0
M  V30 88 H 6.9135 -0.732695 0.169299 0
M  V30 89 H 8.8845 -2.59389 1.47512 0
M  V30 90 C 7.6335 -3.47638 -0.065788 0
M  V30 91 H 6.9565 -3.94233 0.664874 0
M  V30 92 H 8.3965 -4.2268 -0.334282 0
M  V30 93 C 6.8555 -3.10447 -1.3086 0
M  V30 94 O 7.3855 -3.21981 -2.4019 0
M  V30 95 N 5.5915 -2.64996 -1.1927 0
M  V30 96 H 5.1385 -2.55811 -0.303064 0
M  V30 97 H 5.0965 -2.40482 -2.02523 0
M  V30 98 N 8.8686 -0.792821 -1.36206 0
M  V30 99 C 10.1456 -0.290627 -1.93429 0
M  V30 100 C 10.5256 1.21773 -1.72437 0
M  V30 101 O 9.8736 2.0108 -1.08531 0
M  V30 102 C 10.0836 -0.686973 -3.42172 0
M  V30 103 C 11.4316 -0.668643 -4.19302 0
M  V30 104 O 12.4556 -0.627658 -3.50626 0
M  V30 105 O 11.3146 -0.714597 -5.41808 0
M  V30 106 H 8.4086 -0.0727927 -0.82379 0
M  V30 107 H 10.9546 -0.875593 -1.45367 0
M  V30 108 H 9.7266 -1.72711 -3.51122 0
M  V30 109 H 9.3496 -0.0760733 -3.97527 0
M  V30 110 N 10.3467 1.47872 -0.545128 0
M  V30 111 C 11.2767 2.32661 0.197793 0
M  V30 112 C 12.2577 1.43041 0.920504 0
M  V30 113 O 13.4427 1.71912 0.90333 0
M  V30 114 C 10.5727 3.24569 1.23582 0
M  V30 115 C 9.5267 4.23333 0.630323 0
M  V30 116 C 8.8527 5.0448 1.77211 0
M  V30 117 C 10.1527 5.20704 -0.407974 0
M  V30 118 H 11.8467 2.95024 -0.510045 0
M  V30 119 H 9.3927 1.4187 -0.246731 0
M  V30 120 H 11.3457 3.8272 1.76362 0
M  V30 121 H 10.0697 2.60236 1.97344 0
M  V30 122 H 8.7287 3.6639 0.123922 0
M  V30 123 H 8.3767 4.36561 2.49847 0
M  V30 124 H 8.0767 5.71339 1.37281 0
M  V30 125 H 9.6007 5.65487 2.3034 0
M  V30 126 H 11.0147 5.7329 0.033305 0
M  V30 127 H 9.4117 5.95699 -0.725486 0
M  V30 128 H 10.4817 4.66917 -1.30828 0
M  V30 129 N 11.8248 0.280983 1.55075 0
M  V30 130 C 12.7548 -0.597469 2.25727 0
M  V30 131 C 13.7358 -1.15417 1.24952 0
M  V30 132 O 14.9208 -1.18722 1.53684 0
M  V30 133 C 12.0508 -1.7789 2.98283 0
M  V30 134 C 11.0048 -1.35347 4.06036 0
M  V30 135 C 10.3308 -2.61846 4.66198 0
M  V30 136 C 11.6308 -0.499354 5.19907 0
M  V30 137 H 13.3248 -0.00824265 2.99399 0
M  V30 138 H 10.8708 -0.0025244 1.44 0
M  V30 139 H 12.8238 -2.39937 3.46422 0
M  V30 140 H 11.5478 -2.39405 2.22155 0
M  V30 141 H 10.2068 -0.756156 3.58717 0
M  V30 142 H 9.8548 -3.21632 3.86732 0
M  V30 143 H 9.5548 -2.3409 5.38958 0
M  V30 144 H 11.0788 -3.24732 5.1709 0
M  V30 145 H 12.4928 -1.02498 5.64063 0
M  V30 146 H 10.8898 -0.316424 5.99265 0
M  V30 147 H 11.9598 0.480459 4.82514 0
M  V30 148 N 13.3029 -1.57598 0.00835791 0
M  V30 149 C 14.5519 -1.90107 -0.673968 0
M  V30 150 C 14.8649 -0.884275 -1.7447 0
M  V30 151 O 16.0709 -1.09987 -2.48224 0
M  V30 152 C 14.5269 -3.37497 -1.24995 0
M  V30 153 C 14.1349 -4.47491 -0.2136 0
M  V30 154 C 15.8789 -3.79104 -1.90999 0
M  V30 155 C 13.7859 -5.85963 -0.80005 0
M  V30 156 H 12.7159 -0.709393 -0.255495 0
M  V30 157 H 15.3669 -1.83365 0.0702693 0
M  V30 158 H 13.7489 -3.39102 -2.04513 0
M  V30 159 H 14.9229 -4.57414 0.557596 0
M  V30 160 H 13.2379 -4.14956 0.346474 0
M  V30 161 H 15.8349 -4.79901 -2.35795 0
M  V30 162 H 16.1779 -3.1306 -2.74407 0
M  V30 163 H 16.7109 -3.79833 -1.18203 0
M  V30 164 H 13.4499 -6.555 -0.00456708 0
M  V30 165 H 12.9699 -5.79687 -1.54021 0
M  V30 166 H 14.6489 -6.33884 -1.29615 0
M  V30 167 N 14.781 0.264519 -1.55364 0
M  V30 168 C 16.021 1.00254 -1.78125 0
M  V30 169 C 16.385 1.83187 -0.575017 0
M  V30 170 O 17.586 2.60029 -0.681042 0
M  V30 171 C 15.857 1.85478 -3.05504 0
M  V30 172 S 17.416 2.6543 -3.49417 0
M  V30 173 H 14.234 0.337522 -0.625779 0
M  V30 174 H 16.836 0.272111 -1.93597 0
M  V30 175 H 15.54 1.23491 -3.9138 0
M  V30 176 H 15.071 2.62827 -2.92721 0
M  V30 177 H 17.086 3.87958 -3.09359 0
M  V30 178 N 16.2591 1.48442 0.529413 0
M  V30 179 C 17.4991 1.58086 1.29569 0
M  V30 180 C 17.8631 0.249302 1.90375 0
M  V30 181 O 19.0641 0.220738 2.67892 0
M  V30 182 C 17.3351 2.68793 2.35552 0
M  V30 183 S 18.8941 2.98207 3.21898 0
M  V30 184 H 15.7121 0.557922 0.440732 0
M  V30 185 H 18.3141 1.85966 0.603059 0
M  V30 186 H 17.0181 3.64102 1.89363 0
M  V30 187 H 16.5491 2.42817 3.09522 0
M  V30 188 H 18.5641 2.37548 4.35644 0
M  V30 189 N 17.7372 -0.778329 1.37039 0
M  V30 190 C 19.1532 -1.07796 1.17695 0
M  V30 191 C 19.3532 -2.01498 0.00860115 0
M  V30 192 O 18.4092 -2.43901 -0.653352 0
M  V30 193 C 19.7222 -1.68178 2.49272 0
M  V30 194 C 21.2702 -1.80467 2.55735 0
M  V30 195 C 21.7452 -2.44263 3.87427 0
M  V30 196 N 23.2362 -2.51721 3.88833 0
M  V30 197 C 23.9712 -3.01919 4.87476 0
M  V30 198 N 23.4672 -3.5234 5.96513 0
M  V30 199 N 25.2602 -3.00733 4.74885 0
M  V30 200 H 17.4112 -0.156032 2.11826 0
M  V30 201 H 19.6742 -0.131844 0.938787 0
M  V30 202 H 19.3802 -1.06796 3.35093 0
M  V30 203 H 19.2542 -2.67554 2.65885 0
M  V30 204 H 21.6412 -2.40984 1.70325 0
M  V30 205 H 21.7222 -0.798656 2.43013 0
M  V30 206 H 21.3662 -1.84388 4.73248 0
M  V30 207 H 21.2962 -3.45458 3.9745 0
M  V30 208 H 23.7872 -2.1603 3.10063 0
M  V30 209 H 24.1002 -3.89027 6.67741 0
M  V30 210 H 22.4452 -3.50462 6.00168 0
M  V30 211 H 25.6362 -2.60638 3.88826 0
M  V30 212 H 25.8092 -3.39545 5.51918 0
M  V30 213 N 19.2153 -1.21501 -1.00376 0
M  V30 214 C 20.1473 -0.933174 -2.09343 0
M  V30 215 C 21.1603 0.0840896 -1.62583 0
M  V30 216 O 22.3493 -0.148563 -1.77881 0
M  V30 217 C 19.4493 -0.379869 -3.36764 0
M  V30 218 C 18.6223 -1.45176 -4.12605 0
M  V30 219 C 17.6813 -0.907476 -5.18316 0
M  V30 220 O 16.7073 -1.5912 -5.46507 0
M  V30 221 N 17.9093 0.276649 -5.7984 0
M  V30 222 H 20.6743 -1.87124 -2.34104 0
M  V30 223 H 18.2353 -1.12043 -1.16867 0
M  V30 224 H 20.2273 -0.00131488 -4.047 0
M  V30 225 H 18.7973 0.463048 -3.09151 0
M  V30 226 H 18.0173 -2.00411 -3.39454 0
M  V30 227 H 19.3053 -2.17328 -4.6005 0
M  V30 228 H 18.7033 0.849147 -5.59291 0
M  V30 229 H 17.2603 0.596702 -6.49063 0
M  V30 230 N 20.6934 1.19889 -1.02296 0
M  V30 231 C 21.6234 2.25141 -0.619174 0
M  V30 232 C 22.6044 1.66051 0.368915 0
M  V30 233 O 23.7894 1.92546 0.252941 0
M  V30 234 C 20.9194 3.4728 0.0368783 0
M  V30 235 C 19.8734 4.19005 -0.872865 0
M  V30 236 C 19.1994 5.34637 -0.0822402 0
M  V30 237 C 20.4994 4.74452 -2.18387 0
M  V30 238 H 22.1934 2.59171 -1.49903 0
M  V30 239 H 19.7394 1.24579 -0.722222 0
M  V30 240 H 21.6924 4.20098 0.330958 0
M  V30 241 H 20.4164 3.12433 0.95149 0
M  V30 242 H 19.0754 3.48061 -1.15105 0
M  V30 243 H 18.7234 4.96034 0.83422 0
M  V30 244 H 18.4234 5.83557 -0.688149 0
M  V30 245 H 19.9474 6.10255 0.205238 0
M  V30 246 H 21.3614 5.39055 -1.95172 0
M  V30 247 H 19.7584 5.33834 -2.74119 0
M  V30 248 H 20.8284 3.92844 -2.84257 0
M  V30 249 N 22.1715 0.800033 1.35784 0
M  V30 250 C 23.0815 0.207204 2.33683 0
M  V30 251 C 24.0975 -0.64631 1.61551 0
M  V30 252 O 25.2735 -0.559604 1.93469 0
M  V30 253 C 22.3385 -0.639659 3.40748 0
M  V30 254 C 21.3995 0.233585 4.28664 0
M  V30 255 C 20.6325 -0.572954 5.30616 0
M  V30 256 O 20.8555 -1.80816 5.40982 0
M  V30 257 O 19.7895 0.0327285 6.01891 0
M  V30 258 H 23.6155 1.01692 2.86169 0
M  V30 259 H 21.2005 0.561691 1.38439 0
M  V30 260 H 23.0825 -1.12223 4.06182 0
M  V30 261 H 21.7575 -1.42708 2.90544 0
M  V30 262 H 20.6645 0.763147 3.66233 0
M  V30 263 H 21.9975 0.984784 4.82248 0
M  V30 264 N 23.6496 -1.47581 0.552962 0
M  V30 265 C 24.5996 -2.26961 -0.217423 0
M  V30 266 C 25.5836 -1.34099 -0.889168 0
M  V30 267 O 26.7756 -1.58483 -0.788176 0
M  V30 268 C 23.9046 -3.19756 -1.24944 0
M  V30 269 C 22.9906 -4.20097 -0.581327 0
M  V30 270 N 23.3816 -5.04614 0.346171 0
M  V30 271 C 21.6796 -4.38099 -0.835767 0
M  V30 272 C 22.3806 -5.77052 0.733854 0
M  V30 273 N 21.3566 -5.43526 0.0896567 0
M  V30 274 H 25.1586 -2.89688 0.495761 0
M  V30 275 H 22.6726 -1.58068 0.372597 0
M  V30 276 H 24.6696 -3.75305 -1.81527 0
M  V30 277 H 23.3296 -2.58585 -1.96376 0
M  V30 278 H 24.3406 -5.12869 0.720098 0
M  V30 279 H 21.0176 -3.88102 -1.53892 0
M  V30 280 H 22.4076 -6.5504 1.49574 0
M  V30 281 N 25.1277 -0.289203 -1.54924 0
M  V30 282 C 26.4047 0.376032 -1.91951 0
M  V30 283 C 26.7847 1.72622 -1.21511 0
M  V30 284 O 26.1327 2.25853 -0.346767 0
M  V30 285 C 26.3427 0.502378 -3.45365 0
M  V30 286 C 27.6907 0.778741 -4.17398 0
M  V30 287 O 28.7147 0.586647 -3.51336 0
M  V30 288 O 27.5737 1.14698 -5.34328 0
M  V30 289 H 24.6677 0.208167 -0.800372 0
M  V30 290 H 27.2137 -0.336394 -1.66332 0
M  V30 291 H 25.9857 -0.447255 -3.88736 0
M  V30 292 H 25.6087 1.26373 -3.76982 0
M  V30 293 N 26.6058 1.57591 -0.0167156 0
M  V30 294 C 28.0218 1.55946 0.339557 0
M  V30 295 C 28.2218 1.02109 1.73713 0
M  V30 296 O 27.2778 0.662303 2.43659 0
M  V30 297 C 28.5908 3.00037 0.199499 0
M  V30 298 C 30.1388 3.11805 0.273193 0
M  V30 299 C 30.6138 4.57713 0.162068 0
M  V30 300 N 32.1048 4.6268 0.219444 0
M  V30 301 C 32.8398 5.73185 0.157054 0
M  V30 302 N 32.3358 6.92786 0.0442936 0
M  V30 303 N 34.1288 5.61707 0.21014 0
M  V30 304 H 26.2798 1.90921 -0.930758 0
M  V30 305 H 28.5428 0.877674 -0.358319 0
M  V30 306 H 28.2488 3.4333 -0.76273 0
M  V30 307 H 28.1228 3.64387 0.974786 0
M  V30 308 H 30.5098 2.68433 1.22587 0
M  V30 309 H 30.5908 2.50201 -0.532256 0
M  V30 310 H 30.2348 5.01763 -0.78714 0
M  V30 311 H 30.1648 5.17283 0.986222 0
M  V30 312 H 32.6558 3.76649 0.307246 0
M  V30 313 H 32.9688 7.728 0.00304069 0
M  V30 314 H 31.3138 6.94999 0.00968457 0
M  V30 315 H 34.5048 4.6716 0.296546 0
M  V30 316 H 34.6778 6.47807 0.158054 0
M  V30 317 N 28.0839 -0.256276 1.55502 0
M  V30 318 C 29.0469 -1.30047 1.88734 0
M  V30 319 C 30.0469 -1.4154 0.763086 0
M  V30 320 O 31.2369 -1.40403 1.03115 0
M  V30 321 C 28.3689 -2.67953 2.10747 0
M  V30 322 H 29.5619 -1.01802 2.82093 0
M  V30 323 H 27.1149 -0.495134 1.4825 0
M  V30 324 H 27.8499 -3.01351 1.19825 0
M  V30 325 H 27.6349 -2.60993 2.92617 0
M  V30 326 H 29.1249 -3.43368 2.37673 0
M  V30 327 N 29.562 -1.4872 -0.521534 0
M  V30 328 C 30.79 -1.60843 -1.30142 0
M  V30 329 C 31.205 -0.271897 -1.86832 0
M  V30 330 O 30.562 0.739969 -1.66825 0
M  V30 331 C 30.613 -2.66155 -2.4463 0
M  V30 332 O 30.334 -3.94623 -1.90275 0
M  V30 333 C 31.835 -2.88795 -3.36322 0
M  V30 334 H 29.055 -0.542075 -0.395468 0
M  V30 335 H 31.599 -1.94609 -0.628285 0
M  V30 336 H 29.754 -2.35224 -3.07812 0
M  V30 337 H 30.168 -4.52468 -2.65279 0
M  V30 338 H 31.642 -3.66264 -4.12983 0
M  V30 339 H 32.119 -1.97934 -3.9207 0
M  V30 340 H 32.725 -3.21063 -2.78924 0
M  V30 341 N 31.0401 0.771051 -1.3745 0
M  V30 342 C 31.9501 1.91538 -1.35464 0
M  V30 343 C 32.9661 1.72134 -0.254123 0
M  V30 344 O 34.1421 1.95358 -0.489626 0
M  V30 345 C 31.2071 3.26671 -1.16134 0
M  V30 346 C 30.2681 3.58723 -2.35831 0
M  V30 347 C 29.5011 4.87409 -2.17413 0
M  V30 348 O 29.7241 5.58506 -1.15876 0
M  V30 349 O 28.6581 5.18539 -3.05615 0
M  V30 350 H 32.4841 1.96165 -2.31847 0
M  V30 351 H 30.0691 0.9139 -1.18187 0
M  V30 352 H 31.9511 4.07499 -1.07345 0
M  V30 353 H 30.6261 3.22894 -0.228251 0
M  V30 354 H 29.5331 2.78127 -2.50192 0
M  V30 355 H 30.8661 3.67243 -3.27709 0
M  V30 356 N 32.5182 1.22032 0.997298 0
M  V30 357 C 33.9342 0.979326 1.26021 0
M  V30 358 C 34.1342 -0.32972 1.98784 0
M  V30 359 O 33.1902 -1.05345 2.29475 0
M  V30 360 C 34.5032 2.17509 2.07631 0
M  V30 361 C 36.0512 2.21817 2.2083 0
M  V30 362 C 36.5262 3.40933 3.05825 0
M  V30 363 N 38.0172 3.41067 3.13412 0
M  V30 364 C 38.7522 4.29885 3.79455 0
M  V30 365 N 38.2482 5.28914 4.47462 0
M  V30 366 N 40.0412 4.17673 3.76173 0
M  V30 367 H 32.1922 2.06202 0.509352 0
M  V30 368 H 34.4552 0.90334 0.287541 0
M  V30 369 H 34.1612 3.12415 1.61524 0
M  V30 370 H 34.0352 2.17206 3.08385 0
M  V30 371 H 36.4222 1.27462 2.66153 0
M  V30 372 H 36.5032 2.2616 1.1952 0
M  V30 373 H 36.1472 4.35586 2.61203 0
M  V30 374 H 36.0772 3.33829 4.07266 0
M  V30 375 H 38.5682 2.69406 2.65007 0
M  V30 376 H 38.8812 5.92973 4.95583 0
M  V30 377 H 37.2262 5.32831 4.46224 0
M  V30 378 H 40.4172 3.39564 3.22202 0
M  V30 379 H 40.5902 4.87098 4.27363 0
M  V30 380 N 33.9963 -1.19345 1.0293 0
M  V30 381 C 34.9433 -2.2258 0.610464 0
M  V30 382 C 35.9133 -1.6179 -0.375946 0
M  V30 383 O 37.0983 -1.88844 -0.272511 0
M  V30 384 C 34.2383 -3.45085 -0.0321473 0
M  V30 385 C 33.3513 -4.20258 1.00035 0
M  V30 386 C 32.4863 -5.3019 0.32746 0
M  V30 387 C 31.5253 -5.97121 1.34584 0
M  V30 388 N 30.6623 -6.98615 0.698726 0
M  V30 389 H 35.5023 -2.57764 1.49538 0
M  V30 390 H 33.0393 -1.26644 0.748311 0
M  V30 391 H 34.9973 -4.15061 -0.421966 0
M  V30 392 H 33.6273 -3.10555 -0.88064 0
M  V30 393 H 32.6793 -3.49223 1.50823 0
M  V30 394 H 33.9913 -4.66175 1.77433 0
M  V30 395 H 33.1453 -6.06587 -0.11718 0
M  V30 396 H 31.8843 -4.85345 -0.478713 0
M  V30 397 H 30.8893 -5.19474 1.80074 0
M  V30 398 H 32.1143 -6.4405 2.15352 0
M  V30 399 H 30.0603 -6.55942 -0.0873471 0
M  V30 400 H 29.9773 -7.42724 1.41058 0
M  V30 401 H 31.2453 -7.79004 0.278102 0
M  V30 402 N 35.4744 -0.807222 -1.35358 0
M  V30 403 C 36.4214 -0.216037 -2.29787 0
M  V30 404 C 37.3914 0.650278 -1.52842 0
M  V30 405 O 38.5764 0.595227 -1.81278 0
M  V30 406 C 35.7164 0.628893 -3.39321 0
M  V30 407 C 34.8294 -0.257927 -4.31229 0
M  V30 408 C 33.9644 0.595069 -5.27856 0
M  V30 409 C 33.0034 -0.292111 -6.11403 0
M  V30 410 N 32.1404 0.520895 -7.00165 0
M  V30 411 H 36.9804 -1.02671 -2.79755 0
M  V30 412 H 34.5174 -0.517839 -1.37684 0
M  V30 413 H 36.4754 1.13393 -4.01494 0
M  V30 414 H 35.1054 1.40482 -2.90628 0
M  V30 415 H 34.1574 -0.881076 -3.70056 0
M  V30 416 H 35.4694 -0.940759 -4.89848 0
M  V30 417 H 34.6234 1.16522 -5.95405 0
M  V30 418 H 33.3624 1.31146 -4.69736 0
M  V30 419 H 32.3674 -0.874525 -5.428 0
M  V30 420 H 33.5924 -1.00638 -6.71602 0
M  V30 421 H 31.5384 1.22125 -6.44532 0
M  V30 422 H 31.4554 -0.103877 -7.55929 0
M  V30 423 H 32.7234 1.0743 -7.72062 0
M  V30 424 N 36.9525 1.47285 -0.560781 0
M  V30 425 C 37.8625 2.33846 0.187954 0
M  V30 426 C 38.8785 1.48412 0.908293 0
M  V30 427 O 40.0545 1.81332 0.876388 0
M  V30 428 C 37.1195 3.25178 1.2025 0
M  V30 429 C 36.1805 4.26504 0.489208 0
M  V30 430 C 35.4135 5.13472 1.45542 0
M  V30 431 O 35.6365 5.02959 2.6905 0
M  V30 432 O 34.5705 5.93902 0.977963 0
M  V30 433 H 38.3965 2.99177 -0.522177 0
M  V30 434 H 35.9815 1.45903 -0.321364 0
M  V30 435 H 37.8635 3.81584 1.78805 0
M  V30 436 H 36.5385 2.6247 1.89449 0
M  V30 437 H 35.4455 3.73847 -0.137627 0
M  V30 438 H 36.7785 4.91935 -0.161399 0
M  V30 439 N 38.4306 0.297415 1.54768 0
M  V30 440 C 39.6766 -0.313376 2.00364 0
M  V30 441 C 40.0096 -1.53815 1.18553 0
M  V30 442 O 39.2846 -1.92739 0.261103 0
M  V30 443 C 39.5676 -0.673525 3.53745 0
M  V30 444 C 39.4206 0.560133 4.46299 0
M  V30 445 C 40.7396 -1.50143 4.13697 0
M  V30 446 H 37.8586 -0.112428 0.728374 0
M  V30 447 H 40.5006 0.4088 1.8555 0
M  V30 448 H 38.6506 -1.28881 3.665 0
M  V30 449 H 40.3226 1.19863 4.45455 0
M  V30 450 H 38.5656 1.19405 4.17043 0
M  V30 451 H 39.2366 0.26405 5.51368 0
M  V30 452 H 41.7126 -0.981588 4.04356 0
M  V30 453 H 40.5886 -1.72221 5.21182 0
M  V30 454 H 40.8496 -2.48952 3.65343 0
M  V30 455 N 39.9087 -1.5758 0.0250728 0
M  V30 456 C 40.8187 -2.1343 -0.973905 0
M  V30 457 C 41.8347 -1.08556 -1.35984 0
M  V30 458 O 43.0107 -1.40592 -1.44207 0
M  V30 459 C 40.0757 -2.64703 -2.23904 0
M  V30 460 C 39.1367 -3.84276 -1.91391 0
M  V30 461 C 38.3697 -4.33095 -3.11873 0
M  V30 462 O 38.5927 -3.81107 -4.24398 0
M  V30 463 O 37.5267 -5.24984 -2.94406 0
M  V30 464 H 41.3527 -2.99057 -0.529036 0
M  V30 465 H 38.9377 -1.48118 -0.195288 0
M  V30 466 H 40.8197 -2.97769 -2.98181 0
M  V30 467 H 39.4947 -1.82161 -2.6758 0
M  V30 468 H 38.4017 -3.56143 -1.14511 0
M  V30 469 H 39.7347 -4.67968 -1.52534 0
M  V30 470 N 41.3868 0.248026 -1.55636 0
M  V30 471 C 42.3338 1.30707 -1.90222 0
M  V30 472 C 43.3038 1.47881 -0.756332 0
M  V30 473 O 44.4888 1.61883 -1.00988 0
M  V30 474 C 41.6288 2.65769 -2.20138 0
M  V30 475 C 40.7418 2.56612 -3.47526 0
M  V30 476 C 39.8768 3.8402 -3.67017 0
M  V30 477 C 38.9158 3.69476 -4.8801 0
M  V30 478 N 38.0528 4.88774 -5.04029 0
M  V30 479 H 42.8928 1.00512 -2.80538 0
M  V30 480 H 40.4298 0.485055 -1.38873 0
M  V30 481 H 42.3878 3.44386 -2.35487 0
M  V30 482 H 41.0178 2.94115 -1.33027 0
M  V30 483 H 40.0698 1.69571 -3.40514 0
M  V30 484 H 41.3818 2.41774 -4.36287 0
M  V30 485 H 40.5358 4.7108 -3.8232 0
M  V30 486 H 39.2748 4.01754 -2.76487 0
M  V30 487 H 38.2798 2.80799 -4.72686 0
M  V30 488 H 39.5048 3.53238 -5.8 0
M  V30 489 H 37.4508 5.0687 -4.16435 0
M  V30 490 H 37.3678 4.76562 -5.86877 0
M  V30 491 H 38.6358 5.77335 -5.23741 0
M  V30 492 N 42.8649 1.48995 0.513639 0
M  V30 493 C 44.1119 1.57843 1.26854 0
M  V30 494 C 44.4399 0.259501 1.92761 0
M  V30 495 O 43.6949 -0.75159 1.80692 0
M  V30 496 C 43.9939 2.67756 2.36731 0
M  V30 497 C 43.6599 4.09669 1.88368 0
M  V30 498 C 42.3219 4.48291 1.74896 0
M  V30 499 C 44.6739 4.98537 1.52021 0
M  V30 500 C 42.0019 5.73568 1.23438 0
M  V30 501 C 44.3539 6.24319 1.0202 0
M  V30 502 C 43.0179 6.61783 0.871778 0
M  V30 503 H 42.2879 0.577587 0.464192 0
M  V30 504 H 44.9349 1.82778 0.571366 0
M  V30 505 H 43.2399 2.36743 3.12185 0
M  V30 506 H 44.9369 2.71813 2.9482 0
M  V30 507 H 41.5269 3.79176 1.99808 0
M  V30 508 H 45.7109 4.69363 1.61281 0
M  V30 509 H 40.9669 6.01304 1.10648 0
M  V30 510 H 45.1409 6.92566 0.729722 0
M  V30 511 H 42.7679 7.5874 0.470852 0
M  V30 512 N 44.343 -0.763751 1.37857 0
M  V30 513 C 45.29 -1.87726 1.34267 0
M  V30 514 C 46.26 -1.64807 0.206879 0
M  V30 515 O 47.445 -1.86613 0.397508 0
M  V30 516 C 44.585 -3.24896 1.16346 0
M  V30 517 C 43.698 -3.59716 2.39225 0
M  V30 518 C 42.833 -4.86137 2.14114 0
M  V30 519 C 41.872 -5.13711 3.32817 0
M  V30 520 N 41.009 -6.31323 3.07206 0
M  V30 521 H 45.849 -1.90129 2.29466 0
M  V30 522 H 43.386 -0.929433 1.14017 0
M  V30 523 H 45.344 -4.04036 1.03975 0
M  V30 524 H 43.974 -3.21847 0.247909 0
M  V30 525 H 43.026 -2.75498 2.62307 0
M  V30 526 H 44.338 -3.76027 3.27728 0
M  V30 527 H 43.492 -5.73198 1.9882 0
M  V30 528 H 42.231 -4.71945 1.22961 0
M  V30 529 H 41.236 -4.25123 3.48641 0
M  V30 530 H 42.461 -5.29807 4.24832 0
M  V30 531 H 40.407 -6.18474 2.1869 0
M  V30 532 H 40.324 -6.48087 3.89254 0
M  V30 533 H 41.592 -7.213 2.95546 0
M  V30 534 N 45.8211 -1.22559 -0.990812 0
M  V30 535 C 47.2371 -0.985996 -1.255 0
M  V30 536 C 47.4371 0.319173 -1.98956 0
M  V30 537 O 46.4931 1.04127 -2.3003 0
M  V30 538 C 47.8061 -2.18607 -2.06474 0
M  V30 539 C 49.3541 -2.22985 -2.19651 0
M  V30 540 C 49.8291 -3.4255 -3.04012 0
M  V30 541 N 51.3201 -3.42725 -3.11599 0
M  V30 542 C 52.0551 -4.31892 -3.7717 0
M  V30 543 N 51.5511 -5.31279 -4.44651 0
M  V30 544 N 53.3441 -4.19662 -3.73952 0
M  V30 545 H 45.4951 -2.06469 -0.49841 0
M  V30 546 H 47.7581 -0.904853 -0.282747 0
M  V30 547 H 47.4641 -3.13267 -1.59865 0
M  V30 548 H 47.3381 -2.18838 -3.07229 0
M  V30 549 H 49.7251 -1.28871 -2.65474 0
M  V30 550 H 49.8061 -2.26791 -1.18319 0
M  V30 551 H 49.4501 -4.36965 -2.58889 0
M  V30 552 H 49.3801 -3.35984 -4.0549 0
M  V30 553 H 51.8711 -2.70807 -2.63575 0
M  V30 554 H 52.1841 -5.95593 -4.92431 0
M  V30 555 H 50.5291 -5.3519 -4.43392 0
M  V30 556 H 53.7201 -3.41268 -3.20396 0
M  V30 557 H 53.8931 -4.89358 -4.24774 0
M  V30 558 N 47.2992 1.18797 -1.03562 0
M  V30 559 C 48.2292 2.24472 -0.643019 0
M  V30 560 C 49.2102 1.66433 0.351283 0
M  V30 561 O 50.3952 1.92803 0.232505 0
M  V30 562 C 47.5252 3.473 4.24935e-05 0
M  V30 563 C 46.4792 4.18055 -0.917257 0
M  V30 564 C 45.8052 5.34519 -0.138941 0
M  V30 565 C 47.1052 4.72109 -2.23407 0
M  V30 566 H 48.7992 2.57566 -1.52643 0
M  V30 567 H 46.3452 1.23806 -0.735394 0
M  V30 568 H 48.2982 4.20426 0.286383 0
M  V30 569 H 47.0222 3.13424 0.918299 0
M  V30 570 H 45.6812 3.46821 -1.1879 0
M  V30 571 H 45.3292 4.96891 0.781562 0
M  V30 572 H 45.0292 5.82794 -0.750005 0
M  V30 573 H 46.5532 6.10438 0.1405 0
M  V30 574 H 47.9672 5.36955 -2.00879 0
M  V30 575 H 46.3642 5.30897 -2.79765 0
M  V30 576 H 47.4342 3.89807 -2.88407 0
M  V30 577 N 48.7773 0.814389 1.34928 0
M  V30 578 C 50.0263 0.394871 1.97797 0
M  V30 579 C 50.3393 -1.04555 1.65311 0
M  V30 580 O 51.5453 -1.56856 2.21604 0
M  V30 581 C 50.0013 0.655103 3.53888 0
M  V30 582 C 49.6093 2.10858 3.95276 0
M  V30 583 C 51.3533 0.301329 4.23429 0
M  V30 584 C 49.2603 2.31415 5.44244 0
M  V30 585 H 48.1903 0.143913 0.740139 0
M  V30 586 H 50.8413 0.999544 1.53888 0
M  V30 587 H 49.2233 -0.0196253 3.95995 0
M  V30 588 H 50.3973 2.82176 3.64298 0
M  V30 589 H 48.7123 2.42297 3.38646 0
M  V30 590 H 51.3093 0.432869 5.32945 0
M  V30 591 H 51.6523 -0.75331 4.09428 0
M  V30 592 H 52.1853 0.930288 3.86769 0
M  V30 593 H 48.9243 3.35353 5.63222 0
M  V30 594 H 48.4443 1.6463 5.76764 0
M  V30 595 H 50.1233 2.13352 6.10811 0
M  V30 596 N 50.2554 -1.46986 0.568584 0
M  V30 597 C 51.6714 -1.57946 0.229189 0
M  V30 598 C 51.8714 -1.56567 -1.26843 0
M  V30 599 O 50.9274 -1.47511 -2.04931 0
M  V30 600 C 52.2404 -2.87963 0.865909 0
M  V30 601 C 53.7884 -3.01568 0.838188 0
M  V30 602 C 54.2634 -4.34301 1.45419 0
M  V30 603 N 55.7544 -4.40965 1.41788 0
M  V30 604 C 56.4894 -5.42256 1.86403 0
M  V30 605 N 55.9854 -6.50297 2.38926 0
M  V30 606 N 57.7784 -5.3337 1.77405 0
M  V30 607 H 49.9294 -1.46126 1.54146 0
M  V30 608 H 52.1924 -0.696156 0.643484 0
M  V30 609 H 51.8984 -2.94742 1.91886 0
M  V30 610 H 51.7724 -3.75423 0.365687 0
M  V30 611 H 54.1594 -2.94379 -0.206106 0
M  V30 612 H 54.2404 -2.1562 1.37629 0
M  V30 613 H 53.8844 -4.42247 2.49761 0
M  V30 614 H 53.8144 -5.19 0.891435 0
M  V30 615 H 56.3054 -3.63484 1.03381 0
M  V30 616 H 56.6184 -7.23777 2.70863 0
M  V30 617 H 54.9634 -6.51155 2.42944 0
M  V30 618 H 58.1544 -4.47865 1.3614 0
M  V30 619 H 58.3274 -6.12169 2.12492 0
M  V30 620 N 51.7335 -0.305618 -1.54608 0
M  V30 621 C 53.0105 0.355652 -1.92339 0
M  V30 622 C 53.3905 1.71324 -1.23335 0
M  V30 623 O 52.7385 2.25473 -0.370702 0
M  V30 624 C 52.9485 0.46572 -3.45879 0
M  V30 625 C 54.2965 0.734426 -4.182 0
M  V30 626 O 55.3205 0.54935 -3.51938 0
M  V30 627 O 54.1795 1.09024 -5.35515 0
M  V30 628 H 51.2735 0.199666 -0.802535 0
M  V30 629 H 53.8195 -0.354017 -1.65966 0
M  V30 630 H 52.5915 -0.488461 -3.88239 0
M  V30 631 H 52.2145 1.22367 -3.78301 0
M  V30 632 N 53.2116 1.57565 -0.0334293 0
M  V30 633 C 54.6226 1.79746 0.504798 0
M  V30 634 C 54.9736 0.944091 1.71992 0
M  V30 635 O 54.0986 0.155694 2.15839 0
M  V30 636 C 54.6936 3.25997 0.922567 0
M  V30 637 C 53.2526 3.49159 1.40588 0
M  V30 638 C 52.3996 2.74785 0.372633 0
M  V30 639 H 55.3506 1.56565 -0.259436 0
M  V30 640 H 55.3716 3.35945 1.78666 0
M  V30 641 H 54.8836 3.88081 0.0379825 0
M  V30 642 H 52.9846 2.92332 2.31025 0
M  V30 643 H 53.0976 4.57873 1.41028 0
M  V30 644 H 51.4616 2.40391 0.841672 0
M  V30 645 H 52.2446 3.39587 -0.503559 0
M  V30 646 N 54.6897 -0.239769 1.55765 0
M  V30 647 C 55.5997 -1.31831 1.94056 0
M  V30 648 C 56.6157 -1.52275 0.841925 0
M  V30 649 O 57.7917 -1.65759 1.14394 0
M  V30 650 C 54.8567 -2.65156 2.23368 0
M  V30 651 C 53.9177 -2.53173 3.46701 0
M  V30 652 C 53.1507 -3.8014 3.74606 0
M  V30 653 O 53.3737 -4.82343 3.04469 0
M  V30 654 O 52.3077 -3.78344 4.68123 0
M  V30 655 H 56.1337 -1.02347 2.85935 0
M  V30 656 H 53.7187 -0.441123 1.42739 0
M  V30 657 H 55.6007 -3.43929 2.43497 0
M  V30 658 H 54.2757 -2.94358 1.34666 0
M  V30 659 H 53.1827 -1.72662 3.31871 0
M  V30 660 H 54.5157 -2.28915 4.35728 0
M  V30 661 N 56.1678 -1.49265 -0.50573 0
M  V30 662 C 57.3958 -1.62215 -1.28429 0
M  V30 663 C 57.8108 -0.291697 -1.86533 0
M  V30 664 O 57.1678 0.722233 -1.67601 0
M  V30 665 C 57.2188 -2.68735 -2.41793 0
M  V30 666 O 56.9398 -3.96619 -1.86078 0
M  V30 667 C 58.4408 -2.92346 -3.3324 0
M  V30 668 H 55.6608 -0.546239 -0.389697 0
M  V30 669 H 58.2048 -1.95265 -0.607609 0
M  V30 670 H 56.3598 -2.38476 -3.053 0
M  V30 671 H 56.7738 -4.55256 -2.60465 0
M  V30 672 H 58.2478 -3.70623 -4.09075 0
M  V30 673 H 58.7248 -2.02081 -3.89948 0
M  V30 674 H 59.3308 -3.24003 -2.75503 0
M  V30 675 N 57.6459 0.756429 -1.3826 0
M  V30 676 C 58.8949 1.51082 -1.3363 0
M  V30 677 C 59.2079 1.95467 0.0720068 0
M  V30 678 O 60.4139 2.7043 0.240834 0
M  V30 679 C 58.8699 2.72893 -2.34644 0
M  V30 680 C 58.4779 2.35544 -3.81081 0
M  V30 681 C 60.2219 3.50791 -2.39052 0
M  V30 682 C 58.1289 3.53948 -4.73787 0
M  V30 683 H 57.0589 0.56727 -0.49671 0
M  V30 684 H 59.7099 0.827147 -1.638 0
M  V30 685 H 58.0919 3.43227 -1.97513 0
M  V30 686 H 59.2659 1.72894 -4.27135 0
M  V30 687 H 57.5809 1.70786 -3.79764 0
M  V30 688 H 60.1779 4.38823 -3.05513 0
M  V30 689 H 60.5209 3.91745 -1.40861 0
M  V30 690 H 61.0539 2.87467 -2.74968 0
M  V30 691 H 57.7929 3.18064 -5.73163 0
M  V30 692 H 57.3129 4.15651 -4.32428 0
M  V30 693 H 58.9919 4.20566 -4.91663 0
M  V30 694 N 59.124 1.23083 0.984299 0
M  V30 695 C 60.071 1.00854 2.07598 0
M  V30 696 C 61.041 -0.0726709 1.65941 0
M  V30 697 O 62.226 0.0786535 1.90638 0
M  V30 698 C 59.366 0.601645 3.39815 0
M  V30 699 C 58.479 1.75456 3.94765 0
M  V30 700 C 57.614 1.29482 5.15177 0
M  V30 701 C 56.653 2.41873 5.62284 0
M  V30 702 N 55.79 1.96885 6.73929 0
M  V30 703 H 60.63 1.943 2.25946 0
M  V30 704 H 58.167 0.968001 1.10762 0
M  V30 705 H 60.125 0.346854 4.15756 0
M  V30 706 H 58.755 -0.295803 3.21442 0
M  V30 707 H 57.807 2.12346 3.15616 0
M  V30 708 H 59.119 2.59965 4.25699 0
M  V30 709 H 58.273 0.997923 5.98437 0
M  V30 710 H 57.012 0.420046 4.85888 0
M  V30 711 H 56.017 2.72342 4.77608 0
M  V30 712 H 57.242 3.29881 5.93595 0
M  V30 713 H 55.188 1.11782 6.46406 0
M  V30 714 H 55.105 2.74956 7.04227 0
M  V30 715 H 56.373 1.70289 7.60672 0
M  V30 716 N 60.6021 -1.18246 1.0419 0
M  V30 717 C 61.5521 -2.19843 0.604392 0
M  V30 718 C 62.5361 -1.56962 -0.353814 0
M  V30 719 O 63.7281 -1.76156 -0.17267 0
M  V30 720 C 60.8571 -3.43287 -0.0298975 0
M  V30 721 C 59.9431 -4.13288 0.951531 0
M  V30 722 N 60.3341 -4.59271 2.11906 0
M  V30 723 C 58.6321 -4.39165 0.7778 0
M  V30 724 C 59.3331 -5.13173 2.73912 0
M  V30 725 N 58.3091 -5.04763 2.01779 0
M  V30 726 H 62.1111 -2.53089 1.4941 0
M  V30 727 H 59.6251 -1.34465 0.910658 0
M  V30 728 H 61.6221 -4.15334 -0.361037 0
M  V30 729 H 60.2821 -3.11537 -0.915127 0
M  V30 730 H 61.2931 -4.5368 2.49789 0
M  V30 731 H 57.9701 -4.17461 -0.0572331 0
M  V30 732 H 59.3601 -5.58947 3.72864 0
M  V30 733 N 62.0802 -0.821533 -1.34494 0
M  V30 734 C 63.0102 -0.257138 -2.3208 0
M  V30 735 C 63.9912 0.625645 -1.58176 0
M  V30 736 O 65.1762 0.552811 -1.86166 0
M  V30 737 C 62.3062 0.582958 -3.42372 0
M  V30 738 C 61.2602 -0.202571 -4.2752 0
M  V30 739 C 60.5862 0.760179 -5.29269 0
M  V30 740 C 61.8862 -1.40998 -5.02908 0
M  V30 741 H 63.5802 -1.07247 -2.79532 0
M  V30 742 H 61.1262 -0.517163 -1.34393 0
M  V30 743 H 63.0792 0.987972 -4.09655 0
M  V30 744 H 61.8032 1.43133 -2.93565 0
M  V30 745 H 60.4622 -0.588936 -3.61838 0
M  V30 746 H 60.1102 1.60447 -4.76724 0
M  V30 747 H 59.8102 0.238809 -5.87115 0
M  V30 748 H 61.3342 1.16308 -5.9942 0
M  V30 749 H 62.7482 -1.07905 -5.63054 0
M  V30 750 H 61.1452 -1.86689 -5.70322 0
M  V30 751 H 62.2152 -2.1889 -4.32684 0
M  V30 752 N 63.5583 1.46682 -0.576371 0
M  V30 753 C 64.8353 1.95599 0.00703437 0
M  V30 754 C 65.2153 1.51904 1.46589 0
M  V30 755 O 64.5633 0.766755 2.15251 0
M  V30 756 C 64.7733 3.4864 -0.158404 0
M  V30 757 C 66.1213 4.24594 -0.0229439 0
M  V30 758 O 67.1453 3.56094 -0.0869173 0
M  V30 759 O 66.0043 5.46373 0.118015 0
M  V30 760 H 63.0983 0.825275 0.053384 0
M  V30 761 H 65.6443 1.56996 -0.644244 0
M  V30 762 H 64.4163 3.7331 -1.17282 0
M  V30 763 H 64.0393 3.94057 0.5296 0
M  V30 764 N 65.0364 0.313813 1.54444 0
M  V30 765 C 66.4524 -0.0391619 1.59552 0
M  V30 766 C 66.6524 -1.51322 1.33056 0
M  V30 767 O 65.7084 -2.26782 1.11022 0
M  V30 768 C 67.0214 0.370302 2.98411 0
M  V30 769 C 68.5694 0.320139 3.11358 0
M  V30 770 C 69.0444 0.704617 4.52547 0
M  V30 771 N 70.5354 0.657645 4.58508 0
M  V30 772 C 71.2704 0.927453 5.6585 0
M  V30 773 N 70.7664 1.26389 6.81174 0
M  V30 774 N 72.5594 0.853662 5.5558 0
M  V30 775 H 64.7104 1.27433 1.69925 0
M  V30 776 H 66.9734 0.517511 0.794284 0
M  V30 777 H 66.6794 1.39694 3.22767 0
M  V30 778 H 66.5534 -0.269619 3.76235 0
M  V30 779 H 68.9404 -0.697275 2.86744 0
M  V30 780 H 69.0214 0.99486 2.35661 0
M  V30 781 H 68.6654 1.7199 4.77893 0
M  V30 782 H 68.5954 0.00768843 5.26599 0
M  V30 783 H 71.0864 0.409067 3.75679 0
M  V30 784 H 71.3994 1.4554 7.58972 0
M  V30 785 H 69.7444 1.30206 6.82694 0
M  V30 786 H 72.9354 0.590383 4.64362 0
M  V30 787 H 73.1084 1.0673 6.3915 0
M  V30 788 N 66.5145 -1.57545 0.0417849 0
M  V30 789 C 67.4645 -2.07483 -0.945247 0
M  V30 790 C 68.4485 -0.977983 -1.27767 0
M  V30 791 O 69.6405 -1.24142 -1.26166 0
M  V30 792 C 66.7695 -2.61576 -2.22335 0
M  V30 793 C 65.8555 -3.78213 -1.91874 0
M  V30 794 N 66.2465 -4.88344 -1.31733 0
M  V30 795 C 64.5445 -3.8694 -2.21796 0
M  V30 796 C 65.2455 -5.69462 -1.1869 0
M  V30 797 N 64.2215 -5.16771 -1.68666 0
M  V30 798 H 68.0235 -2.90029 -0.475441 0
M  V30 799 H 65.5375 -1.61581 -0.162911 0
M  V30 800 H 67.5345 -2.95651 -2.93932 0
M  V30 801 H 66.1945 -1.80465 -2.69931 0
M  V30 802 H 67.2055 -5.08335 -0.990729 0
M  V30 803 H 63.8825 -3.16757 -2.71977 0
M  V30 804 H 65.2725 -6.68023 -0.720793 0
M  V30 805 N 67.9926 0.231505 -1.5589 0
M  V30 806 C 69.2176 0.978689 -1.82856 0
M  V30 807 C 69.6426 1.77559 -0.620846 0
M  V30 808 O 69.0006 1.76119 0.430305 0
M  V30 809 C 69.0486 1.87997 -3.07716 0
M  V30 810 O 68.1526 2.97393 -2.85712 0
M  V30 811 H 67.4936 0.277663 -0.603158 0
M  V30 812 H 70.0236 0.24783 -2.03093 0
M  V30 813 H 70.0336 2.2917 -3.37558 0
M  V30 814 H 68.7086 1.29417 -3.95252 0
M  V30 815 H 67.2856 2.60238 -2.67078 0
M  V30 816 N 69.4707 1.49531 0.497807 0
M  V30 817 C 70.7477 1.49682 1.25915 0
M  V30 818 C 71.1277 0.226339 2.09883 0
M  V30 819 O 70.4757 -0.791189 2.14365 0
M  V30 820 C 70.6857 2.77755 2.11313 0
M  V30 821 C 72.0337 3.27371 2.70395 0
M  V30 822 O 73.0577 2.78894 2.21578 0
M  V30 823 O 71.9167 4.11808 3.59272 0
M  V30 824 H 69.0107 0.599228 0.56996 0
M  V30 825 H 71.5567 1.61798 0.511816 0
M  V30 826 H 70.3287 3.61713 1.49264 0
M  V30 827 H 69.9517 2.68515 2.93233 0
M  V30 828 N 70.9488 -0.749086 1.3866 0
M  V30 829 C 72.1738 -1.54344 1.38538 0
M  V30 830 C 72.5988 -1.88088 -0.0216655 0
M  V30 831 O 71.9568 -1.50899 -1.00494 0
M  V30 832 C 72.0048 -2.8164 2.25192 0
M  V30 833 O 71.1088 -3.7698 1.67212 0
M  V30 834 H 70.4498 -0.466654 0.472367 0
M  V30 835 H 72.9798 -0.925355 1.82478 0
M  V30 836 H 72.9898 -3.30519 2.3921 0
M  V30 837 H 71.6648 -2.56411 3.27454 0
M  V30 838 H 70.2418 -3.35699 1.6236 0
M  V30 839 N 72.4269 -1.23603 -0.977757 0
M  V30 840 C 73.3739 -1.01954 -2.07061 0
M  V30 841 C 74.3439 0.0638697 -1.65977 0
M  V30 842 O 75.5289 -0.0887624 -1.90593 0
M  V30 843 C 72.6689 -0.619658 -3.39491 0
M  V30 844 C 71.7819 -1.77547 -3.93829 0
M  V30 845 C 70.9169 -1.32212 -5.14484 0
M  V30 846 C 69.9559 -2.44852 -5.60994 0
M  V30 847 N 69.0929 -2.00456 -6.72876 0
M  V30 848 H 73.9329 -1.95495 -2.24913 0
M  V30 849 H 71.4699 -0.973861 -1.10247 0
M  V30 850 H 73.4279 -0.368898 -4.15566 0
M  V30 851 H 72.0579 0.278752 -3.21594 0
M  V30 852 H 71.1099 -2.14016 -3.14486 0
M  V30 853 H 72.4219 -2.62219 -4.24314 0
M  V30 854 H 71.5759 -1.02965 -5.97899 0
M  V30 855 H 70.3149 -0.445808 -4.85658 0
M  V30 856 H 69.3199 -2.74871 -4.76157 0
M  V30 857 H 70.5449 -3.33024 -5.91837 0
M  V30 858 H 68.4909 -1.15208 -6.45804 0
M  V30 859 H 68.4079 -2.78687 -7.02759 0
M  V30 860 H 69.6759 -1.7432 -7.59758 0
M  V30 861 N 73.905 1.17692 -1.04816 0
M  V30 862 C 74.837 2.21103 -0.603822 0
M  V30 863 C 75.85 1.59411 0.33046 0
M  V30 864 O 77.039 1.7807 0.12379 0
M  V30 865 C 74.139 3.38623 0.136898 0
M  V30 866 C 73.312 4.29888 -0.807137 0
M  V30 867 C 72.371 5.26088 -0.10836 0
M  V30 868 O 71.397 5.64353 -0.741232 0
M  V30 869 N 72.599 5.68882 1.15558 0
M  V30 870 H 75.364 2.59848 -1.49329 0
M  V30 871 H 72.925 1.32553 -0.929587 0
M  V30 872 H 74.917 4.00009 0.614401 0
M  V30 873 H 73.487 2.98508 0.927993 0
M  V30 874 H 72.707 3.65993 -1.46434 0
M  V30 875 H 73.995 4.87759 -1.44807 0
M  V30 876 H 73.393 5.39861 1.69015 0
M  V30 877 H 71.95 6.32429 1.57722 0
M  V30 878 N 75.3831 0.828654 1.34056 0
M  V30 879 C 76.6311 0.41863 1.97717 0
M  V30 880 C 76.9521 -1.02314 1.66002 0
M  V30 881 O 76.2221 -1.71119 0.953683 0
M  V30 882 H 74.8021 0.151809 0.731412 0
M  V30 883 H 77.4641 1.05936 1.63596 0
M  V30 884 H 76.5601 0.542318 3.07352 0
M  V30 885 N 76.8612 -1.46375 0.584142 0
M  V30 886 C 77.8082 -2.30323 -0.148286 0
M  V30 887 C 78.7782 -1.40703 -0.882713 0
M  V30 888 O 79.9632 -1.69651 -0.873099 0
M  V30 889 C 77.1032 -3.25196 -1.15507 0
M  V30 890 C 76.2162 -4.29915 -0.423943 0
M  V30 891 C 75.3512 -5.11914 -1.41838 0
M  V30 892 C 74.3902 -6.08381 -0.673736 0
M  V30 893 N 73.5272 -6.83242 -1.6163 0
M  V30 894 H 78.3672 -2.92427 0.573644 0
M  V30 895 H 75.9042 -1.44118 0.294703 0
M  V30 896 H 77.8622 -3.78646 -1.75166 0
M  V30 897 H 76.4922 -2.64898 -1.8447 0
M  V30 898 H 75.5442 -3.7931 0.287714 0
M  V30 899 H 76.8562 -4.98549 0.158128 0
M  V30 900 H 76.0102 -5.69648 -2.08773 0
M  V30 901 H 74.7492 -4.43243 -2.03438 0
M  V30 902 H 73.7542 -5.49799 0.00938483 0
M  V30 903 H 74.9792 -6.79071 -0.0631082 0
M  V30 904 H 72.9252 -6.1728 -2.22038 0
M  V30 905 H 72.8422 -7.48144 -1.08707 0
M  V30 906 H 74.1102 -7.45534 -2.27596 0
M  V30 907 N 78.3393 -0.321999 -1.54275 0
M  V30 908 C 79.5693 0.282642 -2.04658 0
M  V30 909 C 79.9773 1.46453 -1.19784 0
M  V30 910 O 79.3203 1.82367 -0.220932 0
M  V30 911 C 79.3823 0.781857 -3.50895 0
M  V30 912 C 79.0463 -0.277517 -4.56157 0
M  V30 913 C 80.0433 -1.11307 -5.07845 0
M  V30 914 C 77.7283 -0.425256 -5.00497 0
M  V30 915 C 79.7223 -2.08211 -6.02434 0
M  V30 916 C 77.4093 -1.39771 -5.94901 0
M  V30 917 C 78.4073 -2.2246 -6.45756 0
M  V30 918 O 78.0953 -3.18054 -7.38307 0
M  V30 919 H 77.8273 0.0622636 -0.673126 0
M  V30 920 H 80.3813 -0.465792 -2.00049 0
M  V30 921 H 78.6113 1.58118 -3.52896 0
M  V30 922 H 80.3003 1.30467 -3.84361 0
M  V30 923 H 81.0663 -1.00991 -4.74369 0
M  V30 924 H 76.9453 0.20847 -4.60528 0
M  V30 925 H 80.4893 -2.72791 -6.42052 0
M  V30 926 H 76.3863 -1.50152 -6.27794 0
M  V30 927 H 77.1543 -3.13275 -7.56175 0
M  V30 928 N 79.8174 1.5752 -0.0501392 0
M  V30 929 C 80.7474 2.14502 0.922566 0
M  V30 930 C 81.7284 1.06642 1.3252 0
M  V30 931 O 82.9134 1.34577 1.4001 0
M  V30 932 C 80.0434 2.68916 2.19776 0
M  V30 933 C 78.9974 3.8175 1.93523 0
M  V30 934 C 78.3234 4.22677 3.27487 0
M  V30 935 C 79.6234 5.06932 1.25765 0
M  V30 936 H 81.3174 2.9603 0.447952 0
M  V30 937 H 78.8634 1.42401 0.214024 0
M  V30 938 H 80.8164 3.07419 2.88222 0
M  V30 939 H 79.5404 1.84578 2.69441 0
M  V30 940 H 78.1994 3.43718 1.27489 0
M  V30 941 H 77.8474 3.35291 3.74952 0
M  V30 942 H 77.5474 4.98725 3.1072 0
M  V30 943 H 79.0714 4.63779 3.97166 0
M  V30 944 H 80.4854 5.42888 1.84244 0
M  V30 945 H 78.8824 5.88116 1.19328 0
M  V30 946 H 79.9524 4.84337 0.233536 0
M  V30 947 N 81.2955 -0.223234 1.56011 0
M  V30 948 C 82.2435 -1.29627 1.93131 0
M  V30 949 C 83.2375 -1.48608 0.813146 0
M  V30 950 O 84.4435 -1.49802 0.997966 0
M  V30 951 H 80.8185 -0.434563 0.613726 0
M  V30 952 H 82.7895 -0.955995 2.82672 0
M  V30 953 C 81.5385 -2.63983 2.26292 0
M  V30 954 H 80.8615 -2.50185 3.11846 0
M  V30 955 H 82.3015 -3.3788 2.56151 0
M  V30 956 C 80.7605 -3.18866 1.08747 0
M  V30 957 O 81.2905 -4.00192 0.347727 0
M  V30 958 N 79.4965 -2.77217 0.871743 0
M  V30 959 H 79.0435 -2.1119 1.47501 0
M  V30 960 H 79.0015 -3.1428 0.0869905 0
M  V30 961 N 82.7736 -1.49793 -0.48987 0
M  V30 962 C 84.0196 -1.61049 -1.24236 0
M  V30 963 C 84.3746 -0.298412 -1.90072 0
M  V30 964 O 83.6676 0.702262 -1.78266 0
M  V30 965 C 83.8616 -2.71488 -2.32441 0
M  V30 966 C 83.6906 -4.13308 -1.77218 0
M  V30 967 C 82.4606 -4.79955 -1.58023 0
M  V30 968 C 84.6586 -4.98176 -1.27772 0
M  V30 969 N 82.6406 -6.06052 -0.978465 0
M  V30 970 C 84.0116 -6.14843 -0.798 0
M  V30 971 C 86.0666 -4.84091 -1.16449 0
M  V30 972 C 84.7696 -7.18975 -0.216245 0
M  V30 973 C 86.7956 -5.88382 -0.596698 0
M  V30 974 C 86.1576 -7.04285 -0.127262 0
M  V30 975 H 82.2566 -0.643611 -0.444172 0
M  V30 976 H 84.8406 -1.86842 -0.54754 0
M  V30 977 H 83.0116 -2.47449 -2.99372 0
M  V30 978 H 84.7436 -2.72205 -2.99477 0
M  V30 979 H 81.4986 -4.36936 -1.82712 0
M  V30 980 H 81.9226 -6.73407 -0.696534 0
M  V30 981 H 86.5646 -3.94786 -1.5134 0
M  V30 982 H 84.2826 -8.0797 0.144903 0
M  V30 983 H 87.8686 -5.79545 -0.511716 0
M  V30 984 H 86.7486 -7.83606 0.30523 0
M  V30 985 N 84.2517 0.741722 -1.39055 0
M  V30 986 C 85.5287 1.49252 -1.26425 0
M  V30 987 C 85.9087 2.10705 0.129144 0
M  V30 988 O 85.2567 1.98045 1.13976 0
M  V30 989 C 85.4667 2.54934 -2.38347 0
M  V30 990 C 86.8147 3.21506 -2.77343 0
M  V30 991 O 87.8387 2.65245 -2.37747 0
M  V30 992 O 86.6977 4.23294 -3.45665 0
M  V30 993 H 83.7917 0.662451 -0.495064 0
M  V30 994 H 86.3377 0.776121 -1.50912 0
M  V30 995 H 85.1097 2.07857 -3.31529 0
M  V30 996 H 84.7327 3.34141 -2.15489 0
M  V30 997 N 85.7298 1.2412 0.971189 0
M  V30 998 C 86.6928 1.03156 2.04674 0
M  V30 999 C 87.6928 -0.00990322 1.60797 0
M  V30 1000 O 88.8828 0.230729 1.72665 0
M  V30 1001 C 86.0148 0.562765 3.36223 0
M  V30 1002 H 87.2078 1.98614 2.24705 0
M  V30 1003 H 84.7608 1.06293 1.14593 0
M  V30 1004 H 85.4958 -0.395176 3.21883 0
M  V30 1005 H 85.2808 1.31441 3.69413 0
M  V30 1006 H 86.7708 0.437015 4.15307 0
M  V30 1007 N 87.2079 -1.17134 1.05439 0
M  V30 1008 C 88.4539 -1.87733 0.767077 0
M  V30 1009 C 88.7869 -1.8098 -0.704253 0
M  V30 1010 O 88.0619 -1.21951 -1.5152 0
M  V30 1011 C 88.3449 -3.37659 1.25133 0
M  V30 1012 C 88.1979 -3.53149 2.78578 0
M  V30 1013 C 89.5169 -4.31768 0.852324 0
M  V30 1014 H 86.6359 -0.681687 0.280129 0
M  V30 1015 H 89.2779 -1.37732 1.30881 0
M  V30 1016 H 87.4279 -3.80373 0.790469 0
M  V30 1017 H 89.0999 -3.19434 3.32806 0
M  V30 1018 H 87.3429 -2.95345 3.17732 0
M  V30 1019 H 88.0139 -4.58403 3.07523 0
M  V30 1020 H 90.4899 -3.96909 1.24911 0
M  V30 1021 H 89.3659 -5.35199 1.21873 0
M  V30 1022 H 89.6269 -4.41429 -0.243485 0
M  V30 1023 N 88.686 -0.835752 -1.33615 0
M  V30 1024 C 89.933 -0.429959 -1.97883 0
M  V30 1025 C 90.261 1.01006 -1.66217 0
M  V30 1026 O 89.516 1.72047 -0.93265 0
M  V30 1027 C 89.815 -0.593925 -3.52431 0
M  V30 1028 C 89.481 -2.00158 -4.04039 0
M  V30 1029 C 88.143 -2.38662 -4.17844 0
M  V30 1030 C 90.495 -2.92117 -4.31644 0
M  V30 1031 C 87.823 -3.68435 -4.56588 0
M  V30 1032 C 90.175 -4.21368 -4.71838 0
M  V30 1033 C 88.839 -4.59833 -4.83849 0
M  V30 1034 H 88.109 -0.157333 -0.724104 0
M  V30 1035 H 90.756 -1.06217 -1.59343 0
M  V30 1036 H 89.061 0.121619 -3.91611 0
M  V30 1037 H 90.758 -0.260282 -4.00154 0
M  V30 1038 H 87.348 -1.69252 -3.93766 0
M  V30 1039 H 91.532 -2.63608 -4.20505 0
M  V30 1040 H 86.788 -3.98046 -4.64079 0
M  V30 1041 H 90.962 -4.92703 -4.92155 0
M  V30 1042 H 88.589 -5.60438 -5.13627 0
M  V30 1043 N 90.1641 1.46063 -0.591896 0
M  V30 1044 C 91.5801 1.57561 -0.254288 0
M  V30 1045 C 91.7801 1.58565 1.24336 0
M  V30 1046 O 90.8361 1.50753 2.02558 0
M  V30 1047 C 92.1491 2.86549 -0.911611 0
M  V30 1048 C 93.6971 3.00197 -0.886059 0
M  V30 1049 C 94.1721 4.31933 -1.5231 0
M  V30 1050 N 95.6631 4.38654 -1.48786 0
M  V30 1051 C 96.3981 5.39222 -1.95006 0
M  V30 1052 N 95.8941 6.46414 -2.49241 0
M  V30 1053 N 97.6871 5.3048 -1.85868 0
M  V30 1054 H 89.8381 1.43655 -1.56451 0
M  V30 1055 H 92.1011 0.68583 -0.654478 0
M  V30 1056 H 91.8071 2.91651 -1.96551 0
M  V30 1057 H 91.6811 3.74794 -0.425368 0
M  V30 1058 H 94.0681 2.9467 0.159246 0
M  V30 1059 H 94.1491 2.13403 -1.41041 0
M  V30 1060 H 93.7931 4.38217 -2.56765 0
M  V30 1061 H 93.7231 5.17516 -0.973891 0
M  V30 1062 H 96.2141 3.61793 -1.09151 0
M  V30 1063 H 96.5271 7.19376 -2.82344 0
M  V30 1064 H 94.8721 6.47208 -2.53272 0
M  V30 1065 H 98.0631 4.45643 -1.43248 0
M  V30 1066 H 98.2361 6.08711 -2.22204 0
M  V30 1067 N 91.6422 0.330177 1.54103 0
M  V30 1068 C 92.8892 -0.270405 2.00686 0
M  V30 1069 C 93.2172 -1.51621 1.21825 0
M  V30 1070 O 92.4722 -1.93536 0.29025 0
M  V30 1071 C 92.7712 -0.643134 3.51566 0
M  V30 1072 C 92.4372 0.504251 4.48072 0
M  V30 1073 C 91.0992 0.819163 4.74176 0
M  V30 1074 C 93.4512 1.27465 5.05373 0
M  V30 1075 C 90.7792 1.90708 5.5484 0
M  V30 1076 C 93.1312 2.35271 5.87223 0
M  V30 1077 C 91.7952 2.67336 6.11627 0
M  V30 1078 H 91.0652 -0.0989482 0.734364 0
M  V30 1079 H 93.7122 0.455324 1.86008 0
M  V30 1080 H 92.0172 -1.44938 3.64006 0
M  V30 1081 H 93.7142 -1.11949 3.85056 0
M  V30 1082 H 90.3042 0.248733 4.27878 0
M  V30 1083 H 94.4882 1.04462 4.85182 0
M  V30 1084 H 89.7442 2.15991 5.71977 0
M  V30 1085 H 93.9182 2.95405 6.30641 0
M  V30 1086 H 91.5452 3.51763 6.73919 0
M  V30 1087 N 93.1203 -1.57491 0.0584922 0
M  V30 1088 C 94.0503 -2.14988 -0.911178 0
M  V30 1089 C 95.0313 -1.07343 -1.31952 0
M  V30 1090 O 96.2163 -1.35318 -1.39294 0
M  V30 1091 C 93.3463 -2.70078 -2.18347 0
M  V30 1092 C 92.3003 -3.82771 -1.91495 0
M  V30 1093 C 91.6263 -4.24408 -3.25241 0
M  V30 1094 C 92.9263 -5.07592 -1.23075 0
M  V30 1095 H 94.6203 -2.96263 -0.432246 0
M  V30 1096 H 92.1663 -1.42512 -0.206469 0
M  V30 1097 H 94.1193 -3.08943 -2.86587 0
M  V30 1098 H 92.8433 -1.86005 -2.68458 0
M  V30 1099 H 91.5023 -3.44389 -1.25664 0
M  V30 1100 H 91.1503 -3.37275 -3.73168 0
M  V30 1101 H 90.8503 -5.00366 -3.08071 0
M  V30 1102 H 92.3743 -4.65879 -3.94701 0
M  V30 1103 H 93.7883 -5.43857 -1.81362 0
M  V30 1104 H 92.1853 -5.88741 -1.16207 0
M  V30 1105 H 93.2553 -4.84454 -0.207847 0
M  V30 1106 N 94.5984 0.214957 -1.56127 0
M  V30 1107 C 95.5304 1.29004 -1.89448 0
M  V30 1108 C 96.5434 1.42716 -0.783326 0
M  V30 1109 O 97.7324 1.43496 -1.06166 0
M  V30 1110 C 94.8324 2.66482 -2.09381 0
M  V30 1111 C 94.0054 2.74633 -3.40434 0
M  V30 1112 C 93.0644 3.9317 -3.49719 0
M  V30 1113 O 92.0904 3.812 -4.227 0
M  V30 1114 N 93.2924 5.07765 -2.81346 0
M  V30 1115 H 96.0574 1.00743 -2.82261 0
M  V30 1116 H 93.6184 0.40497 -1.56753 0
M  V30 1117 H 95.6104 3.44173 -2.12901 0
M  V30 1118 H 94.1804 2.87314 -1.23163 0
M  V30 1119 H 93.4004 1.83368 -3.48955 0
M  V30 1120 H 94.6884 2.77054 -4.26754 0
M  V30 1121 H 94.0864 5.20386 -2.21843 0
M  V30 1122 H 92.6434 5.83474 -2.90519 0
M  V30 1123 N 96.0765 1.50051 0.48192 0
M  V30 1124 C 97.0235 1.68122 1.58125 0
M  V30 1125 C 97.9935 0.522545 1.57666 0
M  V30 1126 O 99.1785 0.751844 1.75362 0
M  V30 1127 C 96.3185 1.77142 2.96167 0
M  V30 1128 C 95.4315 3.0444 3.06497 0
M  V30 1129 C 94.5665 3.04321 4.35387 0
M  V30 1130 C 93.6055 4.26118 4.3942 0
M  V30 1131 N 92.7425 4.238 5.59766 0
M  V30 1132 H 97.5825 2.6198 1.42022 0
M  V30 1133 H 95.1195 1.29877 0.690687 0
M  V30 1134 H 97.0775 1.80352 3.76203 0
M  V30 1135 H 95.7075 0.867329 3.1093 0
M  V30 1136 H 94.7595 3.10752 2.19402 0
M  V30 1137 H 96.0715 3.94426 3.05336 0
M  V30 1138 H 95.2255 3.062 5.23762 0
M  V30 1139 H 93.9645 2.12147 4.39141 0
M  V30 1140 H 92.9695 4.24463 3.49444 0
M  V30 1141 H 94.1945 5.19507 4.37366 0
M  V30 1142 H 92.1405 3.34474 5.64326 0
M  V30 1143 H 92.0575 5.07542 5.60301 0
M  V30 1144 H 93.3255 4.2981 6.50295 0
M  V30 1145 N 97.5546 -0.734337 1.39446 0
M  V30 1146 C 98.7846 -1.52137 1.39778 0
M  V30 1147 C 99.1926 -1.89198 -0.00929312 0
M  V30 1148 O 98.5356 -1.54666 -0.991168 0
M  V30 1149 C 98.5976 -2.83762 2.20724 0
M  V30 1150 C 98.2616 -2.69131 3.69347 0
M  V30 1151 C 99.2586 -2.37635 4.62413 0
M  V30 1152 C 96.9436 -2.85982 4.1294 0
M  V30 1153 C 98.9376 -2.23172 5.97054 0
M  V30 1154 C 96.6246 -2.71137 5.47657 0
M  V30 1155 C 97.6226 -2.39777 6.39528 0
M  V30 1156 O 97.3106 -2.25026 7.71763 0
M  V30 1157 H 97.0426 -0.476717 0.479288 0
M  V30 1158 H 99.5966 -0.915012 1.83893 0
M  V30 1159 H 97.8266 -3.4666 1.71359 0
M  V30 1160 H 99.5156 -3.45383 2.13226 0
M  V30 1161 H 100.282 -2.24267 4.30034 0
M  V30 1162 H 96.1606 -3.09383 3.41765 0
M  V30 1163 H 99.7046 -1.98617 6.68728 0
M  V30 1164 H 95.6016 -2.84083 5.79626 0
M  V30 1165 H 96.3696 -2.40091 7.82495 0
M  V30 1166 N 99.0327 -1.24633 -0.964593 0
M  V30 1167 C 100.282 -1.08188 -1.7023 0
M  V30 1168 C 100.595 0.37873 -1.91898 0
M  V30 1169 O 101.801 0.663427 -2.6327 0
M  V30 1170 C 100.257 -1.88773 -3.06419 0
M  V30 1171 C 99.8647 -3.39263 -2.92582 0
M  V30 1172 C 101.609 -1.80867 -3.84041 0
M  V30 1173 C 99.5157 -4.1218 -4.24101 0
M  V30 1174 H 98.4457 -0.401245 -0.638372 0
M  V30 1175 H 101.097 -1.48742 -1.07462 0
M  V30 1176 H 99.4787 -1.41035 -3.70034 0
M  V30 1177 H 100.653 -3.94603 -2.37961 0
M  V30 1178 H 98.9677 -3.48154 -2.28424 0
M  V30 1179 H 101.565 -2.32646 -4.81435 0
M  V30 1180 H 101.908 -0.774543 -4.09031 0
M  V30 1181 H 102.441 -2.26301 -3.27159 0
M  V30 1182 H 99.1797 -5.15965 -4.04303 0
M  V30 1183 H 98.6997 -3.61626 -4.78526 0
M  V30 1184 H 100.379 -4.19349 -4.92702 0
M  V30 1185 N 100.511 1.16574 -1.06058 0
M  V30 1186 C 101.443 2.2045 -0.627239 0
M  V30 1187 C 102.456 1.59752 0.313534 0
M  V30 1188 O 103.645 1.78192 0.104896 0
M  V30 1189 C 100.745 3.3875 0.100974 0
M  V30 1190 C 99.9178 4.29008 -0.852687 0
M  V30 1191 C 98.9768 5.25944 -0.164152 0
M  V30 1192 O 98.0028 5.63535 -0.801047 0
M  V30 1193 N 99.2048 5.70075 1.09518 0
M  V30 1194 H 101.97 2.58249 -1.52077 0
M  V30 1195 H 99.5308 1.3156 -0.943594 0
M  V30 1196 H 101.523 4.00638 0.57194 0
M  V30 1197 H 100.093 2.99476 0.89628 0
M  V30 1198 H 99.3128 3.64419 -1.50308 0
M  V30 1199 H 100.601 4.86195 -1.49972 0
M  V30 1200 H 99.9988 5.41624 1.6328 0
M  V30 1201 H 98.5558 6.34067 1.51006 0
M  V30 1202 N 101.989 0.842826 1.3317 0
M  V30 1203 C 102.936 0.276885 2.29133 0
M  V30 1204 C 103.906 -0.609527 1.54512 0
M  V30 1205 O 105.091 -0.546955 1.82792 0
M  V30 1206 C 102.231 -0.538707 3.40869 0
M  V30 1207 C 101.344 0.372169 4.30394 0
M  V30 1208 C 100.479 -0.454908 5.29249 0
M  V30 1209 C 99.5179 0.45411 6.10413 0
M  V30 1210 N 98.6549 -0.335075 7.013 0
M  V30 1211 H 103.495 1.10052 2.76934 0
M  V30 1212 H 101.032 0.554161 1.36262 0
M  V30 1213 H 102.99 -1.02709 4.0436 0
M  V30 1214 H 101.62 -1.32727 2.9425 0
M  V30 1215 H 100.672 0.97888 3.6759 0
M  V30 1216 H 101.984 1.0703 4.87182 0
M  V30 1217 H 101.138 -1.00695 5.98285 0
M  V30 1218 H 99.8769 -1.18646 4.73048 0
M  V30 1219 H 98.8819 1.01813 5.40291 0
M  V30 1220 H 100.107 1.18409 6.68697 0
M  V30 1221 H 98.0529 -1.04994 6.47543 0
M  V30 1222 H 97.9699 0.304262 7.55387 0
M  V30 1223 H 99.2379 -0.869224 7.74638 0
M  V30 1224 N 103.467 -1.45747 0.599634 0
M  V30 1225 C 104.377 -2.34262 -0.125888 0
M  V30 1226 C 105.393 -1.50768 -0.868625 0
M  V30 1227 O 106.569 -1.83592 -0.828003 0
M  V30 1228 C 103.634 -3.28252 -1.11587 0
M  V30 1229 C 102.695 -4.27651 -0.375956 0
M  V30 1230 C 101.928 -5.1715 -1.31877 0
M  V30 1231 O 102.151 -5.09916 -2.55621 0
M  V30 1232 O 101.085 -5.96286 -0.820157 0
M  V30 1233 H 104.911 -2.97688 0.601315 0
M  V30 1234 H 102.496 -1.44999 0.359934 0
M  V30 1235 H 104.378 -3.86191 -1.68626 0
M  V30 1236 H 103.053 -2.67401 -1.82424 0
M  V30 1237 H 101.96 -3.7335 0.236698 0
M  V30 1238 H 103.293 -4.91334 0.29177 0
M  V30 1239 N 104.945 -0.338344 -1.53925 0
M  V30 1240 C 106.173 0.261298 -2.05243 0
M  V30 1241 C 106.588 1.44625 -1.21363 0
M  V30 1242 O 105.945 1.80811 -0.247736 0
M  V30 1243 C 105.996 0.681412 -3.5502 0
M  V30 1244 O 105.717 -0.456414 -4.35716 0
M  V30 1245 C 107.218 1.34232 -4.22489 0
M  V30 1246 H 104.438 0.0513685 -0.669031 0
M  V30 1247 H 106.982 -0.488822 -1.98572 0
M  V30 1248 H 105.137 1.38148 -3.61931 0
M  V30 1249 H 105.551 -0.122564 -5.24357 0
M  V30 1250 H 107.025 1.58708 -5.28693 0
M  V30 1251 H 107.502 2.29426 -3.74514 0
M  V30 1252 H 108.108 0.684424 -4.19757 0
M  V30 1253 N 106.423 1.57458 -0.0668435 0
M  V30 1254 C 107.333 2.15937 0.916975 0
M  V30 1255 C 108.349 1.12123 1.33058 0
M  V30 1256 O 109.525 1.44366 1.40429 0
M  V30 1257 C 106.59 2.70547 2.16807 0
M  V30 1258 C 105.651 3.89215 1.81135 0
M  V30 1259 C 104.884 4.41211 3.0028 0
M  V30 1260 O 105.107 3.92225 4.14144 0
M  V30 1261 O 104.041 5.32605 2.80384 0
M  V30 1262 H 107.867 3.00354 0.449561 0
M  V30 1263 H 105.452 1.48584 0.155949 0
M  V30 1264 H 107.334 3.0557 2.90181 0
M  V30 1265 H 106.009 1.89192 2.62656 0
M  V30 1266 H 104.916 3.59054 1.05028 0
M  V30 1267 H 106.249 4.71848 1.40073 0
M  V30 1268 N 107.901 -0.206675 1.56239 0
M  V30 1269 C 109.141 -0.93574 1.81723 0
M  V30 1270 C 109.505 -1.80927 0.642609 0
M  V30 1271 O 110.706 -2.57323 0.777081 0
M  V30 1272 C 108.977 -1.74012 3.12177 0
M  V30 1273 S 110.536 -2.52279 3.59028 0
M  V30 1274 H 107.354 -0.314065 0.637875 0
M  V30 1275 H 109.956 -0.200071 1.94474 0
M  V30 1276 H 108.66 -1.0888 3.95693 0
M  V30 1277 H 108.191 -2.51782 3.02274 0
M  V30 1278 H 110.206 -3.76209 3.23545 0
M  V30 1279 N 109.379 -1.50304 -0.473955 0
M  V30 1280 C 110.309 -1.71886 -1.58042 0
M  V30 1281 C 111.29 -0.567799 -1.60344 0
M  V30 1282 O 112.475 -0.806623 -1.76656 0
M  V30 1283 C 109.605 -1.81036 -2.96384 0
M  V30 1284 C 108.559 -2.962 -3.08949 0
M  V30 1285 C 107.885 -2.9049 -4.48909 0
M  V30 1286 C 109.185 -4.36752 -2.86434 0
M  V30 1287 H 110.879 -2.64527 -1.40234 0
M  V30 1288 H 108.425 -1.27295 -0.673201 0
M  V30 1289 H 110.378 -1.94719 -3.73714 0
M  V30 1290 H 109.102 -0.850147 -3.15341 0
M  V30 1291 H 107.761 -2.82164 -2.3405 0
M  V30 1292 H 107.409 -1.92321 -4.64781 0
M  V30 1293 H 107.109 -3.67802 -4.58253 0
M  V30 1294 H 108.633 -3.06218 -5.28264 0
M  V30 1295 H 110.047 -4.5133 -3.53517 0
M  V30 1296 H 108.444 -5.15493 -3.07225 0
M  V30 1297 H 109.514 -4.49321 -1.82316 0
M  V30 1298 N 110.857 0.726932 -1.39834 0
M  V30 1299 C 112.273 1.03354 -1.21615 0
M  V30 1300 C 112.473 2.01327 -0.08338 0
M  V30 1301 O 111.529 2.46158 0.56238 0
M  V30 1302 C 112.842 1.58811 -2.55342 0
M  V30 1303 C 114.39 1.70851 -2.62257 0
M  V30 1304 C 114.865 2.29716 -3.96225 0
M  V30 1305 N 116.356 2.37116 -3.97907 0
M  V30 1306 C 117.091 2.83619 -4.98345 0
M  V30 1307 N 116.587 3.29958 -6.09179 0
M  V30 1308 N 118.38 2.82901 -4.8572 0
M  V30 1309 H 110.531 0.0773069 -2.12259 0
M  V30 1310 H 112.794 0.0969102 -0.943034 0
M  V30 1311 H 112.5 0.942855 -3.38826 0
M  V30 1312 H 112.374 2.57502 -2.75632 0
M  V30 1313 H 114.761 2.34497 -1.79152 0
M  V30 1314 H 114.842 0.707913 -2.45809 0
M  V30 1315 H 114.486 1.66696 -4.79765 0
M  V30 1316 H 114.416 3.30469 -4.09997 0
M  V30 1317 H 116.907 2.04374 -3.17868 0
M  V30 1318 H 117.22 3.63976 -6.8172 0
M  V30 1319 H 115.565 3.27946 -6.12761 0
M  V30 1320 H 118.756 2.46027 -3.98231 0
M  V30 1321 H 118.929 3.18827 -5.6414 0
M  V30 1322 N 112.336 1.25143 0.95797 0
M  V30 1323 C 113.585 1.0909 1.69654 0
M  V30 1324 C 113.898 -0.368548 1.92097 0
M  V30 1325 O 115.104 -0.649455 2.63618 0
M  V30 1326 C 113.56 1.90395 3.05414 0
M  V30 1327 C 113.168 3.4081 2.90779 0
M  V30 1328 C 114.912 1.82901 3.83076 0
M  V30 1329 C 112.819 4.14423 4.21909 0
M  V30 1330 H 111.749 0.404625 0.636235 0
M  V30 1331 H 114.4 1.4931 1.06672 0
M  V30 1332 H 112.782 1.42996 3.69281 0
M  V30 1333 H 113.956 3.95859 2.35865 0
M  V30 1334 H 112.271 3.49361 2.26575 0
M  V30 1335 H 114.868 2.35196 4.80195 0
M  V30 1336 H 115.211 0.796224 4.08615 0
M  V30 1337 H 115.744 2.28033 3.25954 0
M  V30 1338 H 112.483 5.18102 4.01561 0
M  V30 1339 H 112.003 3.64159 4.76601 0
M  V30 1340 H 113.682 4.21956 4.90471 0
M  V30 1341 N 113.814 -1.1601 1.06675 0
M  V30 1342 C 114.777 -2.18724 0.685001 0
M  V30 1343 C 115.777 -1.58496 -0.271246 0
M  V30 1344 O 116.967 -1.74119 -0.0531156 0
M  V30 1345 C 114.099 -3.40899 0.00853648 0
M  V30 1346 H 115.292 -2.54011 1.59431 0
M  V30 1347 H 112.845 -1.30352 0.862441 0
M  V30 1348 H 113.58 -3.11173 -0.913337 0
M  V30 1349 H 113.365 -3.8587 0.696204 0
M  V30 1350 H 114.855 -4.16886 -0.24414 0
M  V30 1351 N 115.292 -0.849877 -1.32721 0
M  V30 1352 C 116.239 -0.289033 -2.28983 0
M  V30 1353 C 117.209 0.601324 -1.54833 0
M  V30 1354 O 118.394 0.537253 -1.8308 0
M  V30 1355 C 115.534 0.520623 -3.4115 0
M  V30 1356 C 114.647 -0.394989 -4.3019 0
M  V30 1357 C 113.782 0.426834 -5.29482 0
M  V30 1358 C 112.821 -0.486476 -6.10164 0
M  V30 1359 N 111.958 0.297879 -7.01468 0
M  V30 1360 H 116.798 -1.11519 -2.76347 0
M  V30 1361 H 114.335 -0.56138 -1.35967 0
M  V30 1362 H 116.293 1.00563 -4.04899 0
M  V30 1363 H 114.923 1.31165 -2.9495 0
M  V30 1364 H 113.975 -0.99836 -3.67065 0
M  V30 1365 H 115.287 -1.09612 -4.86607 0
M  V30 1366 H 114.441 0.975205 -5.98811 0
M  V30 1367 H 113.18 1.16136 -4.73671 0
M  V30 1368 H 112.185 -1.04677 -5.39743 0
M  V30 1369 H 113.41 -1.21953 -6.6806 0
M  V30 1370 H 111.356 1.01558 -6.48091 0
M  V30 1371 H 111.273 -0.344318 -7.55216 0
M  V30 1372 H 112.541 0.828131 -7.75089 0
M  V30 1373 N 116.77 1.45427 -0.607355 0
M  V30 1374 C 118.181 1.85756 -0.187535 0
M  V30 1375 C 118.532 1.5077 1.25551 0
M  V30 1376 O 117.657 0.93427 1.95193 0
M  V30 1377 C 118.252 3.37154 -0.333572 0
M  V30 1378 C 116.811 3.76387 0.0315542 0
M  V30 1379 C 115.958 2.69377 -0.658117 0
M  V30 1380 H 118.909 1.36231 -0.81405 0
M  V30 1381 H 118.93 3.78014 0.43428 0
M  V30 1382 H 118.442 3.62586 -1.38393 0
M  V30 1383 H 116.543 3.56571 1.0811 0
M  V30 1384 H 116.656 4.77731 -0.361935 0
M  V30 1385 H 115.02 2.5452 -0.0957873 0
M  V30 1386 H 115.803 2.97646 -1.7106 0
M  V30 1387 N 118.248 0.346503 1.53744 0
M  V30 1388 C 119.196 -0.52422 2.26616 0
M  V30 1389 C 120.19 -1.09948 1.28871 0
M  V30 1390 O 121.396 -1.04488 1.46568 0
M  V30 1391 H 117.771 -0.187743 0.728187 0
M  V30 1392 H 119.742 0.11239 2.98188 0
M  V30 1393 C 118.491 -1.66186 3.05414 0
M  V30 1394 H 117.814 -1.22848 3.80458 0
M  V30 1395 H 119.254 -2.24622 3.59612 0
M  V30 1396 C 117.713 -2.59302 2.1509 0
M  V30 1397 O 118.243 -3.61628 1.74895 0
M  V30 1398 N 116.449 -2.28055 1.8011 0
M  V30 1399 H 115.996 -1.44883 2.12994 0
M  V30 1400 H 115.954 -2.90615 1.19958 0
M  V30 1401 N 119.726 -1.57421 0.075193 0
M  V30 1402 C 120.972 -1.93905 -0.594025 0
M  V30 1403 C 121.305 -0.955701 -1.69056 0
M  V30 1404 O 120.58 0.0145373 -1.94495 0
M  V30 1405 C 120.863 -3.40638 -1.1678 0
M  V30 1406 C 120.716 -4.49733 -0.0776792 0
M  V30 1407 C 122.035 -3.88259 -2.07228 0
M  V30 1408 H 119.154 -0.705105 -0.214466 0
M  V30 1409 H 121.796 -1.8947 0.141854 0
M  V30 1410 H 119.946 -3.44549 -1.79494 0
M  V30 1411 H 121.618 -4.57942 0.555573 0
M  V30 1412 H 119.861 -4.29751 0.591286 0
M  V30 1413 H 120.532 -5.49549 -0.519603 0
M  V30 1414 H 123.008 -3.86376 -1.54445 0
M  V30 1415 H 121.884 -4.91533 -2.44308 0
M  V30 1416 H 122.145 -3.26396 -2.98191 0
M  V30 1417 N 121.204 0.198386 -1.56346 0
M  V30 1418 C 122.429 0.939682 -1.84891 0
M  V30 1419 C 122.854 1.76202 -0.658369 0
M  V30 1420 O 122.212 1.76993 0.392851 0
M  V30 1421 C 122.26 1.81428 -3.11635 0
M  V30 1422 O 121.364 2.91265 -2.91956 0
M  V30 1423 H 120.705 0.264807 -0.608912 0
M  V30 1424 H 123.235 0.204695 -2.03573 0
M  V30 1425 H 123.245 2.21958 -3.42343 0
M  V30 1426 H 121.92 1.21004 -3.97908 0
M  V30 1427 H 120.497 2.54514 -2.72538 0
M  V30 1428 N 122.682 1.50554 0.465978 0
M  V30 1429 C 123.645 1.69233 1.54574 0
M  V30 1430 C 124.645 0.562901 1.50626 0
M  V30 1431 O 125.835 0.830016 1.53155 0
M  V30 1432 C 122.967 1.7223 2.94193 0
M  V30 1433 H 124.16 2.65571 1.39327 0
M  V30 1434 H 121.713 1.40111 0.692711 0
M  V30 1435 H 122.448 0.77603 3.14878 0
M  V30 1436 H 122.233 2.54285 2.98466 0
M  V30 1437 H 123.723 1.88618 3.72576 0
M  V30 1438 N 124.16 -0.719506 1.40217 0
M  V30 1439 C 125.385 -1.51371 1.4178 0
M  V30 1440 C 125.81 -1.88091 0.0182355 0
M  V30 1441 O 125.168 -1.52997 -0.972707 0
M  V30 1442 C 125.216 -2.768 2.31115 0
M  V30 1443 O 124.32 -3.73349 1.7517 0
M  V30 1444 H 123.661 -0.456529 0.482159 0
M  V30 1445 H 126.191 -0.88644 1.844 0
M  V30 1446 H 126.201 -3.25371 2.46167 0
M  V30 1447 H 124.876 -2.49407 3.3282 0
M  V30 1448 H 123.453 -3.32179 1.69444 0
M  V30 1449 N 125.638 -1.25649 -0.95132 0
M  V30 1450 C 126.866 -1.13343 -1.73092 0
M  V30 1451 C 127.281 0.312434 -1.86197 0
M  V30 1452 O 126.638 1.21465 -1.36207 0
M  V30 1453 C 126.689 -1.78602 -3.14299 0
M  V30 1454 O 126.41 -3.17537 -3.01831 0
M  V30 1455 C 127.911 -1.72119 -4.08522 0
M  V30 1456 H 125.131 -0.395181 -0.542285 0
M  V30 1457 H 127.675 -1.66076 -1.19328 0
M  V30 1458 H 125.83 -1.29832 -3.64996 0
M  V30 1459 H 126.244 -3.49676 -3.90931 0
M  V30 1460 H 127.718 -2.22435 -5.052 0
M  V30 1461 H 128.195 -0.685635 -4.33815 0
M  V30 1462 H 128.801 -2.20393 -3.63741 0
M  V30 1463 N 127.117 1.15442 -1.07289 0
M  V30 1464 C 128.049 2.19773 -0.650585 0
M  V30 1465 C 129.062 1.60076 0.296572 0
M  V30 1466 O 130.251 1.78293 0.0859905 0
M  V30 1467 C 127.351 3.38838 0.0650398 0
M  V30 1468 C 126.524 4.2808 -0.898141 0
M  V30 1469 C 125.583 5.2574 -0.219926 0
M  V30 1470 O 124.609 5.62654 -0.860773 0
M  V30 1471 N 125.811 5.71205 1.03466 0
M  V30 1472 H 128.576 2.56622 -1.54808 0
M  V30 1473 H 126.137 1.30551 -0.957494 0
M  V30 1474 H 128.129 4.01222 0.529415 0
M  V30 1475 H 126.699 3.00409 0.864466 0
M  V30 1476 H 125.919 3.62804 -1.54165 0
M  V30 1477 H 127.207 4.84577 -1.5512 0
M  V30 1478 H 126.605 5.43325 1.57526 0
M  V30 1479 H 125.162 6.35633 1.44272 0
M  V30 1480 N 128.595 0.856903 1.32268 0
M  V30 1481 C 129.558 0.308171 2.27119 0
M  V30 1482 C 130.558 -0.533421 1.51695 0
M  V30 1483 O 131.748 -0.344607 1.70757 0
M  V30 1484 C 128.88 -0.563757 3.36206 0
M  V30 1485 H 130.073 1.14535 2.77167 0
M  V30 1486 H 127.626 0.631421 1.42978 0
M  V30 1487 H 128.361 -1.42266 2.91429 0
M  V30 1488 H 128.146 0.0386749 3.92081 0
M  V30 1489 H 129.636 -0.940386 4.06874 0
M  V30 1490 N 130.073 -1.45103 0.615059 0
M  V30 1491 C 131.298 -2.07064 0.117988 0
M  V30 1492 C 131.723 -1.4554 -1.19163 0
M  V30 1493 O 131.081 -0.550855 -1.72729 0
M  V30 1494 C 131.129 -3.606 -0.000288387 0
M  V30 1495 O 130.233 -3.98847 -1.04856 0
M  V30 1496 H 129.574 -0.659467 0.0774581 0
M  V30 1497 H 132.104 -1.86236 0.847186 0
M  V30 1498 H 132.114 -4.07529 -0.196091 0
M  V30 1499 H 130.789 -4.04765 0.955932 0
M  V30 1500 H 129.366 -3.63577 -0.828619 0
M  V30 1501 N 131.551 -0.354651 -1.53558 0
M  V30 1502 C 132.967 -0.00315426 -1.596 0
M  V30 1503 C 133.167 1.47741 -1.37021 0
M  V30 1504 O 132.223 2.23759 -1.16996 0
M  V30 1505 C 133.536 -0.44929 -2.97325 0
M  V30 1506 C 135.084 -0.402578 -3.104 0
M  V30 1507 C 135.559 -0.824355 -4.5052 0
M  V30 1508 N 137.05 -0.778979 -4.56603 0
M  V30 1509 C 137.785 -1.07715 -5.63192 0
M  V30 1510 N 137.281 -1.44405 -6.77583 0
M  V30 1511 N 139.074 -1.00066 -5.53121 0
M  V30 1512 H 131.225 -1.31893 -1.66487 0
M  V30 1513 H 133.488 -0.538388 -0.780284 0
M  V30 1514 H 133.194 -1.48202 -3.1895 0
M  V30 1515 H 133.068 0.169772 -3.76818 0
M  V30 1516 H 135.455 0.621004 -2.88492 0
M  V30 1517 H 135.536 -1.05699 -2.32941 0
M  V30 1518 H 135.18 -1.846 -4.73165 0
M  V30 1519 H 135.11 -0.147304 -5.26394 0
M  V30 1520 H 137.601 -0.508528 -3.74463 0
M  V30 1521 H 137.914 -1.65612 -7.54846 0
M  V30 1522 H 136.259 -1.4826 -6.79002 0
M  V30 1523 H 139.45 -0.713293 -4.62633 0
M  V30 1524 H 139.623 -1.23638 -6.36096 0
M  V30 1525 N 133.029 1.57378 -0.0835403 0
M  V30 1526 C 133.961 2.10389 0.909338 0
M  V30 1527 C 134.974 1.03858 1.25369 0
M  V30 1528 O 136.163 1.31338 1.20882 0
M  V30 1529 C 133.263 2.55908 2.2218 0
M  V30 1530 C 132.436 3.86145 2.05453 0
M  V30 1531 C 131.495 4.17633 3.20108 0
M  V30 1532 O 130.521 4.87043 2.94581 0
M  V30 1533 N 131.723 3.72113 4.45547 0
M  V30 1534 H 134.488 2.962 0.456657 0
M  V30 1535 H 132.049 1.61579 0.101877 0
M  V30 1536 H 134.041 2.74027 2.97811 0
M  V30 1537 H 132.611 1.75171 2.58909 0
M  V30 1538 H 131.831 3.7729 1.1422 0
M  V30 1539 H 133.119 4.7137 1.91541 0
M  V30 1540 H 132.517 3.16062 4.69171 0
M  V30 1541 H 131.074 3.95409 5.18165 0
M  V30 1542 N 134.507 -0.190092 1.56449 0
M  V30 1543 C 135.454 -1.23557 1.94942 0
M  V30 1544 C 136.424 -1.44972 0.810696 0
M  V30 1545 O 137.609 -1.58023 1.06927 0
M  V30 1546 C 134.749 -2.57416 2.2985 0
M  V30 1547 C 133.862 -2.43537 3.5681 0
M  V30 1548 C 132.997 -3.70134 3.81017 0
M  V30 1549 C 132.036 -3.51109 5.01387 0
M  V30 1550 N 131.173 -4.6973 5.21822 0
M  V30 1551 H 136.013 -0.900304 2.84075 0
M  V30 1552 H 133.55 -0.43318 1.40577 0
M  V30 1553 H 135.508 -3.35409 2.48106 0
M  V30 1554 H 134.138 -2.88975 1.43852 0
M  V30 1555 H 133.19 -1.56816 3.46573 0
M  V30 1556 H 134.502 -2.25415 4.4496 0
M  V30 1557 H 133.656 -4.56566 3.9954 0
M  V30 1558 H 132.395 -3.91215 2.91207 0
M  V30 1559 H 131.4 -2.63063 4.82782 0
M  V30 1560 H 132.625 -3.31468 5.9271 0
M  V30 1561 H 130.571 -4.91065 4.34961 0
M  V30 1562 H 130.488 -4.54452 6.0416 0
M  V30 1563 H 131.756 -5.57499 5.44808 0
M  V30 1564 N 135.985 -1.50799 -0.457987 0
M  V30 1565 C 136.932 -1.70617 -1.5543 0
M  V30 1566 C 137.902 -0.547562 -1.56815 0
M  V30 1567 O 139.087 -0.779647 -1.74144 0
M  V30 1568 C 136.227 -1.81831 -2.93311 0
M  V30 1569 C 135.34 -3.09278 -3.01615 0
M  V30 1570 C 134.475 -3.11209 -4.30491 0
M  V30 1571 C 133.514 -4.33055 -4.32585 0
M  V30 1572 N 132.651 -4.32652 -5.52952 0
M  V30 1573 H 137.491 -2.64207 -1.37836 0
M  V30 1574 H 135.028 -1.30959 -0.669937 0
M  V30 1575 H 136.986 -1.86314 -3.73287 0
M  V30 1576 H 135.616 -0.916685 -3.0951 0
M  V30 1577 H 134.668 -3.14203 -2.1443 0
M  V30 1578 H 135.98 -3.99233 -2.99022 0
M  V30 1579 H 135.134 -3.14494 -5.18824 0
M  V30 1580 H 133.873 -2.19106 -4.35711 0
M  V30 1581 H 132.878 -4.29969 -3.42647 0
M  V30 1582 H 134.103 -5.264 -4.29046 0
M  V30 1583 H 132.049 -3.43409 -5.58933 0
M  V30 1584 H 131.966 -5.16392 -5.52155 0
M  V30 1585 H 133.234 -4.40101 -6.43375 0
M  V30 1586 N 137.463 0.71206 -1.40597 0
M  V30 1587 C 138.396 1.83582 -1.35546 0
M  V30 1588 C 139.374 1.61032 -0.225284 0
M  V30 1589 O 140.558 1.83998 -0.409519 0
M  V30 1590 C 137.685 3.19983 -1.11034 0
M  V30 1591 C 136.731 3.61355 -2.2655 0
M  V30 1592 S 137.564 3.68062 -3.88961 0
M  V30 1593 C 138.72 5.07216 -3.66719 0
M  V30 1594 H 138.953 1.87586 -2.30648 0
M  V30 1595 H 136.486 0.879182 -1.26924 0
M  V30 1596 H 138.444 3.98734 -0.975761 0
M  V30 1597 H 137.105 3.13608 -0.175798 0
M  V30 1598 H 136.298 4.60403 -2.0505 0
M  V30 1599 H 135.9 2.8987 -2.36329 0
M  V30 1600 H 138.192 5.94238 -3.25404 0
M  V30 1601 H 139.135 5.33753 -4.6531 0
M  V30 1602 H 139.543 4.77976 -3.00332 0
M  V30 1603 N 138.941 1.26152 0.944643 0
M  V30 1604 C 139.873 1.03199 2.04652 0
M  V30 1605 C 140.886 -0.00642356 1.62799 0
M  V30 1606 O 142.075 0.233263 1.76969 0
M  V30 1607 C 139.175 0.540111 3.34568 0
M  V30 1608 C 138.348 1.64697 4.05208 0
M  V30 1609 C 137.407 1.15374 5.13396 0
M  V30 1610 O 136.433 1.85013 5.38293 0
M  V30 1611 N 137.635 0.00031529 5.805 0
M  V30 1612 H 140.4 1.9808 2.2491 0
M  V30 1613 H 137.961 1.17491 1.11389 0
M  V30 1614 H 139.953 0.194401 4.04233 0
M  V30 1615 H 138.523 -0.315021 3.11009 0
M  V30 1616 H 137.743 2.16379 3.29506 0
M  V30 1617 H 139.031 2.3903 4.49157 0
M  V30 1618 H 138.429 -0.581336 5.62705 0
M  V30 1619 H 136.986 -0.286346 6.51171 0
M  V30 1620 N 140.419 -1.14872 1.07899 0
M  V30 1621 C 141.329 -2.2341 0.715915 0
M  V30 1622 C 142.345 -1.71808 -0.275306 0
M  V30 1623 O 143.521 -2.01039 -0.120545 0
M  V30 1624 C 140.586 -3.46474 0.125168 0
M  V30 1625 C 139.647 -4.13039 1.17034 0
M  V30 1626 C 138.88 -5.30229 0.607688 0
M  V30 1627 O 139.103 -5.675 -0.574497 0
M  V30 1628 O 138.037 -5.86444 1.35526 0
M  V30 1629 H 141.863 -2.56808 1.62121 0
M  V30 1630 H 139.448 -1.22702 0.852322 0
M  V30 1631 H 141.33 -4.20917 -0.201729 0
M  V30 1632 H 140.005 -3.14811 -0.753364 0
M  V30 1633 H 138.912 -3.40493 1.54968 0
M  V30 1634 H 140.245 -4.48796 2.02097 0
M  V30 1635 N 141.898 -0.863906 -1.31812 0
M  V30 1636 C 143.147 -0.46801 -1.96195 0
M  V30 1637 C 143.46 0.983474 -1.69077 0
M  V30 1638 O 144.666 1.48523 -2.27273 0
M  V30 1639 C 143.122 -0.785995 -3.51212 0
M  V30 1640 C 142.73 -2.25383 -3.87178 0
M  V30 1641 C 144.474 -0.458274 -4.22019 0
M  V30 1642 C 142.381 -2.51455 -5.3528 0
M  V30 1643 H 141.311 -0.171283 -0.734287 0
M  V30 1644 H 143.962 -1.05597 -1.50072 0
M  V30 1645 H 142.344 -0.127359 -3.95795 0
M  V30 1646 H 143.518 -2.95502 -3.53575 0
M  V30 1647 H 141.833 -2.54698 -3.2942 0
M  V30 1648 H 144.43 -0.630369 -5.30971 0
M  V30 1649 H 144.773 0.600834 -4.11941 0
M  V30 1650 H 145.306 -1.07319 -3.8305 0
M  V30 1651 H 142.045 -3.56025 -5.50387 0
M  V30 1652 H 141.565 -1.85923 -5.70257 0
M  V30 1653 H 143.244 -2.35874 -6.02472 0
M  V30 1654 N 143.376 1.44774 -0.622745 0
M  V30 1655 C 144.601 2.06999 -0.128968 0
M  V30 1656 C 145.026 1.4617 1.1839 0
M  V30 1657 O 144.384 0.560007 1.72434 0
M  V30 1658 C 144.432 3.60595 -0.0188351 0
M  V30 1659 O 143.536 3.99398 1.02739 0
M  V30 1660 H 142.877 0.659047 -0.0809544 0
M  V30 1661 H 145.407 1.85784 -0.85705 0
M  V30 1662 H 145.417 4.07627 0.174476 0
M  V30 1663 H 144.092 4.04252 -0.977384 0
M  V30 1664 H 142.669 3.64011 0.809326 0
M  V30 1665 N 144.854 0.36279 1.53368 0
M  V30 1666 C 146.079 -0.231226 2.06107 0
M  V30 1667 C 146.504 -1.419 1.23474 0
M  V30 1668 O 145.862 -1.79524 0.253128 0
M  V30 1669 C 145.91 -0.605523 3.5548 0
M  V30 1670 O 145.014 -1.70312 3.7559 0
M  V30 1671 H 144.355 -0.034327 0.663112 0
M  V30 1672 H 146.885 0.522584 1.97814 0
M  V30 1673 H 146.895 -0.877314 3.98456 0
M  V30 1674 H 145.57 0.263004 4.15068 0
M  V30 1675 H 144.147 -1.4271 3.44512 0
M  V30 1676 N 146.332 -1.57332 0.0918853 0
M  V30 1677 C 147.262 -2.16872 -0.865371 0
M  V30 1678 C 148.243 -1.10118 -1.29646 0
M  V30 1679 O 149.428 -1.38242 -1.36392 0
M  V30 1680 C 146.558 -2.74649 -2.12569 0
M  V30 1681 C 145.512 -3.86747 -1.83333 0
M  V30 1682 C 144.838 -4.31212 -3.16166 0
M  V30 1683 C 146.138 -5.10089 -1.1228 0
M  V30 1684 H 147.832 -2.97114 -0.369307 0
M  V30 1685 H 145.378 -1.42918 -0.176194 0
M  V30 1686 H 147.331 -3.14952 -2.7997 0
M  V30 1687 H 146.055 -1.91657 -2.64452 0
M  V30 1688 H 144.714 -3.46978 -1.18331 0
M  V30 1689 H 144.362 -3.45115 -3.6593 0
M  V30 1690 H 144.062 -5.06788 -2.97388 0
M  V30 1691 H 145.586 -4.74146 -3.84731 0
M  V30 1692 H 147 -5.47582 -1.69785 0
M  V30 1693 H 145.397 -5.91073 -1.03693 0
M  V30 1694 H 146.467 -4.84786 -0.105041 0
M  V30 1695 N 147.81 0.181792 -1.56548 0
M  V30 1696 C 149.056 0.901431 -1.81665 0
M  V30 1697 C 149.389 1.82347 -0.668075 0
M  V30 1698 O 148.664 1.91669 0.330615 0
M  V30 1699 C 148.947 1.70618 -3.17115 0
M  V30 1700 C 148.8 0.807964 -4.42484 0
M  V30 1701 C 150.119 2.67605 -3.49393 0
M  V30 1702 H 147.238 0.32627 -0.660846 0
M  V30 1703 H 149.88 0.168134 -1.89255 0
M  V30 1704 H 148.03 2.33133 -3.10775 0
M  V30 1705 H 149.702 0.19649 -4.60881 0
M  V30 1706 H 147.945 0.115411 -4.33646 0
M  V30 1707 H 148.616 1.40632 -5.33785 0
M  V30 1708 H 151.092 2.15218 -3.56118 0
M  V30 1709 H 149.968 3.20985 -4.45264 0
M  V30 1710 H 150.229 3.47298 -2.73563 0
M  V30 1711 N 149.288 1.51039 0.449983 0
M  V30 1712 C 150.235 1.71439 1.54523 0
M  V30 1713 C 151.205 0.555871 1.56522 0
M  V30 1714 O 152.39 0.788871 1.73728 0
M  V30 1715 C 149.53 1.83384 2.92343 0
M  V30 1716 C 148.643 3.10873 2.9997 0
M  V30 1717 C 147.778 3.13488 4.28834 0
M  V30 1718 C 146.817 4.35343 4.30282 0
M  V30 1719 N 145.954 4.35579 5.5065 0
M  V30 1720 H 150.794 2.64934 1.36433 0
M  V30 1721 H 148.331 1.31312 0.662982 0
M  V30 1722 H 150.289 1.88291 3.72293 0
M  V30 1723 H 148.919 0.933086 3.0902 0
M  V30 1724 H 147.971 3.15336 2.12761 0
M  V30 1725 H 149.283 4.00814 2.96901 0
M  V30 1726 H 148.437 3.17241 5.17149 0
M  V30 1727 H 147.176 2.21414 4.34543 0
M  V30 1728 H 146.181 4.3178 3.40362 0
M  V30 1729 H 147.406 5.28668 4.26248 0
M  V30 1730 H 145.352 3.46369 5.57104 0
M  V30 1731 H 145.269 5.19313 5.49409 0
M  V30 1732 H 146.537 4.43507 6.41032 0
M  V30 1733 N 150.766 -0.704594 1.40972 0
M  V30 1734 C 151.996 -1.49138 1.42974 0
M  V30 1735 C 152.404 -1.89175 0.0308406 0
M  V30 1736 O 151.747 -1.56734 -0.958138 0
M  V30 1737 C 151.809 -2.79016 2.26694 0
M  V30 1738 C 151.473 -2.61236 3.74973 0
M  V30 1739 C 152.47 -2.27773 4.67349 0
M  V30 1740 C 150.155 -2.77158 4.18914 0
M  V30 1741 C 152.149 -2.10457 6.01653 0
M  V30 1742 C 149.836 -2.59459 5.53285 0
M  V30 1743 C 150.834 -2.26158 6.4447 0
M  V30 1744 O 150.522 -2.08605 7.76363 0
M  V30 1745 H 150.254 -0.466443 0.489292 0
M  V30 1746 H 152.808 -0.8758 1.85793 0
M  V30 1747 H 151.038 -3.42947 1.78673 0
M  V30 1748 H 152.727 -3.40782 2.20504 0
M  V30 1749 H 153.493 -2.15095 4.34694 0
M  V30 1750 H 149.372 -3.02064 3.48251 0
M  V30 1751 H 152.916 -1.84387 6.72791 0
M  V30 1752 H 148.813 -2.71725 5.85522 0
M  V30 1753 H 149.581 -2.23439 7.87412 0
M  V30 1754 N 152.244 -1.26651 -0.937939 0
M  V30 1755 C 153.491 -1.12387 -1.6845 0
M  V30 1756 C 153.819 0.332208 -1.91642 0
M  V30 1757 O 153.074 1.2602 -1.49725 0
M  V30 1758 C 153.373 -1.84168 -3.06295 0
M  V30 1759 C 153.039 -3.34056 -3.02849 0
M  V30 1760 C 151.701 -3.74942 -3.01616 0
M  V30 1761 C 154.053 -4.29741 -2.9491 0
M  V30 1762 C 151.381 -5.09894 -2.90215 0
M  V30 1763 C 153.733 -5.64738 -2.8505 0
M  V30 1764 C 152.397 -6.0493 -2.82162 0
M  V30 1765 H 151.667 -0.411252 -0.616403 0
M  V30 1766 H 154.314 -1.57134 -1.09459 0
M  V30 1767 H 152.619 -1.319 -3.6893 0
M  V30 1768 H 154.316 -1.70569 -3.62915 0
M  V30 1769 H 150.906 -3.01534 -3.0459 0
M  V30 1770 H 155.09 -3.99133 -2.94969 0
M  V30 1771 H 150.346 -5.40194 -2.86358 0
M  V30 1772 H 154.52 -6.38561 -2.77872 0
M  V30 1773 H 152.147 -7.09457 -2.73084 0
M  V30 1774 N 153.722 1.14298 -1.08507 0
M  V30 1775 C 154.971 1.84708 -0.810305 0
M  V30 1776 C 155.284 1.83903 0.666271 0
M  V30 1777 O 156.49 2.50112 1.05624 0
M  V30 1778 C 154.946 3.31572 -1.39957 0
M  V30 1779 C 154.554 3.40791 -2.90801 0
M  V30 1780 C 156.298 4.07087 -1.20334 0
M  V30 1781 C 154.205 4.81872 -3.4286 0
M  V30 1782 H 153.135 0.691985 -0.299454 0
M  V30 1783 H 155.786 1.28841 -1.30661 0
M  V30 1784 H 154.168 3.87183 -0.830976 0
M  V30 1785 H 155.342 2.95225 -3.53806 0
M  V30 1786 H 153.657 2.78732 -3.0935 0
M  V30 1787 H 156.254 5.11225 -1.56693 0
M  V30 1788 H 156.597 4.16054 -0.143237 0
M  V30 1789 H 157.13 3.57779 -1.73893 0
M  V30 1790 H 153.869 4.78094 -4.48449 0
M  V30 1791 H 153.389 5.27972 -2.84615 0
M  V30 1792 H 155.068 5.50765 -3.39509 0
M  V30 1793 N 155.201 0.870884 1.31352 0
M  V30 1794 C 156.148 0.325425 2.28494 0
M  V30 1795 C 157.118 -0.576615 1.5577 0
M  V30 1796 O 158.303 -0.508059 1.83911 0
M  V30 1797 C 155.443 -0.466283 3.41935 0
M  V30 1798 C 154.556 0.463378 4.29508 0
M  V30 1799 C 153.691 -0.342544 5.30094 0
M  V30 1800 C 152.73 0.583486 6.09313 0
M  V30 1801 N 151.867 -0.186244 7.01853 0
M  V30 1802 H 156.707 1.15901 2.74538 0
M  V30 1803 H 154.244 0.58294 1.35056 0
M  V30 1804 H 156.202 -0.941085 4.06447 0
M  V30 1805 H 154.832 -1.26456 2.97 0
M  V30 1806 H 153.884 1.05663 3.65431 0
M  V30 1807 H 155.196 1.1734 4.84802 0
M  V30 1808 H 154.35 -0.879816 6.00287 0
M  V30 1809 H 153.089 -1.08585 4.75458 0
M  V30 1810 H 152.094 1.13251 5.3801 0
M  V30 1811 H 153.319 1.32566 6.66035 0
M  V30 1812 H 151.265 -0.912348 6.49625 0
M  V30 1813 H 151.182 0.464422 7.54572 0
M  V30 1814 H 152.45 -0.704716 7.76308 0
M  V30 1815 N 156.679 -1.44442 0.630414 0
M  V30 1816 C 157.919 -2.03934 0.137919 0
M  V30 1817 C 158.283 -1.48509 -1.21692 0
M  V30 1818 O 159.484 -1.99499 -1.80149 0
M  V30 1819 C 157.755 -3.57187 0.123373 0
M  V30 1820 S 159.314 -4.37741 -0.304604 0
M  V30 1821 H 156.132 -0.708401 0.0607353 0
M  V30 1822 H 158.734 -1.76835 0.833643 0
M  V30 1823 H 157.438 -3.95032 1.11256 0
M  V30 1824 H 156.969 -3.88895 -0.59362 0
M  V30 1825 H 158.984 -4.71403 -1.54897 0
M  V30 1826 N 158.157 -0.370918 -1.53173 0
M  V30 1827 C 159.12 0.460778 -2.24521 0
M  V30 1828 C 160.12 1.00536 -1.25496 0
M  V30 1829 O 161.31 0.890266 -1.49733 0
M  V30 1830 C 158.442 1.64457 -2.98608 0
M  V30 1831 H 159.635 -0.163613 -2.99453 0
M  V30 1832 H 157.188 -0.122699 -1.55818 0
M  V30 1833 H 157.923 2.30691 -2.2793 0
M  V30 1834 H 157.708 1.26099 -3.7127 0
M  V30 1835 H 159.198 2.23384 -3.5283 0
M  V30 1836 N 159.635 1.57281 -0.100228 0
M  V30 1837 C 160.583 2.15542 0.874328 0
M  V30 1838 C 161.577 1.09962 1.28859 0
M  V30 1839 O 162.783 1.28298 1.26252 0
M  V30 1840 H 159.158 0.689567 0.300003 0
M  V30 1841 H 161.129 2.96241 0.35829 0
M  V30 1842 C 159.878 2.75454 2.1218 0
M  V30 1843 H 159.201 3.56384 1.81193 0
M  V30 1844 H 160.641 3.19781 2.78417 0
M  V30 1845 C 159.1 1.71602 2.89921 0
M  V30 1846 O 159.63 1.15804 3.84646 0
M  V30 1847 N 157.836 1.41975 2.53558 0
M  V30 1848 H 157.383 1.87539 1.76598 0
M  V30 1849 H 157.341 0.727274 3.05873 0
M  V30 1850 N 161.113 -0.173488 1.56642 0
M  V30 1851 C 162.529 -0.525174 1.50712 0
M  V30 1852 C 162.729 -1.8476 0.804107 0
M  V30 1853 O 161.785 -2.49869 0.363574 0
M  V30 1854 C 163.098 -0.559937 2.95441 0
M  V30 1855 C 164.646 -0.647288 3.06234 0
M  V30 1856 C 165.121 -0.712963 4.52417 0
M  V30 1857 N 166.612 -0.775911 4.56655 0
M  V30 1858 C 167.347 -0.847264 5.67106 0
M  V30 1859 N 166.843 -0.879585 6.87194 0
M  V30 1860 N 168.636 -0.886117 5.55071 0
M  V30 1861 H 160.787 0.693681 2.00753 0
M  V30 1862 H 163.05 0.249841 0.914485 0
M  V30 1863 H 162.756 0.343049 3.50023 0
M  V30 1864 H 162.63 -1.40718 3.49969 0
M  V30 1865 H 165.017 -1.5407 2.51687 0
M  V30 1866 H 165.098 0.226586 2.54794 0
M  V30 1867 H 164.742 0.176183 5.07594 0
M  V30 1868 H 164.672 -1.60295 5.0161 0
M  V30 1869 H 167.163 -0.759304 3.70193 0
M  V30 1870 H 167.476 -0.935144 7.67121 0
M  V30 1871 H 165.821 -0.847898 6.89808 0
M  V30 1872 H 169.012 -0.857853 4.60172 0
M  V30 1873 H 169.185 -0.938263 6.41171 0
M  V30 1874 N 162.591 -1.51276 -0.441967 0
M  V30 1875 C 164.007 -1.39349 -0.778083 0
M  V30 1876 C 164.207 -0.472212 -1.95889 0
M  V30 1877 O 163.263 0.0743551 -2.5239 0
M  V30 1878 C 164.576 -2.81292 -1.0628 0
M  V30 1879 C 166.124 -2.9041 -1.16751 0
M  V30 1880 C 166.599 -4.33251 -1.48519 0
M  V30 1881 N 168.09 -4.36336 -1.55453 0
M  V30 1882 C 168.825 -5.43885 -1.81596 0
M  V30 1883 N 168.321 -6.61601 -2.05562 0
M  V30 1884 N 170.114 -5.3136 -1.8334 0
M  V30 1885 H 162.265 -2.09729 0.335774 0
M  V30 1886 H 164.528 -0.943925 0.0878028 0
M  V30 1887 H 164.234 -3.50678 -0.267905 0
M  V30 1888 H 164.108 -3.20334 -1.99163 0
M  V30 1889 H 166.495 -2.21225 -1.95304 0
M  V30 1890 H 166.576 -2.54871 -0.217801 0
M  V30 1891 H 166.22 -5.02984 -0.704958 0
M  V30 1892 H 166.15 -4.66299 -2.44689 0
M  V30 1893 H 168.641 -3.51466 -1.38853 0
M  V30 1894 H 168.954 -7.39361 -2.24867 0
M  V30 1895 H 167.299 -6.64725 -2.02894 0
M  V30 1896 H 170.49 -4.38382 -1.64132 0
M  V30 1897 H 170.663 -6.15258 -2.03377 0
M  V30 1898 N 164.069 0.697108 -1.41344 0
M  V30 1899 C 165.032 1.79281 -1.42797 0
M  V30 1900 C 166.032 1.57607 -0.318837 0
M  V30 1901 O 167.222 1.64309 -0.578642 0
M  V30 1902 C 164.354 3.17632 -1.23785 0
M  V30 1903 H 165.547 1.79385 -2.40335 0
M  V30 1904 H 163.1 0.904582 -1.27464 0
M  V30 1905 H 163.835 3.23167 -0.270814 0
M  V30 1906 H 163.62 3.34765 -2.04144 0
M  V30 1907 H 165.11 3.97617 -1.27633 0
M  V30 1908 N 165.547 1.27147 0.931209 0
M  V30 1909 C 166.958 1.12044 1.49342 0
M  V30 1910 C 167.309 -0.295795 1.93957 0
M  V30 1911 O 166.434 -1.18835 1.80852 0
M  V30 1912 C 167.029 2.02781 2.71414 0
M  V30 1913 C 165.588 1.91794 3.2387 0
M  V30 1914 C 164.735 1.95543 1.96617 0
M  V30 1915 H 167.686 1.40091 0.745672 0
M  V30 1916 H 167.707 1.58156 3.46074 0
M  V30 1917 H 167.219 3.05848 2.38911 0
M  V30 1918 H 165.32 0.916992 3.6114 0
M  V30 1919 H 165.433 2.77852 3.90302 0
M  V30 1920 H 163.797 1.39722 2.12955 0
M  V30 1921 H 164.58 3.00259 1.66432 0
M  V30 1922 N 167.025 -1.13721 1.09112 0
M  V30 1923 C 168.441 -1.36914 0.820174 0
M  V30 1924 C 168.641 -1.93356 -0.567079 0
M  V30 1925 O 167.697 -2.15093 -1.32255 0
M  V30 1926 C 169.01 -2.3235 1.90877 0
M  V30 1927 C 170.558 -2.45973 1.93562 0
M  V30 1928 C 171.033 -3.44714 3.01556 0
M  V30 1929 N 172.524 -3.52263 3.00775 0
M  V30 1930 C 173.259 -4.28536 3.80978 0
M  V30 1931 N 172.755 -5.07991 4.71081 0
M  V30 1932 N 174.548 -4.23804 3.69251 0
M  V30 1933 H 166.699 -0.754348 1.98553 0
M  V30 1934 H 168.962 -0.3944 0.862063 0
M  V30 1935 H 168.668 -1.98027 2.90651 0
M  V30 1936 H 168.542 -3.32332 1.78424 0
M  V30 1937 H 170.929 -2.79584 0.944286 0
M  V30 1938 H 171.01 -1.45926 2.10093 0
M  V30 1939 H 170.654 -3.11835 4.00901 0
M  V30 1940 H 170.584 -4.44558 2.82269 0
M  V30 1941 H 173.075 -2.95567 2.35475 0
M  V30 1942 H 173.388 -5.63487 5.28869 0
M  V30 1943 H 171.733 -5.07235 4.75119 0
M  V30 1944 H 174.924 -3.60806 2.98222 0
M  V30 1945 H 175.097 -4.82995 4.31995 0
M  V30 1946 N 168.503 -0.877838 -1.30888 0
M  V30 1947 C 169.433 -0.35534 -2.3078 0
M  V30 1948 C 170.414 0.557994 -1.60687 0
M  V30 1949 O 171.599 0.473355 -1.88343 0
M  V30 1950 C 168.729 0.437221 -3.44537 0
M  V30 1951 C 167.683 -0.383715 -4.26276 0
M  V30 1952 C 167.009 0.535014 -5.32017 0
M  V30 1953 C 168.309 -1.62201 -4.96476 0
M  V30 1954 H 170.003 -1.19007 -2.74732 0
M  V30 1955 H 167.549 -0.573698 -1.32078 0
M  V30 1956 H 169.502 0.813334 -4.13477 0
M  V30 1957 H 168.226 1.30553 -2.99372 0
M  V30 1958 H 166.885 -0.741874 -3.59015 0
M  V30 1959 H 166.533 1.40083 -4.831 0
M  V30 1960 H 166.233 -0.0104211 -5.87599 0
M  V30 1961 H 167.757 0.907799 -6.03814 0
M  V30 1962 H 169.171 -1.31689 -5.5797 0
M  V30 1963 H 167.568 -2.10711 -5.61891 0
M  V30 1964 H 168.638 -2.37044 -4.23011 0
M  V30 1965 N 169.982 1.44106 -0.638065 0
M  V30 1966 C 170.929 2.30715 0.062701 0
M  V30 1967 C 171.899 1.43882 0.829883 0
M  V30 1968 O 173.084 1.72775 0.809532 0
M  V30 1969 C 170.224 3.29258 1.03358 0
M  V30 1970 C 169.337 4.31192 0.26409 0
M  V30 1971 C 168.472 5.16825 1.22741 0
M  V30 1972 C 167.511 6.10462 0.447475 0
M  V30 1973 N 166.648 6.8877 1.36161 0
M  V30 1974 H 171.488 2.90096 -0.681781 0
M  V30 1975 H 169.025 1.42925 -0.347988 0
M  V30 1976 H 170.983 3.84886 1.60992 0
M  V30 1977 H 169.613 2.71562 1.74511 0
M  V30 1978 H 168.665 3.77981 -0.428295 0
M  V30 1979 H 169.977 4.97619 -0.343052 0
M  V30 1980 H 169.131 5.77004 1.87487 0
M  V30 1981 H 167.87 4.50488 1.86847 0
M  V30 1982 H 166.875 5.49386 -0.213433 0
M  V30 1983 H 168.1 6.78837 -0.188968 0
M  V30 1984 H 166.046 6.25096 1.98975 0
M  V30 1985 H 165.963 7.51663 0.808656 0
M  V30 1986 H 167.231 7.53467 1.99769 0
M  V30 1987 N 171.46 0.379036 1.52974 0
M  V30 1988 C 172.7 -0.206325 2.03356 0
M  V30 1989 C 173.064 -1.44892 1.25977 0
M  V30 1990 O 174.265 -2.11078 1.66432 0
M  V30 1991 C 172.536 -0.477887 3.54191 0
M  V30 1992 S 174.095 -1.035 4.26419 0
M  V30 1993 H 170.913 -0.0590259 0.708546 0
M  V30 1994 H 173.515 0.525013 1.88319 0
M  V30 1995 H 172.219 0.433745 4.08101 0
M  V30 1996 H 171.75 -1.23793 3.73415 0
M  V30 1997 H 173.765 -2.31821 4.38718 0
M  V30 1998 N 172.938 -1.57226 0.108567 0
M  V30 1999 C 173.87 -2.11809 -0.875752 0
M  V30 2000 C 174.883 -1.05839 -1.23701 0
M  V30 2001 O 176.072 -1.33245 -1.18778 0
M  V30 2002 C 173.172 -2.59411 -2.18081 0
M  V30 2003 C 172.345 -3.89364 -1.99284 0
M  V30 2004 C 171.404 -4.22672 -3.13424 0
M  V30 2005 O 170.43 -4.91668 -2.86795 0
M  V30 2006 N 171.632 -3.79154 -4.3957 0
M  V30 2007 H 174.397 -2.9689 -0.409477 0
M  V30 2008 H 171.958 -1.61721 -0.076158 0
M  V30 2009 H 173.95 -2.7873 -2.93414 0
M  V30 2010 H 172.52 -1.79268 -2.5609 0
M  V30 2011 H 171.74 -3.79059 -1.08203 0
M  V30 2012 H 173.028 -4.74358 -1.84017 0
M  V30 2013 H 172.426 -3.23486 -4.64083 0
M  V30 2014 H 170.983 -4.03602 -5.11809 0
M  V30 2015 N 174.416 0.165178 -1.56732 0
M  V30 2016 C 175.326 1.22423 -2.00125 0
M  V30 2017 C 176.342 1.48084 -0.913619 0
M  V30 2018 O 177.518 1.60112 -1.22172 0
M  V30 2019 C 174.583 2.54197 -2.35764 0
M  V30 2020 C 173.644 2.36343 -3.58386 0
M  V30 2021 C 172.877 3.61834 -3.92316 0
M  V30 2022 O 173.1 4.67267 -3.27135 0
M  V30 2023 O 172.034 3.55579 -4.85641 0
M  V30 2024 H 175.86 0.885886 -2.90492 0
M  V30 2025 H 173.445 0.372518 -1.44681 0
M  V30 2026 H 175.327 3.3192 -2.59629 0
M  V30 2027 H 174.002 2.87598 -1.48557 0
M  V30 2028 H 172.909 1.56632 -3.39731 0
M  V30 2029 H 174.242 2.07865 -4.46154 0
M  V30 2030 N 175.894 1.51508 0.433938 0
M  V30 2031 C 176.824 1.76016 1.53429 0
M  V30 2032 C 177.805 0.610112 1.58782 0
M  V30 2033 O 178.99 0.853177 1.74455 0
M  V30 2034 C 176.12 1.88831 2.9148 0
M  V30 2035 C 175.074 3.04288 3.00987 0
M  V30 2036 C 174.4 3.0229 4.4105 0
M  V30 2037 C 175.7 4.44193 2.74754 0
M  V30 2038 H 177.394 2.68152 1.33171 0
M  V30 2039 H 174.94 1.29035 0.639214 0
M  V30 2040 H 176.893 2.04559 3.6842 0
M  V30 2041 H 175.617 0.933455 3.12976 0
M  V30 2042 H 174.276 2.8827 2.26486 0
M  V30 2043 H 173.924 2.04576 4.59519 0
M  V30 2044 H 173.624 3.79822 4.4834 0
M  V30 2045 H 175.148 3.20116 5.1996 0
M  V30 2046 H 176.562 4.60544 3.41426 0
M  V30 2047 H 174.959 5.23457 2.9345 0
M  V30 2048 H 176.029 4.53996 1.70339 0
M  V30 2049 N 177.372 -0.689602 1.41712 0
M  V30 2050 C 178.302 -1.81577 1.46806 0
M  V30 2051 C 179.283 -1.66945 0.326105 0
M  V30 2052 O 180.468 -1.86588 0.538377 0
M  V30 2053 C 177.598 -3.19762 1.35535 0
M  V30 2054 C 176.552 -3.49107 2.47605 0
M  V30 2055 C 175.878 -4.86711 2.21397 0
M  V30 2056 C 177.178 -3.47483 3.89939 0
M  V30 2057 H 178.872 -1.7757 2.41058 0
M  V30 2058 H 176.418 -0.852887 1.16025 0
M  V30 2059 H 178.371 -3.98263 1.3771 0
M  V30 2060 H 177.095 -3.24409 0.377708 0
M  V30 2061 H 175.754 -2.72959 2.44722 0
M  V30 2062 H 175.402 -4.8799 1.21961 0
M  V30 2063 H 175.102 -5.0731 2.96497 0
M  V30 2064 H 176.626 -5.67515 2.25297 0
M  V30 2065 H 178.04 -4.1598 3.94505 0
M  V30 2066 H 176.437 -3.79615 4.64771 0
M  V30 2067 H 177.507 -2.46341 4.17665 0
M  V30 2068 N 178.85 -1.27639 -0.924453 0
M  V30 2069 C 179.798 -1.10485 -2.04685 0
M  V30 2070 C 180.792 -0.0270421 -1.69378 0
M  V30 2071 O 181.998 -0.185008 -1.79047 0
M  V30 2072 H 178.373 -0.340546 -0.670472 0
M  V30 2073 H 180.344 -2.05566 -2.16298 0
M  V30 2074 C 179.093 -0.772229 -3.39016 0
M  V30 2075 H 178.416 -1.59351 -3.66671 0
M  V30 2076 H 179.856 -0.692097 -4.18313 0
M  V30 2077 C 178.315 0.523554 -3.32807 0
M  V30 2078 O 178.845 1.55702 -3.70297 0
M  V30 2079 N 177.051 0.520363 -2.85903 0
M  V30 2080 H 176.598 -0.32107 -2.55591 0
M  V30 2081 H 176.556 1.38742 -2.82131 0
M  V30 2082 N 180.328 1.1314 -1.09713 0
M  V30 2083 C 181.558 1.88048 -0.855656 0
M  V30 2084 C 181.966 1.79537 0.596919 0
M  V30 2085 O 181.309 1.16196 1.42282 0
M  V30 2086 C 181.371 3.38314 -1.21589 0
M  V30 2087 C 181.035 3.70605 -2.67397 0
M  V30 2088 C 182.032 3.69596 -3.65643 0
M  V30 2089 C 179.717 4.0017 -3.03593 0
M  V30 2090 C 181.711 3.977 -4.9811 0
M  V30 2091 C 179.398 4.27935 -4.36251 0
M  V30 2092 C 180.396 4.26685 -5.33318 0
M  V30 2093 O 180.084 4.53767 -6.63589 0
M  V30 2094 H 179.816 0.60208 -0.307368 0
M  V30 2095 H 182.37 1.44128 -1.46343 0
M  V30 2096 H 180.6 3.82752 -0.551177 0
M  V30 2097 H 182.289 3.94552 -0.953083 0
M  V30 2098 H 183.055 3.46826 -3.39023 0
M  V30 2099 H 178.934 4.00289 -2.2867 0
M  V30 2100 H 182.478 3.9664 -5.73866 0
M  V30 2101 H 178.375 4.50178 -4.62613 0
M  V30 2102 H 179.143 4.71422 -6.69107 0
M  V30 2103 N 181.806 0.884767 1.30421 0
M  V30 2104 C 183.055 0.499164 1.95426 0
M  V30 2105 C 183.368 -0.95645 1.70621 0
M  V30 2106 O 184.574 -1.44889 2.29607 0
M  V30 2107 C 183.03 0.84177 3.49917 0
M  V30 2108 C 182.638 2.31514 3.83543 0
M  V30 2109 C 184.382 0.525355 4.21237 0
M  V30 2110 C 182.289 2.59939 5.31212 0
M  V30 2111 H 181.219 0.182944 0.73147 0
M  V30 2112 H 183.87 1.07971 1.48373 0
M  V30 2113 H 182.252 0.190311 3.95542 0
M  V30 2114 H 183.426 3.0109 3.48829 0
M  V30 2115 H 181.741 2.59907 3.25326 0
M  V30 2116 H 184.338 0.714762 5.29901 0
M  V30 2117 H 184.681 -0.535222 4.12845 0
M  V30 2118 H 185.214 1.134 3.81294 0
M  V30 2119 H 181.953 3.64736 5.44654 0
M  V30 2120 H 181.473 1.94972 5.67227 0
M  V30 2121 H 183.152 2.45429 5.98643 0
M  V30 2122 N 183.284 -1.43765 0.645699 0
M  V30 2123 C 184.217 -2.2798 -0.100072 0
M  V30 2124 C 185.195 -1.39391 -0.837194 0
M  V30 2125 O 186.379 -1.68833 -0.838306 0
M  V30 2126 C 183.506 -3.18643 -1.14823 0
M  V30 2127 C 182.552 -4.2344 -0.510009 0
M  V30 2128 S 183.385 -5.30761 0.710824 0
M  V30 2129 C 184.541 -6.24992 -0.33699 0
M  V30 2130 H 184.774 -2.90884 0.614322 0
M  V30 2131 H 182.307 -1.48166 0.434304 0
M  V30 2132 H 184.265 -3.71424 -1.74799 0
M  V30 2133 H 182.926 -2.54932 -1.8349 0
M  V30 2134 H 182.119 -4.86948 -1.29991 0
M  V30 2135 H 181.721 -3.73997 0.0154577 0
M  V30 2136 H 184.013 -6.66691 -1.20537 0
M  V30 2137 H 184.956 -7.07612 0.262879 0
M  V30 2138 H 185.364 -5.60517 -0.669425 0
M  V30 2139 N 184.763 -0.387143 -1.52771 0
M  V30 2140 C 186.04 0.253197 -1.93954 0
M  V30 2141 C 186.42 1.64545 -1.32243 0
M  V30 2142 O 185.768 2.23191 -0.489699 0
M  V30 2143 C 185.978 0.281722 -3.47861 0
M  V30 2144 C 187.326 0.511715 -4.21505 0
M  V30 2145 O 188.35 0.362023 -3.54356 0
M  V30 2146 O 187.209 0.804847 -5.40541 0
M  V30 2147 H 184.303 0.156845 -0.811991 0
M  V30 2148 H 186.849 -0.441494 -1.63856 0
M  V30 2149 H 185.621 -0.693571 -3.85104 0
M  V30 2150 H 185.244 1.02142 -3.84256 0
M  V30 2151 N 186.241 1.57166 -0.116904 0
M  V30 2152 C 187.469 1.99473 0.549383 0
M  V30 2153 C 187.884 0.996541 1.60357 0
M  V30 2154 O 187.241 -0.0108731 1.82497 0
M  V30 2155 C 187.292 3.41788 1.17741 0
M  V30 2156 O 187.013 4.37788 0.165362 0
M  V30 2157 C 188.514 3.99216 1.92722 0
M  V30 2158 H 185.734 0.655009 0.145616 0
M  V30 2159 H 188.278 2.03494 -0.202625 0
M  V30 2160 H 186.433 3.38713 1.88021 0
M  V30 2161 H 186.847 5.20806 0.621403 0
M  V30 2162 H 188.321 5.00882 2.31995 0
M  V30 2163 H 188.798 3.3824 2.80161 0
M  V30 2164 H 189.404 4.0583 1.27209 0
M  V30 2165 N 187.719 -0.156864 1.56817 0
M  V30 2166 C 188.965 -0.872416 1.83076 0
M  V30 2167 C 189.298 -1.81261 0.697001 0
M  V30 2168 O 188.573 -1.92171 -0.30008 0
M  V30 2169 C 188.856 -1.65551 3.19789 0
M  V30 2170 C 188.709 -0.737467 4.43713 0
M  V30 2171 C 190.028 -2.62012 3.53606 0
M  V30 2172 H 187.147 -0.315715 0.665953 0
M  V30 2173 H 189.789 -0.138004 1.89498 0
M  V30 2174 H 187.939 -2.28159 3.14445 0
M  V30 2175 H 189.611 -0.123143 4.61136 0
M  V30 2176 H 187.854 -0.0464067 4.33775 0
M  V30 2177 H 188.525 -1.32122 5.35955 0
M  V30 2178 H 191.001 -2.09525 3.59497 0
M  V30 2179 H 189.877 -3.13861 4.50314 0
M  V30 2180 H 190.138 -3.42902 2.79053 0
M  V30 2181 N 189.197 -1.51736 -0.425897 0
M  V30 2182 C 190.144 -1.73875 -1.51776 0
M  V30 2183 C 191.114 -0.580702 -1.55618 0
M  V30 2184 O 192.299 -0.81641 -1.72451 0
M  V30 2185 C 189.439 -1.88012 -2.89388 0
M  V30 2186 C 188.552 -3.15606 -2.94986 0
M  V30 2187 C 187.687 -3.20271 -4.23793 0
M  V30 2188 C 186.726 -4.42134 -4.23302 0
M  V30 2189 N 185.863 -4.44284 -5.43651 0
M  V30 2190 H 190.703 -2.67071 -1.32201 0
M  V30 2191 H 188.24 -1.32351 -0.642008 0
M  V30 2192 H 190.198 -1.9419 -3.69251 0
M  V30 2193 H 188.828 -0.98213 -3.07496 0
M  V30 2194 H 187.88 -3.18681 -2.07717 0
M  V30 2195 H 189.192 -4.05486 -2.90486 0
M  V30 2196 H 188.346 -3.25428 -5.12036 0
M  V30 2197 H 187.085 -2.28299 -4.30965 0
M  V30 2198 H 186.09 -4.3714 -3.3345 0
M  V30 2199 H 187.315 -5.35382 -4.17783 0
M  V30 2200 H 185.261 -3.55188 -5.51523 0
M  V30 2201 H 185.178 -5.27988 -5.41078 0
M  V30 2202 H 186.446 -4.53649 -6.33895 0
M  V30 2203 N 190.675 0.682077 -1.42076 0
M  V30 2204 C 191.952 1.43755 -1.32642 0
M  V30 2205 C 192.332 2.11063 0.0396611 0
M  V30 2206 O 191.68 2.02701 1.05474 0
M  V30 2207 C 191.89 2.44596 -2.48946 0
M  V30 2208 C 193.238 3.09454 -2.9073 0
M  V30 2209 O 194.262 2.54922 -2.48783 0
M  V30 2210 O 193.121 4.08253 -3.63307 0
M  V30 2211 H 190.215 0.640857 -0.522715 0
M  V30 2212 H 192.761 0.711415 -1.54068 0
M  V30 2213 H 191.533 1.93609 -3.40046 0
M  V30 2214 H 191.156 3.24701 -2.29467 0
M  V30 2215 N 192.153 1.28127 0.917671 0
M  V30 2216 C 193.378 1.18007 1.70555 0
M  V30 2217 C 193.803 -0.258257 1.86319 0
M  V30 2218 O 193.161 -1.1869 1.37049 0
M  V30 2219 C 193.209 1.87948 3.07746 0
M  V30 2220 O 192.313 1.18427 3.9503 0
M  V30 2221 H 191.654 0.409867 0.522403 0
M  V30 2222 H 194.184 1.69379 1.1477 0
M  V30 2223 H 194.194 1.95701 3.58001 0
M  V30 2224 H 192.869 2.92573 2.95591 0
M  V30 2225 H 191.446 1.18811 3.53466 0
M  V30 2226 N 193.631 -1.12557 1.10312 0
M  V30 2227 C 194.856 -1.88405 0.867085 0
M  V30 2228 C 195.281 -1.79038 -0.576817 0
M  V30 2229 O 194.639 -1.14439 -1.40618 0
M  V30 2230 C 194.687 -3.3563 1.31851 0
M  V30 2231 O 193.791 -4.09565 0.482734 0
M  V30 2232 H 193.132 -0.585455 0.313271 0
M  V30 2233 H 195.662 -1.42352 1.4696 0
M  V30 2234 H 195.672 -3.86469 1.3079 0
M  V30 2235 H 194.347 -3.41765 2.37001 0
M  V30 2236 H 192.924 -3.68695 0.558448 0
M  V30 2237 N 195.109 -0.891671 -1.2995 0
M  V30 2238 C 196.057 -0.353066 -2.29905 0
M  V30 2239 C 197.051 0.543509 -1.60444 0
M  V30 2240 O 198.257 0.4272 -1.74857 0
M  V30 2241 H 194.632 -0.095531 -0.745907 0
M  V30 2242 H 196.603 -1.20961 -2.72784 0
M  V30 2243 C 195.352 0.411475 -3.45257 0
M  V30 2244 H 194.675 -0.269182 -3.98893 0
M  V30 2245 H 196.115 0.753328 -4.17254 0
M  V30 2246 C 194.574 1.6111 -2.9588 0
M  V30 2247 O 195.104 2.71045 -2.96475 0
M  V30 2248 N 193.31 1.45054 -2.51809 0
M  V30 2249 H 192.857 0.556175 -2.51524 0
M  V30 2250 H 192.815 2.25453 -2.1913 0
M  V30 2251 N 196.587 1.43421 -0.653314 0
M  V30 2252 C 197.835 2.01414 -0.166415 0
M  V30 2253 C 198.156 1.51803 1.22397 0
M  V30 2254 O 197.426 0.730693 1.81763 0
M  V30 2255 H 196.006 0.744703 -0.0585319 0
M  V30 2256 H 198.668 1.75629 -0.845003 0
M  V30 2257 H 197.764 3.11734 -0.151111 0
M  V30 2258 N 198.065 0.39524 1.52563 0
M  V30 2259 C 199.028 -0.425001 2.25225 0
M  V30 2260 C 200.028 -0.985266 1.27079 0
M  V30 2261 O 201.218 -0.866332 1.5113 0
M  V30 2262 C 198.35 -1.59686 3.01186 0
M  V30 2263 H 199.543 0.211233 2.99155 0
M  V30 2264 H 197.096 0.147472 1.55603 0
M  V30 2265 H 197.831 -2.27035 2.31572 0
M  V30 2266 H 197.616 -1.20176 3.73229 0
M  V30 2267 H 199.106 -2.17743 3.5634 0
M  V30 2268 N 199.544 -1.57102 0.125237 0
M  V30 2269 C 200.793 -1.94582 -0.531095 0
M  V30 2270 C 201.106 -1.01126 -1.6743 0
M  V30 2271 O 202.312 -1.28097 -2.39381 0
M  V30 2272 C 200.768 -3.45839 -0.996164 0
M  V30 2273 C 200.376 -4.47842 0.118926 0
M  V30 2274 C 202.12 -3.92227 -1.62352 0
M  V30 2275 C 200.027 -5.90284 -0.363192 0
M  V30 2276 H 198.957 -0.726391 -0.20217 0
M  V30 2277 H 201.608 -1.82339 0.206092 0
M  V30 2278 H 199.99 -3.53338 -1.78796 0
M  V30 2279 H 201.164 -4.52018 0.895358 0
M  V30 2280 H 199.479 -4.11243 0.653324 0
M  V30 2281 H 202.076 -4.96069 -1.99548 0
M  V30 2282 H 202.419 -3.32552 -2.50429 0
M  V30 2283 H 202.952 -3.87554 -0.897019 0
M  V30 2284 H 199.691 -6.53728 0.481679 0
M  V30 2285 H 199.211 -5.89515 -1.10597 0
M  V30 2286 H 200.89 -6.41752 -0.822377 0
M  V30 2287 N 201.022 0.148545 -1.56898 0
M  V30 2288 C 202.252 0.875118 -1.8715 0
M  V30 2289 C 202.66 1.75322 -0.711262 0
M  V30 2290 O 202.003 1.80745 0.328151 0
M  V30 2291 C 202.065 1.7844 -3.12089 0
M  V30 2292 C 201.729 1.08361 -4.43967 0
M  V30 2293 C 202.726 0.438247 -5.1805 0
M  V30 2294 C 200.411 1.07358 -4.90693 0
M  V30 2295 C 202.405 -0.20779 -6.37061 0
M  V30 2296 C 200.092 0.42373 -6.09629 0
M  V30 2297 C 201.09 -0.215829 -6.82659 0
M  V30 2298 O 200.778 -0.855378 -7.99336 0
M  V30 2299 H 200.51 0.258504 -0.624621 0
M  V30 2300 H 203.064 0.14652 -2.04877 0
M  V30 2301 H 201.294 2.55389 -2.90367 0
M  V30 2302 H 202.983 2.38279 -3.286 0
M  V30 2303 H 203.749 0.437817 -4.8302 0
M  V30 2304 H 199.628 1.5608 -4.33774 0
M  V30 2305 H 203.172 -0.70758 -6.94002 0
M  V30 2306 H 199.069 0.421822 -6.4412 0
M  V30 2307 H 199.837 -0.756892 -8.14993 0
M  V30 2308 N 202.5 1.5196 0.417844 0
M  V30 2309 C 203.748 1.65263 1.16329 0
M  V30 2310 C 204.069 0.380634 1.91249 0
M  V30 2311 O 203.339 -0.604214 1.86349 0
M  V30 2312 H 201.919 0.60912 0.432414 0
M  V30 2313 H 204.581 1.88969 0.477162 0
M  V30 2314 H 203.677 2.4896 1.88217 0
M  V30 2315 N 203.978 -0.674533 1.42435 0
M  V30 2316 C 204.941 -1.76986 1.45632 0
M  V30 2317 C 205.941 -1.5708 0.343871 0
M  V30 2318 O 207.131 -1.63367 0.604709 0
M  V30 2319 C 204.263 -3.15623 1.28822 0
M  V30 2320 H 205.456 -1.75539 2.43158 0
M  V30 2321 H 203.009 -0.884189 1.28887 0
M  V30 2322 H 203.744 -3.22696 0.322193 0
M  V30 2323 H 203.529 -3.31475 2.09444 0
M  V30 2324 H 205.019 -3.95537 1.33942 0
M  V30 2325 N 205.456 -1.28612 -0.910864 0
M  V30 2326 C 206.733 -1.06632 -1.63979 0
M  V30 2327 C 207.113 0.393351 -2.07403 0
M  V30 2328 O 206.461 1.37999 -1.82122 0
M  V30 2329 C 206.671 -2.0436 -2.8291 0
M  V30 2330 C 208.019 -2.34666 -3.5386 0
M  V30 2331 O 209.043 -2.02467 -2.93062 0
M  V30 2332 O 207.902 -2.89631 -4.63439 0
M  V30 2333 H 204.996 -0.407737 -0.7195 0
M  V30 2334 H 207.542 -1.39942 -0.959914 0
M  V30 2335 H 206.314 -3.02727 -2.47936 0
M  V30 2336 H 205.937 -1.71714 -3.58609 0
M  V30 2337 N 206.934 1.1197 -1.10907 0
M  V30 2338 C 208.174 1.85224 -0.864378 0
M  V30 2339 C 208.538 1.82411 0.599178 0
M  V30 2340 O 209.739 2.51057 0.960416 0
M  V30 2341 C 208.01 3.2868 -1.40371 0
M  V30 2342 S 209.569 4.1925 -1.29518 0
M  V30 2343 H 206.387 0.63878 -0.312219 0
M  V30 2344 H 208.989 1.3485 -1.41548 0
M  V30 2345 H 207.693 3.28289 -2.46281 0
M  V30 2346 H 207.224 3.84121 -0.849402 0
M  V30 2347 H 209.239 4.95539 -0.256059 0
M  V30 2348 N 208.412 0.89855 1.29475 0
M  V30 2349 C 209.637 0.538561 2.00285 0
M  V30 2350 C 210.062 -0.869135 1.66816 0
M  V30 2351 O 209.42 -1.57831 0.892145 0
M  V30 2352 C 209.468 0.736475 3.52999 0
M  V30 2353 O 208.572 -0.211537 4.11857 0
M  V30 2354 H 207.913 0.210563 0.62973 0
M  V30 2355 H 210.443 1.20982 1.64998 0
M  V30 2356 H 210.453 0.640685 4.02938 0
M  V30 2357 H 209.128 1.76276 3.76696 0
M  V30 2358 H 207.705 -0.0682991 3.72837 0
M  V30 2359 N 209.89 -1.43072 0.660911 0
M  V30 2360 C 210.838 -2.32569 -0.0378199 0
M  V30 2361 C 211.832 -1.49046 -0.805092 0
M  V30 2362 O 213.038 -1.65206 -0.714624 0
M  V30 2363 H 209.413 -0.75136 -0.031019 0
M  V30 2364 H 211.384 -2.89216 0.734609 0
M  V30 2365 C 210.133 -3.33453 -0.985124 0
M  V30 2366 H 209.456 -3.97752 -0.404147 0
M  V30 2367 H 210.896 -3.98691 -1.44297 0
M  V30 2368 C 209.355 -2.64642 -2.08486 0
M  V30 2369 O 209.885 -2.46776 -3.16961 0
M  V30 2370 N 208.091 -2.23891 -1.8526 0
M  V30 2371 H 207.638 -2.38621 -0.970449 0
M  V30 2372 H 207.596 -1.78181 -2.59034 0
M  V30 2373 N 211.368 -0.403325 -1.52352 0
M  V30 2374 C 212.617 0.175668 -2.00934 0
M  V30 2375 C 212.93 1.46718 -1.29356 0
M  V30 2376 O 214.136 2.12708 -1.68724 0
M  V30 2377 C 212.592 0.363612 -3.58058 0
M  V30 2378 C 212.2 -0.915472 -4.38547 0
M  V30 2379 C 213.944 0.89821 -4.14888 0
M  V30 2380 C 211.851 -0.695035 -5.87302 0
M  V30 2381 H 210.781 0.0694234 -0.750797 0
M  V30 2382 H 213.432 -0.527879 -1.75743 0
M  V30 2383 H 211.814 1.12935 -3.79555 0
M  V30 2384 H 212.988 -1.68691 -4.28812 0
M  V30 2385 H 211.303 -1.37606 -3.93006 0
M  V30 2386 H 213.9 1.07907 -5.23699 0
M  V30 2387 H 214.243 1.87126 -3.71873 0
M  V30 2388 H 214.776 0.191681 -3.97338 0
M  V30 2389 H 211.515 -1.63948 -6.34666 0
M  V30 2390 H 211.035 0.0372116 -5.99788 0
M  V30 2391 H 212.714 -0.33497 -6.46132 0
M  V30 2392 N 212.846 1.57033 -0.133567 0
M  V30 2393 C 213.776 2.1909 0.807567 0
M  V30 2394 C 214.757 1.13517 1.26681 0
M  V30 2395 O 215.942 1.41809 1.32679 0
M  V30 2396 C 213.072 2.80188 2.05212 0
M  V30 2397 C 212.026 3.91471 1.73015 0
M  V30 2398 C 211.352 4.39443 3.04622 0
M  V30 2399 C 212.652 5.12886 0.987168 0
M  V30 2400 H 214.346 2.97988 0.290403 0
M  V30 2401 H 211.892 1.43335 0.138239 0
M  V30 2402 H 213.845 3.22264 2.71521 0
M  V30 2403 H 212.569 1.98601 2.59278 0
M  V30 2404 H 211.228 3.49993 1.0909 0
M  V30 2405 H 210.876 3.54695 3.56651 0
M  V30 2406 H 210.576 5.14495 2.83847 0
M  V30 2407 H 212.1 4.8418 3.72024 0
M  V30 2408 H 213.514 5.51891 1.55208 0
M  V30 2409 H 211.911 5.93615 0.87985 0
M  V30 2410 H 212.981 4.84894 -0.0235286 0
M  V30 2411 N 214.325 -0.140222 1.56975 0
M  V30 2412 C 215.255 -1.17456 2.01808 0
M  V30 2413 C 216.236 -1.44415 0.898794 0
M  V30 2414 O 217.421 -1.5522 1.16707 0
M  V30 2415 C 214.551 -2.50607 2.40444 0
M  V30 2416 C 213.505 -2.38155 3.55621 0
M  V30 2417 C 212.831 -3.76078 3.80091 0
M  V30 2418 C 214.131 -1.85991 4.88062 0
M  V30 2419 H 215.825 -0.801743 2.88466 0
M  V30 2420 H 213.371 -0.38422 1.38779 0
M  V30 2421 H 215.324 -3.23197 2.7041 0
M  V30 2422 H 214.048 -2.89737 1.50732 0
M  V30 2423 H 212.707 -1.68016 3.25832 0
M  V30 2424 H 212.355 -4.12656 2.87618 0
M  V30 2425 H 212.055 -3.68606 4.57606 0
M  V30 2426 H 213.579 -4.50206 4.12488 0
M  V30 2427 H 214.993 -2.4838 5.16701 0
M  V30 2428 H 213.39 -1.89393 5.6943 0
M  V30 2429 H 214.46 -0.816023 4.77984 0
M  V30 2430 N 215.803 -1.52179 -0.40978 0
M  V30 2431 C 216.75 -1.75475 -1.49924 0
M  V30 2432 C 217.72 -0.597175 -1.54994 0
M  V30 2433 O 218.905 -0.834655 -1.71575 0
M  V30 2434 C 216.045 -1.9107 -2.87378 0
M  V30 2435 C 215.158 -3.18717 -2.91622 0
M  V30 2436 C 214.293 -3.24747 -4.20372 0
M  V30 2437 C 213.332 -4.46598 -4.18588 0
M  V30 2438 N 212.469 -4.50025 -5.38908 0
M  V30 2439 H 217.309 -2.68458 -1.29361 0
M  V30 2440 H 214.846 -1.33024 -0.627934 0
M  V30 2441 H 216.804 -1.98096 -3.6717 0
M  V30 2442 H 215.434 -1.01469 -3.06437 0
M  V30 2443 H 214.486 -3.20866 -2.04326 0
M  V30 2444 H 215.798 -4.08544 -2.86169 0
M  V30 2445 H 214.952 -3.30841 -5.08556 0
M  V30 2446 H 213.691 -2.32857 -4.28519 0
M  V30 2447 H 212.696 -4.40652 -3.28794 0
M  V30 2448 H 213.921 -5.39783 -4.12081 0
M  V30 2449 H 211.867 -3.61017 -5.47725 0
M  V30 2450 H 211.784 -5.33697 -5.35447 0
M  V30 2451 H 213.052 -4.60347 -6.29048 0
M  V30 2452 N 217.281 0.66697 -1.42791 0
M  V30 2453 C 218.558 1.4234 -1.34159 0
M  V30 2454 C 218.938 2.11093 0.0172729 0
M  V30 2455 O 218.286 2.03808 1.03318 0
M  V30 2456 C 218.496 2.41942 -2.51526 0
M  V30 2457 C 219.844 3.06353 -2.93995 0
M  V30 2458 O 220.868 2.52269 -2.51473 0
M  V30 2459 O 219.727 4.04376 -3.67617 0
M  V30 2460 H 216.821 0.635277 -0.529483 0
M  V30 2461 H 219.367 0.695034 -1.54814 0
M  V30 2462 H 218.139 1.89991 -3.42081 0
M  V30 2463 H 217.762 3.22249 -2.32898 0
M  V30 2464 N 218.759 1.29093 0.90403 0
M  V30 2465 C 220.008 1.16187 1.64874 0
M  V30 2466 C 220.321 -0.286742 1.93487 0
M  V30 2467 O 221.527 -0.537062 2.66135 0
M  V30 2468 C 219.983 2.03177 2.97064 0
M  V30 2469 C 219.591 3.52836 2.76062 0
M  V30 2470 C 221.335 1.98984 3.74974 0
M  V30 2471 C 219.242 4.31945 4.03952 0
M  V30 2472 H 218.172 0.431246 0.618501 0
M  V30 2473 H 220.823 1.53699 1.00243 0
M  V30 2474 H 219.205 1.5853 3.62883 0
M  V30 2475 H 220.379 4.05507 2.18863 0
M  V30 2476 H 218.694 3.58656 2.11553 0
M  V30 2477 H 221.291 2.55351 4.69787 0
M  V30 2478 H 221.634 0.968815 4.0487 0
M  V30 2479 H 222.167 2.41652 3.15989 0
M  V30 2480 H 218.906 5.34667 3.79225 0
M  V30 2481 H 218.426 3.84045 4.60727 0
M  V30 2482 H 220.105 4.42379 4.72133 0
M  V30 2483 N 220.237 -1.11381 1.11499 0
M  V30 2484 C 221.167 -2.19509 0.796125 0
M  V30 2485 C 222.148 -1.68458 -0.235796 0
M  V30 2486 O 223.333 -1.93947 -0.0991344 0
M  V30 2487 C 220.463 -3.46475 0.239205 0
M  V30 2488 C 219.417 -4.10744 1.20307 0
M  V30 2489 C 218.743 -5.32293 0.50683 0
M  V30 2490 C 220.043 -4.55597 2.55399 0
M  V30 2491 H 221.737 -2.46439 1.70024 0
M  V30 2492 H 219.283 -1.18446 0.818935 0
M  V30 2493 H 221.236 -4.214 0.00392006 0
M  V30 2494 H 219.96 -3.19006 -0.700206 0
M  V30 2495 H 218.619 -3.37813 1.42399 0
M  V30 2496 H 218.267 -5.01095 -0.437408 0
M  V30 2497 H 217.967 -5.76243 1.1497 0
M  V30 2498 H 219.491 -6.09956 0.280351 0
M  V30 2499 H 220.905 -5.21841 2.37391 0
M  V30 2500 H 219.302 -5.10363 3.15673 0
M  V30 2501 H 220.372 -3.69013 3.14575 0
M  V30 2502 N 221.715 -0.905404 -1.28997 0
M  V30 2503 C 222.94 -0.549175 -1.99997 0
M  V30 2504 C 223.365 0.860276 -1.67275 0
M  V30 2505 O 222.723 1.57355 -0.900502 0
M  V30 2506 C 222.771 -0.755185 -3.52604 0
M  V30 2507 O 221.875 0.189692 -4.11964 0
M  V30 2508 H 221.216 -0.213899 -0.628604 0
M  V30 2509 H 223.746 -1.21856 -1.64354 0
M  V30 2510 H 223.756 -0.662045 -4.02593 0
M  V30 2511 H 222.431 -1.78271 -3.75755 0
M  V30 2512 H 221.008 0.0485257 -3.72868 0
M  V30 2513 N 223.193 1.4272 -0.668489 0
M  V30 2514 C 224.439 2.01923 -0.188419 0
M  V30 2515 C 224.772 1.52704 1.19979 0
M  V30 2516 O 224.047 0.726566 1.8042 0
M  V30 2517 C 224.33 3.59451 -0.216085 0
M  V30 2518 C 224.183 4.18864 -1.6393 0
M  V30 2519 C 225.502 4.37903 0.439179 0
M  V30 2520 H 222.621 0.733674 -0.0699412 0
M  V30 2521 H 225.263 1.69822 -0.852076 0
M  V30 2522 H 223.413 3.86929 0.349012 0
M  V30 2523 H 225.085 4.02362 -2.25616 0
M  V30 2524 H 223.328 3.74933 -2.18193 0
M  V30 2525 H 223.999 5.27987 -1.61039 0
M  V30 2526 H 226.475 4.16079 -0.0417878 0
M  V30 2527 H 225.351 5.47519 0.389157 0
M  V30 2528 H 225.612 4.15303 1.51577 0
M  V30 2529 N 224.671 0.411399 1.52136 0
M  V30 2530 C 226.087 0.0623865 1.59478 0
M  V30 2531 C 226.287 -1.42554 1.4241 0
M  V30 2532 O 225.343 -2.19263 1.2522 0
M  V30 2533 C 226.656 0.559331 2.95452 0
M  V30 2534 C 228.204 0.517503 3.08692 0
M  V30 2535 C 228.679 0.990994 4.4715 0
M  V30 2536 N 230.17 0.947908 4.53397 0
M  V30 2537 C 230.905 1.28544 5.58806 0
M  V30 2538 N 230.401 1.69454 6.71757 0
M  V30 2539 N 232.194 1.20526 5.49026 0
M  V30 2540 H 224.345 1.37982 1.61477 0
M  V30 2541 H 226.608 0.566977 0.759764 0
M  V30 2542 H 226.314 1.59938 3.1323 0
M  V30 2543 H 226.188 -0.0298014 3.77188 0
M  V30 2544 H 228.575 -0.513505 2.90598 0
M  V30 2545 H 228.656 1.14272 2.28857 0
M  V30 2546 H 228.3 2.02034 4.65988 0
M  V30 2547 H 228.23 0.34257 5.25485 0
M  V30 2548 H 230.721 0.647157 3.72317 0
M  V30 2549 H 231.034 1.93513 7.48179 0
M  V30 2550 H 229.379 1.73359 6.73032 0
M  V30 2551 H 232.57 0.884505 4.59667 0
M  V30 2552 H 232.743 1.47161 6.31069 0
M  V30 2553 N 226.149 -1.5696 0.141893 0
M  V30 2554 C 227.096 -2.16501 -0.799737 0
M  V30 2555 C 228.066 -1.09643 -1.24771 0
M  V30 2556 O 229.251 -1.3766 -1.32115 0
M  V30 2557 C 226.391 -2.78679 -2.03549 0
M  V30 2558 C 225.504 -3.99914 -1.6338 0
M  V30 2559 C 224.639 -4.50106 -2.82096 0
M  V30 2560 C 223.678 -5.63819 -2.38275 0
M  V30 2561 N 222.815 -6.08651 -3.49983 0
M  V30 2562 H 227.655 -2.96632 -0.285179 0
M  V30 2563 H 225.192 -1.46533 -0.129053 0
M  V30 2564 H 227.15 -3.1287 -2.75986 0
M  V30 2565 H 225.78 -2.012 -2.52425 0
M  V30 2566 H 224.832 -3.71735 -0.807279 0
M  V30 2567 H 226.144 -4.82311 -1.27192 0
M  V30 2568 H 225.298 -4.86325 -3.62729 0
M  V30 2569 H 224.037 -3.66706 -3.21525 0
M  V30 2570 H 223.042 -5.2718 -1.56081 0
M  V30 2571 H 224.267 -6.49 -1.99938 0
M  V30 2572 H 222.213 -5.28188 -3.89042 0
M  V30 2573 H 222.13 -6.85961 -3.17794 0
M  V30 2574 H 223.398 -6.49515 -4.30988 0
M  V30 2575 N 227.627 0.131896 -1.57047 0
M  V30 2576 C 228.857 0.855219 -1.88068 0
M  V30 2577 C 229.265 1.74557 -0.729817 0
M  V30 2578 O 228.608 1.81083 0.308962 0
M  V30 2579 C 228.67 1.75119 -3.13964 0
M  V30 2580 C 228.334 1.03646 -4.45091 0
M  V30 2581 C 229.331 0.383276 -5.18485 0
M  V30 2582 C 227.016 1.02148 -4.91804 0
M  V30 2583 C 229.01 -0.275347 -6.36805 0
M  V30 2584 C 226.697 0.359047 -6.10044 0
M  V30 2585 C 227.695 -0.288222 -6.82392 0
M  V30 2586 O 227.383 -0.94011 -7.98384 0
M  V30 2587 H 227.115 0.251864 -0.627328 0
M  V30 2588 H 229.669 0.124782 -2.05021 0
M  V30 2589 H 227.899 2.52295 -2.9306 0
M  V30 2590 H 229.588 2.3478 -3.31109 0
M  V30 2591 H 230.354 0.386562 -4.83457 0
M  V30 2592 H 226.233 1.5147 -4.35405 0
M  V30 2593 H 229.777 -0.781148 -6.93213 0
M  V30 2594 H 225.674 0.35348 -6.44531 0
M  V30 2595 H 226.442 -0.84329 -8.14144 0
M  V30 2596 N 229.106 1.52395 0.401703 0
M  V30 2597 C 230.352 1.68019 1.14635 0
M  V30 2598 C 230.707 0.408722 1.88009 0
M  V30 2599 O 230 -0.597133 1.82057 0
M  V30 2600 C 230.194 2.84578 2.16217 0
M  V30 2601 C 230.023 4.22938 1.5282 0
M  V30 2602 C 228.793 4.88352 1.29772 0
M  V30 2603 C 230.991 5.04778 0.985094 0
M  V30 2604 N 228.973 6.10726 0.623455 0
M  V30 2605 C 230.344 6.1845 0.438172 0
M  V30 2606 C 232.399 4.90057 0.880275 0
M  V30 2607 C 231.102 7.19013 -0.203306 0
M  V30 2608 C 233.128 5.9086 0.252639 0
M  V30 2609 C 232.49 7.03829 -0.283573 0
M  V30 2610 H 228.589 0.668413 0.405892 0
M  V30 2611 H 231.173 1.89717 0.437674 0
M  V30 2612 H 229.344 2.64483 2.84435 0
M  V30 2613 H 231.076 2.89202 2.83098 0
M  V30 2614 H 227.831 4.46846 1.56926 0
M  V30 2615 H 228.255 6.76323 0.302733 0
M  V30 2616 H 232.897 4.02938 1.28065 0
M  V30 2617 H 230.615 8.05751 -0.615726 0
M  V30 2618 H 234.201 5.81543 0.172954 0
M  V30 2619 H 233.081 7.80493 -0.761575 0
M  V30 2620 N 230.584 -0.659388 1.43143 0
M  V30 2621 C 231.824 -1.43121 1.45931 0
M  V30 2622 C 232.188 -1.91838 0.0789298 0
M  V30 2623 O 233.389 -2.68794 -0.018491 0
M  V30 2624 C 231.66 -2.58534 2.46769 0
M  V30 2625 S 233.219 -3.47154 2.68384 0
M  V30 2626 H 230.037 -0.488624 0.516496 0
M  V30 2627 H 232.639 -0.766128 1.79863 0
M  V30 2628 H 231.343 -2.21007 3.45809 0
M  V30 2629 H 230.874 -3.29898 2.14315 0
M  V30 2630 H 232.889 -4.55051 1.97845 0
M  V30 2631 N 232.062 -1.29571 -0.897171 0
M  V30 2632 C 232.972 -1.16808 -2.03453 0
M  V30 2633 C 233.988 -0.0907471 -1.73763 0
M  V30 2634 O 235.164 -0.303312 -1.99103 0
M  V30 2635 C 232.229 -0.848264 -3.36163 0
M  V30 2636 C 231.29 -2.0097 -3.79354 0
M  V30 2637 C 230.523 -1.70505 -5.05731 0
M  V30 2638 O 230.746 -0.62718 -5.66941 0
M  V30 2639 O 229.68 -2.5538 -5.45036 0
M  V30 2640 H 233.506 -2.12325 -2.17144 0
M  V30 2641 H 231.091 -1.09047 -1.02123 0
M  V30 2642 H 232.973 -0.684581 -4.15802 0
M  V30 2643 H 231.648 0.0771071 -3.23608 0
M  V30 2644 H 230.555 -2.22863 -3.00471 0
M  V30 2645 H 231.888 -2.91636 -3.96496 0
M  V30 2646 N 233.54 1.10788 -1.12088 0
M  V30 2647 C 234.789 1.82036 -0.868659 0
M  V30 2648 C 235.102 1.85929 0.607426 0
M  V30 2649 O 236.308 2.53346 0.97613 0
M  V30 2650 C 234.764 3.26951 -1.50435 0
M  V30 2651 C 234.372 3.31367 -3.01496 0
M  V30 2652 C 236.116 4.03053 -1.33225 0
M  V30 2653 C 234.023 4.7072 -3.58017 0
M  V30 2654 H 232.953 0.682108 -0.321318 0
M  V30 2655 H 235.604 1.24618 -1.34694 0
M  V30 2656 H 233.986 3.84343 -0.953735 0
M  V30 2657 H 235.16 2.83819 -3.6302 0
M  V30 2658 H 233.475 2.6875 -3.18061 0
M  V30 2659 H 236.072 5.05981 -1.72878 0
M  V30 2660 H 236.415 4.15387 -0.275529 0
M  V30 2661 H 236.948 3.52066 -1.85188 0
M  V30 2662 H 233.687 4.63585 -4.63432 0
M  V30 2663 H 233.207 5.1865 -3.01268 0
M  V30 2664 H 234.886 5.39685 -3.56859 0
M  V30 2665 N 235.018 0.912232 1.28515 0
M  V30 2666 C 236.243 0.559774 1.99703 0
M  V30 2667 C 236.668 -0.851393 1.67729 0
M  V30 2668 O 236.026 -1.56875 0.908834 0
M  V30 2669 C 236.074 0.773874 3.52198 0
M  V30 2670 O 235.178 -0.167842 4.12058 0
M  V30 2671 H 234.519 0.21723 0.627461 0
M  V30 2672 H 237.049 1.22725 1.63706 0
M  V30 2673 H 237.059 0.683386 4.02236 0
M  V30 2674 H 235.734 1.80261 3.74805 0
M  V30 2675 H 234.311 -0.0287509 3.72889 0
M  V30 2676 N 236.496 -1.42363 0.676048 0
M  V30 2677 C 237.428 -2.29164 -0.0404605 0
M  V30 2678 C 238.441 -1.43747 -0.764245 0
M  V30 2679 O 239.63 -1.67453 -0.618195 0
M  V30 2680 C 236.73 -3.21196 -1.08103 0
M  V30 2681 C 235.903 -4.35273 -0.430812 0
M  V30 2682 C 234.962 -5.08017 -1.37133 0
M  V30 2683 O 233.988 -5.62494 -0.87116 0
M  V30 2684 N 235.19 -5.13647 -2.70456 0
M  V30 2685 H 237.955 -2.91298 0.704667 0
M  V30 2686 H 235.516 -1.53303 0.520559 0
M  V30 2687 H 237.508 -3.66728 -1.71152 0
M  V30 2688 H 236.078 -2.60505 -1.72788 0
M  V30 2689 H 235.298 -3.92372 0.379209 0
M  V30 2690 H 236.586 -5.08795 0.0221132 0
M  V30 2691 H 235.984 -4.708 -3.1363 0
M  V30 2692 H 234.541 -5.62821 -3.28749 0
M  V30 2693 N 237.974 -0.419461 -1.51915 0
M  V30 2694 C 238.906 0.43646 -2.25006 0
M  V30 2695 C 239.919 1.00149 -1.28351 0
M  V30 2696 O 241.108 0.898674 -1.54227 0
M  V30 2697 C 238.208 1.6206 -2.9764 0
M  V30 2698 C 237.381 1.17763 -4.21249 0
M  V30 2699 C 236.44 2.22985 -4.76617 0
M  V30 2700 O 235.466 1.83151 -5.38929 0
M  V30 2701 N 236.668 3.55271 -4.59089 0
M  V30 2702 H 239.433 -0.18989 -2.99098 0
M  V30 2703 H 236.994 -0.247386 -1.59999 0
M  V30 2704 H 238.986 2.32038 -3.31573 0
M  V30 2705 H 237.556 2.15266 -2.2667 0
M  V30 2706 H 236.776 0.305582 -3.93014 0
M  V30 2707 H 238.064 0.858781 -5.015 0
M  V30 2708 H 237.462 3.90377 -4.09417 0
M  V30 2709 H 236.019 4.21195 -4.97432 0
M  V30 2710 N 239.452 1.56882 -0.150215 0
M  V30 2711 C 240.384 2.14057 0.819286 0
M  V30 2712 C 241.397 1.09082 1.20851 0
M  V30 2713 O 242.586 1.36347 1.15203 0
M  V30 2714 C 239.686 2.65102 2.11127 0
M  V30 2715 C 238.859 3.94511 1.88891 0
M  V30 2716 C 237.918 4.30834 3.02107 0
M  V30 2717 O 236.944 4.99099 2.73659 0
M  V30 2718 N 238.146 3.90676 4.29363 0
M  V30 2719 H 240.911 2.97871 0.330618 0
M  V30 2720 H 238.472 1.61866 0.0332538 0
M  V30 2721 H 240.464 2.86411 2.85921 0
M  V30 2722 H 239.034 1.85994 2.51247 0
M  V30 2723 H 238.254 3.81795 0.981152 0
M  V30 2724 H 239.542 4.7907 1.71376 0
M  V30 2725 H 238.94 3.35677 4.55343 0
M  V30 2726 H 237.497 4.1703 5.00928 0
M  V30 2727 N 240.93 -0.123565 1.57115 0
M  V30 2728 C 242.176 -0.828428 1.85765 0
M  V30 2729 C 242.531 -1.77709 0.737371 0
M  V30 2730 O 241.824 -1.89787 -0.262978 0
M  V30 2731 C 242.018 -1.62016 3.18568 0
M  V30 2732 C 241.847 -0.749663 4.43407 0
M  V30 2733 C 240.617 -0.406251 5.03664 0
M  V30 2734 C 242.815 -0.0693505 5.14253 0
M  V30 2735 N 240.797 0.475389 6.12057 0
M  V30 2736 C 242.168 0.671474 6.16353 0
M  V30 2737 C 244.223 0.00754393 4.97899 0
M  V30 2738 C 242.926 1.48197 7.03868 0
M  V30 2739 C 244.952 0.804845 5.85898 0
M  V30 2740 C 244.314 1.53388 6.87497 0
M  V30 2741 H 240.413 -0.280219 0.73007 0
M  V30 2742 H 242.997 -0.0924183 1.94481 0
M  V30 2743 H 241.168 -2.32724 3.10957 0
M  V30 2744 H 242.9 -2.27 3.35042 0
M  V30 2745 H 239.655 -0.747446 4.67665 0
M  V30 2746 H 240.079 0.907924 6.70884 0
M  V30 2747 H 244.721 -0.541741 4.19315 0
M  V30 2748 H 242.439 2.04242 7.81864 0
M  V30 2749 H 246.025 0.866642 5.75309 0
M  V30 2750 H 244.905 2.1409 7.5441 0
M  V30 2751 N 242.408 -1.52605 -0.393616 0
M  V30 2752 C 243.338 -1.80022 -1.48709 0
M  V30 2753 C 244.319 -0.651995 -1.57108 0
M  V30 2754 O 245.504 -0.89913 -1.72132 0
M  V30 2755 C 242.634 -1.96492 -2.86371 0
M  V30 2756 C 241.588 -3.12161 -2.92813 0
M  V30 2757 C 240.914 -3.13877 -4.3288 0
M  V30 2758 C 242.214 -4.51322 -2.6288 0
M  V30 2759 H 243.908 -2.71589 -1.26015 0
M  V30 2760 H 241.454 -1.30684 -0.604778 0
M  V30 2761 H 243.407 -2.14255 -3.62867 0
M  V30 2762 H 242.131 -1.01611 -3.10391 0
M  V30 2763 H 240.79 -2.94173 -2.18764 0
M  V30 2764 H 240.438 -2.16687 -4.53933 0
M  V30 2765 H 240.138 -3.91576 -4.38112 0
M  V30 2766 H 241.662 -3.33789 -5.1129 0
M  V30 2767 H 243.076 -4.69435 -3.29096 0
M  V30 2768 H 241.473 -5.31053 -2.79468 0
M  V30 2769 H 242.543 -4.58353 -1.58242 0
M  V30 2770 N 243.887 0.651787 -1.4349 0
M  V30 2771 C 244.797 1.79368 -1.5121 0
M  V30 2772 C 245.813 1.69361 -0.399093 0
M  V30 2773 O 246.989 1.90505 -0.653431 0
M  V30 2774 C 244.054 3.15653 -1.43401 0
M  V30 2775 C 243.115 3.37446 -2.65384 0
M  V30 2776 C 242.348 4.67229 -2.57939 0
M  V30 2777 O 242.571 5.46676 -1.62792 0
M  V30 2778 O 241.505 4.90773 -3.48462 0
M  V30 2779 H 245.331 1.7581 -2.47638 0
M  V30 2780 H 242.916 0.810447 -1.25507 0
M  V30 2781 H 244.798 3.96935 -1.41494 0
M  V30 2782 H 243.473 3.19798 -0.501085 0
M  V30 2783 H 242.38 2.55923 -2.72863 0
M  V30 2784 H 243.713 3.38148 -3.57654 0
M  V30 2785 N 245.365 1.30045 0.890287 0
M  V30 2786 C 246.295 1.18541 2.01172 0
M  V30 2787 C 247.276 0.0773356 1.69924 0
M  V30 2788 O 248.461 0.25845 1.92473 0
M  V30 2789 C 245.591 0.870941 3.36202 0
M  V30 2790 C 244.545 1.93637 3.81692 0
M  V30 2791 C 243.871 1.475 5.13953 0
M  V30 2792 C 245.171 3.34666 4.00994 0
M  V30 2793 H 246.865 2.12359 2.11054 0
M  V30 2794 H 244.411 1.02238 1.01407 0
M  V30 2795 H 246.364 0.777141 4.14172 0
M  V30 2796 H 245.088 -0.102926 3.26438 0
M  V30 2797 H 243.747 2.01972 3.05946 0
M  V30 2798 H 243.395 0.489551 5.00612 0
M  V30 2799 H 243.095 2.1876 5.4536 0
M  V30 2800 H 244.619 1.39489 5.94454 0
M  V30 2801 H 246.033 3.2912 4.69417 0
M  V30 2802 H 244.43 4.03966 4.43769 0
M  V30 2803 H 245.5 3.76949 3.05021 0
M  V30 2804 N 246.843 -1.10192 1.12674 0
M  V30 2805 C 248.09 -1.82205 0.883606 0
M  V30 2806 C 248.418 -1.8532 -0.590492 0
M  V30 2807 O 247.673 -1.31137 -1.45264 0
M  V30 2808 C 247.972 -3.28552 1.4067 0
M  V30 2809 C 247.638 -3.45582 2.89627 0
M  V30 2810 C 246.3 -3.49937 3.30299 0
M  V30 2811 C 248.652 -3.50768 3.85501 0
M  V30 2812 C 245.98 -3.57049 4.65546 0
M  V30 2813 C 248.332 -3.59414 5.20581 0
M  V30 2814 C 246.996 -3.62034 5.60792 0
M  V30 2815 H 246.266 -0.666735 0.323334 0
M  V30 2816 H 248.913 -1.29868 1.40736 0
M  V30 2817 H 247.218 -3.83473 0.80347 0
M  V30 2818 H 248.915 -3.82788 1.19475 0
M  V30 2819 H 245.505 -3.42871 2.57172 0
M  V30 2820 H 249.689 -3.46651 3.55171 0
M  V30 2821 H 244.945 -3.57361 4.96088 0
M  V30 2822 H 249.119 -3.62371 5.94693 0
M  V30 2823 H 246.746 -3.67298 6.6558 0
M  V30 2824 N 248.321 -0.919034 -1.28029 0
M  V30 2825 C 249.546 -0.570357 -1.99403 0
M  V30 2826 C 249.971 0.842486 -1.68178 0
M  V30 2827 O 249.329 1.56391 -0.917141 0
M  V30 2828 C 249.377 -0.792541 -3.51783 0
M  V30 2829 O 248.481 0.145988 -4.12142 0
M  V30 2830 H 247.822 -0.220555 -0.6263 0
M  V30 2831 H 250.352 -1.23592 -1.63053 0
M  V30 2832 H 250.362 -0.704708 -4.01868 0
M  V30 2833 H 249.037 -1.82247 -3.73844 0
M  V30 2834 H 247.614 0.00897528 -3.72899 0
M  V30 2835 N 249.799 1.42003 -0.683588 0
M  V30 2836 C 251.045 2.01712 -0.209825 0
M  V30 2837 C 251.378 1.53968 1.18353 0
M  V30 2838 O 250.653 0.745661 1.79639 0
M  V30 2839 C 250.936 3.59202 -0.254197 0
M  V30 2840 C 250.789 4.17102 -1.68363 0
M  V30 2841 C 252.108 4.38344 0.392709 0
M  V30 2842 H 249.227 0.732891 -0.0777189 0
M  V30 2843 H 251.869 1.68909 -0.87004 0
M  V30 2844 H 250.019 3.87278 0.307954 0
M  V30 2845 H 251.691 3.99946 -2.29871 0
M  V30 2846 H 249.934 3.72597 -2.22157 0
M  V30 2847 H 250.605 5.26249 -1.6663 0
M  V30 2848 H 253.081 4.16011 -0.0859162 0
M  V30 2849 H 251.957 5.47901 0.331063 0
M  V30 2850 H 252.218 4.16887 1.47164 0
M  V30 2851 N 251.277 0.427512 1.51691 0
M  V30 2852 C 252.507 -0.140986 2.06118 0
M  V30 2853 C 252.915 -1.37854 1.29588 0
M  V30 2854 O 252.258 -1.80411 0.346036 0
M  V30 2855 C 252.32 -0.538276 3.55447 0
M  V30 2856 C 251.984 0.591095 4.53161 0
M  V30 2857 C 252.981 1.46027 4.98971 0
M  V30 2858 C 250.666 0.769028 4.96378 0
M  V30 2859 C 252.66 2.49216 5.8666 0
M  V30 2860 C 250.347 1.80421 5.83859 0
M  V30 2861 C 251.345 2.66417 6.28897 0
M  V30 2862 O 251.033 3.68159 7.14643 0
M  V30 2863 H 250.765 -0.0157455 0.675817 0
M  V30 2864 H 253.319 0.602495 1.96365 0
M  V30 2865 H 251.549 -1.33432 3.6295 0
M  V30 2866 H 253.238 -1.0368 3.92435 0
M  V30 2867 H 254.004 1.33429 4.66285 0
M  V30 2868 H 249.883 0.109273 4.6087 0
M  V30 2869 H 253.427 3.16372 6.21735 0
M  V30 2870 H 249.324 1.93042 6.15959 0
M  V30 2871 H 250.092 3.64622 7.32798 0
M  V30 2872 N 252.755 -1.56801 0.158532 0
M  V30 2873 C 254.002 -1.9649 -0.489679 0
M  V30 2874 C 254.33 -1.04394 -1.6411 0
M  V30 2875 O 253.585 -0.0754401 -1.95555 0
M  V30 2876 C 253.884 -3.4235 -1.02623 0
M  V30 2877 C 253.55 -4.50899 0.00794526 0
M  V30 2878 C 252.212 -4.80312 0.292207 0
M  V30 2879 C 254.564 -5.16333 0.710584 0
M  V30 2880 C 251.892 -5.72461 1.28472 0
M  V30 2881 C 254.244 -6.09553 1.69199 0
M  V30 2882 C 252.908 -6.37339 1.98383 0
M  V30 2883 H 252.178 -0.719009 -0.179186 0
M  V30 2884 H 254.825 -1.8989 0.247798 0
M  V30 2885 H 253.13 -3.45838 -1.84128 0
M  V30 2886 H 254.827 -3.70393 -1.53656 0
M  V30 2887 H 251.417 -4.28015 -0.22379 0
M  V30 2888 H 255.601 -4.93732 0.504174 0
M  V30 2889 H 250.857 -5.92278 1.51714 0
M  V30 2890 H 255.031 -6.59327 2.24189 0
M  V30 2891 H 252.658 -7.08546 2.7544 0
M  V30 2892 N 254.233 0.115231 -1.57178 0
M  V30 2893 C 255.649 0.468877 -1.52557 0
M  V30 2894 C 255.849 1.81649 -0.872125 0
M  V30 2895 O 254.905 2.48347 -0.45606 0
M  V30 2896 C 256.218 0.4499 -2.97315 0
M  V30 2897 C 257.766 0.533185 -3.08425 0
M  V30 2898 C 258.241 0.54456 -4.54751 0
M  V30 2899 N 259.732 0.605892 -4.5922 0
M  V30 2900 C 260.467 0.636203 -5.6986 0
M  V30 2901 N 259.963 0.623931 -6.89985 0
M  V30 2902 N 261.756 0.679496 -5.57978 0
M  V30 2903 H 253.907 -0.767712 -1.9804 0
M  V30 2904 H 256.17 -0.283609 -0.904583 0
M  V30 2905 H 255.876 -0.472721 -3.48509 0
M  V30 2906 H 255.75 1.27632 -3.5495 0
M  V30 2907 H 258.137 1.44623 -2.57232 0
M  V30 2908 H 258.218 -0.320995 -2.53778 0
M  V30 2909 H 257.862 -0.364452 -5.06591 0
M  V30 2910 H 257.792 1.41568 -5.07214 0
M  V30 2911 H 260.283 0.621386 -3.72756 0
M  V30 2912 H 260.596 0.649787 -7.70063 0
M  V30 2913 H 258.941 0.591296 -6.9248 0
M  V30 2914 H 262.132 0.686472 -4.63039 0
M  V30 2915 H 262.305 0.69965 -6.44212 0
M  V30 2916 N 255.711 1.52812 0.385517 0
M  V30 2917 C 256.641 1.80808 1.47752 0
M  V30 2918 C 257.622 0.660318 1.5676 0
M  V30 2919 O 258.807 0.908246 1.71652 0
M  V30 2920 C 255.937 1.98008 2.85324 0
M  V30 2921 C 254.891 3.13709 2.91154 0
M  V30 2922 C 254.217 3.16169 4.31209 0
M  V30 2923 C 255.517 4.52709 2.60483 0
M  V30 2924 H 257.211 2.72253 1.24573 0
M  V30 2925 H 254.757 1.31003 0.597839 0
M  V30 2926 H 256.71 2.16176 3.61726 0
M  V30 2927 H 255.434 1.03255 3.09848 0
M  V30 2928 H 254.093 2.95329 2.17201 0
M  V30 2929 H 253.741 2.19092 4.52778 0
M  V30 2930 H 253.441 3.93894 4.36029 0
M  V30 2931 H 254.965 3.36496 5.09512 0
M  V30 2932 H 256.379 4.71173 3.26602 0
M  V30 2933 H 254.776 5.32528 2.76648 0
M  V30 2934 H 255.846 4.59186 1.55809 0
M  V30 2935 N 257.189 -0.644168 1.43834 0
M  V30 2936 C 258.419 -1.42939 1.49171 0
M  V30 2937 C 258.827 -1.88874 0.111048 0
M  V30 2938 O 258.17 -1.60656 -0.8908 0
M  V30 2939 C 258.232 -2.69151 2.38324 0
M  V30 2940 C 257.896 -2.45097 3.85715 0
M  V30 2941 C 258.893 -2.07747 4.76589 0
M  V30 2942 C 256.578 -2.59141 4.30292 0
M  V30 2943 C 258.572 -1.8475 6.10038 0
M  V30 2944 C 256.259 -2.35759 5.63792 0
M  V30 2945 C 257.257 -1.9862 6.53482 0
M  V30 2946 O 256.945 -1.75489 7.84512 0
M  V30 2947 H 256.677 -0.445271 0.508635 0
M  V30 2948 H 259.231 -0.79621 1.8934 0
M  V30 2949 H 257.461 -3.3506 1.93058 0
M  V30 2950 H 259.15 -3.31123 2.3476 0
M  V30 2951 H 259.916 -1.96465 4.43426 0
M  V30 2952 H 255.795 -2.87022 3.60749 0
M  V30 2953 H 259.339 -1.55686 6.80006 0
M  V30 2954 H 255.236 -2.46646 5.9652 0
M  V30 2955 H 256.004 -1.89841 7.9618 0
M  V30 2956 N 258.668 -1.30515 -0.883378 0
M  V30 2957 C 259.598 -1.19607 -2.00541 0
M  V30 2958 C 260.579 -0.086346 -1.69881 0
M  V30 2959 O 261.764 -0.268654 -1.92333 0
M  V30 2960 C 258.894 -0.888758 -3.35736 0
M  V30 2961 C 257.848 -1.95659 -3.8066 0
M  V30 2962 C 257.174 -1.50224 -5.13164 0
M  V30 2963 C 258.474 -3.36788 -3.99213 0
M  V30 2964 H 260.168 -2.13476 -2.09925 0
M  V30 2965 H 257.714 -1.02775 -1.00863 0
M  V30 2966 H 259.667 -0.799094 -4.13754 0
M  V30 2967 H 258.391 0.0856125 -3.26488 0
M  V30 2968 H 257.05 -2.03591 -3.04871 0
M  V30 2969 H 256.698 -0.516092 -5.00345 0
M  V30 2970 H 256.398 -2.2165 -5.44192 0
M  V30 2971 H 257.922 -1.42639 -5.93706 0
M  V30 2972 H 259.336 -3.31605 -4.67665 0
M  V30 2973 H 257.733 -4.06314 -4.41621 0
M  V30 2974 H 258.803 -3.78561 -3.03017 0
M  V30 2975 N 260.146 1.09593 -1.13257 0
M  V30 2976 C 261.093 2.1618 -0.808381 0
M  V30 2977 C 262.063 1.64517 0.228754 0
M  V30 2978 O 263.248 1.9053 0.101381 0
M  V30 2979 C 260.388 3.43973 -0.278675 0
M  V30 2980 C 259.501 4.09545 -1.37466 0
M  V30 2981 C 258.636 5.25088 -0.803479 0
M  V30 2982 C 257.675 5.82579 -1.87799 0
M  V30 2983 N 256.812 6.89486 -1.32488 0
M  V30 2984 H 261.652 2.43254 -1.72138 0
M  V30 2985 H 259.189 1.19392 -0.859294 0
M  V30 2986 H 261.147 4.17174 0.0465583 0
M  V30 2987 H 259.777 3.17223 0.597459 0
M  V30 2988 H 258.829 3.34226 -1.81652 0
M  V30 2989 H 260.141 4.48307 -2.18684 0
M  V30 2990 H 259.295 6.05178 -0.429427 0
M  V30 2991 H 258.034 4.87684 0.0397956 0
M  V30 2992 H 257.039 5.01152 -2.26113 0
M  V30 2993 H 258.264 6.22045 -2.72463 0
M  V30 2994 H 256.21 6.54064 -0.503575 0
M  V30 2995 H 256.127 7.27007 -2.07355 0
M  V30 2996 H 257.395 7.73336 -0.978336 0
M  V30 2997 N 261.624 0.925811 1.2754 0
M  V30 2998 C 263.035 0.610102 1.7645 0
M  V30 2999 C 263.386 -0.874723 1.75622 0
M  V30 3000 O 262.511 -1.68444 1.35851 0
M  V30 3001 C 263.106 1.10073 3.20421 0
M  V30 3002 C 261.665 0.835723 3.67005 0
M  V30 3003 C 260.812 1.26054 2.46993 0
M  V30 3004 H 263.763 1.10579 1.13833 0
M  V30 3005 H 263.784 0.447557 3.77859 0
M  V30 3006 H 263.296 2.18143 3.20991 0
M  V30 3007 H 261.397 -0.231249 3.71882 0
M  V30 3008 H 261.51 1.45193 4.56569 0
M  V30 3009 H 259.874 0.679111 2.45479 0
M  V30 3010 H 260.657 2.34984 2.50275 0
M  V30 3011 N 263.102 -1.41638 0.69111 0
M  V30 3012 C 264.327 -2.06148 0.227583 0
M  V30 3013 C 264.752 -1.51652 -1.11281 0
M  V30 3014 O 264.11 -0.64164 -1.69566 0
M  V30 3015 C 264.158 -3.60095 0.190858 0
M  V30 3016 O 263.262 -4.03845 -0.835664 0
M  V30 3017 H 262.603 -0.654434 0.112306 0
M  V30 3018 H 265.133 -1.81484 0.944714 0
M  V30 3019 H 265.143 -4.07995 0.020207 0
M  V30 3020 H 263.818 -3.99129 1.16915 0
M  V30 3021 H 262.395 -3.67458 -0.63473 0
M  V30 3022 N 264.58 -0.43555 -1.51462 0
M  V30 3023 C 265.512 0.41257 -2.25456 0
M  V30 3024 C 266.525 0.987822 -1.29406 0
M  V30 3025 O 267.714 0.882266 -1.55172 0
M  V30 3026 C 264.814 1.58894 -2.99342 0
M  V30 3027 C 263.987 1.13288 -4.22474 0
M  V30 3028 C 263.046 2.17917 -4.78956 0
M  V30 3029 O 262.072 1.77425 -5.40841 0
M  V30 3030 N 263.274 3.50382 -4.62832 0
M  V30 3031 H 266.039 -0.221603 -2.9888 0
M  V30 3032 H 263.6 -0.264342 -1.59727 0
M  V30 3033 H 265.592 2.28508 -3.34015 0
M  V30 3034 H 264.162 2.12849 -2.28941 0
M  V30 3035 H 263.382 0.263881 -3.93316 0
M  V30 3036 H 264.67 0.805542 -5.02383 0
M  V30 3037 H 264.068 3.86013 -4.13534 0
M  V30 3038 H 262.625 4.15895 -5.01871 0
M  V30 3039 N 266.058 1.56714 -0.166846 0
M  V30 3040 C 267.335 1.88412 0.525373 0
M  V30 3041 C 267.715 1.07602 1.81618 0
M  V30 3042 O 267.063 0.168621 2.27877 0
M  V30 3043 C 267.273 3.40363 0.771613 0
M  V30 3044 C 268.621 4.10007 1.1036 0
M  V30 3045 O 269.645 3.45655 0.860304 0
M  V30 3046 O 268.504 5.2369 1.56239 0
M  V30 3047 H 265.598 0.781587 0.270278 0
M  V30 3048 H 268.144 1.68458 -0.204946 0
M  V30 3049 H 266.916 3.91046 -0.141093 0
M  V30 3050 H 266.539 3.65914 1.55541 0
M  V30 3051 N 267.536 -0.106894 1.57237 0
M  V30 3052 C 268.782 -0.81373 1.85759 0
M  V30 3053 C 269.115 -1.78952 0.754315 0
M  V30 3054 O 268.39 -1.93029 -0.23879 0
M  V30 3055 C 268.673 -1.55293 3.24894 0
M  V30 3056 C 268.526 -0.595929 4.45835 0
M  V30 3057 C 269.845 -2.5063 3.61763 0
M  V30 3058 H 266.964 -0.294369 0.67566 0
M  V30 3059 H 269.606 -0.0776472 1.89841 0
M  V30 3060 H 267.756 -2.1804 3.21544 0
M  V30 3061 H 269.428 0.0236262 4.61294 0
M  V30 3062 H 267.671 0.0916191 4.33703 0
M  V30 3063 H 268.342 -1.15004 5.39887 0
M  V30 3064 H 270.818 -1.97982 3.65981 0
M  V30 3065 H 269.694 -2.99376 4.60071 0
M  V30 3066 H 269.955 -3.3385 2.89821 0
M  V30 3067 N 269.014 -1.53014 -0.377408 0
M  V30 3068 C 269.964 -1.74996 -1.46152 0
M  V30 3069 C 270.948 -0.604236 -1.49123 0
M  V30 3070 O 272.14 -0.862489 -1.54564 0
M  V30 3071 C 269.269 -1.93267 -2.8373 0
M  V30 3072 C 268.355 -3.13807 -2.85283 0
M  V30 3073 N 268.746 -4.35941 -2.56493 0
M  V30 3074 C 267.044 -3.14288 -3.16448 0
M  V30 3075 C 267.745 -5.17615 -2.65424 0
M  V30 3076 N 266.721 -4.53559 -2.99641 0
M  V30 3077 H 270.523 -2.67044 -1.22738 0
M  V30 3078 H 268.037 -1.51479 -0.585479 0
M  V30 3079 H 270.034 -2.0714 -3.61799 0
M  V30 3080 H 268.694 -1.0244 -3.08117 0
M  V30 3081 H 269.705 -4.63876 -2.30302 0
M  V30 3082 H 266.382 -2.33312 -3.46225 0
M  V30 3083 H 267.772 -6.25006 -2.46612 0
M  V30 3084 N 270.492 0.636531 -1.44174 0
M  V30 3085 C 271.908 0.954104 -1.27941 0
M  V30 3086 C 272.108 2.0039 -0.211248 0
M  V30 3087 O 271.164 2.49236 0.404695 0
M  V30 3088 C 272.477 1.4225 -2.64925 0
M  V30 3089 C 274.025 1.53827 -2.72592 0
M  V30 3090 C 274.5 2.04053 -4.10032 0
M  V30 3091 N 275.991 2.11331 -4.12182 0
M  V30 3092 C 276.726 2.51352 -5.15374 0
M  V30 3093 N 276.222 2.90549 -6.2893 0
M  V30 3094 N 278.015 2.51438 -5.02728 0
M  V30 3095 H 270.166 -0.0578386 -2.12321 0
M  V30 3096 H 272.429 0.0367406 -0.947288 0
M  V30 3097 H 272.135 0.725466 -3.44136 0
M  V30 3098 H 272.009 2.39451 -2.9145 0
M  V30 3099 H 274.396 2.22628 -1.93702 0
M  V30 3100 H 274.477 0.550154 -2.49814 0
M  V30 3101 H 274.121 1.35848 -4.89395 0
M  V30 3102 H 274.051 3.03726 -4.30184 0
M  V30 3103 H 276.542 1.83745 -3.30222 0
M  V30 3104 H 276.855 3.19884 -7.03487 0
M  V30 3105 H 275.2 2.88313 -6.32377 0
M  V30 3106 H 278.391 2.20203 -4.13072 0
M  V30 3107 H 278.564 2.82304 -5.83274 0
M  V30 3108 N 271.97 1.30982 0.876444 0
M  V30 3109 C 273.216 1.20474 1.63138 0
M  V30 3110 C 273.549 -0.238096 1.92735 0
M  V30 3111 O 272.824 -1.1692 1.55435 0
M  V30 3112 C 273.107 2.04244 2.96574 0
M  V30 3113 C 272.96 3.56793 2.73896 0
M  V30 3114 C 274.279 1.88684 3.97601 0
M  V30 3115 H 271.398 0.439001 0.591985 0
M  V30 3116 H 274.04 1.60704 1.01361 0
M  V30 3117 H 272.19 1.70063 3.493 0
M  V30 3118 H 273.862 4.01077 2.27892 0
M  V30 3119 H 272.105 3.80548 2.08245 0
M  V30 3120 H 272.776 4.10706 3.68815 0
M  V30 3121 H 275.252 2.18584 3.54062 0
M  V30 3122 H 274.128 2.4961 4.88862 0
M  V30 3123 H 274.389 0.848343 4.33884 0
M  V30 3124 N 273.449 -1.08991 1.13837 0
M  V30 3125 C 274.379 -2.17771 0.842507 0
M  V30 3126 C 275.36 -1.6892 -0.20001 0
M  V30 3127 O 276.545 -1.94113 -0.0579731 0
M  V30 3128 C 273.675 -3.4589 0.312644 0
M  V30 3129 C 272.629 -4.08099 1.28992 0
M  V30 3130 C 271.955 -5.31098 0.619623 0
M  V30 3131 C 273.255 -4.50077 2.65005 0
M  V30 3132 H 274.949 -2.42777 1.75213 0
M  V30 3133 H 272.495 -1.16682 0.843875 0
M  V30 3134 H 274.448 -4.21297 0.0933043 0
M  V30 3135 H 273.172 -3.20419 -0.632382 0
M  V30 3136 H 271.831 -3.34717 1.49533 0
M  V30 3137 H 271.479 -5.0191 -0.33102 0
M  V30 3138 H 271.179 -5.73674 1.27167 0
M  V30 3139 H 272.703 -6.09224 0.409669 0
M  V30 3140 H 274.117 -5.16688 2.48407 0
M  V30 3141 H 272.514 -5.03553 3.26427 0
M  V30 3142 H 273.584 -3.62257 3.22332 0
M  V30 3143 N 274.927 -0.932562 -1.27047 0
M  V30 3144 C 276.173 -0.576412 -1.94436 0
M  V30 3145 C 276.506 0.880891 -1.73072 0
M  V30 3146 O 275.781 1.62905 -1.06264 0
M  V30 3147 C 276.064 -0.909031 -3.48437 0
M  V30 3148 C 275.917 -2.42044 -3.79123 0
M  V30 3149 C 277.236 -0.418341 -4.38107 0
M  V30 3150 H 274.355 -0.210888 -0.706184 0
M  V30 3151 H 276.997 -1.16522 -1.50075 0
M  V30 3152 H 275.147 -0.407947 -3.86352 0
M  V30 3153 H 276.819 -2.99359 -3.50973 0
M  V30 3154 H 275.062 -2.86758 -3.25503 0
M  V30 3155 H 275.733 -2.6037 -4.86736 0
M  V30 3156 H 278.209 -0.847856 -4.0737 0
M  V30 3157 H 277.085 -0.679981 -5.44672 0
M  V30 3158 H 277.346 0.681642 -4.36814 0
M  V30 3159 N 276.405 1.4127 -0.698611 0
M  V30 3160 C 277.368 2.29158 -0.044132 0
M  V30 3161 C 278.368 1.44529 0.704841 0
M  V30 3162 O 279.558 1.65643 0.539276 0
M  V30 3163 C 276.69 3.27459 0.947809 0
M  V30 3164 H 277.883 2.88529 -0.817994 0
M  V30 3165 H 275.436 1.49307 -0.46228 0
M  V30 3166 H 276.171 2.73073 1.74933 0
M  V30 3167 H 275.956 3.8991 0.41385 0
M  V30 3168 H 277.446 3.93311 1.40344 0
M  V30 3169 N 277.883 0.443576 1.51229 0
M  V30 3170 C 279.299 0.0962001 1.5931 0
M  V30 3171 C 279.499 -1.39501 1.45402 0
M  V30 3172 O 278.555 -2.16557 1.29843 0
M  V30 3173 C 279.868 0.621875 2.94199 0
M  V30 3174 C 281.416 0.582865 3.07525 0
M  V30 3175 C 281.891 1.08562 4.44948 0
M  V30 3176 N 283.382 1.04387 4.51284 0
M  V30 3177 C 284.117 1.40368 5.55954 0
M  V30 3178 N 283.613 1.83664 6.68011 0
M  V30 3179 N 285.406 1.32145 5.46346 0
M  V30 3180 H 277.557 1.41376 1.58514 0
M  V30 3181 H 279.82 0.582965 0.747567 0
M  V30 3182 H 279.526 1.66546 3.09767 0
M  V30 3183 H 279.4 0.0502125 3.77167 0
M  V30 3184 H 281.787 -0.451749 2.91622 0
M  V30 3185 H 281.868 1.191 2.26382 0
M  V30 3186 H 281.512 2.11873 4.61598 0
M  V30 3187 H 281.442 0.453956 5.2464 0
M  V30 3188 H 283.933 0.725986 3.70861 0
M  V30 3189 H 284.246 2.0934 7.43906 0
M  V30 3190 H 282.591 1.87596 6.69203 0
M  V30 3191 H 285.782 0.981808 4.57688 0
M  V30 3192 H 285.955 1.60514 6.27805 0
M  V30 3193 N 279.361 -1.56624 0.175154 0
M  V30 3194 C 280.61 -1.96173 -0.468921 0
M  V30 3195 C 280.923 -1.06401 -1.64128 0
M  V30 3196 O 282.129 -1.35648 -2.35185 0
M  V30 3197 C 280.585 -3.48833 -0.885633 0
M  V30 3198 C 280.193 -4.47237 0.261343 0
M  V30 3199 C 281.937 -3.97194 -1.49791 0
M  V30 3200 C 279.844 -5.9114 -0.175214 0
M  V30 3201 H 278.774 -0.732455 -0.178958 0
M  V30 3202 H 281.425 -1.81591 0.263997 0
M  V30 3203 H 279.807 -3.58848 -1.67464 0
M  V30 3204 H 280.981 -4.4894 1.03871 0
M  V30 3205 H 279.296 -4.08956 0.783827 0
M  V30 3206 H 281.893 -5.02167 -1.83665 0
M  V30 3207 H 282.236 -3.40351 -2.39722 0
M  V30 3208 H 282.769 -3.90212 -0.773267 0
M  V30 3209 H 279.508 -6.51865 0.689414 0
M  V30 3210 H 279.028 -5.92735 -0.91786 0
M  V30 3211 H 280.707 -6.44044 -0.617792 0
M  V30 3212 N 280.839 0.0985539 -1.57292 0
M  V30 3213 C 282.088 0.801358 -1.85098 0
M  V30 3214 C 282.401 1.80066 -0.763902 0
M  V30 3215 O 283.607 2.55112 -0.928981 0
M  V30 3216 C 282.063 1.47599 -3.28242 0
M  V30 3217 C 281.671 0.516624 -4.45011 0
M  V30 3218 C 283.415 2.16272 -3.65276 0
M  V30 3219 C 281.322 1.19564 -5.79188 0
M  V30 3220 H 280.252 0.303022 -0.69043 0
M  V30 3221 H 282.903 0.0542623 -1.8342 0
M  V30 3222 H 281.285 2.27042 -3.2445 0
M  V30 3223 H 282.459 -0.246065 -4.60143 0
M  V30 3224 H 280.774 -0.064227 -4.1635 0
M  V30 3225 H 283.371 2.67802 -4.62803 0
M  V30 3226 H 283.714 2.95009 -2.93727 0
M  V30 3227 H 284.247 1.43693 -3.70941 0
M  V30 3228 H 280.986 0.449157 -6.53959 0
M  V30 3229 H 280.506 1.92984 -5.67906 0
M  V30 3230 H 282.185 1.7231 -6.23633 0
M  V30 3231 N 282.317 1.53212 0.369288 0
M  V30 3232 C 283.267 1.75769 1.45222 0
M  V30 3233 C 284.251 0.612136 1.48801 0
M  V30 3234 O 285.443 0.870674 1.54105 0
M  V30 3235 C 282.572 1.94769 2.82701 0
M  V30 3236 C 281.658 3.15315 2.83615 0
M  V30 3237 N 282.049 4.37295 2.54178 0
M  V30 3238 C 280.347 3.15962 3.14776 0
M  V30 3239 C 281.048 5.19015 2.62675 0
M  V30 3240 N 280.024 4.55142 2.97232 0
M  V30 3241 H 283.826 2.67691 1.2132 0
M  V30 3242 H 281.34 1.51787 0.577438 0
M  V30 3243 H 283.337 2.09056 3.60696 0
M  V30 3244 H 281.997 1.04073 3.07569 0
M  V30 3245 H 283.008 4.65091 2.27839 0
M  V30 3246 H 279.685 2.35144 3.44983 0
M  V30 3247 H 281.075 6.26305 2.43294 0
M  V30 3248 N 283.795 -0.628877 1.44509 0
M  V30 3249 C 284.758 -1.72263 1.51188 0
M  V30 3250 C 285.758 -1.55907 0.39367 0
M  V30 3251 O 286.948 -1.61361 0.656377 0
M  V30 3252 C 284.08 -3.11365 1.38798 0
M  V30 3253 H 285.273 -1.67714 2.4862 0
M  V30 3254 H 282.826 -0.842737 1.31634 0
M  V30 3255 H 283.561 -3.21507 0.424693 0
M  V30 3256 H 283.346 -3.24644 2.19884 0
M  V30 3257 H 284.836 -3.91075 1.46458 0
M  V30 3258 N 285.273 -1.31445 -0.869486 0
M  V30 3259 C 286.519 -1.21337 -1.62496 0
M  V30 3260 C 286.852 0.227872 -1.92858 0
M  V30 3261 O 286.127 1.16094 -1.56053 0
M  V30 3262 C 286.41 -2.05814 -2.95487 0
M  V30 3263 C 286.263 -3.5824 -2.72 0
M  V30 3264 C 287.582 -1.9079 -3.96594 0
M  V30 3265 H 284.701 -0.442135 -0.589649 0
M  V30 3266 H 287.343 -1.6124 -1.00507 0
M  V30 3267 H 285.493 -1.71913 -3.48394 0
M  V30 3268 H 287.165 -4.0228 -2.25762 0
M  V30 3269 H 285.408 -3.81647 -2.06224 0
M  V30 3270 H 286.079 -4.12657 -3.66631 0
M  V30 3271 H 288.555 -2.20459 -3.52898 0
M  V30 3272 H 287.431 -2.52199 -4.87531 0
M  V30 3273 H 287.692 -0.871341 -4.33428 0
M  V30 3274 N 286.751 1.08385 -1.14413 0
M  V30 3275 C 287.979 1.84517 -0.936001 0
M  V30 3276 C 288.394 1.81626 0.515503 0
M  V30 3277 O 287.751 1.22008 1.35721 0
M  V30 3278 C 287.802 3.32049 -1.42918 0
M  V30 3279 O 287.523 3.34951 -2.82381 0
M  V30 3280 C 289.024 4.24986 -1.26103 0
M  V30 3281 H 286.244 0.582491 -0.333084 0
M  V30 3282 H 288.788 1.36885 -1.5193 0
M  V30 3283 H 286.943 3.7707 -0.888641 0
M  V30 3284 H 287.357 4.27048 -3.04517 0
M  V30 3285 H 288.831 5.26615 -1.6547 0
M  V30 3286 H 289.308 4.38726 -0.20392 0
M  V30 3287 H 289.914 3.85791 -1.79012 0
M  V30 3288 N 288.23 0.939286 1.26551 0
M  V30 3289 C 289.177 0.446088 2.26448 0
M  V30 3290 C 290.147 -0.493234 1.58608 0
M  V30 3291 O 291.332 -0.409857 1.86346 0
M  V30 3292 C 288.472 -0.284375 3.43926 0
M  V30 3293 C 287.585 0.690399 4.26448 0
M  V30 3294 C 286.72 -0.0610712 5.31165 0
M  V30 3295 C 285.759 0.905649 6.05363 0
M  V30 3296 N 284.896 0.186055 7.01853 0
M  V30 3297 H 289.736 1.30291 2.68008 0
M  V30 3298 H 287.273 0.65371 1.31776 0
M  V30 3299 H 289.231 -0.724313 4.10864 0
M  V30 3300 H 287.861 -1.10535 3.03285 0
M  V30 3301 H 286.913 1.24885 3.59316 0
M  V30 3302 H 288.225 1.42873 4.779 0
M  V30 3303 H 287.379 -0.56038 6.04106 0
M  V30 3304 H 286.118 -0.832297 4.80546 0
M  V30 3305 H 285.123 1.4161 5.3125 0
M  V30 3306 H 286.348 1.67685 6.58072 0
M  V30 3307 H 284.294 -0.566714 6.53548 0
M  V30 3308 H 284.211 0.863752 7.51049 0
M  V30 3309 H 285.479 -0.292221 7.78952 0
M  V30 3310 N 289.708 -1.40897 0.706093 0
M  V30 3311 C 290.956 -2.00657 0.241054 0
M  V30 3312 C 291.277 -1.56241 -1.16678 0
M  V30 3313 O 290.547 -0.79765 -1.78926 0
M  V30 3314 H 289.127 -0.742018 0.0861308 0
M  V30 3315 H 291.789 -1.72372 0.909604 0
M  V30 3316 H 290.885 -3.10958 0.266705 0
M  V30 3317 N 291.186 -0.45159 -1.50991 0
M  V30 3318 C 292.426 0.109066 -2.04109 0
M  V30 3319 C 292.79 1.38716 -1.32747 0
M  V30 3320 O 293.991 2.02896 -1.76314 0
M  V30 3321 C 292.262 0.308354 -3.56067 0
M  V30 3322 S 293.821 0.830369 -4.30872 0
M  V30 3323 H 290.639 0.0251531 -0.710555 0
M  V30 3324 H 293.241 -0.614264 -1.85599 0
M  V30 3325 H 291.945 -0.627962 -4.05567 0
M  V30 3326 H 291.476 1.05836 -3.78896 0
M  V30 3327 H 293.491 2.10626 -4.49279 0
M  V30 3328 N 292.664 1.56529 -0.183458 0
M  V30 3329 C 293.904 1.99141 0.460667 0
M  V30 3330 C 294.268 1.06736 1.59597 0
M  V30 3331 O 295.469 1.38538 2.30349 0
M  V30 3332 C 293.74 3.45358 0.919939 0
M  V30 3333 S 295.299 4.09999 1.56354 0
M  V30 3334 H 292.117 0.695479 0.147748 0
M  V30 3335 H 294.719 1.93429 -0.283782 0
M  V30 3336 H 293.423 4.10315 0.0834208 0
M  V30 3337 H 292.954 3.54862 1.69814 0
M  V30 3338 H 294.969 4.06046 2.85203 0
M  V30 3339 N 294.142 -0.090211 1.57342 0
M  V30 3340 C 295.367 -0.810082 1.90925 0
M  V30 3341 C 295.792 -1.71248 0.778187 0
M  V30 3342 O 295.15 -1.79278 -0.269991 0
M  V30 3343 C 295.198 -1.59529 3.23393 0
M  V30 3344 O 294.302 -2.70461 3.11327 0
M  V30 3345 H 293.643 -0.222231 0.625707 0
M  V30 3346 H 296.173 -0.0639716 2.045 0
M  V30 3347 H 296.183 -1.97847 3.5682 0
M  V30 3348 H 294.858 -0.933055 4.05299 0
M  V30 3349 H 293.435 -2.35135 2.89423 0
M  V30 3350 N 295.62 -1.53406 -0.361157 0
M  V30 3351 C 296.552 -1.76446 -1.46286 0
M  V30 3352 C 297.565 -0.645322 -1.49464 0
M  V30 3353 O 298.754 -0.921681 -1.52864 0
M  V30 3354 C 295.854 -1.83332 -2.85031 0
M  V30 3355 C 295.027 -3.13033 -3.05498 0
M  V30 3356 C 294.086 -3.11104 -4.24383 0
M  V30 3357 O 293.112 -3.84888 -4.19344 0
M  V30 3358 N 294.314 -2.32234 -5.32022 0
M  V30 3359 H 297.079 -2.71508 -1.26899 0
M  V30 3360 H 294.64 -1.52238 -0.550915 0
M  V30 3361 H 296.632 -1.79514 -3.62708 0
M  V30 3362 H 295.202 -0.955342 -2.97644 0
M  V30 3363 H 294.422 -3.30119 -2.15442 0
M  V30 3364 H 295.71 -3.9874 -3.16044 0
M  V30 3365 H 295.108 -1.71807 -5.38979 0
M  V30 3366 H 293.665 -2.3423 -6.08259 0
M  V30 3367 N 297.098 0.621204 -1.44841 0
M  V30 3368 C 298.326 1.40752 -1.51646 0
M  V30 3369 C 298.741 1.88246 -0.144549 0
M  V30 3370 O 298.098 1.61422 0.851416 0
M  V30 3371 C 298.149 2.62119 -2.4895 0
M  V30 3372 O 297.87 2.16602 -3.80808 0
M  V30 3373 C 299.371 3.55135 -2.65319 0
M  V30 3374 H 296.591 0.431325 -0.514004 0
M  V30 3375 H 299.135 0.758835 -1.899 0
M  V30 3376 H 297.29 3.23058 -2.13805 0
M  V30 3377 H 297.704 2.95358 -4.33433 0
M  V30 3378 H 299.178 4.36874 -3.37409 0
M  V30 3379 H 299.655 4.04592 -1.70886 0
M  V30 3380 H 300.261 3.00058 -3.01405 0
M  V30 3381 N 298.576 1.31904 0.862503 0
M  V30 3382 C 299.853 1.12644 1.59908 0
M  V30 3383 C 300.233 -0.316104 2.0872 0
M  V30 3384 O 299.581 -1.31145 1.87118 0
M  V30 3385 C 299.791 2.1472 2.7513 0
M  V30 3386 C 301.139 2.47637 3.44907 0
M  V30 3387 O 302.163 2.13205 2.85346 0
M  V30 3388 O 301.022 3.06632 4.52371 0
M  V30 3389 H 298.116 0.43416 0.703871 0
M  V30 3390 H 300.662 1.43408 0.907314 0
M  V30 3391 H 299.434 3.1172 2.3653 0
M  V30 3392 H 299.057 1.84905 3.51989 0
M  V30 3393 N 300.054 -1.07777 1.14986 0
M  V30 3394 C 301.302 -1.79934 0.920235 0
M  V30 3395 C 301.623 -1.86955 -0.554336 0
M  V30 3396 O 300.893 -1.36731 -1.40291 0
M  V30 3397 H 299.473 -0.666424 0.337473 0
M  V30 3398 H 302.135 -1.3027 1.44968 0
M  V30 3399 H 301.231 -2.82539 1.32583 0
M  V30 3400 N 301.532 -0.945985 -1.26051 0
M  V30 3401 C 302.462 -0.477172 -2.28572 0
M  V30 3402 C 303.443 0.472032 -1.63419 0
M  V30 3403 O 304.628 0.372853 -1.90587 0
M  V30 3404 C 301.758 0.253975 -3.4637 0
M  V30 3405 C 300.712 -0.609135 -4.23643 0
M  V30 3406 C 300.038 0.252252 -5.34105 0
M  V30 3407 C 301.338 -1.8829 -4.8718 0
M  V30 3408 H 303.032 -1.33402 -2.68038 0
M  V30 3409 H 300.578 -0.642904 -1.28852 0
M  V30 3410 H 302.531 0.593016 -4.17207 0
M  V30 3411 H 301.255 1.145 -3.05871 0
M  V30 3412 H 299.914 -0.931138 -3.54578 0
M  V30 3413 H 299.562 1.14278 -4.89846 0
M  V30 3414 H 299.262 -0.32188 -5.86718 0
M  V30 3415 H 300.786 0.586454 -6.07777 0
M  V30 3416 H 302.2 -1.61081 -5.50205 0
M  V30 3417 H 300.597 -2.40199 -5.49931 0
M  V30 3418 H 301.667 -2.59134 -4.09851 0
M  V30 3419 N 303.011 1.40521 -0.713556 0
M  V30 3420 C 303.959 2.32549 -0.0485227 0
M  V30 3421 C 304.953 1.51931 0.74922 0
M  V30 3422 O 306.159 1.67745 0.652816 0
M  V30 3423 H 302.534 0.751994 0.00311138 0
M  V30 3424 H 304.505 2.86291 -0.841443 0
M  V30 3425 C 303.254 3.36879 0.860687 0
M  V30 3426 H 302.577 3.98978 0.256246 0
M  V30 3427 H 304.017 4.03772 1.294 0
M  V30 3428 C 302.476 2.72197 1.9852 0
M  V30 3429 O 303.006 2.5837 3.07584 0
M  V30 3430 N 301.212 2.30612 1.76823 0
M  V30 3431 H 300.759 2.42059 0.881217 0
M  V30 3432 H 300.717 1.87672 2.52243 0
M  V30 3433 N 304.489 0.459591 1.5075 0
M  V30 3434 C 305.714 -0.0996819 2.0716 0
M  V30 3435 C 306.139 -1.33761 1.32249 0
M  V30 3436 O 305.497 -1.77551 0.366786 0
M  V30 3437 C 305.545 -0.378226 3.58611 0
M  V30 3438 O 304.649 -1.46081 3.85661 0
M  V30 3439 H 303.99 0.00791392 0.663953 0
M  V30 3440 H 306.52 0.647329 1.9409 0
M  V30 3441 H 306.53 -0.622135 4.03229 0
M  V30 3442 H 305.205 0.526439 4.12555 0
M  V30 3443 H 303.782 -1.20511 3.5289 0
M  V30 3444 N 305.967 -1.56429 0.191757 0
M  V30 3445 C 306.914 -2.18936 -0.730454 0
M  V30 3446 C 307.884 -1.13557 -1.21219 0
M  V30 3447 O 309.069 -1.41794 -1.27668 0
M  V30 3448 C 306.209 -2.85013 -1.9458 0
M  V30 3449 C 305.322 -4.04909 -1.50574 0
M  V30 3450 C 304.457 -4.58853 -2.67634 0
M  V30 3451 C 303.496 -5.71114 -2.20217 0
M  V30 3452 N 302.633 -6.19478 -3.30442 0
M  V30 3453 H 307.473 -2.97389 -0.190664 0
M  V30 3454 H 305.01 -1.46869 -0.0823694 0
M  V30 3455 H 306.968 -3.21492 -2.65893 0
M  V30 3456 H 305.598 -2.09129 -2.45896 0
M  V30 3457 H 304.65 -3.74115 -0.688605 0
M  V30 3458 H 305.962 -4.86113 -1.11784 0
M  V30 3459 H 305.116 -4.97619 -3.47074 0
M  V30 3460 H 303.855 -3.76749 -3.09696 0
M  V30 3461 H 302.86 -5.31879 -1.3923 0
M  V30 3462 H 304.085 -6.55033 -1.79189 0
M  V30 3463 H 302.031 -5.40297 -3.72041 0
M  V30 3464 H 301.948 -6.95725 -2.9581 0
M  V30 3465 H 303.216 -6.62898 -4.10106 0
M  V30 3466 N 307.445 0.0818655 -1.57387 0
M  V30 3467 C 308.692 0.782914 -1.86753 0
M  V30 3468 C 309.02 1.78082 -0.782118 0
M  V30 3469 O 308.275 1.94426 0.22295 0
M  V30 3470 C 308.574 1.53513 -3.22752 0
M  V30 3471 C 308.24 0.678134 -4.45771 0
M  V30 3472 C 306.902 0.441929 -4.79166 0
M  V30 3473 C 309.254 0.0832243 -5.21134 0
M  V30 3474 C 306.582 -0.398833 -5.85343 0
M  V30 3475 C 308.934 -0.744935 -6.28199 0
M  V30 3476 C 307.598 -0.991107 -6.60101 0
M  V30 3477 H 306.868 0.286489 -0.683378 0
M  V30 3478 H 309.515 0.0439808 -1.91449 0
M  V30 3479 H 307.82 2.34599 -3.138 0
M  V30 3480 H 309.517 2.08218 -3.42705 0
M  V30 3481 H 306.107 0.872357 -4.19628 0
M  V30 3482 H 310.291 0.252847 -4.95655 0
M  V30 3483 H 305.547 -0.598405 -6.08465 0
M  V30 3484 H 309.721 -1.21271 -6.8576 0
M  V30 3485 H 307.348 -1.64437 -7.42202 0
M  V30 3486 N 308.923 1.53595 0.353017 0
M  V30 3487 C 309.853 1.83902 1.43883 0
M  V30 3488 C 310.834 0.693421 1.55324 0
M  V30 3489 O 312.019 0.944452 1.69687 0
M  V30 3490 C 309.149 2.04016 2.8106 0
M  V30 3491 C 308.103 3.19814 2.84434 0
M  V30 3492 C 307.429 3.25244 4.24406 0
M  V30 3493 C 308.729 4.58133 2.50822 0
M  V30 3494 H 310.423 2.74835 1.1877 0
M  V30 3495 H 307.969 1.32242 0.569917 0
M  V30 3496 H 309.922 2.238 3.57059 0
M  V30 3497 H 308.646 1.09804 3.07588 0
M  V30 3498 H 307.305 2.9987 2.10887 0
M  V30 3499 H 306.953 2.28646 4.48029 0
M  V30 3500 H 306.653 4.03054 4.27576 0
M  V30 3501 H 308.177 3.47228 5.0226 0
M  V30 3502 H 309.591 4.77995 3.16534 0
M  V30 3503 H 307.988 5.38276 2.6529 0
M  V30 3504 H 309.058 4.62387 1.46034 0
M  V30 3505 N 310.401 -0.613514 1.45168 0
M  V30 3506 C 311.678 -1.37263 1.39349 0
M  V30 3507 C 312.058 -2.11012 0.0610848 0
M  V30 3508 O 311.406 -2.07502 -0.956825 0
M  V30 3509 C 311.616 -2.3244 2.60332 0
M  V30 3510 C 312.964 -2.9523 3.05163 0
M  V30 3511 O 313.988 -2.42762 2.60663 0
M  V30 3512 O 312.847 -3.90454 3.82372 0
M  V30 3513 H 309.941 -0.615188 0.552696 0
M  V30 3514 H 312.487 -0.637097 1.57287 0
M  V30 3515 H 311.259 -1.77164 3.48896 0
M  V30 3516 H 310.882 -3.13383 2.44698 0
M  V30 3517 N 311.879 -1.3236 -0.855495 0
M  V30 3518 C 313.126 -1.22872 -1.60962 0
M  V30 3519 C 313.454 0.209658 -1.93367 0
M  V30 3520 O 312.709 1.16243 -1.57436 0
M  V30 3521 C 313.008 -2.03275 -2.93963 0
M  V30 3522 C 312.674 -3.5264 -2.80991 0
M  V30 3523 C 311.336 -3.93364 -2.7716 0
M  V30 3524 C 313.688 -4.47626 -2.66983 0
M  V30 3525 C 311.016 -5.27319 -2.572 0
M  V30 3526 C 313.368 -5.81723 -2.48558 0
M  V30 3527 C 312.032 -6.2165 -2.4312 0
M  V30 3528 H 311.302 -0.44962 -0.589001 0
M  V30 3529 H 313.949 -1.63777 -0.992442 0
M  V30 3530 H 312.254 -1.55095 -3.59795 0
M  V30 3531 H 313.951 -1.93303 -3.51333 0
M  V30 3532 H 310.541 -3.20295 -2.84797 0
M  V30 3533 H 314.725 -4.17084 -2.68988 0
M  V30 3534 H 309.981 -5.57311 -2.51424 0
M  V30 3535 H 314.155 -6.5494 -2.36699 0
M  V30 3536 H 311.782 -7.25388 -2.27412 0
M  V30 3537 N 313.357 1.07166 -1.15556 0
M  V30 3538 C 314.604 1.79798 -0.931604 0
M  V30 3539 C 314.932 1.8682 0.54115 0
M  V30 3540 O 314.187 1.34942 1.41736 0
M  V30 3541 C 314.486 3.24707 -1.49332 0
M  V30 3542 C 314.152 3.37781 -2.98688 0
M  V30 3543 C 312.814 3.41057 -3.39461 0
M  V30 3544 C 315.166 3.40424 -3.94665 0
M  V30 3545 C 312.494 3.4458 -4.74849 0
M  V30 3546 C 314.846 3.45485 -5.29927 0
M  V30 3547 C 313.51 3.47039 -5.70193 0
M  V30 3548 H 312.78 0.657928 -0.340898 0
M  V30 3549 H 315.427 1.26091 -1.44129 0
M  V30 3550 H 313.732 3.81208 -0.904859 0
M  V30 3551 H 315.429 3.79486 -1.29582 0
M  V30 3552 H 312.019 3.35932 -2.66172 0
M  V30 3553 H 316.203 3.37113 -3.64237 0
M  V30 3554 H 311.459 3.44083 -5.05388 0
M  V30 3555 H 315.633 3.46476 -6.04092 0
M  V30 3556 H 313.26 3.49522 -6.75084 0
M  V30 3557 N 314.835 0.952656 1.25548 0
M  V30 3558 C 316.06 0.623025 1.97821 0
M  V30 3559 C 316.485 -0.7976 1.70352 0
M  V30 3560 O 315.843 -1.53905 0.958283 0
M  V30 3561 C 315.891 0.885532 3.49558 0
M  V30 3562 O 314.995 -0.0366641 4.12384 0
M  V30 3563 H 314.336 0.237082 0.620232 0
M  V30 3564 H 316.866 1.27871 1.59719 0
M  V30 3565 H 316.876 0.811009 3.99858 0
M  V30 3566 H 315.551 1.92094 3.6888 0
M  V30 3567 H 314.128 0.0898954 3.72792 0
M  V30 3568 N 316.313 -1.40141 0.720998 0
M  V30 3569 C 317.26 -2.30688 0.071919 0
M  V30 3570 C 318.23 -1.48476 -0.744584 0
M  V30 3571 O 319.415 -1.77201 -0.707423 0
M  V30 3572 C 316.555 -3.34724 -0.839855 0
M  V30 3573 C 315.668 -4.31998 -0.0122438 0
M  V30 3574 C 314.803 -5.23102 -0.923995 0
M  V30 3575 C 313.842 -6.12033 -0.0907969 0
M  V30 3576 N 312.979 -6.95537 -0.957718 0
M  V30 3577 H 317.819 -2.85628 0.849755 0
M  V30 3578 H 315.356 -1.40653 0.430726 0
M  V30 3579 H 317.314 -3.93618 -1.38279 0
M  V30 3580 H 315.944 -2.81274 -1.58381 0
M  V30 3581 H 314.996 -3.74841 0.64794 0
M  V30 3582 H 316.308 -4.94772 0.632595 0
M  V30 3583 H 315.462 -5.86953 -1.53527 0
M  V30 3584 H 314.201 -4.60615 -1.60264 0
M  V30 3585 H 313.206 -5.47207 0.533377 0
M  V30 3586 H 314.431 -6.76581 0.584428 0
M  V30 3587 H 312.377 -6.35633 -1.62192 0
M  V30 3588 H 312.294 -7.55099 -0.36904 0
M  V30 3589 H 313.562 -7.63832 -1.555 0
M  V30 3590 N 317.792 -0.46758 -1.50504 0
M  V30 3591 C 318.755 0.317059 -2.26996 0
M  V30 3592 C 319.755 0.923513 -1.31635 0
M  V30 3593 O 320.945 0.793239 -1.55091 0
M  V30 3594 C 318.077 1.45134 -3.08462 0
M  V30 3595 H 319.27 -0.353723 -2.97807 0
M  V30 3596 H 316.823 -0.221545 -1.54722 0
M  V30 3597 H 317.558 2.15728 -2.4214 0
M  V30 3598 H 317.343 1.02232 -3.78538 0
M  V30 3599 H 318.833 2.00493 -3.66323 0
M  V30 3600 N 319.27 1.56325 -0.20005 0
M  V30 3601 C 320.519 1.96895 0.437652 0
M  V30 3602 C 320.832 1.08999 1.62415 0
M  V30 3603 O 322.038 1.39372 2.32997 0
M  V30 3604 C 320.494 3.50198 0.830025 0
M  V30 3605 C 320.102 4.46765 -0.332461 0
M  V30 3606 C 321.846 3.99526 1.43453 0
M  V30 3607 C 319.753 5.91344 0.0811468 0
M  V30 3608 H 318.683 0.735209 0.167282 0
M  V30 3609 H 321.334 1.81148 -0.292853 0
M  V30 3610 H 319.716 3.61467 1.61734 0
M  V30 3611 H 320.89 4.47231 -1.11 0
M  V30 3612 H 319.205 4.07657 -0.848789 0
M  V30 3613 H 321.802 5.05025 1.75652 0
M  V30 3614 H 322.145 3.44122 2.34277 0
M  V30 3615 H 322.678 3.91393 0.71109 0
M  V30 3616 H 319.417 6.50685 -0.793033 0
M  V30 3617 H 318.937 5.94121 0.823445 0
M  V30 3618 H 320.616 6.44945 0.515252 0
M  V30 3619 N 320.748 -0.0735177 1.57428 0
M  V30 3620 C 321.68 -1.11423 2.00294 0
M  V30 3621 C 322.693 -1.35084 0.908637 0
M  V30 3622 O 323.882 -1.33355 1.18654 0
M  V30 3623 C 320.982 -2.46548 2.32523 0
M  V30 3624 C 320.155 -2.42867 3.63778 0
M  V30 3625 C 319.214 -3.60087 3.83697 0
M  V30 3626 O 318.24 -3.41595 4.55304 0
M  V30 3627 N 319.442 -4.80372 3.25919 0
M  V30 3628 H 322.207 -0.749206 2.90184 0
M  V30 3629 H 319.768 -0.262195 1.59763 0
M  V30 3630 H 321.76 -3.23607 2.43024 0
M  V30 3631 H 320.33 -2.75059 1.48531 0
M  V30 3632 H 319.55 -1.51206 3.64047 0
M  V30 3633 H 320.838 -2.37506 4.49965 0
M  V30 3634 H 320.236 -4.983 2.67795 0
M  V30 3635 H 318.793 -5.54948 3.41871 0
M  V30 3636 N 322.226 -1.5378 -0.344866 0
M  V30 3637 C 323.466 -1.72677 -1.09371 0
M  V30 3638 C 323.83 -0.479084 -1.85927 0
M  V30 3639 O 325.031 -0.54505 -2.63216 0
M  V30 3640 C 323.302 -2.95457 -2.01097 0
M  V30 3641 S 324.861 -3.35158 -2.83222 0
M  V30 3642 H 321.679 -0.607402 -0.369573 0
M  V30 3643 H 324.281 -1.91922 -0.372307 0
M  V30 3644 H 322.985 -3.84437 -1.43655 0
M  V30 3645 H 322.516 -2.78673 -2.77678 0
M  V30 3646 H 324.531 -2.88789 -4.03504 0
M  V30 3647 N 323.704 0.605807 -1.45491 0
M  V30 3648 C 324.667 1.69836 -1.5391 0
M  V30 3649 C 325.667 1.55261 -0.418424 0
M  V30 3650 O 326.857 1.60296 -0.681965 0
M  V30 3651 C 323.989 3.09117 -1.43734 0
M  V30 3652 H 325.182 1.63738 -2.51257 0
M  V30 3653 H 322.735 0.821689 -1.32959 0
M  V30 3654 H 323.47 3.20791 -0.475788 0
M  V30 3655 H 323.255 3.21104 -2.25021 0
M  V30 3656 H 324.745 3.88696 -1.52661 0
M  V30 3657 N 325.182 1.32811 0.848464 0
M  V30 3658 C 326.598 1.11937 1.13764 0
M  V30 3659 C 326.798 -0.0960789 2.01271 0
M  V30 3660 O 325.854 -0.779165 2.40178 0
M  V30 3661 C 327.167 2.402 1.809 0
M  V30 3662 C 328.715 2.46016 1.93508 0
M  V30 3663 C 329.19 3.74215 2.64059 0
M  V30 3664 N 330.681 3.75232 2.71579 0
M  V30 3665 C 331.416 4.71134 3.26833 0
M  V30 3666 N 330.912 5.77406 3.8285 0
M  V30 3667 N 332.705 4.58623 3.24995 0
M  V30 3668 H 324.856 2.1073 0.265855 0
M  V30 3669 H 327.119 0.930671 0.180431 0
M  V30 3670 H 326.825 3.29093 1.24058 0
M  V30 3671 H 326.699 2.51628 2.81004 0
M  V30 3672 H 329.086 1.57577 2.49506 0
M  V30 3673 H 329.167 2.38536 0.923811 0
M  V30 3674 H 328.811 4.63031 2.08722 0
M  V30 3675 H 328.741 3.78968 3.65637 0
M  V30 3676 H 331.232 2.98423 2.31845 0
M  V30 3677 H 331.545 6.46632 4.23187 0
M  V30 3678 H 329.89 5.81152 3.81165 0
M  V30 3679 H 333.081 3.74762 2.80484 0
M  V30 3680 H 333.254 5.33535 3.67756 0
M  V30 3681 N 326.66 -1.06551 1.16123 0
M  V30 3682 C 327.592 -2.13908 0.823171 0
M  V30 3683 C 328.605 -1.61926 -0.16843 0
M  V30 3684 O 329.794 -1.78412 0.055962 0
M  V30 3685 C 326.894 -3.38283 0.204424 0
M  V30 3686 C 326.067 -4.19589 1.23548 0
M  V30 3687 C 325.126 -5.2233 0.637011 0
M  V30 3688 O 324.152 -5.54034 1.30516 0
M  V30 3689 N 325.354 -5.77621 -0.577474 0
M  V30 3690 H 328.119 -2.43508 1.74711 0
M  V30 3691 H 325.68 -1.2253 1.05821 0
M  V30 3692 H 327.672 -4.0416 -0.208909 0
M  V30 3693 H 326.242 -3.06329 -0.623012 0
M  V30 3694 H 325.462 -3.49406 1.82507 0
M  V30 3695 H 326.75 -4.70718 1.93137 0
M  V30 3696 H 326.148 -5.54125 -1.13853 0
M  V30 3697 H 324.705 -6.45087 -0.933053 0
M  V30 3698 N 328.138 -0.959301 -1.25041 0
M  V30 3699 C 329.048 -0.489994 -2.29426 0
M  V30 3700 C 330.064 0.444944 -1.68215 0
M  V30 3701 O 331.24 0.320046 -1.98841 0
M  V30 3702 C 328.305 0.220309 -3.45999 0
M  V30 3703 C 327.366 -0.753418 -4.22637 0
M  V30 3704 C 326.599 -0.076918 -5.33645 0
M  V30 3705 O 326.822 1.13649 -5.58963 0
M  V30 3706 O 325.756 -0.764824 -5.97021 0
M  V30 3707 H 329.582 -1.35755 -2.71669 0
M  V30 3708 H 327.167 -0.725961 -1.30576 0
M  V30 3709 H 329.049 0.619677 -4.16819 0
M  V30 3710 H 327.724 1.06296 -3.0575 0
M  V30 3711 H 326.631 -1.20308 -3.54227 0
M  V30 3712 H 327.964 -1.56423 -4.66683 0
M  V30 3713 N 329.616 1.39756 -0.72842 0
M  V30 3714 C 330.563 2.30647 -0.0841519 0
M  V30 3715 C 331.533 1.48869 0.7367 0
M  V30 3716 O 332.718 1.77574 0.698015 0
M  V30 3717 C 329.858 3.35165 0.822091 0
M  V30 3718 C 328.971 4.31999 -0.0106663 0
M  V30 3719 C 328.106 5.23585 0.896241 0
M  V30 3720 C 327.145 6.12072 0.0583381 0
M  V30 3721 N 326.282 6.96035 0.920818 0
M  V30 3722 H 331.122 2.85173 -0.864891 0
M  V30 3723 H 328.659 1.40422 -0.438179 0
M  V30 3724 H 330.617 3.94345 1.36189 0
M  V30 3725 H 329.247 2.8211 1.56888 0
M  V30 3726 H 328.299 3.74492 -0.66781 0
M  V30 3727 H 329.611 4.9443 -0.658825 0
M  V30 3728 H 328.765 5.87759 1.50412 0
M  V30 3729 H 327.504 4.61459 1.57819 0
M  V30 3730 H 326.509 5.46916 -0.562389 0
M  V30 3731 H 327.734 6.76261 -0.6203 0
M  V30 3732 H 325.68 6.36485 1.58818 0
M  V30 3733 H 325.597 7.55284 0.32899 0
M  V30 3734 H 326.865 7.64646 1.51447 0
M  V30 3735 N 331.094 0.475555 1.50254 0
M  V30 3736 C 332.319 -0.0777042 2.07254 0
M  V30 3737 C 332.744 -1.3235 1.3366 0
M  V30 3738 O 332.102 -1.77152 0.385597 0
M  V30 3739 C 332.15 -0.340169 3.58992 0
M  V30 3740 O 331.254 -1.41982 3.87188 0
M  V30 3741 H 330.595 0.0149556 0.663832 0
M  V30 3742 H 333.125 0.667878 1.93392 0
M  V30 3743 H 333.135 -0.579332 4.03866 0
M  V30 3744 H 331.81 0.570167 4.11973 0
M  V30 3745 H 330.387 -1.16762 3.54148 0
M  V30 3746 N 332.573 -1.56217 0.208337 0
M  V30 3747 C 333.798 -2.02782 -0.435222 0
M  V30 3748 C 334.223 -1.08738 -1.53485 0
M  V30 3749 O 333.581 -0.0731855 -1.81152 0
M  V30 3750 C 333.629 -3.47687 -0.956335 0
M  V30 3751 O 332.733 -3.56773 -2.06849 0
M  V30 3752 H 332.074 -0.656403 -0.100158 0
M  V30 3753 H 334.604 -2.02033 0.3231 0
M  V30 3754 H 334.614 -3.87745 -1.26955 0
M  V30 3755 H 333.289 -4.15624 -0.15143 0
M  V30 3756 H 331.866 -3.28597 -1.76292 0
M  V30 3757 N 334.051 0.0651679 -1.57465 0
M  V30 3758 C 335.276 0.779605 -1.9219 0
M  V30 3759 C 335.701 1.69988 -0.805333 0
M  V30 3760 O 335.059 1.79685 0.241435 0
M  V30 3761 C 335.107 1.54364 -3.2589 0
M  V30 3762 O 334.211 2.65474 -3.1559 0
M  V30 3763 H 333.552 0.212249 -0.629163 0
M  V30 3764 H 336.082 0.0314294 -2.04576 0
M  V30 3765 H 336.092 1.92146 -3.59922 0
M  V30 3766 H 334.767 0.868457 -4.06732 0
M  V30 3767 H 333.344 2.30501 -2.93128 0
M  V30 3768 N 335.529 1.53961 0.336706 0
M  V30 3769 C 336.777 1.71197 1.07405 0
M  V30 3770 C 337.098 0.481475 1.88962 0
M  V30 3771 O 336.368 -0.504585 1.8929 0
M  V30 3772 H 334.948 0.631185 0.399517 0
M  V30 3773 H 337.61 1.91232 0.376323 0
M  V30 3774 H 336.706 2.58587 1.74755 0
M  V30 3775 N 337.007 -0.598083 1.45811 0
M  V30 3776 C 337.937 -1.71873 1.58057 0
M  V30 3777 C 338.918 -1.64533 0.431615 0
M  V30 3778 O 340.103 -1.82787 0.65595 0
M  V30 3779 C 337.233 -3.10495 1.55597 0
M  V30 3780 C 336.187 -3.32654 2.69305 0
M  V30 3781 C 335.513 -4.71646 2.51902 0
M  V30 3782 C 336.813 -3.21981 4.11248 0
M  V30 3783 H 338.507 -1.61881 2.51863 0
M  V30 3784 H 336.053 -0.777372 1.21214 0
M  V30 3785 H 338.006 -3.88699 1.6276 0
M  V30 3786 H 336.73 -3.2135 0.583255 0
M  V30 3787 H 335.389 -2.56843 2.61586 0
M  V30 3788 H 335.037 -4.79246 1.52748 0
M  V30 3789 H 334.737 -4.87426 3.2816 0
M  V30 3790 H 336.261 -5.52038 2.60933 0
M  V30 3791 H 337.675 -3.90049 4.20161 0
M  V30 3792 H 336.072 -3.49289 4.87972 0
M  V30 3793 H 337.142 -2.1928 4.32486 0
M  V30 3794 N 338.485 -1.33259 -0.841409 0
M  V30 3795 C 339.433 -1.23279 -1.97244 0
M  V30 3796 C 340.427 -0.134706 -1.68864 0
M  V30 3797 O 341.633 -0.298501 -1.77508 0
M  V30 3798 H 338.008 -0.382497 -0.647457 0
M  V30 3799 H 339.979 -2.18906 -2.02787 0
M  V30 3800 C 338.728 -0.986268 -3.33419 0
M  V30 3801 H 338.051 -1.82347 -3.55794 0
M  V30 3802 H 339.491 -0.956728 -4.13065 0
M  V30 3803 C 337.95 0.310842 -3.35463 0
M  V30 3804 O 338.48 1.31838 -3.79449 0
M  V30 3805 N 336.686 0.337485 -2.88634 0
M  V30 3806 H 336.233 -0.482967 -2.53032 0
M  V30 3807 H 336.191 1.20518 -2.90384 0
M  V30 3808 N 339.963 1.05934 -1.16686 0
M  V30 3809 C 340.913 2.11764 -0.844978 0
M  V30 3810 C 341.897 1.59922 0.177178 0
M  V30 3811 O 343.089 1.76983 -0.0241768 0
M  V30 3812 C 340.218 3.41493 -0.351812 0
M  V30 3813 C 339.304 4.00152 -1.40496 0
M  V30 3814 N 339.695 4.32874 -2.61636 0
M  V30 3815 C 337.993 4.278 -1.26106 0
M  V30 3816 C 338.694 4.79552 -3.29249 0
M  V30 3817 N 337.67 4.79211 -2.56628 0
M  V30 3818 H 341.472 2.34916 -1.76612 0
M  V30 3819 H 338.986 1.23511 -1.05446 0
M  V30 3820 H 340.983 4.16773 -0.102796 0
M  V30 3821 H 339.643 3.19778 0.56322 0
M  V30 3822 H 340.654 4.23109 -2.98663 0
M  V30 3823 H 337.331 4.15511 -0.407081 0
M  V30 3824 H 338.721 5.14045 -4.32675 0
M  V30 3825 N 341.441 0.965919 1.2453 0
M  V30 3826 C 342.69 0.622437 1.91856 0
M  V30 3827 C 343.003 -0.846006 1.76358 0
M  V30 3828 O 344.209 -1.29993 2.38357 0
M  V30 3829 C 342.665 1.0626 3.43856 0
M  V30 3830 C 342.273 2.55437 3.68043 0
M  V30 3831 C 344.017 0.792183 4.17043 0
M  V30 3832 C 341.924 2.93196 5.13605 0
M  V30 3833 H 340.854 0.229092 0.718354 0
M  V30 3834 H 343.505 1.17189 1.41206 0
M  V30 3835 H 341.887 0.441476 3.93531 0
M  V30 3836 H 343.061 3.22665 3.28974 0
M  V30 3837 H 341.376 2.8007 3.08139 0
M  V30 3838 H 343.973 1.05031 5.24283 0
M  V30 3839 H 344.316 -0.271584 4.15413 0
M  V30 3840 H 344.849 1.37419 3.73311 0
M  V30 3841 H 341.588 3.98636 5.20355 0
M  V30 3842 H 341.108 2.30651 5.53679 0
M  V30 3843 H 342.787 2.83004 5.81823 0
M  V30 3844 N 342.919 -1.39368 0.735821 0
M  V30 3845 C 343.849 -2.33234 0.111506 0
M  V30 3846 C 344.83 -1.53954 -0.723334 0
M  V30 3847 O 346.015 -1.82344 -0.668147 0
M  V30 3848 C 343.145 -3.38057 -0.795917 0
M  V30 3849 C 342.099 -4.2795 -0.065172 0
M  V30 3850 C 341.425 -5.23479 -1.08967 0
M  V30 3851 C 342.725 -5.10741 1.09273 0
M  V30 3852 H 344.419 -2.85692 0.895571 0
M  V30 3853 H 341.965 -1.37364 0.432109 0
M  V30 3854 H 343.918 -4.02675 -1.24221 0
M  V30 3855 H 342.642 -2.8404 -1.61211 0
M  V30 3856 H 341.301 -3.64813 0.361511 0
M  V30 3857 H 340.949 -4.65758 -1.89944 0
M  V30 3858 H 340.649 -5.84472 -0.605489 0
M  V30 3859 H 342.173 -5.90974 -1.53565 0
M  V30 3860 H 343.587 -5.68699 0.724841 0
M  V30 3861 H 341.984 -5.8088 1.50659 0
M  V30 3862 H 343.054 -4.45525 1.91404 0
M  V30 3863 N 344.397 -0.483516 -1.5 0
M  V30 3864 C 345.36 0.292965 -2.2732 0
M  V30 3865 C 346.36 0.909499 -1.32608 0
M  V30 3866 O 347.55 0.776745 -1.55924 0
M  V30 3867 C 344.682 1.41854 -3.09984 0
M  V30 3868 H 345.875 -0.385289 -2.97415 0
M  V30 3869 H 343.428 -0.237942 -1.54478 0
M  V30 3870 H 344.163 2.13148 -2.44414 0
M  V30 3871 H 343.948 0.982114 -3.79601 0
M  V30 3872 H 345.438 1.96597 -3.68429 0
M  V30 3873 N 345.875 1.56104 -0.216619 0
M  V30 3874 C 346.838 2.18819 0.681962 0
M  V30 3875 C 347.838 1.14866 1.12528 0
M  V30 3876 O 349.028 1.40128 1.03488 0
M  V30 3877 C 346.16 2.80756 1.93362 0
M  V30 3878 H 347.353 2.99595 0.135254 0
M  V30 3879 H 344.906 1.56265 0.0330003 0
M  V30 3880 H 345.641 2.03837 2.52232 0
M  V30 3881 H 345.426 3.56876 1.62426 0
M  V30 3882 H 346.916 3.28844 2.57393 0
M  V30 3883 N 347.353 -0.0568162 1.57498 0
M  V30 3884 C 348.283 -1.06593 2.0775 0
M  V30 3885 C 349.264 -1.39448 0.974082 0
M  V30 3886 O 350.449 -1.48815 1.24771 0
M  V30 3887 C 347.579 -2.37509 2.5339 0
M  V30 3888 C 346.533 -2.1897 3.67745 0
M  V30 3889 C 345.859 -3.55402 3.99492 0
M  V30 3890 C 347.159 -1.59859 4.97235 0
M  V30 3891 H 348.853 -0.647706 2.9231 0
M  V30 3892 H 346.399 -0.310116 1.40621 0
M  V30 3893 H 348.352 -3.08409 2.87162 0
M  V30 3894 H 347.076 -2.8134 1.65878 0
M  V30 3895 H 345.735 -1.50508 3.3428 0
M  V30 3896 H 345.383 -3.9683 3.09088 0
M  V30 3897 H 345.083 -3.43831 4.76502 0
M  V30 3898 H 346.607 -4.27708 4.35773 0
M  V30 3899 H 348.021 -2.20642 5.29141 0
M  V30 3900 H 346.418 -1.58942 5.78669 0
M  V30 3901 H 347.488 -0.561506 4.81638 0
M  V30 3902 N 348.832 -1.54138 -0.328536 0
M  V30 3903 C 350.06 -1.76062 -1.08673 0
M  V30 3904 C 350.475 -0.506852 -1.81869 0
M  V30 3905 O 349.832 0.522223 -1.74869 0
M  V30 3906 C 349.883 -2.95054 -2.08866 0
M  V30 3907 O 349.604 -4.15583 -1.38644 0
M  V30 3908 C 351.105 -3.2915 -2.96943 0
M  V30 3909 H 348.325 -0.587889 -0.323461 0
M  V30 3910 H 350.869 -2.0101 -0.376175 0
M  V30 3911 H 349.024 -2.72394 -2.75464 0
M  V30 3912 H 349.438 -4.82481 -2.05699 0
M  V30 3913 H 350.912 -4.15723 -3.63151 0
M  V30 3914 H 351.389 -2.461 -3.63774 0
M  V30 3915 H 351.995 -3.53871 -2.35914 0
M  V30 3916 N 350.31 0.590341 -1.46126 0
M  V30 3917 C 351.559 1.34499 -1.50309 0
M  V30 3918 C 351.872 1.94977 -0.156021 0
M  V30 3919 O 353.078 2.71395 -0.0756037 0
M  V30 3920 C 351.534 2.43723 -2.64815 0
M  V30 3921 C 351.142 1.89582 -4.0591 0
M  V30 3922 C 352.886 3.20579 -2.78262 0
M  V30 3923 C 350.793 2.9639 -5.11769 0
M  V30 3924 H 349.723 0.505593 -0.559368 0
M  V30 3925 H 352.374 0.630848 -1.72315 0
M  V30 3926 H 350.756 3.17902 -2.36124 0
M  V30 3927 H 351.93 1.21997 -4.44357 0
M  V30 3928 H 350.245 1.25418 -3.97063 0
M  V30 3929 H 352.842 4.00276 -3.54519 0
M  V30 3930 H 353.185 3.72684 -1.85505 0
M  V30 3931 H 353.718 2.53505 -3.06562 0
M  V30 3932 H 350.457 2.49181 -6.06291 0
M  V30 3933 H 349.977 3.62487 -4.77873 0
M  V30 3934 H 351.656 3.60474 -5.37278 0
M  V30 3935 N 351.788 1.33704 0.83433 0
M  V30 3936 C 353.035 1.25417 1.58987 0
M  V30 3937 C 353.363 -0.178869 1.93676 0
M  V30 3938 O 352.618 -1.13723 1.59265 0
M  V30 3939 C 352.917 2.07926 2.90692 0
M  V30 3940 C 352.583 3.57066 2.75345 0
M  V30 3941 C 351.245 3.97724 2.70867 0
M  V30 3942 C 353.597 4.51817 2.59828 0
M  V30 3943 C 350.925 5.31344 2.48778 0
M  V30 3944 C 353.277 5.85604 2.39272 0
M  V30 3945 C 351.941 6.25439 2.33199 0
M  V30 3946 H 351.211 0.458934 0.581774 0
M  V30 3947 H 353.858 1.65335 0.966261 0
M  V30 3948 H 352.163 1.608 3.57282 0
M  V30 3949 H 353.86 1.98868 3.48213 0
M  V30 3950 H 350.45 3.24785 2.79665 0
M  V30 3951 H 354.634 4.21311 2.62319 0
M  V30 3952 H 349.89 5.61241 2.42526 0
M  V30 3953 H 354.064 6.58623 2.2625 0
M  V30 3954 H 351.691 7.28914 2.15843 0
M  V30 3955 N 353.266 -1.05314 1.17247 0
M  V30 3956 C 354.196 -2.1498 0.911362 0
M  V30 3957 C 355.177 -1.69471 -0.146169 0
M  V30 3958 O 356.362 -1.942 0.003812 0
M  V30 3959 C 353.492 -3.4472 0.422528 0
M  V30 3960 C 352.446 -4.03789 1.4191 0
M  V30 3961 C 351.772 -5.28858 0.788274 0
M  V30 3962 C 353.072 -4.41418 2.7919 0
M  V30 3963 H 354.766 -2.3708 1.82848 0
M  V30 3964 H 352.312 -1.13938 0.880569 0
M  V30 3965 H 354.265 -4.20787 0.227289 0
M  V30 3966 H 352.989 -3.22269 -0.530123 0
M  V30 3967 H 351.648 -3.2979 1.60106 0
M  V30 3968 H 351.296 -5.02709 -0.171173 0
M  V30 3969 H 350.996 -5.69338 1.45353 0
M  V30 3970 H 352.52 -6.07612 0.603282 0
M  V30 3971 H 353.934 -5.08524 2.64719 0
M  V30 3972 H 352.331 -4.92913 3.42282 0
M  V30 3973 H 353.401 -3.51819 3.33693 0
M  V30 3974 N 354.744 -0.972509 -1.24016 0
M  V30 3975 C 355.691 -0.505969 -2.25186 0
M  V30 3976 C 356.661 0.451009 -1.5986 0
M  V30 3977 O 357.846 0.360307 -1.87367 0
M  V30 3978 C 354.986 0.193089 -3.44559 0
M  V30 3979 C 354.099 -0.803222 -4.24467 0
M  V30 3980 C 353.234 -0.0797793 -5.3114 0
M  V30 3981 C 352.273 -1.06583 -6.02749 0
M  V30 3982 N 351.41 -0.372074 -7.01113 0
M  V30 3983 H 356.25 -1.37351 -2.64459 0
M  V30 3984 H 353.787 -0.688419 -1.29997 0
M  V30 3985 H 355.745 0.615125 -4.1264 0
M  V30 3986 H 354.375 1.02455 -3.06109 0
M  V30 3987 H 353.427 -1.34368 -3.55878 0
M  V30 3988 H 354.739 -1.55494 -4.73944 0
M  V30 3989 H 353.893 0.400015 -6.0538 0
M  V30 3990 H 352.632 0.704597 -4.82583 0
M  V30 3991 H 351.637 -1.55645 -5.27309 0
M  V30 3992 H 352.862 -1.85074 -6.53395 0
M  V30 3993 H 350.808 0.393238 -6.5482 0
M  V30 3994 H 350.725 -1.06258 -7.48495 0
M  V30 3995 H 351.993 0.0855932 -7.79453 0
M  V30 3996 N 356.222 1.38976 -0.743202 0
M  V30 3997 C 357.45 2.04636 -0.30525 0
M  V30 3998 C 357.865 1.56044 1.06281 0
M  V30 3999 O 357.222 0.728921 1.67311 0
M  V30 4000 C 357.273 3.60193 -0.307177 0
M  V30 4001 O 356.994 4.06998 -1.62124 0
M  V30 4002 C 358.495 4.4306 0.145928 0
M  V30 4003 H 355.715 0.65788 -0.132041 0
M  V30 4004 H 358.259 1.77866 -1.00915 0
M  V30 4005 H 356.414 3.85835 0.347898 0
M  V30 4006 H 356.828 5.01371 -1.54036 0
M  V30 4007 H 358.302 5.51921 0.0934183 0
M  V30 4008 H 358.779 4.22706 1.19231 0
M  V30 4009 H 359.385 4.22584 -0.479886 0
M  V30 4010 N 357.7 0.491464 1.49741 0
M  V30 4011 C 358.63 -0.28154 2.31796 0
M  V30 4012 C 359.611 -0.971473 1.3963 0
M  V30 4013 O 360.796 -0.964719 1.68543 0
M  V30 4014 C 357.926 -1.35203 3.19902 0
M  V30 4015 C 356.88 -0.782529 4.20786 0
M  V30 4016 C 356.206 -1.95283 4.97764 0
M  V30 4017 C 357.506 0.21999 5.21837 0
M  V30 4018 H 359.2 0.403355 2.96671 0
M  V30 4019 H 356.746 0.195425 1.42668 0
M  V30 4020 H 358.699 -1.90045 3.76113 0
M  V30 4021 H 357.423 -2.06598 2.52953 0
M  V30 4022 H 356.082 -0.255928 3.65706 0
M  V30 4023 H 355.73 -2.65423 4.2727 0
M  V30 4024 H 355.43 -1.57789 5.66018 0
M  V30 4025 H 356.954 -2.50577 5.56816 0
M  V30 4026 H 358.368 -0.23996 5.72798 0
M  V30 4027 H 356.765 0.51026 5.97927 0
M  V30 4028 H 357.835 1.13911 4.7133 0
M  V30 4029 N 359.178 -1.55987 0.224894 0
M  V30 4030 C 360.141 -2.19178 -0.670348 0
M  V30 4031 C 361.141 -1.15461 -1.11917 0
M  V30 4032 O 362.331 -1.40675 -1.02743 0
M  V30 4033 C 359.463 -2.81777 -1.9187 0
M  V30 4034 H 360.656 -2.99662 -0.119364 0
M  V30 4035 H 358.209 -1.5628 -0.0247128 0
M  V30 4036 H 358.944 -2.05172 -2.51147 0
M  V30 4037 H 358.729 -3.57732 -1.60531 0
M  V30 4038 H 360.219 -3.30205 -2.55645 0
M  V30 4039 N 360.656 0.0484629 -1.57525 0
M  V30 4040 C 361.902 0.744226 -1.88651 0
M  V30 4041 C 362.235 1.76029 -0.820212 0
M  V30 4042 O 361.51 1.93782 0.166985 0
M  V30 4043 C 361.793 1.43128 -3.30434 0
M  V30 4044 C 361.646 0.43005 -4.47739 0
M  V30 4045 C 362.965 2.37031 -3.70816 0
M  V30 4046 H 360.084 0.269089 -0.68612 0
M  V30 4047 H 362.726 0.00713532 -1.89999 0
M  V30 4048 H 360.876 2.05956 -3.29415 0
M  V30 4049 H 362.548 -0.194816 -4.60888 0
M  V30 4050 H 360.791 -0.252522 -4.33064 0
M  V30 4051 H 361.462 0.948874 -5.43783 0
M  V30 4052 H 363.938 1.84263 -3.73077 0
M  V30 4053 H 362.814 2.82094 -4.70865 0
M  V30 4054 H 363.075 3.22864 -3.02012 0
M  V30 4055 N 362.134 1.5431 0.320358 0
M  V30 4056 C 363.082 1.84647 1.4145 0
M  V30 4057 C 364.076 0.718624 1.53402 0
M  V30 4058 O 365.282 0.902335 1.5575 0
M  V30 4059 H 361.657 0.585349 0.472091 0
M  V30 4060 H 363.628 2.7614 1.13089 0
M  V30 4061 C 362.377 2.09341 2.77617 0
M  V30 4062 H 361.7 2.9559 2.69196 0
M  V30 4063 H 363.14 2.3452 3.53237 0
M  V30 4064 C 361.599 0.885939 3.25043 0
M  V30 4065 O 362.129 0.0967891 4.01583 0
M  V30 4066 N 360.335 0.696682 2.82125 0
M  V30 4067 H 359.882 1.34006 2.2 0
M  V30 4068 H 359.84 -0.109712 3.14209 0
M  V30 4069 N 363.613 -0.582584 1.46437 0
M  V30 4070 C 364.86 -1.34079 1.51753 0
M  V30 4071 C 365.188 -1.93762 0.169299 0
M  V30 4072 O 364.443 -1.76989 -0.835062 0
M  V30 4073 C 364.742 -2.48964 2.56421 0
M  V30 4074 C 364.408 -2.07273 4.00436 0
M  V30 4075 C 363.07 -1.95618 4.39644 0
M  V30 4076 C 365.422 -1.75111 4.90903 0
M  V30 4077 C 362.75 -1.5006 5.67185 0
M  V30 4078 C 365.102 -1.31032 6.18881 0
M  V30 4079 C 363.766 -1.17954 6.56996 0
M  V30 4080 H 363.036 -0.49063 0.555304 0
M  V30 4081 H 365.683 -0.656007 1.79913 0
M  V30 4082 H 363.988 -3.22889 2.21923 0
M  V30 4083 H 365.685 -3.07178 2.57765 0
M  V30 4084 H 362.275 -2.17279 3.69443 0
M  V30 4085 H 366.459 -1.83001 4.61329 0
M  V30 4086 H 361.715 -1.38577 5.95488 0
M  V30 4087 H 365.889 -1.052 6.88408 0
M  V30 4088 H 363.516 -0.824279 7.55718 0
M  V30 4089 N 365.091 -1.34144 -0.827227 0
M  V30 4090 C 366.507 -1.13732 -1.11969 0
M  V30 4091 C 366.707 0.0640463 -2.01398 0
M  V30 4092 O 365.763 0.740856 -2.41387 0
M  V30 4093 C 367.076 -2.43047 -1.77055 0
M  V30 4094 C 368.624 -2.49063 -1.89569 0
M  V30 4095 C 369.099 -3.78369 -2.58072 0
M  V30 4096 N 370.59 -3.79505 -2.65575 0
M  V30 4097 C 371.325 -4.76274 -3.19297 0
M  V30 4098 N 370.821 -5.83424 -3.73616 0
M  V30 4099 N 372.614 -4.63735 -3.17658 0
M  V30 4100 H 364.765 -2.11126 -0.232296 0
M  V30 4101 H 367.028 -0.933424 -0.165602 0
M  V30 4102 H 366.734 -3.31025 -1.18807 0
M  V30 4103 H 366.608 -2.56066 -2.76966 0
M  V30 4104 H 368.995 -1.61527 -2.46968 0
M  V30 4105 H 369.076 -2.39975 -0.885745 0
M  V30 4106 H 368.72 -4.66293 -2.01329 0
M  V30 4107 H 368.65 -3.84737 -3.59562 0
M  V30 4108 H 371.141 -3.02074 -2.27068 0
M  V30 4109 H 371.454 -6.53282 -4.12846 0
M  V30 4110 H 369.799 -5.87143 -3.71871 0
M  V30 4111 H 372.99 -3.79177 -2.74486 0
M  V30 4112 H 373.163 -5.39318 -3.59221 0
M  V30 4113 N 366.569 1.04691 -1.17803 0
M  V30 4114 C 367.818 1.77176 -0.963931 0
M  V30 4115 C 368.131 1.88888 0.508015 0
M  V30 4116 O 369.337 2.58164 0.840465 0
M  V30 4117 C 367.793 3.18518 -1.67555 0
M  V30 4118 C 367.401 3.14919 -3.18637 0
M  V30 4119 C 369.145 3.95424 -1.54402 0
M  V30 4120 C 367.052 4.51081 -3.82466 0
M  V30 4121 H 365.982 0.664116 -0.357023 0
M  V30 4122 H 368.633 1.17303 -1.4111 0
M  V30 4123 H 367.015 3.78748 -1.15613 0
M  V30 4124 H 368.189 2.64178 -3.77554 0
M  V30 4125 H 366.504 2.51512 -3.31859 0
M  V30 4126 H 369.101 4.96106 -1.99456 0
M  V30 4127 H 369.444 4.13343 -0.495329 0
M  V30 4128 H 369.977 3.41754 -2.0359 0
M  V30 4129 H 366.716 4.38368 -4.87354 0
M  V30 4130 H 366.236 5.01951 -3.28337 0
M  V30 4131 H 367.915 5.2001 -3.84965 0
M  V30 4132 N 368.047 0.979072 1.23499 0
M  V30 4133 C 369.463 0.687475 1.44034 0
M  V30 4134 C 369.663 -0.746801 1.8715 0
M  V30 4135 O 368.719 -1.51939 2.0167 0
M  V30 4136 C 370.032 1.68127 2.49307 0
M  V30 4137 C 371.58 1.69516 2.63122 0
M  V30 4138 C 372.055 2.67723 3.71603 0
M  V30 4139 N 373.546 2.66233 3.79044 0
M  V30 4140 C 374.281 3.38891 4.62537 0
M  V30 4141 N 373.777 4.21103 5.50131 0
M  V30 4142 N 375.57 3.27661 4.56721 0
M  V30 4143 H 367.721 1.90559 0.938135 0
M  V30 4144 H 369.984 0.821051 0.473897 0
M  V30 4145 H 369.69 2.70693 2.2454 0
M  V30 4146 H 369.564 1.46306 3.4767 0
M  V30 4147 H 371.951 0.676561 2.8724 0
M  V30 4148 H 372.032 1.95404 1.65079 0
M  V30 4149 H 371.676 3.69724 3.48233 0
M  V30 4150 H 371.606 2.39111 4.69184 0
M  V30 4151 H 374.097 2.06568 3.16446 0
M  V30 4152 H 374.41 4.73403 6.10827 0
M  V30 4153 H 372.755 4.25195 5.49759 0
M  V30 4154 H 375.946 2.62887 3.87309 0
M  V30 4155 H 376.119 3.84547 5.21562 0
M  V30 4156 N 369.525 -1.3858 0.750561 0
M  V30 4157 C 370.771 -2.00481 0.305825 0
M  V30 4158 C 371.104 -1.5944 -1.10872 0
M  V30 4159 O 370.379 -0.83052 -1.75877 0
M  V30 4160 C 370.662 -3.5758 0.425287 0
M  V30 4161 C 370.515 -4.08594 1.88072 0
M  V30 4162 C 371.834 -4.39719 -0.183122 0
M  V30 4163 H 368.953 -0.728348 0.112598 0
M  V30 4164 H 371.595 -1.64566 0.949638 0
M  V30 4165 H 369.745 -3.88306 -0.122828 0
M  V30 4166 H 371.417 -3.88523 2.48691 0
M  V30 4167 H 369.66 -3.61574 2.39681 0
M  V30 4168 H 370.331 -5.177 1.91548 0
M  V30 4169 H 372.807 -4.15128 0.284303 0
M  V30 4170 H 371.683 -5.48856 -0.0692757 0
M  V30 4171 H 371.944 -4.23434 -1.27106 0
M  V30 4172 N 371.003 -0.499398 -1.49478 0
M  V30 4173 C 372.243 0.0440751 -2.04352 0
M  V30 4174 C 372.607 1.34423 -1.37093 0
M  V30 4175 O 373.808 1.97184 -1.82679 0
M  V30 4176 C 372.079 0.194918 -3.56868 0
M  V30 4177 S 373.638 0.69287 -4.33295 0
M  V30 4178 H 370.456 0.00253458 -0.710995 0
M  V30 4179 H 373.058 -0.673 -1.83551 0
M  V30 4180 H 371.762 -0.756672 -4.03364 0
M  V30 4181 H 371.293 0.93728 -3.82071 0
M  V30 4182 H 373.308 1.96226 -4.55752 0
M  V30 4183 N 372.481 1.55866 -0.233164 0
M  V30 4184 C 373.391 2.24431 0.683217 0
M  V30 4185 C 374.407 1.2558 1.2044 0
M  V30 4186 O 375.583 1.58422 1.24356 0
M  V30 4187 C 372.648 2.91979 1.86947 0
M  V30 4188 C 371.709 4.06204 1.38912 0
M  V30 4189 C 370.942 4.70522 2.51883 0
M  V30 4190 O 371.165 4.33865 3.70293 0
M  V30 4191 O 370.099 5.59296 2.22423 0
M  V30 4192 H 373.925 3.03426 0.129059 0
M  V30 4193 H 371.51 1.494 -0.0022283 0
M  V30 4194 H 373.392 3.34573 2.56201 0
M  V30 4195 H 372.067 2.15935 2.41151 0
M  V30 4196 H 370.974 3.68155 0.664259 0
M  V30 4197 H 372.307 4.84025 0.893328 0
M  V30 4198 N 373.959 -0.0401083 1.57549 0
M  V30 4199 C 374.889 -1.04384 2.08869 0
M  V30 4200 C 375.87 -1.38407 0.988817 0
M  V30 4201 O 377.055 -1.47483 1.26342 0
M  V30 4202 C 374.185 -2.34808 2.55895 0
M  V30 4203 C 373.139 -2.15057 3.70047 0
M  V30 4204 C 372.465 -3.51145 4.03239 0
M  V30 4205 C 373.765 -1.54576 4.98902 0
M  V30 4206 H 375.459 -0.616666 2.92981 0
M  V30 4207 H 373.005 -0.295184 1.40942 0
M  V30 4208 H 374.958 -3.05346 2.90417 0
M  V30 4209 H 373.682 -2.79565 1.68853 0
M  V30 4210 H 372.341 -1.46954 3.35857 0
M  V30 4211 H 371.989 -3.93529 3.13279 0
M  V30 4212 H 371.689 -3.38758 4.80122 0
M  V30 4213 H 373.213 -4.23062 4.40285 0
M  V30 4214 H 374.627 -2.15017 5.31451 0
M  V30 4215 H 373.024 -1.52796 5.80322 0
M  V30 4216 H 374.094 -0.51039 4.82206 0
M  V30 4217 N 375.437 -1.54477 -0.31217 0
M  V30 4218 C 376.685 -1.72884 -1.04668 0
M  V30 4219 C 377.006 -0.511477 -1.88173 0
M  V30 4220 O 376.276 0.474407 -1.90069 0
M  V30 4221 H 374.856 -0.637461 -0.389425 0
M  V30 4222 H 377.518 -1.91807 -0.345852 0
M  V30 4223 H 376.614 -2.61334 -1.70619 0
M  V30 4224 N 376.915 0.57481 -1.46744 0
M  V30 4225 C 378.192 1.3352 -1.4294 0
M  V30 4226 C 378.572 2.10775 -0.117009 0
M  V30 4227 O 377.92 2.09966 0.901474 0
M  V30 4228 C 378.13 2.25456 -2.66403 0
M  V30 4229 C 379.478 2.87035 -3.12883 0
M  V30 4230 O 380.502 2.35766 -2.67007 0
M  V30 4231 O 379.361 3.80179 -3.92589 0
M  V30 4232 H 376.455 0.600318 -0.568812 0
M  V30 4233 H 379.001 0.595171 -1.58921 0
M  V30 4234 H 377.773 1.67851 -3.53471 0
M  V30 4235 H 377.396 3.06785 -2.52921 0
M  V30 4236 N 378.394 1.34581 0.820102 0
M  V30 4237 C 379.304 1.28471 1.96297 0
M  V30 4238 C 380.32 0.191902 1.72939 0
M  V30 4239 O 381.496 0.418879 1.96996 0
M  V30 4240 C 378.561 1.04281 3.30645 0
M  V30 4241 C 377.622 2.22745 3.66992 0
M  V30 4242 C 376.855 1.997 4.9493 0
M  V30 4243 O 377.078 0.956656 5.6232 0
M  V30 4244 O 376.012 2.86723 5.2922 0
M  V30 4245 H 379.838 2.24624 2.04396 0
M  V30 4246 H 377.423 1.14816 0.955913 0
M  V30 4247 H 379.305 0.925841 4.11104 0
M  V30 4248 H 377.98 0.111697 3.23507 0
M  V30 4249 H 376.887 2.40003 2.86966 0
M  V30 4250 H 378.22 3.14257 3.78819 0
M  V30 4251 N 379.872 -1.04064 1.18357 0
M  V30 4252 C 381.121 -1.76662 0.973313 0
M  V30 4253 C 381.434 -1.89154 -0.497991 0
M  V30 4254 O 382.64 -2.58606 -0.826762 0
M  V30 4255 C 381.096 -3.17624 1.69242 0
M  V30 4256 C 380.704 -3.13225 3.20303 0
M  V30 4257 C 382.448 -3.946 1.56497 0
M  V30 4258 C 380.355 -4.49046 3.84853 0
M  V30 4259 H 379.285 -0.662214 0.36054 0
M  V30 4260 H 381.936 -1.16553 1.41731 0
M  V30 4261 H 380.318 -3.78129 1.1762 0
M  V30 4262 H 381.492 -2.62172 3.78949 0
M  V30 4263 H 379.807 -2.49749 3.33189 0
M  V30 4264 H 382.404 -4.95042 2.02084 0
M  V30 4265 H 382.747 -4.13074 0.517243 0
M  V30 4266 H 383.28 -3.4067 2.05399 0
M  V30 4267 H 380.019 -4.35777 4.89672 0
M  V30 4268 H 379.539 -5.00203 3.30994 0
M  V30 4269 H 381.218 -5.17961 3.87718 0
M  V30 4270 N 381.35 -0.985608 -1.22978 0
M  V30 4271 C 382.28 -0.549649 -2.26939 0
M  V30 4272 C 383.261 0.419803 -1.64838 0
M  V30 4273 O 384.446 0.31203 -1.91677 0
M  V30 4274 C 381.576 0.143652 -3.47003 0
M  V30 4275 C 380.53 -0.743606 -4.21491 0
M  V30 4276 C 379.856 0.0822027 -5.34637 0
M  V30 4277 C 381.156 -2.03694 -4.80943 0
M  V30 4278 H 382.85 -1.41862 -2.63658 0
M  V30 4279 H 380.396 -0.683571 -1.26741 0
M  V30 4280 H 382.349 0.459985 -4.18882 0
M  V30 4281 H 381.073 1.04711 -3.09359 0
M  V30 4282 H 379.732 -1.04347 -3.51436 0
M  V30 4283 H 379.38 0.986359 -4.93234 0
M  V30 4284 H 379.08 -0.508377 -5.85397 0
M  V30 4285 H 380.604 0.392797 -6.09335 0
M  V30 4286 H 382.018 -1.78504 -5.44802 0
M  V30 4287 H 380.415 -2.57573 -5.42011 0
M  V30 4288 H 381.485 -2.72042 -4.01399 0
M  V30 4289 N 382.828 1.3818 -0.7579 0
M  V30 4290 C 384.239 1.82726 -0.383134 0
M  V30 4291 C 384.59 1.63214 1.08884 0
M  V30 4292 O 383.715 1.13566 1.84205 0
M  V30 4293 C 384.31 3.31728 -0.688631 0
M  V30 4294 C 382.869 3.74606 -0.367091 0
M  V30 4295 C 382.016 2.60896 -0.939599 0
M  V30 4296 H 384.967 1.26847 -0.953699 0
M  V30 4297 H 384.988 3.80487 0.0316492 0
M  V30 4298 H 384.5 3.45898 -1.76001 0
M  V30 4299 H 382.601 3.66013 0.697532 0
M  V30 4300 H 382.714 4.71215 -0.865658 0
M  V30 4301 H 381.078 2.52075 -0.3647 0
M  V30 4302 H 381.861 2.77864 -2.0161 0
M  V30 4303 N 384.306 0.507319 1.49211 0
M  V30 4304 C 385.534 -0.0315749 2.06876 0
M  V30 4305 C 385.949 -1.30241 1.36685 0
M  V30 4306 O 385.306 -1.76937 0.447152 0
M  V30 4307 C 385.357 -0.282627 3.60393 0
M  V30 4308 O 385.078 0.937835 4.27944 0
M  V30 4309 C 386.579 -0.864453 4.3479 0
M  V30 4310 H 383.799 0.0233048 0.670595 0
M  V30 4311 H 386.343 0.706484 1.91909 0
M  V30 4312 H 384.498 -0.97068 3.75042 0
M  V30 4313 H 384.912 0.704567 5.19746 0
M  V30 4314 H 386.386 -0.989664 5.43056 0
M  V30 4315 H 386.863 -1.86382 3.97692 0
M  V30 4316 H 387.469 -0.213672 4.24763 0
M  V30 4317 N 385.784 -1.5574 0.241426 0
M  V30 4318 C 386.714 -2.24133 -0.654722 0
M  V30 4319 C 387.695 -1.21974 -1.1856 0
M  V30 4320 O 388.88 -1.50612 -1.22595 0
M  V30 4321 C 386.01 -2.93659 -1.85423 0
M  V30 4322 C 384.964 -4.0246 -1.45636 0
M  V30 4323 C 384.29 -4.59383 -2.73626 0
M  V30 4324 C 385.59 -5.18468 -0.631506 0
M  V30 4325 H 387.284 -2.99281 -0.0844353 0
M  V30 4326 H 384.83 -1.43947 -0.0391707 0
M  V30 4327 H 386.783 -3.40203 -2.48676 0
M  V30 4328 H 385.507 -2.15991 -2.44981 0
M  V30 4329 H 384.166 -3.56676 -0.847202 0
M  V30 4330 H 383.814 -3.78422 -3.3137 0
M  V30 4331 H 383.514 -5.32826 -2.4773 0
M  V30 4332 H 385.038 -5.08658 -3.37786 0
M  V30 4333 H 386.452 -5.61272 -1.1682 0
M  V30 4334 H 384.849 -5.98266 -0.468831 0
M  V30 4335 H 385.919 -4.8358 0.357506 0
M  V30 4336 N 387.262 0.0317525 -1.57568 0
M  V30 4337 C 388.192 1.03274 -2.0942 0
M  V30 4338 C 389.173 1.3788 -0.996143 0
M  V30 4339 O 390.358 1.46811 -1.27122 0
M  V30 4340 C 387.488 2.33448 -2.57137 0
M  V30 4341 C 386.442 2.13091 -3.71182 0
M  V30 4342 C 385.768 3.49001 -4.05095 0
M  V30 4343 C 387.068 1.51928 -4.99715 0
M  V30 4344 H 388.762 0.60112 -2.93303 0
M  V30 4345 H 386.308 0.287705 -1.41097 0
M  V30 4346 H 388.261 3.03802 -2.92032 0
M  V30 4347 H 386.985 2.78665 -1.70333 0
M  V30 4348 H 385.644 1.45171 -3.36632 0
M  V30 4349 H 385.292 3.91862 -3.15362 0
M  V30 4350 H 384.992 3.36207 -4.81911 0
M  V30 4351 H 386.516 4.20721 -4.42522 0
M  V30 4352 H 387.93 2.12196 -5.32584 0
M  V30 4353 H 386.327 1.49716 -5.81124 0
M  V30 4354 H 387.397 0.484811 -4.8247 0
M  V30 4355 N 388.74 1.54641 0.303973 0
M  V30 4356 C 389.97 1.77511 1.05705 0
M  V30 4357 C 390.378 0.533228 1.81531 0
M  V30 4358 O 389.721 -0.506423 1.76582 0
M  V30 4359 C 389.783 2.92779 2.08617 0
M  V30 4360 C 389.447 4.30977 1.52013 0
M  V30 4361 C 390.444 5.11115 0.9517 0
M  V30 4362 C 388.129 4.77571 1.55665 0
M  V30 4363 C 390.123 6.35966 0.427327 0
M  V30 4364 C 387.81 6.02384 1.02841 0
M  V30 4365 C 388.808 6.81417 0.464713 0
M  V30 4366 O 388.496 8.03881 -0.0555283 0
M  V30 4367 H 388.228 0.59579 0.319391 0
M  V30 4368 H 390.782 2.02401 0.349712 0
M  V30 4369 H 389.012 2.63506 2.83022 0
M  V30 4370 H 390.701 3.03252 2.69802 0
M  V30 4371 H 391.467 4.76264 0.916407 0
M  V30 4372 H 387.346 4.16085 1.9848 0
M  V30 4373 H 390.89 6.97599 -0.0133062 0
M  V30 4374 H 386.787 6.36723 1.06084 0
M  V30 4375 H 387.555 8.18479 0.0580522 0
M  V30 4376 N 390.218 -0.567019 1.47046 0
M  V30 4377 C 391.467 -1.32091 1.5243 0
M  V30 4378 C 391.78 -1.94704 0.187021 0
M  V30 4379 O 392.986 -2.7124 0.118771 0
M  V30 4380 C 391.442 -2.39479 2.68659 0
M  V30 4381 C 391.05 -1.831 4.08874 0
M  V30 4382 C 392.794 -3.16111 2.83327 0
M  V30 4383 C 390.701 -2.8821 5.16419 0
M  V30 4384 H 389.631 -0.496629 0.56734 0
M  V30 4385 H 392.282 -0.603354 1.73297 0
M  V30 4386 H 390.664 -3.14105 2.41152 0
M  V30 4387 H 391.838 -1.14913 4.46242 0
M  V30 4388 H 390.153 -1.19085 3.99008 0
M  V30 4389 H 392.75 -3.94585 3.60842 0
M  V30 4390 H 393.093 -3.69686 1.91411 0
M  V30 4391 H 393.626 -2.48595 3.10556 0
M  V30 4392 H 390.365 -2.39504 6.10179 0
M  V30 4393 H 389.885 -3.54839 4.8358 0
M  V30 4394 H 391.564 -3.51881 5.42945 0
M  V30 4395 N 391.696 -1.35014 -0.812953 0
M  V30 4396 C 392.942 -1.29129 -1.57154 0
M  V30 4397 C 393.297 0.134922 -1.91926 0
M  V30 4398 O 392.59 1.08373 -1.58006 0
M  V30 4399 C 392.784 -2.12524 -2.87347 0
M  V30 4400 C 392.613 -3.6311 -2.65294 0
M  V30 4401 C 391.383 -4.32363 -2.61516 0
M  V30 4402 C 393.581 -4.56897 -2.36114 0
M  V30 4403 N 391.563 -5.68735 -2.31113 0
M  V30 4404 C 392.934 -5.81345 -2.15494 0
M  V30 4405 C 394.989 -4.45706 -2.21925 0
M  V30 4406 C 393.692 -6.95862 -1.82122 0
M  V30 4407 C 395.718 -5.60066 -1.89948 0
M  V30 4408 C 395.08 -6.83539 -1.7016 0
M  V30 4409 H 391.179 -0.527764 -0.577052 0
M  V30 4410 H 393.763 -1.6983 -0.952146 0
M  V30 4411 H 391.934 -1.74104 -3.47192 0
M  V30 4412 H 393.666 -1.98207 -3.5284 0
M  V30 4413 H 390.421 -3.84907 -2.75941 0
M  V30 4414 H 390.845 -6.40694 -2.18724 0
M  V30 4415 H 395.487 -3.50855 -2.35925 0
M  V30 4416 H 393.205 -7.90685 -1.6686 0
M  V30 4417 H 396.791 -5.53357 -1.79687 0
M  V30 4418 H 395.671 -7.70531 -1.45777 0
M  V30 4419 N 393.175 1.03435 -1.18907 0
M  V30 4420 C 394.403 1.80381 -1.01342 0
M  V30 4421 C 394.818 1.83649 0.438005 0
M  V30 4422 O 394.175 1.27655 1.30424 0
M  V30 4423 C 394.226 3.25689 -1.56873 0
M  V30 4424 O 393.947 3.22673 -2.96334 0
M  V30 4425 C 395.448 4.19255 -1.44014 0
M  V30 4426 H 392.668 0.56784 -0.35749 0
M  V30 4427 H 395.212 1.30317 -1.576 0
M  V30 4428 H 393.367 3.72962 -1.04777 0
M  V30 4429 H 393.781 4.13748 -3.22355 0
M  V30 4430 H 395.255 5.19123 -1.87657 0
M  V30 4431 H 395.732 4.37467 -0.389815 0
M  V30 4432 H 396.338 3.77851 -1.95214 0
M  V30 4433 N 394.653 0.992116 1.22453 0
M  V30 4434 C 395.585 0.500024 2.23679 0
M  V30 4435 C 396.598 -0.404463 1.57696 0
M  V30 4436 O 397.787 -0.206722 1.77299 0
M  V30 4437 C 394.887 -0.294711 3.37616 0
M  V30 4438 C 394.06 0.605723 4.33186 0
M  V30 4439 C 393.119 -0.13717 5.26021 0
M  V30 4440 O 392.145 0.477164 5.67196 0
M  V30 4441 N 393.347 -1.4197 5.62872 0
M  V30 4442 H 396.112 1.37045 2.66531 0
M  V30 4443 H 393.673 0.866741 1.36745 0
M  V30 4444 H 395.665 -0.800329 3.96707 0
M  V30 4445 H 394.235 -1.06623 2.93854 0
M  V30 4446 H 393.455 1.29202 3.72425 0
M  V30 4447 H 394.743 1.21896 4.93983 0
M  V30 4448 H 394.141 -1.94015 5.31389 0
M  V30 4449 H 392.698 -1.87052 6.24383 0
M  V30 4450 N 396.131 -1.37776 0.765217 0
M  V30 4451 C 397.081 -2.2768 0.12075 0
M  V30 4452 C 398.065 -1.45778 -0.680988 0
M  V30 4453 O 399.257 -1.684 -0.545033 0
M  V30 4454 C 396.386 -3.34722 -0.762626 0
M  V30 4455 C 395.472 -4.24074 0.0465881 0
M  V30 4456 N 395.863 -4.93939 1.08892 0
M  V30 4457 C 394.161 -4.45643 -0.178418 0
M  V30 4458 C 394.862 -5.59845 1.57951 0
M  V30 4459 N 393.838 -5.36218 0.892797 0
M  V30 4460 H 397.64 -2.79166 0.918889 0
M  V30 4461 H 395.154 -1.50816 0.602353 0
M  V30 4462 H 397.151 -3.98031 -1.24005 0
M  V30 4463 H 395.811 -2.84793 -1.55959 0
M  V30 4464 H 396.822 -4.96572 1.47095 0
M  V30 4465 H 393.499 -4.06599 -0.9478 0
M  V30 4466 H 394.889 -6.25703 2.44838 0
M  V30 4467 N 397.609 -0.515225 -1.4894 0
M  V30 4468 C 399.025 -0.172099 -1.58669 0
M  V30 4469 C 399.225 1.32405 -1.51892 0
M  V30 4470 O 398.281 2.10116 -1.40027 0
M  V30 4471 C 399.594 -0.761533 -2.90897 0
M  V30 4472 C 401.142 -0.728926 -3.04394 0
M  V30 4473 C 401.617 -1.29667 -4.39261 0
M  V30 4474 N 403.108 -1.25799 -4.4579 0
M  V30 4475 C 403.843 -1.66733 -5.48623 0
M  V30 4476 N 403.339 -2.15327 -6.58488 0
M  V30 4477 N 405.132 -1.58061 -5.39419 0
M  V30 4478 H 397.283 -1.48778 -1.51588 0
M  V30 4479 H 399.546 -0.617968 -0.718901 0
M  V30 4480 H 399.252 -1.81136 -3.01468 0
M  V30 4481 H 399.126 -0.230106 -3.76497 0
M  V30 4482 H 401.513 0.312098 -2.93445 0
M  V30 4483 H 401.594 -1.29766 -2.20442 0
M  V30 4484 H 401.238 -2.33655 -4.50963 0
M  V30 4485 H 401.168 -0.703752 -5.21876 0
M  V30 4486 H 403.659 -0.902102 -3.66975 0
M  V30 4487 H 403.972 -2.44594 -7.33071 0
M  V30 4488 H 402.317 -2.19311 -6.59491 0
M  V30 4489 H 405.508 -1.19906 -4.52482 0
M  V30 4490 H 405.681 -1.90284 -6.19432 0
M  V30 4491 N 399.087 1.5561 -0.249682 0
M  V30 4492 C 400.017 2.24477 0.642826 0
M  V30 4493 C 400.998 1.22601 1.17911 0
M  V30 4494 O 402.183 1.5126 1.21795 0
M  V30 4495 C 399.313 2.94638 1.83863 0
M  V30 4496 C 398.267 4.03227 1.435 0
M  V30 4497 C 397.593 4.60828 2.71186 0
M  V30 4498 C 398.893 5.18796 0.604002 0
M  V30 4499 H 400.587 2.99321 0.0685625 0
M  V30 4500 H 398.133 1.43965 0.0315363 0
M  V30 4501 H 400.086 3.41517 2.46868 0
M  V30 4502 H 398.81 2.17287 2.43832 0
M  V30 4503 H 397.469 3.57121 0.828275 0
M  V30 4504 H 397.117 3.80174 3.29358 0
M  V30 4505 H 396.817 5.34132 2.44901 0
M  V30 4506 H 398.341 5.10442 3.35084 0
M  V30 4507 H 399.755 5.61883 1.13842 0
M  V30 4508 H 398.152 5.98506 0.437097 0
M  V30 4509 H 399.222 4.83384 -0.383147 0
M  V30 4510 N 400.565 -0.0233959 1.57583 0
M  V30 4511 C 401.513 -1.04063 2.08023 0
M  V30 4512 C 402.507 -1.37084 0.995204 0
M  V30 4513 O 403.713 -1.35923 1.18004 0
M  V30 4514 H 400.088 -0.353144 0.663922 0
M  V30 4515 H 402.059 -0.589453 2.9252 0
M  V30 4516 C 400.808 -2.33123 2.57971 0
M  V30 4517 H 400.131 -2.08577 3.4108 0
M  V30 4518 H 401.571 -3.02632 2.96967 0
M  V30 4519 C 400.03 -3.02483 1.48342 0
M  V30 4520 O 400.56 -3.92541 0.852898 0
M  V30 4521 N 398.766 -2.63909 1.21658 0
M  V30 4522 H 398.313 -1.90758 1.73116 0
M  V30 4523 H 398.271 -3.10633 0.485218 0
M  V30 4524 N 402.043 -1.548 -0.295768 0
M  V30 4525 C 403.32 -1.65014 -1.05023 0
M  V30 4526 C 403.7 -0.501805 -2.05049 0
M  V30 4527 O 403.048 0.500869 -2.22943 0
M  V30 4528 C 403.258 -3.03252 -1.72741 0
M  V30 4529 C 404.606 -3.60242 -2.24746 0
M  V30 4530 O 405.63 -3.05737 -1.82765 0
M  V30 4531 O 404.489 -4.55687 -3.01681 0
M  V30 4532 H 401.583 -0.669314 -0.485744 0
M  V30 4533 H 404.129 -1.67144 -0.293438 0
M  V30 4534 H 402.901 -3.7827 -1.00138 0
M  V30 4535 H 402.524 -3.04922 -2.55163 0
M  V30 4536 N 403.521 0.559213 -1.47345 0
M  V30 4537 C 404.746 1.34676 -1.57725 0
M  V30 4538 C 405.171 1.86723 -0.227164 0
M  V30 4539 O 404.529 1.6286 0.796642 0
M  V30 4540 C 404.577 2.49399 -2.60447 0
M  V30 4541 O 403.681 3.51567 -2.15578 0
M  V30 4542 H 403.022 0.400115 -0.52991 0
M  V30 4543 H 405.552 0.676009 -1.93109 0
M  V30 4544 H 405.562 2.95996 -2.80803 0
M  V30 4545 H 404.237 2.10873 -3.58477 0
M  V30 4546 H 402.814 3.11289 -2.05313 0
M  V30 4547 N 404.999 1.35443 0.805782 0
M  V30 4548 C 405.929 1.31095 1.93226 0
M  V30 4549 C 406.91 0.185244 1.69088 0
M  V30 4550 O 408.095 0.380332 1.90439 0
M  V30 4551 C 405.225 1.08299 3.29983 0
M  V30 4552 C 404.179 2.17519 3.68605 0
M  V30 4553 C 403.505 1.79887 5.03532 0
M  V30 4554 C 404.805 3.5949 3.78898 0
M  V30 4555 H 406.499 2.25352 1.97122 0
M  V30 4556 H 404.045 1.0848 0.946996 0
M  V30 4557 H 405.998 1.03897 4.08391 0
M  V30 4558 H 404.722 0.104885 3.26432 0
M  V30 4559 H 403.381 2.2102 2.92482 0
M  V30 4560 H 403.029 0.80693 4.96485 0
M  V30 4561 H 402.729 2.53001 5.30344 0
M  V30 4562 H 404.253 1.77011 5.84379 0
M  V30 4563 H 405.667 3.58307 4.47536 0
M  V30 4564 H 404.064 4.31371 4.1718 0
M  V30 4565 H 405.134 3.95584 2.80431 0
M  V30 4566 N 406.477 -1.02803 1.19454 0
M  V30 4567 C 407.424 -2.11099 0.933046 0
M  V30 4568 C 408.394 -1.65571 -0.132447 0
M  V30 4569 O 409.579 -1.90797 0.00987576 0
M  V30 4570 C 406.719 -3.41763 0.478747 0
M  V30 4571 C 405.832 -4.00833 1.6111 0
M  V30 4572 C 404.967 -5.19511 1.10825 0
M  V30 4573 C 404.006 -5.70639 2.21445 0
M  V30 4574 N 403.143 -6.80589 1.72461 0
M  V30 4575 H 407.983 -2.32804 1.86028 0
M  V30 4576 H 405.52 -1.14179 0.927441 0
M  V30 4577 H 407.478 -4.16736 0.196745 0
M  V30 4578 H 406.108 -3.20166 -0.411493 0
M  V30 4579 H 405.16 -3.23066 2.00829 0
M  V30 4580 H 406.472 -4.34794 2.4445 0
M  V30 4581 H 405.626 -6.01645 0.781533 0
M  V30 4582 H 404.365 -4.87086 0.244606 0
M  V30 4583 H 403.37 -4.87116 2.54947 0
M  V30 4584 H 404.595 -6.05102 3.08267 0
M  V30 4585 H 402.541 -6.50016 0.884056 0
M  V30 4586 H 402.458 -7.13681 2.49389 0
M  V30 4587 H 403.726 -7.66317 1.42755 0
M  V30 4588 N 407.956 -0.998596 -1.21925 0
M  V30 4589 C 408.866 -0.562736 -2.27751 0
M  V30 4590 C 409.882 0.391203 -1.69545 0
M  V30 4591 O 411.058 0.256625 -1.99758 0
M  V30 4592 C 408.123 0.11012 -3.46525 0
M  V30 4593 C 407.184 -0.887495 -4.20026 0
M  V30 4594 C 406.417 -0.246654 -5.3313 0
M  V30 4595 O 406.64 0.958088 -5.62296 0
M  V30 4596 O 405.574 -0.954374 -5.94286 0
M  V30 4597 H 409.4 -1.44329 -2.67213 0
M  V30 4598 H 406.985 -0.767135 -1.28201 0
M  V30 4599 H 408.867 0.486756 -4.18579 0
M  V30 4600 H 407.542 0.965154 -3.08976 0
M  V30 4601 H 406.449 -1.31517 -3.5022 0
M  V30 4602 H 407.782 -1.71191 -4.6147 0
M  V30 4603 N 409.434 1.37368 -0.772513 0
M  V30 4604 C 410.68 1.99969 -0.337681 0
M  V30 4605 C 411.013 1.61184 1.08321 0
M  V30 4606 O 410.288 0.858395 1.74533 0
M  V30 4607 C 410.571 3.56858 -0.482121 0
M  V30 4608 C 410.424 4.0555 -1.94549 0
M  V30 4609 C 411.743 4.39955 0.113143 0
M  V30 4610 H 408.862 0.726464 -0.124171 0
M  V30 4611 H 411.504 1.63034 -0.975699 0
M  V30 4612 H 409.654 3.88452 0.0610361 0
M  V30 4613 H 411.326 3.84518 -2.54841 0
M  V30 4614 H 409.569 3.57715 -2.45403 0
M  V30 4615 H 410.24 5.14587 -1.9976 0
M  V30 4616 H 412.716 4.14623 -0.35031 0
M  V30 4617 H 411.592 5.48897 -0.0180514 0
M  V30 4618 H 411.853 4.25403 1.20354 0
M  V30 4619 N 410.912 0.523116 1.48665 0
M  V30 4620 C 412.161 -0.01544 2.01694 0
M  V30 4621 C 412.474 -1.35975 1.40606 0
M  V30 4622 O 413.68 -1.98627 1.85093 0
M  V30 4623 C 412.136 -0.0779303 3.59816 0
M  V30 4624 C 411.744 1.26107 4.29885 0
M  V30 4625 C 413.488 -0.565678 4.20714 0
M  V30 4626 C 411.395 1.15954 5.79921 0
M  V30 4627 H 410.325 -0.00954163 0.75394 0
M  V30 4628 H 412.976 0.665865 1.70993 0
M  V30 4629 H 411.358 -0.824165 3.87329 0
M  V30 4630 H 412.532 2.02233 4.14051 0
M  V30 4631 H 410.847 1.68401 3.80828 0
M  V30 4632 H 413.444 -0.6595 5.30617 0
M  V30 4633 H 413.787 -1.56984 3.85567 0
M  V30 4634 H 414.32 0.12467 3.97605 0
M  V30 4635 H 411.059 2.13864 6.19631 0
M  V30 4636 H 410.579 0.439529 5.98187 0
M  V30 4637 H 412.258 0.847361 6.41427 0
M  V30 4638 N 412.39 -1.55475 0.257931 0
M  V30 4639 C 413.639 -1.98383 -0.364275 0
M  V30 4640 C 413.952 -1.14952 -1.58258 0
M  V30 4641 O 415.158 -1.47924 -2.27664 0
M  V30 4642 C 413.614 -3.53037 -0.699479 0
M  V30 4643 C 413.222 -4.45223 0.498046 0
M  V30 4644 C 414.966 -4.04575 -1.28526 0
M  V30 4645 C 412.873 -5.91238 0.138383 0
M  V30 4646 H 411.803 -0.740911 -0.13988 0
M  V30 4647 H 414.454 -1.79936 0.359883 0
M  V30 4648 H 412.836 -3.6722 -1.48207 0
M  V30 4649 H 414.01 -4.42803 1.27522 0
M  V30 4650 H 412.325 -4.04226 0.999503 0
M  V30 4651 H 414.922 -5.11196 -1.56788 0
M  V30 4652 H 415.265 -3.5258 -2.21344 0
M  V30 4653 H 415.798 -3.93762 -0.565337 0
M  V30 4654 H 412.537 -6.47294 1.03398 0
M  V30 4655 H 412.057 -5.96768 -0.602374 0
M  V30 4656 H 413.736 -6.46413 -0.27553 0
M  V30 4657 N 413.868 0.0150385 -1.57593 0
M  V30 4658 C 414.778 1.02791 -2.10882 0
M  V30 4659 C 415.794 1.38702 -1.0506 0
M  V30 4660 O 416.97 1.47739 -1.36877 0
M  V30 4661 C 414.035 2.30568 -2.58919 0
M  V30 4662 C 413.096 2.01108 -3.79281 0
M  V30 4663 C 412.329 3.22794 -4.25018 0
M  V30 4664 O 412.552 4.33959 -3.70183 0
M  V30 4665 O 411.486 3.07672 -5.17322 0
M  V30 4666 H 415.312 0.604973 -2.97613 0
M  V30 4667 H 412.897 0.23292 -1.47573 0
M  V30 4668 H 414.779 3.05662 -2.90084 0
M  V30 4669 H 413.454 2.72129 -1.75293 0
M  V30 4670 H 412.361 1.23537 -3.53114 0
M  V30 4671 H 413.694 1.64394 -4.63935 0
M  V30 4672 N 415.346 1.54954 0.287554 0
M  V30 4673 C 416.276 1.89839 1.35954 0
M  V30 4674 C 417.257 0.758675 1.52244 0
M  V30 4675 O 418.442 1.01557 1.65529 0
M  V30 4676 C 415.572 2.15753 2.72154 0
M  V30 4677 C 414.526 3.3159 2.70614 0
M  V30 4678 C 413.852 3.42952 4.10229 0
M  V30 4679 C 415.152 4.68359 2.31165 0
M  V30 4680 H 416.846 2.79625 1.07007 0
M  V30 4681 H 414.392 1.3454 0.513316 0
M  V30 4682 H 416.345 2.38743 3.47246 0
M  V30 4683 H 415.069 1.22752 3.02654 0
M  V30 4684 H 413.728 3.08545 1.97979 0
M  V30 4685 H 413.376 2.47443 4.37928 0
M  V30 4686 H 413.076 4.20826 4.10097 0
M  V30 4687 H 414.6 3.68218 4.87081 0
M  V30 4688 H 416.014 4.9099 2.95976 0
M  V30 4689 H 414.411 5.49044 2.42221 0
M  V30 4690 H 415.481 4.68165 1.26291 0
M  V30 4691 N 416.824 -0.551391 1.4764 0
M  V30 4692 C 418.071 -1.3083 1.54563 0
M  V30 4693 C 418.399 -1.93359 0.210361 0
M  V30 4694 O 417.654 -1.78721 -0.797332 0
M  V30 4695 C 417.953 -2.43469 2.61644 0
M  V30 4696 C 417.619 -1.98732 4.04742 0
M  V30 4697 C 416.281 -1.86248 4.43695 0
M  V30 4698 C 418.633 -1.64659 4.94507 0
M  V30 4699 C 415.961 -1.37995 5.70241 0
M  V30 4700 C 418.313 -1.17875 6.21521 0
M  V30 4701 C 416.977 -1.03992 6.5935 0
M  V30 4702 H 416.247 -0.478741 0.565587 0
M  V30 4703 H 418.894 -0.617697 1.81264 0
M  V30 4704 H 417.199 -3.18109 2.28722 0
M  V30 4705 H 418.896 -3.01642 2.64222 0
M  V30 4706 H 415.486 -2.09393 3.73968 0
M  V30 4707 H 419.67 -1.73174 4.65107 0
M  V30 4708 H 414.926 -1.25915 5.98294 0
M  V30 4709 H 419.1 -0.905739 6.90485 0
M  V30 4710 H 416.727 -0.663794 7.57296 0
M  V30 4711 N 418.302 -1.35869 -0.798587 0
M  V30 4712 C 419.234 -1.25305 -1.91915 0
M  V30 4713 C 420.247 -0.174548 -1.61862 0
M  V30 4714 O 421.436 -0.428499 -1.73281 0
M  V30 4715 C 418.536 -0.9086 -3.26493 0
M  V30 4716 C 417.709 -2.08711 -3.84394 0
M  V30 4717 C 416.768 -1.71717 -4.97393 0
M  V30 4718 O 415.794 -2.43692 -5.14396 0
M  V30 4719 N 416.996 -0.645473 -5.769 0
M  V30 4720 H 419.761 -2.21849 -2.01502 0
M  V30 4721 H 417.322 -1.29143 -0.976408 0
M  V30 4722 H 419.314 -0.642455 -3.99568 0
M  V30 4723 H 417.884 -0.0325815 -3.12583 0
M  V30 4724 H 417.104 -2.51659 -3.03416 0
M  V30 4725 H 418.392 -2.87468 -4.19809 0
M  V30 4726 H 417.79 -0.047648 -5.6568 0
M  V30 4727 H 416.347 -0.43913 -6.50319 0
M  V30 4728 N 419.78 1.02168 -1.19998 0
M  V30 4729 C 420.71 2.12488 -0.96804 0
M  V30 4730 C 421.691 1.69799 0.101185 0
M  V30 4731 O 422.876 1.94121 -0.0552993 0
M  V30 4732 C 420.006 3.43479 -0.513776 0
M  V30 4733 C 418.96 3.99884 -1.52566 0
M  V30 4734 C 418.286 5.26582 -0.928214 0
M  V30 4735 C 419.586 4.33861 -2.90795 0
M  V30 4736 H 421.28 2.32149 -1.89069 0
M  V30 4737 H 418.826 1.11564 -0.910468 0
M  V30 4738 H 420.779 4.20036 -0.338774 0
M  V30 4739 H 419.503 3.23561 0.444493 0
M  V30 4740 H 418.162 3.25429 -1.68794 0
M  V30 4741 H 417.81 5.02986 0.0378289 0
M  V30 4742 H 417.51 5.65284 -1.60397 0
M  V30 4743 H 419.034 6.05799 -0.764167 0
M  V30 4744 H 420.448 5.01327 -2.78109 0
M  V30 4745 H 418.845 4.83664 -3.55231 0
M  V30 4746 H 419.915 3.42848 -3.42904 0
M  V30 4747 N 421.258 1.00505 1.21394 0
M  V30 4748 C 422.19 0.52372 2.23136 0
M  V30 4749 C 423.203 -0.387714 1.58116 0
M  V30 4750 O 424.392 -0.187905 1.77508 0
M  V30 4751 C 421.492 -0.258885 3.3791 0
M  V30 4752 C 420.665 0.651634 4.32519 0
M  V30 4753 C 419.724 -0.0813705 5.26137 0
M  V30 4754 O 418.75 0.537295 5.66658 0
M  V30 4755 N 419.952 -1.35992 5.64346 0
M  V30 4756 H 422.717 1.39865 2.65062 0
M  V30 4757 H 420.278 0.881196 1.35818 0
M  V30 4758 H 422.27 -0.758208 3.97534 0
M  V30 4759 H 420.84 -1.035 2.94968 0
M  V30 4760 H 420.06 1.33145 3.71034 0
M  V30 4761 H 421.348 1.27129 4.92662 0
M  V30 4762 H 420.746 -1.88368 5.33417 0
M  V30 4763 H 419.303 -1.8042 6.26332 0
M  V30 4764 N 422.737 -1.36956 0.779787 0
M  V30 4765 C 423.986 -1.98738 0.344405 0
M  V30 4766 C 424.299 -1.62596 -1.08728 0
M  V30 4767 O 425.505 -2.1754 -1.62445 0
M  V30 4768 C 423.961 -3.5544 0.564829 0
M  V30 4769 C 423.569 -4.00514 2.0073 0
M  V30 4770 C 425.313 -4.24059 0.193471 0
M  V30 4771 C 423.22 -5.49957 2.17489 0
M  V30 4772 H 422.15 -0.743561 0.12503 0
M  V30 4773 H 424.801 -1.56381 0.960057 0
M  V30 4774 H 423.183 -3.95817 -0.120397 0
M  V30 4775 H 424.357 -3.71362 2.72814 0
M  V30 4776 H 422.672 -3.44703 2.336 0
M  V30 4777 H 425.269 -5.33874 0.297097 0
M  V30 4778 H 425.612 -4.07378 -0.857263 0
M  V30 4779 H 426.145 -3.89012 0.831556 0
M  V30 4780 H 422.884 -5.71574 3.2091 0
M  V30 4781 H 422.404 -5.80767 1.49899 0
M  V30 4782 H 424.083 -6.16043 1.97738 0
M  V30 4783 N 424.215 -0.530993 -1.48385 0
M  V30 4784 C 425.445 -0.00133928 -2.066 0
M  V30 4785 C 425.853 1.28599 -1.38777 0
M  V30 4786 O 425.196 1.77599 -0.469495 0
M  V30 4787 C 425.258 0.292137 -3.58311 0
M  V30 4788 C 424.922 -0.901864 -4.48013 0
M  V30 4789 C 425.919 -1.80053 -4.87726 0
M  V30 4790 C 423.604 -1.10915 -4.89901 0
M  V30 4791 C 425.598 -2.89038 -5.68098 0
M  V30 4792 C 423.285 -2.20213 -5.70043 0
M  V30 4793 C 424.283 -3.09107 -6.0905 0
M  V30 4794 O 423.971 -4.16514 -6.87583 0
M  V30 4795 H 423.703 -0.0308475 -0.675296 0
M  V30 4796 H 426.257 -0.736335 -1.91748 0
M  V30 4797 H 424.487 1.08112 -3.7128 0
M  V30 4798 H 426.176 0.763994 -3.98645 0
M  V30 4799 H 426.942 -1.65234 -4.55986 0
M  V30 4800 H 422.821 -0.426498 -4.59023 0
M  V30 4801 H 426.365 -3.58451 -5.98464 0
M  V30 4802 H 422.262 -2.35016 -6.01197 0
M  V30 4803 H 423.03 -4.14237 -7.05939 0
M  V30 4804 N 425.693 1.55336 -0.266172 0
M  V30 4805 C 426.942 1.98574 0.353749 0
M  V30 4806 C 427.255 1.15789 1.57646 0
M  V30 4807 O 428.461 1.49129 2.26876 0
M  V30 4808 C 426.917 3.53403 0.680747 0
M  V30 4809 C 426.525 4.44953 -0.52165 0
M  V30 4810 C 428.269 4.05251 1.26379 0
M  V30 4811 C 426.176 5.91156 -0.169736 0
M  V30 4812 H 425.106 0.741643 0.135949 0
M  V30 4813 H 427.757 1.79743 -0.369421 0
M  V30 4814 H 426.139 3.68001 1.46257 0
M  V30 4815 H 427.313 4.42121 -1.29869 0
M  V30 4816 H 425.628 4.03691 -1.02093 0
M  V30 4817 H 428.225 5.12021 1.54074 0
M  V30 4818 H 428.568 3.53749 2.19471 0
M  V30 4819 H 429.101 3.94057 0.544447 0
M  V30 4820 H 425.84 6.46736 -1.0683 0
M  V30 4821 H 425.36 5.97079 0.570717 0
M  V30 4822 H 427.039 6.4655 0.241245 0
M  V30 4823 N 427.171 -0.0066808 1.57599 0
M  V30 4824 C 428.121 -1.0086 2.04478 0
M  V30 4825 C 429.105 -1.30714 0.938231 0
M  V30 4826 O 430.297 -1.29924 1.20203 0
M  V30 4827 C 427.426 -2.30273 2.54615 0
M  V30 4828 C 426.512 -2.03413 3.72134 0
M  V30 4829 N 426.903 -1.46688 4.84062 0
M  V30 4830 C 425.201 -2.33589 3.79937 0
M  V30 4831 C 425.902 -1.36146 5.65543 0
M  V30 4832 N 424.878 -1.84477 5.1134 0
M  V30 4833 H 428.68 -0.564402 2.8843 0
M  V30 4834 H 426.194 -0.212521 1.61003 0
M  V30 4835 H 428.191 -3.02885 2.86472 0
M  V30 4836 H 426.851 -2.75352 1.72079 0
M  V30 4837 H 427.862 -1.14658 5.05049 0
M  V30 4838 H 424.539 -2.81589 3.08243 0
M  V30 4839 H 425.929 -0.925873 6.6549 0
M  V30 4840 N 428.649 -1.55105 -0.279332 0
M  V30 4841 C 429.599 -1.83937 -1.34727 0
M  V30 4842 C 430.583 -0.69785 -1.44979 0
M  V30 4843 O 431.775 -0.95904 -1.48766 0
M  V30 4844 C 428.904 -2.1092 -2.70864 0
M  V30 4845 C 427.99 -3.31314 -2.64748 0
M  V30 4846 N 428.381 -4.51371 -2.2825 0
M  V30 4847 C 426.679 -3.33777 -2.95819 0
M  V30 4848 C 427.38 -5.33447 -2.31969 0
M  V30 4849 N 426.356 -4.71697 -2.7019 0
M  V30 4850 H 430.158 -2.74309 -1.05506 0
M  V30 4851 H 427.672 -1.54896 -0.487959 0
M  V30 4852 H 429.669 -2.2973 -3.47893 0
M  V30 4853 H 428.329 -1.21828 -3.00979 0
M  V30 4854 H 429.34 -4.77584 -2.00335 0
M  V30 4855 H 426.017 -2.54858 -3.30687 0
M  V30 4856 H 427.407 -6.39424 -2.06365 0
M  V30 4857 N 430.127 0.543554 -1.4793 0
M  V30 4858 C 431.538 1.12561 -1.48953 0
M  V30 4859 C 431.889 1.94578 -0.251754 0
M  V30 4860 O 431.014 2.0665 0.642255 0
M  V30 4861 C 431.609 2.04801 -2.69892 0
M  V30 4862 C 430.168 2.58251 -2.73831 0
M  V30 4863 C 429.315 1.34918 -2.42265 0
M  V30 4864 H 432.266 0.32947 -1.55242 0
M  V30 4865 H 432.287 2.88886 -2.47639 0
M  V30 4866 H 431.799 1.4508 -3.59963 0
M  V30 4867 H 429.9 3.21732 -1.87934 0
M  V30 4868 H 430.013 2.98312 -3.74895 0
M  V30 4869 H 428.377 1.66046 -1.93134 0
M  V30 4870 H 429.16 0.769693 -3.3456 0
M  V30 4871 N 431.605 1.3629 0.791371 0
M  V30 4872 C 432.552 1.30458 1.90393 0
M  V30 4873 C 433.522 0.173632 1.6519 0
M  V30 4874 O 434.707 0.35983 1.87376 0
M  V30 4875 C 431.847 1.09777 3.27174 0
M  V30 4876 C 430.96 2.31929 3.64462 0
M  V30 4877 C 430.095 2.04276 4.90352 0
M  V30 4878 C 429.134 3.224 5.20312 0
M  V30 4879 N 428.271 2.94424 6.37385 0
M  V30 4880 H 433.111 2.25589 1.94714 0
M  V30 4881 H 430.648 1.12122 0.952216 0
M  V30 4882 H 432.606 0.958133 4.06049 0
M  V30 4883 H 431.236 0.183014 3.22281 0
M  V30 4884 H 430.288 2.56703 2.80727 0
M  V30 4885 H 431.6 3.20085 3.82553 0
M  V30 4886 H 430.754 1.87231 5.77087 0
M  V30 4887 H 429.493 1.13428 4.74326 0
M  V30 4888 H 428.498 3.40005 4.32061 0
M  V30 4889 H 429.723 4.14071 5.38258 0
M  V30 4890 H 427.669 2.06185 6.22755 0
M  V30 4891 H 427.586 3.76118 6.55798 0
M  V30 4892 H 428.854 2.80953 7.27108 0
M  V30 4893 N 433.083 -1.0153 1.20538 0
M  V30 4894 C 434.331 -1.74803 1.01432 0
M  V30 4895 C 434.652 -1.8963 -0.454456 0
M  V30 4896 O 433.922 -1.43975 -1.32846 0
M  V30 4897 H 432.502 -0.647598 0.372324 0
M  V30 4898 H 435.164 -1.22402 1.5167 0
M  V30 4899 H 434.26 -2.75114 1.47373 0
M  V30 4900 N 434.561 -1.01147 -1.20859 0
M  V30 4901 C 435.524 -0.582224 -2.21682 0
M  V30 4902 C 436.524 0.344887 -1.57058 0
M  V30 4903 O 437.714 0.134281 -1.73682 0
M  V30 4904 C 434.846 0.150496 -3.40568 0
M  V30 4905 H 436.039 -1.47408 -2.61172 0
M  V30 4906 H 433.592 -0.800695 -1.34233 0
M  V30 4907 H 434.327 1.0575 -3.06574 0
M  V30 4908 H 434.112 -0.515444 -3.88697 0
M  V30 4909 H 435.602 0.438344 -4.15293 0
M  V30 4910 N 436.039 1.36541 -0.78704 0
M  V30 4911 C 436.986 2.30082 -0.181901 0
M  V30 4912 C 437.956 1.5186 0.672896 0
M  V30 4913 O 439.141 1.80374 0.622072 0
M  V30 4914 C 436.281 3.3835 0.679197 0
M  V30 4915 C 435.394 4.31565 -0.193882 0
M  V30 4916 C 434.529 5.26915 0.673364 0
M  V30 4917 C 433.568 6.11769 -0.201315 0
M  V30 4918 N 432.705 6.99315 0.624777 0
M  V30 4919 H 437.545 2.81248 -0.985064 0
M  V30 4920 H 435.082 1.38437 -0.497342 0
M  V30 4921 H 437.04 3.99767 1.19341 0
M  V30 4922 H 435.67 2.8851 1.44781 0
M  V30 4923 H 434.722 3.71323 -0.826044 0
M  V30 4924 H 436.034 4.91191 -0.867937 0
M  V30 4925 H 435.188 5.9361 1.25348 0
M  V30 4926 H 433.927 4.67737 1.38105 0
M  V30 4927 H 432.932 5.44039 -0.793849 0
M  V30 4928 H 434.157 6.73022 -0.906568 0
M  V30 4929 H 432.103 6.42648 1.3168 0
M  V30 4930 H 432.02 7.56 0.00835237 0
M  V30 4931 H 433.288 7.70382 1.18879 0
M  V30 4932 N 437.518 0.538854 1.48102 0
M  V30 4933 C 438.746 0.0123136 2.06896 0
M  V30 4934 C 439.161 -1.27312 1.39417 0
M  V30 4935 O 438.518 -1.75949 0.484582 0
M  V30 4936 C 438.569 -0.206118 3.60912 0
M  V30 4937 O 438.29 1.0284 4.25859 0
M  V30 4938 C 439.791 -0.772033 4.36526 0
M  V30 4939 H 437.011 0.0375239 0.66995 0
M  V30 4940 H 439.555 0.747032 1.90367 0
M  V30 4941 H 437.71 -0.89091 3.77017 0
M  V30 4942 H 438.124 0.814654 5.18135 0
M  V30 4943 H 439.598 -0.874251 5.45033 0
M  V30 4944 H 440.075 -1.77904 4.01555 0
M  V30 4945 H 440.681 -0.123526 4.25121 0
M  V30 4946 N 438.996 -1.55193 0.274407 0
M  V30 4947 C 439.928 -2.1989 -0.646595 0
M  V30 4948 C 440.941 -1.1834 -1.11801 0
M  V30 4949 O 442.13 -1.4507 -1.04004 0
M  V30 4950 C 439.23 -2.8104 -1.89393 0
M  V30 4951 C 438.403 -4.08274 -1.56943 0
M  V30 4952 C 437.462 -4.53478 -2.66916 0
M  V30 4953 O 436.488 -5.19267 -2.33132 0
M  V30 4954 N 437.69 -4.2356 -3.9696 0
M  V30 4955 H 440.455 -2.99556 -0.0928686 0
M  V30 4956 H 438.016 -1.61618 0.0954783 0
M  V30 4957 H 440.008 -3.08226 -2.62257 0
M  V30 4958 H 438.578 -2.05372 -2.35672 0
M  V30 4959 H 437.798 -3.88384 -0.674655 0
M  V30 4960 H 439.086 -4.91173 -1.32764 0
M  V30 4961 H 438.484 -3.70799 -4.27229 0
M  V30 4962 H 437.041 -4.55518 -4.66205 0
M  V30 4963 N 440.474 -0.00167713 -1.576 0
M  V30 4964 C 441.384 1.00548 -2.1196 0
M  V30 4965 C 442.4 1.3758 -1.06526 0
M  V30 4966 O 443.576 1.46278 -1.38436 0
M  V30 4967 C 440.641 2.27809 -2.6135 0
M  V30 4968 C 439.702 1.97074 -3.81393 0
M  V30 4969 C 438.935 3.18267 -4.28417 0
M  V30 4970 O 439.158 4.30009 -3.74765 0
M  V30 4971 O 438.092 3.02167 -5.20556 0
M  V30 4972 H 441.918 0.573373 -2.98238 0
M  V30 4973 H 439.503 0.217255 -1.47812 0
M  V30 4974 H 441.385 3.02568 -2.93309 0
M  V30 4975 H 440.06 2.70254 -1.78169 0
M  V30 4976 H 438.967 1.19785 -3.54404 0
M  V30 4977 H 440.3 1.59464 -4.65652 0
M  V30 4978 N 441.952 1.55251 0.271103 0
M  V30 4979 C 442.899 1.88261 1.33516 0
M  V30 4980 C 443.869 0.734296 1.48988 0
M  V30 4981 O 445.054 0.985741 1.63364 0
M  V30 4982 C 442.194 2.16168 2.69008 0
M  V30 4983 C 441.307 3.43678 2.61743 0
M  V30 4984 C 440.442 3.61276 3.89427 0
M  V30 4985 C 439.481 4.82472 3.7668 0
M  V30 4986 N 438.618 4.96717 4.96202 0
M  V30 4987 H 443.458 2.79015 1.04665 0
M  V30 4988 H 440.995 1.38137 0.505618 0
M  V30 4989 H 442.953 2.30349 3.47844 0
M  V30 4990 H 441.583 1.28646 2.96057 0
M  V30 4991 H 440.635 3.37959 1.74607 0
M  V30 4992 H 441.947 4.3265 2.48224 0
M  V30 4993 H 441.101 3.75284 4.76704 0
M  V30 4994 H 439.84 2.70492 4.05814 0
M  V30 4995 H 438.845 4.68465 2.87786 0
M  V30 4996 H 440.07 5.74692 3.61809 0
M  V30 4997 H 438.016 4.08865 5.12997 0
M  V30 4998 H 437.933 5.79738 4.85222 0
M  V30 4999 H 439.201 5.15113 5.85046 0
M  V30 5000 N 443.43 -0.535701 1.48216 0
M  V30 5001 C 444.678 -1.28928 1.55634 0
M  V30 5002 C 444.999 -1.93645 0.229514 0
M  V30 5003 O 444.269 -1.81038 -0.74846 0
M  V30 5004 H 442.849 -0.47884 0.573342 0
M  V30 5005 H 445.511 -0.623853 1.84646 0
M  V30 5006 H 444.607 -2.07157 2.33436 0
M  V30 5007 N 444.908 -1.36708 -0.784132 0
M  V30 5008 C 445.871 -1.31307 -1.87859 0
M  V30 5009 C 446.871 -0.219654 -1.59293 0
M  V30 5010 O 448.061 -0.47476 -1.67606 0
M  V30 5011 C 445.193 -1.03679 -3.24751 0
M  V30 5012 H 446.386 -2.28647 -1.94064 0
M  V30 5013 H 443.939 -1.21558 -0.98252 0
M  V30 5014 H 444.674 -0.0681936 -3.24228 0
M  V30 5015 H 444.459 -1.82811 -3.46876 0
M  V30 5016 H 445.949 -1.02518 -4.04821 0
M  V30 5017 N 446.386 1.0089 -1.21074 0
M  V30 5018 C 447.616 1.77933 -1.04993 0
M  V30 5019 C 448.024 1.84847 0.403495 0
M  V30 5020 O 447.367 1.30606 1.29181 0
M  V30 5021 C 447.429 3.23541 -1.56722 0
M  V30 5022 C 447.093 3.40214 -3.05129 0
M  V30 5023 C 448.09 3.2881 -4.02716 0
M  V30 5024 C 445.775 3.65781 -3.44252 0
M  V30 5025 C 447.769 3.42732 -5.37414 0
M  V30 5026 C 445.456 3.79346 -4.79103 0
M  V30 5027 C 446.454 3.67827 -5.75493 0
M  V30 5028 O 446.142 3.80965 -7.07899 0
M  V30 5029 H 445.874 0.566157 -0.369381 0
M  V30 5030 H 448.428 1.27826 -1.60779 0
M  V30 5031 H 446.658 3.74766 -0.953285 0
M  V30 5032 H 448.347 3.82245 -1.36543 0
M  V30 5033 H 449.113 3.08986 -3.73835 0
M  V30 5034 H 444.992 3.73831 -2.69762 0
M  V30 5035 H 448.536 3.33658 -6.12632 0
M  V30 5036 H 444.433 3.98672 -5.07672 0
M  V30 5037 H 445.201 3.97937 -7.15254 0
M  V30 5038 N 447.864 1.01787 1.20321 0
M  V30 5039 C 448.774 0.598898 2.26827 0
M  V30 5040 C 449.79 -0.36418 1.70146 0
M  V30 5041 O 450.966 -0.224812 2.00141 0
M  V30 5042 C 448.031 -0.0549769 3.46656 0
M  V30 5043 C 447.092 0.954205 4.18561 0
M  V30 5044 C 446.325 0.331439 5.3267 0
M  V30 5045 O 446.548 -0.86851 5.63749 0
M  V30 5046 O 445.482 1.0488 5.92692 0
M  V30 5047 H 449.308 1.48562 2.64883 0
M  V30 5048 H 446.893 0.787434 1.26964 0
M  V30 5049 H 448.775 -0.420102 4.19301 0
M  V30 5050 H 447.45 -0.915876 3.10473 0
M  V30 5051 H 446.357 1.37072 3.48083 0
M  V30 5052 H 447.69 1.78511 4.58688 0
M  V30 5053 N 449.342 -1.36122 0.79427 0
M  V30 5054 C 450.567 -2.03891 0.379871 0
M  V30 5055 C 450.992 -1.59488 -0.997251 0
M  V30 5056 O 450.35 -0.765652 -1.64339 0
M  V30 5057 C 450.398 -3.57687 0.457442 0
M  V30 5058 O 449.502 -4.08931 -0.5338 0
M  V30 5059 H 448.843 -0.6443 0.160541 0
M  V30 5060 H 451.373 -1.73976 1.07673 0
M  V30 5061 H 451.383 -4.06721 0.322792 0
M  V30 5062 H 450.058 -3.89357 1.46199 0
M  V30 5063 H 448.635 -3.71154 -0.360409 0
M  V30 5064 N 450.82 -0.546701 -1.47814 0
M  V30 5065 C 452.048 -0.0232857 -2.06887 0
M  V30 5066 C 452.463 1.26571 -1.4009 0
M  V30 5067 O 451.82 1.7569 -0.493906 0
M  V30 5068 C 451.871 0.186975 -3.61016 0
M  V30 5069 O 451.592 -1.05097 -4.25307 0
M  V30 5070 C 453.093 0.748872 -4.36929 0
M  V30 5071 H 450.313 -0.0410763 -0.669742 0
M  V30 5072 H 452.857 -0.757117 -1.89968 0
M  V30 5073 H 451.012 0.870903 -3.77484 0
M  V30 5074 H 451.426 -0.842121 -5.17695 0
M  V30 5075 H 452.9 0.845334 -5.45489 0
M  V30 5076 H 453.377 1.75772 -4.02493 0
M  V30 5077 H 453.983 0.100979 -4.2518 0
M  V30 5078 N 452.299 1.55045 -0.282633 0
M  V30 5079 C 453.246 2.22822 0.601566 0
M  V30 5080 C 454.216 1.20431 1.14392 0
M  V30 5081 O 455.401 1.48996 1.19184 0
M  V30 5082 C 452.541 2.95873 1.77632 0
M  V30 5083 C 451.654 4.12999 1.26711 0
M  V30 5084 C 450.789 4.73676 2.40426 0
M  V30 5085 C 449.828 5.82981 1.86545 0
M  V30 5086 N 448.965 6.3769 2.93762 0
M  V30 5087 H 453.805 2.97995 0.0169528 0
M  V30 5088 H 451.342 1.471 -0.00339964 0
M  V30 5089 H 453.3 3.36447 2.46697 0
M  V30 5090 H 451.93 2.2311 2.33285 0
M  V30 5091 H 450.982 3.77494 0.469314 0
M  V30 5092 H 452.294 4.91803 0.832518 0
M  V30 5093 H 451.448 5.17008 3.17471 0
M  V30 5094 H 450.187 3.94164 2.87203 0
M  V30 5095 H 449.192 5.39092 1.07983 0
M  V30 5096 H 450.417 6.64366 1.40694 0
M  V30 5097 H 448.363 5.61069 3.39908 0
M  V30 5098 H 448.28 7.11788 2.54744 0
M  V30 5099 H 449.548 6.8568 3.7076 0
M  V30 5100 N 453.777 0.010035 1.57597 0
M  V30 5101 C 455.023 -0.668011 1.92118 0
M  V30 5102 C 455.378 -1.70821 0.885328 0
M  V30 5103 O 454.671 -1.91333 -0.101187 0
M  V30 5104 C 454.865 -1.34434 3.31153 0
M  V30 5105 C 454.694 -0.371176 4.48166 0
M  V30 5106 C 453.464 0.0220686 5.05295 0
M  V30 5107 C 455.662 0.366731 5.12991 0
M  V30 5108 N 453.644 0.9924 6.05826 0
M  V30 5109 C 455.015 1.19142 6.08445 0
M  V30 5110 C 457.07 0.429489 4.96044 0
M  V30 5111 C 455.773 2.07317 6.88776 0
M  V30 5112 C 457.799 1.2985 5.76969 0
M  V30 5113 C 457.161 2.11101 6.72023 0
M  V30 5114 H 453.26 -0.217337 0.751192 0
M  V30 5115 H 455.844 0.0727375 1.94564 0
M  V30 5116 H 454.015 -2.05533 3.29561 0
M  V30 5117 H 455.747 -1.97789 3.53075 0
M  V30 5118 H 452.502 -0.348409 4.72317 0
M  V30 5119 H 452.926 1.47324 6.60776 0
M  V30 5120 H 457.568 -0.18442 4.22398 0
M  V30 5121 H 455.286 2.69771 7.61741 0
M  V30 5122 H 458.872 1.3511 5.65894 0
M  V30 5123 H 457.752 2.77257 7.33552 0
M  V30 5124 N 455.255 -1.55392 -0.262866 0
M  V30 5125 C 456.671 -1.47459 -0.610582 0
M  V30 5126 C 456.871 -0.697031 -1.8906 0
M  V30 5127 O 455.927 -0.219952 -2.5154 0
M  V30 5128 C 457.24 -2.91751 -0.728131 0
M  V30 5129 C 458.788 -3.02027 -0.821517 0
M  V30 5130 C 459.263 -4.47594 -0.97076 0
M  V30 5131 N 460.754 -4.51465 -1.03603 0
M  V30 5132 C 461.489 -5.61326 -1.17049 0
M  V30 5133 N 460.985 -6.81032 -1.2715 0
M  V30 5134 N 462.778 -5.49089 -1.20239 0
M  V30 5135 H 454.929 -2.04395 0.577632 0
M  V30 5136 H 457.192 -0.927287 0.197086 0
M  V30 5137 H 456.898 -3.51413 0.142132 0
M  V30 5138 H 456.772 -3.4134 -1.6052 0
M  V30 5139 H 459.159 -2.42456 -1.68224 0
M  V30 5140 H 459.24 -2.55674 0.0803688 0
M  V30 5141 H 458.884 -5.07771 -0.114655 0
M  V30 5142 H 458.814 -4.91613 -1.88745 0
M  V30 5143 H 461.305 -3.6524 -0.96996 0
M  V30 5144 H 461.618 -7.60511 -1.37271 0
M  V30 5145 H 459.963 -6.83824 -1.24136 0
M  V30 5146 H 463.154 -4.54507 -1.11985 0
M  V30 5147 H 463.327 -6.34749 -1.30373 0
M  V30 5148 N 456.733 0.527833 -1.48498 0
M  V30 5149 C 457.958 1.313 -1.60546 0
M  V30 5150 C 458.383 1.86199 -0.26672 0
M  V30 5151 O 457.741 1.64513 0.761918 0
M  V30 5152 C 457.789 2.43818 -2.65678 0
M  V30 5153 O 456.893 3.46916 -2.22987 0
M  V30 5154 H 456.234 0.388784 -0.538277 0
M  V30 5155 H 458.764 0.634896 -1.945 0
M  V30 5156 H 458.774 2.89973 -2.87018 0
M  V30 5157 H 457.449 2.03222 -3.62869 0
M  V30 5158 H 456.026 3.06864 -2.11869 0
M  V30 5159 N 458.211 1.37122 0.776871 0
M  V30 5160 C 459.46 1.31373 1.53049 0
M  V30 5161 C 459.773 -0.101016 1.95339 0
M  V30 5162 O 460.979 -0.280953 2.70042 0
M  V30 5163 C 459.435 2.30567 2.76346 0
M  V30 5164 C 459.043 3.77543 2.41175 0
M  V30 5165 C 460.787 2.33818 3.54301 0
M  V30 5166 C 458.694 4.68481 3.60943 0
M  V30 5167 H 457.624 0.488234 0.574581 0
M  V30 5168 H 460.275 1.62554 0.851372 0
M  V30 5169 H 458.657 1.92396 3.46121 0
M  V30 5170 H 459.831 4.24521 1.79216 0
M  V30 5171 H 458.146 3.77187 1.76405 0
M  V30 5172 H 460.743 2.98965 4.4331 0
M  V30 5173 H 461.086 1.3503 3.93793 0
M  V30 5174 H 461.619 2.7067 2.91518 0
M  V30 5175 H 458.358 5.68378 3.26537 0
M  V30 5176 H 457.878 4.2621 4.22025 0
M  V30 5177 H 459.557 4.85366 4.27819 0
M  V30 5178 N 459.689 -1.00246 1.21608 0
M  V30 5179 C 460.619 -2.10921 1.00172 0
M  V30 5180 C 461.6 -1.69938 -0.0741587 0
M  V30 5181 O 462.785 -1.94009 0.0861753 0
M  V30 5182 C 459.915 -3.42618 0.568355 0
M  V30 5183 C 458.869 -3.97407 1.58909 0
M  V30 5184 C 458.195 -5.25038 1.01187 0
M  V30 5185 C 459.495 -4.2918 2.97661 0
M  V30 5186 H 461.189 -2.29112 1.92739 0
M  V30 5187 H 458.735 -1.10101 0.928102 0
M  V30 5188 H 460.688 -4.19444 0.405555 0
M  V30 5189 H 459.412 -3.24227 -0.392961 0
M  V30 5190 H 458.071 -3.22703 1.73949 0
M  V30 5191 H 457.719 -5.02982 0.0421965 0
M  V30 5192 H 457.419 -5.62661 1.6937 0
M  V30 5193 H 458.943 -6.04507 0.860448 0
M  V30 5194 H 460.357 -4.96839 2.86049 0
M  V30 5195 H 458.754 -4.77952 3.6288 0
M  V30 5196 H 459.824 -3.3735 3.48315 0
M  V30 5197 N 461.167 -1.02423 -1.1978 0
M  V30 5198 C 462.397 -0.736387 -1.93031 0
M  V30 5199 C 462.805 0.708023 -1.75453 0
M  V30 5200 O 462.148 1.4927 -1.07071 0
M  V30 5201 C 462.21 -1.00194 -3.45255 0
M  V30 5202 C 461.874 -2.43698 -3.86601 0
M  V30 5203 C 462.871 -3.41814 -3.91738 0
M  V30 5204 C 460.556 -2.77975 -4.18372 0
M  V30 5205 C 462.55 -4.72265 -4.28071 0
M  V30 5206 C 460.237 -4.08636 -4.54378 0
M  V30 5207 C 461.235 -5.05592 -4.59201 0
M  V30 5208 O 460.923 -6.33914 -4.94376 0
M  V30 5209 H 460.655 -0.269116 -0.620123 0
M  V30 5210 H 463.209 -1.37043 -1.52998 0
M  V30 5211 H 461.439 -0.310747 -3.85449 0
M  V30 5212 H 463.128 -0.704488 -3.9974 0
M  V30 5213 H 463.894 -3.16671 -3.67348 0
M  V30 5214 H 459.773 -2.0319 -4.13805 0
M  V30 5215 H 463.317 -5.4794 -4.3175 0
M  V30 5216 H 459.214 -4.33556 -4.78226 0
M  V30 5217 H 459.982 -6.38317 -5.12341 0
M  V30 5218 N 462.645 1.35699 -0.801477 0
M  V30 5219 C 463.593 2.3177 -0.196317 0
M  V30 5220 C 464.587 1.56388 0.651081 0
M  V30 5221 O 465.793 1.71557 0.544815 0
M  V30 5222 H 462.168 0.750669 -0.0447189 0
M  V30 5223 H 464.139 2.8036 -1.02181 0
M  V30 5224 C 462.888 3.41671 0.644702 0
M  V30 5225 H 462.211 3.998 0.0019921 0
M  V30 5226 H 463.651 4.11184 1.0346 0
M  V30 5227 C 462.11 2.84271 1.80808 0
M  V30 5228 O 462.64 2.77408 2.9053 0
M  V30 5229 N 460.846 2.41391 1.61799 0
M  V30 5230 H 460.393 2.47173 0.725493 0
M  V30 5231 H 460.351 2.03334 2.39797 0
M  V30 5232 N 464.123 0.554532 1.47522 0
M  V30 5233 C 465.053 -0.182974 2.32782 0
M  V30 5234 C 466.034 -0.911377 1.43624 0
M  V30 5235 O 467.219 -0.892366 1.72483 0
M  V30 5236 C 464.349 -1.21513 3.25349 0
M  V30 5237 C 463.303 -0.603355 4.23726 0
M  V30 5238 C 462.629 -1.73995 5.05598 0
M  V30 5239 C 463.929 0.441121 5.20434 0
M  V30 5240 H 465.623 0.52882 2.94693 0
M  V30 5241 H 463.169 0.255759 1.41711 0
M  V30 5242 H 465.122 -1.73922 3.83835 0
M  V30 5243 H 463.846 -1.95683 2.61487 0
M  V30 5244 H 462.505 -0.10059 3.66462 0
M  V30 5245 H 462.153 -2.47063 4.38143 0
M  V30 5246 H 461.853 -1.3364 5.72201 0
M  V30 5247 H 463.377 -2.26735 5.66942 0
M  V30 5248 H 464.791 0.00319931 5.733 0
M  V30 5249 H 463.188 0.763402 5.95224 0
M  V30 5250 H 464.258 1.33799 4.66075 0
M  V30 5251 N 465.601 -1.54893 0.290851 0
M  V30 5252 C 466.831 -2.04047 -0.323818 0
M  V30 5253 C 467.239 -1.16809 -1.48837 0
M  V30 5254 O 466.582 -0.184145 -1.82775 0
M  V30 5255 C 466.644 -3.49248 -0.852395 0
M  V30 5256 C 466.308 -4.56623 0.185557 0
M  V30 5257 C 467.305 -5.09985 1.01053 0
M  V30 5258 C 464.99 -5.01252 0.324332 0
M  V30 5259 C 466.984 -6.06507 1.96031 0
M  V30 5260 C 464.671 -5.97596 1.27757 0
M  V30 5261 C 465.669 -6.50107 2.09405 0
M  V30 5262 O 465.357 -7.44565 3.03114 0
M  V30 5263 H 465.089 -0.671735 -0.0758129 0
M  V30 5264 H 467.643 -2.00947 0.425393 0
M  V30 5265 H 465.873 -3.49639 -1.65195 0
M  V30 5266 H 467.562 -3.81654 -1.38185 0
M  V30 5267 H 468.328 -4.76307 0.914129 0
M  V30 5268 H 464.207 -4.60015 -0.301213 0
M  V30 5269 H 467.751 -6.47418 2.598 0
M  V30 5270 H 463.648 -6.30691 1.37473 0
M  V30 5271 H 464.416 -7.62334 2.97976 0
M  V30 5272 N 467.08 -0.0183926 -1.57589 0
M  V30 5273 C 468.357 0.700621 -1.82622 0
M  V30 5274 C 468.737 1.90951 -0.90005 0
M  V30 5275 O 468.085 2.28452 0.0469145 0
M  V30 5276 C 468.295 1.08899 -3.31575 0
M  V30 5277 C 469.643 1.48514 -3.9778 0
M  V30 5278 O 470.667 1.18227 -3.36007 0
M  V30 5279 O 469.526 2.04903 -5.06633 0
M  V30 5280 H 466.62 0.342743 -0.752633 0
M  V30 5281 H 469.166 -0.0452548 -1.6964 0
M  V30 5282 H 467.938 0.228113 -3.90635 0
M  V30 5283 H 467.561 1.89338 -3.49624 0
M  V30 5284 N 468.558 1.5553 0.254621 0
M  V30 5285 C 469.488 1.9268 1.31897 0
M  V30 5286 C 470.469 0.790797 1.506 0
M  V30 5287 O 471.654 1.05045 1.63337 0
M  V30 5288 C 468.784 2.21477 2.67517 0
M  V30 5289 C 467.738 3.37256 2.63519 0
M  V30 5290 C 467.064 3.51576 4.02862 0
M  V30 5291 C 468.364 4.73157 2.21179 0
M  V30 5292 H 470.058 2.81832 1.01051 0
M  V30 5293 H 467.604 1.35599 0.484662 0
M  V30 5294 H 469.557 2.46055 3.42104 0
M  V30 5295 H 468.281 1.29144 2.99982 0
M  V30 5296 H 466.94 3.12675 1.9139 0
M  V30 5297 H 466.588 2.56676 4.32581 0
M  V30 5298 H 466.288 4.2943 4.01078 0
M  V30 5299 H 467.812 3.78467 4.79161 0
M  V30 5300 H 469.226 4.97158 2.85494 0
M  V30 5301 H 467.623 5.54058 2.30521 0
M  V30 5302 H 468.693 4.70739 1.16332 0
M  V30 5303 N 470.036 -0.519951 1.48776 0
M  V30 5304 C 470.966 -1.63253 1.66945 0
M  V30 5305 C 471.947 -1.62014 0.518224 0
M  V30 5306 O 473.132 -1.79053 0.751919 0
M  V30 5307 C 470.262 -3.0181 1.71836 0
M  V30 5308 C 469.216 -3.17911 2.8656 0
M  V30 5309 C 468.542 -4.5763 2.76548 0
M  V30 5310 C 469.842 -2.99729 4.27738 0
M  V30 5311 H 471.536 -1.48302 2.6009 0
M  V30 5312 H 469.082 -0.712026 1.25165 0
M  V30 5313 H 471.035 -3.79525 1.83135 0
M  V30 5314 H 469.759 -3.17806 0.752775 0
M  V30 5315 H 468.418 -2.42616 2.74833 0
M  V30 5316 H 468.066 -4.70476 1.77937 0
M  V30 5317 H 467.766 -4.69346 3.53536 0
M  V30 5318 H 469.29 -5.37431 2.89828 0
M  V30 5319 H 470.704 -3.67228 4.40246 0
M  V30 5320 H 469.101 -3.22932 5.05801 0
M  V30 5321 H 470.171 -1.96047 4.43502 0
M  V30 5322 N 471.514 -1.37532 -0.769588 0
M  V30 5323 C 472.76 -1.33057 -1.53048 0
M  V30 5324 C 473.093 0.0841865 -1.94017 0
M  V30 5325 O 472.368 1.04198 -1.64235 0
M  V30 5326 C 472.651 -2.27166 -2.79406 0
M  V30 5327 C 472.504 -3.77429 -2.44677 0
M  V30 5328 C 473.823 -2.19683 -3.81349 0
M  V30 5329 H 470.942 -0.484655 -0.555228 0
M  V30 5330 H 473.584 -1.68251 -0.882702 0
M  V30 5331 H 471.734 -1.97283 -3.34682 0
M  V30 5332 H 473.406 -4.17918 -1.953 0
M  V30 5333 H 471.649 -3.95892 -1.77346 0
M  V30 5334 H 472.32 -4.38716 -3.35011 0
M  V30 5335 H 474.796 -2.46029 -3.35573 0
M  V30 5336 H 473.672 -2.87668 -4.67481 0
M  V30 5337 H 473.933 -1.19045 -4.25771 0
M  V30 5338 N 472.992 0.995999 -1.22138 0
M  V30 5339 C 473.94 2.10673 -0.985876 0
M  V30 5340 C 474.934 1.69255 0.0699553 0
M  V30 5341 O 476.14 1.79812 -0.0822176 0
M  V30 5342 H 472.515 0.688865 -0.30161 0
M  V30 5343 H 474.486 2.27711 -1.92848 0
M  V30 5344 C 473.235 3.42881 -0.576909 0
M  V30 5345 H 472.558 3.75191 -1.38101 0
M  V30 5346 H 473.998 4.21589 -0.451518 0
M  V30 5347 C 472.457 3.29265 0.713196 0
M  V30 5348 O 472.987 3.60777 1.76643 0
M  V30 5349 N 471.193 2.82456 0.683162 0
M  V30 5350 H 470.74 2.5701 -0.174242 0
M  V30 5351 H 470.698 2.73727 1.54663 0
M  V30 5352 N 474.47 1.03057 1.19235 0
M  V30 5353 C 475.38 0.622922 2.26179 0
M  V30 5354 C 476.396 -0.346113 1.70523 0
M  V30 5355 O 477.572 -0.203572 2.00369 0
M  V30 5356 C 474.637 -0.0182063 3.46695 0
M  V30 5357 C 473.698 0.998546 4.17526 0
M  V30 5358 C 472.931 0.387917 5.32288 0
M  V30 5359 O 473.154 -0.808668 5.64639 0
M  V30 5360 O 472.088 1.1116 5.91546 0
M  V30 5361 H 475.914 1.51363 2.63292 0
M  V30 5362 H 473.499 0.800856 1.26122 0
M  V30 5363 H 475.381 -0.375606 4.19723 0
M  V30 5364 H 474.056 -0.882895 3.11427 0
M  V30 5365 H 472.963 1.40756 3.4661 0
M  V30 5366 H 474.296 1.83366 4.56769 0
M  V30 5367 N 475.948 -1.35272 0.808662 0
M  V30 5368 C 477.197 -1.97963 0.386483 0
M  V30 5369 C 477.51 -1.64866 -1.05255 0
M  V30 5370 O 478.716 -2.20937 -1.57794 0
M  V30 5371 C 477.172 -3.54162 0.640096 0
M  V30 5372 C 476.78 -3.96166 2.0918 0
M  V30 5373 C 478.524 -4.23553 0.283376 0
M  V30 5374 C 476.431 -5.4522 2.29106 0
M  V30 5375 H 475.361 -0.740742 0.140774 0
M  V30 5376 H 478.012 -1.5431 0.993012 0
M  V30 5377 H 476.394 -3.95983 -0.0364117 0
M  V30 5378 H 477.568 -3.65491 2.80629 0
M  V30 5379 H 475.883 -3.3967 2.40859 0
M  V30 5380 H 478.48 -5.33124 0.410273 0
M  V30 5381 H 478.823 -4.09105 -0.770659 0
M  V30 5382 H 479.356 -3.8716 0.913884 0
M  V30 5383 H 476.095 -5.64638 3.32962 0
M  V30 5384 H 475.615 -5.77457 1.62184 0
M  V30 5385 H 477.294 -6.1171 2.1076 0
M  V30 5386 N 477.426 -0.562348 -1.47226 0
M  V30 5387 C 478.651 -0.0432632 -2.07355 0
M  V30 5388 C 479.076 1.24332 -1.41149 0
M  V30 5389 O 478.434 1.74603 -0.488226 0
M  V30 5390 C 478.482 0.130288 -3.60365 0
M  V30 5391 O 477.586 1.19166 -3.94808 0
M  V30 5392 H 476.927 -0.0536334 -0.66183 0
M  V30 5393 H 479.457 -0.779495 -1.89169 0
M  V30 5394 H 479.467 0.342881 -4.06557 0
M  V30 5395 H 478.142 -0.809389 -4.07948 0
M  V30 5396 H 476.719 0.959153 -3.60354 0
M  V30 5397 N 478.904 1.54736 -0.299062 0
M  V30 5398 C 479.854 2.20155 0.592932 0
M  V30 5399 C 480.838 1.1739 1.10038 0
M  V30 5400 O 482.03 1.43116 1.04147 0
M  V30 5401 C 479.159 2.94437 1.76527 0
M  V30 5402 C 478.245 4.04516 1.27388 0
M  V30 5403 N 478.636 5.03319 0.500339 0
M  V30 5404 C 476.934 4.18022 1.55478 0
M  V30 5405 C 477.635 5.81209 0.238909 0
M  V30 5406 N 476.611 5.37408 0.818163 0
M  V30 5407 H 480.413 2.93899 -0.00563596 0
M  V30 5408 H 477.927 1.62068 -0.103732 0
M  V30 5409 H 479.924 3.3977 2.41582 0
M  V30 5410 H 478.584 2.22209 2.36756 0
M  V30 5411 H 479.595 5.17696 0.145419 0
M  V30 5412 H 476.272 3.56998 2.16469 0
M  V30 5413 H 477.662 6.70812 -0.382223 0
M  V30 5414 N 480.382 0.0267497 1.57577 0
M  V30 5415 C 481.631 -0.651736 1.9088 0
M  V30 5416 C 481.944 -1.73427 0.904576 0
M  V30 5417 O 483.15 -2.46923 1.12877 0
M  V30 5418 C 481.606 -1.21048 3.38933 0
M  V30 5419 C 481.214 -0.161362 4.47709 0
M  V30 5420 C 482.958 -1.86562 3.81307 0
M  V30 5421 C 480.865 -0.731611 5.86857 0
M  V30 5422 H 479.795 -0.247198 0.712326 0
M  V30 5423 H 482.446 0.0916641 1.83271 0
M  V30 5424 H 480.828 -2.00542 3.41466 0
M  V30 5425 H 482.002 0.61094 4.56732 0
M  V30 5426 H 480.317 0.394877 4.14523 0
M  V30 5427 H 482.914 -2.30178 4.8262 0
M  V30 5428 H 483.257 -2.70735 3.16241 0
M  V30 5429 H 483.79 -1.13762 3.81186 0
M  V30 5430 H 480.529 0.0719329 6.55461 0
M  V30 5431 H 480.049 -1.47245 5.81445 0
M  V30 5432 H 481.728 -1.22208 6.35354 0
M  V30 5433 N 481.861 -1.55662 -0.24637 0
M  V30 5434 C 483.109 -1.77168 -0.972411 0
M  V30 5435 C 483.43 -0.590827 -1.85834 0
M  V30 5436 O 482.7 0.393365 -1.9191 0
M  V30 5437 H 481.28 -0.653405 -0.362038 0
M  V30 5438 H 483.942 -1.93101 -0.264189 0
M  V30 5439 H 483.038 -2.68335 -1.59382 0
M  V30 5440 N 483.339 0.512053 -1.4905 0
M  V30 5441 C 484.564 1.2959 -1.6193 0
M  V30 5442 C 484.989 1.85906 -0.286454 0
M  V30 5443 O 484.347 1.65312 0.744426 0
M  V30 5444 C 484.395 2.40987 -2.68249 0
M  V30 5445 O 483.499 3.44531 -2.26654 0
M  V30 5446 H 482.84 0.383053 -0.542371 0
M  V30 5447 H 485.37 0.614231 -1.95162 0
M  V30 5448 H 485.38 2.86913 -2.90078 0
M  V30 5449 H 484.055 1.99361 -3.65004 0
M  V30 5450 H 482.632 3.046 -2.15112 0
M  V30 5451 N 484.817 1.37938 0.762283 0
M  V30 5452 C 486.233 1.18945 1.06415 0
M  V30 5453 C 486.433 0.0321163 2.01474 0
M  V30 5454 O 485.489 -0.624844 2.44647 0
M  V30 5455 C 486.802 2.51218 1.65258 0
M  V30 5456 C 488.35 2.57824 1.7747 0
M  V30 5457 C 488.825 3.90251 2.39725 0
M  V30 5458 N 490.316 3.91744 2.47166 0
M  V30 5459 C 491.051 4.90966 2.96209 0
M  V30 5460 N 490.547 6.00585 3.45354 0
M  V30 5461 N 492.34 4.78363 2.9517 0
M  V30 5462 H 484.491 2.11994 0.131301 0
M  V30 5463 H 486.754 0.940262 0.120879 0
M  V30 5464 H 486.46 3.36317 1.02878 0
M  V30 5465 H 486.334 2.68989 2.64433 0
M  V30 5466 H 488.721 1.73126 2.3898 0
M  V30 5467 H 488.802 2.43928 0.770241 0
M  V30 5468 H 488.446 4.75368 1.78852 0
M  V30 5469 H 488.376 4.01454 3.40796 0
M  V30 5470 H 490.867 3.12563 2.12397 0
M  V30 5471 H 491.18 6.72236 3.81207 0
M  V30 5472 H 489.525 6.04217 3.43434 0
M  V30 5473 H 492.716 3.91841 2.56082 0
M  V30 5474 H 492.889 5.55843 3.33081 0
M  V30 5475 N 486.295 -0.989507 1.22664 0
M  V30 5476 C 487.543 -1.72612 1.05117 0
M  V30 5477 C 487.864 -1.90552 -0.414131 0
M  V30 5478 O 487.134 -1.4676 -1.29762 0
M  V30 5479 H 485.714 -0.639555 0.385977 0
M  V30 5480 H 488.376 -1.19158 1.54232 0
M  V30 5481 H 487.472 -2.71926 1.53175 0
M  V30 5482 N 487.773 -1.03688 -1.18687 0
M  V30 5483 C 488.72 -0.624624 -2.22187 0
M  V30 5484 C 489.69 0.365636 -1.62026 0
M  V30 5485 O 490.875 0.260481 -1.89014 0
M  V30 5486 C 488.015 0.0101738 -3.45099 0
M  V30 5487 C 487.128 -1.02709 -4.19613 0
M  V30 5488 C 486.263 -0.361213 -5.2997 0
M  V30 5489 C 485.302 -1.38384 -5.96252 0
M  V30 5490 N 484.439 -0.743196 -6.98155 0
M  V30 5491 H 489.279 -1.51176 -2.56807 0
M  V30 5492 H 486.816 -0.75636 -1.26165 0
M  V30 5493 H 488.774 0.395528 -4.15321 0
M  V30 5494 H 487.404 0.860848 -3.1111 0
M  V30 5495 H 486.456 -1.53043 -3.48256 0
M  V30 5496 H 487.768 -1.80398 -4.65036 0
M  V30 5497 H 486.922 0.0785537 -6.06649 0
M  V30 5498 H 485.661 0.447799 -4.8564 0
M  V30 5499 H 484.666 -1.83378 -5.18317 0
M  V30 5500 H 485.891 -2.19448 -6.42666 0
M  V30 5501 H 483.837 0.0455789 -6.55984 0
M  V30 5502 H 483.754 -1.45784 -7.41811 0
M  V30 5503 H 485.022 -0.327698 -7.78811 0
M  V30 5504 N 489.251 1.34841 -0.815825 0
M  V30 5505 C 490.481 2.02436 -0.412695 0
M  V30 5506 C 490.889 1.61604 0.983906 0
M  V30 5507 O 490.232 0.813729 1.64694 0
M  V30 5508 C 490.294 3.56953 -0.427182 0
M  V30 5509 C 489.958 4.21083 -1.77589 0
M  V30 5510 C 490.955 4.42107 -2.73564 0
M  V30 5511 C 488.64 4.58006 -2.06243 0
M  V30 5512 C 490.634 4.99169 -3.9637 0
M  V30 5513 C 488.321 5.1478 -3.2931 0
M  V30 5514 C 489.319 5.35304 -4.24191 0
M  V30 5515 O 489.007 5.90878 -5.45086 0
M  V30 5516 H 488.739 0.655631 -0.164695 0
M  V30 5517 H 491.293 1.73246 -1.1034 0
M  V30 5518 H 489.523 3.85372 0.320175 0
M  V30 5519 H 491.212 4.05875 -0.0450875 0
M  V30 5520 H 491.978 4.13953 -2.52721 0
M  V30 5521 H 487.857 4.41339 -1.33196 0
M  V30 5522 H 491.401 5.15105 -4.70439 0
M  V30 5523 H 487.298 5.42362 -3.5002 0
M  V30 5524 H 488.066 6.0932 -5.46508 0
M  V30 5525 N 490.729 0.570148 1.46925 0
M  V30 5526 C 491.954 0.0542592 2.07329 0
M  V30 5527 C 492.379 -1.23582 1.41806 0
M  V30 5528 O 491.737 -1.74341 0.497479 0
M  V30 5529 C 491.785 -0.111175 3.60429 0
M  V30 5530 O 490.889 -1.17071 3.95434 0
M  V30 5531 H 490.23 0.0571425 0.661537 0
M  V30 5532 H 492.76 0.789516 1.88753 0
M  V30 5533 H 492.77 -0.321315 4.06733 0
M  V30 5534 H 491.445 0.831012 4.07513 0
M  V30 5535 H 490.022 -0.940029 3.60857 0
M  V30 5536 N 492.207 -1.54576 0.307264 0
M  V30 5537 C 493.432 -2.05139 -0.305379 0
M  V30 5538 C 493.857 -1.18278 -1.46259 0
M  V30 5539 O 493.215 -0.188243 -1.8032 0
M  V30 5540 C 493.263 -3.53066 -0.733283 0
M  V30 5541 O 492.367 -3.69206 -1.83741 0
M  V30 5542 H 491.708 -0.661444 -0.0582105 0
M  V30 5543 H 494.238 -1.99569 0.450931 0
M  V30 5544 H 494.248 -3.95034 -1.02039 0
M  V30 5545 H 492.923 -4.15746 0.113198 0
M  V30 5546 H 491.5 -3.39143 -1.55037 0
M  V30 5547 N 493.685 -0.035106 -1.57561 0
M  V30 5548 C 494.933 0.64096 -1.91667 0
M  V30 5549 C 495.254 1.72323 -0.912681 0
M  V30 5550 O 494.524 1.95849 0.0449089 0
M  V30 5551 H 493.104 0.239743 -0.707483 0
M  V30 5552 H 495.766 -0.084321 -1.94718 0
M  V30 5553 H 494.862 1.08987 -2.92452 0
M  V30 5554 N 495.163 1.55791 0.238111 0
M  V30 5555 C 496.41 1.78033 0.964907 0
M  V30 5556 C 496.738 0.600984 1.84982 0
M  V30 5557 O 495.993 -0.41536 1.91241 0
M  V30 5558 C 496.292 3.05869 1.84875 0
M  V30 5559 C 495.958 4.36808 1.11846 0
M  V30 5560 C 494.62 4.72388 0.916662 0
M  V30 5561 C 496.972 5.17717 0.60151 0
M  V30 5562 C 494.3 5.86406 0.185756 0
M  V30 5563 C 496.652 6.32494 -0.115972 0
M  V30 5564 C 495.316 6.66688 -0.329168 0
M  V30 5565 H 494.586 0.651469 0.353085 0
M  V30 5566 H 497.233 1.90061 0.234318 0
M  V30 5567 H 495.538 2.88891 2.64668 0
M  V30 5568 H 497.235 3.20278 2.41294 0
M  V30 5569 H 493.825 4.08862 1.28569 0
M  V30 5570 H 498.009 4.90678 0.744932 0
M  V30 5571 H 493.265 6.11399 0.0101886 0
M  V30 5572 H 497.439 6.94425 -0.524127 0
M  V30 5573 H 495.066 7.54884 -0.897474 0
M  V30 5574 N 496.642 -0.504142 1.49319 0
M  V30 5575 C 498.058 -0.835039 1.36012 0
M  V30 5576 C 498.258 -1.97674 0.390808 0
M  V30 5577 O 497.314 -2.51867 -0.178655 0
M  V30 5578 C 498.627 -1.17821 2.76656 0
M  V30 5579 C 500.175 -1.2866 2.85334 0
M  V30 5580 C 500.65 -1.66307 4.26739 0
M  V30 5581 N 502.141 -1.73362 4.29534 0
M  V30 5582 C 502.876 -2.0393 5.35911 0
M  V30 5583 N 502.372 -2.32744 6.52535 0
M  V30 5584 N 504.165 -2.05155 5.23324 0
M  V30 5585 H 496.316 0.248764 2.10938 0
M  V30 5586 H 498.579 0.0486962 0.946748 0
M  V30 5587 H 498.285 -0.412682 3.4927 0
M  V30 5588 H 498.159 -2.12239 3.11825 0
M  V30 5589 H 500.546 -2.04285 2.1296 0
M  V30 5590 H 500.627 -0.323004 2.53752 0
M  V30 5591 H 500.271 -0.91234 4.99639 0
M  V30 5592 H 500.201 -2.63761 4.55782 0
M  V30 5593 H 502.692 -1.53268 3.45424 0
M  V30 5594 H 503.005 -2.55248 7.2943 0
M  V30 5595 H 501.35 -2.30207 6.55767 0
M  V30 5596 H 504.541 -1.82119 4.3122 0
M  V30 5597 H 504.714 -2.28644 6.06322 0
M  V30 5598 N 498.12 -1.38341 -0.754957 0
M  V30 5599 C 499.068 -1.35573 -1.89005 0
M  V30 5600 C 500.062 -0.241824 -1.67665 0
M  V30 5601 O 501.268 -0.410785 -1.7525 0
M  V30 5602 H 497.643 -0.422898 -0.621821 0
M  V30 5603 H 499.614 -2.31359 -1.88455 0
M  V30 5604 C 498.363 -1.19631 -3.26471 0
M  V30 5605 H 497.686 -2.04605 -3.43477 0
M  V30 5606 H 499.126 -1.21748 -4.06144 0
M  V30 5607 C 497.585 0.0968705 -3.36761 0
M  V30 5608 O 498.115 1.07439 -3.87066 0
M  V30 5609 N 496.321 0.153242 -2.90196 0
M  V30 5610 H 495.868 -0.642908 -2.49448 0
M  V30 5611 H 495.826 1.01807 -2.9746 0
M  V30 5612 N 499.598 0.982988 -1.23187 0
M  V30 5613 C 500.847 1.71817 -1.05649 0
M  V30 5614 C 501.16 1.91315 0.407176 0
M  V30 5615 O 502.366 2.62256 0.702436 0
M  V30 5616 C 500.822 3.09188 -1.84203 0
M  V30 5617 C 500.43 2.97586 -3.34882 0
M  V30 5618 C 502.174 3.86684 -1.75146 0
M  V30 5619 C 500.081 4.30173 -4.05839 0
M  V30 5620 H 499.011 0.644258 -0.391724 0
M  V30 5621 H 501.662 1.09659 -1.4713 0
M  V30 5622 H 500.044 3.72087 -1.35527 0
M  V30 5623 H 501.218 2.43793 -3.91026 0
M  V30 5624 H 499.533 2.33567 -3.44725 0
M  V30 5625 H 502.13 4.84836 -2.25473 0
M  V30 5626 H 502.473 4.10136 -0.713737 0
M  V30 5627 H 503.006 3.30482 -2.21419 0
M  V30 5628 H 499.745 4.11918 -5.09906 0
M  V30 5629 H 499.265 4.83841 -3.54482 0
M  V30 5630 H 500.944 4.98873 -4.11989 0
M  V30 5631 N 501.076 1.04316 1.18135 0
M  V30 5632 C 502.039 0.640794 2.2006 0
M  V30 5633 C 503.039 -0.303124 1.57917 0
M  V30 5634 O 504.229 -0.0881855 1.73977 0
M  V30 5635 C 501.361 -0.060148 3.40847 0
M  V30 5636 H 502.554 1.54281 2.57172 0
M  V30 5637 H 500.107 0.836004 1.32063 0
M  V30 5638 H 500.842 -0.975845 3.0927 0
M  V30 5639 H 500.627 0.618319 3.87194 0
M  V30 5640 H 502.117 -0.328082 4.16309 0
M  V30 5641 N 502.554 -1.34406 0.822964 0
M  V30 5642 C 503.8 -1.98578 0.411666 0
M  V30 5643 C 504.133 -1.65093 -1.02264 0
M  V30 5644 O 503.408 -0.92258 -1.71227 0
M  V30 5645 C 503.691 -3.54823 0.614235 0
M  V30 5646 C 503.544 -3.9805 2.09466 0
M  V30 5647 C 504.863 -4.40071 0.050221 0
M  V30 5648 H 501.982 -0.721355 0.151047 0
M  V30 5649 H 504.624 -1.59301 1.03554 0
M  V30 5650 H 502.774 -3.88411 0.0831774 0
M  V30 5651 H 504.446 -3.74795 2.68936 0
M  V30 5652 H 502.689 -3.4836 2.5851 0
M  V30 5653 H 503.36 -5.06819 2.18721 0
M  V30 5654 H 505.836 -4.13037 0.503953 0
M  V30 5655 H 504.712 -5.48452 0.221759 0
M  V30 5656 H 504.973 -4.29576 -1.04482 0
M  V30 5657 N 504.032 -0.577932 -1.46621 0
M  V30 5658 C 504.979 0.158048 -2.30258 0
M  V30 5659 C 505.949 0.888669 -1.40328 0
M  V30 5660 O 507.134 0.880283 -1.6928 0
M  V30 5661 C 504.274 1.16884 -3.24703 0
M  V30 5662 C 503.387 0.442163 -4.29731 0
M  V30 5663 C 502.522 1.44007 -5.11308 0
M  V30 5664 C 501.561 0.69952 -6.0809 0
M  V30 5665 N 500.698 1.64525 -6.82551 0
M  V30 5666 H 505.538 -0.561242 -2.92667 0
M  V30 5667 H 503.075 -0.288591 -1.44241 0
M  V30 5668 H 505.033 1.7677 -3.779 0
M  V30 5669 H 503.663 1.85591 -2.64113 0
M  V30 5670 H 502.715 -0.271632 -3.79429 0
M  V30 5671 H 504.027 -0.136992 -4.98612 0
M  V30 5672 H 503.181 2.11186 -5.68758 0
M  V30 5673 H 501.92 2.05315 -4.42377 0
M  V30 5674 H 500.925 0.0139217 -5.49798 0
M  V30 5675 H 502.15 0.091894 -6.79038 0
M  V30 5676 H 500.096 2.24653 -6.16334 0
M  V30 5677 H 500.013 1.11878 -7.47676 0
M  V30 5678 H 501.281 2.30754 -7.44562 0
M  V30 5679 N 505.51 1.54411 -0.315457 0
M  V30 5680 C 506.42 2.27737 0.56329 0
M  V30 5681 C 507.436 1.31787 1.13614 0
M  V30 5682 O 508.612 1.64791 1.15784 0
M  V30 5683 C 505.677 3.01478 1.71207 0
M  V30 5684 C 504.738 4.12997 1.17185 0
M  V30 5685 C 503.971 4.83212 2.26588 0
M  V30 5686 O 504.194 4.52884 3.46775 0
M  V30 5687 O 503.128 5.70299 1.92463 0
M  V30 5688 H 506.954 3.03683 -0.0319614 0
M  V30 5689 H 504.539 1.49178 -0.0814188 0
M  V30 5690 H 506.421 3.47683 2.38106 0
M  V30 5691 H 505.096 2.28414 2.29366 0
M  V30 5692 H 504.003 3.71159 0.468174 0
M  V30 5693 H 505.336 4.8808 0.635501 0
M  V30 5694 N 506.988 0.0434614 1.5754 0
M  V30 5695 C 507.936 -0.951465 2.1225 0
M  V30 5696 C 508.93 -1.3274 1.05245 0
M  V30 5697 O 510.136 -1.30795 1.23663 0
M  V30 5698 H 506.511 -0.324667 0.678303 0
M  V30 5699 H 508.482 -0.464855 2.94757 0
M  V30 5700 C 507.231 -2.21972 2.67626 0
M  V30 5701 H 506.554 -1.93923 3.4962 0
M  V30 5702 H 507.994 -2.89765 3.09536 0
M  V30 5703 C 506.453 -2.95919 1.61038 0
M  V30 5704 O 506.983 -3.8857 1.01862 0
M  V30 5705 N 505.189 -2.58511 1.32741 0
M  V30 5706 H 504.736 -1.83244 1.81051 0
M  V30 5707 H 504.694 -3.08296 0.616531 0
M  V30 5708 N 508.466 -1.55915 -0.229846 0
M  V30 5709 C 509.396 -1.94754 -1.28815 0
M  V30 5710 C 510.377 -0.814657 -1.49323 0
M  V30 5711 O 511.562 -1.07631 -1.61645 0
M  V30 5712 C 508.692 -2.25705 -2.63959 0
M  V30 5713 C 507.646 -3.41406 -2.5812 0
M  V30 5714 C 506.972 -3.57941 -3.97218 0
M  V30 5715 C 508.272 -4.76616 -2.13623 0
M  V30 5716 H 509.966 -2.83404 -0.965547 0
M  V30 5717 H 507.512 -1.36353 -0.463028 0
M  V30 5718 H 509.465 -2.51467 -3.38146 0
M  V30 5719 H 508.189 -1.339 -2.9789 0
M  V30 5720 H 506.848 -3.1568 -1.86391 0
M  V30 5721 H 506.496 -2.63526 -4.28443 0
M  V30 5722 H 506.196 -4.35757 -3.94195 0
M  V30 5723 H 507.72 -3.86042 -4.73079 0
M  V30 5724 H 509.134 -5.01637 -2.77549 0
M  V30 5725 H 507.531 -5.57655 -2.21677 0
M  V30 5726 H 508.601 -4.7253 -1.08829 0
M  V30 5727 N 509.944 0.496216 -1.49584 0
M  V30 5728 C 511.193 1.24668 -1.58558 0
M  V30 5729 C 511.506 1.9359 -0.279703 0
M  V30 5730 O 512.712 2.70365 -0.248048 0
M  V30 5731 C 511.168 2.26388 -2.79779 0
M  V30 5732 C 510.776 1.63384 -4.17145 0
M  V30 5733 C 512.52 3.02233 -2.98086 0
M  V30 5734 C 510.427 2.63243 -5.29582 0
M  V30 5735 H 509.357 0.468995 -0.590389 0
M  V30 5736 H 512.008 0.519985 -1.75978 0
M  V30 5737 H 510.39 3.02241 -2.55863 0
M  V30 5738 H 511.564 0.93491 -4.51216 0
M  V30 5739 H 509.879 0.999121 -4.04236 0
M  V30 5740 H 512.476 3.76919 -3.79257 0
M  V30 5741 H 512.819 3.60132 -2.08831 0
M  V30 5742 H 513.352 2.33495 -3.22063 0
M  V30 5743 H 510.091 2.10119 -6.20911 0
M  V30 5744 H 509.611 3.31363 -4.99959 0
M  V30 5745 H 511.29 3.25575 -5.59115 0
M  V30 5746 N 511.423 1.38739 0.74761 0
M  V30 5747 C 512.333 1.38696 1.89211 0
M  V30 5748 C 513.349 0.283303 1.71678 0
M  V30 5749 O 514.525 0.522713 1.94498 0
M  V30 5750 C 511.59 1.21662 3.24653 0
M  V30 5751 C 510.651 2.41886 3.54669 0
M  V30 5752 C 509.884 2.25655 4.83648 0
M  V30 5753 O 510.107 1.25339 5.56459 0
M  V30 5754 O 509.041 3.14372 5.13277 0
M  V30 5755 H 512.867 2.35143 1.92202 0
M  V30 5756 H 510.452 1.19721 0.893708 0
M  V30 5757 H 512.334 1.14246 4.05618 0
M  V30 5758 H 511.009 0.283024 3.2246 0
M  V30 5759 H 509.916 2.54877 2.73841 0
M  V30 5760 H 511.249 3.33895 3.61628 0
M  V30 5761 N 512.901 -0.976442 1.23707 0
M  V30 5762 C 513.831 -2.08749 1.04624 0
M  V30 5763 C 514.812 -1.70057 -0.0380956 0
M  V30 5764 O 515.997 -1.93782 0.127308 0
M  V30 5765 C 513.127 -3.41335 0.640902 0
M  V30 5766 C 512.081 -3.93947 1.67302 0
M  V30 5767 C 511.407 -5.22774 1.12301 0
M  V30 5768 C 512.707 -4.22769 3.06697 0
M  V30 5769 H 514.401 -2.24972 1.97555 0
M  V30 5770 H 511.947 -1.08108 0.951247 0
M  V30 5771 H 513.9 -4.18489 0.494434 0
M  V30 5772 H 512.624 -3.24988 -0.324099 0
M  V30 5773 H 511.283 -3.18941 1.80755 0
M  V30 5774 H 510.931 -5.0278 0.148877 0
M  V30 5775 H 510.631 -5.58942 1.81267 0
M  V30 5776 H 512.155 -6.02546 0.988479 0
M  V30 5777 H 513.569 -4.90659 2.96524 0
M  V30 5778 H 511.966 -4.70147 3.72937 0
M  V30 5779 H 513.036 -3.29885 3.55392 0
M  V30 5780 N 514.379 -1.04941 -1.1758 0
M  V30 5781 C 515.312 -0.592518 -2.20373 0
M  V30 5782 C 516.29 0.377561 -1.58156 0
M  V30 5783 O 517.474 0.28978 -1.86259 0
M  V30 5784 C 514.601 0.133215 -3.38438 0
M  V30 5785 C 513.647 -0.791484 -4.19092 0
M  V30 5786 S 514.48 -2.27925 -4.84572 0
M  V30 5787 C 515.636 -1.56462 -6.06028 0
M  V30 5788 H 515.869 -1.46342 -2.58788 0
M  V30 5789 H 513.402 -0.861148 -1.28155 0
M  V30 5790 H 515.36 0.545746 -4.06856 0
M  V30 5791 H 514.021 0.980124 -2.98416 0
M  V30 5792 H 513.214 -0.230039 -5.03475 0
M  V30 5793 H 512.816 -1.14326 -3.56098 0
M  V30 5794 H 515.108 -0.862539 -6.71987 0
M  V30 5795 H 516.051 -2.38583 -6.66696 0
M  V30 5796 H 516.459 -1.05313 -5.5459 0
M  V30 5797 N 515.857 1.33968 -0.830081 0
M  V30 5798 C 516.82 2.27694 -0.26235 0
M  V30 5799 C 517.82 1.50589 0.563876 0
M  V30 5800 O 519.01 1.70028 0.378941 0
M  V30 5801 C 516.142 3.35002 0.63138 0
M  V30 5802 H 517.335 2.79419 -1.08928 0
M  V30 5803 H 514.888 1.44221 -0.602486 0
M  V30 5804 H 515.623 2.88504 1.48109 0
M  V30 5805 H 515.408 3.92079 0.0403276 0
M  V30 5806 H 516.898 4.04897 1.02217 0
M  V30 5807 N 517.335 0.585699 1.46312 0
M  V30 5808 C 518.612 0.00542031 1.95599 0
M  V30 5809 C 518.992 -1.45619 1.52834 0
M  V30 5810 O 518.34 -2.14759 0.780446 0
M  V30 5811 C 518.55 0.180601 3.48532 0
M  V30 5812 C 519.898 0.049979 4.24571 0
M  V30 5813 O 520.922 0.109589 3.56031 0
M  V30 5814 O 519.781 -0.0832226 5.46437 0
M  V30 5815 H 516.875 -0.0481281 0.825598 0
M  V30 5816 H 519.421 0.654227 1.56582 0
M  V30 5817 H 518.193 1.19657 3.72556 0
M  V30 5818 H 517.816 -0.504498 3.94386 0
M  V30 5819 N 518.813 -1.54241 0.323641 0
M  V30 5820 C 520.062 -1.9975 -0.279806 0
M  V30 5821 C 520.375 -1.2156 -1.5324 0
M  V30 5822 O 521.581 -1.57447 -2.21185 0
M  V30 5823 C 520.037 -3.55686 -0.549115 0
M  V30 5824 C 519.645 -4.4271 0.686432 0
M  V30 5825 C 521.389 -4.09663 -1.11251 0
M  V30 5826 C 519.296 -5.90119 0.389022 0
M  V30 5827 H 518.226 -0.746177 -0.10833 0
M  V30 5828 H 520.877 -1.78248 0.435877 0
M  V30 5829 H 519.259 -3.73176 -1.32499 0
M  V30 5830 H 520.433 -4.36996 1.46188 0
M  V30 5831 H 518.748 -3.99623 1.17005 0
M  V30 5832 H 521.345 -5.17386 -1.34965 0
M  V30 5833 H 521.688 -3.61651 -2.06191 0
M  V30 5834 H 522.221 -3.95806 -0.39782 0
M  V30 5835 H 518.96 -6.42326 1.30759 0
M  V30 5836 H 518.48 -5.98785 -0.348722 0
M  V30 5837 H 520.159 -6.47 -0.0011164 0
M  V30 5838 N 520.291 -0.0518155 -1.57515 0
M  V30 5839 C 521.531 0.625712 -1.94587 0
M  V30 5840 C 521.895 1.6797 -0.930053 0
M  V30 5841 O 523.096 2.41135 -1.18774 0
M  V30 5842 C 521.367 1.20574 -3.36447 0
M  V30 5843 S 522.926 1.90118 -3.95475 0
M  V30 5844 H 519.744 0.205434 -0.680675 0
M  V30 5845 H 522.346 -0.120906 -1.95126 0
M  V30 5846 H 521.05 0.426521 -4.08178 0
M  V30 5847 H 520.581 1.98916 -3.39405 0
M  V30 5848 H 522.596 3.18184 -3.80753 0
M  V30 5849 N 521.769 1.56035 0.221574 0
M  V30 5850 C 522.719 1.8881 1.27807 0
M  V30 5851 C 523.703 0.751177 1.42289 0
M  V30 5852 O 524.895 1.01359 1.45104 0
M  V30 5853 C 522.024 2.20828 2.6285 0
M  V30 5854 C 521.11 3.40912 2.52269 0
M  V30 5855 N 521.501 4.59531 2.1134 0
M  V30 5856 C 519.799 3.44526 2.83228 0
M  V30 5857 C 520.5 5.41689 2.1201 0
M  V30 5858 N 519.476 4.814 2.52497 0
M  V30 5859 H 523.278 2.78036 0.952529 0
M  V30 5860 H 520.792 1.566 0.430134 0
M  V30 5861 H 522.789 2.42483 3.39127 0
M  V30 5862 H 521.449 1.32914 2.9625 0
M  V30 5863 H 522.46 4.8469 1.82472 0
M  V30 5864 H 519.137 2.66956 3.21 0
M  V30 5865 H 520.527 6.46643 1.82491 0
M  V30 5866 N 523.247 -0.488276 1.49845 0
M  V30 5867 C 524.179 -1.60539 1.63584 0
M  V30 5868 C 525.192 -1.5434 0.517972 0
M  V30 5869 O 526.381 -1.60041 0.790516 0
M  V30 5870 C 523.481 -2.99374 1.58835 0
M  V30 5871 C 522.654 -3.30624 2.86368 0
M  V30 5872 C 521.713 -4.4893 2.74496 0
M  V30 5873 O 520.739 -4.50085 3.48443 0
M  V30 5874 N 521.941 -5.49591 1.86894 0
M  V30 5875 H 524.706 -1.49176 2.59936 0
M  V30 5876 H 522.267 -0.67639 1.47094 0
M  V30 5877 H 524.259 -3.76459 1.48529 0
M  V30 5878 H 522.829 -3.04595 0.702892 0
M  V30 5879 H 522.049 -2.42314 3.1093 0
M  V30 5880 H 523.337 -3.48305 3.70892 0
M  V30 5881 H 522.735 -5.51467 1.26097 0
M  V30 5882 H 521.292 -6.25728 1.82503 0
M  V30 5883 N 524.725 -1.39134 -0.740242 0
M  V30 5884 C 525.971 -1.36273 -1.50192 0
M  V30 5885 C 526.304 0.0430136 -1.94152 0
M  V30 5886 O 525.579 1.00691 -1.66408 0
M  V30 5887 C 525.862 -2.33041 -2.74525 0
M  V30 5888 C 525.715 -3.82535 -2.36617 0
M  V30 5889 C 527.034 -2.27723 -3.76604 0
M  V30 5890 H 524.153 -0.496323 -0.544823 0
M  V30 5891 H 526.795 -1.70085 -0.846815 0
M  V30 5892 H 524.945 -2.04337 -3.30422 0
M  V30 5893 H 526.617 -4.21967 -1.86391 0
M  V30 5894 H 524.86 -3.99565 -1.68909 0
M  V30 5895 H 525.531 -4.45723 -3.2563 0
M  V30 5896 H 528.007 -2.53091 -3.30279 0
M  V30 5897 H 526.883 -2.97519 -4.61274 0
M  V30 5898 H 527.144 -1.28049 -4.2315 0
M  V30 5899 N 526.204 0.969867 -1.24223 0
M  V30 5900 C 527.451 1.71256 -1.08063 0
M  V30 5901 C 527.779 1.90734 0.380872 0
M  V30 5902 O 527.034 1.46469 1.29789 0
M  V30 5903 C 527.333 3.10883 -1.76314 0
M  V30 5904 C 526.999 3.11252 -3.26241 0
M  V30 5905 C 525.661 3.1106 -3.67144 0
M  V30 5906 C 528.013 3.05751 -4.22097 0
M  V30 5907 C 525.341 3.03097 -5.02344 0
M  V30 5908 C 527.693 2.9933 -5.57301 0
M  V30 5909 C 526.357 2.97466 -5.97554 0
M  V30 5910 H 525.627 0.62667 -0.395431 0
M  V30 5911 H 528.274 1.13422 -1.54297 0
M  V30 5912 H 526.579 3.72168 -1.22468 0
M  V30 5913 H 528.276 3.67138 -1.61277 0
M  V30 5914 H 524.866 3.12165 -2.93685 0
M  V30 5915 H 529.05 3.05031 -3.91497 0
M  V30 5916 H 524.306 3.00013 -5.32731 0
M  V30 5917 H 528.48 2.94033 -6.31283 0
M  V30 5918 H 526.107 2.91051 -7.02277 0
M  V30 5919 N 527.682 1.05563 1.17022 0
M  V30 5920 C 528.63 0.653887 2.2322 0
M  V30 5921 C 529.624 -0.326642 1.66221 0
M  V30 5922 O 530.83 -0.192301 1.7897 0
M  V30 5923 H 527.205 0.193297 0.726733 0
M  V30 5924 H 529.176 1.5596 2.54399 0
M  V30 5925 C 527.925 0.0485434 3.47666 0
M  V30 5926 H 527.248 0.79413 3.91834 0
M  V30 5927 H 528.688 -0.195133 4.23551 0
M  V30 5928 C 527.147 -1.20583 3.14581 0
M  V30 5929 O 527.677 -2.29475 3.29703 0
M  V30 5930 N 525.883 -1.10493 2.68774 0
M  V30 5931 H 525.43 -0.218795 2.56669 0
M  V30 5932 H 525.388 -1.94507 2.47011 0
M  V30 5933 N 529.16 -1.33526 0.837174 0
M  V30 5934 C 530.07 -2.33023 0.271568 0
M  V30 5935 C 531.086 -1.63272 -0.601514 0
M  V30 5936 O 532.262 -1.94939 -0.506038 0
M  V30 5937 C 529.327 -3.42382 -0.545448 0
M  V30 5938 C 528.388 -4.27857 0.351709 0
M  V30 5939 C 527.621 -5.31994 -0.426409 0
M  V30 5940 O 527.844 -5.45763 -1.65828 0
M  V30 5941 O 526.778 -6.01572 0.1987 0
M  V30 5942 H 530.604 -2.83256 1.09545 0
M  V30 5943 H 528.189 -1.36837 0.599655 0
M  V30 5944 H 530.071 -4.09122 -1.00979 0
M  V30 5945 H 528.746 -2.94369 -1.34641 0
M  V30 5946 H 527.653 -3.6399 0.863853 0
M  V30 5947 H 528.986 -4.79349 1.1174 0
M  V30 5948 N 530.638 -0.59345 -1.46 0
M  V30 5949 C 531.915 -0.0157933 -1.95594 0
M  V30 5950 C 532.295 1.44807 -1.53604 0
M  V30 5951 O 531.643 2.14342 -0.791824 0
M  V30 5952 C 531.853 -0.199081 -3.48432 0
M  V30 5953 C 533.201 -0.0724943 -4.24538 0
M  V30 5954 O 534.225 -0.128469 -3.55968 0
M  V30 5955 O 533.084 0.0542426 -5.46473 0
M  V30 5956 H 530.178 0.043749 -0.825842 0
M  V30 5957 H 532.724 -0.662522 -1.56233 0
M  V30 5958 H 531.496 -1.21631 -3.71916 0
M  V30 5959 H 531.119 0.483576 -3.94648 0
M  V30 5960 N 532.116 1.54067 -0.331816 0
M  V30 5961 C 533.344 2.05131 0.269996 0
M  V30 5962 C 533.759 1.20749 1.45138 0
M  V30 5963 O 533.116 0.240069 1.80914 0
M  V30 5964 C 533.167 3.54728 0.696456 0
M  V30 5965 O 532.888 4.35906 -0.43794 0
M  V30 5966 C 534.389 4.21916 1.36021 0
M  V30 5967 H 531.609 0.668807 0.0542042 0
M  V30 5968 H 534.153 1.98777 -0.4804 0
M  V30 5969 H 532.308 3.61342 1.39681 0
M  V30 5970 H 532.722 5.24404 -0.100334 0
M  V30 5971 H 534.196 5.28015 1.60947 0
M  V30 5972 H 534.673 3.73538 2.31011 0
M  V30 5973 H 535.279 4.19463 0.702212 0
M  V30 5974 N 533.594 0.0601682 1.57485 0
M  V30 5975 C 535.01 -0.296422 1.56823 0
M  V30 5976 C 535.21 -1.70831 1.0686 0
M  V30 5977 O 534.266 -2.4174 0.729245 0
M  V30 5978 C 535.579 -0.116681 3.00474 0
M  V30 5979 C 537.127 -0.187103 3.1244 0
M  V30 5980 C 537.602 -0.035783 4.57986 0
M  V30 5981 N 539.093 -0.0917676 4.63109 0
M  V30 5982 C 539.828 0.00107251 5.734 0
M  V30 5983 N 539.324 0.146773 6.92645 0
M  V30 5984 N 541.117 -0.0551577 5.62073 0
M  V30 5985 H 533.268 0.983055 1.88281 0
M  V30 5986 H 535.531 0.382386 0.867459 0
M  V30 5987 H 535.237 0.85712 3.41096 0
M  V30 5988 H 535.111 -0.873929 3.66936 0
M  V30 5989 H 537.498 -1.15138 2.71712 0
M  V30 5990 H 537.579 0.601052 2.48638 0
M  V30 5991 H 537.223 0.925212 4.99402 0
M  V30 5992 H 537.153 -0.843196 5.19806 0
M  V30 5993 H 539.644 -0.203261 3.77353 0
M  V30 5994 H 539.957 0.210076 7.72514 0
M  V30 5995 H 538.302 0.181979 6.94762 0
M  V30 5996 H 541.493 -0.167605 4.678 0
M  V30 5997 H 541.666 0.020652 6.47997 0
M  V30 5998 N 535.072 -1.5615 -0.213296 0
M  V30 5999 C 536.297 -1.83986 -0.957282 0
M  V30 6000 C 536.722 -0.641526 -1.76822 0
M  V30 6001 O 536.08 0.409722 -1.7661 0
M  V30 6002 C 536.128 -3.09889 -1.84393 0
M  V30 6003 O 535.232 -2.89163 -2.94038 0
M  V30 6004 H 534.573 -0.606357 -0.270605 0
M  V30 6005 H 537.103 -2.03369 -0.224111 0
M  V30 6006 H 537.113 -3.40209 -2.25215 0
M  V30 6007 H 535.788 -3.96735 -1.24795 0
M  V30 6008 H 534.365 -2.70097 -2.57103 0
M  V30 6009 N 536.55 0.480323 -1.50102 0
M  V30 6010 C 537.48 1.58769 -1.71215 0
M  V30 6011 C 538.461 1.60583 -0.560997 0
M  V30 6012 O 539.646 1.76996 -0.799127 0
M  V30 6013 C 536.776 2.97148 -1.79778 0
M  V30 6014 C 535.73 3.10201 -2.94888 0
M  V30 6015 C 535.056 4.50137 -2.88584 0
M  V30 6016 C 536.356 2.88283 -4.35534 0
M  V30 6017 H 538.05 1.41354 -2.6393 0
M  V30 6018 H 535.596 0.678591 -1.27008 0
M  V30 6019 H 537.549 3.74536 -1.93133 0
M  V30 6020 H 536.273 3.15699 -0.836772 0
M  V30 6021 H 534.932 2.35244 -2.81169 0
M  V30 6022 H 534.58 4.65593 -1.90349 0
M  V30 6023 H 534.28 4.59808 -3.65856 0
M  V30 6024 H 535.804 5.29558 -3.03976 0
M  V30 6025 H 537.218 3.55427 -4.49827 0
M  V30 6026 H 535.615 3.09408 -5.14186 0
M  V30 6027 H 536.685 1.84219 -4.48544 0
M  V30 6028 N 538.028 1.39524 0.732853 0
M  V30 6029 C 538.938 1.40695 1.87729 0
M  V30 6030 C 539.954 0.301496 1.71368 0
M  V30 6031 O 541.13 0.543313 1.93933 0
M  V30 6032 C 538.195 1.25098 3.23344 0
M  V30 6033 C 537.256 2.45634 3.52083 0
M  V30 6034 C 536.489 2.30772 4.81228 0
M  V30 6035 O 536.712 1.31233 5.55098 0
M  V30 6036 O 535.646 3.19799 5.09914 0
M  V30 6037 H 539.472 2.37168 1.89697 0
M  V30 6038 H 537.057 1.20663 0.880959 0
M  V30 6039 H 538.939 1.18541 4.04383 0
M  V30 6040 H 537.614 0.317209 3.22142 0
M  V30 6041 H 536.521 2.57767 2.71122 0
M  V30 6042 H 537.854 3.37712 3.58066 0
M  V30 6043 N 539.506 -0.963266 1.24736 0
M  V30 6044 C 540.755 -1.70115 1.08369 0
M  V30 6045 C 541.068 -1.91939 -0.376688 0
M  V30 6046 O 542.274 -2.6334 -0.660624 0
M  V30 6047 C 540.73 -3.06218 1.89099 0
M  V30 6048 C 540.338 -2.92221 3.39574 0
M  V30 6049 C 542.082 -3.83848 1.81275 0
M  V30 6050 C 539.989 -4.23662 4.12631 0
M  V30 6051 H 538.919 -0.637944 0.401924 0
M  V30 6052 H 541.57 -1.07304 1.48856 0
M  V30 6053 H 539.952 -3.69884 1.41429 0
M  V30 6054 H 541.126 -2.37541 3.94856 0
M  V30 6055 H 539.441 -2.28054 3.48397 0
M  V30 6056 H 542.038 -4.81188 2.33158 0
M  V30 6057 H 542.381 -4.08949 0.778895 0
M  V30 6058 H 542.914 -3.26918 2.26649 0
M  V30 6059 H 539.653 -4.03753 5.16395 0
M  V30 6060 H 539.173 -4.78141 3.62135 0
M  V30 6061 H 540.852 -4.92256 4.19873 0
M  V30 6062 N 540.985 -1.06182 -1.16461 0
M  V30 6063 C 542.21 -0.798599 -1.91408 0
M  V30 6064 C 542.635 0.640987 -1.76842 0
M  V30 6065 O 541.993 1.44652 -1.09296 0
M  V30 6066 C 542.041 -1.19665 -3.40165 0
M  V30 6067 O 541.145 -0.334768 -4.11039 0
M  V30 6068 H 540.486 -0.291961 -0.596368 0
M  V30 6069 H 543.016 -1.41732 -1.47557 0
M  V30 6070 H 543.026 -1.16772 -3.90933 0
M  V30 6071 H 541.701 -2.24526 -3.50087 0
M  V30 6072 H 540.278 -0.425168 -3.70468 0
M  V30 6073 N 542.463 1.3308 -0.844243 0
M  V30 6074 C 543.395 2.27954 -0.238671 0
M  V30 6075 C 544.408 1.51978 0.583665 0
M  V30 6076 O 545.597 1.73731 0.409857 0
M  V30 6077 C 542.697 3.31963 0.682185 0
M  V30 6078 C 541.87 4.37281 -0.101998 0
M  V30 6079 C 540.929 5.20928 0.743022 0
M  V30 6080 O 539.955 5.68914 0.180285 0
M  V30 6081 N 541.157 5.42738 2.0595 0
M  V30 6082 H 543.922 2.8056 -1.05386 0
M  V30 6083 H 541.483 1.4583 -0.70322 0
M  V30 6084 H 543.475 3.84828 1.25259 0
M  V30 6085 H 542.045 2.79594 1.39808 0
M  V30 6086 H 541.265 3.84843 -0.853802 0
M  V30 6087 H 542.553 5.04746 -0.641015 0
M  V30 6088 H 541.951 5.05463 2.54016 0
M  V30 6089 H 540.508 5.98639 2.57827 0
M  V30 6090 N 543.941 0.601185 1.45683 0
M  V30 6091 C 545.166 0.0982245 2.07167 0
M  V30 6092 C 545.591 -1.20546 1.44396 0
M  V30 6093 O 544.949 -1.73247 0.534347 0
M  V30 6094 C 544.997 -0.0346976 3.60583 0
M  V30 6095 O 544.101 -1.08657 3.97828 0
M  V30 6096 H 543.442 0.0711618 0.660176 0
M  V30 6097 H 545.972 0.829376 1.87036 0
M  V30 6098 H 545.982 -0.234969 4.07323 0
M  V30 6099 H 544.657 0.917265 4.05659 0
M  V30 6100 H 543.234 -0.863275 3.6277 0
M  V30 6101 N 545.419 -1.53889 0.339982 0
M  V30 6102 C 546.649 -2.04973 -0.258738 0
M  V30 6103 C 547.057 -1.21485 -1.45045 0
M  V30 6104 O 546.4 -0.2422 -1.82096 0
M  V30 6105 C 546.462 -3.51783 -0.740853 0
M  V30 6106 C 546.126 -4.55802 0.330734 0
M  V30 6107 C 547.123 -5.06512 1.17226 0
M  V30 6108 C 544.808 -4.99966 0.483637 0
M  V30 6109 C 546.802 -5.99963 2.15227 0
M  V30 6110 C 544.489 -5.93229 1.46704 0
M  V30 6111 C 545.487 -6.43115 2.29981 0
M  V30 6112 O 545.175 -7.34545 3.26649 0
M  V30 6113 H 544.907 -0.673807 -0.0544037 0
M  V30 6114 H 547.461 -1.99492 0.489107 0
M  V30 6115 H 545.691 -3.54717 -1.53988 0
M  V30 6116 H 547.38 -3.85857 -1.25973 0
M  V30 6117 H 548.146 -4.73158 1.0652 0
M  V30 6118 H 544.025 -4.6074 -0.15471 0
M  V30 6119 H 547.569 -6.38825 2.80265 0
M  V30 6120 H 543.466 -6.25998 1.57468 0
M  V30 6121 H 544.234 -7.52468 3.22078 0
M  V30 6122 N 546.897 -0.0685191 -1.57451 0
M  V30 6123 C 548.125 0.610462 -1.97689 0
M  V30 6124 C 548.54 1.63346 -0.946758 0
M  V30 6125 O 547.897 1.82377 0.0669868 0
M  V30 6126 C 547.948 1.28196 -3.38006 0
M  V30 6127 O 547.669 0.299906 -4.37072 0
M  V30 6128 C 549.17 2.04907 -3.931 0
M  V30 6129 H 546.39 0.165689 -0.650222 0
M  V30 6130 H 548.934 -0.139953 -2.04021 0
M  V30 6131 H 547.089 1.98348 -3.32771 0
M  V30 6132 H 547.503 0.78126 -5.18649 0
M  V30 6133 H 548.977 2.47287 -4.93511 0
M  V30 6134 H 549.454 2.9043 -3.29465 0
M  V30 6135 H 550.06 1.39629 -4.01726 0
M  V30 6136 N 548.375 1.56261 0.205012 0
M  V30 6137 C 549.603 1.84141 0.943386 0
M  V30 6138 C 550.018 0.649772 1.77266 0
M  V30 6139 O 549.375 -0.381612 1.78466 0
M  V30 6140 C 549.426 3.10719 1.84759 0
M  V30 6141 O 549.147 4.25286 1.05181 0
M  V30 6142 C 550.648 3.51706 2.69848 0
M  V30 6143 H 547.868 0.611734 0.275721 0
M  V30 6144 H 550.412 2.03364 0.215253 0
M  V30 6145 H 548.567 2.93422 2.52947 0
M  V30 6146 H 548.981 4.97301 1.66709 0
M  V30 6147 H 550.455 4.43266 3.28967 0
M  V30 6148 H 550.932 2.7423 3.43067 0
M  V30 6149 H 551.538 3.71499 2.07047 0
M  V30 6150 N 549.853 -0.472356 1.50355 0
M  V30 6151 C 551.081 -1.24784 1.65035 0
M  V30 6152 C 551.496 -1.85837 0.333176 0
M  V30 6153 O 550.853 -1.69168 -0.68472 0
M  V30 6154 C 550.904 -2.35747 2.74054 0
M  V30 6155 O 550.625 -1.77197 4.00665 0
M  V30 6156 C 552.126 -3.26645 2.99696 0
M  V30 6157 H 549.346 -0.377432 0.554785 0
M  V30 6158 H 551.89 -0.563962 1.9657 0
M  V30 6159 H 550.045 -2.99912 2.45217 0
M  V30 6160 H 550.459 -2.5026 4.60945 0
M  V30 6161 H 551.933 -4.00718 3.79644 0
M  V30 6162 H 552.41 -3.8535 2.10718 0
M  V30 6163 H 553.016 -2.68218 3.3006 0
M  V30 6164 N 551.331 -1.39911 -0.725443 0
M  V30 6165 C 552.263 -1.35301 -1.85003 0
M  V30 6166 C 553.276 -0.260102 -1.60709 0
M  V30 6167 O 554.465 -0.519749 -1.70766 0
M  V30 6168 C 551.565 -1.08039 -3.21218 0
M  V30 6169 C 550.738 -2.28793 -3.7279 0
M  V30 6170 C 549.797 -1.97841 -4.87591 0
M  V30 6171 O 548.823 -2.70616 -5.00755 0
M  V30 6172 N 550.025 -0.950367 -5.72668 0
M  V30 6173 H 552.79 -2.32218 -1.89459 0
M  V30 6174 H 550.351 -1.34137 -0.90658 0
M  V30 6175 H 552.343 -0.853354 -3.95601 0
M  V30 6176 H 550.913 -0.198229 -3.11971 0
M  V30 6177 H 550.133 -2.67388 -2.8965 0
M  V30 6178 H 551.421 -3.09317 -4.03981 0
M  V30 6179 H 550.819 -0.347436 -5.64632 0
M  V30 6180 H 549.376 -0.783232 -6.47077 0
M  V30 6181 N 552.809 0.956637 -1.25245 0
M  V30 6182 C 554.225 1.22733 -1.02023 0
M  V30 6183 C 554.425 1.99761 0.264186 0
M  V30 6184 O 553.481 2.32814 0.977436 0
M  V30 6185 C 554.794 2.00367 -2.24217 0
M  V30 6186 C 556.342 2.13418 -2.28958 0
M  V30 6187 C 556.817 2.9445 -3.50803 0
M  V30 6188 N 558.308 3.02029 -3.51187 0
M  V30 6189 C 559.043 3.65116 -4.42129 0
M  V30 6190 N 558.539 4.2983 -5.43339 0
M  V30 6191 N 560.332 3.62237 -4.29815 0
M  V30 6192 H 552.483 0.441282 -2.07765 0
M  V30 6193 H 554.746 0.257686 -0.912306 0
M  V30 6194 H 554.452 1.51165 -3.17556 0
M  V30 6195 H 554.326 3.01077 -2.27228 0
M  V30 6196 H 556.713 2.61819 -1.36143 0
M  V30 6197 H 556.794 1.1202 -2.29968 0
M  V30 6198 H 556.438 2.46741 -4.43939 0
M  V30 6199 H 556.368 3.9607 -3.47039 0
M  V30 6200 H 558.859 2.56007 -2.77973 0
M  V30 6201 H 559.172 4.75819 -6.08947 0
M  V30 6202 H 557.517 4.28465 -5.47214 0
M  V30 6203 H 560.708 3.10863 -3.49974 0
M  V30 6204 H 560.881 4.11117 -5.00886 0
M  V30 6205 N 554.287 1.06798 1.15896 0
M  V30 6206 C 555.197 0.694564 2.24083 0
M  V30 6207 C 556.213 -0.291687 1.71538 0
M  V30 6208 O 557.389 -0.139723 2.00915 0
M  V30 6209 C 554.454 0.0921014 3.46578 0
M  V30 6210 C 553.515 1.13087 4.14137 0
M  V30 6211 C 552.748 0.557064 5.30785 0
M  V30 6212 O 552.971 -0.628623 5.66925 0
M  V30 6213 O 551.905 1.29924 5.8771 0
M  V30 6214 H 555.731 1.59663 2.58344 0
M  V30 6215 H 553.316 0.840575 1.2351 0
M  V30 6216 H 555.198 -0.241884 4.20705 0
M  V30 6217 H 553.873 -0.78337 3.14078 0
M  V30 6218 H 552.78 1.51712 3.41957 0
M  V30 6219 H 554.113 1.97805 4.50704 0
M  V30 6220 N 555.766 -1.3263 0.851289 0
M  V30 6221 C 556.991 -2.02097 0.466006 0
M  V30 6222 C 557.416 -1.63574 -0.928709 0
M  V30 6223 O 556.774 -0.834665 -1.60944 0
M  V30 6224 C 556.822 -3.55425 0.608737 0
M  V30 6225 O 555.926 -4.10827 -0.359878 0
M  V30 6226 H 555.267 -0.636911 0.187724 0
M  V30 6227 H 557.797 -1.69253 1.14955 0
M  V30 6228 H 557.807 -4.04986 0.495006 0
M  V30 6229 H 556.482 -3.82806 1.62581 0
M  V30 6230 H 555.059 -3.72349 -0.202666 0
M  V30 6231 N 557.244 -0.608902 -1.45362 0
M  V30 6232 C 558.469 -0.10921 -2.07112 0
M  V30 6233 C 558.894 1.19779 -1.45033 0
M  V30 6234 O 558.252 1.72961 -0.543527 0
M  V30 6235 C 558.3 0.0155745 -3.60597 0
M  V30 6236 O 557.404 1.06546 -3.98399 0
M  V30 6237 H 556.745 -0.0746619 -0.659789 0
M  V30 6238 H 559.275 -0.839283 -1.86594 0
M  V30 6239 H 559.285 0.213364 -4.07442 0
M  V30 6240 H 557.96 -0.938765 -4.05167 0
M  V30 6241 H 556.537 0.844024 -3.63223 0
M  V30 6242 N 558.722 1.53707 -0.348139 0
M  V30 6243 C 559.999 1.93247 0.302475 0
M  V30 6244 C 560.379 1.28012 1.67857 0
M  V30 6245 O 559.727 0.43274 2.24365 0
M  V30 6246 C 559.937 3.47031 0.370159 0
M  V30 6247 C 561.285 4.20066 0.61882 0
M  V30 6248 O 562.309 3.53319 0.452087 0
M  V30 6249 O 561.168 5.38318 0.94215 0
M  V30 6250 H 558.262 0.807736 0.177458 0
M  V30 6251 H 560.808 1.64927 -0.399651 0
M  V30 6252 H 559.58 3.86745 -0.59534 0
M  V30 6253 H 559.203 3.81532 1.11888 0
M  V30 6254 N 560.2 0.0768682 1.57412 0
M  V30 6255 C 561.43 -0.5991 1.97723 0
M  V30 6256 C 561.838 -1.63378 0.954166 0
M  V30 6257 O 561.181 -1.83578 -0.0668706 0
M  V30 6258 C 561.243 -1.32078 3.34358 0
M  V30 6259 C 560.907 -0.438985 4.54887 0
M  V30 6260 C 561.904 0.305492 5.19002 0
M  V30 6261 C 559.589 -0.362378 5.00991 0
M  V30 6262 C 561.583 1.11475 6.27576 0
M  V30 6263 C 559.27 0.450543 6.09437 0
M  V30 6264 C 560.268 1.18777 6.72593 0
M  V30 6265 O 559.956 1.98727 7.7895 0
M  V30 6266 H 559.688 -0.166725 0.655117 0
M  V30 6267 H 562.242 0.147337 2.04871 0
M  V30 6268 H 560.472 -2.1134 3.2384 0
M  V30 6269 H 562.161 -1.88949 3.5924 0
M  V30 6270 H 562.927 0.25593 4.84324 0
M  V30 6271 H 558.806 -0.925832 4.51608 0
M  V30 6272 H 562.35 1.69068 6.76803 0
M  V30 6273 H 558.247 0.501651 6.43548 0
M  V30 6274 H 559.015 1.91214 7.95851 0
M  V30 6275 N 561.678 -1.56367 -0.196722 0
M  V30 6276 C 562.903 -1.84991 -0.937714 0
M  V30 6277 C 563.328 -0.660244 -1.76132 0
M  V30 6278 O 562.686 0.390967 -1.77034 0
M  V30 6279 C 562.734 -3.11828 -1.81096 0
M  V30 6280 O 561.838 -2.92266 -2.90955 0
M  V30 6281 H 561.179 -0.609193 -0.264159 0
M  V30 6282 H 563.709 -2.03595 -0.202529 0
M  V30 6283 H 563.719 -3.42579 -2.21594 0
M  V30 6284 H 562.394 -3.98037 -1.2058 0
M  V30 6285 H 560.971 -2.72809 -2.54224 0
M  V30 6286 N 563.156 0.464375 -1.50603 0
M  V30 6287 C 564.402 1.21776 -1.62168 0
M  V30 6288 C 564.735 1.91476 -0.324154 0
M  V30 6289 O 564.01 1.8242 0.674782 0
M  V30 6290 C 564.293 2.25614 -2.80661 0
M  V30 6291 C 564.146 1.60175 -4.20314 0
M  V30 6292 C 565.465 3.26862 -2.94702 0
M  V30 6293 H 562.584 0.44137 -0.590222 0
M  V30 6294 H 565.226 0.510623 -1.8301 0
M  V30 6295 H 563.376 2.85923 -2.63021 0
M  V30 6296 H 565.048 1.03411 -4.4956 0
M  V30 6297 H 563.291 0.904697 -4.24261 0
M  V30 6298 H 563.962 2.35665 -4.99165 0
M  V30 6299 H 566.438 2.76582 -3.10872 0
M  V30 6300 H 565.314 3.96839 -3.79223 0
M  V30 6301 H 565.575 3.91382 -2.05603 0
M  V30 6302 N 564.634 1.40294 0.718013 0
M  V30 6303 C 566.045 1.34289 1.29705 0
M  V30 6304 C 566.396 0.0152228 1.96194 0
M  V30 6305 O 565.521 -0.88682 1.97394 0
M  V30 6306 C 566.116 2.43219 2.3586 0
M  V30 6307 C 564.675 2.40682 2.89394 0
M  V30 6308 C 563.822 2.24223 1.63154 0
M  V30 6309 H 566.773 1.50135 0.514312 0
M  V30 6310 H 566.794 2.10986 3.16647 0
M  V30 6311 H 566.306 3.39836 1.87439 0
M  V30 6312 H 564.407 1.47756 3.42051 0
M  V30 6313 H 564.52 3.36177 3.41353 0
M  V30 6314 H 562.884 1.71696 1.88129 0
M  V30 6315 H 563.667 3.22834 1.16761 0
M  V30 6316 N 566.112 -0.949982 1.2575 0
M  V30 6317 C 567.352 -1.70994 1.11984 0
M  V30 6318 C 567.716 -1.89095 -0.332746 0
M  V30 6319 O 568.917 -2.62192 -0.592331 0
M  V30 6320 C 567.188 -3.05286 1.85837 0
M  V30 6321 S 568.747 -3.96477 1.88019 0
M  V30 6322 H 565.565 -0.587689 0.400178 0
M  V30 6323 H 568.167 -1.13271 1.59342 0
M  V30 6324 H 566.871 -2.89785 2.90608 0
M  V30 6325 H 566.402 -3.68069 1.38885 0
M  V30 6326 H 568.417 -4.86814 0.96057 0
M  V30 6327 N 567.59 -1.07411 -1.15328 0
M  V30 6328 C 568.537 -0.694995 -2.20087 0
M  V30 6329 C 569.507 0.313904 -1.63107 0
M  V30 6330 O 570.692 0.200216 -1.89747 0
M  V30 6331 C 567.832 -0.0996218 -3.44956 0
M  V30 6332 C 566.945 -1.16007 -4.16133 0
M  V30 6333 C 566.08 -0.529636 -5.28553 0
M  V30 6334 C 565.119 -1.57283 -5.91548 0
M  V30 6335 N 564.256 -0.964932 -6.95438 0
M  V30 6336 H 569.096 -1.5927 -2.51867 0
M  V30 6337 H 566.633 -0.796115 -1.23695 0
M  V30 6338 H 568.591 0.263197 -4.16369 0
M  V30 6339 H 567.221 0.761435 -3.13691 0
M  V30 6340 H 566.273 -1.64045 -3.4321 0
M  V30 6341 H 567.585 -1.95101 -4.59061 0
M  V30 6342 H 566.739 -0.114487 -6.06592 0
M  V30 6343 H 565.478 0.29307 -4.86819 0
M  V30 6344 H 564.483 -1.99775 -5.12221 0
M  V30 6345 H 565.708 -2.39783 -6.35359 0
M  V30 6346 H 563.654 -0.16314 -6.55797 0
M  V30 6347 H 563.571 -1.69311 -7.36797 0
M  V30 6348 H 564.839 -0.575305 -7.77374 0
M  V30 6349 N 569.068 1.32177 -0.85831 0
M  V30 6350 C 570.484 1.49873 -0.548656 0
M  V30 6351 C 570.684 1.79278 0.919874 0
M  V30 6352 O 569.74 1.86451 1.70271 0
M  V30 6353 C 571.053 2.64043 -1.4388 0
M  V30 6354 C 572.601 2.77928 -1.43961 0
M  V30 6355 C 573.076 3.95182 -2.31506 0
M  V30 6356 N 574.567 4.0245 -2.29321 0
M  V30 6357 C 575.302 4.9242 -2.93786 0
M  V30 6358 N 574.798 5.87373 -3.67376 0
M  V30 6359 N 576.591 4.85572 -2.83155 0
M  V30 6360 H 568.742 1.11357 -1.80868 0
M  V30 6361 H 571.005 0.549175 -0.772729 0
M  V30 6362 H 570.711 2.49055 -2.48324 0
M  V30 6363 H 570.585 3.59912 -1.12885 0
M  V30 6364 H 572.972 2.92338 -0.402813 0
M  V30 6365 H 573.053 1.82762 -1.78974 0
M  V30 6366 H 572.697 3.81531 -3.35256 0
M  V30 6367 H 572.627 4.89633 -1.93823 0
M  V30 6368 H 575.118 3.34507 -1.75822 0
M  V30 6369 H 575.431 6.52728 -4.13722 0
M  V30 6370 H 573.776 5.87388 -3.71484 0
M  V30 6371 H 576.967 4.10363 -2.25211 0
M  V30 6372 H 577.14 5.55486 -3.33676 0
M  V30 6373 N 570.547 0.616602 1.45037 0
M  V30 6374 C 571.494 -0.0969439 2.30596 0
M  V30 6375 C 572.464 -0.851151 1.42635 0
M  V30 6376 O 573.649 -0.835092 1.71554 0
M  V30 6377 C 570.789 -1.08234 3.27688 0
M  V30 6378 C 569.902 -0.328072 4.30752 0
M  V30 6379 C 569.037 -1.30399 5.14946 0
M  V30 6380 C 568.076 -0.538049 6.09731 0
M  V30 6381 N 567.213 -1.46371 6.86673 0
M  V30 6382 H 572.053 0.63864 2.91076 0
M  V30 6383 H 569.59 0.326733 1.43425 0
M  V30 6384 H 571.548 -1.66688 3.82454 0
M  V30 6385 H 570.178 -1.78523 2.68941 0
M  V30 6386 H 569.23 0.372136 3.78575 0
M  V30 6387 H 570.542 0.269142 4.98073 0
M  V30 6388 H 569.696 -1.96032 5.74157 0
M  V30 6389 H 568.435 -1.93514 4.47665 0
M  V30 6390 H 567.44 0.131852 5.49642 0
M  V30 6391 H 568.665 0.0881732 6.79043 0
M  V30 6392 H 566.611 -2.08233 6.22073 0
M  V30 6393 H 566.528 -0.920152 7.50379 0
M  V30 6394 H 567.796 -2.10932 7.50418 0
M  V30 6395 N 572.025 -1.5352 0.356285 0
M  V30 6396 C 572.972 -2.25439 -0.494569 0
M  V30 6397 C 573.942 -1.25752 -1.08516 0
M  V30 6398 O 575.127 -1.54513 -1.1194 0
M  V30 6399 C 572.267 -3.04011 -1.63313 0
M  V30 6400 C 571.38 -4.18574 -1.06862 0
M  V30 6401 C 570.515 -4.84607 -2.17552 0
M  V30 6402 C 569.554 -5.91218 -1.58518 0
M  V30 6403 N 568.691 -6.50979 -2.63003 0
M  V30 6404 H 573.531 -2.97737 0.125244 0
M  V30 6405 H 571.068 -1.46916 0.0735789 0
M  V30 6406 H 573.026 -3.47834 -2.30363 0
M  V30 6407 H 571.656 -2.33986 -2.22374 0
M  V30 6408 H 570.708 -3.79303 -0.288672 0
M  V30 6409 H 572.02 -4.95215 -0.596924 0
M  V30 6410 H 571.174 -5.31566 -2.92442 0
M  V30 6411 H 569.913 -4.07418 -2.6807 0
M  V30 6412 H 568.918 -5.4363 -0.821391 0
M  V30 6413 H 570.143 -6.70322 -1.08836 0
M  V30 6414 H 568.089 -5.76648 -3.12751 0
M  V30 6415 H 568.006 -7.23131 -2.20493 0
M  V30 6416 H 569.274 -7.02589 -3.37623 0
M  V30 6417 N 573.503 -0.0852151 -1.57369 0
M  V30 6418 C 574.752 0.580443 -1.93168 0
M  V30 6419 C 575.065 1.6995 -0.968319 0
M  V30 6420 O 576.271 2.42564 -1.21963 0
M  V30 6421 C 574.727 1.08386 -3.43192 0
M  V30 6422 C 574.335 -0.00491388 -4.48 0
M  V30 6423 C 576.079 1.72281 -3.87968 0
M  V30 6424 C 573.986 0.513299 -5.89168 0
M  V30 6425 H 572.916 0.22059 -0.72101 0
M  V30 6426 H 575.567 -0.159621 -1.82804 0
M  V30 6427 H 573.949 1.8773 -3.48674 0
M  V30 6428 H 575.123 -0.780032 -4.5415 0
M  V30 6429 H 573.438 -0.548453 -4.12772 0
M  V30 6430 H 576.035 2.12108 -4.9083 0
M  V30 6431 H 576.378 2.58811 -3.26071 0
M  V30 6432 H 576.911 0.995359 -3.85146 0
M  V30 6433 H 573.65 -0.315153 -6.54742 0
M  V30 6434 H 573.17 1.25564 -5.8651 0
M  V30 6435 H 574.849 0.985433 -6.39451 0
M  V30 6436 N 574.981 1.5647 0.188427 0
M  V30 6437 C 575.891 1.98285 1.2538 0
M  V30 6438 C 576.907 0.891535 1.49424 0
M  V30 6439 O 578.083 1.19782 1.61908 0
M  V30 6440 C 575.148 2.31965 2.57669 0
M  V30 6441 C 574.209 3.54838 2.41638 0
M  V30 6442 C 573.442 3.86901 3.67618 0
M  V30 6443 O 573.665 3.20163 4.72072 0
M  V30 6444 O 572.599 4.80309 3.62749 0
M  V30 6445 H 576.425 2.89145 0.928912 0
M  V30 6446 H 574.01 1.44112 0.393955 0
M  V30 6447 H 575.892 2.54673 3.35737 0
M  V30 6448 H 574.567 1.44271 2.89771 0
M  V30 6449 H 573.474 3.37369 1.61658 0
M  V30 6450 H 574.807 4.43019 2.14465 0
M  V30 6451 N 576.459 -0.456382 1.50847 0
M  V30 6452 C 577.389 -1.56025 1.73719 0
M  V30 6453 C 578.37 -1.5967 0.586473 0
M  V30 6454 O 579.555 -1.75702 0.827185 0
M  V30 6455 C 576.685 -2.94251 1.84483 0
M  V30 6456 C 575.639 -3.05471 2.99786 0
M  V30 6457 C 574.965 -4.45489 2.95709 0
M  V30 6458 C 576.265 -2.81318 4.40065 0
M  V30 6459 H 577.959 -1.37138 2.66146 0
M  V30 6460 H 575.505 -0.658299 1.28072 0
M  V30 6461 H 577.458 -3.71417 1.99067 0
M  V30 6462 H 576.182 -3.14328 0.886891 0
M  V30 6463 H 574.841 -2.30741 2.84876 0
M  V30 6464 H 574.489 -4.62505 1.97732 0
M  V30 6465 H 574.189 -4.53929 3.73125 0
M  V30 6466 H 575.713 -5.24655 3.12362 0
M  V30 6467 H 577.127 -3.48226 4.55425 0
M  V30 6468 H 575.524 -3.01188 5.19043 0
M  V30 6469 H 576.594 -1.7706 4.51418 0
M  V30 6470 N 577.937 -1.40673 -0.710563 0
M  V30 6471 C 579.185 -1.38947 -1.46759 0
M  V30 6472 C 579.506 0.00572879 -1.94999 0
M  V30 6473 O 578.776 0.961358 -1.70689 0
M  V30 6474 H 577.356 -0.5114 -0.544499 0
M  V30 6475 H 580.018 -1.75773 -0.842012 0
M  V30 6476 H 579.114 -2.06745 -2.33801 0
M  V30 6477 N 579.415 0.9433 -1.26252 0
M  V30 6478 C 580.661 1.69226 -1.12846 0
M  V30 6479 C 581.016 1.8963 0.325282 0
M  V30 6480 O 580.309 1.46435 1.23561 0
M  V30 6481 C 580.503 3.07073 -1.82868 0
M  V30 6482 C 580.332 3.00118 -3.34902 0
M  V30 6483 C 579.102 3.03251 -4.04186 0
M  V30 6484 C 581.3 2.80418 -4.31127 0
M  V30 6485 N 579.282 2.86573 -5.42908 0
M  V30 6486 C 580.653 2.72287 -5.5701 0
M  V30 6487 C 582.708 2.65185 -4.21404 0
M  V30 6488 C 581.411 2.50479 -6.74279 0
M  V30 6489 C 583.437 2.4475 -5.38378 0
M  V30 6490 C 582.799 2.37349 -6.63208 0
M  V30 6491 H 578.898 0.626716 -0.467708 0
M  V30 6492 H 581.482 1.11645 -1.5951 0
M  V30 6493 H 579.653 3.62797 -1.38682 0
M  V30 6494 H 581.385 3.70816 -1.62103 0
M  V30 6495 H 578.14 3.12882 -3.55531 0
M  V30 6496 H 578.564 2.81408 -6.15742 0
M  V30 6497 H 583.206 2.69675 -3.25631 0
M  V30 6498 H 580.924 2.4473 -7.70151 0
M  V30 6499 H 584.51 2.33872 -5.32724 0
M  V30 6500 H 583.39 2.21746 -7.52196 0
M  V30 6501 N 580.893 1.08022 1.14757 0
M  V30 6502 C 581.803 0.718292 2.23333 0
M  V30 6503 C 582.819 -0.273477 1.71837 0
M  V30 6504 O 583.995 -0.118406 2.01052 0
M  V30 6505 C 581.06 0.128855 3.4646 0
M  V30 6506 C 580.121 1.17473 4.12915 0
M  V30 6507 C 579.354 0.61333 5.30164 0
M  V30 6508 O 579.577 -0.568458 5.6756 0
M  V30 6509 O 578.511 1.3615 5.86299 0
M  V30 6510 H 582.337 1.62394 2.56636 0
M  V30 6511 H 579.922 0.853628 1.22611 0
M  V30 6512 H 581.804 -0.197249 4.20938 0
M  V30 6513 H 580.479 -0.750014 3.14891 0
M  V30 6514 H 579.386 1.5533 3.40328 0
M  V30 6515 H 580.719 2.02574 4.48581 0
M  V30 6516 N 582.371 -1.3172 0.865308 0
M  V30 6517 C 583.617 -1.97168 0.474633 0
M  V30 6518 C 583.95 -1.68263 -0.969604 0
M  V30 6519 O 583.225 -0.976588 -1.68205 0
M  V30 6520 C 583.508 -3.52689 0.726808 0
M  V30 6521 C 583.361 -3.91185 2.22024 0
M  V30 6522 C 584.68 -4.39689 0.190201 0
M  V30 6523 H 581.799 -0.716185 0.17392 0
M  V30 6524 H 584.441 -1.55925 1.08569 0
M  V30 6525 H 582.591 -3.8795 0.206705 0
M  V30 6526 H 584.263 -3.66049 2.80724 0
M  V30 6527 H 582.506 -3.3996 2.69462 0
M  V30 6528 H 583.177 -4.99604 2.34735 0
M  V30 6529 H 585.653 -4.11225 0.635103 0
M  V30 6530 H 584.529 -5.47469 0.396132 0
M  V30 6531 H 584.79 -4.32683 -0.907625 0
M  V30 6532 N 583.85 -0.624285 -1.44708 0
M  V30 6533 C 585.099 -0.123539 -2.01321 0
M  V30 6534 C 585.412 1.25966 -1.49639 0
M  V30 6535 O 586.618 1.85405 -1.98336 0
M  V30 6536 C 585.074 -0.170124 -3.59498 0
M  V30 6537 C 584.682 -1.55421 -4.20176 0
M  V30 6538 C 586.426 0.274513 -4.23611 0
M  V30 6539 C 584.332 -1.55628 -5.70556 0
M  V30 6540 H 583.263 -0.0424183 -0.752806 0
M  V30 6541 H 585.913 -0.782076 -1.65999 0
M  V30 6542 H 584.296 0.555385 -3.92086 0
M  V30 6543 H 585.47 -2.30276 -3.99136 0
M  V30 6544 H 583.784 -1.94235 -3.68323 0
M  V30 6545 H 586.382 0.292402 -5.339 0
M  V30 6546 H 586.725 1.3005 -3.95465 0
M  V30 6547 H 587.258 -0.398275 -3.95801 0
M  V30 6548 H 583.997 -2.56041 -6.03426 0
M  V30 6549 H 583.517 -0.850563 -5.93739 0
M  V30 6550 H 585.196 -1.28721 -6.34066 0
M  V30 6551 N 585.328 1.53329 -0.364422 0
M  V30 6552 C 586.275 2.25698 0.482607 0
M  V30 6553 C 587.245 1.26325 1.07848 0
M  V30 6554 O 588.43 1.55104 1.11119 0
M  V30 6555 C 585.57 3.04873 1.61699 0
M  V30 6556 C 584.683 4.19135 1.0464 0
M  V30 6557 C 583.818 4.85754 2.14979 0
M  V30 6558 C 582.857 5.9205 1.5538 0
M  V30 6559 N 581.994 6.52365 2.59547 0
M  V30 6560 H 586.834 2.97666 -0.141032 0
M  V30 6561 H 584.371 1.46875 -0.0813692 0
M  V30 6562 H 586.329 3.49051 2.28516 0
M  V30 6563 H 584.959 2.35162 2.2113 0
M  V30 6564 H 584.011 3.79451 0.268553 0
M  V30 6565 H 585.323 4.95525 0.570653 0
M  V30 6566 H 584.477 5.3311 2.89619 0
M  V30 6567 H 583.216 4.08834 2.65906 0
M  V30 6568 H 582.221 5.44058 0.792549 0
M  V30 6569 H 583.446 6.7089 1.0528 0
M  V30 6570 H 581.392 5.78298 3.09689 0
M  V30 6571 H 581.309 7.2429 2.16655 0
M  V30 6572 H 582.577 7.0437 3.33892 0
M  V30 6573 N 586.806 0.0935595 1.57322 0
M  V30 6574 C 588.083 -0.612692 1.85756 0
M  V30 6575 C 588.463 -1.86439 0.99013 0
M  V30 6576 O 587.811 -2.28416 0.0621362 0
M  V30 6577 C 588.021 -0.929547 3.36393 0
M  V30 6578 C 589.369 -1.29366 4.04413 0
M  V30 6579 O 590.393 -1.02061 3.41265 0
M  V30 6580 O 589.252 -1.80498 5.15832 0
M  V30 6581 H 586.346 -0.306444 0.768128 0
M  V30 6582 H 588.892 0.126141 1.69231 0
M  V30 6583 H 587.664 -0.0414766 3.91278 0
M  V30 6584 H 587.287 -1.72441 3.5826 0
M  V30 6585 N 588.284 -1.56567 -0.180126 0
M  V30 6586 C 589.234 -1.92132 -1.22756 0
M  V30 6587 C 590.218 -0.788639 -1.40247 0
M  V30 6588 O 591.41 -1.05171 -1.42366 0
M  V30 6589 C 588.539 -2.27719 -2.56902 0
M  V30 6590 C 587.625 -3.47481 -2.43142 0
M  V30 6591 N 588.016 -4.64973 -1.99082 0
M  V30 6592 C 586.314 -3.51914 -2.73994 0
M  V30 6593 C 587.015 -5.47119 -1.97574 0
M  V30 6594 N 585.991 -4.87925 -2.39645 0
M  V30 6595 H 589.793 -2.80464 -0.878478 0
M  V30 6596 H 587.307 -1.57686 -0.388463 0
M  V30 6597 H 589.304 -2.51389 -3.32579 0
M  V30 6598 H 587.964 -1.40722 -2.92621 0
M  V30 6599 H 588.975 -4.89358 -1.69557 0
M  V30 6600 H 585.652 -2.75372 -3.13809 0
M  V30 6601 H 587.042 -6.51254 -1.65282 0
M  V30 6602 N 589.762 0.448376 -1.51087 0
M  V30 6603 C 590.692 1.55102 -1.74544 0
M  V30 6604 C 591.673 1.59357 -0.594932 0
M  V30 6605 O 592.858 1.75261 -0.836491 0
M  V30 6606 C 589.988 2.93268 -1.86041 0
M  V30 6607 C 588.942 3.03877 -3.01402 0
M  V30 6608 C 588.268 4.43914 -2.98068 0
M  V30 6609 C 589.568 2.7898 -4.41551 0
M  V30 6610 H 591.262 1.35724 -2.66869 0
M  V30 6611 H 588.808 0.651498 -1.28419 0
M  V30 6612 H 590.761 3.70356 -2.01034 0
M  V30 6613 H 589.485 3.13853 -0.903548 0
M  V30 6614 H 588.144 2.29227 -2.86096 0
M  V30 6615 H 587.792 4.6145 -2.00182 0
M  V30 6616 H 587.492 4.51944 -3.75527 0
M  V30 6617 H 589.016 5.22991 -3.1514 0
M  V30 6618 H 590.43 3.45805 -4.57265 0
M  V30 6619 H 588.827 2.98431 -5.20633 0
M  V30 6620 H 589.897 1.74663 -4.5235 0
M  V30 6621 N 591.24 1.41047 0.703093 0
M  V30 6622 C 592.172 1.38228 1.82827 0
M  V30 6623 C 593.185 0.285637 1.60275 0
M  V30 6624 O 594.374 0.54685 1.69917 0
M  V30 6625 C 591.474 1.13136 3.19458 0
M  V30 6626 C 590.647 2.34695 3.69103 0
M  V30 6627 C 589.706 2.05574 4.84382 0
M  V30 6628 O 588.732 2.78549 4.96386 0
M  V30 6629 N 589.934 1.04135 5.71083 0
M  V30 6630 H 592.699 2.35203 1.85741 0
M  V30 6631 H 590.26 1.35562 0.885125 0
M  V30 6632 H 592.252 0.916183 3.94193 0
M  V30 6633 H 590.822 0.247836 3.11616 0
M  V30 6634 H 590.042 2.71963 2.85359 0
M  V30 6635 H 591.33 3.15705 3.99009 0
M  V30 6636 H 590.728 0.43722 5.64008 0
M  V30 6637 H 589.285 0.886078 6.45749 0
M  V30 6638 N 592.718 -0.936591 1.26751 0
M  V30 6639 C 593.665 -2.03597 1.08706 0
M  V30 6640 C 594.635 -1.66097 -0.00926542 0
M  V30 6641 O 595.82 -1.90199 0.151377 0
M  V30 6642 C 592.96 -3.3727 0.73094 0
M  V30 6643 C 592.073 -3.87778 1.90399 0
M  V30 6644 C 591.208 -5.09859 1.49056 0
M  V30 6645 C 590.247 -5.5264 2.63164 0
M  V30 6646 N 589.384 -6.65921 2.22471 0
M  V30 6647 H 594.224 -2.18364 2.02784 0
M  V30 6648 H 591.761 -1.06985 1.00958 0
M  V30 6649 H 593.719 -4.14128 0.505328 0
M  V30 6650 H 592.349 -3.22337 -0.172868 0
M  V30 6651 H 591.401 -3.07279 2.2424 0
M  V30 6652 H 592.713 -4.15464 2.76028 0
M  V30 6653 H 591.867 -5.9419 1.22567 0
M  V30 6654 H 590.606 -4.8393 0.60524 0
M  V30 6655 H 589.611 -4.66863 2.90377 0
M  V30 6656 H 590.836 -5.80568 3.52303 0
M  V30 6657 H 588.782 -6.41667 1.36379 0
M  V30 6658 H 588.699 -6.93216 3.01641 0
M  V30 6659 H 589.967 -7.53616 1.99205 0
M  V30 6660 N 594.196 -1.08629 -1.14182 0
M  V30 6661 C 595.421 -0.83902 -1.89671 0
M  V30 6662 C 595.846 0.603332 -1.78161 0
M  V30 6663 O 595.204 1.42301 -1.12339 0
M  V30 6664 C 595.252 -1.26854 -3.37551 0
M  V30 6665 O 594.356 -0.42188 -4.10236 0
M  V30 6666 H 593.697 -0.304545 -0.590041 0
M  V30 6667 H 596.227 -1.4483 -1.44518 0
M  V30 6668 H 596.237 -1.25038 -3.88368 0
M  V30 6669 H 594.912 -2.31901 -3.45246 0
M  V30 6670 H 593.489 -0.503654 -3.69483 0
M  V30 6671 N 595.674 1.31259 -0.872281 0
M  V30 6672 C 596.606 2.27396 -0.28697 0
M  V30 6673 C 597.619 1.53181 0.551297 0
M  V30 6674 O 598.808 1.74561 0.372914 0
M  V30 6675 C 595.908 3.33335 0.611617 0
M  V30 6676 C 595.081 4.36966 -0.194729 0
M  V30 6677 C 594.14 5.22387 0.632358 0
M  V30 6678 O 593.166 5.69169 0.0595691 0
M  V30 6679 N 594.368 5.46985 1.94391 0
M  V30 6680 H 597.133 2.78261 -1.11314 0
M  V30 6681 H 594.694 1.44306 -0.733994 0
M  V30 6682 H 596.686 3.87398 1.17068 0
M  V30 6683 H 595.256 2.82496 1.33846 0
M  V30 6684 H 594.476 3.82945 -0.935241 0
M  V30 6685 H 595.764 5.03273 -0.747935 0
M  V30 6686 H 595.162 5.10737 2.43237 0
M  V30 6687 H 593.719 6.03973 2.45071 0
M  V30 6688 N 597.152 0.631951 1.44375 0
M  V30 6689 C 598.1 -0.0846693 2.32446 0
M  V30 6690 C 599.094 -0.834957 1.47393 0
M  V30 6691 O 600.3 -0.747764 1.63733 0
M  V30 6692 H 596.675 -0.0461508 0.750583 0
M  V30 6693 H 598.646 0.67619 2.90638 0
M  V30 6694 C 597.395 -1.05211 3.314 0
M  V30 6695 H 596.718 -0.484203 3.96857 0
M  V30 6696 H 598.158 -1.523 3.95703 0
M  V30 6697 C 596.617 -2.13776 2.60387 0
M  V30 6698 O 597.147 -3.21869 2.4034 0
M  V30 6699 N 595.353 -1.89733 2.20113 0
M  V30 6700 H 594.9 -1.01833 2.36618 0
M  V30 6701 H 594.858 -2.62572 1.72926 0
M  V30 6702 N 598.631 -1.53133 0.372548 0
M  V30 6703 C 599.908 -1.93704 -0.271693 0
M  V30 6704 C 600.288 -1.30667 -1.65799 0
M  V30 6705 O 599.636 -0.46838 -2.23648 0
M  V30 6706 C 599.846 -3.47576 -0.314903 0
M  V30 6707 C 601.194 -4.20998 -0.551912 0
M  V30 6708 O 602.218 -3.53994 -0.39582 0
M  V30 6709 O 601.077 -5.39748 -0.85639 0
M  V30 6710 H 598.171 -0.810457 -0.164586 0
M  V30 6711 H 600.717 -1.6427 0.425838 0
M  V30 6712 H 599.489 -3.85749 0.656792 0
M  V30 6713 H 599.112 -3.83264 -1.05804 0
M  V30 6714 N 600.109 -0.101901 -1.5727 0
M  V30 6715 C 601.356 0.560197 -1.94597 0
M  V30 6716 C 601.684 1.67767 -0.984101 0
M  V30 6717 O 600.939 1.95699 -0.00489193 0
M  V30 6718 C 601.238 1.14898 -3.38427 0
M  V30 6719 C 600.904 0.154613 -4.50635 0
M  V30 6720 C 599.566 -0.118861 -4.81053 0
M  V30 6721 C 601.918 -0.523979 -5.18559 0
M  V30 6722 C 599.246 -1.0775 -5.76721 0
M  V30 6723 C 601.598 -1.47114 -6.15256 0
M  V30 6724 C 600.262 -1.75278 -6.44076 0
M  V30 6725 H 599.532 0.204991 -0.712081 0
M  V30 6726 H 602.179 -0.17918 -1.9066 0
M  V30 6727 H 600.484 1.96476 -3.38976 0
M  V30 6728 H 602.181 1.66909 -3.64613 0
M  V30 6729 H 598.771 0.377948 -4.2693 0
M  V30 6730 H 602.955 -0.325851 -4.95229 0
M  V30 6731 H 598.211 -1.30263 -5.97362 0
M  V30 6732 H 602.385 -2.00274 -6.66981 0
M  V30 6733 H 600.012 -2.49717 -7.18015 0
M  V30 6734 N 601.587 1.56661 0.17182 0
M  V30 6735 C 602.864 1.72838 0.915778 0
M  V30 6736 C 603.244 0.66316 2.00413 0
M  V30 6737 O 602.592 -0.322123 2.26218 0
M  V30 6738 C 602.802 3.16019 1.48097 0
M  V30 6739 C 604.15 3.76962 1.95408 0
M  V30 6740 O 605.174 3.19294 1.57892 0
M  V30 6741 O 604.033 4.78219 2.64516 0
M  V30 6742 H 601.127 0.705797 0.431021 0
M  V30 6743 H 603.673 1.68947 0.159689 0
M  V30 6744 H 602.445 3.85031 0.697618 0
M  V30 6745 H 602.068 3.24234 2.30126 0
M  V30 6746 N 603.065 -0.440357 1.51323 0
M  V30 6747 C 603.995 -1.54174 1.75364 0
M  V30 6748 C 604.976 -1.59039 0.603375 0
M  V30 6749 O 606.161 -1.74815 0.845774 0
M  V30 6750 C 603.291 -2.92277 1.87593 0
M  V30 6751 C 602.245 -3.02274 3.03009 0
M  V30 6752 C 601.571 -4.42327 3.00418 0
M  V30 6753 C 602.871 -2.76634 4.43024 0
M  V30 6754 H 604.565 -1.34307 2.67585 0
M  V30 6755 H 602.111 -0.644678 1.28763 0
M  V30 6756 H 604.064 -3.69284 2.02995 0
M  V30 6757 H 602.788 -3.13369 0.920179 0
M  V30 6758 H 601.447 -2.27706 2.87307 0
M  V30 6759 H 601.095 -4.60382 2.02626 0
M  V30 6760 H 600.795 -4.49946 3.77918 0
M  V30 6761 H 602.319 -5.21312 3.17909 0
M  V30 6762 H 603.733 -3.43376 4.59093 0
M  V30 6763 H 602.13 -2.95666 5.22208 0
M  V30 6764 H 603.2 -1.72262 4.5327 0
M  V30 6765 N 604.543 -1.41418 -0.695603 0
M  V30 6766 C 605.789 -1.40982 -1.4578 0
M  V30 6767 C 606.122 -0.0187763 -1.94191 0
M  V30 6768 O 605.397 0.95346 -1.69527 0
M  V30 6769 C 605.68 -2.41657 -2.66972 0
M  V30 6770 C 605.533 -3.89869 -2.24327 0
M  V30 6771 C 606.852 -2.39589 -3.69168 0
M  V30 6772 H 603.971 -0.513405 -0.528757 0
M  V30 6773 H 606.613 -1.72693 -0.792275 0
M  V30 6774 H 604.763 -2.14746 -3.23754 0
M  V30 6775 H 606.435 -4.27683 -1.72872 0
M  V30 6776 H 604.678 -4.04737 -1.56111 0
M  V30 6777 H 605.349 -4.55857 -3.11285 0
M  V30 6778 H 607.825 -2.63471 -3.2206 0
M  V30 6779 H 606.701 -3.12044 -4.51575 0
M  V30 6780 H 606.962 -1.41447 -4.18862 0
M  V30 6781 N 606.021 0.929856 -1.27246 0
M  V30 6782 C 607.432 1.49223 -1.12203 0
M  V30 6783 C 607.783 1.93989 0.293731 0
M  V30 6784 O 606.908 1.80978 1.18642 0
M  V30 6785 C 607.503 2.71198 -2.0307 0
M  V30 6786 C 606.062 3.23666 -1.92139 0
M  V30 6787 C 605.209 1.96409 -1.95752 0
M  V30 6788 H 608.16 0.744181 -1.4017 0
M  V30 6789 H 608.181 3.45905 -1.58524 0
M  V30 6790 H 607.693 2.38585 -3.06102 0
M  V30 6791 H 605.794 3.61042 -0.920834 0
M  V30 6792 H 605.907 3.90006 -2.78267 0
M  V30 6793 H 604.271 2.12806 -1.39949 0
M  V30 6794 H 605.054 1.66113 -3.00436 0
M  V30 6795 N 607.499 1.09233 1.13605 0
M  V30 6796 C 608.745 0.838255 1.85324 0
M  V30 6797 C 609.1 -0.629314 1.81817 0
M  V30 6798 O 608.393 -1.45729 1.24393 0
M  V30 6799 C 608.587 1.305 3.32723 0
M  V30 6800 C 608.416 2.81641 3.50583 0
M  V30 6801 C 607.186 3.49494 3.64941 0
M  V30 6802 C 609.384 3.79789 3.46792 0
M  V30 6803 N 607.366 4.89082 3.71042 0
M  V30 6804 C 608.737 5.05319 3.59239 0
M  V30 6805 C 610.792 3.72673 3.30181 0
M  V30 6806 C 609.495 6.24574 3.56791 0
M  V30 6807 C 611.521 4.91413 3.29039 0
M  V30 6808 C 610.883 6.15785 3.42035 0
M  V30 6809 H 606.982 0.359572 0.69443 0
M  V30 6810 H 609.566 1.39232 1.36098 0
M  V30 6811 H 607.737 0.778411 3.8052 0
M  V30 6812 H 609.469 0.996465 3.92241 0
M  V30 6813 H 606.224 2.9992 3.66531 0
M  V30 6814 H 606.648 5.61787 3.77789 0
M  V30 6815 H 611.29 2.77444 3.19037 0
M  V30 6816 H 609.008 7.20105 3.66708 0
M  V30 6817 H 612.594 4.87604 3.17386 0
M  V30 6818 H 611.474 7.06126 3.41111 0
M  V30 6819 N 608.977 -1.30795 0.87923 0
M  V30 6820 C 609.907 -2.30742 0.357796 0
M  V30 6821 C 610.888 -1.60747 -0.556283 0
M  V30 6822 O 612.073 -1.88393 -0.47135 0
M  V30 6823 C 609.203 -3.44583 -0.433555 0
M  V30 6824 C 608.157 -4.26235 0.388251 0
M  V30 6825 C 607.483 -5.32073 -0.529352 0
M  V30 6826 C 608.783 -4.96303 1.62729 0
M  V30 6827 H 610.477 -2.74605 1.19299 0
M  V30 6828 H 608.023 -1.32017 0.575104 0
M  V30 6829 H 609.976 -4.13563 -0.808934 0
M  V30 6830 H 608.7 -2.99511 -1.30234 0
M  V30 6831 H 607.359 -3.58936 0.745695 0
M  V30 6832 H 607.007 -4.83249 -1.39569 0
M  V30 6833 H 606.707 -5.87598 0.0166741 0
M  V30 6834 H 608.231 -6.0391 -0.901373 0
M  V30 6835 H 609.645 -5.5783 1.32283 0
M  V30 6836 H 608.042 -5.61666 2.11309 0
M  V30 6837 H 609.112 -4.22758 2.37494 0
M  V30 6838 N 610.455 -0.639598 -1.44038 0
M  V30 6839 C 611.387 0.0987684 -2.28987 0
M  V30 6840 C 612.4 0.80058 -1.41755 0
M  V30 6841 O 613.589 0.660611 -1.65826 0
M  V30 6842 C 610.689 1.16242 -3.18341 0
M  V30 6843 C 609.862 0.541447 -4.34036 0
M  V30 6844 C 608.921 1.50017 -5.04362 0
M  V30 6845 O 607.947 1.01403 -5.60095 0
M  V30 6846 N 609.149 2.83441 -5.06598 0
M  V30 6847 H 611.914 -0.630305 -2.92997 0
M  V30 6848 H 609.475 -0.481376 -1.54578 0
M  V30 6849 H 611.467 1.80429 -3.62253 0
M  V30 6850 H 610.037 1.79362 -2.56024 0
M  V30 6851 H 609.257 -0.27923 -3.9321 0
M  V30 6852 H 610.545 0.107379 -5.08687 0
M  V30 6853 H 609.943 3.2551 -4.62666 0
M  V30 6854 H 608.5 3.42966 -5.54272 0
M  V30 6855 N 611.933 1.52934 -0.380664 0
M  V30 6856 C 613.182 2.00651 0.205477 0
M  V30 6857 C 613.495 1.27164 1.48623 0
M  V30 6858 O 614.701 1.65547 2.15189 0
M  V30 6859 C 613.157 3.57479 0.416726 0
M  V30 6860 C 612.765 4.39857 -0.850268 0
M  V30 6861 C 614.509 4.13509 0.959702 0
M  V30 6862 C 612.416 5.88269 -0.607773 0
M  V30 6863 H 611.346 0.749684 0.0805614 0
M  V30 6864 H 613.997 1.76508 -0.501732 0
M  V30 6865 H 612.379 3.77836 1.18557 0
M  V30 6866 H 613.553 4.31269 -1.62307 0
M  V30 6867 H 611.868 3.95005 -1.31756 0
M  V30 6868 H 614.465 5.22039 1.15669 0
M  V30 6869 H 614.808 3.69054 1.92626 0
M  V30 6870 H 615.341 3.9701 0.250645 0
M  V30 6871 H 612.08 6.3703 -1.54509 0
M  V30 6872 H 611.6 5.99667 0.126247 0
M  V30 6873 H 613.279 6.46558 -0.239014 0
M  V30 6874 N 613.412 0.11024 1.57214 0
M  V30 6875 C 614.375 -0.828808 2.1369 0
M  V30 6876 C 615.375 -1.20059 1.06969 0
M  V30 6877 O 616.565 -1.12754 1.32786 0
M  V30 6878 C 613.697 -2.11959 2.66994 0
M  V30 6879 H 614.89 -0.338146 2.97988 0
M  V30 6880 H 612.443 -0.138913 1.55681 0
M  V30 6881 H 613.178 -2.65476 1.8626 0
M  V30 6882 H 612.963 -1.86258 3.45037 0
M  V30 6883 H 614.453 -2.79105 3.10629 0
M  V30 6884 N 614.89 -1.56749 -0.16351 0
M  V30 6885 C 616.118 -1.86577 -0.894233 0
M  V30 6886 C 616.533 -0.696543 -1.75481 0
M  V30 6887 O 615.89 0.334161 -1.79415 0
M  V30 6888 C 615.941 -3.15508 -1.76456 0
M  V30 6889 O 615.662 -4.27926 -0.938685 0
M  V30 6890 C 617.163 -3.58737 -2.60428 0
M  V30 6891 H 614.383 -0.618829 -0.259405 0
M  V30 6892 H 616.927 -2.03863 -0.161259 0
M  V30 6893 H 615.082 -3.00025 -2.45079 0
M  V30 6894 H 615.496 -5.01546 -1.53465 0
M  V30 6895 H 616.97 -4.51832 -3.17099 0
M  V30 6896 H 617.447 -2.83229 -3.35675 0
M  V30 6897 H 618.053 -3.76858 -1.97125 0
M  V30 6898 N 616.368 0.432326 -1.51554 0
M  V30 6899 C 617.3 1.54357 -1.6943 0
M  V30 6900 C 618.313 1.52311 -0.574897 0
M  V30 6901 O 619.502 1.56997 -0.849369 0
M  V30 6902 C 616.602 2.93273 -1.69836 0
M  V30 6903 C 615.775 3.19768 -2.98442 0
M  V30 6904 C 614.834 4.38433 -2.90969 0
M  V30 6905 O 613.86 4.36842 -3.64908 0
M  V30 6906 N 615.062 5.42276 -2.07163 0
M  V30 6907 H 617.827 1.39426 -2.65293 0
M  V30 6908 H 615.388 0.621331 -1.49503 0
M  V30 6909 H 617.38 3.70687 -1.62399 0
M  V30 6910 H 615.95 3.01777 -0.815456 0
M  V30 6911 H 615.17 2.30607 -3.19709 0
M  V30 6912 H 616.458 3.343 -3.83563 0
M  V30 6913 H 615.856 5.46407 -1.46477 0
M  V30 6914 H 614.413 6.18524 -2.05601 0
M  V30 6915 N 617.846 1.41785 0.688094 0
M  V30 6916 C 618.776 1.47 1.8142 0
M  V30 6917 C 619.757 0.327881 1.6691 0
M  V30 6918 O 620.942 0.540362 1.86531 0
M  V30 6919 C 618.072 1.35876 3.19617 0
M  V30 6920 C 617.026 2.47976 3.48844 0
M  V30 6921 C 616.352 2.21915 4.86475 0
M  V30 6922 C 617.652 3.90309 3.47068 0
M  V30 6923 H 619.346 2.41247 1.77314 0
M  V30 6924 H 616.892 1.16116 0.851651 0
M  V30 6925 H 618.845 1.38134 3.98117 0
M  V30 6926 H 617.569 0.38116 3.24368 0
M  V30 6927 H 616.228 2.45013 2.72698 0
M  V30 6928 H 615.876 1.2248 4.8786 0
M  V30 6929 H 615.576 2.97037 5.06994 0
M  V30 6930 H 617.1 2.25901 5.67275 0
M  V30 6931 H 618.514 3.94947 4.1556 0
M  V30 6932 H 616.911 4.65175 3.7912 0
M  V30 6933 H 617.981 4.17927 2.45896 0
M  V30 6934 N 619.324 -0.923095 1.27737 0
M  V30 6935 C 620.573 -1.66581 1.13727 0
M  V30 6936 C 620.886 -1.9304 -0.315433 0
M  V30 6937 O 622.092 -2.65309 -0.57651 0
M  V30 6938 C 620.548 -3.00047 1.98745 0
M  V30 6939 C 620.156 -2.8127 3.48699 0
M  V30 6940 C 621.9 -3.77887 1.93395 0
M  V30 6941 C 619.807 -4.1032 4.25901 0
M  V30 6942 H 618.737 -0.624834 0.422017 0
M  V30 6943 H 621.388 -1.02514 1.52194 0
M  V30 6944 H 619.77 -3.65197 1.53125 0
M  V30 6945 H 620.944 -2.24859 4.02213 0
M  V30 6946 H 619.259 -2.16854 3.55476 0
M  V30 6947 H 621.856 -4.73526 2.48348 0
M  V30 6948 H 622.199 -4.06264 0.908605 0
M  V30 6949 H 622.732 -3.19541 2.36935 0
M  V30 6950 H 619.471 -3.8712 5.28978 0
M  V30 6951 H 618.991 -4.66377 3.77163 0
M  V30 6952 H 620.67 -4.78648 4.35321 0
M  V30 6953 N 620.802 -1.09834 -1.13024 0
M  V30 6954 C 622.027 -0.85909 -1.88771 0
M  V30 6955 C 622.452 0.584402 -1.78791 0
M  V30 6956 O 621.81 1.41101 -1.13842 0
M  V30 6957 C 621.858 -1.30427 -3.36186 0
M  V30 6958 O 620.962 -0.465368 -4.09766 0
M  V30 6959 H 620.303 -0.310786 -0.586778 0
M  V30 6960 H 622.833 -1.46355 -1.42973 0
M  V30 6961 H 622.843 -1.2915 -3.8702 0
M  V30 6962 H 621.518 -2.3555 -3.42767 0
M  V30 6963 H 620.095 -0.542814 -3.68928 0
M  V30 6964 N 622.28 1.30327 -0.886154 0
M  V30 6965 C 623.227 2.28099 -0.352069 0
M  V30 6966 C 624.197 1.56433 0.558397 0
M  V30 6967 O 625.382 1.84492 0.486561 0
M  V30 6968 C 622.522 3.42456 0.426346 0
M  V30 6969 C 621.635 4.28938 -0.513472 0
M  V30 6970 C 620.77 5.30458 0.280657 0
M  V30 6971 C 619.809 6.0859 -0.654556 0
M  V30 6972 N 618.946 7.02022 0.104322 0
M  V30 6973 H 623.786 2.73166 -1.19097 0
M  V30 6974 H 621.323 1.34367 -0.598662 0
M  V30 6975 H 623.281 4.07518 0.893587 0
M  V30 6976 H 621.911 2.98455 1.22981 0
M  V30 6977 H 620.963 3.64173 -1.09921 0
M  V30 6978 H 622.275 4.83399 -1.2299 0
M  V30 6979 H 621.429 6.01273 0.8097 0
M  V30 6980 H 620.168 4.76693 1.03029 0
M  V30 6981 H 619.173 5.36651 -1.19522 0
M  V30 6982 H 620.398 6.64443 -1.4033 0
M  V30 6983 H 618.344 6.50645 0.836472 0
M  V30 6984 H 618.261 7.53979 -0.552453 0
M  V30 6985 H 619.529 7.77077 0.614069 0
M  V30 6986 N 623.758 0.647228 1.43697 0
M  V30 6987 C 624.988 0.16551 2.05936 0
M  V30 6988 C 625.396 -1.17164 1.48557 0
M  V30 6989 O 624.739 -1.73307 0.60914 0
M  V30 6990 C 624.801 -0.00648082 3.59499 0
M  V30 6991 C 624.465 1.25503 4.39429 0
M  V30 6992 C 625.462 2.18241 4.71876 0
M  V30 6993 C 623.147 1.49494 4.79538 0
M  V30 6994 C 625.141 3.33268 5.43333 0
M  V30 6995 C 622.828 2.64815 5.50742 0
M  V30 6996 C 623.826 3.56528 5.82561 0
M  V30 6997 O 623.514 4.69836 6.52311 0
M  V30 6998 H 623.246 0.0844124 0.670709 0
M  V30 6999 H 625.8 0.88638 1.8529 0
M  V30 7000 H 624.03 -0.782661 3.78697 0
M  V30 7001 H 625.719 -0.444794 4.03456 0
M  V30 7002 H 626.485 2.00946 4.41413 0
M  V30 7003 H 622.364 0.789912 4.54182 0
M  V30 7004 H 625.908 4.04874 5.68087 0
M  V30 7005 H 621.805 2.82047 5.8062 0
M  V30 7006 H 622.573 4.69024 6.70789 0
M  V30 7007 N 625.236 -1.5273 0.388769 0
M  V30 7008 C 626.647 -1.86505 -0.0853788 0
M  V30 7009 C 626.998 -1.30847 -1.46197 0
M  V30 7010 O 626.123 -0.639609 -2.06732 0
M  V30 7011 C 626.718 -3.38414 -0.161703 0
M  V30 7012 C 625.277 -3.71902 -0.580144 0
M  V30 7013 C 624.424 -2.76095 0.258218 0
M  V30 7014 H 627.375 -1.46647 0.606665 0
M  V30 7015 H 627.396 -3.67638 -0.980936 0
M  V30 7016 H 626.908 -3.78893 0.840333 0
M  V30 7017 H 625.009 -3.36992 -1.58957 0
M  V30 7018 H 625.122 -4.77902 -0.338663 0
M  V30 7019 H 623.486 -2.53195 -0.276432 0
M  V30 7020 H 624.269 -3.19411 1.25822 0
M  V30 7021 N 626.714 -0.118576 -1.57153 0
M  V30 7022 C 627.677 0.817464 -2.14127 0
M  V30 7023 C 628.677 1.1949 -1.07604 0
M  V30 7024 O 629.867 1.12048 -1.33382 0
M  V30 7025 C 626.999 2.10541 -2.68115 0
M  V30 7026 H 628.192 0.322339 -2.98163 0
M  V30 7027 H 625.745 0.130655 -1.55753 0
M  V30 7028 H 626.48 2.64485 -1.87665 0
M  V30 7029 H 626.265 1.84425 -3.4602 0
M  V30 7030 H 627.755 2.77453 -3.12105 0
M  V30 7031 N 628.193 1.56834 0.155195 0
M  V30 7032 C 629.418 1.87412 0.888337 0
M  V30 7033 C 629.843 0.70671 1.74319 0
M  V30 7034 O 629.201 -0.343892 1.78009 0
M  V30 7035 C 629.249 3.1652 1.72765 0
M  V30 7036 O 628.353 2.99877 2.83103 0
M  V30 7037 H 627.694 0.615983 0.247914 0
M  V30 7038 H 630.224 2.04061 0.148478 0
M  V30 7039 H 630.234 3.48334 2.12433 0
M  V30 7040 H 628.909 4.01094 1.09985 0
M  V30 7041 H 627.486 2.79453 2.46902 0
M  V30 7042 N 629.671 -0.424282 1.51781 0
M  V30 7043 C 630.601 -1.52305 1.7699 0
M  V30 7044 C 631.582 -1.5839 0.620209 0
M  V30 7045 O 632.767 -1.73908 0.864268 0
M  V30 7046 C 629.897 -2.90271 1.90683 0
M  V30 7047 C 628.851 -2.99043 3.06198 0
M  V30 7048 C 628.177 -4.39116 3.05092 0
M  V30 7049 C 629.477 -2.7192 4.45934 0
M  V30 7050 H 631.171 -1.31461 2.68995 0
M  V30 7051 H 628.717 -0.630985 1.29439 0
M  V30 7052 H 630.67 -3.6711 2.06901 0
M  V30 7053 H 629.394 -3.12376 0.953365 0
M  V30 7054 H 628.053 -2.24646 2.89706 0
M  V30 7055 H 627.701 -4.58207 2.07498 0
M  V30 7056 H 627.401 -4.45912 3.82669 0
M  V30 7057 H 628.925 -5.17911 3.2342 0
M  V30 7058 H 630.339 -3.38487 4.62709 0
M  V30 7059 H 628.736 -2.90111 5.25315 0
M  V30 7060 H 629.806 -1.67445 4.55072 0
M  V30 7061 N 631.149 -1.42148 -0.680565 0
M  V30 7062 C 632.56 -1.3768 -1.26099 0
M  V30 7063 C 632.911 -0.0672348 -1.96085 0
M  V30 7064 O 632.036 0.834172 -1.99676 0
M  V30 7065 C 632.631 -2.49387 -2.29328 0
M  V30 7066 C 631.19 -2.4827 -2.82911 0
M  V30 7067 C 630.337 -2.2847 -1.57152 0
M  V30 7068 H 633.288 -1.51446 -0.474326 0
M  V30 7069 H 633.309 -2.19307 -3.10941 0
M  V30 7070 H 632.821 -3.44686 -1.78363 0
M  V30 7071 H 630.922 -1.56773 -3.38013 0
M  V30 7072 H 631.035 -3.45109 -3.3232 0
M  V30 7073 H 629.399 -1.76623 -1.83511 0
M  V30 7074 H 630.182 -3.25816 -1.0816 0
M  V30 7075 N 632.627 0.916307 -1.28225 0
M  V30 7076 C 633.575 2.03977 -1.11786 0
M  V30 7077 C 634.569 1.69358 -0.0378265 0
M  V30 7078 O 635.775 1.78925 -0.196405 0
M  V30 7079 H 632.15 0.66829 -0.344809 0
M  V30 7080 H 634.121 2.14985 -2.06939 0
M  V30 7081 C 632.87 3.38518 -0.7938 0
M  V30 7082 H 632.193 3.65649 -1.61682 0
M  V30 7083 H 633.633 4.17864 -0.718719 0
M  V30 7084 C 632.092 3.33134 0.502353 0
M  V30 7085 O 632.622 3.71281 1.53341 0
M  V30 7086 N 630.828 2.86229 0.502147 0
M  V30 7087 H 630.375 2.55382 -0.337338 0
M  V30 7088 H 630.333 2.83009 1.36942 0
M  V30 7089 N 634.105 1.10431 1.1244 0
M  V30 7090 C 635.345 0.856518 1.85589 0
M  V30 7091 C 635.709 -0.606905 1.82156 0
M  V30 7092 O 636.91 -0.97105 2.50647 0
M  V30 7093 C 635.181 1.38977 3.29272 0
M  V30 7094 S 636.74 1.27739 4.19795 0
M  V30 7095 H 633.558 0.309509 0.640098 0
M  V30 7096 H 636.16 1.40975 1.35449 0
M  V30 7097 H 634.864 2.44887 3.2933 0
M  V30 7098 H 634.395 0.833112 3.84477 0
M  V30 7099 H 636.41 0.235051 4.95643 0
M  V30 7100 N 635.583 -1.29855 0.893053 0
M  V30 7101 C 636.493 -2.31661 0.370157 0
M  V30 7102 C 637.509 -1.65677 -0.531723 0
M  V30 7103 O 638.685 -1.9691 -0.422902 0
M  V30 7104 C 635.75 -3.44388 -0.399741 0
M  V30 7105 C 634.811 -4.2598 0.532861 0
M  V30 7106 C 634.044 -5.33324 -0.200388 0
M  V30 7107 O 634.267 -5.52305 -1.42531 0
M  V30 7108 O 633.201 -6.00188 0.453668 0
M  V30 7109 H 637.027 -2.78354 1.2146 0
M  V30 7110 H 634.612 -1.34171 0.657153 0
M  V30 7111 H 636.494 -4.13037 -0.835358 0
M  V30 7112 H 635.169 -2.99815 -1.22035 0
M  V30 7113 H 634.076 -3.59998 1.01746 0
M  V30 7114 H 635.409 -4.74178 1.3197 0
M  V30 7115 N 637.061 -0.65484 -1.43351 0
M  V30 7116 C 637.991 0.0221809 -2.33489 0
M  V30 7117 C 638.972 0.810272 -1.49561 0
M  V30 7118 O 640.157 0.771426 -1.78221 0
M  V30 7119 C 637.287 0.988117 -3.32947 0
M  V30 7120 C 636.241 0.310026 -4.26876 0
M  V30 7121 C 635.567 1.38752 -5.16384 0
M  V30 7122 C 636.867 -0.798589 -5.16159 0
M  V30 7123 H 638.561 -0.730571 -2.9035 0
M  V30 7124 H 636.107 -0.352773 -1.39612 0
M  V30 7125 H 638.06 1.47067 -3.94904 0
M  V30 7126 H 636.784 1.77205 -2.74346 0
M  V30 7127 H 635.443 -0.152097 -3.66284 0
M  V30 7128 H 635.091 2.16293 -4.54121 0
M  V30 7129 H 634.791 0.939051 -5.80048 0
M  V30 7130 H 636.315 1.87141 -5.81215 0
M  V30 7131 H 637.729 -0.398126 -5.71916 0
M  V30 7132 H 636.126 -1.17163 -5.88552 0
M  V30 7133 H 637.196 -1.65588 -4.55751 0
M  V30 7134 N 638.539 1.52521 -0.396863 0
M  V30 7135 C 639.764 2.06571 0.185258 0
M  V30 7136 C 640.189 1.26605 1.39115 0
M  V30 7137 O 639.547 0.293055 1.78916 0
M  V30 7138 C 639.595 3.5674 0.526189 0
M  V30 7139 O 638.699 3.7929 1.61903 0
M  V30 7140 H 638.04 0.663712 0.0195474 0
M  V30 7141 H 640.57 1.966 -0.566519 0
M  V30 7142 H 640.58 4.00311 0.788338 0
M  V30 7143 H 639.255 4.14379 -0.355397 0
M  V30 7144 H 637.832 3.47605 1.35 0
M  V30 7145 N 640.017 0.126909 1.57088 0
M  V30 7146 C 641.428 -0.397201 1.82426 0
M  V30 7147 C 641.779 -1.66084 1.04453 0
M  V30 7148 O 640.904 -2.14534 0.283552 0
M  V30 7149 C 641.499 -0.727411 3.30899 0
M  V30 7150 C 640.058 -1.19612 3.56889 0
M  V30 7151 C 639.205 -0.20885 2.76512 0
M  V30 7152 H 642.156 0.351924 1.54749 0
M  V30 7153 H 642.177 -1.58407 3.45959 0
M  V30 7154 H 641.689 0.19247 3.87622 0
M  V30 7155 H 639.79 -2.13263 3.05532 0
M  V30 7156 H 639.903 -1.13598 4.65438 0
M  V30 7157 H 638.267 -0.697479 2.44964 0
M  V30 7158 H 639.05 0.704267 3.35998 0
M  V30 7159 N 641.495 -1.56914 -0.146875 0
M  V30 7160 C 642.425 -2.01308 -1.1831 0
M  V30 7161 C 643.406 -0.892664 -1.44795 0
M  V30 7162 O 644.591 -1.16048 -1.55713 0
M  V30 7163 C 641.721 -2.3938 -2.51624 0
M  V30 7164 C 640.675 -3.54608 -2.3966 0
M  V30 7165 C 640.001 -3.78493 -3.77686 0
M  V30 7166 C 641.301 -4.87269 -1.88058 0
M  V30 7167 H 642.995 -2.88123 -0.813964 0
M  V30 7168 H 640.541 -1.38615 -0.3901 0
M  V30 7169 H 642.494 -2.69037 -3.24341 0
M  V30 7170 H 641.218 -1.49502 -2.90373 0
M  V30 7171 H 639.877 -3.25116 -1.69396 0
M  V30 7172 H 639.525 -2.85866 -4.13871 0
M  V30 7173 H 639.225 -4.56039 -3.70543 0
M  V30 7174 H 640.749 -4.10576 -4.51951 0
M  V30 7175 H 642.163 -5.15644 -2.50568 0
M  V30 7176 H 640.56 -5.68622 -1.91805 0
M  V30 7177 H 641.63 -4.77634 -0.836277 0
M  V30 7178 N 642.974 0.416227 -1.52004 0
M  V30 7179 C 643.904 1.51365 -1.77795 0
M  V30 7180 C 644.885 1.58059 -0.628601 0
M  V30 7181 O 646.07 1.73447 -0.873478 0
M  V30 7182 C 643.2 2.89256 -1.92219 0
M  V30 7183 C 642.154 2.97415 -3.0778 0
M  V30 7184 C 641.48 4.37492 -3.07417 0
M  V30 7185 C 642.78 2.69551 -4.47369 0
M  V30 7186 H 644.474 1.30033 -2.69688 0
M  V30 7187 H 642.02 0.624112 -1.29772 0
M  V30 7188 H 643.973 3.66008 -2.08845 0
M  V30 7189 H 642.697 3.11866 -0.969917 0
M  V30 7190 H 641.356 2.23107 -2.90893 0
M  V30 7191 H 641.004 4.571 -2.09925 0
M  V30 7192 H 640.704 4.43877 -3.85029 0
M  V30 7193 H 642.228 5.16188 -3.26162 0
M  V30 7194 H 643.642 3.36028 -4.64497 0
M  V30 7195 H 642.039 2.87321 -5.26846 0
M  V30 7196 H 643.109 1.65029 -4.55953 0
M  V30 7197 N 644.452 1.42507 0.673017 0
M  V30 7198 C 645.385 1.40557 1.79774 0
M  V30 7199 C 646.363 0.269606 1.60349 0
M  V30 7200 O 647.547 0.460105 1.82798 0
M  V30 7201 C 644.674 1.19815 3.168 0
M  V30 7202 C 643.72 2.36429 3.5497 0
M  V30 7203 S 644.553 3.98963 3.57196 0
M  V30 7204 C 645.709 3.80567 4.9691 0
M  V30 7205 H 645.942 2.35734 1.81154 0
M  V30 7206 H 643.475 1.293 0.843846 0
M  V30 7207 H 645.433 1.08535 3.95892 0
M  V30 7208 H 644.094 0.262215 3.13004 0
M  V30 7209 H 643.287 2.17669 4.54573 0
M  V30 7210 H 642.889 2.44233 2.83242 0
M  V30 7211 H 645.181 3.41668 5.85038 0
M  V30 7212 H 646.124 4.79852 5.20718 0
M  V30 7213 H 646.532 3.13399 4.69512 0
M  V30 7214 N 645.93 -0.909495 1.28709 0
M  V30 7215 C 647.179 -1.65365 1.15487 0
M  V30 7216 C 647.492 -1.93364 -0.294941 0
M  V30 7217 O 648.698 -2.65905 -0.548338 0
M  V30 7218 C 647.154 -2.97923 2.01916 0
M  V30 7219 C 646.762 -2.77556 3.51663 0
M  V30 7220 C 648.506 -3.75814 1.97393 0
M  V30 7221 C 646.413 -4.0578 4.30229 0
M  V30 7222 H 645.343 -0.620323 0.42862 0
M  V30 7223 H 647.994 -1.00894 1.53273 0
M  V30 7224 H 646.376 -3.63552 1.5699 0
M  V30 7225 H 647.55 -2.2058 4.04575 0
M  V30 7226 H 645.865 -2.13072 3.57756 0
M  V30 7227 H 648.462 -4.70866 2.53357 0
M  V30 7228 H 648.805 -4.05277 0.951643 0
M  V30 7229 H 649.338 -3.1701 2.40311 0
M  V30 7230 H 646.077 -3.81488 5.33055 0
M  V30 7231 H 645.597 -4.62351 3.82089 0
M  V30 7232 H 647.276 -4.74004 4.40374 0
M  V30 7233 N 647.408 -1.11026 -1.11852 0
M  V30 7234 C 648.338 -0.786812 -2.19844 0
M  V30 7235 C 649.319 0.242935 -1.68356 0
M  V30 7236 O 650.504 0.107355 -1.93903 0
M  V30 7237 C 647.634 -0.224516 -3.46574 0
M  V30 7238 C 646.588 -1.18564 -4.1125 0
M  V30 7239 C 645.914 -0.484261 -5.32503 0
M  V30 7240 C 647.214 -2.53465 -4.56676 0
M  V30 7241 H 648.908 -1.68978 -2.47158 0
M  V30 7242 H 646.454 -0.813906 -1.18792 0
M  V30 7243 H 648.407 0.0139435 -4.21398 0
M  V30 7244 H 647.131 0.713722 -3.18706 0
M  V30 7245 H 645.79 -1.40966 -3.38414 0
M  V30 7246 H 645.438 0.458646 -5.00905 0
M  V30 7247 H 645.138 -1.12526 -5.76725 0
M  V30 7248 H 646.662 -0.254492 -6.10069 0
M  V30 7249 H 648.076 -2.35177 -5.22843 0
M  V30 7250 H 646.473 -3.13507 -5.11697 0
M  V30 7251 H 647.543 -3.13008 -3.70343 0
M  V30 7252 N 648.886 1.2938 -0.899927 0
M  V30 7253 C 650.111 2.00228 -0.540692 0
M  V30 7254 C 650.536 1.66909 0.867359 0
M  V30 7255 O 649.894 0.893824 1.57735 0
M  V30 7256 C 649.942 3.52921 -0.740232 0
M  V30 7257 O 649.046 4.11879 0.207154 0
M  V30 7258 H 648.387 0.629505 -0.211233 0
M  V30 7259 H 650.917 1.6487 -1.21158 0
M  V30 7260 H 650.927 4.0287 -0.644973 0
M  V30 7261 H 649.602 3.76508 -1.76677 0
M  V30 7262 H 648.179 3.72845 0.0643315 0
M  V30 7263 N 650.364 0.662433 1.43002 0
M  V30 7264 C 651.296 -0.062326 2.29115 0
M  V30 7265 C 652.309 -0.777926 1.43011 0
M  V30 7266 O 653.498 -0.634146 1.66856 0
M  V30 7267 C 650.598 -1.11163 3.2015 0
M  V30 7268 C 649.771 -0.472327 4.34842 0
M  V30 7269 C 648.83 -1.41974 5.06685 0
M  V30 7270 O 647.856 -0.924795 5.61637 0
M  V30 7271 N 649.058 -2.75345 5.11043 0
M  V30 7272 H 651.823 0.676838 2.91957 0
M  V30 7273 H 649.384 0.505907 1.53793 0
M  V30 7274 H 651.376 -1.74643 3.65078 0
M  V30 7275 H 649.946 -1.75266 2.58845 0
M  V30 7276 H 649.166 0.341751 3.92716 0
M  V30 7277 H 650.454 -0.0264381 5.08793 0
M  V30 7278 H 649.852 -3.18108 4.67786 0
M  V30 7279 H 648.409 -3.34105 5.59658 0
M  V30 7280 N 651.842 -1.52309 0.404946 0
M  V30 7281 C 652.772 -2.29805 -0.41376 0
M  V30 7282 C 653.753 -1.3384 -1.0498 0
M  V30 7283 O 654.938 -1.62745 -1.05961 0
M  V30 7284 C 652.068 -3.11639 -1.53292 0
M  V30 7285 C 651.022 -4.15616 -1.02211 0
M  V30 7286 C 650.348 -4.8577 -2.23455 0
M  V30 7287 C 651.648 -5.2224 -0.0790725 0
M  V30 7288 H 653.342 -2.98493 0.232878 0
M  V30 7289 H 650.888 -1.43552 0.113441 0
M  V30 7290 H 652.841 -3.64618 -2.11262 0
M  V30 7291 H 651.565 -2.40712 -2.20738 0
M  V30 7292 H 650.224 -3.63641 -0.46484 0
M  V30 7293 H 649.872 -4.11376 -2.89445 0
M  V30 7294 H 649.572 -5.56058 -1.89929 0
M  V30 7295 H 651.096 -5.4156 -2.82038 0
M  V30 7296 H 652.51 -5.70485 -0.567438 0
M  V30 7297 H 650.907 -5.99867 0.167167 0
M  V30 7298 H 651.977 -4.77078 0.867447 0
M  V30 7299 N 653.32 -0.135238 -1.57019 0
M  V30 7300 C 654.25 0.805235 -2.19176 0
M  V30 7301 C 655.231 1.2656 -1.13651 0
M  V30 7302 O 656.416 1.32528 -1.4195 0
M  V30 7303 C 653.546 2.04914 -2.80406 0
M  V30 7304 C 652.5 1.72598 -3.91655 0
M  V30 7305 C 651.826 3.04154 -4.39766 0
M  V30 7306 C 653.126 0.981709 -5.12991 0
M  V30 7307 H 654.82 0.287232 -2.98019 0
M  V30 7308 H 652.366 0.136714 -1.4335 0
M  V30 7309 H 654.319 2.71178 -3.22553 0
M  V30 7310 H 653.043 2.59067 -1.98877 0
M  V30 7311 H 651.702 1.08717 -3.50109 0
M  V30 7312 H 651.35 3.56274 -3.55075 0
M  V30 7313 H 651.05 2.83299 -5.14796 0
M  V30 7314 H 652.574 3.71509 -4.84576 0
M  V30 7315 H 653.988 1.5462 -5.52056 0
M  V30 7316 H 652.385 0.873533 -5.93708 0
M  V30 7317 H 653.455 -0.0286887 -4.84892 0
M  V30 7318 N 654.798 1.5699 0.138552 0
M  V30 7319 C 656.209 1.73171 0.697754 0
M  V30 7320 C 656.56 0.750952 1.8126 0
M  V30 7321 O 655.685 -0.080549 2.1625 0
M  V30 7322 C 656.28 3.13996 1.27248 0
M  V30 7323 C 654.839 3.3175 1.77816 0
M  V30 7324 C 653.986 2.69084 0.669991 0
M  V30 7325 H 656.937 1.5846 -0.0871979 0
M  V30 7326 H 656.958 3.14463 2.14227 0
M  V30 7327 H 656.47 3.85354 0.460855 0
M  V30 7328 H 654.571 2.65403 2.61519 0
M  V30 7329 H 654.684 4.39768 1.90107 0
M  V30 7330 H 653.048 2.29782 1.09874 0
M  V30 7331 H 653.831 3.43053 -0.130329 0
M  V30 7332 N 656.276 -0.40816 1.52223 0
M  V30 7333 C 657.208 -1.51642 1.71864 0
M  V30 7334 C 658.221 -1.51378 0.599056 0
M  V30 7335 O 659.41 -1.55626 0.874239 0
M  V30 7336 C 656.51 -2.90534 1.74481 0
M  V30 7337 C 655.683 -3.14979 3.03491 0
M  V30 7338 C 654.742 -4.33749 2.97907 0
M  V30 7339 O 653.768 -4.30982 3.71811 0
M  V30 7340 N 654.97 -5.38912 2.15764 0
M  V30 7341 H 657.735 -1.35188 2.67478 0
M  V30 7342 H 655.296 -0.597468 1.50472 0
M  V30 7343 H 657.288 -3.68056 1.68275 0
M  V30 7344 H 655.858 -3.00441 0.863363 0
M  V30 7345 H 655.078 -2.25492 3.23337 0
M  V30 7346 H 656.366 -3.28156 3.88833 0
M  V30 7347 H 655.764 -5.44008 1.55152 0
M  V30 7348 H 654.321 -6.15174 2.15415 0
M  V30 7349 N 657.755 -1.42862 -0.66545 0
M  V30 7350 C 658.687 -1.43026 -1.79098 0
M  V30 7351 C 659.7 -0.32803 -1.59461 0
M  V30 7352 O 660.889 -0.591709 -1.68407 0
M  V30 7353 C 657.989 -1.21566 -3.16346 0
M  V30 7354 C 657.162 -2.44399 -3.62751 0
M  V30 7355 C 656.221 -2.18344 -4.78761 0
M  V30 7356 O 655.247 -2.91611 -4.88827 0
M  V30 7357 N 656.449 -1.1924 -5.68122 0
M  V30 7358 H 659.214 -2.40045 -1.79439 0
M  V30 7359 H 656.775 -1.37861 -0.848872 0
M  V30 7360 H 658.767 -1.02037 -3.91625 0
M  V30 7361 H 657.337 -0.330368 -3.10849 0
M  V30 7362 H 656.557 -2.79433 -2.78048 0
M  V30 7363 H 657.845 -3.26173 -3.90498 0
M  V30 7364 H 657.243 -0.586603 -5.6265 0
M  V30 7365 H 655.8 -1.05698 -6.43173 0
M  V30 7366 N 659.233 0.902656 -1.29189 0
M  V30 7367 C 660.649 1.18296 -1.07137 0
M  V30 7368 C 660.849 2.00701 0.179223 0
M  V30 7369 O 659.905 2.3675 0.877812 0
M  V30 7370 C 661.218 1.90677 -2.32514 0
M  V30 7371 C 662.766 2.03515 -2.37804 0
M  V30 7372 C 663.241 2.79307 -3.62976 0
M  V30 7373 N 664.732 2.86862 -3.63681 0
M  V30 7374 C 665.467 3.46035 -4.57217 0
M  V30 7375 N 664.963 4.06399 -5.61081 0
M  V30 7376 N 666.756 3.43681 -4.44792 0
M  V30 7377 H 658.907 0.352765 -2.0945 0
M  V30 7378 H 661.17 0.21876 -0.922414 0
M  V30 7379 H 660.876 1.3756 -3.23682 0
M  V30 7380 H 660.75 2.91169 -2.39793 0
M  V30 7381 H 663.137 2.55809 -1.47125 0
M  V30 7382 H 663.218 1.02166 -2.34512 0
M  V30 7383 H 662.862 2.2769 -4.54004 0
M  V30 7384 H 662.792 3.80995 -3.63525 0
M  V30 7385 H 665.283 2.43987 -2.88581 0
M  V30 7386 H 665.596 4.49564 -6.2858 0
M  V30 7387 H 663.941 4.0487 -5.64894 0
M  V30 7388 H 667.132 2.9574 -3.62843 0
M  V30 7389 H 667.305 3.89503 -5.17872 0
M  V30 7390 N 660.711 1.11618 1.11262 0
M  V30 7391 C 661.661 0.745274 2.15475 0
M  V30 7392 C 662.645 -0.251585 1.58921 0
M  V30 7393 O 663.837 -0.0584093 1.76904 0
M  V30 7394 C 660.966 0.192128 3.42762 0
M  V30 7395 C 660.052 1.21676 4.0627 0
M  V30 7396 N 660.443 2.41158 4.44608 0
M  V30 7397 C 658.741 1.06013 4.33217 0
M  V30 7398 C 659.442 3.0652 4.94389 0
M  V30 7399 N 658.418 2.33994 4.9066 0
M  V30 7400 H 662.22 1.65462 2.42898 0
M  V30 7401 H 659.734 0.995695 1.28295 0
M  V30 7402 H 661.731 -0.0917339 4.16799 0
M  V30 7403 H 660.391 -0.711778 3.16802 0
M  V30 7404 H 661.402 2.786 4.3658 0
M  V30 7405 H 658.079 0.212809 4.16957 0
M  V30 7406 H 659.469 4.08225 5.33669 0
M  V30 7407 N 662.189 -1.289 0.906776 0
M  V30 7408 C 663.437 -1.94883 0.535266 0
M  V30 7409 C 663.758 -1.71784 -0.922791 0
M  V30 7410 O 663.028 -1.05359 -1.65156 0
M  V30 7411 H 661.608 -0.721109 0.194962 0
M  V30 7412 H 664.27 -1.57018 1.15461 0
M  V30 7413 H 663.366 -3.03591 0.723821 0
M  V30 7414 N 663.667 -0.670007 -1.42649 0
M  V30 7415 C 664.577 0.0114788 -2.34597 0
M  V30 7416 C 665.593 0.794055 -1.54825 0
M  V30 7417 O 666.769 0.737472 -1.87412 0
M  V30 7418 C 663.834 0.954436 -3.33304 0
M  V30 7419 C 662.895 0.166925 -4.28975 0
M  V30 7420 C 662.128 1.06497 -5.22967 0
M  V30 7421 O 662.351 2.30446 -5.21777 0
M  V30 7422 O 661.285 0.528347 -5.99577 0
M  V30 7423 H 665.111 -0.745794 -2.944 0
M  V30 7424 H 662.696 -0.430228 -1.43071 0
M  V30 7425 H 664.578 1.49589 -3.93956 0
M  V30 7426 H 663.253 1.69164 -2.7598 0
M  V30 7427 H 662.16 -0.418515 -3.71752 0
M  V30 7428 H 663.493 -0.531067 -4.89327 0
M  V30 7429 N 665.145 1.52092 -0.413018 0
M  V30 7430 C 666.561 1.59471 -0.0640836 0
M  V30 7431 C 666.761 1.42562 1.42402 0
M  V30 7432 O 665.817 1.25453 2.19129 0
M  V30 7433 C 667.13 2.95392 -0.562474 0
M  V30 7434 C 668.678 3.08637 -0.520788 0
M  V30 7435 C 669.153 4.47044 -0.995752 0
M  V30 7436 N 670.644 4.53296 -0.952732 0
M  V30 7437 C 671.379 5.58669 -1.29138 0
M  V30 7438 N 670.875 6.71576 -1.70168 0
M  V30 7439 N 672.668 5.48898 -1.2111 0
M  V30 7440 H 664.819 1.6133 -1.38153 0
M  V30 7441 H 667.082 0.75916 -0.567785 0
M  V30 7442 H 666.788 3.13059 -1.60271 0
M  V30 7443 H 666.662 3.77191 0.0257875 0
M  V30 7444 H 669.049 2.90652 0.510412 0
M  V30 7445 H 669.13 2.28735 -1.14515 0
M  V30 7446 H 668.774 4.65773 -2.0253 0
M  V30 7447 H 668.704 5.25448 -0.348162 0
M  V30 7448 H 671.195 3.72248 -0.651119 0
M  V30 7449 H 671.508 7.47973 -1.9431 0
M  V30 7450 H 669.853 6.72847 -1.74075 0
M  V30 7451 H 673.044 4.59573 -0.889396 0
M  V30 7452 H 673.217 6.30912 -1.47833 0
M  V30 7453 N 666.623 0.143563 1.56945 0
M  V30 7454 C 667.851 -0.515447 2.00377 0
M  V30 7455 C 668.266 -1.58643 1.02361 0
M  V30 7456 O 667.623 -1.82489 0.0201039 0
M  V30 7457 C 667.674 -1.11923 3.43737 0
M  V30 7458 O 667.395 -0.0910318 4.38005 0
M  V30 7459 C 668.896 -1.85918 4.02429 0
M  V30 7460 H 666.116 -0.134478 0.657386 0
M  V30 7461 H 668.66 0.237135 2.0312 0
M  V30 7462 H 666.815 -1.82245 3.41856 0
M  V30 7463 H 667.229 -0.532916 5.21786 0
M  V30 7464 H 668.703 -2.2346 5.04747 0
M  V30 7465 H 669.18 -2.7438 3.42947 0
M  V30 7466 H 669.786 -1.20303 4.07931 0
M  V30 7467 N 668.101 -1.57061 -0.130224 0
M  V30 7468 C 669.512 -1.73539 -0.68856 0
M  V30 7469 C 669.863 -0.760554 -1.80859 0
M  V30 7470 O 668.988 0.0690796 -2.1629 0
M  V30 7471 C 669.583 -3.14666 -1.25581 0
M  V30 7472 C 668.142 -3.32689 -1.76055 0
M  V30 7473 C 667.289 -2.69436 -0.655712 0
M  V30 7474 H 670.24 -1.58412 0.0956002 0
M  V30 7475 H 670.261 -3.15595 -2.12556 0
M  V30 7476 H 669.773 -3.85593 -0.440412 0
M  V30 7477 H 667.874 -2.66786 -2.60108 0
M  V30 7478 H 667.987 -4.4077 -1.87772 0
M  V30 7479 H 666.351 -2.30362 -1.08654 0
M  V30 7480 H 667.134 -3.42979 0.14852 0
M  V30 7481 N 669.579 0.400081 -1.52437 0
M  V30 7482 C 670.809 1.16598 -1.70553 0
M  V30 7483 C 671.217 1.8451 -0.418665 0
M  V30 7484 O 670.56 1.73069 0.615855 0
M  V30 7485 C 670.622 2.26517 -2.7916 0
M  V30 7486 C 670.286 1.78666 -4.20628 0
M  V30 7487 C 671.283 1.26946 -5.04163 0
M  V30 7488 C 668.968 1.85225 -4.66902 0
M  V30 7489 C 670.962 0.824187 -6.32049 0
M  V30 7490 C 668.649 1.40309 -5.94774 0
M  V30 7491 C 669.647 0.889922 -6.77178 0
M  V30 7492 O 669.335 0.447281 -8.02655 0
M  V30 7493 H 669.067 0.356023 -0.574651 0
M  V30 7494 H 671.621 0.475598 -1.99818 0
M  V30 7495 H 669.851 2.98946 -2.45292 0
M  V30 7496 H 671.54 2.88237 -2.85787 0
M  V30 7497 H 672.306 1.21244 -4.69601 0
M  V30 7498 H 668.185 2.24111 -4.02859 0
M  V30 7499 H 671.729 0.422958 -6.96317 0
M  V30 7500 H 667.626 1.45693 -6.28843 0
M  V30 7501 H 668.394 0.569768 -8.16514 0
M  V30 7502 N 671.057 1.43213 0.657864 0
M  V30 7503 C 672.303 1.44798 1.41991 0
M  V30 7504 C 672.636 0.070256 1.94073 0
M  V30 7505 O 671.911 -0.908177 1.71995 0
M  V30 7506 C 672.194 2.4865 2.60471 0
M  V30 7507 C 672.047 3.95679 2.13911 0
M  V30 7508 C 673.366 2.49292 3.62686 0
M  V30 7509 H 670.485 0.527244 0.514959 0
M  V30 7510 H 673.127 1.74733 0.74621 0
M  V30 7511 H 671.277 2.23254 3.17946 0
M  V30 7512 H 672.949 4.32116 1.61472 0
M  V30 7513 H 671.192 4.08733 1.45325 0
M  V30 7514 H 671.863 4.6395 2.99089 0
M  V30 7515 H 674.339 2.71917 3.14961 0
M  V30 7516 H 673.215 3.23907 4.43143 0
M  V30 7517 H 673.476 1.52502 4.14964 0
M  V30 7518 N 672.536 -0.895792 1.29666 0
M  V30 7519 C 673.466 -2.01673 1.17688 0
M  V30 7520 C 674.447 -1.69955 0.0701317 0
M  V30 7521 O 675.632 -1.9258 0.250289 0
M  V30 7522 C 672.762 -3.36568 0.856681 0
M  V30 7523 C 671.716 -3.82509 1.92017 0
M  V30 7524 C 671.042 -5.14574 1.4532 0
M  V30 7525 C 672.342 -4.02409 3.32963 0
M  V30 7526 H 674.036 -2.11953 2.11463 0
M  V30 7527 H 671.582 -1.01839 1.01807 0
M  V30 7528 H 673.535 -4.14498 0.759577 0
M  V30 7529 H 672.259 -3.26391 -0.116763 0
M  V30 7530 H 670.918 -3.068 2.00673 0
M  V30 7531 H 670.566 -5.00815 0.468325 0
M  V30 7532 H 670.266 -5.46283 2.16447 0
M  V30 7533 H 671.79 -5.9504 1.36968 0
M  V30 7534 H 673.204 -4.70808 3.27127 0
M  V30 7535 H 671.601 -4.45478 4.02082 0
M  V30 7536 H 672.671 -3.06616 3.75652 0
M  V30 7537 N 674.014 -1.12206 -1.10668 0
M  V30 7538 C 675.43 -0.857619 -1.346 0
M  V30 7539 C 675.63 0.513542 -1.94846 0
M  V30 7540 O 674.686 1.26273 -2.18658 0
M  V30 7541 C 675.999 -1.97212 -2.26998 0
M  V30 7542 C 677.547 -2.00272 -2.40542 0
M  V30 7543 C 678.022 -3.10948 -3.36267 0
M  V30 7544 N 679.513 -3.10375 -3.43834 0
M  V30 7545 C 680.248 -3.92651 -4.17867 0
M  V30 7546 N 679.744 -4.84911 -4.94807 0
M  V30 7547 N 681.537 -3.80798 -4.1346 0
M  V30 7548 H 673.688 -2.00558 -0.699306 0
M  V30 7549 H 675.951 -0.872612 -0.370477 0
M  V30 7550 H 675.657 -2.96002 -1.89936 0
M  V30 7551 H 675.531 -1.87521 -3.27286 0
M  V30 7552 H 677.918 -1.02103 -2.76874 0
M  V30 7553 H 677.999 -2.14037 -1.40077 0
M  V30 7554 H 677.643 -4.09348 -3.00661 0
M  V30 7555 H 677.573 -2.94421 -4.36605 0
M  V30 7556 H 680.064 -2.43536 -2.88961 0
M  V30 7557 H 680.377 -5.44207 -5.48688 0
M  V30 7558 H 678.722 -4.88926 -4.93939 0
M  V30 7559 H 681.913 -3.08058 -3.52445 0
M  V30 7560 H 682.086 -4.4515 -4.70898 0
M  V30 7561 N 675.492 1.28418 -0.913599 0
M  V30 7562 C 676.732 1.96756 -0.553771 0
M  V30 7563 C 677.096 1.70334 0.886013 0
M  V30 7564 O 678.297 2.32242 1.35341 0
M  V30 7565 C 676.568 3.47041 -0.854249 0
M  V30 7566 S 678.127 4.34667 -0.600816 0
M  V30 7567 H 674.945 0.680831 -0.204915 0
M  V30 7568 H 677.547 1.55947 -1.17902 0
M  V30 7569 H 676.251 3.63766 -1.90007 0
M  V30 7570 H 675.782 3.92797 -0.217651 0
M  V30 7571 H 677.797 4.93166 0.547906 0
M  V30 7572 N 676.97 0.677563 1.42291 0
M  V30 7573 C 677.9 0.014968 2.33495 0
M  V30 7574 C 678.881 -0.786376 1.50831 0
M  V30 7575 O 680.066 -0.742975 1.79426 0
M  V30 7576 C 677.196 -0.935023 3.34477 0
M  V30 7577 C 676.15 -0.242074 4.27315 0
M  V30 7578 C 675.476 -1.30519 5.18526 0
M  V30 7579 C 676.776 0.880604 5.14823 0
M  V30 7580 H 678.47 0.776671 2.89151 0
M  V30 7581 H 676.016 0.37494 1.39033 0
M  V30 7582 H 677.969 -1.40766 3.97194 0
M  V30 7583 H 676.693 -1.72818 2.77131 0
M  V30 7584 H 675.352 0.210351 3.65996 0
M  V30 7585 H 675 -2.09041 4.57505 0
M  V30 7586 H 674.7 -0.846652 5.81468 0
M  V30 7587 H 676.224 -1.7787 5.84119 0
M  V30 7588 H 677.638 0.489062 5.7121 0
M  V30 7589 H 676.035 1.26511 5.86613 0
M  V30 7590 H 677.105 1.72818 4.53059 0
M  V30 7591 N 678.448 -1.51871 0.421078 0
M  V30 7592 C 679.676 -2.06356 -0.14994 0
M  V30 7593 C 680.091 -1.29006 -1.37851 0
M  V30 7594 O 679.448 -0.345139 -1.79207 0
M  V30 7595 C 679.499 -3.58185 -0.488454 0
M  V30 7596 O 679.22 -4.32611 0.691341 0
M  V30 7597 C 680.721 -4.29129 -1.11191 0
M  V30 7598 H 677.941 -0.67083 -0.0151186 0
M  V30 7599 H 680.485 -1.95638 0.595476 0
M  V30 7600 H 678.64 -3.68871 -1.18376 0
M  V30 7601 H 679.054 -5.22927 0.405906 0
M  V30 7602 H 680.528 -5.36501 -1.29889 0
M  V30 7603 H 681.005 -3.86371 -2.0884 0
M  V30 7604 H 681.611 -4.22843 -0.456458 0
M  V30 7605 N 679.926 -0.151884 -1.56866 0
M  V30 7606 C 680.836 0.798876 -2.20579 0
M  V30 7607 C 681.852 1.268 -1.19154 0
M  V30 7608 O 683.028 1.32418 -1.51748 0
M  V30 7609 C 680.093 2.01861 -2.81874 0
M  V30 7610 C 679.154 1.59825 -3.9844 0
M  V30 7611 C 678.387 2.75984 -4.56802 0
M  V30 7612 O 678.61 3.92331 -4.14044 0
M  V30 7613 O 677.544 2.51175 -5.46987 0
M  V30 7614 H 681.37 0.2865 -3.02346 0
M  V30 7615 H 678.955 0.0753806 -1.4921 0
M  V30 7616 H 680.837 2.73235 -3.20813 0
M  V30 7617 H 679.512 2.52042 -2.03117 0
M  V30 7618 H 678.419 0.854601 -3.64208 0
M  V30 7619 H 679.752 1.14355 -4.78731 0
M  V30 7620 N 681.404 1.57128 0.121893 0
M  V30 7621 C 682.65 1.84974 0.831418 0
M  V30 7622 C 682.983 0.737204 1.79663 0
M  V30 7623 O 682.258 -0.257199 1.92792 0
M  V30 7624 C 682.541 3.23397 1.58386 0
M  V30 7625 C 682.394 4.45246 0.638445 0
M  V30 7626 C 683.713 3.59355 2.54071 0
M  V30 7627 H 680.832 0.67282 0.300803 0
M  V30 7628 H 683.474 1.89759 0.0957587 0
M  V30 7629 H 681.624 3.19449 2.21098 0
M  V30 7630 H 683.296 4.61295 0.0203925 0
M  V30 7631 H 681.539 4.33771 -0.05023 0
M  V30 7632 H 682.21 5.38765 1.20151 0
M  V30 7633 H 684.686 3.64075 2.01465 0
M  V30 7634 H 683.562 4.57193 3.03752 0
M  V30 7635 H 683.823 2.86622 3.36601 0
M  V30 7636 N 682.882 -0.391992 1.52647 0
M  V30 7637 C 683.845 -1.46135 1.7657 0
M  V30 7638 C 684.845 -1.47701 0.635698 0
M  V30 7639 O 686.035 -1.48924 0.903728 0
M  V30 7640 C 683.167 -2.85443 1.86374 0
M  V30 7641 H 684.36 -1.26208 2.72051 0
M  V30 7642 H 681.913 -0.623549 1.43323 0
M  V30 7643 H 682.648 -3.10718 0.928685 0
M  V30 7644 H 682.433 -2.85708 2.68539 0
M  V30 7645 H 683.923 -3.62933 2.06566 0
M  V30 7646 N 684.36 -1.4356 -0.65026 0
M  V30 7647 C 685.29 -1.51758 -1.77459 0
M  V30 7648 C 686.271 -0.372019 -1.65982 0
M  V30 7649 O 687.456 -0.589627 -1.85033 0
M  V30 7650 C 684.586 -1.44302 -3.15902 0
M  V30 7651 C 683.54 -2.57138 -3.42146 0
M  V30 7652 C 682.866 -2.34735 -4.8042 0
M  V30 7653 C 684.166 -3.99373 -3.36598 0
M  V30 7654 H 685.86 -2.45863 -1.70855 0
M  V30 7655 H 683.406 -1.18333 -0.820566 0
M  V30 7656 H 685.359 -1.48641 -3.94314 0
M  V30 7657 H 684.083 -0.467026 -3.23244 0
M  V30 7658 H 682.742 -2.52157 -2.66106 0
M  V30 7659 H 682.39 -1.35372 -4.84441 0
M  V30 7660 H 682.09 -3.10375 -4.9894 0
M  V30 7661 H 683.614 -2.40862 -5.61086 0
M  V30 7662 H 685.028 -4.05826 -4.04942 0
M  V30 7663 H 683.425 -4.75063 -3.66654 0
M  V30 7664 H 684.495 -4.243 -2.34729 0
M  V30 7665 N 685.838 0.888903 -1.30139 0
M  V30 7666 C 687.078 1.65456 -1.20015 0
M  V30 7667 C 687.442 1.90467 0.242148 0
M  V30 7668 O 688.643 2.6472 0.466561 0
M  V30 7669 C 686.914 2.96071 -2.00191 0
M  V30 7670 S 688.473 3.87055 -2.06721 0
M  V30 7671 H 685.291 0.567927 -0.427761 0
M  V30 7672 H 687.893 1.05539 -1.64565 0
M  V30 7673 H 686.597 2.7559 -3.04103 0
M  V30 7674 H 686.128 3.61023 -1.56288 0
M  V30 7675 H 688.143 4.81676 -1.19174 0
M  V30 7676 N 687.317 1.12792 1.10072 0
M  V30 7677 C 688.249 0.757003 2.16338 0
M  V30 7678 C 689.262 -0.218144 1.61332 0
M  V30 7679 O 690.451 0.0010727 1.785 0
M  V30 7680 C 687.551 0.100303 3.38752 0
M  V30 7681 C 686.724 1.10586 4.2319 0
M  V30 7682 C 685.783 0.47609 5.24042 0
M  V30 7683 O 684.809 1.13418 5.57786 0
M  V30 7684 N 686.011 -0.754823 5.75572 0
M  V30 7685 H 688.776 1.6714 2.48766 0
M  V30 7686 H 686.337 1.02003 1.25726 0
M  V30 7687 H 688.329 -0.333092 4.03327 0
M  V30 7688 H 686.899 -0.716915 3.04268 0
M  V30 7689 H 686.119 1.71677 3.54853 0
M  V30 7690 H 687.407 1.78571 4.76435 0
M  V30 7691 H 686.805 -1.30838 5.50362 0
M  V30 7692 H 685.362 -1.13098 6.41913 0
M  V30 7693 N 688.795 -1.27931 0.920396 0
M  V30 7694 C 690.072 -1.89728 0.475687 0
M  V30 7695 C 690.452 -1.8337 -1.04588 0
M  V30 7696 O 689.8 -1.27404 -1.89685 0
M  V30 7697 C 690.01 -3.33959 1.01354 0
M  V30 7698 C 691.358 -4.10907 1.06963 0
M  V30 7699 O 692.382 -3.42945 0.962646 0
M  V30 7700 O 691.241 -5.32399 1.23343 0
M  V30 7701 H 688.335 -0.81294 0.151845 0
M  V30 7702 H 690.881 -1.36252 1.01161 0
M  V30 7703 H 689.653 -3.32843 2.05746 0
M  V30 7704 H 689.276 -3.94944 0.458829 0
M  V30 7705 N 690.273 -0.685099 -1.4193 0
M  V30 7706 C 691.22 -0.0131869 -2.30796 0
M  V30 7707 C 692.19 0.782129 -1.46533 0
M  V30 7708 O 693.375 0.75229 -1.75343 0
M  V30 7709 C 690.515 0.924768 -3.32479 0
M  V30 7710 C 689.628 0.122181 -4.31827 0
M  V30 7711 C 688.763 1.05682 -5.20581 0
M  V30 7712 C 687.802 0.246526 -6.11603 0
M  V30 7713 N 686.939 1.13442 -6.92875 0
M  V30 7714 H 691.779 -0.776789 -2.87698 0
M  V30 7715 H 689.316 -0.394791 -1.41703 0
M  V30 7716 H 691.274 1.48251 -3.89971 0
M  V30 7717 H 689.904 1.65488 -2.77152 0
M  V30 7718 H 688.956 -0.552335 -3.76369 0
M  V30 7719 H 690.268 -0.506473 -4.96222 0
M  V30 7720 H 689.422 1.68415 -5.82856 0
M  V30 7721 H 688.161 1.71935 -4.56388 0
M  V30 7722 H 687.166 -0.393944 -5.48387 0
M  V30 7723 H 688.391 -0.412053 -6.77849 0
M  V30 7724 H 686.337 1.78316 -6.313 0
M  V30 7725 H 686.254 0.561089 -7.53915 0
M  V30 7726 H 687.522 1.74889 -7.59628 0
M  V30 7727 N 691.751 1.51645 -0.429126 0
M  V30 7728 C 693.167 1.59394 -0.080994 0
M  V30 7729 C 693.367 1.44064 1.40882 0
M  V30 7730 O 692.423 1.27771 2.17786 0
M  V30 7731 C 693.736 2.94779 -0.593773 0
M  V30 7732 C 695.284 3.08067 -0.553494 0
M  V30 7733 C 695.759 4.45963 -1.04311 0
M  V30 7734 N 697.25 4.5226 -1.00076 0
M  V30 7735 C 697.985 5.57268 -1.35056 0
M  V30 7736 N 697.481 6.69734 -1.77282 0
M  V30 7737 N 699.274 5.47582 -1.26925 0
M  V30 7738 H 691.425 1.59856 -1.39857 0
M  V30 7739 H 693.688 0.753095 -0.575805 0
M  V30 7740 H 693.394 3.11342 -1.63583 0
M  V30 7741 H 693.268 3.77197 -0.0142202 0
M  V30 7742 H 695.655 2.91177 0.479556 0
M  V30 7743 H 695.736 2.27508 -1.16935 0
M  V30 7744 H 695.38 4.63598 -2.07459 0
M  V30 7745 H 695.31 5.25049 -0.403873 0
M  V30 7746 H 697.801 3.71537 -0.690564 0
M  V30 7747 H 698.114 7.4587 -2.02232 0
M  V30 7748 H 696.459 6.70963 -1.81202 0
M  V30 7749 H 699.65 4.58604 -0.93809 0
M  V30 7750 H 699.823 6.29308 -1.54516 0
M  V30 7751 N 693.229 0.160201 1.56784 0
M  V30 7752 C 694.454 -0.497373 2.01348 0
M  V30 7753 C 694.879 -1.56757 1.03966 0
M  V30 7754 O 694.237 -1.81292 0.0174455 0
M  V30 7755 C 694.285 -1.0628 3.44582 0
M  V30 7756 O 693.389 -2.17723 3.50244 0
M  V30 7757 H 692.73 -0.120295 0.653012 0
M  V30 7758 H 695.26 0.260821 2.02931 0
M  V30 7759 H 695.27 -1.38819 3.83658 0
M  V30 7760 H 693.945 -0.279166 4.14962 0
M  V30 7761 H 692.522 -1.86313 3.2302 0
M  V30 7762 N 694.707 -1.5719 -0.113559 0
M  V30 7763 C 695.655 -2.01725 -1.158 0
M  V30 7764 C 696.649 -0.915105 -1.42556 0
M  V30 7765 O 697.855 -1.10031 -1.42454 0
M  V30 7766 H 694.23 -0.64262 -0.390569 0
M  V30 7767 H 696.201 -2.88666 -0.755926 0
M  V30 7768 C 694.95 -2.44203 -2.47507 0
M  V30 7769 H 694.273 -3.28582 -2.27758 0
M  V30 7770 H 695.713 -2.79158 -3.19135 0
M  V30 7771 C 694.172 -1.30785 -3.10478 0
M  V30 7772 O 694.702 -0.626807 -3.9678 0
M  V30 7773 N 692.908 -1.06352 -2.7044 0
M  V30 7774 H 692.455 -1.61913 -2.00355 0
M  V30 7775 H 692.413 -0.306614 -3.12901 0
M  V30 7776 N 696.185 0.383891 -1.52853 0
M  V30 7777 C 697.115 1.47559 -1.80965 0
M  V30 7778 C 698.096 1.5669 -0.661986 0
M  V30 7779 O 699.281 1.71556 -0.910072 0
M  V30 7780 C 696.411 2.85114 -1.98312 0
M  V30 7781 C 695.365 2.9082 -3.14019 0
M  V30 7782 C 694.691 4.30873 -3.16627 0
M  V30 7783 C 695.991 2.60001 -4.52986 0
M  V30 7784 H 697.685 1.24283 -2.72386 0
M  V30 7785 H 695.231 0.596445 -1.31067 0
M  V30 7786 H 697.184 3.61496 -2.16561 0
M  V30 7787 H 695.908 3.09738 -1.03585 0
M  V30 7788 H 694.567 2.16886 -2.9556 0
M  V30 7789 H 694.215 4.52545 -2.19573 0
M  V30 7790 H 693.915 4.3561 -3.94357 0
M  V30 7791 H 695.439 5.09154 -3.37038 0
M  V30 7792 H 696.853 3.261 -4.71521 0
M  V30 7793 H 695.25 2.76081 -5.32822 0
M  V30 7794 H 696.32 1.5532 -4.59351 0
M  V30 7795 N 697.663 1.43903 0.642637 0
M  V30 7796 C 698.573 1.52349 1.78401 0
M  V30 7797 C 699.589 0.409869 1.69104 0
M  V30 7798 O 700.765 0.665548 1.90085 0
M  V30 7799 C 697.83 1.45408 3.14734 0
M  V30 7800 C 696.891 2.67528 3.35749 0
M  V30 7801 C 696.124 2.60909 4.65577 0
M  V30 7802 O 696.347 1.6627 5.45628 0
M  V30 7803 O 695.281 3.5158 4.88544 0
M  V30 7804 H 699.107 2.48752 1.7423 0
M  V30 7805 H 696.692 1.26021 0.802439 0
M  V30 7806 H 698.574 1.44019 3.96026 0
M  V30 7807 H 697.249 0.521437 3.19473 0
M  V30 7808 H 696.156 2.74487 2.5418 0
M  V30 7809 H 697.489 3.598 3.35864 0
M  V30 7810 N 699.141 -0.881989 1.30609 0
M  V30 7811 C 700.366 -1.67236 1.22665 0
M  V30 7812 C 700.791 -1.8696 -0.206777 0
M  V30 7813 O 700.149 -1.4027 -1.14865 0
M  V30 7814 C 700.197 -3.02446 1.96363 0
M  V30 7815 O 699.301 -3.91614 1.29276 0
M  V30 7816 H 698.642 -0.510902 0.424117 0
M  V30 7817 H 701.172 -1.10055 1.72479 0
M  V30 7818 H 701.182 -3.52468 2.055 0
M  V30 7819 H 699.857 -2.8741 3.00613 0
M  V30 7820 H 698.434 -3.50055 1.28514 0
M  V30 7821 N 700.619 -1.13374 -1.09472 0
M  V30 7822 C 701.844 -0.918711 -1.85942 0
M  V30 7823 C 702.269 0.527225 -1.8056 0
M  V30 7824 O 701.627 1.37408 -1.18274 0
M  V30 7825 C 701.675 -1.41056 -3.31867 0
M  V30 7826 O 700.779 -0.595496 -4.08078 0
M  V30 7827 H 700.12 -0.329297 -0.576593 0
M  V30 7828 H 702.65 -1.50829 -1.38245 0
M  V30 7829 H 702.66 -1.41398 -3.82715 0
M  V30 7830 H 701.335 -2.46335 -3.35099 0
M  V30 7831 H 699.912 -0.659911 -3.67014 0
M  V30 7832 N 702.098 1.27442 -0.927168 0
M  V30 7833 C 703.03 2.25975 -0.383158 0
M  V30 7834 C 704.043 1.55382 0.485832 0
M  V30 7835 O 705.232 1.75986 0.298541 0
M  V30 7836 C 702.332 3.35629 0.469688 0
M  V30 7837 C 701.505 4.35747 -0.379886 0
M  V30 7838 C 700.564 5.24598 0.410227 0
M  V30 7839 O 699.59 5.68909 -0.181888 0
M  V30 7840 N 700.792 5.54737 1.71017 0
M  V30 7841 H 703.557 2.7329 -1.23015 0
M  V30 7842 H 701.118 1.41063 -0.794539 0
M  V30 7843 H 703.11 3.92015 1.00532 0
M  V30 7844 H 701.68 2.87919 1.21744 0
M  V30 7845 H 700.9 3.78634 -1.09682 0
M  V30 7846 H 702.188 4.99648 -0.960717 0
M  V30 7847 H 701.586 5.20594 2.21356 0
M  V30 7848 H 700.143 6.13824 2.19234 0
M  V30 7849 N 703.576 0.692616 1.41565 0
M  V30 7850 C 704.523 0.0254264 2.30786 0
M  V30 7851 C 705.493 -0.774347 1.46946 0
M  V30 7852 O 706.678 -0.742981 1.7574 0
M  V30 7853 C 703.818 -0.907123 3.32964 0
M  V30 7854 C 702.931 -0.0992784 4.31886 0
M  V30 7855 C 702.066 -1.0292 5.21134 0
M  V30 7856 C 701.105 -0.214088 6.11725 0
M  V30 7857 N 700.242 -1.09766 6.93467 0
M  V30 7858 H 705.082 0.792036 2.87282 0
M  V30 7859 H 702.619 0.4023 1.41492 0
M  V30 7860 H 704.577 -1.46181 3.90752 0
M  V30 7861 H 703.207 -1.64016 2.78026 0
M  V30 7862 H 702.259 0.572287 3.76071 0
M  V30 7863 H 703.571 0.532782 4.95946 0
M  V30 7864 H 702.725 -1.65321 5.83741 0
M  V30 7865 H 701.464 -1.69512 4.57293 0
M  V30 7866 H 700.469 0.42302 5.4817 0
M  V30 7867 H 701.694 0.447995 6.77621 0
M  V30 7868 H 699.64 -1.74965 6.32237 0
M  V30 7869 H 699.557 -0.521099 7.54202 0
M  V30 7870 H 700.825 -1.70858 7.60544 0
M  V30 7871 N 705.054 -1.51416 0.437162 0
M  V30 7872 C 706.279 -2.0699 -0.130424 0
M  V30 7873 C 706.704 -1.30249 -1.35709 0
M  V30 7874 O 706.062 -0.340388 -1.78076 0
M  V30 7875 C 706.11 -3.5801 -0.43142 0
M  V30 7876 O 705.214 -3.8345 -1.5179 0
M  V30 7877 H 704.555 -0.663997 -0.00194339 0
M  V30 7878 H 707.085 -1.95029 0.618445 0
M  V30 7879 H 707.095 -4.02261 -0.681926 0
M  V30 7880 H 705.77 -4.13291 0.465137 0
M  V30 7881 H 704.347 -3.51062 -1.25737 0
M  V30 7882 N 706.532 -0.168513 -1.56696 0
M  V30 7883 C 707.809 0.523367 -1.88468 0
M  V30 7884 C 708.189 1.81503 -1.07796 0
M  V30 7885 O 707.537 2.27859 -0.171045 0
M  V30 7886 C 707.747 0.767991 -3.40445 0
M  V30 7887 C 709.095 1.09924 -4.10124 0
M  V30 7888 O 710.119 0.856625 -3.45746 0
M  V30 7889 O 708.978 1.55681 -5.23856 0
M  V30 7890 H 706.072 0.269447 -0.781874 0
M  V30 7891 H 708.618 -0.206739 -1.68436 0
M  V30 7892 H 707.39 -0.145254 -3.9103 0
M  V30 7893 H 707.013 1.55151 -3.66079 0
M  V30 7894 N 708.01 1.57248 0.105221 0
M  V30 7895 C 708.94 2.04374 1.12931 0
M  V30 7896 C 709.921 0.93074 1.42377 0
M  V30 7897 O 711.106 1.20136 1.52581 0
M  V30 7898 C 708.236 2.45967 2.45189 0
M  V30 7899 C 707.19 3.60838 2.30174 0
M  V30 7900 C 706.516 3.88374 3.67518 0
M  V30 7901 C 707.816 4.92084 1.75073 0
M  V30 7902 H 709.51 2.9018 0.737287 0
M  V30 7903 H 707.056 1.39601 0.353211 0
M  V30 7904 H 709.009 2.77542 3.17094 0
M  V30 7905 H 707.733 1.57148 2.86308 0
M  V30 7906 H 706.392 3.29493 1.60716 0
M  V30 7907 H 706.04 2.96739 4.06147 0
M  V30 7908 H 705.74 4.65703 3.58321 0
M  V30 7909 H 707.264 4.22415 4.40906 0
M  V30 7910 H 708.678 5.22106 2.36809 0
M  V30 7911 H 707.075 5.73507 1.76662 0
M  V30 7912 H 708.145 4.79684 0.709347 0
M  V30 7913 N 709.488 -0.375779 1.53054 0
M  V30 7914 C 710.418 -1.46598 1.81745 0
M  V30 7915 C 711.399 -1.56337 0.670286 0
M  V30 7916 O 712.584 -1.71071 0.919158 0
M  V30 7917 C 709.714 -2.84058 1.99821 0
M  V30 7918 C 708.668 -2.8915 3.15557 0
M  V30 7919 C 707.994 -4.29187 3.18908 0
M  V30 7920 C 709.294 -2.57595 4.54359 0
M  V30 7921 H 710.988 -1.22837 2.73041 0
M  V30 7922 H 708.534 -0.589485 1.31381 0
M  V30 7923 H 710.487 -3.60342 2.18475 0
M  V30 7924 H 709.211 -3.09184 1.05226 0
M  V30 7925 H 707.87 -2.15316 2.96706 0
M  V30 7926 H 707.518 -4.51374 2.2197 0
M  V30 7927 H 707.218 -4.33512 3.96662 0
M  V30 7928 H 708.742 -5.07359 3.39734 0
M  V30 7929 H 710.156 -3.23595 4.73243 0
M  V30 7930 H 708.553 -2.73252 5.34279 0
M  V30 7931 H 709.623 -1.52882 4.60169 0
M  V30 7932 N 710.966 -1.44241 -0.634997 0
M  V30 7933 C 711.913 -1.5081 -1.74714 0
M  V30 7934 C 712.883 -0.356147 -1.62237 0
M  V30 7935 O 714.068 -0.565848 -1.82216 0
M  V30 7936 C 711.208 -1.45458 -3.12947 0
M  V30 7937 C 710.321 -2.70998 -3.36428 0
M  V30 7938 C 709.456 -2.57507 -4.64611 0
M  V30 7939 C 708.495 -3.78229 -4.81258 0
M  V30 7940 N 707.632 -3.63438 -6.00714 0
M  V30 7941 H 712.472 -2.45832 -1.68436 0
M  V30 7942 H 710.009 -1.2201 -0.821706 0
M  V30 7943 H 711.967 -1.40347 -3.92885 0
M  V30 7944 H 710.597 -0.540058 -3.1825 0
M  V30 7945 H 709.649 -2.86312 -2.50458 0
M  V30 7946 H 710.961 -3.60619 -3.44609 0
M  V30 7947 H 710.115 -2.50207 -5.52703 0
M  V30 7948 H 708.854 -1.65441 -4.58782 0
M  V30 7949 H 707.859 -3.85918 -3.91596 0
M  V30 7950 H 709.084 -4.71327 -4.88904 0
M  V30 7951 H 707.03 -2.7412 -5.95982 0
M  V30 7952 H 706.947 -4.46672 -6.09934 0
M  V30 7953 H 708.215 -3.60022 -6.91378 0
M  V30 7954 N 712.444 0.87505 -1.31075 0
M  V30 7955 C 713.374 1.99775 -1.20881 0
M  V30 7956 C 714.355 1.69822 -0.0971612 0
M  V30 7957 O 715.54 1.92158 -0.280895 0
M  V30 7958 C 712.67 3.35163 -0.910118 0
M  V30 7959 C 711.624 3.79406 -1.98078 0
M  V30 7960 C 710.95 5.12197 -1.53488 0
M  V30 7961 C 712.25 3.97061 -3.39323 0
M  V30 7962 H 713.944 2.08562 -2.14808 0
M  V30 7963 H 711.49 1.00207 -1.03415 0
M  V30 7964 H 713.443 4.13237 -0.825423 0
M  V30 7965 H 712.167 3.26536 0.064822 0
M  V30 7966 H 710.826 3.03568 -2.05528 0
M  V30 7967 H 710.474 5.00007 -0.547941 0
M  V30 7968 H 710.174 5.4277 -2.2511 0
M  V30 7969 H 711.698 5.92785 -1.46417 0
M  V30 7970 H 713.112 4.65545 -3.34576 0
M  V30 7971 H 711.509 4.39025 -4.09118 0
M  V30 7972 H 712.579 3.00601 -3.80483 0
M  V30 7973 N 713.922 1.13953 1.08869 0
M  V30 7974 C 715.168 0.916103 1.81602 0
M  V30 7975 C 715.523 -0.551633 1.84322 0
M  V30 7976 O 714.816 -1.40322 1.30462 0
M  V30 7977 C 715.01 1.44495 3.26888 0
M  V30 7978 C 714.839 2.96257 3.38322 0
M  V30 7979 C 713.609 3.64658 3.49789 0
M  V30 7980 C 715.807 3.94156 3.30372 0
M  V30 7981 N 713.789 5.04379 3.49965 0
M  V30 7982 C 715.16 5.20101 3.37484 0
M  V30 7983 C 717.215 3.86342 3.14077 0
M  V30 7984 C 715.918 6.39145 3.29979 0
M  V30 7985 C 717.944 5.04927 3.07901 0
M  V30 7986 C 717.306 6.29738 3.1561 0
M  V30 7987 H 713.405 0.388701 0.678554 0
M  V30 7988 H 715.989 1.44879 1.3007 0
M  V30 7989 H 714.16 0.939102 3.76876 0
M  V30 7990 H 715.892 1.16193 3.87661 0
M  V30 7991 H 712.647 3.15196 3.5348 0
M  V30 7992 H 713.071 5.77305 3.53622 0
M  V30 7993 H 717.713 2.90726 3.06982 0
M  V30 7994 H 715.431 7.3501 3.35836 0
M  V30 7995 H 719.017 5.00626 2.9642 0
M  V30 7996 H 717.897 7.19958 3.10854 0
M  V30 7997 N 715.4 -1.26948 0.933913 0
M  V30 7998 C 716.348 -2.2862 0.428463 0
M  V30 7999 C 717.342 -1.62144 -0.490464 0
M  V30 8000 O 718.548 -1.76167 -0.36948 0
M  V30 8001 H 714.923 -0.742363 0.120003 0
M  V30 8002 H 716.894 -2.68659 1.29865 0
M  V30 8003 C 715.643 -3.46423 -0.29774 0
M  V30 8004 H 714.966 -3.97792 0.400183 0
M  V30 8005 H 716.406 -4.19505 -0.615736 0
M  V30 8006 C 714.865 -3.01017 -1.51295 0
M  V30 8007 O 715.395 -3.05226 -2.61151 0
M  V30 8008 N 713.601 -2.56442 -1.36696 0
M  V30 8009 H 713.148 -2.53217 -0.473178 0
M  V30 8010 H 713.106 -2.26424 -2.18127 0
M  V30 8011 N 716.879 -0.700114 -1.41195 0
M  V30 8012 C 717.826 -0.0376652 -2.30769 0
M  V30 8013 C 718.796 0.766544 -1.47354 0
M  V30 8014 O 719.981 0.73365 -1.76131 0
M  V30 8015 C 717.121 0.889452 -3.33441 0
M  V30 8016 C 716.234 0.076373 -4.31932 0
M  V30 8017 C 715.369 1.00155 -5.21673 0
M  V30 8018 C 714.408 0.181644 -6.1183 0
M  V30 8019 N 713.545 1.06087 -6.94039 0
M  V30 8020 H 718.385 -0.80726 -2.86858 0
M  V30 8021 H 715.922 -0.409798 -1.41277 0
M  V30 8022 H 717.88 1.44107 -3.91522 0
M  V30 8023 H 716.51 1.6254 -2.78892 0
M  V30 8024 H 715.562 -0.592223 -3.75762 0
M  V30 8025 H 716.874 -0.559076 -4.95657 0
M  V30 8026 H 716.028 1.62223 -5.8461 0
M  V30 8027 H 714.767 1.67085 -4.58186 0
M  V30 8028 H 713.772 -0.452085 -5.47938 0
M  V30 8029 H 714.997 -0.483925 -6.77374 0
M  V30 8030 H 712.943 1.7161 -6.33156 0
M  V30 8031 H 712.86 0.481094 -7.54468 0
M  V30 8032 H 714.128 1.66822 -7.6144 0
M  V30 8033 N 718.357 1.51182 -0.445186 0
M  V30 8034 C 719.606 2.01342 0.120189 0
M  V30 8035 C 719.919 1.33353 1.43095 0
M  V30 8036 O 721.125 1.74525 2.07974 0
M  V30 8037 C 719.581 3.58925 0.264732 0
M  V30 8038 C 719.189 4.35855 -1.03606 0
M  V30 8039 C 720.933 4.17208 0.783455 0
M  V30 8040 C 718.84 5.85162 -0.856731 0
M  V30 8041 H 717.77 0.752426 0.0486922 0
M  V30 8042 H 720.421 1.74221 -0.576143 0
M  V30 8043 H 718.803 3.82525 1.02425 0
M  V30 8044 H 719.977 4.23997 -1.80452 0
M  V30 8045 H 718.292 3.89062 -1.48391 0
M  V30 8046 H 720.889 5.26475 0.934239 0
M  V30 8047 H 721.232 3.76892 1.768 0
M  V30 8048 H 721.765 3.97715 0.0820346 0
M  V30 8049 H 718.504 6.29904 -1.81388 0
M  V30 8050 H 718.024 5.99663 -0.128206 0
M  V30 8051 H 719.703 6.44963 -0.513027 0
M  V30 8052 N 719.835 0.176821 1.56605 0
M  V30 8053 C 721.081 -0.460868 1.9811 0
M  V30 8054 C 721.436 -1.60488 1.06119 0
M  V30 8055 O 720.729 -1.91329 0.101939 0
M  V30 8056 C 720.923 -0.986208 3.43524 0
M  V30 8057 C 720.752 0.105368 4.49577 0
M  V30 8058 C 719.522 0.556883 5.02222 0
M  V30 8059 C 721.72 0.907756 5.06226 0
M  V30 8060 N 719.702 1.62819 5.91915 0
M  V30 8061 C 721.073 1.82887 5.92412 0
M  V30 8062 C 723.128 0.952221 4.8871 0
M  V30 8063 C 721.831 2.7907 6.62957 0
M  V30 8064 C 723.857 1.90202 5.5998 0
M  V30 8065 C 723.219 2.8106 6.45898 0
M  V30 8066 H 719.318 -0.136589 0.769979 0
M  V30 8067 H 721.902 0.278307 1.92701 0
M  V30 8068 H 720.073 -1.69489 3.49468 0
M  V30 8069 H 721.805 -1.59298 3.7203 0
M  V30 8070 H 718.56 0.153575 4.73351 0
M  V30 8071 H 718.984 2.1645 6.41466 0
M  V30 8072 H 723.626 0.263794 4.21976 0
M  V30 8073 H 721.344 3.48898 7.28901 0
M  V30 8074 H 724.93 1.9426 5.48411 0
M  V30 8075 H 723.81 3.53357 7.00077 0
M  V30 8076 N 721.313 -1.57302 -0.09688 0
M  V30 8077 C 722.553 -1.87823 -0.806334 0
M  V30 8078 C 722.917 -0.767593 -1.75989 0
M  V30 8079 O 724.118 -0.955173 -2.51257 0
M  V30 8080 C 722.389 -3.23585 -1.51749 0
M  V30 8081 S 723.948 -3.75795 -2.26547 0
M  V30 8082 H 720.766 -0.658281 -0.268676 0
M  V30 8083 H 723.368 -1.95397 -0.0635476 0
M  V30 8084 H 722.072 -4.0234 -0.809348 0
M  V30 8085 H 721.603 -3.19145 -2.30021 0
M  V30 8086 H 723.618 -3.49068 -3.52656 0
M  V30 8087 N 722.791 0.367657 -1.53252 0
M  V30 8088 C 724.04 1.10782 -1.68554 0
M  V30 8089 C 724.353 1.90523 -0.442765 0
M  V30 8090 O 725.559 2.6729 -0.47629 0
M  V30 8091 C 724.015 2.01863 -2.97959 0
M  V30 8092 C 723.623 1.27443 -4.29491 0
M  V30 8093 C 725.367 2.75883 -3.22628 0
M  V30 8094 C 723.274 2.17414 -5.49987 0
M  V30 8095 H 722.204 0.417272 -0.628013 0
M  V30 8096 H 724.855 0.368971 -1.79752 0
M  V30 8097 H 723.237 2.7947 -2.80558 0
M  V30 8098 H 724.411 0.549138 -4.57516 0
M  V30 8099 H 722.726 0.652935 -4.11249 0
M  V30 8100 H 725.323 3.43421 -4.09837 0
M  V30 8101 H 725.666 3.41138 -2.38601 0
M  V30 8102 H 726.199 2.0536 -3.40693 0
M  V30 8103 H 722.938 1.5674 -6.36485 0
M  V30 8104 H 722.458 2.87799 -5.26243 0
M  V30 8105 H 724.137 2.77019 -5.84696 0
M  V30 8106 N 724.269 1.44576 0.627338 0
M  V30 8107 C 725.497 1.51048 1.41394 0
M  V30 8108 C 725.912 0.136568 1.88305 0
M  V30 8109 O 725.269 -0.858251 1.6106 0
M  V30 8110 C 725.32 2.47837 2.63172 0
M  V30 8111 O 725.041 3.79887 2.18215 0
M  V30 8112 C 726.542 2.63811 3.56257 0
M  V30 8113 H 723.762 0.512171 0.4335 0
M  V30 8114 H 726.306 1.89576 0.766878 0
M  V30 8115 H 724.461 2.12433 3.23961 0
M  V30 8116 H 724.875 4.32177 2.97192 0
M  V30 8117 H 726.349 3.35554 4.38301 0
M  V30 8118 H 726.826 1.69169 4.05313 0
M  V30 8119 H 727.432 3.0013 3.01333 0
M  V30 8120 N 725.747 -0.868086 1.31537 0
M  V30 8121 C 726.994 -1.62127 1.2133 0
M  V30 8122 C 727.322 -1.93158 -0.2281 0
M  V30 8123 O 726.577 -1.5632 -1.1774 0
M  V30 8124 C 726.876 -2.95889 2.0046 0
M  V30 8125 C 726.542 -2.84343 3.49943 0
M  V30 8126 C 725.204 -2.80901 3.90702 0
M  V30 8127 C 727.556 -2.71243 4.45058 0
M  V30 8128 C 724.884 -2.6222 5.24841 0
M  V30 8129 C 727.236 -2.54098 5.79325 0
M  V30 8130 C 725.9 -2.4904 6.19302 0
M  V30 8131 H 725.17 -0.593265 0.443979 0
M  V30 8132 H 727.817 -1.00803 1.62822 0
M  V30 8133 H 726.122 -3.61259 1.51655 0
M  V30 8134 H 727.819 -3.53161 1.89942 0
M  V30 8135 H 724.409 -2.8784 3.17563 0
M  V30 8136 H 728.593 -2.72956 4.14498 0
M  V30 8137 H 723.849 -2.56731 5.54887 0
M  V30 8138 H 728.023 -2.42938 6.52652 0
M  V30 8139 H 725.65 -2.34324 7.23185 0
M  V30 8140 N 727.225 -1.14528 -1.08264 0
M  V30 8141 C 728.641 -0.885976 -1.3275 0
M  V30 8142 C 728.841 0.472096 -1.95892 0
M  V30 8143 O 727.897 1.21606 -2.21288 0
M  V30 8144 C 729.21 -2.01982 -2.22764 0
M  V30 8145 C 730.758 -2.05329 -2.36239 0
M  V30 8146 C 731.233 -3.1801 -3.29596 0
M  V30 8147 N 732.724 -3.17598 -3.37173 0
M  V30 8148 C 733.459 -4.01426 -4.09444 0
M  V30 8149 N 732.955 -4.95297 -4.8441 0
M  V30 8150 N 734.748 -3.89482 -4.0529 0
M  V30 8151 H 726.899 -2.01996 -0.656607 0
M  V30 8152 H 729.162 -0.880274 -0.351884 0
M  V30 8153 H 728.868 -2.99964 -1.83615 0
M  V30 8154 H 728.742 -1.94421 -3.23234 0
M  V30 8155 H 731.129 -1.07953 -2.74646 0
M  V30 8156 H 731.21 -2.1696 -1.35506 0
M  V30 8157 H 730.854 -4.15633 -2.9191 0
M  V30 8158 H 730.784 -3.03616 -4.30261 0
M  V30 8159 H 733.275 -2.4961 -2.83731 0
M  V30 8160 H 733.588 -5.55723 -5.37021 0
M  V30 8161 H 731.933 -4.99293 -4.83457 0
M  V30 8162 H 735.124 -3.15465 -3.45832 0
M  V30 8163 H 735.297 -4.55039 -4.6135 0
M  V30 8164 N 728.703 1.26451 -0.940633 0
M  V30 8165 C 729.951 1.93395 -0.586748 0
M  V30 8166 C 730.272 1.7417 0.876921 0
M  V30 8167 O 729.542 1.097 1.62304 0
M  V30 8168 H 728.122 0.715687 -0.214012 0
M  V30 8169 H 730.784 1.53902 -1.19584 0
M  V30 8170 H 729.88 3.01565 -0.804059 0
M  V30 8171 N 730.181 0.707592 1.40822 0
M  V30 8172 C 731.43 0.240705 2.00259 0
M  V30 8173 C 731.743 -1.17027 1.56729 0
M  V30 8174 O 732.949 -1.73526 2.08809 0
M  V30 8175 C 731.405 0.379432 3.57894 0
M  V30 8176 C 731.013 1.79654 4.104 0
M  V30 8177 C 732.757 -0.0270684 4.24491 0
M  V30 8178 C 730.664 1.88628 5.60512 0
M  V30 8179 H 729.594 0.0862369 0.749052 0
M  V30 8180 H 732.245 0.877528 1.61157 0
M  V30 8181 H 730.627 -0.325842 3.94657 0
M  V30 8182 H 731.801 2.53155 3.85032 0
M  V30 8183 H 730.116 2.15379 3.56372 0
M  V30 8184 H 732.713 0.0193743 5.34696 0
M  V30 8185 H 733.056 -1.06772 4.02375 0
M  V30 8186 H 733.589 0.628361 3.92806 0
M  V30 8187 H 730.328 2.90787 5.87472 0
M  V30 8188 H 729.848 1.19528 5.8777 0
M  V30 8189 H 731.527 1.6547 6.25483 0
M  V30 8190 N 731.66 -1.50943 0.453197 0
M  V30 8191 C 732.885 -2.07116 -0.108463 0
M  V30 8192 C 733.31 -1.31681 -1.3432 0
M  V30 8193 O 732.668 -0.359256 -1.77705 0
M  V30 8194 C 732.716 -3.58447 -0.393424 0
M  V30 8195 O 731.82 -3.85038 -1.47714 0
M  V30 8196 H 731.161 -0.66398 0.0050993 0
M  V30 8197 H 733.691 -1.94362 0.639095 0
M  V30 8198 H 733.701 -4.02961 -0.639222 0
M  V30 8199 H 732.376 -4.12774 0.508946 0
M  V30 8200 H 730.953 -3.52376 -1.22006 0
M  V30 8201 N 733.138 -0.185124 -1.56509 0
M  V30 8202 C 734.363 0.465278 -2.02114 0
M  V30 8203 C 734.788 1.55083 -1.06447 0
M  V30 8204 O 734.146 1.81241 -0.0462852 0
M  V30 8205 C 734.194 1.00784 -3.46229 0
M  V30 8206 O 733.298 2.12123 -3.53663 0
M  V30 8207 H 732.639 0.109891 -0.654843 0
M  V30 8208 H 735.169 -0.293072 -2.0249 0
M  V30 8209 H 735.179 1.32697 -3.85818 0
M  V30 8210 H 733.854 0.213113 -4.15354 0
M  V30 8211 H 732.431 1.8115 -3.25943 0
M  V30 8212 N 734.616 1.57351 0.0885366 0
M  V30 8213 C 735.526 2.05858 1.12516 0
M  V30 8214 C 736.542 0.984758 1.43452 0
M  V30 8215 O 737.718 1.29836 1.53963 0
M  V30 8216 C 734.783 2.47882 2.42395 0
M  V30 8217 C 733.844 3.69487 2.18582 0
M  V30 8218 C 733.077 4.09497 3.42268 0
M  V30 8219 O 733.3 3.49536 4.50755 0
M  V30 8220 O 732.234 5.02406 3.31469 0
M  V30 8221 H 736.06 2.94467 0.743146 0
M  V30 8222 H 733.645 1.46326 0.301507 0
M  V30 8223 H 735.527 2.75509 3.18862 0
M  V30 8224 H 734.202 1.62408 2.8001 0
M  V30 8225 H 733.109 3.46967 1.39875 0
M  V30 8226 H 734.442 4.55761 1.85857 0
M  V30 8227 N 736.094 -0.359525 1.53444 0
M  V30 8228 C 737.026 -1.46098 1.76602 0
M  V30 8229 C 738.039 -1.49395 0.646912 0
M  V30 8230 O 739.228 -1.52765 0.923307 0
M  V30 8231 C 736.328 -2.84836 1.83635 0
M  V30 8232 C 735.501 -3.05164 3.13358 0
M  V30 8233 C 734.56 -4.24051 3.11556 0
M  V30 8234 O 733.586 -4.18935 3.85334 0
M  V30 8235 N 734.788 -5.31775 2.328 0
M  V30 8236 H 737.553 -1.2661 2.71643 0
M  V30 8237 H 735.114 -0.549294 1.52297 0
M  V30 8238 H 737.106 -3.62516 1.799 0
M  V30 8239 H 735.676 -2.97542 0.958509 0
M  V30 8240 H 734.896 -2.15091 3.30348 0
M  V30 8241 H 736.184 -3.15619 3.99076 0
M  V30 8242 H 735.582 -5.38796 1.7238 0
M  V30 8243 H 734.139 -6.0801 2.34877 0
M  V30 8244 N 737.572 -1.44907 -0.619662 0
M  V30 8245 C 738.821 -1.47569 -1.37501 0
M  V30 8246 C 739.134 -0.116707 -1.95252 0
M  V30 8247 O 740.34 -0.020909 -2.71492 0
M  V30 8248 C 738.796 -2.59851 -2.49009 0
M  V30 8249 C 738.404 -4.02008 -1.97722 0
M  V30 8250 C 740.148 -2.71746 -3.2612 0
M  V30 8251 C 738.055 -5.05693 -3.0664 0
M  V30 8252 H 736.985 -0.549068 -0.51676 0
M  V30 8253 H 739.636 -1.71009 -0.665437 0
M  V30 8254 H 738.018 -2.29671 -3.22594 0
M  V30 8255 H 739.192 -4.41809 -1.30925 0
M  V30 8256 H 737.507 -3.94456 -1.33392 0
M  V30 8257 H 740.104 -3.46382 -4.07337 0
M  V30 8258 H 740.447 -1.77959 -3.76346 0
M  V30 8259 H 740.98 -3.01392 -2.5963 0
M  V30 8260 H 737.719 -6.01148 -2.61345 0
M  V30 8261 H 737.239 -4.70473 -3.72042 0
M  V30 8262 H 738.918 -5.29906 -3.71226 0
M  V30 8263 N 739.05 0.861098 -1.31996 0
M  V30 8264 C 739.982 1.97551 -1.16216 0
M  V30 8265 C 740.995 1.625 -0.0988527 0
M  V30 8266 O 742.184 1.75091 -0.3472 0
M  V30 8267 C 739.284 3.30376 -0.755307 0
M  V30 8268 C 738.457 3.93711 -1.90552 0
M  V30 8269 C 737.516 5.04862 -1.48328 0
M  V30 8270 O 736.542 5.25204 -2.19431 0
M  V30 8271 N 737.744 5.79283 -0.375656 0
M  V30 8272 H 740.509 2.11632 -2.12208 0
M  V30 8273 H 738.07 1.03559 -1.24448 0
M  V30 8274 H 740.062 4.0213 -0.455364 0
M  V30 8275 H 738.632 3.12395 0.113269 0
M  V30 8276 H 737.852 3.14825 -2.37231 0
M  V30 8277 H 739.14 4.32762 -2.67571 0
M  V30 8278 H 738.538 5.65286 0.216284 0
M  V30 8279 H 737.095 6.5166 -0.135289 0
M  V30 8280 N 740.528 1.15101 1.07655 0
M  V30 8281 C 741.491 0.847625 2.12951 0
M  V30 8282 C 742.491 -0.151227 1.60087 0
M  V30 8283 O 743.681 0.0780399 1.74025 0
M  V30 8284 C 740.813 0.265 3.39868 0
M  V30 8285 H 742.006 1.7809 2.41296 0
M  V30 8286 H 739.559 0.958072 1.23494 0
M  V30 8287 H 740.294 -0.676625 3.17163 0
M  V30 8288 H 740.079 0.984554 3.79538 0
M  V30 8289 H 741.569 0.0702121 4.17541 0
M  V30 8290 N 742.006 -1.2595 0.947325 0
M  V30 8291 C 742.916 -2.29883 0.468079 0
M  V30 8292 C 743.932 -1.67783 -0.460975 0
M  V30 8293 O 745.108 -1.98526 -0.339006 0
M  V30 8294 C 742.173 -3.45773 -0.253315 0
M  V30 8295 C 741.234 -4.23337 0.713054 0
M  V30 8296 C 740.467 -5.33694 0.025993 0
M  V30 8297 O 740.69 -5.57853 -1.18978 0
M  V30 8298 O 739.624 -5.97724 0.70782 0
M  V30 8299 H 743.45 -2.72952 1.33156 0
M  V30 8300 H 741.035 -1.31263 0.713468 0
M  V30 8301 H 742.917 -4.16209 -0.659423 0
M  V30 8302 H 741.592 -3.04721 -1.09209 0
M  V30 8303 H 740.499 -3.55359 1.16923 0
M  V30 8304 H 741.832 -4.68154 1.51963 0
M  V30 8305 N 743.484 -0.715051 -1.40445 0
M  V30 8306 C 744.432 -0.0509974 -2.32544 0
M  V30 8307 C 745.426 0.747602 -1.52011 0
M  V30 8308 O 746.632 0.651031 -1.67814 0
M  V30 8309 H 743.007 0.00231113 -0.751996 0
M  V30 8310 H 744.978 -0.84449 -2.86201 0
M  V30 8311 C 743.727 0.857101 -3.3697 0
M  V30 8312 H 743.05 0.252 -3.99005 0
M  V30 8313 H 744.49 1.28971 -4.03909 0
M  V30 8314 C 742.949 1.98231 -2.72408 0
M  V30 8315 O 743.479 3.07309 -2.58697 0
M  V30 8316 N 741.685 1.76577 -2.308 0
M  V30 8317 H 741.232 0.878641 -2.42152 0
M  V30 8318 H 741.19 2.52043 -1.87941 0
M  V30 8319 N 744.962 1.50701 -0.461195 0
M  V30 8320 C 746.209 2.02267 0.0971971 0
M  V30 8321 C 746.537 1.34387 1.40608 0
M  V30 8322 O 745.792 0.455254 1.90331 0
M  V30 8323 C 746.091 3.55788 0.33908 0
M  V30 8324 C 745.757 4.42092 -0.886885 0
M  V30 8325 C 744.419 4.65398 -1.22304 0
M  V30 8326 C 746.771 4.92571 -1.70361 0
M  V30 8327 C 744.099 5.36429 -2.37616 0
M  V30 8328 C 746.451 5.64868 -2.84793 0
M  V30 8329 C 745.115 5.86431 -3.18834 0
M  V30 8330 H 744.385 0.740146 0.0355669 0
M  V30 8331 H 747.032 1.81415 -0.61326 0
M  V30 8332 H 745.337 3.751 1.13168 0
M  V30 8333 H 747.034 3.93243 0.784937 0
M  V30 8334 H 743.624 4.24165 -0.614981 0
M  V30 8335 H 747.808 4.74428 -1.4571 0
M  V30 8336 H 743.064 5.51333 -2.64276 0
M  V30 8337 H 747.238 6.02966 -3.48432 0
M  V30 8338 H 744.865 6.41248 -4.08296 0
M  V30 8339 N 746.441 0.193421 1.56409 0
M  V30 8340 C 747.689 -0.444908 1.97142 0
M  V30 8341 C 748.01 -1.62268 1.08139 0
M  V30 8342 O 747.28 -1.95307 0.152326 0
M  V30 8343 H 745.86 -0.16736 0.728011 0
M  V30 8344 H 748.522 0.279763 1.92882 0
M  V30 8345 H 747.618 -0.790159 3.01932 0
M  V30 8346 N 747.919 -1.57396 -0.0801906 0
M  V30 8347 C 748.849 -2.06145 -1.09665 0
M  V30 8348 C 749.83 -0.953273 -1.40878 0
M  V30 8349 O 751.015 -1.22548 -1.50651 0
M  V30 8350 C 748.145 -2.49836 -2.41245 0
M  V30 8351 C 747.099 -3.64454 -2.24405 0
M  V30 8352 C 746.425 -3.94172 -3.61293 0
M  V30 8353 C 747.725 -4.94807 -1.67223 0
M  V30 8354 H 749.419 -2.91316 -0.691028 0
M  V30 8355 H 746.965 -1.40145 -0.330957 0
M  V30 8356 H 748.918 -2.82552 -3.12638 0
M  V30 8357 H 747.642 -1.61683 -2.83771 0
M  V30 8358 H 746.301 -3.32008 -1.55454 0
M  V30 8359 H 745.949 -3.03163 -4.01374 0
M  V30 8360 H 745.649 -4.71345 -3.50867 0
M  V30 8361 H 747.173 -4.29376 -4.3413 0
M  V30 8362 H 748.587 -5.25807 -2.28472 0
M  V30 8363 H 746.984 -5.76245 -1.67515 0
M  V30 8364 H 748.054 -4.80751 -0.632944 0
M  V30 8365 N 749.397 0.351382 -1.53633 0
M  V30 8366 C 750.327 1.43688 -1.84055 0
M  V30 8367 C 751.308 1.55251 -0.695073 0
M  V30 8368 O 752.493 1.69587 -0.946257 0
M  V30 8369 C 749.623 2.80843 -2.04315 0
M  V30 8370 C 748.577 2.84094 -3.20117 0
M  V30 8371 C 747.903 4.2406 -3.25696 0
M  V30 8372 C 749.203 2.50334 -4.58399 0
M  V30 8373 H 750.897 1.18478 -2.74961 0
M  V30 8374 H 748.443 0.568509 -1.32303 0
M  V30 8375 H 750.396 3.56821 -2.2418 0
M  V30 8376 H 749.12 3.07471 -1.10132 0
M  V30 8377 H 747.779 2.10568 -3.00094 0
M  V30 8378 H 747.427 4.47785 -2.29123 0
M  V30 8379 H 747.127 4.27147 -4.03509 0
M  V30 8380 H 748.651 5.0189 -3.47762 0
M  V30 8381 H 750.065 3.16025 -4.78332 0
M  V30 8382 H 748.462 2.64717 -5.38558 0
M  V30 8383 H 749.532 1.45542 -4.62543 0
M  V30 8384 N 750.875 1.45233 0.611969 0
M  V30 8385 C 752.123 1.48727 1.36838 0
M  V30 8386 C 752.444 0.128616 1.94575 0
M  V30 8387 O 751.714 -0.84149 1.76906 0
M  V30 8388 H 750.294 0.547695 0.507976 0
M  V30 8389 H 752.956 1.81156 0.718925 0
M  V30 8390 H 752.052 2.2236 2.19003 0
M  V30 8391 N 752.353 -0.854086 1.3245 0
M  V30 8392 C 753.316 -1.94427 1.21371 0
M  V30 8393 C 754.316 -1.60219 0.136613 0
M  V30 8394 O 755.506 -1.69846 0.387057 0
M  V30 8395 C 752.638 -3.29698 0.866701 0
M  V30 8396 H 753.831 -2.05679 2.18257 0
M  V30 8397 H 751.384 -1.04434 1.1629 0
M  V30 8398 H 752.119 -3.24145 -0.100319 0
M  V30 8399 H 751.904 -3.55903 1.64545 0
M  V30 8400 H 753.394 -4.09599 0.813515 0
M  V30 8401 N 753.831 -1.1567 -1.07043 0
M  V30 8402 C 755.08 -0.928039 -1.79082 0
M  V30 8403 C 755.393 0.545968 -1.87826 0
M  V30 8404 O 756.599 0.892308 -2.56418 0
M  V30 8405 C 755.055 -1.61103 -3.21829 0
M  V30 8406 C 754.663 -3.12228 -3.21275 0
M  V30 8407 C 756.407 -1.46404 -3.98455 0
M  V30 8408 C 754.314 -3.733 -4.58695 0
M  V30 8409 H 753.244 -0.34357 -0.671175 0
M  V30 8410 H 755.895 -1.38718 -1.20123 0
M  V30 8411 H 754.277 -1.07958 -3.81 0
M  V30 8412 H 755.451 -3.72155 -2.71731 0
M  V30 8413 H 753.766 -3.26725 -2.58147 0
M  V30 8414 H 756.363 -1.8942 -5.00024 0
M  V30 8415 H 756.706 -0.41195 -4.14257 0
M  V30 8416 H 757.239 -1.96663 -3.45787 0
M  V30 8417 H 753.978 -4.78423 -4.48098 0
M  V30 8418 H 753.498 -3.18157 -5.08465 0
M  V30 8419 H 755.177 -3.7441 -5.27661 0
M  V30 8420 N 755.309 1.25446 -0.953992 0
M  V30 8421 C 756.558 1.92441 -0.604101 0
M  V30 8422 C 756.871 1.75543 0.862796 0
M  V30 8423 O 758.077 2.37106 1.32262 0
M  V30 8424 C 756.533 3.44854 -1.02974 0
M  V30 8425 C 756.141 3.70464 -2.51914 0
M  V30 8426 C 757.885 4.1778 -0.752352 0
M  V30 8427 C 755.792 5.1638 -2.88281 0
M  V30 8428 H 754.722 0.720508 -0.222227 0
M  V30 8429 H 757.373 1.42318 -1.15836 0
M  V30 8430 H 755.755 3.93935 -0.403904 0
M  V30 8431 H 756.929 3.32038 -3.19511 0
M  V30 8432 H 755.244 3.10797 -2.77117 0
M  V30 8433 H 757.841 5.25261 -1.00024 0
M  V30 8434 H 758.184 4.15135 0.311212 0
M  V30 8435 H 758.717 3.74605 -1.33851 0
M  V30 8436 H 755.456 5.24135 -3.93653 0
M  V30 8437 H 754.976 5.55855 -2.25357 0
M  V30 8438 H 756.655 5.84497 -2.77439 0
M  V30 8439 N 756.787 0.722489 1.40064 0
M  V30 8440 C 757.719 0.0349057 2.29173 0
M  V30 8441 C 758.732 -0.716571 1.46182 0
M  V30 8442 O 759.921 -0.562806 1.69395 0
M  V30 8443 C 757.021 -0.974839 3.24577 0
M  V30 8444 C 756.194 -0.287471 4.36454 0
M  V30 8445 C 755.253 -1.20356 5.12251 0
M  V30 8446 O 754.279 -0.685753 5.65054 0
M  V30 8447 N 755.481 -2.53422 5.22262 0
M  V30 8448 H 758.246 0.800058 2.88824 0
M  V30 8449 H 755.807 0.57068 1.51509 0
M  V30 8450 H 757.799 -1.59002 3.72157 0
M  V30 8451 H 756.369 -1.6413 2.66046 0
M  V30 8452 H 755.589 0.508008 3.90913 0
M  V30 8453 H 756.877 0.189382 5.08447 0
M  V30 8454 H 756.275 -2.97981 4.80857 0
M  V30 8455 H 754.832 -3.10067 5.73325 0
M  V30 8456 N 758.265 -1.50454 0.469181 0
M  V30 8457 C 759.513 -2.01916 -0.0862982 0
M  V30 8458 C 759.834 -1.35337 -1.40388 0
M  V30 8459 O 759.104 -0.498096 -1.89462 0
M  V30 8460 H 757.684 -0.746185 -0.0348825 0
M  V30 8461 H 760.346 -1.84804 0.619167 0
M  V30 8462 H 759.442 -3.11182 -0.239189 0
M  V30 8463 N 759.743 -0.201713 -1.56304 0
M  V30 8464 C 760.968 0.443815 -2.02596 0
M  V30 8465 C 761.393 1.53945 -1.08086 0
M  V30 8466 O 760.751 1.81182 -0.0655056 0
M  V30 8467 C 760.799 0.971066 -3.47279 0
M  V30 8468 O 759.903 2.0836 -3.55893 0
M  V30 8469 H 759.244 0.10294 -0.655972 0
M  V30 8470 H 761.774 -0.314533 -2.02168 0
M  V30 8471 H 761.784 1.28598 -3.87204 0
M  V30 8472 H 760.459 0.169048 -4.15556 0
M  V30 8473 H 759.036 1.77683 -3.27846 0
M  V30 8474 N 761.222 1.57436 0.0718424 0
M  V30 8475 C 762.152 2.06724 1.08571 0
M  V30 8476 C 763.133 0.960731 1.40371 0
M  V30 8477 O 764.318 1.23345 1.49999 0
M  V30 8478 C 761.448 2.51112 2.39916 0
M  V30 8479 C 760.402 3.65639 2.22469 0
M  V30 8480 C 759.728 3.96082 3.59198 0
M  V30 8481 C 761.028 4.95687 1.64596 0
M  V30 8482 H 762.722 2.91679 0.675569 0
M  V30 8483 H 760.268 1.40319 0.32352 0
M  V30 8484 H 762.221 2.84206 3.11135 0
M  V30 8485 H 760.945 1.63186 2.8291 0
M  V30 8486 H 759.604 3.32828 1.53691 0
M  V30 8487 H 759.252 3.05287 3.99761 0
M  V30 8488 H 758.952 4.73199 3.48362 0
M  V30 8489 H 760.476 4.31672 4.31847 0
M  V30 8490 H 761.89 5.27011 2.25681 0
M  V30 8491 H 760.287 5.77126 1.64457 0
M  V30 8492 H 761.357 4.8108 0.60744 0
M  V30 8493 N 762.7 -0.34323 1.53817 0
M  V30 8494 C 763.946 -1.08504 1.71332 0
M  V30 8495 C 764.279 -1.88294 0.475285 0
M  V30 8496 O 763.554 -1.87205 -0.527688 0
M  V30 8497 C 763.837 -2.02597 2.97702 0
M  V30 8498 C 763.69 -1.26268 4.31713 0
M  V30 8499 C 765.009 -3.0241 3.19744 0
M  V30 8500 H 762.128 -0.393072 0.623429 0
M  V30 8501 H 764.77 -0.363579 1.86489 0
M  V30 8502 H 762.92 -2.64118 2.8491 0
M  V30 8503 H 764.592 -0.673594 4.56356 0
M  V30 8504 H 762.835 -0.564696 4.30109 0
M  V30 8505 H 763.506 -1.95253 5.16314 0
M  V30 8506 H 765.982 -2.51004 3.31868 0
M  V30 8507 H 764.858 -3.65449 4.09558 0
M  V30 8508 H 765.119 -3.73806 2.36054 0
M  V30 8509 N 764.178 -1.45556 -0.604258 0
M  V30 8510 C 765.088 -1.57025 -1.74299 0
M  V30 8511 C 766.104 -0.45456 -1.67958 0
M  V30 8512 O 767.28 -0.715711 -1.88254 0
M  V30 8513 C 764.345 -1.53702 -3.10768 0
M  V30 8514 C 763.406 -2.76335 -3.28538 0
M  V30 8515 C 762.639 -2.73161 -4.58496 0
M  V30 8516 O 762.862 -1.80678 -5.41028 0
M  V30 8517 O 761.796 -3.64409 -4.79051 0
M  V30 8518 H 765.622 -2.53284 -1.67573 0
M  V30 8519 H 763.207 -1.28104 -0.768745 0
M  V30 8520 H 765.089 -1.54468 -3.92068 0
M  V30 8521 H 763.764 -0.605957 -3.17978 0
M  V30 8522 H 762.671 -2.8113 -2.46813 0
M  V30 8523 H 764.004 -3.68578 -3.26207 0
M  V30 8524 N 765.656 0.84705 -1.32902 0
M  V30 8525 C 766.902 1.60414 -1.24078 0
M  V30 8526 C 767.235 1.93217 0.195105 0
M  V30 8527 O 766.51 1.58001 1.13428 0
M  V30 8528 C 766.793 2.91951 -2.108 0
M  V30 8529 C 766.646 2.6588 -3.62805 0
M  V30 8530 C 767.965 3.93299 -1.97494 0
M  V30 8531 H 765.084 0.58206 -0.452079 0
M  V30 8532 H 767.726 0.977562 -1.62922 0
M  V30 8533 H 765.876 3.45425 -1.77802 0
M  V30 8534 H 767.548 2.18902 -4.06054 0
M  V30 8535 H 765.791 1.99716 -3.85092 0
M  V30 8536 H 766.462 3.59574 -4.1882 0
M  V30 8537 H 768.938 3.49105 -2.26417 0
M  V30 8538 H 767.814 4.8318 -2.60438 0
M  V30 8539 H 768.075 4.31887 -0.944782 0
M  V30 8540 N 767.134 1.16236 1.06428 0
M  V30 8541 C 768.411 0.853294 1.76006 0
M  V30 8542 C 768.791 -0.649162 2.00871 0
M  V30 8543 O 768.139 -1.59653 1.63472 0
M  V30 8544 C 768.349 1.67448 3.06206 0
M  V30 8545 C 769.697 1.8866 3.80385 0
M  V30 8546 O 770.721 1.64303 3.16043 0
M  V30 8547 O 769.58 2.29518 4.95968 0
M  V30 8548 H 766.674 0.314737 0.764767 0
M  V30 8549 H 769.22 1.26865 1.12709 0
M  V30 8550 H 767.992 2.69411 2.83784 0
M  V30 8551 H 767.615 1.25608 3.77238 0
M  V30 8552 N 768.612 -1.24939 0.960631 0
M  V30 8553 C 770.028 -1.45039 0.666018 0
M  V30 8554 C 770.228 -1.86021 -0.774501 0
M  V30 8555 O 769.284 -1.99392 -1.54916 0
M  V30 8556 C 770.597 -2.51775 1.64408 0
M  V30 8557 C 772.145 -2.6561 1.65592 0
M  V30 8558 C 772.62 -3.75536 2.62177 0
M  V30 8559 N 774.111 -3.82954 2.60577 0
M  V30 8560 C 774.846 -4.67517 3.31987 0
M  V30 8561 N 774.342 -5.56321 4.1289 0
M  V30 8562 N 776.135 -4.61535 3.20845 0
M  V30 8563 H 768.286 -0.96632 1.89145 0
M  V30 8564 H 770.549 -0.486034 0.813926 0
M  V30 8565 H 770.255 -2.28534 2.67329 0
M  V30 8566 H 770.129 -3.49804 1.41128 0
M  V30 8567 H 772.516 -2.88212 0.633846 0
M  V30 8568 H 772.597 -1.67962 1.92931 0
M  V30 8569 H 772.241 -3.53684 3.64514 0
M  V30 8570 H 772.171 -4.72682 2.32119 0
M  V30 8571 H 774.662 -3.19478 2.01847 0
M  V30 8572 H 774.975 -6.17787 4.64283 0
M  V30 8573 H 773.32 -5.5601 4.16987 0
M  V30 8574 H 776.511 -3.91169 2.57108 0
M  V30 8575 H 776.684 -5.27214 3.76762 0
M  V30 8576 N 770.09 -0.729906 -1.39679 0
M  V30 8577 C 771 -0.0880322 -2.34435 0
M  V30 8578 C 772.016 0.727674 -1.58053 0
M  V30 8579 O 773.192 0.657321 -1.90371 0
M  V30 8580 C 770.257 0.812211 -3.37052 0
M  V30 8581 C 769.318 -0.0151681 -4.29297 0
M  V30 8582 C 768.551 0.842202 -5.27013 0
M  V30 8583 O 768.774 2.08108 -5.31081 0
M  V30 8584 O 767.708 0.27357 -6.01278 0
M  V30 8585 H 771.534 -0.869989 -2.90972 0
M  V30 8586 H 769.119 -0.490522 -1.41118 0
M  V30 8587 H 771.001 1.32745 -3.99946 0
M  V30 8588 H 769.676 1.57307 -2.82907 0
M  V30 8589 H 768.583 -0.575811 -3.69642 0
M  V30 8590 H 769.916 -0.738129 -4.86634 0
M  V30 8591 N 771.568 1.50203 -0.477153 0
M  V30 8592 C 772.815 2.02358 0.0757385 0
M  V30 8593 C 773.143 1.3587 1.39174 0
M  V30 8594 O 772.398 0.475415 1.89838 0
M  V30 8595 C 772.697 3.56127 0.301325 0
M  V30 8596 C 772.363 4.41126 -0.933725 0
M  V30 8597 C 771.025 4.64075 -1.27233 0
M  V30 8598 C 773.377 4.90737 -1.75576 0
M  V30 8599 C 770.705 5.33878 -2.43292 0
M  V30 8600 C 773.057 5.61816 -2.90768 0
M  V30 8601 C 771.721 5.83016 -3.25036 0
M  V30 8602 H 770.991 0.740482 0.0277147 0
M  V30 8603 H 773.638 1.80754 -0.632467 0
M  V30 8604 H 771.943 3.76279 1.09183 0
M  V30 8605 H 773.64 3.94053 0.743184 0
M  V30 8606 H 770.23 4.23489 -0.659935 0
M  V30 8607 H 774.414 4.72856 -1.50734 0
M  V30 8608 H 769.67 5.48499 -2.70109 0
M  V30 8609 H 773.844 5.99237 -3.54807 0
M  V30 8610 H 771.471 6.36881 -4.15074 0
M  V30 8611 N 773.046 0.209999 1.56195 0
M  V30 8612 C 774.292 -0.418742 1.99043 0
M  V30 8613 C 774.647 -1.58201 1.095 0
M  V30 8614 O 773.94 -1.91069 0.1425 0
M  V30 8615 C 774.134 -0.91312 3.45539 0
M  V30 8616 C 773.963 0.200706 4.49252 0
M  V30 8617 C 772.733 0.663287 5.00928 0
M  V30 8618 C 774.931 1.01493 5.04186 0
M  V30 8619 N 772.913 1.75338 5.88328 0
M  V30 8620 C 774.284 1.95411 5.884 0
M  V30 8621 C 776.339 1.05567 4.8658 0
M  V30 8622 C 775.042 2.93069 6.56889 0
M  V30 8623 C 777.068 2.02037 5.55819 0
M  V30 8624 C 776.43 2.94697 6.39791 0
M  V30 8625 H 772.529 -0.120226 0.772703 0
M  V30 8626 H 775.113 0.319119 1.92067 0
M  V30 8627 H 773.284 -1.62038 3.52985 0
M  V30 8628 H 775.016 -1.51371 3.75325 0
M  V30 8629 H 771.771 0.253945 4.72919 0
M  V30 8630 H 772.195 2.30007 6.3673 0
M  V30 8631 H 776.837 0.353242 4.21322 0
M  V30 8632 H 774.555 3.6428 7.21336 0
M  V30 8633 H 778.141 2.05849 5.44167 0
M  V30 8634 H 777.021 3.68128 6.92425 0
M  V30 8635 N 774.524 -1.57472 -0.0634922 0
M  V30 8636 C 775.471 -2.04258 -1.07457 0
M  V30 8637 C 776.441 -0.924804 -1.37973 0
M  V30 8638 O 777.626 -1.19305 -1.48899 0
M  V30 8639 C 774.766 -2.49832 -2.38071 0
M  V30 8640 C 773.879 -3.75263 -2.14014 0
M  V30 8641 C 773.014 -4.09585 -3.38251 0
M  V30 8642 C 772.053 -5.28032 -3.09594 0
M  V30 8643 N 771.19 -5.57953 -4.26185 0
M  V30 8644 H 776.03 -2.90402 -0.668626 0
M  V30 8645 H 773.567 -1.43609 -0.318572 0
M  V30 8646 H 775.525 -2.7431 -3.14341 0
M  V30 8647 H 774.155 -1.66654 -2.76453 0
M  V30 8648 H 773.207 -3.58075 -1.28399 0
M  V30 8649 H 774.519 -4.61667 -1.88852 0
M  V30 8650 H 773.673 -4.35008 -4.2291 0
M  V30 8651 H 772.412 -3.21765 -3.66495 0
M  V30 8652 H 771.417 -5.02397 -2.23332 0
M  V30 8653 H 772.642 -6.17477 -2.82663 0
M  V30 8654 H 770.588 -4.73092 -4.54445 0
M  V30 8655 H 770.505 -6.38793 -4.04326 0
M  V30 8656 H 771.773 -5.87931 -5.11817 0
M  V30 8657 N 776.003 0.335068 -1.53997 0
M  V30 8658 C 776.933 1.41727 -1.85568 0
M  V30 8659 C 777.914 1.54505 -0.7115 0
M  V30 8660 O 779.099 1.68573 -0.964191 0
M  V30 8661 C 776.229 2.7866 -2.07282 0
M  V30 8662 C 775.183 2.80682 -3.23112 0
M  V30 8663 C 774.509 4.20581 -3.30175 0
M  V30 8664 C 775.809 2.45458 -4.61029 0
M  V30 8665 H 777.503 1.15555 -2.76202 0
M  V30 8666 H 775.049 0.554445 -1.32898 0
M  V30 8667 H 777.002 3.54423 -2.27952 0
M  V30 8668 H 775.726 3.06286 -1.13387 0
M  V30 8669 H 774.385 2.07373 -3.02311 0
M  V30 8670 H 774.033 4.4533 -2.33859 0
M  V30 8671 H 773.733 4.22843 -4.08016 0
M  V30 8672 H 775.257 4.98174 -3.53066 0
M  V30 8673 H 776.671 3.10934 -4.81656 0
M  V30 8674 H 775.068 2.5899 -5.41336 0
M  V30 8675 H 776.138 1.40628 -4.6406 0
M  V30 8676 N 777.481 1.45874 0.596531 0
M  V30 8677 C 778.728 1.50467 1.35521 0
M  V30 8678 C 779.056 0.150802 1.93915 0
M  V30 8679 O 778.311 -0.851913 1.76184 0
M  V30 8680 C 778.61 2.54034 2.51399 0
M  V30 8681 C 778.276 3.9844 2.11085 0
M  V30 8682 C 776.938 4.37758 1.99804 0
M  V30 8683 C 779.29 4.89209 1.79788 0
M  V30 8684 C 776.618 5.65727 1.55465 0
M  V30 8685 C 778.97 6.17602 1.36931 0
M  V30 8686 C 777.634 6.5584 1.24218 0
M  V30 8687 H 776.904 0.550597 0.495907 0
M  V30 8688 H 779.551 1.79279 0.673145 0
M  V30 8689 H 777.856 2.18832 3.24992 0
M  V30 8690 H 779.553 2.54822 3.09624 0
M  V30 8691 H 776.143 3.67353 2.20794 0
M  V30 8692 H 780.327 4.59562 1.87395 0
M  V30 8693 H 775.583 5.94139 1.44253 0
M  V30 8694 H 779.757 6.87373 1.11764 0
M  V30 8695 H 777.384 7.54897 0.896353 0
M  V30 8696 N 778.959 -0.83999 1.33349 0
M  V30 8697 C 780.187 -1.62728 1.27778 0
M  V30 8698 C 780.602 -1.88191 -0.151505 0
M  V30 8699 O 779.959 -1.46128 -1.09329 0
M  V30 8700 C 780.01 -2.97813 2.04913 0
M  V30 8701 O 779.731 -2.73469 3.42266 0
M  V30 8702 C 781.232 -3.92245 2.0654 0
M  V30 8703 H 778.452 -0.506374 0.440257 0
M  V30 8704 H 780.996 -1.04637 1.75703 0
M  V30 8705 H 779.151 -3.52509 1.60674 0
M  V30 8706 H 779.565 -3.59483 3.81932 0
M  V30 8707 H 781.039 -4.84249 2.64966 0
M  V30 8708 H 781.516 -4.26332 1.05537 0
M  V30 8709 H 782.122 -3.43487 2.50793 0
M  V30 8710 N 780.437 -1.16799 -1.0581 0
M  V30 8711 C 781.685 -0.950642 -1.78346 0
M  V30 8712 C 782.006 0.522524 -1.87869 0
M  V30 8713 O 781.276 1.3795 -1.39092 0
M  V30 8714 H 779.856 -0.348736 -0.6606 0
M  V30 8715 H 782.518 -1.47158 -1.27791 0
M  V30 8716 H 781.614 -1.37359 -2.80248 0
M  V30 8717 N 781.915 1.24427 -0.967243 0
M  V30 8718 C 783.14 1.9708 -0.646069 0
M  V30 8719 C 783.565 1.71272 0.777665 0
M  V30 8720 O 782.923 0.976179 1.52776 0
M  V30 8721 C 782.971 3.48501 -0.926266 0
M  V30 8722 O 782.075 4.12398 -0.0114653 0
M  V30 8723 H 781.416 0.617423 -0.244304 0
M  V30 8724 H 783.946 1.58215 -1.29727 0
M  V30 8725 H 783.956 3.98885 -0.857619 0
M  V30 8726 H 782.631 3.66613 -1.96386 0
M  V30 8727 H 781.208 3.72661 -0.133396 0
M  V30 8728 N 783.393 0.737304 1.3929 0
M  V30 8729 C 784.356 0.10731 2.28949 0
M  V30 8730 C 785.356 -0.664716 1.46418 0
M  V30 8731 O 786.546 -0.493392 1.67067 0
M  V30 8732 C 783.678 -0.857145 3.29948 0
M  V30 8733 H 784.871 0.89725 2.86163 0
M  V30 8734 H 782.424 0.503279 1.47976 0
M  V30 8735 H 783.159 -1.67336 2.77794 0
M  V30 8736 H 782.944 -0.306167 3.90903 0
M  V30 8737 H 784.434 -1.29444 3.97031 0
M  V30 8738 N 784.871 -1.49948 0.485112 0
M  V30 8739 C 786.111 -2.04301 -0.0635728 0
M  V30 8740 C 786.475 -1.35804 -1.35725 0
M  V30 8741 O 787.676 -1.80789 -1.98919 0
M  V30 8742 C 785.947 -3.56666 -0.228962 0
M  V30 8743 S 787.506 -4.32614 -0.734185 0
M  V30 8744 H 784.324 -0.710939 -0.00931895 0
M  V30 8745 H 786.926 -1.84185 0.655455 0
M  V30 8746 H 785.63 -4.04068 0.718148 0
M  V30 8747 H 785.161 -3.8116 -0.973696 0
M  V30 8748 H 787.176 -4.53859 -2.00565 0
M  V30 8749 N 786.349 -0.21828 -1.56081 0
M  V30 8750 C 787.765 0.137168 -1.59009 0
M  V30 8751 C 787.965 1.59215 -1.23503 0
M  V30 8752 O 787.021 2.33178 -0.968716 0
M  V30 8753 C 788.334 -0.186162 -3.00123 0
M  V30 8754 C 789.882 -0.128135 -3.12738 0
M  V30 8755 C 790.357 -0.425094 -4.56023 0
M  V30 8756 N 791.848 -0.374547 -4.61683 0
M  V30 8757 C 792.583 -0.57786 -5.70481 0
M  V30 8758 N 792.079 -0.842771 -6.87655 0
M  V30 8759 N 793.872 -0.510521 -5.59777 0
M  V30 8760 H 786.023 -1.16746 -1.77437 0
M  V30 8761 H 788.286 -0.467706 -0.824594 0
M  V30 8762 H 787.992 -1.19589 -3.30744 0
M  V30 8763 H 787.866 0.500388 -3.73866 0
M  V30 8764 H 790.253 0.872224 -2.81915 0
M  V30 8765 H 790.334 -0.848112 -2.41331 0
M  V30 8766 H 789.978 -1.42288 -4.87562 0
M  V30 8767 H 789.908 0.316038 -5.25651 0
M  V30 8768 H 792.399 -0.177356 -3.77484 0
M  V30 8769 H 792.712 -0.986095 -7.66483 0
M  V30 8770 H 791.057 -0.879929 -6.89407 0
M  V30 8771 H 794.248 -0.303813 -4.67113 0
M  V30 8772 H 794.421 -0.672378 -6.44502 0
M  V30 8773 N 787.827 1.57504 0.0551401 0
M  V30 8774 C 789.238 1.76626 0.604979 0
M  V30 8775 C 789.589 0.845978 1.77024 0
M  V30 8776 O 788.714 0.0341936 2.16373 0
M  V30 8777 C 789.309 3.203 1.10425 0
M  V30 8778 C 787.868 3.4071 1.59981 0
M  V30 8779 C 787.015 2.72258 0.526414 0
M  V30 8780 H 789.966 1.57775 -0.171072 0
M  V30 8781 H 789.987 3.25377 1.97256 0
M  V30 8782 H 789.499 3.87255 0.255939 0
M  V30 8783 H 787.6 2.78892 2.47083 0
M  V30 8784 H 787.713 4.49227 1.66528 0
M  V30 8785 H 786.077 2.35283 0.97539 0
M  V30 8786 H 786.86 3.41879 -0.311991 0
M  V30 8787 N 789.305 -0.326896 1.54172 0
M  V30 8788 C 790.53 -1.08924 1.76494 0
M  V30 8789 C 790.955 -1.81039 0.510523 0
M  V30 8790 O 790.313 -1.73141 -0.537756 0
M  V30 8791 C 790.361 -2.06558 2.95578 0
M  V30 8792 O 789.465 -3.14394 2.6689 0
M  V30 8793 H 788.806 -0.314216 0.584948 0
M  V30 8794 H 791.336 -0.372207 2.01186 0
M  V30 8795 H 791.346 -2.49487 3.22832 0
M  V30 8796 H 790.021 -1.53469 3.86549 0
M  V30 8797 H 788.598 -2.76164 2.50576 0
M  V30 8798 N 790.784 -1.46188 -0.588786 0
M  V30 8799 C 792.024 -1.52738 -1.35833 0
M  V30 8800 C 792.388 -0.172403 -1.91224 0
M  V30 8801 O 793.589 -0.112633 -2.68564 0
M  V30 8802 C 791.86 -2.59085 -2.4619 0
M  V30 8803 S 793.419 -2.84997 -3.3365 0
M  V30 8804 H 790.237 -0.539713 -0.462851 0
M  V30 8805 H 792.839 -1.83386 -0.677489 0
M  V30 8806 H 791.543 -3.56177 -2.03878 0
M  V30 8807 H 791.074 -2.3015 -3.19053 0
M  V30 8808 H 793.089 -2.19804 -4.4486 0
M  V30 8809 N 792.262 0.832906 -1.33792 0
M  V30 8810 C 793.673 1.40489 -1.22963 0
M  V30 8811 C 794.024 1.95633 0.149026 0
M  V30 8812 O 793.149 1.8928 1.04891 0
M  V30 8813 C 793.744 2.55387 -2.22627 0
M  V30 8814 C 792.303 3.08522 -2.15618 0
M  V30 8815 C 791.45 1.81347 -2.09782 0
M  V30 8816 H 794.401 0.638156 -1.45304 0
M  V30 8817 H 794.422 3.33193 -1.83746 0
M  V30 8818 H 793.934 2.15222 -3.22957 0
M  V30 8819 H 792.035 3.53217 -1.18611 0
M  V30 8820 H 792.148 3.6829 -3.0643 0
M  V30 8821 H 790.512 2.01839 -1.55349 0
M  V30 8822 H 791.295 1.43369 -3.1193 0
M  V30 8823 N 793.74 1.17359 1.05189 0
M  V30 8824 C 794.703 0.892604 2.11105 0
M  V30 8825 C 795.703 -0.117236 1.60372 0
M  V30 8826 O 796.893 0.114936 1.7382 0
M  V30 8827 C 794.025 0.337032 3.3923 0
M  V30 8828 H 795.218 1.83169 2.37464 0
M  V30 8829 H 792.771 0.984051 1.21434 0
M  V30 8830 H 793.506 -0.609198 3.18527 0
M  V30 8831 H 793.291 1.06484 3.77364 0
M  V30 8832 H 794.781 0.158763 4.17298 0
M  V30 8833 N 795.218 -1.23913 0.973828 0
M  V30 8834 C 796.464 -1.92436 0.640026 0
M  V30 8835 C 796.797 -1.75875 -0.823512 0
M  V30 8836 O 796.072 -1.11563 -1.59323 0
M  V30 8837 C 796.355 -3.4526 1.0231 0
M  V30 8838 C 796.208 -3.70961 2.54378 0
M  V30 8839 C 797.527 -4.36495 0.562155 0
M  V30 8840 H 794.646 -0.698868 0.233992 0
M  V30 8841 H 797.288 -1.46163 1.21393 0
M  V30 8842 H 795.438 -3.84802 0.534751 0
M  V30 8843 H 797.11 -3.40941 3.10737 0
M  V30 8844 H 795.353 -3.15899 2.97305 0
M  V30 8845 H 796.024 -4.77912 2.76232 0
M  V30 8846 H 798.5 -4.04363 0.981333 0
M  V30 8847 H 797.376 -5.42142 0.858689 0
M  V30 8848 H 797.637 -4.38818 -0.537659 0
M  V30 8849 N 796.696 -0.74468 -1.38897 0
M  V30 8850 C 797.936 -0.301691 -2.02161 0
M  V30 8851 C 798.3 1.09338 -1.57826 0
M  V30 8852 O 799.501 1.63499 -2.13358 0
M  V30 8853 C 797.772 -0.410601 -3.55034 0
M  V30 8854 S 799.331 -0.0488802 -4.38773 0
M  V30 8855 H 796.149 -0.117583 -0.70121 0
M  V30 8856 H 798.751 -0.973334 -1.69548 0
M  V30 8857 H 797.455 -1.42705 -3.8479 0
M  V30 8858 H 796.986 0.278531 -3.92413 0
M  V30 8859 H 799.001 1.16434 -4.82346 0
M  V30 8860 N 798.174 1.49689 -0.493057 0
M  V30 8861 C 799.414 2.04332 0.0527374 0
M  V30 8862 C 799.778 1.36522 1.35003 0
M  V30 8863 O 800.979 1.81842 1.97957 0
M  V30 8864 C 799.25 3.56782 0.210044 0
M  V30 8865 S 800.809 4.32998 0.711232 0
M  V30 8866 H 797.627 0.710978 0.00554853 0
M  V30 8867 H 800.229 1.83835 -0.665213 0
M  V30 8868 H 798.933 4.03681 -0.739566 0
M  V30 8869 H 798.464 3.81671 0.953468 0
M  V30 8870 H 800.479 4.54916 1.98156 0
M  V30 8871 N 799.652 0.226554 1.55963 0
M  V30 8872 C 800.582 -0.676079 2.23498 0
M  V30 8873 C 801.563 -1.19718 1.20837 0
M  V30 8874 O 802.748 -1.24027 1.49436 0
M  V30 8875 C 799.878 -1.88217 2.91876 0
M  V30 8876 C 798.832 -1.4947 4.01052 0
M  V30 8877 C 798.158 -2.77997 4.56751 0
M  V30 8878 C 799.458 -0.680951 5.17842 0
M  V30 8879 H 801.152 -0.112989 2.99187 0
M  V30 8880 H 798.698 -0.0529046 1.43903 0
M  V30 8881 H 800.651 -2.51911 3.37815 0
M  V30 8882 H 799.375 -2.47031 2.13643 0
M  V30 8883 H 798.034 -0.881199 3.55852 0
M  V30 8884 H 797.682 -3.34966 3.75243 0
M  V30 8885 H 797.382 -2.52803 5.30438 0
M  V30 8886 H 798.906 -3.42625 5.05411 0
M  V30 8887 H 800.32 -1.22171 5.60131 0
M  V30 8888 H 798.717 -0.525898 5.97791 0
M  V30 8889 H 799.787 0.311346 4.83899 0
M  V30 8890 N 801.13 -1.57531 -0.0467866 0
M  V30 8891 C 802.358 -1.92696 -0.753371 0
M  V30 8892 C 802.773 -0.824792 -1.69831 0
M  V30 8893 O 802.13 0.200155 -1.81399 0
M  V30 8894 C 802.181 -3.27728 -1.52566 0
M  V30 8895 O 801.902 -4.3371 -0.618674 0
M  V30 8896 C 803.403 -3.77066 -2.33101 0
M  V30 8897 H 800.623 -0.636367 -0.212788 0
M  V30 8898 H 803.167 -2.04498 -0.00959361 0
M  V30 8899 H 801.322 -3.17378 -2.22148 0
M  V30 8900 H 801.736 -5.11548 -1.15839 0
M  V30 8901 H 803.21 -4.74109 -2.82709 0
M  V30 8902 H 803.687 -3.07348 -3.13741 0
M  V30 8903 H 804.293 -3.90442 -1.68628 0
M  V30 8904 N 802.608 0.318715 -1.54344 0
M  V30 8905 C 803.538 1.39751 -1.87061 0
M  V30 8906 C 804.519 1.53741 -0.727848 0
M  V30 8907 O 805.704 1.67541 -0.982016 0
M  V30 8908 C 802.834 2.76446 -2.10226 0
M  V30 8909 C 801.788 2.77239 -3.26071 0
M  V30 8910 C 801.114 4.17056 -3.34617 0
M  V30 8911 C 802.414 2.40555 -4.63606 0
M  V30 8912 H 804.108 1.12619 -2.77412 0
M  V30 8913 H 801.654 0.540318 -1.33479 0
M  V30 8914 H 803.607 3.51985 -2.31699 0
M  V30 8915 H 802.331 3.05066 -1.16629 0
M  V30 8916 H 800.99 2.04155 -3.04493 0
M  V30 8917 H 800.638 4.42824 -2.3857 0
M  V30 8918 H 800.338 4.18492 -4.12478 0
M  V30 8919 H 801.862 4.94401 -3.5833 0
M  V30 8920 H 803.276 3.05808 -4.84927 0
M  V30 8921 H 801.673 2.53234 -5.44052 0
M  V30 8922 H 802.743 1.35698 -4.65526 0
M  V30 8923 N 804.086 1.46499 0.581025 0
M  V30 8924 C 805.049 1.5677 1.672 0
M  V30 8925 C 806.049 0.444716 1.54528 0
M  V30 8926 O 807.239 0.709074 1.59116 0
M  V30 8927 C 804.371 1.4896 3.06633 0
M  V30 8928 H 805.564 2.54 1.5945 0
M  V30 8929 H 803.117 1.34334 0.799003 0
M  V30 8930 H 803.852 0.530168 3.19937 0
M  V30 8931 H 803.637 2.30439 3.17239 0
M  V30 8932 H 805.127 1.59237 3.86048 0
M  V30 8933 N 805.565 -0.825799 1.34232 0
M  V30 8934 C 806.495 -1.95151 1.28212 0
M  V30 8935 C 807.476 -1.69345 0.160123 0
M  V30 8936 O 808.661 -1.90983 0.352019 0
M  V30 8937 C 805.791 -3.31554 1.03388 0
M  V30 8938 C 804.745 -3.71793 2.12023 0
M  V30 8939 C 804.071 -5.06147 1.72392 0
M  V30 8940 C 805.371 -3.84193 3.53826 0
M  V30 8941 H 807.065 -2.00445 2.22401 0
M  V30 8942 H 804.611 -0.962996 1.07063 0
M  V30 8943 H 806.564 -4.09889 0.978225 0
M  V30 8944 H 805.288 -3.26551 0.0564142 0
M  V30 8945 H 803.947 -2.95731 2.16654 0
M  V30 8946 H 803.595 -4.97628 0.733137 0
M  V30 8947 H 803.295 -5.34041 2.451 0
M  V30 8948 H 804.819 -5.86943 1.68317 0
M  V30 8949 H 806.233 -4.52806 3.51624 0
M  V30 8950 H 804.63 -4.23538 4.2513 0
M  V30 8951 H 805.7 -2.86272 3.91377 0
M  V30 8952 N 807.043 -1.17915 -1.04565 0
M  V30 8953 C 808.271 -0.99616 -1.8134 0
M  V30 8954 C 808.686 0.455509 -1.83223 0
M  V30 8955 O 808.043 1.31636 -1.26405 0
M  V30 8956 C 808.094 -1.53758 -3.27171 0
M  V30 8957 O 807.815 -2.93241 -3.25486 0
M  V30 8958 C 809.316 -1.40007 -4.2061 0
M  V30 8959 H 806.536 -0.352055 -0.571225 0
M  V30 8960 H 809.08 -1.56349 -1.31815 0
M  V30 8961 H 807.235 -1.01213 -3.73945 0
M  V30 8962 H 807.649 -3.18392 -4.16805 0
M  V30 8963 H 809.123 -1.82695 -5.2089 0
M  V30 8964 H 809.6 -0.348054 -4.37819 0
M  V30 8965 H 810.206 -1.916 -3.79697 0
M  V30 8966 N 808.521 1.23394 -0.980386 0
M  V30 8967 C 809.749 1.95844 -0.667286 0
M  V30 8968 C 810.164 1.72574 0.765735 0
M  V30 8969 O 809.521 1.01715 1.51526 0
M  V30 8970 C 809.572 3.48844 -0.948151 0
M  V30 8971 O 809.293 3.71325 -2.32485 0
M  V30 8972 C 810.794 4.38494 -0.651002 0
M  V30 8973 H 808.014 0.623535 -0.247882 0
M  V30 8974 H 810.558 1.56885 -1.31176 0
M  V30 8975 H 808.713 3.85819 -0.349681 0
M  V30 8976 H 809.127 4.65619 -2.41452 0
M  V30 8977 H 810.601 5.44648 -0.897887 0
M  V30 8978 H 811.078 4.37236 0.414922 0
M  V30 8979 H 811.684 4.07127 -1.22995 0
M  V30 8980 N 809.999 0.752036 1.385 0
M  V30 8981 C 811.224 0.316993 2.04963 0
M  V30 8982 C 811.649 -1.04582 1.56346 0
M  V30 8983 O 811.007 -1.66616 0.714755 0
M  V30 8984 C 811.055 0.347235 3.58924 0
M  V30 8985 O 810.159 -0.659296 4.07096 0
M  V30 8986 H 809.5 0.140652 0.648932 0
M  V30 8987 H 812.03 1.02272 1.77205 0
M  V30 8988 H 812.04 0.19757 4.07521 0
M  V30 8989 H 810.715 1.34157 3.93668 0
M  V30 8990 H 809.292 -0.474371 3.6987 0
M  V30 8991 N 811.477 -1.49425 0.500989 0
M  V30 8992 C 812.726 -2.01649 -0.04538 0
M  V30 8993 C 813.039 -1.38572 -1.38047 0
M  V30 8994 O 814.245 -1.82124 -2.01353 0
M  V30 8995 C 812.701 -3.5966 -0.131337 0
M  V30 8996 C 812.309 -4.3171 1.19711 0
M  V30 8997 C 814.053 -4.19828 -0.628071 0
M  V30 8998 C 811.96 -5.81579 1.07332 0
M  V30 8999 H 810.89 -0.753715 -0.0207329 0
M  V30 9000 H 813.541 -1.71962 0.640407 0
M  V30 9001 H 811.923 -3.86063 -0.881574 0
M  V30 9002 H 813.097 -4.17008 1.96064 0
M  V30 9003 H 811.412 -3.83286 1.62729 0
M  V30 9004 H 814.009 -5.2958 -0.738198 0
M  V30 9005 H 814.352 -3.83194 -1.6269 0
M  V30 9006 H 814.885 -3.97746 0.0656314 0
M  V30 9007 H 811.624 -6.22738 2.04642 0
M  V30 9008 H 811.144 -5.98774 0.350679 0
M  V30 9009 H 812.823 -6.42614 0.752047 0
M  V30 9010 N 812.955 -0.234822 -1.55841 0
M  V30 9011 C 814.201 0.393843 -1.98939 0
M  V30 9012 C 814.534 1.58466 -1.1226 0
M  V30 9013 O 813.809 1.93635 -0.183242 0
M  V30 9014 C 814.092 0.815492 -3.50745 0
M  V30 9015 C 813.945 -0.379878 -4.48193 0
M  V30 9016 C 815.264 1.66687 -4.07312 0
M  V30 9017 H 812.383 0.141681 -0.723253 0
M  V30 9018 H 815.025 -0.333716 -1.87046 0
M  V30 9019 H 813.175 1.43541 -3.6101 0
M  V30 9020 H 814.847 -1.0182 -4.49923 0
M  V30 9021 H 813.09 -1.02507 -4.21515 0
M  V30 9022 H 813.761 -0.0417069 -5.51984 0
M  V30 9023 H 816.237 1.14369 -4.00074 0
M  V30 9024 H 815.113 1.93078 -5.13821 0
M  V30 9025 H 815.374 2.63468 -3.55017 0
M  V30 9026 N 814.433 1.57553 0.0384317 0
M  V30 9027 C 815.844 1.77258 0.586211 0
M  V30 9028 C 816.195 0.864706 1.76117 0
M  V30 9029 O 815.32 0.057141 2.16325 0
M  V30 9030 C 815.915 3.21453 1.07021 0
M  V30 9031 C 814.474 3.42387 1.56358 0
M  V30 9032 C 813.621 2.72801 0.497508 0
M  V30 9033 H 816.572 1.57585 -0.187796 0
M  V30 9034 H 816.593 3.27451 1.93794 0
M  V30 9035 H 816.105 3.87505 0.214851 0
M  V30 9036 H 814.206 2.81497 2.44111 0
M  V30 9037 H 814.319 4.50968 1.61754 0
M  V30 9038 H 812.683 2.36305 0.95038 0
M  V30 9039 H 813.466 3.41529 -0.348234 0
M  V30 9040 N 815.911 -0.310526 1.54511 0
M  V30 9041 C 817.159 -1.04484 1.72996 0
M  V30 9042 C 817.48 -1.88118 0.513479 0
M  V30 9043 O 816.75 -1.90119 -0.472384 0
M  V30 9044 H 815.33 -0.388747 0.637875 0
M  V30 9045 H 817.992 -0.343811 1.91844 0
M  V30 9046 H 817.088 -1.70341 2.61515 0
M  V30 9047 N 817.389 -1.46805 -0.573248 0
M  V30 9048 C 818.617 -1.56191 -1.3569 0
M  V30 9049 C 819.032 -0.206362 -1.87669 0
M  V30 9050 O 818.389 0.797883 -1.64134 0
M  V30 9051 C 818.44 -2.57433 -2.53792 0
M  V30 9052 O 818.161 -3.87724 -2.03965 0
M  V30 9053 C 819.662 -2.76851 -3.4622 0
M  V30 9054 H 816.882 -0.527907 -0.414192 0
M  V30 9055 H 819.426 -1.92292 -0.695989 0
M  V30 9056 H 817.581 -2.24311 -3.15854 0
M  V30 9057 H 817.995 -4.42909 -2.80948 0
M  V30 9058 H 819.469 -3.5159 -4.25545 0
M  V30 9059 H 819.946 -1.84095 -3.98755 0
M  V30 9060 H 820.552 -3.11107 -2.89987 0
M  V30 9061 N 818.867 0.818669 -1.34668 0
M  V30 9062 C 820.113 1.57746 -1.27453 0
M  V30 9063 C 820.446 1.93588 0.154077 0
M  V30 9064 O 819.721 1.60371 1.10051 0
M  V30 9065 C 820.004 2.87414 -2.16945 0
M  V30 9066 C 819.857 2.58125 -3.68363 0
M  V30 9067 C 821.176 3.89021 -2.05792 0
M  V30 9068 H 818.295 0.572339 -0.464324 0
M  V30 9069 H 820.937 0.942784 -1.64959 0
M  V30 9070 H 819.087 3.41576 -1.85089 0
M  V30 9071 H 820.759 2.10239 -4.10606 0
M  V30 9072 H 819.002 1.91503 -3.89242 0
M  V30 9073 H 819.673 3.5061 -4.26353 0
M  V30 9074 H 822.149 3.44224 -2.33771 0
M  V30 9075 H 821.025 4.77548 -2.70628 0
M  V30 9076 H 821.286 4.29786 -1.03618 0
M  V30 9077 N 820.346 1.18468 1.03938 0
M  V30 9078 C 821.293 0.912859 2.1198 0
M  V30 9079 C 822.263 -0.14824 1.65437 0
M  V30 9080 O 823.448 -0.008331 1.90798 0
M  V30 9081 C 820.588 0.446114 3.42204 0
M  V30 9082 C 819.701 1.57278 4.02353 0
M  V30 9083 C 818.836 1.05863 5.20544 0
M  V30 9084 C 817.875 2.1599 5.72726 0
M  V30 9085 N 817.012 1.65959 6.82204 0
M  V30 9086 H 821.852 1.83798 2.34569 0
M  V30 9087 H 819.389 0.916504 1.15059 0
M  V30 9088 H 821.347 0.15697 4.16905 0
M  V30 9089 H 819.977 -0.442025 3.19759 0
M  V30 9090 H 819.029 1.97737 3.24968 0
M  V30 9091 H 820.341 2.40289 4.37107 0
M  V30 9092 H 819.495 0.724087 6.02364 0
M  V30 9093 H 818.234 0.198116 4.87297 0
M  V30 9094 H 817.239 2.50287 4.89527 0
M  V30 9095 H 818.464 3.02479 6.08016 0
M  V30 9096 H 816.41 0.82199 6.5083 0
M  V30 9097 H 816.327 2.42567 7.16029 0
M  V30 9098 H 817.595 1.35436 7.67644 0
M  V30 9099 N 821.824 -1.22873 0.986916 0
M  V30 9100 C 822.757 -2.23154 0.477245 0
M  V30 9101 C 823.735 -1.55981 -0.459206 0
M  V30 9102 O 824.919 -1.84503 -0.386141 0
M  V30 9103 C 822.046 -3.37289 -0.308838 0
M  V30 9104 C 821.092 -4.22637 0.572717 0
M  V30 9105 S 821.925 -4.95758 2.02446 0
M  V30 9106 C 823.081 -6.13338 1.2477 0
M  V30 9107 H 823.314 -2.6604 1.32702 0
M  V30 9108 H 820.847 -1.32455 0.793415 0
M  V30 9109 H 822.805 -4.03472 -0.756351 0
M  V30 9110 H 821.466 -2.92922 -1.13381 0
M  V30 9111 H 820.659 -5.0399 -0.0318024 0
M  V30 9112 H 820.261 -3.61555 0.956746 0
M  V30 9113 H 822.553 -6.7556 0.51231 0
M  V30 9114 H 823.496 -6.78189 2.03629 0
M  V30 9115 H 823.904 -5.59311 0.763622 0
M  V30 9116 N 823.302 -0.75937 -1.38099 0
M  V30 9117 C 824.55 -0.317485 -1.99591 0
M  V30 9118 C 824.871 1.10628 -1.60581 0
M  V30 9119 O 824.141 1.7575 -0.865378 0
M  V30 9120 H 822.721 -0.114397 -0.738189 0
M  V30 9121 H 825.383 -0.974749 -1.68774 0
M  V30 9122 H 824.479 -0.385227 -3.09713 0
M  V30 9123 N 824.78 1.49157 -0.508906 0
M  V30 9124 C 826.029 2.0167 0.0346854 0
M  V30 9125 C 826.342 1.39302 1.37311 0
M  V30 9126 O 827.548 1.83189 2.00385 0
M  V30 9127 C 826.004 3.59725 0.112261 0
M  V30 9128 C 825.612 4.31069 -1.21999 0
M  V30 9129 C 827.356 4.20155 0.605798 0
M  V30 9130 C 825.263 5.81001 -1.10415 0
M  V30 9131 H 824.193 0.753814 0.0167355 0
M  V30 9132 H 826.844 1.7162 -0.649518 0
M  V30 9133 H 825.226 3.86525 0.861087 0
M  V30 9134 H 826.4 4.15962 -1.98273 0
M  V30 9135 H 824.715 3.82418 -1.64759 0
M  V30 9136 H 827.312 5.29964 0.710102 0
M  V30 9137 H 827.655 3.84051 1.60656 0
M  V30 9138 H 828.188 3.97705 -0.0867239 0
M  V30 9139 H 824.927 6.21643 -2.07941 0
M  V30 9140 H 824.447 5.9858 -0.382428 0
M  V30 9141 H 826.126 6.42207 -0.786116 0
M  V30 9142 N 826.258 0.243083 1.55714 0
M  V30 9143 C 827.168 -0.668913 2.24862 0
M  V30 9144 C 828.184 -1.19638 1.26344 0
M  V30 9145 O 829.36 -1.23345 1.5921 0
M  V30 9146 C 826.425 -1.85084 2.93163 0
M  V30 9147 C 825.486 -1.36323 4.07081 0
M  V30 9148 C 824.719 -2.48882 4.72116 0
M  V30 9149 O 824.942 -3.67523 4.36214 0
M  V30 9150 O 823.876 -2.18857 5.60701 0
M  V30 9151 H 827.702 -0.109737 3.03502 0
M  V30 9152 H 825.287 0.0117411 1.49395 0
M  V30 9153 H 827.169 -2.54065 3.36197 0
M  V30 9154 H 825.844 -2.39771 2.17466 0
M  V30 9155 H 824.751 -0.640804 3.68571 0
M  V30 9156 H 826.084 -0.86249 4.84584 0
M  V30 9157 N 827.736 -1.57571 -0.0300757 0
M  V30 9158 C 828.668 -2.0329 -1.05857 0
M  V30 9159 C 829.681 -0.945543 -1.32527 0
M  V30 9160 O 830.87 -1.22287 -1.30032 0
M  V30 9161 C 827.97 -2.39234 -2.40042 0
M  V30 9162 C 827.143 -3.70337 -2.32743 0
M  V30 9163 C 826.202 -3.93482 -3.49369 0
M  V30 9164 O 825.228 -4.64551 -3.28909 0
M  V30 9165 N 826.43 -3.39042 -4.71201 0
M  V30 9166 H 829.195 -2.9214 -0.668897 0
M  V30 9167 H 826.756 -1.60425 -0.218038 0
M  V30 9168 H 828.748 -2.51856 -3.16782 0
M  V30 9169 H 827.318 -1.5606 -2.70858 0
M  V30 9170 H 826.538 -3.68079 -1.41109 0
M  V30 9171 H 827.826 -4.56343 -2.25007 0
M  V30 9172 H 827.224 -2.81434 -4.90725 0
M  V30 9173 H 825.781 -3.57045 -5.45309 0
M  V30 9174 N 829.214 0.302327 -1.54673 0
M  V30 9175 C 830.162 1.39286 -1.86285 0
M  V30 9176 C 831.156 1.52553 -0.736478 0
M  V30 9177 O 832.362 1.54686 -0.92045 0
M  V30 9178 H 828.737 0.465228 -0.590819 0
M  V30 9179 H 830.708 1.09859 -2.77441 0
M  V30 9180 C 829.457 2.75155 -2.12567 0
M  V30 9181 H 828.78 2.65728 -2.98712 0
M  V30 9182 H 830.22 3.50476 -2.38627 0
M  V30 9183 C 828.679 3.23987 -0.923813 0
M  V30 9184 O 829.209 4.01443 -0.143649 0
M  V30 9185 N 827.415 2.81293 -0.72956 0
M  V30 9186 H 826.962 2.18421 -1.36565 0
M  V30 9187 H 826.92 3.14315 0.0730351 0
M  V30 9188 N 830.692 1.47107 0.565454 0
M  V30 9189 C 831.625 1.53505 1.68853 0
M  V30 9190 C 832.603 0.387806 1.57908 0
M  V30 9191 O 833.787 0.594433 1.78882 0
M  V30 9192 C 830.914 1.42985 3.07039 0
M  V30 9193 C 829.96 2.62109 3.36454 0
M  V30 9194 S 830.793 4.2436 3.26617 0
M  V30 9195 C 831.949 4.16378 4.67312 0
M  V30 9196 H 832.182 2.48522 1.63169 0
M  V30 9197 H 829.715 1.35204 0.745609 0
M  V30 9198 H 831.673 1.37602 3.8675 0
M  V30 9199 H 830.334 0.493671 3.10196 0
M  V30 9200 H 829.527 2.50788 4.37174 0
M  V30 9201 H 829.129 2.64571 2.64345 0
M  V30 9202 H 831.421 3.84123 5.58082 0
M  V30 9203 H 832.364 5.17156 4.83689 0
M  V30 9204 H 832.772 3.47363 4.44971 0
M  V30 9205 N 832.17 -0.811516 1.35101 0
M  V30 9206 C 833.41 -1.58177 1.29458 0
M  V30 9207 C 833.774 -1.91555 -0.130688 0
M  V30 9208 O 834.975 -2.6699 -0.311428 0
M  V30 9209 C 833.246 -2.83896 2.17112 0
M  V30 9210 S 834.805 -3.74344 2.28936 0
M  V30 9211 H 831.623 -0.542021 0.460146 0
M  V30 9212 H 834.225 -0.957653 1.70438 0
M  V30 9213 H 832.929 -2.57391 3.19653 0
M  V30 9214 H 832.46 -3.51297 1.7707 0
M  V30 9215 H 834.475 -4.73909 1.47054 0
M  V30 9216 N 833.648 -1.19017 -1.03309 0
M  V30 9217 C 834.558 -0.939303 -2.14975 0
M  V30 9218 C 835.574 0.0992359 -1.73717 0
M  V30 9219 O 836.75 -0.0844362 -2.01223 0
M  V30 9220 C 833.815 -0.476712 -3.43407 0
M  V30 9221 C 832.876 -1.58413 -3.99003 0
M  V30 9222 C 832.109 -1.14352 -5.21305 0
M  V30 9223 O 832.332 -0.00534408 -5.704 0
M  V30 9224 O 831.266 -1.94436 -5.6963 0
M  V30 9225 H 835.092 -1.87386 -2.38998 0
M  V30 9226 H 832.677 -0.972635 -1.13403 0
M  V30 9227 H 834.559 -0.22718 -4.20787 0
M  V30 9228 H 833.234 0.429455 -3.20839 0
M  V30 9229 H 832.141 -1.88777 -3.22977 0
M  V30 9230 H 833.474 -2.4667 -4.25928 0
M  V30 9231 N 835.127 1.22348 -0.993418 0
M  V30 9232 C 836.373 1.91393 -0.67056 0
M  V30 9233 C 836.706 1.77163 0.795428 0
M  V30 9234 O 835.981 1.14084 1.57528 0
M  V30 9235 C 836.264 3.43589 -1.0779 0
M  V30 9236 C 836.117 3.66867 -2.60248 0
M  V30 9237 C 837.436 4.35545 -0.631527 0
M  V30 9238 H 834.555 0.695057 -0.24508 0
M  V30 9239 H 837.197 1.44213 -1.23703 0
M  V30 9240 H 835.347 3.83903 -0.595902 0
M  V30 9241 H 837.019 3.35954 -3.16121 0
M  V30 9242 H 835.262 3.1113 -3.02293 0
M  V30 9243 H 835.933 4.73457 -2.838 0
M  V30 9244 H 838.409 4.0275 -1.04554 0
M  V30 9245 H 837.285 5.40707 -0.944831 0
M  V30 9246 H 837.546 4.39618 0.467779 0
M  V30 9247 N 836.605 0.766683 1.37694 0
M  V30 9248 C 837.553 0.137269 2.32195 0
M  V30 9249 C 838.547 -0.69067 1.54681 0
M  V30 9250 O 839.753 -0.588299 1.70115 0
M  V30 9251 H 836.128 0.0256003 0.751564 0
M  V30 9252 H 838.099 0.950129 2.82869 0
M  V30 9253 C 836.848 -0.731446 3.39919 0
M  V30 9254 H 836.171 -0.103738 3.99665 0
M  V30 9255 H 837.611 -1.13891 4.08417 0
M  V30 9256 C 836.07 -1.87984 2.79578 0
M  V30 9257 O 836.6 -2.97496 2.69924 0
M  V30 9258 N 834.806 -1.6789 2.37195 0
M  V30 9259 H 834.353 -0.788162 2.45246 0
M  V30 9260 H 834.311 -2.44894 1.97165 0
M  V30 9261 N 838.083 -1.48885 0.516809 0
M  V30 9262 C 839.499 -1.58651 0.173788 0
M  V30 9263 C 839.699 -1.52033 -1.32243 0
M  V30 9264 O 838.755 -1.40251 -2.09967 0
M  V30 9265 C 840.068 -2.90816 0.764628 0
M  V30 9266 C 841.616 -3.04316 0.732164 0
M  V30 9267 C 842.091 -4.39123 1.30135 0
M  V30 9268 N 843.582 -4.45656 1.26273 0
M  V30 9269 C 844.317 -5.48446 1.67317 0
M  V30 9270 N 843.813 -6.58258 2.16028 0
M  V30 9271 N 845.606 -5.39251 1.58635 0
M  V30 9272 H 837.757 -1.5143 1.48939 0
M  V30 9273 H 840.02 -0.718243 0.618733 0
M  V30 9274 H 839.726 -3.01275 1.81456 0
M  V30 9275 H 839.6 -3.76473 0.234113 0
M  V30 9276 H 841.987 -2.93478 -0.308975 0
M  V30 9277 H 842.068 -2.20303 1.3 0
M  V30 9278 H 841.712 -4.50714 2.34135 0
M  V30 9279 H 841.642 -5.21801 0.709305 0
M  V30 9280 H 844.133 -3.66879 0.906006 0
M  V30 9281 H 844.446 -7.32811 2.45374 0
M  V30 9282 H 842.791 -6.59257 2.20013 0
M  V30 9283 H 845.982 -4.52354 1.20387 0
M  V30 9284 H 846.155 -6.19229 1.90944 0
M  V30 9285 N 839.561 -0.251338 -1.55583 0
M  V30 9286 C 840.786 0.379136 -2.03905 0
M  V30 9287 C 841.211 1.50428 -1.12929 0
M  V30 9288 O 840.569 1.80882 -0.123114 0
M  V30 9289 C 840.617 0.86009 -3.50193 0
M  V30 9290 O 839.721 1.96932 -3.62342 0
M  V30 9291 H 839.062 0.0820183 -0.658915 0
M  V30 9292 H 841.592 -0.378692 -2.01065 0
M  V30 9293 H 841.602 1.16214 -3.91099 0
M  V30 9294 H 840.277 0.0367559 -4.15884 0
M  V30 9295 H 838.854 1.67163 -3.33333 0
M  V30 9296 N 841.039 1.57585 0.0217189 0
M  V30 9297 C 842.286 1.89606 0.711045 0
M  V30 9298 C 842.614 0.849535 1.74966 0
M  V30 9299 O 841.869 -0.14856 1.95135 0
M  V30 9300 C 842.168 3.28377 1.41079 0
M  V30 9301 C 841.834 4.48035 0.507454 0
M  V30 9302 C 840.496 4.80504 0.258672 0
M  V30 9303 C 842.848 5.21071 -0.115793 0
M  V30 9304 C 840.176 5.83393 -0.622013 0
M  V30 9305 C 842.528 6.24897 -0.984224 0
M  V30 9306 C 841.192 6.55836 -1.2424 0
M  V30 9307 H 840.462 0.693817 0.26019 0
M  V30 9308 H 843.109 1.91478 -0.0291424 0
M  V30 9309 H 841.414 3.22528 2.22448 0
M  V30 9310 H 843.111 3.50404 1.94982 0
M  V30 9311 H 839.701 4.22653 0.711516 0
M  V30 9312 H 843.885 4.96259 0.0634327 0
M  V30 9313 H 839.141 6.05736 -0.830267 0
M  V30 9314 H 843.315 6.8063 -1.47363 0
M  V30 9315 H 840.942 7.35383 -1.92653 0
M  V30 9316 N 842.517 -0.29412 1.54831 0
M  V30 9317 C 843.742 -1.05156 1.78765 0
M  V30 9318 C 844.167 -1.79916 0.548809 0
M  V30 9319 O 843.525 -1.74243 -0.500909 0
M  V30 9320 C 843.573 -2.00242 2.99893 0
M  V30 9321 O 842.677 -3.08662 2.73499 0
M  V30 9322 H 842.018 -0.301737 0.591482 0
M  V30 9323 H 844.548 -0.329449 2.0193 0
M  V30 9324 H 844.558 -2.42583 3.28051 0
M  V30 9325 H 843.233 -1.45235 3.89717 0
M  V30 9326 H 841.81 -2.70786 2.56377 0
M  V30 9327 N 843.995 -1.47404 -0.557645 0
M  V30 9328 C 844.925 -1.62736 -1.67449 0
M  V30 9329 C 845.906 -0.476824 -1.6328 0
M  V30 9330 O 847.091 -0.706108 -1.80908 0
M  V30 9331 C 844.221 -1.641 -3.06086 0
M  V30 9332 C 843.175 -2.78377 -3.25101 0
M  V30 9333 C 842.501 -2.64812 -4.6452 0
M  V30 9334 C 843.801 -4.19971 -3.10518 0
M  V30 9335 H 845.495 -2.56232 -1.54873 0
M  V30 9336 H 843.041 -1.23312 -0.743649 0
M  V30 9337 H 844.994 -1.73417 -3.84063 0
M  V30 9338 H 843.718 -0.671652 -3.19619 0
M  V30 9339 H 842.377 -2.6857 -2.49531 0
M  V30 9340 H 842.025 -1.65906 -4.74852 0
M  V30 9341 H 841.725 -3.41477 -4.78191 0
M  V30 9342 H 843.249 -2.76057 -5.44633 0
M  V30 9343 H 844.663 -4.30757 -3.78313 0
M  V30 9344 H 843.06 -4.97419 -3.35699 0
M  V30 9345 H 844.13 -4.38369 -2.0727 0
M  V30 9346 N 845.473 0.80434 -1.35529 0
M  V30 9347 C 846.42 1.91629 -1.28635 0
M  V30 9348 C 847.39 1.65348 -0.157862 0
M  V30 9349 O 848.575 1.87711 -0.341934 0
M  V30 9350 C 845.715 3.28207 -1.0665 0
M  V30 9351 C 844.828 3.66659 -2.28441 0
M  V30 9352 C 843.963 4.92279 -1.99588 0
M  V30 9353 C 843.002 5.23365 -3.1742 0
M  V30 9354 N 842.139 6.40165 -2.88328 0
M  V30 9355 H 846.979 1.96858 -2.23721 0
M  V30 9356 H 844.516 0.962871 -1.11208 0
M  V30 9357 H 846.474 4.06945 -0.919343 0
M  V30 9358 H 845.104 3.22441 -0.152253 0
M  V30 9359 H 844.156 2.83164 -2.54013 0
M  V30 9360 H 845.468 3.8559 -3.1642 0
M  V30 9361 H 844.622 5.78847 -1.81715 0
M  V30 9362 H 843.361 4.75387 -1.08896 0
M  V30 9363 H 842.366 4.35285 -3.35867 0
M  V30 9364 H 843.591 5.42185 -4.08916 0
M  V30 9365 H 841.537 6.24694 -2.00233 0
M  V30 9366 H 841.454 6.59357 -3.69843 0
M  V30 9367 H 842.722 7.29755 -2.74002 0
M  V30 9368 N 846.951 1.19563 1.02676 0
M  V30 9369 C 847.861 0.950691 2.14474 0
M  V30 9370 C 848.877 -0.0900219 1.73767 0
M  V30 9371 O 850.053 0.0951063 2.01175 0
M  V30 9372 C 847.118 0.494917 3.43149 0
M  V30 9373 C 846.179 1.60527 3.98158 0
M  V30 9374 C 845.412 1.17115 5.20692 0
M  V30 9375 O 845.635 0.0355937 5.70389 0
M  V30 9376 O 844.569 1.97454 5.68591 0
M  V30 9377 H 848.395 1.88651 2.38001 0
M  V30 9378 H 845.98 0.978635 1.12885 0
M  V30 9379 H 847.862 0.249492 4.20661 0
M  V30 9380 H 846.537 -0.412434 3.21062 0
M  V30 9381 H 845.444 1.90487 3.21971 0
M  V30 9382 H 846.777 2.48925 4.24614 0
M  V30 9383 N 848.429 -1.21819 0.999893 0
M  V30 9384 C 849.654 -1.95298 0.698094 0
M  V30 9385 C 850.079 -1.73273 -0.731982 0
M  V30 9386 O 849.437 -1.01634 -1.50134 0
M  V30 9387 C 849.485 -3.45922 1.01834 0
M  V30 9388 O 848.589 -4.12223 0.120801 0
M  V30 9389 H 847.93 -0.610729 0.260588 0
M  V30 9390 H 850.46 -1.5472 1.33876 0
M  V30 9391 H 850.47 -3.96471 0.963074 0
M  V30 9392 H 849.145 -3.61278 2.06037 0
M  V30 9393 H 847.722 -3.72177 0.232153 0
M  V30 9394 N 849.908 -0.773975 -1.37286 0
M  V30 9395 C 851.157 -0.335977 -1.98882 0
M  V30 9396 C 851.47 1.09416 -1.62134 0
M  V30 9397 O 852.676 1.63366 -2.1685 0
M  V30 9398 C 851.132 -0.549756 -3.55676 0
M  V30 9399 C 850.74 -1.9903 -4.01361 0
M  V30 9400 C 852.484 -0.175493 -4.24137 0
M  V30 9401 C 850.391 -2.15156 -5.50874 0
M  V30 9402 H 849.321 -0.121877 -0.744085 0
M  V30 9403 H 851.972 -0.953419 -1.56787 0
M  V30 9404 H 850.354 0.137175 -3.95762 0
M  V30 9405 H 851.528 -2.71237 -3.72515 0
M  V30 9406 H 849.843 -2.32137 -3.4569 0
M  V30 9407 H 852.44 -0.274463 -5.33995 0
M  V30 9408 H 852.783 0.874524 -4.07011 0
M  V30 9409 H 853.316 -0.815058 -3.89361 0
M  V30 9410 H 850.055 -3.18485 -5.72929 0
M  V30 9411 H 849.575 -1.47435 -5.81397 0
M  V30 9412 H 851.254 -1.95124 -6.16876 0
M  V30 9413 N 851.386 1.48609 -0.524698 0
M  V30 9414 C 852.319 2.26374 0.288109 0
M  V30 9415 C 853.297 1.31997 0.949509 0
M  V30 9416 O 854.481 1.61329 0.974946 0
M  V30 9417 C 851.608 3.08065 1.4076 0
M  V30 9418 C 850.654 4.17777 0.858152 0
M  V30 9419 S 851.487 5.3482 -0.269827 0
M  V30 9420 C 852.643 6.2007 0.852266 0
M  V30 9421 H 852.876 2.94965 -0.371865 0
M  V30 9422 H 850.409 1.51248 -0.31039 0
M  V30 9423 H 852.367 3.5571 2.04892 0
M  V30 9424 H 851.028 2.38898 2.03928 0
M  V30 9425 H 850.221 4.74542 1.69783 0
M  V30 9426 H 849.823 3.72846 0.293627 0
M  V30 9427 H 852.115 6.54451 1.75213 0
M  V30 9428 H 853.058 7.07364 0.322717 0
M  V30 9429 H 853.466 5.53068 1.13029 0
M  V30 9430 N 852.864 0.259585 1.55447 0
M  V30 9431 C 853.811 -0.634578 2.21905 0
M  V30 9432 C 854.781 -1.16168 1.18719 0
M  V30 9433 O 855.966 -1.21383 1.4721 0
M  V30 9434 C 853.106 -1.82005 2.93203 0
M  V30 9435 C 852.219 -1.32828 4.11073 0
M  V30 9436 C 851.354 -2.47431 4.70055 0
M  V30 9437 C 850.393 -1.95179 5.80148 0
M  V30 9438 N 849.53 -3.03197 6.33258 0
M  V30 9439 H 854.37 -0.0611886 2.97937 0
M  V30 9440 H 851.907 -0.0184378 1.47088 0
M  V30 9441 H 853.865 -2.51664 3.32748 0
M  V30 9442 H 852.495 -2.36571 2.19622 0
M  V30 9443 H 851.547 -0.525301 3.76756 0
M  V30 9444 H 852.859 -0.905435 4.90513 0
M  V30 9445 H 852.013 -3.25111 5.12238 0
M  V30 9446 H 850.752 -2.93023 3.89857 0
M  V30 9447 H 849.757 -1.15974 5.37429 0
M  V30 9448 H 850.982 -1.50541 6.62204 0
M  V30 9449 H 848.928 -3.48199 5.55961 0
M  V30 9450 H 848.845 -2.65282 7.07928 0
M  V30 9451 H 850.113 -3.80898 6.80101 0
M  V30 9452 N 854.342 -1.57594 -0.0133615 0
M  V30 9453 C 855.588 -1.91105 -0.696457 0
M  V30 9454 C 855.943 -0.859872 -1.72116 0
M  V30 9455 O 855.236 0.129579 -1.91161 0
M  V30 9456 C 855.43 -3.29121 -1.39336 0
M  V30 9457 C 855.259 -4.47565 -0.437666 0
M  V30 9458 C 854.029 -5.05272 -0.0529454 0
M  V30 9459 C 856.227 -5.13479 0.290537 0
M  V30 9460 N 854.209 -6.07232 0.902355 0
M  V30 9461 C 855.58 -6.10147 1.10097 0
M  V30 9462 C 857.635 -4.96627 0.355804 0
M  V30 9463 C 856.338 -6.91778 1.97069 0
M  V30 9464 C 858.364 -5.78833 1.21271 0
M  V30 9465 C 857.726 -6.75083 2.01102 0
M  V30 9466 H 853.825 -0.747882 -0.228464 0
M  V30 9467 H 856.409 -1.94651 0.0438462 0
M  V30 9468 H 854.58 -3.26474 -2.10403 0
M  V30 9469 H 856.312 -3.501 -2.03008 0
M  V30 9470 H 853.067 -4.71747 -0.418486 0
M  V30 9471 H 853.491 -6.6289 1.37498 0
M  V30 9472 H 858.133 -4.22077 -0.247105 0
M  V30 9473 H 855.851 -7.65662 2.58433 0
M  V30 9474 H 859.437 -5.67838 1.26694 0
M  V30 9475 H 858.317 -7.37587 2.66337 0
M  V30 9476 N 855.82 0.285905 -1.54985 0
M  V30 9477 C 856.75 1.35752 -1.89983 0
M  V30 9478 C 857.731 1.52163 -0.760295 0
M  V30 9479 O 858.916 1.65421 -1.01733 0
M  V30 9480 C 856.046 2.71925 -2.16042 0
M  V30 9481 C 855 2.70261 -3.31878 0
M  V30 9482 C 854.326 4.09864 -3.43388 0
M  V30 9483 C 855.626 2.30667 -4.68604 0
M  V30 9484 H 857.32 1.06709 -2.79738 0
M  V30 9485 H 854.866 0.511884 -1.34595 0
M  V30 9486 H 856.819 3.46992 -2.39113 0
M  V30 9487 H 855.543 3.02523 -1.23074 0
M  V30 9488 H 854.202 1.97651 -3.08755 0
M  V30 9489 H 853.85 4.37664 -2.47909 0
M  V30 9490 H 853.55 4.09648 -4.21262 0
M  V30 9491 H 855.074 4.86689 -3.68736 0
M  V30 9492 H 856.488 2.95453 -4.91305 0
M  V30 9493 H 854.885 2.41637 -5.49301 0
M  V30 9494 H 855.955 1.25793 -4.68299 0
M  V30 9495 N 857.298 1.47698 0.54982 0
M  V30 9496 C 858.228 1.63622 1.66583 0
M  V30 9497 C 859.209 0.485477 1.63025 0
M  V30 9498 O 860.394 0.715692 1.80531 0
M  V30 9499 C 857.524 1.65721 3.05211 0
M  V30 9500 C 856.478 2.80097 3.2362 0
M  V30 9501 C 855.804 2.67272 4.63109 0
M  V30 9502 C 857.104 4.21612 3.08286 0
M  V30 9503 H 858.798 2.57049 1.53512 0
M  V30 9504 H 856.344 1.23705 0.737099 0
M  V30 9505 H 858.297 1.75451 3.83138 0
M  V30 9506 H 857.021 0.688593 3.19258 0
M  V30 9507 H 855.68 2.69889 2.48104 0
M  V30 9508 H 855.328 1.68422 4.73965 0
M  V30 9509 H 855.028 3.44008 4.76374 0
M  V30 9510 H 856.552 2.78942 5.43161 0
M  V30 9511 H 857.966 4.32758 3.76024 0
M  V30 9512 H 856.363 4.99193 3.33057 0
M  V30 9513 H 857.433 4.39462 2.04942 0
M  V30 9514 N 858.776 -0.797141 1.35954 0
M  V30 9515 C 860.023 -1.55468 1.29754 0
M  V30 9516 C 860.351 -1.94095 -0.125391 0
M  V30 9517 O 859.606 -1.62341 -1.09288 0
M  V30 9518 C 859.905 -2.84847 2.15863 0
M  V30 9519 C 859.571 -2.65394 3.64523 0
M  V30 9520 C 858.233 -2.59796 4.05042 0
M  V30 9521 C 860.585 -2.4727 4.58811 0
M  V30 9522 C 857.913 -2.3403 5.38002 0
M  V30 9523 C 860.265 -2.23032 5.91979 0
M  V30 9524 C 858.929 -2.15862 6.31633 0
M  V30 9525 H 858.199 -0.568897 0.474803 0
M  V30 9526 H 860.846 -0.920299 1.67937 0
M  V30 9527 H 859.151 -3.52712 1.70591 0
M  V30 9528 H 860.848 -3.42597 2.08395 0
M  V30 9529 H 857.438 -2.70602 3.32374 0
M  V30 9530 H 861.622 -2.506 4.28384 0
M  V30 9531 H 856.878 -2.26956 5.67715 0
M  V30 9532 H 861.052 -2.08001 6.64612 0
M  V30 9533 H 858.679 -1.9566 7.34589 0
M  V30 9534 N 860.254 -1.20106 -1.0204 0
M  V30 9535 C 861.484 -1.0329 -1.78927 0
M  V30 9536 C 861.892 0.421115 -1.84454 0
M  V30 9537 O 861.235 1.30422 -1.29367 0
M  V30 9538 C 861.297 -1.53627 -3.25021 0
M  V30 9539 C 860.961 -3.01869 -3.4311 0
M  V30 9540 C 861.958 -3.9956 -3.32638 0
M  V30 9541 C 859.643 -3.40746 -3.6905 0
M  V30 9542 C 861.637 -5.34119 -3.47844 0
M  V30 9543 C 859.324 -4.75462 -3.839 0
M  V30 9544 C 860.322 -5.71957 -3.73302 0
M  V30 9545 O 860.01 -7.04231 -3.87703 0
M  V30 9546 H 859.742 -0.363962 -0.569656 0
M  V30 9547 H 862.296 -1.59551 -1.29354 0
M  V30 9548 H 860.526 -0.917481 -3.75658 0
M  V30 9549 H 862.215 -1.32889 -3.8353 0
M  V30 9550 H 862.981 -3.70869 -3.12539 0
M  V30 9551 H 858.86 -2.66182 -3.76388 0
M  V30 9552 H 862.404 -6.09421 -3.39488 0
M  V30 9553 H 858.301 -5.03844 -4.03499 0
M  V30 9554 H 859.069 -7.11425 -4.04744 0
M  V30 9555 N 861.732 1.21287 -1.00634 0
M  V30 9556 C 862.664 2.2308 -0.526094 0
M  V30 9557 C 863.677 1.58157 0.386031 0
M  V30 9558 O 864.866 1.77528 0.186016 0
M  V30 9559 C 861.966 3.37937 0.255289 0
M  V30 9560 C 861.139 4.32449 -0.656236 0
M  V30 9561 C 860.198 5.26145 0.0757714 0
M  V30 9562 O 859.224 5.66601 -0.543325 0
M  V30 9563 N 860.426 5.6449 1.35391 0
M  V30 9564 H 863.191 2.64913 -1.40147 0
M  V30 9565 H 860.752 1.35724 -0.882641 0
M  V30 9566 H 862.744 3.97614 0.753977 0
M  V30 9567 H 861.314 2.95078 1.03187 0
M  V30 9568 H 860.534 3.70892 -1.3354 0
M  V30 9569 H 861.822 4.92526 -1.27653 0
M  V30 9570 H 861.22 5.33617 1.878 0
M  V30 9571 H 859.777 6.26524 1.79753 0
M  V30 9572 N 863.21 0.781244 1.36873 0
M  V30 9573 C 864.14 0.188128 2.32741 0
M  V30 9574 C 865.121 -0.672326 1.56249 0
M  V30 9575 O 866.306 -0.607835 1.84442 0
M  V30 9576 C 863.436 -0.684341 3.40491 0
M  V30 9577 C 862.39 0.0755641 4.27933 0
M  V30 9578 C 861.716 -0.916968 5.26779 0
M  V30 9579 C 863.016 1.26006 5.06873 0
M  V30 9580 H 864.71 0.989016 2.82593 0
M  V30 9581 H 862.256 0.477038 1.35869 0
M  V30 9582 H 864.209 -1.10915 4.06541 0
M  V30 9583 H 862.933 -1.51785 2.89187 0
M  V30 9584 H 861.592 0.481258 3.63427 0
M  V30 9585 H 861.24 -1.74528 4.71751 0
M  V30 9586 H 860.94 -0.413 5.86147 0
M  V30 9587 H 862.464 -1.34052 5.95703 0
M  V30 9588 H 863.878 0.911425 5.66009 0
M  V30 9589 H 862.275 1.69676 5.75613 0
M  V30 9590 H 863.345 2.05948 4.38991 0
M  V30 9591 N 864.689 -1.48329 0.532571 0
M  V30 9592 C 865.599 -2.33445 -0.232546 0
M  V30 9593 C 866.615 -1.46651 -0.93645 0
M  V30 9594 O 867.791 -1.79627 -0.910834 0
M  V30 9595 C 864.856 -3.22824 -1.26434 0
M  V30 9596 C 863.917 -4.25492 -0.570511 0
M  V30 9597 C 863.15 -5.10601 -1.55315 0
M  V30 9598 O 863.373 -4.97733 -2.78599 0
M  V30 9599 O 862.307 -5.91927 -1.09112 0
M  V30 9600 H 866.133 -3.00119 0.464988 0
M  V30 9601 H 863.718 -1.46489 0.293462 0
M  V30 9602 H 865.6 -3.78103 -1.86055 0
M  V30 9603 H 864.275 -2.58807 -1.94424 0
M  V30 9604 H 863.182 -3.74041 0.0662587 0
M  V30 9605 H 864.515 -4.92154 0.0674904 0
M  V30 9606 N 866.167 -0.267825 -1.55308 0
M  V30 9607 C 867.415 0.350343 -1.9904 0
M  V30 9608 C 867.736 1.56924 -1.15758 0
M  V30 9609 O 867.006 1.94358 -0.245336 0
M  V30 9610 H 865.586 0.132435 -0.735167 0
M  V30 9611 H 868.248 -0.371471 -1.91327 0
M  V30 9612 H 867.344 0.645203 -3.05358 0
M  V30 9613 N 867.645 1.57599 0.00500368 0
M  V30 9614 C 868.922 1.81561 0.727654 0
M  V30 9615 C 869.302 0.871604 1.92266 0
M  V30 9616 O 868.65 -0.0808232 2.28357 0
M  V30 9617 C 868.86 3.29922 1.13809 0
M  V30 9618 C 870.208 3.95531 1.54403 0
M  V30 9619 O 871.232 3.34215 1.23202 0
M  V30 9620 O 870.091 5.03535 2.12402 0
M  V30 9621 H 867.185 0.747462 0.353878 0
M  V30 9622 H 869.731 1.69688 -0.0200667 0
M  V30 9623 H 868.503 3.90253 0.286078 0
M  V30 9624 H 868.126 3.46775 1.94507 0
M  V30 9625 N 869.123 -0.277682 1.55134 0
M  V30 9626 C 870.053 -1.34742 1.90701 0
M  V30 9627 C 871.034 -1.51757 0.768354 0
M  V30 9628 O 872.219 -1.64879 1.02609 0
M  V30 9629 C 869.349 -2.70775 2.17481 0
M  V30 9630 C 868.303 -2.68497 3.33307 0
M  V30 9631 C 867.629 -4.08037 3.45557 0
M  V30 9632 C 868.929 -2.28178 4.69821 0
M  V30 9633 H 870.623 -1.05224 2.803 0
M  V30 9634 H 868.169 -0.504738 1.34864 0
M  V30 9635 H 870.122 -3.45719 2.40949 0
M  V30 9636 H 868.846 -3.01867 1.24676 0
M  V30 9637 H 867.505 -1.9601 3.09799 0
M  V30 9638 H 867.153 -4.36344 2.50226 0
M  V30 9639 H 866.853 -4.07409 4.23429 0
M  V30 9640 H 868.377 -4.84726 3.71312 0
M  V30 9641 H 869.791 -2.92843 4.92865 0
M  V30 9642 H 868.188 -2.3872 5.50575 0
M  V30 9643 H 869.258 -1.23308 4.6896 0
M  V30 9644 N 870.601 -1.47988 -0.541979 0
M  V30 9645 C 871.511 -1.64276 -1.67483 0
M  V30 9646 C 872.527 -0.525387 -1.65879 0
M  V30 9647 O 873.703 -0.794912 -1.85049 0
M  V30 9648 C 870.768 -1.66744 -3.03969 0
M  V30 9649 C 869.829 -2.90021 -3.16522 0
M  V30 9650 C 869.062 -2.92362 -4.46498 0
M  V30 9651 O 869.285 -2.03462 -5.32878 0
M  V30 9652 O 868.219 -3.84399 -4.63164 0
M  V30 9653 H 872.045 -2.60164 -1.5668 0
M  V30 9654 H 869.63 -1.31249 -0.71372 0
M  V30 9655 H 871.512 -1.70958 -3.85164 0
M  V30 9656 H 870.187 -0.740277 -3.15122 0
M  V30 9657 H 869.094 -2.91345 -2.34667 0
M  V30 9658 H 870.427 -3.82082 -3.10281 0
M  V30 9659 N 872.079 0.78992 -1.36375 0
M  V30 9660 C 873.027 1.92394 -1.30719 0
M  V30 9661 C 874.021 1.68226 -0.199076 0
M  V30 9662 O 875.227 1.76239 -0.366051 0
M  V30 9663 H 871.602 0.632382 -0.406936 0
M  V30 9664 H 873.573 1.94282 -2.26488 0
M  V30 9665 C 872.322 3.2941 -1.11284 0
M  V30 9666 H 871.645 3.48573 -1.95798 0
M  V30 9667 H 873.085 4.09111 -1.11373 0
M  V30 9668 C 871.544 3.36405 0.182543 0
M  V30 9669 O 872.074 3.84206 1.17255 0
M  V30 9670 N 870.28 2.89712 0.227046 0
M  V30 9671 H 869.827 2.51004 -0.579217 0
M  V30 9672 H 869.785 2.94773 1.09344 0
M  V30 9673 N 873.557 1.20646 1.01402 0
M  V30 9674 C 874.782 1.04462 1.79172 0
M  V30 9675 C 875.207 -0.401588 1.83763 0
M  V30 9676 O 874.565 -1.28934 1.27459 0
M  V30 9677 C 874.613 1.63583 3.21361 0
M  V30 9678 O 873.717 0.875198 4.03006 0
M  V30 9679 H 873.058 0.368235 0.552539 0
M  V30 9680 H 875.588 1.59994 1.27526 0
M  V30 9681 H 875.598 1.67426 3.72065 0
M  V30 9682 H 874.273 2.68835 3.17334 0
M  V30 9683 H 872.85 0.911172 3.61597 0
M  V30 9684 N 875.035 -1.20752 1.01276 0
M  V30 9685 C 876.263 -1.94006 0.718976 0
M  V30 9686 C 876.678 -1.74544 -0.719711 0
M  V30 9687 O 876.035 -1.05697 -1.48776 0
M  V30 9688 C 876.086 -3.46208 1.04031 0
M  V30 9689 O 875.807 -3.65031 2.42248 0
M  V30 9690 C 877.308 -4.36614 0.767032 0
M  V30 9691 H 874.528 -0.616743 0.264327 0
M  V30 9692 H 877.072 -1.53352 1.3529 0
M  V30 9693 H 875.227 -3.84756 0.451852 0
M  V30 9694 H 875.641 -4.59054 2.53712 0
M  V30 9695 H 877.115 -5.42076 1.04198 0
M  V30 9696 H 877.592 -4.38182 -0.298851 0
M  V30 9697 H 878.198 -4.03723 1.33746 0
M  V30 9698 N 876.513 -0.788492 -1.36457 0
M  V30 9699 C 877.423 -0.187385 -2.3385 0
M  V30 9700 C 878.439 0.659984 -1.60998 0
M  V30 9701 O 879.615 0.575986 -1.92988 0
M  V30 9702 C 876.68 0.668525 -3.40194 0
M  V30 9703 C 875.741 -0.197234 -4.28847 0
M  V30 9704 C 874.974 0.61792 -5.30111 0
M  V30 9705 O 875.197 1.85396 -5.3943 0
M  V30 9706 O 874.131 0.0183016 -6.01897 0
M  V30 9707 H 877.957 -0.992617 -2.87021 0
M  V30 9708 H 875.542 -0.549934 -1.3891 0
M  V30 9709 H 877.424 1.15663 -4.05216 0
M  V30 9710 H 876.099 1.45166 -2.89324 0
M  V30 9711 H 875.006 -0.73207 -3.66867 0
M  V30 9712 H 876.339 -0.943863 -4.83065 0
M  V30 9713 N 877.991 1.48044 -0.54043 0
M  V30 9714 C 879.237 2.02797 -0.0101718 0
M  V30 9715 C 879.57 1.41565 1.32939 0
M  V30 9716 O 878.845 0.565139 1.86109 0
M  V30 9717 C 879.128 3.59959 0.100758 0
M  V30 9718 C 878.981 4.31654 -1.26471 0
M  V30 9719 C 880.3 4.32347 0.822455 0
M  V30 9720 H 877.419 0.736982 -0.00517052 0
M  V30 9721 H 880.061 1.76656 -0.69948 0
M  V30 9722 H 878.211 3.82363 0.687824 0
M  V30 9723 H 879.883 4.20639 -1.89369 0
M  V30 9724 H 878.126 3.92663 -1.84386 0
M  V30 9725 H 878.797 5.401 -1.13998 0
M  V30 9726 H 881.273 4.14835 0.324164 0
M  V30 9727 H 880.149 5.41978 0.868993 0
M  V30 9728 H 880.41 4.00369 1.87501 0
M  V30 9729 N 879.47 0.276058 1.55163 0
M  V30 9730 C 880.881 -0.221516 1.85381 0
M  V30 9731 C 881.232 -1.55372 1.19808 0
M  V30 9732 O 880.357 -2.10855 0.486742 0
M  V30 9733 C 880.952 -0.408706 3.36326 0
M  V30 9734 C 879.511 -0.850512 3.66665 0
M  V30 9735 C 878.658 0.055656 2.77244 0
M  V30 9736 H 881.609 0.497819 1.5069 0
M  V30 9737 H 881.63 -1.24711 3.59482 0
M  V30 9738 H 881.142 0.561052 3.84023 0
M  V30 9739 H 879.243 -1.83171 3.24468 0
M  V30 9740 H 879.356 -0.687181 4.74146 0
M  V30 9741 H 877.72 -0.460819 2.50497 0
M  V30 9742 H 878.503 1.02131 3.27756 0
M  V30 9743 N 880.948 -1.576 0.00335426 0
M  V30 9744 C 882.359 -1.7875 -0.539008 0
M  V30 9745 C 882.71 -0.911097 -1.73763 0
M  V30 9746 O 881.835 -0.114476 -2.16097 0
M  V30 9747 C 882.43 -3.24177 -0.984611 0
M  V30 9748 C 880.989 -3.46412 -1.47226 0
M  V30 9749 C 880.136 -2.74024 -0.425004 0
M  V30 9750 H 883.087 -1.57032 0.229511 0
M  V30 9751 H 883.108 -3.32474 -1.85044 0
M  V30 9752 H 882.62 -3.87938 -0.112035 0
M  V30 9753 H 880.721 -2.8787 -2.36562 0
M  V30 9754 H 880.834 -4.55098 -1.49741 0
M  V30 9755 H 879.198 -2.38741 -0.887394 0
M  V30 9756 H 879.981 -3.40486 0.438662 0
M  V30 9757 N 882.426 0.269451 -1.5528 0
M  V30 9758 C 883.675 0.998381 -1.75258 0
M  V30 9759 C 883.988 1.87321 -0.563034 0
M  V30 9760 O 885.194 2.63719 -0.645313 0
M  V30 9761 C 883.65 1.82505 -3.10193 0
M  V30 9762 C 883.258 0.99871 -4.36726 0
M  V30 9763 C 885.002 2.54807 -3.3952 0
M  V30 9764 C 882.909 1.81997 -5.627 0
M  V30 9765 H 881.839 0.376488 -0.653278 0
M  V30 9766 H 884.49 0.253909 -1.81735 0
M  V30 9767 H 882.872 2.61061 -2.97763 0
M  V30 9768 H 884.046 0.257064 -4.60082 0
M  V30 9769 H 882.361 0.390074 -4.14569 0
M  V30 9770 H 884.958 3.16662 -4.30847 0
M  V30 9771 H 885.301 3.25273 -2.59813 0
M  V30 9772 H 885.834 1.83278 -3.53064 0
M  V30 9773 H 882.573 1.15945 -6.45164 0
M  V30 9774 H 882.093 2.53749 -5.43481 0
M  V30 9775 H 883.772 2.39274 -6.0113 0
M  V30 9776 N 883.904 1.48273 0.534124 0
M  V30 9777 C 884.834 1.6538 1.64839 0
M  V30 9778 C 885.815 0.502741 1.62501 0
M  V30 9779 O 887 0.734799 1.79762 0
M  V30 9780 C 884.13 1.68949 3.03436 0
M  V30 9781 C 883.084 2.83513 3.20631 0
M  V30 9782 C 882.41 2.72169 4.60248 0
M  V30 9783 C 883.71 4.24858 3.03797 0
M  V30 9784 H 885.404 2.58663 1.50777 0
M  V30 9785 H 882.95 1.24479 0.723937 0
M  V30 9786 H 884.903 1.79505 3.81256 0
M  V30 9787 H 883.627 0.722415 3.1851 0
M  V30 9788 H 882.286 2.72505 2.45227 0
M  V30 9789 H 881.934 1.7344 4.72152 0
M  V30 9790 H 881.634 3.49042 4.72698 0
M  V30 9791 H 883.158 2.84687 5.40172 0
M  V30 9792 H 884.572 4.36721 3.71413 0
M  V30 9793 H 882.969 5.02697 3.27743 0
M  V30 9794 H 884.039 4.41611 2.0027 0
M  V30 9795 N 885.382 -0.782676 1.36792 0
M  V30 9796 C 886.332 -1.8855 1.28191 0
M  V30 9797 C 887.316 -1.59978 0.171984 0
M  V30 9798 O 888.508 -1.72295 0.405405 0
M  V30 9799 C 885.637 -3.25862 1.08021 0
M  V30 9800 C 884.723 -3.60422 2.2351 0
M  V30 9801 N 885.114 -3.66241 3.48857 0
M  V30 9802 C 883.412 -3.90523 2.15424 0
M  V30 9803 C 884.113 -3.97233 4.24948 0
M  V30 9804 N 883.089 -4.12567 3.53963 0
M  V30 9805 H 886.891 -1.91285 2.23131 0
M  V30 9806 H 884.405 -0.978554 1.29607 0
M  V30 9807 H 886.402 -4.04742 0.999458 0
M  V30 9808 H 885.062 -3.24399 0.139882 0
M  V30 9809 H 886.073 -3.48717 3.82906 0
M  V30 9810 H 882.75 -3.96945 1.29386 0
M  V30 9811 H 884.14 -4.08602 5.33379 0
M  V30 9812 N 886.86 -1.21182 -1.00761 0
M  V30 9813 C 888.085 -1.05411 -1.78615 0
M  V30 9814 C 888.51 0.391837 -1.83973 0
M  V30 9815 O 887.868 1.28256 -1.28141 0
M  V30 9816 C 887.916 -1.65285 -3.20489 0
M  V30 9817 O 887.02 -0.896558 -4.02536 0
M  V30 9818 H 886.361 -0.37116 -0.550578 0
M  V30 9819 H 888.891 -1.60669 -1.26676 0
M  V30 9820 H 888.901 -1.69397 -3.71172 0
M  V30 9821 H 887.576 -2.70514 -3.15904 0
M  V30 9822 H 886.153 -0.930335 -3.61108 0
M  V30 9823 N 888.338 1.20213 -1.01915 0
M  V30 9824 C 889.286 2.25125 -0.584936 0
M  V30 9825 C 890.28 1.65138 0.377602 0
M  V30 9826 O 891.486 1.78294 0.247245 0
M  V30 9827 H 887.861 0.732333 -0.170858 0
M  V30 9828 H 889.832 2.59075 -1.48063 0
M  V30 9829 C 888.581 3.47651 0.058389 0
M  V30 9830 H 887.904 3.9409 -0.673263 0
M  V30 9831 H 889.344 4.2275 0.325285 0
M  V30 9832 C 887.803 3.10725 1.30199 0
M  V30 9833 O 888.333 3.22491 2.39505 0
M  V30 9834 N 886.539 2.6525 1.18706 0
M  V30 9835 H 886.086 2.55875 0.297618 0
M  V30 9836 H 886.044 2.40913 2.02011 0
M  V30 9837 N 889.816 0.795718 1.36037 0
M  V30 9838 C 891.063 0.371024 1.99072 0
M  V30 9839 C 891.391 -1.05896 1.63145 0
M  V30 9840 O 890.646 -1.7474 0.881163 0
M  V30 9841 C 890.945 0.489038 3.54038 0
M  V30 9842 C 890.611 1.88075 4.09803 0
M  V30 9843 C 889.273 2.26152 4.24745 0
M  V30 9844 C 891.625 2.79174 4.40126 0
M  V30 9845 C 888.953 3.54718 4.67324 0
M  V30 9846 C 891.305 4.07175 4.8414 0
M  V30 9847 C 889.969 4.45266 4.97287 0
M  V30 9848 H 889.239 0.135767 0.728456 0
M  V30 9849 H 891.886 1.0144 1.62426 0
M  V30 9850 H 890.191 -0.237823 3.91078 0
M  V30 9851 H 891.888 0.141374 4.00751 0
M  V30 9852 H 888.478 1.57488 3.98617 0
M  V30 9853 H 892.662 2.51009 4.28145 0
M  V30 9854 H 887.918 3.84093 4.75691 0
M  V30 9855 H 892.092 4.77875 5.06565 0
M  V30 9856 H 889.719 5.44943 5.30038 0
M  V30 9857 N 891.294 -1.47756 0.548274 0
M  V30 9858 C 892.705 -1.8636 0.112547 0
M  V30 9859 C 893.056 -1.45589 -1.31523 0
M  V30 9860 O 892.181 -0.854874 -1.98799 0
M  V30 9861 C 892.776 -3.38224 0.197473 0
M  V30 9862 C 891.335 -3.75954 -0.183163 0
M  V30 9863 C 890.482 -2.7181 0.549059 0
M  V30 9864 H 893.433 -1.394 0.758506 0
M  V30 9865 H 893.454 -3.75957 -0.586217 0
M  V30 9866 H 892.966 -3.67868 1.23673 0
M  V30 9867 H 891.067 -3.51926 -1.22387 0
M  V30 9868 H 891.18 -4.78801 0.169178 0
M  V30 9869 H 889.544 -2.54699 -0.00682862 0
M  V30 9870 H 890.327 -3.04296 1.5893 0
M  V30 9871 N 892.772 -0.284283 -1.55015 0
M  V30 9872 C 893.722 0.613913 -2.19579 0
M  V30 9873 C 894.706 1.11153 -1.16335 0
M  V30 9874 O 895.898 1.05508 -1.42116 0
M  V30 9875 C 893.027 1.79329 -2.92739 0
M  V30 9876 C 892.113 1.31242 -4.03282 0
M  V30 9877 N 892.504 0.548344 -5.02819 0
M  V30 9878 C 890.802 1.5946 -4.1652 0
M  V30 9879 C 891.503 0.294358 -5.80955 0
M  V30 9880 N 890.479 0.869406 -5.36603 0
M  V30 9881 H 894.281 0.0224088 -2.93891 0
M  V30 9882 H 891.795 -0.0882619 -1.6216 0
M  V30 9883 H 893.792 2.44814 -3.37449 0
M  V30 9884 H 892.452 2.38865 -2.1994 0
M  V30 9885 H 893.463 0.194812 -5.17533 0
M  V30 9886 H 890.14 2.19866 -3.54916 0
M  V30 9887 H 891.53 -0.318195 -6.71146 0
M  V30 9888 N 894.251 1.57596 -0.0117121 0
M  V30 9889 C 895.181 2.12188 0.9746 0
M  V30 9890 C 896.162 1.03379 1.35081 0
M  V30 9891 O 897.347 1.31123 1.4325 0
M  V30 9892 C 894.477 2.63477 2.26268 0
M  V30 9893 C 893.431 3.76917 2.02774 0
M  V30 9894 C 892.757 4.14566 3.37697 0
M  V30 9895 C 894.057 5.03715 1.38089 0
M  V30 9896 H 895.751 2.9485 0.520007 0
M  V30 9897 H 893.297 1.41836 0.248685 0
M  V30 9898 H 895.25 3.00299 2.95633 0
M  V30 9899 H 893.974 1.77953 2.73862 0
M  V30 9900 H 892.633 3.40507 1.35832 0
M  V30 9901 H 892.281 3.26048 3.83016 0
M  V30 9902 H 891.981 4.91 3.22789 0
M  V30 9903 H 893.505 4.53956 4.08358 0
M  V30 9904 H 894.919 5.38233 1.97428 0
M  V30 9905 H 893.316 5.85032 1.33634 0
M  V30 9906 H 894.386 4.83624 0.351575 0
M  V30 9907 N 895.729 -0.261212 1.5542 0
M  V30 9908 C 896.975 -0.992699 1.76843 0
M  V30 9909 C 897.308 -1.8551 0.574428 0
M  V30 9910 O 896.583 -1.89739 -0.427713 0
M  V30 9911 C 896.866 -1.86532 3.08022 0
M  V30 9912 C 896.719 -1.03206 4.378 0
M  V30 9913 C 898.038 -2.85036 3.35324 0
M  V30 9914 H 895.157 -0.359473 0.643388 0
M  V30 9915 H 897.799 -0.264214 1.88154 0
M  V30 9916 H 895.949 -2.48644 2.9851 0
M  V30 9917 H 897.621 -0.430743 4.59285 0
M  V30 9918 H 895.864 -0.335911 4.32497 0
M  V30 9919 H 896.535 -1.6761 5.25938 0
M  V30 9920 H 899.011 -2.3306 3.44706 0
M  V30 9921 H 897.887 -3.43226 4.28354 0
M  V30 9922 H 898.148 -3.60768 2.55537 0
M  V30 9923 N 897.207 -1.48554 -0.526253 0
M  V30 9924 C 898.137 -1.66252 -1.63959 0
M  V30 9925 C 899.118 -0.511351 -1.62232 0
M  V30 9926 O 900.303 -0.744322 -1.7937 0
M  V30 9927 C 897.433 -1.70556 -3.02536 0
M  V30 9928 C 896.387 -2.8521 -3.19123 0
M  V30 9929 C 895.713 -2.74606 -4.58798 0
M  V30 9930 C 897.013 -4.26463 -3.0154 0
M  V30 9931 H 898.707 -2.59459 -1.49404 0
M  V30 9932 H 896.253 -1.24862 -0.717326 0
M  V30 9933 H 898.206 -1.81524 -3.80298 0
M  V30 9934 H 896.93 -0.739297 -3.18123 0
M  V30 9935 H 895.589 -2.73802 -2.43779 0
M  V30 9936 H 895.237 -1.75941 -4.71226 0
M  V30 9937 H 894.937 -3.51544 -4.70841 0
M  V30 9938 H 896.461 -2.87548 -5.38655 0
M  V30 9939 H 897.875 -4.38685 -3.69091 0
M  V30 9940 H 896.272 -5.04428 -3.25073 0
M  V30 9941 H 897.342 -4.42667 -1.97925 0
M  V30 9942 N 898.685 0.775411 -1.37205 0
M  V30 9943 C 899.595 1.91967 -1.34855 0
M  V30 9944 C 900.611 1.72214 -0.248656 0
M  V30 9945 O 901.787 1.95512 -0.483421 0
M  V30 9946 C 898.852 3.27038 -1.15096 0
M  V30 9947 C 897.913 3.5947 -2.34691 0
M  V30 9948 C 897.146 4.88097 -2.15865 0
M  V30 9949 O 897.369 5.58871 -1.14102 0
M  V30 9950 O 896.303 5.19507 -3.03967 0
M  V30 9951 H 900.129 1.969 -2.31223 0
M  V30 9952 H 897.714 0.917647 -1.17897 0
M  V30 9953 H 899.596 4.07837 -1.0605 0
M  V30 9954 H 898.271 3.22965 -0.217999 0
M  V30 9955 H 897.178 2.7892 -2.49308 0
M  V30 9956 H 898.511 3.68282 -3.26541 0
M  V30 9957 N 900.163 1.21714 1.00117 0
M  V30 9958 C 901.11 0.979837 2.08968 0
M  V30 9959 C 902.08 -0.0955324 1.65825 0
M  V30 9960 O 903.265 0.0523742 1.90728 0
M  V30 9961 C 900.405 0.554758 3.40612 0
M  V30 9962 C 899.518 1.69999 3.97145 0
M  V30 9963 C 898.653 1.2237 5.16913 0
M  V30 9964 C 897.692 2.34101 5.65564 0
M  V30 9965 N 896.829 1.87579 6.76579 0
M  V30 9966 H 901.669 1.91167 2.28602 0
M  V30 9967 H 899.206 0.952645 1.12085 0
M  V30 9968 H 901.164 0.289526 4.16194 0
M  V30 9969 H 899.794 -0.340073 3.21004 0
M  V30 9970 H 898.846 2.07976 3.18512 0
M  V30 9971 H 900.158 2.54074 4.29241 0
M  V30 9972 H 899.312 0.915358 5.99755 0
M  V30 9973 H 898.051 0.353045 4.8642 0
M  V30 9974 H 897.056 2.65734 4.81316 0
M  V30 9975 H 898.281 3.21669 5.98085 0
M  V30 9976 H 896.227 1.02863 6.47885 0
M  V30 9977 H 896.144 2.65225 7.07949 0
M  V30 9978 H 897.412 1.5979 7.62947 0
M  V30 9979 N 901.641 -1.19671 1.02551 0
M  V30 9980 C 902.89 -1.88591 0.715272 0
M  V30 9981 C 903.203 -1.80274 -0.758982 0
M  V30 9982 O 904.409 -2.44413 -1.18213 0
M  V30 9983 C 902.865 -3.38264 1.22905 0
M  V30 9984 C 902.473 -3.55146 2.73084 0
M  V30 9985 C 904.217 -4.12683 0.994649 0
M  V30 9986 C 902.124 -4.98693 3.17897 0
M  V30 9987 H 901.054 -0.706326 0.263857 0
M  V30 9988 H 903.705 -1.35322 1.23936 0
M  V30 9989 H 902.087 -3.9091 0.632892 0
M  V30 9990 H 903.261 -3.12845 3.38326 0
M  V30 9991 H 901.576 -2.94112 2.94766 0
M  V30 9992 H 904.173 -5.18536 1.30478 0
M  V30 9993 H 904.516 -4.16243 -0.0686466 0
M  V30 9994 H 905.049 -3.66164 1.55464 0
M  V30 9995 H 901.788 -5.00293 4.23542 0
M  V30 9996 H 901.308 -5.4177 2.57381 0
M  V30 9997 H 902.987 -5.67327 3.11045 0
M  V30 9998 N 903.119 -0.802921 -1.35613 0
M  V30 9999 C 904.049 -0.225131 -2.32412 0
M  V30 10000 C 905.03 0.647383 -1.57299 0
M  V30 10001 O 906.215 0.578414 -1.85386 0
M  V30 10002 C 903.345 0.630085 -3.41537 0
M  V30 10003 C 902.299 -0.143635 -4.27759 0
M  V30 10004 C 901.625 0.833046 -5.28171 0
M  V30 10005 C 902.925 -1.34054 -5.04804 0
M  V30 10006 H 904.619 -1.03385 -2.80984 0
M  V30 10007 H 902.165 -0.498593 -1.35093 0
M  V30 10008 H 904.118 1.04433 -4.08254 0
M  V30 10009 H 902.842 1.47165 -2.91565 0
M  V30 10010 H 901.501 -0.539015 -3.62616 0
M  V30 10011 H 901.149 1.67001 -4.74468 0
M  V30 10012 H 900.849 0.319697 -5.8673 0
M  V30 10013 H 902.373 1.24558 -5.97761 0
M  V30 10014 H 903.787 -1.00136 -5.64487 0
M  V30 10015 H 902.184 -1.78812 -5.72841 0
M  V30 10016 H 903.254 -2.12906 -4.35659 0
M  V30 10017 N 904.597 1.47463 -0.556102 0
M  V30 10018 C 905.843 2.02775 -0.0316806 0
M  V30 10019 C 906.176 1.42967 1.3143 0
M  V30 10020 O 905.451 0.584847 1.85499 0
M  V30 10021 C 905.734 3.60046 0.0625742 0
M  V30 10022 C 905.587 4.30288 -1.31043 0
M  V30 10023 C 906.906 4.33195 0.776553 0
M  V30 10024 H 904.025 0.736886 -0.0129869 0
M  V30 10025 H 906.667 1.75904 -0.718177 0
M  V30 10026 H 904.817 3.83071 0.647231 0
M  V30 10027 H 906.489 4.18607 -1.9382 0
M  V30 10028 H 904.732 3.90685 -1.8854 0
M  V30 10029 H 905.403 5.38861 -1.1972 0
M  V30 10030 H 907.879 4.15156 0.280147 0
M  V30 10031 H 906.755 5.42869 0.81146 0
M  V30 10032 H 907.016 4.02336 1.83244 0
M  V30 10033 N 906.075 0.2925 1.54862 0
M  V30 10034 C 907.3 -0.32494 2.04839 0
M  V30 10035 C 907.725 -1.47381 1.16877 0
M  V30 10036 O 907.083 -1.80492 0.171028 0
M  V30 10037 C 907.131 -0.76694 3.5235 0
M  V30 10038 O 906.235 -1.87256 3.67436 0
M  V30 10039 H 905.576 -0.0645195 0.660858 0
M  V30 10040 H 908.106 0.431867 1.9999 0
M  V30 10041 H 908.116 -1.05804 3.94043 0
M  V30 10042 H 906.791 0.0735212 4.15835 0
M  V30 10043 H 905.368 -1.58266 3.37648 0
M  V30 10044 N 907.553 -1.57587 0.0200696 0
M  V30 10045 C 908.483 -2.12702 -0.963333 0
M  V30 10046 C 909.464 -1.04094 -1.34531 0
M  V30 10047 O 910.649 -1.31881 -1.42552 0
M  V30 10048 C 907.779 -2.64673 -2.24868 0
M  V30 10049 C 906.733 -3.77987 -2.00772 0
M  V30 10050 C 906.059 -4.16351 -3.35494 0
M  V30 10051 C 907.359 -5.0444 -1.35416 0
M  V30 10052 H 909.053 -2.95121 -0.504363 0
M  V30 10053 H 906.599 -1.41966 -0.24116 0
M  V30 10054 H 908.552 -3.01862 -2.94036 0
M  V30 10055 H 907.276 -1.79403 -2.72914 0
M  V30 10056 H 905.935 -3.41223 -1.34025 0
M  V30 10057 H 905.583 -3.28075 -3.81282 0
M  V30 10058 H 905.283 -4.92705 -3.20181 0
M  V30 10059 H 906.807 -4.56115 -4.05945 0
M  V30 10060 H 908.221 -5.39273 -1.94571 0
M  V30 10061 H 906.618 -5.85732 -1.30529 0
M  V30 10062 H 907.688 -4.83803 -0.325923 0
M  V30 10063 N 909.032 0.252966 -1.55557 0
M  V30 10064 C 910.26 0.999565 -1.81153 0
M  V30 10065 C 910.675 1.79181 -0.594955 0
M  V30 10066 O 910.032 1.77208 0.436311 0
M  V30 10067 C 910.083 1.94227 -3.04891 0
M  V30 10068 O 909.804 1.18209 -4.21851 0
M  V30 10069 C 911.305 2.80536 -3.43241 0
M  V30 10070 H 908.525 0.294402 -0.602966 0
M  V30 10071 H 911.069 0.277686 -2.02606 0
M  V30 10072 H 909.224 2.6185 -2.85505 0
M  V30 10073 H 909.638 1.81922 -4.9194 0
M  V30 10074 H 911.112 3.42442 -4.32941 0
M  V30 10075 H 911.589 3.51337 -2.6355 0
M  V30 10076 H 912.195 2.18373 -3.64956 0
M  V30 10077 N 910.51 1.48831 0.518367 0
M  V30 10078 C 911.443 1.588 1.63884 0
M  V30 10079 C 912.421 0.437847 1.56594 0
M  V30 10080 O 913.605 0.651042 1.769 0
M  V30 10081 C 910.732 1.52681 3.02335 0
M  V30 10082 C 909.778 2.7268 3.27945 0
M  V30 10083 S 910.611 4.34536 3.12951 0
M  V30 10084 C 911.767 4.31034 4.53828 0
M  V30 10085 H 912 2.53587 1.5518 0
M  V30 10086 H 909.533 1.37507 0.702218 0
M  V30 10087 H 911.491 1.49837 3.82177 0
M  V30 10088 H 910.152 0.592107 3.08469 0
M  V30 10089 H 909.345 2.64569 4.28974 0
M  V30 10090 H 908.947 2.72847 2.55794 0
M  V30 10091 H 911.239 4.01683 5.45579 0
M  V30 10092 H 912.182 5.32282 4.66991 0
M  V30 10093 H 912.59 3.61343 4.33695 0
M  V30 10094 N 911.988 -0.768124 1.37614 0
M  V30 10095 C 912.935 -1.88151 1.33671 0
M  V30 10096 C 913.905 -1.64871 0.201645 0
M  V30 10097 O 915.09 -1.86739 0.391582 0
M  V30 10098 C 912.23 -3.25264 1.15314 0
M  V30 10099 C 911.343 -3.60473 2.38082 0
M  V30 10100 C 910.478 -4.86814 2.12569 0
M  V30 10101 C 909.517 -5.14765 3.31184 0
M  V30 10102 N 908.654 -6.32295 3.052 0
M  V30 10103 H 913.494 -1.90857 2.28862 0
M  V30 10104 H 911.031 -0.933048 1.13722 0
M  V30 10105 H 912.989 -4.04364 1.02691 0
M  V30 10106 H 911.619 -3.21924 0.237689 0
M  V30 10107 H 910.671 -2.7633 2.61431 0
M  V30 10108 H 911.983 -3.77065 3.26532 0
M  V30 10109 H 911.137 -5.73826 1.96999 0
M  V30 10110 H 909.876 -4.72333 1.21462 0
M  V30 10111 H 908.881 -4.26227 3.4729 0
M  V30 10112 H 910.106 -5.31153 4.23147 0
M  V30 10113 H 908.052 -6.19166 2.16726 0
M  V30 10114 H 907.969 -6.4932 3.87195 0
M  V30 10115 H 909.237 -7.22234 2.93254 0
M  V30 10116 N 913.466 -1.22244 -0.994698 0
M  V30 10117 C 914.414 -0.988118 -2.10568 0
M  V30 10118 C 915.408 0.0681541 -1.69263 0
M  V30 10119 O 916.614 -0.0841311 -1.79803 0
M  V30 10120 H 912.989 -0.302343 -0.688544 0
M  V30 10121 H 914.96 -1.93091 -2.27505 0
M  V30 10122 C 913.709 -0.580557 -3.42819 0
M  V30 10123 H 913.032 -1.385 -3.75044 0
M  V30 10124 H 914.472 -0.456004 -4.21541 0
M  V30 10125 C 912.931 0.709692 -3.2934 0
M  V30 10126 O 913.461 1.76259 -3.60965 0
M  V30 10127 N 911.667 0.680155 -2.82528 0
M  V30 10128 H 911.214 -0.176977 -2.56991 0
M  V30 10129 H 911.172 1.54372 -2.73892 0
M  V30 10130 N 914.944 1.19125 -1.03184 0
M  V30 10131 C 916.184 1.90582 -0.738785 0
M  V30 10132 C 916.548 1.78004 0.719627 0
M  V30 10133 O 917.749 2.44084 1.12589 0
M  V30 10134 C 916.02 3.37319 -1.18114 0
M  V30 10135 S 917.579 4.26962 -1.01238 0
M  V30 10136 H 914.397 0.6582 -0.268875 0
M  V30 10137 H 916.999 1.43999 -1.32229 0
M  V30 10138 H 915.703 3.43999 -2.23814 0
M  V30 10139 H 915.234 3.88935 -0.591051 0
M  V30 10140 H 917.249 4.96143 0.0753558 0
M  V30 10141 N 916.422 0.810101 1.35185 0
M  V30 10142 C 917.369 0.220927 2.2974 0
M  V30 10143 C 918.339 -0.647024 1.5298 0
M  V30 10144 O 919.524 -0.591367 1.81404 0
M  V30 10145 C 916.664 -0.62167 3.39454 0
M  V30 10146 C 915.777 0.267104 4.31173 0
M  V30 10147 C 914.912 -0.583833 5.27982 0
M  V30 10148 C 913.951 0.305123 6.11339 0
M  V30 10149 N 913.088 -0.505992 7.00274 0
M  V30 10150 H 917.928 1.03266 2.79536 0
M  V30 10151 H 915.465 0.520768 1.37573 0
M  V30 10152 H 917.423 -1.12539 4.01735 0
M  V30 10153 H 916.053 -1.39863 2.90926 0
M  V30 10154 H 915.105 0.88895 3.69867 0
M  V30 10155 H 916.417 0.951182 4.89647 0
M  V30 10156 H 915.571 -1.15254 5.95652 0
M  V30 10157 H 914.31 -1.30146 4.70014 0
M  V30 10158 H 913.315 0.886075 5.42613 0
M  V30 10159 H 914.54 1.02067 6.71386 0
M  V30 10160 H 912.486 -1.20753 6.4479 0
M  V30 10161 H 912.403 0.119966 7.55905 0
M  V30 10162 H 913.671 -1.05787 7.72288 0
M  V30 10163 N 917.9 -1.47166 0.563914 0
M  V30 10164 C 918.863 -2.28571 -0.169624 0
M  V30 10165 C 919.863 -1.37331 -0.836467 0
M  V30 10166 O 921.053 -1.59896 -0.6913 0
M  V30 10167 C 918.185 -3.17201 -1.24886 0
M  V30 10168 H 919.378 -2.94896 0.545539 0
M  V30 10169 H 916.931 -1.52966 0.321121 0
M  V30 10170 H 917.666 -2.55582 -1.99621 0
M  V30 10171 H 917.451 -3.84356 -0.775426 0
M  V30 10172 H 918.941 -3.7852 -1.76388 0
M  V30 10173 N 919.378 -0.300708 -1.54705 0
M  V30 10174 C 920.341 0.562648 -2.22187 0
M  V30 10175 C 921.341 1.06152 -1.20782 0
M  V30 10176 O 922.531 0.957596 -1.45519 0
M  V30 10177 C 919.663 1.77899 -2.908 0
M  V30 10178 H 920.856 -0.0269361 -2.99888 0
M  V30 10179 H 918.409 -0.0515412 -1.56215 0
M  V30 10180 H 919.144 2.40841 -2.17177 0
M  V30 10181 H 918.929 1.42892 -3.65136 0
M  V30 10182 H 920.419 2.39236 -3.42281 0
M  V30 10183 N 920.856 1.57574 -0.0284266 0
M  V30 10184 C 921.789 2.05684 0.988401 0
M  V30 10185 C 922.767 0.952468 1.31783 0
M  V30 10186 O 923.951 1.22274 1.43462 0
M  V30 10187 C 921.078 2.47832 2.30862 0
M  V30 10188 C 920.124 3.69282 2.13384 0
M  V30 10189 S 920.957 5.15962 1.43331 0
M  V30 10190 C 922.113 5.61404 2.76723 0
M  V30 10191 H 922.346 2.9161 0.578873 0
M  V30 10192 H 919.879 1.53309 0.183244 0
M  V30 10193 H 921.837 2.7278 3.06759 0
M  V30 10194 H 920.498 1.62253 2.68947 0
M  V30 10195 H 919.691 3.96618 3.10983 0
M  V30 10196 H 919.293 3.44482 1.45629 0
M  V30 10197 H 921.585 5.65601 3.72963 0
M  V30 10198 H 922.528 6.60956 2.54053 0
M  V30 10199 H 922.936 4.89051 2.81939 0
M  V30 10200 N 922.334 -0.244713 1.55689 0
M  V30 10201 C 923.282 -1.32276 1.91326 0
M  V30 10202 C 924.276 -1.49714 0.792589 0
M  V30 10203 O 925.482 -1.51163 0.977227 0
M  V30 10204 H 921.857 -0.442979 0.607679 0
M  V30 10205 H 923.828 -0.99486 2.81327 0
M  V30 10206 C 922.577 -2.67077 2.22633 0
M  V30 10207 H 921.9 -2.54458 3.08368 0
M  V30 10208 H 923.34 -3.41378 2.5147 0
M  V30 10209 C 921.799 -3.20335 1.04342 0
M  V30 10210 O 922.329 -4.00633 0.292543 0
M  V30 10211 N 920.535 -2.78392 0.833457 0
M  V30 10212 H 920.082 -2.13202 1.44577 0
M  V30 10213 H 920.04 -3.1437 0.0436713 0
M  V30 10214 N 923.813 -1.49104 -0.510467 0
M  V30 10215 C 925.06 -1.58112 -1.26518 0
M  V30 10216 C 925.388 -0.263603 -1.92705 0
M  V30 10217 O 924.643 0.747743 -1.80852 0
M  V30 10218 C 924.942 -2.68259 -2.36161 0
M  V30 10219 C 924.608 -4.10069 -1.87495 0
M  V30 10220 C 923.27 -4.48662 -1.73942 0
M  V30 10221 C 925.622 -4.98859 -1.5096 0
M  V30 10222 C 922.95 -5.73829 -1.22217 0
M  V30 10223 C 925.302 -6.24535 -1.00691 0
M  V30 10224 C 923.966 -6.61967 -0.857691 0
M  V30 10225 H 923.236 -0.578574 -0.462962 0
M  V30 10226 H 925.883 -1.82899 -0.567475 0
M  V30 10227 H 924.188 -2.37407 -3.11681 0
M  V30 10228 H 925.885 -2.7244 -2.9424 0
M  V30 10229 H 922.475 -3.79601 -1.99001 0
M  V30 10230 H 926.659 -4.69706 -1.60282 0
M  V30 10231 H 921.915 -6.01539 -1.09368 0
M  V30 10232 H 926.089 -6.9272 -0.71498 0
M  V30 10233 H 923.716 -7.58839 -0.454702 0
M  V30 10234 N 925.291 0.760815 -1.38019 0
M  V30 10235 C 926.538 1.51973 -1.3383 0
M  V30 10236 C 926.866 1.9436 0.0738855 0
M  V30 10237 O 926.121 1.65181 1.04946 0
M  V30 10238 C 926.42 2.79024 -2.23339 0
M  V30 10239 C 926.086 2.55636 -3.71431 0
M  V30 10240 C 924.748 2.48966 -4.11788 0
M  V30 10241 C 927.1 2.35018 -4.65205 0
M  V30 10242 C 924.428 2.19684 -5.44018 0
M  V30 10243 C 926.78 2.07258 -5.97685 0
M  V30 10244 C 925.444 1.9904 -6.37134 0
M  V30 10245 H 924.714 0.556108 -0.489719 0
M  V30 10246 H 927.361 0.87545 -1.70318 0
M  V30 10247 H 925.666 3.48065 -1.79883 0
M  V30 10248 H 927.363 3.36951 -2.17405 0
M  V30 10249 H 923.953 2.61695 -3.39432 0
M  V30 10250 H 928.137 2.39154 -4.34878 0
M  V30 10251 H 923.393 2.11825 -5.73533 0
M  V30 10252 H 927.567 1.90307 -6.69893 0
M  V30 10253 H 925.194 1.76115 -7.39519 0
M  V30 10254 N 926.769 1.22769 0.988202 0
M  V30 10255 C 927.701 0.959757 2.08138 0
M  V30 10256 C 928.714 -0.0633787 1.62677 0
M  V30 10257 O 929.903 0.171203 1.77677 0
M  V30 10258 C 927.003 0.422724 3.36253 0
M  V30 10259 C 926.176 1.50419 4.10722 0
M  V30 10260 C 925.235 0.973407 5.17118 0
M  V30 10261 O 924.261 1.66066 5.44436 0
M  V30 10262 N 925.463 -0.202787 5.80146 0
M  V30 10263 H 928.228 1.9009 2.31702 0
M  V30 10264 H 925.789 1.13522 1.15431 0
M  V30 10265 H 927.781 0.0528514 4.04665 0
M  V30 10266 H 926.351 -0.423642 3.09716 0
M  V30 10267 H 925.571 2.04718 3.36874 0
M  V30 10268 H 926.859 2.23169 4.57245 0
M  V30 10269 H 926.257 -0.777856 5.60327 0
M  V30 10270 H 924.814 -0.513998 6.4977 0
M  V30 10271 N 928.247 -1.18576 1.03814 0
M  V30 10272 C 929.472 -1.92978 0.759873 0
M  V30 10273 C 929.897 -1.75514 -0.676486 0
M  V30 10274 O 929.255 -1.06359 -1.46824 0
M  V30 10275 C 929.303 -3.42507 1.12788 0
M  V30 10276 O 928.407 -4.1163 0.251886 0
M  V30 10277 H 927.748 -0.602129 0.279886 0
M  V30 10278 H 930.278 -1.50383 1.3873 0
M  V30 10279 H 930.288 -3.93206 1.08872 0
M  V30 10280 H 928.963 -3.5454 2.17427 0
M  V30 10281 H 927.54 -3.7125 0.350441 0
M  V30 10282 N 929.725 -0.817259 -1.34754 0
M  V30 10283 C 930.971 -0.403244 -1.98751 0
M  V30 10284 C 931.304 1.02963 -1.64658 0
M  V30 10285 O 930.579 1.71617 -0.915314 0
M  V30 10286 C 930.862 -0.599188 -3.5508 0
M  V30 10287 C 930.715 -2.07777 -3.98934 0
M  V30 10288 C 932.034 -0.0315656 -4.40089 0
M  V30 10289 H 929.153 -0.147988 -0.721989 0
M  V30 10290 H 931.795 -1.02877 -1.59738 0
M  V30 10291 H 929.945 -0.0667116 -3.88443 0
M  V30 10292 H 931.617 -2.67345 -3.75931 0
M  V30 10293 H 929.86 -2.57031 -3.49453 0
M  V30 10294 H 930.531 -2.16571 -5.07741 0
M  V30 10295 H 933.007 -0.48644 -4.13247 0
M  V30 10296 H 931.883 -0.198507 -5.48541 0
M  V30 10297 H 932.144 1.06302 -4.2913 0
M  V30 10298 N 931.203 1.46865 -0.571711 0
M  V30 10299 C 932.614 1.86158 -0.142181 0
M  V30 10300 C 932.965 1.47663 1.2919 0
M  V30 10301 O 932.09 0.886393 1.97413 0
M  V30 10302 C 932.685 3.37867 -0.251256 0
M  V30 10303 C 931.244 3.76198 0.123329 0
M  V30 10304 C 930.391 2.70902 -0.592232 0
M  V30 10305 H 933.342 1.38176 -0.780587 0
M  V30 10306 H 933.363 3.76842 0.526331 0
M  V30 10307 H 932.875 3.65853 -1.2951 0
M  V30 10308 H 930.976 3.53829 1.16773 0
M  V30 10309 H 931.089 4.78471 -0.24533 0
M  V30 10310 H 929.453 2.54678 -0.0336927 0
M  V30 10311 H 930.236 3.01729 -1.63751 0
M  V30 10312 N 932.681 0.308908 1.54543 0
M  V30 10313 C 933.591 -0.572939 2.27496 0
M  V30 10314 C 934.607 -1.14171 1.31305 0
M  V30 10315 O 935.783 -1.16481 1.64299 0
M  V30 10316 C 932.848 -1.72483 3.0075 0
M  V30 10317 C 931.909 -1.18934 4.12496 0
M  V30 10318 C 931.142 -2.28634 4.82247 0
M  V30 10319 O 931.365 -3.48691 4.5141 0
M  V30 10320 O 930.299 -1.94879 5.69478 0
M  V30 10321 H 934.125 0.0190877 3.03694 0
M  V30 10322 H 931.71 0.0750943 1.49211 0
M  V30 10323 H 933.592 -2.39578 3.46671 0
M  V30 10324 H 932.267 -2.30332 2.2744 0
M  V30 10325 H 931.174 -0.483904 3.70957 0
M  V30 10326 H 932.507 -0.656185 4.87806 0
M  V30 10327 N 934.159 -1.57557 0.0367827 0
M  V30 10328 C 935.399 -1.93981 -0.644252 0
M  V30 10329 C 935.763 -0.913982 -1.6885 0
M  V30 10330 O 936.964 -1.16468 -2.42257 0
M  V30 10331 C 935.235 -3.35281 -1.23779 0
M  V30 10332 S 936.794 -3.93643 -1.93883 0
M  V30 10333 H 933.612 -0.678683 -0.21192 0
M  V30 10334 H 936.214 -1.95232 0.102281 0
M  V30 10335 H 934.918 -4.07752 -0.465451 0
M  V30 10336 H 934.449 -3.37492 -2.02146 0
M  V30 10337 H 936.464 -3.777 -3.21803 0
M  V30 10338 N 935.637 0.236453 -1.55816 0
M  V30 10339 C 936.547 1.31418 -1.94336 0
M  V30 10340 C 937.563 1.52095 -0.845164 0
M  V30 10341 O 938.739 1.65515 -1.14746 0
M  V30 10342 C 935.804 2.6468 -2.23932 0
M  V30 10343 C 934.865 2.52435 -3.47239 0
M  V30 10344 C 934.098 3.79342 -3.75414 0
M  V30 10345 O 934.321 4.81694 -3.05495 0
M  V30 10346 O 933.255 3.77347 -4.68927 0
M  V30 10347 H 937.081 1.01739 -2.86152 0
M  V30 10348 H 934.666 0.438084 -1.42833 0
M  V30 10349 H 936.548 3.4341 -2.44228 0
M  V30 10350 H 935.223 2.94071 -1.35292 0
M  V30 10351 H 934.13 1.71955 -3.32238 0
M  V30 10352 H 935.463 2.27987 -4.36214 0
M  V30 10353 N 937.115 1.49373 0.502552 0
M  V30 10354 C 938.065 1.62321 1.60112 0
M  V30 10355 C 939.049 0.47895 1.53606 0
M  V30 10356 O 940.241 0.731824 1.61162 0
M  V30 10357 C 937.37 1.69162 2.98729 0
M  V30 10358 C 936.456 2.89161 3.10237 0
M  V30 10359 N 936.847 4.13256 2.91638 0
M  V30 10360 C 935.145 2.87065 3.41335 0
M  V30 10361 C 935.846 4.93913 3.07287 0
M  V30 10362 N 934.822 4.27249 3.36094 0
M  V30 10363 H 938.624 2.55989 1.44384 0
M  V30 10364 H 936.138 1.46123 0.708644 0
M  V30 10365 H 938.135 1.76536 3.77678 0
M  V30 10366 H 936.795 0.766301 3.15528 0
M  V30 10367 H 937.806 4.4326 2.67844 0
M  V30 10368 H 934.483 2.03905 3.6432 0
M  V30 10369 H 935.873 6.02491 2.97413 0
M  V30 10370 N 938.594 -0.753485 1.38421 0
M  V30 10371 C 939.544 -1.85788 1.32162 0
M  V30 10372 C 940.528 -1.59577 0.20588 0
M  V30 10373 O 941.72 -1.71396 0.44186 0
M  V30 10374 C 938.849 -3.23498 1.14909 0
M  V30 10375 C 937.935 -3.556 2.31105 0
M  V30 10376 N 938.326 -3.58759 3.56547 0
M  V30 10377 C 936.624 -3.85866 2.23659 0
M  V30 10378 C 937.325 -3.8813 4.33278 0
M  V30 10379 N 936.301 -4.04966 3.62635 0
M  V30 10380 H 940.103 -1.86509 2.27138 0
M  V30 10381 H 937.617 -0.950843 1.31654 0
M  V30 10382 H 939.614 -4.02531 1.08509 0
M  V30 10383 H 938.274 -3.24029 0.20866 0
M  V30 10384 H 939.285 -3.40517 3.90216 0
M  V30 10385 H 935.962 -3.94112 1.37776 0
M  V30 10386 H 937.352 -3.97197 5.41926 0
M  V30 10387 N 940.072 -1.23292 -0.981677 0
M  V30 10388 C 941.004 -0.970782 -2.07626 0
M  V30 10389 C 942.017 0.0547506 -1.62708 0
M  V30 10390 O 943.206 -0.180623 -1.77584 0
M  V30 10391 C 940.306 -0.44055 -3.36024 0
M  V30 10392 C 939.479 -1.52595 -4.09919 0
M  V30 10393 C 938.538 -1.00082 -5.16595 0
M  V30 10394 O 937.564 -1.68951 -5.43548 0
M  V30 10395 N 938.766 0.172017 -5.80245 0
M  V30 10396 H 941.531 -1.91316 -2.30691 0
M  V30 10397 H 939.092 -1.14133 -1.14828 0
M  V30 10398 H 941.084 -0.0743111 -4.04632 0
M  V30 10399 H 939.654 0.407211 -3.09936 0
M  V30 10400 H 938.874 -2.06501 -3.35784 0
M  V30 10401 H 940.162 -2.2559 -4.56055 0
M  V30 10402 H 939.56 0.748129 -5.60731 0
M  V30 10403 H 938.117 0.479532 -6.50034 0
M  V30 10404 N 941.55 1.18024 -1.04442 0
M  V30 10405 C 942.497 2.21785 -0.638759 0
M  V30 10406 C 943.467 1.62255 0.355312 0
M  V30 10407 O 944.652 1.89176 0.24844 0
M  V30 10408 C 941.792 3.45098 -0.0118002 0
M  V30 10409 C 940.905 4.1895 -1.05379 0
M  V30 10410 C 940.04 5.2973 -0.394951 0
M  V30 10411 C 939.079 5.95359 -1.42178 0
M  V30 10412 N 938.216 6.97668 -0.787635 0
M  V30 10413 H 943.056 2.55839 -1.52808 0
M  V30 10414 H 940.593 1.25681 -0.764378 0
M  V30 10415 H 942.551 4.15564 0.369075 0
M  V30 10416 H 941.181 3.11652 0.84102 0
M  V30 10417 H 940.233 3.47274 -1.55258 0
M  V30 10418 H 941.545 4.63877 -1.83355 0
M  V30 10419 H 940.699 6.06687 0.0399244 0
M  V30 10420 H 939.438 4.85915 0.416867 0
M  V30 10421 H 938.443 5.17139 -1.86675 0
M  V30 10422 H 939.668 6.41255 -2.23536 0
M  V30 10423 H 937.614 6.56 0.00380893 0
M  V30 10424 H 937.531 7.40867 -1.50505 0
M  V30 10425 H 938.799 7.78586 -0.377282 0
M  V30 10426 N 943.028 0.824394 1.34319 0
M  V30 10427 C 944.305 0.335692 1.92698 0
M  V30 10428 C 944.685 -1.17715 1.75232 0
M  V30 10429 O 944.033 -1.98493 1.13194 0
M  V30 10430 C 944.243 0.766647 3.40475 0
M  V30 10431 C 945.591 0.766323 4.17627 0
M  V30 10432 O 946.615 0.709321 3.49066 0
M  V30 10433 O 945.474 0.840856 5.39992 0
M  V30 10434 H 942.568 0.0919996 0.821867 0
M  V30 10435 H 945.114 0.909282 1.43283 0
M  V30 10436 H 943.886 1.80859 3.46995 0
M  V30 10437 H 943.509 0.168833 3.97241 0
M  V30 10438 N 944.506 -1.46559 0.579492 0
M  V30 10439 C 945.453 -2.30275 -0.155598 0
M  V30 10440 C 946.423 -1.40422 -0.887175 0
M  V30 10441 O 947.608 -1.69373 -0.878481 0
M  V30 10442 C 944.748 -3.24827 -1.16539 0
M  V30 10443 C 943.861 -4.29778 -0.43759 0
M  V30 10444 C 942.996 -5.11461 -1.43462 0
M  V30 10445 C 942.035 -6.08164 -0.693048 0
M  V30 10446 N 941.172 -6.82726 -1.63799 0
M  V30 10447 H 946.012 -2.92607 0.564356 0
M  V30 10448 H 943.549 -1.44211 0.290126 0
M  V30 10449 H 945.507 -3.78088 -1.76368 0
M  V30 10450 H 944.137 -2.64311 -1.8531 0
M  V30 10451 H 943.189 -3.794 0.27567 0
M  V30 10452 H 944.501 -4.98597 0.142298 0
M  V30 10453 H 943.655 -5.68982 -2.1058 0
M  V30 10454 H 942.394 -4.42595 -2.04844 0
M  V30 10455 H 941.399 -5.49799 -0.00807093 0
M  V30 10456 H 942.624 -6.79047 -0.0846678 0
M  V30 10457 H 940.57 -6.16572 -2.23997 0
M  V30 10458 H 940.487 -7.47795 -1.11082 0
M  V30 10459 H 941.755 -7.44807 -2.29962 0
M  V30 10460 N 945.984 -0.3171 -1.54377 0
M  V30 10461 C 946.894 0.560867 -2.27797 0
M  V30 10462 C 947.91 1.13473 -1.31908 0
M  V30 10463 O 949.086 1.15608 -1.64914 0
M  V30 10464 C 946.151 1.70886 -3.0166 0
M  V30 10465 C 945.212 1.16745 -4.13121 0
M  V30 10466 C 944.445 2.26073 -4.83453 0
M  V30 10467 O 944.668 3.46292 -4.53252 0
M  V30 10468 O 943.602 1.91856 -5.70504 0
M  V30 10469 H 947.428 -0.035193 -3.0368 0
M  V30 10470 H 945.013 -0.0830062 -1.49169 0
M  V30 10471 H 946.895 2.37736 -3.47936 0
M  V30 10472 H 945.57 2.29122 -2.28658 0
M  V30 10473 H 944.477 0.464224 -3.71209 0
M  V30 10474 H 945.81 0.630307 -4.88147 0
M  V30 10475 N 947.462 1.57535 -0.0451378 0
M  V30 10476 C 948.372 2.14653 0.946646 0
M  V30 10477 C 949.388 1.10279 1.3459 0
M  V30 10478 O 950.564 1.42417 1.42405 0
M  V30 10479 C 947.629 2.67533 2.20515 0
M  V30 10480 C 946.69 3.86682 1.86481 0
M  V30 10481 C 945.923 4.37031 3.06332 0
M  V30 10482 O 946.146 3.86481 4.1951 0
M  V30 10483 O 945.08 5.28691 2.87697 0
M  V30 10484 H 948.906 2.99706 0.49091 0
M  V30 10485 H 946.491 1.48355 0.17641 0
M  V30 10486 H 948.373 3.01542 2.94365 0
M  V30 10487 H 947.048 1.85554 2.65238 0
M  V30 10488 H 945.955 3.57573 1.09966 0
M  V30 10489 H 947.288 4.69873 1.46562 0
M  V30 10490 N 948.94 -0.228186 1.55939 0
M  V30 10491 C 949.87 -1.28607 1.94891 0
M  V30 10492 C 950.851 -1.49236 0.816245 0
M  V30 10493 O 952.036 -1.61531 1.07803 0
M  V30 10494 C 949.166 -2.63719 2.25986 0
M  V30 10495 C 948.12 -2.57757 3.4168 0
M  V30 10496 C 947.446 -3.96837 3.58364 0
M  V30 10497 C 948.746 -2.13116 4.76843 0
M  V30 10498 H 950.44 -0.962531 2.83506 0
M  V30 10499 H 947.986 -0.461577 1.36402 0
M  V30 10500 H 949.939 -3.37878 2.51826 0
M  V30 10501 H 948.663 -2.97747 1.34217 0
M  V30 10502 H 947.322 -1.86055 3.15878 0
M  V30 10503 H 946.97 -4.28162 2.63982 0
M  V30 10504 H 946.67 -3.93731 4.36176 0
M  V30 10505 H 948.194 -4.72668 3.86545 0
M  V30 10506 H 949.608 -2.77015 5.01932 0
M  V30 10507 H 948.005 -2.21083 5.57891 0
M  V30 10508 H 949.075 -1.08326 4.72645 0
M  V30 10509 N 950.418 -1.49637 -0.494624 0
M  V30 10510 C 951.643 -1.63431 -1.27691 0
M  V30 10511 C 952.068 -0.30813 -1.85559 0
M  V30 10512 O 951.426 0.725083 -1.66169 0
M  V30 10513 C 951.474 -2.71043 -2.3784 0
M  V30 10514 O 950.578 -2.3066 -3.41862 0
M  V30 10515 H 949.919 -0.546804 -0.376698 0
M  V30 10516 H 952.449 -1.95866 -0.591413 0
M  V30 10517 H 952.459 -2.93406 -2.83508 0
M  V30 10518 H 951.134 -3.67306 -1.95088 0
M  V30 10519 H 949.711 -2.18652 -3.02069 0
M  V30 10520 N 951.896 0.746133 -1.38819 0
M  V30 10521 C 953.143 1.50545 -1.35434 0
M  V30 10522 C 953.471 1.94427 0.0532669 0
M  V30 10523 O 952.726 1.66285 1.03188 0
M  V30 10524 C 953.025 2.76639 -2.26286 0
M  V30 10525 C 952.691 2.51682 -3.74122 0
M  V30 10526 C 951.353 2.44584 -4.14406 0
M  V30 10527 C 953.705 2.30071 -4.67672 0
M  V30 10528 C 951.033 2.13902 -5.46318 0
M  V30 10529 C 953.385 2.00907 -5.99849 0
M  V30 10530 C 952.049 1.92271 -6.39209 0
M  V30 10531 H 951.319 0.550883 -0.49559 0
M  V30 10532 H 953.966 0.857337 -1.71237 0
M  V30 10533 H 952.271 3.46138 -1.83564 0
M  V30 10534 H 953.968 3.34626 -2.20967 0
M  V30 10535 H 950.558 2.5808 -3.42188 0
M  V30 10536 H 954.742 2.34528 -4.3739 0
M  V30 10537 H 949.998 2.0573 -5.75748 0
M  V30 10538 H 954.172 1.83191 -6.71874 0
M  V30 10539 H 951.799 1.68261 -7.41345 0
M  V30 10540 N 953.375 1.23811 0.975125 0
M  V30 10541 C 954.6 1.10109 1.75757 0
M  V30 10542 C 955.025 -0.342922 1.84948 0
M  V30 10543 O 954.383 -1.24814 1.31496 0
M  V30 10544 C 954.431 1.73724 3.15994 0
M  V30 10545 O 953.535 1.00297 4.00018 0
M  V30 10546 H 952.876 0.385627 0.540544 0
M  V30 10547 H 955.406 1.63971 1.22372 0
M  V30 10548 H 955.416 1.79178 3.6655 0
M  V30 10549 H 954.091 2.78794 3.0862 0
M  V30 10550 H 952.668 1.02575 3.58515 0
M  V30 10551 N 954.853 -1.17469 1.05066 0
M  V30 10552 C 955.763 -2.25089 0.661222 0
M  V30 10553 C 956.779 -1.71086 -0.31712 0
M  V30 10554 O 957.955 -2.00685 -0.169534 0
M  V30 10555 C 955.02 -3.46676 0.0406415 0
M  V30 10556 C 954.081 -4.15771 1.06927 0
M  V30 10557 C 953.314 -5.31553 0.478208 0
M  V30 10558 O 953.537 -5.6593 -0.712714 0
M  V30 10559 O 952.471 -5.89574 1.21185 0
M  V30 10560 H 956.297 -2.60685 1.5581 0
M  V30 10561 H 953.882 -1.24744 0.822147 0
M  V30 10562 H 955.764 -4.203 -0.304312 0
M  V30 10563 H 954.439 -3.1288 -0.829909 0
M  V30 10564 H 953.346 -3.44171 1.46619 0
M  V30 10565 H 954.679 -4.53591 1.91092 0
M  V30 10566 N 956.331 -0.831506 -1.3388 0
M  V30 10567 C 957.577 -0.424302 -1.98312 0
M  V30 10568 C 957.91 1.01211 -1.65741 0
M  V30 10569 O 957.185 1.70636 -0.933464 0
M  V30 10570 C 957.468 -0.636815 -3.54424 0
M  V30 10571 C 957.321 -2.11997 -3.96708 0
M  V30 10572 C 958.64 -0.0782411 -4.4003 0
M  V30 10573 H 955.759 -0.155637 -0.720379 0
M  V30 10574 H 958.401 -1.04566 -1.58638 0
M  V30 10575 H 956.551 -0.107907 -3.8835 0
M  V30 10576 H 958.223 -2.71317 -3.73075 0
M  V30 10577 H 956.466 -2.60723 -3.46707 0
M  V30 10578 H 957.137 -2.21944 -5.05416 0
M  V30 10579 H 959.613 -0.530243 -4.12708 0
M  V30 10580 H 958.489 -0.256676 -5.483 0
M  V30 10581 H 958.75 1.01745 -4.30233 0
M  V30 10582 N 957.809 1.4625 -0.587256 0
M  V30 10583 C 958.719 2.34147 0.145744 0
M  V30 10584 C 959.735 1.50026 0.881376 0
M  V30 10585 O 960.911 1.82884 0.843539 0
M  V30 10586 C 957.976 3.27294 1.14366 0
M  V30 10587 C 957.037 4.27317 0.412199 0
M  V30 10588 C 956.27 5.16013 1.36257 0
M  V30 10589 O 956.493 5.0773 2.59934 0
M  V30 10590 O 955.427 5.95569 0.870681 0
M  V30 10591 H 959.253 2.98187 -0.576055 0
M  V30 10592 H 956.838 1.45299 -0.347628 0
M  V30 10593 H 958.72 3.84747 1.71894 0
M  V30 10594 H 957.395 2.65845 1.84684 0
M  V30 10595 H 956.302 3.73538 -0.205036 0
M  V30 10596 H 957.635 4.91564 -0.250104 0
M  V30 10597 N 959.287 0.325282 1.54207 0
M  V30 10598 C 960.197 -0.548778 2.28091 0
M  V30 10599 C 961.213 -1.12772 1.32508 0
M  V30 10600 O 962.389 -1.14732 1.65525 0
M  V30 10601 C 959.454 -1.69284 3.02562 0
M  V30 10602 C 958.515 -1.14553 4.13734 0
M  V30 10603 C 957.748 -2.23506 4.84645 0
M  V30 10604 O 957.971 -3.43884 4.55082 0
M  V30 10605 O 956.905 -1.88828 5.71513 0
M  V30 10606 H 960.731 0.0512974 3.03657 0
M  V30 10607 H 958.316 0.0909159 1.49123 0
M  V30 10608 H 960.198 -2.35887 3.49192 0
M  V30 10609 H 958.873 -2.27906 2.2987 0
M  V30 10610 H 957.78 -0.444532 3.71449 0
M  V30 10611 H 959.113 -0.60441 4.88475 0
M  V30 10612 N 960.765 -1.57509 0.0534917 0
M  V30 10613 C 961.695 -2.14698 -0.917999 0
M  V30 10614 C 962.676 -1.06924 -1.32292 0
M  V30 10615 O 963.861 -1.34875 -1.39723 0
M  V30 10616 C 960.991 -2.69383 -2.19203 0
M  V30 10617 C 959.945 -3.82161 -1.9271 0
M  V30 10618 C 959.271 -4.23373 -3.26587 0
M  V30 10619 C 960.571 -5.07199 -1.24686 0
M  V30 10620 H 962.265 -2.96125 -0.44165 0
M  V30 10621 H 959.811 -1.42446 -0.210993 0
M  V30 10622 H 961.764 -3.08031 -2.87567 0
M  V30 10623 H 960.488 -1.85151 -2.69048 0
M  V30 10624 H 959.147 -3.43989 -1.26757 0
M  V30 10625 H 958.795 -3.36089 -3.74237 0
M  V30 10626 H 958.495 -4.99385 -3.09658 0
M  V30 10627 H 960.019 -4.64623 -3.96178 0
M  V30 10628 H 961.433 -5.43279 -1.83088 0
M  V30 10629 H 959.83 -5.88369 -1.18076 0
M  V30 10630 H 960.9 -4.84386 -0.223227 0
M  V30 10631 N 962.243 0.219913 -1.56058 0
M  V30 10632 C 963.49 0.944064 -1.79147 0
M  V30 10633 C 963.818 1.84268 -0.622531 0
M  V30 10634 O 963.073 1.91713 0.393013 0
M  V30 10635 C 963.372 1.81293 -3.08006 0
M  V30 10636 C 963.038 1.0674 -4.38084 0
M  V30 10637 C 961.7 0.86147 -4.73426 0
M  V30 10638 C 964.052 0.541049 -5.18384 0
M  V30 10639 C 961.38 0.117307 -5.86583 0
M  V30 10640 C 963.732 -0.189779 -6.32315 0
M  V30 10641 C 962.396 -0.406951 -6.66258 0
M  V30 10642 H 961.666 0.345458 -0.655546 0
M  V30 10643 H 964.313 0.212121 -1.90322 0
M  V30 10644 H 962.618 2.61278 -2.9196 0
M  V30 10645 H 964.315 2.3754 -3.23072 0
M  V30 10646 H 960.905 1.23789 -4.10334 0
M  V30 10647 H 965.089 0.687617 -4.91514 0
M  V30 10648 H 960.345 -0.0611651 -6.11369 0
M  V30 10649 H 964.519 -0.605134 -6.93766 0
M  V30 10650 H 962.146 -0.985511 -7.53785 0
M  V30 10651 N 963.721 1.49897 0.486681 0
M  V30 10652 C 964.651 1.7054 1.59494 0
M  V30 10653 C 965.632 0.554184 1.60819 0
M  V30 10654 O 966.817 0.791617 1.77333 0
M  V30 10655 C 963.947 1.78517 2.97908 0
M  V30 10656 C 962.901 2.93571 3.11449 0
M  V30 10657 C 962.227 2.86674 4.51356 0
M  V30 10658 C 963.527 4.34308 2.90127 0
M  V30 10659 H 965.221 2.63329 1.42472 0
M  V30 10660 H 962.767 1.2672 0.683969 0
M  V30 10661 H 964.72 1.91544 3.75352 0
M  V30 10662 H 963.444 0.823381 3.16051 0
M  V30 10663 H 962.103 2.80169 2.36433 0
M  V30 10664 H 961.751 1.88373 4.66395 0
M  V30 10665 H 961.451 3.63903 4.61355 0
M  V30 10666 H 962.975 3.01728 5.30841 0
M  V30 10667 H 964.389 4.48317 3.57331 0
M  V30 10668 H 962.786 5.12869 3.11585 0
M  V30 10669 H 963.856 4.47759 1.86119 0
M  V30 10670 N 965.199 -0.738761 1.39212 0
M  V30 10671 C 966.131 -1.86286 1.3353 0
M  V30 10672 C 967.144 -1.6095 0.244755 0
M  V30 10673 O 968.333 -1.71254 0.50343 0
M  V30 10674 C 965.433 -3.22234 1.04969 0
M  V30 10675 C 964.606 -3.74956 2.25226 0
M  V30 10676 C 963.665 -4.89457 1.9318 0
M  V30 10677 O 962.691 -5.03314 2.65826 0
M  V30 10678 N 963.893 -5.73548 0.895679 0
M  V30 10679 H 966.658 -1.91666 2.304 0
M  V30 10680 H 964.219 -0.919338 1.33266 0
M  V30 10681 H 966.211 -3.96397 0.815566 0
M  V30 10682 H 964.781 -3.12146 0.168451 0
M  V30 10683 H 964.001 -2.92188 2.64612 0
M  V30 10684 H 965.289 -4.06914 3.05448 0
M  V30 10685 H 964.687 -5.64938 0.293541 0
M  V30 10686 H 963.244 -6.47795 0.721451 0
M  V30 10687 N 966.677 -1.24326 -0.968545 0
M  V30 10688 C 967.905 -1.10947 -1.74638 0
M  V30 10689 C 968.32 0.338064 -1.85749 0
M  V30 10690 O 967.677 1.23331 -1.3452 0
M  V30 10691 C 967.728 -1.74254 -3.1673 0
M  V30 10692 O 967.449 -3.13347 -3.06178 0
M  V30 10693 C 968.95 -1.66473 -4.10855 0
M  V30 10694 H 966.17 -0.38767 -0.547679 0
M  V30 10695 H 968.714 -1.64415 -1.21605 0
M  V30 10696 H 966.869 -1.2479 -3.66751 0
M  V30 10697 H 967.283 -3.44255 -3.95713 0
M  V30 10698 H 968.757 -2.15452 -5.08217 0
M  V30 10699 H 969.234 -0.625785 -4.34719 0
M  V30 10700 H 969.84 -2.15359 -3.66743 0
M  V30 10701 N 968.156 1.1691 -1.05688 0
M  V30 10702 C 969.384 1.91204 -0.790485 0
M  V30 10703 C 969.799 1.77095 0.654434 0
M  V30 10704 O 969.156 1.11146 1.44751 0
M  V30 10705 C 969.207 3.42108 -1.16808 0
M  V30 10706 O 968.928 3.55788 -2.55629 0
M  V30 10707 C 970.429 4.33466 -0.92855 0
M  V30 10708 H 967.649 0.606508 -0.287035 0
M  V30 10709 H 970.193 1.48225 -1.40888 0
M  V30 10710 H 968.348 3.82814 -0.59434 0
M  V30 10711 H 968.762 4.49321 -2.70575 0
M  V30 10712 H 970.236 5.37836 -1.24245 0
M  V30 10713 H 970.713 4.38989 0.136016 0
M  V30 10714 H 971.319 3.98481 -1.48638 0
M  V30 10715 N 969.634 0.838594 1.33437 0
M  V30 10716 C 970.881 0.434169 1.97791 0
M  V30 10717 C 971.209 -1.00652 1.66431 0
M  V30 10718 O 970.464 -1.71848 0.936309 0
M  V30 10719 C 970.763 0.601425 3.52303 0
M  V30 10720 C 970.429 2.01017 4.03612 0
M  V30 10721 C 969.091 2.39551 4.17336 0
M  V30 10722 C 971.443 2.93035 4.31022 0
M  V30 10723 C 968.771 3.69406 4.55802 0
M  V30 10724 C 971.123 4.22372 4.7094 0
M  V30 10725 C 969.787 4.60862 4.82869 0
M  V30 10726 H 969.057 0.158874 0.723768 0
M  V30 10727 H 971.704 1.06556 1.59116 0
M  V30 10728 H 970.009 -0.113284 3.91636 0
M  V30 10729 H 971.706 0.268798 4.00098 0
M  V30 10730 H 968.296 1.7009 3.93405 0
M  V30 10731 H 972.48 2.64503 4.19943 0
M  V30 10732 H 967.736 3.99033 4.63231 0
M  V30 10733 H 971.91 4.93749 4.91106 0
M  V30 10734 H 969.537 5.6153 5.12433 0
M  V30 10735 N 971.112 -1.45937 0.595003 0
M  V30 10736 C 972.389 -1.95592 0.0178748 0
M  V30 10737 C 972.769 -1.53758 -1.44643 0
M  V30 10738 O 972.117 -0.794104 -2.14257 0
M  V30 10739 C 972.327 -3.4841 0.202789 0
M  V30 10740 C 973.675 -4.2453 0.0770121 0
M  V30 10741 O 974.699 -3.55954 0.132257 0
M  V30 10742 O 973.558 -5.46479 -0.0484271 0
M  V30 10743 H 970.652 -0.825888 -0.0428702 0
M  V30 10744 H 973.198 -1.56162 0.664184 0
M  V30 10745 H 971.97 -3.71787 1.22027 0
M  V30 10746 H 971.593 -3.947 -0.479376 0
M  V30 10747 N 972.59 -0.333456 -1.54032 0
M  V30 10748 C 973.537 0.527981 -2.2468 0
M  V30 10749 C 974.507 1.10371 -1.24127 0
M  V30 10750 O 975.692 1.14221 -1.52834 0
M  V30 10751 C 972.832 1.67808 -3.01553 0
M  V30 10752 C 971.945 1.13064 -4.16942 0
M  V30 10753 C 971.08 2.24722 -4.81325 0
M  V30 10754 C 970.119 1.67277 -5.88799 0
M  V30 10755 N 969.256 2.72638 -6.47003 0
M  V30 10756 H 974.096 -0.0810308 -2.9789 0
M  V30 10757 H 971.633 -0.051761 -1.47009 0
M  V30 10758 H 973.591 2.35502 -3.44376 0
M  V30 10759 H 972.221 2.25823 -2.30659 0
M  V30 10760 H 971.273 0.344948 -3.78833 0
M  V30 10761 H 972.585 0.670373 -4.94275 0
M  V30 10762 H 971.739 3.00301 -5.27166 0
M  V30 10763 H 970.478 2.74089 -4.03394 0
M  V30 10764 H 969.483 0.902002 -5.4235 0
M  V30 10765 H 970.708 1.18775 -6.68632 0
M  V30 10766 H 968.654 3.21277 -5.71941 0
M  V30 10767 H 968.571 2.31204 -7.19778 0
M  V30 10768 H 969.839 3.48015 -6.97499 0
M  V30 10769 N 974.068 1.57479 -0.061844 0
M  V30 10770 C 975.001 2.07734 0.94455 0
M  V30 10771 C 975.979 0.980207 1.29733 0
M  V30 10772 O 977.163 1.2529 1.40836 0
M  V30 10773 C 974.29 2.52673 2.25553 0
M  V30 10774 C 973.336 3.73725 2.05503 0
M  V30 10775 S 974.169 5.18886 1.32354 0
M  V30 10776 C 975.325 5.67148 2.64753 0
M  V30 10777 H 975.558 2.92772 0.516888 0
M  V30 10778 H 973.091 1.53663 0.150684 0
M  V30 10779 H 975.049 2.79226 3.00904 0
M  V30 10780 H 973.71 1.67921 2.65445 0
M  V30 10781 H 972.903 4.03125 3.025 0
M  V30 10782 H 972.505 3.47494 1.3829 0
M  V30 10783 H 974.797 5.73385 3.60882 0
M  V30 10784 H 975.74 6.66196 2.39976 0
M  V30 10785 H 976.148 4.94921 2.71502 0
M  V30 10786 N 975.546 -0.211634 1.56173 0
M  V30 10787 C 976.823 -0.959467 1.70451 0
M  V30 10788 C 977.203 -2.02036 0.611942 0
M  V30 10789 O 976.551 -2.25325 -0.37959 0
M  V30 10790 C 976.761 -1.56092 3.12148 0
M  V30 10791 C 978.109 -2.04939 3.71867 0
M  V30 10792 O 979.133 -1.65966 3.15172 0
M  V30 10793 O 977.992 -2.766 4.71333 0
M  V30 10794 H 975.086 -0.448844 0.6946 0
M  V30 10795 H 977.632 -0.202633 1.68486 0
M  V30 10796 H 976.404 -0.79538 3.83131 0
M  V30 10797 H 976.027 -2.38303 3.18273 0
M  V30 10798 N 977.024 -1.50153 -0.478725 0
M  V30 10799 C 978.271 -1.6076 -1.23136 0
M  V30 10800 C 978.599 -0.30442 -1.92103 0
M  V30 10801 O 977.854 0.709213 -1.82397 0
M  V30 10802 C 978.153 -2.73208 -2.30417 0
M  V30 10803 C 977.819 -4.13953 -1.78755 0
M  V30 10804 C 976.481 -4.52251 -1.64386 0
M  V30 10805 C 978.833 -5.01949 -1.40344 0
M  V30 10806 C 976.161 -5.76292 -1.10018 0
M  V30 10807 C 978.513 -6.2653 -0.874206 0
M  V30 10808 C 977.177 -6.63637 -0.717085 0
M  V30 10809 H 976.447 -0.588264 -0.450585 0
M  V30 10810 H 979.094 -1.84061 -0.528551 0
M  V30 10811 H 977.399 -2.43965 -3.06575 0
M  V30 10812 H 979.096 -2.7862 -2.88395 0
M  V30 10813 H 975.686 -3.83736 -1.90904 0
M  V30 10814 H 979.87 -4.73 -1.50283 0
M  V30 10815 H 975.126 -6.03723 -0.965838 0
M  V30 10816 H 979.3 -6.94081 -0.567883 0
M  V30 10817 H 976.927 -7.59633 -0.293639 0
M  V30 10818 N 978.502 0.731368 -1.39602 0
M  V30 10819 C 979.432 1.85855 -1.41351 0
M  V30 10820 C 980.413 1.67839 -0.2764 0
M  V30 10821 O 981.598 1.88104 -0.482747 0
M  V30 10822 C 978.728 3.23644 -1.25983 0
M  V30 10823 C 977.682 3.56304 -2.37132 0
M  V30 10824 C 977.008 4.93069 -2.0685 0
M  V30 10825 C 978.308 3.58906 -3.79452 0
M  V30 10826 H 980.002 1.84648 -2.3568 0
M  V30 10827 H 977.548 0.886955 -1.13442 0
M  V30 10828 H 979.501 4.02176 -1.25826 0
M  V30 10829 H 978.225 3.25387 -0.281234 0
M  V30 10830 H 976.884 2.80104 -2.36511 0
M  V30 10831 H 976.532 4.91396 -1.0742 0
M  V30 10832 H 976.232 5.15888 -2.81306 0
M  V30 10833 H 977.756 5.73953 -2.0835 0
M  V30 10834 H 979.17 4.27508 -3.81982 0
M  V30 10835 H 977.567 3.93246 -4.53297 0
M  V30 10836 H 978.637 2.58631 -4.10168 0
M  V30 10837 N 979.98 1.24838 0.961938 0
M  V30 10838 C 981.208 1.11871 1.74047 0
M  V30 10839 C 981.623 -0.328209 1.85925 0
M  V30 10840 O 980.98 -1.22616 1.35173 0
M  V30 10841 C 981.031 1.75931 3.15801 0
M  V30 10842 O 980.752 3.14967 3.04512 0
M  V30 10843 C 982.253 1.68649 4.09966 0
M  V30 10844 H 979.473 0.390569 0.545616 0
M  V30 10845 H 982.017 1.65058 1.20732 0
M  V30 10846 H 980.172 1.26733 3.66084 0
M  V30 10847 H 980.586 3.46349 3.93882 0
M  V30 10848 H 982.06 2.18144 5.07067 0
M  V30 10849 H 982.537 0.648831 4.34381 0
M  V30 10850 H 983.143 2.17301 3.65596 0
M  V30 10851 N 981.458 -1.16348 1.06306 0
M  V30 10852 C 982.707 -1.8622 0.774909 0
M  V30 10853 C 983.02 -1.82598 -0.701245 0
M  V30 10854 O 984.226 -2.48051 -1.10377 0
M  V30 10855 C 982.682 -3.34182 1.33604 0
M  V30 10856 C 982.29 -3.46279 2.84245 0
M  V30 10857 C 984.034 -4.09309 1.12544 0
M  V30 10858 C 981.941 -4.88327 3.33602 0
M  V30 10859 H 980.871 -0.697574 0.286194 0
M  V30 10860 H 983.522 -1.31311 1.28179 0
M  V30 10861 H 981.904 -3.88698 0.756937 0
M  V30 10862 H 983.078 -3.01923 3.48108 0
M  V30 10863 H 981.393 -2.84585 3.03974 0
M  V30 10864 H 983.99 -5.14123 1.46909 0
M  V30 10865 H 984.333 -4.16251 0.0638129 0
M  V30 10866 H 984.866 -3.61032 1.67034 0
M  V30 10867 H 981.605 -4.86565 4.39244 0
M  V30 10868 H 981.125 -5.33307 2.74487 0
M  V30 10869 H 982.804 -5.57144 3.28937 0
M  V30 10870 N 982.937 -0.845659 -1.3299 0
M  V30 10871 C 984.183 -0.445311 -1.9785 0
M  V30 10872 C 984.516 0.994476 -1.66805 0
M  V30 10873 O 983.791 1.69636 -0.95151 0
M  V30 10874 C 984.074 -0.674371 -3.53729 0
M  V30 10875 C 983.927 -2.16192 -3.94437 0
M  V30 10876 C 985.246 -0.124908 -4.39923 0
M  V30 10877 H 982.365 -0.163269 -0.718688 0
M  V30 10878 H 985.007 -1.06242 -1.5752 0
M  V30 10879 H 983.157 -0.149091 -3.88214 0
M  V30 10880 H 984.829 -2.75259 -3.70176 0
M  V30 10881 H 983.072 -2.64386 -3.43922 0
M  V30 10882 H 983.743 -2.27292 -5.03033 0
M  V30 10883 H 986.219 -0.573986 -4.12122 0
M  V30 10884 H 985.095 -0.314816 -5.47996 0
M  V30 10885 H 985.356 0.971758 -4.31288 0
M  V30 10886 N 984.415 1.45619 -0.602734 0
M  V30 10887 C 985.831 1.57368 -0.26599 0
M  V30 10888 C 986.031 1.59485 1.23154 0
M  V30 10889 O 985.087 1.52254 2.01432 0
M  V30 10890 C 986.4 2.85863 -0.932881 0
M  V30 10891 C 987.948 2.9953 -0.908344 0
M  V30 10892 C 988.423 4.30789 -1.55515 0
M  V30 10893 N 989.914 4.37536 -1.52042 0
M  V30 10894 C 990.649 5.37758 -1.99008 0
M  V30 10895 N 990.145 6.44544 -2.54038 0
M  V30 10896 N 991.938 5.29085 -1.89805 0
M  V30 10897 H 984.089 1.42489 -1.57514 0
M  V30 10898 H 986.352 0.680948 -0.659556 0
M  V30 10899 H 986.058 2.90183 -1.98713 0
M  V30 10900 H 985.932 3.74467 -0.453209 0
M  V30 10901 H 988.319 2.9478 0.137344 0
M  V30 10902 H 988.4 2.12349 -1.42623 0
M  V30 10903 H 988.044 4.36297 -2.60014 0
M  V30 10904 H 987.974 5.16778 -1.01232 0
M  V30 10905 H 990.465 3.60972 -1.11837 0
M  V30 10906 H 990.778 7.17258 -2.87682 0
M  V30 10907 H 989.123 6.45308 -2.58075 0
M  V30 10908 H 992.314 4.44566 -1.46556 0
M  V30 10909 H 992.487 6.07043 -2.26722 0
M  V30 10910 N 985.893 0.34162 1.53853 0
M  V30 10911 C 986.803 -0.524555 2.2866 0
M  V30 10912 C 987.819 -1.1136 1.33697 0
M  V30 10913 O 988.995 -1.1297 1.66732 0
M  V30 10914 C 986.06 -1.66065 3.04341 0
M  V30 10915 C 985.121 -1.10158 4.14926 0
M  V30 10916 C 984.354 -2.18353 4.86988 0
M  V30 10917 O 984.577 -3.39038 4.58704 0
M  V30 10918 O 983.511 -1.82756 5.73484 0
M  V30 10919 H 987.337 0.0835014 3.03585 0
M  V30 10920 H 984.922 0.106727 1.49018 0
M  V30 10921 H 986.804 -2.3217 3.51674 0
M  V30 10922 H 985.479 -2.25456 2.32275 0
M  V30 10923 H 984.386 -0.405109 3.719 0
M  V30 10924 H 985.719 -0.552567 4.89088 0
M  V30 10925 N 987.371 -1.57444 0.0701946 0
M  V30 10926 C 988.611 -1.95304 -0.60296 0
M  V30 10927 C 988.975 -0.949592 -1.66873 0
M  V30 10928 O 990.176 -1.2158 -2.39733 0
M  V30 10929 C 988.447 -3.37831 -1.16639 0
M  V30 10930 S 990.006 -3.97667 -1.8549 0
M  V30 10931 H 986.824 -0.683026 -0.197476 0
M  V30 10932 H 989.426 -1.94971 0.143669 0
M  V30 10933 H 988.13 -4.08648 -0.378856 0
M  V30 10934 H 987.661 -3.41704 -1.94942 0
M  V30 10935 H 989.676 -3.84441 -3.13719 0
M  V30 10936 N 988.849 0.203349 -1.56283 0
M  V30 10937 C 990.097 0.923183 -1.79782 0
M  V30 10938 C 990.418 1.84134 -0.64185 0
M  V30 10939 O 989.688 1.92922 0.340292 0
M  V30 10940 H 988.268 0.343881 -0.66314 0
M  V30 10941 H 990.93 0.210837 -1.93756 0
M  V30 10942 H 990.026 1.51921 -2.72629 0
M  V30 10943 N 990.327 1.50405 0.470755 0
M  V30 10944 C 991.576 1.60652 1.21959 0
M  V30 10945 C 991.889 0.312521 1.93087 0
M  V30 10946 O 993.095 0.293901 2.69905 0
M  V30 10947 C 991.551 2.83581 2.21607 0
M  V30 10948 C 991.159 4.19858 1.5628 0
M  V30 10949 C 992.903 3.03173 2.9713 0
M  V30 10950 C 990.81 5.33974 2.54217 0
M  V30 10951 H 989.74 0.598264 0.458907 0
M  V30 10952 H 992.391 1.76836 0.490041 0
M  V30 10953 H 990.773 2.60957 2.97855 0
M  V30 10954 H 991.947 4.52738 0.85819 0
M  V30 10955 H 990.262 4.05873 0.930366 0
M  V30 10956 H 992.859 3.856 3.70428 0
M  V30 10957 H 993.202 2.14914 3.56536 0
M  V30 10958 H 993.735 3.2598 2.27995 0
M  V30 10959 H 990.474 6.24388 1.99549 0
M  V30 10960 H 989.994 5.05511 3.22829 0
M  V30 10961 H 991.673 5.64561 3.16039 0
M  V30 10962 N 991.805 -0.723954 1.39988 0
M  V30 10963 C 992.715 -1.86829 1.41887 0
M  V30 10964 C 993.731 -1.71173 0.312401 0
M  V30 10965 O 994.907 -1.93583 0.555651 0
M  V30 10966 C 991.972 -3.22541 1.27154 0
M  V30 10967 C 991.033 -3.50512 2.47871 0
M  V30 10968 C 990.266 -4.79749 2.33831 0
M  V30 10969 O 990.489 -5.54251 1.34765 0
M  V30 10970 O 989.423 -5.07868 3.23039 0
M  V30 10971 H 993.249 -1.88183 2.38371 0
M  V30 10972 H 990.834 -0.873259 1.21221 0
M  V30 10973 H 992.716 -4.0362 1.21114 0
M  V30 10974 H 991.391 -3.21933 0.337715 0
M  V30 10975 H 990.298 -2.69475 2.59488 0
M  V30 10976 H 991.631 -3.55909 3.39985 0
M  V30 10977 N 993.283 -1.25346 -0.955304 0
M  V30 10978 C 994.23 -1.05672 -2.05188 0
M  V30 10979 C 995.2 0.0339217 -1.66065 0
M  V30 10980 O 996.385 -0.123126 -1.90402 0
M  V30 10981 C 993.525 -0.680791 -3.38318 0
M  V30 10982 C 992.638 -1.84622 -3.90562 0
M  V30 10983 C 991.773 -1.41471 -5.12015 0
M  V30 10984 C 990.812 -2.54931 -5.56486 0
M  V30 10985 N 989.949 -2.1256 -6.69151 0
M  V30 10986 H 994.789 -1.9952 -2.2135 0
M  V30 10987 H 992.326 -0.993588 -1.08472 0
M  V30 10988 H 994.284 -0.443794 -4.14833 0
M  V30 10989 H 992.914 0.2207 -3.22045 0
M  V30 10990 H 991.966 -2.19654 -3.10574 0
M  V30 10991 H 993.278 -2.6983 -4.19515 0
M  V30 10992 H 992.432 -1.13732 -5.95945 0
M  V30 10993 H 991.171 -0.533334 -4.84775 0
M  V30 10994 H 990.176 -2.83415 -4.71122 0
M  V30 10995 H 991.401 -3.43645 -5.85734 0
M  V30 10996 H 989.347 -1.26838 -6.43621 0
M  V30 10997 H 989.264 -2.91317 -6.97618 0
M  V30 10998 H 990.532 -1.87996 -7.5649 0
M  V30 10999 N 994.761 1.15782 -1.06922 0
M  V30 11000 C 995.711 2.18373 -0.655537 0
M  V30 11001 C 996.695 1.57745 0.317084 0
M  V30 11002 O 997.887 1.76511 0.131509 0
M  V30 11003 C 995.016 3.43263 -0.0502314 0
M  V30 11004 C 994.102 4.10954 -1.04773 0
M  V30 11005 N 994.493 4.542 -2.22567 0
M  V30 11006 C 992.791 4.3723 -0.880087 0
M  V30 11007 C 993.492 5.06641 -2.85815 0
M  V30 11008 N 992.468 4.99917 -2.13505 0
M  V30 11009 H 996.27 2.49533 -1.55276 0
M  V30 11010 H 993.784 1.32303 -0.941793 0
M  V30 11011 H 995.781 4.16063 0.264003 0
M  V30 11012 H 994.441 3.13588 0.842167 0
M  V30 11013 H 995.452 4.47727 -2.60309 0
M  V30 11014 H 992.129 4.17481 -0.0402148 0
M  V30 11015 H 993.519 5.50092 -3.85808 0
M  V30 11016 N 996.239 0.8527 1.3254 0
M  V30 11017 C 997.171 0.253181 2.27797 0
M  V30 11018 C 998.184 -0.573977 1.52346 0
M  V30 11019 O 999.373 -0.398786 1.73988 0
M  V30 11020 C 996.473 -0.661034 3.32391 0
M  V30 11021 C 995.646 0.12984 4.37207 0
M  V30 11022 C 994.705 -0.709837 5.2139 0
M  V30 11023 O 993.731 -0.144056 5.69018 0
M  V30 11024 N 994.933 -2.0249 5.44039 0
M  V30 11025 H 997.698 1.07171 2.79883 0
M  V30 11026 H 995.259 0.712491 1.45379 0
M  V30 11027 H 997.251 -1.22806 3.85617 0
M  V30 11028 H 995.821 -1.38025 2.80478 0
M  V30 11029 H 995.041 0.878289 3.84291 0
M  V30 11030 H 996.329 0.673141 5.04328 0
M  V30 11031 H 995.727 -2.50792 5.0707 0
M  V30 11032 H 994.284 -2.5401 6.00269 0
M  V30 11033 N 997.718 -1.45297 0.610449 0
M  V30 11034 C 998.943 -2.07101 0.111414 0
M  V30 11035 C 999.368 -1.45161 -1.19625 0
M  V30 11036 O 998.726 -0.545368 -1.72903 0
M  V30 11037 C 998.774 -3.60598 -0.0117372 0
M  V30 11038 O 997.878 -3.98512 -1.06122 0
M  V30 11039 H 997.219 -0.659709 0.075364 0
M  V30 11040 H 999.749 -1.86504 0.841269 0
M  V30 11041 H 999.759 -4.07464 -0.209028 0
M  V30 11042 H 998.434 -4.05067 0.943076 0
M  V30 11043 H 997.011 -3.63312 -0.840158 0
M  V30 11044 N 999.196 -0.349774 -1.5367 0
M  V30 11045 C 1000.42 0.248692 -2.05904 0
M  V30 11046 C 1000.85 1.42942 -1.22267 0
M  V30 11047 O 1000.2 1.79732 -0.237899 0
M  V30 11048 C 1000.25 0.635639 -3.54953 0
M  V30 11049 O 999.356 1.7349 -3.74132 0
M  V30 11050 H 998.697 0.0399477 -0.662797 0
M  V30 11051 H 1001.23 -0.505795 -1.9825 0
M  V30 11052 H 1001.24 0.911064 -3.97698 0
M  V30 11053 H 999.912 -0.227805 -4.15276 0
M  V30 11054 H 998.489 1.45626 -3.43289 0
M  V30 11055 N 1000.67 1.57404 -0.0785433 0
M  V30 11056 C 1001.92 1.9292 0.588626 0
M  V30 11057 C 1002.24 0.961106 1.70359 0
M  V30 11058 O 1003.44 1.20934 2.43079 0
M  V30 11059 C 1001.9 3.42729 1.09839 0
M  V30 11060 C 1001.51 4.47998 0.0140773 0
M  V30 11061 C 1003.25 3.87235 1.73924 0
M  V30 11062 C 1001.16 5.88945 0.538269 0
M  V30 11063 H 1000.09 0.720069 0.223645 0
M  V30 11064 H 1002.74 1.8287 -0.15187 0
M  V30 11065 H 1001.12 3.47875 1.89207 0
M  V30 11066 H 1002.29 4.54476 -0.760773 0
M  V30 11067 H 1000.61 4.13001 -0.53095 0
M  V30 11068 H 1003.21 4.89927 2.14186 0
M  V30 11069 H 1003.55 3.24971 2.60191 0
M  V30 11070 H 1004.08 3.84721 1.01168 0
M  V30 11071 H 1000.82 6.5487 -0.287395 0
M  V30 11072 H 1000.34 5.85972 1.28049 0
M  V30 11073 H 1002.02 6.39028 1.01253 0
M  V30 11074 N 1002.15 -0.195058 1.56388 0
M  V30 11075 C 1003.4 -0.913636 1.8027 0
M  V30 11076 C 1003.72 -1.83791 0.651606 0
M  V30 11077 O 1002.99 -1.931 -0.330057 0
M  V30 11078 H 1001.57 -0.34036 0.664954 0
M  V30 11079 H 1004.23 -0.200559 1.93865 0
M  V30 11080 H 1003.33 -1.50473 2.7343 0
M  V30 11081 N 1003.63 -1.50653 -0.462772 0
M  V30 11082 C 1004.88 -1.62057 -1.21424 0
M  V30 11083 C 1005.2 -0.324778 -1.91769 0
M  V30 11084 O 1004.46 0.689828 -1.83139 0
M  V30 11085 C 1004.76 -2.75637 -2.27507 0
M  V30 11086 C 1004.42 -4.15826 -1.74354 0
M  V30 11087 C 1003.09 -4.53969 -1.5958 0
M  V30 11088 C 1005.44 -5.03409 -1.35012 0
M  V30 11089 C 1002.77 -5.77427 -1.03899 0
M  V30 11090 C 1005.12 -6.27422 -0.807704 0
M  V30 11091 C 1003.78 -6.6436 -0.646657 0
M  V30 11092 H 1003.05 -0.59301 -0.44432 0
M  V30 11093 H 1005.7 -1.84612 -0.508999 0
M  V30 11094 H 1004 -2.47203 -3.0397 0
M  V30 11095 H 1005.7 -2.81663 -2.85424 0
M  V30 11096 H 1002.29 -3.85739 -1.86823 0
M  V30 11097 H 1006.48 -4.74567 -1.45258 0
M  V30 11098 H 1001.73 -6.04713 -0.901751 0
M  V30 11099 H 1005.91 -6.94644 -0.494234 0
M  V30 11100 H 1003.53 -7.59901 -0.213053 0
M  V30 11101 N 1005.11 0.71652 -1.4037 0
M  V30 11102 C 1006.33 1.51069 -1.42102 0
M  V30 11103 C 1006.76 1.88087 -0.0222387 0
M  V30 11104 O 1006.12 1.53204 0.969448 0
M  V30 11105 C 1006.16 2.76307 -2.31704 0
M  V30 11106 O 1005.27 3.72975 -1.75964 0
M  V30 11107 H 1004.61 0.455502 -0.483129 0
M  V30 11108 H 1007.14 0.882514 -1.84588 0
M  V30 11109 H 1007.15 3.24846 -2.46859 0
M  V30 11110 H 1005.82 2.48698 -3.3335 0
M  V30 11111 H 1004.4 3.31818 -1.70151 0
M  V30 11112 N 1006.59 1.25851 0.948643 0
M  V30 11113 C 1007.83 1.11119 1.69648 0
M  V30 11114 C 1008.17 -0.345995 1.91093 0
M  V30 11115 O 1007.44 -1.25467 1.48621 0
M  V30 11116 C 1007.72 1.87261 3.0758 0
M  V30 11117 C 1007.58 3.40842 2.93507 0
M  V30 11118 C 1008.9 1.6605 4.07573 0
M  V30 11119 H 1006.01 0.405052 0.615713 0
M  V30 11120 H 1008.66 1.54756 1.10229 0
M  V30 11121 H 1006.81 1.50172 3.58303 0
M  V30 11122 H 1008.48 3.87641 2.50064 0
M  V30 11123 H 1006.72 3.68248 2.29294 0
M  V30 11124 H 1007.39 3.89339 3.91305 0
M  V30 11125 H 1009.87 1.98348 3.65783 0
M  V30 11126 H 1008.74 2.21753 5.02113 0
M  V30 11127 H 1009.01 0.603256 4.37965 0
M  V30 11128 N 1008.06 -1.15214 1.07534 0
M  V30 11129 C 1009.01 -2.18022 0.667108 0
M  V30 11130 C 1010 -1.57911 -0.308714 0
M  V30 11131 O 1011.19 -1.76578 -0.122147 0
M  V30 11132 C 1008.32 -3.43232 0.0684348 0
M  V30 11133 C 1007.41 -4.10393 1.06951 0
M  V30 11134 N 1007.8 -4.53013 2.24973 0
M  V30 11135 C 1006.09 -4.36758 0.903262 0
M  V30 11136 C 1006.8 -5.05118 2.88498 0
M  V30 11137 N 1005.77 -4.98777 2.16153 0
M  V30 11138 H 1009.57 -2.48706 1.56597 0
M  V30 11139 H 1007.09 -1.31801 0.948796 0
M  V30 11140 H 1009.08 -4.16197 -0.241934 0
M  V30 11141 H 1007.74 -3.14031 -0.825525 0
M  V30 11142 H 1008.76 -4.4634 2.6268 0
M  V30 11143 H 1005.43 -4.17453 0.0623543 0
M  V30 11144 H 1006.82 -5.48039 3.8872 0
M  V30 11145 N 1009.54 -0.859717 -1.32086 0
M  V30 11146 C 1010.47 -0.265258 -2.2766 0
M  V30 11147 C 1011.49 0.565889 -1.52648 0
M  V30 11148 O 1012.68 0.389554 -1.74197 0
M  V30 11149 C 1009.78 0.643397 -3.32737 0
M  V30 11150 C 1008.95 -0.153024 -4.37132 0
M  V30 11151 C 1008.01 0.682176 -5.21759 0
M  V30 11152 O 1007.03 0.113878 -5.69086 0
M  V30 11153 N 1008.24 1.99602 -5.45105 0
M  V30 11154 H 1011 -1.08653 -2.79311 0
M  V30 11155 H 1008.56 -0.720191 -1.45 0
M  V30 11156 H 1010.55 1.20759 -3.86263 0
M  V30 11157 H 1009.12 1.36535 -2.81206 0
M  V30 11158 H 1008.34 -0.898657 -3.8382 0
M  V30 11159 H 1009.63 -0.699877 -5.03963 0
M  V30 11160 H 1009.03 2.481 -5.08393 0
M  V30 11161 H 1007.59 2.50823 -6.01607 0
M  V30 11162 N 1011.02 1.44971 -0.618145 0
M  V30 11163 C 1011.97 2.32354 0.106846 0
M  V30 11164 C 1012.96 1.4659 0.848984 0
M  V30 11165 O 1014.17 1.63012 0.763354 0
M  V30 11166 H 1010.54 0.750108 0.0533109 0
M  V30 11167 H 1012.51 2.9127 -0.648426 0
M  V30 11168 C 1011.26 3.30381 1.08368 0
M  V30 11169 H 1010.59 3.96377 0.52205 0
M  V30 11170 H 1012.03 3.94231 1.56069 0
M  V30 11171 C 1010.49 2.58336 2.1625 0
M  V30 11172 O 1011.02 2.37258 3.24148 0
M  V30 11173 N 1009.22 2.18292 1.91825 0
M  V30 11174 H 1008.77 2.35635 1.04086 0
M  V30 11175 H 1008.73 1.70413 2.6421 0
M  V30 11176 N 1012.5 0.357919 1.53482 0
M  V30 11177 C 1013.43 -0.484231 2.28424 0
M  V30 11178 C 1014.41 -1.09046 1.30548 0
M  V30 11179 O 1015.59 -1.10916 1.59409 0
M  V30 11180 C 1012.72 -1.62803 3.06778 0
M  V30 11181 C 1011.68 -1.14943 4.12277 0
M  V30 11182 C 1011 -2.38287 4.78669 0
M  V30 11183 C 1012.3 -0.239627 5.2175 0
M  V30 11184 H 1014 0.140979 2.99068 0
M  V30 11185 H 1011.54 0.069244 1.43833 0
M  V30 11186 H 1013.5 -2.22374 3.57949 0
M  V30 11187 H 1012.22 -2.28036 2.3381 0
M  V30 11188 H 1010.88 -0.576442 3.6204 0
M  V30 11189 H 1010.53 -3.01959 4.02281 0
M  V30 11190 H 1010.23 -2.06939 5.49955 0
M  V30 11191 H 1011.75 -2.98558 5.32631 0
M  V30 11192 H 1013.17 -0.742597 5.6847 0
M  V30 11193 H 1011.56 -0.0173747 6.00097 0
M  V30 11194 H 1012.63 0.720333 4.7952 0
M  V30 11195 N 1013.98 -1.5736 0.0868897 0
M  V30 11196 C 1014.92 -2.13571 -0.874996 0
M  V30 11197 C 1015.89 -1.0521 -1.2853 0
M  V30 11198 O 1017.08 -1.32954 -1.3685 0
M  V30 11199 C 1014.22 -2.71386 -2.13175 0
M  V30 11200 C 1013.33 -3.93953 -1.77272 0
M  V30 11201 C 1012.47 -4.3996 -2.97671 0
M  V30 11202 C 1011.51 -5.55137 -2.57856 0
M  V30 11203 N 1010.64 -5.96034 -3.71064 0
M  V30 11204 H 1015.48 -2.95453 -0.388789 0
M  V30 11205 H 1013.02 -1.45992 -0.180242 0
M  V30 11206 H 1014.98 -3.03022 -2.86764 0
M  V30 11207 H 1013.61 -1.92245 -2.5931 0
M  V30 11208 H 1012.66 -3.68683 -0.936845 0
M  V30 11209 H 1013.97 -4.77565 -1.43989 0
M  V30 11210 H 1013.13 -4.73337 -3.79522 0
M  V30 11211 H 1011.86 -3.55232 -3.34158 0
M  V30 11212 H 1010.87 -5.21397 -1.7443 0
M  V30 11213 H 1012.09 -6.41608 -2.22522 0
M  V30 11214 H 1010.04 -5.14253 -4.07284 0
M  V30 11215 H 1009.96 -6.74423 -3.41599 0
M  V30 11216 H 1011.23 -6.34038 -4.53449 0
M  V30 11217 N 1015.45 0.186762 -1.56489 0
M  V30 11218 C 1016.36 1.25169 -1.98419 0
M  V30 11219 C 1017.38 1.49329 -0.893124 0
M  V30 11220 O 1018.56 1.61781 -1.19954 0
M  V30 11221 C 1015.62 2.57422 -2.32239 0
M  V30 11222 C 1014.68 2.4126 -3.55095 0
M  V30 11223 C 1013.92 3.67206 -3.87292 0
M  V30 11224 O 1014.14 4.71731 -3.20665 0
M  V30 11225 O 1013.07 3.62238 -4.80695 0
M  V30 11226 H 1016.9 0.925834 -2.89244 0
M  V30 11227 H 1014.48 0.392421 -1.44154 0
M  V30 11228 H 1016.37 3.35466 -2.5503 0
M  V30 11229 H 1015.04 2.89618 -1.44579 0
M  V30 11230 H 1013.95 1.61299 -3.37541 0
M  V30 11231 H 1015.28 2.13994 -4.43247 0
M  V30 11232 N 1016.93 1.50896 0.454776 0
M  V30 11233 C 1018.16 1.66759 1.23313 0
M  V30 11234 C 1018.58 0.35722 1.84677 0
M  V30 11235 O 1017.94 -0.680771 1.68033 0
M  V30 11236 C 1017.99 2.77254 2.3057 0
M  V30 11237 O 1017.09 2.39642 3.35627 0
M  V30 11238 H 1016.43 0.556599 0.362068 0
M  V30 11239 H 1018.96 1.97365 0.539274 0
M  V30 11240 H 1018.97 3.0082 2.75629 0
M  V30 11241 H 1017.65 3.72349 1.85281 0
M  V30 11242 H 1016.23 2.26584 2.96165 0
M  V30 11243 N 1018.41 -0.709066 1.40748 0
M  V30 11244 C 1019.34 -1.83583 1.4429 0
M  V30 11245 C 1020.32 -1.67378 0.303067 0
M  V30 11246 O 1021.51 -1.87312 0.512612 0
M  V30 11247 C 1018.64 -3.21599 1.31116 0
M  V30 11248 C 1017.59 -3.52486 2.4277 0
M  V30 11249 C 1016.92 -4.89716 2.14668 0
M  V30 11250 C 1018.22 -3.52824 3.85113 0
M  V30 11251 H 1019.91 -1.80876 2.38588 0
M  V30 11252 H 1017.46 -0.868795 1.14839 0
M  V30 11253 H 1019.41 -4.00123 1.32209 0
M  V30 11254 H 1018.13 -3.24898 0.332965 0
M  V30 11255 H 1016.79 -2.76305 2.40937 0
M  V30 11256 H 1016.44 -4.89625 1.15224 0
M  V30 11257 H 1016.14 -5.11347 2.89478 0
M  V30 11258 H 1017.66 -5.70566 2.17455 0
M  V30 11259 H 1019.08 -4.21377 3.88734 0
M  V30 11260 H 1017.48 -3.85984 4.59496 0
M  V30 11261 H 1018.55 -2.52073 4.14231 0
M  V30 11262 N 1019.89 -1.26353 -0.941956 0
M  V30 11263 C 1021.17 -1.02601 -1.6653 0
M  V30 11264 C 1021.55 0.44381 -2.06382 0
M  V30 11265 O 1020.89 1.42399 -1.78703 0
M  V30 11266 C 1021.1 -1.97401 -2.87809 0
M  V30 11267 C 1022.45 -2.25967 -3.59478 0
M  V30 11268 O 1023.48 -1.95261 -2.97912 0
M  V30 11269 O 1022.34 -2.78244 -4.70364 0
M  V30 11270 H 1019.43 -0.39007 -0.729228 0
M  V30 11271 H 1021.98 -1.37559 -0.993754 0
M  V30 11272 H 1020.75 -2.9659 -2.55245 0
M  V30 11273 H 1020.37 -1.62918 -3.62689 0
M  V30 11274 N 1021.37 1.14642 -1.08144 0
M  V30 11275 C 1022.78 1.37604 -0.808537 0
M  V30 11276 C 1022.98 1.92868 0.583452 0
M  V30 11277 O 1022.04 2.13964 1.34073 0
M  V30 11278 C 1023.35 2.3396 -1.889 0
M  V30 11279 C 1024.9 2.47605 -1.9147 0
M  V30 11280 C 1025.38 3.47258 -2.98623 0
M  V30 11281 N 1026.87 3.548 -2.97777 0
M  V30 11282 C 1027.6 4.31751 -3.77331 0
M  V30 11283 N 1027.1 5.11966 -4.66757 0
M  V30 11284 N 1028.89 4.2692 -3.65645 0
M  V30 11285 H 1021.04 0.771154 -1.97906 0
M  V30 11286 H 1023.3 0.401694 -0.858688 0
M  V30 11287 H 1023.01 2.00484 -2.88962 0
M  V30 11288 H 1022.88 3.33833 -1.756 0
M  V30 11289 H 1025.27 2.80375 -0.920548 0
M  V30 11290 H 1025.35 1.47702 -2.08848 0
M  V30 11291 H 1025 3.15223 -3.98243 0
M  V30 11292 H 1024.93 4.46935 -2.7849 0
M  V30 11293 H 1027.42 2.97553 -2.3296 0
M  V30 11294 H 1027.73 5.67951 -5.24072 0
M  V30 11295 H 1026.08 5.11245 -4.70801 0
M  V30 11296 H 1029.27 3.63322 -2.95152 0
M  V30 11297 H 1029.44 4.8664 -4.27885 0
M  V30 11298 N 1022.85 0.866709 1.31628 0
M  V30 11299 C 1024.09 0.482479 1.98624 0
M  V30 11300 C 1024.45 -0.946844 1.6703 0
M  V30 11301 O 1025.65 -1.43626 2.27212 0
M  V30 11302 C 1023.92 0.728582 3.49895 0
M  V30 11303 S 1025.48 0.443724 4.36551 0
M  V30 11304 H 1022.3 0.180238 0.687776 0
M  V30 11305 H 1024.9 1.12203 1.60096 0
M  V30 11306 H 1023.6 1.76769 3.70379 0
M  V30 11307 H 1023.14 0.075903 3.93327 0
M  V30 11308 H 1025.15 -0.72534 4.9087 0
M  V30 11309 N 1024.32 -1.44642 0.625825 0
M  V30 11310 C 1025.25 -2.33397 -0.0692188 0
M  V30 11311 C 1026.23 -1.47898 -0.840241 0
M  V30 11312 O 1027.42 -1.7663 -0.807176 0
M  V30 11313 C 1024.55 -3.30888 -1.055 0
M  V30 11314 C 1023.5 -4.26164 -0.395968 0
M  V30 11315 C 1022.83 -5.13483 -1.49128 0
M  V30 11316 C 1024.13 -5.17663 0.694433 0
M  V30 11317 H 1025.82 -2.91763 0.671925 0
M  V30 11318 H 1023.37 -1.40294 0.324573 0
M  V30 11319 H 1025.32 -3.91861 -1.54993 0
M  V30 11320 H 1024.05 -2.7072 -1.82696 0
M  V30 11321 H 1022.71 -3.66516 0.0782691 0
M  V30 11322 H 1022.35 -4.49672 -2.25399 0
M  V30 11323 H 1022.05 -5.78038 -1.05573 0
M  V30 11324 H 1023.58 -5.77327 -1.98813 0
M  V30 11325 H 1024.99 -5.72602 0.282818 0
M  V30 11326 H 1023.39 -5.90793 1.05281 0
M  V30 11327 H 1024.46 -4.58994 1.56372 0
M  V30 11328 N 1025.8 -0.366053 -1.5329 0
M  V30 11329 C 1026.73 0.47211 -2.28677 0
M  V30 11330 C 1027.71 1.08353 -1.31125 0
M  V30 11331 O 1028.9 1.10069 -1.59995 0
M  V30 11332 C 1026.03 1.61174 -3.07637 0
M  V30 11333 C 1024.98 1.12755 -4.12881 0
M  V30 11334 C 1024.31 2.35745 -4.79925 0
M  V30 11335 C 1025.61 0.211954 -5.2187 0
M  V30 11336 H 1027.3 -0.156838 -2.98989 0
M  V30 11337 H 1024.85 -0.0768709 -1.43795 0
M  V30 11338 H 1026.8 2.20473 -3.59123 0
M  V30 11339 H 1025.52 2.26793 -2.35016 0
M  V30 11340 H 1024.18 0.557234 -3.6234 0
M  V30 11341 H 1023.83 2.99821 -4.03877 0
M  V30 11342 H 1023.53 2.04019 -5.51044 0
M  V30 11343 H 1025.06 2.95729 -5.34207 0
M  V30 11344 H 1026.47 0.71244 -5.68856 0
M  V30 11345 H 1024.87 -0.0144501 -6.00098 0
M  V30 11346 H 1025.94 -0.745753 -4.79131 0
M  V30 11347 N 1027.28 1.57312 -0.0952337 0
M  V30 11348 C 1028.53 1.93974 0.567319 0
M  V30 11349 C 1028.85 0.977805 1.68713 0
M  V30 11350 O 1028.12 0.0298944 1.95877 0
M  V30 11351 H 1026.7 0.71612 0.212558 0
M  V30 11352 H 1029.36 1.94254 -0.158598 0
M  V30 11353 H 1028.46 2.964 0.977423 0
M  V30 11354 N 1028.76 -0.17846 1.56586 0
M  V30 11355 C 1029.69 -1.22342 1.98884 0
M  V30 11356 C 1030.67 -1.46564 0.86331 0
M  V30 11357 O 1031.85 -1.58019 1.12887 0
M  V30 11358 C 1028.98 -2.56396 2.34261 0
M  V30 11359 C 1027.94 -2.46756 3.49708 0
M  V30 11360 C 1027.26 -3.85235 3.70807 0
M  V30 11361 C 1028.56 -1.97838 4.83381 0
M  V30 11362 H 1030.26 -0.871848 2.86425 0
M  V30 11363 H 1027.8 -0.417948 1.37801 0
M  V30 11364 H 1029.76 -3.29695 2.62448 0
M  V30 11365 H 1028.48 -2.93327 1.43621 0
M  V30 11366 H 1027.14 -1.75912 3.21637 0
M  V30 11367 H 1026.79 -4.19547 2.7747 0
M  V30 11368 H 1026.49 -3.79655 4.48481 0
M  V30 11369 H 1028.01 -4.60131 4.01387 0
M  V30 11370 H 1029.43 -2.60906 5.10491 0
M  V30 11371 H 1027.82 -2.03223 5.64642 0
M  V30 11372 H 1028.89 -0.932339 4.75852 0
M  V30 11373 N 1030.24 -1.51135 -0.446768 0
M  V30 11374 C 1031.46 -1.67411 -1.22427 0
M  V30 11375 C 1031.89 -0.367009 -1.84485 0
M  V30 11376 O 1031.24 0.67185 -1.68392 0
M  V30 11377 C 1031.29 -2.78473 -2.29096 0
M  V30 11378 O 1030.4 -2.41419 -3.34351 0
M  V30 11379 H 1029.74 -0.558512 -0.359111 0
M  V30 11380 H 1032.27 -1.97648 -0.5288 0
M  V30 11381 H 1032.28 -3.02277 -2.7403 0
M  V30 11382 H 1030.95 -3.73326 -1.83304 0
M  V30 11383 H 1029.53 -2.28152 -2.9496 0
M  V30 11384 N 1031.71 0.701592 -1.41122 0
M  V30 11385 C 1032.62 1.84548 -1.44841 0
M  V30 11386 C 1033.64 1.70654 -0.339594 0
M  V30 11387 O 1034.82 1.92675 -0.586378 0
M  V30 11388 C 1031.88 3.20477 -1.3227 0
M  V30 11389 C 1030.94 3.46524 -2.53415 0
M  V30 11390 C 1030.17 4.75968 -2.41434 0
M  V30 11391 O 1030.4 5.52037 -1.43566 0
M  V30 11392 O 1029.33 5.02664 -3.31078 0
M  V30 11393 H 1033.16 1.84367 -2.41335 0
M  V30 11394 H 1030.74 0.853863 -1.22595 0
M  V30 11395 H 1032.62 4.01642 -1.2752 0
M  V30 11396 H 1031.3 3.21355 -0.388889 0
M  V30 11397 H 1030.21 2.65313 -2.63742 0
M  V30 11398 H 1031.54 3.50455 -3.45604 0
M  V30 11399 N 1033.19 1.2685 0.935242 0
M  V30 11400 C 1034.12 1.04717 2.0388 0
M  V30 11401 C 1035.14 0.00567507 1.62799 0
M  V30 11402 O 1036.33 0.246408 1.76791 0
M  V30 11403 C 1033.43 0.56496 3.34158 0
M  V30 11404 C 1032.6 1.67704 4.03973 0
M  V30 11405 C 1031.66 1.19186 5.12524 0
M  V30 11406 O 1030.68 1.89008 5.36903 0
M  V30 11407 N 1031.89 0.0434554 5.80484 0
M  V30 11408 H 1034.65 1.99746 2.23431 0
M  V30 11409 H 1032.21 1.18316 1.10512 0
M  V30 11410 H 1034.2 0.224436 4.04077 0
M  V30 11411 H 1032.77 -0.291899 3.11234 0
M  V30 11412 H 1031.99 2.18821 3.27889 0
M  V30 11413 H 1033.28 2.42361 4.47368 0
M  V30 11414 H 1032.68 -0.539502 5.63122 0
M  V30 11415 H 1031.24 -0.237946 6.51366 0
M  V30 11416 N 1034.67 -1.14067 1.0875 0
M  V30 11417 C 1035.6 -2.21385 0.74236 0
M  V30 11418 C 1036.58 -1.67833 -0.276805 0
M  V30 11419 O 1037.77 -1.93647 -0.1464 0
M  V30 11420 C 1034.9 -3.46956 0.154644 0
M  V30 11421 C 1033.85 -4.13555 1.10255 0
M  V30 11422 C 1033.18 -5.3337 0.376877 0
M  V30 11423 C 1034.48 -4.6169 2.44213 0
M  V30 11424 H 1036.17 -2.50512 1.63964 0
M  V30 11425 H 1033.72 -1.20408 0.789807 0
M  V30 11426 H 1035.67 -4.21284 -0.0988419 0
M  V30 11427 H 1034.39 -3.17203 -0.777789 0
M  V30 11428 H 1033.05 -3.41186 1.34119 0
M  V30 11429 H 1032.7 -4.99879 -0.559472 0
M  V30 11430 H 1032.4 -5.78875 1.00884 0
M  V30 11431 H 1033.92 -6.10458 0.131527 0
M  V30 11432 H 1035.34 -5.27475 2.24595 0
M  V30 11433 H 1033.74 -5.17909 3.03134 0
M  V30 11434 H 1034.81 -3.76574 3.05483 0
M  V30 11435 N 1036.15 -0.873678 -1.31166 0
M  V30 11436 C 1037.08 -0.348011 -2.30892 0
M  V30 11437 C 1038.06 0.563092 -1.60509 0
M  V30 11438 O 1039.24 0.479332 -1.88192 0
M  V30 11439 C 1036.37 0.448158 -3.44396 0
M  V30 11440 C 1035.33 -0.370179 -4.26396 0
M  V30 11441 C 1034.65 0.551903 -5.31844 0
M  V30 11442 C 1035.95 -1.60624 -4.96988 0
M  V30 11443 H 1037.65 -1.18134 -2.75109 0
M  V30 11444 H 1035.19 -0.569502 -1.3226 0
M  V30 11445 H 1037.15 0.826458 -4.13216 0
M  V30 11446 H 1035.87 1.31503 -2.98956 0
M  V30 11447 H 1034.53 -0.730472 -3.59249 0
M  V30 11448 H 1034.18 1.41616 -4.82653 0
M  V30 11449 H 1033.88 0.00823478 -5.87599 0
M  V30 11450 H 1035.4 0.926965 -6.03523 0
M  V30 11451 H 1036.82 -1.29917 -5.58386 0
M  V30 11452 H 1035.21 -2.08926 -5.62557 0
M  V30 11453 H 1036.28 -2.357 -4.23761 0
M  V30 11454 N 1037.63 1.44308 -0.633487 0
M  V30 11455 C 1038.57 2.32455 0.0821956 0
M  V30 11456 C 1039.57 1.47482 0.833388 0
M  V30 11457 O 1040.77 1.63812 0.746021 0
M  V30 11458 H 1037.15 0.750631 0.045352 0
M  V30 11459 H 1039.12 2.90566 -0.679282 0
M  V30 11460 C 1037.87 3.31512 1.04858 0
M  V30 11461 H 1037.19 3.96908 0.479979 0
M  V30 11462 H 1038.63 3.95865 1.51879 0
M  V30 11463 C 1037.09 2.60615 2.13498 0
M  V30 11464 O 1037.62 2.40682 3.21613 0
M  V30 11465 N 1035.83 2.20315 1.89499 0
M  V30 11466 H 1035.37 2.36726 1.01581 0
M  V30 11467 H 1035.33 1.73205 2.62388 0
M  V30 11468 N 1039.1 0.374177 1.53094 0
M  V30 11469 C 1040.05 -0.48326 2.27524 0
M  V30 11470 C 1041.05 -1.07606 1.30833 0
M  V30 11471 O 1042.25 -1.01827 1.48429 0
M  V30 11472 H 1038.63 -0.174578 0.731455 0
M  V30 11473 H 1040.6 0.166156 2.97937 0
M  V30 11474 C 1039.35 -1.6065 3.08362 0
M  V30 11475 H 1038.67 -1.15966 3.82612 0
M  V30 11476 H 1040.11 -2.18099 3.63606 0
M  V30 11477 C 1038.57 -2.55381 2.19732 0
M  V30 11478 O 1039.1 -3.58414 1.8139 0
M  V30 11479 N 1037.31 -2.24769 1.84194 0
M  V30 11480 H 1036.85 -1.41018 2.15573 0
M  V30 11481 H 1036.81 -2.88404 1.25181 0
M  V30 11482 N 1040.58 -1.57259 0.103575 0
M  V30 11483 C 1041.81 -1.98711 -0.565454 0
M  V30 11484 C 1042.22 -0.981759 -1.61735 0
M  V30 11485 O 1041.56 0.0357019 -1.83665 0
M  V30 11486 C 1041.63 -3.36552 -1.26384 0
M  V30 11487 C 1041.29 -4.55566 -0.361714 0
M  V30 11488 C 1042.29 -5.18408 0.393539 0
M  V30 11489 C 1039.97 -5.01534 -0.277292 0
M  V30 11490 C 1041.97 -6.25594 1.2211 0
M  V30 11491 C 1039.65 -6.08584 0.553919 0
M  V30 11492 C 1040.65 -6.7048 1.30176 0
M  V30 11493 O 1040.34 -7.75464 2.1192 0
M  V30 11494 H 1040.07 -0.657853 -0.155582 0
M  V30 11495 H 1042.62 -2.04591 0.182089 0
M  V30 11496 H 1040.85 -3.2738 -2.05813 0
M  V30 11497 H 1042.54 -3.62395 -1.82824 0
M  V30 11498 H 1043.31 -4.8382 0.338098 0
M  V30 11499 H 1039.19 -4.53114 -0.849047 0
M  V30 11500 H 1042.73 -6.73836 1.80531 0
M  V30 11501 H 1038.63 -6.42604 0.610809 0
M  V30 11502 H 1039.4 -7.92491 2.04694 0
M  V30 11503 N 1042.06 0.170153 -1.56679 0
M  V30 11504 C 1043.29 0.90618 -1.86556 0
M  V30 11505 C 1043.71 1.74986 -0.690044 0
M  V30 11506 O 1043.07 1.77672 0.360862 0
M  V30 11507 C 1043.12 1.75777 -3.14857 0
M  V30 11508 O 1042.22 2.85952 -2.97162 0
M  V30 11509 H 1041.56 0.253781 -0.613589 0
M  V30 11510 H 1044.09 0.167943 -2.0391 0
M  V30 11511 H 1044.1 2.15747 -3.46291 0
M  V30 11512 H 1042.78 1.13807 -4.00026 0
M  V30 11513 H 1041.35 2.49557 -2.77084 0
M  V30 11514 N 1043.54 1.5137 0.438746 0
M  V30 11515 C 1044.76 1.68058 1.21537 0
M  V30 11516 C 1045.19 0.376787 1.84288 0
M  V30 11517 O 1044.55 -0.662911 1.68746 0
M  V30 11518 C 1044.59 2.79684 2.27616 0
M  V30 11519 O 1043.7 2.43189 3.33066 0
M  V30 11520 H 1043.04 0.560408 0.356144 0
M  V30 11521 H 1045.57 1.97926 0.518311 0
M  V30 11522 H 1045.58 3.03726 2.72423 0
M  V30 11523 H 1044.25 3.74293 1.81321 0
M  V30 11524 H 1042.83 2.29713 2.93746 0
M  V30 11525 N 1045.02 -0.694098 1.41492 0
M  V30 11526 C 1045.93 -1.83778 1.45818 0
M  V30 11527 C 1046.94 -1.70471 0.348639 0
M  V30 11528 O 1048.12 -1.92361 0.596588 0
M  V30 11529 C 1045.18 -3.19771 1.33967 0
M  V30 11530 C 1044.24 -3.45175 2.5525 0
M  V30 11531 C 1043.48 -4.74681 2.43955 0
M  V30 11532 O 1043.7 -5.51268 1.46491 0
M  V30 11533 O 1042.63 -5.00901 3.33739 0
M  V30 11534 H 1046.46 -1.83084 2.42309 0
M  V30 11535 H 1044.05 -0.847349 1.23046 0
M  V30 11536 H 1045.93 -4.00961 1.29648 0
M  V30 11537 H 1044.6 -3.21145 0.405926 0
M  V30 11538 H 1043.51 -2.6391 2.65146 0
M  V30 11539 H 1044.84 -3.48617 3.47458 0
M  V30 11540 N 1046.49 -1.27344 -0.928501 0
M  V30 11541 C 1047.74 -1.13019 -1.67061 0
M  V30 11542 C 1048.06 0.323614 -1.92904 0
M  V30 11543 O 1049.26 0.587752 -2.65062 0
M  V30 11544 C 1047.72 -1.97471 -3.00887 0
M  V30 11545 C 1047.33 -3.47504 -2.82746 0
M  V30 11546 C 1049.07 -1.91792 -3.78703 0
M  V30 11547 C 1046.98 -4.24158 -4.12122 0
M  V30 11548 H 1045.91 -0.419364 -0.626618 0
M  V30 11549 H 1048.56 -1.51759 -1.03158 0
M  V30 11550 H 1046.94 -1.51576 -3.65843 0
M  V30 11551 H 1048.11 -4.01256 -2.26562 0
M  V30 11552 H 1046.43 -3.54554 -2.18359 0
M  V30 11553 H 1049.03 -2.46339 -4.74575 0
M  V30 11554 H 1049.37 -0.891375 -4.06645 0
M  V30 11555 H 1049.9 -2.35578 -3.20543 0
M  V30 11556 H 1046.64 -5.27333 -3.89359 0
M  V30 11557 H 1046.16 -3.75183 -4.67972 0
M  V30 11558 H 1047.84 -4.33288 -4.80489 0
M  V30 11559 N 1047.97 1.13488 -1.09353 0
M  V30 11560 C 1049.2 1.88592 -0.850915 0
M  V30 11561 C 1049.62 1.79087 0.597761 0
M  V30 11562 O 1048.97 1.15695 1.41142 0
M  V30 11563 C 1049.02 3.38219 -1.27633 0
M  V30 11564 O 1048.74 3.47476 -2.66819 0
M  V30 11565 C 1050.25 4.30293 -1.06598 0
M  V30 11566 H 1047.47 0.597069 -0.306185 0
M  V30 11567 H 1050.01 1.43668 -1.45533 0
M  V30 11568 H 1048.16 3.80729 -0.715828 0
M  V30 11569 H 1048.58 4.40485 -2.84733 0
M  V30 11570 H 1050.05 5.33611 -1.41293 0
M  V30 11571 H 1050.53 4.392 -0.0037135 0
M  V30 11572 H 1051.14 3.9355 -1.6124 0
M  V30 11573 N 1049.45 0.880621 1.30701 0
M  V30 11574 C 1050.4 0.333562 2.30196 0
M  V30 11575 C 1051.39 -0.557092 1.59978 0
M  V30 11576 O 1052.6 -0.442009 1.74489 0
M  V30 11577 H 1048.97 0.0892036 0.746691 0
M  V30 11578 H 1050.95 1.18644 2.73799 0
M  V30 11579 C 1049.69 -0.440731 3.44895 0
M  V30 11580 H 1049.02 0.235353 3.99107 0
M  V30 11581 H 1050.46 -0.788676 4.166 0
M  V30 11582 C 1048.92 -1.63613 2.94504 0
M  V30 11583 O 1049.45 -2.73549 2.94166 0
M  V30 11584 N 1047.65 -1.47183 2.5057 0
M  V30 11585 H 1047.2 -0.577479 2.51044 0
M  V30 11586 H 1047.16 -2.27303 2.17211 0
M  V30 11587 N 1050.93 -1.4397 0.641131 0
M  V30 11588 C 1052.15 -2.06818 0.155318 0
M  V30 11589 C 1052.58 -1.47665 -1.16519 0
M  V30 11590 O 1051.94 -0.58192 -1.71707 0
M  V30 11591 C 1051.99 -3.60542 0.0647537 0
M  V30 11592 O 1051.09 -4.00674 -0.976447 0
M  V30 11593 H 1050.43 -0.657962 0.0893404 0
M  V30 11594 H 1052.96 -1.84678 0.88064 0
M  V30 11595 H 1052.97 -4.07816 -0.122552 0
M  V30 11596 H 1051.65 -4.02975 1.02878 0
M  V30 11597 H 1050.22 -3.65013 -0.762905 0
M  V30 11598 N 1052.41 -0.382291 -1.52893 0
M  V30 11599 C 1053.32 0.463745 -2.29971 0
M  V30 11600 C 1054.33 1.07777 -1.36602 0
M  V30 11601 O 1055.51 1.0851 -1.69669 0
M  V30 11602 C 1052.57 1.57938 -3.08637 0
M  V30 11603 C 1051.64 0.991182 -4.17701 0
M  V30 11604 C 1050.87 2.05365 -4.92606 0
M  V30 11605 O 1051.09 3.26757 -4.67532 0
M  V30 11606 O 1050.03 1.67487 -5.78128 0
M  V30 11607 H 1053.85 -0.163962 -3.03257 0
M  V30 11608 H 1051.44 -0.146199 -1.48683 0
M  V30 11609 H 1053.32 2.22765 -3.57706 0
M  V30 11610 H 1051.99 2.19218 -2.3817 0
M  V30 11611 H 1050.9 0.306364 -3.72843 0
M  V30 11612 H 1052.23 0.422699 -4.90382 0
M  V30 11613 N 1053.89 1.57202 -0.111913 0
M  V30 11614 C 1055.11 1.99297 0.555713 0
M  V30 11615 C 1055.53 0.991444 1.60673 0
M  V30 11616 O 1054.89 -0.0166672 1.82492 0
M  V30 11617 C 1054.94 3.41413 1.18826 0
M  V30 11618 O 1054.66 4.37733 0.179261 0
M  V30 11619 C 1056.16 3.98602 1.93989 0
M  V30 11620 H 1053.38 0.654543 0.147695 0
M  V30 11621 H 1055.92 2.03557 -0.196163 0
M  V30 11622 H 1054.08 3.38115 1.89096 0
M  V30 11623 H 1054.49 5.20606 0.637935 0
M  V30 11624 H 1055.97 5.00143 2.33584 0
M  V30 11625 H 1056.44 3.37349 2.81233 0
M  V30 11626 H 1057.05 4.05424 1.28497 0
M  V30 11627 N 1055.36 -0.161842 1.56767 0
M  V30 11628 C 1056.29 -1.20226 2.0017 0
M  V30 11629 C 1057.27 -1.4564 0.878807 0
M  V30 11630 O 1058.46 -1.56813 1.14557 0
M  V30 11631 C 1055.59 -2.53897 2.36968 0
M  V30 11632 C 1054.54 -2.43033 3.52305 0
M  V30 11633 C 1053.87 -3.81281 3.74872 0
M  V30 11634 C 1055.17 -1.927 4.85453 0
M  V30 11635 H 1056.86 -0.84142 2.87333 0
M  V30 11636 H 1054.41 -0.403309 1.38237 0
M  V30 11637 H 1056.36 -3.26893 2.6593 0
M  V30 11638 H 1055.09 -2.91787 1.46724 0
M  V30 11639 H 1053.75 -1.7249 3.23485 0
M  V30 11640 H 1053.39 -4.1658 2.81904 0
M  V30 11641 H 1053.09 -3.74877 4.52483 0
M  V30 11642 H 1054.62 -4.55848 4.06245 0
M  V30 11643 H 1056.03 -2.55477 5.13229 0
M  V30 11644 H 1054.43 -1.97222 5.66766 0
M  V30 11645 H 1055.5 -0.881816 4.76814 0
M  V30 11646 N 1056.84 -1.516 -0.430713 0
M  V30 11647 C 1058.09 -1.6484 -1.18134 0
M  V30 11648 C 1058.42 -0.366725 -1.90706 0
M  V30 11649 O 1057.7 0.63398 -1.83878 0
M  V30 11650 C 1057.98 -2.85617 -2.19306 0
M  V30 11651 C 1057.83 -4.23778 -1.50773 0
M  V30 11652 C 1059.15 -3.01909 -3.20217 0
M  V30 11653 H 1056.27 -0.599907 -0.428113 0
M  V30 11654 H 1058.91 -1.84102 -0.46973 0
M  V30 11655 H 1057.06 -2.69325 -2.79993 0
M  V30 11656 H 1058.73 -4.51752 -0.93371 0
M  V30 11657 H 1056.98 -4.26171 -0.809966 0
M  V30 11658 H 1057.65 -5.04291 -2.24487 0
M  V30 11659 H 1060.12 -3.16956 -2.69589 0
M  V30 11660 H 1059 -3.87968 -3.88293 0
M  V30 11661 H 1059.26 -2.1427 -3.86705 0
M  V30 11662 N 1058.32 0.686584 -1.41858 0
M  V30 11663 C 1059.74 0.998283 -1.24525 0
M  V30 11664 C 1059.94 2.01006 -0.141007 0
M  V30 11665 O 1058.99 2.47667 0.491648 0
M  V30 11666 C 1060.3 1.51432 -2.59786 0
M  V30 11667 C 1061.85 1.6327 -2.67043 0
M  V30 11668 C 1062.33 2.18274 -4.02642 0
M  V30 11669 N 1063.82 2.25622 -4.04535 0
M  V30 11670 C 1064.55 2.69229 -5.06264 0
M  V30 11671 N 1064.05 3.12375 -6.1838 0
M  V30 11672 N 1065.84 2.68873 -4.93623 0
M  V30 11673 H 1057.99 0.0164825 -2.12394 0
M  V30 11674 H 1060.26 0.0698613 -0.945422 0
M  V30 11675 H 1059.96 0.845426 -3.41388 0
M  V30 11676 H 1059.84 2.49502 -2.82894 0
M  V30 11677 H 1062.22 2.29269 -1.85794 0
M  V30 11678 H 1062.3 0.637221 -2.47736 0
M  V30 11679 H 1061.95 1.52887 -4.84343 0
M  V30 11680 H 1061.88 3.18591 -4.19294 0
M  V30 11681 H 1064.37 1.95186 -3.23591 0
M  V30 11682 H 1064.68 3.44301 -6.91864 0
M  V30 11683 H 1063.03 3.10262 -6.21902 0
M  V30 11684 H 1066.22 2.34521 -4.05114 0
M  V30 11685 H 1066.39 3.02539 -5.7304 0
M  V30 11686 N 1059.8 1.27835 0.921735 0
M  V30 11687 C 1061.04 1.15766 1.68457 0
M  V30 11688 C 1061.4 -0.290542 1.89789 0
M  V30 11689 O 1062.6 -0.53378 2.63447 0
M  V30 11690 C 1060.87 1.92591 3.0107 0
M  V30 11691 S 1062.43 1.96804 3.92191 0
M  V30 11692 H 1059.25 0.413169 0.578629 0
M  V30 11693 H 1061.85 1.61826 1.09693 0
M  V30 11694 H 1060.56 2.96991 2.8324 0
M  V30 11695 H 1060.09 1.47049 3.64884 0
M  V30 11696 H 1062.1 1.06877 4.84553 0
M  V30 11697 N 1061.28 -1.12907 1.09954 0
M  V30 11698 C 1062.5 -1.88679 0.861099 0
M  V30 11699 C 1062.93 -1.78853 -0.582499 0
M  V30 11700 O 1062.28 -1.13992 -1.4098 0
M  V30 11701 C 1062.33 -3.36047 1.30785 0
M  V30 11702 O 1061.44 -4.09716 0.469728 0
M  V30 11703 H 1060.78 -0.586447 0.31141 0
M  V30 11704 H 1063.31 -1.42818 1.46507 0
M  V30 11705 H 1063.32 -3.86882 1.29562 0
M  V30 11706 H 1061.99 -3.42516 2.35914 0
M  V30 11707 H 1060.57 -3.6887 0.54674 0
M  V30 11708 N 1062.75 -0.88754 -1.30232 0
M  V30 11709 C 1064.17 -0.581904 -1.48614 0
M  V30 11710 C 1064.37 0.879711 -1.81282 0
M  V30 11711 O 1063.43 1.66076 -1.90198 0
M  V30 11712 C 1064.74 -1.49726 -2.60773 0
M  V30 11713 C 1066.29 -1.50117 -2.74653 0
M  V30 11714 C 1066.76 -2.40251 -3.89927 0
M  V30 11715 N 1068.25 -2.38229 -3.97242 0
M  V30 11716 C 1068.99 -3.04682 -4.85754 0
M  V30 11717 N 1068.48 -3.80369 -5.79043 0
M  V30 11718 N 1070.28 -2.93901 -4.79144 0
M  V30 11719 H 1062.43 -1.83304 -1.073 0
M  V30 11720 H 1064.69 -0.78477 -0.531826 0
M  V30 11721 H 1064.4 -2.5381 -2.43462 0
M  V30 11722 H 1064.27 -1.20874 -3.57308 0
M  V30 11723 H 1066.66 -0.467832 -2.91368 0
M  V30 11724 H 1066.74 -1.83001 -1.7873 0
M  V30 11725 H 1066.38 -3.43671 -3.73969 0
M  V30 11726 H 1066.31 -2.04682 -4.85194 0
M  V30 11727 H 1068.8 -1.83229 -3.30508 0
M  V30 11728 H 1069.12 -4.28159 -6.4335 0
M  V30 11729 H 1067.46 -3.84477 -5.78967 0
M  V30 11730 H 1070.65 -2.34296 -4.05245 0
M  V30 11731 H 1070.83 -3.45967 -5.47915 0
M  V30 11732 N 1064.23 1.43628 -0.648757 0
M  V30 11733 C 1065.16 2.33478 0.0320785 0
M  V30 11734 C 1066.14 1.49217 0.816605 0
M  V30 11735 O 1067.33 1.77892 0.778974 0
M  V30 11736 C 1064.46 3.32525 1.00222 0
M  V30 11737 C 1063.41 4.2674 0.328119 0
M  V30 11738 C 1062.74 5.15791 1.4094 0
M  V30 11739 C 1064.04 5.16493 -0.776701 0
M  V30 11740 H 1065.73 2.90657 -0.718257 0
M  V30 11741 H 1063.28 1.3976 -0.346852 0
M  V30 11742 H 1065.23 3.94277 1.4874 0
M  V30 11743 H 1063.96 2.73593 1.78366 0
M  V30 11744 H 1062.61 3.66346 -0.136569 0
M  V30 11745 H 1062.26 4.53201 2.18216 0
M  V30 11746 H 1061.96 5.79645 0.963631 0
M  V30 11747 H 1063.49 5.80416 1.89603 0
M  V30 11748 H 1064.9 5.7208 -0.373878 0
M  V30 11749 H 1063.3 5.89043 -1.14667 0
M  V30 11750 H 1064.37 4.56448 -1.63654 0
M  V30 11751 N 1065.71 0.390394 1.52688 0
M  V30 11752 C 1066.64 -0.43567 2.294 0
M  V30 11753 C 1067.62 -1.06253 1.32832 0
M  V30 11754 O 1068.81 -1.07509 1.61726 0
M  V30 11755 C 1065.94 -1.56259 3.10162 0
M  V30 11756 C 1064.89 -1.06172 4.14622 0
M  V30 11757 C 1064.22 -2.2808 4.83615 0
M  V30 11758 C 1065.52 -0.128902 5.22141 0
M  V30 11759 H 1067.21 0.204384 2.98702 0
M  V30 11760 H 1064.76 0.0997377 1.43654 0
M  V30 11761 H 1066.71 -2.14732 3.62585 0
M  V30 11762 H 1065.43 -2.23025 2.38595 0
M  V30 11763 H 1064.09 -0.499518 3.63181 0
M  V30 11764 H 1063.74 -2.93358 4.08595 0
M  V30 11765 H 1063.44 -1.95227 5.5422 0
M  V30 11766 H 1064.96 -2.87193 5.38844 0
M  V30 11767 H 1066.38 -0.621849 5.69917 0
M  V30 11768 H 1064.78 0.109919 5.99999 0
M  V30 11769 H 1065.85 0.821884 4.77884 0
M  V30 11770 N 1067.19 -1.57141 0.120249 0
M  V30 11771 C 1068.43 -1.95527 -0.538245 0
M  V30 11772 C 1068.77 -1.00373 -1.6625 0
M  V30 11773 O 1068.04 -0.0411734 -1.94456 0
M  V30 11774 C 1068.33 -3.43843 -1.06976 0
M  V30 11775 C 1068.18 -4.49771 0.0511596 0
M  V30 11776 C 1069.5 -3.94035 -1.96022 0
M  V30 11777 H 1066.62 -0.710958 -0.194183 0
M  V30 11778 H 1069.26 -1.88986 0.196061 0
M  V30 11779 H 1067.41 -3.49548 -1.69553 0
M  V30 11780 H 1069.08 -4.56163 0.686503 0
M  V30 11781 H 1067.32 -4.27882 0.714127 0
M  V30 11782 H 1067.99 -5.50812 -0.361995 0
M  V30 11783 H 1070.47 -3.9064 -1.43315 0
M  V30 11784 H 1069.35 -4.98329 -2.3013 0
M  V30 11785 H 1069.61 -3.34803 -2.8872 0
M  V30 11786 N 1068.67 0.153526 -1.5685 0
M  V30 11787 C 1069.91 0.865519 -1.82629 0
M  V30 11788 C 1070.24 1.81999 -0.700105 0
M  V30 11789 O 1069.51 1.93907 0.278744 0
M  V30 11790 H 1068.09 0.32261 -0.673745 0
M  V30 11791 H 1070.75 0.149088 -1.94329 0
M  V30 11792 H 1069.84 1.43171 -2.77324 0
M  V30 11793 N 1070.14 1.51827 0.422667 0
M  V30 11794 C 1071.39 1.65464 1.17258 0
M  V30 11795 C 1071.72 0.376834 1.90509 0
M  V30 11796 O 1071 -0.624219 1.84211 0
M  V30 11797 C 1071.28 2.86776 2.17788 0
M  V30 11798 C 1071.13 4.24571 1.48523 0
M  V30 11799 C 1072.45 3.03603 3.18611 0
M  V30 11800 H 1069.57 0.602169 0.424925 0
M  V30 11801 H 1072.21 1.84349 0.45996 0
M  V30 11802 H 1070.36 2.70806 2.78561 0
M  V30 11803 H 1072.04 4.5224 0.909739 0
M  V30 11804 H 1070.28 4.26595 0.787354 0
M  V30 11805 H 1070.95 5.05475 2.2181 0
M  V30 11806 H 1073.43 3.18381 2.67904 0
M  V30 11807 H 1072.3 3.90022 3.8623 0
M  V30 11808 H 1072.56 2.16318 3.85563 0
M  V30 11809 N 1071.62 -0.679052 1.4222 0
M  V30 11810 C 1072.55 -1.80481 1.48152 0
M  V30 11811 C 1073.53 -1.66698 0.338502 0
M  V30 11812 O 1074.72 -1.86183 0.552228 0
M  V30 11813 C 1071.85 -3.18746 1.37908 0
M  V30 11814 C 1070.8 -3.47258 2.50192 0
M  V30 11815 C 1070.13 -4.85052 2.25008 0
M  V30 11816 C 1071.43 -3.44576 3.92511 0
M  V30 11817 H 1073.12 -1.75774 2.42371 0
M  V30 11818 H 1070.67 -0.844241 1.16656 0
M  V30 11819 H 1072.62 -3.97229 1.40666 0
M  V30 11820 H 1071.35 -3.24119 0.401806 0
M  V30 11821 H 1070 -2.71133 2.46744 0
M  V30 11822 H 1069.65 -4.8707 1.25584 0
M  V30 11823 H 1069.35 -5.05092 3.00259 0
M  V30 11824 H 1070.88 -5.65825 2.29508 0
M  V30 11825 H 1072.29 -4.13036 3.97585 0
M  V30 11826 H 1070.69 -3.76151 4.67579 0
M  V30 11827 H 1071.76 -2.4323 4.19484 0
M  V30 11828 N 1073.1 -1.28322 -0.914942 0
M  V30 11829 C 1074.35 -1.15179 -1.66067 0
M  V30 11830 C 1074.67 0.300279 -1.92674 0
M  V30 11831 O 1073.94 1.20821 -1.54205 0
M  V30 11832 H 1072.52 -0.423264 -0.615513 0
M  V30 11833 H 1075.18 -1.61034 -1.09791 0
M  V30 11834 H 1074.28 -1.69048 -2.62353 0
M  V30 11835 N 1074.58 1.12322 -1.10551 0
M  V30 11836 C 1075.82 1.85497 -0.858492 0
M  V30 11837 C 1076.18 1.8222 0.604966 0
M  V30 11838 O 1077.38 2.5075 0.968382 0
M  V30 11839 C 1075.65 3.29124 -1.39327 0
M  V30 11840 S 1077.21 4.19659 -1.28186 0
M  V30 11841 H 1074.03 0.639768 -0.31019 0
M  V30 11842 H 1076.63 1.35298 -1.41119 0
M  V30 11843 H 1075.34 3.29069 -2.45238 0
M  V30 11844 H 1074.87 3.84388 -0.837203 0
M  V30 11845 H 1076.88 4.95618 -0.240325 0
M  V30 11846 N 1076.06 0.894434 1.2976 0
M  V30 11847 C 1077.29 0.532143 1.99629 0
M  V30 11848 C 1077.69 -0.886234 1.6716 0
M  V30 11849 O 1077.04 -1.59573 0.910065 0
M  V30 11850 C 1077.1 0.638335 3.53787 0
M  V30 11851 C 1076.76 2.02273 4.09798 0
M  V30 11852 C 1077.76 2.99327 4.25087 0
M  V30 11853 C 1075.45 2.33069 4.44954 0
M  V30 11854 C 1077.44 4.25304 4.74758 0
M  V30 11855 C 1075.13 3.59289 4.94322 0
M  V30 11856 C 1076.12 4.55222 5.09178 0
M  V30 11857 O 1075.81 5.79202 5.57477 0
M  V30 11858 H 1075.54 0.203326 0.644697 0
M  V30 11859 H 1078.1 1.2043 1.6639 0
M  V30 11860 H 1076.33 -0.0908338 3.86593 0
M  V30 11861 H 1078.02 0.285956 4.04891 0
M  V30 11862 H 1078.78 2.76849 3.9822 0
M  V30 11863 H 1074.66 1.59162 4.32653 0
M  V30 11864 H 1078.21 5.00189 4.86269 0
M  V30 11865 H 1074.1 3.816 5.20626 0
M  V30 11866 H 1074.87 5.81717 5.75802 0
M  V30 11867 N 1077.53 -1.43282 0.656365 0
M  V30 11868 C 1078.77 -2.03652 0.174681 0
M  V30 11869 C 1079.14 -1.5068 -1.18994 0
M  V30 11870 O 1080.34 -2.02716 -1.76521 0
M  V30 11871 C 1078.61 -3.56906 0.18778 0
M  V30 11872 S 1080.17 -4.3822 -0.225599 0
M  V30 11873 H 1076.99 -0.70719 0.0735029 0
M  V30 11874 H 1079.59 -1.75303 0.865403 0
M  V30 11875 H 1078.29 -3.92961 1.18363 0
M  V30 11876 H 1077.82 -3.89903 -0.523378 0
M  V30 11877 H 1079.84 -4.74121 -1.46369 0
M  V30 11878 N 1079.01 -0.398486 -1.52479 0
M  V30 11879 C 1080.24 0.180295 -2.05812 0
M  V30 11880 C 1080.65 1.40301 -1.26934 0
M  V30 11881 O 1079.99 1.81039 -0.311544 0
M  V30 11882 C 1080.06 0.60601 -3.54355 0
M  V30 11883 C 1079.72 -0.504508 -4.54207 0
M  V30 11884 C 1080.72 -1.36478 -5.01667 0
M  V30 11885 C 1078.4 -0.674161 -4.97755 0
M  V30 11886 C 1080.4 -2.37975 -5.91309 0
M  V30 11887 C 1078.08 -1.69246 -5.87196 0
M  V30 11888 C 1079.08 -2.54367 -6.33866 0
M  V30 11889 O 1078.77 -3.54454 -7.21538 0
M  V30 11890 H 1078.5 0.0286396 -0.675393 0
M  V30 11891 H 1081.06 -0.564912 -1.97479 0
M  V30 11892 H 1079.29 1.40334 -3.60338 0
M  V30 11893 H 1080.97 1.1115 -3.90385 0
M  V30 11894 H 1081.74 -1.24506 -4.68746 0
M  V30 11895 H 1077.62 -0.0213029 -4.60995 0
M  V30 11896 H 1081.16 -3.0445 -6.27659 0
M  V30 11897 H 1077.06 -1.81252 -6.1953 0
M  V30 11898 H 1077.83 -3.50571 -7.39623 0
M  V30 11899 N 1080.49 1.57075 -0.12858 0
M  V30 11900 C 1081.42 2.11553 0.855593 0
M  V30 11901 C 1082.4 1.03435 1.25459 0
M  V30 11902 O 1083.59 1.3115 1.35395 0
M  V30 11903 C 1080.71 2.62012 2.14633 0
M  V30 11904 C 1079.76 3.82105 1.89467 0
M  V30 11905 S 1080.59 5.24033 1.10228 0
M  V30 11906 C 1081.75 5.77867 2.4046 0
M  V30 11907 H 1081.98 2.94701 0.392248 0
M  V30 11908 H 1079.51 1.54164 0.0853746 0
M  V30 11909 H 1081.47 2.91737 2.8879 0
M  V30 11910 H 1080.13 1.79029 2.58084 0
M  V30 11911 H 1079.33 4.15592 2.8513 0
M  V30 11912 H 1078.93 3.53047 1.23427 0
M  V30 11913 H 1081.22 5.88175 3.36238 0
M  V30 11914 H 1082.16 6.75775 2.11504 0
M  V30 11915 H 1082.57 5.05991 2.50266 0
M  V30 11916 N 1081.97 -0.145205 1.5693 0
M  V30 11917 C 1083.22 -0.855822 1.83085 0
M  V30 11918 C 1083.54 -1.81625 0.709747 0
M  V30 11919 O 1082.81 -1.94052 -0.268456 0
M  V30 11920 H 1081.39 -0.319032 0.675446 0
M  V30 11921 H 1084.05 -0.138781 1.94405 0
M  V30 11922 H 1083.15 -1.41698 2.78079 0
M  V30 11923 N 1083.45 -1.52049 -0.414609 0
M  V30 11924 C 1084.69 -1.66084 -1.16379 0
M  V30 11925 C 1085.03 -0.386932 -1.90306 0
M  V30 11926 O 1084.3 0.614441 -1.8454 0
M  V30 11927 C 1084.58 -2.87927 -2.16264 0
M  V30 11928 C 1084.44 -4.25353 -1.46269 0
M  V30 11929 C 1085.76 -3.05289 -3.16996 0
M  V30 11930 H 1082.88 -0.604414 -0.421726 0
M  V30 11931 H 1085.52 -1.8459 -0.450177 0
M  V30 11932 H 1083.67 -2.7228 -2.77121 0
M  V30 11933 H 1085.34 -4.52717 -0.885743 0
M  V30 11934 H 1083.58 -4.27006 -0.76472 0
M  V30 11935 H 1084.25 -5.06644 -2.19126 0
M  V30 11936 H 1086.73 -3.19798 -2.66212 0
M  V30 11937 H 1085.61 -3.92065 -3.84156 0
M  V30 11938 H 1085.87 -2.1836 -3.84411 0
M  V30 11939 N 1084.93 0.6715 -1.42579 0
M  V30 11940 C 1086.17 1.42731 -1.42516 0
M  V30 11941 C 1086.49 1.95545 -0.0462407 0
M  V30 11942 O 1087.69 2.71391 0.0769798 0
M  V30 11943 C 1086.15 2.58215 -2.50705 0
M  V30 11944 C 1085.76 2.12086 -3.94618 0
M  V30 11945 C 1087.5 3.35705 -2.59813 0
M  V30 11946 C 1085.41 3.24672 -4.9431 0
M  V30 11947 H 1084.34 0.536218 -0.530081 0
M  V30 11948 H 1086.99 0.726655 -1.68499 0
M  V30 11949 H 1085.37 3.30665 -2.17892 0
M  V30 11950 H 1086.55 1.46768 -4.36802 0
M  V30 11951 H 1084.86 1.47526 -3.89391 0
M  V30 11952 H 1087.46 4.1956 -3.31472 0
M  V30 11953 H 1087.8 3.82517 -1.64276 0
M  V30 11954 H 1088.33 2.70326 -2.91836 0
M  V30 11955 H 1085.07 2.82848 -5.91335 0
M  V30 11956 H 1084.59 3.88761 -4.56755 0
M  V30 11957 H 1086.27 3.90088 -5.16179 0
M  V30 11958 N 1086.4 1.28806 0.908124 0
M  V30 11959 C 1087.37 1.13228 1.99279 0
M  V30 11960 C 1088.37 0.0702456 1.60646 0
M  V30 11961 O 1089.56 0.316494 1.71301 0
M  V30 11962 C 1086.69 0.729629 3.33 0
M  V30 11963 H 1087.88 2.09566 2.14528 0
M  V30 11964 H 1085.43 1.11872 1.09153 0
M  V30 11965 H 1086.17 -0.234268 3.23453 0
M  V30 11966 H 1085.95 1.49688 3.62403 0
M  V30 11967 H 1087.44 0.643449 4.12613 0
M  V30 11968 N 1087.88 -1.11734 1.11145 0
M  V30 11969 C 1088.79 -2.21267 0.779607 0
M  V30 11970 C 1089.81 -1.72526 -0.225986 0
M  V30 11971 O 1090.98 -2.01302 -0.0629166 0
M  V30 11972 C 1088.05 -3.45973 0.22435 0
M  V30 11973 C 1087.11 -4.09518 1.28816 0
M  V30 11974 C 1086.34 -5.28271 0.7593 0
M  V30 11975 O 1086.57 -5.68912 -0.411725 0
M  V30 11976 O 1085.5 -5.82322 1.52266 0
M  V30 11977 H 1089.33 -2.5206 1.6941 0
M  V30 11978 H 1086.91 -1.20211 0.887115 0
M  V30 11979 H 1088.79 -4.21322 -0.0810921 0
M  V30 11980 H 1087.47 -3.1684 -0.662891 0
M  V30 11981 H 1086.37 -3.35915 1.64657 0
M  V30 11982 H 1087.71 -4.42824 2.14868 0
M  V30 11983 N 1089.36 -0.901303 -1.29284 0
M  V30 11984 C 1090.27 -0.3849 -2.31421 0
M  V30 11985 C 1091.29 0.521163 -1.66012 0
M  V30 11986 O 1092.46 0.410356 -1.97175 0
M  V30 11987 C 1089.53 0.377804 -3.44635 0
M  V30 11988 C 1088.59 -0.559974 -4.25632 0
M  V30 11989 C 1087.82 0.166425 -5.3344 0
M  V30 11990 O 1088.04 1.39012 -5.53202 0
M  V30 11991 O 1086.98 -0.491875 -5.99887 0
M  V30 11992 H 1090.8 -1.2323 -2.77575 0
M  V30 11993 H 1088.39 -0.665683 -1.3375 0
M  V30 11994 H 1090.27 0.809041 -4.13561 0
M  V30 11995 H 1088.95 1.20124 -3.00586 0
M  V30 11996 H 1087.85 -1.04036 -3.59343 0
M  V30 11997 H 1089.19 -1.34987 -4.73328 0
M  V30 11998 N 1090.84 1.42931 -0.663954 0
M  V30 11999 C 1091.75 2.3459 0.0214234 0
M  V30 12000 C 1092.76 1.54487 0.800611 0
M  V30 12001 O 1093.94 1.87098 0.74541 0
M  V30 12002 C 1091 3.32896 0.968556 0
M  V30 12003 C 1090.07 4.28901 0.185108 0
M  V30 12004 C 1089.3 5.2251 1.08713 0
M  V30 12005 O 1089.52 5.20795 2.32655 0
M  V30 12006 O 1088.46 5.99347 0.553758 0
M  V30 12007 H 1092.28 2.94714 -0.733308 0
M  V30 12008 H 1089.87 1.43252 -0.424159 0
M  V30 12009 H 1091.75 3.93318 1.51257 0
M  V30 12010 H 1090.42 2.75261 1.70333 0
M  V30 12011 H 1089.33 3.71926 -0.402752 0
M  V30 12012 H 1090.66 4.89547 -0.510319 0
M  V30 12013 N 1092.32 0.406567 1.52266 0
M  V30 12014 C 1093.28 -0.408251 2.25535 0
M  V30 12015 C 1094.28 -0.975795 1.27808 0
M  V30 12016 O 1095.47 -0.855077 1.5177 0
M  V30 12017 C 1092.6 -1.57443 3.02365 0
M  V30 12018 H 1093.79 0.233459 2.9899 0
M  V30 12019 H 1091.35 0.159032 1.55489 0
M  V30 12020 H 1092.08 -2.25308 2.33252 0
M  V30 12021 H 1091.87 -1.17399 3.74112 0
M  V30 12022 H 1093.36 -2.15088 3.57948 0
M  V30 12023 N 1093.79 -1.57004 0.136909 0
M  V30 12024 C 1095.02 -1.99866 -0.523177 0
M  V30 12025 C 1095.43 -1.01584 -1.59616 0
M  V30 12026 O 1094.78 -0.00326426 -1.837 0
M  V30 12027 C 1094.84 -3.39157 -1.19217 0
M  V30 12028 C 1094.5 -4.56231 -0.265 0
M  V30 12029 C 1095.5 -5.17457 0.503412 0
M  V30 12030 C 1093.18 -5.02009 -0.170846 0
M  V30 12031 C 1095.18 -6.22863 1.35353 0
M  V30 12032 C 1092.86 -6.07273 0.682884 0
M  V30 12033 C 1093.86 -6.67568 1.44369 0
M  V30 12034 O 1093.55 -7.70795 2.28321 0
M  V30 12035 H 1093.28 -0.661005 -0.141593 0
M  V30 12036 H 1095.84 -2.04159 0.225445 0
M  V30 12037 H 1094.07 -3.31672 -1.98823 0
M  V30 12038 H 1095.76 -3.66191 -1.75096 0
M  V30 12039 H 1096.52 -4.82994 0.440648 0
M  V30 12040 H 1092.4 -4.54813 -0.752744 0
M  V30 12041 H 1095.94 -6.69855 1.94783 0
M  V30 12042 H 1091.84 -6.41163 0.746978 0
M  V30 12043 H 1092.61 -7.87971 2.21458 0
M  V30 12044 N 1095.27 0.136881 -1.57004 0
M  V30 12045 C 1096.22 1.16869 -1.99023 0
M  V30 12046 C 1097.19 1.42137 -0.859435 0
M  V30 12047 O 1098.37 1.54303 -1.12229 0
M  V30 12048 C 1095.51 2.49466 -2.38455 0
M  V30 12049 C 1094.63 2.31286 -3.64871 0
M  V30 12050 C 1093.76 3.56989 -3.9336 0
M  V30 12051 C 1092.8 3.33889 -5.13015 0
M  V30 12052 N 1091.94 4.51748 -5.37464 0
M  V30 12053 H 1096.78 0.803366 -2.86967 0
M  V30 12054 H 1094.32 0.385216 -1.41967 0
M  V30 12055 H 1096.27 3.26794 -2.59348 0
M  V30 12056 H 1094.9 2.83926 -1.53577 0
M  V30 12057 H 1093.96 1.44962 -3.51696 0
M  V30 12058 H 1095.27 2.10183 -4.52355 0
M  V30 12059 H 1094.42 4.42742 -4.14806 0
M  V30 12060 H 1093.16 3.81106 -3.04318 0
M  V30 12061 H 1092.17 2.46525 -4.91432 0
M  V30 12062 H 1093.39 3.1116 -6.03619 0
M  V30 12063 H 1091.34 4.76019 -4.51377 0
M  V30 12064 H 1091.25 4.33684 -6.19237 0
M  V30 12065 H 1092.52 5.38686 -5.63416 0
M  V30 12066 N 1096.75 1.52266 0.40654 0
M  V30 12067 C 1097.98 1.70598 1.17945 0
M  V30 12068 C 1098.4 0.415793 1.83447 0
M  V30 12069 O 1097.76 -0.626968 1.70114 0
M  V30 12070 C 1097.81 2.84449 2.21633 0
M  V30 12071 O 1096.91 2.50199 3.27833 0
M  V30 12072 H 1096.25 0.567837 0.344177 0
M  V30 12073 H 1098.78 1.98981 0.476211 0
M  V30 12074 H 1098.79 3.09436 2.65919 0
M  V30 12075 H 1097.47 3.78055 1.73341 0
M  V30 12076 H 1096.04 2.35892 2.88807 0
M  V30 12077 N 1098.23 -0.663929 1.42933 0
M  V30 12078 C 1099.14 -1.80643 1.49683 0
M  V30 12079 C 1100.15 -1.69694 0.38472 0
M  V30 12080 O 1101.33 -1.91052 0.637256 0
M  V30 12081 C 1098.4 -3.16858 1.4072 0
M  V30 12082 C 1097.46 -3.39684 2.62514 0
M  V30 12083 C 1096.69 -4.69399 2.53969 0
M  V30 12084 O 1096.91 -5.48037 1.58152 0
M  V30 12085 O 1095.85 -4.93709 3.44289 0
M  V30 12086 H 1099.67 -1.77903 2.46138 0
M  V30 12087 H 1097.26 -0.821059 1.24816 0
M  V30 12088 H 1099.14 -3.9812 1.38124 0
M  V30 12089 H 1097.81 -3.20211 0.473954 0
M  V30 12090 H 1096.72 -2.58227 2.70684 0
M  V30 12091 H 1098.05 -3.41169 3.54774 0
M  V30 12092 N 1099.71 -1.29285 -0.901281 0
M  V30 12093 C 1100.64 -1.16832 -2.0217 0
M  V30 12094 C 1101.62 -0.0629265 -1.69984 0
M  V30 12095 O 1102.8 -0.242123 -1.92685 0
M  V30 12096 C 1099.93 -0.842406 -3.36929 0
M  V30 12097 C 1098.89 -1.90394 -3.8332 0
M  V30 12098 C 1098.21 -1.43138 -5.15185 0
M  V30 12099 C 1099.51 -3.31254 -4.03817 0
M  V30 12100 H 1101.21 -2.10562 -2.12847 0
M  V30 12101 H 1098.75 -1.01375 -1.0227 0
M  V30 12102 H 1100.71 -0.741999 -4.14816 0
M  V30 12103 H 1099.43 0.130598 -3.26339 0
M  V30 12104 H 1098.09 -1.99371 -3.07647 0
M  V30 12105 H 1097.74 -0.447091 -5.01009 0
M  V30 12106 H 1097.44 -2.14129 -5.47195 0
M  V30 12107 H 1098.96 -1.34444 -5.95615 0
M  V30 12108 H 1100.37 -3.25129 -4.72191 0
M  V30 12109 H 1098.77 -4.00189 -4.47178 0
M  V30 12110 H 1099.84 -3.74349 -3.08206 0
M  V30 12111 N 1101.18 1.11143 -1.11736 0
M  V30 12112 C 1102.43 1.82948 -0.868127 0
M  V30 12113 C 1102.76 1.84813 0.606182 0
M  V30 12114 O 1102.01 1.29901 1.4637 0
M  V30 12115 C 1102.31 3.29733 -1.3788 0
M  V30 12116 C 1101.98 3.48025 -2.86687 0
M  V30 12117 C 1100.64 3.52725 -3.2732 0
M  V30 12118 C 1102.99 3.54024 -3.82513 0
M  V30 12119 C 1100.32 3.60983 -4.62502 0
M  V30 12120 C 1102.67 3.63814 -5.17515 0
M  V30 12121 C 1101.34 3.66776 -5.57702 0
M  V30 12122 H 1100.61 0.669452 -0.31767 0
M  V30 12123 H 1103.25 1.31057 -1.3963 0
M  V30 12124 H 1101.56 3.8414 -0.77093 0
M  V30 12125 H 1103.26 3.83787 -1.16225 0
M  V30 12126 H 1099.85 3.45039 -2.54256 0
M  V30 12127 H 1104.03 3.4965 -3.52219 0
M  V30 12128 H 1099.29 3.61554 -4.9304 0
M  V30 12129 H 1103.46 3.674 -5.916 0
M  V30 12130 H 1101.09 3.72927 -6.62442 0
M  V30 12131 N 1102.66 0.908147 1.28804 0
M  V30 12132 C 1103.59 0.34957 2.26519 0
M  V30 12133 C 1104.61 -0.508845 1.54643 0
M  V30 12134 O 1105.8 -0.324633 1.75523 0
M  V30 12135 C 1102.9 -0.519461 3.34895 0
M  V30 12136 C 1102.07 0.315157 4.36263 0
M  V30 12137 C 1101.13 -0.488059 5.23932 0
M  V30 12138 O 1100.15 0.0974133 5.69117 0
M  V30 12139 N 1101.36 -1.79233 5.52137 0
M  V30 12140 H 1104.12 1.18945 2.75086 0
M  V30 12141 H 1101.68 0.77351 1.42227 0
M  V30 12142 H 1103.67 -1.0634 3.90479 0
M  V30 12143 H 1102.24 -1.26004 2.8608 0
M  V30 12144 H 1101.46 1.04049 3.8022 0
M  V30 12145 H 1102.75 0.886438 5.01019 0
M  V30 12146 H 1102.15 -2.2906 5.1725 0
M  V30 12147 H 1100.71 -2.28322 6.10502 0
M  V30 12148 N 1104.14 -1.42577 0.671525 0
M  V30 12149 C 1105.09 -2.30798 -0.00883676 0
M  V30 12150 C 1106.06 -1.4578 -0.796076 0
M  V30 12151 O 1107.24 -1.74617 -0.768987 0
M  V30 12152 C 1104.38 -3.31581 -0.956452 0
M  V30 12153 C 1103.5 -4.31691 -0.163381 0
M  V30 12154 C 1102.63 -5.19549 -1.10645 0
M  V30 12155 C 1101.67 -6.1134 -0.304876 0
M  V30 12156 N 1100.81 -6.91761 -1.20048 0
M  V30 12157 H 1105.65 -2.88426 0.749301 0
M  V30 12158 H 1103.18 -1.42074 0.381251 0
M  V30 12159 H 1105.14 -3.88539 -1.51966 0
M  V30 12160 H 1103.77 -2.75561 -1.68126 0
M  V30 12161 H 1102.82 -3.76879 0.516396 0
M  V30 12162 H 1104.14 -4.96683 0.459099 0
M  V30 12163 H 1103.29 -5.81223 -1.73969 0
M  V30 12164 H 1102.03 -4.54726 -1.76282 0
M  V30 12165 H 1101.03 -5.48738 0.341597 0
M  V30 12166 H 1102.26 -6.78211 0.347352 0
M  V30 12167 H 1100.2 -6.2957 -1.84331 0
M  V30 12168 H 1100.12 -7.53345 -0.633003 0
M  V30 12169 H 1101.39 -7.57924 -1.82129 0
M  V30 12170 N 1105.62 -0.414636 -1.52048 0
M  V30 12171 C 1106.58 0.396285 -2.25748 0
M  V30 12172 C 1107.58 0.969003 -1.28324 0
M  V30 12173 O 1108.77 0.847016 -1.52221 0
M  V30 12174 C 1105.9 1.55838 -3.03195 0
M  V30 12175 H 1107.1 -0.249311 -2.98862 0
M  V30 12176 H 1104.65 -0.167276 -1.55402 0
M  V30 12177 H 1105.38 2.24068 -2.34444 0
M  V30 12178 H 1105.17 1.15414 -3.74729 0
M  V30 12179 H 1106.66 2.13187 -3.59084 0
M  V30 12180 N 1107.1 1.56929 -0.145233 0
M  V30 12181 C 1108.04 2.16671 0.795128 0
M  V30 12182 C 1109.01 1.09908 1.24537 0
M  V30 12183 O 1110.2 1.37941 1.31821 0
M  V30 12184 C 1107.34 2.79111 2.02956 0
M  V30 12185 C 1106.45 4.00261 1.62528 0
M  V30 12186 C 1105.59 4.50705 2.81137 0
M  V30 12187 C 1104.63 5.64324 2.37075 0
M  V30 12188 N 1103.76 6.09395 3.48687 0
M  V30 12189 H 1108.6 2.96692 0.278865 0
M  V30 12190 H 1106.14 1.4656 0.125934 0
M  V30 12191 H 1108.1 3.13456 2.7532 0
M  V30 12192 H 1106.73 2.01737 2.51996 0
M  V30 12193 H 1105.78 3.71906 0.799365 0
M  V30 12194 H 1107.09 4.8258 1.26166 0
M  V30 12195 H 1106.25 4.87096 3.61693 0
M  V30 12196 H 1104.98 3.67389 3.20744 0
M  V30 12197 H 1103.99 5.27511 1.54958 0
M  V30 12198 H 1105.21 6.49425 1.98556 0
M  V30 12199 H 1103.16 5.29014 3.87917 0
M  V30 12200 H 1103.08 6.86636 3.16333 0
M  V30 12201 H 1104.35 6.50431 4.29605 0
M  V30 12202 N 1108.58 -0.128553 1.57075 0
M  V30 12203 C 1109.8 -0.8564 1.88893 0
M  V30 12204 C 1110.23 -1.73095 0.736196 0
M  V30 12205 O 1109.58 -1.78567 -0.313629 0
M  V30 12206 C 1109.63 -1.67368 3.19406 0
M  V30 12207 O 1108.74 -2.77973 3.04639 0
M  V30 12208 H 1108.08 -0.237424 0.620102 0
M  V30 12209 H 1110.61 -0.113821 2.04283 0
M  V30 12210 H 1110.62 -2.0649 3.51889 0
M  V30 12211 H 1109.29 -1.03161 4.02903 0
M  V30 12212 H 1107.87 -2.42123 2.83603 0
M  V30 12213 N 1110.05 -1.5248 -0.398459 0
M  V30 12214 C 1110.98 -1.79549 -1.49279 0
M  V30 12215 C 1111.96 -0.647004 -1.57315 0
M  V30 12216 O 1113.15 -0.893661 -1.72416 0
M  V30 12217 C 1110.28 -1.95582 -2.86993 0
M  V30 12218 C 1109.23 -3.1123 -2.93803 0
M  V30 12219 C 1108.56 -3.12501 -4.33874 0
M  V30 12220 C 1109.86 -4.50485 -2.64312 0
M  V30 12221 H 1111.55 -2.71187 -1.26877 0
M  V30 12222 H 1109.1 -1.30492 -0.608924 0
M  V30 12223 H 1111.05 -2.13102 -3.63546 0
M  V30 12224 H 1109.78 -1.00625 -3.10712 0
M  V30 12225 H 1108.44 -2.93477 -2.19697 0
M  V30 12226 H 1108.08 -2.15245 -4.54619 0
M  V30 12227 H 1107.78 -3.90183 -4.39353 0
M  V30 12228 H 1109.31 -3.32164 -5.12347 0
M  V30 12229 H 1110.72 -4.68387 -3.30585 0
M  V30 12230 H 1109.12 -5.30163 -2.81153 0
M  V30 12231 H 1110.19 -4.57848 -1.59696 0
M  V30 12232 N 1111.53 0.65634 -1.43283 0
M  V30 12233 C 1112.46 1.78122 -1.42646 0
M  V30 12234 C 1113.44 1.60024 -0.288301 0
M  V30 12235 O 1114.63 1.82249 -0.481407 0
M  V30 12236 C 1111.75 3.1538 -1.23505 0
M  V30 12237 C 1110.8 3.52186 -2.40556 0
M  V30 12238 S 1111.63 3.52515 -4.03105 0
M  V30 12239 C 1112.79 4.92435 -3.8634 0
M  V30 12240 H 1113.02 1.78391 -2.37832 0
M  V30 12241 H 1110.55 0.828699 -1.30276 0
M  V30 12242 H 1112.51 3.94598 -1.13148 0
M  V30 12243 H 1111.17 3.12676 -0.298726 0
M  V30 12244 H 1110.37 4.52002 -2.22959 0
M  V30 12245 H 1109.97 2.80373 -2.47522 0
M  V30 12246 H 1112.26 5.81011 -3.48472 0
M  V30 12247 H 1113.2 5.15082 -4.85897 0
M  V30 12248 H 1113.61 4.65823 -3.18857 0
M  V30 12249 N 1113.01 1.29761 0.894412 0
M  V30 12250 C 1113.94 1.1115 2.00445 0
M  V30 12251 C 1114.95 0.0574655 1.62699 0
M  V30 12252 O 1116.14 0.302528 1.75918 0
M  V30 12253 C 1113.24 0.670984 3.32191 0
M  V30 12254 C 1112.42 1.80471 3.98433 0
M  V30 12255 C 1111.48 1.35431 5.08473 0
M  V30 12256 O 1110.5 2.05994 5.30618 0
M  V30 12257 N 1111.7 0.22811 5.80052 0
M  V30 12258 H 1114.47 2.06753 2.16964 0
M  V30 12259 H 1112.03 1.21772 1.06692 0
M  V30 12260 H 1114.02 0.352877 4.03159 0
M  V30 12261 H 1112.59 -0.192735 3.12005 0
M  V30 12262 H 1111.81 2.29142 3.20761 0
M  V30 12263 H 1113.1 2.56471 4.39431 0
M  V30 12264 H 1112.5 -0.360076 5.64553 0
M  V30 12265 H 1111.05 -0.0305985 6.51793 0
M  V30 12266 N 1114.49 -1.10549 1.12324 0
M  V30 12267 C 1115.73 -1.84108 0.887895 0
M  V30 12268 C 1116.09 -1.83159 -0.5759 0
M  V30 12269 O 1117.29 -2.52259 -0.928367 0
M  V30 12270 C 1115.56 -3.26866 1.44545 0
M  V30 12271 S 1117.12 -4.17567 1.34846 0
M  V30 12272 H 1113.94 -0.634752 0.320329 0
M  V30 12273 H 1116.54 -1.33036 1.43254 0
M  V30 12274 H 1115.25 -3.25126 2.50442 0
M  V30 12275 H 1114.78 -3.83008 0.89825 0
M  V30 12276 H 1116.79 -4.95173 0.319143 0
M  V30 12277 N 1115.97 -0.914965 -1.28321 0
M  V30 12278 C 1116.93 -0.409024 -2.25521 0
M  V30 12279 C 1117.93 0.465327 -1.5392 0
M  V30 12280 O 1119.12 0.26821 -1.72123 0
M  V30 12281 C 1116.25 0.413452 -3.38383 0
M  V30 12282 H 1117.44 -1.26767 -2.71791 0
M  V30 12283 H 1115 -0.694477 -1.40024 0
M  V30 12284 H 1115.73 1.29145 -2.97476 0
M  V30 12285 H 1115.52 -0.213268 -3.9152 0
M  V30 12286 H 1117.01 0.758232 -4.10659 0
M  V30 12287 N 1117.44 1.42219 -0.679077 0
M  V30 12288 C 1118.69 2.01081 -0.202718 0
M  V30 12289 C 1119.01 1.53986 1.19639 0
M  V30 12290 O 1118.28 0.763359 1.80415 0
M  V30 12291 H 1116.86 0.743526 -0.0719547 0
M  V30 12292 H 1119.52 1.74077 -0.876544 0
M  V30 12293 H 1118.62 3.11411 -0.207314 0
M  V30 12294 N 1118.92 0.422693 1.51826 0
M  V30 12295 C 1119.83 -0.40261 2.31119 0
M  V30 12296 C 1120.85 -1.04117 1.39412 0
M  V30 12297 O 1122.02 -1.03973 1.72486 0
M  V30 12298 C 1119.09 -1.49699 3.12716 0
M  V30 12299 C 1118.15 -0.880088 4.20182 0
M  V30 12300 C 1117.38 -1.92232 4.97878 0
M  V30 12301 O 1117.61 -3.14246 4.76031 0
M  V30 12302 O 1116.54 -1.521 5.82365 0
M  V30 12303 H 1120.37 0.244308 3.02716 0
M  V30 12304 H 1117.95 0.185569 1.48243 0
M  V30 12305 H 1119.83 -2.13202 3.63487 0
M  V30 12306 H 1118.51 -2.12826 2.43899 0
M  V30 12307 H 1117.41 -0.207404 3.73525 0
M  V30 12308 H 1118.75 -0.292535 4.9133 0
M  V30 12309 N 1120.4 -1.5685 0.153553 0
M  V30 12310 C 1121.62 -2.01135 -0.505904 0
M  V30 12311 C 1122.05 -1.03301 -1.57196 0
M  V30 12312 O 1121.41 -0.00976022 -1.81297 0
M  V30 12313 C 1121.46 -3.44129 -1.0774 0
M  V30 12314 O 1120.56 -3.49318 -2.19205 0
M  V30 12315 H 1119.9 -0.652496 -0.123062 0
M  V30 12316 H 1122.43 -2.03039 0.252216 0
M  V30 12317 H 1122.44 -3.83066 -1.40444 0
M  V30 12318 H 1121.12 -4.1484 -0.296754 0
M  V30 12319 H 1119.69 -3.22227 -1.8768 0
M  V30 12320 N 1121.88 0.120221 -1.57141 0
M  V30 12321 C 1123.13 0.826791 -1.83976 0
M  V30 12322 C 1123.44 1.81102 -0.739014 0
M  V30 12323 O 1124.65 2.56368 -0.893736 0
M  V30 12324 C 1123.1 1.52108 -3.26176 0
M  V30 12325 C 1122.71 0.577902 -4.44257 0
M  V30 12326 C 1124.45 2.21286 -3.62261 0
M  V30 12327 C 1122.36 1.27535 -5.77485 0
M  V30 12328 H 1121.29 0.312508 -0.686189 0
M  V30 12329 H 1123.94 0.0795343 -1.83328 0
M  V30 12330 H 1122.32 2.31492 -3.2129 0
M  V30 12331 H 1123.5 -0.182629 -4.60438 0
M  V30 12332 H 1121.81 -0.00684348 -4.16399 0
M  V30 12333 H 1124.41 2.74154 -4.59068 0
M  V30 12334 H 1124.75 2.99029 -2.89634 0
M  V30 12335 H 1125.29 1.48791 -3.68925 0
M  V30 12336 H 1122.02 0.539237 -6.53278 0
M  V30 12337 H 1121.54 2.00792 -5.65192 0
M  V30 12338 H 1123.22 1.80888 -6.21199 0
M  V30 12339 N 1123.36 1.52689 0.390367 0
M  V30 12340 C 1124.58 1.71541 1.15678 0
M  V30 12341 C 1125 0.433171 1.83764 0
M  V30 12342 O 1124.36 -0.592248 1.72623 0
M  V30 12343 C 1124.41 2.864 2.20584 0
M  V30 12344 O 1124.13 4.0966 1.55274 0
M  V30 12345 C 1125.63 3.1692 3.09962 0
M  V30 12346 H 1122.85 0.574381 0.346883 0
M  V30 12347 H 1125.39 1.99332 0.456851 0
M  V30 12348 H 1123.55 2.61075 2.86214 0
M  V30 12349 H 1123.96 4.73802 2.2497 0
M  V30 12350 H 1125.44 4.00755 3.79604 0
M  V30 12351 H 1125.91 2.31245 3.73393 0
M  V30 12352 H 1126.52 3.4408 2.49979 0
M  V30 12353 N 1124.83 -0.648732 1.43629 0
M  V30 12354 C 1125.76 -1.77298 1.51947 0
M  V30 12355 C 1126.75 -1.65942 0.373785 0
M  V30 12356 O 1127.93 -1.8497 0.591596 0
M  V30 12357 C 1125.06 -3.15749 1.44638 0
M  V30 12358 C 1124.01 -3.41872 2.57502 0
M  V30 12359 C 1123.34 -4.8017 2.35246 0
M  V30 12360 C 1124.64 -3.36173 3.99731 0
M  V30 12361 H 1126.33 -1.70594 2.46045 0
M  V30 12362 H 1123.88 -0.819306 1.1842 0
M  V30 12363 H 1125.83 -3.94156 1.4906 0
M  V30 12364 H 1124.56 -3.23194 0.470466 0
M  V30 12365 H 1123.22 -2.65838 2.5244 0
M  V30 12366 H 1122.86 -4.84297 1.35887 0
M  V30 12367 H 1122.56 -4.9861 3.10906 0
M  V30 12368 H 1124.09 -5.6083 2.41459 0
M  V30 12369 H 1125.5 -4.0451 4.06257 0
M  V30 12370 H 1123.9 -3.66148 4.75453 0
M  V30 12371 H 1124.97 -2.34277 4.24549 0
M  V30 12372 N 1126.31 -1.30234 -0.887518 0
M  V30 12373 C 1127.56 -1.1891 -1.6391 0
M  V30 12374 C 1127.89 0.256749 -1.92798 0
M  V30 12375 O 1127.14 1.20047 -1.54555 0
M  V30 12376 C 1127.44 -1.96046 -2.98832 0
M  V30 12377 C 1127.11 -3.45683 -2.89507 0
M  V30 12378 C 1125.77 -3.86489 -2.8667 0
M  V30 12379 C 1128.12 -4.40983 -2.7782 0
M  V30 12380 C 1125.45 -5.2089 -2.69982 0
M  V30 12381 C 1127.8 -5.75489 -2.6267 0
M  V30 12382 C 1126.47 -6.15537 -2.58207 0
M  V30 12383 H 1125.74 -0.435123 -0.599791 0
M  V30 12384 H 1128.38 -1.61308 -1.03209 0
M  V30 12385 H 1126.69 -1.46275 -3.6347 0
M  V30 12386 H 1128.38 -1.84678 -3.55942 0
M  V30 12387 H 1124.97 -3.13255 -2.92523 0
M  V30 12388 H 1129.16 -4.10401 -2.79079 0
M  V30 12389 H 1124.41 -5.51014 -2.6494 0
M  V30 12390 H 1128.59 -6.48973 -2.526 0
M  V30 12391 H 1126.22 -7.19627 -2.45034 0
M  V30 12392 N 1127.79 1.09952 -1.12909 0
M  V30 12393 C 1128.74 2.16436 -0.801514 0
M  V30 12394 C 1129.71 1.64444 0.233976 0
M  V30 12395 O 1130.89 1.90497 0.10743 0
M  V30 12396 C 1128.03 3.4406 -0.267753 0
M  V30 12397 C 1127.15 4.09979 -1.36165 0
M  V30 12398 C 1126.28 5.25341 -0.786803 0
M  V30 12399 C 1125.32 5.83172 -1.85948 0
M  V30 12400 N 1124.46 6.89904 -1.30298 0
M  V30 12401 H 1129.3 2.43799 -1.71365 0
M  V30 12402 H 1126.83 1.19665 -0.855499 0
M  V30 12403 H 1128.79 4.17157 0.0598031 0
M  V30 12404 H 1127.42 3.17031 0.607528 0
M  V30 12405 H 1126.47 3.34801 -1.8059 0
M  V30 12406 H 1127.79 4.48999 -2.17259 0
M  V30 12407 H 1126.94 6.05312 -0.410211 0
M  V30 12408 H 1125.68 4.87669 0.055279 0
M  V30 12409 H 1124.68 5.01867 -2.24521 0
M  V30 12410 H 1125.91 6.22907 -2.70487 0
M  V30 12411 H 1123.85 6.54221 -0.482806 0
M  V30 12412 H 1123.77 7.27662 -2.05046 0
M  V30 12413 H 1125.04 7.73643 -0.953779 0
M  V30 12414 N 1129.27 0.921757 1.27833 0
M  V30 12415 C 1130.22 0.406628 2.29018 0
M  V30 12416 C 1131.21 -0.505914 1.61669 0
M  V30 12417 O 1132.42 -0.386273 1.75807 0
M  V30 12418 H 1128.79 0.112914 0.743475 0
M  V30 12419 H 1130.76 1.27295 2.69886 0
M  V30 12420 C 1129.51 -0.330783 3.46123 0
M  V30 12421 H 1128.83 0.362207 3.98156 0
M  V30 12422 H 1130.27 -0.655738 4.18899 0
M  V30 12423 C 1128.73 -1.54161 2.9956 0
M  V30 12424 O 1129.26 -2.64052 3.0272 0
M  V30 12425 N 1127.47 -1.39137 2.55126 0
M  V30 12426 H 1127.02 -0.497319 2.52754 0
M  V30 12427 H 1126.97 -2.20278 2.24333 0
M  V30 12428 N 1130.75 -1.41857 0.686609 0
M  V30 12429 C 1131.69 -2.30795 0.015643 0
M  V30 12430 C 1132.66 -1.46616 -0.780569 0
M  V30 12431 O 1133.85 -1.75423 -0.750424 0
M  V30 12432 C 1130.99 -3.32577 -0.921229 0
M  V30 12433 C 1130.1 -4.3184 -0.117585 0
M  V30 12434 C 1129.24 -5.20693 -1.05128 0
M  V30 12435 C 1128.28 -6.11629 -0.240018 0
M  V30 12436 N 1127.41 -6.92995 -1.12704 0
M  V30 12437 H 1132.25 -2.87615 0.77985 0
M  V30 12438 H 1129.79 -1.41661 0.396298 0
M  V30 12439 H 1131.75 -3.90129 -1.47836 0
M  V30 12440 H 1130.38 -2.77328 -1.65193 0
M  V30 12441 H 1129.43 -3.7631 0.55634 0
M  V30 12442 H 1130.74 -4.96168 0.511753 0
M  V30 12443 H 1129.9 -5.83035 -1.67795 0
M  V30 12444 H 1128.63 -4.5657 -1.71449 0
M  V30 12445 H 1127.64 -5.48345 0.399779 0
M  V30 12446 H 1128.86 -6.77805 0.419266 0
M  V30 12447 H 1126.81 -6.31489 -1.77644 0
M  V30 12448 H 1126.73 -7.53974 -0.553065 0
M  V30 12449 H 1128 -7.59813 -1.7408 0
M  V30 12450 N 1132.22 -0.430739 -1.51599 0
M  V30 12451 C 1133.45 0.136797 -2.06447 0
M  V30 12452 C 1133.87 1.37027 -1.29881 0
M  V30 12453 O 1133.22 1.78983 -0.356543 0
M  V30 12454 C 1133.28 0.465637 -3.58489 0
M  V30 12455 O 1133 -0.718873 -4.32162 0
M  V30 12456 C 1134.5 1.08456 -4.29828 0
M  V30 12457 H 1131.72 0.0108468 -0.670912 0
M  V30 12458 H 1134.26 -0.607921 -1.95255 0
M  V30 12459 H 1132.42 1.16025 -3.69617 0
M  V30 12460 H 1132.83 -0.439195 -5.22658 0
M  V30 12461 H 1134.3 1.2647 -5.37317 0
M  V30 12462 H 1134.78 2.06376 -3.87693 0
M  V30 12463 H 1135.39 0.429525 -4.23125 0
M  V30 12464 N 1133.7 1.56767 -0.161869 0
M  V30 12465 C 1134.65 2.18807 0.789074 0
M  V30 12466 C 1135.64 1.14934 1.24445 0
M  V30 12467 O 1136.85 1.33154 1.2112 0
M  V30 12468 H 1133.23 0.700808 0.272713 0
M  V30 12469 H 1135.2 2.97419 0.241766 0
M  V30 12470 C 1133.95 2.83568 2.01207 0
M  V30 12471 H 1133.27 3.63219 1.67068 0
M  V30 12472 H 1134.71 3.3046 2.65654 0
M  V30 12473 C 1133.17 1.82846 2.82964 0
M  V30 12474 O 1133.7 1.30809 3.79805 0
M  V30 12475 N 1131.9 1.51815 2.47791 0
M  V30 12476 H 1131.45 1.94325 1.69103 0
M  V30 12477 H 1131.41 0.846742 3.02783 0
M  V30 12478 N 1135.18 -0.111886 1.57202 0
M  V30 12479 C 1136.09 -1.1556 2.04165 0
M  V30 12480 C 1137.11 -1.44898 0.963354 0
M  V30 12481 O 1138.28 -1.55873 1.27536 0
M  V30 12482 C 1135.35 -2.46048 2.44256 0
M  V30 12483 C 1134.41 -2.24043 3.66201 0
M  V30 12484 C 1133.64 -3.4831 4.04371 0
M  V30 12485 O 1133.86 -4.55895 3.42806 0
M  V30 12486 O 1132.8 -3.38891 4.9743 0
M  V30 12487 H 1136.62 -0.786778 2.93332 0
M  V30 12488 H 1134.21 -0.323196 1.45862 0
M  V30 12489 H 1136.09 -3.22916 2.70745 0
M  V30 12490 H 1134.77 -2.8239 1.58233 0
M  V30 12491 H 1133.67 -1.4501 3.44852 0
M  V30 12492 H 1135.01 -1.92602 4.52952 0
M  V30 12493 N 1136.66 -1.52894 -0.382264 0
M  V30 12494 C 1137.57 -1.81084 -1.4915 0
M  V30 12495 C 1138.58 -0.698045 -1.59384 0
M  V30 12496 O 1139.76 -0.98635 -1.75594 0
M  V30 12497 C 1136.83 -1.97987 -2.84608 0
M  V30 12498 C 1135.89 -3.219 -2.8404 0
M  V30 12499 C 1135.12 -3.37988 -4.13037 0
M  V30 12500 O 1135.34 -2.58733 -5.08344 0
M  V30 12501 O 1134.28 -4.31273 -4.19866 0
M  V30 12502 H 1138.1 -2.75289 -1.28257 0
M  V30 12503 H 1135.69 -1.38068 -0.57076 0
M  V30 12504 H 1137.57 -2.10773 -3.64901 0
M  V30 12505 H 1136.24 -1.06972 -3.05514 0
M  V30 12506 H 1135.15 -3.14551 -2.02505 0
M  V30 12507 H 1136.48 -4.12783 -2.68087 0
M  V30 12508 N 1138.14 0.641106 -1.43971 0
M  V30 12509 C 1139.38 1.40084 -1.46228 0
M  V30 12510 C 1139.71 1.94287 -0.0911011 0
M  V30 12511 O 1138.97 1.73481 0.905688 0
M  V30 12512 C 1139.27 2.59092 -2.46183 0
M  V30 12513 C 1138.93 2.23237 -3.9176 0
M  V30 12514 C 1137.59 2.13171 -4.31407 0
M  V30 12515 C 1139.95 1.94746 -4.83449 0
M  V30 12516 C 1137.27 1.72788 -5.60679 0
M  V30 12517 C 1139.63 1.55858 -6.13099 0
M  V30 12518 C 1138.29 1.44326 -6.5171 0
M  V30 12519 H 1137.56 0.512603 -0.535088 0
M  V30 12520 H 1140.21 0.727956 -1.77124 0
M  V30 12521 H 1138.51 3.31568 -2.08734 0
M  V30 12522 H 1140.21 3.17313 -2.4518 0
M  V30 12523 H 1136.8 2.31986 -3.60389 0
M  V30 12524 H 1140.98 2.01438 -4.53582 0
M  V30 12525 H 1136.24 1.62455 -5.89422 0
M  V30 12526 H 1140.41 1.32848 -6.83611 0
M  V30 12527 H 1138.04 1.12806 -7.51784 0
M  V30 12528 N 1139.62 1.30703 0.880598 0
M  V30 12529 C 1141.03 1.09129 1.1646 0
M  V30 12530 C 1141.23 -0.145131 2.00977 0
M  V30 12531 O 1140.29 -0.837502 2.38206 0
M  V30 12532 C 1141.6 2.35717 1.86703 0
M  V30 12533 C 1143.15 2.41224 1.9945 0
M  V30 12534 C 1143.62 3.67665 2.73105 0
M  V30 12535 N 1145.11 3.68498 2.80648 0
M  V30 12536 C 1145.85 4.63024 3.38225 0
M  V30 12537 N 1145.35 5.67898 3.96817 0
M  V30 12538 N 1147.14 4.50561 3.36082 0
M  V30 12539 H 1139.29 2.10019 0.317164 0
M  V30 12540 H 1141.55 0.925994 0.203072 0
M  V30 12541 H 1141.26 3.2597 1.32046 0
M  V30 12542 H 1141.13 2.447 2.87057 0
M  V30 12543 H 1143.52 1.51446 2.53275 0
M  V30 12544 H 1143.6 2.36212 0.981704 0
M  V30 12545 H 1143.24 4.57803 2.19951 0
M  V30 12546 H 1143.17 3.69939 3.7477 0
M  V30 12547 H 1145.67 2.92681 2.39053 0
M  V30 12548 H 1145.98 6.3612 4.3883 0
M  V30 12549 H 1144.32 5.71685 3.95223 0
M  V30 12550 H 1147.51 3.67811 2.89539 0
M  V30 12551 H 1147.69 5.24408 3.80657 0
M  V30 12552 N 1141.09 -1.09351 1.1349 0
M  V30 12553 C 1142.34 -1.80915 0.89177 0
M  V30 12554 C 1142.66 -1.86688 -0.5837 0
M  V30 12555 O 1143.86 -2.54568 -0.943788 0
M  V30 12556 C 1142.32 -3.25009 1.54587 0
M  V30 12557 C 1141.93 -3.27501 3.05691 0
M  V30 12558 C 1143.67 -4.01323 1.38346 0
M  V30 12559 C 1141.58 -4.66123 3.63983 0
M  V30 12560 H 1140.51 -0.677961 0.329978 0
M  V30 12561 H 1143.16 -1.22893 1.3627 0
M  V30 12562 H 1141.54 -3.83098 1.0026 0
M  V30 12563 H 1142.71 -2.79174 3.66604 0
M  V30 12564 H 1141.03 -2.64677 3.21457 0
M  V30 12565 H 1143.63 -5.03739 1.79307 0
M  V30 12566 H 1143.97 -4.15003 0.328404 0
M  V30 12567 H 1144.5 -3.49679 1.89656 0
M  V30 12568 H 1141.24 -4.57646 4.69298 0
M  V30 12569 H 1140.76 -5.14772 3.07848 0
M  V30 12570 H 1142.44 -5.35097 3.63703 0
M  V30 12571 N 1142.57 -0.928524 -1.27343 0
M  V30 12572 C 1143.82 -0.568267 -1.93946 0
M  V30 12573 C 1144.14 0.893501 -1.73325 0
M  V30 12574 O 1143.41 1.63344 -1.08147 0
M  V30 12575 H 1141.99 -0.207173 -0.717696 0
M  V30 12576 H 1144.65 -1.1811 -1.55036 0
M  V30 12577 H 1143.75 -0.775246 -3.02318 0
M  V30 12578 N 1144.05 1.41491 -0.694123 0
M  V30 12579 C 1145.27 2.06099 -0.23197 0
M  V30 12580 C 1145.7 1.51888 1.10958 0
M  V30 12581 O 1145.06 0.645247 1.69429 0
M  V30 12582 C 1145.11 3.60053 -0.198522 0
M  V30 12583 O 1144.21 4.04021 0.827067 0
M  V30 12584 H 1143.55 0.654193 -0.113699 0
M  V30 12585 H 1146.08 1.81282 -0.948575 0
M  V30 12586 H 1146.09 4.0799 -0.0288904 0
M  V30 12587 H 1144.77 3.98879 -1.17764 0
M  V30 12588 H 1143.34 3.67593 0.626908 0
M  V30 12589 N 1145.53 0.438773 1.51369 0
M  V30 12590 C 1146.46 -0.362467 2.3067 0
M  V30 12591 C 1147.44 -1.01973 1.36145 0
M  V30 12592 O 1148.62 -1.0231 1.65065 0
M  V30 12593 C 1145.75 -1.46313 3.14976 0
M  V30 12594 C 1144.71 -0.929272 4.1779 0
M  V30 12595 C 1144.03 -2.12579 4.90627 0
M  V30 12596 C 1145.33 0.0372782 5.22287 0
M  V30 12597 H 1147.03 0.29931 2.979 0
M  V30 12598 H 1144.57 0.14539 1.43264 0
M  V30 12599 H 1146.53 -2.03088 3.69233 0
M  V30 12600 H 1145.25 -2.15321 2.45569 0
M  V30 12601 H 1143.91 -0.383722 3.64586 0
M  V30 12602 H 1143.56 -2.8021 4.17722 0
M  V30 12603 H 1143.26 -1.77496 5.60151 0
M  V30 12604 H 1144.78 -2.69905 5.47708 0
M  V30 12605 H 1146.2 -0.44022 5.71607 0
M  V30 12606 H 1144.59 0.300748 5.99346 0
M  V30 12607 H 1145.66 0.973503 4.75027 0
M  V30 12608 N 1147.01 -1.56678 0.170181 0
M  V30 12609 C 1148.42 -1.58512 -0.185999 0
M  V30 12610 C 1148.62 -1.18548 -1.62937 0
M  V30 12611 O 1147.68 -0.896554 -2.36047 0
M  V30 12612 C 1148.99 -3.00554 0.0937842 0
M  V30 12613 C 1150.54 -3.12984 0.0319057 0
M  V30 12614 C 1151.01 -4.57115 0.284664 0
M  V30 12615 N 1152.5 -4.62617 0.2324 0
M  V30 12616 C 1153.24 -5.71988 0.40216 0
M  V30 12617 N 1152.74 -6.89921 0.630915 0
M  V30 12618 N 1154.53 -5.61082 0.338144 0
M  V30 12619 H 1146.68 -1.80944 1.11235 0
M  V30 12620 H 1148.94 -0.838586 0.442128 0
M  V30 12621 H 1148.65 -3.34265 1.09362 0
M  V30 12622 H 1148.52 -3.72151 -0.615118 0
M  V30 12623 H 1150.91 -2.791 -0.958502 0
M  V30 12624 H 1150.99 -2.43825 0.773501 0
M  V30 12625 H 1150.63 -4.91707 1.27227 0
M  V30 12626 H 1150.56 -5.2443 -0.477529 0
M  V30 12627 H 1153.06 -3.7785 0.0611933 0
M  V30 12628 H 1153.37 -7.69153 0.749931 0
M  V30 12629 H 1151.71 -6.91787 0.667516 0
M  V30 12630 H 1154.9 -4.67826 0.16003 0
M  V30 12631 H 1155.08 -6.46265 0.473872 0
M  V30 12632 N 1148.48 0.103547 -1.57259 0
M  V30 12633 C 1149.43 1.14513 -2.02459 0
M  V30 12634 C 1150.43 1.4197 -0.924163 0
M  V30 12635 O 1151.63 1.41751 -1.10936 0
M  V30 12636 H 1148.01 0.386469 -0.645094 0
M  V30 12637 H 1149.98 0.737531 -2.89142 0
M  V30 12638 C 1148.73 2.45948 -2.45775 0
M  V30 12639 H 1148.05 2.25662 -3.30026 0
M  V30 12640 H 1149.49 3.17351 -2.81184 0
M  V30 12641 C 1147.95 3.09639 -1.32759 0
M  V30 12642 O 1148.48 3.96372 -0.652059 0
M  V30 12643 N 1146.68 2.69757 -1.08072 0
M  V30 12644 H 1146.23 1.9932 -1.63185 0
M  V30 12645 H 1146.19 3.127 -0.326532 0
M  V30 12646 N 1149.96 1.53094 0.37415 0
M  V30 12647 C 1150.89 1.73697 1.48002 0
M  V30 12648 C 1151.87 0.585109 1.51708 0
M  V30 12649 O 1153.06 0.816688 1.6989 0
M  V30 12650 C 1150.18 1.80802 2.86406 0
M  V30 12651 C 1149.23 3.02696 3.00462 0
M  V30 12652 S 1150.06 4.62386 2.70109 0
M  V30 12653 C 1151.22 4.72328 4.10679 0
M  V30 12654 H 1151.45 2.67223 1.30303 0
M  V30 12655 H 1148.98 1.43574 0.567957 0
M  V30 12656 H 1150.94 1.85581 3.66155 0
M  V30 12657 H 1149.6 0.883425 3.01421 0
M  V30 12658 H 1148.8 3.04252 4.01804 0
M  V30 12659 H 1148.4 2.95985 2.28624 0
M  V30 12660 H 1150.69 4.51856 5.04809 0
M  V30 12661 H 1151.63 5.7437 4.14131 0
M  V30 12662 H 1152.04 4.01035 3.9728 0
M  V30 12663 N 1151.44 -0.633461 1.44309 0
M  V30 12664 C 1152.37 -1.7583 1.45462 0
M  V30 12665 C 1153.35 -1.59545 0.313723 0
M  V30 12666 O 1154.53 -1.8146 0.51034 0
M  V30 12667 C 1151.66 -3.13375 1.28506 0
M  V30 12668 C 1150.71 -3.48315 2.46128 0
M  V30 12669 S 1151.54 -3.46058 4.08662 0
M  V30 12670 C 1152.7 -4.86226 3.94125 0
M  V30 12671 H 1152.93 -1.74585 2.4064 0
M  V30 12672 H 1150.46 -0.807868 1.31578 0
M  V30 12673 H 1152.42 -3.92748 1.19411 0
M  V30 12674 H 1151.08 -3.12161 0.348432 0
M  V30 12675 H 1150.27 -4.48397 2.30122 0
M  V30 12676 H 1149.88 -2.76399 2.51951 0
M  V30 12677 H 1152.17 -5.75393 3.57671 0
M  V30 12678 H 1153.11 -5.07287 4.9403 0
M  V30 12679 H 1153.52 -4.60691 3.26227 0
M  V30 12680 N 1152.92 -1.31168 -0.873655 0
M  V30 12681 C 1153.85 -1.14325 -1.98651 0
M  V30 12682 C 1154.86 -0.0833421 -1.62587 0
M  V30 12683 O 1156.05 -0.330477 -1.75414 0
M  V30 12684 C 1153.15 -0.723747 -3.31082 0
M  V30 12685 C 1152.33 -1.86787 -3.95512 0
M  V30 12686 C 1151.38 -1.43503 -5.06254 0
M  V30 12687 O 1150.41 -2.14409 -5.27273 0
M  V30 12688 N 1151.61 -0.320362 -5.79615 0
M  V30 12689 H 1154.38 -2.10179 -2.13647 0
M  V30 12690 H 1151.94 -1.23454 -1.04742 0
M  V30 12691 H 1153.93 -0.416971 -4.02546 0
M  V30 12692 H 1152.5 0.143073 -3.12272 0
M  V30 12693 H 1151.72 -2.34216 -3.17075 0
M  V30 12694 H 1153.01 -2.6343 -4.35296 0
M  V30 12695 H 1152.41 0.270215 -5.65054 0
M  V30 12696 H 1150.96 -0.0731 -6.51759 0
M  V30 12697 N 1154.4 1.08748 -1.14068 0
M  V30 12698 C 1155.33 2.17591 -0.84714 0
M  V30 12699 C 1156.31 1.68962 0.196415 0
M  V30 12700 O 1157.49 1.94125 0.0538415 0
M  V30 12701 C 1154.62 3.45823 -0.320005 0
M  V30 12702 C 1153.58 4.07824 -1.2986 0
M  V30 12703 C 1152.9 5.30965 -0.630925 0
M  V30 12704 C 1154.2 4.49512 -2.65963 0
M  V30 12705 H 1155.9 2.42404 -1.75729 0
M  V30 12706 H 1153.44 1.16502 -0.846356 0
M  V30 12707 H 1155.4 4.21276 -0.102271 0
M  V30 12708 H 1154.12 3.20553 0.625561 0
M  V30 12709 H 1152.78 3.34398 -1.50245 0
M  V30 12710 H 1152.43 5.01979 0.320337 0
M  V30 12711 H 1152.13 5.73402 -1.28388 0
M  V30 12712 H 1153.65 6.09136 -0.422635 0
M  V30 12713 H 1155.06 5.16159 -2.49506 0
M  V30 12714 H 1153.46 5.02857 -3.27498 0
M  V30 12715 H 1154.53 3.6157 -3.23102 0
M  V30 12716 N 1155.87 0.935264 1.26849 0
M  V30 12717 C 1157.11 0.587087 1.95787 0
M  V30 12718 C 1157.48 -0.856974 1.71814 0
M  V30 12719 O 1158.68 -1.3138 2.34505 0
M  V30 12720 C 1156.95 0.91303 3.45541 0
M  V30 12721 S 1158.51 0.674506 4.33585 0
M  V30 12722 H 1155.33 0.216442 0.677255 0
M  V30 12723 H 1157.93 1.20532 1.53923 0
M  V30 12724 H 1156.63 1.96154 3.60488 0
M  V30 12725 H 1156.16 0.28429 3.92371 0
M  V30 12726 H 1158.18 -0.464121 4.94025 0
M  V30 12727 N 1157.35 -1.41121 0.701616 0
M  V30 12728 C 1158.58 -2.05452 0.244365 0
M  V30 12729 C 1159 -1.5282 -1.10866 0
M  V30 12730 O 1158.35 -0.67893 -1.69401 0
M  V30 12731 C 1158.4 -3.60946 0.200112 0
M  V30 12732 O 1158.12 -4.11632 1.4997 0
M  V30 12733 C 1159.63 -4.42431 -0.277394 0
M  V30 12734 H 1156.85 -0.66151 0.112453 0
M  V30 12735 H 1159.39 -1.80784 0.9559 0
M  V30 12736 H 1157.54 -3.84632 -0.462287 0
M  V30 12737 H 1157.96 -5.05723 1.39084 0
M  V30 12738 H 1159.43 -5.514 -0.257225 0
M  V30 12739 H 1159.91 -4.1898 -1.31728 0
M  V30 12740 H 1160.52 -4.23822 0.354223 0
M  V30 12741 N 1158.83 -0.446794 -1.51134 0
M  V30 12742 C 1160.25 -0.0995905 -1.59289 0
M  V30 12743 C 1160.45 1.39191 -1.45699 0
M  V30 12744 O 1159.5 2.1628 -1.30303 0
M  V30 12745 C 1160.82 -0.628135 -2.94066 0
M  V30 12746 C 1162.36 -0.589409 -3.074 0
M  V30 12747 C 1162.84 -1.09509 -4.44715 0
M  V30 12748 N 1164.33 -1.05347 -4.51061 0
M  V30 12749 C 1165.06 -1.41551 -5.55654 0
M  V30 12750 N 1164.56 -1.85086 -6.67619 0
M  V30 12751 N 1166.35 -1.33307 -5.46064 0
M  V30 12752 H 1158.5 -1.41713 -1.58213 0
M  V30 12753 H 1160.77 -0.584555 -0.746324 0
M  V30 12754 H 1160.47 -1.67205 -3.09411 0
M  V30 12755 H 1160.35 -0.0582398 -3.77155 0
M  V30 12756 H 1162.73 0.445541 -2.91717 0
M  V30 12757 H 1162.82 -1.19582 -2.26128 0
M  V30 12758 H 1162.46 -2.12855 -4.61146 0
M  V30 12759 H 1162.39 -0.465122 -5.24542 0
M  V30 12760 H 1164.88 -0.733877 -3.70706 0
M  V30 12761 H 1165.19 -2.10923 -7.43459 0
M  V30 12762 H 1163.54 -1.8902 -6.68802 0
M  V30 12763 H 1166.73 -0.991547 -4.57478 0
M  V30 12764 H 1166.9 -1.6185 -6.27462 0
M  V30 12765 N 1160.31 1.56586 -0.178487 0
M  V30 12766 C 1161.55 1.98994 0.466987 0
M  V30 12767 C 1161.91 1.06229 1.59935 0
M  V30 12768 O 1163.11 1.37806 2.30788 0
M  V30 12769 C 1161.38 3.45064 0.930899 0
M  V30 12770 S 1162.94 4.095 1.57655 0
M  V30 12771 H 1159.76 0.695007 0.149955 0
M  V30 12772 H 1162.36 1.93519 -0.27764 0
M  V30 12773 H 1161.07 4.10287 0.0964476 0
M  V30 12774 H 1160.6 3.54321 1.70939 0
M  V30 12775 H 1162.61 4.05139 2.86491 0
M  V30 12776 N 1161.79 -0.095206 1.57312 0
M  V30 12777 C 1162.72 -1.11627 2.05089 0
M  V30 12778 C 1163.7 -1.41782 0.939787 0
M  V30 12779 O 1164.88 -1.51813 1.21105 0
M  V30 12780 C 1162.01 -2.43618 2.47523 0
M  V30 12781 C 1160.97 -2.27872 3.62296 0
M  V30 12782 C 1160.29 -3.65038 3.90706 0
M  V30 12783 C 1161.59 -1.71936 4.93189 0
M  V30 12784 H 1163.29 -0.718795 2.90644 0
M  V30 12785 H 1160.83 -0.344315 1.39823 0
M  V30 12786 H 1162.79 -3.1532 2.79556 0
M  V30 12787 H 1161.51 -2.85301 1.58968 0
M  V30 12788 H 1160.17 -1.58615 3.3051 0
M  V30 12789 H 1159.82 -4.04249 2.99319 0
M  V30 12790 H 1159.52 -3.55349 4.67976 0
M  V30 12791 H 1161.04 -4.38208 4.25213 0
M  V30 12792 H 1162.45 -2.33479 5.23603 0
M  V30 12793 H 1160.85 -1.73006 5.74621 0
M  V30 12794 H 1161.92 -0.678789 4.80125 0
M  V30 12795 N 1163.26 -1.53291 -0.366026 0
M  V30 12796 C 1164.49 -1.73665 -1.13381 0
M  V30 12797 C 1164.91 -0.464284 -1.8228 0
M  V30 12798 O 1164.27 0.581645 -1.71717 0
M  V30 12799 C 1164.32 -2.90225 -2.14013 0
M  V30 12800 O 1163.42 -2.58803 -3.21084 0
M  V30 12801 H 1162.77 -0.576762 -0.329 0
M  V30 12802 H 1165.3 -2.00174 -0.423287 0
M  V30 12803 H 1165.31 -3.16378 -2.57622 0
M  V30 12804 H 1163.98 -3.82518 -1.63257 0
M  V30 12805 H 1162.56 -2.43466 -2.82451 0
M  V30 12806 N 1164.74 0.6258 -1.44643 0
M  V30 12807 C 1165.69 1.75869 -1.52226 0
M  V30 12808 C 1166.68 1.64765 -0.39355 0
M  V30 12809 O 1167.89 1.70779 -0.568718 0
M  V30 12810 H 1164.27 0.580712 -0.477784 0
M  V30 12811 H 1166.24 1.66596 -2.47565 0
M  V30 12812 C 1164.99 3.14217 -1.48873 0
M  V30 12813 H 1164.31 3.23411 -2.35043 0
M  V30 12814 H 1165.75 3.93365 -1.58239 0
M  V30 12815 C 1164.21 3.36243 -0.210299 0
M  V30 12816 O 1164.74 3.95243 0.717335 0
M  V30 12817 N 1162.94 2.90385 -0.111744 0
M  V30 12818 H 1162.49 2.42555 -0.867466 0
M  V30 12819 H 1162.45 3.05498 0.742871 0
M  V30 12820 N 1166.22 1.31629 0.866686 0
M  V30 12821 C 1167.46 1.22806 1.63395 0
M  V30 12822 C 1167.82 -0.209785 1.9085 0
M  V30 12823 O 1169.03 -0.421562 2.65474 0
M  V30 12824 C 1167.3 2.05187 2.92631 0
M  V30 12825 S 1168.86 2.13261 3.83491 0
M  V30 12826 H 1165.67 0.437339 0.560585 0
M  V30 12827 H 1168.28 1.66333 1.02731 0
M  V30 12828 H 1166.98 3.08736 2.70389 0
M  V30 12829 H 1166.51 1.62393 3.58318 0
M  V30 12830 H 1168.53 1.27333 4.79584 0
M  V30 12831 N 1167.7 -1.08142 1.14644 0
M  V30 12832 C 1168.93 -1.84318 0.939926 0
M  V30 12833 C 1169.34 -1.81735 -0.511636 0
M  V30 12834 O 1168.7 -1.22297 -1.35461 0
M  V30 12835 C 1168.75 -3.31744 1.43625 0
M  V30 12836 O 1168.47 -3.3435 2.83094 0
M  V30 12837 C 1169.97 -4.24717 1.27007 0
M  V30 12838 H 1167.19 -0.581781 0.334323 0
M  V30 12839 H 1169.74 -1.36561 1.52221 0
M  V30 12840 H 1167.89 -3.7688 0.896664 0
M  V30 12841 H 1168.31 -4.26399 3.05425 0
M  V30 12842 H 1169.78 -5.26262 1.66591 0
M  V30 12843 H 1170.26 -4.38682 0.213257 0
M  V30 12844 H 1170.86 -3.85409 1.79833 0
M  V30 12845 N 1169.18 -0.941978 -1.26351 0
M  V30 12846 C 1170.12 -0.450906 -2.26353 0
M  V30 12847 C 1171.09 0.489857 -1.58712 0
M  V30 12848 O 1172.28 0.40589 -1.86433 0
M  V30 12849 C 1169.42 0.277054 -3.43986 0
M  V30 12850 C 1168.53 -0.699474 -4.263 0
M  V30 12851 C 1167.67 0.0497661 -5.31177 0
M  V30 12852 C 1166.71 -0.918531 -6.05169 0
M  V30 12853 N 1165.84 -0.200993 -7.01812 0
M  V30 12854 H 1170.68 -1.30861 -2.6773 0
M  V30 12855 H 1168.22 -0.656514 -1.31637 0
M  V30 12856 H 1170.18 0.715567 -4.11018 0
M  V30 12857 H 1168.81 1.09889 -3.0352 0
M  V30 12858 H 1167.86 -1.2565 -3.59049 0
M  V30 12859 H 1169.17 -1.4389 -4.77595 0
M  V30 12860 H 1168.33 0.547521 -6.04224 0
M  V30 12861 H 1167.07 0.822068 -4.80722 0
M  V30 12862 H 1166.07 -1.4274 -5.30947 0
M  V30 12863 H 1167.3 -1.69085 -6.57713 0
M  V30 12864 H 1165.24 0.552803 -6.53667 0
M  V30 12865 H 1165.16 -0.879735 -7.50864 0
M  V30 12866 H 1166.43 0.275642 -7.79012 0
M  V30 12867 N 1170.66 1.40747 -0.709091 0
M  V30 12868 C 1171.6 2.30741 -0.0523584 0
M  V30 12869 C 1172.57 1.4784 0.757145 0
M  V30 12870 O 1173.76 1.76595 0.72242 0
M  V30 12871 C 1170.9 3.34 0.868203 0
M  V30 12872 C 1170.01 4.31972 0.0488686 0
M  V30 12873 C 1169.15 5.223 0.968311 0
M  V30 12874 C 1168.18 6.11934 0.142682 0
M  V30 12875 N 1167.32 6.947 1.01665 0
M  V30 12876 H 1172.16 2.86338 -0.825509 0
M  V30 12877 H 1169.7 1.41013 -0.418785 0
M  V30 12878 H 1171.66 3.92431 1.41611 0
M  V30 12879 H 1170.29 2.79921 1.6076 0
M  V30 12880 H 1169.34 3.75377 -0.616137 0
M  V30 12881 H 1170.65 4.95291 -0.590625 0
M  V30 12882 H 1169.8 5.85631 1.58498 0
M  V30 12883 H 1168.54 4.5924 1.64164 0
M  V30 12884 H 1167.55 5.47639 -0.486965 0
M  V30 12885 H 1168.77 6.77052 -0.527046 0
M  V30 12886 H 1166.72 6.34236 1.67575 0
M  V30 12887 H 1166.64 7.54759 0.433045 0
M  V30 12888 H 1167.9 7.62487 1.6197 0
M  V30 12889 N 1172.13 0.454803 1.50895 0
M  V30 12890 C 1173.36 -0.106259 2.07128 0
M  V30 12891 C 1173.78 -1.3418 1.31823 0
M  V30 12892 O 1173.14 -1.77667 0.361147 0
M  V30 12893 C 1173.19 -0.389609 3.58489 0
M  V30 12894 O 1172.29 -1.47305 3.85195 0
M  V30 12895 H 1171.63 0.00580588 0.663975 0
M  V30 12896 H 1174.16 0.641163 1.94294 0
M  V30 12897 H 1174.17 -0.634934 4.03029 0
M  V30 12898 H 1172.85 0.513338 4.1272 0
M  V30 12899 H 1171.43 -1.21631 3.52506 0
M  V30 12900 N 1173.61 -1.56489 0.186789 0
M  V30 12901 C 1175.02 -1.83809 -0.327265 0
M  V30 12902 C 1175.37 -1.10718 -1.61976 0
M  V30 12903 O 1174.5 -0.36525 -2.13295 0
M  V30 12904 C 1175.09 -3.33435 -0.600551 0
M  V30 12905 C 1173.65 -3.61195 -1.059 0
M  V30 12906 C 1172.8 -2.77108 -0.103131 0
M  V30 12907 H 1175.75 -1.53292 0.410747 0
M  V30 12908 H 1175.77 -3.51754 -1.45084 0
M  V30 12909 H 1175.28 -3.86605 0.340315 0
M  V30 12910 H 1173.38 -3.13451 -2.01443 0
M  V30 12911 H 1173.5 -4.69435 -0.957458 0
M  V30 12912 H 1171.86 -2.47448 -0.603449 0
M  V30 12913 H 1172.64 -3.33065 0.832031 0
M  V30 12914 N 1175.09 0.086862 -1.5736 0
M  V30 12915 C 1176.04 1.12359 -2.03662 0
M  V30 12916 C 1177.03 1.40982 -0.939169 0
M  V30 12917 O 1178.24 1.40566 -1.12433 0
M  V30 12918 H 1174.61 0.379605 -0.649156 0
M  V30 12919 H 1176.58 0.706822 -2.89908 0
M  V30 12920 C 1175.33 2.43327 -2.48369 0
M  V30 12921 H 1174.66 2.22148 -3.324 0
M  V30 12922 H 1176.1 3.14351 -2.84534 0
M  V30 12923 C 1174.55 3.08214 -1.36036 0
M  V30 12924 O 1175.08 3.95659 -0.694063 0
M  V30 12925 N 1173.29 2.68596 -1.10927 0
M  V30 12926 H 1172.84 1.97578 -1.6529 0
M  V30 12927 H 1172.8 3.12336 -0.359679 0
M  V30 12928 N 1176.57 1.53483 0.357892 0
M  V30 12929 C 1177.51 1.80463 1.43881 0
M  V30 12930 C 1178.48 0.649438 1.52877 0
M  V30 12931 O 1179.67 0.892409 1.68644 0
M  V30 12932 C 1176.81 2.00714 2.80727 0
M  V30 12933 C 1175.92 3.28431 2.80637 0
M  V30 12934 C 1175.06 3.38828 4.09107 0
M  V30 12935 C 1174.1 4.60549 4.03189 0
M  V30 12936 N 1173.23 4.68057 5.23323 0
M  V30 12937 H 1178.07 2.72694 1.20174 0
M  V30 12938 H 1175.61 1.35079 0.582422 0
M  V30 12939 H 1177.57 2.10444 3.60235 0
M  V30 12940 H 1176.2 1.11811 3.02817 0
M  V30 12941 H 1175.25 3.27617 1.93317 0
M  V30 12942 H 1176.56 4.18022 2.72138 0
M  V30 12943 H 1175.72 3.47911 4.97034 0
M  V30 12944 H 1174.46 2.47267 4.20369 0
M  V30 12945 H 1173.46 4.51558 3.13649 0
M  V30 12946 H 1174.69 5.53459 3.93523 0
M  V30 12947 H 1172.63 3.794 5.35156 0
M  V30 12948 H 1172.55 5.51563 5.17024 0
M  V30 12949 H 1173.82 4.81433 6.1306 0
M  V30 12950 N 1178.05 -0.61812 1.44973 0
M  V30 12951 C 1179.29 -1.37343 1.47715 0
M  V30 12952 C 1179.61 -1.95239 0.118784 0
M  V30 12953 O 1180.81 -2.7149 0.0237981 0
M  V30 12954 C 1179.27 -2.48732 2.60116 0
M  V30 12955 C 1178.88 -1.97294 4.02218 0
M  V30 12956 C 1180.62 -3.25831 2.72093 0
M  V30 12957 C 1178.53 -3.06102 5.06019 0
M  V30 12958 H 1177.46 -0.516175 0.549617 0
M  V30 12959 H 1180.11 -0.663617 1.7108 0
M  V30 12960 H 1178.49 -3.2235 2.30014 0
M  V30 12961 H 1179.67 -1.30455 4.41948 0
M  V30 12962 H 1177.98 -1.32972 3.94598 0
M  V30 12963 H 1180.58 -4.06968 3.46815 0
M  V30 12964 H 1180.92 -3.76156 1.7836 0
M  V30 12965 H 1181.45 -2.59309 3.01668 0
M  V30 12966 H 1178.19 -2.60706 6.01426 0
M  V30 12967 H 1177.71 -3.71541 4.70869 0
M  V30 12968 H 1179.39 -3.70662 5.30301 0
M  V30 12969 N 1179.52 -1.32087 -0.859693 0
M  V30 12970 C 1180.49 -1.20546 -1.94939 0
M  V30 12971 C 1181.49 -0.12982 -1.60275 0
M  V30 12972 O 1182.68 -0.379853 -1.70008 0
M  V30 12973 C 1179.81 -0.852717 -3.30063 0
M  V30 12974 H 1181 -2.17384 -2.06602 0
M  V30 12975 H 1178.55 -1.15846 -1.04926 0
M  V30 12976 H 1179.29 0.114059 -3.24099 0
M  V30 12977 H 1179.07 -1.63035 -3.56598 0
M  V30 12978 H 1180.56 -0.796145 -4.09941 0
M  V30 12979 N 1181 1.07532 -1.15215 0
M  V30 12980 C 1182.23 1.84356 -0.950139 0
M  V30 12981 C 1182.65 1.81429 0.496502 0
M  V30 12982 O 1182.01 1.20589 1.35381 0
M  V30 12983 C 1182.06 3.29425 -1.46669 0
M  V30 12984 O 1181.16 4.07008 -0.664674 0
M  V30 12985 H 1180.5 0.570921 -0.339036 0
M  V30 12986 H 1183.03 1.35665 -1.53154 0
M  V30 12987 H 1183.04 3.8026 -1.47873 0
M  V30 12988 H 1181.72 3.3087 -2.51988 0
M  V30 12989 H 1180.29 3.65841 -0.72211 0
M  V30 12990 N 1182.48 0.948665 1.2585 0
M  V30 12991 C 1183.73 0.59905 1.93018 0
M  V30 12992 C 1184.05 -0.865813 1.74725 0
M  V30 12993 O 1183.32 -1.61602 1.10732 0
M  V30 12994 H 1181.9 0.218565 0.71431 0
M  V30 12995 H 1184.56 1.20561 1.53137 0
M  V30 12996 H 1183.66 0.823244 3.01047 0
M  V30 12997 N 1183.96 -1.40369 0.716545 0
M  V30 12998 C 1185.21 -2.00869 0.256466 0
M  V30 12999 C 1185.53 -1.56816 -1.15061 0
M  V30 13000 O 1184.79 -0.779696 -1.79497 0
M  V30 13001 C 1185.09 -3.56257 0.285583 0
M  V30 13002 C 1184.75 -4.19897 1.64309 0
M  V30 13003 C 1183.42 -4.36994 2.01469 0
M  V30 13004 C 1185.77 -4.55385 2.53524 0
M  V30 13005 C 1183.1 -4.86862 3.27387 0
M  V30 13006 C 1185.45 -5.06653 3.78795 0
M  V30 13007 C 1184.11 -5.21959 4.16071 0
M  V30 13008 H 1183.38 -0.735033 0.0938475 0
M  V30 13009 H 1186.03 -1.67966 0.919765 0
M  V30 13010 H 1184.33 -3.89075 -0.461287 0
M  V30 13011 H 1186.03 -4.00903 -0.0882496 0
M  V30 13012 H 1182.62 -4.06978 1.34413 0
M  V30 13013 H 1186.8 -4.41811 2.2609 0
M  V30 13014 H 1182.06 -4.96897 3.56235 0
M  V30 13015 H 1186.23 -5.33089 4.48095 0
M  V30 13016 H 1183.86 -5.60362 5.1371 0
M  V30 13017 N 1185.44 -0.462799 -1.50652 0
M  V30 13018 C 1186.68 0.0950445 -2.02277 0
M  V30 13019 C 1187.01 1.40465 -1.34536 0
M  V30 13020 O 1186.27 1.90283 -0.457279 0
M  V30 13021 C 1186.57 0.335294 -3.55824 0
M  V30 13022 C 1186.23 -0.891589 -4.41997 0
M  V30 13023 C 1184.89 -1.22799 -4.65268 0
M  V30 13024 C 1187.25 -1.70885 -4.9239 0
M  V30 13025 C 1184.57 -2.38186 -5.36175 0
M  V30 13026 C 1186.93 -2.85394 -5.64564 0
M  V30 13027 C 1185.59 -3.19458 -5.86091 0
M  V30 13028 H 1184.86 0.0347793 -0.740183 0
M  V30 13029 H 1187.51 -0.61519 -1.8135 0
M  V30 13030 H 1185.81 1.12769 -3.7522 0
M  V30 13031 H 1187.51 0.780752 -3.93326 0
M  V30 13032 H 1184.1 -0.619495 -4.24099 0
M  V30 13033 H 1188.28 -1.46215 -4.74273 0
M  V30 13034 H 1183.54 -2.64862 -5.51052 0
M  V30 13035 H 1187.71 -3.49073 -6.02595 0
M  V30 13036 H 1185.34 -4.08978 -6.40813 0
M  V30 13037 N 1186.91 1.56388 -0.195085 0
M  V30 13038 C 1187.84 2.22091 0.720971 0
M  V30 13039 C 1188.83 1.184 1.22128 0
M  V30 13040 O 1190.01 1.46907 1.27012 0
M  V30 13041 C 1187.14 2.88025 1.94059 0
M  V30 13042 C 1186.09 3.97959 1.5752 0
M  V30 13043 C 1185.42 4.51058 2.87143 0
M  V30 13044 C 1186.72 5.16365 0.785145 0
M  V30 13045 H 1188.41 2.98898 0.173245 0
M  V30 13046 H 1185.96 1.43767 0.0818868 0
M  V30 13047 H 1187.91 3.32671 2.58666 0
M  V30 13048 H 1186.64 2.08623 2.51285 0
M  V30 13049 H 1185.3 3.54004 0.952715 0
M  V30 13050 H 1184.94 3.68418 3.42458 0
M  V30 13051 H 1184.64 5.25237 2.63439 0
M  V30 13052 H 1186.17 4.98406 3.52738 0
M  V30 13053 H 1187.58 5.57556 1.33431 0
M  V30 13054 H 1185.98 5.9661 0.646231 0
M  V30 13055 H 1187.05 4.84428 -0.213789 0
M  V30 13056 N 1188.39 -0.0785156 1.57404 0
M  V30 13057 C 1189.81 -0.433143 1.5361 0
M  V30 13058 C 1190.01 -1.79564 0.914283 0
M  V30 13059 O 1189.06 -2.47215 0.513899 0
M  V30 13060 C 1190.38 -0.380387 2.98284 0
M  V30 13061 C 1191.93 -0.461056 3.09586 0
M  V30 13062 C 1192.4 -0.438276 4.55898 0
M  V30 13063 N 1193.89 -0.498548 4.60509 0
M  V30 13064 C 1194.63 -0.503028 5.71189 0
M  V30 13065 N 1194.12 -0.462724 6.91253 0
M  V30 13066 N 1195.92 -0.549083 5.59412 0
M  V30 13067 H 1188.07 0.813724 1.96195 0
M  V30 13068 H 1190.33 0.304644 0.897717 0
M  V30 13069 H 1190.04 0.553932 3.4731 0
M  V30 13070 H 1189.91 -1.19313 3.57833 0
M  V30 13071 H 1192.3 -1.3858 2.60537 0
M  V30 13072 H 1192.38 0.380138 2.5296 0
M  V30 13073 H 1192.02 0.482588 5.05602 0
M  V30 13074 H 1191.95 -1.29691 5.1038 0
M  V30 13075 H 1194.44 -0.534219 3.74105 0
M  V30 13076 H 1194.76 -0.469883 7.7137 0
M  V30 13077 H 1193.1 -0.429515 6.93672 0
M  V30 13078 H 1196.29 -0.578215 4.64515 0
M  V30 13079 H 1196.46 -0.549105 6.45669 0
M  V30 13080 N 1189.87 -1.5367 -0.349747 0
M  V30 13081 C 1190.8 -1.84208 -1.43492 0
M  V30 13082 C 1191.78 -0.696725 -1.55177 0
M  V30 13083 O 1192.97 -0.948061 -1.69486 0
M  V30 13084 C 1190.1 -2.04613 -2.80625 0
M  V30 13085 C 1189.05 -3.20419 -2.83753 0
M  V30 13086 C 1188.38 -3.26147 -4.23713 0
M  V30 13087 C 1189.68 -4.58666 -2.49846 0
M  V30 13088 H 1191.37 -2.75087 -1.18185 0
M  V30 13089 H 1188.92 -1.32363 -0.567101 0
M  V30 13090 H 1190.87 -2.2456 -3.56582 0
M  V30 13091 H 1189.59 -1.10459 -3.07354 0
M  V30 13092 H 1188.25 -3.00318 -2.10249 0
M  V30 13093 H 1187.9 -2.29599 -4.47541 0
M  V30 13094 H 1187.6 -4.03963 -4.26717 0
M  V30 13095 H 1189.12 -3.48296 -5.0152 0
M  V30 13096 H 1190.54 -4.78668 -3.15516 0
M  V30 13097 H 1188.94 -5.3884 -2.64144 0
M  V30 13098 H 1190.01 -4.62697 -1.4505 0
M  V30 13099 N 1191.35 0.610423 -1.45298 0
M  V30 13100 C 1192.28 1.73207 -1.56594 0
M  V30 13101 C 1193.26 1.64893 -0.417651 0
M  V30 13102 O 1194.44 1.83336 -0.64043 0
M  V30 13103 C 1191.57 3.11803 -1.52959 0
M  V30 13104 C 1190.53 3.34925 -2.66475 0
M  V30 13105 C 1189.85 4.73764 -2.47894 0
M  V30 13106 C 1191.15 3.25456 -4.08504 0
M  V30 13107 H 1192.85 1.6401 -2.50482 0
M  V30 13108 H 1190.39 0.787621 -1.20551 0
M  V30 13109 H 1192.35 3.90065 -1.59458 0
M  V30 13110 H 1191.07 3.21833 -0.55599 0
M  V30 13111 H 1189.73 2.59051 -2.59399 0
M  V30 13112 H 1189.38 4.80524 -1.4868 0
M  V30 13113 H 1189.08 4.90191 -3.24016 0
M  V30 13114 H 1190.6 5.54231 -2.56243 0
M  V30 13115 H 1192.02 3.93597 -4.16839 0
M  V30 13116 H 1190.41 3.53414 -4.84994 0
M  V30 13117 H 1191.48 2.22939 -4.30612 0
M  V30 13118 N 1192.83 1.32541 0.852676 0
M  V30 13119 C 1194.05 1.2622 1.6394 0
M  V30 13120 C 1194.47 -0.169455 1.88038 0
M  V30 13121 O 1193.83 -1.10719 1.45078 0
M  V30 13122 C 1193.88 2.02062 2.99755 0
M  V30 13123 O 1193.6 3.39641 2.76723 0
M  V30 13124 C 1195.1 2.02787 3.94198 0
M  V30 13125 H 1192.32 0.435405 0.510552 0
M  V30 13126 H 1194.86 1.74696 1.06309 0
M  V30 13127 H 1193.02 1.57303 3.54026 0
M  V30 13128 H 1193.43 3.78484 3.63111 0
M  V30 13129 H 1194.91 2.60333 4.86755 0
M  V30 13130 H 1195.38 1.01464 4.27319 0
M  V30 13131 H 1195.99 2.47504 3.45864 0
M  V30 13132 N 1194.3 -1.0692 1.15784 0
M  V30 13133 C 1195.53 -1.83849 0.959903 0
M  V30 13134 C 1195.95 -1.8169 -0.486873 0
M  V30 13135 O 1195.31 -1.21305 -1.34739 0
M  V30 13136 C 1195.36 -3.28642 1.48414 0
M  V30 13137 O 1194.46 -4.0665 0.686249 0
M  V30 13138 H 1193.81 -0.569115 0.342059 0
M  V30 13139 H 1196.34 -1.34851 1.53871 0
M  V30 13140 H 1196.35 -3.7947 1.49888 0
M  V30 13141 H 1195.02 -3.29529 2.53739 0
M  V30 13142 H 1193.6 -3.65453 0.741501 0
M  V30 13143 N 1195.78 -0.955326 -1.25345 0
M  V30 13144 C 1196.73 -0.474888 -2.25862 0
M  V30 13145 C 1197.7 0.472996 -1.59223 0
M  V30 13146 O 1198.88 0.386094 -1.86853 0
M  V30 13147 C 1196.02 0.240554 -3.44261 0
M  V30 13148 C 1195.14 -0.74465 -4.25534 0
M  V30 13149 C 1194.27 -0.00657513 -5.312 0
M  V30 13150 C 1193.31 -0.982666 -6.04161 0
M  V30 13151 N 1192.45 -0.275418 -7.0156 0
M  V30 13152 H 1197.29 -1.33693 -2.66327 0
M  V30 13153 H 1194.83 -0.670439 -1.30933 0
M  V30 13154 H 1196.78 0.671933 -4.11753 0
M  V30 13155 H 1195.41 1.06664 -3.04668 0
M  V30 13156 H 1194.47 -1.29451 -3.57696 0
M  V30 13157 H 1195.78 -1.48948 -4.76042 0
M  V30 13158 H 1194.93 0.483404 -6.04771 0
M  V30 13159 H 1193.67 0.771035 -4.81567 0
M  V30 13160 H 1192.68 -1.48364 -5.29404 0
M  V30 13161 H 1193.9 -1.76052 -6.55883 0
M  V30 13162 H 1191.85 0.483441 -6.54216 0
M  V30 13163 H 1191.76 -0.959324 -7.49889 0
M  V30 13164 H 1193.03 0.193002 -7.79261 0
M  V30 13165 N 1197.26 1.39987 -0.723979 0
M  V30 13166 C 1198.19 2.3332 -0.0917282 0
M  V30 13167 C 1199.17 1.53335 0.736361 0
M  V30 13168 O 1200.36 1.81771 0.683582 0
M  V30 13169 C 1197.49 3.3737 0.824549 0
M  V30 13170 C 1196.44 4.2788 0.101452 0
M  V30 13171 C 1195.77 5.22536 1.13401 0
M  V30 13172 C 1197.07 5.11649 -1.04939 0
M  V30 13173 H 1198.76 2.86441 -0.871318 0
M  V30 13174 H 1196.31 1.37725 -0.420448 0
M  V30 13175 H 1198.26 4.01607 1.27631 0
M  V30 13176 H 1196.98 2.82663 1.63613 0
M  V30 13177 H 1195.64 3.65107 -0.330569 0
M  V30 13178 H 1195.29 4.64131 1.93886 0
M  V30 13179 H 1194.99 5.83938 0.65502 0
M  V30 13180 H 1196.52 5.89651 1.58569 0
M  V30 13181 H 1197.93 5.69293 -0.6766 0
M  V30 13182 H 1196.33 5.82137 -1.45729 0
M  V30 13183 H 1197.4 4.47132 -1.8762 0
M  V30 13184 N 1198.74 0.470782 1.50404 0
M  V30 13185 C 1199.67 -0.369532 2.25188 0
M  V30 13186 C 1200.65 -0.996478 1.28488 0
M  V30 13187 O 1201.83 -1.03247 1.57709 0
M  V30 13188 C 1198.96 -1.51775 3.02791 0
M  V30 13189 C 1198.01 -1.00821 4.14412 0
M  V30 13190 S 1198.84 0.076844 5.35445 0
M  V30 13191 C 1200 -1.07525 6.16595 0
M  V30 13192 H 1200.23 0.265286 2.96114 0
M  V30 13193 H 1197.76 0.255662 1.52269 0
M  V30 13194 H 1199.72 -2.17582 3.48092 0
M  V30 13195 H 1198.38 -2.12408 2.31391 0
M  V30 13196 H 1197.57 -1.8678 4.68112 0
M  V30 13197 H 1197.18 -0.427851 3.71545 0
M  V30 13198 H 1199.47 -1.98693 6.47709 0
M  V30 13199 H 1200.41 -0.577518 7.05741 0
M  V30 13200 H 1200.82 -1.32894 5.48634 0
M  V30 13201 N 1200.22 -1.56282 0.203376 0
M  V30 13202 C 1201.17 -2.20822 -0.730784 0
M  V30 13203 C 1202.16 -1.18193 -1.21354 0
M  V30 13204 O 1203.37 -1.36318 -1.17547 0
M  V30 13205 H 1199.74 -0.707792 -0.254036 0
M  V30 13206 H 1201.71 -2.97955 -0.162825 0
M  V30 13207 C 1200.46 -2.88803 -1.93618 0
M  V30 13208 H 1199.78 -3.67521 -1.57379 0
M  V30 13209 H 1201.22 -3.37387 -2.56799 0
M  V30 13210 C 1199.68 -1.90285 -2.78017 0
M  V30 13211 O 1200.21 -1.40833 -3.76203 0
M  V30 13212 N 1198.42 -1.58332 -2.43679 0
M  V30 13213 H 1197.97 -1.9874 -1.63891 0
M  V30 13214 H 1197.92 -0.926722 -3.00432 0
M  V30 13215 N 1201.7 0.070167 -1.57444 0
M  V30 13216 C 1202.97 0.802108 -1.78397 0
M  V30 13217 C 1203.35 1.95706 -0.791356 0
M  V30 13218 O 1202.7 2.27827 0.17518 0
M  V30 13219 C 1202.91 1.27354 -3.24934 0
M  V30 13220 C 1204.26 1.70626 -3.88808 0
M  V30 13221 O 1205.28 1.36916 -3.28835 0
M  V30 13222 O 1204.14 2.33041 -4.94322 0
M  V30 13223 H 1201.24 0.384483 -0.73219 0
M  V30 13224 H 1203.78 0.0501168 -1.69626 0
M  V30 13225 H 1202.55 0.447204 -3.88736 0
M  V30 13226 H 1202.18 2.0868 -3.38435 0
M  V30 13227 N 1203.17 1.53854 0.341593 0
M  V30 13228 C 1204.42 1.7041 1.07905 0
M  V30 13229 C 1204.74 0.475039 1.89744 0
M  V30 13230 O 1205.94 0.521589 2.66443 0
M  V30 13231 C 1204.4 3.01342 1.96776 0
M  V30 13232 C 1204.01 4.31592 1.20135 0
M  V30 13233 C 1205.75 3.27264 2.70367 0
M  V30 13234 C 1203.66 5.53598 2.08047 0
M  V30 13235 H 1202.59 0.635005 0.406553 0
M  V30 13236 H 1205.24 1.80353 0.338409 0
M  V30 13237 H 1203.62 2.85261 2.74667 0
M  V30 13238 H 1204.79 4.58382 0.471404 0
M  V30 13239 H 1203.11 4.12298 0.583039 0
M  V30 13240 H 1205.71 4.15607 3.36415 0
M  V30 13241 H 1206.05 2.44357 3.37039 0
M  V30 13242 H 1206.58 3.4413 1.99548 0
M  V30 13243 H 1203.32 6.39053 1.45914 0
M  V30 13244 H 1202.84 5.31052 2.78825 0
M  V30 13245 H 1204.52 5.89314 2.67055 0
M  V30 13246 N 1204.65 -0.602709 1.4562 0
M  V30 13247 C 1205.61 -1.69508 1.54271 0
M  V30 13248 C 1206.61 -1.55171 0.421727 0
M  V30 13249 O 1207.8 -1.60151 0.685375 0
M  V30 13250 C 1204.94 -3.0881 1.44392 0
M  V30 13251 H 1206.13 -1.63203 2.51605 0
M  V30 13252 H 1203.68 -0.818857 1.33133 0
M  V30 13253 H 1204.42 -3.20689 0.482614 0
M  V30 13254 H 1204.2 -3.20625 2.25704 0
M  V30 13255 H 1205.69 -3.8837 1.53488 0
M  V30 13256 N 1206.13 -1.32992 -0.845635 0
M  V30 13257 C 1207.41 -1.14671 -1.58461 0
M  V30 13258 C 1207.79 0.289498 -2.09106 0
M  V30 13259 O 1207.13 1.28751 -1.88773 0
M  V30 13260 C 1207.34 -2.18206 -2.72373 0
M  V30 13261 C 1208.69 -2.5201 -3.41726 0
M  V30 13262 O 1209.72 -2.16821 -2.82608 0
M  V30 13263 O 1208.58 -3.12368 -4.48429 0
M  V30 13264 H 1205.67 -0.443088 -0.698285 0
M  V30 13265 H 1208.22 -1.44552 -0.888978 0
M  V30 13266 H 1206.99 -3.14707 -2.32541 0
M  V30 13267 H 1206.61 -1.89372 -3.49605 0
M  V30 13268 N 1207.61 1.06304 -1.1635 0
M  V30 13269 C 1208.86 1.78487 -0.939423 0
M  V30 13270 C 1209.17 1.8817 0.533998 0
M  V30 13271 O 1210.38 2.56981 0.875962 0
M  V30 13272 C 1208.83 3.20796 -1.63149 0
M  V30 13273 C 1208.44 3.19281 -3.14267 0
M  V30 13274 C 1210.18 3.97514 -1.48938 0
M  V30 13275 C 1208.09 4.56309 -3.76213 0
M  V30 13276 H 1207.02 0.668973 -0.347837 0
M  V30 13277 H 1209.67 1.19237 -1.3948 0
M  V30 13278 H 1208.05 3.80305 -1.10382 0
M  V30 13279 H 1209.23 2.69356 -3.73877 0
M  V30 13280 H 1207.54 2.56062 -3.28362 0
M  V30 13281 H 1210.14 4.98808 -1.926 0
M  V30 13282 H 1210.48 4.13986 -0.438319 0
M  V30 13283 H 1211.02 3.44528 -1.98861 0
M  V30 13284 H 1207.75 4.45042 -4.81267 0
M  V30 13285 H 1207.27 5.06429 -3.21388 0
M  V30 13286 H 1208.95 5.25266 -3.77762 0
M  V30 13287 N 1209.09 0.96196 1.24836 0
M  V30 13288 C 1210.33 0.628484 1.94498 0
M  V30 13289 C 1210.69 -0.820337 1.73593 0
M  V30 13290 O 1211.89 -1.26376 2.37239 0
M  V30 13291 C 1210.16 0.986119 3.43527 0
M  V30 13292 S 1211.72 0.766324 4.32057 0
M  V30 13293 H 1208.54 0.230758 0.672511 0
M  V30 13294 H 1211.14 1.23769 1.51332 0
M  V30 13295 H 1209.84 2.03756 3.56247 0
M  V30 13296 H 1209.38 0.367454 3.9168 0
M  V30 13297 H 1211.39 -0.359227 4.94898 0
M  V30 13298 N 1210.56 -1.39601 0.731392 0
M  V30 13299 C 1211.51 -2.30628 0.0890606 0
M  V30 13300 C 1212.48 -1.49025 -0.73353 0
M  V30 13301 O 1213.67 -1.77722 -0.694234 0
M  V30 13302 C 1210.81 -3.35339 -0.814956 0
M  V30 13303 C 1209.92 -4.31995 0.0198606 0
M  V30 13304 C 1209.05 -5.23774 -0.885095 0
M  V30 13305 C 1208.09 -6.12083 -0.045311 0
M  V30 13306 N 1207.23 -6.9623 -0.906002 0
M  V30 13307 H 1212.07 -2.84988 0.870958 0
M  V30 13308 H 1209.61 -1.40329 0.441166 0
M  V30 13309 H 1211.56 -3.94634 -1.3535 0
M  V30 13310 H 1210.19 -2.82443 -1.56287 0
M  V30 13311 H 1209.25 -3.74349 0.675778 0
M  V30 13312 H 1210.56 -4.94289 0.669346 0
M  V30 13313 H 1209.71 -5.88078 -1.49161 0
M  V30 13314 H 1208.45 -4.61794 -1.56837 0
M  V30 13315 H 1207.46 -5.46795 0.574028 0
M  V30 13316 H 1208.68 -6.76128 0.634692 0
M  V30 13317 H 1206.63 -6.36821 -1.57463 0
M  V30 13318 H 1206.54 -7.55352 -0.312914 0
M  V30 13319 H 1207.81 -7.64967 -1.49819 0
M  V30 13320 N 1212.04 -0.478751 -1.50152 0
M  V30 13321 C 1213.27 0.0732929 -2.0727 0
M  V30 13322 C 1213.69 1.32066 -1.33941 0
M  V30 13323 O 1213.05 1.7707 -0.389367 0
M  V30 13324 C 1213.1 0.332528 -3.59064 0
M  V30 13325 O 1212.2 1.41158 -3.8749 0
M  V30 13326 H 1211.54 -0.0163684 -0.663798 0
M  V30 13327 H 1214.07 -0.671993 -1.9325 0
M  V30 13328 H 1214.08 0.570735 -4.03988 0
M  V30 13329 H 1212.76 -0.578934 -4.11851 0
M  V30 13330 H 1211.34 1.16008 -3.54396 0
M  V30 13331 N 1213.52 1.56172 -0.211661 0
M  V30 13332 C 1214.45 2.22843 0.697375 0
M  V30 13333 C 1215.43 1.19689 1.20866 0
M  V30 13334 O 1216.62 1.48245 1.25447 0
M  V30 13335 C 1213.75 2.90067 1.90993 0
M  V30 13336 C 1212.7 3.99608 1.5329 0
M  V30 13337 C 1212.03 4.54078 2.82343 0
M  V30 13338 C 1213.33 5.17169 0.730333 0
M  V30 13339 H 1215.02 2.99065 0.141533 0
M  V30 13340 H 1212.57 1.43846 0.0666337 0
M  V30 13341 H 1214.52 3.35396 2.55123 0
M  V30 13342 H 1213.24 2.11276 2.49058 0
M  V30 13343 H 1211.9 3.54995 0.915115 0
M  V30 13344 H 1211.55 3.72029 3.38531 0
M  V30 13345 H 1211.25 5.28001 2.57853 0
M  V30 13346 H 1212.77 5.02119 3.47432 0
M  V30 13347 H 1214.19 5.5894 1.2751 0
M  V30 13348 H 1212.59 5.97262 0.582916 0
M  V30 13349 H 1213.66 4.84174 -0.265157 0
M  V30 13350 N 1215 -0.0618163 1.57479 0
M  V30 13351 C 1215.96 -1.05684 2.0338 0
M  V30 13352 C 1216.96 -1.31006 0.932423 0
M  V30 13353 O 1218.15 -1.26559 1.19702 0
M  V30 13354 C 1215.28 -2.39805 2.42294 0
M  V30 13355 H 1216.48 -0.661006 2.92525 0
M  V30 13356 H 1214.03 -0.307814 1.53239 0
M  V30 13357 H 1214.76 -2.84201 1.56207 0
M  V30 13358 H 1214.55 -2.22764 3.22674 0
M  V30 13359 H 1216.04 -3.11307 2.78349 0
M  V30 13360 N 1216.48 -1.54033 -0.333429 0
M  V30 13361 C 1217.7 -1.76031 -1.09672 0
M  V30 13362 C 1218.13 -0.502844 -1.81254 0
M  V30 13363 O 1217.48 0.54509 -1.72912 0
M  V30 13364 C 1217.53 -2.947 -2.07809 0
M  V30 13365 O 1216.64 -2.65555 -3.15522 0
M  V30 13366 H 1215.98 -0.583611 -0.316692 0
M  V30 13367 H 1218.51 -2.01026 -0.380732 0
M  V30 13368 H 1218.52 -3.21771 -2.50853 0
M  V30 13369 H 1217.19 -3.85895 -1.55106 0
M  V30 13370 H 1215.77 -2.49403 -2.77223 0
M  V30 13371 N 1217.95 0.594978 -1.45938 0
M  V30 13372 C 1219.2 1.35361 -1.50611 0
M  V30 13373 C 1219.53 1.93898 -0.152866 0
M  V30 13374 O 1218.78 1.76275 0.850037 0
M  V30 13375 C 1219.08 2.51129 -2.54301 0
M  V30 13376 C 1218.75 2.1066 -3.98664 0
M  V30 13377 C 1217.41 1.99338 -4.3797 0
M  V30 13378 C 1219.76 1.79267 -4.894 0
M  V30 13379 C 1217.09 1.54863 -5.65893 0
M  V30 13380 C 1219.44 1.36274 -6.17748 0
M  V30 13381 C 1218.11 1.2352 -6.55972 0
M  V30 13382 H 1217.38 0.49532 -0.551125 0
M  V30 13383 H 1220.02 0.671236 -1.79351 0
M  V30 13384 H 1218.33 3.24759 -2.19177 0
M  V30 13385 H 1220.03 3.09353 -2.55151 0
M  V30 13386 H 1216.62 2.20403 -3.67587 0
M  V30 13387 H 1220.8 1.86906 -4.59761 0
M  V30 13388 H 1216.06 1.43621 -5.94292 0
M  V30 13389 H 1220.23 1.11032 -6.87492 0
M  V30 13390 H 1217.86 0.88832 -7.54992 0
M  V30 13391 N 1219.43 1.33438 0.838571 0
M  V30 13392 C 1220.68 1.24259 1.58879 0
M  V30 13393 C 1220.99 -0.189957 1.94675 0
M  V30 13394 O 1222.2 -0.40376 2.68481 0
M  V30 13395 C 1220.66 2.1773 2.86569 0
M  V30 13396 C 1220.26 3.66156 2.58135 0
M  V30 13397 C 1222.01 2.17424 3.64591 0
M  V30 13398 C 1219.92 4.5154 3.81923 0
M  V30 13399 H 1218.85 0.461534 0.59624 0
M  V30 13400 H 1221.5 1.58504 0.924588 0
M  V30 13401 H 1219.88 1.76418 3.54532 0
M  V30 13402 H 1221.05 4.1591 1.98382 0
M  V30 13403 H 1219.37 3.68754 1.93416 0
M  V30 13404 H 1221.96 2.78446 4.56478 0
M  V30 13405 H 1222.31 1.16939 3.99539 0
M  V30 13406 H 1222.84 2.571 3.03553 0
M  V30 13407 H 1219.58 5.52902 3.52107 0
M  V30 13408 H 1219.1 4.06529 4.41015 0
M  V30 13409 H 1220.78 4.65359 4.495 0
M  V30 13410 N 1220.91 -1.05686 1.16912 0
M  V30 13411 C 1221.86 -2.13312 0.88129 0
M  V30 13412 C 1222.83 -1.65199 -0.172783 0
M  V30 13413 O 1224.01 -1.90765 -0.0366542 0
M  V30 13414 C 1221.15 -3.42829 0.395264 0
M  V30 13415 C 1220.27 -4.04643 1.51288 0
M  V30 13416 C 1219.4 -5.22059 0.981238 0
M  V30 13417 C 1218.44 -5.75869 2.07464 0
M  V30 13418 N 1217.58 -6.84592 1.55813 0
M  V30 13419 H 1222.42 -2.37271 1.80295 0
M  V30 13420 H 1219.95 -1.16407 0.899322 0
M  V30 13421 H 1221.91 -4.17092 0.0950633 0
M  V30 13422 H 1220.54 -3.19068 -0.489445 0
M  V30 13423 H 1219.59 -3.27867 1.92891 0
M  V30 13424 H 1220.91 -4.40626 2.33774 0
M  V30 13425 H 1220.06 -6.03372 0.634586 0
M  V30 13426 H 1218.8 -4.87538 0.125754 0
M  V30 13427 H 1217.8 -4.93188 2.42992 0
M  V30 13428 H 1219.03 -6.12439 2.93419 0
M  V30 13429 H 1216.97 -6.51978 0.725283 0
M  V30 13430 H 1216.89 -7.19551 2.31911 0
M  V30 13431 H 1218.16 -7.6957 1.24025 0
M  V30 13432 N 1222.39 -0.968567 -1.24324 0
M  V30 13433 C 1223.34 -0.498817 -2.25345 0
M  V30 13434 C 1224.31 0.456082 -1.59716 0
M  V30 13435 O 1225.49 0.366254 -1.87252 0
M  V30 13436 C 1222.63 0.204027 -3.44496 0
M  V30 13437 C 1221.74 -0.789741 -4.2472 0
M  V30 13438 C 1220.88 -0.0629156 -5.31163 0
M  V30 13439 C 1219.92 -1.04669 -6.03084 0
M  V30 13440 N 1219.05 -0.349812 -7.01228 0
M  V30 13441 H 1223.89 -1.36511 -2.64894 0
M  V30 13442 H 1221.43 -0.684288 -1.30215 0
M  V30 13443 H 1223.39 0.628223 -4.12443 0
M  V30 13444 H 1222.02 1.03426 -3.05782 0
M  V30 13445 H 1221.07 -1.33237 -3.56303 0
M  V30 13446 H 1222.38 -1.53988 -4.74436 0
M  V30 13447 H 1221.54 0.419233 -6.0525 0
M  V30 13448 H 1220.28 0.719915 -4.82357 0
M  V30 13449 H 1219.28 -1.53971 -5.278 0
M  V30 13450 H 1220.51 -1.82998 -6.53979 0
M  V30 13451 H 1218.45 0.414026 -6.54692 0
M  V30 13452 H 1218.37 -1.03881 -7.48829 0
M  V30 13453 H 1219.64 0.11034 -7.79422 0
M  V30 13454 N 1223.87 1.39211 -0.738786 0
M  V30 13455 C 1225.28 1.83237 -0.357916 0
M  V30 13456 C 1225.63 1.61698 1.11123 0
M  V30 13457 O 1224.75 1.11017 1.85753 0
M  V30 13458 C 1225.35 3.32645 -0.64285 0
M  V30 13459 C 1223.91 3.75076 -0.315432 0
M  V30 13460 C 1223.05 2.62166 -0.903556 0
M  V30 13461 H 1226.01 1.2815 -0.936127 0
M  V30 13462 H 1226.03 3.80407 0.0840812 0
M  V30 13463 H 1225.54 3.4829 -1.71218 0
M  V30 13464 H 1223.64 3.65017 0.747907 0
M  V30 13465 H 1223.75 4.72363 -0.800638 0
M  V30 13466 H 1222.12 2.52554 -0.329927 0
M  V30 13467 H 1222.9 2.80616 -1.97761 0
M  V30 13468 N 1225.34 0.486708 1.49896 0
M  V30 13469 C 1226.59 -0.062852 2.02402 0
M  V30 13470 C 1226.92 -1.38306 1.36754 0
M  V30 13471 O 1226.17 -1.89531 0.487493 0
M  V30 13472 C 1226.47 -0.278643 3.56312 0
M  V30 13473 C 1226.14 0.961794 4.40523 0
M  V30 13474 C 1224.8 1.30185 4.63255 0
M  V30 13475 C 1227.15 1.78697 4.89609 0
M  V30 13476 C 1224.48 2.46686 5.32318 0
M  V30 13477 C 1226.83 2.9434 5.59953 0
M  V30 13478 C 1225.5 3.28742 5.80935 0
M  V30 13479 H 1224.77 -0.0229992 0.740643 0
M  V30 13480 H 1227.41 0.643963 1.80348 0
M  V30 13481 H 1225.72 -1.06785 3.76967 0
M  V30 13482 H 1227.42 -0.718078 3.94518 0
M  V30 13483 H 1224.01 0.686887 4.2306 0
M  V30 13484 H 1228.19 1.53742 4.71887 0
M  V30 13485 H 1223.45 2.73596 5.46768 0
M  V30 13486 H 1227.62 3.58616 5.96965 0
M  V30 13487 H 1225.25 4.19121 6.34225 0
M  V30 13488 N 1226.82 -1.56058 0.219941 0
M  V30 13489 C 1228.1 -1.90087 -0.46112 0
M  V30 13490 C 1228.48 -1.13705 -1.77861 0
M  V30 13491 O 1227.83 -0.245868 -2.27173 0
M  V30 13492 C 1228.04 -3.42786 -0.655644 0
M  V30 13493 C 1229.39 -4.13517 -0.963803 0
M  V30 13494 O 1230.41 -3.48376 -0.742488 0
M  V30 13495 O 1229.27 -5.28692 -1.38374 0
M  V30 13496 H 1226.36 -0.790311 -0.243595 0
M  V30 13497 H 1228.91 -1.67665 0.262005 0
M  V30 13498 H 1227.68 -3.90341 0.273738 0
M  V30 13499 H 1227.3 -3.70982 -1.43032 0
M  V30 13500 N 1228.3 0.053464 -1.57509 0
M  V30 13501 C 1229.72 0.408651 -1.5428 0
M  V30 13502 C 1229.92 1.78086 -0.942735 0
M  V30 13503 O 1228.97 2.46366 -0.553163 0
M  V30 13504 C 1230.29 0.332884 -2.98852 0
M  V30 13505 C 1231.83 0.411745 -3.1028 0
M  V30 13506 C 1232.31 0.365691 -4.56538 0
M  V30 13507 N 1233.8 0.425222 -4.61244 0
M  V30 13508 C 1234.54 0.412093 -5.71917 0
M  V30 13509 N 1234.03 0.352693 -6.91902 0
M  V30 13510 N 1235.82 0.460016 -5.60214 0
M  V30 13511 H 1227.98 -0.844834 -1.94875 0
M  V30 13512 H 1230.24 -0.318888 -0.892757 0
M  V30 13513 H 1229.94 -0.609116 -3.46385 0
M  V30 13514 H 1229.82 1.13605 -3.59686 0
M  V30 13515 H 1232.21 1.34417 -2.62709 0
M  V30 13516 H 1232.29 -0.420333 -2.52323 0
M  V30 13517 H 1231.93 -0.562963 -5.0477 0
M  V30 13518 H 1231.86 1.21555 -5.12379 0
M  V30 13519 H 1234.35 0.474634 -3.74908 0
M  V30 13520 H 1234.66 0.347105 -7.7202 0
M  V30 13521 H 1233.01 0.319104 -6.94267 0
M  V30 13522 H 1236.2 0.504242 -4.65376 0
M  V30 13523 H 1236.37 0.446315 -6.46461 0
M  V30 13524 N 1229.78 1.54207 0.325255 0
M  V30 13525 C 1231.03 1.71991 1.0613 0
M  V30 13526 C 1231.35 0.495505 1.88599 0
M  V30 13527 O 1230.62 -0.490504 1.8966 0
M  V30 13528 H 1229.2 0.634137 0.394816 0
M  V30 13529 H 1231.86 1.91507 0.362101 0
M  V30 13530 H 1230.96 2.59878 1.72829 0
M  V30 13531 N 1231.26 -0.58723 1.46251 0
M  V30 13532 C 1232.17 -1.72455 1.59048 0
M  V30 13533 C 1233.18 -1.67416 0.47413 0
M  V30 13534 O 1234.36 -1.87406 0.737633 0
M  V30 13535 C 1231.42 -3.08953 1.57318 0
M  V30 13536 C 1230.49 -3.25291 2.80151 0
M  V30 13537 C 1229.72 -4.55277 2.78493 0
M  V30 13538 O 1229.94 -5.38883 1.8698 0
M  V30 13539 O 1228.88 -4.74765 3.69975 0
M  V30 13540 H 1232.7 -1.64606 2.55223 0
M  V30 13541 H 1230.29 -0.753742 1.28993 0
M  V30 13542 H 1232.17 -3.90239 1.59033 0
M  V30 13543 H 1230.84 -3.17249 0.643025 0
M  V30 13544 H 1229.75 -2.43515 2.83991 0
M  V30 13545 H 1231.08 -3.21883 3.7236 0
M  V30 13546 N 1232.74 -1.33881 -0.831482 0
M  V30 13547 C 1233.98 -1.25942 -1.58955 0
M  V30 13548 C 1234.31 0.172542 -1.93432 0
M  V30 13549 O 1233.59 1.11577 -1.59314 0
M  V30 13550 C 1233.87 -2.14193 -2.89471 0
M  V30 13551 C 1233.73 -3.65883 -2.61628 0
M  V30 13552 C 1235.04 -2.02071 -3.90967 0
M  V30 13553 H 1232.16 -0.458841 -0.576744 0
M  V30 13554 H 1234.81 -1.64052 -0.958482 0
M  V30 13555 H 1232.96 -1.81821 -3.43327 0
M  V30 13556 H 1234.63 -4.08581 -2.14148 0
M  V30 13557 H 1232.87 -3.87397 -1.95208 0
M  V30 13558 H 1233.54 -4.22988 -3.54662 0
M  V30 13559 H 1236.02 -2.30476 -3.46439 0
M  V30 13560 H 1234.89 -2.66059 -4.80108 0
M  V30 13561 H 1235.15 -0.995121 -4.30755 0
M  V30 13562 N 1234.21 1.05064 -1.1747 0
M  V30 13563 C 1235.12 2.16346 -0.907286 0
M  V30 13564 C 1236.14 1.7355 0.125013 0
M  V30 13565 O 1237.32 2.01326 -0.0545551 0
M  V30 13566 C 1234.38 3.44077 -0.425681 0
M  V30 13567 C 1233.44 4.01311 -1.52473 0
M  V30 13568 C 1232.67 5.22946 -1.06601 0
M  V30 13569 O 1232.9 5.70345 0.0793329 0
M  V30 13570 O 1231.83 5.72454 -1.85958 0
M  V30 13571 H 1235.66 2.41754 -1.83817 0
M  V30 13572 H 1233.24 1.14834 -0.955693 0
M  V30 13573 H 1235.12 4.21078 -0.164689 0
M  V30 13574 H 1233.8 3.20166 0.477037 0
M  V30 13575 H 1232.71 3.25744 -1.83961 0
M  V30 13576 H 1234.04 4.29543 -2.4032 0
M  V30 13577 N 1235.69 0.975146 1.23809 0
M  V30 13578 C 1236.92 0.658605 1.96665 0
M  V30 13579 C 1237.34 -0.766744 1.71763 0
M  V30 13580 O 1236.7 -1.52151 0.985887 0
M  V30 13581 C 1236.75 0.948438 3.47904 0
M  V30 13582 O 1235.85 0.0377241 4.12383 0
M  V30 13583 H 1235.19 0.248231 0.615855 0
M  V30 13584 H 1237.72 1.30732 1.57386 0
M  V30 13585 H 1237.73 0.883 3.9833 0
M  V30 13586 H 1236.41 1.98717 3.65355 0
M  V30 13587 H 1234.98 0.157122 3.72569 0
M  V30 13588 N 1237.17 -1.38817 0.746158 0
M  V30 13589 C 1238.1 -2.28116 0.0620717 0
M  V30 13590 C 1239.08 -1.44984 -0.736097 0
M  V30 13591 O 1240.26 -1.7436 -0.7163 0
M  V30 13592 C 1237.39 -3.25992 -0.919065 0
M  V30 13593 C 1236.44 -4.25992 -0.208033 0
M  V30 13594 S 1237.27 -5.24374 1.08593 0
M  V30 13595 C 1238.43 -6.25807 0.107674 0
M  V30 13596 H 1238.66 -2.85787 0.819331 0
M  V30 13597 H 1236.19 -1.44708 0.538422 0
M  V30 13598 H 1238.15 -3.82899 -1.47982 0
M  V30 13599 H 1236.81 -2.67318 -1.64924 0
M  V30 13600 H 1236 -4.9495 -0.95084 0
M  V30 13601 H 1235.61 -3.72943 0.280998 0
M  V30 13602 H 1237.9 -6.73568 -0.728905 0
M  V30 13603 H 1238.84 -7.03959 0.764698 0
M  V30 13604 H 1239.25 -5.63855 -0.269706 0
M  V30 13605 N 1238.65 -0.49465 -1.49636 0
M  V30 13606 C 1239.56 0.291881 -2.32777 0
M  V30 13607 C 1240.57 0.973468 -1.44221 0
M  V30 13608 O 1241.75 0.956252 -1.77251 0
M  V30 13609 C 1238.81 1.34609 -3.19502 0
M  V30 13610 C 1237.88 0.678611 -4.23903 0
M  V30 13611 C 1237.11 1.68259 -5.06483 0
M  V30 13612 O 1237.33 2.91176 -4.90482 0
M  V30 13613 O 1236.27 1.24141 -5.88959 0
M  V30 13614 H 1240.09 -0.388459 -3.01205 0
M  V30 13615 H 1237.68 -0.256086 -1.47189 0
M  V30 13616 H 1239.56 1.95617 -3.73245 0
M  V30 13617 H 1238.23 2.00947 -2.53775 0
M  V30 13618 H 1237.14 0.0289541 -3.74089 0
M  V30 13619 H 1238.47 0.0577817 -4.92166 0
M  V30 13620 N 1240.13 1.55939 -0.228214 0
M  V30 13621 C 1241.4 1.90329 0.451033 0
M  V30 13622 C 1241.78 1.14646 1.77255 0
M  V30 13623 O 1241.13 0.257912 2.2704 0
M  V30 13624 C 1241.34 3.43129 0.637456 0
M  V30 13625 C 1242.69 4.14022 0.94186 0
M  V30 13626 O 1243.71 3.48764 0.724002 0
M  V30 13627 O 1242.57 5.29418 1.35568 0
M  V30 13628 H 1239.67 0.791591 0.2394 0
M  V30 13629 H 1242.21 1.67524 -0.270893 0
M  V30 13630 H 1240.98 3.90191 -0.294435 0
M  V30 13631 H 1240.61 3.71735 1.41062 0
M  V30 13632 N 1241.6 -0.0451101 1.57535 0
M  V30 13633 C 1242.88 -0.773625 1.79651 0
M  V30 13634 C 1243.26 -1.94422 0.822391 0
M  V30 13635 O 1242.61 -2.28077 -0.138913 0
M  V30 13636 C 1242.82 -1.22168 3.26919 0
M  V30 13637 C 1244.17 -1.64419 3.91474 0
M  V30 13638 O 1245.19 -1.31668 3.30971 0
M  V30 13639 O 1244.05 -2.25148 4.97967 0
M  V30 13640 H 1241.14 -0.372786 0.738214 0
M  V30 13641 H 1243.69 -0.0231245 1.69684 0
M  V30 13642 H 1242.46 -0.385302 3.89398 0
M  V30 13643 H 1242.09 -2.03269 3.41713 0
M  V30 13644 N 1243.08 -1.54377 -0.317073 0
M  V30 13645 C 1244.31 -1.76865 -1.07362 0
M  V30 13646 C 1244.73 -0.520354 -1.81488 0
M  V30 13647 O 1244.08 0.509213 -1.75252 0
M  V30 13648 C 1244.13 -2.96598 -2.06668 0
M  V30 13649 O 1243.85 -4.16602 -1.35552 0
M  V30 13650 C 1245.36 -3.31348 -2.94489 0
M  V30 13651 H 1242.58 -0.590277 -0.319083 0
M  V30 13652 H 1245.12 -2.01284 -0.361227 0
M  V30 13653 H 1243.27 -2.74433 -2.73432 0
M  V30 13654 H 1243.69 -4.83996 -2.02108 0
M  V30 13655 H 1245.16 -4.1841 -3.60051 0
M  V30 13656 H 1245.64 -2.48797 -3.61935 0
M  V30 13657 H 1246.25 -3.55614 -2.33278 0
M  V30 13658 N 1244.56 0.579466 -1.4656 0
M  V30 13659 C 1245.51 1.70937 -1.57744 0
M  V30 13660 C 1246.5 1.6343 -0.44577 0
M  V30 13661 O 1247.71 1.68884 -0.622762 0
M  V30 13662 H 1244.08 0.565218 -0.496017 0
M  V30 13663 H 1246.05 1.58636 -2.52739 0
M  V30 13664 C 1244.8 3.09321 -1.58794 0
M  V30 13665 H 1244.13 3.1577 -2.45213 0
M  V30 13666 H 1245.57 3.88132 -1.70674 0
M  V30 13667 C 1244.03 3.35404 -0.317165 0
M  V30 13668 O 1244.56 3.97325 0.591228 0
M  V30 13669 N 1242.76 2.89883 -0.204071 0
M  V30 13670 H 1242.31 2.39672 -0.944194 0
M  V30 13671 H 1242.27 3.07706 0.645303 0
M  V30 13672 N 1246.04 1.3432 0.824371 0
M  V30 13673 C 1247.29 1.26345 1.57738 0
M  V30 13674 C 1247.61 -0.166836 1.94285 0
M  V30 13675 O 1246.88 -1.09911 1.62162 0
M  V30 13676 H 1245.46 0.46466 0.584893 0
M  V30 13677 H 1248.12 1.68214 0.984373 0
M  V30 13678 H 1247.22 1.8672 2.50084 0
M  V30 13679 N 1247.52 -1.0444 1.18026 0
M  V30 13680 C 1248.46 -2.14474 0.900202 0
M  V30 13681 C 1249.46 -1.68836 -0.138086 0
M  V30 13682 O 1250.66 -1.79997 0.00971011 0
M  V30 13683 H 1247.04 -0.700457 0.273613 0
M  V30 13684 H 1249.01 -2.35295 1.83518 0
M  V30 13685 C 1247.76 -3.44926 0.438305 0
M  V30 13686 H 1247.08 -3.8045 1.22874 0
M  V30 13687 H 1248.52 -4.23066 0.281306 0
M  V30 13688 C 1246.98 -3.26124 -0.845268 0
M  V30 13689 O 1247.51 -3.53368 -1.91034 0
M  V30 13690 N 1245.72 -2.79474 -0.7964 0
M  V30 13691 H 1245.26 -2.57503 0.0705595 0
M  V30 13692 H 1245.22 -2.67274 -1.65566 0
M  V30 13693 N 1248.99 -0.981699 -1.2329 0
M  V30 13694 C 1249.92 -0.542441 -2.27112 0
M  V30 13695 C 1250.91 0.425034 -1.64704 0
M  V30 13696 O 1252.09 0.318114 -1.91577 0
M  V30 13697 C 1249.22 0.154668 -3.46955 0
M  V30 13698 C 1248.17 -0.73022 -4.21725 0
M  V30 13699 C 1247.5 0.0991766 -5.34608 0
M  V30 13700 C 1248.8 -2.02166 -4.81587 0
M  V30 13701 H 1250.49 -1.41024 -2.64107 0
M  V30 13702 H 1248.04 -0.679544 -1.26957 0
M  V30 13703 H 1249.99 0.473281 -4.18734 0
M  V30 13704 H 1248.72 1.05693 -3.09025 0
M  V30 13705 H 1247.38 -1.03231 -3.51765 0
M  V30 13706 H 1247.02 1.00201 -4.92919 0
M  V30 13707 H 1246.72 -0.489788 -5.85555 0
M  V30 13708 H 1248.25 0.412141 -6.09207 0
M  V30 13709 H 1249.66 -1.76773 -5.45366 0
M  V30 13710 H 1248.06 -2.55851 -5.42826 0
M  V30 13711 H 1249.13 -2.70766 -4.02261 0
M  V30 13712 N 1250.47 1.3842 -0.753509 0
M  V30 13713 C 1251.41 2.28079 -0.0741683 0
M  V30 13714 C 1252.38 1.45372 0.728398 0
M  V30 13715 O 1253.57 1.74737 0.707043 0
M  V30 13716 C 1250.69 3.26475 0.901764 0
M  V30 13717 C 1249.74 4.26097 0.185438 0
M  V30 13718 S 1250.57 5.23791 -1.11372 0
M  V30 13719 C 1251.73 6.25741 -0.140861 0
M  V30 13720 H 1251.96 2.85349 -0.834475 0
M  V30 13721 H 1249.5 1.4442 -0.546089 0
M  V30 13722 H 1251.45 3.83678 1.4595 0
M  V30 13723 H 1250.11 2.68189 1.63504 0
M  V30 13724 H 1249.31 4.95447 0.924578 0
M  V30 13725 H 1248.91 3.72789 -0.300772 0
M  V30 13726 H 1251.2 6.73945 0.693174 0
M  V30 13727 H 1252.14 7.03543 -0.80202 0
M  V30 13728 H 1252.55 5.6399 0.2398 0
M  V30 13729 N 1251.95 0.502579 1.49372 0
M  V30 13730 C 1252.86 -0.279532 2.32929 0
M  V30 13731 C 1253.88 -0.965806 1.44735 0
M  V30 13732 O 1255.05 -0.946839 1.77755 0
M  V30 13733 C 1252.12 -1.32913 3.20211 0
M  V30 13734 C 1251.18 -0.656121 4.24256 0
M  V30 13735 C 1250.41 -1.65571 5.07368 0
M  V30 13736 O 1250.63 -2.88571 4.92019 0
M  V30 13737 O 1249.57 -1.21016 5.89609 0
M  V30 13738 H 1253.39 0.404427 3.00995 0
M  V30 13739 H 1250.98 0.263888 1.47051 0
M  V30 13740 H 1252.86 -1.93635 3.74277 0
M  V30 13741 H 1251.54 -1.99598 2.54837 0
M  V30 13742 H 1250.44 -0.00911489 3.74099 0
M  V30 13743 H 1251.78 -0.0316802 4.9219 0
M  V30 13744 N 1253.43 -1.55816 0.23648 0
M  V30 13745 C 1254.67 -1.98981 -0.391725 0
M  V30 13746 C 1255.01 -1.12428 -1.58346 0
M  V30 13747 O 1254.28 -0.185303 -1.93615 0
M  V30 13748 C 1254.57 -3.50831 -0.811759 0
M  V30 13749 C 1254.42 -4.48152 0.384648 0
M  V30 13750 C 1255.74 -4.07489 -1.66254 0
M  V30 13751 H 1252.86 -0.723404 -0.140911 0
M  V30 13752 H 1255.5 -1.87011 0.335706 0
M  V30 13753 H 1253.65 -3.61162 -1.43157 0
M  V30 13754 H 1255.32 -4.49814 1.02298 0
M  V30 13755 H 1253.56 -4.21406 1.02955 0
M  V30 13756 H 1254.23 -5.51979 0.0475809 0
M  V30 13757 H 1256.71 -4.00195 -1.13944 0
M  V30 13758 H 1255.59 -5.14026 -1.92531 0
M  V30 13759 H 1255.85 -3.55297 -2.6309 0
M  V30 13760 N 1254.91 0.036755 -1.57557 0
M  V30 13761 C 1255.82 1.05687 -2.09446 0
M  V30 13762 C 1256.83 1.40137 -1.03139 0
M  V30 13763 O 1258.01 1.49611 -1.34828 0
M  V30 13764 C 1255.07 2.34114 -2.55717 0
M  V30 13765 C 1254.13 2.06316 -3.76473 0
M  V30 13766 C 1253.37 3.2862 -4.20529 0
M  V30 13767 O 1253.59 4.3902 -3.64167 0
M  V30 13768 O 1252.52 3.14772 -5.13033 0
M  V30 13769 H 1256.35 0.64593 -2.96751 0
M  V30 13770 H 1253.94 0.253235 -1.47238 0
M  V30 13771 H 1255.82 3.09631 -2.85844 0
M  V30 13772 H 1254.49 2.74519 -1.71526 0
M  V30 13773 H 1253.4 1.28392 -3.51378 0
M  V30 13774 H 1254.73 1.70772 -4.61625 0
M  V30 13775 N 1256.39 1.54543 0.308881 0
M  V30 13776 C 1257.66 1.64118 1.06418 0
M  V30 13777 C 1258.04 0.484402 2.05467 0
M  V30 13778 O 1257.39 -0.519752 2.2251 0
M  V30 13779 C 1257.6 3.01776 1.75306 0
M  V30 13780 C 1258.95 3.58324 2.27792 0
M  V30 13781 O 1259.97 3.04177 1.85351 0
M  V30 13782 O 1258.83 4.53113 3.05533 0
M  V30 13783 H 1255.93 0.665172 0.491401 0
M  V30 13784 H 1258.47 1.66889 0.307598 0
M  V30 13785 H 1257.24 3.77407 1.03341 0
M  V30 13786 H 1256.87 3.02748 2.57739 0
M  V30 13787 N 1257.86 -0.571685 1.46866 0
M  V30 13788 C 1258.8 -1.69475 1.54307 0
M  V30 13789 C 1259.81 -1.57006 0.430449 0
M  V30 13790 O 1261 -1.64229 0.69936 0
M  V30 13791 C 1258.1 -3.07824 1.41766 0
M  V30 13792 C 1257.27 -3.46189 2.67342 0
M  V30 13793 C 1256.33 -4.63642 2.48843 0
M  V30 13794 O 1255.36 -4.68949 3.22608 0
M  V30 13795 N 1256.56 -5.59223 1.55724 0
M  V30 13796 H 1259.32 -1.63543 2.51145 0
M  V30 13797 H 1256.88 -0.757957 1.43062 0
M  V30 13798 H 1258.88 -3.84208 1.27146 0
M  V30 13799 H 1257.45 -3.08063 0.530667 0
M  V30 13800 H 1256.67 -2.59399 2.96826 0
M  V30 13801 H 1257.95 -3.68591 3.50739 0
M  V30 13802 H 1257.35 -5.5768 0.949175 0
M  V30 13803 H 1255.91 -6.34993 1.47063 0
M  V30 13804 N 1259.34 -1.34755 -0.817236 0
M  V30 13805 C 1260.57 -1.30676 -1.61054 0
M  V30 13806 C 1260.99 0.115343 -1.87746 0
M  V30 13807 O 1260.35 1.07887 -1.45705 0
M  V30 13808 C 1260.4 -2.10881 -2.92509 0
M  V30 13809 O 1259.5 -1.48223 -3.84842 0
M  V30 13810 H 1258.84 -0.448531 -0.489608 0
M  V30 13811 H 1261.37 -1.77642 -1.01512 0
M  V30 13812 H 1261.38 -2.22446 -3.42026 0
M  V30 13813 H 1260.06 -3.14274 -2.72406 0
M  V30 13814 H 1258.63 -1.45434 -3.4337 0
M  V30 13815 N 1260.82 1.03812 -1.18578 0
M  V30 13816 C 1262.04 1.8124 -1.00831 0
M  V30 13817 C 1262.47 1.82917 0.43853 0
M  V30 13818 O 1261.83 1.24835 1.31476 0
M  V30 13819 C 1261.88 3.24592 -1.57075 0
M  V30 13820 O 1260.98 4.04688 -0.793824 0
M  V30 13821 H 1260.32 0.559846 -0.357028 0
M  V30 13822 H 1262.85 1.30724 -1.57393 0
M  V30 13823 H 1262.86 3.75363 -1.59896 0
M  V30 13824 H 1261.54 3.22686 -2.62387 0
M  V30 13825 H 1260.11 3.63359 -0.838134 0
M  V30 13826 N 1262.3 0.988223 1.22768 0
M  V30 13827 C 1263.23 0.47962 2.23103 0
M  V30 13828 C 1264.21 -0.457546 1.5603 0
M  V30 13829 O 1265.39 -0.384178 1.84544 0
M  V30 13830 C 1262.52 -0.305248 3.37322 0
M  V30 13831 C 1261.57 0.577215 4.22576 0
M  V30 13832 S 1262.4 2.02974 4.95542 0
M  V30 13833 C 1263.55 1.25423 6.13205 0
M  V30 13834 H 1263.79 1.32985 2.65899 0
M  V30 13835 H 1261.32 0.794824 1.3237 0
M  V30 13836 H 1263.28 -0.752057 4.03552 0
M  V30 13837 H 1261.94 -1.1307 2.93043 0
M  V30 13838 H 1261.13 -0.0264391 5.03993 0
M  V30 13839 H 1260.73 0.960593 3.61453 0
M  V30 13840 H 1263.03 0.519499 6.75505 0
M  V30 13841 H 1263.97 2.04351 6.77972 0
M  V30 13842 H 1264.38 0.769573 5.5923 0
M  V30 13843 N 1263.78 -1.38018 0.760839 0
M  V30 13844 C 1264.72 -2.32251 0.127425 0
M  V30 13845 C 1265.72 -1.54387 -0.69722 0
M  V30 13846 O 1266.92 -1.69864 -0.595505 0
M  V30 13847 H 1263.3 -0.751666 0.0224141 0
M  V30 13848 H 1265.27 -2.8327 0.93813 0
M  V30 13849 C 1264.02 -3.39606 -0.745849 0
M  V30 13850 H 1263.34 -3.99618 -0.120679 0
M  V30 13851 H 1264.78 -4.07931 -1.15621 0
M  V30 13852 C 1263.24 -2.78778 -1.89167 0
M  V30 13853 O 1263.77 -2.68661 -2.98637 0
M  V30 13854 N 1261.98 -2.36481 -1.68894 0
M  V30 13855 H 1261.52 -2.4491 -0.798551 0
M  V30 13856 H 1261.48 -1.96126 -2.45728 0
M  V30 13857 N 1265.25 -0.510493 -1.49103 0
M  V30 13858 C 1266.18 0.251999 -2.32136 0
M  V30 13859 C 1267.16 0.953613 -1.40855 0
M  V30 13860 O 1268.35 0.943178 -1.69758 0
M  V30 13861 C 1265.48 1.31118 -3.21598 0
M  V30 13862 C 1264.43 0.72888 -4.21748 0
M  V30 13863 C 1263.76 1.88928 -5.0021 0
M  V30 13864 C 1265.06 -0.286425 -5.21514 0
M  V30 13865 H 1266.75 -0.441102 -2.96133 0
M  V30 13866 H 1264.3 -0.213577 -1.42407 0
M  V30 13867 H 1266.25 1.8524 -3.78503 0
M  V30 13868 H 1264.98 2.0336 -2.55563 0
M  V30 13869 H 1263.64 0.209336 -3.66002 0
M  V30 13870 H 1263.28 2.59961 -4.30615 0
M  V30 13871 H 1262.98 1.50568 -5.67981 0
M  V30 13872 H 1264.51 2.43465 -5.59962 0
M  V30 13873 H 1265.92 0.166997 -5.73057 0
M  V30 13874 H 1264.32 -0.586361 -5.97228 0
M  V30 13875 H 1265.39 -1.19904 -4.69842 0
M  V30 13876 N 1266.73 1.55688 -0.24474 0
M  V30 13877 C 1267.98 1.98891 0.380603 0
M  V30 13878 C 1268.31 1.13283 1.58105 0
M  V30 13879 O 1267.56 0.183141 1.94841 0
M  V30 13880 C 1267.86 3.47487 0.835923 0
M  V30 13881 C 1267.53 4.5017 -0.256528 0
M  V30 13882 C 1266.19 4.7797 -0.556573 0
M  V30 13883 C 1268.54 5.1163 -0.994174 0
M  V30 13884 C 1265.87 5.64508 -1.59838 0
M  V30 13885 C 1268.22 5.99297 -2.02548 0
M  V30 13886 C 1266.88 6.25432 -2.3322 0
M  V30 13887 H 1266.15 0.727794 0.139273 0
M  V30 13888 H 1268.8 1.88235 -0.352113 0
M  V30 13889 H 1267.11 3.55464 1.64781 0
M  V30 13890 H 1268.8 3.78301 1.33001 0
M  V30 13891 H 1265.39 4.28598 -0.0125284 0
M  V30 13892 H 1269.58 4.90202 -0.775617 0
M  V30 13893 H 1264.83 5.83012 -1.84138 0
M  V30 13894 H 1269.01 6.45964 -2.60198 0
M  V30 13895 H 1266.63 6.92282 -3.14085 0
M  V30 13896 N 1268.21 -0.0283989 1.57574 0
M  V30 13897 C 1269.16 -1.04723 2.07692 0
M  V30 13898 C 1270.15 -1.37399 0.990847 0
M  V30 13899 O 1271.36 -1.36297 1.17572 0
M  V30 13900 H 1267.73 -0.355251 0.662798 0
M  V30 13901 H 1269.7 -0.598737 2.92331 0
M  V30 13902 C 1268.45 -2.33941 2.57229 0
M  V30 13903 H 1267.78 -2.09659 3.40416 0
M  V30 13904 H 1269.22 -3.03574 2.96005 0
M  V30 13905 C 1267.67 -3.02953 1.47381 0
M  V30 13906 O 1268.2 -3.9281 0.840431 0
M  V30 13907 N 1266.41 -2.64294 1.20819 0
M  V30 13908 H 1265.96 -1.91307 1.72509 0
M  V30 13909 H 1265.92 -3.10786 0.475353 0
M  V30 13910 N 1269.69 -1.54705 -0.300681 0
M  V30 13911 C 1270.96 -1.6468 -1.05546 0
M  V30 13912 C 1271.34 -0.495292 -2.05207 0
M  V30 13913 O 1270.69 0.507944 -2.22783 0
M  V30 13914 C 1270.9 -3.02702 -1.73703 0
M  V30 13915 C 1272.25 -3.59527 -2.25888 0
M  V30 13916 O 1273.27 -3.05156 -1.83735 0
M  V30 13917 O 1272.13 -4.54727 -3.03126 0
M  V30 13918 H 1269.23 -0.667769 -0.487867 0
M  V30 13919 H 1271.77 -1.6705 -0.298743 0
M  V30 13920 H 1270.55 -3.7795 -1.01338 0
M  V30 13921 H 1270.17 -3.0411 -2.5613 0
M  V30 13922 N 1271.17 0.563888 -1.47167 0
M  V30 13923 C 1272.4 1.34498 -1.56825 0
M  V30 13924 C 1272.8 1.87974 -0.215011 0
M  V30 13925 O 1272.15 1.65323 0.80087 0
M  V30 13926 C 1272.21 2.55602 -2.528 0
M  V30 13927 C 1271.87 2.23459 -3.98642 0
M  V30 13928 C 1272.87 1.81155 -4.87318 0
M  V30 13929 C 1270.56 2.35024 -4.43925 0
M  V30 13930 C 1272.55 1.50835 -6.19296 0
M  V30 13931 C 1270.24 2.04317 -5.75932 0
M  V30 13932 C 1271.23 1.6229 -6.63439 0
M  V30 13933 O 1270.92 1.31969 -7.92994 0
M  V30 13934 H 1270.65 0.416551 -0.532411 0
M  V30 13935 H 1273.21 0.690611 -1.93442 0
M  V30 13936 H 1271.44 3.23907 -2.11237 0
M  V30 13937 H 1273.13 3.17677 -2.52659 0
M  V30 13938 H 1273.89 1.71719 -4.53583 0
M  V30 13939 H 1269.77 2.66696 -3.76024 0
M  V30 13940 H 1273.32 1.17958 -6.87555 0
M  V30 13941 H 1269.21 2.13383 -6.09211 0
M  V30 13942 H 1269.98 1.45656 -8.05436 0
M  V30 13943 N 1272.64 1.35187 0.810078 0
M  V30 13944 C 1274.06 1.25329 1.38381 0
M  V30 13945 C 1274.41 -0.115799 1.95858 0
M  V30 13946 O 1273.53 -1.01663 1.91033 0
M  V30 13947 C 1274.13 2.2693 2.51572 0
M  V30 13948 C 1272.69 2.20824 3.04818 0
M  V30 13949 C 1271.83 2.1283 1.7776 0
M  V30 13950 H 1274.78 1.46366 0.613402 0
M  V30 13951 H 1274.8 1.89375 3.30026 0
M  V30 13952 H 1274.32 3.26563 2.09709 0
M  V30 13953 H 1272.42 1.24589 3.51153 0
M  V30 13954 H 1272.53 3.12637 3.63036 0
M  V30 13955 H 1270.89 1.58752 1.99173 0
M  V30 13956 H 1271.68 3.14318 1.38054 0
M  V30 13957 N 1274.12 -1.03182 1.19127 0
M  V30 13958 C 1275.4 -1.73586 0.901507 0
M  V30 13959 C 1275.78 -2.02585 -0.593521 0
M  V30 13960 O 1275.13 -1.67813 -1.55084 0
M  V30 13961 C 1275.34 -3.01472 1.75829 0
M  V30 13962 C 1276.69 -3.75037 1.99078 0
M  V30 13963 O 1277.71 -3.11392 1.72956 0
M  V30 13964 O 1276.57 -4.8945 2.43108 0
M  V30 13965 H 1273.66 -0.755797 0.335708 0
M  V30 13966 H 1276.21 -1.09167 1.29925 0
M  V30 13967 H 1274.98 -2.76247 2.77134 0
M  V30 13968 H 1274.6 -3.73631 1.35963 0
M  V30 13969 N 1275.6 -0.99472 -1.22242 0
M  V30 13970 C 1276.83 -0.689809 -1.95592 0
M  V30 13971 C 1277.25 0.739321 -1.72961 0
M  V30 13972 O 1276.61 1.50563 -1.00997 0
M  V30 13973 C 1276.66 -1.00367 -3.46351 0
M  V30 13974 O 1275.76 -0.103326 -4.12271 0
M  V30 13975 H 1275.1 -0.257997 -0.611828 0
M  V30 13976 H 1277.63 -1.33219 -1.55286 0
M  V30 13977 H 1277.64 -0.946259 -3.96875 0
M  V30 13978 H 1276.32 -2.04504 -3.62148 0
M  V30 13979 H 1274.89 -0.216374 -3.72272 0
M  V30 13980 N 1277.08 1.37613 -0.768148 0
M  V30 13981 C 1278.3 2.04579 -0.340892 0
M  V30 13982 C 1278.73 1.57556 1.02751 0
M  V30 13983 O 1278.09 0.734151 1.65771 0
M  V30 13984 C 1278.13 3.58495 -0.389099 0
M  V30 13985 O 1277.24 4.07838 0.611741 0
M  V30 13986 H 1276.58 0.647246 -0.148216 0
M  V30 13987 H 1279.11 1.75999 -1.04333 0
M  V30 13988 H 1279.12 4.07263 -0.245116 0
M  V30 13989 H 1277.79 3.92076 -1.38742 0
M  V30 13990 H 1276.37 3.70399 0.431173 0
M  V30 13991 N 1278.56 0.518393 1.4883 0
M  V30 13992 C 1279.8 -0.0199348 2.0279 0
M  V30 13993 C 1280.14 -1.35026 1.39576 0
M  V30 13994 O 1279.41 -1.86927 0.537449 0
M  V30 13995 C 1279.69 -0.154184 3.5977 0
M  V30 13996 C 1279.55 1.2005 4.33484 0
M  V30 13997 C 1280.87 -0.886547 4.31078 0
M  V30 13998 H 1277.98 -0.00577061 0.736977 0
M  V30 13999 H 1280.63 0.673178 1.77675 0
M  V30 14000 H 1278.78 -0.74451 3.81299 0
M  V30 14001 H 1280.45 1.83104 4.23404 0
M  V30 14002 H 1278.69 1.78537 3.95357 0
M  V30 14003 H 1279.36 1.05968 5.41733 0
M  V30 14004 H 1281.84 -0.385711 4.14308 0
M  V30 14005 H 1280.71 -0.949355 5.40628 0
M  V30 14006 H 1280.98 -1.93424 3.97542 0
M  V30 14007 N 1280.03 -1.55556 0.252993 0
M  V30 14008 C 1281.26 -2.03945 -0.376965 0
M  V30 14009 C 1281.68 -1.13089 -1.50308 0
M  V30 14010 O 1281.04 -0.125039 -1.80868 0
M  V30 14011 C 1281.09 -3.50284 -0.856363 0
M  V30 14012 O 1280.19 -3.62551 -1.96546 0
M  V30 14013 H 1279.54 -0.659002 -0.081317 0
M  V30 14014 H 1282.07 -2.01024 0.380831 0
M  V30 14015 H 1282.08 -3.91222 -1.15798 0
M  V30 14016 H 1280.75 -4.15887 -0.0323302 0
M  V30 14017 H 1279.33 -3.33511 -1.66808 0
M  V30 14018 N 1281.51 0.0200419 -1.57587 0
M  V30 14019 C 1282.79 0.744946 -1.80859 0
M  V30 14020 C 1283.17 1.93089 -0.853218 0
M  V30 14021 O 1282.52 2.28269 0.10261 0
M  V30 14022 C 1282.73 1.16952 -3.28821 0
M  V30 14023 C 1284.08 1.5817 -3.9404 0
M  V30 14024 O 1285.1 1.26385 -3.33024 0
M  V30 14025 O 1283.96 2.17197 -5.01486 0
M  V30 14026 H 1281.05 0.360995 -0.744051 0
M  V30 14027 H 1283.6 -0.00387374 -1.697 0
M  V30 14028 H 1282.37 0.323304 -3.89962 0
M  V30 14029 H 1281.99 1.97807 -3.44903 0
M  V30 14030 N 1282.99 1.54862 0.292472 0
M  V30 14031 C 1283.95 1.8565 1.34413 0
M  V30 14032 C 1284.95 0.729868 1.43281 0
M  V30 14033 O 1286.14 0.998128 1.42769 0
M  V30 14034 C 1283.28 2.0444 2.72795 0
M  V30 14035 H 1284.47 2.79642 1.08354 0
M  V30 14036 H 1282.02 1.47055 0.529574 0
M  V30 14037 H 1282.76 1.12765 3.04063 0
M  V30 14038 H 1282.54 2.86451 2.67747 0
M  V30 14039 H 1284.03 2.296 3.48817 0
M  V30 14040 N 1284.47 -0.556076 1.47464 0
M  V30 14041 C 1285.42 -1.68406 1.60444 0
M  V30 14042 C 1286.41 -1.627 0.471713 0
M  V30 14043 O 1287.62 -1.67871 0.649551 0
M  V30 14044 H 1283.99 -0.557255 0.504946 0
M  V30 14045 H 1285.96 -1.54595 2.55231 0
M  V30 14046 C 1284.71 -3.06756 1.63695 0
M  V30 14047 H 1284.03 -3.11829 2.50206 0
M  V30 14048 H 1285.47 -3.85368 1.76827 0
M  V30 14049 C 1283.93 -3.34857 0.370485 0
M  V30 14050 O 1284.46 -3.98216 -0.527942 0
M  V30 14051 N 1282.67 -2.89521 0.250163 0
M  V30 14052 H 1282.22 -2.3814 0.982204 0
M  V30 14053 H 1282.17 -3.08694 -0.596268 0
M  V30 14054 N 1285.95 -1.35615 -0.802897 0
M  V30 14055 C 1286.86 -1.3096 -1.94645 0
M  V30 14056 C 1287.87 -0.213909 -1.7268 0
M  V30 14057 O 1289.05 -0.443932 -1.96446 0
M  V30 14058 C 1286.11 -1.08483 -3.2929 0
M  V30 14059 C 1285.18 -2.27401 -3.64126 0
M  V30 14060 C 1284.41 -2.05987 -4.92347 0
M  V30 14061 O 1284.63 -1.02819 -5.61057 0
M  V30 14062 O 1283.57 -2.93439 -5.25526 0
M  V30 14063 H 1287.39 -2.27209 -2.01519 0
M  V30 14064 H 1284.98 -1.16024 -0.941214 0
M  V30 14065 H 1286.86 -0.978118 -4.09891 0
M  V30 14066 H 1285.53 -0.152885 -3.23339 0
M  V30 14067 H 1284.44 -2.43638 -2.83886 0
M  V30 14068 H 1285.77 -3.19055 -3.74786 0
M  V30 14069 N 1287.43 1.02549 -1.19673 0
M  V30 14070 C 1288.84 1.57454 -1.00325 0
M  V30 14071 C 1289.19 1.91136 0.442889 0
M  V30 14072 O 1288.31 1.7126 1.32284 0
M  V30 14073 C 1288.91 2.86091 -1.81486 0
M  V30 14074 C 1287.47 3.37557 -1.6653 0
M  V30 14075 C 1286.61 2.1096 -1.79975 0
M  V30 14076 H 1289.56 0.850364 -1.33994 0
M  V30 14077 H 1289.59 3.5713 -1.31296 0
M  V30 14078 H 1289.1 2.61546 -2.86733 0
M  V30 14079 H 1287.2 3.67083 -0.638834 0
M  V30 14080 H 1287.31 4.1036 -2.47269 0
M  V30 14081 H 1285.68 2.22993 -1.23071 0
M  V30 14082 H 1286.46 1.88852 -2.86688 0
M  V30 14083 N 1288.9 1.00119 1.21713 0
M  V30 14084 C 1290.15 0.680377 1.90303 0
M  V30 14085 C 1290.47 -0.790927 1.7824 0
M  V30 14086 O 1289.74 -1.5676 1.17486 0
M  V30 14087 H 1288.32 0.248665 0.704397 0
M  V30 14088 H 1290.98 1.26948 1.47886 0
M  V30 14089 H 1290.08 0.950188 2.97284 0
M  V30 14090 N 1290.38 -1.37203 0.775435 0
M  V30 14091 C 1291.29 -2.34019 0.165062 0
M  V30 14092 C 1292.31 -1.6036 -0.675316 0
M  V30 14093 O 1293.48 -1.9243 -0.594375 0
M  V30 14094 C 1290.55 -3.3954 -0.700957 0
M  V30 14095 C 1289.61 -4.29015 0.156304 0
M  V30 14096 C 1288.84 -5.29497 -0.668476 0
M  V30 14097 O 1289.07 -5.37636 -1.90535 0
M  V30 14098 O 1288 -6.01852 -0.0757351 0
M  V30 14099 H 1291.83 -2.87955 0.965184 0
M  V30 14100 H 1289.41 -1.39429 0.536654 0
M  V30 14101 H 1291.29 -4.04094 -1.19524 0
M  V30 14102 H 1289.97 -2.87926 -1.4792 0
M  V30 14103 H 1288.87 -3.67549 0.69703 0
M  V30 14104 H 1290.21 -4.83944 0.897725 0
M  V30 14105 N 1291.86 -0.526279 -1.48553 0
M  V30 14106 C 1293.08 0.00731432 -2.07399 0
M  V30 14107 C 1293.51 1.27737 -1.38075 0
M  V30 14108 O 1292.87 1.75741 -0.445503 0
M  V30 14109 C 1292.92 0.218126 -3.5994 0
M  V30 14110 O 1292.02 1.28759 -3.91784 0
M  V30 14111 H 1291.36 -0.0374784 -0.662941 0
M  V30 14112 H 1293.89 -0.733133 -1.91014 0
M  V30 14113 H 1293.9 0.44192 -4.056 0
M  V30 14114 H 1292.58 -0.709668 -4.09801 0
M  V30 14115 H 1291.15 1.04674 -3.57907 0
M  V30 14116 N 1293.34 1.5542 -0.261239 0
M  V30 14117 C 1294.27 2.19334 0.665214 0
M  V30 14118 C 1295.28 1.17388 1.128 0
M  V30 14119 O 1296.47 1.44183 1.0523 0
M  V30 14120 C 1293.57 2.79425 1.91768 0
M  V30 14121 C 1292.74 4.06929 1.60399 0
M  V30 14122 C 1291.8 4.51199 2.70751 0
M  V30 14123 O 1290.83 5.17272 2.37526 0
M  V30 14124 N 1292.03 4.20179 4.00537 0
M  V30 14125 H 1294.8 2.99467 0.118262 0
M  V30 14126 H 1292.36 1.61693 -0.0817727 0
M  V30 14127 H 1294.35 3.05992 2.64861 0
M  V30 14128 H 1292.92 2.03366 2.37405 0
M  V30 14129 H 1292.14 3.87798 0.707559 0
M  V30 14130 H 1293.43 4.9003 1.36924 0
M  V30 14131 H 1292.83 3.67164 4.30357 0
M  V30 14132 H 1291.38 4.51549 4.7005 0
M  V30 14133 N 1294.82 -0.0116844 1.57596 0
M  V30 14134 C 1296.04 -0.713924 1.94725 0
M  V30 14135 C 1296.47 -1.67157 0.862565 0
M  V30 14136 O 1295.82 -1.80401 -0.180308 0
M  V30 14137 C 1295.87 -1.43214 3.30941 0
M  V30 14138 O 1294.98 -2.5461 3.24419 0
M  V30 14139 H 1294.32 -0.190772 0.636005 0
M  V30 14140 H 1296.85 0.0380247 2.04565 0
M  V30 14141 H 1296.86 -1.79819 3.66237 0
M  V30 14142 H 1295.53 -0.729906 4.09445 0
M  V30 14143 H 1294.11 -2.20419 3.00782 0
M  V30 14144 N 1296.29 -1.55015 -0.284256 0
M  V30 14145 C 1297.52 -1.79102 -1.03586 0
M  V30 14146 C 1297.94 -0.558733 -1.80343 0
M  V30 14147 O 1297.29 0.471925 -1.76293 0
M  V30 14148 C 1297.34 -3.00915 -2.0033 0
M  V30 14149 O 1297.07 -4.19384 -1.26685 0
M  V30 14150 C 1298.57 -3.3752 -2.87394 0
M  V30 14151 H 1295.79 -0.596912 -0.306491 0
M  V30 14152 H 1298.33 -2.02005 -0.31845 0
M  V30 14153 H 1296.49 -2.80171 -2.67549 0
M  V30 14154 H 1296.9 -4.88175 -1.91796 0
M  V30 14155 H 1298.37 -4.25953 -3.51095 0
M  V30 14156 H 1298.85 -2.56418 -3.56576 0
M  V30 14157 H 1299.46 -3.60483 -2.25682 0
M  V30 14158 N 1297.77 0.548248 -1.47757 0
M  V30 14159 C 1299.02 1.30139 -1.54099 0
M  V30 14160 C 1299.33 1.9445 -0.2118 0
M  V30 14161 O 1300.54 2.71067 -0.153302 0
M  V30 14162 C 1299 2.36039 -2.71687 0
M  V30 14163 C 1298.6 1.77879 -4.11173 0
M  V30 14164 C 1300.35 3.12478 -2.87329 0
M  V30 14165 C 1298.25 2.81611 -5.20047 0
M  V30 14166 H 1297.18 0.489364 -0.573619 0
M  V30 14167 H 1299.84 0.581237 -1.74051 0
M  V30 14168 H 1298.22 3.11008 -2.45132 0
M  V30 14169 H 1299.39 1.09221 -4.47669 0
M  V30 14170 H 1297.71 1.13994 -4.00493 0
M  V30 14171 H 1300.3 3.89958 -3.65837 0
M  V30 14172 H 1300.65 3.67218 -1.96103 0
M  V30 14173 H 1301.18 2.4462 -3.13697 0
M  V30 14174 H 1297.92 2.31714 -6.13179 0
M  V30 14175 H 1297.44 3.48652 -4.88059 0
M  V30 14176 H 1299.12 3.44938 -5.47382 0
M  V30 14177 N 1299.25 1.36039 0.795694 0
M  V30 14178 C 1300.5 1.29663 1.55023 0
M  V30 14179 C 1300.82 -0.125588 1.94595 0
M  V30 14180 O 1300.09 -1.06447 1.64456 0
M  V30 14181 H 1298.67 0.476962 0.574906 0
M  V30 14182 H 1301.33 1.70265 0.948471 0
M  V30 14183 H 1300.43 1.91982 2.46068 0
M  V30 14184 N 1300.73 -1.01913 1.20215 0
M  V30 14185 C 1301.69 -2.08563 0.950481 0
M  V30 14186 C 1302.69 -1.60634 -0.0729659 0
M  V30 14187 O 1303.88 -1.73437 0.162826 0
M  V30 14188 C 1301.01 -3.38171 0.430453 0
M  V30 14189 H 1302.21 -2.32323 1.89647 0
M  V30 14190 H 1299.76 -1.18674 1.01716 0
M  V30 14191 H 1300.49 -3.20086 -0.521126 0
M  V30 14192 H 1300.28 -3.74284 1.1685 0
M  V30 14193 H 1301.77 -4.16702 0.273781 0
M  V30 14194 N 1302.21 -1.00763 -1.2118 0
M  V30 14195 C 1303.46 -0.687197 -1.89633 0
M  V30 14196 C 1303.77 0.78566 -1.79128 0
M  V30 14197 O 1304.97 1.21828 -2.42632 0
M  V30 14198 C 1303.43 -1.1787 -3.40051 0
M  V30 14199 C 1303.04 -2.67782 -3.59161 0
M  V30 14200 C 1304.78 -0.933277 -4.14114 0
M  V30 14201 C 1302.69 -3.10459 -5.03358 0
M  V30 14202 H 1301.62 -0.253342 -0.710165 0
M  V30 14203 H 1304.27 -1.21914 -1.37147 0
M  V30 14204 H 1302.65 -0.574791 -3.91806 0
M  V30 14205 H 1303.83 -3.33645 -3.17833 0
M  V30 14206 H 1302.14 -2.90368 -2.98455 0
M  V30 14207 H 1304.74 -1.22766 -5.20416 0
M  V30 14208 H 1305.08 0.130431 -4.16096 0
M  V30 14209 H 1305.61 -1.50011 -3.68431 0
M  V30 14210 H 1302.35 -4.16068 -5.06525 0
M  V30 14211 H 1301.87 -2.4931 -5.45531 0
M  V30 14212 H 1303.55 -3.02589 -5.71882 0
M  V30 14213 N 1303.68 1.3679 -0.7827 0
M  V30 14214 C 1304.63 2.32019 -0.164358 0
M  V30 14215 C 1305.63 1.55476 0.672571 0
M  V30 14216 O 1306.83 1.7079 0.568406 0
M  V30 14217 H 1303.21 0.751214 -0.0343697 0
M  V30 14218 H 1305.18 2.81741 -0.983077 0
M  V30 14219 C 1303.93 3.4075 0.691727 0
M  V30 14220 H 1303.25 3.99759 0.0570885 0
M  V30 14221 H 1304.69 4.09719 1.09117 0
M  V30 14222 C 1303.15 2.81753 1.84708 0
M  V30 14223 O 1303.68 2.73378 2.94325 0
M  V30 14224 N 1301.89 2.39138 1.6511 0
M  V30 14225 H 1301.43 2.46149 0.759487 0
M  V30 14226 H 1301.39 2.0001 2.42576 0
M  V30 14227 N 1305.16 0.53415 1.48272 0
M  V30 14228 C 1306.57 0.0947592 1.86459 0
M  V30 14229 C 1306.92 -1.32906 1.44328 0
M  V30 14230 O 1306.05 -1.99605 0.835866 0
M  V30 14231 C 1306.64 0.16519 3.38397 0
M  V30 14232 C 1305.2 -0.219029 3.75762 0
M  V30 14233 C 1304.35 0.523097 2.72321 0
M  V30 14234 H 1307.3 0.74517 1.40117 0
M  V30 14235 H 1307.32 -0.622065 3.75381 0
M  V30 14236 H 1306.83 1.20157 3.69031 0
M  V30 14237 H 1304.94 -1.2574 3.50742 0
M  V30 14238 H 1305.05 0.123482 4.78941 0
M  V30 14239 H 1303.41 -0.0311323 2.54681 0
M  V30 14240 H 1304.2 1.56019 3.05799 0
M  V30 14241 N 1306.64 -1.55279 0.269478 0
M  V30 14242 C 1307.57 -2.25278 -0.614188 0
M  V30 14243 C 1308.55 -1.24092 -1.1634 0
M  V30 14244 O 1309.74 -1.52799 -1.19858 0
M  V30 14245 C 1306.87 -2.96956 -1.80096 0
M  V30 14246 C 1305.82 -4.05021 -1.38353 0
M  V30 14247 C 1305.15 -4.64244 -2.65295 0
M  V30 14248 C 1306.45 -5.19523 -0.537886 0
M  V30 14249 H 1308.14 -2.99385 -0.0304397 0
M  V30 14250 H 1305.69 -1.43994 -0.0132004 0
M  V30 14251 H 1307.64 -3.44633 -2.42499 0
M  V30 14252 H 1306.36 -2.20374 -2.41045 0
M  V30 14253 H 1305.02 -3.58146 -0.78273 0
M  V30 14254 H 1304.67 -3.84337 -3.2449 0
M  V30 14255 H 1304.37 -5.37208 -2.38079 0
M  V30 14256 H 1305.89 -5.14668 -3.28557 0
M  V30 14257 H 1307.31 -5.63287 -1.06677 0
M  V30 14258 H 1305.71 -5.99014 -0.360845 0
M  V30 14259 H 1306.78 -4.82857 0.444672 0
M  V30 14260 N 1308.12 0.00332656 -1.576 0
M  V30 14261 C 1309.08 0.980628 -2.07163 0
M  V30 14262 C 1310.08 1.27455 -0.980402 0
M  V30 14263 O 1311.27 1.22029 -1.24317 0
M  V30 14264 C 1308.4 2.30647 -2.51028 0
M  V30 14265 H 1309.6 0.551982 -2.94776 0
M  V30 14266 H 1307.15 0.250728 -1.54276 0
M  V30 14267 H 1307.88 2.78207 -1.66647 0
M  V30 14268 H 1307.67 2.10635 -3.30719 0
M  V30 14269 H 1309.16 3.00761 -2.89711 0
M  V30 14270 N 1309.6 1.55164 0.276031 0
M  V30 14271 C 1310.51 1.90928 1.36321 0
M  V30 14272 C 1311.52 0.806183 1.54197 0
M  V30 14273 O 1312.7 1.10497 1.68382 0
M  V30 14274 C 1309.76 2.17123 2.70293 0
M  V30 14275 C 1308.82 3.40703 2.6119 0
M  V30 14276 C 1308.06 3.65638 3.88773 0
M  V30 14277 O 1308.28 2.93137 4.89313 0
M  V30 14278 O 1307.21 4.59172 3.89159 0
M  V30 14279 H 1311.04 2.8347 1.08988 0
M  V30 14280 H 1308.63 1.41672 0.474292 0
M  V30 14281 H 1310.51 2.3541 3.49514 0
M  V30 14282 H 1309.18 1.27765 2.97419 0
M  V30 14283 H 1308.09 3.27754 1.80355 0
M  V30 14284 H 1309.42 4.30271 2.39014 0
M  V30 14285 N 1311.07 -0.540404 1.48045 0
M  V30 14286 C 1311.98 -1.67308 1.64455 0
M  V30 14287 C 1313 -1.65823 0.527152 0
M  V30 14288 O 1314.18 -1.84964 0.796881 0
M  V30 14289 C 1311.24 -3.03792 1.67068 0
M  V30 14290 C 1310.3 -3.16213 2.90358 0
M  V30 14291 C 1309.54 -4.46187 2.92837 0
M  V30 14292 O 1309.76 -5.32662 2.04029 0
M  V30 14293 O 1308.69 -4.62754 3.84892 0
M  V30 14294 H 1312.52 -1.56403 2.6033 0
M  V30 14295 H 1310.1 -0.712323 1.31325 0
M  V30 14296 H 1311.99 -3.84982 1.71368 0
M  V30 14297 H 1310.66 -3.15043 0.74363 0
M  V30 14298 H 1309.57 -2.34357 2.91595 0
M  V30 14299 H 1310.9 -3.09874 3.82412 0
M  V30 14300 N 1312.55 -1.36459 -0.788468 0
M  V30 14301 C 1313.78 -1.33703 -1.57502 0
M  V30 14302 C 1314.19 0.0834961 -1.89016 0
M  V30 14303 O 1313.53 1.05107 -1.50659 0
M  V30 14304 C 1313.6 -2.09424 -2.92201 0
M  V30 14305 C 1313.26 -3.58507 -2.83411 0
M  V30 14306 C 1314.26 -4.52736 -2.5559 0
M  V30 14307 C 1311.94 -4.01405 -3.01959 0
M  V30 14308 C 1313.94 -5.87841 -2.46419 0
M  V30 14309 C 1311.62 -5.366 -2.92409 0
M  V30 14310 C 1312.62 -6.29631 -2.64677 0
M  V30 14311 O 1312.31 -7.62343 -2.55124 0
M  V30 14312 H 1312.04 -0.460221 -0.495149 0
M  V30 14313 H 1314.59 -1.80163 -0.986437 0
M  V30 14314 H 1312.82 -1.5763 -3.53114 0
M  V30 14315 H 1314.51 -1.99515 -3.53481 0
M  V30 14316 H 1315.28 -4.20906 -2.40962 0
M  V30 14317 H 1311.16 -3.29367 -3.2255 0
M  V30 14318 H 1314.7 -6.60423 -2.24694 0
M  V30 14319 H 1310.6 -5.68038 -3.066 0
M  V30 14320 H 1311.37 -7.72476 -2.70598 0
M  V30 14321 N 1314.03 1.01274 -1.20754 0
M  V30 14322 C 1314.96 2.11763 -0.983805 0
M  V30 14323 C 1315.94 1.69869 0.0885635 0
M  V30 14324 O 1317.13 1.94075 -0.0697239 0
M  V30 14325 C 1314.26 3.43087 -0.539287 0
M  V30 14326 C 1313.21 3.9874 -1.55534 0
M  V30 14327 C 1312.54 5.25877 -0.967322 0
M  V30 14328 C 1313.84 4.31688 -2.94012 0
M  V30 14329 H 1315.53 2.30737 -1.90789 0
M  V30 14330 H 1313.08 1.10884 -0.918734 0
M  V30 14331 H 1315.03 4.19773 -0.369979 0
M  V30 14332 H 1313.75 3.23883 0.420435 0
M  V30 14333 H 1312.41 3.24166 -1.71207 0
M  V30 14334 H 1312.06 5.03 0.000448307 0
M  V30 14335 H 1311.76 5.64077 -1.64594 0
M  V30 14336 H 1313.28 6.05215 -0.809167 0
M  V30 14337 H 1314.7 4.99246 -2.81827 0
M  V30 14338 H 1313.1 4.81011 -3.58815 0
M  V30 14339 H 1314.17 3.4029 -3.45442 0
M  V30 14340 N 1315.51 1.01404 1.20644 0
M  V30 14341 C 1316.73 0.720839 1.9447 0
M  V30 14342 C 1317.16 -0.711711 1.74116 0
M  V30 14343 O 1316.52 -1.48938 1.03379 0
M  V30 14344 C 1316.57 1.05864 3.4471 0
M  V30 14345 O 1315.67 0.168901 4.12054 0
M  V30 14346 H 1315.01 0.267698 0.607646 0
M  V30 14347 H 1317.54 1.35672 1.53147 0
M  V30 14348 H 1317.55 1.00928 3.9532 0
M  V30 14349 H 1316.23 2.1024 3.58848 0
M  V30 14350 H 1314.8 0.275572 3.7188 0
M  V30 14351 N 1316.99 -1.36373 0.789944 0
M  V30 14352 C 1317.93 -2.30043 0.186798 0
M  V30 14353 C 1318.9 -1.52002 -0.669663 0
M  V30 14354 O 1320.09 -1.80506 -0.618232 0
M  V30 14355 C 1317.23 -3.38494 -0.671994 0
M  V30 14356 C 1316.34 -4.31522 0.203067 0
M  V30 14357 C 1315.48 -5.27057 -0.662148 0
M  V30 14358 C 1314.52 -6.11725 0.214335 0
M  V30 14359 N 1313.65 -6.99446 -0.609892 0
M  V30 14360 H 1318.49 -2.81038 0.991048 0
M  V30 14361 H 1316.03 -1.38331 0.500288 0
M  V30 14362 H 1317.99 -4.0002 -1.1849 0
M  V30 14363 H 1316.62 -2.88818 -1.44167 0
M  V30 14364 H 1315.67 -3.71146 0.833945 0
M  V30 14365 H 1316.98 -4.91005 0.878389 0
M  V30 14366 H 1316.14 -5.93875 -1.24084 0
M  V30 14367 H 1314.88 -4.6803 -1.37109 0
M  V30 14368 H 1313.88 -5.43868 0.805426 0
M  V30 14369 H 1315.11 -6.72827 0.92089 0
M  V30 14370 H 1313.05 -6.42927 -1.30312 0
M  V30 14371 H 1312.97 -7.56 0.00773786 0
M  V30 14372 H 1314.24 -7.70633 -1.1724 0
M  V30 14373 N 1318.47 -0.542005 -1.47987 0
M  V30 14374 C 1319.4 0.25143 -2.27817 0
M  V30 14375 C 1320.41 0.893436 -1.36094 0
M  V30 14376 O 1321.6 0.769849 -1.61045 0
M  V30 14377 C 1318.7 1.37236 -3.0987 0
M  V30 14378 C 1317.87 0.830021 -4.29452 0
M  V30 14379 C 1316.93 1.83356 -4.93221 0
M  V30 14380 O 1315.96 1.38571 -5.52075 0
M  V30 14381 N 1317.16 3.16631 -4.86544 0
M  V30 14382 H 1319.92 -0.433281 -2.96551 0
M  V30 14383 H 1317.49 -0.377099 -1.57447 0
M  V30 14384 H 1319.48 2.04212 -3.49399 0
M  V30 14385 H 1318.05 1.96055 -2.43478 0
M  V30 14386 H 1317.27 -0.0160827 -3.94197 0
M  V30 14387 H 1318.56 0.446762 -5.06835 0
M  V30 14388 H 1317.95 3.55673 -4.39901 0
M  V30 14389 H 1316.51 3.79207 -5.30137 0
M  V30 14390 N 1319.94 1.55134 -0.277709 0
M  V30 14391 C 1321.22 1.91667 0.390253 0
M  V30 14392 C 1321.6 1.20228 1.73518 0
M  V30 14393 O 1320.95 0.330013 2.26104 0
M  V30 14394 C 1321.16 3.44983 0.52797 0
M  V30 14395 C 1322.51 4.16809 0.809665 0
M  V30 14396 O 1323.53 3.50891 0.612679 0
M  V30 14397 O 1322.39 5.33463 1.18656 0
M  V30 14398 H 1319.48 0.798807 0.214095 0
M  V30 14399 H 1322.03 1.66577 -0.324053 0
M  V30 14400 H 1320.8 3.89056 -0.418422 0
M  V30 14401 H 1320.42 3.76035 1.29164 0
M  V30 14402 N 1321.42 0.00503138 1.57599 0
M  V30 14403 C 1322.35 -0.983586 2.11773 0
M  V30 14404 C 1323.33 -1.35518 1.02805 0
M  V30 14405 O 1324.52 -1.43804 1.30514 0
M  V30 14406 C 1321.65 -2.27383 2.62515 0
M  V30 14407 C 1320.6 -2.0437 3.76054 0
M  V30 14408 C 1319.93 -3.39451 4.1313 0
M  V30 14409 C 1321.23 -1.40223 5.03125 0
M  V30 14410 H 1322.92 -0.532501 2.94627 0
M  V30 14411 H 1320.47 -0.254696 1.4173 0
M  V30 14412 H 1322.42 -2.96903 2.99043 0
M  V30 14413 H 1321.14 -2.74614 1.7679 0
M  V30 14414 H 1319.8 -1.37275 3.39928 0
M  V30 14415 H 1319.45 -3.84395 3.24422 0
M  V30 14416 H 1319.15 -3.24868 4.89627 0
M  V30 14417 H 1320.68 -4.10279 4.52221 0
M  V30 14418 H 1322.09 -1.99708 5.37392 0
M  V30 14419 H 1320.49 -1.36112 5.8446 0
M  V30 14420 H 1321.56 -0.372073 4.8347 0
M  V30 14421 N 1322.9 -1.55308 -0.267798 0
M  V30 14422 C 1323.83 -1.91555 -1.33525 0
M  V30 14423 C 1324.81 -0.778001 -1.51265 0
M  V30 14424 O 1326 -1.03657 -1.64222 0
M  V30 14425 C 1323.13 -2.19201 -2.69385 0
M  V30 14426 C 1322.08 -3.3501 -2.66369 0
M  V30 14427 C 1321.41 -3.48148 -4.05829 0
M  V30 14428 C 1322.71 -4.71265 -2.25182 0
M  V30 14429 H 1324.4 -2.80965 -1.03437 0
M  V30 14430 H 1321.95 -1.35183 -0.496141 0
M  V30 14431 H 1323.9 -2.43146 -3.44177 0
M  V30 14432 H 1322.62 -1.26596 -3.01067 0
M  V30 14433 H 1321.28 -3.11041 -1.94034 0
M  V30 14434 H 1320.93 -2.53 -4.34741 0
M  V30 14435 H 1320.63 -4.26014 -4.04704 0
M  V30 14436 H 1322.15 -3.74391 -4.82352 0
M  V30 14437 H 1323.57 -4.94719 -2.89699 0
M  V30 14438 H 1321.96 -5.52084 -2.3521 0
M  V30 14439 H 1323.03 -4.69735 -1.20319 0
M  V30 14440 N 1324.38 0.532545 -1.4833 0
M  V30 14441 C 1325.62 1.28851 -1.56217 0
M  V30 14442 C 1325.95 1.93076 -0.234967 0
M  V30 14443 O 1325.21 1.79722 0.774508 0
M  V30 14444 C 1325.51 2.40117 -2.64724 0
M  V30 14445 C 1325.17 1.93562 -4.0724 0
M  V30 14446 C 1323.83 1.80583 -4.46031 0
M  V30 14447 C 1326.19 1.58349 -4.96563 0
M  V30 14448 C 1323.51 1.30722 -5.71952 0
M  V30 14449 C 1325.87 1.09951 -6.22972 0
M  V30 14450 C 1324.53 0.955866 -6.60621 0
M  V30 14451 H 1323.8 0.4715 -0.571637 0
M  V30 14452 H 1326.45 0.594564 -1.82036 0
M  V30 14453 H 1324.75 3.15171 -2.32754 0
M  V30 14454 H 1326.45 2.98252 -2.68042 0
M  V30 14455 H 1323.04 2.04614 -3.76605 0
M  V30 14456 H 1327.22 1.67237 -4.67274 0
M  V30 14457 H 1322.48 1.18286 -5.99849 0
M  V30 14458 H 1326.65 0.817736 -6.91582 0
M  V30 14459 H 1324.28 0.567302 -7.5808 0
M  V30 14460 N 1325.86 1.36875 0.78122 0
M  V30 14461 C 1326.79 1.34559 1.9083 0
M  V30 14462 C 1327.77 0.215713 1.68727 0
M  V30 14463 O 1328.95 0.41462 1.89722 0
M  V30 14464 C 1326.08 1.14233 3.27976 0
M  V30 14465 C 1325.04 2.24132 3.64621 0
M  V30 14466 C 1324.36 1.8894 5.00206 0
M  V30 14467 C 1325.66 3.66266 3.72353 0
M  V30 14468 H 1327.36 2.28871 1.93025 0
M  V30 14469 H 1324.9 1.10171 0.927275 0
M  V30 14470 H 1326.85 1.11246 4.06451 0
M  V30 14471 H 1325.58 0.163747 3.26189 0
M  V30 14472 H 1324.24 2.26259 2.88448 0
M  V30 14473 H 1323.89 0.896351 4.94949 0
M  V30 14474 H 1323.59 2.62525 5.25694 0
M  V30 14475 H 1325.11 1.87523 5.81092 0
M  V30 14476 H 1326.52 3.66321 4.41001 0
M  V30 14477 H 1324.92 4.38825 4.09332 0
M  V30 14478 H 1325.99 4.00578 2.7325 0
M  V30 14479 N 1327.33 -1.00632 1.21289 0
M  V30 14480 C 1328.61 -1.71635 0.938124 0
M  V30 14481 C 1328.99 -2.03798 -0.550416 0
M  V30 14482 O 1328.34 -1.71065 -1.5149 0
M  V30 14483 C 1328.55 -2.97674 1.82184 0
M  V30 14484 C 1329.9 -3.7073 2.06989 0
M  V30 14485 O 1330.92 -3.07653 1.79522 0
M  V30 14486 O 1329.78 -4.84183 2.53435 0
M  V30 14487 H 1326.87 -0.748506 0.351664 0
M  V30 14488 H 1329.42 -1.06387 1.32212 0
M  V30 14489 H 1328.19 -2.70306 2.82931 0
M  V30 14490 H 1327.81 -3.70663 1.43858 0
M  V30 14491 N 1328.81 -1.02043 -1.20104 0
M  V30 14492 C 1329.74 -0.538603 -2.21753 0
M  V30 14493 C 1330.72 0.416016 -1.57188 0
M  V30 14494 O 1331.91 0.335114 -1.85497 0
M  V30 14495 C 1329.03 0.215706 -3.38012 0
M  V30 14496 C 1328.08 -0.68905 -4.20897 0
M  V30 14497 S 1328.91 -2.16041 -4.89986 0
M  V30 14498 C 1330.07 -1.41637 -6.09664 0
M  V30 14499 H 1330.3 -1.39988 -2.6228 0
M  V30 14500 H 1327.83 -0.829641 -1.30216 0
M  V30 14501 H 1329.79 0.644798 -4.05404 0
M  V30 14502 H 1328.45 1.0526 -2.95938 0
M  V30 14503 H 1327.65 -0.107195 -5.03886 0
M  V30 14504 H 1327.25 -1.05609 -3.5878 0
M  V30 14505 H 1329.54 -0.698414 -6.73891 0
M  V30 14506 H 1330.48 -2.22254 -6.72316 0
M  V30 14507 H 1330.89 -0.917572 -5.56993 0
M  V30 14508 N 1330.29 1.35952 -0.797165 0
M  V30 14509 C 1331.22 2.32506 -0.215277 0
M  V30 14510 C 1332.2 1.57023 0.654046 0
M  V30 14511 O 1333.39 1.85139 0.586268 0
M  V30 14512 C 1330.52 3.41266 0.644557 0
M  V30 14513 C 1329.47 4.27816 -0.125501 0
M  V30 14514 C 1328.8 5.27813 0.855428 0
M  V30 14515 C 1330.1 5.05367 -1.31913 0
M  V30 14516 H 1331.79 2.8142 -1.02193 0
M  V30 14517 H 1329.34 1.35303 -0.492862 0
M  V30 14518 H 1331.29 4.07808 1.06163 0
M  V30 14519 H 1330.01 2.90938 1.484 0
M  V30 14520 H 1328.67 3.62841 -0.523639 0
M  V30 14521 H 1328.32 4.73755 1.69011 0
M  V30 14522 H 1328.02 5.86589 0.344566 0
M  V30 14523 H 1329.54 5.97227 1.2709 0
M  V30 14524 H 1330.96 5.64907 -0.977418 0
M  V30 14525 H 1329.36 5.73593 -1.76382 0
M  V30 14526 H 1330.43 4.36558 -2.11057 0
M  V30 14527 N 1331.77 0.549846 1.47697 0
M  V30 14528 C 1332.72 -0.201961 2.29915 0
M  V30 14529 C 1333.69 -0.915287 1.38606 0
M  V30 14530 O 1334.87 -0.912427 1.67569 0
M  V30 14531 C 1332.01 -1.2306 3.22413 0
M  V30 14532 C 1331.12 -0.524091 4.28809 0
M  V30 14533 C 1330.26 -1.53738 5.08466 0
M  V30 14534 C 1329.3 -0.815437 6.06644 0
M  V30 14535 N 1328.43 -1.77521 6.79287 0
M  V30 14536 H 1333.27 0.505289 2.93685 0
M  V30 14537 H 1330.81 0.261012 1.44766 0
M  V30 14538 H 1332.77 -1.83949 3.74458 0
M  V30 14539 H 1331.4 -1.90597 2.60523 0
M  V30 14540 H 1330.45 0.199174 3.79878 0
M  V30 14541 H 1331.76 0.0418145 4.98782 0
M  V30 14542 H 1330.92 -2.22001 5.64624 0
M  V30 14543 H 1329.66 -2.1372 4.38378 0
M  V30 14544 H 1328.66 -0.11884 5.49672 0
M  V30 14545 H 1329.89 -0.221462 6.78739 0
M  V30 14546 H 1327.83 -2.36374 6.11934 0
M  V30 14547 H 1327.75 -1.26126 7.45405 0
M  V30 14548 H 1329.02 -2.44921 7.40023 0
M  V30 14549 N 1333.25 -1.54984 0.285932 0
M  V30 14550 C 1334.49 -1.9983 -0.327737 0
M  V30 14551 C 1334.82 -1.17435 -1.55046 0
M  V30 14552 O 1334.08 -0.234735 -1.94287 0
M  V30 14553 C 1334.38 -3.49581 -0.7435 0
M  V30 14554 C 1334.04 -4.49331 0.375792 0
M  V30 14555 C 1332.7 -4.76327 0.683103 0
M  V30 14556 C 1335.06 -5.08815 1.12947 0
M  V30 14557 C 1332.38 -5.60071 1.74748 0
M  V30 14558 C 1334.74 -5.93716 2.18366 0
M  V30 14559 C 1333.4 -6.19028 2.4972 0
M  V30 14560 H 1332.67 -0.731231 -0.119928 0
M  V30 14561 H 1335.32 -1.87235 0.401896 0
M  V30 14562 H 1333.62 -3.59708 -1.55298 0
M  V30 14563 H 1335.32 -3.81694 -1.22924 0
M  V30 14564 H 1331.91 -4.28414 0.126159 0
M  V30 14565 H 1336.09 -4.87973 0.905313 0
M  V30 14566 H 1331.35 -5.77925 1.9953 0
M  V30 14567 H 1335.52 -6.38838 2.77233 0
M  V30 14568 H 1333.15 -6.83711 3.3233 0
M  V30 14569 N 1334.72 -0.0133892 -1.57594 0
M  V30 14570 C 1335.65 0.972341 -2.12292 0
M  V30 14571 C 1336.64 1.34971 -1.03522 0
M  V30 14572 O 1337.82 1.4311 -1.31275 0
M  V30 14573 C 1334.95 2.25988 -2.63717 0
M  V30 14574 C 1333.9 2.02373 -3.77133 0
M  V30 14575 C 1333.23 3.37256 -4.14925 0
M  V30 14576 C 1334.53 1.37553 -5.03861 0
M  V30 14577 H 1336.22 0.516869 -2.94905 0
M  V30 14578 H 1333.77 0.247176 -1.41863 0
M  V30 14579 H 1335.72 2.95313 -3.00613 0
M  V30 14580 H 1334.45 2.73672 -1.78244 0
M  V30 14581 H 1333.11 1.3547 -3.40651 0
M  V30 14582 H 1332.75 3.82669 -3.26456 0
M  V30 14583 H 1332.45 3.22267 -4.91343 0
M  V30 14584 H 1333.98 4.07875 -4.5439 0
M  V30 14585 H 1335.39 1.96855 -5.38443 0
M  V30 14586 H 1333.79 1.33011 -5.85174 0
M  V30 14587 H 1334.86 0.346429 -4.83661 0
M  V30 14588 N 1336.2 1.55448 0.259558 0
M  V30 14589 C 1337.44 1.78444 0.996849 0
M  V30 14590 C 1337.81 0.580862 1.83003 0
M  V30 14591 O 1339.01 0.68934 2.59811 0
M  V30 14592 C 1337.28 3.06094 1.84502 0
M  V30 14593 S 1338.84 3.50263 2.64313 0
M  V30 14594 H 1335.66 0.626854 0.335523 0
M  V30 14595 H 1338.26 1.93683 0.265929 0
M  V30 14596 H 1336.96 3.91772 1.22241 0
M  V30 14597 H 1336.49 2.93558 2.61891 0
M  V30 14598 H 1338.51 3.10596 3.86968 0
M  V30 14599 N 1337.68 -0.524672 1.4861 0
M  V30 14600 C 1338.61 -1.63782 1.66426 0
M  V30 14601 C 1339.59 -1.62177 0.513077 0
M  V30 14602 O 1340.78 -1.7929 0.74623 0
M  V30 14603 C 1337.91 -3.02354 1.70877 0
M  V30 14604 C 1336.86 -3.18819 2.85549 0
M  V30 14605 C 1336.19 -4.58506 2.75094 0
M  V30 14606 C 1337.49 -3.01086 4.26784 0
M  V30 14607 H 1339.18 -1.49127 2.59618 0
M  V30 14608 H 1336.73 -0.715997 1.24938 0
M  V30 14609 H 1338.68 -3.80105 1.81929 0
M  V30 14610 H 1337.4 -3.18044 0.742682 0
M  V30 14611 H 1336.06 -2.43487 2.74061 0
M  V30 14612 H 1335.71 -4.71038 1.76443 0
M  V30 14613 H 1335.41 -4.70466 3.52044 0
M  V30 14614 H 1336.93 -5.38348 2.88121 0
M  V30 14615 H 1338.35 -3.68624 4.39077 0
M  V30 14616 H 1336.75 -3.24536 5.04774 0
M  V30 14617 H 1337.82 -1.97454 4.42877 0
M  V30 14618 N 1339.16 -1.37287 -0.77395 0
M  V30 14619 C 1340.4 -1.33771 -1.54547 0
M  V30 14620 C 1340.76 0.0778134 -1.91842 0
M  V30 14621 O 1341.96 0.237682 -2.67747 0
M  V30 14622 C 1340.23 -2.24859 -2.77801 0
M  V30 14623 S 1341.79 -2.39172 -3.67889 0
M  V30 14624 H 1338.61 -0.474918 -0.529126 0
M  V30 14625 H 1341.21 -1.73015 -0.910287 0
M  V30 14626 H 1339.92 -3.2663 -2.48478 0
M  V30 14627 H 1339.45 -1.86691 -3.4628 0
M  V30 14628 H 1341.46 -1.60068 -4.69673 0
M  V30 14629 N 1340.64 0.999871 -1.21821 0
M  V30 14630 C 1341.88 1.74098 -1.04009 0
M  V30 14631 C 1342.22 1.89499 0.424716 0
M  V30 14632 O 1341.49 1.43306 1.31505 0
M  V30 14633 C 1341.77 3.1506 -1.74382 0
M  V30 14634 C 1341.63 3.0735 -3.28414 0
M  V30 14635 C 1342.95 4.1409 -1.49055 0
M  V30 14636 H 1340.06 0.631935 -0.379245 0
M  V30 14637 H 1342.71 1.16534 -1.50066 0
M  V30 14638 H 1340.86 3.64206 -1.35227 0
M  V30 14639 H 1342.53 2.65879 -3.76969 0
M  V30 14640 H 1340.77 2.44325 -3.58452 0
M  V30 14641 H 1341.44 4.07069 -3.72825 0
M  V30 14642 H 1343.92 3.73672 -1.83054 0
M  V30 14643 H 1342.79 5.10853 -2.008 0
M  V30 14644 H 1343.06 4.40085 -0.421641 0
M  V30 14645 N 1342.11 1.02678 1.19562 0
M  V30 14646 C 1343.34 0.741569 1.93154 0
M  V30 14647 C 1343.76 -0.699292 1.75372 0
M  V30 14648 O 1343.11 -1.47533 1.07426 0
M  V30 14649 C 1343.17 1.08064 3.4497 0
M  V30 14650 O 1342.89 2.46492 3.62179 0
M  V30 14651 C 1344.39 0.817935 4.35689 0
M  V30 14652 H 1341.61 0.271506 0.613617 0
M  V30 14653 H 1344.15 1.3707 1.51763 0
M  V30 14654 H 1342.31 0.496723 3.84202 0
M  V30 14655 H 1342.72 2.59053 4.56061 0
M  V30 14656 H 1344.19 1.10517 5.40823 0
M  V30 14657 H 1344.67 -0.247693 4.38501 0
M  V30 14658 H 1345.28 1.38449 4.02134 0
M  V30 14659 N 1343.59 -1.35528 0.804364 0
M  V30 14660 C 1344.82 -2.03073 0.396091 0
M  V30 14661 C 1345.24 -1.60623 -0.992252 0
M  V30 14662 O 1344.59 -0.802718 -1.63898 0
M  V30 14663 C 1344.64 -3.58467 0.467301 0
M  V30 14664 O 1344.36 -3.99373 1.80091 0
M  V30 14665 C 1345.87 -4.4327 0.0515549 0
M  V30 14666 H 1343.09 -0.651346 0.161212 0
M  V30 14667 H 1345.63 -1.73195 1.08737 0
M  V30 14668 H 1343.78 -3.87001 -0.175703 0
M  V30 14669 H 1344.2 -4.94013 1.76214 0
M  V30 14670 H 1345.67 -5.51789 0.152499 0
M  V30 14671 H 1346.15 -4.27597 -1.00286 0
M  V30 14672 H 1346.76 -4.20027 0.667628 0
M  V30 14673 N 1345.07 -0.557671 -1.47404 0
M  V30 14674 C 1346.03 0.179311 -2.28498 0
M  V30 14675 C 1347.03 0.842281 -1.36975 0
M  V30 14676 O 1348.22 0.698072 -1.59601 0
M  V30 14677 C 1345.36 1.26229 -3.16668 0
M  V30 14678 H 1346.55 -0.533033 -2.95125 0
M  V30 14679 H 1344.1 -0.314634 -1.531 0
M  V30 14680 H 1344.84 2.00702 -2.54733 0
M  V30 14681 H 1344.62 0.791712 -3.84024 0
M  V30 14682 H 1346.11 1.77991 -3.77768 0
M  V30 14683 N 1346.55 1.54831 -0.294147 0
M  V30 14684 C 1347.48 2.20696 0.61854 0
M  V30 14685 C 1348.49 1.19754 1.10285 0
M  V30 14686 O 1349.68 1.46383 1.02148 0
M  V30 14687 C 1346.78 2.83429 1.85798 0
M  V30 14688 C 1345.96 4.10239 1.51731 0
M  V30 14689 C 1345.02 4.56841 2.61119 0
M  V30 14690 O 1344.04 5.22194 2.26501 0
M  V30 14691 N 1345.24 4.2858 3.91534 0
M  V30 14692 H 1348.01 2.9965 0.054714 0
M  V30 14693 H 1345.57 1.61484 -0.116052 0
M  V30 14694 H 1347.56 3.11541 2.5831 0
M  V30 14695 H 1346.13 2.08356 2.33038 0
M  V30 14696 H 1345.35 3.89212 0.625142 0
M  V30 14697 H 1346.64 4.92824 1.26499 0
M  V30 14698 H 1346.04 3.7621 4.22472 0
M  V30 14699 H 1344.59 4.61418 4.60366 0
M  V30 14700 N 1348.03 0.0217466 1.57585 0
M  V30 14701 C 1349.26 -0.668881 1.9579 0
M  V30 14702 C 1349.67 -1.66085 0.897849 0
M  V30 14703 O 1349.03 -1.82098 -0.121099 0
M  V30 14704 C 1349.08 -1.38174 3.34051 0
M  V30 14705 O 1348.8 -0.429527 4.35989 0
M  V30 14706 C 1350.3 -2.16487 3.86844 0
M  V30 14707 H 1347.52 -0.184919 0.645016 0
M  V30 14708 H 1350.06 0.0793241 2.04346 0
M  V30 14709 H 1348.22 -2.0814 3.26736 0
M  V30 14710 H 1348.63 -0.934887 5.16101 0
M  V30 14711 H 1350.11 -2.61829 4.85952 0
M  V30 14712 H 1350.58 -3.00082 3.20698 0
M  V30 14713 H 1351.19 -1.51493 3.97404 0
M  V30 14714 N 1349.51 -1.55583 -0.251311 0
M  V30 14715 C 1350.45 -1.90764 -1.33086 0
M  V30 14716 C 1351.45 -0.786236 -1.50049 0
M  V30 14717 O 1352.65 -0.97081 -1.51576 0
M  V30 14718 H 1349.03 -0.605795 -0.445551 0
M  V30 14719 H 1351 -2.80903 -1.00678 0
M  V30 14720 C 1349.75 -2.21499 -2.68018 0
M  V30 14721 H 1349.07 -3.07287 -2.55763 0
M  V30 14722 H 1350.51 -2.50021 -3.42441 0
M  V30 14723 C 1348.97 -1.02983 -3.20774 0
M  V30 14724 O 1349.5 -0.275557 -4.00754 0
M  V30 14725 N 1347.71 -0.821649 -2.78742 0
M  V30 14726 H 1347.25 -1.43672 -2.13813 0
M  V30 14727 H 1347.21 -0.0303445 -3.14385 0
M  V30 14728 N 1350.98 0.516783 -1.48886 0
M  V30 14729 C 1352.21 1.29628 -1.61258 0
M  V30 14730 C 1352.63 1.86744 -0.27786 0
M  V30 14731 O 1351.98 1.67061 0.734639 0
M  V30 14732 C 1352.03 2.43779 -2.66935 0
M  V30 14733 O 1351.76 1.89014 -3.95228 0
M  V30 14734 C 1353.26 3.35398 -2.89867 0
M  V30 14735 H 1350.48 0.393736 -0.543335 0
M  V30 14736 H 1353.02 0.622069 -1.94809 0
M  V30 14737 H 1351.18 3.0706 -2.36206 0
M  V30 14738 H 1351.59 2.63833 -4.53312 0
M  V30 14739 H 1353.06 4.11812 -3.6758 0
M  V30 14740 H 1353.54 3.91436 -1.99185 0
M  V30 14741 H 1354.15 2.77898 -3.21952 0
M  V30 14742 N 1352.46 1.37696 0.766659 0
M  V30 14743 C 1353.71 1.33382 1.52765 0
M  V30 14744 C 1354.04 -0.0800569 1.94035 0
M  V30 14745 O 1353.32 -1.03848 1.64456 0
M  V30 14746 C 1353.6 2.2776 2.78922 0
M  V30 14747 C 1353.45 3.77949 2.43874 0
M  V30 14748 C 1354.77 2.20494 3.80881 0
M  V30 14749 H 1351.89 0.485836 0.554195 0
M  V30 14750 H 1354.53 1.68438 0.879119 0
M  V30 14751 H 1352.68 1.97994 3.34261 0
M  V30 14752 H 1354.35 4.18333 1.9441 0
M  V30 14753 H 1352.6 3.96269 1.76503 0
M  V30 14754 H 1353.27 4.39428 3.34077 0
M  V30 14755 H 1355.74 2.46742 3.35048 0
M  V30 14756 H 1354.62 2.88663 4.66867 0
M  V30 14757 H 1354.88 1.19951 4.25516 0
M  V30 14758 N 1353.94 -0.993397 1.22349 0
M  V30 14759 C 1355.16 -1.77373 1.07488 0
M  V30 14760 C 1355.59 -1.84418 -0.37034 0
M  V30 14761 O 1354.95 -1.29629 -1.26752 0
M  V30 14762 C 1355 -3.18538 1.69014 0
M  V30 14763 O 1354.1 -4.01463 0.943474 0
M  V30 14764 H 1353.44 -0.546209 0.37756 0
M  V30 14765 H 1355.97 -1.24792 1.62136 0
M  V30 14766 H 1355.98 -3.6917 1.73717 0
M  V30 14767 H 1354.66 -3.12725 2.74182 0
M  V30 14768 H 1353.23 -3.59998 0.972415 0
M  V30 14769 N 1355.42 -1.03311 -1.19015 0
M  V30 14770 C 1356.66 -0.732039 -1.88805 0
M  V30 14771 C 1356.99 0.739688 -1.79886 0
M  V30 14772 O 1356.25 1.55476 -1.18851 0
M  V30 14773 C 1356.55 -1.13402 -3.38932 0
M  V30 14774 C 1356.21 -2.60473 -3.68055 0
M  V30 14775 C 1354.87 -3.00654 -3.75713 0
M  V30 14776 C 1357.23 -3.55604 -3.81045 0
M  V30 14777 C 1354.55 -4.3487 -3.93833 0
M  V30 14778 C 1356.91 -4.89529 -4.00679 0
M  V30 14779 C 1355.57 -5.29392 -4.06571 0
M  V30 14780 H 1354.84 -0.267872 -0.690888 0
M  V30 14781 H 1357.49 -1.29673 -1.40915 0
M  V30 14782 H 1355.79 -0.487997 -3.88749 0
M  V30 14783 H 1357.49 -0.878532 -3.91258 0
M  V30 14784 H 1354.08 -2.28348 -3.62706 0
M  V30 14785 H 1358.26 -3.25711 -3.74467 0
M  V30 14786 H 1353.52 -4.65285 -3.96636 0
M  V30 14787 H 1357.69 -5.63153 -4.09672 0
M  V30 14788 H 1355.32 -6.33402 -4.20364 0
M  V30 14789 N 1356.9 1.35099 -0.81154 0
M  V30 14790 C 1358.31 1.51701 -0.495883 0
M  V30 14791 C 1358.51 1.7595 0.982035 0
M  V30 14792 O 1357.57 1.8038 1.7669 0
M  V30 14793 C 1358.88 2.68916 -1.34554 0
M  V30 14794 C 1360.43 2.82795 -1.34149 0
M  V30 14795 C 1360.9 4.0304 -2.17538 0
M  V30 14796 N 1362.39 4.10227 -2.151 0
M  V30 14797 C 1363.13 5.02397 -2.76377 0
M  V30 14798 N 1362.63 5.99866 -3.46601 0
M  V30 14799 N 1364.42 4.95181 -2.65992 0
M  V30 14800 H 1356.57 1.17617 -1.76862 0
M  V30 14801 H 1358.83 0.575875 -0.753042 0
M  V30 14802 H 1358.54 2.57591 -2.39458 0
M  V30 14803 H 1358.41 3.63641 -1.00223 0
M  V30 14804 H 1360.8 2.93568 -0.300285 0
M  V30 14805 H 1360.88 1.88912 -1.7247 0
M  V30 14806 H 1360.52 3.93027 -3.21702 0
M  V30 14807 H 1360.45 4.96114 -1.76574 0
M  V30 14808 H 1362.95 3.40454 -1.6401 0
M  V30 14809 H 1363.26 6.66803 -3.90632 0
M  V30 14810 H 1361.6 6.00025 -3.50706 0
M  V30 14811 H 1364.79 4.17991 -2.10715 0
M  V30 14812 H 1364.97 5.6682 -3.14036 0
M  V30 14813 N 1358.37 0.56548 1.47106 0
M  V30 14814 C 1359.34 -0.167191 2.28589 0
M  V30 14815 C 1360.34 -0.835005 1.3742 0
M  V30 14816 O 1361.53 -0.689598 1.59969 0
M  V30 14817 C 1358.66 -1.24548 3.17333 0
M  V30 14818 H 1359.85 0.548677 2.94838 0
M  V30 14819 H 1357.4 0.322749 1.52931 0
M  V30 14820 H 1358.14 -1.99348 2.55794 0
M  V30 14821 H 1357.92 -0.771335 3.84438 0
M  V30 14822 H 1359.41 -1.75985 3.78707 0
M  V30 14823 N 1359.85 -1.54672 0.302354 0
M  V30 14824 C 1360.82 -2.22246 -0.560283 0
M  V30 14825 C 1361.82 -1.20895 -1.06023 0
M  V30 14826 O 1363.01 -1.45621 -0.956047 0
M  V30 14827 C 1360.14 -2.9099 -1.77589 0
M  V30 14828 H 1361.33 -2.99885 0.0301274 0
M  V30 14829 H 1358.88 -1.56209 0.0532036 0
M  V30 14830 H 1359.62 -2.17433 -2.4061 0
M  V30 14831 H 1359.4 -3.65288 -1.42503 0
M  V30 14832 H 1360.89 -3.42535 -2.38871 0
M  V30 14833 N 1361.33 -0.0301034 -1.57571 0
M  V30 14834 C 1362.61 0.68703 -1.83137 0
M  V30 14835 C 1362.99 1.90277 -0.914216 0
M  V30 14836 O 1362.34 2.2848 0.0299358 0
M  V30 14837 C 1362.55 1.06431 -3.32375 0
M  V30 14838 C 1363.89 1.45554 -3.98873 0
M  V30 14839 O 1364.92 1.15727 -3.36877 0
M  V30 14840 O 1363.78 2.01133 -5.08142 0
M  V30 14841 H 1360.87 0.337141 -0.755159 0
M  V30 14842 H 1363.42 -0.0578604 -1.69601 0
M  V30 14843 H 1362.19 0.199077 -3.90793 0
M  V30 14844 H 1361.81 1.86734 -3.51022 0
M  V30 14845 N 1362.81 1.55714 0.243056 0
M  V30 14846 C 1364.06 1.76927 0.96849 0
M  V30 14847 C 1364.37 0.594748 1.86339 0
M  V30 14848 O 1365.58 0.689981 2.62586 0
M  V30 14849 C 1364.03 3.13246 1.77214 0
M  V30 14850 C 1363.64 4.38358 0.92444 0
M  V30 14851 C 1365.38 3.43796 2.49007 0
M  V30 14852 C 1363.29 5.65708 1.7242 0
M  V30 14853 H 1362.22 0.659574 0.365346 0
M  V30 14854 H 1364.87 1.8214 0.223026 0
M  V30 14855 H 1363.25 3.02151 2.5597 0
M  V30 14856 H 1364.43 4.60452 0.178936 0
M  V30 14857 H 1362.74 4.15171 0.319653 0
M  V30 14858 H 1365.34 4.3616 3.09303 0
M  V30 14859 H 1365.68 2.65297 3.20817 0
M  V30 14860 H 1366.22 3.56124 1.77259 0
M  V30 14861 H 1362.96 6.47039 1.04978 0
M  V30 14862 H 1362.48 5.4771 2.44488 0
M  V30 14863 H 1364.15 6.05105 2.29036 0
M  V30 14864 N 1364.29 -0.50888 1.49158 0
M  V30 14865 C 1365.7 -0.839353 1.35746 0
M  V30 14866 C 1365.9 -1.97797 0.38453 0
M  V30 14867 O 1364.96 -2.51809 -0.186651 0
M  V30 14868 C 1366.27 -1.18698 2.76281 0
M  V30 14869 C 1367.82 -1.29565 2.84924 0
M  V30 14870 C 1368.29 -1.67661 4.26209 0
M  V30 14871 N 1369.79 -1.74725 4.28982 0
M  V30 14872 C 1370.52 -2.05631 5.3526 0
M  V30 14873 N 1370.02 -2.34814 6.51793 0
M  V30 14874 N 1371.81 -2.06815 5.2267 0
M  V30 14875 H 1363.96 0.242065 2.11016 0
M  V30 14876 H 1366.22 0.0456901 0.946898 0
M  V30 14877 H 1365.93 -0.423769 3.49138 0
M  V30 14878 H 1365.8 -2.13227 3.11149 0
M  V30 14879 H 1368.19 -2.0496 2.1231 0
M  V30 14880 H 1368.27 -0.331059 2.53649 0
M  V30 14881 H 1367.92 -0.928198 4.99346 0
M  V30 14882 H 1367.85 -2.65207 4.54943 0
M  V30 14883 H 1370.34 -1.54364 3.44935 0
M  V30 14884 H 1370.65 -2.57562 7.28616 0
M  V30 14885 H 1368.99 -2.32288 6.55032 0
M  V30 14886 H 1372.19 -1.83487 4.30639 0
M  V30 14887 H 1372.36 -2.30568 6.05593 0
M  V30 14888 N 1365.76 -1.381 -0.759346 0
M  V30 14889 C 1367.18 -1.19171 -1.06162 0
M  V30 14890 C 1367.38 -0.0364043 -2.01467 0
M  V30 14891 O 1366.44 0.619635 -2.44779 0
M  V30 14892 C 1367.75 -2.51569 -1.64723 0
M  V30 14893 C 1369.3 -2.58201 -1.76921 0
M  V30 14894 C 1369.77 -3.9076 -2.38894 0
M  V30 14895 N 1371.26 -3.92269 -2.46331 0
M  V30 14896 C 1372 -4.91595 -2.95164 0
M  V30 14897 N 1371.49 -6.01318 -3.44075 0
M  V30 14898 N 1373.29 -4.7899 -2.94152 0
M  V30 14899 H 1365.44 -2.12021 -0.126788 0
M  V30 14900 H 1367.7 -0.940517 -0.118877 0
M  V30 14901 H 1367.41 -3.36535 -1.02162 0
M  V30 14902 H 1367.28 -2.69551 -2.6386 0
M  V30 14903 H 1369.67 -1.73634 -2.38611 0
M  V30 14904 H 1369.75 -2.44092 -0.765047 0
M  V30 14905 H 1369.39 -4.75747 -1.7784 0
M  V30 14906 H 1369.32 -4.02179 -3.39941 0
M  V30 14907 H 1371.81 -3.13015 -2.11731 0
M  V30 14908 H 1372.13 -6.73046 -3.79776 0
M  V30 14909 H 1370.47 -6.04946 -3.42148 0
M  V30 14910 H 1373.66 -3.92385 -2.55248 0
M  V30 14911 H 1373.84 -5.5655 -3.31897 0
M  V30 14912 N 1367.24 0.986894 -1.22875 0
M  V30 14913 C 1368.19 2.07811 -1.00416 0
M  V30 14914 C 1369.16 1.65925 0.0761734 0
M  V30 14915 O 1370.34 1.90654 -0.0746294 0
M  V30 14916 C 1367.48 3.39941 -0.594471 0
M  V30 14917 C 1366.6 3.95134 -1.74622 0
M  V30 14918 C 1365.73 5.1545 -1.28394 0
M  V30 14919 C 1364.77 5.62794 -2.40686 0
M  V30 14920 N 1363.91 6.74343 -1.95462 0
M  V30 14921 H 1368.75 2.26356 -1.93822 0
M  V30 14922 H 1366.29 1.10966 -0.965661 0
M  V30 14923 H 1368.24 4.15828 -0.338078 0
M  V30 14924 H 1366.87 3.21379 0.302587 0
M  V30 14925 H 1365.93 3.16064 -2.11679 0
M  V30 14926 H 1367.24 4.26247 -2.59066 0
M  V30 14927 H 1366.39 5.98646 -0.98529 0
M  V30 14928 H 1365.13 4.85975 -0.409789 0
M  V30 14929 H 1364.14 4.78182 -2.71333 0
M  V30 14930 H 1365.36 5.9429 -3.28627 0
M  V30 14931 H 1363.31 6.46641 -1.10417 0
M  V30 14932 H 1363.22 7.04806 -2.73469 0
M  V30 14933 H 1364.49 7.6103 -1.68683 0
M  V30 14934 N 1368.72 1.0394 1.18466 0
M  V30 14935 C 1369.65 0.650182 2.24265 0
M  V30 14936 C 1370.63 -0.345968 1.66545 0
M  V30 14937 O 1371.82 -0.226348 1.92876 0
M  V30 14938 C 1368.95 0.0110451 3.47298 0
M  V30 14939 C 1367.9 0.930599 4.17761 0
M  V30 14940 C 1367.23 0.156005 5.34472 0
M  V30 14941 C 1368.53 2.24913 4.71393 0
M  V30 14942 H 1370.22 1.53465 2.57078 0
M  V30 14943 H 1367.77 0.739343 1.23571 0
M  V30 14944 H 1369.72 -0.272959 4.20515 0
M  V30 14945 H 1368.44 -0.908288 3.13716 0
M  V30 14946 H 1367.1 1.19897 3.4644 0
M  V30 14947 H 1366.75 -0.765695 4.97138 0
M  V30 14948 H 1366.45 0.768606 5.82551 0
M  V30 14949 H 1367.97 -0.121011 6.1048 0
M  V30 14950 H 1369.39 2.02592 5.36311 0
M  V30 14951 H 1367.79 2.81459 5.30001 0
M  V30 14952 H 1368.86 2.8965 3.88884 0
M  V30 14953 N 1370.2 -1.34667 0.818693 0
M  V30 14954 C 1371.13 -2.32134 0.252239 0
M  V30 14955 C 1372.11 -1.58044 -0.628982 0
M  V30 14956 O 1373.29 -1.86049 -0.55674 0
M  V30 14957 C 1370.42 -3.42249 -0.590183 0
M  V30 14958 C 1369.38 -4.27562 0.193547 0
M  V30 14959 C 1368.7 -5.29107 -0.771349 0
M  V30 14960 C 1370 -5.03205 1.39936 0
M  V30 14961 H 1371.7 -2.79758 1.06657 0
M  V30 14962 H 1369.24 -1.34502 0.514325 0
M  V30 14963 H 1371.2 -4.09445 -0.996616 0
M  V30 14964 H 1369.92 -2.93262 -1.43752 0
M  V30 14965 H 1368.58 -3.61962 0.581297 0
M  V30 14966 H 1368.23 -4.76384 -1.61453 0
M  V30 14967 H 1367.93 -5.87063 -0.251201 0
M  V30 14968 H 1369.45 -5.99174 -1.17573 0
M  V30 14969 H 1370.87 -5.6328 1.06717 0
M  V30 14970 H 1369.26 -5.70715 1.85485 0
M  V30 14971 H 1370.33 -4.33145 2.17976 0
M  V30 14972 N 1371.68 -0.573274 -1.46804 0
M  V30 14973 C 1372.61 0.213527 -2.27199 0
M  V30 14974 C 1373.59 0.905598 -1.35047 0
M  V30 14975 O 1374.77 0.921377 -1.64447 0
M  V30 14976 C 1371.9 1.30556 -3.12527 0
M  V30 14977 C 1370.94 0.720331 -4.20373 0
M  V30 14978 S 1371.78 -0.445518 -5.33644 0
M  V30 14979 C 1372.93 0.64794 -6.22537 0
M  V30 14980 H 1373.17 -0.468642 -2.93583 0
M  V30 14981 H 1370.7 -0.359949 -1.50146 0
M  V30 14982 H 1372.66 1.93086 -3.62254 0
M  V30 14983 H 1371.32 1.95963 -2.45474 0
M  V30 14984 H 1370.51 1.54089 -4.79867 0
M  V30 14985 H 1370.11 0.170885 -3.73609 0
M  V30 14986 H 1372.41 1.53602 -6.59858 0
M  V30 14987 H 1373.35 0.0899764 -7.08043 0
M  V30 14988 H 1373.76 0.94784 -5.56486 0
M  V30 14989 N 1373.15 1.5451 -0.310553 0
M  V30 14990 C 1374.08 2.26827 0.554243 0
M  V30 14991 C 1375.07 1.27133 1.13009 0
M  V30 14992 O 1376.25 1.55923 1.15765 0
M  V30 14993 C 1373.38 3.01626 1.7216 0
M  V30 14994 C 1372.33 4.08547 1.27566 0
M  V30 14995 C 1371.66 4.71115 2.52893 0
M  V30 14996 C 1372.96 5.20766 0.399955 0
M  V30 14997 H 1374.65 2.9936 -0.0489475 0
M  V30 14998 H 1372.2 1.43978 -0.0249817 0
M  V30 14999 H 1374.15 3.50942 2.33276 0
M  V30 15000 H 1372.88 2.26688 2.35118 0
M  V30 15001 H 1371.54 3.60096 0.687499 0
M  V30 15002 H 1371.18 3.92805 3.14186 0
M  V30 15003 H 1370.88 5.43331 2.23752 0
M  V30 15004 H 1372.41 5.23198 3.14796 0
M  V30 15005 H 1373.82 5.65918 0.917054 0
M  V30 15006 H 1372.22 5.9976 0.2019 0
M  V30 15007 H 1373.29 4.81508 -0.572537 0
M  V30 15008 N 1374.63 0.0384594 1.57553 0
M  V30 15009 C 1375.88 -0.637533 1.91359 0
M  V30 15010 C 1376.2 -1.7275 0.91744 0
M  V30 15011 O 1377.4 -2.46078 1.14709 0
M  V30 15012 C 1375.86 -1.18526 3.39823 0
M  V30 15013 C 1375.47 -0.128086 4.47817 0
M  V30 15014 C 1377.21 -1.83723 3.82683 0
M  V30 15015 C 1375.12 -0.687978 5.87385 0
M  V30 15016 H 1374.05 -0.241898 0.714144 0
M  V30 15017 H 1376.7 0.105281 1.83198 0
M  V30 15018 H 1375.08 -1.97999 3.42947 0
M  V30 15019 H 1376.25 0.644865 4.56265 0
M  V30 15020 H 1374.57 0.425672 4.14219 0
M  V30 15021 H 1377.17 -2.26585 4.84317 0
M  V30 15022 H 1377.51 -2.68377 3.18244 0
M  V30 15023 H 1378.04 -1.10926 3.82021 0
M  V30 15024 H 1374.78 0.120642 6.55389 0
M  V30 15025 H 1374.3 -1.4292 5.82524 0
M  V30 15026 H 1375.98 -1.17483 6.36244 0
M  V30 15027 N 1376.11 -1.55841 -0.234795 0
M  V30 15028 C 1377.39 -1.69008 -0.984665 0
M  V30 15029 C 1377.77 -0.581882 -2.02922 0
M  V30 15030 O 1377.12 0.412998 -2.24737 0
M  V30 15031 C 1377.33 -3.09796 -1.60708 0
M  V30 15032 C 1378.67 -3.68784 -2.10436 0
M  V30 15033 O 1379.7 -3.12674 -1.70627 0
M  V30 15034 O 1378.56 -4.67175 -2.83567 0
M  V30 15035 H 1375.65 -0.68786 -0.459105 0
M  V30 15036 H 1378.2 -1.68166 -0.227623 0
M  V30 15037 H 1376.97 -3.81908 -0.852169 0
M  V30 15038 H 1376.59 -3.147 -2.43001 0
M  V30 15039 N 1377.59 0.500963 -1.49426 0
M  V30 15040 C 1378.81 1.28383 -1.62888 0
M  V30 15041 C 1379.24 1.85688 -0.300262 0
M  V30 15042 O 1378.6 1.6586 0.73212 0
M  V30 15043 C 1378.65 2.38987 -2.70033 0
M  V30 15044 O 1377.75 3.42837 -2.29208 0
M  V30 15045 H 1377.09 0.379012 -0.545202 0
M  V30 15046 H 1379.62 0.59971 -1.95613 0
M  V30 15047 H 1379.63 2.84749 -2.92202 0
M  V30 15048 H 1378.31 1.96643 -3.66475 0
M  V30 15049 H 1376.88 3.02993 -2.1737 0
M  V30 15050 N 1379.07 1.38501 0.752011 0
M  V30 15051 C 1380.29 1.38212 1.54636 0
M  V30 15052 C 1380.72 -0.0256356 1.88083 0
M  V30 15053 O 1380.08 -1.00812 1.50687 0
M  V30 15054 C 1380.12 2.24597 2.82114 0
M  V30 15055 O 1379.23 1.66415 3.77332 0
M  V30 15056 H 1378.57 0.47138 0.46765 0
M  V30 15057 H 1381.1 1.82283 0.929205 0
M  V30 15058 H 1381.11 2.38511 3.31023 0
M  V30 15059 H 1379.78 3.26913 2.57101 0
M  V30 15060 H 1378.36 1.61651 3.36041 0
M  V30 15061 N 1380.55 -0.980364 1.23396 0
M  V30 15062 C 1381.77 -1.75689 1.09275 0
M  V30 15063 C 1382.19 -1.85418 -0.355773 0
M  V30 15064 O 1381.55 -1.33337 -1.24609 0
M  V30 15065 C 1381.6 -3.18378 1.71223 0
M  V30 15066 O 1381.32 -3.09154 3.10411 0
M  V30 15067 C 1382.82 -4.12425 1.62545 0
M  V30 15068 H 1380.04 -0.551354 0.382427 0
M  V30 15069 H 1382.58 -1.23169 1.63247 0
M  V30 15070 H 1380.74 -3.67925 1.21285 0
M  V30 15071 H 1381.15 -3.9898 3.40464 0
M  V30 15072 H 1382.63 -5.1025 2.10592 0
M  V30 15073 H 1383.1 -4.35296 0.584275 0
M  V30 15074 H 1383.71 -3.68782 2.1185 0
M  V30 15075 N 1382.02 -1.04567 -1.17913 0
M  V30 15076 C 1382.95 -0.662066 -2.23917 0
M  V30 15077 C 1383.93 0.33713 -1.66726 0
M  V30 15078 O 1385.12 0.216116 -1.92994 0
M  V30 15079 C 1382.25 -0.029463 -3.47288 0
M  V30 15080 C 1381.2 -0.95274 -4.17261 0
M  V30 15081 C 1380.53 -0.184347 -5.34382 0
M  V30 15082 C 1381.83 -2.2741 -4.70194 0
M  V30 15083 H 1383.52 -1.54826 -2.5626 0
M  V30 15084 H 1381.07 -0.745886 -1.23177 0
M  V30 15085 H 1383.02 0.250654 -4.20654 0
M  V30 15086 H 1381.75 0.891638 -3.14193 0
M  V30 15087 H 1380.41 -1.21732 -3.45799 0
M  V30 15088 H 1380.05 0.73932 -4.97537 0
M  V30 15089 H 1379.75 -0.79949 -5.82136 0
M  V30 15090 H 1381.28 0.0886344 -6.10536 0
M  V30 15091 H 1382.69 -2.05433 -5.35229 0
M  V30 15092 H 1381.09 -2.84265 -5.28501 0
M  V30 15093 H 1382.16 -2.91708 -3.87342 0
M  V30 15094 N 1383.5 1.34231 -0.825823 0
M  V30 15095 C 1384.41 2.33245 -0.251803 0
M  V30 15096 C 1385.43 1.62756 0.615334 0
M  V30 15097 O 1386.6 1.94503 0.522547 0
M  V30 15098 C 1383.67 3.41908 0.574456 0
M  V30 15099 C 1382.73 4.2814 -0.315422 0
M  V30 15100 C 1381.96 5.31613 0.471496 0
M  V30 15101 O 1382.19 5.44337 1.70449 0
M  V30 15102 O 1381.12 6.01719 -0.147691 0
M  V30 15103 H 1384.95 2.84174 -1.07139 0
M  V30 15104 H 1382.53 1.37341 -0.588032 0
M  V30 15105 H 1384.41 4.08252 1.04444 0
M  V30 15106 H 1383.09 2.93217 1.37132 0
M  V30 15107 H 1381.99 3.64709 -0.832963 0
M  V30 15108 H 1383.33 4.80279 -1.07672 0
M  V30 15109 N 1384.98 0.581051 1.46498 0
M  V30 15110 C 1386.39 0.154032 1.86064 0
M  V30 15111 C 1386.74 -1.28247 1.48483 0
M  V30 15112 O 1385.87 -1.96845 0.898945 0
M  V30 15113 C 1386.46 0.272764 3.377 0
M  V30 15114 C 1385.02 -0.0993724 3.76269 0
M  V30 15115 C 1384.17 0.60947 2.70519 0
M  V30 15116 H 1387.12 0.78937 1.37676 0
M  V30 15117 H 1387.14 -0.502326 3.7717 0
M  V30 15118 H 1386.65 1.31837 3.65021 0
M  V30 15119 H 1384.75 -1.14517 3.54565 0
M  V30 15120 H 1384.87 0.275791 4.78306 0
M  V30 15121 H 1383.23 0.0499083 2.54651 0
M  V30 15122 H 1384.01 1.65669 3.0068 0
M  V30 15123 N 1386.46 -1.54343 0.318742 0
M  V30 15124 C 1387.69 -2.04894 -0.287378 0
M  V30 15125 C 1388.1 -1.19514 -1.46157 0
M  V30 15126 O 1387.46 -0.224722 -1.81111 0
M  V30 15127 C 1387.51 -3.54124 -0.726505 0
M  V30 15128 O 1387.23 -4.36261 0.400968 0
M  V30 15129 C 1388.73 -4.20748 -1.39594 0
M  V30 15130 H 1385.95 -0.668323 -0.0598724 0
M  V30 15131 H 1388.49 -1.99177 0.463531 0
M  V30 15132 H 1386.65 -3.60145 -1.4274 0
M  V30 15133 H 1387.06 -5.2447 0.0558714 0
M  V30 15134 H 1388.54 -5.26632 -1.65418 0
M  V30 15135 H 1389.01 -3.71566 -2.3417 0
M  V30 15136 H 1389.62 -4.18852 -0.737749 0
M  V30 15137 N 1387.94 -0.0468143 -1.5753 0
M  V30 15138 C 1388.88 0.929065 -2.11275 0
M  V30 15139 C 1389.85 1.31166 -1.01905 0
M  V30 15140 O 1391.04 1.40189 -1.29428 0
M  V30 15141 C 1388.18 2.20012 -2.65873 0
M  V30 15142 C 1387.29 1.8724 -3.89314 0
M  V30 15143 C 1386.43 3.08772 -4.32242 0
M  V30 15144 C 1385.46 2.719 -5.48395 0
M  V30 15145 N 1384.6 3.86112 -5.86397 0
M  V30 15146 H 1389.44 0.463854 -2.94368 0
M  V30 15147 H 1386.98 0.217338 -1.45486 0
M  V30 15148 H 1388.94 2.94383 -2.95626 0
M  V30 15149 H 1387.57 2.64118 -1.85584 0
M  V30 15150 H 1386.62 1.03037 -3.6618 0
M  V30 15151 H 1387.93 1.56096 -4.73746 0
M  V30 15152 H 1387.08 3.91446 -4.63525 0
M  V30 15153 H 1385.82 3.4309 -3.46613 0
M  V30 15154 H 1384.83 1.87642 -5.16789 0
M  V30 15155 H 1386.05 2.38779 -6.35737 0
M  V30 15156 H 1384 4.2024 -5.03721 0
M  V30 15157 H 1383.92 3.58652 -6.65511 0
M  V30 15158 H 1385.18 4.69438 -6.22293 0
M  V30 15159 N 1389.41 1.55964 0.226527 0
M  V30 15160 C 1390.64 1.83168 0.972846 0
M  V30 15161 C 1391.06 0.626512 1.7736 0
M  V30 15162 O 1390.42 -0.42468 1.76256 0
M  V30 15163 C 1390.47 3.08315 1.87014 0
M  V30 15164 O 1389.57 2.8666 2.96479 0
M  V30 15165 H 1388.92 0.604041 0.275736 0
M  V30 15166 H 1391.45 2.03172 0.241345 0
M  V30 15167 H 1391.46 3.38288 2.28091 0
M  V30 15168 H 1390.13 3.95663 1.28154 0
M  V30 15169 H 1388.71 2.67907 2.59384 0
M  V30 15170 N 1390.89 -0.493031 1.4969 0
M  V30 15171 C 1391.82 -1.60215 1.69863 0
M  V30 15172 C 1392.8 -1.61053 0.547362 0
M  V30 15173 O 1393.99 -1.77667 0.784093 0
M  V30 15174 C 1391.12 -2.98662 1.77252 0
M  V30 15175 C 1390.07 -3.1269 2.92248 0
M  V30 15176 C 1389.4 -4.52567 2.84758 0
M  V30 15177 C 1390.7 -2.91965 4.33074 0
M  V30 15178 H 1392.39 -1.43587 2.62723 0
M  V30 15179 H 1389.94 -0.689334 1.26429 0
M  V30 15180 H 1391.89 -3.7616 1.89951 0
M  V30 15181 H 1390.62 -3.16397 0.809976 0
M  V30 15182 H 1389.27 -2.37619 2.79164 0
M  V30 15183 H 1388.92 -4.6719 1.86394 0
M  V30 15184 H 1388.62 -4.62893 3.61944 0
M  V30 15185 H 1390.15 -5.32116 2.99475 0
M  V30 15186 H 1391.56 -3.59228 4.46798 0
M  V30 15187 H 1389.96 -3.13756 5.11544 0
M  V30 15188 H 1391.03 -1.88015 4.46966 0
M  V30 15189 N 1392.37 -1.38898 -0.744656 0
M  V30 15190 C 1393.32 -1.33342 -1.84943 0
M  V30 15191 C 1394.3 -0.216036 -1.59443 0
M  V30 15192 O 1395.5 -0.452764 -1.71111 0
M  V30 15193 C 1392.63 -1.16966 -3.2276 0
M  V30 15194 C 1391.71 -2.33365 -3.54121 0
M  V30 15195 N 1392.1 -3.58824 -3.56481 0
M  V30 15196 C 1390.4 -2.26112 -3.84434 0
M  V30 15197 C 1391.1 -4.35741 -3.85364 0
M  V30 15198 N 1390.08 -3.65206 -4.02648 0
M  V30 15199 H 1393.88 -2.28321 -1.85059 0
M  V30 15200 H 1391.39 -1.32257 -0.94244 0
M  V30 15201 H 1393.39 -1.11069 -4.01832 0
M  V30 15202 H 1392.05 -0.229288 -3.23889 0
M  V30 15203 H 1393.06 -3.92377 -3.38025 0
M  V30 15204 H 1389.74 -1.40283 -3.93226 0
M  V30 15205 H 1391.13 -5.44445 -3.93738 0
M  V30 15206 N 1393.85 0.973806 -1.23914 0
M  V30 15207 C 1394.78 2.08526 -1.05068 0
M  V30 15208 C 1395.76 1.70065 0.0344761 0
M  V30 15209 O 1396.94 1.93755 -0.131432 0
M  V30 15210 C 1394.07 3.41198 -0.648165 0
M  V30 15211 C 1393.03 3.9359 -1.6814 0
M  V30 15212 C 1392.35 5.22534 -1.13414 0
M  V30 15213 C 1393.65 4.22116 -3.07597 0
M  V30 15214 H 1395.35 2.24551 -1.98034 0
M  V30 15215 H 1392.89 1.07905 -0.953546 0
M  V30 15216 H 1394.85 4.18383 -0.50334 0
M  V30 15217 H 1393.57 3.25056 0.317182 0
M  V30 15218 H 1392.23 3.18555 -1.81434 0
M  V30 15219 H 1391.88 5.02747 -0.159578 0
M  V30 15220 H 1391.58 5.58555 -1.82456 0
M  V30 15221 H 1393.1 6.02334 -1.0013 0
M  V30 15222 H 1394.52 4.90027 -2.97567 0
M  V30 15223 H 1392.91 4.69352 -3.73937 0
M  V30 15224 H 1393.98 3.29128 -3.56094 0
M  V30 15225 N 1395.33 1.05191 1.17357 0
M  V30 15226 C 1396.28 0.623047 2.19322 0
M  V30 15227 C 1397.26 -0.340467 1.57257 0
M  V30 15228 O 1398.45 -0.157698 1.76296 0
M  V30 15229 C 1395.58 -0.000731889 3.433 0
M  V30 15230 C 1394.67 0.986608 4.12464 0
M  V30 15231 N 1395.06 2.158 4.57454 0
M  V30 15232 C 1393.36 0.815082 4.38489 0
M  V30 15233 C 1394.06 2.78262 5.10828 0
M  V30 15234 N 1393.03 2.0606 5.03031 0
M  V30 15235 H 1396.84 1.51555 2.5181 0
M  V30 15236 H 1394.35 0.922048 1.33686 0
M  V30 15237 H 1396.35 -0.325738 4.15625 0
M  V30 15238 H 1395.01 -0.888627 3.12304 0
M  V30 15239 H 1396.02 2.53634 4.51542 0
M  V30 15240 H 1392.69 -0.021765 4.17494 0
M  V30 15241 H 1394.08 3.77599 5.55759 0
M  V30 15242 N 1396.8 -1.33791 0.83293 0
M  V30 15243 C 1397.74 -2.27259 0.207019 0
M  V30 15244 C 1398.72 -1.49372 -0.642403 0
M  V30 15245 O 1399.9 -1.78562 -0.603963 0
M  V30 15246 C 1397.03 -3.31177 -0.709885 0
M  V30 15247 C 1396.07 -4.26453 0.0633036 0
M  V30 15248 S 1396.91 -5.16406 1.41721 0
M  V30 15249 C 1398.06 -6.23856 0.505446 0
M  V30 15250 H 1398.29 -2.79998 0.999422 0
M  V30 15251 H 1395.83 -1.40991 0.629361 0
M  V30 15252 H 1397.79 -3.91535 -1.23332 0
M  V30 15253 H 1396.45 -2.77265 -1.4759 0
M  V30 15254 H 1395.64 -4.99995 -0.634145 0
M  V30 15255 H 1395.24 -3.70401 0.517607 0
M  V30 15256 H 1397.53 -6.7684 -0.299066 0
M  V30 15257 H 1398.48 -6.97671 1.21084 0
M  V30 15258 H 1398.88 -5.64429 0.0894308 0
M  V30 15259 N 1398.28 -0.588812 -1.46187 0
M  V30 15260 C 1399.51 -0.0824104 -2.06436 0
M  V30 15261 C 1399.92 1.23054 -1.43716 0
M  V30 15262 O 1399.26 1.7562 -0.538825 0
M  V30 15263 C 1399.33 0.151307 -3.59181 0
M  V30 15264 C 1398.99 -1.07697 -4.44129 0
M  V30 15265 C 1399.99 -1.99053 -4.80285 0
M  V30 15266 C 1397.67 -1.30053 -4.85172 0
M  V30 15267 C 1399.67 -3.11108 -5.56319 0
M  V30 15268 C 1397.35 -2.42412 -5.60963 0
M  V30 15269 C 1398.35 -3.32769 -5.96451 0
M  V30 15270 O 1398.04 -4.43175 -6.70709 0
M  V30 15271 H 1397.77 -0.0573231 -0.673565 0
M  V30 15272 H 1400.32 -0.811012 -1.88711 0
M  V30 15273 H 1398.55 0.934591 -3.75236 0
M  V30 15274 H 1400.24 0.606973 -4.01336 0
M  V30 15275 H 1401.01 -1.83 -4.4915 0
M  V30 15276 H 1396.89 -0.606295 -4.56996 0
M  V30 15277 H 1400.43 -3.81659 -5.83937 0
M  V30 15278 H 1396.33 -2.58426 -5.91512 0
M  V30 15279 H 1397.1 -4.4162 -6.8914 0
M  V30 15280 N 1399.76 1.54172 -0.326923 0
M  V30 15281 C 1400.69 2.27402 0.530154 0
M  V30 15282 C 1401.67 1.28325 1.11655 0
M  V30 15283 O 1402.86 1.57142 1.14105 0
M  V30 15284 C 1399.99 3.03435 1.68951 0
M  V30 15285 C 1398.94 4.09877 1.23226 0
M  V30 15286 C 1398.27 4.7377 2.47882 0
M  V30 15287 C 1399.57 5.21161 0.344698 0
M  V30 15288 H 1401.26 2.99291 -0.0806959 0
M  V30 15289 H 1398.81 1.43944 -0.0402511 0
M  V30 15290 H 1400.76 3.53396 2.29541 0
M  V30 15291 H 1399.48 2.29169 2.327 0
M  V30 15292 H 1398.14 3.60805 0.649267 0
M  V30 15293 H 1397.79 3.96116 3.10002 0
M  V30 15294 H 1397.49 5.45674 2.17977 0
M  V30 15295 H 1399.01 5.26507 3.09229 0
M  V30 15296 H 1400.43 5.66859 0.856979 0
M  V30 15297 H 1398.83 5.99941 0.138276 0
M  V30 15298 H 1399.9 4.80874 -0.623575 0
M  V30 15299 N 1401.24 0.0551678 1.57503 0
M  V30 15300 C 1402.17 -0.953348 2.07332 0
M  V30 15301 C 1403.15 -1.30148 0.974699 0
M  V30 15302 O 1404.33 -1.41366 1.24692 0
M  V30 15303 C 1401.46 -2.26622 2.51715 0
M  V30 15304 C 1400.51 -2.07085 3.72851 0
M  V30 15305 S 1401.34 -1.34553 5.1832 0
M  V30 15306 C 1402.5 -2.67155 5.6602 0
M  V30 15307 H 1402.73 -0.529294 2.9255 0
M  V30 15308 H 1400.26 -0.157196 1.53598 0
M  V30 15309 H 1402.22 -3.02085 2.77948 0
M  V30 15310 H 1400.88 -2.66155 1.66795 0
M  V30 15311 H 1400.07 -3.04206 4.01839 0
M  V30 15312 H 1399.68 -1.39761 3.46905 0
M  V30 15313 H 1401.97 -3.63309 5.7185 0
M  V30 15314 H 1402.91 -2.42798 6.65173 0
M  V30 15315 H 1403.32 -2.73597 4.93766 0
M  V30 15316 N 1402.72 -1.56081 -0.218252 0
M  V30 15317 C 1403.65 -1.95706 -1.27364 0
M  V30 15318 C 1404.63 -0.825731 -1.48713 0
M  V30 15319 O 1405.81 -1.08829 -1.60841 0
M  V30 15320 C 1402.94 -2.2766 -2.62275 0
M  V30 15321 C 1401.9 -3.43314 -2.55576 0
M  V30 15322 C 1401.22 -3.60883 -3.94547 0
M  V30 15323 C 1402.52 -4.7819 -2.10075 0
M  V30 15324 H 1404.22 -2.84113 -0.944459 0
M  V30 15325 H 1401.76 -1.36693 -0.452882 0
M  V30 15326 H 1403.72 -2.53973 -3.36268 0
M  V30 15327 H 1402.44 -1.3611 -2.96887 0
M  V30 15328 H 1401.1 -3.17056 -1.8404 0
M  V30 15329 H 1400.75 -2.66703 -4.26472 0
M  V30 15330 H 1400.45 -4.38674 -3.90946 0
M  V30 15331 H 1401.97 -3.89547 -4.70197 0
M  V30 15332 H 1403.38 -5.03686 -2.73813 0
M  V30 15333 H 1401.78 -5.59287 -2.17527 0
M  V30 15334 H 1402.85 -4.73325 -1.05314 0
M  V30 15335 N 1404.2 0.485086 -1.49949 0
M  V30 15336 C 1405.13 1.59312 -1.7071 0
M  V30 15337 C 1406.11 1.6076 -0.555896 0
M  V30 15338 O 1407.29 1.77249 -0.793504 0
M  V30 15339 C 1404.42 2.97718 -1.78834 0
M  V30 15340 C 1403.38 3.11136 -2.93902 0
M  V30 15341 C 1402.7 4.51051 -2.87154 0
M  V30 15342 C 1404 2.89665 -4.34617 0
M  V30 15343 H 1405.7 1.42192 -2.6348 0
M  V30 15344 H 1403.24 0.68262 -1.26792 0
M  V30 15345 H 1405.19 3.75148 -1.91943 0
M  V30 15346 H 1403.92 3.15963 -0.826744 0
M  V30 15347 H 1402.58 2.36135 -2.80421 0
M  V30 15348 H 1402.23 4.66195 -1.88869 0
M  V30 15349 H 1401.93 4.60967 -3.64394 0
M  V30 15350 H 1403.45 5.3052 -3.02293 0
M  V30 15351 H 1404.86 3.56853 -4.48697 0
M  V30 15352 H 1403.26 3.11039 -5.13201 0
M  V30 15353 H 1404.33 1.85642 -4.47956 0
M  V30 15354 N 1405.67 1.39291 0.737279 0
M  V30 15355 C 1406.62 1.37829 1.85127 0
M  V30 15356 C 1407.59 0.238321 1.64381 0
M  V30 15357 O 1408.78 0.433081 1.8582 0
M  V30 15358 C 1405.92 1.22531 3.22615 0
M  V30 15359 C 1405.03 2.46052 3.55081 0
M  V30 15360 C 1404.16 2.2336 4.81958 0
M  V30 15361 C 1403.2 3.42569 5.0726 0
M  V30 15362 N 1402.34 3.19209 6.2534 0
M  V30 15363 H 1407.18 2.33056 1.85712 0
M  V30 15364 H 1404.72 1.15772 0.907484 0
M  V30 15365 H 1406.67 1.11673 4.01976 0
M  V30 15366 H 1405.3 0.30934 3.21314 0
M  V30 15367 H 1404.36 2.67521 2.70438 0
M  V30 15368 H 1405.67 3.3485 3.69698 0
M  V30 15369 H 1404.82 2.09732 5.69295 0
M  V30 15370 H 1403.56 1.31953 4.6951 0
M  V30 15371 H 1402.57 3.56698 4.18386 0
M  V30 15372 H 1403.79 4.34874 5.21595 0
M  V30 15373 H 1401.74 2.30464 6.14184 0
M  V30 15374 H 1401.65 4.01562 6.40534 0
M  V30 15375 H 1402.92 3.09269 7.15523 0
M  V30 15376 N 1407.15 -0.967221 1.24429 0
M  V30 15377 C 1408.06 -2.09582 1.05417 0
M  V30 15378 C 1409.08 -1.73999 -0.00516127 0
M  V30 15379 O 1410.25 -2.00472 0.193115 0
M  V30 15380 C 1407.32 -3.40327 0.661697 0
M  V30 15381 C 1406.38 -3.89854 1.79756 0
M  V30 15382 C 1405.61 -5.1436 1.42372 0
M  V30 15383 O 1405.84 -5.69536 0.313754 0
M  V30 15384 O 1404.77 -5.58283 2.24952 0
M  V30 15385 H 1408.6 -2.28517 2.00034 0
M  V30 15386 H 1406.18 -1.07978 1.03253 0
M  V30 15387 H 1408.06 -4.18943 0.454369 0
M  V30 15388 H 1406.74 -3.22691 -0.255348 0
M  V30 15389 H 1405.64 -3.12297 2.05964 0
M  V30 15390 H 1406.98 -4.11967 2.69339 0
M  V30 15391 N 1408.63 -1.05812 -1.16797 0
M  V30 15392 C 1409.56 -0.685778 -2.23202 0
M  V30 15393 C 1410.54 0.319428 -1.67074 0
M  V30 15394 O 1411.73 0.195635 -1.93212 0
M  V30 15395 C 1408.86 -0.0662958 -3.47237 0
M  V30 15396 C 1407.81 -0.996943 -4.16227 0
M  V30 15397 C 1407.14 -0.241015 -5.34157 0
M  V30 15398 C 1408.44 -2.32384 -4.67755 0
M  V30 15399 H 1410.13 -1.57535 -2.54604 0
M  V30 15400 H 1407.68 -0.758909 -1.22379 0
M  V30 15401 H 1409.63 0.206024 -4.20896 0
M  V30 15402 H 1408.35 0.858263 -3.15121 0
M  V30 15403 H 1407.01 -1.25393 -3.44488 0
M  V30 15404 H 1406.66 0.686508 -4.98293 0
M  V30 15405 H 1406.36 -0.861188 -5.81255 0
M  V30 15406 H 1407.88 0.0238739 -6.10595 0
M  V30 15407 H 1409.3 -2.11099 -5.3302 0
M  V30 15408 H 1407.69 -2.89855 -5.25456 0
M  V30 15409 H 1408.76 -2.958 -3.84227 0
M  V30 15410 N 1410.11 1.33347 -0.840014 0
M  V30 15411 C 1411.52 1.80077 -0.492851 0
M  V30 15412 C 1411.87 1.69495 0.988221 0
M  V30 15413 O 1410.99 1.2449 1.77006 0
M  V30 15414 C 1411.59 3.2696 -0.887827 0
M  V30 15415 C 1410.15 3.71703 -0.592785 0
M  V30 15416 C 1409.3 2.54742 -1.09554 0
M  V30 15417 H 1412.25 1.20853 -1.02861 0
M  V30 15418 H 1412.27 3.79983 -0.198327 0
M  V30 15419 H 1411.78 3.3463 -1.96581 0
M  V30 15420 H 1409.88 3.69559 0.475086 0
M  V30 15421 H 1409.99 4.65123 -1.14882 0
M  V30 15422 H 1408.36 2.49411 -0.516357 0
M  V30 15423 H 1409.14 2.65173 -2.18032 0
M  V30 15424 N 1411.59 0.596556 1.45873 0
M  V30 15425 C 1412.83 0.0872856 2.01911 0
M  V30 15426 C 1413.15 -1.28257 1.46885 0
M  V30 15427 O 1412.42 -1.84489 0.658837 0
M  V30 15428 H 1411 0.0292769 0.746426 0
M  V30 15429 H 1413.67 0.775464 1.78809 0
M  V30 15430 H 1412.76 0.0287213 3.12087 0
M  V30 15431 N 1413.06 -1.53996 0.335095 0
M  V30 15432 C 1413.97 -2.28436 -0.534244 0
M  V30 15433 C 1414.99 -1.33224 -1.11926 0
M  V30 15434 O 1416.17 -1.66252 -1.13676 0
M  V30 15435 C 1413.23 -3.03634 -1.67354 0
M  V30 15436 C 1412.29 -4.14455 -1.11916 0
M  V30 15437 C 1411.52 -4.86058 -2.20416 0
M  V30 15438 O 1411.75 -4.57263 -3.40979 0
M  V30 15439 O 1410.68 -5.72704 -1.85185 0
M  V30 15440 H 1414.51 -3.03618 0.0706314 0
M  V30 15441 H 1412.09 -1.49062 0.100409 0
M  V30 15442 H 1413.97 -3.50687 -2.33659 0
M  V30 15443 H 1412.65 -2.31317 -2.26438 0
M  V30 15444 H 1411.56 -3.71725 -0.420871 0
M  V30 15445 H 1412.89 -4.8885 -0.573295 0
M  V30 15446 N 1414.54 -0.0635198 -1.57472 0
M  V30 15447 C 1415.45 0.921531 -2.15743 0
M  V30 15448 C 1416.47 1.33294 -1.11842 0
M  V30 15449 O 1417.64 1.40733 -1.4407 0
M  V30 15450 C 1414.71 2.17378 -2.70088 0
M  V30 15451 C 1413.77 1.81956 -3.88832 0
M  V30 15452 C 1413 3.01211 -4.40577 0
M  V30 15453 O 1413.23 4.14971 -3.9135 0
M  V30 15454 O 1412.16 2.81507 -5.32012 0
M  V30 15455 H 1415.99 0.455899 -3.00259 0
M  V30 15456 H 1413.57 0.159085 -1.48551 0
M  V30 15457 H 1415.45 2.90826 -3.04956 0
M  V30 15458 H 1414.13 2.63055 -1.88637 0
M  V30 15459 H 1413.03 1.05786 -3.58832 0
M  V30 15460 H 1414.37 1.41069 -4.71551 0
M  V30 15461 N 1416.02 1.56195 0.209972 0
M  V30 15462 C 1417.25 1.83574 0.947852 0
M  V30 15463 C 1417.66 0.641947 1.77977 0
M  V30 15464 O 1417 -0.398794 1.79319 0
M  V30 15465 C 1417.06 3.0485 1.90543 0
M  V30 15466 C 1416.73 4.39375 1.25692 0
M  V30 15467 C 1417.72 5.15932 0.641107 0
M  V30 15468 C 1415.41 4.86104 1.26522 0
M  V30 15469 C 1417.4 6.37386 0.0422484 0
M  V30 15470 C 1415.09 6.07498 0.662523 0
M  V30 15471 C 1416.09 6.8298 0.0521007 0
M  V30 15472 O 1415.78 8.02076 -0.541192 0
M  V30 15473 H 1415.51 0.614001 0.282805 0
M  V30 15474 H 1418.06 2.04144 0.226767 0
M  V30 15475 H 1416.29 2.80127 2.66582 0
M  V30 15476 H 1417.98 3.19001 2.50984 0
M  V30 15477 H 1418.75 4.80931 0.626938 0
M  V30 15478 H 1414.63 4.27318 1.72974 0
M  V30 15479 H 1418.17 6.96244 -0.434823 0
M  V30 15480 H 1414.07 6.4197 0.674144 0
M  V30 15481 H 1414.83 8.17335 -0.43664 0
M  V30 15482 N 1417.5 -0.477127 1.50204 0
M  V30 15483 C 1418.91 -1.05815 1.53819 0
M  V30 15484 C 1419.26 -1.93264 0.338169 0
M  V30 15485 O 1418.38 -2.09305 -0.549576 0
M  V30 15486 C 1418.98 -1.92577 2.78746 0
M  V30 15487 C 1417.54 -2.45799 2.85061 0
M  V30 15488 C 1416.69 -1.23994 2.48034 0
M  V30 15489 H 1419.64 -0.259998 1.56556 0
M  V30 15490 H 1419.66 -2.7757 2.6026 0
M  V30 15491 H 1419.17 -1.28904 3.66068 0
M  V30 15492 H 1417.27 -3.13042 2.02077 0
M  V30 15493 H 1417.38 -2.81318 3.8781 0
M  V30 15494 H 1415.75 -1.5728 2.00338 0
M  V30 15495 H 1416.53 -0.619917 3.37657 0
M  V30 15496 N 1418.98 -1.3968 -0.729882 0
M  V30 15497 C 1419.91 -1.41549 -1.85704 0
M  V30 15498 C 1420.89 -0.278186 -1.6781 0
M  V30 15499 O 1422.07 -0.484749 -1.88053 0
M  V30 15500 C 1419.2 -1.26327 -3.2351 0
M  V30 15501 C 1418.16 -2.37511 -3.56051 0
M  V30 15502 C 1417.48 -2.07375 -4.92849 0
M  V30 15503 C 1418.78 -3.79833 -3.58502 0
M  V30 15504 H 1420.48 -2.35877 -1.84398 0
M  V30 15505 H 1418.02 -1.13536 -0.885747 0
M  V30 15506 H 1419.98 -1.26254 -4.02042 0
M  V30 15507 H 1418.7 -0.284697 -3.25357 0
M  V30 15508 H 1417.36 -2.36809 -2.79852 0
M  V30 15509 H 1417.01 -1.07943 -4.91281 0
M  V30 15510 H 1416.71 -2.81855 -5.15588 0
M  V30 15511 H 1418.23 -2.08961 -5.73731 0
M  V30 15512 H 1419.64 -3.82436 -4.27101 0
M  V30 15513 H 1418.04 -4.53715 -3.92763 0
M  V30 15514 H 1419.11 -4.10443 -2.58195 0
M  V30 15515 N 1420.45 0.960609 -1.2494 0
M  V30 15516 C 1421.87 1.51915 -1.0853 0
M  V30 15517 C 1422.22 1.93215 0.340949 0
M  V30 15518 O 1421.34 1.78031 1.2302 0
M  V30 15519 C 1421.94 2.76069 -1.96396 0
M  V30 15520 C 1420.5 3.28255 -1.84189 0
M  V30 15521 C 1419.64 2.01124 -1.90905 0
M  V30 15522 H 1422.59 0.778141 -1.38314 0
M  V30 15523 H 1422.61 3.49668 -1.50042 0
M  V30 15524 H 1422.13 2.45979 -3.00193 0
M  V30 15525 H 1420.23 3.6318 -0.832518 0
M  V30 15526 H 1420.34 3.96675 -2.68673 0
M  V30 15527 H 1418.7 2.16155 -1.34718 0
M  V30 15528 H 1419.49 1.73389 -2.96295 0
M  V30 15529 N 1421.93 1.0643 1.16234 0
M  V30 15530 C 1422.87 0.620534 2.19601 0
M  V30 15531 C 1423.84 -0.35739 1.58624 0
M  V30 15532 O 1425.03 -0.266037 1.86613 0
M  V30 15533 C 1422.15 -0.0901061 3.3858 0
M  V30 15534 C 1421.2 0.844789 4.1805 0
M  V30 15535 S 1422.03 2.34077 4.81631 0
M  V30 15536 C 1423.19 1.64167 6.03987 0
M  V30 15537 H 1423.42 1.49626 2.56903 0
M  V30 15538 H 1420.96 0.877398 1.27048 0
M  V30 15539 H 1422.91 -0.493891 4.07518 0
M  V30 15540 H 1421.57 -0.942042 2.9964 0
M  V30 15541 H 1420.77 0.294135 5.03141 0
M  V30 15542 H 1420.37 1.18852 3.54613 0
M  V30 15543 H 1422.66 0.948043 6.70834 0
M  V30 15544 H 1423.6 2.47054 6.63604 0
M  V30 15545 H 1424.01 1.12366 5.53203 0
M  V30 15546 N 1423.41 -1.329 0.847073 0
M  V30 15547 C 1424.32 -2.32815 0.288878 0
M  V30 15548 C 1425.34 -1.63715 -0.589363 0
M  V30 15549 O 1426.51 -1.9531 -0.491537 0
M  V30 15550 C 1423.58 -3.42778 -0.519988 0
M  V30 15551 C 1422.64 -4.27584 0.383496 0
M  V30 15552 C 1421.87 -5.32296 -0.386862 0
M  V30 15553 O 1422.09 -5.4698 -1.61768 0
M  V30 15554 O 1421.03 -6.01408 0.2434 0
M  V30 15555 H 1424.85 -2.82434 1.11647 0
M  V30 15556 H 1422.44 -1.36388 0.609807 0
M  V30 15557 H 1424.32 -4.09862 -0.979357 0
M  V30 15558 H 1423 -2.95362 -1.3245 0
M  V30 15559 H 1421.9 -3.63338 0.890879 0
M  V30 15560 H 1423.24 -4.78505 1.15299 0
M  V30 15561 N 1424.89 -0.604284 -1.45555 0
M  V30 15562 C 1426.17 -0.0303285 -1.95576 0
M  V30 15563 C 1426.55 1.43661 -1.54676 0
M  V30 15564 O 1425.89 2.13747 -0.807731 0
M  V30 15565 C 1426.1 -0.22497 -3.48274 0
M  V30 15566 C 1427.45 -0.104042 -4.24473 0
M  V30 15567 O 1428.48 -0.154919 -3.55863 0
M  V30 15568 O 1427.33 0.0136297 -5.46498 0
M  V30 15569 H 1424.43 0.0376106 -0.826144 0
M  V30 15570 H 1426.97 -0.674114 -1.55736 0
M  V30 15571 H 1425.75 -1.24391 -3.71002 0
M  V30 15572 H 1425.37 0.454234 -3.94997 0
M  V30 15573 N 1426.37 1.53816 -0.343257 0
M  V30 15574 C 1427.61 2.01207 0.253721 0
M  V30 15575 C 1427.95 1.23069 1.50225 0
M  V30 15576 O 1427.22 0.31824 1.91879 0
M  V30 15577 C 1427.5 3.5559 0.56815 0
M  V30 15578 C 1427.36 4.44438 -0.692457 0
M  V30 15579 C 1428.68 4.17974 1.37788 0
M  V30 15580 H 1425.79 0.731392 0.0907427 0
M  V30 15581 H 1428.44 1.84254 -0.463736 0
M  V30 15582 H 1426.59 3.70166 1.17937 0
M  V30 15583 H 1428.26 4.41698 -1.33042 0
M  V30 15584 H 1426.5 4.13312 -1.3174 0
M  V30 15585 H 1427.17 5.5034 -0.427715 0
M  V30 15586 H 1429.65 4.07094 0.861043 0
M  V30 15587 H 1428.52 5.26068 1.56663 0
M  V30 15588 H 1428.79 3.72577 2.3799 0
M  V30 15589 N 1427.84 0.0718701 1.57436 0
M  V30 15590 C 1428.77 -0.89288 2.15754 0
M  V30 15591 C 1429.76 -1.31036 1.0846 0
M  V30 15592 O 1430.94 -1.38139 1.36496 0
M  V30 15593 C 1428.07 -2.16044 2.71923 0
M  V30 15594 C 1427.02 -1.88236 3.84384 0
M  V30 15595 C 1426.35 -3.21624 4.27156 0
M  V30 15596 C 1427.65 -1.18758 5.0862 0
M  V30 15597 H 1429.34 -0.407061 2.9662 0
M  V30 15598 H 1426.89 -0.194354 1.42682 0
M  V30 15599 H 1428.84 -2.83952 3.11366 0
M  V30 15600 H 1427.57 -2.66868 1.88279 0
M  V30 15601 H 1426.23 -1.22734 3.45445 0
M  V30 15602 H 1425.87 -3.70289 3.40433 0
M  V30 15603 H 1425.57 -3.03809 5.02965 0
M  V30 15604 H 1427.1 -3.90729 4.69215 0
M  V30 15605 H 1428.51 -1.76735 5.45378 0
M  V30 15606 H 1426.91 -1.11201 5.89707 0
M  V30 15607 H 1427.98 -0.166682 4.84613 0
M  V30 15608 N 1429.32 -1.56304 -0.201686 0
M  V30 15609 C 1430.23 -1.97215 -1.27057 0
M  V30 15610 C 1431.25 -0.878834 -1.50175 0
M  V30 15611 O 1432.42 -1.18405 -1.62918 0
M  V30 15612 C 1429.49 -2.29772 -2.59626 0
M  V30 15613 C 1428.55 -3.52776 -2.44637 0
M  V30 15614 C 1427.78 -3.83771 -3.70885 0
M  V30 15615 O 1428.01 -3.16149 -4.7477 0
M  V30 15616 O 1426.94 -4.77216 -3.66808 0
M  V30 15617 H 1430.77 -2.88347 -0.953393 0
M  V30 15618 H 1428.35 -1.43773 -0.406158 0
M  V30 15619 H 1430.23 -2.51817 -3.37885 0
M  V30 15620 H 1428.91 -1.41809 -2.90984 0
M  V30 15621 H 1427.82 -3.35986 -1.64512 0
M  V30 15622 H 1429.15 -4.41184 -2.18214 0
M  V30 15623 N 1430.8 0.469154 -1.50455 0
M  V30 15624 C 1431.73 1.57493 -1.7239 0
M  V30 15625 C 1432.71 1.60161 -0.572915 0
M  V30 15626 O 1433.9 1.76397 -0.812259 0
M  V30 15627 C 1431.03 2.95804 -1.81981 0
M  V30 15628 C 1429.98 3.08001 -2.97185 0
M  V30 15629 C 1429.31 4.4798 -2.91922 0
M  V30 15630 C 1430.61 2.85039 -4.37665 0
M  V30 15631 H 1432.3 1.39389 -2.64974 0
M  V30 15632 H 1429.85 0.669133 -1.27509 0
M  V30 15633 H 1431.8 3.73091 -1.95911 0
M  V30 15634 H 1430.52 3.15068 -0.86021 0
M  V30 15635 H 1429.18 2.33148 -2.82909 0
M  V30 15636 H 1428.83 4.64165 -1.93803 0
M  V30 15637 H 1428.53 4.57076 -3.69263 0
M  V30 15638 H 1430.05 5.27284 -3.07903 0
M  V30 15639 H 1431.47 3.52074 -4.52456 0
M  V30 15640 H 1429.87 3.05578 -5.16471 0
M  V30 15641 H 1430.94 1.8088 -4.499 0
M  V30 15642 N 1432.28 1.40065 0.722464 0
M  V30 15643 C 1433.21 1.42532 1.84951 0
M  V30 15644 C 1434.19 0.287082 1.6766 0
M  V30 15645 O 1435.37 0.494715 1.87793 0
M  V30 15646 C 1432.5 1.28041 3.22836 0
M  V30 15647 C 1431.46 2.39396 3.54787 0
M  V30 15648 C 1430.78 2.09986 4.91742 0
M  V30 15649 C 1432.08 3.81729 3.56483 0
M  V30 15650 H 1433.78 2.36851 1.83144 0
M  V30 15651 H 1431.32 1.14005 0.879714 0
M  V30 15652 H 1433.28 1.28385 4.01367 0
M  V30 15653 H 1432 0.301947 3.25201 0
M  V30 15654 H 1430.66 2.3829 2.78592 0
M  V30 15655 H 1430.31 1.10547 4.90702 0
M  V30 15656 H 1430.01 2.84586 5.14086 0
M  V30 15657 H 1431.53 2.12 5.72615 0
M  V30 15658 H 1432.95 3.84696 4.25067 0
M  V30 15659 H 1431.34 4.55791 3.90351 0
M  V30 15660 H 1432.41 4.11807 2.56014 0
M  V30 15661 N 1433.76 -0.95397 1.25448 0
M  V30 15662 C 1434.7 -2.05075 1.0589 0
M  V30 15663 C 1435.67 -1.66069 -0.0321545 0
M  V30 15664 O 1436.86 -1.90389 0.125152 0
M  V30 15665 C 1434 -3.38246 0.684391 0
M  V30 15666 C 1433.11 -3.90366 1.85037 0
M  V30 15667 C 1432.25 -5.11864 1.42016 0
M  V30 15668 C 1431.29 -5.56214 2.55523 0
M  V30 15669 N 1430.42 -6.68924 2.13272 0
M  V30 15670 H 1435.26 -2.21137 1.99755 0
M  V30 15671 H 1432.8 -1.08366 0.994742 0
M  V30 15672 H 1434.76 -4.14785 0.448209 0
M  V30 15673 H 1433.39 -3.22068 -0.217273 0
M  V30 15674 H 1432.44 -3.1034 2.19984 0
M  V30 15675 H 1433.75 -4.19228 2.70276 0
M  V30 15676 H 1432.91 -5.95823 1.14366 0
M  V30 15677 H 1431.65 -4.84718 0.538492 0
M  V30 15678 H 1430.65 -4.7082 2.83916 0
M  V30 15679 H 1431.88 -5.85368 3.44268 0
M  V30 15680 H 1429.82 -6.43486 1.27523 0
M  V30 15681 H 1429.74 -6.97307 2.92059 0
M  V30 15682 H 1431.01 -7.5629 1.88801 0
M  V30 15683 N 1435.24 -1.07045 -1.15668 0
M  V30 15684 C 1436.65 -0.814932 -1.67975 0
M  V30 15685 C 1437 0.660408 -1.84751 0
M  V30 15686 O 1436.12 1.51156 -1.54857 0
M  V30 15687 C 1436.72 -1.47274 -3.05116 0
M  V30 15688 C 1435.28 -1.26481 -3.54513 0
M  V30 15689 C 1434.42 -1.54439 -2.30312 0
M  V30 15690 H 1437.37 -1.23291 -0.999251 0
M  V30 15691 H 1437.4 -0.892244 -3.69891 0
M  V30 15692 H 1436.91 -2.54649 -2.92874 0
M  V30 15693 H 1435.01 -0.211138 -3.72001 0
M  V30 15694 H 1435.12 -1.98283 -4.36143 0
M  V30 15695 H 1433.49 -0.965269 -2.357 0
M  V30 15696 H 1434.27 -2.6299 -2.20661 0
M  V30 15697 N 1436.71 1.32449 -0.85411 0
M  V30 15698 C 1437.64 2.31383 -0.313697 0
M  V30 15699 C 1438.62 1.59656 0.586858 0
M  V30 15700 O 1439.81 1.87459 0.507216 0
M  V30 15701 C 1436.94 3.43693 0.499235 0
M  V30 15702 C 1435.89 4.26899 -0.306839 0
M  V30 15703 C 1435.22 5.30966 0.630795 0
M  V30 15704 C 1436.52 4.99318 -1.53229 0
M  V30 15705 H 1438.21 2.76832 -1.14037 0
M  V30 15706 H 1435.76 1.33091 -0.549805 0
M  V30 15707 H 1437.71 4.11944 0.887709 0
M  V30 15708 H 1436.44 2.96971 1.35926 0
M  V30 15709 H 1435.1 3.60294 -0.677061 0
M  V30 15710 H 1434.74 4.80498 1.48765 0
M  V30 15711 H 1434.44 5.87522 0.0954635 0
M  V30 15712 H 1435.97 6.0208 1.01646 0
M  V30 15713 H 1437.38 5.60253 -1.21614 0
M  V30 15714 H 1435.78 5.65596 -2.00552 0
M  V30 15715 H 1436.85 4.27213 -2.29383 0
M  V30 15716 N 1438.19 0.611994 1.45232 0
M  V30 15717 C 1439.42 0.113618 2.07089 0
M  V30 15718 C 1439.84 -1.1947 1.45288 0
M  V30 15719 O 1439.2 -1.72845 0.547207 0
M  V30 15720 C 1439.25 -0.00789978 3.60599 0
M  V30 15721 O 1438.35 -1.05697 3.98625 0
M  V30 15722 H 1437.69 0.076066 0.659629 0
M  V30 15723 H 1440.22 0.843253 1.86415 0
M  V30 15724 H 1440.23 -0.204692 4.07486 0
M  V30 15725 H 1438.91 0.947386 4.04966 0
M  V30 15726 H 1437.48 -0.836291 3.63401 0
M  V30 15727 N 1439.67 -1.53632 0.351409 0
M  V30 15728 C 1440.62 -2.26782 -0.516983 0
M  V30 15729 C 1441.61 -1.29222 -1.09536 0
M  V30 15730 O 1442.82 -1.46901 -1.04019 0
M  V30 15731 H 1439.19 -0.728783 -0.185417 0
M  V30 15732 H 1441.16 -2.98151 0.121909 0
M  V30 15733 C 1439.91 -3.05943 -1.6521 0
M  V30 15734 H 1439.24 -3.80848 -1.21633 0
M  V30 15735 H 1440.68 -3.60328 -2.23472 0
M  V30 15736 C 1439.13 -2.15917 -2.58614 0
M  V30 15737 O 1439.66 -1.76049 -3.61067 0
M  V30 15738 N 1437.87 -1.80837 -2.27478 0
M  V30 15739 H 1437.42 -2.13456 -1.44202 0
M  V30 15740 H 1437.38 -1.20886 -2.90231 0
M  V30 15741 N 1441.15 -0.0802183 -1.57396 0
M  V30 15742 C 1442.39 0.587831 -1.94094 0
M  V30 15743 C 1442.73 1.6875 -0.961093 0
M  V30 15744 O 1442 1.94498 0.00832799 0
M  V30 15745 C 1442.28 1.15692 -3.41009 0
M  V30 15746 C 1442.14 0.0633211 -4.49755 0
M  V30 15747 C 1443.46 2.05987 -3.88918 0
M  V30 15748 H 1440.58 0.212214 -0.705786 0
M  V30 15749 H 1443.22 -0.147902 -1.89423 0
M  V30 15750 H 1441.37 1.78394 -3.4512 0
M  V30 15751 H 1443.04 -0.57019 -4.57763 0
M  V30 15752 H 1441.28 -0.605003 -4.2956 0
M  V30 15753 H 1441.95 0.502056 -5.49712 0
M  V30 15754 H 1444.43 1.5321 -3.86867 0
M  V30 15755 H 1443.31 2.42737 -4.92311 0
M  V30 15756 H 1443.57 2.97147 -3.27347 0
M  V30 15757 N 1442.63 1.56409 0.193394 0
M  V30 15758 C 1443.87 1.82511 0.920268 0
M  V30 15759 C 1444.23 0.657957 1.80374 0
M  V30 15760 O 1445.43 0.798914 2.56653 0
M  V30 15761 C 1443.7 3.13644 1.71354 0
M  V30 15762 S 1445.26 3.61158 2.4922 0
M  V30 15763 H 1442.08 0.64052 0.308634 0
M  V30 15764 H 1444.68 1.94637 0.183542 0
M  V30 15765 H 1443.38 3.96604 1.05514 0
M  V30 15766 H 1442.92 3.04402 2.49205 0
M  V30 15767 H 1444.93 3.26729 3.73447 0
M  V30 15768 N 1444.1 -0.461169 1.50702 0
M  V30 15769 C 1445.33 -1.24019 1.66235 0
M  V30 15770 C 1445.75 -1.84827 0.349388 0
M  V30 15771 O 1445.11 -1.67743 -0.687888 0
M  V30 15772 C 1445.16 -2.31743 2.76274 0
M  V30 15773 O 1444.26 -3.3664 2.38217 0
M  V30 15774 H 1443.6 -0.364424 0.55506 0
M  V30 15775 H 1446.13 -0.547636 1.97135 0
M  V30 15776 H 1446.14 -2.76902 2.99649 0
M  V30 15777 H 1444.82 -1.86858 3.7156 0
M  V30 15778 H 1443.4 -2.97123 2.25327 0
M  V30 15779 N 1445.58 -1.40446 -0.715026 0
M  V30 15780 C 1446.51 -1.43511 -1.84193 0
M  V30 15781 C 1447.49 -0.295969 -1.67505 0
M  V30 15782 O 1448.68 -0.504667 -1.87528 0
M  V30 15783 C 1445.81 -1.29751 -3.22152 0
M  V30 15784 C 1444.76 -2.41274 -3.53512 0
M  V30 15785 C 1444.09 -2.12591 -4.90621 0
M  V30 15786 C 1445.39 -3.83614 -3.54454 0
M  V30 15787 H 1447.08 -2.37819 -1.81885 0
M  V30 15788 H 1444.63 -1.14469 -0.873655 0
M  V30 15789 H 1446.58 -1.30511 -4.0068 0
M  V30 15790 H 1445.3 -0.319189 -3.25037 0
M  V30 15791 H 1443.96 -2.39764 -2.77324 0
M  V30 15792 H 1443.61 -1.13148 -4.90109 0
M  V30 15793 H 1443.31 -2.87308 -5.1257 0
M  V30 15794 H 1444.84 -2.15034 -5.71483 0
M  V30 15795 H 1446.25 -3.86945 -4.23021 0
M  V30 15796 H 1444.65 -4.57855 -3.87929 0
M  V30 15797 H 1445.72 -4.13159 -2.53827 0
M  V30 15798 N 1447.06 0.947303 -1.25952 0
M  V30 15799 C 1448.29 1.72479 -1.1373 0
M  V30 15800 C 1448.7 1.86629 0.310871 0
M  V30 15801 O 1448.04 1.36882 1.22512 0
M  V30 15802 C 1448.1 3.15328 -1.72651 0
M  V30 15803 C 1447.77 3.24584 -3.21705 0
M  V30 15804 C 1448.76 3.08331 -4.18602 0
M  V30 15805 C 1446.45 3.4817 -3.62054 0
M  V30 15806 C 1448.44 3.15523 -5.53827 0
M  V30 15807 C 1446.13 3.54997 -4.97413 0
M  V30 15808 C 1447.13 3.38689 -5.93109 0
M  V30 15809 O 1446.82 3.45212 -7.26005 0
M  V30 15810 H 1446.55 0.547044 -0.397138 0
M  V30 15811 H 1449.1 1.19654 -1.66949 0
M  V30 15812 H 1447.33 3.69549 -1.13887 0
M  V30 15813 H 1449.02 3.74965 -1.55423 0
M  V30 15814 H 1449.79 2.89971 -3.88769 0
M  V30 15815 H 1445.67 3.59922 -2.88057 0
M  V30 15816 H 1449.21 3.02711 -6.285 0
M  V30 15817 H 1445.11 3.72876 -5.26909 0
M  V30 15818 H 1445.87 3.61796 -7.34198 0
M  V30 15819 N 1448.54 1.07657 1.15099 0
M  V30 15820 C 1449.95 0.802696 1.37945 0
M  V30 15821 C 1450.15 -0.591622 1.92619 0
M  V30 15822 O 1449.21 -1.34979 2.13394 0
M  V30 15823 C 1450.52 1.87907 2.34759 0
M  V30 15824 C 1452.07 1.90418 2.48415 0
M  V30 15825 C 1452.55 2.97148 3.48521 0
M  V30 15826 N 1454.04 2.96271 3.56059 0
M  V30 15827 C 1454.77 3.75498 4.33346 0
M  V30 15828 N 1454.27 4.64583 5.1394 0
M  V30 15829 N 1456.06 3.63831 4.28466 0
M  V30 15830 H 1448.21 1.97578 0.779537 0
M  V30 15831 H 1450.48 0.856978 0.405331 0
M  V30 15832 H 1450.18 2.8811 2.01707 0
M  V30 15833 H 1450.06 1.74183 3.34575 0
M  V30 15834 H 1452.44 0.908655 2.80762 0
M  V30 15835 H 1452.52 2.0822 1.48586 0
M  V30 15836 H 1452.17 3.96903 3.16908 0
M  V30 15837 H 1452.1 2.76593 4.48112 0
M  V30 15838 H 1454.59 2.31697 2.98538 0
M  V30 15839 H 1454.9 5.2166 5.70167 0
M  V30 15840 H 1453.25 4.6863 5.13236 0
M  V30 15841 H 1456.44 2.93609 3.6457 0
M  V30 15842 H 1456.61 4.25818 4.8845 0
M  V30 15843 N 1450.02 -1.31994 0.861122 0
M  V30 15844 C 1451.43 -1.49756 0.551844 0
M  V30 15845 C 1451.63 -1.79473 -0.916056 0
M  V30 15846 O 1450.69 -1.86813 -1.69874 0
M  V30 15847 C 1452 -2.63737 1.44442 0
M  V30 15848 C 1453.55 -2.77621 1.44552 0
M  V30 15849 C 1454.02 -3.94689 2.32346 0
M  V30 15850 N 1455.52 -4.01961 2.30177 0
M  V30 15851 C 1456.25 -4.91794 2.94833 0
M  V30 15852 N 1455.75 -5.86589 3.68626 0
M  V30 15853 N 1457.54 -4.84968 2.84188 0
M  V30 15854 H 1449.69 -1.10972 1.81105 0
M  V30 15855 H 1451.95 -0.54753 0.773896 0
M  V30 15856 H 1451.66 -2.48526 2.48853 0
M  V30 15857 H 1451.53 -3.59671 1.13651 0
M  V30 15858 H 1453.92 -2.92251 0.409034 0
M  V30 15859 H 1454 -1.8238 1.79363 0
M  V30 15860 H 1453.65 -3.80817 3.36067 0
M  V30 15861 H 1453.58 -4.89219 1.94865 0
M  V30 15862 H 1456.07 -3.34132 1.76533 0
M  V30 15863 H 1456.38 -6.51846 4.15111 0
M  V30 15864 H 1454.72 -5.86596 3.72734 0
M  V30 15865 H 1457.92 -4.09883 2.26084 0
M  V30 15866 H 1458.09 -5.54774 3.34857 0
M  V30 15867 N 1451.49 -0.619688 -1.44906 0
M  V30 15868 C 1452.77 -0.0510703 -1.95533 0
M  V30 15869 C 1453.15 1.42013 -1.56191 0
M  V30 15870 O 1452.5 2.12879 -0.830356 0
M  V30 15871 C 1452.71 -0.261896 -3.48016 0
M  V30 15872 C 1454.06 -0.149057 -4.24338 0
M  V30 15873 O 1455.08 -0.192655 -3.55679 0
M  V30 15874 O 1453.94 -0.0443345 -5.46482 0
M  V30 15875 H 1451.03 0.0288461 -0.826497 0
M  V30 15876 H 1453.58 -0.690594 -1.55013 0
M  V30 15877 H 1452.35 -1.28319 -3.69662 0
M  V30 15878 H 1451.98 0.412314 -3.95456 0
M  V30 15879 N 1452.97 1.53444 -0.359552 0
M  V30 15880 C 1453.9 2.23121 0.524379 0
M  V30 15881 C 1454.92 1.24324 1.05106 0
M  V30 15882 O 1456.11 1.50584 0.958476 0
M  V30 15883 C 1453.21 2.91055 1.7361 0
M  V30 15884 C 1452.38 4.16306 1.34195 0
M  V30 15885 C 1451.44 4.67504 2.41508 0
M  V30 15886 O 1450.46 5.3133 2.04149 0
M  V30 15887 N 1451.67 4.44801 3.73005 0
M  V30 15888 H 1454.43 2.99612 -0.072427 0
M  V30 15889 H 1451.99 1.60846 -0.184438 0
M  V30 15890 H 1453.98 3.22216 2.44865 0
M  V30 15891 H 1452.55 2.18052 2.23991 0
M  V30 15892 H 1451.77 3.91513 0.459501 0
M  V30 15893 H 1453.06 4.97746 1.05483 0
M  V30 15894 H 1452.46 3.9379 4.06136 0
M  V30 15895 H 1451.02 4.80528 4.40382 0
M  V30 15896 N 1454.45 0.0885642 1.57351 0
M  V30 15897 C 1455.73 -0.618587 1.85561 0
M  V30 15898 C 1456.11 -1.86753 0.984206 0
M  V30 15899 O 1455.46 -2.28434 0.0548839 0
M  V30 15900 C 1455.67 -0.940222 3.36096 0
M  V30 15901 C 1457.01 -1.30649 4.04 0
M  V30 15902 O 1458.04 -1.03144 3.4094 0
M  V30 15903 O 1456.9 -1.82135 5.15256 0
M  V30 15904 H 1453.99 -0.308881 0.767152 0
M  V30 15905 H 1456.54 0.120767 1.6927 0
M  V30 15906 H 1455.31 -0.0538991 3.91263 0
M  V30 15907 H 1454.93 -1.73577 3.5771 0
M  V30 15908 N 1455.93 -1.56509 -0.185096 0
M  V30 15909 C 1457.17 -1.81474 -0.905263 0
M  V30 15910 C 1457.51 -0.664225 -1.82488 0
M  V30 15911 O 1456.78 0.33466 -1.91599 0
M  V30 15912 C 1457.07 -3.16754 -1.71287 0
M  V30 15913 C 1456.92 -4.42312 -0.817302 0
M  V30 15914 C 1458.24 -3.48828 -2.68342 0
M  V30 15915 H 1455.36 -0.660155 -0.327664 0
M  V30 15916 H 1458 -1.89219 -0.172129 0
M  V30 15917 H 1456.15 -3.10282 -2.33789 0
M  V30 15918 H 1457.82 -4.60839 -0.206218 0
M  V30 15919 H 1456.06 -4.33621 -0.124564 0
M  V30 15920 H 1456.73 -5.33487 -1.41758 0
M  V30 15921 H 1459.21 -3.55663 -2.15969 0
M  V30 15922 H 1458.09 -4.44585 -3.21924 0
M  V30 15923 H 1458.35 -2.72829 -3.47875 0
M  V30 15924 N 1457.41 0.45317 -1.50944 0
M  V30 15925 C 1458.65 1.21354 -1.64476 0
M  V30 15926 C 1459.01 1.88859 -0.345879 0
M  V30 15927 O 1460.21 2.66421 -0.356808 0
M  V30 15928 C 1458.48 2.21565 -2.80435 0
M  V30 15929 S 1460.04 3.06302 -3.14205 0
M  V30 15930 H 1456.86 0.411762 -0.579632 0
M  V30 15931 H 1459.46 0.50762 -1.88795 0
M  V30 15932 H 1458.17 1.70585 -3.73268 0
M  V30 15933 H 1457.7 2.96761 -2.58257 0
M  V30 15934 H 1459.71 4.22988 -2.59414 0
M  V30 15935 N 1458.88 1.40823 0.707568 0
M  V30 15936 C 1459.83 1.41724 1.82162 0
M  V30 15937 C 1460.8 0.273135 1.63839 0
M  V30 15938 O 1461.99 0.472399 1.84859 0
M  V30 15939 C 1459.13 1.29347 3.19943 0
M  V30 15940 C 1458.24 2.53529 3.49782 0
M  V30 15941 C 1457.37 2.33533 4.77112 0
M  V30 15942 C 1456.41 3.53252 4.9988 0
M  V30 15943 N 1455.55 3.32401 6.18429 0
M  V30 15944 H 1460.39 2.36943 1.80726 0
M  V30 15945 H 1457.93 1.17671 0.882723 0
M  V30 15946 H 1459.89 1.20175 3.99517 0
M  V30 15947 H 1458.52 0.377426 3.20586 0
M  V30 15948 H 1457.57 2.73198 2.64702 0
M  V30 15949 H 1458.88 3.42617 3.62512 0
M  V30 15950 H 1458.03 2.2176 5.64719 0
M  V30 15951 H 1456.77 1.41883 4.66605 0
M  V30 15952 H 1455.78 3.65492 4.10725 0
M  V30 15953 H 1457 4.4584 5.12253 0
M  V30 15954 H 1454.95 2.4344 6.09158 0
M  V30 15955 H 1454.87 4.15059 6.31872 0
M  V30 15956 H 1456.13 3.24377 7.08802 0
M  V30 15957 N 1460.36 -0.94061 1.26453 0
M  V30 15958 C 1461.59 -1.72123 1.1481 0
M  V30 15959 C 1462.01 -1.86456 -0.296604 0
M  V30 15960 O 1461.36 -1.37234 -1.20304 0
M  V30 15961 C 1461.41 -3.1277 1.81266 0
M  V30 15962 O 1461.13 -2.99122 3.2009 0
M  V30 15963 C 1462.64 -4.07045 1.75584 0
M  V30 15964 H 1459.86 -0.538908 0.399774 0
M  V30 15965 H 1462.4 -1.17913 1.67083 0
M  V30 15966 H 1460.55 -3.6388 1.32928 0
M  V30 15967 H 1460.97 -3.87946 3.52984 0
M  V30 15968 H 1462.44 -5.03292 2.26719 0
M  V30 15969 H 1462.92 -4.33217 0.722466 0
M  V30 15970 H 1463.53 -3.61855 2.23475 0
M  V30 15971 N 1461.84 -1.08266 -1.14527 0
M  V30 15972 C 1463.09 -0.806405 -1.84878 0
M  V30 15973 C 1463.4 0.670151 -1.83762 0
M  V30 15974 O 1464.61 1.06151 -2.49888 0
M  V30 15975 C 1463.06 -1.39257 -3.31867 0
M  V30 15976 C 1462.67 -2.90081 -3.41404 0
M  V30 15977 C 1464.42 -1.19475 -4.0734 0
M  V30 15978 C 1462.32 -3.41842 -4.82595 0
M  V30 15979 H 1461.25 -0.297993 -0.692615 0
M  V30 15980 H 1463.9 -1.30389 -1.29116 0
M  V30 15981 H 1462.29 -0.822802 -3.87358 0
M  V30 15982 H 1463.46 -3.53182 -2.95971 0
M  V30 15983 H 1461.78 -3.08761 -2.79385 0
M  V30 15984 H 1464.37 -1.55614 -5.11555 0
M  V30 15985 H 1464.72 -0.134455 -4.16083 0
M  V30 15986 H 1465.25 -1.73138 -3.58145 0
M  V30 15987 H 1461.99 -4.47439 -4.79039 0
M  V30 15988 H 1461.51 -2.835 -5.28572 0
M  V30 15989 H 1463.19 -3.38346 -5.51481 0
M  V30 15990 N 1463.32 1.31536 -0.86811 0
M  V30 15991 C 1464.25 2.31037 -0.33822 0
M  V30 15992 C 1465.23 1.60269 0.569892 0
M  V30 15993 O 1466.42 1.87987 0.487305 0
M  V30 15994 C 1463.55 3.44203 0.462753 0
M  V30 15995 C 1462.5 4.26549 -0.3521 0
M  V30 15996 C 1461.83 5.31605 0.574443 0
M  V30 15997 C 1463.13 4.97665 -1.58516 0
M  V30 15998 H 1464.82 2.75607 -1.16967 0
M  V30 15999 H 1462.37 1.325 -0.56389 0
M  V30 16000 H 1464.32 4.12862 0.843967 0
M  V30 16001 H 1463.04 2.98396 1.32769 0
M  V30 16002 H 1461.7 3.59555 -0.715237 0
M  V30 16003 H 1461.35 4.82048 1.43661 0
M  V30 16004 H 1461.05 5.87591 0.0331436 0
M  V30 16005 H 1462.57 6.03124 0.952541 0
M  V30 16006 H 1463.99 5.58931 -1.27549 0
M  V30 16007 H 1462.38 5.63437 -2.06539 0
M  V30 16008 H 1463.45 4.24756 -2.33902 0
M  V30 16009 N 1464.8 0.627364 1.44575 0
M  V30 16010 C 1465.75 -0.0920488 2.32418 0
M  V30 16011 C 1466.74 -0.839633 1.47128 0
M  V30 16012 O 1467.95 -0.752958 1.63495 0
M  V30 16013 H 1464.32 -0.0485336 0.750432 0
M  V30 16014 H 1466.29 0.666959 2.90851 0
M  V30 16015 C 1465.04 -1.06262 3.31064 0
M  V30 16016 H 1464.36 -0.4968 3.96701 0
M  V30 16017 H 1465.8 -1.53556 3.95217 0
M  V30 16018 C 1464.26 -2.14601 2.59707 0
M  V30 16019 O 1464.79 -3.2263 2.39317 0
M  V30 16020 N 1463 -1.90431 2.19509 0
M  V30 16021 H 1462.55 -1.02584 2.36293 0
M  V30 16022 H 1462.5 -2.6312 1.72091 0
M  V30 16023 N 1466.28 -1.53251 0.367684 0
M  V30 16024 C 1467.23 -2.22578 -0.494287 0
M  V30 16025 C 1468.21 -1.22175 -1.047 0
M  V30 16026 O 1469.4 -1.47613 -0.976696 0
M  V30 16027 C 1466.53 -3.02007 -1.63238 0
M  V30 16028 C 1465.62 -4.09788 -1.09244 0
M  V30 16029 N 1466.01 -5.05048 -0.275665 0
M  V30 16030 C 1464.31 -4.24532 -1.36705 0
M  V30 16031 C 1465.01 -5.81696 0.0201973 0
M  V30 16032 N 1463.98 -5.40518 -0.577991 0
M  V30 16033 H 1467.78 -2.93583 0.136532 0
M  V30 16034 H 1465.3 -1.61446 0.175813 0
M  V30 16035 H 1467.3 -3.50193 -2.26209 0
M  V30 16036 H 1465.96 -2.32533 -2.26624 0
M  V30 16037 H 1466.97 -5.1783 0.0853053 0
M  V30 16038 H 1463.64 -3.66285 -2.00354 0
M  V30 16039 H 1465.03 -6.68444 0.680622 0
M  V30 16040 N 1467.75 -0.0969077 -1.57302 0
M  V30 16041 C 1469 0.567212 -1.94706 0
M  V30 16042 C 1469.33 1.67721 -0.978937 0
M  V30 16043 O 1468.61 1.94496 -0.0123016 0
M  V30 16044 C 1468.89 1.12069 -3.42217 0
M  V30 16045 C 1468.74 0.015615 -4.49797 0
M  V30 16046 C 1470.06 2.0185 -3.91081 0
M  V30 16047 H 1467.18 0.204716 -0.707997 0
M  V30 16048 H 1469.82 -0.167984 -1.89256 0
M  V30 16049 H 1467.97 1.74723 -3.46993 0
M  V30 16050 H 1469.65 -0.61871 -4.57132 0
M  V30 16051 H 1467.89 -0.650529 -4.28895 0
M  V30 16052 H 1468.56 0.443724 -5.50214 0
M  V30 16053 H 1471.04 1.49098 -3.8847 0
M  V30 16054 H 1469.91 2.37502 -4.94858 0
M  V30 16055 H 1470.17 2.93659 -3.3048 0
M  V30 16056 N 1469.23 1.56605 0.176793 0
M  V30 16057 C 1470.16 1.99014 1.2213 0
M  V30 16058 C 1471.14 0.86487 1.46472 0
M  V30 16059 O 1472.33 1.13055 1.57899 0
M  V30 16060 C 1469.46 2.34534 2.56146 0
M  V30 16061 C 1468.41 3.4997 2.46384 0
M  V30 16062 C 1467.74 3.71217 3.8484 0
M  V30 16063 C 1469.04 4.83592 1.97323 0
M  V30 16064 H 1470.73 2.86517 0.8688 0
M  V30 16065 H 1468.28 1.37846 0.416481 0
M  V30 16066 H 1470.23 2.62799 3.29416 0
M  V30 16067 H 1468.95 1.43933 2.93174 0
M  V30 16068 H 1467.61 3.21824 1.75569 0
M  V30 16069 H 1467.26 2.77916 4.19251 0
M  V30 16070 H 1466.96 4.48885 3.79178 0
M  V30 16071 H 1468.49 4.01877 4.59704 0
M  V30 16072 H 1469.9 5.10768 2.60363 0
M  V30 16073 H 1468.3 5.64858 2.02622 0
M  V30 16074 H 1469.37 4.75951 0.927275 0
M  V30 16075 N 1470.71 -0.445159 1.51182 0
M  V30 16076 C 1471.66 -1.53798 1.68316 0
M  V30 16077 C 1472.64 -1.51666 0.537244 0
M  V30 16078 O 1473.84 -1.58251 0.792818 0
M  V30 16079 C 1470.96 -2.92053 1.80444 0
M  V30 16080 C 1470.05 -2.98971 3.00794 0
M  V30 16081 N 1470.44 -2.75648 4.24089 0
M  V30 16082 C 1468.74 -3.30127 2.99887 0
M  V30 16083 C 1469.44 -2.88206 5.05284 0
M  V30 16084 N 1468.42 -3.19538 4.39769 0
M  V30 16085 H 1472.22 -1.34506 2.61315 0
M  V30 16086 H 1469.73 -0.652341 1.48722 0
M  V30 16087 H 1471.73 -3.70663 1.90827 0
M  V30 16088 H 1470.39 -3.12372 0.886204 0
M  V30 16089 H 1471.4 -2.50727 4.53163 0
M  V30 16090 H 1468.08 -3.5627 2.17665 0
M  V30 16091 H 1469.47 -2.74194 6.13406 0
M  V30 16092 N 1472.19 -1.41197 -0.700089 0
M  V30 16093 C 1473.43 -1.40519 -1.46227 0
M  V30 16094 C 1473.77 -0.0126108 -1.94196 0
M  V30 16095 O 1473.04 0.958837 -1.69223 0
M  V30 16096 C 1473.32 -2.40808 -2.67738 0
M  V30 16097 C 1473.18 -3.89154 -2.25563 0
M  V30 16098 C 1474.5 -2.38415 -3.69927 0
M  V30 16099 H 1471.62 -0.511724 -0.530384 0
M  V30 16100 H 1474.26 -1.72441 -0.797754 0
M  V30 16101 H 1472.41 -2.13717 -3.24434 0
M  V30 16102 H 1474.08 -4.27132 -1.74229 0
M  V30 16103 H 1472.32 -4.04239 -1.57395 0
M  V30 16104 H 1472.99 -4.54866 -3.12731 0
M  V30 16105 H 1475.47 -2.62447 -3.22895 0
M  V30 16106 H 1474.35 -3.10609 -4.52563 0
M  V30 16107 H 1474.61 -1.40116 -4.19309 0
M  V30 16108 N 1473.67 0.933891 -1.2695 0
M  V30 16109 C 1474.91 1.6834 -1.13091 0
M  V30 16110 C 1475.24 1.91484 0.32367 0
M  V30 16111 O 1474.52 1.50075 1.23724 0
M  V30 16112 C 1474.8 3.05374 -1.90838 0
M  V30 16113 C 1474.66 2.8951 -3.44244 0
M  V30 16114 C 1475.97 4.05607 -1.70795 0
M  V30 16115 H 1473.09 0.610944 -0.41221 0
M  V30 16116 H 1475.74 1.08416 -1.56032 0
M  V30 16117 H 1473.89 3.56526 -1.54343 0
M  V30 16118 H 1475.56 2.45523 -3.90533 0
M  V30 16119 H 1473.8 2.24981 -3.70899 0
M  V30 16120 H 1474.47 3.86734 -3.93879 0
M  V30 16121 H 1476.95 3.63443 -2.02604 0
M  V30 16122 H 1475.82 4.9949 -2.27597 0
M  V30 16123 H 1476.08 4.37231 -0.654327 0
M  V30 16124 N 1475.14 1.08871 1.13951 0
M  V30 16125 C 1476.09 0.722966 2.19184 0
M  V30 16126 C 1477.06 -0.293108 1.63493 0
M  V30 16127 O 1478.25 -0.176036 1.89986 0
M  V30 16128 C 1475.39 0.143542 3.44801 0
M  V30 16129 C 1474.5 1.21297 4.14622 0
M  V30 16130 C 1473.63 0.596902 5.27836 0
M  V30 16131 C 1472.67 1.64803 5.89497 0
M  V30 16132 N 1471.81 1.05341 6.94152 0
M  V30 16133 H 1476.65 1.62464 2.49819 0
M  V30 16134 H 1474.19 0.811803 1.22671 0
M  V30 16135 H 1476.14 -0.210153 4.1667 0
M  V30 16136 H 1474.77 -0.721426 3.14635 0
M  V30 16137 H 1473.83 1.68403 3.41093 0
M  V30 16138 H 1475.14 2.00931 4.56539 0
M  V30 16139 H 1474.29 0.191724 6.06397 0
M  V30 16140 H 1473.03 -0.231052 4.87152 0
M  V30 16141 H 1472.04 2.06282 5.09635 0
M  V30 16142 H 1473.26 2.47855 6.32254 0
M  V30 16143 H 1471.21 0.24664 6.55536 0
M  V30 16144 H 1471.12 1.7868 7.34581 0
M  V30 16145 H 1472.39 0.674253 7.76578 0
M  V30 16146 N 1476.62 -1.31073 0.875073 0
M  V30 16147 C 1477.57 -2.30335 0.3238 0
M  V30 16148 C 1478.56 -1.5974 -0.563869 0
M  V30 16149 O 1479.77 -1.743 -0.449402 0
M  V30 16150 H 1476.14 -0.747062 0.0860376 0
M  V30 16151 H 1478.12 -2.743 1.17483 0
M  V30 16152 C 1476.86 -3.44705 -0.455348 0
M  V30 16153 H 1476.19 -3.99203 0.218433 0
M  V30 16154 H 1477.63 -4.16262 -0.806329 0
M  V30 16155 C 1476.09 -2.93807 -1.6486 0
M  V30 16156 O 1476.62 -2.93004 -2.74794 0
M  V30 16157 N 1474.82 -2.49944 -1.48244 0
M  V30 16158 H 1474.37 -2.50797 -0.588116 0
M  V30 16159 H 1474.33 -2.16245 -2.28222 0
M  V30 16160 N 1478.1 -0.635022 -1.4424 0
M  V30 16161 C 1479.03 0.0543561 -2.33437 0
M  V30 16162 C 1480.01 0.830807 -1.48431 0
M  V30 16163 O 1481.2 0.795913 -1.77141 0
M  V30 16164 C 1478.33 1.03391 -3.31553 0
M  V30 16165 C 1477.28 0.368824 -4.26408 0
M  V30 16166 C 1476.61 1.45855 -5.14422 0
M  V30 16167 C 1477.91 -0.727381 -5.1721 0
M  V30 16168 H 1479.6 -0.690489 -2.91329 0
M  V30 16169 H 1477.15 -0.3335 -1.40085 0
M  V30 16170 H 1479.1 1.52495 -3.9284 0
M  V30 16171 H 1477.82 1.80969 -2.71878 0
M  V30 16172 H 1476.48 -0.101605 -3.66459 0
M  V30 16173 H 1476.13 2.22531 -4.51098 0
M  V30 16174 H 1475.83 1.0189 -5.78699 0
M  V30 16175 H 1477.35 1.95132 -5.78581 0
M  V30 16176 H 1478.77 -0.319272 -5.7241 0
M  V30 16177 H 1477.17 -1.09041 -5.9011 0
M  V30 16178 H 1478.24 -1.59292 -4.57989 0
M  V30 16179 N 1479.58 1.53054 -0.375806 0
M  V30 16180 C 1480.83 2.01003 0.210257 0
M  V30 16181 C 1481.15 1.26451 1.48442 0
M  V30 16182 O 1480.42 0.380687 1.92166 0
M  V30 16183 H 1479 0.74263 0.0806861 0
M  V30 16184 H 1481.66 1.8826 -0.504393 0
M  V30 16185 H 1480.76 3.09123 0.430027 0
M  V30 16186 N 1481.06 0.105248 1.57248 0
M  V30 16187 C 1481.99 -0.880221 2.11624 0
M  V30 16188 C 1483 -1.23924 1.05578 0
M  V30 16189 O 1484.19 -1.19059 1.32994 0
M  V30 16190 C 1481.29 -2.18628 2.5895 0
M  V30 16191 C 1480.46 -2.00105 3.88943 0
M  V30 16192 C 1479.52 -3.14315 4.2201 0
M  V30 16193 O 1478.55 -2.87832 4.91061 0
M  V30 16194 N 1479.75 -4.4037 3.78226 0
M  V30 16195 H 1482.52 -0.415742 2.96802 0
M  V30 16196 H 1480.08 -0.0795714 1.61704 0
M  V30 16197 H 1482.07 -2.94002 2.7811 0
M  V30 16198 H 1480.64 -2.56467 1.78727 0
M  V30 16199 H 1479.86 -1.09003 3.7883 0
M  V30 16200 H 1481.15 -1.85018 4.73968 0
M  V30 16201 H 1480.54 -4.64765 3.22506 0
M  V30 16202 H 1479.1 -5.1266 4.02521 0
M  V30 16203 N 1482.53 -1.56697 -0.168486 0
M  V30 16204 C 1483.76 -1.86652 -0.904195 0
M  V30 16205 C 1484.18 -0.691906 -1.74912 0
M  V30 16206 O 1483.54 0.358971 -1.77711 0
M  V30 16207 C 1483.59 -3.15043 -1.75442 0
M  V30 16208 O 1482.69 -2.97466 -2.85636 0
M  V30 16209 H 1482.04 -0.613859 -0.253128 0
M  V30 16210 H 1484.57 -2.03927 -0.165773 0
M  V30 16211 H 1484.58 -3.4652 -2.15378 0
M  V30 16212 H 1483.25 -4.00147 -1.13381 0
M  V30 16213 H 1481.83 -2.7735 -2.49262 0
M  V30 16214 N 1484.01 0.437135 -1.51416 0
M  V30 16215 C 1484.96 1.55124 -1.73319 0
M  V30 16216 C 1485.95 1.58437 -0.599511 0
M  V30 16217 O 1487.16 1.62179 -0.780896 0
M  V30 16218 H 1483.54 0.515368 -0.547632 0
M  V30 16219 H 1485.51 1.33824 -2.66709 0
M  V30 16220 C 1484.26 2.92778 -1.87554 0
M  V30 16221 H 1483.58 2.9096 -2.74194 0
M  V30 16222 H 1485.02 3.70097 -2.06891 0
M  V30 16223 C 1483.48 3.30854 -0.635408 0
M  V30 16224 O 1484.01 4.01152 0.20983 0
M  V30 16225 N 1482.21 2.86618 -0.47944 0
M  V30 16226 H 1481.76 2.29582 -1.16834 0
M  V30 16227 H 1481.72 3.12456 0.349078 0
M  V30 16228 N 1485.49 1.41566 0.692592 0
M  V30 16229 C 1486.42 1.38067 1.81694 0
M  V30 16230 C 1487.4 0.247482 1.60706 0
M  V30 16231 O 1488.59 0.43487 1.83415 0
M  V30 16232 C 1485.71 1.15438 3.18421 0
M  V30 16233 C 1484.76 2.31515 3.58194 0
M  V30 16234 S 1485.59 3.94003 3.6266 0
M  V30 16235 C 1486.75 3.73683 5.02108 0
M  V30 16236 H 1486.98 2.33215 1.84386 0
M  V30 16237 H 1484.51 1.28125 0.861585 0
M  V30 16238 H 1486.47 1.03069 3.9735 0
M  V30 16239 H 1485.13 0.219055 3.13335 0
M  V30 16240 H 1484.33 2.11383 4.57529 0
M  V30 16241 H 1483.93 2.40307 2.86581 0
M  V30 16242 H 1486.22 3.33573 5.89691 0
M  V30 16243 H 1487.16 4.72631 5.27281 0
M  V30 16244 H 1487.57 3.06899 4.73786 0
M  V30 16245 N 1486.97 -0.927146 1.27443 0
M  V30 16246 C 1488.25 -1.65322 1.04538 0
M  V30 16247 C 1488.63 -2.06886 -0.419694 0
M  V30 16248 O 1487.97 -1.80352 -1.40304 0
M  V30 16249 C 1488.18 -2.85486 2.00746 0
M  V30 16250 C 1489.53 -3.56816 2.30147 0
M  V30 16251 O 1490.56 -2.95613 1.98724 0
M  V30 16252 O 1489.41 -4.67085 2.83714 0
M  V30 16253 H 1486.51 -0.724627 0.398554 0
M  V30 16254 H 1489.05 -0.977633 1.3871 0
M  V30 16255 H 1487.83 -2.51766 2.99549 0
M  V30 16256 H 1487.45 -3.60763 1.67139 0
M  V30 16257 N 1488.45 -1.09474 -1.13372 0
M  V30 16258 C 1489.67 -0.853093 -1.89043 0
M  V30 16259 C 1490.1 0.590075 -1.78605 0
M  V30 16260 O 1489.45 1.41462 -1.13394 0
M  V30 16261 C 1489.5 -1.29359 -3.36599 0
M  V30 16262 O 1488.61 -0.452355 -4.09912 0
M  V30 16263 H 1487.95 -0.308922 -0.587761 0
M  V30 16264 H 1490.48 -1.459 -1.43437 0
M  V30 16265 H 1490.49 -1.27921 -3.87428 0
M  V30 16266 H 1489.16 -2.3446 -3.43513 0
M  V30 16267 H 1487.74 -0.531098 -3.69099 0
M  V30 16268 N 1489.92 1.30607 -0.882012 0
M  V30 16269 C 1490.83 2.31967 -0.350503 0
M  V30 16270 C 1491.85 1.6522 0.54575 0
M  V30 16271 O 1493.03 1.96544 0.439581 0
M  V30 16272 C 1490.09 3.44037 0.428924 0
M  V30 16273 C 1489.15 4.26417 -0.496727 0
M  V30 16274 C 1488.39 5.33135 0.245597 0
M  V30 16275 O 1488.61 5.51077 1.47209 0
M  V30 16276 O 1487.54 6.00551 -0.402767 0
M  V30 16277 H 1491.37 2.79374 -1.19095 0
M  V30 16278 H 1488.95 1.34723 -0.645754 0
M  V30 16279 H 1490.84 4.12314 0.870346 0
M  V30 16280 H 1489.51 2.9877 1.24573 0
M  V30 16281 H 1488.42 3.60848 -0.986899 0
M  V30 16282 H 1489.75 4.7528 -1.27945 0
M  V30 16283 N 1491.4 0.642663 1.43901 0
M  V30 16284 C 1492.35 -0.0673926 2.32502 0
M  V30 16285 C 1493.34 -0.823981 1.4801 0
M  V30 16286 O 1494.55 -0.735575 1.64284 0
M  V30 16287 H 1490.93 -0.0405715 0.750905 0
M  V30 16288 H 1492.9 0.69777 2.90127 0
M  V30 16289 C 1491.65 -1.02745 3.32173 0
M  V30 16290 H 1490.97 -0.454697 3.97206 0
M  V30 16291 H 1492.41 -1.49355 3.96824 0
M  V30 16292 C 1490.87 -2.11835 2.61969 0
M  V30 16293 O 1491.4 -3.20074 2.42725 0
M  V30 16294 N 1489.6 -1.88092 2.21517 0
M  V30 16295 H 1489.15 -1.00072 2.37368 0
M  V30 16296 H 1489.11 -2.61279 1.74873 0
M  V30 16297 N 1492.88 -1.52852 0.383918 0
M  V30 16298 C 1494.11 -2.05929 -0.200216 0
M  V30 16299 C 1494.52 -1.25606 -1.40956 0
M  V30 16300 O 1493.88 -0.301336 -1.79995 0
M  V30 16301 C 1493.93 -3.56887 -0.575655 0
M  V30 16302 O 1493.65 -4.34168 0.58564 0
M  V30 16303 C 1495.15 -4.2629 -1.21623 0
M  V30 16304 H 1492.37 -0.670261 -0.0314727 0
M  V30 16305 H 1494.92 -1.97032 0.547591 0
M  V30 16306 H 1493.07 -3.65875 -1.27336 0
M  V30 16307 H 1493.49 -5.23761 0.278267 0
M  V30 16308 H 1494.96 -5.33174 -1.42933 0
M  V30 16309 H 1495.44 -3.81163 -2.182 0
M  V30 16310 H 1496.04 -4.21605 -0.559435 0
M  V30 16311 N 1494.36 -0.113586 -1.5719 0
M  V30 16312 C 1495.78 0.243023 -1.57739 0
M  V30 16313 C 1495.98 1.67105 -1.12597 0
M  V30 16314 O 1495.03 2.39126 -0.810874 0
M  V30 16315 C 1496.34 0.014629 -3.00696 0
M  V30 16316 C 1497.89 0.0809485 -3.12895 0
M  V30 16317 C 1498.37 -0.119685 -4.57844 0
M  V30 16318 N 1499.86 -0.0654711 -4.63154 0
M  V30 16319 C 1500.59 -0.195692 -5.73066 0
M  V30 16320 N 1500.09 -0.381782 -6.91747 0
M  V30 16321 N 1501.88 -0.13565 -5.61936 0
M  V30 16322 H 1494.03 -1.04639 -1.84836 0
M  V30 16323 H 1496.3 -0.411609 -0.85398 0
M  V30 16324 H 1496 -0.972399 -3.3799 0
M  V30 16325 H 1495.88 0.748882 -3.69691 0
M  V30 16326 H 1498.26 1.0585 -2.75463 0
M  V30 16327 H 1498.34 -0.685097 -2.46455 0
M  V30 16328 H 1497.99 -1.09418 -4.95974 0
M  V30 16329 H 1497.92 0.666281 -5.22368 0
M  V30 16330 H 1500.41 0.0750649 -3.77825 0
M  V30 16331 H 1500.72 -0.472157 -7.71356 0
M  V30 16332 H 1499.07 -0.417686 -6.93744 0
M  V30 16333 H 1502.26 0.0087301 -4.68099 0
M  V30 16334 H 1502.43 -0.240579 -6.47553 0
M  V30 16335 N 1495.84 1.56784 0.160173 0
M  V30 16336 C 1497.11 1.73513 0.902908 0
M  V30 16337 C 1497.49 0.678036 1.99915 0
M  V30 16338 O 1496.84 -0.305302 2.26451 0
M  V30 16339 C 1497.05 3.17111 1.45744 0
M  V30 16340 C 1498.4 3.78404 1.92602 0
M  V30 16341 O 1499.42 3.20459 1.55515 0
M  V30 16342 O 1498.28 4.80172 2.60954 0
M  V30 16343 H 1495.38 0.708981 0.425764 0
M  V30 16344 H 1497.92 1.69061 0.147129 0
M  V30 16345 H 1496.7 3.85539 0.668985 0
M  V30 16346 H 1496.32 3.25936 2.2771 0
M  V30 16347 N 1497.32 -0.429099 1.51646 0
M  V30 16348 C 1498.28 -1.50398 1.72954 0
M  V30 16349 C 1499.28 -1.49207 0.599491 0
M  V30 16350 O 1500.47 -1.51084 0.867143 0
M  V30 16351 C 1497.6 -2.89903 1.79358 0
M  V30 16352 H 1498.79 -1.32805 2.68892 0
M  V30 16353 H 1496.35 -0.658313 1.4176 0
M  V30 16354 H 1497.08 -3.12891 0.852639 0
M  V30 16355 H 1496.87 -2.92171 2.61492 0
M  V30 16356 H 1498.36 -3.67862 1.97654 0
M  V30 16357 N 1498.79 -1.41931 -0.685074 0
M  V30 16358 C 1499.73 -1.40545 -1.81052 0
M  V30 16359 C 1500.74 -0.306024 -1.59898 0
M  V30 16360 O 1501.93 -0.568444 -1.69207 0
M  V30 16361 C 1499.03 -1.17194 -3.17992 0
M  V30 16362 C 1498.2 -2.39376 -3.66084 0
M  V30 16363 C 1497.26 -2.11725 -4.81725 0
M  V30 16364 O 1496.29 -2.84847 -4.92799 0
M  V30 16365 N 1497.49 -1.11399 -5.69711 0
M  V30 16366 H 1500.25 -2.37549 -1.8273 0
M  V30 16367 H 1497.81 -1.36679 -0.86779 0
M  V30 16368 H 1499.81 -0.966307 -3.92994 0
M  V30 16369 H 1498.38 -0.287499 -3.11275 0
M  V30 16370 H 1497.6 -2.75575 -2.81873 0
M  V30 16371 H 1498.88 -3.2076 -3.94956 0
M  V30 16372 H 1498.28 -0.509008 -5.63405 0
M  V30 16373 H 1496.84 -0.968239 -6.44568 0
M  V30 16374 N 1500.27 0.920374 -1.27933 0
M  V30 16375 C 1501.52 1.66554 -1.14474 0
M  V30 16376 C 1501.84 1.92545 0.308444 0
M  V30 16377 O 1501.11 1.53691 1.21473 0
M  V30 16378 H 1499.69 0.617302 -0.420651 0
M  V30 16379 H 1502.35 1.10473 -1.60567 0
M  V30 16380 H 1501.45 2.63067 -1.67935 0
M  V30 16381 N 1501.75 1.10074 1.1279 0
M  V30 16382 C 1502.68 0.704023 2.1812 0
M  V30 16383 C 1503.69 -0.25742 1.60752 0
M  V30 16384 O 1504.88 -0.0424559 1.7845 0
M  V30 16385 C 1501.98 0.0176666 3.38895 0
M  V30 16386 C 1501.16 1.00234 4.2576 0
M  V30 16387 C 1500.22 0.348158 5.25047 0
M  V30 16388 O 1499.24 0.997821 5.60386 0
M  V30 16389 N 1500.44 -0.894955 5.7356 0
M  V30 16390 H 1503.21 1.61024 2.52767 0
M  V30 16391 H 1500.77 0.989068 1.28176 0
M  V30 16392 H 1502.76 -0.431346 4.02395 0
M  V30 16393 H 1501.33 -0.7909 3.02429 0
M  V30 16394 H 1500.55 1.62972 3.58934 0
M  V30 16395 H 1501.84 1.669 4.80647 0
M  V30 16396 H 1501.24 -1.4422 5.47007 0
M  V30 16397 H 1499.79 -1.28718 6.38964 0
M  V30 16398 N 1503.23 -1.30138 0.888926 0
M  V30 16399 C 1504.47 -1.95989 0.509365 0
M  V30 16400 C 1504.8 -1.70153 -0.942249 0
M  V30 16401 O 1504.06 -1.00123 -1.68148 0
M  V30 16402 C 1504.36 -3.4975 0.735488 0
M  V30 16403 C 1504.02 -3.95644 2.1628 0
M  V30 16404 C 1502.68 -4.07886 2.55309 0
M  V30 16405 C 1505.04 -4.1952 3.09277 0
M  V30 16406 C 1502.36 -4.41367 3.86539 0
M  V30 16407 C 1504.72 -4.54472 4.40043 0
M  V30 16408 C 1503.38 -4.64923 4.7896 0
M  V30 16409 H 1502.65 -0.717175 0.18639 0
M  V30 16410 H 1505.3 -1.54932 1.12553 0
M  V30 16411 H 1503.6 -3.91783 0.0363165 0
M  V30 16412 H 1505.3 -3.9878 0.421351 0
M  V30 16413 H 1501.89 -3.86624 1.84985 0
M  V30 16414 H 1506.07 -4.09539 2.80342 0
M  V30 16415 H 1501.33 -4.47659 4.16427 0
M  V30 16416 H 1505.5 -4.71897 5.12138 0
M  V30 16417 H 1503.13 -4.90622 5.80685 0
M  V30 16418 N 1504.71 -0.650285 -1.43559 0
M  V30 16419 C 1505.64 0.0295939 -2.33481 0
M  V30 16420 C 1506.62 0.815017 -1.49303 0
M  V30 16421 O 1507.8 0.77708 -1.77975 0
M  V30 16422 C 1504.93 0.998683 -3.32631 0
M  V30 16423 C 1503.89 0.323577 -4.26775 0
M  V30 16424 C 1503.21 1.40391 -5.1594 0
M  V30 16425 C 1504.51 -0.782197 -5.1641 0
M  V30 16426 H 1506.21 -0.721349 -2.9058 0
M  V30 16427 H 1503.75 -0.348339 -1.39723 0
M  V30 16428 H 1505.7 1.4832 -3.94435 0
M  V30 16429 H 1504.43 1.78075 -2.73782 0
M  V30 16430 H 1503.09 -0.140467 -3.66331 0
M  V30 16431 H 1502.74 2.17734 -4.53432 0
M  V30 16432 H 1502.44 0.957462 -5.79747 0
M  V30 16433 H 1503.96 1.88985 -5.80618 0
M  V30 16434 H 1505.37 -0.379966 -5.72039 0
M  V30 16435 H 1503.77 -1.15293 -5.88921 0
M  V30 16436 H 1504.84 -1.6414 -4.56274 0
M  V30 16437 N 1506.18 1.52647 -0.392018 0
M  V30 16438 C 1507.41 2.06032 0.189293 0
M  V30 16439 C 1507.83 1.26351 1.40288 0
M  V30 16440 O 1507.18 0.310877 1.79833 0
M  V30 16441 C 1507.23 3.57187 0.55672 0
M  V30 16442 O 1506.96 4.33851 -0.608657 0
M  V30 16443 C 1508.46 4.26929 1.1936 0
M  V30 16444 H 1505.68 0.670419 0.0279177 0
M  V30 16445 H 1508.22 1.96739 -0.558033 0
M  V30 16446 H 1506.38 3.66545 1.25394 0
M  V30 16447 H 1506.79 5.23606 -0.306039 0
M  V30 16448 H 1508.26 5.33924 1.40104 0
M  V30 16449 H 1508.74 3.82315 2.16175 0
M  V30 16450 H 1509.35 4.21895 0.537069 0
M  V30 16451 N 1507.66 0.121921 1.57128 0
M  V30 16452 C 1508.91 -0.536164 1.95584 0
M  V30 16453 C 1509.24 -1.66143 1.0055 0
M  V30 16454 O 1508.52 -1.94452 0.0432427 0
M  V30 16455 C 1508.8 -1.0661 3.43957 0
M  V30 16456 C 1508.65 0.0559458 4.49765 0
M  V30 16457 C 1509.97 -1.95603 3.94243 0
M  V30 16458 H 1507.09 -0.193427 0.711165 0
M  V30 16459 H 1509.73 0.198072 1.88965 0
M  V30 16460 H 1507.88 -1.69181 3.49729 0
M  V30 16461 H 1509.55 0.691357 4.5609 0
M  V30 16462 H 1507.8 0.71868 4.27805 0
M  V30 16463 H 1508.47 -0.356133 5.5085 0
M  V30 16464 H 1510.94 -1.42899 3.90793 0
M  V30 16465 H 1509.82 -2.29599 4.98573 0
M  V30 16466 H 1510.08 -2.88364 3.3511 0
M  V30 16467 N 1509.14 -1.56867 -0.151857 0
M  V30 16468 C 1510.39 -1.82273 -0.863689 0
M  V30 16469 C 1510.7 -0.702377 -1.82554 0
M  V30 16470 O 1511.91 -0.841903 -2.58117 0
M  V30 16471 C 1510.36 -3.23046 -1.58649 0
M  V30 16472 C 1509.97 -4.43003 -0.667292 0
M  V30 16473 C 1511.72 -3.57729 -2.28539 0
M  V30 16474 C 1509.62 -5.74798 -1.39144 0
M  V30 16475 H 1508.55 -0.679753 -0.326269 0
M  V30 16476 H 1511.2 -1.8313 -0.116454 0
M  V30 16477 H 1509.59 -3.16561 -2.37918 0
M  V30 16478 H 1510.76 -4.60712 0.0898254 0
M  V30 16479 H 1509.08 -4.16329 -0.0770521 0
M  V30 16480 H 1511.67 -4.53451 -2.83348 0
M  V30 16481 H 1512.02 -2.8355 -3.04803 0
M  V30 16482 H 1512.55 -3.65853 -1.56194 0
M  V30 16483 H 1509.29 -6.52059 -0.670747 0
M  V30 16484 H 1508.81 -5.61032 -2.12139 0
M  V30 16485 H 1510.49 -6.17429 -1.93367 0
M  V30 16486 N 1510.62 0.421051 -1.51871 0
M  V30 16487 C 1511.87 1.16677 -1.65018 0
M  V30 16488 C 1512.19 1.91329 -0.376596 0
M  V30 16489 O 1511.46 1.86221 0.608146 0
M  V30 16490 H 1510.04 0.433698 -0.608206 0
M  V30 16491 H 1512.7 0.48115 -1.88868 0
M  V30 16492 H 1511.8 1.88742 -2.48562 0
M  V30 16493 N 1512.1 1.42293 0.677538 0
M  V30 16494 C 1513.06 1.45258 1.77293 0
M  V30 16495 C 1514.06 0.340554 1.57152 0
M  V30 16496 O 1515.25 0.601259 1.63495 0
M  V30 16497 C 1512.38 1.28156 3.15894 0
M  V30 16498 H 1513.57 2.42787 1.76052 0
M  V30 16499 H 1511.13 1.287 0.886908 0
M  V30 16500 H 1511.86 0.315381 3.22763 0
M  V30 16501 H 1511.65 2.08744 3.31916 0
M  V30 16502 H 1513.14 1.33107 3.95818 0
M  V30 16503 N 1513.57 -0.913576 1.28419 0
M  V30 16504 C 1514.82 -1.66273 1.15584 0
M  V30 16505 C 1515.15 -1.92242 -0.295541 0
M  V30 16506 O 1514.4 -1.52104 -1.23137 0
M  V30 16507 C 1514.7 -3.02722 1.89985 0
M  V30 16508 C 1514.37 -2.96413 3.3978 0
M  V30 16509 C 1513.03 -2.94399 3.80635 0
M  V30 16510 C 1515.38 -2.86648 4.35296 0
M  V30 16511 C 1512.71 -2.80422 5.15345 0
M  V30 16512 C 1515.06 -2.74211 5.7008 0
M  V30 16513 C 1513.73 -2.70556 6.1021 0
M  V30 16514 H 1513 -0.608435 0.422951 0
M  V30 16515 H 1515.64 -1.06438 1.59196 0
M  V30 16516 H 1513.95 -3.66344 1.38923 0
M  V30 16517 H 1515.65 -3.59591 1.7747 0
M  V30 16518 H 1512.24 -2.98775 3.07297 0
M  V30 16519 H 1516.42 -2.87291 4.04695 0
M  V30 16520 H 1511.68 -2.75987 5.45565 0
M  V30 16521 H 1515.85 -2.65624 6.43752 0
M  V30 16522 H 1513.48 -2.59483 7.14544 0
M  V30 16523 N 1515.05 -1.1067 -1.12204 0
M  V30 16524 C 1516.3 -0.861787 -1.84241 0
M  V30 16525 C 1516.65 0.60611 -1.82604 0
M  V30 16526 O 1515.95 1.44133 -1.26239 0
M  V30 16527 C 1516.14 -1.34727 -3.31034 0
M  V30 16528 C 1515.97 -2.86083 -3.46968 0
M  V30 16529 C 1514.74 -3.54113 -3.6046 0
M  V30 16530 C 1516.94 -3.84175 -3.41927 0
M  V30 16531 N 1514.92 -4.93767 -3.64784 0
M  V30 16532 C 1516.29 -5.09853 -3.52775 0
M  V30 16533 C 1518.35 -3.76847 -3.25408 0
M  V30 16534 C 1517.05 -6.29067 -3.48808 0
M  V30 16535 C 1519.07 -4.95564 -3.22755 0
M  V30 16536 C 1518.44 -6.20091 -3.34166 0
M  V30 16537 H 1514.54 -0.368386 -0.689794 0
M  V30 16538 H 1517.12 -1.40954 -1.34314 0
M  V30 16539 H 1515.29 -0.826806 -3.79498 0
M  V30 16540 H 1517.02 -1.04633 -3.9094 0
M  V30 16541 H 1513.78 -3.04564 -3.62682 0
M  V30 16542 H 1514.2 -5.66552 -3.70604 0
M  V30 16543 H 1518.84 -2.81485 -3.15478 0
M  V30 16544 H 1516.56 -7.24716 -3.57509 0
M  V30 16545 H 1520.15 -4.91606 -3.11151 0
M  V30 16546 H 1519.03 -7.10412 -3.32091 0
M  V30 16547 N 1516.53 1.29665 -0.895815 0
M  V30 16548 C 1517.48 2.2542 -0.34201 0
M  V30 16549 C 1518.46 1.5172 0.535712 0
M  V30 16550 O 1519.66 1.72909 0.378364 0
M  V30 16551 C 1516.79 3.4056 0.43287 0
M  V30 16552 C 1515.87 4.21603 -0.459552 0
M  V30 16553 N 1516.26 4.8098 -1.565 0
M  V30 16554 C 1514.56 4.45261 -0.256632 0
M  V30 16555 C 1515.26 5.41792 -2.11746 0
M  V30 16556 N 1514.24 5.24968 -1.411 0
M  V30 16557 H 1518.04 2.68885 -1.18651 0
M  V30 16558 H 1515.55 1.4423 -0.74643 0
M  V30 16559 H 1517.55 4.08219 0.846334 0
M  V30 16560 H 1516.21 2.98633 1.27468 0
M  V30 16561 H 1517.22 4.79877 -1.94777 0
M  V30 16562 H 1513.9 4.13899 0.547131 0
M  V30 16563 H 1515.29 5.9887 -3.04637 0
M  V30 16564 N 1518.01 0.657889 1.43212 0
M  V30 16565 C 1518.94 -0.0172114 2.33494 0
M  V30 16566 C 1519.92 -0.807087 1.49733 0
M  V30 16567 O 1521.1 -0.767631 1.78385 0
M  V30 16568 C 1518.23 -0.981029 3.33156 0
M  V30 16569 C 1517.19 -0.30094 4.26941 0
M  V30 16570 C 1516.51 -1.37653 5.16678 0
M  V30 16571 C 1517.81 0.809572 5.15988 0
M  V30 16572 H 1519.51 0.736749 2.90194 0
M  V30 16573 H 1517.05 0.355744 1.39537 0
M  V30 16574 H 1519.01 -1.46226 3.95216 0
M  V30 16575 H 1517.73 -1.76621 2.74723 0
M  V30 16576 H 1516.39 0.159893 3.66251 0
M  V30 16577 H 1516.04 -2.15326 4.54581 0
M  V30 16578 H 1515.74 -0.926704 5.80246 0
M  V30 16579 H 1517.26 -1.85903 5.81612 0
M  V30 16580 H 1518.68 0.410297 5.7183 0
M  V30 16581 H 1517.07 1.18415 5.88301 0
M  V30 16582 H 1518.14 1.66558 4.55397 0
M  V30 16583 N 1519.49 -1.52437 0.400108 0
M  V30 16584 C 1520.71 -2.0613 -0.178364 0
M  V30 16585 C 1521.13 -1.27094 -1.39616 0
M  V30 16586 O 1520.49 -0.320409 -1.79665 0
M  V30 16587 C 1520.54 -3.57478 -0.53777 0
M  V30 16588 O 1520.26 -4.33522 0.631657 0
M  V30 16589 C 1521.76 -4.27556 -1.17094 0
M  V30 16590 H 1518.98 -0.670558 -0.0243619 0
M  V30 16591 H 1521.52 -1.9644 0.568459 0
M  V30 16592 H 1519.68 -3.67205 -1.23449 0
M  V30 16593 H 1520.09 -5.23437 0.333803 0
M  V30 16594 H 1521.57 -5.3466 -1.3727 0
M  V30 16595 H 1522.04 -3.83456 -2.14145 0
M  V30 16596 H 1522.65 -4.22174 -0.514687 0
M  V30 16597 N 1520.96 -0.130252 -1.57061 0
M  V30 16598 C 1521.91 0.815767 -2.15902 0
M  V30 16599 C 1522.88 1.2558 -1.08715 0
M  V30 16600 O 1524.07 1.33132 -1.36677 0
M  V30 16601 C 1521.21 2.0561 -2.77162 0
M  V30 16602 C 1520.32 1.6634 -3.98692 0
M  V30 16603 C 1519.45 2.85425 -4.48002 0
M  V30 16604 C 1518.49 2.42449 -5.62036 0
M  V30 16605 N 1517.63 3.54486 -6.0604 0
M  V30 16606 H 1522.47 0.307164 -2.96413 0
M  V30 16607 H 1520.01 0.139913 -1.46433 0
M  V30 16608 H 1521.97 2.78298 -3.10815 0
M  V30 16609 H 1520.6 2.5391 -1.99323 0
M  V30 16610 H 1519.65 0.834817 -3.71127 0
M  V30 16611 H 1520.96 1.30765 -4.81354 0
M  V30 16612 H 1520.11 3.66325 -4.83623 0
M  V30 16613 H 1518.85 3.24235 -3.64312 0
M  V30 16614 H 1517.86 1.59985 -5.26008 0
M  V30 16615 H 1519.08 2.04744 -6.475 0
M  V30 16616 H 1517.03 3.92948 -5.25289 0
M  V30 16617 H 1516.95 3.22871 -6.83586 0
M  V30 16618 H 1518.21 4.35792 -6.46302 0
M  V30 16619 N 1522.44 1.56945 0.143535 0
M  V30 16620 C 1523.35 2.01795 1.1965 0
M  V30 16621 C 1524.37 0.933965 1.4681 0
M  V30 16622 O 1525.55 1.2437 1.58411 0
M  V30 16623 C 1522.61 2.39249 2.5092 0
M  V30 16624 C 1521.67 3.61613 2.31376 0
M  V30 16625 C 1520.9 3.97271 3.56386 0
M  V30 16626 O 1521.13 3.33552 4.62709 0
M  V30 16627 O 1520.06 4.90501 3.48844 0
M  V30 16628 H 1523.89 2.91687 0.845718 0
M  V30 16629 H 1521.47 1.45182 0.352518 0
M  V30 16630 H 1523.35 2.64184 3.28306 0
M  V30 16631 H 1522.03 1.52511 2.85521 0
M  V30 16632 H 1520.94 3.4186 1.51929 0
M  V30 16633 H 1522.27 4.48979 2.01689 0
M  V30 16634 N 1523.92 -0.412991 1.52093 0
M  V30 16635 C 1525.34 -0.751324 1.40809 0
M  V30 16636 C 1525.54 -1.94951 0.509543 0
M  V30 16637 O 1524.59 -2.52486 -0.026132 0
M  V30 16638 C 1525.91 -1.00888 2.8327 0
M  V30 16639 C 1527.45 -1.11183 2.92587 0
M  V30 16640 C 1527.93 -1.40217 4.36008 0
M  V30 16641 N 1529.42 -1.4709 4.39225 0
M  V30 16642 C 1530.16 -1.71174 5.47254 0
M  V30 16643 N 1529.65 -1.92887 6.65407 0
M  V30 16644 N 1531.44 -1.73157 5.34765 0
M  V30 16645 H 1523.6 0.375774 2.0905 0
M  V30 16646 H 1525.86 0.105817 0.942076 0
M  V30 16647 H 1525.56 -0.200872 3.51126 0
M  V30 16648 H 1525.44 -1.93008 3.2408 0
M  V30 16649 H 1527.83 -1.91043 2.24915 0
M  V30 16650 H 1527.91 -0.169078 2.55241 0
M  V30 16651 H 1527.55 -0.608754 5.04239 0
M  V30 16652 H 1527.48 -2.35737 4.70888 0
M  V30 16653 H 1529.97 -1.32114 3.54054 0
M  V30 16654 H 1530.28 -2.10704 7.43521 0
M  V30 16655 H 1528.63 -1.9016 6.68479 0
M  V30 16656 H 1531.82 -1.55728 4.41437 0
M  V30 16657 H 1531.99 -1.91587 6.1903 0
M  V30 16658 N 1525.4 -1.4265 -0.669982 0
M  V30 16659 C 1526.35 -1.46504 -1.7834 0
M  V30 16660 C 1527.32 -0.316478 -1.63057 0
M  V30 16661 O 1528.5 -0.521245 -1.83542 0
M  V30 16662 C 1525.64 -1.37784 -3.16401 0
M  V30 16663 C 1524.75 -2.62714 -3.42937 0
M  V30 16664 C 1523.89 -2.46101 -4.70752 0
M  V30 16665 C 1522.93 -3.66381 -4.90338 0
M  V30 16666 N 1522.07 -3.48681 -6.09398 0
M  V30 16667 H 1526.91 -2.41651 -1.74381 0
M  V30 16668 H 1524.44 -1.1997 -0.851215 0
M  V30 16669 H 1526.4 -1.30725 -3.9619 0
M  V30 16670 H 1525.03 -0.462291 -3.19473 0
M  V30 16671 H 1524.08 -2.8012 -2.57366 0
M  V30 16672 H 1525.39 -3.52108 -3.53301 0
M  V30 16673 H 1524.55 -2.36655 -5.58641 0
M  V30 16674 H 1523.29 -1.54204 -4.6268 0
M  V30 16675 H 1522.29 -3.76254 -4.00891 0
M  V30 16676 H 1523.52 -4.59265 -5.00253 0
M  V30 16677 H 1521.46 -2.59505 -6.02489 0
M  V30 16678 H 1521.38 -4.31666 -6.20645 0
M  V30 16679 H 1522.65 -3.43056 -6.99952 0
M  V30 16680 N 1526.88 0.906753 -1.28902 0
M  V30 16681 C 1528.11 1.68774 -1.1916 0
M  V30 16682 C 1528.52 1.87523 0.251339 0
M  V30 16683 O 1527.86 1.4071 1.18095 0
M  V30 16684 C 1527.92 3.09676 -1.82596 0
M  V30 16685 C 1527.58 3.14185 -3.31869 0
M  V30 16686 C 1528.58 2.94858 -4.282 0
M  V30 16687 C 1526.27 3.36476 -3.72947 0
M  V30 16688 C 1528.26 2.97744 -5.63584 0
M  V30 16689 C 1525.95 3.38993 -5.08456 0
M  V30 16690 C 1526.95 3.19648 -6.03584 0
M  V30 16691 O 1526.63 3.2194 -7.3662 0
M  V30 16692 H 1526.37 0.534133 -0.41434 0
M  V30 16693 H 1528.92 1.14282 -1.70671 0
M  V30 16694 H 1527.15 3.65739 -1.25587 0
M  V30 16695 H 1528.84 3.6983 -1.67273 0
M  V30 16696 H 1529.6 2.77456 -3.97798 0
M  V30 16697 H 1525.48 3.50576 -2.99362 0
M  V30 16698 H 1529.03 2.82563 -6.37812 0
M  V30 16699 H 1524.92 3.55924 -5.38506 0
M  V30 16700 H 1525.69 3.38255 -7.45336 0
M  V30 16701 N 1528.36 1.11264 1.11616 0
M  V30 16702 C 1529.6 0.855139 1.82675 0
M  V30 16703 C 1529.92 -0.621194 1.85474 0
M  V30 16704 O 1531.12 -0.994886 2.52615 0
M  V30 16705 C 1529.58 1.48007 3.28058 0
M  V30 16706 C 1529.19 2.99031 3.33593 0
M  V30 16707 C 1530.93 1.30233 4.04029 0
M  V30 16708 C 1528.84 3.54517 4.73362 0
M  V30 16709 H 1527.77 0.316252 0.684471 0
M  V30 16710 H 1530.42 1.33766 1.25614 0
M  V30 16711 H 1528.8 0.925214 3.8504 0
M  V30 16712 H 1529.98 3.60905 2.86503 0
M  V30 16713 H 1528.29 3.16059 2.711 0
M  V30 16714 H 1530.89 1.69122 5.07249 0
M  V30 16715 H 1531.23 0.244724 4.1558 0
M  V30 16716 H 1531.76 1.82573 3.53429 0
M  V30 16717 H 1528.5 4.59982 4.67008 0
M  V30 16718 H 1528.02 2.97414 5.20869 0
M  V30 16719 H 1529.7 3.52848 5.42316 0
M  V30 16720 N 1529.83 -1.29188 0.902679 0
M  V30 16721 C 1531.08 -1.95438 0.530124 0
M  V30 16722 C 1531.41 -1.71142 -0.924149 0
M  V30 16723 O 1530.66 -1.01901 -1.67077 0
M  V30 16724 C 1530.96 -3.48951 0.772542 0
M  V30 16725 C 1530.63 -3.93328 2.20464 0
M  V30 16726 C 1529.29 -4.05155 2.59621 0
M  V30 16727 C 1531.64 -4.16216 3.13709 0
M  V30 16728 C 1528.97 -4.37242 3.91198 0
M  V30 16729 C 1531.32 -4.49779 4.44839 0
M  V30 16730 C 1529.99 -4.59817 4.83865 0
M  V30 16731 H 1529.26 -0.715158 0.193986 0
M  V30 16732 H 1531.9 -1.5373 1.1419 0
M  V30 16733 H 1530.21 -3.91723 0.0778683 0
M  V30 16734 H 1531.91 -3.98311 0.463623 0
M  V30 16735 H 1528.5 -3.84641 1.89075 0
M  V30 16736 H 1532.68 -4.06542 2.8467 0
M  V30 16737 H 1527.94 -4.43217 4.21152 0
M  V30 16738 H 1532.11 -4.66439 5.17115 0
M  V30 16739 H 1529.74 -4.84435 5.85856 0
M  V30 16740 N 1531.31 -0.665475 -1.42861 0
M  V30 16741 C 1532.54 -0.190399 -2.06524 0
M  V30 16742 C 1532.96 1.13995 -1.49622 0
M  V30 16743 O 1532.32 1.70695 -0.610981 0
M  V30 16744 C 1532.37 -0.12594 -3.6038 0
M  V30 16745 O 1531.47 0.908299 -4.02273 0
M  V30 16746 H 1530.81 -0.100495 -0.656351 0
M  V30 16747 H 1533.34 -0.911858 -1.83156 0
M  V30 16748 H 1533.35 0.0533153 -4.07965 0
M  V30 16749 H 1532.03 -1.09703 -4.01171 0
M  V30 16750 H 1530.6 0.700841 -3.66255 0
M  V30 16751 N 1532.79 1.52222 -0.408187 0
M  V30 16752 C 1534.04 2.02102 0.168154 0
M  V30 16753 C 1534.37 1.2933 1.4487 0
M  V30 16754 O 1533.64 0.399336 1.90356 0
M  V30 16755 C 1533.93 3.57679 0.416821 0
M  V30 16756 C 1533.78 4.41101 -0.880335 0
M  V30 16757 C 1535.1 4.23442 1.19936 0
M  V30 16758 H 1532.22 0.734583 0.0596402 0
M  V30 16759 H 1534.86 1.82121 -0.541467 0
M  V30 16760 H 1533.01 3.74835 1.02131 0
M  V30 16761 H 1534.68 4.35658 -1.51656 0
M  V30 16762 H 1532.92 4.07353 -1.49152 0
M  V30 16763 H 1533.6 5.48031 -0.660748 0
M  V30 16764 H 1536.07 4.10379 0.687605 0
M  V30 16765 H 1534.95 5.32239 1.3421 0
M  V30 16766 H 1535.21 3.82335 2.21973 0
M  V30 16767 N 1534.27 0.138579 1.5699 0
M  V30 16768 C 1535.68 -0.217898 1.58106 0
M  V30 16769 C 1535.88 -1.65293 1.15241 0
M  V30 16770 O 1534.94 -2.37805 0.848815 0
M  V30 16771 C 1536.25 0.033211 3.00682 0
M  V30 16772 C 1537.8 -0.0311593 3.12984 0
M  V30 16773 C 1538.28 0.192508 4.57595 0
M  V30 16774 N 1539.77 0.139147 4.62991 0
M  V30 16775 C 1540.5 0.286837 5.72682 0
M  V30 16776 N 1540 0.491784 6.91052 0
M  V30 16777 N 1541.79 0.225032 5.61649 0
M  V30 16778 H 1533.94 1.07567 1.83148 0
M  V30 16779 H 1536.2 0.425143 0.847324 0
M  V30 16780 H 1535.91 1.02605 3.364 0
M  V30 16781 H 1535.78 -0.689972 3.70836 0
M  V30 16782 H 1538.17 -1.01454 2.77112 0
M  V30 16783 H 1538.25 0.724219 2.45334 0
M  V30 16784 H 1537.9 1.17295 4.9417 0
M  V30 16785 H 1537.83 -0.583092 5.23362 0
M  V30 16786 H 1540.32 -0.0149467 3.77897 0
M  V30 16787 H 1540.63 0.594813 7.70508 0
M  V30 16788 H 1538.98 0.528002 6.92991 0
M  V30 16789 H 1542.17 0.0657415 4.68054 0
M  V30 16790 H 1542.34 0.343569 6.47089 0
M  V30 16791 N 1535.75 -1.57019 -0.13521 0
M  V30 16792 C 1536.68 -1.94319 -1.19646 0
M  V30 16793 C 1537.66 -0.810603 -1.40954 0
M  V30 16794 O 1538.84 -1.0673 -1.55374 0
M  V30 16795 C 1535.97 -2.22542 -2.55328 0
M  V30 16796 C 1535.01 -3.45151 -2.50546 0
M  V30 16797 S 1535.85 -4.98307 -1.96089 0
M  V30 16798 C 1537 -5.29665 -3.33476 0
M  V30 16799 H 1537.24 -2.8403 -0.878294 0
M  V30 16800 H 1534.77 -1.5058 -0.341313 0
M  V30 16801 H 1536.73 -2.39482 -3.33405 0
M  V30 16802 H 1535.39 -1.33474 -2.8433 0
M  V30 16803 H 1534.58 -3.62213 -3.50454 0
M  V30 16804 H 1534.18 -3.27514 -1.80583 0
M  V30 16805 H 1536.47 -5.23854 -4.29631 0
M  V30 16806 H 1537.42 -6.31031 -3.21256 0
M  V30 16807 H 1537.83 -4.57161 -3.31156 0
M  V30 16808 N 1537.22 0.404919 -1.52309 0
M  V30 16809 C 1538.19 1.47627 -1.75325 0
M  V30 16810 C 1539.19 1.48234 -0.623153 0
M  V30 16811 O 1540.38 1.49685 -0.891069 0
M  V30 16812 C 1537.51 2.87013 -1.83947 0
M  V30 16813 H 1538.7 1.2851 -2.70971 0
M  V30 16814 H 1536.26 0.635677 -1.42789 0
M  V30 16815 H 1536.99 3.11495 -0.902309 0
M  V30 16816 H 1536.78 2.87974 -2.66108 0
M  V30 16817 H 1538.27 3.64671 -2.03481 0
M  V30 16818 N 1538.7 1.43003 0.662408 0
M  V30 16819 C 1539.63 1.50248 1.78739 0
M  V30 16820 C 1540.61 0.357934 1.66291 0
M  V30 16821 O 1541.8 0.573919 1.85526 0
M  V30 16822 C 1538.93 1.41618 3.17114 0
M  V30 16823 C 1537.88 2.54228 3.44314 0
M  V30 16824 C 1537.21 2.30653 4.82393 0
M  V30 16825 C 1538.51 3.96505 3.39972 0
M  V30 16826 H 1540.2 2.44406 1.72934 0
M  V30 16827 H 1537.75 1.17633 0.830569 0
M  V30 16828 H 1539.7 1.45293 3.9556 0
M  V30 16829 H 1538.43 0.439605 3.23628 0
M  V30 16830 H 1537.08 2.49891 2.68235 0
M  V30 16831 H 1536.73 1.3126 4.85572 0
M  V30 16832 H 1536.43 3.06134 5.01554 0
M  V30 16833 H 1537.96 2.36096 5.63108 0
M  V30 16834 H 1539.37 4.02378 4.08368 0
M  V30 16835 H 1537.77 4.71937 3.70668 0
M  V30 16836 H 1538.84 4.22295 2.38318 0
M  V30 16837 N 1540.18 -0.899904 1.29381 0
M  V30 16838 C 1541.43 -1.65282 1.17515 0
M  V30 16839 C 1541.76 -1.92275 -0.272788 0
M  V30 16840 O 1541.03 -1.53303 -1.19701 0
M  V30 16841 C 1541.32 -3.00207 1.98867 0
M  V30 16842 C 1541.17 -2.80281 3.51799 0
M  V30 16843 C 1542.49 -4.00936 1.81489 0
M  V30 16844 H 1539.61 -0.5998 0.428263 0
M  V30 16845 H 1542.25 -1.04241 1.58852 0
M  V30 16846 H 1540.4 -3.52308 1.63741 0
M  V30 16847 H 1542.07 -2.35082 3.96905 0
M  V30 16848 H 1540.32 -2.15068 3.76733 0
M  V30 16849 H 1540.99 -3.76155 4.03994 0
M  V30 16850 H 1543.46 -3.57944 2.12169 0
M  V30 16851 H 1542.34 -4.9328 2.4076 0
M  V30 16852 H 1542.6 -4.35342 0.770021 0
M  V30 16853 N 1541.66 -1.11854 -1.11024 0
M  V30 16854 C 1542.61 -0.77596 -2.19275 0
M  V30 16855 C 1543.6 0.234503 -1.67769 0
M  V30 16856 O 1544.81 0.0933372 -1.79758 0
M  V30 16857 H 1541.18 -0.23307 -0.71497 0
M  V30 16858 H 1543.15 -1.69749 -2.45414 0
M  V30 16859 C 1541.9 -0.240148 -3.4687 0
M  V30 16860 H 1541.22 -1.00895 -3.86859 0
M  V30 16861 H 1542.66 -0.0386799 -4.23982 0
M  V30 16862 C 1541.12 1.03056 -3.20751 0
M  V30 16863 O 1541.65 2.10948 -3.41854 0
M  V30 16864 N 1539.86 0.955066 -2.74457 0
M  V30 16865 H 1539.41 0.0769523 -2.57485 0
M  V30 16866 H 1539.36 1.80593 -2.57359 0
M  V30 16867 N 1543.14 1.28707 -0.909517 0
M  V30 16868 C 1544.38 1.9693 -0.547521 0
M  V30 16869 C 1544.74 1.70052 0.891417 0
M  V30 16870 O 1545.94 2.31811 1.36078 0
M  V30 16871 C 1544.21 3.4731 -0.843226 0
M  V30 16872 S 1545.77 4.34856 -0.587013 0
M  V30 16873 H 1542.59 0.681478 -0.202753 0
M  V30 16874 H 1545.19 1.5632 -1.17406 0
M  V30 16875 H 1543.9 3.64367 -1.88851 0
M  V30 16876 H 1543.43 3.92865 -0.205179 0
M  V30 16877 H 1545.44 4.92989 0.563561 0
M  V30 16878 N 1544.61 0.673042 1.42506 0
M  V30 16879 C 1545.54 0.00755467 2.33499 0
M  V30 16880 C 1546.53 -0.791161 1.50581 0
M  V30 16881 O 1547.71 -0.748668 1.79189 0
M  V30 16882 C 1544.84 -0.945638 3.34178 0
M  V30 16883 C 1543.79 -0.25564 4.27236 0
M  V30 16884 C 1543.12 -1.32165 5.18109 0
M  V30 16885 C 1544.42 0.864254 5.151 0
M  V30 16886 H 1546.11 0.767487 2.89396 0
M  V30 16887 H 1543.66 0.370524 1.39151 0
M  V30 16888 H 1545.61 -1.42026 3.96745 0
M  V30 16889 H 1544.34 -1.73697 2.76581 0
M  V30 16890 H 1543 0.19873 3.66061 0
M  V30 16891 H 1542.64 -2.10492 4.56839 0
M  V30 16892 H 1542.34 -0.865109 5.81197 0
M  V30 16893 H 1543.87 -1.79724 5.83551 0
M  V30 16894 H 1545.28 0.470924 5.71363 0
M  V30 16895 H 1543.68 1.24648 5.87012 0
M  V30 16896 H 1544.75 1.71378 4.53605 0
M  V30 16897 N 1546.09 -1.52004 0.416254 0
M  V30 16898 C 1547.04 -2.27206 -0.405723 0
M  V30 16899 C 1548.01 -1.29913 -1.03498 0
M  V30 16900 O 1549.19 -1.58786 -1.0579 0
M  V30 16901 C 1546.33 -3.10186 -1.51258 0
M  V30 16902 C 1545.45 -4.22445 -0.903539 0
M  V30 16903 C 1544.58 -4.92771 -1.98368 0
M  V30 16904 C 1543.62 -5.96983 -1.35196 0
M  V30 16905 N 1542.76 -6.60798 -2.37255 0
M  V30 16906 H 1547.6 -2.97016 0.241983 0
M  V30 16907 H 1545.14 -1.46514 0.131174 0
M  V30 16908 H 1547.09 -3.56606 -2.16537 0
M  V30 16909 H 1545.72 -2.42532 -2.13021 0
M  V30 16910 H 1544.78 -3.80144 -0.139607 0
M  V30 16911 H 1546.09 -4.97176 -0.402136 0
M  V30 16912 H 1545.24 -5.42633 -2.71357 0
M  V30 16913 H 1543.98 -4.17624 -2.51876 0
M  V30 16914 H 1542.99 -5.46434 -0.607431 0
M  V30 16915 H 1544.21 -6.74076 -0.824482 0
M  V30 16916 H 1542.16 -5.88476 -2.89882 0
M  V30 16917 H 1542.07 -7.31227 -1.91947 0
M  V30 16918 H 1543.34 -7.15296 -3.09792 0
M  V30 16919 N 1547.57 -0.146903 -1.56914 0
M  V30 16920 C 1548.8 0.511181 -2.00486 0
M  V30 16921 C 1549.21 1.58425 -1.02699 0
M  V30 16922 O 1548.57 1.82484 -0.0239878 0
M  V30 16923 C 1548.62 1.11191 -3.43975 0
M  V30 16924 O 1548.34 0.0817094 -4.38024 0
M  V30 16925 C 1549.84 1.85061 -4.02824 0
M  V30 16926 H 1547.06 0.133078 -0.657671 0
M  V30 16927 H 1549.61 -0.241457 -2.0307 0
M  V30 16928 H 1547.76 1.81517 -3.42243 0
M  V30 16929 H 1548.18 0.52181 -5.21898 0
M  V30 16930 H 1549.65 2.22385 -5.05222 0
M  V30 16931 H 1550.13 2.73649 -3.4353 0
M  V30 16932 H 1550.73 1.19434 -4.08186 0
M  V30 16933 N 1549.05 1.57088 0.126881 0
M  V30 16934 C 1549.98 2.02799 1.15737 0
M  V30 16935 C 1550.96 0.911031 1.43646 0
M  V30 16936 O 1552.14 1.18021 1.54223 0
M  V30 16937 C 1549.27 2.42565 2.48555 0
M  V30 16938 C 1548.23 3.57631 2.35125 0
M  V30 16939 C 1547.55 3.83272 3.72836 0
M  V30 16940 C 1548.85 4.89625 1.81838 0
M  V30 16941 H 1550.55 2.89136 0.777207 0
M  V30 16942 H 1548.09 1.39101 0.372416 0
M  V30 16943 H 1550.05 2.73146 3.20888 0
M  V30 16944 H 1548.77 1.53188 2.88446 0
M  V30 16945 H 1547.43 3.27247 1.65242 0
M  V30 16946 H 1547.08 2.91114 4.10197 0
M  V30 16947 H 1546.78 4.60721 3.64705 0
M  V30 16948 H 1548.3 4.16298 4.46686 0
M  V30 16949 H 1549.72 5.18793 2.43981 0
M  V30 16950 H 1548.11 5.71018 1.84548 0
M  V30 16951 H 1549.18 4.7866 0.775385 0
M  V30 16952 N 1550.53 -0.396836 1.52522 0
M  V30 16953 C 1551.46 -1.49088 1.79708 0
M  V30 16954 C 1552.44 -1.57246 0.648678 0
M  V30 16955 O 1553.62 -1.72321 0.895495 0
M  V30 16956 C 1550.75 -2.86785 1.95887 0
M  V30 16957 C 1549.71 -2.93472 3.11542 0
M  V30 16958 C 1549.03 -4.33542 3.12963 0
M  V30 16959 C 1550.33 -2.63832 4.50766 0
M  V30 16960 H 1552.03 -1.26588 2.71322 0
M  V30 16961 H 1549.57 -0.607535 1.30557 0
M  V30 16962 H 1551.53 -3.63319 2.13489 0
M  V30 16963 H 1550.25 -3.10605 1.00955 0
M  V30 16964 H 1548.91 -2.19384 2.93711 0
M  V30 16965 H 1548.56 -4.5439 2.15729 0
M  V30 16966 H 1548.26 -4.38938 3.9065 0
M  V30 16967 H 1549.78 -5.11993 3.32709 0
M  V30 16968 H 1551.19 -3.30086 4.68739 0
M  V30 16969 H 1549.59 -2.80589 5.30462 0
M  V30 16970 H 1550.66 -1.59209 4.58018 0
M  V30 16971 N 1552.01 -1.43353 -0.654814 0
M  V30 16972 C 1552.92 -1.50831 -1.79687 0
M  V30 16973 C 1553.93 -0.395518 -1.69445 0
M  V30 16974 O 1555.11 -0.649408 -1.90643 0
M  V30 16975 C 1552.17 -1.42735 -3.15955 0
M  V30 16976 C 1551.23 -2.64671 -3.38005 0
M  V30 16977 C 1550.47 -2.56952 -4.67773 0
M  V30 16978 O 1550.69 -1.61638 -5.47019 0
M  V30 16979 O 1549.62 -3.47425 -4.91507 0
M  V30 16980 H 1553.45 -2.47266 -1.76333 0
M  V30 16981 H 1551.03 -1.25336 -0.813095 0
M  V30 16982 H 1552.92 -1.40656 -3.97233 0
M  V30 16983 H 1551.59 -0.494334 -3.19903 0
M  V30 16984 H 1550.5 -2.72323 -2.56498 0
M  V30 16985 H 1551.83 -3.5694 -3.38903 0
M  V30 16986 N 1553.48 0.89303 -1.29857 0
M  V30 16987 C 1554.45 1.97944 -1.15546 0
M  V30 16988 C 1555.45 1.60554 -0.088989 0
M  V30 16989 O 1556.64 1.7092 -0.336464 0
M  V30 16990 C 1553.77 3.32126 -0.768442 0
M  V30 16991 H 1554.96 2.12067 -2.12055 0
M  V30 16992 H 1552.51 1.0784 -1.13138 0
M  V30 16993 H 1553.25 3.23704 0.196504 0
M  V30 16994 H 1553.03 3.60631 -1.53907 0
M  V30 16995 H 1554.52 4.11834 -0.691559 0
M  V30 16996 N 1554.96 1.12442 1.10429 0
M  V30 16997 C 1556.24 0.791191 1.78884 0
M  V30 16998 C 1556.62 -0.719044 1.98477 0
M  V30 16999 O 1555.97 -1.65275 1.57786 0
M  V30 17000 C 1556.18 1.56632 3.11877 0
M  V30 17001 C 1557.52 1.75236 3.86752 0
M  V30 17002 O 1558.55 1.53145 3.21598 0
M  V30 17003 O 1557.41 2.12025 5.03694 0
M  V30 17004 H 1554.5 0.287788 0.775311 0
M  V30 17005 H 1557.05 1.22844 1.17078 0
M  V30 17006 H 1555.82 2.59317 2.93037 0
M  V30 17007 H 1555.44 1.12332 3.81402 0
M  V30 17008 N 1556.44 -1.28223 0.91633 0
M  V30 17009 C 1557.85 -1.76898 0.597003 0
M  V30 17010 C 1558.2 -1.74969 -0.887719 0
M  V30 17011 O 1557.33 -1.34598 -1.69447 0
M  V30 17012 C 1557.92 -3.21228 1.07694 0
M  V30 17013 C 1556.48 -3.67614 0.80849 0
M  V30 17014 C 1555.63 -2.47921 1.24219 0
M  V30 17015 H 1558.58 -1.1465 1.09732 0
M  V30 17016 H 1558.6 -3.7818 0.419531 0
M  V30 17017 H 1558.11 -3.226 2.15757 0
M  V30 17018 H 1556.21 -3.717 -0.258814 0
M  V30 17019 H 1556.33 -4.57633 1.41804 0
M  V30 17020 H 1554.69 -2.45976 0.660892 0
M  V30 17021 H 1555.47 -2.5201 2.33122 0
M  V30 17022 N 1557.92 -0.68059 -1.42147 0
M  V30 17023 C 1559.15 -0.213529 -2.05494 0
M  V30 17024 C 1559.56 1.13665 -1.51251 0
M  V30 17025 O 1558.9 1.71838 -0.649422 0
M  V30 17026 C 1558.96 -0.0774256 -3.59417 0
M  V30 17027 C 1558.62 -1.35724 -4.3638 0
M  V30 17028 C 1559.62 -2.29195 -4.66654 0
M  V30 17029 C 1557.31 -1.60645 -4.75918 0
M  V30 17030 C 1559.3 -3.45858 -5.35407 0
M  V30 17031 C 1556.99 -2.77597 -5.44411 0
M  V30 17032 C 1557.99 -3.70027 -5.74081 0
M  V30 17033 O 1557.67 -4.84933 -6.41167 0
M  V30 17034 H 1557.41 -0.100043 -0.668556 0
M  V30 17035 H 1559.96 -0.929384 -1.83171 0
M  V30 17036 H 1558.19 0.694062 -3.8042 0
M  V30 17037 H 1559.88 0.350509 -4.04384 0
M  V30 17038 H 1560.64 -2.11194 -4.36603 0
M  V30 17039 H 1556.52 -0.8957 -4.52215 0
M  V30 17040 H 1560.07 -4.18023 -5.58483 0
M  V30 17041 H 1555.96 -2.95521 -5.73879 0
M  V30 17042 H 1556.73 -4.84552 -6.5966 0
M  V30 17043 N 1559.4 1.51781 -0.424309 0
M  V30 17044 C 1560.62 2.06871 0.147968 0
M  V30 17045 C 1561.05 1.29093 1.36808 0
M  V30 17046 O 1560.4 0.325279 1.78358 0
M  V30 17047 C 1560.45 3.57631 0.461757 0
M  V30 17048 O 1559.56 3.82149 1.55035 0
M  V30 17049 H 1558.9 0.663957 0.00757275 0
M  V30 17050 H 1561.43 1.95547 -0.601888 0
M  V30 17051 H 1561.44 4.01668 0.716005 0
M  V30 17052 H 1560.11 4.1367 -0.430081 0
M  V30 17053 H 1558.69 3.49984 1.28709 0
M  V30 17054 N 1560.87 0.155222 1.56834 0
M  V30 17055 C 1561.82 -0.781315 2.17173 0
M  V30 17056 C 1562.79 -1.23835 1.10699 0
M  V30 17057 O 1563.98 -1.3094 1.38778 0
M  V30 17058 C 1561.12 -2.01174 2.80398 0
M  V30 17059 C 1560.23 -1.59976 4.01287 0
M  V30 17060 C 1559.36 -2.78262 4.52486 0
M  V30 17061 C 1558.4 -2.33477 5.65822 0
M  V30 17062 N 1557.54 -3.44799 6.11603 0
M  V30 17063 H 1562.38 -0.259968 2.96864 0
M  V30 17064 H 1559.92 -0.116599 1.46637 0
M  V30 17065 H 1561.87 -2.73318 3.15203 0
M  V30 17066 H 1560.5 -2.50706 2.03338 0
M  V30 17067 H 1559.56 -0.775668 3.72408 0
M  V30 17068 H 1560.87 -1.2309 4.83374 0
M  V30 17069 H 1560.02 -3.58585 4.89389 0
M  V30 17070 H 1558.76 -3.18398 3.69424 0
M  V30 17071 H 1557.77 -1.51596 5.28487 0
M  V30 17072 H 1558.99 -1.94417 6.50676 0
M  V30 17073 H 1556.94 -3.84541 5.31474 0
M  V30 17074 H 1556.85 -3.11955 6.88637 0
M  V30 17075 H 1558.12 -4.25454 6.53153 0
M  V30 17076 N 1562.35 -1.57153 -0.118549 0
M  V30 17077 C 1563.6 -1.86029 -0.822493 0
M  V30 17078 C 1563.95 -0.743041 -1.77473 0
M  V30 17079 O 1563.25 0.256918 -1.8987 0
M  V30 17080 C 1563.44 -3.19084 -1.60998 0
M  V30 17081 C 1563.27 -4.43644 -0.735503 0
M  V30 17082 C 1562.04 -5.03791 -0.390169 0
M  V30 17083 C 1564.24 -5.14273 -0.0529326 0
M  V30 17084 N 1562.22 -6.11902 0.494927 0
M  V30 17085 C 1563.59 -6.16136 0.691148 0
M  V30 17086 C 1565.64 -4.97894 0.0234393 0
M  V30 17087 C 1564.35 -7.03391 1.50443 0
M  V30 17088 C 1566.37 -5.85638 0.823546 0
M  V30 17089 C 1565.74 -6.87003 1.55582 0
M  V30 17090 H 1561.83 -0.73096 -0.277887 0
M  V30 17091 H 1564.42 -1.94509 -0.086209 0
M  V30 17092 H 1562.59 -3.11698 -2.3173 0
M  V30 17093 H 1564.32 -3.35765 -2.2593 0
M  V30 17094 H 1561.08 -4.67901 -0.732512 0
M  V30 17095 H 1561.5 -6.70591 0.929337 0
M  V30 17096 H 1566.14 -4.19486 -0.528351 0
M  V30 17097 H 1563.86 -7.81208 2.06737 0
M  V30 17098 H 1567.45 -5.75029 0.885004 0
M  V30 17099 H 1566.33 -7.53723 2.16498 0
M  V30 17100 N 1563.83 0.388742 -1.5273 0
M  V30 17101 C 1564.79 1.45759 -1.76881 0
M  V30 17102 C 1565.79 1.47565 -0.63884 0
M  V30 17103 O 1566.98 1.48731 -0.906895 0
M  V30 17104 C 1564.11 2.85045 -1.86981 0
M  V30 17105 H 1565.31 1.25629 -2.72319 0
M  V30 17106 H 1562.86 0.620497 -1.43456 0
M  V30 17107 H 1563.6 3.1052 -0.935296 0
M  V30 17108 H 1563.38 2.85136 -2.69147 0
M  V30 17109 H 1564.87 3.62492 -2.07338 0
M  V30 17110 N 1565.31 1.43698 0.647203 0
M  V30 17111 C 1566.56 1.44918 1.40292 0
M  V30 17112 C 1566.87 0.0794243 1.95439 0
M  V30 17113 O 1568.08 -0.0309052 2.71482 0
M  V30 17114 C 1566.53 2.55052 2.53923 0
M  V30 17115 C 1566.14 3.98161 2.05357 0
M  V30 17116 C 1567.88 2.65473 3.31246 0
M  V30 17117 C 1565.79 4.99749 3.16235 0
M  V30 17118 H 1564.72 0.539106 0.527144 0
M  V30 17119 H 1567.37 1.69708 0.697951 0
M  V30 17120 H 1565.75 2.23473 3.26919 0
M  V30 17121 H 1566.93 4.3923 1.39333 0
M  V30 17122 H 1565.24 3.91839 1.40896 0
M  V30 17123 H 1567.84 3.38546 4.13873 0
M  V30 17124 H 1568.18 1.70745 3.79673 0
M  V30 17125 H 1568.72 2.96383 2.65334 0
M  V30 17126 H 1565.45 5.96051 2.7277 0
M  V30 17127 H 1564.97 4.63288 3.80952 0
M  V30 17128 H 1566.65 5.22725 3.81271 0
M  V30 17129 N 1566.79 -0.886131 1.30328 0
M  V30 17130 C 1567.72 -2.00793 1.19183 0
M  V30 17131 C 1568.7 -1.69899 0.08276 0
M  V30 17132 O 1569.88 -1.92389 0.264593 0
M  V30 17133 C 1567.01 -3.35922 0.881669 0
M  V30 17134 C 1565.97 -3.81072 1.94855 0
M  V30 17135 C 1565.29 -5.1348 1.4914 0
M  V30 17136 C 1566.59 -3.99923 3.35944 0
M  V30 17137 H 1568.29 -2.10375 2.13032 0
M  V30 17138 H 1565.83 -1.0108 1.02561 0
M  V30 17139 H 1567.79 -4.13922 0.790359 0
M  V30 17140 H 1566.51 -3.26469 -0.0925037 0
M  V30 17141 H 1565.17 -3.053 2.02947 0
M  V30 17142 H 1564.82 -5.00453 0.50553 0
M  V30 17143 H 1564.52 -5.44659 2.205 0
M  V30 17144 H 1566.04 -5.94005 1.41386 0
M  V30 17145 H 1567.45 -4.68364 3.30617 0
M  V30 17146 H 1565.85 -4.42477 4.05381 0
M  V30 17147 H 1566.92 -3.03816 3.77921 0
M  V30 17148 N 1568.26 -1.13026 -1.09832 0
M  V30 17149 C 1569.21 -0.799174 -2.1844 0
M  V30 17150 C 1570.21 0.216695 -1.68008 0
M  V30 17151 O 1571.41 0.0742662 -1.79847 0
M  V30 17152 H 1567.79 -0.24064 -0.712458 0
M  V30 17153 H 1569.76 -1.72342 -2.436 0
M  V30 17154 C 1568.51 -0.276925 -3.46595 0
M  V30 17155 H 1567.83 -1.04993 -3.85768 0
M  V30 17156 H 1569.27 -0.0836468 -4.23917 0
M  V30 17157 C 1567.73 0.996479 -3.21826 0
M  V30 17158 O 1568.26 2.0731 -3.44072 0
M  V30 17159 N 1566.47 0.925903 -2.75455 0
M  V30 17160 H 1566.01 0.0496383 -2.57552 0
M  V30 17161 H 1565.97 1.77853 -2.5926 0
M  V30 17162 N 1569.74 1.27735 -0.923117 0
M  V30 17163 C 1570.99 1.94858 -0.56198 0
M  V30 17164 C 1571.32 1.72414 0.893698 0
M  V30 17165 O 1570.6 1.05054 1.63689 0
M  V30 17166 C 1570.88 3.49102 -0.883173 0
M  V30 17167 C 1570.73 3.80908 -2.39227 0
M  V30 17168 C 1572.05 4.38405 -0.385848 0
M  V30 17169 H 1569.17 0.707728 -0.205646 0
M  V30 17170 H 1571.81 1.50935 -1.15406 0
M  V30 17171 H 1569.96 3.86644 -0.379292 0
M  V30 17172 H 1571.63 3.53182 -2.96749 0
M  V30 17173 H 1569.88 3.2762 -2.84337 0
M  V30 17174 H 1570.55 4.88653 -2.56754 0
M  V30 17175 H 1573.02 4.07988 -0.817631 0
M  V30 17176 H 1571.9 5.45161 -0.63958 0
M  V30 17177 H 1572.16 4.36296 0.714009 0
M  V30 17178 N 1571.22 0.688118 1.41784 0
M  V30 17179 C 1572.15 -0.0323076 2.28177 0
M  V30 17180 C 1573.13 -0.795419 1.41816 0
M  V30 17181 O 1574.32 -0.787785 1.71249 0
M  V30 17182 C 1571.44 -1.05308 3.21913 0
M  V30 17183 C 1570.49 -0.384003 4.24768 0
M  V30 17184 S 1571.32 0.86817 5.28416 0
M  V30 17185 C 1572.48 -0.151191 6.25717 0
M  V30 17186 H 1572.71 0.700456 2.88931 0
M  V30 17187 H 1570.24 0.478125 1.46811 0
M  V30 17188 H 1572.2 -1.63689 3.76452 0
M  V30 17189 H 1570.86 -1.75837 2.6027 0
M  V30 17190 H 1570.06 -1.15469 4.90594 0
M  V30 17191 H 1569.66 0.126545 3.73786 0
M  V30 17192 H 1571.95 -1.0068 6.69977 0
M  V30 17193 H 1572.89 0.472955 7.06519 0
M  V30 17194 H 1573.3 -0.502631 5.62258 0
M  V30 17195 N 1572.7 -1.51554 0.432352 0
M  V30 17196 C 1573.95 -2.01645 -0.135511 0
M  V30 17197 C 1574.27 -1.31874 -1.43647 0
M  V30 17198 O 1573.54 -0.451746 -1.9062 0
M  V30 17199 H 1572.12 -0.745113 -0.0530683 0
M  V30 17200 H 1574.78 -1.86258 0.573917 0
M  V30 17201 H 1573.88 -3.10506 -0.315001 0
M  V30 17202 N 1574.18 -0.163538 -1.56749 0
M  V30 17203 C 1575.12 0.769787 -2.17584 0
M  V30 17204 C 1576.09 1.23246 -1.11354 0
M  V30 17205 O 1577.28 1.30203 -1.3947 0
M  V30 17206 C 1574.42 1.99685 -2.81461 0
M  V30 17207 C 1573.53 1.57846 -4.0213 0
M  V30 17208 C 1572.67 2.75858 -4.53955 0
M  V30 17209 C 1571.71 2.30473 -5.67053 0
M  V30 17210 N 1570.84 3.41551 -6.13423 0
M  V30 17211 H 1575.68 0.244221 -2.96998 0
M  V30 17212 H 1573.22 0.108821 -1.46697 0
M  V30 17213 H 1575.18 2.71643 -3.16648 0
M  V30 17214 H 1573.81 2.49624 -2.04664 0
M  V30 17215 H 1572.86 0.755907 -3.72814 0
M  V30 17216 H 1574.17 1.20525 -4.8402 0
M  V30 17217 H 1573.33 3.55984 -4.91284 0
M  V30 17218 H 1572.06 3.16434 -3.71107 0
M  V30 17219 H 1571.07 1.48791 -5.29284 0
M  V30 17220 H 1572.29 1.90964 -6.51698 0
M  V30 17221 H 1570.24 3.81717 -5.33506 0
M  V30 17222 H 1570.16 3.08298 -6.90281 0
M  V30 17223 H 1571.43 4.21985 -6.554 0
M  V30 17224 N 1575.65 1.57214 0.110213 0
M  V30 17225 C 1576.93 1.76298 0.847249 0
M  V30 17226 C 1577.31 0.741294 1.97656 0
M  V30 17227 O 1576.66 -0.233104 2.27308 0
M  V30 17228 C 1576.87 3.21588 1.35582 0
M  V30 17229 C 1578.22 3.8434 1.80465 0
M  V30 17230 O 1579.24 3.25244 1.45241 0
M  V30 17231 O 1578.1 4.88231 2.45546 0
M  V30 17232 H 1575.19 0.722167 0.402993 0
M  V30 17233 H 1577.74 1.69443 0.0932694 0
M  V30 17234 H 1576.51 3.87472 0.54599 0
M  V30 17235 H 1576.14 3.33015 2.17225 0
M  V30 17236 N 1577.13 -0.380637 1.52934 0
M  V30 17237 C 1578.38 -1.12483 1.68386 0
M  V30 17238 C 1578.71 -1.89733 0.427993 0
M  V30 17239 O 1577.96 -1.86601 -0.589795 0
M  V30 17240 C 1578.26 -2.1227 2.87535 0
M  V30 17241 C 1577.93 -1.51615 4.24645 0
M  V30 17242 C 1576.59 -1.348 4.61933 0
M  V30 17243 C 1578.94 -1.07595 5.09973 0
M  V30 17244 C 1576.27 -0.725254 5.822 0
M  V30 17245 C 1578.62 -0.467273 6.30872 0
M  V30 17246 C 1577.29 -0.286488 6.66885 0
M  V30 17247 H 1576.56 -0.411606 0.616167 0
M  V30 17248 H 1579.2 -0.408435 1.87094 0
M  V30 17249 H 1577.51 -2.90159 2.63277 0
M  V30 17250 H 1579.2 -2.69777 2.96684 0
M  V30 17251 H 1575.79 -1.65693 3.95277 0
M  V30 17252 H 1579.98 -1.19385 4.81727 0
M  V30 17253 H 1575.23 -0.573461 6.08705 0
M  V30 17254 H 1579.41 -0.117914 6.963 0
M  V30 17255 H 1577.04 0.198141 7.59942 0
M  V30 17256 N 1578.61 -1.44039 -0.639573 0
M  V30 17257 C 1580.02 -1.41236 -1.22104 0
M  V30 17258 C 1580.37 -0.123367 -1.95812 0
M  V30 17259 O 1579.5 0.776641 -2.01983 0
M  V30 17260 C 1580.09 -2.55853 -2.22092 0
M  V30 17261 C 1578.65 -2.56271 -2.75685 0
M  V30 17262 C 1577.8 -2.32877 -1.50544 0
M  V30 17263 H 1580.75 -1.52742 -0.430756 0
M  V30 17264 H 1580.77 -2.28123 -3.04533 0
M  V30 17265 H 1580.28 -3.49653 -1.68417 0
M  V30 17266 H 1578.38 -1.66389 -3.33385 0
M  V30 17267 H 1578.5 -3.54486 -3.22299 0
M  V30 17268 H 1576.86 -1.81807 -1.78377 0
M  V30 17269 H 1577.64 -3.2878 -0.987845 0
M  V30 17270 N 1580.09 0.879207 -1.30796 0
M  V30 17271 C 1581.33 1.63392 -1.20129 0
M  V30 17272 C 1581.67 1.92684 0.242164 0
M  V30 17273 O 1580.94 1.55188 1.17247 0
M  V30 17274 C 1581.23 2.97005 -2.03618 0
M  V30 17275 C 1581.08 2.74649 -3.56214 0
M  V30 17276 C 1582.4 3.97998 -1.87845 0
M  V30 17277 H 1579.52 0.592911 -0.437751 0
M  V30 17278 H 1582.16 1.017 -1.6049 0
M  V30 17279 H 1580.31 3.49659 -1.69326 0
M  V30 17280 H 1581.98 2.28738 -4.00595 0
M  V30 17281 H 1580.22 2.09048 -3.80107 0
M  V30 17282 H 1580.89 3.69681 -4.09927 0
M  V30 17283 H 1583.37 3.54523 -2.17836 0
M  V30 17284 H 1582.25 4.89388 -2.48578 0
M  V30 17285 H 1582.51 4.34062 -0.839183 0
M  V30 17286 N 1581.57 1.13606 1.09231 0
M  V30 17287 C 1582.52 0.810747 2.18013 0
M  V30 17288 C 1583.51 -0.207782 1.68121 0
M  V30 17289 O 1584.72 -0.0647274 1.79884 0
M  V30 17290 H 1581.09 0.244415 0.711172 0
M  V30 17291 H 1583.06 1.73632 2.42682 0
M  V30 17292 C 1581.81 0.295302 3.46444 0
M  V30 17293 H 1581.13 1.07037 3.85205 0
M  V30 17294 H 1582.57 0.106127 4.23867 0
M  V30 17295 C 1581.03 -0.979398 3.2235 0
M  V30 17296 O 1581.56 -2.05483 3.45166 0
M  V30 17297 N 1579.77 -0.911282 2.75942 0
M  V30 17298 H 1579.32 -0.035979 2.57575 0
M  V30 17299 H 1579.27 -1.76476 2.60199 0
M  V30 17300 N 1583.05 -1.27244 0.929878 0
M  V30 17301 C 1583.96 -2.30506 0.436355 0
M  V30 17302 C 1584.97 -1.67131 -0.484054 0
M  V30 17303 O 1586.15 -1.9804 -0.366332 0
M  V30 17304 C 1583.21 -3.45391 -0.300942 0
M  V30 17305 C 1582.27 -4.24279 0.654647 0
M  V30 17306 C 1581.51 -5.33679 -0.047558 0
M  V30 17307 O 1581.73 -5.56161 -1.26654 0
M  V30 17308 O 1580.66 -5.98642 0.62538 0
M  V30 17309 H 1584.49 -2.74762 1.29382 0
M  V30 17310 H 1582.07 -1.32234 0.695311 0
M  V30 17311 H 1583.96 -4.1526 -0.716718 0
M  V30 17312 H 1582.63 -3.03187 -1.13398 0
M  V30 17313 H 1581.54 -3.56936 1.12015 0
M  V30 17314 H 1582.87 -4.70204 1.45497 0
M  V30 17315 N 1584.52 -0.695628 -1.41417 0
M  V30 17316 C 1585.77 -0.226954 -2.01526 0
M  V30 17317 C 1586.1 1.1704 -1.54968 0
M  V30 17318 O 1585.38 1.78999 -0.760895 0
M  V30 17319 C 1585.66 -0.284704 -3.58973 0
M  V30 17320 C 1585.51 -1.71901 -4.15656 0
M  V30 17321 C 1586.83 0.355454 -4.38662 0
M  V30 17322 H 1583.95 -0.0839425 -0.732204 0
M  V30 17323 H 1586.59 -0.884359 -1.68164 0
M  V30 17324 H 1584.74 0.275041 -3.87525 0
M  V30 17325 H 1586.42 -2.3326 -3.97979 0
M  V30 17326 H 1584.66 -2.25314 -3.70696 0
M  V30 17327 H 1585.33 -1.71095 -5.24815 0
M  V30 17328 H 1587.81 -0.121256 -4.15923 0
M  V30 17329 H 1586.68 0.284503 -5.48162 0
M  V30 17330 H 1586.94 1.43617 -4.18123 0
M  V30 17331 N 1586 1.51322 -0.440383 0
M  V30 17332 C 1587.25 2.02113 0.125062 0
M  V30 17333 C 1587.58 1.32436 1.42446 0
M  V30 17334 O 1586.83 0.428981 1.9094 0
M  V30 17335 C 1587.13 3.55287 0.388079 0
M  V30 17336 C 1586.8 4.43272 -0.825876 0
M  V30 17337 C 1585.46 4.67039 -1.15878 0
M  V30 17338 C 1587.81 4.94872 -1.63557 0
M  V30 17339 C 1585.14 5.39652 -2.30201 0
M  V30 17340 C 1587.49 5.68739 -2.76981 0
M  V30 17341 C 1586.15 5.90769 -3.10722 0
M  V30 17342 H 1585.42 0.739585 0.0457635 0
M  V30 17343 H 1588.07 1.82243 -0.588201 0
M  V30 17344 H 1586.38 3.73505 1.18327 0
M  V30 17345 H 1588.07 3.92124 0.839055 0
M  V30 17346 H 1584.66 4.24972 -0.556468 0
M  V30 17347 H 1588.85 4.76391 -1.39158 0
M  V30 17348 H 1584.1 5.54923 -2.56653 0
M  V30 17349 H 1588.28 6.07711 -3.40089 0
M  V30 17350 H 1585.9 6.46814 -3.9942 0
M  V30 17351 N 1587.48 0.171848 1.5666 0
M  V30 17352 C 1588.71 -0.479221 2.01274 0
M  V30 17353 C 1589.12 -1.56771 1.05206 0
M  V30 17354 O 1588.48 -1.82423 0.0530164 0
M  V30 17355 C 1588.53 -1.05705 3.457 0
M  V30 17356 O 1588.25 -0.0120133 4.38098 0
M  V30 17357 C 1589.75 -1.78629 4.05717 0
M  V30 17358 H 1586.97 -0.122598 0.659705 0
M  V30 17359 H 1589.52 0.273733 2.0266 0
M  V30 17360 H 1587.67 -1.7605 3.45087 0
M  V30 17361 H 1588.09 -0.438714 5.22662 0
M  V30 17362 H 1589.56 -2.14319 5.08696 0
M  V30 17363 H 1590.04 -2.68149 3.4784 0
M  V30 17364 H 1590.64 -1.12925 4.10034 0
M  V30 17365 N 1588.96 -1.5727 -0.101874 0
M  V30 17366 C 1589.89 -1.98253 -1.15014 0
M  V30 17367 C 1590.9 -0.884147 -1.36699 0
M  V30 17368 O 1592.09 -1.16232 -1.35471 0
M  V30 17369 C 1589.19 -2.28043 -2.50698 0
M  V30 17370 C 1588.36 -3.59343 -2.49383 0
M  V30 17371 C 1587.42 -3.77147 -3.66943 0
M  V30 17372 O 1586.45 -4.49075 -3.49744 0
M  V30 17373 N 1587.65 -3.1721 -4.86167 0
M  V30 17374 H 1590.42 -2.88787 -0.801375 0
M  V30 17375 H 1587.98 -1.59264 -0.290941 0
M  V30 17376 H 1589.97 -2.37153 -3.27934 0
M  V30 17377 H 1588.54 -1.4355 -2.77691 0
M  V30 17378 H 1587.76 -3.61264 -1.57741 0
M  V30 17379 H 1589.05 -4.45612 -2.45576 0
M  V30 17380 H 1588.45 -2.58772 -5.03044 0
M  V30 17381 H 1587 -3.31816 -5.61018 0
M  V30 17382 N 1590.44 0.372521 -1.53134 0
M  V30 17383 C 1591.68 1.11589 -1.6898 0
M  V30 17384 C 1592.01 1.89503 -0.438049 0
M  V30 17385 O 1591.27 1.86911 0.579891 0
M  V30 17386 C 1591.56 2.10742 -2.88656 0
M  V30 17387 C 1591.23 1.49361 -4.25443 0
M  V30 17388 C 1589.89 1.32348 -4.62642 0
M  V30 17389 C 1592.24 1.04889 -5.10537 0
M  V30 17390 C 1589.57 0.694368 -5.82577 0
M  V30 17391 C 1591.92 0.433809 -6.31111 0
M  V30 17392 C 1590.59 0.251118 -6.67027 0
M  V30 17393 H 1589.86 0.408333 -0.618341 0
M  V30 17394 H 1592.51 0.398507 -1.87308 0
M  V30 17395 H 1590.81 2.88759 -2.64812 0
M  V30 17396 H 1592.51 2.682 -2.98111 0
M  V30 17397 H 1589.1 1.63594 -3.9615 0
M  V30 17398 H 1593.28 1.16829 -4.82353 0
M  V30 17399 H 1588.54 0.541171 -6.09 0
M  V30 17400 H 1592.71 0.0809859 -6.96353 0
M  V30 17401 H 1590.34 -0.23844 -7.59826 0
M  V30 17402 N 1591.91 1.44376 0.631925 0
M  V30 17403 C 1592.84 1.54005 1.75512 0
M  V30 17404 C 1593.82 0.393126 1.65495 0
M  V30 17405 O 1595.01 0.613143 1.84267 0
M  V30 17406 C 1592.14 1.48313 3.14039 0
M  V30 17407 C 1591.09 2.61474 3.38844 0
M  V30 17408 C 1590.42 2.40834 4.77392 0
M  V30 17409 C 1591.72 4.03627 3.31485 0
M  V30 17410 H 1593.41 2.48019 1.6771 0
M  V30 17411 H 1590.96 1.19368 0.80543 0
M  V30 17412 H 1592.91 1.5365 3.9239 0
M  V30 17413 H 1591.64 0.508152 3.22623 0
M  V30 17414 H 1590.3 2.55525 2.62874 0
M  V30 17415 H 1589.94 1.4153 4.82678 0
M  V30 17416 H 1589.64 3.16703 4.94947 0
M  V30 17417 H 1591.17 2.47988 5.57974 0
M  V30 17418 H 1592.58 4.1095 3.99741 0
M  V30 17419 H 1590.98 4.79694 3.60574 0
M  V30 17420 H 1592.05 4.27255 2.29307 0
M  V30 17421 N 1593.39 -0.872258 1.31261 0
M  V30 17422 C 1594.35 -1.96081 1.1868 0
M  V30 17423 C 1595.35 -1.60392 0.11452 0
M  V30 17424 O 1596.54 -1.70363 0.363613 0
M  V30 17425 C 1593.68 -3.30862 0.821183 0
M  V30 17426 H 1594.87 -2.08667 2.15402 0
M  V30 17427 H 1592.42 -1.06026 1.14839 0
M  V30 17428 H 1593.16 -3.23976 -0.14498 0
M  V30 17429 H 1592.94 -3.58137 1.59625 0
M  V30 17430 H 1594.43 -4.10682 0.756991 0
M  V30 17431 N 1594.87 -1.14184 -1.08627 0
M  V30 17432 C 1596.15 -0.81955 -1.77603 0
M  V30 17433 C 1596.53 0.687377 -1.99595 0
M  V30 17434 O 1595.87 1.62744 -1.60396 0
M  V30 17435 C 1596.08 -1.61574 -3.09346 0
M  V30 17436 C 1597.43 -1.81367 -3.83916 0
M  V30 17437 O 1598.46 -1.58241 -3.19121 0
M  V30 17438 O 1597.32 -2.20011 -5.00257 0
M  V30 17439 H 1594.41 -0.300086 -0.770635 0
M  V30 17440 H 1596.96 -1.24691 -1.15109 0
M  V30 17441 H 1595.73 -2.63946 -2.88874 0
M  V30 17442 H 1595.35 -1.18386 -3.79566 0
M  V30 17443 N 1596.35 1.26749 -0.936613 0
M  V30 17444 C 1597.3 2.28528 -0.433328 0
M  V30 17445 C 1598.29 1.62248 0.487012 0
M  V30 17446 O 1599.5 1.76245 0.36573 0
M  V30 17447 H 1595.87 0.742106 -0.121583 0
M  V30 17448 H 1597.84 2.68382 -1.30436 0
M  V30 17449 C 1596.59 3.46485 0.290366 0
M  V30 17450 H 1595.91 3.97706 -0.408649 0
M  V30 17451 H 1597.35 4.19635 0.606807 0
M  V30 17452 C 1595.81 3.01339 1.50654 0
M  V30 17453 O 1596.34 3.05781 2.60501 0
M  V30 17454 N 1594.55 2.56732 1.3615 0
M  V30 17455 H 1594.1 2.53317 0.467788 0
M  V30 17456 H 1594.05 2.26888 2.17645 0
M  V30 17457 N 1597.83 0.703118 1.41046 0
M  V30 17458 C 1598.78 0.0192623 2.27992 0
M  V30 17459 C 1599.76 -0.745216 1.42602 0
M  V30 17460 O 1600.95 -0.619468 1.65806 0
M  V30 17461 C 1598.08 -0.910896 3.30995 0
M  V30 17462 C 1597.17 -0.142265 4.23861 0
M  V30 17463 N 1597.56 0.867928 4.98298 0
M  V30 17464 C 1595.86 -0.376651 4.44407 0
M  V30 17465 C 1596.56 1.32869 5.66322 0
M  V30 17466 N 1595.53 0.653176 5.39662 0
M  V30 17467 H 1599.34 0.793687 2.8298 0
M  V30 17468 H 1596.85 0.534609 1.53348 0
M  V30 17469 H 1598.85 -1.41603 3.92115 0
M  V30 17470 H 1597.51 -1.68483 2.77567 0
M  V30 17471 H 1598.52 1.2484 5.02628 0
M  V30 17472 H 1595.19 -1.12789 4.01976 0
M  V30 17473 H 1596.58 2.16738 6.35983 0
M  V30 17474 N 1599.3 -1.51086 0.448402 0
M  V30 17475 C 1600.25 -2.24885 -0.375609 0
M  V30 17476 C 1601.24 -1.27553 -0.980769 0
M  V30 17477 O 1602.43 -1.52583 -0.897076 0
M  V30 17478 C 1599.56 -3.10235 -1.47 0
M  V30 17479 C 1598.65 -4.15003 -0.873686 0
M  V30 17480 N 1599.04 -5.05799 -0.00756268 0
M  V30 17481 C 1597.33 -4.31182 -1.14009 0
M  V30 17482 C 1598.04 -5.80772 0.328514 0
M  V30 17483 N 1597.01 -5.42822 -0.290661 0
M  V30 17484 H 1600.81 -2.92446 0.291962 0
M  V30 17485 H 1598.33 -1.60287 0.261145 0
M  V30 17486 H 1600.32 -3.61691 -2.07328 0
M  V30 17487 H 1598.98 -2.44219 -2.13979 0
M  V30 17488 H 1600 -5.1665 0.359676 0
M  V30 17489 H 1596.67 -3.7639 -1.80656 0
M  V30 17490 H 1598.06 -6.63896 1.03399 0
M  V30 17491 N 1600.78 -0.180154 -1.56567 0
M  V30 17492 C 1601.71 0.77825 -2.15583 0
M  V30 17493 C 1602.73 1.18746 -1.1137 0
M  V30 17494 O 1603.92 1.12578 -1.38523 0
M  V30 17495 C 1601.02 2.06024 -2.69086 0
M  V30 17496 C 1600.19 1.8132 -3.98047 0
M  V30 17497 C 1599.25 2.93823 -4.36526 0
M  V30 17498 O 1598.27 2.64075 -5.04235 0
M  V30 17499 N 1599.48 4.21823 -3.98806 0
M  V30 17500 H 1602.24 0.273661 -2.98448 0
M  V30 17501 H 1599.8 0.00232952 -1.619 0
M  V30 17502 H 1601.79 2.80398 -2.9182 0
M  V30 17503 H 1600.36 2.47648 -1.9076 0
M  V30 17504 H 1599.58 0.908046 -3.83599 0
M  V30 17505 H 1600.87 1.62194 -4.82256 0
M  V30 17506 H 1600.27 4.48849 -3.44313 0
M  V30 17507 H 1598.83 4.92871 -4.26522 0
M  V30 17508 N 1602.26 1.57322 0.0935319 0
M  V30 17509 C 1603.51 1.86443 0.797919 0
M  V30 17510 C 1603.84 0.769491 1.78304 0
M  V30 17511 O 1603.11 -0.222383 1.93225 0
M  V30 17512 C 1603.4 3.26201 1.52528 0
M  V30 17513 C 1603.25 4.46325 0.558031 0
M  V30 17514 C 1604.57 3.63879 2.47548 0
M  V30 17515 H 1601.69 0.678136 0.288618 0
M  V30 17516 H 1604.33 1.899 0.0615161 0
M  V30 17517 H 1602.48 3.23385 2.15301 0
M  V30 17518 H 1604.15 4.61257 -0.0628154 0
M  V30 17519 H 1602.4 4.3361 -0.128462 0
M  V30 17520 H 1603.07 5.40845 1.10413 0
M  V30 17521 H 1605.54 3.6765 1.94866 0
M  V30 17522 H 1604.42 4.62598 2.95456 0
M  V30 17523 H 1604.68 2.92647 3.31376 0
M  V30 17524 N 1603.74 -0.364395 1.53329 0
M  V30 17525 C 1605.15 -0.706147 1.43128 0
M  V30 17526 C 1605.35 -1.93231 0.571307 0
M  V30 17527 O 1604.41 -2.52442 0.0542079 0
M  V30 17528 C 1605.72 -0.918245 2.86337 0
M  V30 17529 C 1607.27 -1.01818 2.95976 0
M  V30 17530 C 1607.75 -1.26274 4.40249 0
M  V30 17531 N 1609.24 -1.33042 4.43683 0
M  V30 17532 C 1609.97 -1.53677 5.52423 0
M  V30 17533 N 1609.47 -1.7162 6.71207 0
M  V30 17534 N 1611.26 -1.56056 5.40003 0
M  V30 17535 H 1603.41 0.442091 2.07748 0
M  V30 17536 H 1605.68 0.135735 0.938232 0
M  V30 17537 H 1605.38 -0.0890628 3.51587 0
M  V30 17538 H 1605.26 -1.826 3.30056 0
M  V30 17539 H 1607.64 -1.83791 2.30879 0
M  V30 17540 H 1607.72 -0.0877892 2.55649 0
M  V30 17541 H 1607.37 -0.448026 5.0592 0
M  V30 17542 H 1607.3 -2.20637 4.78149 0
M  V30 17543 H 1609.79 -1.20784 3.58078 0
M  V30 17544 H 1610.1 -1.86942 7.49848 0
M  V30 17545 H 1608.45 -1.68797 6.7419 0
M  V30 17546 H 1611.64 -1.41605 4.46168 0
M  V30 17547 H 1611.81 -1.71796 6.24812 0
M  V30 17548 N 1605.22 -1.44709 -0.62426 0
M  V30 17549 C 1606.15 -1.46578 -1.749 0
M  V30 17550 C 1607.13 -0.323875 -1.59342 0
M  V30 17551 O 1608.31 -0.521884 -1.81132 0
M  V30 17552 C 1605.44 -1.30499 -3.1255 0
M  V30 17553 C 1604.48 -2.48341 -3.4674 0
M  V30 17554 S 1605.32 -4.10857 -3.43448 0
M  V30 17555 C 1606.47 -3.97213 -4.83707 0
M  V30 17556 H 1606.71 -2.41747 -1.73049 0
M  V30 17557 H 1604.24 -1.3209 -0.799473 0
M  V30 17558 H 1606.2 -1.2191 -3.9198 0
M  V30 17559 H 1604.86 -0.368301 -3.11933 0
M  V30 17560 H 1604.05 -2.32972 -4.46923 0
M  V30 17561 H 1603.65 -2.53706 -2.74789 0
M  V30 17562 H 1605.95 -3.61328 -5.73104 0
M  V30 17563 H 1606.89 -4.9725 -5.04131 0
M  V30 17564 H 1607.3 -3.29154 -4.58604 0
M  V30 17565 N 1606.69 0.865285 -1.31722 0
M  V30 17566 C 1607.62 1.98871 -1.22362 0
M  V30 17567 C 1608.61 1.69745 -0.109779 0
M  V30 17568 O 1609.79 1.91944 -0.295167 0
M  V30 17569 C 1606.92 3.34477 -0.935 0
M  V30 17570 C 1605.87 3.77924 -2.00892 0
M  V30 17571 C 1605.2 5.11042 -1.57291 0
M  V30 17572 C 1606.5 3.94528 -3.42264 0
M  V30 17573 H 1608.19 2.06959 -2.16352 0
M  V30 17574 H 1605.74 0.994355 -1.04157 0
M  V30 17575 H 1607.69 4.12612 -0.856111 0
M  V30 17576 H 1606.42 3.26575 0.0405536 0
M  V30 17577 H 1605.08 3.02032 -2.07779 0
M  V30 17578 H 1604.72 4.99586 -0.585084 0
M  V30 17579 H 1604.42 5.41082 -2.29138 0
M  V30 17580 H 1605.95 5.91681 -1.50818 0
M  V30 17581 H 1607.36 4.63045 -3.38027 0
M  V30 17582 H 1605.76 4.35972 -4.12369 0
M  V30 17583 H 1606.83 2.97765 -3.82706 0
M  V30 17584 N 1608.17 1.14759 1.0802 0
M  V30 17585 C 1609.14 0.840859 2.13219 0
M  V30 17586 C 1610.14 -0.156309 1.60038 0
M  V30 17587 O 1611.33 0.0725143 1.74049 0
M  V30 17588 C 1608.46 0.254208 3.39951 0
M  V30 17589 H 1609.65 1.77323 2.4186 0
M  V30 17590 H 1607.2 0.954146 1.23797 0
M  V30 17591 H 1607.94 -0.686692 3.16946 0
M  V30 17592 H 1607.72 0.972499 3.79848 0
M  V30 17593 H 1609.21 0.0569551 4.17561 0
M  V30 17594 N 1609.65 -1.26251 0.943322 0
M  V30 17595 C 1610.61 -2.24554 0.459158 0
M  V30 17596 C 1611.61 -1.54918 -0.430926 0
M  V30 17597 O 1612.8 -1.72678 -0.229803 0
M  V30 17598 C 1609.94 -3.39221 -0.337973 0
M  V30 17599 H 1611.13 -2.689 1.32789 0
M  V30 17600 H 1608.68 -1.38442 0.725495 0
M  V30 17601 H 1609.42 -3.00279 -1.22486 0
M  V30 17602 H 1609.2 -3.90947 0.300428 0
M  V30 17603 H 1610.69 -4.12246 -0.666568 0
M  V30 17604 N 1611.13 -0.710588 -1.40671 0
M  V30 17605 C 1612.04 -0.0557164 -2.34534 0
M  V30 17606 C 1613.06 0.749387 -1.57036 0
M  V30 17607 O 1614.23 0.683493 -1.89447 0
M  V30 17608 C 1611.3 0.858583 -3.35901 0
M  V30 17609 C 1610.36 0.043995 -4.29277 0
M  V30 17610 C 1609.59 0.91475 -5.25802 0
M  V30 17611 O 1609.81 2.15407 -5.28163 0
M  V30 17612 O 1608.75 0.356407 -6.00844 0
M  V30 17613 H 1612.57 -0.829807 -2.92144 0
M  V30 17614 H 1610.16 -0.471028 -1.4178 0
M  V30 17615 H 1612.04 1.38244 -3.98079 0
M  V30 17616 H 1610.72 1.61191 -2.80712 0
M  V30 17617 H 1609.62 -0.524815 -3.704 0
M  V30 17618 H 1610.96 -0.670996 -4.87605 0
M  V30 17619 N 1612.61 1.50847 -0.456408 0
M  V30 17620 C 1613.83 2.07139 0.104054 0
M  V30 17621 C 1614.26 1.31966 1.34039 0
M  V30 17622 O 1613.62 0.363038 1.77628 0
M  V30 17623 C 1613.66 3.5853 0.385794 0
M  V30 17624 O 1612.77 3.85351 1.46895 0
M  V30 17625 H 1612.11 0.663968 -0.00651246 0
M  V30 17626 H 1614.64 1.94226 -0.64323 0
M  V30 17627 H 1614.65 4.03097 0.630644 0
M  V30 17628 H 1613.32 4.12665 -0.51773 0
M  V30 17629 H 1611.9 3.52635 1.21256 0
M  V30 17630 N 1614.09 0.188454 1.56469 0
M  V30 17631 C 1615.33 -0.452238 1.96565 0
M  V30 17632 C 1615.65 -1.63219 1.07792 0
M  V30 17633 O 1616.85 -2.34024 1.37641 0
M  V30 17634 C 1615.31 -0.855966 3.49573 0
M  V30 17635 C 1614.92 0.299329 4.46999 0
M  V30 17636 C 1616.66 -1.46411 3.98452 0
M  V30 17637 C 1614.57 -0.124987 5.91268 0
M  V30 17638 H 1613.5 -0.172729 0.733949 0
M  V30 17639 H 1616.15 0.279415 1.8136 0
M  V30 17640 H 1614.53 -1.64409 3.60258 0
M  V30 17641 H 1615.71 1.07681 4.48042 0
M  V30 17642 H 1614.02 0.818542 4.08275 0
M  V30 17643 H 1616.62 -1.79392 5.03709 0
M  V30 17644 H 1616.96 -2.36822 3.42376 0
M  V30 17645 H 1617.49 -0.740088 3.90855 0
M  V30 17646 H 1614.23 0.744769 6.51255 0
M  V30 17647 H 1613.75 -0.86747 5.93494 0
M  V30 17648 H 1615.43 -0.563054 6.44545 0
M  V30 17649 N 1615.56 -1.5737 -0.0851874 0
M  V30 17650 C 1616.51 -2.03781 -1.12142 0
M  V30 17651 C 1617.51 -0.940669 -1.40882 0
M  V30 17652 O 1618.71 -1.12582 -1.40447 0
M  V30 17653 H 1615.09 -0.64956 -0.378914 0
M  V30 17654 H 1617.06 -2.89983 -0.703736 0
M  V30 17655 C 1615.81 -2.48628 -2.43062 0
M  V30 17656 H 1615.13 -3.32637 -2.21795 0
M  V30 17657 H 1616.57 -2.84869 -3.14048 0
M  V30 17658 C 1615.03 -1.36364 -3.08069 0
M  V30 17659 O 1615.56 -0.698273 -3.95584 0
M  V30 17660 N 1613.76 -1.11213 -2.68477 0
M  V30 17661 H 1613.31 -1.655 -1.97402 0
M  V30 17662 H 1613.27 -0.363003 -3.12297 0
M  V30 17663 N 1617.04 0.356258 -1.53521 0
M  V30 17664 C 1618.46 0.698546 -1.43501 0
M  V30 17665 C 1618.66 1.92926 -0.581547 0
M  V30 17666 O 1617.71 2.5241 -0.0675947 0
M  V30 17667 C 1619.03 0.903047 -2.8682 0
M  V30 17668 C 1620.57 1.00247 -2.96512 0
M  V30 17669 C 1621.05 1.23938 -4.40912 0
M  V30 17670 N 1622.54 1.30687 -4.44382 0
M  V30 17671 C 1623.28 1.50745 -5.5323 0
M  V30 17672 N 1622.77 1.68058 -6.72107 0
M  V30 17673 N 1624.56 1.5319 -5.40823 0
M  V30 17674 H 1616.72 -0.453102 -2.07511 0
M  V30 17675 H 1618.98 -0.140708 -0.937499 0
M  V30 17676 H 1618.68 0.070416 -3.5163 0
M  V30 17677 H 1618.56 1.80847 -3.3102 0
M  V30 17678 H 1620.95 1.82564 -2.3185 0
M  V30 17679 H 1621.03 0.0742303 -2.55692 0
M  V30 17680 H 1620.67 0.421189 -5.06151 0
M  V30 17681 H 1620.6 2.18098 -4.79313 0
M  V30 17682 H 1623.09 1.18883 -3.58713 0
M  V30 17683 H 1623.4 1.82963 -7.50829 0
M  V30 17684 H 1621.75 1.65219 -6.75076 0
M  V30 17685 H 1624.94 1.39237 -4.46912 0
M  V30 17686 H 1625.11 1.6848 -6.25714 0
M  V30 17687 N 1618.52 1.45038 0.616577 0
M  V30 17688 C 1619.45 1.55858 1.73869 0
M  V30 17689 C 1620.43 0.410657 1.65069 0
M  V30 17690 O 1621.62 0.632652 1.83606 0
M  V30 17691 C 1618.75 1.51635 3.12448 0
M  V30 17692 C 1617.7 2.65053 3.36052 0
M  V30 17693 C 1617.03 2.45883 4.74811 0
M  V30 17694 C 1618.33 4.07121 3.27185 0
M  V30 17695 H 1620.02 2.49784 1.6507 0
M  V30 17696 H 1617.57 1.20216 0.792724 0
M  V30 17697 H 1619.52 1.57803 3.90738 0
M  V30 17698 H 1618.24 0.542342 3.22066 0
M  V30 17699 H 1616.9 2.58299 2.60149 0
M  V30 17700 H 1616.55 1.46641 4.8115 0
M  V30 17701 H 1616.25 3.21935 4.9156 0
M  V30 17702 H 1617.77 2.53892 5.55312 0
M  V30 17703 H 1619.19 4.15167 3.9536 0
M  V30 17704 H 1617.58 4.83491 3.55466 0
M  V30 17705 H 1618.65 4.29663 2.24762 0
M  V30 17706 N 1620 -0.858287 1.32179 0
M  V30 17707 C 1621.24 -1.61221 1.22532 0
M  V30 17708 C 1621.57 -1.93322 -0.213739 0
M  V30 17709 O 1620.83 -1.5719 -1.16575 0
M  V30 17710 C 1621.13 -2.94391 2.02654 0
M  V30 17711 C 1620.79 -2.81735 3.52046 0
M  V30 17712 C 1619.45 -2.7799 3.92778 0
M  V30 17713 C 1621.81 -2.67928 4.47062 0
M  V30 17714 C 1619.13 -2.58312 5.26775 0
M  V30 17715 C 1621.49 -2.49785 5.81197 0
M  V30 17716 C 1620.15 -2.44431 6.21136 0
M  V30 17717 H 1619.42 -0.589949 0.448376 0
M  V30 17718 H 1622.07 -0.995897 1.63567 0
M  V30 17719 H 1620.37 -3.60122 1.54336 0
M  V30 17720 H 1622.07 -3.5174 1.92561 0
M  V30 17721 H 1618.66 -2.85472 3.19693 0
M  V30 17722 H 1622.84 -2.69868 4.16515 0
M  V30 17723 H 1618.1 -2.526 5.56779 0
M  V30 17724 H 1622.27 -2.38081 6.54439 0
M  V30 17725 H 1619.9 -2.28943 7.24906 0
M  V30 17726 N 1621.48 -1.1533 -1.07409 0
M  V30 17727 C 1622.41 -0.807289 -2.14512 0
M  V30 17728 C 1623.42 0.18043 -1.61797 0
M  V30 17729 O 1624.61 -0.042733 -1.78449 0
M  V30 17730 C 1621.71 -0.179338 -3.38425 0
M  V30 17731 C 1620.88 -1.20433 -4.20493 0
M  V30 17732 C 1619.94 -0.598268 -5.22788 0
M  V30 17733 O 1618.97 -1.26405 -5.54987 0
M  V30 17734 N 1620.17 0.620283 -5.77177 0
M  V30 17735 H 1622.93 -1.729 -2.44797 0
M  V30 17736 H 1620.5 -1.0491 -1.23311 0
M  V30 17737 H 1622.49 0.238867 -4.03994 0
M  V30 17738 H 1621.06 0.645706 -3.05858 0
M  V30 17739 H 1620.28 -1.79912 -3.5075 0
M  V30 17740 H 1621.57 -1.89642 -4.72137 0
M  V30 17741 H 1620.96 1.17958 -5.53265 0
M  V30 17742 H 1619.52 0.980853 -6.44378 0
M  V30 17743 N 1622.95 1.25748 -0.950004 0
M  V30 17744 C 1624.23 1.88566 -0.519839 0
M  V30 17745 C 1624.61 1.85761 1.00279 0
M  V30 17746 O 1623.96 1.31797 1.8666 0
M  V30 17747 C 1624.17 3.31502 -1.09121 0
M  V30 17748 C 1625.52 4.08298 -1.16524 0
M  V30 17749 O 1626.54 3.40605 -1.04243 0
M  V30 17750 O 1625.4 5.29375 -1.35735 0
M  V30 17751 H 1622.49 0.809175 -0.170777 0
M  V30 17752 H 1625.04 1.33853 -1.04314 0
M  V30 17753 H 1623.81 3.2795 -2.13458 0
M  V30 17754 H 1623.43 3.93765 -0.550881 0
M  V30 17755 N 1624.43 0.718038 1.40292 0
M  V30 17756 C 1625.66 0.268326 2.05153 0
M  V30 17757 C 1626.07 -1.09075 1.54104 0
M  V30 17758 O 1625.43 -1.68597 0.698654 0
M  V30 17759 C 1625.48 0.242222 3.60688 0
M  V30 17760 O 1625.2 1.54764 4.09853 0
M  V30 17761 C 1626.7 -0.225741 4.42725 0
M  V30 17762 H 1623.92 0.120165 0.660153 0
M  V30 17763 H 1626.47 0.976933 1.79656 0
M  V30 17764 H 1624.62 -0.417367 3.85145 0
M  V30 17765 H 1625.04 1.44976 5.04066 0
M  V30 17766 H 1626.51 -0.192857 5.51663 0
M  V30 17767 H 1626.99 -1.26829 4.20489 0
M  V30 17768 H 1627.59 0.40366 4.2338 0
M  V30 17769 N 1625.91 -1.50602 0.464402 0
M  V30 17770 C 1626.86 -2.28382 -0.333234 0
M  V30 17771 C 1627.83 -1.3314 -0.993125 0
M  V30 17772 O 1629.01 -1.62072 -1.00685 0
M  V30 17773 C 1626.15 -3.14841 -1.41313 0
M  V30 17774 C 1625.27 -4.25106 -0.768684 0
M  V30 17775 C 1624.4 -4.98833 -1.82591 0
M  V30 17776 C 1623.44 -6.00982 -1.16135 0
M  V30 17777 N 1622.58 -6.68012 -2.16112 0
M  V30 17778 H 1627.42 -2.96096 0.336354 0
M  V30 17779 H 1624.95 -1.46022 0.17772 0
M  V30 17780 H 1626.91 -3.63314 -2.05082 0
M  V30 17781 H 1625.54 -2.49186 -2.05197 0
M  V30 17782 H 1624.59 -3.80395 -0.0185964 0
M  V30 17783 H 1625.91 -4.98204 -0.243759 0
M  V30 17784 H 1625.06 -5.50991 -2.53957 0
M  V30 17785 H 1623.8 -4.25426 -2.38462 0
M  V30 17786 H 1622.8 -5.4809 -0.43328 0
M  V30 17787 H 1624.03 -6.76358 -0.609612 0
M  V30 17788 H 1621.97 -5.97401 -2.71013 0
M  V30 17789 H 1621.89 -7.36963 -1.68586 0
M  V30 17790 H 1623.16 -7.2479 -2.86879 0
M  V30 17791 N 1627.39 -0.19675 -1.56367 0
M  V30 17792 C 1628.64 0.440711 -1.97236 0
M  V30 17793 C 1628.96 1.62037 -1.08485 0
M  V30 17794 O 1628.23 1.95274 -0.156483 0
M  V30 17795 H 1626.81 0.16581 -0.728365 0
M  V30 17796 H 1629.47 -0.283867 -1.92822 0
M  V30 17797 H 1628.57 0.783731 -3.02099 0
M  V30 17798 N 1628.87 1.57413 0.0768405 0
M  V30 17799 C 1630.14 1.78056 0.809663 0
M  V30 17800 C 1630.52 0.783053 1.9604 0
M  V30 17801 O 1629.87 -0.184836 2.27751 0
M  V30 17802 C 1630.08 3.24391 1.2873 0
M  V30 17803 C 1631.43 3.88082 1.72272 0
M  V30 17804 O 1632.45 3.28251 1.38309 0
M  V30 17805 O 1631.31 4.93329 2.35135 0
M  V30 17806 H 1628.41 0.730553 0.387584 0
M  V30 17807 H 1630.95 1.69603 0.057307 0
M  V30 17808 H 1629.72 3.88543 0.463678 0
M  V30 17809 H 1629.35 3.37548 2.10112 0
M  V30 17810 N 1630.34 -0.348112 1.53707 0
M  V30 17811 C 1631.57 -1.11346 1.74976 0
M  V30 17812 C 1631.99 -1.81726 0.485525 0
M  V30 17813 O 1631.35 -1.72384 -0.561565 0
M  V30 17814 C 1631.4 -2.10611 2.92703 0
M  V30 17815 O 1630.5 -3.18042 2.62532 0
M  V30 17816 H 1629.85 -0.322247 0.580563 0
M  V30 17817 H 1632.38 -0.399898 2.00654 0
M  V30 17818 H 1632.39 -2.53912 3.19363 0
M  V30 17819 H 1631.06 -1.58782 3.84397 0
M  V30 17820 H 1629.64 -2.79591 2.46746 0
M  V30 17821 N 1631.82 -1.45363 -0.608876 0
M  V30 17822 C 1633.05 -1.53066 -1.39949 0
M  V30 17823 C 1633.47 -0.16369 -1.87386 0
M  V30 17824 O 1632.83 0.851432 -1.60064 0
M  V30 17825 C 1632.88 -2.51836 -2.58091 0
M  V30 17826 O 1631.98 -2.03528 -3.58678 0
M  V30 17827 H 1631.32 -0.516031 -0.417861 0
M  V30 17828 H 1633.85 -1.90705 -0.74113 0
M  V30 17829 H 1633.86 -2.706 -3.05352 0
M  V30 17830 H 1632.54 -3.51117 -2.22912 0
M  V30 17831 H 1631.12 -1.94634 -3.18075 0
M  V30 17832 N 1633.3 0.851265 -1.32632 0
M  V30 17833 C 1634.72 1.14 -1.11696 0
M  V30 17834 C 1634.92 2.0125 0.100327 0
M  V30 17835 O 1633.97 2.40013 0.784233 0
M  V30 17836 C 1635.29 1.81406 -2.39817 0
M  V30 17837 C 1636.83 1.94027 -2.45607 0
M  V30 17838 C 1637.31 2.64848 -3.73657 0
M  V30 17839 N 1638.8 2.7237 -3.74658 0
M  V30 17840 C 1639.53 3.27827 -4.70443 0
M  V30 17841 N 1639.03 3.84068 -5.76596 0
M  V30 17842 N 1640.82 3.25962 -4.57936 0
M  V30 17843 H 1632.97 0.270302 -2.10673 0
M  V30 17844 H 1635.24 0.182395 -0.930288 0
M  V30 17845 H 1634.94 1.24753 -3.28831 0
M  V30 17846 H 1634.82 2.81535 -2.51034 0
M  V30 17847 H 1637.2 2.49838 -1.5705 0
M  V30 17848 H 1637.29 0.928844 -2.3834 0
M  V30 17849 H 1636.93 2.09699 -4.62589 0
M  V30 17850 H 1636.86 3.66436 -3.78196 0
M  V30 17851 H 1639.35 2.32474 -2.97933 0
M  V30 17852 H 1639.66 4.24551 -6.45737 0
M  V30 17853 H 1638.01 3.82391 -5.80347 0
M  V30 17854 H 1641.2 2.81274 -3.74169 0
M  V30 17855 H 1641.37 3.68881 -5.32758 0
M  V30 17856 N 1634.78 1.15898 1.06796 0
M  V30 17857 C 1635.71 0.88395 2.16122 0
M  V30 17858 C 1636.69 -0.167708 1.69271 0
M  V30 17859 O 1637.87 -0.0208846 1.94189 0
M  V30 17860 C 1635 0.378656 3.4523 0
M  V30 17861 C 1633.96 1.36764 4.05561 0
M  V30 17862 C 1633.28 0.720956 5.29817 0
M  V30 17863 C 1634.58 2.73554 4.44933 0
M  V30 17864 H 1636.28 1.79818 2.39386 0
M  V30 17865 H 1633.82 0.866008 1.15049 0
M  V30 17866 H 1635.78 0.17376 4.21042 0
M  V30 17867 H 1634.5 -0.571063 3.21569 0
M  V30 17868 H 1633.16 1.55899 3.318 0
M  V30 17869 H 1632.81 -0.235089 5.0245 0
M  V30 17870 H 1632.51 1.38101 5.71141 0
M  V30 17871 H 1634.03 0.525963 6.0833 0
M  V30 17872 H 1635.45 2.58231 5.11849 0
M  V30 17873 H 1633.84 3.35986 4.97226 0
M  V30 17874 H 1634.91 3.29192 3.56034 0
M  V30 17875 N 1636.26 -1.25243 0.956659 0
M  V30 17876 C 1637.19 -2.28159 0.496574 0
M  V30 17877 C 1638.17 -1.63814 -0.458132 0
M  V30 17878 O 1639.35 -1.90897 -0.356648 0
M  V30 17879 C 1636.48 -3.46573 -0.22454 0
M  V30 17880 C 1635.44 -4.2311 0.645104 0
M  V30 17881 C 1634.76 -5.343 -0.206867 0
M  V30 17882 C 1636.06 -4.85562 1.92422 0
M  V30 17883 H 1637.76 -2.66895 1.35675 0
M  V30 17884 H 1635.3 -1.28301 0.653827 0
M  V30 17885 H 1637.26 -4.17695 -0.55755 0
M  V30 17886 H 1635.98 -3.06833 -1.11898 0
M  V30 17887 H 1634.64 -3.53774 0.961228 0
M  V30 17888 H 1634.29 -4.908 -1.10112 0
M  V30 17889 H 1633.99 -5.86423 0.371714 0
M  V30 17890 H 1635.51 -6.08253 -0.534798 0
M  V30 17891 H 1636.92 -5.48817 1.65749 0
M  V30 17892 H 1635.32 -5.47871 2.44862 0
M  V30 17893 H 1636.39 -4.07634 2.62607 0
M  V30 17894 N 1637.73 -0.725468 -1.3991 0
M  V30 17895 C 1638.68 -0.0792833 -2.30664 0
M  V30 17896 C 1639.65 0.73984 -1.48713 0
M  V30 17897 O 1640.84 0.701762 -1.77426 0
M  V30 17898 C 1637.98 0.829164 -3.34991 0
M  V30 17899 C 1637.09 -0.00154779 -4.32 0
M  V30 17900 C 1636.22 0.907291 -5.23394 0
M  V30 17901 C 1635.26 0.0712573 -6.12059 0
M  V30 17902 N 1634.4 0.935508 -6.9584 0
M  V30 17903 H 1639.24 -0.858869 -2.85355 0
M  V30 17904 H 1636.78 -0.435214 -1.40514 0
M  V30 17905 H 1638.74 1.37021 -3.94057 0
M  V30 17906 H 1637.37 1.57483 -2.81778 0
M  V30 17907 H 1636.42 -0.659903 -3.74632 0
M  V30 17908 H 1637.73 -0.648387 -4.94568 0
M  V30 17909 H 1636.88 1.51652 -5.87441 0
M  V30 17910 H 1635.62 1.58793 -4.61125 0
M  V30 17911 H 1634.63 -0.550844 -5.47034 0
M  V30 17912 H 1635.85 -0.606025 -6.76391 0
M  V30 17913 H 1633.8 1.60162 -6.36148 0
M  V30 17914 H 1633.72 0.344932 -7.55213 0
M  V30 17915 H 1634.98 1.53061 -7.64325 0
M  V30 17916 N 1639.21 1.50354 -0.472382 0
M  V30 17917 C 1640.18 2.27096 0.30981 0
M  V30 17918 C 1641.18 1.3193 0.919306 0
M  V30 17919 O 1642.37 1.55344 0.788284 0
M  V30 17920 C 1639.5 3.08924 1.44149 0
M  V30 17921 H 1640.69 2.97692 -0.363228 0
M  V30 17922 H 1638.24 1.5465 -0.226483 0
M  V30 17923 H 1638.98 2.42828 2.14954 0
M  V30 17924 H 1638.76 3.78862 1.01023 0
M  V30 17925 H 1640.25 3.66961 1.99323 0
M  V30 17926 N 1640.69 0.205039 1.56261 0
M  V30 17927 C 1641.62 -0.706815 2.22545 0
M  V30 17928 C 1642.6 -1.21372 1.19176 0
M  V30 17929 O 1643.79 -1.26074 1.47712 0
M  V30 17930 C 1640.92 -1.92221 2.89255 0
M  V30 17931 C 1639.87 -1.54982 3.98954 0
M  V30 17932 C 1639.2 -2.84265 4.52877 0
M  V30 17933 C 1640.5 -0.75225 5.16854 0
M  V30 17934 H 1642.19 -0.15421 2.99003 0
M  V30 17935 H 1639.74 -0.0727309 1.43816 0
M  V30 17936 H 1641.69 -2.56542 3.34311 0
M  V30 17937 H 1640.41 -2.49952 2.10218 0
M  V30 17938 H 1639.07 -0.930155 3.54604 0
M  V30 17939 H 1638.72 -3.40105 3.70591 0
M  V30 17940 H 1638.42 -2.60089 5.26904 0
M  V30 17941 H 1639.95 -3.49557 5.00642 0
M  V30 17942 H 1641.36 -1.29878 5.58395 0
M  V30 17943 H 1639.76 -0.60823 5.9701 0
M  V30 17944 H 1640.83 0.24463 4.84283 0
M  V30 17945 N 1642.17 -1.57451 -0.0684915 0
M  V30 17946 C 1643.58 -1.76107 -0.619932 0
M  V30 17947 C 1643.93 -0.830939 -1.77735 0
M  V30 17948 O 1643.06 -0.0158481 -2.16394 0
M  V30 17949 C 1643.65 -3.19352 -1.13136 0
M  V30 17950 C 1642.21 -3.39341 -1.62864 0
M  V30 17951 C 1641.36 -2.71801 -0.549477 0
M  V30 17952 H 1644.31 -1.57915 0.157689 0
M  V30 17953 H 1644.33 -3.23693 -2.00008 0
M  V30 17954 H 1643.84 -3.87024 -0.288762 0
M  V30 17955 H 1641.94 -2.76787 -2.49438 0
M  V30 17956 H 1642.06 -4.47799 -1.70331 0
M  V30 17957 H 1640.42 -2.34448 -0.995302 0
M  V30 17958 H 1641.2 -3.42132 0.282995 0
M  V30 17959 N 1643.65 0.339955 -1.5389 0
M  V30 17960 C 1644.58 1.42316 -1.85117 0
M  V30 17961 C 1645.56 1.5473 -0.706591 0
M  V30 17962 O 1646.74 1.68879 -0.958834 0
M  V30 17963 C 1643.87 2.79317 -2.06396 0
M  V30 17964 C 1642.83 2.81707 -3.22219 0
M  V30 17965 C 1642.15 4.21627 -3.28838 0
M  V30 17966 C 1643.45 2.46921 -4.60247 0
M  V30 17967 H 1645.15 1.16431 -2.75834 0
M  V30 17968 H 1642.69 0.558661 -1.32721 0
M  V30 17969 H 1644.65 3.55145 -2.26826 0
M  V30 17970 H 1643.37 3.06644 -1.12414 0
M  V30 17971 H 1642.03 2.08332 -3.01651 0
M  V30 17972 H 1641.68 4.4607 -2.32444 0
M  V30 17973 H 1641.38 4.24137 -4.06672 0
M  V30 17974 H 1642.9 4.99292 -3.51482 0
M  V30 17975 H 1644.32 3.12462 -4.80667 0
M  V30 17976 H 1642.71 2.60707 -5.40511 0
M  V30 17977 H 1643.78 1.421 -4.63611 0
M  V30 17978 N 1645.13 1.45684 0.601159 0
M  V30 17979 C 1646.07 1.54846 1.71147 0
M  V30 17980 C 1647.04 0.393914 1.61361 0
M  V30 17981 O 1648.23 0.608222 1.80846 0
M  V30 17982 C 1645.37 1.52723 3.09467 0
M  V30 17983 C 1644.48 2.78776 3.30012 0
M  V30 17984 C 1643.62 2.68281 4.58474 0
M  V30 17985 C 1642.65 3.89358 4.72299 0
M  V30 17986 N 1641.79 3.77359 5.92068 0
M  V30 17987 H 1646.63 2.49696 1.62653 0
M  V30 17988 H 1644.17 1.23894 0.793006 0
M  V30 17989 H 1646.13 1.49479 3.89502 0
M  V30 17990 H 1644.76 0.614189 3.16903 0
M  V30 17991 H 1643.81 2.9208 2.43708 0
M  V30 17992 H 1645.12 3.68563 3.36099 0
M  V30 17993 H 1644.27 2.63039 5.46713 0
M  V30 17994 H 1643.01 1.76103 4.54795 0
M  V30 17995 H 1642.02 3.94952 3.82482 0
M  V30 17996 H 1643.24 4.82609 4.77771 0
M  V30 17997 H 1641.19 2.87955 5.89422 0
M  V30 17998 H 1641.11 4.60786 5.99343 0
M  V30 17999 H 1642.37 3.76061 6.82787 0
M  V30 18000 N 1646.6 -0.84422 1.33082 0
M  V30 18001 C 1647.53 -1.96899 1.25511 0
M  V30 18002 C 1648.51 -1.69549 0.13677 0
M  V30 18003 O 1649.7 -1.9145 0.325667 0
M  V30 18004 C 1646.83 -3.32947 0.988094 0
M  V30 18005 C 1645.78 -3.7468 2.06879 0
M  V30 18006 C 1645.11 -5.08475 1.65401 0
M  V30 18007 C 1646.41 -3.89033 3.48498 0
M  V30 18008 H 1648.1 -2.03491 2.19617 0
M  V30 18009 H 1645.65 -0.977659 1.05725 0
M  V30 18010 H 1647.6 -4.11198 0.921645 0
M  V30 18011 H 1646.33 -3.26598 0.0114067 0
M  V30 18012 H 1644.99 -2.98689 2.12557 0
M  V30 18013 H 1644.63 -4.98592 0.66449 0
M  V30 18014 H 1644.33 -5.37368 2.37717 0
M  V30 18015 H 1645.86 -5.89207 1.60212 0
M  V30 18016 H 1647.27 -4.57609 3.4535 0
M  V30 18017 H 1645.67 -4.29357 4.19253 0
M  V30 18018 H 1646.74 -2.91639 3.87395 0
M  V30 18019 N 1648.08 -1.16463 -1.0618 0
M  V30 18020 C 1649.01 -0.829995 -2.13644 0
M  V30 18021 C 1650.03 0.16326 -1.61979 0
M  V30 18022 O 1651.22 -0.0616575 -1.78393 0
M  V30 18023 C 1648.32 -0.215222 -3.38216 0
M  V30 18024 C 1647.49 -1.24886 -4.19192 0
M  V30 18025 C 1646.55 -0.653683 -5.22124 0
M  V30 18026 O 1645.57 -1.32285 -5.53615 0
M  V30 18027 N 1646.78 0.559031 -5.77802 0
M  V30 18028 H 1649.54 -1.75487 -2.42949 0
M  V30 18029 H 1647.1 -1.06212 -1.22191 0
M  V30 18030 H 1649.09 0.196005 -4.04225 0
M  V30 18031 H 1647.66 0.613229 -3.06526 0
M  V30 18032 H 1646.88 -1.83622 -3.48822 0
M  V30 18033 H 1648.17 -1.94639 -4.70099 0
M  V30 18034 H 1647.57 1.12083 -5.54485 0
M  V30 18035 H 1646.13 0.912453 -6.45382 0
M  V30 18036 N 1649.56 1.24734 -0.963288 0
M  V30 18037 C 1650.49 2.24785 -0.447722 0
M  V30 18038 C 1651.5 1.5671 0.44113 0
M  V30 18039 O 1652.69 1.76769 0.248015 0
M  V30 18040 C 1649.79 3.36837 0.373368 0
M  V30 18041 C 1648.97 4.3448 -0.504532 0
M  V30 18042 C 1648.03 5.25558 0.25981 0
M  V30 18043 O 1647.05 5.68155 -0.344754 0
M  V30 18044 N 1648.25 5.59408 1.55058 0
M  V30 18045 H 1651.02 2.69654 -1.30792 0
M  V30 18046 H 1648.58 1.38729 -0.834614 0
M  V30 18047 H 1650.57 3.94733 0.892631 0
M  V30 18048 H 1649.14 2.91288 1.13447 0
M  V30 18049 H 1648.36 3.75337 -1.20481 0
M  V30 18050 H 1649.65 4.96691 -1.10343 0
M  V30 18051 H 1649.05 5.2672 2.06355 0
M  V30 18052 H 1647.6 6.19851 2.01563 0
M  V30 18053 N 1651.04 0.732878 1.39523 0
M  V30 18054 C 1652.27 0.29007 2.04857 0
M  V30 18055 C 1652.68 -1.07435 1.55252 0
M  V30 18056 O 1652.04 -1.67847 0.716497 0
M  V30 18057 C 1652.09 0.280464 3.6041 0
M  V30 18058 O 1651.81 1.59102 4.08189 0
M  V30 18059 C 1653.31 -0.178772 4.42939 0
M  V30 18060 H 1650.53 0.12716 0.658841 0
M  V30 18061 H 1653.07 0.995933 1.7861 0
M  V30 18062 H 1651.23 -0.376494 3.85566 0
M  V30 18063 H 1651.64 1.50314 5.025 0
M  V30 18064 H 1653.12 -0.134335 5.51837 0
M  V30 18065 H 1653.59 -1.22362 4.21811 0
M  V30 18066 H 1654.2 0.448543 4.22928 0
M  V30 18067 N 1652.52 -1.50101 0.480349 0
M  V30 18068 C 1653.48 -2.27258 -0.297763 0
M  V30 18069 C 1654.48 -1.32415 -0.912296 0
M  V30 18070 O 1655.67 -1.5576 -0.780035 0
M  V30 18071 C 1652.8 -3.09684 -1.42508 0
M  V30 18072 H 1653.99 -2.97495 0.379011 0
M  V30 18073 H 1651.55 -1.54528 0.234681 0
M  V30 18074 H 1652.28 -2.43964 -2.13663 0
M  V30 18075 H 1652.07 -3.79393 -0.990125 0
M  V30 18076 H 1653.56 -3.68013 -1.97374 0
M  V30 18077 N 1653.99 -0.213323 -1.5615 0
M  V30 18078 C 1655.24 0.420598 -1.98084 0
M  V30 18079 C 1655.57 1.60355 -1.10075 0
M  V30 18080 O 1654.82 1.95171 -0.143848 0
M  V30 18081 C 1655.12 0.905764 -3.45732 0
M  V30 18082 C 1654.79 -0.165778 -4.50595 0
M  V30 18083 C 1653.45 -0.460161 -4.78995 0
M  V30 18084 C 1655.8 -0.890891 -5.1353 0
M  V30 18085 C 1653.13 -1.48432 -5.67613 0
M  V30 18086 C 1655.48 -1.90433 -6.03256 0
M  V30 18087 C 1654.15 -2.20572 -6.30004 0
M  V30 18088 H 1653.42 0.153908 -0.72484 0
M  V30 18089 H 1656.06 -0.314117 -1.88906 0
M  V30 18090 H 1654.37 1.71909 -3.52072 0
M  V30 18091 H 1656.07 1.40596 -3.75545 0
M  V30 18092 H 1652.66 0.0738261 -4.28536 0
M  V30 18093 H 1656.84 -0.676696 -4.91665 0
M  V30 18094 H 1652.1 -1.72354 -5.86604 0
M  V30 18095 H 1656.27 -2.47131 -6.51075 0
M  V30 18096 H 1653.9 -3.00074 -6.9847 0
M  V30 18097 N 1655.47 1.57485 0.0601405 0
M  V30 18098 C 1656.38 2.07853 1.08785 0
M  V30 18099 C 1657.4 1.01047 1.41653 0
M  V30 18100 O 1658.57 1.32592 1.51596 0
M  V30 18101 C 1655.64 2.52214 2.37885 0
M  V30 18102 C 1654.7 3.73369 2.11882 0
M  V30 18103 C 1653.93 4.15604 3.34827 0
M  V30 18104 O 1654.16 3.5761 4.44377 0
M  V30 18105 O 1653.09 5.08303 3.22353 0
M  V30 18106 H 1656.92 2.9576 0.689912 0
M  V30 18107 H 1654.5 1.46846 0.275065 0
M  V30 18108 H 1656.38 2.81216 3.1384 0
M  V30 18109 H 1655.06 1.67432 2.77035 0
M  V30 18110 H 1653.97 3.49433 1.33594 0
M  V30 18111 H 1655.3 4.59039 1.77606 0
M  V30 18112 N 1656.95 -0.331789 1.54068 0
M  V30 18113 C 1657.9 -1.42815 1.83593 0
M  V30 18114 C 1658.89 -1.53931 0.707231 0
M  V30 18115 O 1660.1 -1.56414 0.890763 0
M  V30 18116 H 1656.47 -0.476418 0.581833 0
M  V30 18117 H 1658.44 -1.15133 2.75294 0
M  V30 18118 C 1657.19 -2.79162 2.07277 0
M  V30 18119 H 1656.52 -2.7138 2.93586 0
M  V30 18120 H 1657.96 -3.54966 2.31895 0
M  V30 18121 C 1656.42 -3.25691 0.861816 0
M  V30 18122 O 1656.95 -4.01644 0.0670133 0
M  V30 18123 N 1655.15 -2.82634 0.675746 0
M  V30 18124 H 1654.7 -2.20988 1.32371 0
M  V30 18125 H 1654.66 -3.14119 -0.133004 0
M  V30 18126 N 1658.43 -1.46001 -0.593424 0
M  V30 18127 C 1659.39 -1.55347 -1.68523 0
M  V30 18128 C 1660.39 -0.431599 -1.549 0
M  V30 18129 O 1661.58 -0.695559 -1.59711 0
M  V30 18130 C 1658.71 -1.46355 -3.07885 0
M  V30 18131 H 1659.91 -2.52639 -1.61597 0
M  V30 18132 H 1657.46 -1.33652 -0.810363 0
M  V30 18133 H 1658.19 -0.503024 -3.20375 0
M  V30 18134 H 1657.98 -2.27741 -3.19181 0
M  V30 18135 H 1659.47 -1.55958 -3.87385 0
M  V30 18136 N 1659.91 0.83715 -1.33527 0
M  V30 18137 C 1661.14 1.6222 -1.27938 0
M  V30 18138 C 1661.54 1.88592 0.151584 0
M  V30 18139 O 1660.89 1.46772 1.1047 0
M  V30 18140 C 1660.95 2.99561 -1.98754 0
M  V30 18141 C 1660.61 2.96152 -3.48056 0
M  V30 18142 C 1661.61 2.71745 -4.43227 0
M  V30 18143 C 1659.3 3.16233 -3.90259 0
M  V30 18144 C 1661.29 2.67451 -5.78575 0
M  V30 18145 C 1658.98 3.11564 -5.2571 0
M  V30 18146 C 1659.97 2.87204 -6.1968 0
M  V30 18147 O 1659.66 2.82441 -7.5265 0
M  V30 18148 H 1659.39 0.511419 -0.442071 0
M  V30 18149 H 1661.95 1.05075 -1.76489 0
M  V30 18150 H 1660.18 3.58568 -1.44797 0
M  V30 18151 H 1661.87 3.60444 -1.86642 0
M  V30 18152 H 1662.63 2.5598 -4.11946 0
M  V30 18153 H 1658.51 3.34214 -3.17525 0
M  V30 18154 H 1662.06 2.48356 -6.51893 0
M  V30 18155 H 1657.95 3.26879 -5.56615 0
M  V30 18156 H 1658.72 2.98271 -7.62218 0
M  V30 18157 N 1661.38 1.17024 1.05561 0
M  V30 18158 C 1662.31 0.906823 2.15172 0
M  V30 18159 C 1663.3 -0.149745 1.6944 0
M  V30 18160 O 1664.48 -0.000287092 1.942 0
M  V30 18161 C 1661.61 0.415251 3.44809 0
M  V30 18162 C 1660.56 1.41058 4.04088 0
M  V30 18163 C 1659.89 0.777109 5.29023 0
M  V30 18164 C 1661.19 2.78258 4.42007 0
M  V30 18165 H 1662.88 1.82347 2.37466 0
M  V30 18166 H 1660.43 0.878162 1.14124 0
M  V30 18167 H 1662.38 0.218407 4.20834 0
M  V30 18168 H 1661.11 -0.536924 3.22156 0
M  V30 18169 H 1659.77 1.5941 3.30127 0
M  V30 18170 H 1659.41 -0.181784 5.02671 0
M  V30 18171 H 1659.11 1.44151 5.69644 0
M  V30 18172 H 1660.64 0.590455 6.07738 0
M  V30 18173 H 1662.05 2.63645 5.09082 0
M  V30 18174 H 1660.45 3.41241 4.93634 0
M  V30 18175 H 1661.52 3.3295 3.52523 0
M  V30 18176 N 1662.86 -1.24221 0.969889 0
M  V30 18177 C 1663.81 -2.25292 0.501215 0
M  V30 18178 C 1664.78 -1.59764 -0.454382 0
M  V30 18179 O 1665.96 -1.87291 -0.364261 0
M  V30 18180 C 1663.1 -3.44518 -0.200361 0
M  V30 18181 C 1662.22 -4.24636 0.79426 0
M  V30 18182 C 1661.35 -5.31156 0.068568 0
M  V30 18183 C 1660.39 -6.02973 1.05311 0
M  V30 18184 N 1659.53 -7.0119 0.357274 0
M  V30 18185 H 1664.37 -2.64749 1.36792 0
M  V30 18186 H 1661.91 -1.30142 0.685673 0
M  V30 18187 H 1663.86 -4.1251 -0.623833 0
M  V30 18188 H 1662.49 -3.05892 -1.03101 0
M  V30 18189 H 1661.55 -3.56161 1.33616 0
M  V30 18190 H 1662.86 -4.74271 1.54493 0
M  V30 18191 H 1662.01 -6.05294 -0.412792 0
M  V30 18192 H 1660.75 -4.82434 -0.714781 0
M  V30 18193 H 1659.76 -5.27636 1.54532 0
M  V30 18194 H 1660.98 -6.53784 1.83694 0
M  V30 18195 H 1658.93 -6.54736 -0.407059 0
M  V30 18196 H 1658.84 -7.48718 1.04677 0
M  V30 18197 H 1660.11 -7.79433 -0.102045 0
M  V30 18198 N 1664.34 -0.740267 -1.39132 0
M  V30 18199 C 1665.3 -0.112183 -2.28925 0
M  V30 18200 C 1666.3 0.661598 -1.46559 0
M  V30 18201 O 1667.49 0.489835 -1.67171 0
M  V30 18202 C 1664.63 0.850121 -3.3013 0
M  V30 18203 H 1665.82 -0.903339 -2.85972 0
M  V30 18204 H 1663.37 -0.506427 -1.47868 0
M  V30 18205 H 1664.11 1.66744 -2.78149 0
M  V30 18206 H 1663.89 0.297847 -3.90967 0
M  V30 18207 H 1665.38 1.28599 -3.97306 0
M  V30 18208 N 1665.82 1.49844 -0.488302 0
M  V30 18209 C 1666.75 2.26762 0.333396 0
M  V30 18210 C 1667.76 1.32785 0.941918 0
M  V30 18211 O 1668.95 1.58165 0.827407 0
M  V30 18212 C 1666.05 3.04721 1.48318 0
M  V30 18213 C 1665.23 4.26181 0.984303 0
M  V30 18214 C 1664.28 4.8629 2.01018 0
M  V30 18215 O 1663.31 5.4672 1.58384 0
M  V30 18216 N 1664.51 4.74813 3.33965 0
M  V30 18217 H 1667.28 2.97921 -0.32609 0
M  V30 18218 H 1664.84 1.58704 -0.320092 0
M  V30 18219 H 1666.83 3.4181 2.16676 0
M  V30 18220 H 1665.4 2.36251 2.04705 0
M  V30 18221 H 1664.62 3.93998 0.126039 0
M  V30 18222 H 1665.91 5.04895 0.62919 0
M  V30 18223 H 1665.31 4.26793 3.71301 0
M  V30 18224 H 1663.86 5.16122 3.98072 0
M  V30 18225 N 1667.3 0.221601 1.56034 0
M  V30 18226 C 1668.21 -0.699837 2.23918 0
M  V30 18227 C 1669.22 -1.21367 1.24683 0
M  V30 18228 O 1670.4 -1.25527 1.57495 0
M  V30 18229 C 1667.46 -1.89107 2.90585 0
M  V30 18230 C 1666.52 -1.4192 4.05163 0
M  V30 18231 C 1665.76 -2.55365 4.68641 0
M  V30 18232 O 1665.98 -3.735 4.31108 0
M  V30 18233 O 1664.91 -2.26564 5.57631 0
M  V30 18234 H 1668.74 -0.151552 3.03322 0
M  V30 18235 H 1666.33 -0.0088482 1.49397 0
M  V30 18236 H 1668.21 -2.58674 3.32664 0
M  V30 18237 H 1666.88 -2.42745 2.14141 0
M  V30 18238 H 1665.79 -0.691536 3.67653 0
M  V30 18239 H 1667.12 -0.929189 4.8335 0
M  V30 18240 N 1668.77 -1.57515 -0.0517878 0
M  V30 18241 C 1670.02 -1.87843 -0.745624 0
M  V30 18242 C 1670.34 -0.816318 -1.77091 0
M  V30 18243 O 1669.61 0.152784 -1.95303 0
M  V30 18244 H 1668.19 -0.693194 -0.278372 0
M  V30 18245 H 1670.86 -1.94886 -0.0231267 0
M  V30 18246 H 1669.95 -2.86001 -1.2494 0
M  V30 18247 N 1670.25 0.323614 -1.54242 0
M  V30 18248 C 1671.19 1.42211 -1.78469 0
M  V30 18249 C 1672.16 1.49702 -0.634671 0
M  V30 18250 O 1673.35 1.67113 -0.872103 0
M  V30 18251 C 1670.48 2.80306 -1.90121 0
M  V30 18252 C 1669.52 2.90347 -3.12411 0
M  V30 18253 S 1670.35 2.54761 -4.71017 0
M  V30 18254 C 1671.51 3.94928 -4.85575 0
M  V30 18255 H 1671.74 1.21447 -2.71363 0
M  V30 18256 H 1669.28 0.520446 -1.45364 0
M  V30 18257 H 1671.23 3.59856 -1.97519 0
M  V30 18258 H 1669.9 2.98353 -0.982048 0
M  V30 18259 H 1669.09 3.91584 -3.17298 0
M  V30 18260 H 1668.69 2.18769 -3.03342 0
M  V30 18261 H 1670.98 4.8968 -4.68209 0
M  V30 18262 H 1671.93 3.95024 -5.87675 0
M  V30 18263 H 1672.33 3.8388 -4.1388 0
M  V30 18264 N 1671.73 1.46313 0.585673 0
M  V30 18265 C 1673.15 1.31203 0.908733 0
M  V30 18266 C 1673.35 0.281265 1.99527 0
M  V30 18267 O 1672.4 -0.317202 2.505 0
M  V30 18268 C 1673.72 2.69742 1.3289 0
M  V30 18269 C 1675.26 2.77809 1.44191 0
M  V30 18270 C 1675.74 4.16924 1.89574 0
M  V30 18271 N 1677.23 4.19327 1.96773 0
M  V30 18272 C 1677.97 5.23856 2.33157 0
M  V30 18273 N 1677.46 6.38716 2.68355 0
M  V30 18274 N 1679.25 5.11221 2.33686 0
M  V30 18275 H 1671.41 2.11989 -0.132126 0
M  V30 18276 H 1673.67 0.947993 0.00355835 0
M  V30 18277 H 1673.37 3.46465 0.604557 0
M  V30 18278 H 1673.25 2.99653 2.29102 0
M  V30 18279 H 1675.64 2.01377 2.15712 0
M  V30 18280 H 1675.72 2.51587 0.46237 0
M  V30 18281 H 1675.36 4.93851 1.18633 0
M  V30 18282 H 1675.29 4.40552 2.88481 0
M  V30 18283 H 1677.78 3.36451 1.72073 0
M  V30 18284 H 1678.09 7.14253 2.95063 0
M  V30 18285 H 1676.44 6.42082 2.66 0
M  V30 18286 H 1679.63 4.20527 2.05609 0
M  V30 18287 H 1679.8 5.92798 2.61714 0
M  V30 18288 N 1673.21 -0.830057 1.33969 0
M  V30 18289 C 1674.12 -1.97244 1.27012 0
M  V30 18290 C 1675.14 -1.73076 0.179075 0
M  V30 18291 O 1676.31 -1.97301 0.404262 0
M  V30 18292 C 1673.38 -3.31409 1.01827 0
M  V30 18293 C 1672.44 -3.68633 2.20018 0
M  V30 18294 C 1671.67 -4.96397 1.96025 0
M  V30 18295 O 1671.89 -5.63014 0.91494 0
M  V30 18296 O 1670.83 -5.31331 2.82791 0
M  V30 18297 H 1674.65 -2.06056 2.23103 0
M  V30 18298 H 1672.24 -0.964399 1.14104 0
M  V30 18299 H 1674.12 -4.11779 0.895337 0
M  V30 18300 H 1672.8 -3.23581 0.0877091 0
M  V30 18301 H 1671.7 -2.88738 2.37869 0
M  V30 18302 H 1673.04 -3.81138 3.11439 0
M  V30 18303 N 1674.69 -1.17582 -1.04939 0
M  V30 18304 C 1675.62 -0.838287 -2.12245 0
M  V30 18305 C 1676.6 0.196015 -1.61414 0
M  V30 18306 O 1677.78 0.0769706 -1.88343 0
M  V30 18307 C 1674.91 -0.250934 -3.37769 0
M  V30 18308 C 1673.96 -1.26103 -4.07431 0
M  V30 18309 S 1674.79 -2.81338 -4.55641 0
M  V30 18310 C 1675.94 -2.2409 -5.8441 0
M  V30 18311 H 1676.18 -1.74709 -2.40549 0
M  V30 18312 H 1673.71 -1.00075 -1.17577 0
M  V30 18313 H 1675.67 0.0814566 -4.10419 0
M  V30 18314 H 1674.33 0.635851 -3.07597 0
M  V30 18315 H 1673.52 -0.798761 -4.9763 0
M  V30 18316 H 1673.12 -1.5392 -3.40859 0
M  V30 18317 H 1675.42 -1.61804 -6.57895 0
M  V30 18318 H 1676.36 -3.12554 -6.35386 0
M  V30 18319 H 1676.77 -1.67444 -5.39094 0
M  V30 18320 N 1676.17 1.23705 -0.976463 0
M  V30 18321 C 1677.39 1.96595 -0.660697 0
M  V30 18322 C 1677.82 1.71845 0.764916 0
M  V30 18323 O 1677.17 0.987506 1.52046 0
M  V30 18324 C 1677.22 3.47803 -0.95214 0
M  V30 18325 O 1676.33 4.12378 -0.0421126 0
M  V30 18326 H 1675.67 0.615591 -0.248886 0
M  V30 18327 H 1678.2 1.57247 -1.30899 0
M  V30 18328 H 1678.21 3.98236 -0.887238 0
M  V30 18329 H 1676.88 3.65144 -1.99105 0
M  V30 18330 H 1675.46 3.72552 -0.161087 0
M  V30 18331 N 1677.64 0.747635 1.38738 0
M  V30 18332 C 1678.59 0.0917864 2.27815 0
M  V30 18333 C 1679.58 -0.699471 1.44901 0
M  V30 18334 O 1680.77 -0.566404 1.67693 0
M  V30 18335 C 1677.9 -0.805131 3.33725 0
M  V30 18336 C 1676.98 -0.00734503 4.24099 0
M  V30 18337 N 1677.38 1.02602 4.95284 0
M  V30 18338 C 1675.67 -0.235075 4.4538 0
M  V30 18339 C 1676.37 1.50818 5.61808 0
M  V30 18340 N 1675.35 0.824534 5.3731 0
M  V30 18341 H 1679.15 0.883313 2.80312 0
M  V30 18342 H 1676.67 0.583125 1.5157 0
M  V30 18343 H 1678.66 -1.29056 3.96422 0
M  V30 18344 H 1677.32 -1.59568 2.82787 0
M  V30 18345 H 1678.33 1.40768 4.98402 0
M  V30 18346 H 1675.01 -0.99943 4.05361 0
M  V30 18347 H 1676.4 2.36862 6.28766 0
M  V30 18348 N 1679.12 -1.49583 0.496242 0
M  V30 18349 C 1680.35 -2.07342 -0.0490986 0
M  V30 18350 C 1680.77 -1.35474 -1.30493 0
M  V30 18351 O 1680.13 -0.410005 -1.76603 0
M  V30 18352 C 1680.18 -3.59427 -0.290601 0
M  V30 18353 O 1679.28 -3.89111 -1.36626 0
M  V30 18354 H 1678.62 -0.663562 0.0241141 0
M  V30 18355 H 1681.15 -1.92452 0.6945 0
M  V30 18356 H 1681.16 -4.04627 -0.523549 0
M  V30 18357 H 1679.84 -4.11147 0.626959 0
M  V30 18358 H 1678.41 -3.55726 -1.11864 0
M  V30 18359 N 1680.6 -0.229873 -1.55915 0
M  V30 18360 C 1681.56 0.663347 -2.19391 0
M  V30 18361 C 1682.56 1.11548 -1.15818 0
M  V30 18362 O 1683.75 1.02294 -1.41002 0
M  V30 18363 C 1680.88 1.9097 -2.82389 0
M  V30 18364 H 1682.08 0.109797 -2.99699 0
M  V30 18365 H 1679.63 0.0197234 -1.56288 0
M  V30 18366 H 1680.37 2.50491 -2.05973 0
M  V30 18367 H 1680.15 1.59388 -3.58243 0
M  V30 18368 H 1681.64 2.5459 -3.31019 0
M  V30 18369 N 1682.08 1.5754 0.0434337 0
M  V30 18370 C 1682.99 2.08996 1.06574 0
M  V30 18371 C 1684 1.02544 1.40573 0
M  V30 18372 O 1685.18 1.34192 1.50181 0
M  V30 18373 C 1682.24 2.54723 2.35196 0
M  V30 18374 C 1681.31 3.75595 2.0791 0
M  V30 18375 C 1680.54 4.19132 3.304 0
M  V30 18376 O 1680.76 3.62303 4.40559 0
M  V30 18377 O 1679.7 5.11694 3.16944 0
M  V30 18378 H 1683.52 2.96475 0.658503 0
M  V30 18379 H 1681.11 1.47129 0.259475 0
M  V30 18380 H 1682.99 2.84529 3.1084 0
M  V30 18381 H 1681.66 1.70361 2.75243 0
M  V30 18382 H 1680.57 3.5083 1.2988 0
M  V30 18383 H 1681.9 4.60897 1.72727 0
M  V30 18384 N 1683.56 -0.31543 1.54411 0
M  V30 18385 C 1684.5 -1.4086 1.85098 0
M  V30 18386 C 1685.5 -1.53172 0.723518 0
M  V30 18387 O 1686.7 -1.55461 0.907303 0
M  V30 18388 H 1683.08 -0.47022 0.586853 0
M  V30 18389 H 1685.05 -1.12207 2.765 0
M  V30 18390 C 1683.8 -2.76948 2.10227 0
M  V30 18391 H 1683.12 -2.68251 2.96448 0
M  V30 18392 H 1684.56 -3.52486 2.35647 0
M  V30 18393 C 1683.02 -3.24758 0.896312 0
M  V30 18394 O 1683.55 -4.0155 0.109609 0
M  V30 18395 N 1681.76 -2.81901 0.705685 0
M  V30 18396 H 1681.3 -2.19571 1.34708 0
M  V30 18397 H 1681.26 -3.14242 -0.0996804 0
M  V30 18398 N 1685.03 -1.46622 -0.577906 0
M  V30 18399 C 1686.45 -1.46287 -1.16004 0
M  V30 18400 C 1686.8 -0.206307 -1.95112 0
M  V30 18401 O 1685.92 0.690275 -2.05096 0
M  V30 18402 C 1686.52 -2.65042 -2.1104 0
M  V30 18403 C 1685.08 -2.67733 -2.64567 0
M  V30 18404 C 1684.22 -2.39053 -1.40531 0
M  V30 18405 H 1687.17 -1.54432 -0.365585 0
M  V30 18406 H 1687.19 -2.40834 -2.94583 0
M  V30 18407 H 1686.71 -3.56481 -1.53436 0
M  V30 18408 H 1684.81 -1.80379 -3.26028 0
M  V30 18409 H 1684.92 -3.67836 -3.06974 0
M  V30 18410 H 1683.28 -1.89209 -1.70506 0
M  V30 18411 H 1684.07 -3.32674 -0.847509 0
M  V30 18412 N 1686.51 0.822941 -1.34408 0
M  V30 18413 C 1687.42 1.96567 -1.28056 0
M  V30 18414 C 1688.44 1.72979 -0.188251 0
M  V30 18415 O 1689.61 1.97084 -0.41472 0
M  V30 18416 C 1686.68 3.30865 -1.03583 0
M  V30 18417 C 1685.74 3.67461 -2.2197 0
M  V30 18418 C 1684.97 4.9535 -1.98655 0
M  V30 18419 O 1685.2 5.62521 -0.944785 0
M  V30 18420 O 1684.13 5.29824 -2.85605 0
M  V30 18421 H 1687.96 2.0487 -2.24192 0
M  V30 18422 H 1685.54 0.958334 -1.14614 0
M  V30 18423 H 1687.42 4.11298 -0.917162 0
M  V30 18424 H 1686.1 3.2353 -0.104868 0
M  V30 18425 H 1685.01 2.87472 -2.39396 0
M  V30 18426 H 1686.34 3.79481 -3.13456 0
M  V30 18427 N 1687.99 1.18137 1.04314 0
M  V30 18428 C 1689.22 1.00002 1.81128 0
M  V30 18429 C 1689.63 -0.451609 1.83319 0
M  V30 18430 O 1688.99 -1.31367 1.26685 0
M  V30 18431 C 1689.04 1.54454 3.26843 0
M  V30 18432 O 1688.76 2.93933 3.24861 0
M  V30 18433 C 1690.26 1.40902 4.20311 0
M  V30 18434 H 1687.48 0.35327 0.570475 0
M  V30 18435 H 1690.03 1.56629 1.31482 0
M  V30 18436 H 1688.18 1.02009 3.73728 0
M  V30 18437 H 1688.6 3.19279 4.16127 0
M  V30 18438 H 1690.07 1.83803 5.205 0
M  V30 18439 H 1690.55 0.357371 4.37744 0
M  V30 18440 H 1691.15 1.92407 3.79288 0
M  V30 18441 N 1689.47 -1.23186 0.98301 0
M  V30 18442 C 1690.4 -2.27054 0.544858 0
M  V30 18443 C 1691.38 -1.64749 -0.423281 0
M  V30 18444 O 1692.56 -1.91611 -0.316075 0
M  V30 18445 C 1689.69 -3.46972 -0.150976 0
M  V30 18446 C 1688.65 -4.21647 0.734707 0
M  V30 18447 C 1687.97 -5.34618 -0.0934874 0
M  V30 18448 C 1689.27 -4.81372 2.02679 0
M  V30 18449 H 1690.97 -2.63957 1.41305 0
M  V30 18450 H 1688.51 -1.26885 0.680895 0
M  V30 18451 H 1690.47 -4.18784 -0.468825 0
M  V30 18452 H 1689.19 -3.09137 -1.05364 0
M  V30 18453 H 1687.85 -3.51655 1.03605 0
M  V30 18454 H 1687.5 -4.93025 -0.996768 0
M  V30 18455 H 1687.2 -5.85503 0.496019 0
M  V30 18456 H 1688.72 -6.09251 -0.405658 0
M  V30 18457 H 1690.14 -5.45178 1.77353 0
M  V30 18458 H 1688.53 -5.42554 2.56429 0
M  V30 18459 H 1689.6 -4.01972 2.71194 0
M  V30 18460 N 1690.95 -0.754982 -1.38339 0
M  V30 18461 C 1692.22 -0.237208 -1.94156 0
M  V30 18462 C 1692.6 1.26479 -1.69016 0
M  V30 18463 O 1691.95 2.03995 -1.02948 0
M  V30 18464 C 1692.16 -0.592412 -3.43935 0
M  V30 18465 C 1693.51 -0.552832 -4.20986 0
M  V30 18466 O 1694.53 -0.530789 -3.52223 0
M  V30 18467 O 1693.39 -0.565006 -5.43571 0
M  V30 18468 H 1690.49 -0.0500619 -0.825483 0
M  V30 18469 H 1693.03 -0.835199 -1.47724 0
M  V30 18470 H 1691.8 -1.62969 -3.55748 0
M  V30 18471 H 1691.43 0.0335119 -3.97586 0
M  V30 18472 N 1692.42 1.49318 -0.504168 0
M  V30 18473 C 1693.33 2.32958 0.277053 0
M  V30 18474 C 1694.35 1.44838 0.964266 0
M  V30 18475 O 1695.53 1.77856 0.944947 0
M  V30 18476 C 1692.59 3.20352 1.32572 0
M  V30 18477 C 1691.65 4.24326 0.651606 0
M  V30 18478 C 1690.89 5.07544 1.65031 0
M  V30 18479 O 1691.11 4.92326 2.88047 0
M  V30 18480 O 1690.04 5.89737 1.20388 0
M  V30 18481 H 1693.87 3.00952 -0.40763 0
M  V30 18482 H 1691.45 1.47023 -0.265453 0
M  V30 18483 H 1693.34 3.74483 1.93237 0
M  V30 18484 H 1692.01 2.5505 1.99327 0
M  V30 18485 H 1690.92 3.741 0.00513384 0
M  V30 18486 H 1692.25 4.92193 0.0264424 0
M  V30 18487 N 1693.9 0.238138 1.5579 0
M  V30 18488 C 1695.15 -0.389474 1.97904 0
M  V30 18489 C 1695.46 -1.59707 1.1293 0
M  V30 18490 O 1696.67 -2.29526 1.45017 0
M  V30 18491 C 1695.13 -0.744319 3.52119 0
M  V30 18492 C 1694.73 0.441387 4.4582 0
M  V30 18493 C 1696.48 -1.33661 4.02908 0
M  V30 18494 C 1694.39 0.063184 5.91366 0
M  V30 18495 H 1693.32 -0.149291 0.739072 0
M  V30 18496 H 1695.97 0.336972 1.80379 0
M  V30 18497 H 1694.35 -1.52865 3.65306 0
M  V30 18498 H 1695.52 1.21881 4.44389 0
M  V30 18499 H 1693.84 0.948017 4.05465 0
M  V30 18500 H 1696.43 -1.63276 5.09161 0
M  V30 18501 H 1696.78 -2.2581 3.49737 0
M  V30 18502 H 1697.31 -0.615366 3.93012 0
M  V30 18503 H 1694.05 0.951584 6.48556 0
M  V30 18504 H 1693.57 -0.678216 5.95953 0
M  V30 18505 H 1695.25 -0.357712 6.4601 0
M  V30 18506 N 1695.38 -1.57561 -0.0350783 0
M  V30 18507 C 1696.61 -1.92971 -0.737958 0
M  V30 18508 C 1697.02 -0.835771 -1.6974 0
M  V30 18509 O 1696.36 0.19703 -1.8264 0
M  V30 18510 C 1696.42 -3.24138 -1.55482 0
M  V30 18511 C 1696.09 -4.50622 -0.760818 0
M  V30 18512 C 1697.08 -5.19861 -0.0637364 0
M  V30 18513 C 1694.77 -4.97154 -0.717134 0
M  V30 18514 C 1696.76 -6.33907 0.666395 0
M  V30 18515 C 1694.45 -6.11098 0.0167462 0
M  V30 18516 C 1695.45 -6.79328 0.707276 0
M  V30 18517 O 1695.14 -7.91093 1.42925 0
M  V30 18518 H 1694.87 -0.641628 -0.212814 0
M  V30 18519 H 1697.42 -2.054 0.00152065 0
M  V30 18520 H 1695.65 -3.08019 -2.33798 0
M  V30 18521 H 1697.34 -3.44919 -2.13976 0
M  V30 18522 H 1698.11 -4.84919 -0.0885544 0
M  V30 18523 H 1693.99 -4.43895 -1.24411 0
M  V30 18524 H 1697.53 -6.87098 1.20592 0
M  V30 18525 H 1693.43 -6.45485 0.0435085 0
M  V30 18526 H 1694.2 -8.07418 1.34231 0
M  V30 18527 N 1696.86 0.307236 -1.54576 0
M  V30 18528 C 1697.81 1.39877 -1.85842 0
M  V30 18529 C 1698.8 1.52786 -0.73163 0
M  V30 18530 O 1700.01 1.54977 -0.915534 0
M  V30 18531 H 1696.38 0.467101 -0.589339 0
M  V30 18532 H 1698.35 1.10739 -2.77091 0
M  V30 18533 C 1697.1 2.75829 -2.11692 0
M  V30 18534 H 1696.42 2.66675 -2.97867 0
M  V30 18535 H 1697.86 3.51232 -2.37513 0
M  V30 18536 C 1696.32 3.24278 -0.913522 0
M  V30 18537 O 1696.85 4.01487 -0.130903 0
M  V30 18538 N 1695.06 2.81523 -0.720625 0
M  V30 18539 H 1694.61 2.18854 -1.3587 0
M  V30 18540 H 1694.56 3.1429 0.083014 0
M  V30 18541 N 1698.34 1.46926 0.570122 0
M  V30 18542 C 1699.75 1.32159 0.894766 0
M  V30 18543 C 1699.95 0.302411 1.99218 0
M  V30 18544 O 1699.01 -0.290615 2.50822 0
M  V30 18545 C 1700.32 2.71136 1.30021 0
M  V30 18546 C 1701.87 2.79323 1.41236 0
M  V30 18547 C 1702.34 4.18911 1.85142 0
M  V30 18548 N 1703.84 4.2139 1.92314 0
M  V30 18549 C 1704.57 5.263 2.27588 0
M  V30 18550 N 1704.07 6.41526 2.61565 0
M  V30 18551 N 1705.86 5.13671 2.28251 0
M  V30 18552 H 1698.01 2.11837 -0.154603 0
M  V30 18553 H 1700.27 0.947978 -0.00649658 0
M  V30 18554 H 1699.98 3.47087 0.567775 0
M  V30 18555 H 1699.85 3.02066 2.25911 0
M  V30 18556 H 1702.24 2.03653 2.13564 0
M  V30 18557 H 1702.32 2.52063 0.43566 0
M  V30 18558 H 1701.97 4.95081 1.13389 0
M  V30 18559 H 1701.9 4.43587 2.83792 0
M  V30 18560 H 1704.39 3.38257 1.68495 0
M  V30 18561 H 1704.7 7.17343 2.8747 0
M  V30 18562 H 1703.04 6.44867 2.59175 0
M  V30 18563 H 1706.24 4.22684 2.01137 0
M  V30 18564 H 1706.41 5.95541 2.55412 0
M  V30 18565 N 1699.82 -0.815801 1.34842 0
M  V30 18566 C 1700.76 -1.92713 1.27006 0
M  V30 18567 C 1701.73 -1.65476 0.143838 0
M  V30 18568 O 1702.92 -1.87994 0.326007 0
M  V30 18569 C 1700.06 -3.29099 1.03863 0
M  V30 18570 C 1699.17 -3.68583 2.25324 0
M  V30 18571 C 1698.31 -4.93953 1.95407 0
M  V30 18572 C 1697.34 -5.26037 3.12971 0
M  V30 18573 N 1696.48 -6.42586 2.82891 0
M  V30 18574 H 1701.32 -1.98747 2.22044 0
M  V30 18575 H 1698.86 -0.972265 1.10388 0
M  V30 18576 H 1700.82 -4.07709 0.884809 0
M  V30 18577 H 1699.45 -3.22558 0.124911 0
M  V30 18578 H 1698.5 -2.85307 2.51603 0
M  V30 18579 H 1699.81 -3.88259 3.1314 0
M  V30 18580 H 1698.96 -5.80367 1.76801 0
M  V30 18581 H 1697.7 -4.76293 1.04862 0
M  V30 18582 H 1696.71 -4.38117 3.32165 0
M  V30 18583 H 1697.93 -5.45632 4.04305 0
M  V30 18584 H 1695.88 -6.26369 1.9493 0
M  V30 18585 H 1695.8 -6.62469 3.64239 0
M  V30 18586 H 1697.06 -7.32052 2.67805 0
M  V30 18587 N 1701.29 -1.18689 -1.03686 0
M  V30 18588 C 1702.52 -1.01024 -1.81132 0
M  V30 18589 C 1702.94 0.436584 -1.82963 0
M  V30 18590 O 1702.3 1.31343 -1.24975 0
M  V30 18591 C 1702.35 -1.5742 -3.24424 0
M  V30 18592 O 1701.45 -0.79813 -4.04603 0
M  V30 18593 H 1700.79 -0.357623 -0.559465 0
M  V30 18594 H 1703.32 -1.57532 -1.30556 0
M  V30 18595 H 1703.33 -1.60295 -3.75193 0
M  V30 18596 H 1702.01 -2.6273 -3.22406 0
M  V30 18597 H 1700.59 -0.842 -3.6327 0
M  V30 18598 N 1702.77 1.22662 -0.989529 0
M  V30 18599 C 1704.02 1.91605 -0.66448 0
M  V30 18600 C 1704.35 1.76909 0.801048 0
M  V30 18601 O 1703.63 1.13583 1.5789 0
M  V30 18602 C 1703.91 3.43929 -1.06698 0
M  V30 18603 C 1703.76 3.67691 -2.59082 0
M  V30 18604 C 1705.08 4.35744 -0.617695 0
M  V30 18605 H 1702.2 0.695832 -0.242872 0
M  V30 18606 H 1704.84 1.44605 -1.23245 0
M  V30 18607 H 1702.99 3.8409 -0.58371 0
M  V30 18608 H 1704.66 3.36956 -3.15053 0
M  V30 18609 H 1702.91 3.12088 -3.01303 0
M  V30 18610 H 1703.58 4.74356 -2.82295 0
M  V30 18611 H 1706.05 4.0308 -1.03275 0
M  V30 18612 H 1704.93 5.41004 -0.927659 0
M  V30 18613 H 1705.19 4.39468 0.481734 0
M  V30 18614 N 1704.25 0.762308 1.37937 0
M  V30 18615 C 1705.18 0.156036 2.32978 0
M  V30 18616 C 1706.16 -0.693795 1.55308 0
M  V30 18617 O 1707.35 -0.633195 1.83587 0
M  V30 18618 C 1704.48 -0.731199 3.39515 0
M  V30 18619 C 1703.43 0.0165834 4.27997 0
M  V30 18620 C 1702.76 -0.989476 5.25465 0
M  V30 18621 C 1704.06 1.19009 5.08561 0
M  V30 18622 H 1705.75 0.949978 2.83929 0
M  V30 18623 H 1703.3 0.458269 1.36513 0
M  V30 18624 H 1705.25 -1.16507 4.04974 0
M  V30 18625 H 1703.97 -1.55756 2.87067 0
M  V30 18626 H 1702.63 0.431128 3.64056 0
M  V30 18627 H 1702.28 -1.81013 4.69301 0
M  V30 18628 H 1701.98 -0.493738 5.85522 0
M  V30 18629 H 1703.5 -1.42248 5.93799 0
M  V30 18630 H 1704.92 0.833336 5.67211 0
M  V30 18631 H 1703.31 1.61727 5.77896 0
M  V30 18632 H 1704.38 1.99879 4.41788 0
M  V30 18633 N 1705.73 -1.49049 0.51208 0
M  V30 18634 C 1706.66 -2.32163 -0.249529 0
M  V30 18635 C 1707.64 -1.40957 -0.952114 0
M  V30 18636 O 1708.82 -1.69858 -0.94137 0
M  V30 18637 C 1705.95 -3.21737 -1.30776 0
M  V30 18638 C 1704.91 -4.21825 -0.724392 0
M  V30 18639 C 1704.23 -5.00411 -1.88396 0
M  V30 18640 C 1705.53 -5.21483 0.291975 0
M  V30 18641 H 1707.23 -2.96086 0.444253 0
M  V30 18642 H 1704.77 -1.42385 0.215093 0
M  V30 18643 H 1706.73 -3.78699 -1.84837 0
M  V30 18644 H 1705.45 -2.55779 -2.03088 0
M  V30 18645 H 1704.11 -3.66024 -0.205441 0
M  V30 18646 H 1703.76 -4.30891 -2.59502 0
M  V30 18647 H 1703.46 -5.68141 -1.49964 0
M  V30 18648 H 1704.98 -5.6022 -2.42869 0
M  V30 18649 H 1706.4 -5.73074 -0.160899 0
M  V30 18650 H 1704.79 -5.97166 0.592717 0
M  V30 18651 H 1705.86 -4.69714 1.20404 0
M  V30 18652 N 1707.21 -0.246397 -1.55662 0
M  V30 18653 C 1708.43 0.382645 -2.03331 0
M  V30 18654 C 1708.85 1.51573 -1.12566 0
M  V30 18655 O 1708.21 1.81962 -0.139992 0
M  V30 18656 C 1708.26 0.890907 -3.5035 0
M  V30 18657 O 1707.98 -0.197023 -4.37657 0
M  V30 18658 C 1709.48 1.59069 -4.13778 0
M  V30 18659 H 1706.7 0.0909834 -0.664803 0
M  V30 18660 H 1709.24 -0.370113 -2.01123 0
M  V30 18661 H 1707.4 1.59385 -3.53094 0
M  V30 18662 H 1707.81 0.188846 -5.2416 0
M  V30 18663 H 1709.29 1.89805 -5.18342 0
M  V30 18664 H 1709.76 2.51248 -3.60238 0
M  V30 18665 H 1710.37 0.932333 -4.14955 0
M  V30 18666 N 1708.68 1.57577 0.026722 0
M  V30 18667 C 1709.61 2.09748 1.02605 0
M  V30 18668 C 1710.59 1.00054 1.37562 0
M  V30 18669 O 1711.78 1.2759 1.46405 0
M  V30 18670 C 1708.91 2.57881 2.32626 0
M  V30 18671 C 1707.86 3.7186 2.11905 0
M  V30 18672 C 1707.19 4.06208 3.47706 0
M  V30 18673 C 1708.49 5.00198 1.50332 0
M  V30 18674 H 1710.18 2.93494 0.591753 0
M  V30 18675 H 1707.73 1.41188 0.283199 0
M  V30 18676 H 1709.68 2.93 3.02868 0
M  V30 18677 H 1708.41 1.71222 2.7812 0
M  V30 18678 H 1707.07 3.37094 1.44096 0
M  V30 18679 H 1706.71 3.16611 3.90853 0
M  V30 18680 H 1706.41 4.82982 3.34667 0
M  V30 18681 H 1707.94 4.43863 4.19306 0
M  V30 18682 H 1709.35 5.33259 2.10494 0
M  V30 18683 H 1707.75 5.81599 1.4786 0
M  V30 18684 H 1708.82 4.82623 0.469405 0
M  V30 18685 N 1710.16 -0.299034 1.54737 0
M  V30 18686 C 1711.41 -1.03164 1.7332 0
M  V30 18687 C 1711.72 -1.88362 0.527184 0
M  V30 18688 O 1712.93 -2.64903 0.594868 0
M  V30 18689 C 1711.39 -1.88391 3.06654 0
M  V30 18690 C 1710.99 -1.08187 4.34741 0
M  V30 18691 C 1712.74 -2.6124 3.34595 0
M  V30 18692 C 1710.64 -1.92702 5.59124 0
M  V30 18693 H 1709.57 -0.388887 0.645975 0
M  V30 18694 H 1712.23 -0.288544 1.81217 0
M  V30 18695 H 1710.61 -2.66696 2.92727 0
M  V30 18696 H 1711.78 -0.344817 4.59508 0
M  V30 18697 H 1710.1 -0.469118 4.13749 0
M  V30 18698 H 1712.69 -3.24826 4.24726 0
M  V30 18699 H 1713.04 -3.30172 2.53559 0
M  V30 18700 H 1713.57 -1.89982 3.49502 0
M  V30 18701 H 1710.31 -1.28236 6.42834 0
M  V30 18702 H 1709.83 -2.64074 5.38539 0
M  V30 18703 H 1711.51 -2.50702 5.96454 0
M  V30 18704 N 1711.64 -1.47227 -0.562322 0
M  V30 18705 C 1712.6 -1.58887 -1.6519 0
M  V30 18706 C 1713.6 -0.464359 -1.53949 0
M  V30 18707 O 1714.79 -0.729279 -1.582 0
M  V30 18708 C 1711.92 -1.52853 -3.04711 0
M  V30 18709 H 1713.12 -2.5601 -1.56202 0
M  V30 18710 H 1710.67 -1.35341 -0.781832 0
M  V30 18711 H 1711.41 -0.570867 -3.19236 0
M  V30 18712 H 1711.19 -2.3446 -3.14279 0
M  V30 18713 H 1712.68 -1.6414 -3.83989 0
M  V30 18714 N 1713.12 0.808639 -1.35273 0
M  V30 18715 C 1714.36 1.56794 -1.28621 0
M  V30 18716 C 1714.7 1.93697 0.139686 0
M  V30 18717 O 1713.97 1.61185 1.08856 0
M  V30 18718 C 1714.25 2.85794 -2.19075 0
M  V30 18719 C 1714.11 2.5538 -3.70271 0
M  V30 18720 C 1715.43 3.87481 -2.08678 0
M  V30 18721 H 1712.55 0.568873 -0.468564 0
M  V30 18722 H 1715.19 0.930499 -1.65655 0
M  V30 18723 H 1713.34 3.40191 -1.87622 0
M  V30 18724 H 1715.01 2.07182 -4.12157 0
M  V30 18725 H 1713.25 1.88605 -3.90654 0
M  V30 18726 H 1713.92 3.47432 -4.28947 0
M  V30 18727 H 1716.4 3.42478 -2.36323 0
M  V30 18728 H 1715.28 4.75523 -2.7417 0
M  V30 18729 H 1715.54 4.29004 -1.06809 0
M  V30 18730 N 1714.6 1.19237 1.03055 0
M  V30 18731 C 1715.84 0.995444 1.76688 0
M  V30 18732 C 1716.18 -0.472805 1.88357 0
M  V30 18733 O 1715.45 -1.3511 1.39913 0
M  V30 18734 C 1715.73 1.66308 3.19396 0
M  V30 18735 C 1715.59 3.20486 3.15609 0
M  V30 18736 C 1716.91 1.38468 4.17749 0
M  V30 18737 H 1714.02 0.36304 0.641382 0
M  V30 18738 H 1716.67 1.47052 1.20315 0
M  V30 18739 H 1714.82 1.25915 3.67529 0
M  V30 18740 H 1716.49 3.70081 2.75387 0
M  V30 18741 H 1714.73 3.52118 2.53369 0
M  V30 18742 H 1715.4 3.62345 4.16426 0
M  V30 18743 H 1717.88 1.73485 3.78209 0
M  V30 18744 H 1716.75 1.87735 5.15797 0
M  V30 18745 H 1717.02 0.309505 4.41015 0
M  V30 18746 N 1716.07 -1.22136 0.99602 0
M  V30 18747 C 1717 -2.26463 0.568909 0
M  V30 18748 C 1717.99 -1.65189 -0.405783 0
M  V30 18749 O 1719.17 -1.91935 -0.295735 0
M  V30 18750 C 1716.3 -3.47112 -0.114166 0
M  V30 18751 C 1715.25 -4.20844 0.779387 0
M  V30 18752 C 1714.58 -5.34687 -0.0367787 0
M  V30 18753 C 1715.88 -4.79195 2.07773 0
M  V30 18754 H 1717.57 -2.62443 1.44097 0
M  V30 18755 H 1715.12 -1.26156 0.694314 0
M  V30 18756 H 1717.07 -4.19258 -0.424381 0
M  V30 18757 H 1715.8 -3.10238 -1.02079 0
M  V30 18758 H 1714.46 -3.50537 1.07329 0
M  V30 18759 H 1714.1 -4.94054 -0.94442 0
M  V30 18760 H 1713.8 -5.84944 0.558092 0
M  V30 18761 H 1715.33 -6.09647 -0.341016 0
M  V30 18762 H 1716.74 -5.43266 1.83126 0
M  V30 18763 H 1715.14 -5.39803 2.62169 0
M  V30 18764 H 1716.21 -3.99073 2.75442 0
M  V30 18765 N 1717.55 -0.769612 -1.37531 0
M  V30 18766 C 1718.78 -0.343069 -2.04543 0
M  V30 18767 C 1719.2 1.02583 -1.57665 0
M  V30 18768 O 1718.56 1.65692 -0.735915 0
M  V30 18769 C 1718.61 -0.392914 -3.58453 0
M  V30 18770 O 1717.71 0.607401 -4.07902 0
M  V30 18771 H 1717.05 -0.148905 -0.647088 0
M  V30 18772 H 1719.58 -1.04521 -1.75888 0
M  V30 18773 H 1719.59 -0.24945 -4.07237 0
M  V30 18774 H 1718.27 -1.39159 -3.91928 0
M  V30 18775 H 1716.85 0.427231 -3.70445 0
M  V30 18776 N 1719.03 1.48775 -0.519977 0
M  V30 18777 C 1720.27 2.04394 0.0158731 0
M  V30 18778 C 1720.63 1.38935 1.32518 0
M  V30 18779 O 1721.84 1.85383 1.94645 0
M  V30 18780 C 1720.11 3.57103 0.145657 0
M  V30 18781 S 1721.67 4.3421 0.633016 0
M  V30 18782 H 1718.48 0.710963 -0.0072764 0
M  V30 18783 H 1721.09 1.82605 -0.698264 0
M  V30 18784 H 1719.79 4.02282 -0.812259 0
M  V30 18785 H 1719.32 3.83328 0.884471 0
M  V30 18786 H 1721.34 4.58416 1.89918 0
M  V30 18787 N 1720.51 0.254649 1.55529 0
M  V30 18788 C 1721.73 -0.374795 2.03985 0
M  V30 18789 C 1722.16 -1.50188 1.13249 0
M  V30 18790 O 1721.52 -1.80855 0.126963 0
M  V30 18791 C 1721.56 -0.852635 3.50375 0
M  V30 18792 O 1720.67 -1.9616 3.6276 0
M  V30 18793 H 1720.01 -0.0806157 0.659088 0
M  V30 18794 H 1722.54 0.38297 2.00984 0
M  V30 18795 H 1722.55 -1.15381 3.91345 0
M  V30 18796 H 1721.22 -0.0279044 4.15891 0
M  V30 18797 H 1719.8 -1.66453 3.33688 0
M  V30 18798 N 1721.99 -1.57589 -0.0183649 0
M  V30 18799 C 1723.4 -1.7799 -0.563591 0
M  V30 18800 C 1723.75 -0.887064 -1.75002 0
M  V30 18801 O 1722.87 -0.0846843 -2.16234 0
M  V30 18802 C 1723.47 -3.2279 -1.02919 0
M  V30 18803 C 1722.03 -3.44351 -1.51986 0
M  V30 18804 C 1721.17 -2.73412 -0.462727 0
M  V30 18805 H 1724.13 -1.57333 0.207849 0
M  V30 18806 H 1724.15 -3.29892 -1.89609 0
M  V30 18807 H 1723.66 -3.87747 -0.165487 0
M  V30 18808 H 1721.76 -2.84583 -2.40506 0
M  V30 18809 H 1721.87 -4.52992 -1.55998 0
M  V30 18810 H 1720.24 -2.37496 -0.920211 0
M  V30 18811 H 1721.02 -3.41058 0.391698 0
M  V30 18812 N 1723.46 0.290824 -1.54893 0
M  V30 18813 C 1724.71 1.02244 -1.73865 0
M  V30 18814 C 1725.03 1.88079 -0.537166 0
M  V30 18815 O 1726.23 2.64584 -0.608908 0
M  V30 18816 C 1724.69 1.86762 -3.07649 0
M  V30 18817 C 1724.3 1.0588 -4.35308 0
M  V30 18818 C 1726.04 2.59461 -3.35976 0
M  V30 18819 C 1723.95 1.89734 -5.60138 0
M  V30 18820 H 1722.88 0.385455 -0.648028 0
M  V30 18821 H 1725.53 0.27893 -1.81368 0
M  V30 18822 H 1723.91 2.6514 -2.94137 0
M  V30 18823 H 1725.08 0.320443 -4.59684 0
M  V30 18824 H 1723.4 0.447169 -4.13992 0
M  V30 18825 H 1726 3.22569 -4.26442 0
M  V30 18826 H 1726.34 3.28823 -2.55306 0
M  V30 18827 H 1726.87 1.88126 -3.50505 0
M  V30 18828 H 1723.61 1.24825 -6.43505 0
M  V30 18829 H 1723.13 2.61215 -5.39932 0
M  V30 18830 H 1724.81 2.47535 -5.97775 0
M  V30 18831 N 1724.94 1.47523 0.554506 0
M  V30 18832 C 1726.18 1.55867 1.32231 0
M  V30 18833 C 1726.55 0.216987 1.9077 0
M  V30 18834 O 1727.75 0.175283 2.68228 0
M  V30 18835 C 1726.02 2.64761 2.40076 0
M  V30 18836 S 1727.58 2.92706 3.26908 0
M  V30 18837 H 1724.4 0.550369 0.450128 0
M  V30 18838 H 1727 1.84917 0.634504 0
M  V30 18839 H 1725.7 3.60838 1.95509 0
M  V30 18840 H 1725.23 2.37534 3.13594 0
M  V30 18841 H 1727.25 2.30127 4.39609 0
M  V30 18842 N 1726.42 -0.801453 1.357 0
M  V30 18843 C 1727.33 -1.94505 1.31167 0
M  V30 18844 C 1728.35 -1.72657 0.215747 0
M  V30 18845 O 1729.52 -1.96399 0.446022 0
M  V30 18846 C 1726.59 -3.29175 1.08834 0
M  V30 18847 C 1725.65 -3.63883 2.27788 0
M  V30 18848 C 1724.88 -4.92127 2.06511 0
M  V30 18849 O 1725.1 -5.60947 1.03416 0
M  V30 18850 O 1724.04 -5.25213 2.93998 0
M  V30 18851 H 1727.86 -2.01277 2.27423 0
M  V30 18852 H 1725.45 -0.939979 1.16124 0
M  V30 18853 H 1727.33 -4.09787 0.98248 0
M  V30 18854 H 1726.01 -3.23322 0.156326 0
M  V30 18855 H 1724.91 -2.83627 2.4394 0
M  V30 18856 H 1726.25 -3.74446 3.19454 0
M  V30 18857 N 1727.9 -1.19782 -1.02421 0
M  V30 18858 C 1728.85 -0.93978 -2.108 0
M  V30 18859 C 1729.82 0.12716 -1.65613 0
M  V30 18860 O 1731 -0.0159669 -1.90793 0
M  V30 18861 C 1728.14 -0.489656 -3.41609 0
M  V30 18862 C 1727.25 -1.62389 -4.00317 0
M  V30 18863 C 1726.39 -1.12483 -5.19154 0
M  V30 18864 C 1725.43 -2.23266 -5.69929 0
M  V30 18865 N 1724.56 -1.74633 -6.80035 0
M  V30 18866 H 1729.4 -1.8677 -2.32209 0
M  V30 18867 H 1726.94 -0.931082 -1.13883 0
M  V30 18868 H 1728.9 -0.210049 -4.16671 0
M  V30 18869 H 1727.53 0.40127 -3.20296 0
M  V30 18870 H 1726.58 -2.0186 -3.22423 0
M  V30 18871 H 1727.89 -2.45836 -4.34011 0
M  V30 18872 H 1727.05 -0.800737 -6.01393 0
M  V30 18873 H 1725.79 -0.260155 -4.87006 0
M  V30 18874 H 1724.79 -2.56501 -4.863 0
M  V30 18875 H 1726.02 -3.10197 -6.04115 0
M  V30 18876 H 1723.96 -0.904804 -6.4973 0
M  V30 18877 H 1723.88 -2.51666 -7.12882 0
M  V30 18878 H 1725.15 -1.45201 -7.65857 0
M  V30 18879 N 1729.38 1.21606 -1.00248 0
M  V30 18880 C 1730.31 2.23246 -0.519009 0
M  V30 18881 C 1731.32 1.58034 0.391051 0
M  V30 18882 O 1732.51 1.77468 0.191652 0
M  V30 18883 C 1729.61 3.37854 0.266017 0
M  V30 18884 C 1728.78 4.32655 -0.642503 0
M  V30 18885 C 1727.84 5.26119 0.0924758 0
M  V30 18886 O 1726.87 5.66771 -0.525333 0
M  V30 18887 N 1728.07 5.64058 1.37183 0
M  V30 18888 H 1730.84 2.65357 -1.39305 0
M  V30 18889 H 1728.4 1.36004 -0.878327 0
M  V30 18890 H 1730.39 3.97373 0.766598 0
M  V30 18891 H 1728.96 2.94749 1.04123 0
M  V30 18892 H 1728.18 3.71314 -1.32361 0
M  V30 18893 H 1729.47 4.92929 -1.26089 0
M  V30 18894 H 1728.87 5.33018 1.89493 0
M  V30 18895 H 1727.42 6.2595 1.81741 0
M  V30 18896 N 1730.86 0.776895 1.37121 0
M  V30 18897 C 1731.82 0.172839 2.28547 0
M  V30 18898 C 1732.82 -0.622508 1.48262 0
M  V30 18899 O 1734.01 -0.44534 1.68411 0
M  V30 18900 C 1731.14 -0.762294 3.32268 0
M  V30 18901 H 1732.33 0.978842 2.83476 0
M  V30 18902 H 1729.89 0.545454 1.46474 0
M  V30 18903 H 1730.62 -1.59311 2.82472 0
M  V30 18904 H 1730.41 -0.194084 3.91619 0
M  V30 18905 H 1731.9 -1.1802 4.00576 0
M  V30 18906 N 1732.33 -1.48497 0.527859 0
M  V30 18907 C 1733.26 -2.32414 -0.224891 0
M  V30 18908 C 1734.24 -1.41959 -0.93711 0
M  V30 18909 O 1735.43 -1.70847 -0.923302 0
M  V30 18910 C 1732.56 -3.23106 -1.27356 0
M  V30 18911 C 1731.51 -4.2257 -0.679611 0
M  V30 18912 C 1730.84 -5.02381 -1.83077 0
M  V30 18913 C 1732.14 -5.21144 0.347269 0
M  V30 18914 H 1733.83 -2.95598 0.475632 0
M  V30 18915 H 1731.38 -1.42148 0.230182 0
M  V30 18916 H 1733.33 -3.80639 -1.8081 0
M  V30 18917 H 1732.06 -2.57919 -2.00363 0
M  V30 18918 H 1730.72 -3.66221 -0.166608 0
M  V30 18919 H 1730.36 -4.3362 -2.54918 0
M  V30 18920 H 1730.06 -5.697 -1.43929 0
M  V30 18921 H 1731.59 -5.62765 -2.36914 0
M  V30 18922 H 1733 -5.73213 -0.100107 0
M  V30 18923 H 1731.4 -5.96503 0.656021 0
M  V30 18924 H 1732.47 -4.6841 1.25379 0
M  V30 18925 N 1733.81 -0.262893 -1.55392 0
M  V30 18926 C 1735.06 0.357366 -1.99322 0
M  V30 18927 C 1735.39 1.56772 -1.15121 0
M  V30 18928 O 1734.64 1.94614 -0.205867 0
M  V30 18929 C 1734.94 0.795313 -3.48439 0
M  V30 18930 C 1734.61 -0.309047 -4.4984 0
M  V30 18931 C 1733.27 -0.612317 -4.77288 0
M  V30 18932 C 1735.62 -1.05382 -5.10435 0
M  V30 18933 C 1732.95 -1.66415 -5.62604 0
M  V30 18934 C 1735.3 -2.09528 -5.96892 0
M  V30 18935 C 1733.96 -2.40503 -6.22667 0
M  V30 18936 H 1733.23 0.13077 -0.72937 0
M  V30 18937 H 1735.88 -0.374057 -1.87811 0
M  V30 18938 H 1734.19 1.60621 -3.57363 0
M  V30 18939 H 1735.88 1.28577 -3.79828 0
M  V30 18940 H 1732.47 -0.0625469 -4.28554 0
M  V30 18941 H 1736.66 -0.832773 -4.89263 0
M  V30 18942 H 1731.91 -1.90929 -5.80824 0
M  V30 18943 H 1736.09 -2.67719 -6.42884 0
M  V30 18944 H 1733.71 -3.22143 -6.88569 0
M  V30 18945 N 1735.29 1.57597 0.0100073 0
M  V30 18946 C 1736.25 2.06745 0.989401 0
M  V30 18947 C 1737.25 0.97499 1.27869 0
M  V30 18948 O 1738.44 1.23798 1.22555 0
M  V30 18949 C 1735.57 2.50048 2.31709 0
M  V30 18950 H 1736.77 2.9454 0.564473 0
M  V30 18951 H 1734.32 1.54168 0.257266 0
M  V30 18952 H 1735.06 1.65466 2.78911 0
M  V30 18953 H 1734.84 3.29823 2.12035 0
M  V30 18954 H 1736.33 2.88433 3.01987 0
M  V30 18955 N 1736.77 -0.282606 1.55045 0
M  V30 18956 C 1737.7 -1.35347 1.90272 0
M  V30 18957 C 1738.68 -1.52001 0.763532 0
M  V30 18958 O 1739.86 -1.65204 1.02085 0
M  V30 18959 C 1736.99 -2.71464 2.16621 0
M  V30 18960 C 1735.95 -2.69554 3.32453 0
M  V30 18961 C 1735.27 -4.09132 3.4426 0
M  V30 18962 C 1736.57 -2.29669 4.69094 0
M  V30 18963 H 1738.27 -1.06113 2.79965 0
M  V30 18964 H 1735.81 -0.509018 1.34703 0
M  V30 18965 H 1737.77 -3.46482 2.39851 0
M  V30 18966 H 1736.49 -3.02261 1.23717 0
M  V30 18967 H 1735.15 -1.96993 3.09175 0
M  V30 18968 H 1734.8 -4.37136 2.4884 0
M  V30 18969 H 1734.5 -4.08751 4.22133 0
M  V30 18970 H 1736.02 -4.85903 3.69771 0
M  V30 18971 H 1737.44 -2.94407 4.91932 0
M  V30 18972 H 1735.83 -2.40467 5.49814 0
M  V30 18973 H 1736.9 -1.24796 4.68566 0
M  V30 18974 N 1738.25 -1.47815 -0.546675 0
M  V30 18975 C 1739.49 -1.56566 -1.31402 0
M  V30 18976 C 1739.85 -0.227101 -1.90652 0
M  V30 18977 O 1741.05 -0.189506 -2.68131 0
M  V30 18978 C 1739.32 -2.6603 -2.38669 0
M  V30 18979 S 1740.88 -2.94436 -3.25351 0
M  V30 18980 H 1737.7 -0.552748 -0.447203 0
M  V30 18981 H 1740.3 -1.85251 -0.624688 0
M  V30 18982 H 1739 -3.6187 -1.93593 0
M  V30 18983 H 1738.54 -2.39193 -3.1233 0
M  V30 18984 H 1740.55 -2.32455 -4.38382 0
M  V30 18985 N 1739.72 0.794246 -1.36123 0
M  V30 18986 C 1740.67 1.90668 -1.30056 0
M  V30 18987 C 1741.64 1.65226 -0.170145 0
M  V30 18988 O 1742.83 1.87452 -0.355874 0
M  V30 18989 C 1739.97 3.27405 -1.09086 0
M  V30 18990 C 1739.08 3.64951 -2.31159 0
M  V30 18991 C 1738.21 4.90782 -2.0324 0
M  V30 18992 C 1737.25 5.20992 -3.21301 0
M  V30 18993 N 1736.39 6.38005 -2.93078 0
M  V30 18994 H 1741.23 1.9519 -2.25178 0
M  V30 18995 H 1738.77 0.95458 -1.1192 0
M  V30 18996 H 1740.72 4.0625 -0.94956 0
M  V30 18997 H 1739.35 3.22319 -0.176211 0
M  V30 18998 H 1738.41 2.81268 -2.5611 0
M  V30 18999 H 1739.72 3.83228 -3.19277 0
M  V30 19000 H 1738.87 5.77481 -1.86012 0
M  V30 19001 H 1737.61 4.74565 -1.12426 0
M  V30 19002 H 1736.62 4.32777 -3.39093 0
M  V30 19003 H 1737.84 5.39131 -4.12934 0
M  V30 19004 H 1735.79 6.23189 -2.0487 0
M  V30 19005 H 1735.7 6.56591 -3.74733 0
M  V30 19006 H 1736.97 7.27699 -2.79418 0
M  V30 19007 N 1741.2 1.20323 1.01785 0
M  V30 19008 C 1742.43 1.03893 1.79502 0
M  V30 19009 C 1742.85 -0.407421 1.83635 0
M  V30 19010 O 1742.21 -1.29338 1.27049 0
M  V30 19011 C 1742.26 1.62562 3.21879 0
M  V30 19012 O 1741.36 0.862398 4.03282 0
M  V30 19013 H 1740.7 0.366479 0.553705 0
M  V30 19014 H 1743.23 1.59589 1.28034 0
M  V30 19015 H 1743.24 1.66244 3.72595 0
M  V30 19016 H 1741.92 2.67826 3.18186 0
M  V30 19017 H 1740.49 0.899687 3.61884 0
M  V30 19018 N 1742.68 -1.21073 1.00892 0
M  V30 19019 C 1743.93 -1.90524 0.694879 0
M  V30 19020 C 1744.26 -1.78161 -0.772802 0
M  V30 19021 O 1743.53 -1.1608 -1.56063 0
M  V30 19022 C 1743.82 -3.42188 1.12156 0
M  V30 19023 C 1743.67 -3.63523 2.64898 0
M  V30 19024 C 1744.99 -4.34706 0.68694 0
M  V30 19025 H 1742.11 -0.69188 0.253912 0
M  V30 19026 H 1744.75 -1.42626 1.2553 0
M  V30 19027 H 1742.9 -3.83113 0.644742 0
M  V30 19028 H 1744.57 -3.31901 3.20374 0
M  V30 19029 H 1742.81 -3.07255 3.0623 0
M  V30 19030 H 1743.49 -4.69805 2.89806 0
M  V30 19031 H 1745.96 -4.01386 1.09674 0
M  V30 19032 H 1744.84 -5.3946 1.01361 0
M  V30 19033 H 1745.1 -4.40178 -0.411757 0
M  V30 19034 N 1744.16 -0.784156 -1.36707 0
M  V30 19035 C 1745.11 -0.177044 -2.3012 0
M  V30 19036 C 1746.08 0.6761 -1.51717 0
M  V30 19037 O 1747.26 0.625878 -1.80243 0
M  V30 19038 C 1744.4 0.686337 -3.38206 0
M  V30 19039 C 1743.51 -0.184772 -4.31605 0
M  V30 19040 C 1742.65 0.684485 -5.26772 0
M  V30 19041 C 1741.69 -0.188402 -6.1181 0
M  V30 19042 N 1740.82 0.639537 -6.99181 0
M  V30 19043 H 1745.66 -0.979125 -2.81455 0
M  V30 19044 H 1743.2 -0.494419 -1.38542 0
M  V30 19045 H 1745.16 1.20185 -3.99514 0
M  V30 19046 H 1743.79 1.4539 -2.88204 0
M  V30 19047 H 1742.84 -0.818204 -3.71496 0
M  V30 19048 H 1744.15 -0.857567 -4.91373 0
M  V30 19049 H 1743.31 1.26601 -5.93344 0
M  V30 19050 H 1742.05 1.39092 -4.67445 0
M  V30 19051 H 1741.05 -0.782364 -5.44205 0
M  V30 19052 H 1742.28 -0.89236 -6.73212 0
M  V30 19053 H 1740.22 1.33036 -6.42369 0
M  V30 19054 H 1740.14 0.0243097 -7.55996 0
M  V30 19055 H 1741.41 1.20505 -7.70129 0
M  V30 19056 N 1745.64 1.48215 -0.535727 0
M  V30 19057 C 1746.55 2.33494 0.227577 0
M  V30 19058 C 1747.56 1.4685 0.933327 0
M  V30 19059 O 1748.74 1.7982 0.907008 0
M  V30 19060 C 1745.8 3.23092 1.25747 0
M  V30 19061 C 1744.86 4.25613 0.561454 0
M  V30 19062 C 1744.1 5.1093 1.54228 0
M  V30 19063 O 1744.32 4.98325 2.77539 0
M  V30 19064 O 1743.25 5.92158 1.07852 0
M  V30 19065 H 1747.08 3.0002 -0.471375 0
M  V30 19066 H 1744.67 1.46427 -0.296579 0
M  V30 19067 H 1746.55 3.78498 1.8525 0
M  V30 19068 H 1745.22 2.5922 1.93872 0
M  V30 19069 H 1744.13 3.74026 -0.0742194 0
M  V30 19070 H 1745.46 4.92138 -0.0779649 0
M  V30 19071 N 1747.11 0.27113 1.5525 0
M  V30 19072 C 1748.06 -0.634087 2.2379 0
M  V30 19073 C 1749.06 -1.16101 1.23357 0
M  V30 19074 O 1750.26 -1.1151 1.413 0
M  V30 19075 H 1746.64 -0.223023 0.718168 0
M  V30 19076 H 1748.61 -0.0331304 2.98382 0
M  V30 19077 C 1747.36 -1.80879 2.96948 0
M  V30 19078 H 1746.68 -1.41252 3.74016 0
M  V30 19079 H 1748.12 -2.41888 3.48233 0
M  V30 19080 C 1746.58 -2.69481 2.02192 0
M  V30 19081 O 1747.11 -3.69725 1.57056 0
M  V30 19082 N 1745.32 -2.36565 1.68776 0
M  V30 19083 H 1744.86 -1.55096 2.05677 0
M  V30 19084 H 1744.82 -2.96119 1.05646 0
M  V30 19085 N 1748.59 -1.576 -0.00164943 0
M  V30 19086 C 1749.84 -1.9012 -0.685486 0
M  V30 19087 C 1750.16 -0.872245 -1.74404 0
M  V30 19088 O 1749.43 0.090572 -1.95691 0
M  V30 19089 H 1748.01 -0.701699 -0.256177 0
M  V30 19090 H 1750.67 -1.94861 0.0388866 0
M  V30 19091 H 1749.77 -2.89831 -1.15778 0
M  V30 19092 N 1750.07 0.274379 -1.55193 0
M  V30 19093 C 1751 1.34336 -1.90987 0
M  V30 19094 C 1751.98 1.51594 -0.771582 0
M  V30 19095 O 1753.17 1.6466 -1.0296 0
M  V30 19096 C 1750.3 2.70312 -2.18057 0
M  V30 19097 C 1749.25 2.67787 -3.33878 0
M  V30 19098 C 1748.58 4.07301 -3.46425 0
M  V30 19099 C 1749.88 2.27178 -4.70306 0
M  V30 19100 H 1751.57 1.04627 -2.80524 0
M  V30 19101 H 1749.12 0.501867 -1.34971 0
M  V30 19102 H 1751.07 3.45205 -2.41685 0
M  V30 19103 H 1749.79 3.01601 -1.25318 0
M  V30 19104 H 1748.45 1.95351 -3.10216 0
M  V30 19105 H 1748.1 4.3581 -2.51155 0
M  V30 19106 H 1747.8 4.06507 -4.24295 0
M  V30 19107 H 1749.32 4.83935 -3.72343 0
M  V30 19108 H 1750.74 2.91794 -4.93487 0
M  V30 19109 H 1749.14 2.37548 -5.51082 0
M  V30 19110 H 1750.21 1.22309 -4.69221 0
M  V30 19111 N 1751.55 1.48103 0.538828 0
M  V30 19112 C 1752.46 1.64632 1.67133 0
M  V30 19113 C 1753.47 0.528917 1.65766 0
M  V30 19114 O 1754.65 0.798849 1.84879 0
M  V30 19115 C 1751.72 1.67391 3.03614 0
M  V30 19116 C 1750.78 2.90694 3.15904 0
M  V30 19117 C 1750.01 2.93311 4.45875 0
M  V30 19118 O 1750.23 2.04596 5.32444 0
M  V30 19119 O 1749.17 3.85384 4.62345 0
M  V30 19120 H 1752.99 2.60496 1.56126 0
M  V30 19121 H 1750.58 1.31401 0.710925 0
M  V30 19122 H 1752.46 1.71777 3.84799 0
M  V30 19123 H 1751.13 0.746982 3.14963 0
M  V30 19124 H 1750.04 2.91844 2.34047 0
M  V30 19125 H 1751.37 3.82742 3.09467 0
M  V30 19126 N 1753.03 -0.787016 1.36542 0
M  V30 19127 C 1754.44 -1.36234 1.2766 0
M  V30 19128 C 1754.79 -1.96026 -0.0825391 0
M  V30 19129 O 1753.91 -1.92731 -0.984059 0
M  V30 19130 C 1754.51 -2.47684 2.31167 0
M  V30 19131 C 1753.07 -3.01026 2.25966 0
M  V30 19132 C 1752.21 -1.74122 2.15816 0
M  V30 19133 H 1755.17 -0.58847 1.47386 0
M  V30 19134 H 1755.19 -3.26765 1.94949 0
M  V30 19135 H 1754.7 -2.04136 3.30076 0
M  V30 19136 H 1752.8 -3.48988 1.30531 0
M  V30 19137 H 1752.91 -3.57677 3.18754 0
M  V30 19138 H 1751.28 -1.9645 1.6211 0
M  V30 19139 H 1752.06 -1.32699 3.16616 0
M  V30 19140 N 1754.5 -1.20861 -1.01145 0
M  V30 19141 C 1755.45 -0.929642 -2.08187 0
M  V30 19142 C 1756.44 0.112578 -1.60506 0
M  V30 19143 O 1757.63 -0.0954894 -1.76742 0
M  V30 19144 C 1754.76 -0.489163 -3.39797 0
M  V30 19145 C 1753.85 -1.5651 -3.94164 0
M  V30 19146 N 1754.24 -2.7887 -4.21978 0
M  V30 19147 C 1752.53 -1.43246 -4.2237 0
M  V30 19148 C 1753.24 -3.48309 -4.65892 0
M  V30 19149 N 1752.21 -2.75734 -4.68478 0
M  V30 19150 H 1756.01 -1.85937 -2.27606 0
M  V30 19151 H 1753.53 -1.10338 -1.19161 0
M  V30 19152 H 1755.52 -0.27069 -4.1602 0
M  V30 19153 H 1754.18 0.433877 -3.21788 0
M  V30 19154 H 1755.2 -3.15473 -4.10727 0
M  V30 19155 H 1751.87 -0.57422 -4.13532 0
M  V30 19156 H 1753.26 -4.53042 -4.96188 0
M  V30 19157 N 1755.98 1.20536 -1.01532 0
M  V30 19158 C 1756.91 2.2553 -0.604866 0
M  V30 19159 C 1757.89 1.65814 0.379452 0
M  V30 19160 O 1759.08 1.92381 0.265162 0
M  V30 19161 C 1756.21 3.4725 0.0589292 0
M  V30 19162 C 1755.16 4.19551 -0.846241 0
M  V30 19163 C 1754.49 5.34678 -0.0482901 0
M  V30 19164 C 1755.79 4.75829 -2.1537 0
M  V30 19165 H 1757.48 2.60117 -1.48254 0
M  V30 19166 H 1755.03 1.25035 -0.714297 0
M  V30 19167 H 1756.98 4.1988 0.357627 0
M  V30 19168 H 1755.71 3.11822 0.97131 0
M  V30 19169 H 1754.36 3.48785 -1.12892 0
M  V30 19170 H 1754.01 4.95494 0.8657 0
M  V30 19171 H 1753.71 5.83982 -0.651081 0
M  V30 19172 H 1755.24 6.10112 0.243983 0
M  V30 19173 H 1756.65 5.40284 -1.91745 0
M  V30 19174 H 1755.05 5.35564 -2.70723 0
M  V30 19175 H 1756.12 3.94641 -2.81756 0
M  V30 19176 N 1757.46 0.791395 1.36289 0
M  V30 19177 C 1758.71 0.365242 1.99484 0
M  V30 19178 C 1759.04 -1.06087 1.62663 0
M  V30 19179 O 1758.31 -1.73332 0.882396 0
M  V30 19180 C 1758.6 0.531317 3.56159 0
M  V30 19181 C 1758.45 2.00126 4.02827 0
M  V30 19182 C 1759.77 -0.0524248 4.40069 0
M  V30 19183 H 1756.89 0.134183 0.724682 0
M  V30 19184 H 1759.53 0.998102 1.61672 0
M  V30 19185 H 1757.68 -0.0074293 3.88499 0
M  V30 19186 H 1759.35 2.60122 3.80965 0
M  V30 19187 H 1757.6 2.50316 3.54294 0
M  V30 19188 H 1758.27 2.06842 5.11782 0
M  V30 19189 H 1760.74 0.407489 4.141 0
M  V30 19190 H 1759.62 0.0937898 5.4882 0
M  V30 19191 H 1759.88 -1.14472 4.27023 0
M  V30 19192 N 1758.94 -1.47929 0.54358 0
M  V30 19193 C 1759.89 -2.29827 -0.211706 0
M  V30 19194 C 1760.86 -1.38217 -0.921154 0
M  V30 19195 O 1762.04 -1.67181 -0.919522 0
M  V30 19196 C 1759.18 -3.21889 -1.24425 0
M  V30 19197 C 1758.29 -4.28583 -0.542264 0
M  V30 19198 C 1757.43 -5.0781 -1.55892 0
M  V30 19199 C 1756.47 -6.06293 -0.841146 0
M  V30 19200 N 1755.61 -6.78528 -1.80399 0
M  V30 19201 H 1760.45 -2.93896 0.492835 0
M  V30 19202 H 1757.98 -1.44875 0.254873 0
M  V30 19203 H 1759.94 -3.73674 -1.85535 0
M  V30 19204 H 1758.57 -2.59713 -1.917 0
M  V30 19205 H 1757.62 -3.79959 0.183069 0
M  V30 19206 H 1758.93 -4.98796 0.0206703 0
M  V30 19207 H 1758.09 -5.63678 -2.24393 0
M  V30 19208 H 1756.83 -4.37468 -2.15576 0
M  V30 19209 H 1755.83 -5.49616 -0.14214 0
M  V30 19210 H 1757.06 -6.78639 -0.250232 0
M  V30 19211 H 1755 -6.10927 -2.38965 0
M  V30 19212 H 1754.92 -7.44863 -1.29285 0
M  V30 19213 H 1756.19 -7.38978 -2.48056 0
M  V30 19214 N 1760.42 -0.27936 -1.55104 0
M  V30 19215 C 1761.36 0.606268 -2.22695 0
M  V30 19216 C 1762.33 1.14646 -1.20189 0
M  V30 19217 O 1763.52 1.19498 -1.48744 0
M  V30 19218 C 1760.66 1.78256 -2.95497 0
M  V30 19219 C 1759.77 1.27582 -4.12731 0
M  V30 19220 C 1758.91 2.41425 -4.73167 0
M  V30 19221 C 1757.95 1.87775 -5.82586 0
M  V30 19222 N 1757.08 2.95108 -6.37068 0
M  V30 19223 H 1761.92 0.0232427 -2.97991 0
M  V30 19224 H 1759.46 -0.000294714 -1.471 0
M  V30 19225 H 1761.42 2.47406 -3.35925 0
M  V30 19226 H 1760.05 2.33755 -2.22617 0
M  V30 19227 H 1759.1 0.477281 -3.77394 0
M  V30 19228 H 1760.41 0.842897 -4.91627 0
M  V30 19229 H 1759.57 3.18561 -5.16337 0
M  V30 19230 H 1758.31 2.88035 -3.93557 0
M  V30 19231 H 1757.31 1.0912 -5.38862 0
M  V30 19232 H 1758.54 1.42096 -6.64067 0
M  V30 19233 H 1756.48 3.41091 -5.60351 0
M  V30 19234 H 1756.4 2.56246 -7.11248 0
M  V30 19235 H 1757.67 3.72206 -6.84896 0
M  V30 19236 N 1761.9 1.57599 -0.0067085 0
M  V30 19237 C 1763.14 1.9114 0.677733 0
M  V30 19238 C 1763.47 0.881328 1.7305 0
M  V30 19239 O 1762.75 -0.099049 1.94248 0
M  V30 19240 C 1763.03 3.35241 1.31474 0
M  V30 19241 C 1762.89 4.4897 0.273055 0
M  V30 19242 C 1764.2 3.78886 2.23905 0
M  V30 19243 H 1761.32 0.695119 0.244907 0
M  V30 19244 H 1763.97 1.89907 -0.059378 0
M  V30 19245 H 1762.12 3.36423 1.94299 0
M  V30 19246 H 1763.79 4.59924 -0.356031 0
M  V30 19247 H 1762.03 4.31915 -0.403961 0
M  V30 19248 H 1762.7 5.46772 0.757941 0
M  V30 19249 H 1765.18 3.79299 1.7109 0
M  V30 19250 H 1764.05 4.80451 2.65439 0
M  V30 19251 H 1764.31 3.13129 3.12094 0
M  V30 19252 N 1763.37 -0.266145 1.55336 0
M  V30 19253 C 1764.3 -1.33322 1.91697 0
M  V30 19254 C 1765.28 -1.51182 0.77961 0
M  V30 19255 O 1766.47 -1.64112 1.03832 0
M  V30 19256 C 1763.6 -2.69151 2.19488 0
M  V30 19257 C 1762.55 -2.66012 3.35293 0
M  V30 19258 C 1761.88 -4.05458 3.4858 0
M  V30 19259 C 1763.18 -2.24681 4.71504 0
M  V30 19260 H 1764.87 -1.03138 2.81075 0
M  V30 19261 H 1762.42 -0.494702 1.35236 0
M  V30 19262 H 1764.37 -3.43918 2.43512 0
M  V30 19263 H 1763.1 -3.00932 1.26916 0
M  V30 19264 H 1761.76 -1.93703 3.11247 0
M  V30 19265 H 1761.4 -4.34472 2.53462 0
M  V30 19266 H 1761.1 -4.04251 4.26445 0
M  V30 19267 H 1762.63 -4.81954 3.74904 0
M  V30 19268 H 1764.04 -2.89173 4.95027 0
M  V30 19269 H 1762.44 -2.34622 5.52334 0
M  V30 19270 H 1763.51 -1.19819 4.69863 0
M  V30 19271 N 1764.85 -1.48386 -0.530967 0
M  V30 19272 C 1765.76 -1.65516 -1.66257 0
M  V30 19273 C 1766.78 -0.5377 -1.65483 0
M  V30 19274 O 1767.95 -0.808642 -1.84453 0
M  V30 19275 C 1765.02 -1.68999 -3.02722 0
M  V30 19276 C 1764.08 -2.92365 -3.14358 0
M  V30 19277 C 1763.31 -2.95672 -4.44313 0
M  V30 19278 O 1763.54 -2.07417 -5.31352 0
M  V30 19279 O 1762.47 -3.87831 -4.60294 0
M  V30 19280 H 1766.3 -2.61321 -1.54742 0
M  V30 19281 H 1763.88 -1.31776 -0.703946 0
M  V30 19282 H 1765.76 -1.73816 -3.83883 0
M  V30 19283 H 1764.44 -0.763675 -3.14563 0
M  V30 19284 H 1763.34 -2.93081 -2.32496 0
M  V30 19285 H 1764.68 -3.84378 -3.07433 0
M  V30 19286 N 1766.33 0.779763 -1.36958 0
M  V30 19287 C 1767.28 1.89278 -1.32071 0
M  V30 19288 C 1768.25 1.65037 -0.18766 0
M  V30 19289 O 1769.43 1.87064 -0.375736 0
M  V30 19290 C 1766.57 3.2623 -1.12552 0
M  V30 19291 C 1765.68 3.62479 -2.35017 0
M  V30 19292 C 1764.82 4.88599 -2.08434 0
M  V30 19293 C 1763.86 5.17555 -3.26808 0
M  V30 19294 N 1763 6.3486 -2.99828 0
M  V30 19295 H 1767.84 1.9279 -2.27235 0
M  V30 19296 H 1765.37 0.942656 -1.12927 0
M  V30 19297 H 1767.33 4.0522 -0.992595 0
M  V30 19298 H 1765.96 3.22114 -0.210387 0
M  V30 19299 H 1765.01 2.78536 -2.59079 0
M  V30 19300 H 1766.32 3.7982 -3.23324 0
M  V30 19301 H 1765.48 5.75476 -1.92127 0
M  V30 19302 H 1764.22 4.73346 -1.17453 0
M  V30 19303 H 1763.22 4.29156 -3.43664 0
M  V30 19304 H 1764.45 5.34721 -4.18629 0
M  V30 19305 H 1762.39 6.20981 -2.11468 0
M  V30 19306 H 1762.31 6.52579 -3.81676 0
M  V30 19307 H 1763.58 7.24695 -2.8712 0
M  V30 19308 N 1767.81 1.21396 1.00503 0
M  V30 19309 C 1769.05 1.0327 1.74537 0
M  V30 19310 C 1769.39 -0.432746 1.89317 0
M  V30 19311 O 1768.66 -1.32111 1.42747 0
M  V30 19312 C 1768.94 1.73045 3.15797 0
M  V30 19313 C 1768.8 3.27108 3.0874 0
M  V30 19314 C 1770.12 1.47298 4.14718 0
M  V30 19315 H 1767.24 0.376563 0.633537 0
M  V30 19316 H 1769.88 1.49571 1.17169 0
M  V30 19317 H 1768.03 1.33682 3.64776 0
M  V30 19318 H 1769.7 3.75839 2.67475 0
M  V30 19319 H 1767.94 3.57413 2.45843 0
M  V30 19320 H 1768.61 3.71096 4.08646 0
M  V30 19321 H 1771.09 1.81468 3.74444 0
M  V30 19322 H 1769.97 1.98633 5.11699 0
M  V30 19323 H 1770.23 0.402981 4.4026 0
M  V30 19324 N 1769.29 -1.19996 1.0217 0
M  V30 19325 C 1770.51 -1.94007 0.733207 0
M  V30 19326 C 1770.94 -1.74565 -0.70061 0
M  V30 19327 O 1770.29 -1.04326 -1.48276 0
M  V30 19328 C 1770.34 -3.44029 1.08057 0
M  V30 19329 O 1769.45 -4.11938 0.195135 0
M  V30 19330 H 1768.79 -0.605929 0.271562 0
M  V30 19331 H 1771.32 -1.5228 1.36645 0
M  V30 19332 H 1771.33 -3.94669 1.03443 0
M  V30 19333 H 1770 -3.57502 2.1252 0
M  V30 19334 H 1768.58 -3.71697 0.299246 0
M  V30 19335 N 1770.76 -0.798611 -1.35867 0
M  V30 19336 C 1771.67 -0.204758 -2.33705 0
M  V30 19337 C 1772.69 0.648001 -1.61484 0
M  V30 19338 O 1773.87 0.561628 -1.93411 0
M  V30 19339 C 1770.93 0.643225 -3.40681 0
M  V30 19340 C 1769.99 -0.229099 -4.28688 0
M  V30 19341 C 1769.22 0.578508 -5.30555 0
M  V30 19342 O 1769.45 1.81382 -5.40793 0
M  V30 19343 O 1768.38 -0.0264291 -6.01894 0
M  V30 19344 H 1772.21 -1.01392 -2.86275 0
M  V30 19345 H 1769.79 -0.560242 -1.38498 0
M  V30 19346 H 1771.67 1.12648 -4.06065 0
M  V30 19347 H 1770.35 1.43012 -2.90395 0
M  V30 19348 H 1769.26 -0.759314 -3.66313 0
M  V30 19349 H 1770.59 -0.979736 -4.82351 0
M  V30 19350 N 1772.24 1.47639 -0.551417 0
M  V30 19351 C 1773.47 2.06878 -0.0298904 0
M  V30 19352 C 1773.88 1.40493 1.26123 0
M  V30 19353 O 1773.24 0.499513 1.75531 0
M  V30 19354 C 1773.29 3.61074 0.175449 0
M  V30 19355 O 1773.01 4.2497 -1.06454 0
M  V30 19356 C 1774.51 4.37166 0.734919 0
M  V30 19357 H 1771.73 0.669607 -0.0432142 0
M  V30 19358 H 1774.28 1.89726 -0.763178 0
M  V30 19359 H 1772.43 3.7776 0.858848 0
M  V30 19360 H 1772.85 5.17424 -0.858644 0
M  V30 19361 H 1774.32 5.45756 0.827915 0
M  V30 19362 H 1774.8 4.03052 1.74486 0
M  V30 19363 H 1775.4 4.2521 0.0874045 0
M  V30 19364 N 1773.72 0.287581 1.54954 0
M  V30 19365 C 1774.97 -0.32561 1.99865 0
M  V30 19366 C 1775.3 -1.54921 1.176 0
M  V30 19367 O 1774.55 -1.94262 0.236802 0
M  V30 19368 C 1774.85 -0.739779 3.4966 0
M  V30 19369 C 1774.52 0.380573 4.49291 0
M  V30 19370 C 1773.18 0.688172 4.76254 0
M  V30 19371 C 1775.53 1.13489 5.08694 0
M  V30 19372 C 1772.86 1.75344 5.59885 0
M  V30 19373 C 1775.21 2.18998 5.93484 0
M  V30 19374 C 1773.87 2.50379 6.18762 0
M  V30 19375 H 1773.14 -0.119149 0.731358 0
M  V30 19376 H 1775.79 0.403889 1.87192 0
M  V30 19377 H 1774.1 -1.54915 3.59873 0
M  V30 19378 H 1775.79 -1.22518 3.81825 0
M  V30 19379 H 1772.38 0.130718 4.28401 0
M  V30 19380 H 1776.57 0.910505 4.87877 0
M  V30 19381 H 1771.82 2.00145 5.77713 0
M  V30 19382 H 1776 2.77913 6.38543 0
M  V30 19383 H 1773.62 3.33057 6.83357 0
M  V30 19384 N 1775.2 -1.57593 0.0150662 0
M  V30 19385 C 1776.45 -1.90836 -0.665282 0
M  V30 19386 C 1776.77 -0.890693 -1.73469 0
M  V30 19387 O 1776.04 0.0698113 -1.95776 0
M  V30 19388 H 1774.62 -0.704377 -0.24872 0
M  V30 19389 H 1777.28 -1.94809 0.0595521 0
M  V30 19390 H 1776.38 -2.91043 -1.12697 0
M  V30 19391 N 1776.68 0.257904 -1.55475 0
M  V30 19392 C 1777.91 1.00385 -1.80572 0
M  V30 19393 C 1778.31 1.79866 -0.586915 0
M  V30 19394 O 1777.66 1.78008 0.453747 0
M  V30 19395 C 1777.72 1.99828 -2.98846 0
M  V30 19396 C 1777.38 1.39144 -4.35302 0
M  V30 19397 C 1778.38 0.799456 -5.13717 0
M  V30 19398 C 1776.07 1.4141 -4.81984 0
M  V30 19399 C 1778.06 0.238228 -6.36955 0
M  V30 19400 C 1775.75 0.849019 -6.05173 0
M  V30 19401 C 1776.74 0.262096 -6.82497 0
M  V30 19402 O 1776.43 -0.294292 -8.03361 0
M  V30 19403 H 1776.16 0.301552 -0.605014 0
M  V30 19404 H 1778.72 0.289436 -2.03351 0
M  V30 19405 H 1776.95 2.7507 -2.71797 0
M  V30 19406 H 1778.64 2.60675 -3.11133 0
M  V30 19407 H 1779.4 0.774531 -4.78776 0
M  V30 19408 H 1775.28 1.86032 -4.21797 0
M  V30 19409 H 1778.83 -0.220518 -6.97251 0
M  V30 19410 H 1774.72 0.871235 -6.39593 0
M  V30 19411 H 1775.49 -0.185098 -8.18291 0
M  V30 19412 N 1778.15 1.48666 0.52309 0
M  V30 19413 C 1779.57 1.34939 0.852268 0
M  V30 19414 C 1779.77 0.365638 1.98155 0
M  V30 19415 O 1778.83 -0.210671 2.5162 0
M  V30 19416 C 1780.14 2.75136 1.21329 0
M  V30 19417 C 1781.69 2.83675 1.32278 0
M  V30 19418 C 1782.16 4.24589 1.71721 0
M  V30 19419 N 1783.65 4.27295 1.78811 0
M  V30 19420 C 1784.39 5.33274 2.10729 0
M  V30 19421 N 1783.88 6.49523 2.41023 0
M  V30 19422 N 1785.68 5.20673 2.11793 0
M  V30 19423 H 1777.83 2.11237 -0.221919 0
M  V30 19424 H 1780.09 0.947291 -0.0366525 0
M  V30 19425 H 1779.8 3.48717 0.457065 0
M  V30 19426 H 1779.67 3.091 2.16187 0
M  V30 19427 H 1782.06 2.10345 2.06976 0
M  V30 19428 H 1782.14 2.53321 0.355248 0
M  V30 19429 H 1781.78 4.98438 0.975805 0
M  V30 19430 H 1781.71 4.52391 2.69536 0
M  V30 19431 H 1784.2 3.43447 1.57648 0
M  V30 19432 H 1784.52 7.26125 2.64503 0
M  V30 19433 H 1782.86 6.52786 2.38528 0
M  V30 19434 H 1786.05 4.28869 1.87588 0
M  V30 19435 H 1786.23 6.03365 2.36336 0
M  V30 19436 N 1779.63 -0.772489 1.37369 0
M  V30 19437 C 1781.05 -1.07294 1.18153 0
M  V30 19438 C 1781.25 -2.01493 0.0171782 0
M  V30 19439 O 1780.3 -2.44177 -0.642964 0
M  V30 19440 C 1781.62 -1.67116 2.49986 0
M  V30 19441 C 1783.17 -1.79377 2.56501 0
M  V30 19442 C 1783.64 -2.42612 3.88463 0
M  V30 19443 N 1785.13 -2.50063 3.89901 0
M  V30 19444 C 1785.87 -2.99841 4.88756 0
M  V30 19445 N 1785.36 -3.49798 5.98008 0
M  V30 19446 N 1787.16 -2.98709 4.76161 0
M  V30 19447 H 1779.31 -0.147014 2.11891 0
M  V30 19448 H 1781.57 -0.127846 0.93934 0
M  V30 19449 H 1781.28 -1.05369 3.35545 0
M  V30 19450 H 1781.15 -2.6642 2.67021 0
M  V30 19451 H 1783.54 -2.40257 1.71349 0
M  V30 19452 H 1783.62 -0.788304 2.4335 0
M  V30 19453 H 1783.26 -1.82372 4.74029 0
M  V30 19454 H 1783.19 -3.43763 3.98917 0
M  V30 19455 H 1785.68 -2.14709 3.1098 0
M  V30 19456 H 1786 -3.86181 6.69391 0
M  V30 19457 H 1784.34 -3.47905 6.01654 0
M  V30 19458 H 1787.53 -2.5898 3.89932 0
M  V30 19459 H 1787.7 -3.37193 5.53358 0
M  V30 19460 N 1781.11 -1.21927 -0.998575 0
M  V30 19461 C 1782.04 -1.00845 -2.106 0
M  V30 19462 C 1783.02 0.068733 -1.69961 0
M  V30 19463 O 1784.21 -0.0923686 -1.9398 0
M  V30 19464 C 1781.34 -0.57929 -3.42435 0
M  V30 19465 C 1780.29 -1.60177 -3.96897 0
M  V30 19466 C 1779.62 -1.02863 -5.24713 0
M  V30 19467 C 1780.92 -2.9903 -4.28227 0
M  V30 19468 H 1782.61 -1.93469 -2.28495 0
M  V30 19469 H 1780.16 -0.931612 -1.09804 0
M  V30 19470 H 1782.11 -0.418944 -4.19312 0
M  V30 19471 H 1780.83 0.382608 -3.24351 0
M  V30 19472 H 1779.49 -1.74979 -3.22146 0
M  V30 19473 H 1779.14 -0.058254 -5.02966 0
M  V30 19474 H 1778.84 -1.71166 -5.62117 0
M  V30 19475 H 1780.36 -0.879743 -6.04229 0
M  V30 19476 H 1781.78 -2.87634 -4.95923 0
M  V30 19477 H 1780.18 -3.64404 -4.76791 0
M  V30 19478 H 1781.25 -3.4939 -3.36236 0
M  V30 19479 N 1782.59 1.19452 -1.02805 0
M  V30 19480 C 1783.5 2.2631 -0.618147 0
M  V30 19481 C 1784.51 1.70449 0.349712 0
M  V30 19482 O 1785.69 2.00325 0.207801 0
M  V30 19483 C 1782.76 3.46691 0.0255242 0
M  V30 19484 C 1781.82 4.17735 -0.98973 0
M  V30 19485 C 1781.05 5.32369 -0.376681 0
M  V30 19486 O 1781.27 5.64467 0.820584 0
M  V30 19487 O 1780.21 5.9178 -1.09911 0
M  V30 19488 H 1784.03 2.63611 -1.50807 0
M  V30 19489 H 1781.62 1.2629 -0.798192 0
M  V30 19490 H 1783.5 4.19643 0.384464 0
M  V30 19491 H 1782.17 3.1124 0.889467 0
M  V30 19492 H 1781.08 3.46906 -1.40024 0
M  V30 19493 H 1782.41 4.57155 -1.82402 0
M  V30 19494 N 1784.07 0.805805 1.35442 0
M  V30 19495 C 1785.34 0.309105 1.93142 0
M  V30 19496 C 1785.72 -1.20119 1.73593 0
M  V30 19497 O 1785.07 -2.00034 1.10448 0
M  V30 19498 C 1785.28 0.719653 3.415 0
M  V30 19499 C 1786.63 0.708697 4.18644 0
M  V30 19500 O 1787.65 0.661148 3.5001 0
M  V30 19501 O 1786.51 0.76636 5.411 0
M  V30 19502 H 1783.61 0.0806647 0.823057 0
M  V30 19503 H 1786.15 0.88945 1.44523 0
M  V30 19504 H 1784.92 1.7606 3.49455 0
M  V30 19505 H 1784.55 0.114073 3.97436 0
M  V30 19506 N 1785.54 -1.47344 0.559239 0
M  V30 19507 C 1786.79 -2.02468 0.035943 0
M  V30 19508 C 1787.12 -1.43337 -1.31472 0
M  V30 19509 O 1786.37 -0.579355 -1.86928 0
M  V30 19510 C 1786.67 -3.57247 -0.104523 0
M  V30 19511 C 1786.34 -4.35307 1.17551 0
M  V30 19512 C 1785 -4.56354 1.52625 0
M  V30 19513 C 1787.35 -4.8031 2.02365 0
M  V30 19514 C 1784.68 -5.19653 2.72356 0
M  V30 19515 C 1787.03 -5.4493 3.213 0
M  V30 19516 C 1785.7 -5.64209 3.56685 0
M  V30 19517 H 1784.97 -0.740883 0.0131525 0
M  V30 19518 H 1787.61 -1.76992 0.73116 0
M  V30 19519 H 1785.92 -3.81727 -0.88272 0
M  V30 19520 H 1787.62 -3.97551 -0.5248 0
M  V30 19521 H 1784.21 -4.19206 0.892413 0
M  V30 19522 H 1788.39 -4.63827 1.76575 0
M  V30 19523 H 1783.65 -5.32773 2.99938 0
M  V30 19524 H 1787.82 -5.78764 3.87305 0
M  V30 19525 H 1785.45 -6.13028 4.49556 0
M  V30 19526 N 1787.02 -0.295795 -1.54799 0
M  V30 19527 C 1787.96 0.624485 -2.19489 0
M  V30 19528 C 1788.93 1.1368 -1.16257 0
M  V30 19529 O 1790.12 1.20596 -1.44875 0
M  V30 19530 C 1787.24 1.85387 -2.8346 0
M  V30 19531 C 1786.29 1.47524 -4.00173 0
M  V30 19532 S 1787.12 0.535637 -5.32814 0
M  V30 19533 C 1788.28 1.77293 -6.00265 0
M  V30 19534 H 1788.51 0.0748912 -2.97206 0
M  V30 19535 H 1786.05 -0.0799541 -1.54193 0
M  V30 19536 H 1788 2.55941 -3.20943 0
M  V30 19537 H 1786.66 2.37462 -2.05598 0
M  V30 19538 H 1785.86 2.39058 -4.43697 0
M  V30 19539 H 1785.46 0.849697 -3.6422 0
M  V30 19540 H 1787.75 2.7142 -6.20756 0
M  V30 19541 H 1788.69 1.38035 -6.94516 0
M  V30 19542 H 1789.1 1.94728 -5.2985 0
M  V30 19543 N 1788.5 1.57583 -0.0234236 0
M  V30 19544 C 1789.46 2.08797 0.945325 0
M  V30 19545 C 1790.46 1.00189 1.25773 0
M  V30 19546 O 1791.65 1.2637 1.19901 0
M  V30 19547 C 1788.79 2.54906 2.26353 0
M  V30 19548 H 1789.98 2.95671 0.50187 0
M  V30 19549 H 1787.53 1.54679 0.224507 0
M  V30 19550 H 1788.27 1.71345 2.75339 0
M  V30 19551 H 1788.05 3.34247 2.04991 0
M  V30 19552 H 1789.54 2.94774 2.95801 0
M  V30 19553 N 1789.98 -0.249655 1.5561 0
M  V30 19554 C 1791.2 -0.999931 1.81703 0
M  V30 19555 C 1791.63 -1.7827 0.600113 0
M  V30 19556 O 1790.99 -1.75606 -0.450799 0
M  V30 19557 C 1791.04 -1.9157 3.05505 0
M  V30 19558 O 1790.14 -3.00702 2.82227 0
M  V30 19559 H 1789.48 -0.284673 0.599881 0
M  V30 19560 H 1792.01 -0.27148 2.02791 0
M  V30 19561 H 1792.02 -2.33088 3.34864 0
M  V30 19562 H 1790.7 -1.34014 3.93717 0
M  V30 19563 H 1789.27 -2.63332 2.64027 0
M  V30 19564 N 1791.46 -1.48941 -0.515198 0
M  V30 19565 C 1792.41 -1.60958 -1.61482 0
M  V30 19566 C 1793.39 -0.46591 -1.54007 0
M  V30 19567 O 1794.58 -0.718134 -1.61777 0
M  V30 19568 C 1791.71 -1.66623 -3.00153 0
M  V30 19569 C 1790.8 -2.8652 -3.12677 0
M  V30 19570 N 1791.19 -4.10769 -2.95131 0
M  V30 19571 C 1789.49 -2.84161 -3.43756 0
M  V30 19572 C 1790.19 -4.9129 -3.11463 0
M  V30 19573 N 1789.16 -4.24384 -3.39704 0
M  V30 19574 H 1792.97 -2.54756 -1.46549 0
M  V30 19575 H 1790.48 -1.45517 -0.721007 0
M  V30 19576 H 1792.48 -1.73328 -3.79161 0
M  V30 19577 H 1791.14 -0.739523 -3.16166 0
M  V30 19578 H 1792.15 -4.40974 -2.71593 0
M  V30 19579 H 1788.83 -2.00809 -3.66035 0
M  V30 19580 H 1790.22 -5.99948 -3.0251 0
M  V30 19581 N 1792.94 0.765193 -1.37777 0
M  V30 19582 C 1793.87 1.89247 -1.36777 0
M  V30 19583 C 1794.85 1.68463 -0.235389 0
M  V30 19584 O 1796.03 1.89225 -0.436733 0
M  V30 19585 C 1793.16 3.2662 -1.18053 0
M  V30 19586 C 1792.12 3.61981 -2.28372 0
M  V30 19587 C 1791.44 4.97967 -1.94765 0
M  V30 19588 C 1792.74 3.68053 -3.70587 0
M  V30 19589 H 1794.44 1.90341 -2.31108 0
M  V30 19590 H 1791.98 0.914355 -1.11245 0
M  V30 19591 H 1793.93 4.05125 -1.15982 0
M  V30 19592 H 1792.66 3.25976 -0.201803 0
M  V30 19593 H 1791.32 2.85788 -2.2961 0
M  V30 19594 H 1790.97 4.93869 -0.954052 0
M  V30 19595 H 1790.67 5.22594 -2.68642 0
M  V30 19596 H 1792.19 5.78864 -1.94292 0
M  V30 19597 H 1793.6 4.36696 -3.71443 0
M  V30 19598 H 1792 4.04183 -4.43572 0
M  V30 19599 H 1793.07 2.68556 -4.03739 0
M  V30 19600 N 1794.41 1.22455 0.992094 0
M  V30 19601 C 1795.69 0.958091 1.70529 0
M  V30 19602 C 1796.07 -0.526595 2.04426 0
M  V30 19603 O 1795.42 -1.49483 1.72821 0
M  V30 19604 C 1795.63 1.85646 2.95528 0
M  V30 19605 C 1796.98 2.11301 3.68289 0
M  V30 19606 O 1798 1.831 3.05537 0
M  V30 19607 O 1796.86 2.59068 4.81192 0
M  V30 19608 H 1793.95 0.360375 0.744351 0
M  V30 19609 H 1796.5 1.33444 1.04837 0
M  V30 19610 H 1795.27 2.86067 2.66986 0
M  V30 19611 H 1794.89 1.48174 3.68958 0
M  V30 19612 N 1795.89 -1.18905 1.03437 0
M  V30 19613 C 1797.12 -1.92398 0.752759 0
M  V30 19614 C 1797.53 -1.76048 -0.693091 0
M  V30 19615 O 1796.87 -1.08335 -1.48355 0
M  V30 19616 C 1796.93 -3.44392 1.03124 0
M  V30 19617 C 1796.6 -3.84516 2.46974 0
M  V30 19618 C 1797.6 -3.8882 3.4513 0
M  V30 19619 C 1795.28 -4.15996 2.81519 0
M  V30 19620 C 1797.27 -4.24043 4.75885 0
M  V30 19621 C 1794.96 -4.5089 4.12482 0
M  V30 19622 C 1795.96 -4.54889 5.09475 0
M  V30 19623 O 1795.65 -4.88973 6.38091 0
M  V30 19624 H 1795.38 -0.617814 0.274375 0
M  V30 19625 H 1797.93 -1.51828 1.38338 0
M  V30 19626 H 1796.16 -3.85172 0.343482 0
M  V30 19627 H 1797.85 -3.99127 0.738423 0
M  V30 19628 H 1798.62 -3.64645 3.1978 0
M  V30 19629 H 1794.5 -4.12064 2.06699 0
M  V30 19630 H 1798.04 -4.27079 5.51588 0
M  V30 19631 H 1793.94 -4.74525 4.37603 0
M  V30 19632 H 1794.71 -5.069 6.42647 0
M  V30 19633 N 1797.37 -0.812977 -1.35013 0
M  V30 19634 C 1798.3 -0.242397 -2.32238 0
M  V30 19635 C 1799.28 0.635676 -1.57776 0
M  V30 19636 O 1800.47 0.564621 -1.85811 0
M  V30 19637 C 1797.6 0.604686 -3.41995 0
M  V30 19638 C 1796.55 -0.17542 -4.2764 0
M  V30 19639 C 1795.88 0.793772 -5.28775 0
M  V30 19640 C 1797.18 -1.37802 -5.03794 0
M  V30 19641 H 1798.87 -1.0547 -2.80208 0
M  V30 19642 H 1796.42 -0.508619 -1.34718 0
M  V30 19643 H 1798.37 1.01396 -4.09019 0
M  V30 19644 H 1797.09 1.44994 -2.9265 0
M  V30 19645 H 1795.75 -0.565948 -3.62205 0
M  V30 19646 H 1795.4 1.63471 -4.75696 0
M  V30 19647 H 1795.1 0.276085 -5.86951 0
M  V30 19648 H 1796.62 1.20112 -5.9867 0
M  V30 19649 H 1798.04 -1.04328 -5.63727 0
M  V30 19650 H 1796.43 -1.83064 -5.71496 0
M  V30 19651 H 1797.5 -2.16138 -4.34065 0
M  V30 19652 N 1798.85 1.47045 -0.567045 0
M  V30 19653 C 1800.09 2.02746 -0.046749 0
M  V30 19654 C 1800.43 1.4394 1.30364 0
M  V30 19655 O 1799.7 0.598616 1.85059 0
M  V30 19656 C 1799.98 3.60082 0.0358156 0
M  V30 19657 C 1799.84 4.29302 -1.34237 0
M  V30 19658 C 1801.16 4.3376 0.744338 0
M  V30 19659 H 1798.28 0.736769 -0.0184627 0
M  V30 19660 H 1800.92 1.75365 -0.73123 0
M  V30 19661 H 1799.07 3.83541 0.618745 0
M  V30 19662 H 1800.74 4.17155 -1.96926 0
M  V30 19663 H 1798.98 3.89273 -1.91439 0
M  V30 19664 H 1799.65 5.37956 -1.23722 0
M  V30 19665 H 1802.13 4.15353 0.249287 0
M  V30 19666 H 1801.01 5.43457 0.771095 0
M  V30 19667 H 1801.27 4.03686 1.80249 0
M  V30 19668 N 1800.33 0.304 1.5464 0
M  V30 19669 C 1801.26 -0.563854 2.2659 0
M  V30 19670 C 1802.24 -1.13547 1.26653 0
M  V30 19671 O 1803.42 -1.16425 1.55431 0
M  V30 19672 C 1800.55 -1.73437 3.00894 0
M  V30 19673 C 1799.51 -1.29297 4.08003 0
M  V30 19674 C 1798.83 -2.54888 4.70038 0
M  V30 19675 C 1800.13 -0.422027 5.20592 0
M  V30 19676 H 1801.83 0.0362569 2.99378 0
M  V30 19677 H 1799.37 0.0188781 1.43988 0
M  V30 19678 H 1801.32 -2.34762 3.4995 0
M  V30 19679 H 1800.05 -2.36076 2.25689 0
M  V30 19680 H 1798.71 -0.702757 3.59801 0
M  V30 19681 H 1798.36 -3.15848 3.9147 0
M  V30 19682 H 1798.06 -2.26054 5.42378 0
M  V30 19683 H 1799.58 -3.17011 5.21859 0
M  V30 19684 H 1800.99 -0.941036 5.65524 0
M  V30 19685 H 1799.39 -0.227323 5.99669 0
M  V30 19686 H 1800.46 0.55212 4.81746 0
M  V30 19687 N 1801.8 -1.57568 0.0317802 0
M  V30 19688 C 1802.71 -2.13842 -0.964811 0
M  V30 19689 C 1803.73 -1.09134 -1.3552 0
M  V30 19690 O 1804.91 -1.41205 -1.43608 0
M  V30 19691 C 1801.97 -2.65654 -2.22775 0
M  V30 19692 C 1801.03 -3.85087 -1.89753 0
M  V30 19693 C 1800.26 -4.34419 -3.10026 0
M  V30 19694 O 1800.49 -3.8291 -4.22772 0
M  V30 19695 O 1799.42 -5.26233 -2.92169 0
M  V30 19696 H 1803.25 -2.99279 -0.516302 0
M  V30 19697 H 1800.83 -1.482 -0.188982 0
M  V30 19698 H 1802.71 -2.99035 -2.96911 0
M  V30 19699 H 1801.39 -1.83299 -2.66802 0
M  V30 19700 H 1800.3 -3.56628 -1.12994 0
M  V30 19701 H 1801.63 -4.68613 -1.50541 0
M  V30 19702 N 1803.28 0.241399 -1.5574 0
M  V30 19703 C 1804.53 0.965816 -1.79007 0
M  V30 19704 C 1804.88 1.82752 -0.601607 0
M  V30 19705 O 1804.18 1.87271 0.404993 0
M  V30 19706 C 1804.37 1.8552 -3.05478 0
M  V30 19707 C 1804.2 1.08108 -4.36512 0
M  V30 19708 C 1802.97 0.783962 -4.99181 0
M  V30 19709 C 1805.17 0.455982 -5.12275 0
M  V30 19710 N 1803.15 -0.0136458 -6.13898 0
M  V30 19711 C 1804.52 -0.205944 -6.19658 0
M  V30 19712 C 1806.58 0.367003 -4.96546 0
M  V30 19713 C 1805.28 -0.94831 -7.13021 0
M  V30 19714 C 1807.3 -0.361846 -5.90292 0
M  V30 19715 C 1806.67 -1.01239 -6.97087 0
M  V30 19716 H 1802.77 0.334342 -0.706923 0
M  V30 19717 H 1805.35 0.238447 -1.93234 0
M  V30 19718 H 1803.52 2.55455 -2.9257 0
M  V30 19719 H 1805.25 2.51559 -3.17017 0
M  V30 19720 H 1802.01 1.09711 -4.60717 0
M  V30 19721 H 1802.43 -0.400704 -6.75813 0
M  V30 19722 H 1807.07 0.85562 -4.14052 0
M  V30 19723 H 1804.79 -1.44851 -7.95012 0
M  V30 19724 H 1808.38 -0.431432 -5.80198 0
M  V30 19725 H 1807.26 -1.56736 -7.68377 0
M  V30 19726 N 1804.76 1.49212 0.507292 0
M  V30 19727 C 1805.69 1.68326 1.61829 0
M  V30 19728 C 1806.67 0.531969 1.61568 0
M  V30 19729 O 1807.86 0.767104 1.78407 0
M  V30 19730 C 1804.99 1.74394 3.0034 0
M  V30 19731 C 1803.94 2.89251 3.15465 0
M  V30 19732 C 1803.27 2.80426 4.55264 0
M  V30 19733 C 1804.57 4.30269 2.96085 0
M  V30 19734 H 1806.26 2.6134 1.46087 0
M  V30 19735 H 1803.81 1.25765 0.701367 0
M  V30 19736 H 1805.76 1.86353 3.77956 0
M  V30 19737 H 1804.48 0.779748 3.17155 0
M  V30 19738 H 1803.14 2.76884 2.40272 0
M  V30 19739 H 1802.79 1.81928 4.68947 0
M  V30 19740 H 1802.49 3.57511 4.66326 0
M  V30 19741 H 1804.01 2.94384 5.34949 0
M  V30 19742 H 1805.43 4.4335 3.63475 0
M  V30 19743 H 1803.83 5.08527 3.18623 0
M  V30 19744 H 1804.9 4.45151 1.92272 0
M  V30 19745 N 1806.24 -0.757876 1.38181 0
M  V30 19746 C 1807.19 -1.8929 1.35174 0
M  V30 19747 C 1808.18 -1.67716 0.238284 0
M  V30 19748 O 1809.39 -1.75336 0.407085 0
M  V30 19749 H 1805.76 -0.622712 0.421585 0
M  V30 19750 H 1807.73 -1.88943 2.30961 0
M  V30 19751 C 1806.48 -3.26723 1.18942 0
M  V30 19752 H 1805.8 -3.43909 2.0388 0
M  V30 19753 H 1807.24 -4.06401 1.20891 0
M  V30 19754 C 1805.7 -3.3674 -0.103978 0
M  V30 19755 O 1806.23 -3.86838 -1.08256 0
M  V30 19756 N 1804.44 -2.90163 -0.159367 0
M  V30 19757 H 1803.99 -2.49583 0.637642 0
M  V30 19758 H 1803.94 -2.97245 -1.02435 0
M  V30 19759 N 1807.72 -1.22979 -0.985586 0
M  V30 19760 C 1808.65 -1.03073 -2.09519 0
M  V30 19761 C 1809.63 0.0507025 -1.70024 0
M  V30 19762 O 1810.81 -0.112938 -1.93871 0
M  V30 19763 C 1807.94 -0.615578 -3.41801 0
M  V30 19764 C 1806.9 -1.64377 -3.95176 0
M  V30 19765 C 1806.22 -1.08422 -5.23592 0
M  V30 19766 C 1807.52 -3.03555 -4.25032 0
M  V30 19767 H 1809.22 -1.95882 -2.2643 0
M  V30 19768 H 1806.76 -0.943206 -1.0881 0
M  V30 19769 H 1808.72 -0.463394 -4.18844 0
M  V30 19770 H 1807.44 0.348185 -3.24739 0
M  V30 19771 H 1806.1 -1.78386 -3.20272 0
M  V30 19772 H 1805.75 -0.111597 -5.02876 0
M  V30 19773 H 1805.45 -1.77118 -5.6027 0
M  V30 19774 H 1806.97 -0.94378 -6.03262 0
M  V30 19775 H 1808.38 -2.92878 -4.92844 0
M  V30 19776 H 1806.78 -3.69441 -4.72899 0
M  V30 19777 H 1807.85 -3.52937 -3.32511 0
M  V30 19778 N 1809.19 1.18355 -1.04066 0
M  V30 19779 C 1810.13 2.21482 -0.58977 0
M  V30 19780 C 1811.14 1.59198 0.340576 0
M  V30 19781 O 1812.33 1.77988 0.135094 0
M  V30 19782 C 1809.43 3.3853 0.158397 0
M  V30 19783 C 1808.6 4.30392 -0.779824 0
M  V30 19784 C 1807.66 5.26147 -0.0749517 0
M  V30 19785 O 1806.69 5.64812 -0.705381 0
M  V30 19786 N 1807.89 5.68137 1.19168 0
M  V30 19787 H 1810.65 2.60791 -1.47676 0
M  V30 19788 H 1808.21 1.33141 -0.921151 0
M  V30 19789 H 1810.21 3.99611 0.639788 0
M  V30 19790 H 1808.78 2.97913 0.946929 0
M  V30 19791 H 1808 3.66915 -1.44107 0
M  V30 19792 H 1809.28 4.88668 -1.41707 0
M  V30 19793 H 1808.68 5.38777 1.7244 0
M  V30 19794 H 1807.24 6.31415 1.61735 0
M  V30 19795 N 1810.67 0.820125 1.3458 0
M  V30 19796 C 1811.95 0.329573 1.92803 0
M  V30 19797 C 1812.33 -1.18271 1.74858 0
M  V30 19798 O 1811.68 -1.98851 1.12564 0
M  V30 19799 C 1811.89 0.755833 3.40717 0
M  V30 19800 C 1813.24 0.75306 4.17869 0
M  V30 19801 O 1814.26 0.698235 3.49289 0
M  V30 19802 O 1813.12 0.823708 5.40257 0
M  V30 19803 H 1810.21 0.0893898 0.822155 0
M  V30 19804 H 1812.76 0.904729 1.43571 0
M  V30 19805 H 1811.53 1.79757 3.47568 0
M  V30 19806 H 1811.15 0.15622 3.97293 0
M  V30 19807 N 1812.15 -1.46743 0.574835 0
M  V30 19808 C 1813.38 -2.06805 0.0627992 0
M  V30 19809 C 1813.79 -1.42482 -1.23872 0
M  V30 19810 O 1813.15 -0.527375 -1.74714 0
M  V30 19811 C 1813.2 -3.61307 -0.117983 0
M  V30 19812 O 1812.92 -4.23222 1.13201 0
M  V30 19813 C 1814.42 -4.3828 -0.665277 0
M  V30 19814 H 1811.64 -0.668835 0.0538616 0
M  V30 19815 H 1814.19 -1.88488 0.793265 0
M  V30 19816 H 1812.34 -3.79078 -0.798641 0
M  V30 19817 H 1812.76 -5.15992 0.940853 0
M  V30 19818 H 1814.23 -5.47004 -0.740985 0
M  V30 19819 H 1814.71 -4.05777 -1.68052 0
M  V30 19820 H 1815.31 -4.25295 -0.0197462 0
M  V30 19821 N 1813.63 -0.312197 -1.54477 0
M  V30 19822 C 1814.54 0.568096 -2.27618 0
M  V30 19823 C 1815.55 1.13892 -1.31547 0
M  V30 19824 O 1816.73 1.16131 -1.64546 0
M  V30 19825 C 1813.8 1.71843 -3.01116 0
M  V30 19826 C 1812.86 1.18056 -4.12748 0
M  V30 19827 C 1812.09 2.27607 -4.82733 0
M  V30 19828 O 1812.31 3.4773 -4.52151 0
M  V30 19829 O 1811.25 1.93667 -5.69892 0
M  V30 19830 H 1815.07 -0.0255513 -3.03689 0
M  V30 19831 H 1812.66 -0.0782698 -1.49195 0
M  V30 19832 H 1814.54 2.38839 -3.4718 0
M  V30 19833 H 1813.21 2.29847 -2.2793 0
M  V30 19834 H 1812.12 0.476007 -3.71059 0
M  V30 19835 H 1813.45 0.645802 -4.87945 0
M  V30 19836 N 1815.11 1.57549 -0.040136 0
M  V30 19837 C 1816.34 1.96272 0.645049 0
M  V30 19838 C 1816.74 0.915804 1.65559 0
M  V30 19839 O 1816.09 -0.109666 1.83372 0
M  V30 19840 C 1816.15 3.31187 1.3984 0
M  V30 19841 C 1815.81 4.53739 0.544953 0
M  V30 19842 C 1816.81 5.19573 -0.184369 0
M  V30 19843 C 1814.5 5.0001 0.479119 0
M  V30 19844 C 1816.49 6.30006 -0.968081 0
M  V30 19845 C 1814.18 6.10322 -0.30829 0
M  V30 19846 C 1815.17 6.7518 -1.03059 0
M  V30 19847 O 1814.86 7.83373 -1.80507 0
M  V30 19848 H 1814.59 0.651051 0.181958 0
M  V30 19849 H 1817.15 2.05159 -0.0995179 0
M  V30 19850 H 1815.38 3.18823 2.18835 0
M  V30 19851 H 1817.07 3.54735 1.97276 0
M  V30 19852 H 1817.83 4.84789 -0.142908 0
M  V30 19853 H 1813.71 4.49325 1.0309 0
M  V30 19854 H 1817.26 6.80562 -1.53237 0
M  V30 19855 H 1813.15 6.44543 -0.351428 0
M  V30 19856 H 1813.92 8.00094 -1.72601 0
M  V30 19857 N 1816.58 -0.233136 1.55866 0
M  V30 19858 C 1817.53 -1.3085 1.92304 0
M  V30 19859 C 1818.53 -1.49121 0.803693 0
M  V30 19860 O 1819.73 -1.50433 0.988433 0
M  V30 19861 H 1816.11 -0.438451 0.610954 0
M  V30 19862 H 1818.08 -0.973925 2.82059 0
M  V30 19863 C 1816.83 -2.65415 2.24611 0
M  V30 19864 H 1816.15 -2.5216 3.10251 0
M  V30 19865 H 1817.59 -3.395 2.54 0
M  V30 19866 C 1816.05 -3.1955 1.0672 0
M  V30 19867 O 1816.58 -4.00405 0.322308 0
M  V30 19868 N 1814.79 -2.77764 0.854123 0
M  V30 19869 H 1814.33 -2.12122 1.46157 0
M  V30 19870 H 1814.29 -3.14329 0.0670326 0
M  V30 19871 N 1818.06 -1.49479 -0.499372 0
M  V30 19872 C 1818.99 -1.69182 -1.60934 0
M  V30 19873 C 1819.97 -0.54053 -1.61283 0
M  V30 19874 O 1821.16 -0.776554 -1.77998 0
M  V30 19875 C 1818.29 -1.75985 -2.99411 0
M  V30 19876 C 1817.24 -2.9092 -3.13926 0
M  V30 19877 C 1816.57 -2.82837 -4.5377 0
M  V30 19878 C 1817.87 -4.31833 -2.93799 0
M  V30 19879 H 1819.56 -2.62112 -1.44699 0
M  V30 19880 H 1817.11 -1.26135 -0.694688 0
M  V30 19881 H 1819.06 -1.88354 -3.76962 0
M  V30 19882 H 1817.79 -0.796557 -3.16737 0
M  V30 19883 H 1816.45 -2.78155 -2.388 0
M  V30 19884 H 1816.09 -1.84412 -4.67976 0
M  V30 19885 H 1815.79 -3.59979 -4.64423 0
M  V30 19886 H 1817.32 -2.97217 -5.3338 0
M  V30 19887 H 1818.73 -4.45271 -3.61119 0
M  V30 19888 H 1817.13 -5.10209 -3.15922 0
M  V30 19889 H 1818.2 -4.46165 -1.89908 0
M  V30 19890 N 1819.54 0.750537 -1.38581 0
M  V30 19891 C 1820.77 1.54489 -1.38376 0
M  V30 19892 C 1821.19 1.88085 0.023634 0
M  V30 19893 O 1820.55 1.50794 1.00652 0
M  V30 19894 C 1820.6 2.81875 -2.24897 0
M  V30 19895 O 1819.7 3.77155 -1.66817 0
M  V30 19896 H 1819.04 0.467148 -0.471878 0
M  V30 19897 H 1821.57 0.927264 -1.82381 0
M  V30 19898 H 1821.58 3.30769 -2.38864 0
M  V30 19899 H 1820.26 2.56753 -3.27186 0
M  V30 19900 H 1818.83 3.35868 -1.62009 0
M  V30 19901 N 1821.02 1.235 0.979051 0
M  V30 19902 C 1822.24 1.09551 1.76106 0
M  V30 19903 C 1822.67 -0.348792 1.84838 0
M  V30 19904 O 1822.03 -1.25231 1.31099 0
M  V30 19905 C 1822.08 1.7272 3.16544 0
M  V30 19906 O 1821.18 0.990263 4.00334 0
M  V30 19907 H 1820.52 0.383909 0.541766 0
M  V30 19908 H 1823.05 1.63581 1.22892 0
M  V30 19909 H 1823.06 1.78014 3.67117 0
M  V30 19910 H 1821.74 2.77813 3.09504 0
M  V30 19911 H 1820.31 1.01436 3.58839 0
M  V30 19912 N 1822.5 -1.17802 1.04693 0
M  V30 19913 C 1823.74 -1.87938 0.754024 0
M  V30 19914 C 1824.07 -1.80737 -0.718644 0
M  V30 19915 O 1823.33 -1.20657 -1.54079 0
M  V30 19916 C 1823.63 -3.37585 1.17349 0
M  V30 19917 C 1823.29 -3.6499 2.64751 0
M  V30 19918 C 1821.95 -3.72179 3.05019 0
M  V30 19919 C 1824.31 -3.76869 3.60027 0
M  V30 19920 C 1821.63 -3.88731 4.39437 0
M  V30 19921 C 1823.99 -3.94939 4.94172 0
M  V30 19922 C 1822.65 -4.00365 5.34101 0
M  V30 19923 H 1821.92 -0.687714 0.275917 0
M  V30 19924 H 1824.57 -1.39392 1.31309 0
M  V30 19925 H 1822.87 -3.88153 0.533333 0
M  V30 19926 H 1824.57 -3.90206 0.924134 0
M  V30 19927 H 1821.16 -3.60016 2.32565 0
M  V30 19928 H 1825.34 -3.70641 3.30059 0
M  V30 19929 H 1820.6 -3.91179 4.69882 0
M  V30 19930 H 1824.77 -4.03072 5.67896 0
M  V30 19931 H 1822.4 -4.12944 6.38264 0
M  V30 19932 N 1823.98 -0.827251 -1.34143 0
M  V30 19933 C 1825.39 -0.475645 -1.80539 0
M  V30 19934 C 1825.74 1.00435 -1.68545 0
M  V30 19935 O 1824.86 1.78186 -1.22795 0
M  V30 19936 C 1825.46 -0.856588 -3.27793 0
M  V30 19937 C 1824.02 -0.557289 -3.72252 0
M  V30 19938 C 1823.16 -1.07118 -2.55775 0
M  V30 19939 H 1826.11 -1.01703 -1.21829 0
M  V30 19940 H 1826.14 -0.162059 -3.80155 0
M  V30 19941 H 1825.65 -1.93379 -3.36491 0
M  V30 19942 H 1823.75 0.510328 -3.69089 0
M  V30 19943 H 1823.86 -1.10438 -4.66198 0
M  V30 19944 H 1822.23 -0.492534 -2.49892 0
M  V30 19945 H 1823.01 -2.15492 -2.67242 0
M  V30 19946 N 1825.45 1.46436 -0.582609 0
M  V30 19947 C 1826.7 2.02385 -0.0681494 0
M  V30 19948 C 1827.03 1.4541 1.29175 0
M  V30 19949 O 1826.28 0.609021 1.85982 0
M  V30 19950 C 1826.58 3.57368 0.0476745 0
M  V30 19951 C 1826.25 4.33382 -1.24462 0
M  V30 19952 C 1824.91 4.53868 -1.59866 0
M  V30 19953 C 1827.26 4.7703 -2.09981 0
M  V30 19954 C 1824.59 5.15254 -2.80589 0
M  V30 19955 C 1826.94 5.39749 -3.29929 0
M  V30 19956 C 1825.61 5.58463 -3.65616 0
M  V30 19957 H 1824.88 0.74058 -0.0249376 0
M  V30 19958 H 1827.52 1.75807 -0.759226 0
M  V30 19959 H 1825.83 3.83083 0.821879 0
M  V30 19960 H 1827.53 3.98336 0.461487 0
M  V30 19961 H 1824.12 4.17734 -0.958993 0
M  V30 19962 H 1828.3 4.60959 -1.83931 0
M  V30 19963 H 1823.56 5.27934 -3.08376 0
M  V30 19964 H 1827.73 5.72529 -3.96464 0
M  V30 19965 H 1825.36 6.05799 -4.59252 0
M  V30 19966 N 1826.93 0.320385 1.54309 0
M  V30 19967 C 1828.18 -0.284021 1.9969 0
M  V30 19968 C 1828.49 -1.53496 1.21237 0
M  V30 19969 O 1829.7 -2.21517 1.5698 0
M  V30 19970 C 1828.16 -0.556621 3.5557 0
M  V30 19971 C 1827.76 0.677086 4.42854 0
M  V30 19972 C 1829.51 -1.12116 4.09427 0
M  V30 19973 C 1827.41 0.376566 5.902 0
M  V30 19974 H 1826.34 -0.109905 0.745947 0
M  V30 19975 H 1829 0.432113 1.7834 0
M  V30 19976 H 1827.38 -1.33286 3.72895 0
M  V30 19977 H 1828.55 1.45266 4.37304 0
M  V30 19978 H 1826.87 1.16161 3.99869 0
M  V30 19979 H 1829.46 -1.36057 5.171 0
M  V30 19980 H 1829.81 -2.06954 3.61215 0
M  V30 19981 H 1830.34 -0.406174 3.95721 0
M  V30 19982 H 1827.08 1.29403 6.426 0
M  V30 19983 H 1826.6 -0.36136 5.9871 0
M  V30 19984 H 1828.28 -0.014773 6.46998 0
M  V30 19985 N 1828.41 -1.57525 0.0484906 0
M  V30 19986 C 1829.34 -2.14405 -0.924811 0
M  V30 19987 C 1830.32 -1.06503 -1.32631 0
M  V30 19988 O 1831.51 -1.3443 -1.4015 0
M  V30 19989 C 1828.64 -2.68686 -2.20057 0
M  V30 19990 C 1827.59 -3.81547 -1.93922 0
M  V30 19991 C 1826.92 -4.22334 -3.27929 0
M  V30 19992 C 1828.22 -5.06801 -1.26295 0
M  V30 19993 H 1829.91 -2.95983 -0.45105 0
M  V30 19994 H 1827.46 -1.42378 -0.215514 0
M  V30 19995 H 1829.41 -3.07117 -2.88543 0
M  V30 19996 H 1828.13 -1.84296 -2.69634 0
M  V30 19997 H 1826.79 -3.43585 -1.27848 0
M  V30 19998 H 1826.44 -3.34899 -3.75302 0
M  V30 19999 H 1826.14 -4.984 -3.11242 0
M  V30 20000 H 1827.66 -4.63363 -3.97652 0
M  V30 20001 H 1829.08 -5.42695 -1.84812 0
M  V30 20002 H 1827.47 -5.87991 -1.19943 0
M  V30 20003 H 1828.54 -4.84313 -0.238605 0
M  V30 20004 N 1829.89 0.224867 -1.55988 0
M  V30 20005 C 1830.82 1.28192 -1.95164 0
M  V30 20006 C 1831.8 1.49062 -0.81942 0
M  V30 20007 O 1832.98 1.61301 -1.08146 0
M  V30 20008 C 1830.11 2.63237 -2.26547 0
M  V30 20009 C 1829.07 2.57029 -3.42228 0
M  V30 20010 C 1828.39 3.96073 -3.59207 0
M  V30 20011 C 1829.69 2.12101 -4.77295 0
M  V30 20012 H 1831.39 0.956495 -2.8371 0
M  V30 20013 H 1828.93 0.458673 -1.365 0
M  V30 20014 H 1830.89 3.37341 -2.52545 0
M  V30 20015 H 1829.61 2.97461 -1.3485 0
M  V30 20016 H 1828.27 1.85382 -3.16273 0
M  V30 20017 H 1827.92 4.27599 -2.64892 0
M  V30 20018 H 1827.62 3.92802 -4.37013 0
M  V30 20019 H 1829.14 4.71844 -3.8755 0
M  V30 20020 H 1830.56 2.75946 -5.0252 0
M  V30 20021 H 1828.95 2.19895 -5.5836 0
M  V30 20022 H 1830.02 1.07319 -4.72875 0
M  V30 20023 N 1831.37 1.49742 0.491438 0
M  V30 20024 C 1832.31 1.67614 1.61271 0
M  V30 20025 C 1833.31 0.542004 1.60495 0
M  V30 20026 O 1834.51 0.721922 1.64889 0
M  V30 20027 H 1830.89 0.528696 0.534775 0
M  V30 20028 H 1832.86 2.61711 1.43352 0
M  V30 20029 C 1831.61 1.76877 2.99349 0
M  V30 20030 H 1830.93 2.63526 3.00656 0
M  V30 20031 H 1832.37 1.93414 3.77315 0
M  V30 20032 C 1830.83 0.515719 3.32929 0
M  V30 20033 O 1831.36 -0.354312 4.00134 0
M  V30 20034 N 1829.57 0.3758 2.8816 0
M  V30 20035 H 1829.11 1.08481 2.33644 0
M  V30 20036 H 1829.07 -0.461494 3.10995 0
M  V30 20037 N 1832.84 -0.743177 1.38977 0
M  V30 20038 C 1834.07 -1.53021 1.3881 0
M  V30 20039 C 1834.48 -1.89188 -0.0213066 0
M  V30 20040 O 1833.83 -1.54033 -1.00097 0
M  V30 20041 C 1833.89 -2.85158 2.18918 0
M  V30 20042 C 1833.55 -2.71471 3.67631 0
M  V30 20043 C 1834.55 -2.40567 4.60894 0
M  V30 20044 C 1832.23 -2.88598 4.11116 0
M  V30 20045 C 1834.23 -2.26959 5.95625 0
M  V30 20046 C 1831.91 -2.74609 5.45924 0
M  V30 20047 C 1832.91 -2.43833 6.37992 0
M  V30 20048 O 1832.6 -2.29922 7.70319 0
M  V30 20049 H 1832.33 -0.47975 0.476252 0
M  V30 20050 H 1834.89 -0.92667 1.83308 0
M  V30 20051 H 1833.12 -3.47741 1.69154 0
M  V30 20052 H 1834.81 -3.4673 2.11029 0
M  V30 20053 H 1835.57 -2.26994 4.28601 0
M  V30 20054 H 1831.45 -3.11547 3.39794 0
M  V30 20055 H 1834.99 -2.02859 6.67453 0
M  V30 20056 H 1830.89 -2.87758 5.77811 0
M  V30 20057 H 1831.66 -2.45054 7.80955 0
M  V30 20058 N 1834.32 -1.24018 -0.972487 0
M  V30 20059 C 1835.55 -1.10392 -1.74989 0
M  V30 20060 C 1835.97 0.34396 -1.8564 0
M  V30 20061 O 1835.32 1.23757 -1.34128 0
M  V30 20062 C 1835.37 -1.73247 -3.17282 0
M  V30 20063 O 1835.09 -3.12374 -3.07171 0
M  V30 20064 C 1836.6 -1.65168 -4.11381 0
M  V30 20065 H 1833.82 -0.38593 -0.548907 0
M  V30 20066 H 1836.36 -1.64028 -1.22127 0
M  V30 20067 H 1834.51 -1.23625 -3.67145 0
M  V30 20068 H 1834.93 -3.42997 -3.96804 0
M  V30 20069 H 1836.4 -2.13837 -5.08898 0
M  V30 20070 H 1836.88 -0.61198 -4.34915 0
M  V30 20071 H 1837.49 -2.14194 -3.67425 0
M  V30 20072 N 1835.8 1.17245 -1.05316 0
M  V30 20073 C 1836.75 2.23357 -0.649174 0
M  V30 20074 C 1837.74 1.66152 0.33015 0
M  V30 20075 O 1838.95 1.78929 0.196078 0
M  V30 20076 H 1835.32 0.727139 -0.191762 0
M  V30 20077 H 1837.29 2.54728 -1.55423 0
M  V30 20078 C 1836.04 3.47676 -0.0412049 0
M  V30 20079 H 1835.37 3.92 -0.785858 0
M  V30 20080 H 1836.81 4.23509 0.204073 0
M  V30 20081 C 1835.27 3.14326 1.21247 0
M  V30 20082 O 1835.8 3.29218 2.3017 0
M  V30 20083 N 1834 2.68541 1.1106 0
M  V30 20084 H 1833.55 2.56622 0.224212 0
M  V30 20085 H 1833.51 2.466 1.95028 0
M  V30 20086 N 1837.28 0.834353 1.33702 0
M  V30 20087 C 1838.53 0.424225 1.97188 0
M  V30 20088 C 1838.84 -1.02086 1.66846 0
M  V30 20089 O 1840.05 -1.53545 2.23911 0
M  V30 20090 C 1838.5 0.707628 3.52875 0
M  V30 20091 C 1838.11 2.16709 3.92098 0
M  V30 20092 C 1839.85 0.364228 4.22935 0
M  V30 20093 C 1837.76 2.39478 5.40744 0
M  V30 20094 H 1836.69 0.154897 0.737918 0
M  V30 20095 H 1839.34 1.02231 1.52385 0
M  V30 20096 H 1837.72 0.0392323 3.95981 0
M  V30 20097 H 1838.9 2.87559 3.60064 0
M  V30 20098 H 1837.21 2.47303 3.35008 0
M  V30 20099 H 1839.81 0.512031 5.32243 0
M  V30 20100 H 1840.15 -0.692375 4.10502 0
M  V30 20101 H 1840.69 0.98767 3.85344 0
M  V30 20102 H 1837.43 3.43687 5.58175 0
M  V30 20103 H 1836.95 1.73184 5.74254 0
M  V30 20104 H 1838.62 2.22406 6.07573 0
M  V30 20105 N 1838.76 -1.46125 0.590367 0
M  V30 20106 C 1839.67 -2.34177 -0.140761 0
M  V30 20107 C 1840.68 -1.50213 -0.878181 0
M  V30 20108 O 1841.86 -1.83063 -0.839644 0
M  V30 20109 C 1838.92 -3.27537 -1.13669 0
M  V30 20110 C 1837.98 -4.27403 -0.403103 0
M  V30 20111 C 1837.22 -5.16302 -1.35159 0
M  V30 20112 O 1837.44 -5.08283 -2.58853 0
M  V30 20113 O 1836.37 -5.95753 -0.858003 0
M  V30 20114 H 1840.2 -2.98063 0.582401 0
M  V30 20115 H 1837.79 -1.45225 0.35072 0
M  V30 20116 H 1839.67 -3.85112 -1.71074 0
M  V30 20117 H 1838.34 -2.66237 -1.84118 0
M  V30 20118 H 1837.25 -3.73493 0.212986 0
M  V30 20119 H 1838.58 -4.9151 0.260565 0
M  V30 20120 N 1840.23 -0.328564 -1.54137 0
M  V30 20121 C 1841.51 0.327026 -1.92847 0
M  V30 20122 C 1841.89 1.69472 -1.25867 0
M  V30 20123 O 1841.24 2.24897 -0.404172 0
M  V30 20124 C 1841.45 0.414261 -3.46533 0
M  V30 20125 C 1842.8 0.672189 -4.19245 0
M  V30 20126 O 1843.82 0.496982 -3.52716 0
M  V30 20127 O 1842.68 1.01053 -5.37076 0
M  V30 20128 H 1839.77 0.187716 -0.805414 0
M  V30 20129 H 1842.32 -0.378645 -1.65422 0
M  V30 20130 H 1841.09 -0.54611 -3.8747 0
M  V30 20131 H 1840.72 1.16731 -3.80078 0
M  V30 20132 N 1841.71 1.57497 -0.0568439 0
M  V30 20133 C 1842.96 1.92914 0.615668 0
M  V30 20134 C 1843.29 0.935677 1.70515 0
M  V30 20135 O 1842.54 -0.0511255 1.95633 0
M  V30 20136 C 1842.84 3.35 1.24538 0
M  V30 20137 C 1842.51 4.50008 0.283536 0
M  V30 20138 C 1841.17 4.81196 0.0188809 0
M  V30 20139 C 1843.52 5.19847 -0.375336 0
M  V30 20140 C 1840.85 5.79569 -0.911986 0
M  V30 20141 C 1843.2 6.19215 -1.29443 0
M  V30 20142 C 1841.87 6.48829 -1.5677 0
M  V30 20143 H 1841.14 0.705922 0.225289 0
M  V30 20144 H 1843.78 1.91095 -0.124533 0
M  V30 20145 H 1842.09 3.33213 2.06098 0
M  V30 20146 H 1843.78 3.59686 1.77277 0
M  V30 20147 H 1840.37 4.25674 0.499994 0
M  V30 20148 H 1844.56 4.95959 -0.183967 0
M  V30 20149 H 1839.81 6.00846 -1.13112 0
M  V30 20150 H 1843.99 6.7244 -1.811 0
M  V30 20151 H 1841.62 7.24868 -2.29063 0
M  V30 20152 N 1843.19 -0.216591 1.56105 0
M  V30 20153 C 1844.42 -0.955625 1.8317 0
M  V30 20154 C 1844.83 -1.78247 0.634397 0
M  V30 20155 O 1844.17 -1.79148 -0.406391 0
M  V30 20156 C 1844.23 -1.91834 3.04039 0
M  V30 20157 C 1843.9 -1.27553 4.38838 0
M  V30 20158 C 1844.89 -0.662972 5.15656 0
M  V30 20159 C 1842.58 -1.28582 4.85564 0
M  V30 20160 C 1844.57 -0.0692674 6.37362 0
M  V30 20161 C 1842.26 -0.688269 6.07212 0
M  V30 20162 C 1843.26 -0.0810524 6.82952 0
M  V30 20163 O 1842.95 0.507186 8.02298 0
M  V30 20164 H 1842.68 -0.285405 0.612797 0
M  V30 20165 H 1845.23 -0.235419 2.04046 0
M  V30 20166 H 1843.46 -2.67767 2.78994 0
M  V30 20167 H 1845.15 -2.52334 3.17934 0
M  V30 20168 H 1845.92 -0.647319 4.80661 0
M  V30 20169 H 1841.8 -1.74784 4.26581 0
M  V30 20170 H 1845.34 0.405305 6.96422 0
M  V30 20171 H 1841.24 -0.701352 6.41679 0
M  V30 20172 H 1842.01 0.401989 8.17512 0
M  V30 20173 N 1844.67 -1.5 -0.48349 0
M  V30 20174 C 1846.08 -1.37151 -0.816192 0
M  V30 20175 C 1846.28 -0.418047 -1.97116 0
M  V30 20176 O 1845.34 0.143884 -2.5209 0
M  V30 20177 C 1846.65 -2.78256 -1.13992 0
M  V30 20178 C 1848.2 -2.87082 -1.2471 0
M  V30 20179 C 1848.68 -4.28993 -1.60403 0
M  V30 20180 N 1850.17 -4.31886 -1.67419 0
M  V30 20181 C 1850.9 -5.38673 -1.96516 0
M  V30 20182 N 1850.4 -6.55685 -2.23718 0
M  V30 20183 N 1852.19 -5.26105 -1.97914 0
M  V30 20184 H 1844.34 -2.10575 0.277847 0
M  V30 20185 H 1846.61 -0.945986 0.0617554 0
M  V30 20186 H 1846.31 -3.49807 -0.364448 0
M  V30 20187 H 1846.19 -3.14724 -2.07916 0
M  V30 20188 H 1848.57 -2.15758 -2.01327 0
M  V30 20189 H 1848.65 -2.54174 -0.287959 0
M  V30 20190 H 1848.3 -5.0085 -0.84331 0
M  V30 20191 H 1848.23 -4.59379 -2.57447 0
M  V30 20192 H 1850.72 -3.47506 -1.48487 0
M  V30 20193 H 1851.03 -7.32883 -2.45158 0
M  V30 20194 H 1849.38 -6.58881 -2.21136 0
M  V30 20195 H 1852.57 -4.33692 -1.76151 0
M  V30 20196 H 1852.74 -6.09419 -2.20256 0
M  V30 20197 N 1846.15 0.735796 -1.39369 0
M  V30 20198 C 1847.37 1.53013 -1.40007 0
M  V30 20199 C 1847.8 1.881 0.00368376 0
M  V30 20200 O 1847.15 1.51853 0.990469 0
M  V30 20201 C 1847.2 2.79474 -2.27874 0
M  V30 20202 O 1846.31 3.75364 -1.70808 0
M  V30 20203 H 1845.65 0.462117 -0.476806 0
M  V30 20204 H 1848.18 0.907868 -1.83355 0
M  V30 20205 H 1848.19 3.28217 -2.42358 0
M  V30 20206 H 1846.86 2.53268 -3.29891 0
M  V30 20207 H 1845.44 3.34131 -1.65562 0
M  V30 20208 N 1847.63 1.24532 0.965897 0
M  V30 20209 C 1848.87 1.09801 1.72404 0
M  V30 20210 C 1849.23 -0.356766 1.88656 0
M  V30 20211 O 1850.43 -0.625626 2.61418 0
M  V30 20212 C 1848.7 1.8194 3.07624 0
M  V30 20213 S 1850.26 1.82962 3.98836 0
M  V30 20214 H 1847.08 0.392672 0.592731 0
M  V30 20215 H 1849.68 1.57889 1.15288 0
M  V30 20216 H 1848.38 2.86899 2.93457 0
M  V30 20217 H 1847.92 1.34193 3.69805 0
M  V30 20218 H 1849.93 0.898584 4.87996 0
M  V30 20219 N 1849.1 -1.16685 1.05936 0
M  V30 20220 C 1850.33 -1.90758 0.793401 0
M  V30 20221 C 1850.74 -1.77479 -0.655593 0
M  V30 20222 O 1850.08 -1.11458 -1.46023 0
M  V30 20223 C 1850.15 -3.42127 1.10406 0
M  V30 20224 C 1849.81 -3.79191 2.55074 0
M  V30 20225 C 1850.81 -3.81412 3.533 0
M  V30 20226 C 1848.49 -4.09931 2.9028 0
M  V30 20227 C 1850.49 -4.13853 4.84772 0
M  V30 20228 C 1848.17 -4.42039 4.21953 0
M  V30 20229 C 1849.17 -4.4398 5.19009 0
M  V30 20230 O 1848.86 -4.75328 6.4832 0
M  V30 20231 H 1848.59 -0.611855 0.287418 0
M  V30 20232 H 1851.15 -1.48859 1.41527 0
M  V30 20233 H 1849.38 -3.84356 0.425106 0
M  V30 20234 H 1851.06 -3.97471 0.822918 0
M  V30 20235 H 1851.83 -3.5778 3.27443 0
M  V30 20236 H 1847.71 -4.07587 2.15393 0
M  V30 20237 H 1851.25 -4.15283 5.60523 0
M  V30 20238 H 1847.15 -4.65136 4.4757 0
M  V30 20239 H 1847.92 -4.93154 6.53254 0
M  V30 20240 N 1850.58 -0.841432 -1.33258 0
M  V30 20241 C 1851.53 -0.274487 -2.29162 0
M  V30 20242 C 1852.5 0.611143 -1.54448 0
M  V30 20243 O 1853.68 0.548868 -1.82735 0
M  V30 20244 C 1850.82 0.542275 -3.40813 0
M  V30 20245 C 1849.94 -0.367664 -4.30433 0
M  V30 20246 C 1849.07 0.460447 -5.29201 0
M  V30 20247 C 1848.11 -0.447722 -6.1046 0
M  V30 20248 N 1847.25 0.342415 -7.01265 0
M  V30 20249 H 1852.09 -1.09762 -2.77049 0
M  V30 20250 H 1849.62 -0.552735 -1.3632 0
M  V30 20251 H 1851.58 1.03132 -4.04252 0
M  V30 20252 H 1850.21 1.33035 -2.94111 0
M  V30 20253 H 1849.26 -0.975032 -3.67692 0
M  V30 20254 H 1850.58 -1.0652 -4.87293 0
M  V30 20255 H 1849.73 1.01321 -5.9818 0
M  V30 20256 H 1848.47 1.19141 -4.72924 0
M  V30 20257 H 1847.47 -1.01248 -5.40397 0
M  V30 20258 H 1848.7 -1.17709 -6.68821 0
M  V30 20259 H 1846.65 1.05671 -6.47433 0
M  V30 20260 H 1846.56 -0.296356 -7.55419 0
M  V30 20261 H 1847.83 0.877331 -7.74547 0
M  V30 20262 N 1852.06 1.4581 -0.598108 0
M  V30 20263 C 1853.31 2.02601 -0.089744 0
M  V30 20264 C 1853.64 1.46673 1.27282 0
M  V30 20265 O 1852.91 0.637735 1.83748 0
M  V30 20266 C 1853.2 3.60077 -0.0405712 0
M  V30 20267 C 1853.05 4.26358 -1.43313 0
M  V30 20268 C 1854.37 4.35241 0.652164 0
M  V30 20269 H 1851.49 0.736211 -0.0340865 0
M  V30 20270 H 1854.13 1.73775 -0.768263 0
M  V30 20271 H 1852.28 3.84767 0.537251 0
M  V30 20272 H 1853.95 4.12884 -2.0573 0
M  V30 20273 H 1852.19 3.85125 -1.99653 0
M  V30 20274 H 1852.87 5.35211 -1.35105 0
M  V30 20275 H 1855.34 4.15788 0.161128 0
M  V30 20276 H 1854.22 5.4497 0.655646 0
M  V30 20277 H 1854.48 4.07419 1.71646 0
M  V30 20278 N 1853.54 0.336733 1.53961 0
M  V30 20279 C 1854.47 -0.515664 2.27735 0
M  V30 20280 C 1855.45 -1.10835 1.29033 0
M  V30 20281 O 1856.63 -1.13102 1.57866 0
M  V30 20282 C 1853.76 -1.67015 3.04505 0
M  V30 20283 C 1852.72 -1.20613 4.10654 0
M  V30 20284 C 1852.04 -2.44861 4.75339 0
M  V30 20285 C 1853.34 -0.311507 5.2137 0
M  V30 20286 H 1855.04 0.0997513 2.99234 0
M  V30 20287 H 1852.58 0.0494157 1.43915 0
M  V30 20288 H 1854.54 -2.27286 3.54851 0
M  V30 20289 H 1853.26 -2.31236 2.30646 0
M  V30 20290 H 1851.92 -0.62628 3.61211 0
M  V30 20291 H 1851.57 -3.07474 3.98081 0
M  V30 20292 H 1851.27 -2.14498 5.47051 0
M  V30 20293 H 1852.79 -3.0587 5.28466 0
M  V30 20294 H 1854.21 -0.820868 5.67393 0
M  V30 20295 H 1852.6 -0.100073 6.00017 0
M  V30 20296 H 1853.67 0.654181 4.80467 0
M  V30 20297 N 1855.02 -1.57465 0.0651956 0
M  V30 20298 C 1856.26 -1.92414 -0.604961 0
M  V30 20299 C 1856.58 -0.946628 -1.71167 0
M  V30 20300 O 1857.78 -1.18869 -2.44095 0
M  V30 20301 C 1856.24 -3.41786 -1.12741 0
M  V30 20302 C 1855.85 -4.4797 -0.0520584 0
M  V30 20303 C 1857.59 -3.85746 -1.77201 0
M  V30 20304 C 1855.5 -5.88468 -0.588181 0
M  V30 20305 H 1854.43 -0.718147 -0.229742 0
M  V30 20306 H 1857.08 -1.82993 0.136361 0
M  V30 20307 H 1855.46 -3.46258 -1.92149 0
M  V30 20308 H 1856.64 -4.55105 0.722215 0
M  V30 20309 H 1854.95 -4.13436 0.495917 0
M  V30 20310 H 1857.55 -4.88093 -2.18332 0
M  V30 20311 H 1857.89 -3.22754 -2.62937 0
M  V30 20312 H 1858.42 -3.83849 -1.04426 0
M  V30 20313 H 1855.16 -6.5509 0.231865 0
M  V30 20314 H 1854.68 -5.84866 -1.33012 0
M  V30 20315 H 1856.36 -6.38147 -1.06667 0
M  V30 20316 N 1856.49 0.20831 -1.56217 0
M  V30 20317 C 1857.9 0.774162 -1.69893 0
M  V30 20318 C 1858.26 1.84424 -0.669506 0
M  V30 20319 O 1857.38 2.15677 0.176748 0
M  V30 20320 C 1857.98 1.41102 -3.08019 0
M  V30 20321 C 1856.53 1.9241 -3.23505 0
M  V30 20322 C 1855.68 0.789129 -2.65835 0
M  V30 20323 H 1858.63 -0.0165614 -1.58691 0
M  V30 20324 H 1858.65 2.28015 -3.04614 0
M  V30 20325 H 1858.17 0.631966 -3.8292 0
M  V30 20326 H 1856.27 2.73076 -2.53496 0
M  V30 20327 H 1856.38 2.09497 -4.30868 0
M  V30 20328 H 1854.74 1.19995 -2.24663 0
M  V30 20329 H 1855.53 0.0225345 -3.43293 0
M  V30 20330 N 1857.97 1.50255 0.475528 0
M  V30 20331 C 1858.92 1.65183 1.57158 0
M  V30 20332 C 1859.91 0.506578 1.52717 0
M  V30 20333 O 1861.1 0.760774 1.59816 0
M  V30 20334 C 1858.23 1.74523 2.95629 0
M  V30 20335 C 1857.31 2.94709 3.04971 0
M  V30 20336 N 1857.7 4.1845 2.84137 0
M  V30 20337 C 1856 2.93175 3.36102 0
M  V30 20338 C 1856.7 4.99375 2.98328 0
M  V30 20339 N 1855.68 4.33242 3.28333 0
M  V30 20340 H 1859.48 2.58552 1.39743 0
M  V30 20341 H 1856.99 1.47378 0.682172 0
M  V30 20342 H 1858.99 1.8332 3.74432 0
M  V30 20343 H 1857.65 0.823089 3.14094 0
M  V30 20344 H 1858.66 4.48019 2.59806 0
M  V30 20345 H 1855.34 2.10443 3.60583 0
M  V30 20346 H 1856.73 6.07757 2.86497 0
M  V30 20347 N 1859.45 -0.728395 1.39758 0
M  V30 20348 C 1860.38 -1.85554 1.41747 0
M  V30 20349 C 1861.36 -1.6778 0.279972 0
M  V30 20350 O 1862.55 -1.88001 0.48675 0
M  V30 20351 C 1859.68 -3.23375 1.26671 0
M  V30 20352 C 1858.63 -3.55799 2.37889 0
M  V30 20353 C 1857.96 -4.92628 2.07899 0
M  V30 20354 C 1859.26 -3.58098 3.80215 0
M  V30 20355 H 1860.95 -1.84146 2.36073 0
M  V30 20356 H 1858.5 -0.884539 1.13631 0
M  V30 20357 H 1860.45 -4.01907 1.26682 0
M  V30 20358 H 1859.17 -3.25326 0.288159 0
M  V30 20359 H 1857.83 -2.796 2.37107 0
M  V30 20360 H 1857.48 -4.91166 1.08466 0
M  V30 20361 H 1857.18 -5.15288 2.82404 0
M  V30 20362 H 1858.7 -5.73509 2.09571 0
M  V30 20363 H 1860.12 -4.26694 3.82891 0
M  V30 20364 H 1858.51 -3.9228 4.54133 0
M  V30 20365 H 1859.58 -2.57758 4.10718 0
M  V30 20366 N 1860.93 -1.25042 -0.959279 0
M  V30 20367 C 1862.17 -1.09677 -1.70584 0
M  V30 20368 C 1862.51 0.362184 -1.90793 0
M  V30 20369 O 1861.78 1.26722 -1.47552 0
M  V30 20370 C 1862.06 -1.84646 -3.09157 0
M  V30 20371 C 1861.92 -3.38342 -2.96387 0
M  V30 20372 C 1863.24 -1.62588 -4.08966 0
M  V30 20373 H 1860.36 -0.399817 -0.619125 0
M  V30 20374 H 1863 -1.53816 -1.11537 0
M  V30 20375 H 1861.15 -1.47129 -3.59563 0
M  V30 20376 H 1862.82 -3.85507 -2.53342 0
M  V30 20377 H 1861.06 -3.66291 -2.32408 0
M  V30 20378 H 1861.73 -3.86007 -3.94592 0
M  V30 20379 H 1864.21 -1.9524 -3.67451 0
M  V30 20380 H 1863.09 -2.17488 -5.03975 0
M  V30 20381 H 1863.35 -0.566103 -4.38461 0
M  V30 20382 N 1862.41 1.16121 -1.06553 0
M  V30 20383 C 1863.66 1.86055 -0.778871 0
M  V30 20384 C 1863.97 1.82747 0.697357 0
M  V30 20385 O 1865.17 2.48285 1.09849 0
M  V30 20386 C 1863.63 3.33897 -1.34315 0
M  V30 20387 C 1863.24 3.45673 -2.84981 0
M  V30 20388 C 1864.98 4.09069 -1.13415 0
M  V30 20389 C 1862.89 4.87616 -3.34641 0
M  V30 20390 H 1861.82 0.696963 -0.287678 0
M  V30 20391 H 1864.47 1.31038 -1.28458 0
M  V30 20392 H 1862.85 3.88536 -0.765208 0
M  V30 20393 H 1864.03 3.01181 -3.4875 0
M  V30 20394 H 1862.34 2.83938 -3.04579 0
M  V30 20395 H 1864.94 5.13809 -1.48002 0
M  V30 20396 H 1865.28 4.16237 -0.0726719 0
M  V30 20397 H 1865.81 3.60676 -1.67802 0
M  V30 20398 H 1862.55 4.85629 -4.40278 0
M  V30 20399 H 1862.07 5.32722 -2.75622 0
M  V30 20400 H 1863.75 5.56443 -3.30122 0
M  V30 20401 N 1863.88 0.848487 1.3281 0
M  V30 20402 C 1865.3 0.537529 1.50276 0
M  V30 20403 C 1865.5 -0.93314 1.78591 0
M  V30 20404 O 1864.56 -1.71649 1.85184 0
M  V30 20405 C 1865.87 1.41919 2.65103 0
M  V30 20406 C 1867.42 1.41897 2.78988 0
M  V30 20407 C 1867.89 2.2857 3.96888 0
M  V30 20408 N 1869.38 2.26331 4.04139 0
M  V30 20409 C 1870.12 2.90127 4.94585 0
M  V30 20410 N 1869.61 3.63011 5.9008 0
M  V30 20411 N 1871.41 2.79547 4.87658 0
M  V30 20412 H 1863.56 1.80038 1.12695 0
M  V30 20413 H 1865.82 0.768636 0.554889 0
M  V30 20414 H 1865.53 2.4647 2.50889 0
M  V30 20415 H 1865.4 1.10213 3.60739 0
M  V30 20416 H 1867.79 0.381128 2.92628 0
M  V30 20417 H 1867.87 1.77614 1.84084 0
M  V30 20418 H 1867.51 3.32418 3.84006 0
M  V30 20419 H 1867.44 1.90188 4.91056 0
M  V30 20420 H 1869.93 1.73337 3.35802 0
M  V30 20421 H 1870.25 4.08872 6.55777 0
M  V30 20422 H 1868.59 3.67119 5.90126 0
M  V30 20423 H 1871.78 2.22162 4.12021 0
M  V30 20424 H 1871.96 3.29548 5.57944 0
M  V30 20425 N 1865.36 -1.4549 0.605832 0
M  V30 20426 C 1866.59 -2.07135 0.104838 0
M  V30 20427 C 1867.01 -1.4478 -1.20085 0
M  V30 20428 O 1866.37 -0.539875 -1.73075 0
M  V30 20429 C 1866.42 -3.60593 -0.0231858 0
M  V30 20430 O 1865.52 -3.98173 -1.07386 0
M  V30 20431 H 1864.86 -0.659945 0.0732691 0
M  V30 20432 H 1867.39 -1.8677 0.835343 0
M  V30 20433 H 1867.4 -4.07396 -0.221964 0
M  V30 20434 H 1866.08 -4.05364 0.930211 0
M  V30 20435 H 1864.66 -3.63044 -0.851689 0
M  V30 20436 N 1866.84 -0.344893 -1.5378 0
M  V30 20437 C 1867.79 0.527275 -2.21819 0
M  V30 20438 C 1868.77 1.06502 -1.20607 0
M  V30 20439 O 1869.97 0.998502 -1.46147 0
M  V30 20440 C 1867.1 1.67703 -2.99551 0
M  V30 20441 C 1866.18 1.15316 -4.08121 0
M  V30 20442 N 1866.57 0.35061 -5.04583 0
M  V30 20443 C 1864.87 1.42992 -4.22456 0
M  V30 20444 C 1865.57 0.0661583 -5.81662 0
M  V30 20445 N 1864.55 0.658168 -5.39601 0
M  V30 20446 H 1868.35 -0.0929348 -2.93753 0
M  V30 20447 H 1865.86 -0.151827 -1.61689 0
M  V30 20448 H 1867.86 2.31383 -3.46796 0
M  V30 20449 H 1866.52 2.30051 -2.29144 0
M  V30 20450 H 1867.53 -0.0084236 -5.17899 0
M  V30 20451 H 1864.21 2.05769 -3.6327 0
M  V30 20452 H 1865.6 -0.581316 -6.69381 0
M  V30 20453 N 1868.32 1.57428 -0.0735454 0
M  V30 20454 C 1869.57 1.93556 0.595172 0
M  V30 20455 C 1869.89 0.95371 1.69513 0
M  V30 20456 O 1869.15 -0.0303731 1.95676 0
M  V30 20457 C 1869.45 3.36302 1.20978 0
M  V30 20458 C 1869.11 4.50283 0.235791 0
M  V30 20459 C 1867.78 4.81189 -0.0321575 0
M  V30 20460 C 1870.13 5.19419 -0.430452 0
M  V30 20461 C 1867.46 5.78569 -0.973406 0
M  V30 20462 C 1869.81 6.17807 -1.36003 0
M  V30 20463 C 1868.47 6.4713 -1.63643 0
M  V30 20464 H 1867.74 0.708272 0.217789 0
M  V30 20465 H 1870.39 1.90952 -0.144794 0
M  V30 20466 H 1868.69 3.3538 2.02552 0
M  V30 20467 H 1870.39 3.61546 1.73452 0
M  V30 20468 H 1866.98 4.2618 0.454817 0
M  V30 20469 H 1871.16 4.95736 -0.23656 0
M  V30 20470 H 1866.42 5.99612 -1.19478 0
M  V30 20471 H 1870.59 6.70481 -1.88222 0
M  V30 20472 H 1868.22 7.22398 -2.36738 0
M  V30 20473 N 1869.8 -0.200022 1.56326 0
M  V30 20474 C 1871.07 -0.946774 1.71159 0
M  V30 20475 C 1871.45 -2.01576 0.626939 0
M  V30 20476 O 1870.8 -2.25601 -0.362834 0
M  V30 20477 C 1871.01 -1.53767 3.13299 0
M  V30 20478 C 1872.36 -2.02169 3.7338 0
M  V30 20479 O 1873.38 -1.6362 3.16397 0
M  V30 20480 O 1872.24 -2.7309 4.73375 0
M  V30 20481 H 1869.34 -0.443669 0.697916 0
M  V30 20482 H 1871.88 -0.190107 1.68632 0
M  V30 20483 H 1870.65 -0.766886 3.83712 0
M  V30 20484 H 1870.28 -2.35931 3.20035 0
M  V30 20485 N 1871.27 -1.50505 -0.467553 0
M  V30 20486 C 1872.18 -1.72419 -1.59087 0
M  V30 20487 C 1873.2 -0.607403 -1.63054 0
M  V30 20488 O 1874.38 -0.886148 -1.80857 0
M  V30 20489 C 1871.44 -1.81686 -2.95281 0
M  V30 20490 C 1870.5 -3.05435 -3.01675 0
M  V30 20491 C 1869.74 -3.1425 -4.31373 0
M  V30 20492 O 1869.96 -2.29766 -5.22076 0
M  V30 20493 O 1868.89 -4.07005 -4.43431 0
M  V30 20494 H 1872.72 -2.67649 -1.43519 0
M  V30 20495 H 1870.3 -1.34643 -0.647422 0
M  V30 20496 H 1872.19 -1.89941 -3.76165 0
M  V30 20497 H 1870.86 -0.896404 -3.11041 0
M  V30 20498 H 1869.77 -3.02678 -2.19856 0
M  V30 20499 H 1871.1 -3.97071 -2.90853 0
M  V30 20500 N 1872.75 0.720973 -1.40142 0
M  V30 20501 C 1874 1.48297 -1.38332 0
M  V30 20502 C 1874.33 1.94193 0.0162191 0
M  V30 20503 O 1873.61 1.67781 0.983853 0
M  V30 20504 C 1873.89 2.71283 -2.36807 0
M  V30 20505 C 1873.74 2.31316 -3.85763 0
M  V30 20506 C 1875.06 3.73426 -2.32897 0
M  V30 20507 H 1872.18 0.537922 -0.503794 0
M  V30 20508 H 1874.82 0.823265 -1.71238 0
M  V30 20509 H 1872.97 3.27571 -2.08877 0
M  V30 20510 H 1874.64 1.80551 -4.24499 0
M  V30 20511 H 1872.89 1.63379 -4.01858 0
M  V30 20512 H 1873.56 3.19449 -4.50174 0
M  V30 20513 H 1876.03 3.26755 -2.57624 0
M  V30 20514 H 1874.91 4.57124 -3.03856 0
M  V30 20515 H 1875.17 4.21343 -1.33876 0
M  V30 20516 N 1874.23 1.25549 0.952634 0
M  V30 20517 C 1875.18 1.06108 2.04963 0
M  V30 20518 C 1876.15 -0.0303872 1.66072 0
M  V30 20519 O 1877.33 0.127178 1.90376 0
M  V30 20520 C 1874.47 0.68799 3.38173 0
M  V30 20521 C 1873.59 1.85452 3.90168 0
M  V30 20522 C 1872.72 1.4256 5.11713 0
M  V30 20523 C 1871.76 2.56115 5.55942 0
M  V30 20524 N 1870.9 2.13984 6.68697 0
M  V30 20525 H 1875.74 1.99991 2.20925 0
M  V30 20526 H 1873.27 0.995895 1.08261 0
M  V30 20527 H 1875.23 0.452622 4.14737 0
M  V30 20528 H 1873.86 -0.213845 3.22091 0
M  V30 20529 H 1872.91 2.20314 3.10106 0
M  V30 20530 H 1874.23 2.70722 4.1894 0
M  V30 20531 H 1873.38 1.15 5.95701 0
M  V30 20532 H 1872.12 0.54365 4.8466 0
M  V30 20533 H 1871.12 2.84417 4.70518 0
M  V30 20534 H 1872.35 3.44891 5.85002 0
M  V30 20535 H 1870.29 1.28208 6.4335 0
M  V30 20536 H 1870.21 2.92801 6.96996 0
M  V30 20537 H 1871.48 1.89605 7.56089 0
M  V30 20538 N 1875.71 -1.15554 1.07168 0
M  V30 20539 C 1876.93 -1.90723 0.814832 0
M  V30 20540 C 1877.36 -1.7738 -0.62594 0
M  V30 20541 O 1876.72 -1.10521 -1.43718 0
M  V30 20542 C 1876.76 -3.39137 1.22551 0
M  V30 20543 O 1875.87 -4.1074 0.369677 0
M  V30 20544 H 1875.21 -0.593866 0.297017 0
M  V30 20545 H 1877.74 -1.46348 1.42981 0
M  V30 20546 H 1877.75 -3.89926 1.20089 0
M  V30 20547 H 1876.42 -3.48167 2.27492 0
M  V30 20548 H 1875 -3.70094 0.456626 0
M  V30 20549 N 1877.19 -0.855519 -1.32358 0
M  V30 20550 C 1878.44 -0.455543 -1.96488 0
M  V30 20551 C 1878.75 0.99419 -1.68449 0
M  V30 20552 O 1879.96 1.49964 -2.26325 0
M  V30 20553 C 1878.41 -0.763678 -3.51704 0
M  V30 20554 C 1878.02 -2.2292 -3.88601 0
M  V30 20555 C 1879.76 -0.431467 -4.22302 0
M  V30 20556 C 1877.67 -2.48051 -5.36866 0
M  V30 20557 H 1876.6 -0.166617 -0.73536 0
M  V30 20558 H 1879.25 -1.04642 -1.50739 0
M  V30 20559 H 1877.63 -0.102224 -3.95868 0
M  V30 20560 H 1878.81 -2.93251 -3.55444 0
M  V30 20561 H 1877.12 -2.52602 -3.31031 0
M  V30 20562 H 1879.72 -0.596641 -5.31361 0
M  V30 20563 H 1880.06 0.62698 -4.11552 0
M  V30 20564 H 1880.6 -1.04885 -3.83724 0
M  V30 20565 H 1877.33 -3.52523 -5.52637 0
M  V30 20566 H 1876.85 -1.82298 -5.71426 0
M  V30 20567 H 1878.53 -2.32044 -6.03957 0
M  V30 20568 N 1878.67 1.45167 -0.61354 0
M  V30 20569 C 1879.63 2.29016 0.0919454 0
M  V30 20570 C 1880.63 1.40091 0.789373 0
M  V30 20571 O 1881.82 1.6215 0.636631 0
M  V30 20572 C 1878.95 3.21257 1.14048 0
M  V30 20573 H 1880.14 2.92875 -0.645317 0
M  V30 20574 H 1877.7 1.51788 -0.372855 0
M  V30 20575 H 1878.43 2.6221 1.90831 0
M  V30 20576 H 1878.22 3.86766 0.644523 0
M  V30 20577 H 1879.71 3.84288 1.63439 0
M  V30 20578 N 1880.14 0.353044 1.53595 0
M  V30 20579 C 1881.09 -0.514569 2.26837 0
M  V30 20580 C 1882.09 -1.09398 1.29338 0
M  V30 20581 O 1883.29 -1.03863 1.47012 0
M  V30 20582 H 1879.67 -0.184641 0.72898 0
M  V30 20583 H 1881.64 0.125082 2.98138 0
M  V30 20584 C 1880.39 -1.64884 3.06119 0
M  V30 20585 H 1879.71 -1.21227 3.80978 0
M  V30 20586 H 1881.15 -2.23089 3.60565 0
M  V30 20587 C 1879.61 -2.58385 2.16192 0
M  V30 20588 O 1880.14 -3.6088 1.76433 0
M  V30 20589 N 1878.34 -2.27286 1.81079 0
M  V30 20590 H 1877.89 -1.43975 2.13609 0
M  V30 20591 H 1877.85 -2.90102 1.21194 0
M  V30 20592 N 1881.62 -1.57387 0.0818932 0
M  V30 20593 C 1882.55 -2.10294 -0.911539 0
M  V30 20594 C 1883.57 -1.03726 -1.25478 0
M  V30 20595 O 1884.76 -1.31212 -1.2102 0
M  V30 20596 C 1881.86 -2.55676 -2.22448 0
M  V30 20597 C 1881.03 -3.8593 -2.05857 0
M  V30 20598 C 1880.09 -4.17297 -3.20545 0
M  V30 20599 O 1879.11 -4.86734 -2.9509 0
M  V30 20600 N 1880.32 -3.71647 -4.45936 0
M  V30 20601 H 1883.08 -2.96153 -0.459757 0
M  V30 20602 H 1880.64 -1.61568 -0.103568 0
M  V30 20603 H 1882.63 -2.73715 -2.98098 0
M  V30 20604 H 1881.2 -1.749 -2.59092 0
M  V30 20605 H 1880.42 -3.7717 -1.14615 0
M  V30 20606 H 1881.71 -4.71169 -1.92034 0
M  V30 20607 H 1881.11 -3.15571 -4.69501 0
M  V30 20608 H 1879.67 -3.94866 -5.18579 0
M  V30 20609 N 1883.1 0.191729 -1.56429 0
M  V30 20610 C 1884.35 0.909797 -1.80016 0
M  V30 20611 C 1884.66 1.84283 -0.65569 0
M  V30 20612 O 1885.87 2.60176 -0.775941 0
M  V30 20613 C 1884.32 1.66819 -3.18904 0
M  V30 20614 C 1883.93 0.779817 -4.41161 0
M  V30 20615 C 1885.68 2.37569 -3.51797 0
M  V30 20616 C 1883.58 1.53727 -5.71071 0
M  V30 20617 H 1882.51 0.343463 -0.67123 0
M  V30 20618 H 1885.16 0.163022 -1.82774 0
M  V30 20619 H 1883.55 2.45897 -3.10404 0
M  V30 20620 H 1884.72 0.0274524 -4.60792 0
M  V30 20621 H 1883.03 0.18298 -4.15998 0
M  V30 20622 H 1885.63 2.94796 -4.46093 0
M  V30 20623 H 1885.97 3.11921 -2.75701 0
M  V30 20624 H 1886.51 1.65454 -3.61759 0
M  V30 20625 H 1883.25 0.836475 -6.50141 0
M  V30 20626 H 1882.77 2.26348 -5.55452 0
M  V30 20627 H 1884.45 2.09018 -6.12308 0
M  V30 20628 N 1884.58 1.50751 0.459565 0
M  V30 20629 C 1885.51 1.66621 1.57385 0
M  V30 20630 C 1886.52 0.547358 1.53323 0
M  V30 20631 O 1887.71 0.820941 1.58502 0
M  V30 20632 C 1884.81 1.64524 2.96285 0
M  V30 20633 C 1883.98 2.92631 3.25093 0
M  V30 20634 C 1883.04 2.83021 4.43605 0
M  V30 20635 O 1882.07 3.56977 4.43347 0
M  V30 20636 N 1883.27 1.97358 5.45921 0
M  V30 20637 H 1886.04 2.62738 1.44184 0
M  V30 20638 H 1883.6 1.48359 0.64817 0
M  V30 20639 H 1885.59 1.55693 3.73553 0
M  V30 20640 H 1884.16 0.760945 3.03197 0
M  V30 20641 H 1883.38 3.15502 2.36331 0
M  V30 20642 H 1884.67 3.77477 3.41157 0
M  V30 20643 H 1884.07 1.36608 5.48958 0
M  V30 20644 H 1882.62 1.94422 6.22128 0
M  V30 20645 N 1886.06 -0.713531 1.40522 0
M  V30 20646 C 1886.97 -1.8577 1.43272 0
M  V30 20647 C 1887.98 -1.70936 0.325113 0
M  V30 20648 O 1889.16 -1.93165 0.570022 0
M  V30 20649 C 1886.22 -3.21587 1.29548 0
M  V30 20650 C 1885.28 -3.4866 2.50469 0
M  V30 20651 C 1884.52 -4.77998 2.3739 0
M  V30 20652 O 1884.74 -5.53234 1.38881 0
M  V30 20653 O 1883.67 -5.05453 3.26804 0
M  V30 20654 H 1887.5 -1.86406 2.39763 0
M  V30 20655 H 1885.08 -0.864226 1.21867 0
M  V30 20656 H 1886.97 -4.02709 1.2411 0
M  V30 20657 H 1885.64 -3.21674 0.36163 0
M  V30 20658 H 1884.55 -2.67539 2.61483 0
M  V30 20659 H 1885.88 -3.53372 3.42621 0
M  V30 20660 N 1887.53 -1.26053 -0.945962 0
M  V30 20661 C 1888.81 -1.02072 -1.66855 0
M  V30 20662 C 1889.19 0.45036 -2.0624 0
M  V30 20663 O 1888.54 1.42966 -1.7825 0
M  V30 20664 C 1888.75 -1.96486 -2.88434 0
M  V30 20665 C 1890.1 -2.24825 -3.60193 0
M  V30 20666 O 1891.12 -1.94314 -2.98531 0
M  V30 20667 O 1889.98 -2.76749 -4.71245 0
M  V30 20668 H 1887.07 -0.387753 -0.730463 0
M  V30 20669 H 1889.62 -1.37243 -0.998117 0
M  V30 20670 H 1888.39 -2.95779 -2.56185 0
M  V30 20671 H 1888.01 -1.61765 -3.63205 0
M  V30 20672 N 1889.01 1.14984 -1.07779 0
M  V30 20673 C 1890.26 1.86375 -0.81462 0
M  V30 20674 C 1890.61 1.81002 0.652385 0
M  V30 20675 O 1889.91 1.2253 1.47299 0
M  V30 20676 C 1890.1 3.34355 -1.26259 0
M  V30 20677 C 1889.93 3.54136 -2.7716 0
M  V30 20678 C 1888.7 3.69356 -3.44825 0
M  V30 20679 C 1890.9 3.51594 -3.75348 0
M  V30 20680 N 1888.88 3.77232 -4.84323 0
M  V30 20681 C 1890.25 3.65637 -5.00709 0
M  V30 20682 C 1892.3 3.34893 -3.68444 0
M  V30 20683 C 1891.01 3.64705 -6.19986 0
M  V30 20684 C 1893.03 3.35262 -4.87189 0
M  V30 20685 C 1892.4 3.49839 -6.11386 0
M  V30 20686 H 1888.49 0.698946 -0.350711 0
M  V30 20687 H 1891.08 1.37857 -1.3749 0
M  V30 20688 H 1889.25 3.81479 -0.729958 0
M  V30 20689 H 1890.98 3.93476 -0.946503 0
M  V30 20690 H 1887.74 3.70315 -2.95235 0
M  V30 20691 H 1888.16 3.84903 -5.56937 0
M  V30 20692 H 1892.8 3.22539 -2.73365 0
M  V30 20693 H 1890.52 3.75836 -7.15383 0
M  V30 20694 H 1894.11 3.23561 -4.83528 0
M  V30 20695 H 1892.99 3.50063 -7.01731 0
M  V30 20696 N 1890.49 0.862526 1.31902 0
M  V30 20697 C 1891.44 0.31091 2.28696 0
M  V30 20698 C 1892.41 -0.586495 1.55401 0
M  V30 20699 O 1893.59 -0.519727 1.83585 0
M  V30 20700 C 1890.73 -0.487986 3.41632 0
M  V30 20701 C 1889.84 0.436096 4.29793 0
M  V30 20702 C 1888.98 -0.376197 5.29866 0
M  V30 20703 C 1888.02 0.544784 6.09671 0
M  V30 20704 N 1887.16 -0.230806 7.01721 0
M  V30 20705 H 1892 1.14156 2.75268 0
M  V30 20706 H 1889.53 0.574352 1.35424 0
M  V30 20707 H 1891.49 -0.966875 4.05842 0
M  V30 20708 H 1890.12 -1.28339 2.96191 0
M  V30 20709 H 1889.17 1.03341 3.66094 0
M  V30 20710 H 1890.48 1.14259 4.85537 0
M  V30 20711 H 1889.64 -0.917915 5.99716 0
M  V30 20712 H 1888.38 -1.11602 4.74759 0
M  V30 20713 H 1887.38 1.09832 5.38718 0
M  V30 20714 H 1888.61 1.28334 6.66864 0
M  V30 20715 H 1886.55 -0.95358 6.49032 0
M  V30 20716 H 1886.47 0.416499 7.54852 0
M  V30 20717 H 1887.74 -0.753996 7.75845 0
M  V30 20718 N 1891.97 -1.4484 0.62123 0
M  V30 20719 C 1893.19 -2.07012 0.126801 0
M  V30 20720 C 1893.62 -1.46046 -1.18542 0
M  V30 20721 O 1892.98 -0.558202 -1.72493 0
M  V30 20722 C 1893.02 -3.60597 0.0150611 0
M  V30 20723 O 1892.13 -3.9929 -1.03157 0
M  V30 20724 H 1891.47 -0.659131 0.0802646 0
M  V30 20725 H 1894 -1.85874 0.855105 0
M  V30 20726 H 1894.01 -4.07608 -0.178742 0
M  V30 20727 H 1892.68 -4.04354 0.973153 0
M  V30 20728 H 1891.26 -3.63927 -0.813135 0
M  V30 20729 N 1893.45 -0.361184 -1.53405 0
M  V30 20730 C 1894.38 0.479368 -2.28526 0
M  V30 20731 C 1895.36 1.08768 -1.3078 0
M  V30 20732 O 1896.54 1.10576 -1.59645 0
M  V30 20733 C 1893.67 1.6215 -3.07123 0
M  V30 20734 C 1892.63 1.14065 -4.12521 0
M  V30 20735 C 1891.95 2.37267 -4.79175 0
M  V30 20736 C 1893.25 0.228522 -5.218 0
M  V30 20737 H 1894.95 -0.147344 -2.99037 0
M  V30 20738 H 1892.49 -0.0723051 -1.43818 0
M  V30 20739 H 1894.45 2.21612 -3.58422 0
M  V30 20740 H 1893.17 2.27538 -2.34295 0
M  V30 20741 H 1891.83 0.568735 -3.62162 0
M  V30 20742 H 1891.48 3.01102 -4.02923 0
M  V30 20743 H 1891.18 2.05768 -5.50394 0
M  V30 20744 H 1892.7 2.97424 -5.33265 0
M  V30 20745 H 1894.11 0.730497 -5.68627 0
M  V30 20746 H 1892.51 0.00460259 -6.001 0
M  V30 20747 H 1893.58 -0.730537 -4.79365 0
M  V30 20748 N 1894.92 1.57341 -0.0902386 0
M  V30 20749 C 1895.85 2.16782 0.86764 0
M  V30 20750 C 1896.84 1.09982 1.29761 0
M  V30 20751 O 1898.02 1.38099 1.36537 0
M  V30 20752 C 1895.15 2.74426 2.12856 0
M  V30 20753 C 1894.1 3.86555 1.83738 0
M  V30 20754 C 1893.43 4.3088 3.16617 0
M  V30 20755 C 1894.73 5.09971 1.12814 0
M  V30 20756 H 1896.42 2.97075 0.372417 0
M  V30 20757 H 1893.97 1.42899 0.177689 0
M  V30 20758 H 1895.92 3.14659 2.80299 0
M  V30 20759 H 1894.65 1.9138 2.64653 0
M  V30 20760 H 1893.31 3.46853 1.18694 0
M  V30 20761 H 1892.95 3.44732 3.66291 0
M  V30 20762 H 1892.65 5.06477 2.97918 0
M  V30 20763 H 1894.18 4.73743 3.85227 0
M  V30 20764 H 1895.59 5.47404 1.70358 0
M  V30 20765 H 1893.99 5.90965 1.04311 0
M  V30 20766 H 1895.06 4.84775 0.110114 0
M  V30 20767 N 1896.4 -0.183431 1.56529 0
M  V30 20768 C 1897.63 -0.917888 1.85425 0
M  V30 20769 C 1898.05 -1.76353 0.674171 0
M  V30 20770 O 1897.4 -1.78975 -0.35695 0
M  V30 20771 C 1897.45 -1.80454 3.13239 0
M  V30 20772 O 1897.17 -0.993028 4.26697 0
M  V30 20773 C 1898.68 -2.64969 3.55396 0
M  V30 20774 H 1895.9 -0.267254 0.61548 0
M  V30 20775 H 1898.44 -0.187171 2.03642 0
M  V30 20776 H 1896.59 -2.48874 2.96884 0
M  V30 20777 H 1897.01 -1.59831 4.99554 0
M  V30 20778 H 1898.48 -3.22819 4.47763 0
M  V30 20779 H 1898.96 -3.3925 2.78937 0
M  V30 20780 H 1899.57 -2.01902 3.74321 0
M  V30 20781 N 1897.88 -1.50992 -0.451564 0
M  V30 20782 C 1899.16 -1.53486 -1.2125 0
M  V30 20783 C 1899.54 -0.290809 -2.09087 0
M  V30 20784 O 1898.89 0.724859 -2.16698 0
M  V30 20785 C 1899.1 -2.84125 -2.02667 0
M  V30 20786 C 1900.44 -3.35535 -2.60195 0
M  V30 20787 O 1901.47 -2.85579 -2.12892 0
M  V30 20788 O 1900.33 -4.22667 -3.46432 0
M  V30 20789 H 1897.42 -0.616481 -0.551253 0
M  V30 20790 H 1899.97 -1.63296 -0.461792 0
M  V30 20791 H 1898.74 -3.66134 -1.38064 0
M  V30 20792 H 1898.36 -2.7741 -2.84832 0
M  V30 20793 N 1899.36 0.706069 -1.40899 0
M  V30 20794 C 1900.6 1.47839 -1.41149 0
M  V30 20795 C 1900.96 1.91993 -0.0158488 0
M  V30 20796 O 1902.16 2.68588 0.106807 0
M  V30 20797 C 1900.43 2.66503 -2.38141 0
M  V30 20798 S 1901.99 3.55785 -2.56831 0
M  V30 20799 H 1898.81 0.505332 -0.50016 0
M  V30 20800 H 1901.41 0.824818 -1.77248 0
M  V30 20801 H 1900.12 2.32251 -3.3836 0
M  V30 20802 H 1899.65 3.36763 -2.03358 0
M  V30 20803 H 1901.66 4.61307 -1.82785 0
M  V30 20804 N 1900.84 1.26553 0.939264 0
M  V30 20805 C 1902.08 1.1221 1.68568 0
M  V30 20806 C 1902.41 -0.334213 1.91607 0
M  V30 20807 O 1901.67 -1.26177 1.49593 0
M  V30 20808 C 1901.97 1.83848 3.06488 0
M  V30 20809 C 1901.63 3.33739 3.03198 0
M  V30 20810 C 1900.29 3.74626 3.02008 0
M  V30 20811 C 1902.65 4.29432 2.9536 0
M  V30 20812 C 1899.97 5.0959 2.90748 0
M  V30 20813 C 1902.33 5.64439 2.85641 0
M  V30 20814 C 1900.99 6.04635 2.82795 0
M  V30 20815 H 1900.26 0.410606 0.616833 0
M  V30 20816 H 1902.91 1.57019 1.09623 0
M  V30 20817 H 1901.21 1.31514 3.69068 0
M  V30 20818 H 1902.91 1.70189 3.63093 0
M  V30 20819 H 1899.5 3.01216 3.04905 0
M  V30 20820 H 1903.68 3.98824 2.95386 0
M  V30 20821 H 1898.94 5.39894 2.86923 0
M  V30 20822 H 1903.11 6.3827 2.7854 0
M  V30 20823 H 1900.74 7.09171 2.73826 0
M  V30 20824 N 1902.31 -1.14411 1.08387 0
M  V30 20825 C 1903.73 -1.67013 0.83448 0
M  V30 20826 C 1904.08 -1.85509 -0.638802 0
M  V30 20827 O 1903.2 -1.56611 -1.49338 0
M  V30 20828 C 1903.8 -3.03377 1.50825 0
M  V30 20829 C 1902.36 -3.53013 1.3061 0
M  V30 20830 C 1901.5 -2.28494 1.57117 0
M  V30 20831 H 1904.45 -0.984794 1.24449 0
M  V30 20832 H 1904.47 -3.68824 0.935352 0
M  V30 20833 H 1903.99 -2.89883 2.5805 0
M  V30 20834 H 1902.09 -3.7173 0.254538 0
M  V30 20835 H 1902.2 -4.33799 2.0336 0
M  V30 20836 H 1900.56 -2.34558 0.99271 0
M  V30 20837 H 1901.35 -2.17576 2.65547 0
M  V30 20838 N 1903.79 -0.869509 -1.31443 0
M  V30 20839 C 1904.74 -0.323034 -2.28528 0
M  V30 20840 C 1905.71 0.578245 -1.5571 0
M  V30 20841 O 1906.89 0.509983 -1.83858 0
M  V30 20842 C 1904.03 0.469861 -3.41886 0
M  V30 20843 C 1903.15 -0.458883 -4.29556 0
M  V30 20844 C 1902.28 0.348092 -5.30058 0
M  V30 20845 C 1901.32 -0.577109 -6.09373 0
M  V30 20846 N 1900.46 0.193589 -7.01833 0
M  V30 20847 H 1905.3 -1.15614 -2.74659 0
M  V30 20848 H 1902.84 -0.581526 -1.35117 0
M  V30 20849 H 1904.79 0.945338 -4.06349 0
M  V30 20850 H 1903.42 1.26767 -2.96867 0
M  V30 20851 H 1902.48 -1.05281 -3.65541 0
M  V30 20852 H 1903.79 -1.16833 -4.84924 0
M  V30 20853 H 1902.94 0.886098 -6.00194 0
M  V30 20854 H 1901.68 1.09083 -4.75344 0
M  V30 20855 H 1900.69 -1.12687 -5.38128 0
M  V30 20856 H 1901.91 -1.31869 -6.66174 0
M  V30 20857 H 1899.86 0.919147 -6.49529 0
M  V30 20858 H 1899.77 -0.456525 -7.5462 0
M  V30 20859 H 1901.04 0.71284 -7.76234 0
M  V30 20860 N 1905.27 1.44508 -0.628902 0
M  V30 20861 C 1906.52 2.01281 -0.129966 0
M  V30 20862 C 1906.83 1.50041 1.25488 0
M  V30 20863 O 1908.04 1.98927 1.84771 0
M  V30 20864 C 1906.49 3.59442 -0.1816 0
M  V30 20865 C 1906.1 4.19678 -1.56762 0
M  V30 20866 C 1907.85 4.23697 0.260988 0
M  V30 20867 C 1905.75 5.70056 -1.57449 0
M  V30 20868 H 1904.68 0.752667 -0.0448215 0
M  V30 20869 H 1907.33 1.65749 -0.787372 0
M  V30 20870 H 1905.72 3.92261 0.542864 0
M  V30 20871 H 1906.89 3.98399 -2.31549 0
M  V30 20872 H 1905.21 3.67701 -1.9541 0
M  V30 20873 H 1907.8 5.33991 0.275356 0
M  V30 20874 H 1908.15 3.95878 1.28787 0
M  V30 20875 H 1908.68 3.95672 -0.410909 0
M  V30 20876 H 1905.42 6.02606 -2.57966 0
M  V30 20877 H 1904.94 5.93464 -0.869514 0
M  V30 20878 H 1906.62 6.33652 -1.30745 0
M  V30 20879 N 1906.75 0.369315 1.53212 0
M  V30 20880 C 1907.68 -0.467242 2.28777 0
M  V30 20881 C 1908.66 -1.08073 1.31355 0
M  V30 20882 O 1909.85 -1.09728 1.60229 0
M  V30 20883 C 1906.98 -1.60519 3.07979 0
M  V30 20884 C 1905.93 -1.11876 4.1312 0
M  V30 20885 C 1905.26 -2.34723 4.80426 0
M  V30 20886 C 1906.56 -0.200846 5.21914 0
M  V30 20887 H 1908.25 0.163201 2.98955 0
M  V30 20888 H 1905.8 0.0799312 1.43778 0
M  V30 20889 H 1907.75 -2.19708 3.59592 0
M  V30 20890 H 1906.47 -2.26292 2.35499 0
M  V30 20891 H 1905.13 -0.549521 3.62458 0
M  V30 20892 H 1904.78 -2.98961 4.04514 0
M  V30 20893 H 1904.48 -2.02846 5.51477 0
M  V30 20894 H 1906 -2.94592 5.34835 0
M  V30 20895 H 1907.42 -0.700331 5.69006 0
M  V30 20896 H 1905.81 0.0272222 6.00094 0
M  V30 20897 H 1906.88 0.755948 4.78971 0
M  V30 20898 N 1908.23 -1.57291 0.0985816 0
M  V30 20899 C 1909.47 -1.94767 -0.56514 0
M  V30 20900 C 1909.81 -0.980722 -1.67617 0
M  V30 20901 O 1909.08 -0.0143714 -1.94495 0
M  V30 20902 C 1909.36 -3.42336 -1.11704 0
M  V30 20903 C 1909.22 -4.49799 -0.0108284 0
M  V30 20904 C 1910.54 -3.91296 -2.01434 0
M  V30 20905 H 1907.66 -0.708215 -0.203963 0
M  V30 20906 H 1910.3 -1.89238 0.169998 0
M  V30 20907 H 1908.45 -3.47179 -1.74354 0
M  V30 20908 H 1910.12 -4.57066 0.623574 0
M  V30 20909 H 1908.36 -4.28825 0.655093 0
M  V30 20910 H 1909.03 -5.50261 -0.437868 0
M  V30 20911 H 1911.51 -3.88628 -1.48685 0
M  V30 20912 H 1910.39 -4.9511 -2.36975 0
M  V30 20913 H 1910.65 -3.30792 -2.93307 0
M  V30 20914 N 1909.71 0.175127 -1.56624 0
M  V30 20915 C 1910.65 1.23623 -1.97028 0
M  V30 20916 C 1911.65 1.46036 -0.858485 0
M  V30 20917 O 1912.85 1.46661 -1.04358 0
M  V30 20918 H 1909.23 0.415474 -0.626806 0
M  V30 20919 H 1911.2 0.86857 -2.85479 0
M  V30 20920 C 1909.95 2.56896 -2.34307 0
M  V30 20921 H 1909.27 2.40471 -3.19396 0
M  V30 20922 H 1910.71 3.29839 -2.66425 0
M  V30 20923 C 1909.17 3.15369 -1.18506 0
M  V30 20924 O 1909.7 3.98933 -0.470694 0
M  V30 20925 N 1907.91 2.74403 -0.956625 0
M  V30 20926 H 1907.45 2.06551 -1.5393 0
M  V30 20927 H 1907.41 3.13863 -0.183647 0
M  V30 20928 N 1911.18 1.5123 0.44355 0
M  V30 20929 C 1912.43 1.62825 1.19041 0
M  V30 20930 C 1912.75 0.347298 1.92492 0
M  V30 20931 O 1913.95 0.342537 2.69331 0
M  V30 20932 C 1912.41 2.87532 2.16456 0
M  V30 20933 C 1912.02 4.22608 1.48682 0
M  V30 20934 C 1913.76 3.08483 2.91614 0
M  V30 20935 C 1911.67 5.38472 2.44544 0
M  V30 20936 H 1910.6 0.606444 0.448041 0
M  V30 20937 H 1913.25 1.77691 0.458065 0
M  V30 20938 H 1911.63 2.66287 2.931 0
M  V30 20939 H 1912.8 4.54212 0.776389 0
M  V30 20940 H 1911.12 4.07485 0.857007 0
M  V30 20941 H 1913.72 3.92219 3.63413 0
M  V30 20942 H 1914.06 2.2131 3.52601 0
M  V30 20943 H 1914.59 3.30039 2.22078 0
M  V30 20944 H 1911.33 6.27886 1.88255 0
M  V30 20945 H 1910.85 5.11252 3.13658 0
M  V30 20946 H 1912.53 5.70169 3.05804 0
M  V30 20947 N 1912.66 -0.698586 1.41271 0
M  V30 20948 C 1913.59 -1.82505 1.4565 0
M  V30 20949 C 1914.57 -1.67149 0.315497 0
M  V30 20950 O 1915.76 -1.86926 0.526518 0
M  V30 20951 C 1912.89 -3.20616 1.33502 0
M  V30 20952 C 1911.84 -3.50672 2.45383 0
M  V30 20953 C 1911.17 -4.88107 2.18302 0
M  V30 20954 C 1912.47 -3.49952 3.87725 0
M  V30 20955 H 1914.16 -1.79098 2.39926 0
M  V30 20956 H 1911.71 -0.860237 1.15481 0
M  V30 20957 H 1913.66 -3.9913 1.35179 0
M  V30 20958 H 1912.38 -3.24642 0.357101 0
M  V30 20959 H 1911.04 -2.74507 2.42984 0
M  V30 20960 H 1910.69 -4.88755 1.1886 0
M  V30 20961 H 1910.39 -5.09182 2.9327 0
M  V30 20962 H 1911.92 -5.68934 2.21689 0
M  V30 20963 H 1913.33 -4.18476 3.91855 0
M  V30 20964 H 1911.73 -3.82559 4.62351 0
M  V30 20965 H 1912.8 -2.48988 4.16093 0
M  V30 20966 N 1914.14 -1.27049 -0.93254 0
M  V30 20967 C 1915.55 -1.11887 -1.49459 0
M  V30 20968 C 1915.9 0.297825 -1.93926 0
M  V30 20969 O 1915.03 1.19024 -1.80727 0
M  V30 20970 C 1915.62 -2.02497 -2.71626 0
M  V30 20971 C 1914.18 -1.91455 -3.24071 0
M  V30 20972 C 1913.33 -1.95337 -1.96821 0
M  V30 20973 H 1916.28 -1.40013 -0.747138 0
M  V30 20974 H 1916.3 -1.57794 -3.46239 0
M  V30 20975 H 1915.81 -3.05598 -2.39231 0
M  V30 20976 H 1913.91 -0.913212 -3.61236 0
M  V30 20977 H 1914.03 -2.77443 -3.90592 0
M  V30 20978 H 1912.39 -1.395 -2.13101 0
M  V30 20979 H 1913.17 -3.00084 -1.66746 0
M  V30 20980 N 1915.62 1.13835 -1.08993 0
M  V30 20981 C 1916.85 1.88588 -0.843698 0
M  V30 20982 C 1917.26 1.79154 0.608307 0
M  V30 20983 O 1916.6 1.1529 1.43017 0
M  V30 20984 C 1916.66 3.39079 -1.19438 0
M  V30 20985 C 1916.32 3.72295 -2.65038 0
M  V30 20986 C 1917.32 3.71911 -3.63288 0
M  V30 20987 C 1915.01 4.0209 -3.01046 0
M  V30 20988 C 1917 4.00855 -4.95574 0
M  V30 20989 C 1914.69 4.30697 -4.33525 0
M  V30 20990 C 1915.69 4.30063 -5.30598 0
M  V30 20991 O 1915.37 4.57972 -6.60694 0
M  V30 20992 H 1915.11 0.60402 -0.303539 0
M  V30 20993 H 1917.66 1.45055 -1.45424 0
M  V30 20994 H 1915.89 3.83094 -0.526861 0
M  V30 20995 H 1917.58 3.95149 -0.928011 0
M  V30 20996 H 1918.34 3.48972 -3.36814 0
M  V30 20997 H 1914.22 4.01733 -2.26123 0
M  V30 20998 H 1917.77 4.00276 -5.71336 0
M  V30 20999 H 1913.66 4.53106 -4.59745 0
M  V30 21000 H 1914.43 4.75661 -6.661 0
M  V30 21001 N 1917.1 0.876467 1.3098 0
M  V30 21002 C 1918.34 0.49064 1.96466 0
M  V30 21003 C 1918.67 -0.958443 1.69246 0
M  V30 21004 O 1917.93 -1.69096 0.985144 0
M  V30 21005 C 1918.22 0.70208 3.50436 0
M  V30 21006 C 1917.89 2.12494 3.9769 0
M  V30 21007 C 1916.55 2.51405 4.10303 0
M  V30 21008 C 1918.9 3.0526 4.22452 0
M  V30 21009 C 1916.23 3.82309 4.45035 0
M  V30 21010 C 1918.58 4.35686 4.5865 0
M  V30 21011 C 1917.25 4.74502 4.69472 0
M  V30 21012 H 1916.52 0.179538 0.718921 0
M  V30 21013 H 1919.17 1.1107 1.55999 0
M  V30 21014 H 1917.47 -0.00106996 3.918 0
M  V30 21015 H 1919.17 0.383279 3.99164 0
M  V30 21016 H 1915.76 1.81287 3.88372 0
M  V30 21017 H 1919.94 2.76422 4.12195 0
M  V30 21018 H 1915.2 4.12136 4.51612 0
M  V30 21019 H 1919.37 5.07612 4.76763 0
M  V30 21020 H 1917 5.75976 4.9614 0
M  V30 21021 N 1918.57 -1.44173 0.636557 0
M  V30 21022 C 1919.54 -2.29133 -0.0554994 0
M  V30 21023 C 1920.54 -1.41329 -0.766986 0
M  V30 21024 O 1921.73 -1.63142 -0.610753 0
M  V30 21025 C 1918.86 -3.23031 -1.08922 0
M  V30 21026 H 1920.05 -2.91811 0.691829 0
M  V30 21027 H 1917.6 -1.51175 0.396956 0
M  V30 21028 H 1918.34 -2.65213 -1.86635 0
M  V30 21029 H 1918.12 -3.87743 -0.58291 0
M  V30 21030 H 1919.61 -3.8684 -1.57304 0
M  V30 21031 N 1920.05 -0.377435 -1.53014 0
M  V30 21032 C 1921.28 0.208641 -2.05544 0
M  V30 21033 C 1921.69 1.42037 -1.24988 0
M  V30 21034 O 1921.03 1.81451 -0.286565 0
M  V30 21035 C 1921.09 0.654786 -3.53487 0
M  V30 21036 C 1920.76 -0.441865 -4.54859 0
M  V30 21037 C 1921.76 -1.29552 -5.035 0
M  V30 21038 C 1919.44 -0.605501 -4.98637 0
M  V30 21039 C 1921.43 -2.29804 -5.94533 0
M  V30 21040 C 1919.12 -1.61137 -5.89473 0
M  V30 21041 C 1920.12 -2.45607 -6.37312 0
M  V30 21042 O 1919.81 -3.44477 -7.26355 0
M  V30 21043 H 1919.54 0.0379445 -0.674934 0
M  V30 21044 H 1922.09 -0.537644 -1.98239 0
M  V30 21045 H 1920.32 1.45286 -3.5837 0
M  V30 21046 H 1922.01 1.16519 -3.88816 0
M  V30 21047 H 1922.78 -1.18035 -4.70418 0
M  V30 21048 H 1918.66 0.042229 -4.60981 0
M  V30 21049 H 1922.2 -2.95771 -6.31795 0
M  V30 21050 H 1918.1 -1.72697 -6.21969 0
M  V30 21051 H 1918.87 -3.40345 -7.44384 0
M  V30 21052 N 1921.53 1.57237 -0.106922 0
M  V30 21053 C 1922.44 2.18202 0.861685 0
M  V30 21054 C 1923.46 1.15476 1.30159 0
M  V30 21055 O 1924.63 1.47896 1.36707 0
M  V30 21056 C 1921.7 2.7598 2.09847 0
M  V30 21057 C 1920.76 3.93702 1.71164 0
M  V30 21058 C 1919.99 4.48716 2.88946 0
M  V30 21059 O 1920.21 4.02645 4.04021 0
M  V30 21060 O 1919.15 5.39573 2.66729 0
M  V30 21061 H 1922.97 3.01402 0.372924 0
M  V30 21062 H 1920.56 1.48933 0.118058 0
M  V30 21063 H 1922.44 3.12861 2.82305 0
M  V30 21064 H 1921.12 1.9582 2.57753 0
M  V30 21065 H 1920.02 3.61613 0.958499 0
M  V30 21066 H 1921.36 4.75262 1.28011 0
M  V30 21067 N 1923.01 -0.166818 1.56715 0
M  V30 21068 C 1924.26 -0.880972 1.81888 0
M  V30 21069 C 1924.58 -1.82586 0.68465 0
M  V30 21070 O 1923.85 -1.93663 -0.295173 0
M  V30 21071 H 1922.43 -0.32831 0.670985 0
M  V30 21072 H 1925.09 -0.165558 1.94196 0
M  V30 21073 H 1924.19 -1.45517 2.761 0
M  V30 21074 N 1924.49 -1.51463 -0.435524 0
M  V30 21075 C 1925.71 -1.68031 -1.20719 0
M  V30 21076 C 1926.13 -0.378427 -1.84969 0
M  V30 21077 O 1925.49 0.643234 -1.70789 0
M  V30 21078 C 1925.54 -2.79726 -2.28989 0
M  V30 21079 O 1925.26 -4.0487 -1.67367 0
M  V30 21080 C 1926.76 -3.07578 -3.19234 0
M  V30 21081 H 1923.98 -0.56383 -0.363781 0
M  V30 21082 H 1926.52 -1.97888 -0.515825 0
M  V30 21083 H 1924.68 -2.52463 -2.93839 0
M  V30 21084 H 1925.09 -4.66915 -2.38937 0
M  V30 21085 H 1926.57 -3.89309 -3.91334 0
M  V30 21086 H 1927.04 -2.20059 -3.80093 0
M  V30 21087 H 1927.65 -3.36507 -2.60083 0
M  V30 21088 N 1925.96 0.691085 -1.4164 0
M  V30 21089 C 1927.38 1.00223 -1.24207 0
M  V30 21090 C 1927.58 2.0105 -0.134625 0
M  V30 21091 O 1926.64 2.4751 0.499509 0
M  V30 21092 C 1927.95 1.52256 -2.59304 0
M  V30 21093 C 1929.5 1.64117 -2.66523 0
M  V30 21094 C 1929.97 2.19551 -4.01947 0
M  V30 21095 N 1931.46 2.26906 -4.03817 0
M  V30 21096 C 1932.2 2.70835 -5.05407 0
M  V30 21097 N 1931.69 3.14337 -6.17385 0
M  V30 21098 N 1933.49 2.70439 -4.92767 0
M  V30 21099 H 1925.64 0.0232257 -2.12387 0
M  V30 21100 H 1927.9 0.0728626 -0.945196 0
M  V30 21101 H 1927.61 0.856261 -3.41117 0
M  V30 21102 H 1927.48 2.50399 -2.821 0
M  V30 21103 H 1929.87 2.29858 -1.85066 0
M  V30 21104 H 1929.95 0.645083 -2.47532 0
M  V30 21105 H 1929.59 1.54424 -4.83855 0
M  V30 21106 H 1929.52 3.1992 -4.18281 0
M  V30 21107 H 1932.01 1.96212 -3.22969 0
M  V30 21108 H 1932.33 3.46496 -6.90768 0
M  V30 21109 H 1930.67 3.12235 -6.20914 0
M  V30 21110 H 1933.86 2.35806 -4.04368 0
M  V30 21111 H 1934.04 3.04357 -5.72076 0
M  V30 21112 N 1927.44 1.27542 0.925789 0
M  V30 21113 C 1928.72 1.04714 1.6521 0
M  V30 21114 C 1929.1 -0.417492 2.0693 0
M  V30 21115 O 1928.45 -1.40112 1.80502 0
M  V30 21116 C 1928.66 2.0105 2.85272 0
M  V30 21117 C 1930.01 2.30526 3.56571 0
M  V30 21118 O 1931.03 1.99038 2.95402 0
M  V30 21119 O 1929.89 2.84211 4.66783 0
M  V30 21120 H 1926.98 0.399325 0.724202 0
M  V30 21121 H 1929.53 1.38814 0.976156 0
M  V30 21122 H 1928.3 2.99817 2.51447 0
M  V30 21123 H 1927.92 1.67523 3.60585 0
M  V30 21124 N 1928.92 -1.13255 1.09595 0
M  V30 21125 C 1930.15 -1.88952 0.855104 0
M  V30 21126 C 1930.57 -1.78668 -0.588174 0
M  V30 21127 O 1929.93 -1.13544 -1.41341 0
M  V30 21128 C 1929.98 -3.36461 1.29717 0
M  V30 21129 O 1929.08 -4.09863 0.456717 0
M  V30 21130 H 1928.42 -0.587432 0.309547 0
M  V30 21131 H 1930.95 -1.43282 1.46053 0
M  V30 21132 H 1930.96 -3.87291 1.28333 0
M  V30 21133 H 1929.64 -3.43263 2.34826 0
M  V30 21134 H 1928.21 -3.69042 0.535026 0
M  V30 21135 N 1930.4 -0.883401 -1.30514 0
M  V30 21136 C 1931.65 -0.500062 -1.95816 0
M  V30 21137 C 1931.97 0.953596 -1.70093 0
M  V30 21138 O 1931.24 1.67027 -1.02365 0
M  V30 21139 H 1929.82 -0.181936 -0.724506 0
M  V30 21140 H 1932.48 -1.12613 -1.59073 0
M  V30 21141 H 1931.58 -0.668998 -3.04846 0
M  V30 21142 N 1931.88 1.43833 -0.644194 0
M  V30 21143 C 1932.81 2.2797 0.102458 0
M  V30 21144 C 1933.79 1.39303 0.838652 0
M  V30 21145 O 1934.97 1.68745 0.840073 0
M  V30 21146 C 1932.1 3.18522 1.15157 0
M  V30 21147 C 1931.14 4.23386 0.51444 0
M  V30 21148 S 1931.98 5.30835 -0.705268 0
M  V30 21149 C 1933.13 6.24957 0.343531 0
M  V30 21150 H 1933.37 2.90948 -0.611277 0
M  V30 21151 H 1930.9 1.48211 -0.432753 0
M  V30 21152 H 1932.86 3.71241 1.75187 0
M  V30 21153 H 1931.52 2.54739 1.83757 0
M  V30 21154 H 1930.71 4.86812 1.305 0
M  V30 21155 H 1930.31 3.73998 -0.0115435 0
M  V30 21156 H 1932.61 6.66565 1.21235 0
M  V30 21157 H 1933.55 7.07639 -0.255473 0
M  V30 21158 H 1933.96 5.60446 0.675291 0
M  V30 21159 N 1933.35 0.385544 1.52811 0
M  V30 21160 C 1934.32 -0.439294 2.24951 0
M  V30 21161 C 1935.32 -0.993315 1.26451 0
M  V30 21162 O 1936.51 -0.875911 1.50577 0
M  V30 21163 C 1933.64 -1.61595 3.00166 0
M  V30 21164 H 1934.83 0.192232 2.99283 0
M  V30 21165 H 1932.39 0.137589 1.55693 0
M  V30 21166 H 1933.12 -2.28501 2.30125 0
M  V30 21167 H 1932.91 -1.22544 3.72459 0
M  V30 21168 H 1934.4 -2.20001 3.5495 0
M  V30 21169 N 1934.83 -1.57178 0.115259 0
M  V30 21170 C 1935.76 -2.1218 -0.866728 0
M  V30 21171 C 1936.78 -1.06365 -1.23249 0
M  V30 21172 O 1937.97 -1.33749 -1.18209 0
M  V30 21173 C 1935.07 -2.60337 -2.16975 0
M  V30 21174 C 1934.24 -3.90209 -1.97625 0
M  V30 21175 C 1933.3 -4.24003 -3.11622 0
M  V30 21176 O 1932.32 -4.92884 -2.847 0
M  V30 21177 N 1933.53 -3.81022 -4.37953 0
M  V30 21178 H 1936.29 -2.97061 -0.396835 0
M  V30 21179 H 1933.85 -1.61752 -0.0692734 0
M  V30 21180 H 1935.84 -2.79976 -2.92225 0
M  V30 21181 H 1934.41 -1.80356 -2.55324 0
M  V30 21182 H 1933.63 -3.79516 -1.06589 0
M  V30 21183 H 1934.92 -4.75137 -1.81996 0
M  V30 21184 H 1934.32 -3.25459 -4.62702 0
M  V30 21185 H 1932.88 -4.05777 -5.10086 0
M  V30 21186 N 1936.31 0.158505 -1.56801 0
M  V30 21187 C 1937.24 1.22086 -1.93978 0
M  V30 21188 C 1938.26 1.39798 -0.834291 0
M  V30 21189 O 1939.45 1.39573 -1.11272 0
M  V30 21190 C 1936.55 2.58757 -2.18857 0
M  V30 21191 C 1935.72 2.62175 -3.50118 0
M  V30 21192 C 1934.78 3.80301 -3.63673 0
M  V30 21193 O 1933.8 3.65706 -4.36174 0
M  V30 21194 N 1935.01 4.97286 -2.99477 0
M  V30 21195 H 1937.77 0.904964 -2.8571 0
M  V30 21196 H 1935.33 0.348168 -1.58112 0
M  V30 21197 H 1937.32 3.3627 -2.25177 0
M  V30 21198 H 1935.89 2.82685 -1.33446 0
M  V30 21199 H 1935.11 1.70662 -3.55342 0
M  V30 21200 H 1936.4 2.61481 -4.36469 0
M  V30 21201 H 1935.8 5.12046 -2.40469 0
M  V30 21202 H 1934.36 5.72616 -3.11375 0
M  V30 21203 N 1937.79 1.51692 0.427485 0
M  V30 21204 C 1939.21 1.40086 0.764726 0
M  V30 21205 C 1939.41 0.490917 1.95428 0
M  V30 21206 O 1938.46 -0.0502236 2.5245 0
M  V30 21207 C 1939.77 2.82295 1.03586 0
M  V30 21208 C 1941.32 2.91513 1.1397 0
M  V30 21209 C 1941.8 4.34651 1.44371 0
M  V30 21210 N 1943.29 4.37802 1.51274 0
M  V30 21211 C 1944.02 5.45596 1.76388 0
M  V30 21212 N 1943.52 6.63536 1.99228 0
M  V30 21213 N 1945.31 5.33088 1.78252 0
M  V30 21214 H 1937.46 2.09399 -0.355809 0
M  V30 21215 H 1939.73 0.943043 -0.0968225 0
M  V30 21216 H 1939.43 3.50918 0.234369 0
M  V30 21217 H 1939.31 3.22223 1.96092 0
M  V30 21218 H 1941.69 2.23082 1.9318 0
M  V30 21219 H 1941.77 2.55068 0.193426 0
M  V30 21220 H 1941.42 5.03635 0.656841 0
M  V30 21221 H 1941.35 4.68617 2.4022 0
M  V30 21222 H 1943.84 3.52777 1.35487 0
M  V30 21223 H 1944.15 7.41477 2.17789 0
M  V30 21224 H 1942.5 6.66634 1.9653 0
M  V30 21225 H 1945.69 4.39931 1.59933 0
M  V30 21226 H 1945.86 6.17174 1.97486 0
M  V30 21227 N 1939.27 -0.683564 1.42004 0
M  V30 21228 C 1940.18 -1.82689 1.4718 0
M  V30 21229 C 1941.19 -1.70208 0.361298 0
M  V30 21230 O 1942.37 -1.91912 0.610867 0
M  V30 21231 C 1939.43 -3.18767 1.3634 0
M  V30 21232 C 1938.5 -3.43269 2.57808 0
M  V30 21233 C 1937.73 -4.72855 2.47476 0
M  V30 21234 O 1937.95 -5.50164 1.50584 0
M  V30 21235 O 1936.89 -4.98407 3.37452 0
M  V30 21236 H 1940.71 -1.81279 2.43663 0
M  V30 21237 H 1938.3 -0.838182 1.23672 0
M  V30 21238 H 1940.18 -3.99986 1.32624 0
M  V30 21239 H 1938.85 -3.20834 0.429781 0
M  V30 21240 H 1937.76 -2.61933 2.67099 0
M  V30 21241 H 1939.09 -3.46025 3.50039 0
M  V30 21242 N 1940.75 -1.28031 -0.919012 0
M  V30 21243 C 1941.97 -1.17714 -1.7015 0
M  V30 21244 C 1942.39 0.264914 -1.86932 0
M  V30 21245 O 1941.75 1.17957 -1.39256 0
M  V30 21246 C 1941.8 -1.86548 -3.09648 0
M  V30 21247 O 1941.52 -3.25121 -2.93646 0
M  V30 21248 C 1943.02 -1.82467 -4.04006 0
M  V30 21249 H 1940.24 -0.408863 -0.532045 0
M  V30 21250 H 1942.78 -1.69061 -1.1506 0
M  V30 21251 H 1940.94 -1.39085 -3.61572 0
M  V30 21252 H 1941.35 -3.59518 -3.81899 0
M  V30 21253 H 1942.83 -2.35229 -4.99371 0
M  V30 21254 H 1943.3 -0.795892 -4.31928 0
M  V30 21255 H 1943.91 -2.29585 -3.5801 0
M  V30 21256 N 1942.22 1.12672 -1.10194 0
M  V30 21257 C 1943.19 2.16513 -0.751974 0
M  V30 21258 C 1944.19 1.59255 0.222352 0
M  V30 21259 O 1945.38 1.742 -0.000482744 0
M  V30 21260 C 1942.51 3.40711 -0.113421 0
M  V30 21261 H 1943.7 2.48986 -1.67171 0
M  V30 21262 H 1941.25 1.27637 -0.90214 0
M  V30 21263 H 1941.99 3.13836 0.817162 0
M  V30 21264 H 1941.77 3.83545 -0.814599 0
M  V30 21265 H 1943.26 4.1744 0.115756 0
M  V30 21266 N 1943.7 0.89031 1.30043 0
M  V30 21267 C 1944.93 0.526566 2.00087 0
M  V30 21268 C 1945.34 -0.88632 1.66703 0
M  V30 21269 O 1944.7 -1.58365 0.907012 0
M  V30 21270 C 1944.75 0.698102 3.54695 0
M  V30 21271 O 1944.47 2.05537 3.86893 0
M  V30 21272 C 1945.97 0.338058 4.42009 0
M  V30 21273 H 1943.19 0.20299 0.639559 0
M  V30 21274 H 1945.74 1.19708 1.65802 0
M  V30 21275 H 1943.89 0.0748931 3.87328 0
M  V30 21276 H 1944.31 2.07787 4.81586 0
M  V30 21277 H 1945.78 0.508957 5.49649 0
M  V30 21278 H 1946.26 -0.724284 4.33187 0
M  V30 21279 H 1946.86 0.937813 4.14831 0
M  V30 21280 N 1945.18 -1.43489 0.651812 0
M  V30 21281 C 1946.13 -2.30764 -0.0406423 0
M  V30 21282 C 1947.1 -1.44669 -0.816091 0
M  V30 21283 O 1948.28 -1.73541 -0.792978 0
M  V30 21284 C 1945.42 -3.30232 -1.00206 0
M  V30 21285 C 1944.53 -4.31425 -0.222857 0
M  V30 21286 C 1943.67 -5.17975 -1.17794 0
M  V30 21287 C 1942.71 -6.10862 -0.389096 0
M  V30 21288 N 1941.85 -6.90041 -1.2957 0
M  V30 21289 H 1946.69 -2.89431 0.709482 0
M  V30 21290 H 1944.22 -1.42585 0.361636 0
M  V30 21291 H 1946.18 -3.86408 -1.57306 0
M  V30 21292 H 1944.81 -2.73217 -1.71907 0
M  V30 21293 H 1943.86 -3.77554 0.464409 0
M  V30 21294 H 1945.17 -4.97268 0.390608 0
M  V30 21295 H 1944.33 -5.7877 -1.81962 0
M  V30 21296 H 1943.07 -4.52254 -1.82532 0
M  V30 21297 H 1942.07 -5.49156 0.265943 0
M  V30 21298 H 1943.3 -6.78625 0.253855 0
M  V30 21299 H 1941.24 -6.2697 -1.9299 0
M  V30 21300 H 1941.16 -7.52401 -0.736762 0
M  V30 21301 H 1942.43 -7.55342 -1.92557 0
M  V30 21302 N 1946.66 -0.393643 -1.52605 0
M  V30 21303 C 1947.9 0.187431 -2.01932 0
M  V30 21304 C 1948.24 1.46098 -1.27942 0
M  V30 21305 O 1947.51 1.90729 -0.381154 0
M  V30 21306 C 1947.79 0.450933 -3.57265 0
M  V30 21307 C 1947.65 -0.838204 -4.41921 0
M  V30 21308 C 1948.97 1.23971 -4.22278 0
M  V30 21309 H 1946.09 0.0666471 -0.73398 0
M  V30 21310 H 1948.73 -0.524064 -1.8263 0
M  V30 21311 H 1946.88 1.05703 -3.73844 0
M  V30 21312 H 1948.55 -1.47492 -4.37086 0
M  V30 21313 H 1946.79 -1.45258 -4.08757 0
M  V30 21314 H 1947.46 -0.608424 -5.48637 0
M  V30 21315 H 1949.94 0.726733 -4.09705 0
M  V30 21316 H 1948.82 1.39283 -5.30935 0
M  V30 21317 H 1949.08 2.25611 -3.802 0
M  V30 21318 N 1948.14 1.57115 -0.123593 0
M  V30 21319 C 1949.37 1.99415 0.540103 0
M  V30 21320 C 1949.77 1.00228 1.60471 0
M  V30 21321 O 1949.12 -0.0123101 1.83696 0
M  V30 21322 C 1949.18 3.38134 1.22088 0
M  V30 21323 C 1948.84 4.5599 0.30367 0
M  V30 21324 C 1949.84 5.17865 -0.459524 0
M  V30 21325 C 1947.52 5.01846 0.213401 0
M  V30 21326 C 1949.52 6.23988 -1.30067 0
M  V30 21327 C 1947.21 6.0783 -0.631375 0
M  V30 21328 C 1948.2 6.68768 -1.38704 0
M  V30 21329 O 1947.89 7.72703 -2.21778 0
M  V30 21330 H 1947.62 0.659781 0.147192 0
M  V30 21331 H 1950.18 2.04343 -0.208128 0
M  V30 21332 H 1948.41 3.29975 2.01628 0
M  V30 21333 H 1950.1 3.64694 1.78195 0
M  V30 21334 H 1950.86 4.8335 -0.399683 0
M  V30 21335 H 1946.74 4.54158 0.791276 0
M  V30 21336 H 1950.29 6.71482 -1.89097 0
M  V30 21337 H 1946.18 6.41774 -0.692592 0
M  V30 21338 H 1946.95 7.8982 -2.1477 0
M  V30 21339 N 1949.61 -0.150187 1.56883 0
M  V30 21340 C 1950.89 -0.891842 1.74085 0
M  V30 21341 C 1951.27 -1.99479 0.690751 0
M  V30 21342 O 1950.62 -2.26641 -0.290877 0
M  V30 21343 C 1950.83 -1.43722 3.18033 0
M  V30 21344 C 1952.18 -1.90188 3.79623 0
M  V30 21345 O 1953.2 -1.53471 3.21442 0
M  V30 21346 O 1952.06 -2.57892 4.81824 0
M  V30 21347 H 1949.15 -0.421241 0.711678 0
M  V30 21348 H 1951.7 -0.136362 1.69151 0
M  V30 21349 H 1950.47 -0.644422 3.85957 0
M  V30 21350 H 1950.09 -2.2563 3.27379 0
M  V30 21351 N 1951.09 -1.51916 -0.419434 0
M  V30 21352 C 1952.03 -1.69227 -1.53093 0
M  V30 21353 C 1953 -0.539814 -1.53378 0
M  V30 21354 O 1954.19 -0.765893 -1.72239 0
M  V30 21355 C 1951.31 -1.7222 -2.91647 0
M  V30 21356 C 1950.36 -2.93643 -3.09315 0
M  V30 21357 S 1951.19 -4.54164 -2.83717 0
M  V30 21358 C 1952.35 -4.59928 -4.2452 0
M  V30 21359 H 1952.58 -2.63237 -1.38179 0
M  V30 21360 H 1950.12 -1.41825 -0.61033 0
M  V30 21361 H 1952.07 -1.7463 -3.71503 0
M  V30 21362 H 1950.73 -0.793553 -3.0391 0
M  V30 21363 H 1949.93 -2.9219 -4.10659 0
M  V30 21364 H 1949.53 -2.89068 -2.3731 0
M  V30 21365 H 1951.82 -4.36671 -5.18001 0
M  V30 21366 H 1952.76 -5.61822 -4.31 0
M  V30 21367 H 1953.17 -3.89064 -4.0901 0
M  V30 21368 N 1952.57 0.676023 -1.42365 0
M  V30 21369 C 1953.5 1.80165 -1.48536 0
M  V30 21370 C 1954.48 1.66625 -0.342049 0
M  V30 21371 O 1955.67 1.86065 -0.55619 0
M  V30 21372 C 1952.8 3.18451 -1.38586 0
M  V30 21373 C 1951.75 3.46724 -2.50931 0
M  V30 21374 C 1951.08 4.84572 -2.2604 0
M  V30 21375 C 1952.38 3.4374 -3.93243 0
M  V30 21376 H 1954.07 1.75258 -2.42745 0
M  V30 21377 H 1951.62 0.841756 -1.16835 0
M  V30 21378 H 1953.57 3.96929 -1.41511 0
M  V30 21379 H 1952.29 3.24033 -0.408703 0
M  V30 21380 H 1950.95 2.70607 -2.47321 0
M  V30 21381 H 1950.6 4.86802 -1.2662 0
M  V30 21382 H 1950.3 5.04452 -3.01334 0
M  V30 21383 H 1951.82 5.65336 -2.30712 0
M  V30 21384 H 1953.24 4.12189 -3.98463 0
M  V30 21385 H 1951.64 3.75155 -4.68379 0
M  V30 21386 H 1952.71 2.42337 -4.20001 0
M  V30 21387 N 1954.05 1.28517 0.912209 0
M  V30 21388 C 1955 1.12575 2.01483 0
M  V30 21389 C 1955.97 0.0224628 1.66085 0
M  V30 21390 O 1957.15 0.18768 1.89875 0
M  V30 21391 C 1954.29 0.795229 3.35813 0
M  V30 21392 C 1953.4 1.97772 3.84071 0
M  V30 21393 C 1952.54 1.58768 5.06918 0
M  V30 21394 C 1951.58 2.73672 5.47513 0
M  V30 21395 N 1950.71 2.3515 6.6155 0
M  V30 21396 H 1955.55 2.06918 2.1445 0
M  V30 21397 H 1953.09 1.02983 1.05037 0
M  V30 21398 H 1955.05 0.584339 4.13088 0
M  V30 21399 H 1953.68 -0.111266 3.22608 0
M  V30 21400 H 1952.73 2.30069 3.0294 0
M  V30 21401 H 1954.04 2.83913 4.10115 0
M  V30 21402 H 1953.2 1.33894 5.91741 0
M  V30 21403 H 1951.94 0.697566 4.82686 0
M  V30 21404 H 1950.94 2.99242 4.61231 0
M  V30 21405 H 1952.17 3.63328 5.73733 0
M  V30 21406 H 1950.11 1.4861 6.38945 0
M  V30 21407 H 1950.03 3.14827 6.87328 0
M  V30 21408 H 1951.3 2.13564 7.49674 0
M  V30 21409 N 1955.53 -1.12086 1.1079 0
M  V30 21410 C 1956.75 -1.88034 0.875097 0
M  V30 21411 C 1957.18 -1.79281 -0.569191 0
M  V30 21412 O 1956.53 -1.15037 -1.40129 0
M  V30 21413 C 1956.58 -3.35066 1.33278 0
M  V30 21414 O 1955.69 -4.09356 0.500163 0
M  V30 21415 H 1955.03 -0.584116 0.31576 0
M  V30 21416 H 1957.56 -1.41725 1.47564 0
M  V30 21417 H 1957.57 -3.85908 1.32434 0
M  V30 21418 H 1956.24 -3.40753 2.38453 0
M  V30 21419 H 1954.82 -3.68454 0.574137 0
M  V30 21420 N 1957 -0.897194 -1.29569 0
M  V30 21421 C 1957.91 -0.377551 -2.31542 0
M  V30 21422 C 1958.93 0.526431 -1.65845 0
M  V30 21423 O 1960.11 0.416614 -1.97044 0
M  V30 21424 C 1957.17 0.388744 -3.44514 0
M  V30 21425 C 1956.23 -0.546458 -4.25808 0
M  V30 21426 C 1955.47 0.183361 -5.33385 0
M  V30 21427 O 1955.69 1.40767 -5.52757 0
M  V30 21428 O 1954.62 -0.472827 -6.0004 0
M  V30 21429 H 1958.45 -1.22348 -2.77965 0
M  V30 21430 H 1956.03 -0.661433 -1.33961 0
M  V30 21431 H 1957.92 0.822167 -4.13302 0
M  V30 21432 H 1956.59 1.21077 -3.00203 0
M  V30 21433 H 1955.5 -1.02894 -3.59671 0
M  V30 21434 H 1956.83 -1.33483 -4.73754 0
M  V30 21435 N 1958.48 1.43142 -0.659413 0
M  V30 21436 C 1959.43 2.32565 0.040254 0
M  V30 21437 C 1960.42 1.48961 0.806651 0
M  V30 21438 O 1961.63 1.65131 0.716353 0
M  V30 21439 H 1958.01 0.751327 0.0318053 0
M  V30 21440 H 1959.98 2.89293 -0.731581 0
M  V30 21441 C 1958.73 3.33349 0.988614 0
M  V30 21442 H 1958.05 3.9771 0.40831 0
M  V30 21443 H 1959.49 3.9854 1.44714 0
M  V30 21444 C 1957.95 2.64423 2.08763 0
M  V30 21445 O 1958.48 2.46444 3.17219 0
M  V30 21446 N 1956.68 2.23697 1.85494 0
M  V30 21447 H 1956.23 2.38519 0.972945 0
M  V30 21448 H 1956.19 1.7791 2.59221 0
M  V30 21449 N 1959.96 0.40173 1.52394 0
M  V30 21450 C 1960.89 -0.41861 2.29717 0
M  V30 21451 C 1961.87 -1.05263 1.33618 0
M  V30 21452 O 1963.06 -1.06304 1.62521 0
M  V30 21453 C 1960.19 -1.5395 3.11314 0
M  V30 21454 C 1959.14 -1.03088 4.154 0
M  V30 21455 C 1958.47 -2.2448 4.85297 0
M  V30 21456 C 1959.77 -0.0900956 5.22222 0
M  V30 21457 H 1961.46 0.226577 2.98541 0
M  V30 21458 H 1959.01 0.110411 1.43576 0
M  V30 21459 H 1960.96 -2.12031 3.64171 0
M  V30 21460 H 1959.68 -2.21246 2.40246 0
M  V30 21461 H 1958.34 -0.472515 3.63542 0
M  V30 21462 H 1957.99 -2.90313 4.10764 0
M  V30 21463 H 1957.69 -1.91103 5.55656 0
M  V30 21464 H 1959.21 -2.83181 5.40963 0
M  V30 21465 H 1960.63 -0.579479 5.70364 0
M  V30 21466 H 1959.03 0.154505 5.99901 0
M  V30 21467 H 1960.1 0.857375 4.7726 0
M  V30 21468 N 1961.44 -1.57047 0.131923 0
M  V30 21469 C 1962.37 -2.19006 -0.809859 0
M  V30 21470 C 1963.35 -1.13384 -1.26799 0
M  V30 21471 O 1964.53 -1.4167 -1.32827 0
M  V30 21472 C 1961.66 -2.79973 -2.05505 0
M  V30 21473 C 1960.62 -3.9129 -1.73424 0
M  V30 21474 C 1959.94 -4.39123 -3.05081 0
M  V30 21475 C 1961.24 -5.12783 -0.992535 0
M  V30 21476 H 1962.94 -2.97958 -0.293522 0
M  V30 21477 H 1960.48 -1.4332 -0.13974 0
M  V30 21478 H 1962.44 -3.2198 -2.71858 0
M  V30 21479 H 1961.16 -1.9833 -2.59486 0
M  V30 21480 H 1959.82 -3.49879 -1.09456 0
M  V30 21481 H 1959.47 -3.54322 -3.57022 0
M  V30 21482 H 1959.17 -5.14197 -2.84385 0
M  V30 21483 H 1960.69 -4.8379 -3.72531 0
M  V30 21484 H 1962.11 -5.51728 -1.55785 0
M  V30 21485 H 1960.5 -5.93522 -0.886062 0
M  V30 21486 H 1961.57 -4.84896 0.0184538 0
M  V30 21487 N 1962.92 0.141865 -1.5696 0
M  V30 21488 C 1964.16 0.851923 -1.83267 0
M  V30 21489 C 1964.49 1.81473 -0.713611 0
M  V30 21490 O 1963.76 1.94109 0.264326 0
M  V30 21491 H 1962.34 0.317594 -0.676124 0
M  V30 21492 H 1965 0.134643 -1.94434 0
M  V30 21493 H 1964.09 1.41106 -2.7838 0
M  V30 21494 N 1964.39 1.52136 0.411372 0
M  V30 21495 C 1965.34 1.75318 1.50107 0
M  V30 21496 C 1966.31 0.595552 1.55056 0
M  V30 21497 O 1967.5 0.832859 1.71663 0
M  V30 21498 C 1964.64 1.9077 2.87578 0
M  V30 21499 C 1963.75 3.18411 2.91956 0
M  V30 21500 C 1962.88 3.24307 4.20712 0
M  V30 21501 C 1961.92 4.4616 4.19056 0
M  V30 21502 N 1961.06 4.49461 5.39379 0
M  V30 21503 H 1965.9 2.68323 1.29642 0
M  V30 21504 H 1963.44 1.32958 0.629326 0
M  V30 21505 H 1965.4 1.97711 3.67377 0
M  V30 21506 H 1964.03 1.01148 3.06543 0
M  V30 21507 H 1963.08 3.20652 2.04661 0
M  V30 21508 H 1964.39 4.08245 2.86597 0
M  V30 21509 H 1963.54 3.30308 5.08902 0
M  V30 21510 H 1962.28 2.32408 4.28763 0
M  V30 21511 H 1961.29 4.40308 3.29255 0
M  V30 21512 H 1962.51 5.39351 4.12646 0
M  V30 21513 H 1960.46 3.60444 5.48102 0
M  V30 21514 H 1960.38 5.33136 5.36005 0
M  V30 21515 H 1961.64 4.59688 6.29529 0
M  V30 21516 N 1965.87 -0.668464 1.42721 0
M  V30 21517 C 1966.81 -1.794 1.42648 0
M  V30 21518 C 1967.82 -1.5953 0.324664 0
M  V30 21519 O 1969.01 -1.68532 0.588153 0
M  V30 21520 C 1966.11 -3.16602 1.20898 0
M  V30 21521 C 1965.28 -3.63266 2.43632 0
M  V30 21522 C 1964.34 -4.79221 2.17333 0
M  V30 21523 O 1963.37 -4.89441 2.90579 0
M  V30 21524 N 1964.57 -5.68372 1.18041 0
M  V30 21525 H 1967.33 -1.79946 2.39666 0
M  V30 21526 H 1964.89 -0.85178 1.37682 0
M  V30 21527 H 1966.89 -3.9184 1.01211 0
M  V30 21528 H 1965.46 -3.10918 0.323806 0
M  V30 21529 H 1964.68 -2.78638 2.78845 0
M  V30 21530 H 1965.96 -3.91186 3.25348 0
M  V30 21531 H 1965.36 -5.62773 0.574725 0
M  V30 21532 H 1963.92 -6.43394 1.0434 0
M  V30 21533 N 1967.35 -1.28999 -0.905381 0
M  V30 21534 C 1968.6 -1.16014 -1.64996 0
M  V30 21535 C 1968.91 0.288766 -1.93457 0
M  V30 21536 O 1970.12 0.539847 -2.66079 0
M  V30 21537 C 1968.58 -2.02866 -2.97276 0
M  V30 21538 C 1968.18 -3.52547 -2.76432 0
M  V30 21539 C 1969.93 -1.98591 -3.75182 0
M  V30 21540 C 1967.83 -4.31522 -4.04404 0
M  V30 21541 H 1966.76 -0.430598 -0.618952 0
M  V30 21542 H 1969.42 -1.53594 -1.00404 0
M  V30 21543 H 1967.8 -1.5815 -3.63049 0
M  V30 21544 H 1968.97 -4.05277 -2.19287 0
M  V30 21545 H 1967.29 -3.58435 -2.11928 0
M  V30 21546 H 1969.88 -2.54859 -4.70054 0
M  V30 21547 H 1970.23 -0.964577 -4.04971 0
M  V30 21548 H 1970.76 -2.41321 -3.16242 0
M  V30 21549 H 1967.5 -5.3427 -3.79784 0
M  V30 21550 H 1967.02 -3.83563 -4.61129 0
M  V30 21551 H 1968.7 -4.41885 -4.72596 0
M  V30 21552 N 1968.83 1.11497 -1.11383 0
M  V30 21553 C 1970.11 1.79631 -0.774086 0
M  V30 21554 C 1970.49 1.97781 0.737951 0
M  V30 21555 O 1969.83 1.56202 1.66773 0
M  V30 21556 C 1970.04 3.13357 -1.53649 0
M  V30 21557 C 1971.39 3.88407 -1.71538 0
M  V30 21558 O 1972.42 3.23045 -1.50069 0
M  V30 21559 O 1971.28 5.05694 -2.07209 0
M  V30 21560 H 1968.37 0.778022 -0.280376 0
M  V30 21561 H 1970.92 1.18245 -1.21722 0
M  V30 21562 H 1969.69 2.95498 -2.56509 0
M  V30 21563 H 1969.31 3.82456 -1.08688 0
M  V30 21564 N 1970.31 0.904053 1.29092 0
M  V30 21565 C 1971.26 0.356356 2.25198 0
M  V30 21566 C 1972.24 -0.526041 1.52058 0
M  V30 21567 O 1973.43 -0.367347 1.73146 0
M  V30 21568 C 1970.56 -0.411177 3.40829 0
M  V30 21569 C 1969.65 0.486388 4.21302 0
M  V30 21570 N 1970.04 1.59559 4.79974 0
M  V30 21571 C 1968.34 0.284978 4.45089 0
M  V30 21572 C 1969.04 2.15192 5.40433 0
M  V30 21573 N 1968.01 1.4444 5.24059 0
M  V30 21574 H 1971.82 1.20361 2.68124 0
M  V30 21575 H 1969.33 0.755599 1.43751 0
M  V30 21576 H 1971.33 -0.820324 4.0875 0
M  V30 21577 H 1969.99 -1.25564 2.99439 0
M  V30 21578 H 1971 1.97828 4.78628 0
M  V30 21579 H 1967.68 -0.520766 4.14239 0
M  V30 21580 H 1969.07 3.08444 5.96919 0
M  V30 21581 N 1971.79 -1.4279 0.666995 0
M  V30 21582 C 1972.72 -2.335 -0.00234362 0
M  V30 21583 C 1973.7 -1.50244 -0.797537 0
M  V30 21584 O 1974.88 -1.7887 -0.756257 0
M  V30 21585 C 1972.01 -3.33774 -0.959795 0
M  V30 21586 C 1970.97 -4.27124 -0.273749 0
M  V30 21587 C 1970.29 -5.17544 -1.3436 0
M  V30 21588 C 1971.59 -5.15462 0.842411 0
M  V30 21589 H 1973.29 -2.89719 0.755212 0
M  V30 21590 H 1970.83 -1.39307 0.364622 0
M  V30 21591 H 1972.78 -3.96139 -1.43707 0
M  V30 21592 H 1971.51 -2.75842 -1.74868 0
M  V30 21593 H 1970.17 -3.66142 0.18321 0
M  V30 21594 H 1969.82 -4.55943 -2.12427 0
M  V30 21595 H 1969.52 -5.80825 -0.889738 0
M  V30 21596 H 1971.04 -5.82784 -1.82196 0
M  V30 21597 H 1972.45 -5.71557 0.4467 0
M  V30 21598 H 1970.85 -5.87535 1.22158 0
M  V30 21599 H 1971.92 -4.54327 1.69454 0
M  V30 21600 N 1973.26 -0.409806 -1.52179 0
M  V30 21601 C 1974.51 0.165758 -2.0182 0
M  V30 21602 C 1974.84 1.45086 -1.29539 0
M  V30 21603 O 1974.09 1.91766 -0.390424 0
M  V30 21604 C 1974.39 0.459582 -3.54433 0
M  V30 21605 C 1974.06 -0.7364 -4.44846 0
M  V30 21606 C 1972.72 -1.06445 -4.69279 0
M  V30 21607 C 1975.07 -1.53553 -4.98067 0
M  V30 21608 C 1972.4 -2.19281 -5.44181 0
M  V30 21609 C 1974.75 -2.65467 -5.74204 0
M  V30 21610 C 1973.42 -2.98757 -5.96909 0
M  V30 21611 H 1972.69 0.0606551 -0.738513 0
M  V30 21612 H 1975.33 -0.551364 -1.83391 0
M  V30 21613 H 1973.64 1.25828 -3.71045 0
M  V30 21614 H 1975.34 0.917888 -3.90353 0
M  V30 21615 H 1971.93 -0.470734 -4.26007 0
M  V30 21616 H 1976.11 -1.29532 -4.79098 0
M  V30 21617 H 1971.37 -2.4542 -5.59981 0
M  V30 21618 H 1975.54 -3.27776 -6.14439 0
M  V30 21619 H 1973.17 -3.86307 -6.5473 0
M  V30 21620 N 1974.74 1.56975 -0.14025 0
M  V30 21621 C 1975.99 1.95081 0.512469 0
M  V30 21622 C 1976.3 1.02722 1.66456 0
M  V30 21623 O 1977.51 1.3038 2.38146 0
M  V30 21624 C 1975.97 3.46775 0.963057 0
M  V30 21625 C 1975.57 4.47708 -0.161733 0
M  V30 21626 C 1977.32 3.93761 1.58595 0
M  V30 21627 C 1975.22 5.90604 0.306746 0
M  V30 21628 H 1974.15 0.72829 0.195216 0
M  V30 21629 H 1976.81 1.82134 -0.223514 0
M  V30 21630 H 1975.19 3.55032 1.7541 0
M  V30 21631 H 1976.36 4.51141 -0.938529 0
M  V30 21632 H 1974.68 4.10599 -0.692608 0
M  V30 21633 H 1977.27 4.97954 1.94796 0
M  V30 21634 H 1977.62 3.34931 2.47238 0
M  V30 21635 H 1978.15 3.88394 0.859928 0
M  V30 21636 H 1974.89 6.53238 -0.544152 0
M  V30 21637 H 1974.41 5.90546 1.04956 0
M  V30 21638 H 1976.09 6.42509 0.760989 0
M  V30 21639 N 1976.22 -0.133539 1.57033 0
M  V30 21640 C 1977.44 -0.862393 1.8862 0
M  V30 21641 C 1977.87 -1.73328 0.730696 0
M  V30 21642 O 1977.23 -1.78466 -0.319297 0
M  V30 21643 C 1977.28 -1.68381 3.18873 0
M  V30 21644 O 1976.38 -2.78939 3.03755 0
M  V30 21645 H 1975.72 -0.239391 0.619345 0
M  V30 21646 H 1978.25 -0.120306 2.04246 0
M  V30 21647 H 1978.26 -2.07606 3.51232 0
M  V30 21648 H 1976.94 -1.0444 4.02573 0
M  V30 21649 H 1975.51 -2.43022 2.82833 0
M  V30 21650 N 1977.7 -1.52352 -0.403298 0
M  V30 21651 C 1978.65 -1.76731 -1.51224 0
M  V30 21652 C 1979.64 -0.634655 -1.57062 0
M  V30 21653 O 1980.85 -0.816829 -1.60399 0
M  V30 21654 H 1977.22 -0.558976 -0.503041 0
M  V30 21655 H 1979.19 -2.69624 -1.2785 0
M  V30 21656 C 1977.94 -1.94029 -2.88527 0
M  V30 21657 H 1977.26 -2.80607 -2.8478 0
M  V30 21658 H 1978.7 -2.15084 -3.65397 0
M  V30 21659 C 1977.16 -0.708949 -3.29356 0
M  V30 21660 O 1977.69 0.12042 -4.01519 0
M  V30 21661 N 1975.9 -0.543167 -2.85479 0
M  V30 21662 H 1975.45 -1.21919 -2.26922 0
M  V30 21663 H 1975.4 0.279391 -3.13156 0
M  V30 21664 N 1979.18 0.660885 -1.43074 0
M  V30 21665 C 1980.11 1.78579 -1.50438 0
M  V30 21666 C 1981.09 1.66253 -0.359703 0
M  V30 21667 O 1982.27 1.85465 -0.575893 0
M  V30 21668 C 1979.4 3.16963 -1.41956 0
M  V30 21669 C 1978.36 3.44043 -2.54594 0
M  V30 21670 C 1977.68 4.82147 -2.31166 0
M  V30 21671 C 1978.98 3.3955 -3.96867 0
M  V30 21672 H 1980.68 1.72673 -2.4459 0
M  V30 21673 H 1978.22 0.829317 -1.17721 0
M  V30 21674 H 1980.17 3.95406 -1.45713 0
M  V30 21675 H 1978.9 3.23581 -0.443048 0
M  V30 21676 H 1977.56 2.67969 -2.50177 0
M  V30 21677 H 1977.21 4.85432 -1.31776 0
M  V30 21678 H 1976.91 5.01228 -3.06667 0
M  V30 21679 H 1978.43 5.62857 -2.36695 0
M  V30 21680 H 1979.84 4.0794 -4.02813 0
M  V30 21681 H 1978.24 3.70166 -4.72332 0
M  V30 21682 H 1979.31 2.37868 -4.22548 0
M  V30 21683 N 1980.65 1.29477 0.898527 0
M  V30 21684 C 1982.07 1.15811 1.4644 0
M  V30 21685 C 1982.42 -0.246304 1.94648 0
M  V30 21686 O 1981.54 -1.1419 1.83819 0
M  V30 21687 C 1982.14 2.09627 2.66161 0
M  V30 21688 C 1980.7 1.9998 3.18881 0
M  V30 21689 C 1979.84 2.00487 1.91573 0
M  V30 21690 H 1982.79 1.41944 0.709754 0
M  V30 21691 H 1982.81 1.66918 3.41934 0
M  V30 21692 H 1982.33 3.11834 2.31044 0
M  V30 21693 H 1980.43 1.00867 3.58687 0
M  V30 21694 H 1980.54 2.87701 3.83099 0
M  V30 21695 H 1978.9 1.451 2.09327 0
M  V30 21696 H 1979.69 3.044 1.58731 0
M  V30 21697 N 1982.13 -1.10905 1.11972 0
M  V30 21698 C 1983.04 -2.20682 0.796029 0
M  V30 21699 C 1984.06 -1.72689 -0.213158 0
M  V30 21700 O 1985.23 -2.01343 -0.047955 0
M  V30 21701 C 1982.3 -3.45797 0.250055 0
M  V30 21702 C 1981.36 -4.08549 1.31855 0
M  V30 21703 C 1980.59 -5.27692 0.798538 0
M  V30 21704 O 1980.82 -5.69202 -0.369435 0
M  V30 21705 O 1979.75 -5.81174 1.5659 0
M  V30 21706 H 1983.58 -2.50794 1.71278 0
M  V30 21707 H 1981.16 -1.19548 0.896024 0
M  V30 21708 H 1983.04 -4.21371 -0.0497791 0
M  V30 21709 H 1981.72 -3.17324 -0.639327 0
M  V30 21710 H 1980.63 -3.34682 1.67148 0
M  V30 21711 H 1981.96 -4.41215 2.18153 0
M  V30 21712 N 1983.61 -0.910886 -1.2861 0
M  V30 21713 C 1984.86 -0.53847 -1.94379 0
M  V30 21714 C 1985.17 0.92185 -1.72515 0
M  V30 21715 O 1986.38 1.40229 -2.32482 0
M  V30 21716 C 1984.83 -0.91216 -3.48149 0
M  V30 21717 C 1984.44 -2.39201 -3.78796 0
M  V30 21718 C 1986.19 -0.610192 -4.20092 0
M  V30 21719 C 1984.09 -2.70598 -5.25862 0
M  V30 21720 H 1983.02 -0.197657 -0.727632 0
M  V30 21721 H 1985.67 -1.10941 -1.46165 0
M  V30 21722 H 1984.06 -0.270034 -3.95078 0
M  V30 21723 H 1985.23 -3.08063 -3.42686 0
M  V30 21724 H 1983.55 -2.66414 -3.20019 0
M  V30 21725 H 1986.14 -0.821472 -5.28352 0
M  V30 21726 H 1986.49 0.451862 -4.1384 0
M  V30 21727 H 1987.02 -1.21066 -3.7893 0
M  V30 21728 H 1983.76 -3.75645 -5.37188 0
M  V30 21729 H 1983.28 -2.0637 -5.6318 0
M  V30 21730 H 1984.96 -2.57451 -5.93572 0
M  V30 21731 N 1985.09 1.42434 -0.674558 0
M  V30 21732 C 1986.33 2.01841 -0.197012 0
M  V30 21733 C 1986.67 1.53214 1.19328 0
M  V30 21734 O 1985.94 0.734239 1.80109 0
M  V30 21735 C 1986.23 3.59356 -0.231383 0
M  V30 21736 C 1986.08 4.18162 -1.65711 0
M  V30 21737 C 1987.4 4.38086 0.420535 0
M  V30 21738 H 1984.52 0.733369 -0.0730636 0
M  V30 21739 H 1987.16 1.69458 -0.859297 0
M  V30 21740 H 1985.31 3.87074 0.332539 0
M  V30 21741 H 1986.98 4.01398 -2.27327 0
M  V30 21742 H 1985.22 3.74 -2.19787 0
M  V30 21743 H 1985.89 5.27297 -1.63285 0
M  V30 21744 H 1988.37 4.16057 -0.0594985 0
M  V30 21745 H 1987.25 5.47679 0.365847 0
M  V30 21746 H 1987.51 4.15945 1.49808 0
M  V30 21747 N 1986.57 0.417871 1.51959 0
M  V30 21748 C 1987.81 -0.155282 2.02205 0
M  V30 21749 C 1988.15 -1.44044 1.3025 0
M  V30 21750 O 1987.42 -1.90098 0.411449 0
M  V30 21751 C 1987.7 -0.394038 3.57938 0
M  V30 21752 C 1987.56 0.908404 4.40532 0
M  V30 21753 C 1988.88 -1.17238 4.24197 0
M  V30 21754 H 1985.99 -0.0549616 0.734948 0
M  V30 21755 H 1988.64 0.553053 1.81773 0
M  V30 21756 H 1986.79 -0.997422 3.75478 0
M  V30 21757 H 1988.46 1.54427 4.34684 0
M  V30 21758 H 1986.7 1.51743 4.06395 0
M  V30 21759 H 1987.37 0.69563 5.47599 0
M  V30 21760 H 1989.85 -0.661461 4.10809 0
M  V30 21761 H 1988.72 -1.30818 5.33083 0
M  V30 21762 H 1988.99 -2.19534 3.83741 0
M  V30 21763 N 1988.04 -1.56898 0.148573 0
M  V30 21764 C 1988.95 -2.2041 -0.80353 0
M  V30 21765 C 1989.97 -1.18886 -1.27052 0
M  V30 21766 O 1991.15 -1.51468 -1.32738 0
M  V30 21767 C 1988.21 -2.81447 -2.02456 0
M  V30 21768 C 1987.27 -3.98102 -1.60665 0
M  V30 21769 C 1986.51 -4.56219 -2.76948 0
M  V30 21770 O 1986.73 -4.13215 -3.93204 0
M  V30 21771 O 1985.66 -5.46455 -2.52329 0
M  V30 21772 H 1989.49 -3.02284 -0.292881 0
M  V30 21773 H 1987.07 -1.49193 -0.0785299 0
M  V30 21774 H 1988.96 -3.20235 -2.73911 0
M  V30 21775 H 1987.63 -2.02585 -2.5247 0
M  V30 21776 H 1986.54 -3.64027 -0.862287 0
M  V30 21777 H 1987.87 -4.78489 -1.15365 0
M  V30 21778 N 1989.52 0.125209 -1.57102 0
M  V30 21779 C 1990.45 1.15521 -2.02922 0
M  V30 21780 C 1991.43 1.43549 -0.912559 0
M  V30 21781 O 1992.62 1.54097 -1.18185 0
M  V30 21782 C 1989.75 2.48297 -2.42829 0
M  V30 21783 C 1988.7 2.34744 -3.57881 0
M  V30 21784 C 1988.03 3.72427 -3.83669 0
M  V30 21785 C 1989.33 1.81317 -4.89818 0
M  V30 21786 H 1991.02 0.774129 -2.89219 0
M  V30 21787 H 1988.57 0.370935 -1.3914 0
M  V30 21788 H 1990.52 3.20597 -2.73487 0
M  V30 21789 H 1989.25 2.88283 -1.53495 0
M  V30 21790 H 1987.9 1.64893 -3.27423 0
M  V30 21791 H 1987.55 4.09887 -2.9155 0
M  V30 21792 H 1987.25 3.64215 -4.61109 0
M  V30 21793 H 1988.78 4.46242 -4.16773 0
M  V30 21794 H 1990.19 2.43429 -5.19052 0
M  V30 21795 H 1988.59 1.83941 -5.71214 0
M  V30 21796 H 1989.66 0.770291 -4.78743 0
M  V30 21797 N 1991 1.52564 0.395213 0
M  V30 21798 C 1991.93 1.79867 1.48897 0
M  V30 21799 C 1992.91 0.650351 1.57176 0
M  V30 21800 O 1994.1 0.897328 1.72226 0
M  V30 21801 C 1991.23 1.96192 2.86576 0
M  V30 21802 C 1990.18 3.11854 2.9314 0
M  V30 21803 C 1989.51 3.13424 4.33208 0
M  V30 21804 C 1990.81 4.51046 2.63353 0
M  V30 21805 H 1992.5 2.71457 1.26299 0
M  V30 21806 H 1990.05 1.30621 0.606145 0
M  V30 21807 H 1992 2.13875 3.63091 0
M  V30 21808 H 1990.72 1.01286 3.10498 0
M  V30 21809 H 1989.38 2.93944 2.19072 0
M  V30 21810 H 1989.03 2.16212 4.5416 0
M  V30 21811 H 1988.73 3.91117 4.38522 0
M  V30 21812 H 1990.25 3.33254 5.11639 0
M  V30 21813 H 1991.67 4.6909 3.29587 0
M  V30 21814 H 1990.07 5.3076 2.80024 0
M  V30 21815 H 1991.14 4.58187 1.58722 0
M  V30 21816 N 1992.48 -0.653289 1.43422 0
M  V30 21817 C 1993.41 -1.77818 1.43025 0
M  V30 21818 C 1994.39 -1.59962 0.291706 0
M  V30 21819 O 1995.57 -1.82146 0.485285 0
M  V30 21820 C 1992.7 -3.15116 1.24175 0
M  V30 21821 C 1991.75 -3.51674 2.41305 0
M  V30 21822 S 1992.58 -3.51656 4.03854 0
M  V30 21823 C 1993.74 -4.91612 3.87387 0
M  V30 21824 H 1993.97 -1.77884 2.38211 0
M  V30 21825 H 1991.5 -0.825924 1.30453 0
M  V30 21826 H 1993.46 -3.94357 1.13987 0
M  V30 21827 H 1992.12 -3.12612 0.30538 0
M  V30 21828 H 1991.31 -4.51526 2.2392 0
M  V30 21829 H 1990.92 -2.79845 2.48118 0
M  V30 21830 H 1993.21 -5.80268 3.49708 0
M  V30 21831 H 1994.15 -5.14047 4.86992 0
M  V30 21832 H 1994.56 -4.65143 3.19847 0
M  V30 21833 N 1993.96 -1.29952 -0.891648 0
M  V30 21834 C 1995.18 -1.21297 -1.67615 0
M  V30 21835 C 1995.6 0.225203 -1.87452 0
M  V30 21836 O 1994.96 1.14977 -1.41727 0
M  V30 21837 C 1995.01 -1.93074 -3.05622 0
M  V30 21838 O 1994.73 -3.31276 -2.86684 0
M  V30 21839 C 1996.23 -1.90996 -4.00044 0
M  V30 21840 H 1993.45 -0.420057 -0.523253 0
M  V30 21841 H 1995.99 -1.71463 -1.11448 0
M  V30 21842 H 1994.15 -1.46724 -3.5854 0
M  V30 21843 H 1994.56 -3.67538 -3.74187 0
M  V30 21844 H 1996.04 -2.45768 -4.94269 0
M  V30 21845 H 1996.51 -0.887331 -4.30143 0
M  V30 21846 H 1997.12 -2.37127 -3.53059 0
M  V30 21847 N 1995.44 1.1031 -1.12559 0
M  V30 21848 C 1996.37 2.18738 -0.817073 0
M  V30 21849 C 1997.35 1.68675 0.219681 0
M  V30 21850 O 1998.53 1.94033 0.0805889 0
M  V30 21851 C 1995.66 3.46231 -0.272317 0
M  V30 21852 C 1994.62 4.09575 -1.24228 0
M  V30 21853 C 1993.94 5.31784 -0.557693 0
M  V30 21854 C 1995.24 4.53135 -2.59743 0
M  V30 21855 H 1996.94 2.44802 -1.72372 0
M  V30 21856 H 1994.48 1.17658 -0.830221 0
M  V30 21857 H 1996.43 4.21377 -0.0442049 0
M  V30 21858 H 1995.16 3.19661 0.669677 0
M  V30 21859 H 1993.82 3.36437 -1.45622 0
M  V30 21860 H 1993.47 5.0149 0.389484 0
M  V30 21861 H 1993.17 5.75117 -1.20473 0
M  V30 21862 H 1994.69 6.0966 -0.338649 0
M  V30 21863 H 1996.1 5.19548 -2.42369 0
M  V30 21864 H 1994.5 5.07322 -3.20537 0
M  V30 21865 H 1995.57 3.65989 -3.18088 0
M  V30 21866 N 1996.91 0.917694 1.28125 0
M  V30 21867 C 1997.86 0.380221 2.24807 0
M  V30 21868 C 1998.85 -0.509883 1.52607 0
M  V30 21869 O 2000.04 -0.348962 1.73526 0
M  V30 21870 C 1997.17 -0.375004 3.41246 0
M  V30 21871 C 1996.25 0.531045 4.20762 0
M  V30 21872 N 1996.65 1.64641 4.78254 0
M  V30 21873 C 1994.94 0.33217 4.44761 0
M  V30 21874 C 1995.64 2.20912 5.3812 0
M  V30 21875 N 1994.62 1.4999 5.22498 0
M  V30 21876 H 1998.42 1.23198 2.66832 0
M  V30 21877 H 1995.94 0.770803 1.42942 0
M  V30 21878 H 1997.93 -0.776925 4.09597 0
M  V30 21879 H 1996.59 -1.22381 3.00754 0
M  V30 21880 H 1997.6 2.02894 4.76502 0
M  V30 21881 H 1994.28 -0.476801 4.14768 0
M  V30 21882 H 1995.67 3.14758 5.93613 0
M  V30 21883 N 1998.39 -1.42074 0.682102 0
M  V30 21884 C 1999.3 -2.34598 0.00845226 0
M  V30 21885 C 2000.32 -1.55494 -0.780873 0
M  V30 21886 O 2001.49 -1.88032 -0.721524 0
M  V30 21887 C 1998.56 -3.34103 -0.926085 0
M  V30 21888 C 1997.62 -4.29102 -0.130475 0
M  V30 21889 C 1996.85 -5.23853 -1.0205 0
M  V30 21890 O 1997.08 -5.23716 -2.26004 0
M  V30 21891 O 1996.01 -6.00004 -0.47739 0
M  V30 21892 H 1999.84 -2.93756 0.770779 0
M  V30 21893 H 1997.42 -1.42701 0.442368 0
M  V30 21894 H 1999.3 -3.95212 -1.46236 0
M  V30 21895 H 1997.98 -2.77408 -1.66814 0
M  V30 21896 H 1996.88 -3.71383 0.450082 0
M  V30 21897 H 1998.22 -4.88858 0.57262 0
M  V30 21898 N 1999.87 -0.425924 -1.51735 0
M  V30 21899 C 2001.28 0.0398403 -1.86657 0
M  V30 21900 C 2001.63 1.4296 -1.34376 0
M  V30 21901 O 2000.76 2.05109 -0.689867 0
M  V30 21902 C 2001.35 0.0790715 -3.38708 0
M  V30 21903 C 1999.91 0.489215 -3.73207 0
M  V30 21904 C 1999.06 -0.325517 -2.75383 0
M  V30 21905 H 2002.01 -0.642271 -1.45123 0
M  V30 21906 H 2002.03 0.890928 -3.69923 0
M  V30 21907 H 2001.54 -0.932545 -3.7673 0
M  V30 21908 H 1999.64 1.50686 -3.40771 0
M  V30 21909 H 1999.76 0.221939 -4.78586 0
M  V30 21910 H 1998.12 0.214561 -2.53795 0
M  V30 21911 H 1998.9 -1.3358 -3.16246 0
M  V30 21912 N 2001.35 1.56817 -0.156891 0
M  V30 21913 C 2002.31 2.16058 0.764967 0
M  V30 21914 C 2003.31 1.10488 1.16829 0
M  V30 21915 O 2004.5 1.36077 1.0876 0
M  V30 21916 C 2001.63 2.73173 2.03935 0
M  V30 21917 H 2002.83 2.98861 0.249482 0
M  V30 21918 H 2000.38 1.56025 0.0926074 0
M  V30 21919 H 2001.11 1.94064 2.59827 0
M  V30 21920 H 2000.9 3.50417 1.75926 0
M  V30 21921 H 2002.39 3.18783 2.69754 0
M  V30 21922 N 2002.83 -0.116876 1.57166 0
M  V30 21923 C 2003.77 -1.16225 2.01481 0
M  V30 21924 C 2004.77 -1.42749 0.912094 0
M  V30 21925 O 2005.97 -1.42686 1.0973 0
M  V30 21926 H 2002.35 -0.391924 0.641794 0
M  V30 21927 H 2004.32 -0.762018 2.88506 0
M  V30 21928 C 2003.07 -2.48022 2.43681 0
M  V30 21929 H 2002.39 -2.28451 3.28101 0
M  V30 21930 H 2003.83 -3.19723 2.78484 0
M  V30 21931 C 2002.29 -3.10754 1.30129 0
M  V30 21932 O 2002.82 -3.96911 0.618431 0
M  V30 21933 N 2001.03 -2.70664 1.05781 0
M  V30 21934 H 2000.57 -2.00696 1.61489 0
M  V30 21935 H 2000.53 -3.12965 0.300009 0
M  V30 21936 N 2004.3 -1.52772 -0.387116 0
M  V30 21937 C 2005.53 -1.72086 -1.15763 0
M  V30 21938 C 2005.95 -0.43912 -1.82903 0
M  V30 21939 O 2005.31 0.605254 -1.70899 0
M  V30 21940 C 2005.36 -2.87248 -2.17992 0
M  V30 21941 O 2004.46 -2.54353 -3.2462 0
M  V30 21942 H 2003.8 -0.572174 -0.336918 0
M  V30 21943 H 2006.33 -1.99571 -0.450833 0
M  V30 21944 H 2006.34 -3.12798 -2.61957 0
M  V30 21945 H 2005.02 -3.80232 -1.68513 0
M  V30 21946 H 2003.6 -2.39551 -2.8578 0
M  V30 21947 N 2005.78 0.645673 -1.43767 0
M  V30 21948 C 2007.01 1.43799 -1.49454 0
M  V30 21949 C 2007.43 1.87742 -0.115948 0
M  V30 21950 O 2006.79 1.57845 0.891891 0
M  V30 21951 C 2006.84 2.64416 -2.45186 0
M  V30 21952 O 2005.94 3.63742 -1.94334 0
M  V30 21953 H 2005.28 0.430858 -0.50523 0
M  V30 21954 H 2007.81 0.789424 -1.88757 0
M  V30 21955 H 2007.82 3.12139 -2.62741 0
M  V30 21956 H 2006.5 2.31776 -3.4533 0
M  V30 21957 H 2005.07 3.22926 -1.86476 0
M  V30 21958 N 2007.26 1.30423 0.884744 0
M  V30 21959 C 2008.22 1.16804 1.97204 0
M  V30 21960 C 2009.22 0.0992103 1.60494 0
M  V30 21961 O 2010.41 0.34734 1.70702 0
M  V30 21962 C 2007.54 0.789574 3.3163 0
M  V30 21963 H 2008.74 2.13401 2.10713 0
M  V30 21964 H 2006.29 1.13823 1.07117 0
M  V30 21965 H 2007.03 -0.175888 3.23823 0
M  V30 21966 H 2006.81 1.562 3.59644 0
M  V30 21967 H 2008.3 0.717768 4.11385 0
M  V30 21968 N 2008.74 -1.09711 1.13142 0
M  V30 21969 C 2009.96 -1.86136 0.914785 0
M  V30 21970 C 2010.39 -1.80448 -0.531035 0
M  V30 21971 O 2009.75 -1.17983 -1.37658 0
M  V30 21972 C 2009.79 -3.32164 1.40356 0
M  V30 21973 O 2008.9 -4.08203 0.586881 0
M  V30 21974 H 2008.24 -0.577287 0.328079 0
M  V30 21975 H 2010.77 -1.38563 1.50537 0
M  V30 21976 H 2010.78 -3.83013 1.40589 0
M  V30 21977 H 2009.45 -3.35619 2.45628 0
M  V30 21978 H 2008.03 -3.67153 0.652163 0
M  V30 21979 N 2010.22 -0.924476 -1.27637 0
M  V30 21980 C 2011.15 -0.378387 -2.26055 0
M  V30 21981 C 2012.16 0.489111 -1.55279 0
M  V30 21982 O 2013.35 0.302255 -1.75922 0
M  V30 21983 C 2010.45 0.476771 -3.3553 0
M  V30 21984 C 2009.62 -0.370688 -4.35826 0
M  V30 21985 C 2008.68 0.421299 -5.24511 0
M  V30 21986 O 2007.71 -0.16988 -5.68946 0
M  V30 21987 N 2008.91 1.72187 -5.54375 0
M  V30 21988 H 2011.68 -1.22438 -2.73549 0
M  V30 21989 H 2009.24 -0.791559 -1.4123 0
M  V30 21990 H 2011.23 1.01359 -3.91801 0
M  V30 21991 H 2009.8 1.22351 -2.87661 0
M  V30 21992 H 2009.02 -1.08882 -3.78864 0
M  V30 21993 H 2010.31 -0.950168 -4.99849 0
M  V30 21994 H 2009.7 2.22454 -5.20125 0
M  V30 21995 H 2008.26 2.20529 -6.1336 0
M  V30 21996 N 2011.69 1.41711 -0.689627 0
M  V30 21997 C 2012.92 2.06171 -0.225425 0
M  V30 21998 C 2013.34 1.51535 1.11439 0
M  V30 21999 O 2012.7 0.639865 1.69633 0
M  V30 22000 C 2012.75 3.60114 -0.187089 0
M  V30 22001 O 2011.85 4.03757 0.83989 0
M  V30 22002 H 2011.2 0.654551 -0.111621 0
M  V30 22003 H 2013.73 1.81582 -0.942814 0
M  V30 22004 H 2013.74 4.07997 -0.0159369 0
M  V30 22005 H 2012.41 3.99251 -1.16497 0
M  V30 22006 H 2010.99 3.67392 0.638575 0
M  V30 22007 N 2013.17 0.433965 1.51507 0
M  V30 22008 C 2014.4 -0.132403 2.06476 0
M  V30 22009 C 2014.82 -1.3675 1.30172 0
M  V30 22010 O 2014.17 -1.78907 0.360351 0
M  V30 22011 C 2014.22 -0.458007 3.58587 0
M  V30 22012 O 2013.94 0.728069 4.32008 0
M  V30 22013 C 2015.45 -1.07541 4.30058 0
M  V30 22014 H 2012.67 -0.00941889 0.670934 0
M  V30 22015 H 2015.21 0.612075 1.95125 0
M  V30 22016 H 2013.36 -1.15238 3.69863 0
M  V30 22017 H 2013.78 0.450318 5.22563 0
M  V30 22018 H 2015.25 -1.25326 5.37585 0
M  V30 22019 H 2015.73 -2.0555 3.88131 0
M  V30 22020 H 2016.34 -0.420519 4.23216 0
M  V30 22021 N 2014.65 -1.56732 0.165206 0
M  V30 22022 C 2015.93 -1.88357 -0.527344 0
M  V30 22023 C 2016.31 -1.07412 -1.8173 0
M  V30 22024 O 2015.66 -0.166236 -2.27895 0
M  V30 22025 C 2015.87 -3.40282 -0.775175 0
M  V30 22026 C 2017.21 -4.09891 -1.10789 0
M  V30 22027 O 2018.24 -3.45565 -0.863921 0
M  V30 22028 O 2017.1 -5.23527 -1.56787 0
M  V30 22029 H 2014.19 -0.781304 -0.271096 0
M  V30 22030 H 2016.74 -1.68479 0.203183 0
M  V30 22031 H 2015.51 -3.9106 0.137 0
M  V30 22032 H 2015.13 -3.65751 -1.55924 0
M  V30 22033 N 2016.13 0.10854 -1.57226 0
M  V30 22034 C 2017.06 1.13362 -2.04135 0
M  V30 22035 C 2018.04 1.42573 -0.927733 0
M  V30 22036 O 2019.22 1.52835 -1.19813 0
M  V30 22037 C 2016.35 2.45708 -2.45449 0
M  V30 22038 C 2015.31 2.30935 -3.60351 0
M  V30 22039 C 2014.63 3.68337 -3.87597 0
M  V30 22040 C 2015.93 1.76112 -4.91713 0
M  V30 22041 H 2017.63 0.74341 -2.90024 0
M  V30 22042 H 2015.17 0.356157 -1.39526 0
M  V30 22043 H 2017.13 3.17679 -2.76872 0
M  V30 22044 H 2015.85 2.86639 -1.56544 0
M  V30 22045 H 2014.51 1.61411 -3.29153 0
M  V30 22046 H 2014.16 4.06772 -2.95881 0
M  V30 22047 H 2013.86 3.59303 -4.64946 0
M  V30 22048 H 2015.38 4.41797 -4.21483 0
M  V30 22049 H 2016.8 2.3791 -5.21605 0
M  V30 22050 H 2015.19 1.77872 -5.73133 0
M  V30 22051 H 2016.26 0.71947 -4.79533 0
M  V30 22052 N 2017.61 1.52975 0.379009 0
M  V30 22053 C 2018.85 1.702 1.13188 0
M  V30 22054 C 2019.21 0.437582 1.86947 0
M  V30 22055 O 2020.41 0.486329 2.64364 0
M  V30 22056 C 2018.68 2.90907 2.07624 0
M  V30 22057 S 2020.24 3.28771 2.90612 0
M  V30 22058 H 2017.06 0.599025 0.383001 0
M  V30 22059 H 2019.66 1.91046 0.414933 0
M  V30 22060 H 2018.37 3.81144 1.52176 0
M  V30 22061 H 2017.9 2.72424 2.83812 0
M  V30 22062 H 2019.91 2.79736 4.09832 0
M  V30 22063 N 2019.08 -0.63804 1.44107 0
M  V30 22064 C 2020.36 -1.39606 1.37002 0
M  V30 22065 C 2020.74 -2.11085 0.0252978 0
M  V30 22066 O 2020.09 -2.0585 -0.991871 0
M  V30 22067 C 2020.3 -2.3682 2.56353 0
M  V30 22068 C 2021.65 -3.00362 3.00113 0
M  V30 22069 O 2022.67 -2.47147 2.56509 0
M  V30 22070 O 2021.53 -3.96881 3.75696 0
M  V30 22071 H 2018.62 -0.624471 0.542186 0
M  V30 22072 H 2021.17 -0.663674 1.56184 0
M  V30 22073 H 2019.94 -1.83054 3.45842 0
M  V30 22074 H 2019.57 -3.17487 2.39349 0
M  V30 22075 N 2020.56 -1.3089 -0.877815 0
M  V30 22076 C 2021.81 -1.20125 -1.63022 0
M  V30 22077 C 2022.14 0.242414 -1.92983 0
M  V30 22078 O 2021.39 1.18896 -1.55442 0
M  V30 22079 C 2021.69 -1.98261 -2.97367 0
M  V30 22080 C 2021.36 -3.47825 -2.8693 0
M  V30 22081 C 2020.02 -3.88608 -2.8379 0
M  V30 22082 C 2022.37 -4.43035 -2.74535 0
M  V30 22083 C 2019.7 -5.22882 -2.66104 0
M  V30 22084 C 2022.05 -5.77425 -2.58386 0
M  V30 22085 C 2020.72 -6.17439 -2.53625 0
M  V30 22086 H 2019.99 -0.439569 -0.59654 0
M  V30 22087 H 2022.63 -1.6207 -1.02007 0
M  V30 22088 H 2020.94 -1.48972 -3.62373 0
M  V30 22089 H 2022.63 -1.87319 -3.5456 0
M  V30 22090 H 2019.22 -3.1542 -2.90187 0
M  V30 22091 H 2023.41 -4.12463 -2.76021 0
M  V30 22092 H 2018.66 -5.52968 -2.60837 0
M  V30 22093 H 2022.84 -6.50833 -2.4777 0
M  V30 22094 H 2020.47 -7.21428 -2.39679 0
M  V30 22095 N 2022.04 1.0911 -1.13723 0
M  V30 22096 C 2023.27 1.85648 -0.924643 0
M  V30 22097 C 2023.69 1.80727 0.521458 0
M  V30 22098 O 2023.05 1.18712 1.3703 0
M  V30 22099 C 2023.1 3.31415 -1.42115 0
M  V30 22100 O 2022.2 4.07886 -0.608521 0
M  V30 22101 H 2021.54 0.575539 -0.331136 0
M  V30 22102 H 2024.07 1.37763 -1.5127 0
M  V30 22103 H 2024.08 3.82262 -1.42619 0
M  V30 22104 H 2022.76 3.34311 -2.47404 0
M  V30 22105 H 2021.33 3.66802 -0.671625 0
M  V30 22106 N 2023.52 0.931232 1.27145 0
M  V30 22107 C 2024.77 0.572394 1.93825 0
M  V30 22108 C 2025.09 -0.88981 1.73515 0
M  V30 22109 O 2024.36 -1.63113 1.08494 0
M  V30 22110 H 2022.94 0.2087 0.717254 0
M  V30 22111 H 2025.6 1.18439 1.54784 0
M  V30 22112 H 2024.7 0.781679 3.02153 0
M  V30 22113 N 2025 -1.41343 0.697132 0
M  V30 22114 C 2026.27 -1.94971 0.156721 0
M  V30 22115 C 2026.65 -1.63641 -1.33359 0
M  V30 22116 O 2026 -0.944246 -2.08077 0
M  V30 22117 C 2026.21 -3.46091 0.449687 0
M  V30 22118 C 2027.56 -4.22912 0.378281 0
M  V30 22119 O 2028.58 -3.54117 0.38469 0
M  V30 22120 O 2027.44 -5.45443 0.339755 0
M  V30 22121 H 2024.54 -0.826847 0.0158852 0
M  V30 22122 H 2027.08 -1.51052 0.7734 0
M  V30 22123 H 2025.86 -3.62183 1.48119 0
M  V30 22124 H 2025.48 -3.97107 -0.197886 0
M  V30 22125 N 2026.48 -0.441993 -1.51275 0
M  V30 22126 C 2027.41 0.357557 -2.30746 0
M  V30 22127 C 2028.39 1.01683 -1.36362 0
M  V30 22128 O 2029.57 1.01958 -1.65282 0
M  V30 22129 C 2026.7 1.45642 -3.15287 0
M  V30 22130 C 2025.66 0.920377 -4.17987 0
M  V30 22131 C 2024.98 2.11534 -4.91078 0
M  V30 22132 C 2026.28 -0.0483941 -5.22278 0
M  V30 22133 H 2027.98 -0.30565 -2.97836 0
M  V30 22134 H 2025.52 -0.148438 -1.43233 0
M  V30 22135 H 2027.47 2.02301 -3.69665 0
M  V30 22136 H 2026.2 2.14798 -2.46027 0
M  V30 22137 H 2024.86 0.375962 -3.64667 0
M  V30 22138 H 2024.51 2.7932 -4.18317 0
M  V30 22139 H 2024.21 1.76303 -5.60527 0
M  V30 22140 H 2025.73 2.68738 -5.48281 0
M  V30 22141 H 2027.14 0.428053 -5.717 0
M  V30 22142 H 2025.54 -0.313504 -5.99281 0
M  V30 22143 H 2026.61 -0.983611 -4.74819 0
M  V30 22144 N 2027.95 1.56642 -0.173515 0
M  V30 22145 C 2029.23 1.88634 0.517348 0
M  V30 22146 C 2029.61 1.08374 1.81158 0
M  V30 22147 O 2028.96 0.178319 2.27803 0
M  V30 22148 C 2029.17 3.40689 0.757118 0
M  V30 22149 C 2030.52 4.10473 1.08614 0
M  V30 22150 O 2031.54 3.46018 0.845582 0
M  V30 22151 O 2030.4 5.24351 1.54008 0
M  V30 22152 H 2027.49 0.782731 0.266949 0
M  V30 22153 H 2030.04 1.68369 -0.212115 0
M  V30 22154 H 2028.81 3.90982 -0.157737 0
M  V30 22155 H 2028.43 3.66572 1.53982 0
M  V30 22156 N 2029.43 -0.1002 1.57281 0
M  V30 22157 C 2030.84 -0.655287 1.74822 0
M  V30 22158 C 2031.19 -1.79373 0.794961 0
M  V30 22159 O 2030.32 -2.16382 -0.0277532 0
M  V30 22160 C 2030.91 -1.19548 3.17008 0
M  V30 22161 C 2029.47 -1.69668 3.35991 0
M  V30 22162 C 2028.62 -0.604127 2.70639 0
M  V30 22163 H 2031.57 0.125841 1.582 0
M  V30 22164 H 2031.59 -2.06489 3.19598 0
M  V30 22165 H 2031.1 -0.366679 3.86364 0
M  V30 22166 H 2029.2 -2.54964 2.71706 0
M  V30 22167 H 2029.32 -1.79318 4.44277 0
M  V30 22168 H 2027.68 -1.04234 2.32395 0
M  V30 22169 H 2028.46 0.214006 3.42632 0
M  V30 22170 N 2030.91 -1.53174 -0.370891 0
M  V30 22171 C 2031.87 -1.7857 -1.43685 0
M  V30 22172 C 2032.87 -0.656018 -1.4681 0
M  V30 22173 O 2034.06 -0.924191 -1.47663 0
M  V30 22174 C 2031.19 -1.90295 -2.82844 0
M  V30 22175 H 2032.39 -2.73766 -1.22442 0
M  V30 22176 H 2029.94 -1.4417 -0.603713 0
M  V30 22177 H 2030.68 -0.971472 -3.09407 0
M  V30 22178 H 2030.46 -2.72456 -2.81975 0
M  V30 22179 H 2031.95 -2.11554 -3.60048 0
M  V30 22180 N 2032.39 0.630389 -1.44443 0
M  V30 22181 C 2033.8 1.21202 -1.4201 0
M  V30 22182 C 2034.15 1.95729 -0.135833 0
M  V30 22183 O 2033.27 2.02474 0.763765 0
M  V30 22184 C 2033.87 2.20458 -2.57262 0
M  V30 22185 C 2032.43 2.74047 -2.58021 0
M  V30 22186 C 2031.58 1.49058 -2.33831 0
M  V30 22187 H 2034.53 0.421022 -1.53013 0
M  V30 22188 H 2034.55 3.03074 -2.30057 0
M  V30 22189 H 2034.06 1.66188 -3.50718 0
M  V30 22190 H 2032.16 3.32319 -1.68509 0
M  V30 22191 H 2032.27 3.20036 -3.56531 0
M  V30 22192 H 2030.64 1.77216 -1.82939 0
M  V30 22193 H 2031.42 0.96689 -3.29403 0
M  V30 22194 N 2033.87 1.31354 0.870861 0
M  V30 22195 C 2034.81 1.18858 1.99939 0
M  V30 22196 C 2035.81 0.0970869 1.69122 0
M  V30 22197 O 2037.01 0.258917 1.78128 0
M  V30 22198 H 2033.39 0.367991 0.65581 0
M  V30 22199 H 2035.36 2.14338 2.07609 0
M  V30 22200 C 2034.11 0.911812 3.35531 0
M  V30 22201 H 2033.43 1.74383 3.59765 0
M  V30 22202 H 2034.87 0.864551 4.15092 0
M  V30 22203 C 2033.33 -0.385431 3.34688 0
M  V30 22204 O 2033.86 -1.40251 3.76421 0
M  V30 22205 N 2032.07 -0.401645 2.87811 0
M  V30 22206 H 2031.61 0.426528 2.54044 0
M  V30 22207 H 2031.57 -1.26952 2.87629 0
M  V30 22208 N 2035.34 -1.08505 1.143 0
M  V30 22209 C 2036.75 -1.62355 0.921836 0
M  V30 22210 C 2037.11 -1.88635 -0.539569 0
M  V30 22211 O 2036.23 -1.64307 -1.40827 0
M  V30 22212 C 2036.83 -2.94955 1.66694 0
M  V30 22213 C 2035.38 -3.45593 1.49139 0
M  V30 22214 C 2034.53 -2.19845 1.69008 0
M  V30 22215 H 2037.48 -0.917442 1.29494 0
M  V30 22216 H 2037.5 -3.63348 1.12954 0
M  V30 22217 H 2037.02 -2.75796 2.73053 0
M  V30 22218 H 2035.12 -3.69858 0.451226 0
M  V30 22219 H 2035.23 -4.2241 2.26068 0
M  V30 22220 H 2033.59 -2.28966 1.11565 0
M  V30 22221 H 2034.38 -2.03194 2.76707 0
M  V30 22222 N 2036.82 -0.937962 -1.26649 0
M  V30 22223 C 2038.23 -0.626942 -1.75859 0
M  V30 22224 C 2038.58 0.857893 -1.7645 0
M  V30 22225 O 2037.71 1.67138 -1.37455 0
M  V30 22226 C 2038.3 -1.13131 -3.19354 0
M  V30 22227 C 2036.86 -0.870769 -3.66189 0
M  V30 22228 C 2036.01 -1.28409 -2.45777 0
M  V30 22229 H 2038.96 -1.11662 -1.12771 0
M  V30 22230 H 2038.98 -0.483659 -3.77414 0
M  V30 22231 H 2038.49 -2.21201 -3.18891 0
M  V30 22232 H 2036.59 0.195688 -3.72086 0
M  V30 22233 H 2036.71 -1.49552 -4.55161 0
M  V30 22234 H 2035.07 -0.702547 -2.44819 0
M  V30 22235 H 2035.85 -2.37365 -2.48017 0
M  V30 22236 N 2038.3 1.40971 -0.704618 0
M  V30 22237 C 2039.25 2.2799 -0.0216885 0
M  V30 22238 C 2040.23 1.42681 0.743698 0
M  V30 22239 O 2041.43 1.65872 0.617703 0
M  V30 22240 C 2038.55 3.31092 0.907373 0
M  V30 22241 C 2037.64 4.23876 0.137755 0
M  V30 22242 N 2038.03 4.98205 -0.87323 0
M  V30 22243 C 2036.33 4.44447 0.371921 0
M  V30 22244 C 2037.03 5.6618 -1.33471 0
M  V30 22245 N 2036.01 5.39592 -0.658918 0
M  V30 22246 H 2039.81 2.82896 -0.796698 0
M  V30 22247 H 2037.32 1.53291 -0.536241 0
M  V30 22248 H 2039.32 3.92266 1.41185 0
M  V30 22249 H 2037.98 2.77746 1.68188 0
M  V30 22250 H 2038.99 5.02495 -1.25375 0
M  V30 22251 H 2035.67 4.02096 1.12361 0
M  V30 22252 H 2037.06 6.35752 -2.17415 0
M  V30 22253 N 2039.78 0.45001 1.51039 0
M  V30 22254 C 2041.03 -0.11219 2.02189 0
M  V30 22255 C 2041.35 -1.416 1.3334 0
M  V30 22256 O 2040.61 -1.90663 0.44113 0
M  V30 22257 C 2040.91 -0.365449 3.55527 0
M  V30 22258 C 2040.57 0.854084 4.42737 0
M  V30 22259 C 2039.24 1.1885 4.66292 0
M  V30 22260 C 2041.59 1.66705 4.93821 0
M  V30 22261 C 2038.92 2.33632 5.38176 0
M  V30 22262 C 2041.27 2.80597 5.66964 0
M  V30 22263 C 2039.93 3.14478 5.88778 0
M  V30 22264 H 2039.2 -0.0410534 0.739862 0
M  V30 22265 H 2041.85 0.599793 1.81865 0
M  V30 22266 H 2040.15 -1.15946 3.74251 0
M  V30 22267 H 2041.85 -0.81407 3.9265 0
M  V30 22268 H 2038.44 0.583517 4.24609 0
M  V30 22269 H 2042.62 1.42189 4.75496 0
M  V30 22270 H 2037.88 2.60181 5.53277 0
M  V30 22271 H 2042.05 3.43952 6.05533 0
M  V30 22272 H 2039.68 4.0353 6.44257 0
M  V30 22273 N 2041.26 -1.56548 0.18182 0
M  V30 22274 C 2042.67 -1.83704 -0.3331 0
M  V30 22275 C 2043.02 -1.10203 -1.62326 0
M  V30 22276 O 2042.14 -0.358476 -2.1341 0
M  V30 22277 C 2042.74 -3.33243 -0.611134 0
M  V30 22278 C 2041.3 -3.60857 -1.07046 0
M  V30 22279 C 2040.44 -2.77074 -0.111929 0
M  V30 22280 H 2043.4 -1.53422 0.405878 0
M  V30 22281 H 2043.42 -3.51292 -1.462 0
M  V30 22282 H 2042.93 -3.86711 0.328039 0
M  V30 22283 H 2041.03 -3.1281 -2.02437 0
M  V30 22284 H 2041.14 -4.69129 -0.972357 0
M  V30 22285 H 2039.51 -2.47255 -0.611302 0
M  V30 22286 H 2040.29 -3.33327 0.821452 0
M  V30 22287 N 2042.73 0.0918577 -1.57332 0
M  V30 22288 C 2043.96 0.81208 -1.9084 0
M  V30 22289 C 2044.38 1.71329 -0.776394 0
M  V30 22290 O 2043.74 1.7925 0.271867 0
M  V30 22291 C 2043.79 1.59867 -3.23226 0
M  V30 22292 O 2042.89 2.70787 -3.11044 0
M  V30 22293 H 2042.24 0.222886 -0.625474 0
M  V30 22294 H 2044.77 0.0661119 -2.04493 0
M  V30 22295 H 2044.78 1.98221 -3.56613 0
M  V30 22296 H 2043.45 0.937296 -4.05201 0
M  V30 22297 H 2042.03 2.35438 -2.89177 0
M  V30 22298 N 2044.21 1.53368 0.362763 0
M  V30 22299 C 2045.16 1.76385 1.44472 0
M  V30 22300 C 2046.15 0.618465 1.48539 0
M  V30 22301 O 2047.34 0.877226 1.53733 0
M  V30 22302 C 2044.47 1.95971 2.81869 0
M  V30 22303 C 2043.55 3.1652 2.8227 0
M  V30 22304 N 2043.94 4.38373 2.52314 0
M  V30 22305 C 2042.24 3.17299 3.13429 0
M  V30 22306 C 2042.94 5.20128 2.60464 0
M  V30 22307 N 2041.92 4.56403 2.95292 0
M  V30 22308 H 2045.72 2.68205 1.20179 0
M  V30 22309 H 2043.24 1.52032 0.570972 0
M  V30 22310 H 2045.23 2.10589 3.59802 0
M  V30 22311 H 2043.89 1.05381 3.07124 0
M  V30 22312 H 2044.9 4.66057 2.25857 0
M  V30 22313 H 2041.58 2.36611 3.43979 0
M  V30 22314 H 2042.97 6.27335 2.40626 0
M  V30 22315 N 2045.69 -0.62272 1.44776 0
M  V30 22316 C 2046.94 -1.38415 1.4822 0
M  V30 22317 C 2047.27 -1.93844 0.117595 0
M  V30 22318 O 2046.54 -1.7416 -0.865935 0
M  V30 22319 C 2046.83 -2.54325 2.54933 0
M  V30 22320 C 2046.68 -2.04192 4.00782 0
M  V30 22321 C 2048 -3.56495 2.58069 0
M  V30 22322 H 2045.12 -0.501939 0.539654 0
M  V30 22323 H 2047.76 -0.703347 1.76502 0
M  V30 22324 H 2045.91 -3.12403 2.30947 0
M  V30 22325 H 2047.58 -1.50879 4.35928 0
M  V30 22326 H 2045.83 -1.35308 4.12158 0
M  V30 22327 H 2046.5 -2.87679 4.7111 0
M  V30 22328 H 2048.97 -3.08232 2.79522 0
M  V30 22329 H 2047.85 -4.35106 3.34625 0
M  V30 22330 H 2048.11 -4.11119 1.62583 0
M  V30 22331 N 2047.17 -1.31814 -0.863883 0
M  V30 22332 C 2048.42 -1.21205 -1.61221 0
M  V30 22333 C 2048.73 0.227073 -1.94277 0
M  V30 22334 O 2049.94 0.454922 -2.67662 0
M  V30 22335 C 2048.39 -2.12221 -2.90672 0
M  V30 22336 C 2048 -3.61163 -2.65076 0
M  V30 22337 C 2049.74 -2.10427 -3.68674 0
M  V30 22338 C 2047.65 -4.44169 -3.90471 0
M  V30 22339 H 2046.58 -0.450072 -0.604939 0
M  V30 22340 H 2049.23 -1.56711 -0.954668 0
M  V30 22341 H 2047.61 -1.6962 -3.57834 0
M  V30 22342 H 2048.79 -4.12049 -2.06283 0
M  V30 22343 H 2047.1 -3.64995 -2.00418 0
M  V30 22344 H 2049.7 -2.69684 -4.61708 0
M  V30 22345 H 2050.04 -1.09293 -4.01697 0
M  V30 22346 H 2050.58 -2.5126 -3.08404 0
M  V30 22347 H 2047.32 -5.46082 -3.62595 0
M  V30 22348 H 2046.84 -3.98039 -4.48693 0
M  V30 22349 H 2048.51 -4.56696 -4.58299 0
M  V30 22350 N 2048.65 1.07897 -1.14873 0
M  V30 22351 C 2049.59 2.14955 -0.840422 0
M  V30 22352 C 2050.56 1.64839 0.204277 0
M  V30 22353 O 2051.75 1.9066 0.0730523 0
M  V30 22354 C 2048.89 3.43521 -0.329768 0
M  V30 22355 C 2048 4.07456 -1.43538 0
M  V30 22356 C 2047.14 5.23836 -0.881432 0
M  V30 22357 C 2046.18 5.79723 -1.96437 0
M  V30 22358 N 2045.31 6.87441 -1.42721 0
M  V30 22359 H 2050.15 2.40669 -1.75734 0
M  V30 22360 H 2047.69 1.18102 -0.876944 0
M  V30 22361 H 2049.65 4.17197 -0.01545 0
M  V30 22362 H 2048.28 3.18076 0.550246 0
M  V30 22363 H 2047.33 3.31489 -1.86599 0
M  V30 22364 H 2048.64 4.45007 -2.25323 0
M  V30 22365 H 2047.8 6.04473 -0.519325 0
M  V30 22366 H 2046.53 4.87689 -0.0326916 0
M  V30 22367 H 2045.54 4.97736 -2.33536 0
M  V30 22368 H 2046.76 6.17927 -2.81678 0
M  V30 22369 H 2044.71 6.53244 -0.600731 0
M  V30 22370 H 2044.63 7.23845 -2.18137 0
M  V30 22371 H 2045.9 7.71797 -1.09317 0
M  V30 22372 N 2050.12 0.944665 1.2615 0
M  V30 22373 C 2051.09 0.461547 2.24505 0
M  V30 22374 C 2052.09 -0.429277 1.54964 0
M  V30 22375 O 2053.28 -0.227965 1.72702 0
M  V30 22376 C 2050.41 -0.334363 3.39256 0
M  V30 22377 H 2051.6 1.33075 2.68758 0
M  V30 22378 H 2049.16 0.726968 1.38365 0
M  V30 22379 H 2049.89 -1.22167 3.00409 0
M  V30 22380 H 2049.68 0.304588 3.90915 0
M  V30 22381 H 2051.17 -0.662181 4.12317 0
M  V30 22382 N 2051.6 -1.40596 0.712085 0
M  V30 22383 C 2052.83 -2.05265 0.259627 0
M  V30 22384 C 2053.25 -1.5364 -1.09728 0
M  V30 22385 O 2052.6 -0.691501 -1.68892 0
M  V30 22386 C 2052.65 -3.60787 0.22693 0
M  V30 22387 O 2052.37 -4.10506 1.53025 0
M  V30 22388 C 2053.88 -4.42625 -0.244507 0
M  V30 22389 H 2051.1 -0.660656 0.117366 0
M  V30 22390 H 2053.64 -1.80069 0.969308 0
M  V30 22391 H 2051.79 -3.84965 -0.43369 0
M  V30 22392 H 2052.21 -5.04676 1.42838 0
M  V30 22393 H 2053.68 -5.51576 -0.216241 0
M  V30 22394 H 2054.16 -4.19948 -1.2861 0
M  V30 22395 H 2054.77 -4.23547 0.385709 0
M  V30 22396 N 2053.08 -0.458013 -1.50798 0
M  V30 22397 C 2054.33 0.101466 -2.02246 0
M  V30 22398 C 2054.66 1.40891 -1.34089 0
M  V30 22399 O 2053.91 1.90427 -0.451235 0
M  V30 22400 C 2054.21 0.346589 -3.55716 0
M  V30 22401 C 2053.88 -0.877551 -4.42278 0
M  V30 22402 C 2052.54 -1.21321 -4.65655 0
M  V30 22403 C 2054.89 -1.69321 -4.9293 0
M  V30 22404 C 2052.22 -2.36483 -5.36929 0
M  V30 22405 C 2054.57 -2.836 -5.65468 0
M  V30 22406 C 2053.23 -3.17596 -5.87102 0
M  V30 22407 H 2052.5 0.0371291 -0.740069 0
M  V30 22408 H 2055.15 -0.609429 -1.81544 0
M  V30 22409 H 2053.46 1.1396 -3.74861 0
M  V30 22410 H 2055.15 0.793236 -3.93076 0
M  V30 22411 H 2051.74 -0.606027 -4.24294 0
M  V30 22412 H 2055.93 -1.44708 -4.74735 0
M  V30 22413 H 2051.18 -2.63111 -5.5189 0
M  V30 22414 H 2055.36 -3.47158 -6.037 0
M  V30 22415 H 2052.98 -4.06941 -6.42108 0
M  V30 22416 N 2054.56 1.56449 -0.190119 0
M  V30 22417 C 2055.52 2.17632 0.718966 0
M  V30 22418 C 2056.52 1.12941 1.14459 0
M  V30 22419 O 2057.71 1.38353 1.05849 0
M  V30 22420 C 2054.84 2.77437 1.98095 0
M  V30 22421 H 2056.04 2.99322 0.186033 0
M  V30 22422 H 2053.59 1.56187 0.0594913 0
M  V30 22423 H 2054.33 1.99531 2.55652 0
M  V30 22424 H 2054.11 3.5407 1.68454 0
M  V30 22425 H 2055.6 3.24433 2.62932 0
M  V30 22426 N 2056.04 -0.0835127 1.57379 0
M  V30 22427 C 2057.27 -0.796949 1.9061 0
M  V30 22428 C 2057.68 -1.72229 0.78318 0
M  V30 22429 O 2057.02 -1.81948 -0.2531 0
M  V30 22430 C 2057.08 -1.65376 3.19204 0
M  V30 22431 C 2056.74 -0.899027 4.4807 0
M  V30 22432 C 2057.74 -0.223567 5.19419 0
M  V30 22433 C 2055.43 -0.869673 4.94714 0
M  V30 22434 C 2057.42 0.47115 6.35656 0
M  V30 22435 C 2055.11 -0.171178 6.1086 0
M  V30 22436 C 2056.11 0.498044 6.81182 0
M  V30 22437 O 2055.79 1.18531 7.95114 0
M  V30 22438 H 2055.53 -0.232443 0.63478 0
M  V30 22439 H 2058.08 -0.0616418 2.05307 0
M  V30 22440 H 2056.31 -2.43159 3.00684 0
M  V30 22441 H 2058 -2.24481 3.38176 0
M  V30 22442 H 2058.76 -0.237628 4.84418 0
M  V30 22443 H 2054.64 -1.38002 4.3986 0
M  V30 22444 H 2058.19 0.994067 6.90481 0
M  V30 22445 H 2054.08 -0.155003 6.45314 0
M  V30 22446 H 2054.85 1.09339 8.11164 0
M  V30 22447 N 2057.52 -1.53558 -0.354624 0
M  V30 22448 C 2058.76 -1.69489 -1.09346 0
M  V30 22449 C 2059.08 -0.458936 -1.9014 0
M  V30 22450 O 2060.28 -0.498981 -2.66875 0
M  V30 22451 C 2058.74 -2.99663 -1.99324 0
M  V30 22452 C 2058.35 -4.30558 -1.2379 0
M  V30 22453 C 2060.09 -3.2496 -2.73132 0
M  V30 22454 C 2058 -5.51814 -2.12733 0
M  V30 22455 H 2056.93 -0.631535 -0.411922 0
M  V30 22456 H 2059.58 -1.80059 -0.353687 0
M  V30 22457 H 2057.96 -2.82922 -2.77076 0
M  V30 22458 H 2059.14 -4.57966 -0.51025 0
M  V30 22459 H 2057.45 -4.11789 -0.617973 0
M  V30 22460 H 2060.05 -4.12739 -3.39927 0
M  V30 22461 H 2060.39 -2.41491 -3.39099 0
M  V30 22462 H 2060.92 -3.42426 -2.02458 0
M  V30 22463 H 2057.66 -6.37793 -1.51327 0
M  V30 22464 H 2057.18 -5.28669 -2.83317 0
M  V30 22465 H 2058.86 -5.87028 -2.72041 0
M  V30 22466 N 2058.99 0.615033 -1.45104 0
M  V30 22467 C 2060.22 1.40596 -1.52471 0
M  V30 22468 C 2060.64 1.87454 -0.155745 0
M  V30 22469 O 2060 1.59701 0.858209 0
M  V30 22470 C 2060.05 2.59156 -2.5074 0
M  V30 22471 O 2059.15 3.59538 -2.02006 0
M  V30 22472 H 2058.49 0.420045 -0.514255 0
M  V30 22473 H 2061.02 0.749208 -1.90389 0
M  V30 22474 H 2061.03 3.06496 -2.69303 0
M  V30 22475 H 2059.71 2.24399 -3.50169 0
M  V30 22476 H 2058.29 3.18897 -1.93284 0
M  V30 22477 N 2060.47 1.3227 0.85688 0
M  V30 22478 C 2061.42 1.20972 1.98667 0
M  V30 22479 C 2062.41 0.115019 1.69009 0
M  V30 22480 O 2063.62 0.277796 1.77843 0
M  V30 22481 H 2059.99 0.374926 0.65187 0
M  V30 22482 H 2061.97 2.16528 2.05324 0
M  V30 22483 C 2060.71 0.947348 3.34545 0
M  V30 22484 H 2060.04 1.78189 3.57895 0
M  V30 22485 H 2061.48 0.908529 4.14152 0
M  V30 22486 C 2059.94 -0.349912 3.35078 0
M  V30 22487 O 2060.47 -1.3625 3.77887 0
M  V30 22488 N 2058.67 -0.371097 2.88221 0
M  V30 22489 H 2058.22 0.453449 2.53578 0
M  V30 22490 H 2058.18 -1.23894 2.8896 0
M  V30 22491 N 2061.95 -1.07287 1.15444 0
M  V30 22492 C 2063.19 -1.8149 0.940261 0
M  V30 22493 C 2063.55 -1.84734 -0.523206 0
M  V30 22494 O 2064.75 -2.54815 -0.855738 0
M  V30 22495 C 2063.03 -3.22592 1.53848 0
M  V30 22496 S 2064.58 -4.13533 1.4675 0
M  V30 22497 H 2061.4 -0.625317 0.338377 0
M  V30 22498 H 2064 -1.28879 1.47005 0
M  V30 22499 H 2062.71 -3.1782 2.59651 0
M  V30 22500 H 2062.24 -3.80278 1.00758 0
M  V30 22501 H 2064.25 -4.94055 0.460833 0
M  V30 22502 N 2063.43 -0.951342 -1.25647 0
M  V30 22503 C 2064.38 -0.439691 -2.2372 0
M  V30 22504 C 2065.36 0.469243 -1.53906 0
M  V30 22505 O 2066.55 0.302832 -1.7439 0
M  V30 22506 C 2063.68 0.284397 -3.4212 0
M  V30 22507 C 2062.77 -0.642416 -4.19206 0
M  V30 22508 N 2063.16 -1.77263 -4.73721 0
M  V30 22509 C 2061.46 -0.449973 -4.43724 0
M  V30 22510 C 2062.16 -2.35101 -5.32074 0
M  V30 22511 N 2061.13 -1.6379 -5.18337 0
M  V30 22512 H 2064.94 -1.30229 -2.63472 0
M  V30 22513 H 2062.45 -0.808431 -1.40848 0
M  V30 22514 H 2064.45 0.668054 -4.11513 0
M  V30 22515 H 2063.11 1.14364 -3.03893 0
M  V30 22516 H 2064.12 -2.15456 -4.70955 0
M  V30 22517 H 2060.8 0.366665 -4.15887 0
M  V30 22518 H 2062.19 -3.30386 -5.8506 0
M  V30 22519 N 2064.91 1.40216 -0.719531 0
M  V30 22520 C 2065.85 2.30695 -0.0695046 0
M  V30 22521 C 2066.82 1.48398 0.746138 0
M  V30 22522 O 2068.01 1.77127 0.709277 0
M  V30 22523 C 2065.15 3.34636 0.843357 0
M  V30 22524 C 2064.26 4.31997 0.0167651 0
M  V30 22525 C 2063.4 5.23005 0.929469 0
M  V30 22526 C 2062.43 6.12023 0.0972024 0
M  V30 22527 N 2061.57 6.95437 0.964997 0
M  V30 22528 H 2066.41 2.85716 -0.846765 0
M  V30 22529 H 2063.95 1.40698 -0.429253 0
M  V30 22530 H 2065.91 3.93473 1.38691 0
M  V30 22531 H 2064.54 2.81108 1.58676 0
M  V30 22532 H 2063.59 3.74909 -0.644016 0
M  V30 22533 H 2064.9 4.94838 -0.627416 0
M  V30 22534 H 2064.05 5.86792 1.54141 0
M  V30 22535 H 2062.79 4.60447 1.60746 0
M  V30 22536 H 2061.8 5.47262 -0.52765 0
M  V30 22537 H 2063.02 6.76641 -0.577347 0
M  V30 22538 H 2060.97 6.35463 1.62857 0
M  V30 22539 H 2060.89 7.5506 0.376943 0
M  V30 22540 H 2062.15 7.63669 1.56299 0
M  V30 22541 N 2066.38 0.466004 1.50553 0
M  V30 22542 C 2067.61 -0.0885768 2.0671 0
M  V30 22543 C 2068.03 -1.33958 1.33044 0
M  V30 22544 O 2067.38 -1.78102 0.398219 0
M  V30 22545 C 2067.43 -0.381842 3.59478 0
M  V30 22546 O 2067.16 0.81954 4.30366 0
M  V30 22547 C 2068.66 -0.98395 4.32242 0
M  V30 22548 H 2065.88 0.00481473 0.670983 0
M  V30 22549 H 2068.42 0.653327 1.93783 0
M  V30 22550 H 2066.58 -1.07367 3.72224 0
M  V30 22551 H 2066.99 0.56106 5.21491 0
M  V30 22552 H 2068.46 -1.13895 5.40122 0
M  V30 22553 H 2068.94 -1.97271 3.92404 0
M  V30 22554 H 2069.55 -0.330654 4.24013 0
M  V30 22555 N 2067.86 -1.56346 0.198413 0
M  V30 22556 C 2068.81 -2.19245 -0.721128 0
M  V30 22557 C 2069.78 -1.14072 -1.20735 0
M  V30 22558 O 2070.96 -1.42336 -1.27063 0
M  V30 22559 C 2068.1 -2.85839 -1.93365 0
M  V30 22560 C 2067.22 -4.05546 -1.48849 0
M  V30 22561 C 2066.35 -4.59988 -2.65678 0
M  V30 22562 C 2065.39 -5.72046 -2.17784 0
M  V30 22563 N 2064.53 -6.20879 -3.27802 0
M  V30 22564 H 2069.37 -2.97468 -0.178003 0
M  V30 22565 H 2066.9 -1.46903 -0.076117 0
M  V30 22566 H 2068.86 -3.2262 -2.64522 0
M  V30 22567 H 2067.49 -2.10174 -2.45004 0
M  V30 22568 H 2066.54 -3.74405 -0.672674 0
M  V30 22569 H 2067.86 -4.86584 -1.09713 0
M  V30 22570 H 2067.01 -4.99092 -3.44952 0
M  V30 22571 H 2065.75 -3.78064 -3.08089 0
M  V30 22572 H 2064.75 -5.32467 -1.36964 0
M  V30 22573 H 2065.98 -6.5579 -1.76399 0
M  V30 22574 H 2063.93 -5.41876 -3.69738 0
M  V30 22575 H 2063.84 -6.96977 -2.92845 0
M  V30 22576 H 2065.11 -6.64637 -4.07281 0
M  V30 22577 N 2069.34 0.0751653 -1.57421 0
M  V30 22578 C 2070.27 1.09007 -2.06494 0
M  V30 22579 C 2071.25 1.40573 -0.957766 0
M  V30 22580 O 2072.44 1.50259 -1.23028 0
M  V30 22581 C 2069.57 2.40446 -2.50605 0
M  V30 22582 C 2068.52 2.2324 -3.65168 0
M  V30 22583 C 2067.85 3.60033 -3.95323 0
M  V30 22584 C 2069.15 1.65642 -4.95338 0
M  V30 22585 H 2070.84 0.681725 -2.91535 0
M  V30 22586 H 2068.39 0.326481 -1.4025 0
M  V30 22587 H 2070.34 3.11734 -2.83548 0
M  V30 22588 H 2069.06 2.83254 -1.62588 0
M  V30 22589 H 2067.72 1.54393 -3.32503 0
M  V30 22590 H 2067.37 4.00404 -3.04443 0
M  V30 22591 H 2067.07 3.4936 -4.72463 0
M  V30 22592 H 2068.59 4.32757 -4.30759 0
M  V30 22593 H 2070.01 2.26793 -5.26534 0
M  V30 22594 H 2068.41 1.65675 -5.76777 0
M  V30 22595 H 2069.48 0.617593 -4.80951 0
M  V30 22596 N 2070.82 1.53744 0.346476 0
M  V30 22597 C 2071.77 1.81527 1.42536 0
M  V30 22598 C 2072.74 0.660781 1.52391 0
M  V30 22599 O 2073.92 0.904918 1.67976 0
M  V30 22600 C 2071.06 2.02795 2.79228 0
M  V30 22601 C 2070.17 3.30508 2.78188 0
M  V30 22602 C 2069.31 3.41859 4.06578 0
M  V30 22603 C 2068.35 4.63532 3.99755 0
M  V30 22604 N 2067.48 4.71933 5.1983 0
M  V30 22605 H 2072.32 2.7358 1.18144 0
M  V30 22606 H 2069.86 1.35508 0.572368 0
M  V30 22607 H 2071.82 2.13115 3.58661 0
M  V30 22608 H 2070.45 1.14059 3.01978 0
M  V30 22609 H 2069.5 3.29044 1.90877 0
M  V30 22610 H 2070.81 4.20033 2.69024 0
M  V30 22611 H 2069.97 3.51595 4.94435 0
M  V30 22612 H 2068.71 2.50385 4.1852 0
M  V30 22613 H 2067.71 4.53876 3.10284 0
M  V30 22614 H 2068.94 5.56368 3.89399 0
M  V30 22615 H 2066.88 3.83367 5.32321 0
M  V30 22616 H 2066.8 5.5539 5.12911 0
M  V30 22617 H 2068.07 4.85975 6.09466 0
M  V30 22618 N 2072.3 -0.607329 1.45428 0
M  V30 22619 C 2073.52 -1.39786 1.53214 0
M  V30 22620 C 2073.95 -1.87369 0.165684 0
M  V30 22621 O 2073.3 -1.60154 -0.849728 0
M  V30 22622 C 2073.35 -2.57823 2.52111 0
M  V30 22623 O 2072.46 -3.58462 2.03909 0
M  V30 22624 H 2071.8 -0.417312 0.516476 0
M  V30 22625 H 2074.33 -0.739101 1.90784 0
M  V30 22626 H 2074.34 -3.05064 2.70925 0
M  V30 22627 H 2073.01 -2.22539 3.51354 0
M  V30 22628 H 2071.59 -3.17868 1.94973 0
M  V30 22629 N 2073.77 -1.32722 -0.849853 0
M  V30 22630 C 2075.02 -1.22908 -1.59927 0
M  V30 22631 C 2075.34 0.206455 -1.94507 0
M  V30 22632 O 2076.54 0.426508 -2.68129 0
M  V30 22633 C 2075 -2.15292 -2.88405 0
M  V30 22634 C 2074.61 -3.63954 -2.6123 0
M  V30 22635 C 2076.35 -2.14325 -3.66422 0
M  V30 22636 C 2074.26 -4.48286 -3.85738 0
M  V30 22637 H 2073.19 -0.456463 -0.600132 0
M  V30 22638 H 2075.84 -1.57715 -0.937993 0
M  V30 22639 H 2074.22 -1.73406 -3.56015 0
M  V30 22640 H 2075.39 -4.14213 -2.01901 0
M  V30 22641 H 2073.71 -3.67101 -1.96535 0
M  V30 22642 H 2076.31 -2.74566 -4.58822 0
M  V30 22643 H 2076.65 -1.13547 -4.00516 0
M  V30 22644 H 2077.18 -2.54517 -3.05722 0
M  V30 22645 H 2073.92 -5.49897 -3.56782 0
M  V30 22646 H 2073.44 -4.02776 -4.44446 0
M  V30 22647 H 2075.12 -4.61531 -4.53429 0
M  V30 22648 N 2075.25 1.06673 -1.16011 0
M  V30 22649 C 2076.18 2.16027 -0.886249 0
M  V30 22650 C 2077.16 1.69289 0.165907 0
M  V30 22651 O 2078.35 1.94191 0.0188181 0
M  V30 22652 C 2075.48 3.45189 -0.382329 0
M  V30 22653 C 2074.43 4.05415 -1.37195 0
M  V30 22654 C 2073.76 5.2974 -0.726594 0
M  V30 22655 C 2075.06 4.44642 -2.74027 0
M  V30 22656 H 2076.75 2.39195 -1.80073 0
M  V30 22657 H 2074.3 1.14957 -0.867232 0
M  V30 22658 H 2076.25 4.21023 -0.17824 0
M  V30 22659 H 2074.98 3.21629 0.567641 0
M  V30 22660 H 2073.63 3.31634 -1.56252 0
M  V30 22661 H 2073.28 5.02475 0.229742 0
M  V30 22662 H 2072.98 5.70993 -1.38709 0
M  V30 22663 H 2074.51 6.08274 -0.532437 0
M  V30 22664 H 2075.92 5.11574 -2.58775 0
M  V30 22665 H 2074.32 4.96868 -3.36515 0
M  V30 22666 H 2075.39 3.55684 -3.29571 0
M  V30 22667 N 2076.73 0.957992 1.25141 0
M  V30 22668 C 2077.64 0.487592 2.29477 0
M  V30 22669 C 2078.66 -0.446704 1.68168 0
M  V30 22670 O 2079.83 -0.322127 1.98807 0
M  V30 22671 C 2076.9 -0.22393 3.45976 0
M  V30 22672 C 2075.96 0.748994 4.22716 0
M  V30 22673 C 2075.19 0.0713329 5.33652 0
M  V30 22674 O 2075.41 -1.14234 5.58844 0
M  V30 22675 O 2074.35 0.758575 5.97101 0
M  V30 22676 H 2078.17 1.35471 2.71811 0
M  V30 22677 H 2075.76 0.724594 1.30652 0
M  V30 22678 H 2077.64 -0.624039 4.16754 0
M  V30 22679 H 2076.32 -1.06616 3.05638 0
M  V30 22680 H 2075.22 1.19938 3.54353 0
M  V30 22681 H 2076.56 1.55935 4.66846 0
M  V30 22682 N 2078.21 -1.39832 0.726957 0
M  V30 22683 C 2079.46 -1.99907 0.268315 0
M  V30 22684 C 2079.77 -1.58329 -1.14854 0
M  V30 22685 O 2080.98 -2.11183 -1.70628 0
M  V30 22686 C 2079.43 -3.57337 0.428781 0
M  V30 22687 C 2079.04 -4.07882 1.853 0
M  V30 22688 C 2080.78 -4.24488 0.031508 0
M  V30 22689 C 2078.69 -5.57856 1.96344 0
M  V30 22690 H 2077.62 -0.747791 0.0965646 0
M  V30 22691 H 2080.27 -1.59931 0.899682 0
M  V30 22692 H 2078.65 -3.95069 -0.271354 0
M  V30 22693 H 2079.83 -3.81502 2.58444 0
M  V30 22694 H 2078.14 -3.53366 2.20276 0
M  V30 22695 H 2080.74 -5.34619 0.0931531 0
M  V30 22696 H 2081.08 -4.0381 -1.01209 0
M  V30 22697 H 2081.62 -3.91901 0.682503 0
M  V30 22698 H 2078.36 -5.83404 2.98865 0
M  V30 22699 H 2077.88 -5.86064 1.27627 0
M  V30 22700 H 2079.55 -6.2314 1.74085 0
M  V30 22701 N 2079.69 -0.473982 -1.50304 0
M  V30 22702 C 2080.62 0.308532 -2.31453 0
M  V30 22703 C 2081.6 0.987678 -1.38488 0
M  V30 22704 O 2082.78 0.984294 -1.67408 0
M  V30 22705 C 2079.91 1.38921 -3.18305 0
M  V30 22706 C 2078.87 0.831509 -4.19845 0
M  V30 22707 C 2078.19 2.0107 -4.95454 0
M  V30 22708 C 2079.49 -0.159166 -5.22057 0
M  V30 22709 H 2081.19 -0.368757 -2.9712 0
M  V30 22710 H 2078.73 -0.178787 -1.42886 0
M  V30 22711 H 2080.69 1.94415 -3.73873 0
M  V30 22712 H 2079.41 2.09531 -2.50528 0
M  V30 22713 H 2078.07 0.298526 -3.65383 0
M  V30 22714 H 2077.72 2.70384 -4.24148 0
M  V30 22715 H 2077.42 1.64374 -5.64141 0
M  V30 22716 H 2078.94 2.57048 -5.53858 0
M  V30 22717 H 2080.35 0.306691 -5.72479 0
M  V30 22718 H 2078.75 -0.440549 -5.98481 0
M  V30 22719 H 2079.82 -1.08411 -4.72626 0
M  V30 22720 N 2081.16 1.56239 -0.206702 0
M  V30 22721 C 2082.39 2.02736 0.437344 0
M  V30 22722 C 2082.81 1.08577 1.53599 0
M  V30 22723 O 2082.17 0.0712895 1.8116 0
M  V30 22724 C 2082.22 3.47587 0.959974 0
M  V30 22725 O 2081.32 3.56556 2.07223 0
M  V30 22726 H 2080.67 0.656297 0.100845 0
M  V30 22727 H 2083.2 2.02066 -0.320985 0
M  V30 22728 H 2083.21 3.87612 1.27361 0
M  V30 22729 H 2081.88 4.15608 0.15578 0
M  V30 22730 H 2080.46 3.28412 1.76635 0
M  V30 22731 N 2082.64 -0.0668159 1.57458 0
M  V30 22732 C 2083.59 -1.07888 2.04031 0
M  V30 22733 C 2084.56 -1.38168 0.921889 0
M  V30 22734 O 2085.74 -1.49151 1.1899 0
M  V30 22735 C 2082.88 -2.38598 2.49329 0
M  V30 22736 C 2082 -2.14805 3.7481 0
M  V30 22737 C 2081.13 -3.39114 4.0887 0
M  V30 22738 C 2080.17 -3.10708 5.27377 0
M  V30 22739 N 2079.31 -4.27361 5.57052 0
M  V30 22740 H 2084.15 -0.674755 2.9026 0
M  V30 22741 H 2081.69 -0.321602 1.43541 0
M  V30 22742 H 2083.64 -3.14919 2.73646 0
M  V30 22743 H 2082.27 -2.76804 1.6607 0
M  V30 22744 H 2081.33 -1.29154 3.57804 0
M  V30 22745 H 2082.64 -1.89826 4.61267 0
M  V30 22746 H 2081.79 -4.23827 4.34114 0
M  V30 22747 H 2080.53 -3.67174 3.2099 0
M  V30 22748 H 2079.54 -2.24392 5.01925 0
M  V30 22749 H 2080.76 -2.83966 6.16879 0
M  V30 22750 H 2078.71 -4.55443 4.72131 0
M  V30 22751 H 2078.62 -4.05673 6.37938 0
M  V30 22752 H 2079.89 -5.13057 5.8685 0
M  V30 22753 N 2084.12 -1.53926 -0.338317 0
M  V30 22754 C 2085.35 -1.75682 -1.1023 0
M  V30 22755 C 2085.77 -0.497087 -1.81413 0
M  V30 22756 O 2085.13 0.550577 -1.72738 0
M  V30 22757 C 2085.18 -2.94038 -2.08743 0
M  V30 22758 O 2084.28 -2.64552 -3.16364 0
M  V30 22759 H 2083.62 -0.582603 -0.318544 0
M  V30 22760 H 2086.15 -2.00904 -0.387113 0
M  V30 22761 H 2086.16 -3.20973 -2.51873 0
M  V30 22762 H 2084.84 -3.854 -1.56331 0
M  V30 22763 H 2083.41 -2.48521 -2.78014 0
M  V30 22764 N 2085.6 0.599608 -1.45748 0
M  V30 22765 C 2087.01 1.18163 -1.44549 0
M  V30 22766 C 2087.36 1.95397 -0.17732 0
M  V30 22767 O 2086.49 2.04048 0.720645 0
M  V30 22768 C 2087.08 2.14951 -2.6188 0
M  V30 22769 C 2085.64 2.68513 -2.63776 0
M  V30 22770 C 2084.79 1.44065 -2.3694 0
M  V30 22771 H 2087.74 0.388471 -1.53872 0
M  V30 22772 H 2087.76 2.98126 -2.36434 0
M  V30 22773 H 2087.27 1.58711 -3.54164 0
M  V30 22774 H 2085.37 3.28669 -1.7552 0
M  V30 22775 H 2085.49 3.12401 -3.63239 0
M  V30 22776 H 2083.85 1.73296 -1.86657 0
M  V30 22777 H 2084.63 0.896802 -3.31379 0
M  V30 22778 N 2087.08 1.33171 0.842803 0
M  V30 22779 C 2088.35 1.15008 1.58216 0
M  V30 22780 C 2088.73 -0.285047 2.09167 0
M  V30 22781 O 2088.08 -1.28349 1.89047 0
M  V30 22782 C 2088.29 2.18785 2.71908 0
M  V30 22783 C 2089.64 2.52736 3.41188 0
M  V30 22784 O 2090.66 2.17422 2.82146 0
M  V30 22785 O 2089.52 3.13321 4.47763 0
M  V30 22786 H 2086.62 0.444573 0.69734 0
M  V30 22787 H 2089.16 1.44741 0.8859 0
M  V30 22788 H 2087.94 3.15201 2.31871 0
M  V30 22789 H 2087.56 1.90116 3.49202 0
M  V30 22790 N 2088.56 -1.06056 1.16576 0
M  V30 22791 C 2089.78 -1.83131 0.973539 0
M  V30 22792 C 2090.21 -1.82047 -0.473358 0
M  V30 22793 O 2089.56 -1.22303 -1.33834 0
M  V30 22794 C 2089.61 -3.2753 1.50852 0
M  V30 22795 O 2088.72 -4.06129 0.716451 0
M  V30 22796 H 2088.06 -0.566557 0.346279 0
M  V30 22797 H 2090.59 -1.33704 1.54869 0
M  V30 22798 H 2090.6 -3.78346 1.52704 0
M  V30 22799 H 2089.27 -3.27634 2.56181 0
M  V30 22800 H 2087.85 -3.64892 0.768639 0
M  V30 22801 N 2090.03 -0.964615 -1.24631 0
M  V30 22802 C 2091.26 -0.641396 -1.96392 0
M  V30 22803 C 2091.67 0.792726 -1.71792 0
M  V30 22804 O 2091.01 1.54313 -0.996658 0
M  V30 22805 C 2091.08 -0.832418 -3.4973 0
M  V30 22806 C 2090.74 -2.24559 -3.98023 0
M  V30 22807 C 2091.74 -3.22308 -4.07938 0
M  V30 22808 C 2089.42 -2.57246 -4.31428 0
M  V30 22809 C 2091.42 -4.50832 -4.50588 0
M  V30 22810 C 2089.1 -3.85996 -4.73762 0
M  V30 22811 C 2090.1 -4.82602 -4.83306 0
M  V30 22812 O 2089.79 -6.09056 -5.24696 0
M  V30 22813 H 2089.52 -0.238561 -0.632507 0
M  V30 22814 H 2092.08 -1.29421 -1.59498 0
M  V30 22815 H 2090.31 -0.122445 -3.86506 0
M  V30 22816 H 2091.99 -0.508751 -4.02699 0
M  V30 22817 H 2092.76 -2.98383 -3.82351 0
M  V30 22818 H 2088.64 -1.82773 -4.2322 0
M  V30 22819 H 2092.18 -5.26237 -4.57952 0
M  V30 22820 H 2088.08 -4.09723 -4.98796 0
M  V30 22821 H 2088.85 -6.12578 -5.42854 0
M  V30 22822 N 2091.51 1.39445 -0.734362 0
M  V30 22823 C 2092.44 2.29135 -0.0543743 0
M  V30 22824 C 2093.46 1.46785 0.704126 0
M  V30 22825 O 2094.65 1.69867 0.548394 0
M  V30 22826 C 2091.75 3.25393 0.947229 0
M  V30 22827 C 2090.92 4.36683 0.250381 0
M  V30 22828 C 2089.98 5.13255 1.16 0
M  V30 22829 O 2089 5.65616 0.637723 0
M  V30 22830 N 2090.21 5.24396 2.48976 0
M  V30 22831 H 2092.97 2.88134 -0.824567 0
M  V30 22832 H 2090.53 1.51018 -0.583531 0
M  V30 22833 H 2092.52 3.73494 1.55834 0
M  V30 22834 H 2091.09 2.6743 1.61863 0
M  V30 22835 H 2090.31 3.90467 -0.5412 0
M  V30 22836 H 2091.6 5.08268 -0.232571 0
M  V30 22837 H 2091 4.83371 2.93885 0
M  V30 22838 H 2089.56 5.75939 3.05185 0
M  V30 22839 N 2092.99 0.481946 1.5005 0
M  V30 22840 C 2093.94 -0.306558 2.28755 0
M  V30 22841 C 2094.91 -0.97752 1.3429 0
M  V30 22842 O 2096.09 -0.987865 1.63236 0
M  V30 22843 C 2093.23 -1.37629 3.16468 0
M  V30 22844 C 2092.34 -0.71902 4.25974 0
M  V30 22845 C 2091.48 -1.76757 5.0093 0
M  V30 22846 C 2090.52 -1.09113 6.02296 0
M  V30 22847 N 2089.66 -2.08302 6.70489 0
M  V30 22848 H 2094.5 0.370886 2.95683 0
M  V30 22849 H 2092.03 0.194749 1.45805 0
M  V30 22850 H 2093.99 -2.00828 3.65683 0
M  V30 22851 H 2092.62 -2.02275 2.51564 0
M  V30 22852 H 2091.67 0.0257987 3.80391 0
M  V30 22853 H 2092.98 -0.1856 4.98455 0
M  V30 22854 H 2092.14 -2.47509 5.53917 0
M  V30 22855 H 2090.88 -2.33481 4.2818 0
M  V30 22856 H 2089.88 -0.369286 5.48558 0
M  V30 22857 H 2091.11 -0.530637 6.77024 0
M  V30 22858 H 2089.05 -2.64023 6.00523 0
M  V30 22859 H 2088.97 -1.59974 7.3888 0
M  V30 22860 H 2090.24 -2.78401 7.28089 0
M  V30 22861 N 2094.47 -1.56127 0.214985 0
M  V30 22862 C 2095.72 -1.97304 -0.41881 0
M  V30 22863 C 2096.03 -1.10547 -1.61366 0
M  V30 22864 O 2097.24 -1.41593 -2.31654 0
M  V30 22865 C 2095.69 -3.50975 -0.796509 0
M  V30 22866 C 2095.3 -4.46426 0.375156 0
M  V30 22867 C 2097.04 -4.0088 -1.39627 0
M  V30 22868 C 2094.95 -5.91395 -0.0246118 0
M  V30 22869 H 2093.88 -0.736775 -0.160246 0
M  V30 22870 H 2096.53 -1.8086 0.310157 0
M  V30 22871 H 2094.91 -3.62996 -1.58271 0
M  V30 22872 H 2096.09 -4.46149 1.15271 0
M  V30 22873 H 2094.4 -4.06827 0.887721 0
M  V30 22874 H 2097 -5.06681 -1.70816 0
M  V30 22875 H 2097.34 -3.46346 -2.30977 0
M  V30 22876 H 2097.88 -3.92055 -0.673641 0
M  V30 22877 H 2094.61 -6.49897 0.855201 0
M  V30 22878 H 2094.13 -5.94881 -0.766611 0
M  V30 22879 H 2095.81 -6.45408 -0.453573 0
M  V30 22880 N 2095.95 0.0584645 -1.57492 0
M  V30 22881 C 2096.88 1.0681 -2.07639 0
M  V30 22882 C 2097.86 1.3955 -0.972622 0
M  V30 22883 O 2099.04 1.48946 -1.24615 0
M  V30 22884 C 2096.17 2.37774 -2.53142 0
M  V30 22885 C 2095.13 2.19354 -3.67516 0
M  V30 22886 C 2094.45 3.5582 -3.9912 0
M  V30 22887 C 2095.75 1.60379 -4.97067 0
M  V30 22888 H 2097.45 0.650765 -2.92242 0
M  V30 22889 H 2094.99 0.311587 -1.40589 0
M  V30 22890 H 2096.94 3.08709 -2.86839 0
M  V30 22891 H 2095.67 2.81513 -1.65583 0
M  V30 22892 H 2094.33 1.50858 -3.34122 0
M  V30 22893 H 2093.98 3.97153 -3.08672 0
M  V30 22894 H 2093.68 3.4433 -4.76142 0
M  V30 22895 H 2095.2 4.28164 -4.35325 0
M  V30 22896 H 2096.61 2.21195 -5.2891 0
M  V30 22897 H 2095.01 1.59548 -5.78502 0
M  V30 22898 H 2096.08 0.566547 -4.81579 0
M  V30 22899 N 2097.42 1.54103 0.330149 0
M  V30 22900 C 2098.35 1.8602 1.41134 0
M  V30 22901 C 2099.33 0.716429 1.54277 0
M  V30 22902 O 2100.52 0.969568 1.68265 0
M  V30 22903 C 2097.65 2.08171 2.77997 0
M  V30 22904 C 2096.6 3.24007 2.79649 0
M  V30 22905 C 2095.93 3.31516 4.19525 0
M  V30 22906 C 2097.23 4.6181 2.43985 0
M  V30 22907 H 2098.92 2.76569 1.14672 0
M  V30 22908 H 2096.47 1.33074 0.550199 0
M  V30 22909 H 2098.42 2.29083 3.53694 0
M  V30 22910 H 2097.15 1.14364 3.05922 0
M  V30 22911 H 2095.81 3.02971 2.06407 0
M  V30 22912 H 2095.45 2.3528 4.44581 0
M  V30 22913 H 2095.15 4.09364 4.21538 0
M  V30 22914 H 2096.68 3.54655 4.97044 0
M  V30 22915 H 2098.09 4.82647 3.09395 0
M  V30 22916 H 2096.49 5.4216 2.5726 0
M  V30 22917 H 2097.56 4.64507 1.39146 0
M  V30 22918 N 2098.9 -0.59187 1.46064 0
M  V30 22919 C 2099.87 -1.68357 1.55526 0
M  V30 22920 C 2100.87 -1.54854 0.433247 0
M  V30 22921 O 2102.06 -1.59637 0.697258 0
M  V30 22922 C 2099.19 -3.07729 1.46683 0
M  V30 22923 H 2100.38 -1.61328 2.5281 0
M  V30 22924 H 2097.93 -0.808941 1.33738 0
M  V30 22925 H 2098.67 -3.20321 0.506433 0
M  V30 22926 H 2098.45 -3.18939 2.2808 0
M  V30 22927 H 2099.94 -3.87218 1.5637 0
M  V30 22928 N 2100.38 -1.33616 -0.835729 0
M  V30 22929 C 2101.63 -1.24597 -1.58614 0
M  V30 22930 C 2101.94 0.185813 -1.94715 0
M  V30 22931 O 2103.15 0.398045 -2.68566 0
M  V30 22932 C 2101.6 -2.18339 -2.86105 0
M  V30 22933 C 2101.21 -3.66705 -2.57355 0
M  V30 22934 C 2102.96 -2.182 -3.64128 0
M  V30 22935 C 2100.86 -4.52352 -3.80962 0
M  V30 22936 H 2099.79 -0.462802 -0.595256 0
M  V30 22937 H 2102.44 -1.58701 -0.921212 0
M  V30 22938 H 2100.83 -1.77172 -3.54156 0
M  V30 22939 H 2102 -4.16331 -1.97496 0
M  V30 22940 H 2100.32 -3.69164 -1.92631 0
M  V30 22941 H 2102.91 -2.79417 -4.55884 0
M  V30 22942 H 2103.26 -1.17789 -3.99289 0
M  V30 22943 H 2103.79 -2.57745 -3.03005 0
M  V30 22944 H 2100.53 -5.5365 -3.5093 0
M  V30 22945 H 2100.05 -4.07467 -4.40149 0
M  V30 22946 H 2101.73 -4.66315 -4.48508 0
M  V30 22947 N 2101.86 1.05436 -1.17136 0
M  V30 22948 C 2103.1 1.79971 -0.969015 0
M  V30 22949 C 2103.46 1.85543 0.49375 0
M  V30 22950 O 2104.66 2.56144 0.815091 0
M  V30 22951 C 2102.93 3.20104 -1.5896 0
M  V30 22952 S 2104.49 4.11146 -1.53311 0
M  V30 22953 H 2101.31 0.619855 -0.348283 0
M  V30 22954 H 2103.91 1.26524 -1.49037 0
M  V30 22955 H 2102.62 3.13649 -2.64674 0
M  V30 22956 H 2102.15 3.78627 -1.06795 0
M  V30 22957 H 2104.16 4.9326 -0.539375 0
M  V30 22958 N 2103.34 0.971211 1.24118 0
M  V30 22959 C 2104.25 0.511904 2.28947 0
M  V30 22960 C 2105.26 -0.428843 1.68633 0
M  V30 22961 O 2106.44 -0.301023 1.99138 0
M  V30 22962 C 2103.5 -0.187222 3.46194 0
M  V30 22963 C 2102.56 0.793786 4.21898 0
M  V30 22964 C 2101.8 0.12793 5.33547 0
M  V30 22965 O 2102.02 -1.08301 5.60024 0
M  V30 22966 O 2100.95 0.821863 5.96263 0
M  V30 22967 H 2104.78 1.38346 2.70359 0
M  V30 22968 H 2102.37 0.738411 1.29876 0
M  V30 22969 H 2104.25 -0.579802 4.17392 0
M  V30 22970 H 2102.92 -1.03369 3.06752 0
M  V30 22971 H 2101.83 1.23689 3.53061 0
M  V30 22972 H 2103.16 1.60877 4.65166 0
M  V30 22973 N 2104.81 -1.39054 0.741747 0
M  V30 22974 C 2105.75 -2.29103 0.0665251 0
M  V30 22975 C 2106.76 -1.47157 -0.696331 0
M  V30 22976 O 2107.95 -1.70156 -0.539378 0
M  V30 22977 C 2105.05 -3.25891 -0.929959 0
M  V30 22978 C 2104.22 -4.36809 -0.227219 0
M  V30 22979 C 2103.28 -5.13863 -1.13276 0
M  V30 22980 O 2102.31 -5.65946 -0.607718 0
M  V30 22981 N 2103.51 -5.25709 -2.46192 0
M  V30 22982 H 2106.27 -2.87692 0.839836 0
M  V30 22983 H 2103.83 -1.50707 0.591532 0
M  V30 22984 H 2105.83 -3.74315 -1.53851 0
M  V30 22985 H 2104.4 -2.68285 -1.60443 0
M  V30 22986 H 2103.62 -3.90175 0.5619 0
M  V30 22987 H 2104.9 -5.08138 0.259523 0
M  V30 22988 H 2104.3 -4.84923 -2.91318 0
M  V30 22989 H 2102.86 -5.77549 -3.02127 0
M  V30 22990 N 2106.29 -0.489897 -1.49792 0
M  V30 22991 C 2107.26 0.283286 -2.27443 0
M  V30 22992 C 2108.26 0.903846 -1.32993 0
M  V30 22993 O 2109.45 0.770101 -1.56253 0
M  V30 22994 C 2106.58 1.40534 -3.10585 0
M  V30 22995 H 2107.77 -0.397946 -2.97248 0
M  V30 22996 H 2105.32 -0.244516 -1.54376 0
M  V30 22997 H 2106.06 2.12106 -2.4532 0
M  V30 22998 H 2105.84 0.965947 -3.80016 0
M  V30 22999 H 2107.33 1.95026 -3.69262 0
M  V30 23000 N 2107.77 1.56011 -0.223262 0
M  V30 23001 C 2108.73 2.19108 0.672641 0
M  V30 23002 C 2109.73 1.15344 1.12038 0
M  V30 23003 O 2110.92 1.40567 1.0289 0
M  V30 23004 C 2108.06 2.81576 1.92165 0
M  V30 23005 H 2109.25 2.9965 0.1225 0
M  V30 23006 H 2106.8 1.56278 0.0263484 0
M  V30 23007 H 2107.54 2.04909 2.51362 0
M  V30 23008 H 2107.32 3.57564 1.60906 0
M  V30 23009 H 2108.81 3.29937 2.55991 0
M  V30 23010 N 2109.25 -0.0501116 1.5752 0
M  V30 23011 C 2110.16 -1.07459 2.08542 0
M  V30 23012 C 2111.17 -1.41006 1.01947 0
M  V30 23013 O 2112.35 -1.50749 1.33555 0
M  V30 23014 C 2109.42 -2.36274 2.53723 0
M  V30 23015 C 2108.48 -2.095 3.74711 0
M  V30 23016 C 2107.71 -3.32174 4.17728 0
M  V30 23017 O 2107.93 -4.42091 3.60432 0
M  V30 23018 O 2106.87 -3.1911 5.10346 0
M  V30 23019 H 2110.69 -0.671065 2.96193 0
M  V30 23020 H 2108.28 -0.265709 1.47018 0
M  V30 23021 H 2110.16 -3.12043 2.83208 0
M  V30 23022 H 2108.83 -2.75963 1.69192 0
M  V30 23023 H 2107.74 -1.31366 3.50277 0
M  V30 23024 H 2109.07 -1.74679 4.60161 0
M  V30 23025 N 2110.73 -1.54276 -0.321972 0
M  V30 23026 C 2111.95 -1.76523 -1.07923 0
M  V30 23027 C 2112.37 -0.514589 -1.81652 0
M  V30 23028 O 2111.73 0.514775 -1.75089 0
M  V30 23029 C 2111.78 -2.95941 -2.07609 0
M  V30 23030 O 2111.5 -4.1617 -1.36874 0
M  V30 23031 C 2113 -3.30411 -2.95539 0
M  V30 23032 H 2110.22 -0.589261 -0.320956 0
M  V30 23033 H 2112.76 -2.01169 -0.367616 0
M  V30 23034 H 2110.92 -2.73564 -2.74302 0
M  V30 23035 H 2111.33 -4.83352 -2.03644 0
M  V30 23036 H 2112.81 -4.17265 -3.61378 0
M  V30 23037 H 2113.28 -2.47647 -3.62723 0
M  V30 23038 H 2113.89 -3.54872 -2.34405 0
M  V30 23039 N 2112.2 0.584116 -1.46376 0
M  V30 23040 C 2113.15 1.71437 -1.57201 0
M  V30 23041 C 2114.15 1.6357 -0.440579 0
M  V30 23042 O 2115.35 1.6908 -0.617397 0
M  V30 23043 H 2111.73 0.56679 -0.49422 0
M  V30 23044 H 2113.7 1.59438 -2.52234 0
M  V30 23045 C 2112.45 3.09824 -1.57812 0
M  V30 23046 H 2111.77 3.16547 -2.44209 0
M  V30 23047 H 2113.21 3.88672 -1.69441 0
M  V30 23048 C 2111.67 3.35503 -0.306515 0
M  V30 23049 O 2112.2 3.97136 0.60384 0
M  V30 23050 N 2110.41 2.89946 -0.194866 0
M  V30 23051 H 2109.95 2.39971 -0.936579 0
M  V30 23052 H 2109.91 3.075 0.655069 0
M  V30 23053 N 2113.68 1.34058 0.828631 0
M  V30 23054 C 2114.63 1.25159 1.96056 0
M  V30 23055 C 2115.63 0.150843 1.68727 0
M  V30 23056 O 2116.83 0.315456 1.77214 0
M  V30 23057 H 2113.21 0.388669 0.643771 0
M  V30 23058 H 2115.18 2.20835 2.00685 0
M  V30 23059 C 2113.93 1.0181 3.32461 0
M  V30 23060 H 2113.25 1.8574 3.54035 0
M  V30 23061 H 2114.69 0.996172 4.12132 0
M  V30 23062 C 2113.15 -0.278758 3.35745 0
M  V30 23063 O 2113.68 -1.28204 3.80692 0
M  V30 23064 N 2111.88 -0.309877 2.88943 0
M  V30 23065 H 2111.43 0.507134 2.52559 0
M  V30 23066 H 2111.39 -1.17737 2.91523 0
M  V30 23067 N 2115.16 -1.04814 1.17694 0
M  V30 23068 C 2116.41 -1.78147 0.969105 0
M  V30 23069 C 2116.74 -1.87634 -0.500715 0
M  V30 23070 O 2116.02 -1.37892 -1.37172 0
M  V30 23071 C 2116.3 -3.2183 1.61548 0
M  V30 23072 C 2116.15 -3.20332 3.15765 0
M  V30 23073 C 2117.47 -4.19759 1.32251 0
M  V30 23074 H 2114.59 -0.646701 0.353479 0
M  V30 23075 H 2117.23 -1.22485 1.45249 0
M  V30 23076 H 2115.38 -3.69358 1.20445 0
M  V30 23077 H 2117.05 -2.8085 3.65952 0
M  V30 23078 H 2115.3 -2.58568 3.48318 0
M  V30 23079 H 2115.97 -4.21759 3.56123 0
M  V30 23080 H 2118.44 -3.80743 1.67851 0
M  V30 23081 H 2117.32 -5.18527 1.80057 0
M  V30 23082 H 2117.58 -4.41426 0.244002 0
M  V30 23083 N 2116.64 -0.977779 -1.23601 0
M  V30 23084 C 2117.87 -0.662189 -1.957 0
M  V30 23085 C 2118.28 0.77446 -1.72623 0
M  V30 23086 O 2117.62 1.53247 -1.01297 0
M  V30 23087 C 2117.68 -0.869464 -3.48827 0
M  V30 23088 C 2117.35 -2.28768 -3.95619 0
M  V30 23089 C 2118.34 -3.26617 -4.04497 0
M  V30 23090 C 2116.03 -2.61807 -4.28675 0
M  V30 23091 C 2118.02 -4.55586 -4.45781 0
M  V30 23092 C 2115.71 -3.91 -4.69641 0
M  V30 23093 C 2116.71 -4.87701 -4.7816 0
M  V30 23094 O 2116.4 -6.14587 -5.18206 0
M  V30 23095 H 2116.13 -0.245256 -0.629941 0
M  V30 23096 H 2118.68 -1.31105 -1.58116 0
M  V30 23097 H 2116.91 -0.163432 -3.86354 0
M  V30 23098 H 2118.6 -0.551434 -4.02137 0
M  V30 23099 H 2119.37 -3.02422 -3.79165 0
M  V30 23100 H 2115.25 -1.87252 -4.21257 0
M  V30 23101 H 2118.79 -5.31065 -4.52345 0
M  V30 23102 H 2114.69 -4.14991 -4.94422 0
M  V30 23103 H 2115.45 -6.18301 -5.36326 0
M  V30 23104 N 2118.12 1.38658 -0.749111 0
M  V30 23105 C 2119.06 2.30496 -0.118423 0
M  V30 23106 C 2120.03 1.49947 0.714492 0
M  V30 23107 O 2121.22 1.78591 0.671546 0
M  V30 23108 C 2118.36 3.3635 0.772186 0
M  V30 23109 C 2117.47 4.31935 -0.0748716 0
M  V30 23110 C 2116.61 5.24859 0.818323 0
M  V30 23111 C 2115.65 6.12091 -0.0326386 0
M  V30 23112 N 2114.78 6.97327 0.817267 0
M  V30 23113 H 2119.62 2.83856 -0.90718 0
M  V30 23114 H 2117.16 1.39755 -0.459001 0
M  V30 23115 H 2119.12 3.96326 1.30313 0
M  V30 23116 H 2117.75 2.84411 1.52677 0
M  V30 23117 H 2116.8 3.73458 -0.723395 0
M  V30 23118 H 2118.11 4.93396 -0.732237 0
M  V30 23119 H 2117.27 5.8993 1.4166 0
M  V30 23120 H 2116.01 4.63754 1.50943 0
M  V30 23121 H 2115.01 5.4602 -0.643614 0
M  V30 23122 H 2116.24 6.75264 -0.720742 0
M  V30 23123 H 2114.18 6.38775 1.49341 0
M  V30 23124 H 2114.1 7.55689 0.216698 0
M  V30 23125 H 2115.37 7.66813 1.40066 0
M  V30 23126 N 2119.6 0.497834 1.49531 0
M  V30 23127 C 2120.54 -0.282279 2.29067 0
M  V30 23128 C 2121.51 -0.963221 1.35319 0
M  V30 23129 O 2122.7 -0.970497 1.64274 0
M  V30 23130 C 2119.84 -1.34265 3.1791 0
M  V30 23131 C 2118.95 -0.673799 4.26713 0
M  V30 23132 C 2118.09 -1.71434 5.02776 0
M  V30 23133 C 2117.12 -1.02719 6.0342 0
M  V30 23134 N 2116.26 -2.01178 6.7266 0
M  V30 23135 H 2121.1 0.402227 2.95273 0
M  V30 23136 H 2118.64 0.210203 1.4559 0
M  V30 23137 H 2120.6 -1.96938 3.67792 0
M  V30 23138 H 2119.23 -1.99596 2.53695 0
M  V30 23139 H 2118.28 0.0661428 3.80342 0
M  V30 23140 H 2119.59 -0.132722 4.98623 0
M  V30 23141 H 2118.74 -2.4162 5.56511 0
M  V30 23142 H 2117.48 -2.28926 4.30632 0
M  V30 23143 H 2116.49 -0.311083 5.48919 0
M  V30 23144 H 2117.71 -0.458799 6.77548 0
M  V30 23145 H 2115.66 -2.57639 6.0329 0
M  V30 23146 H 2115.58 -1.52128 7.40536 0
M  V30 23147 H 2116.84 -2.70663 7.31001 0
M  V30 23148 N 2121.07 -1.5589 0.231532 0
M  V30 23149 C 2122.02 -2.1737 -0.68805 0
M  V30 23150 C 2123.01 -1.12497 -1.15036 0
M  V30 23151 O 2124.2 -1.38455 -1.10269 0
M  V30 23152 C 2121.33 -2.86487 -1.89156 0
M  V30 23153 C 2120.41 -3.98598 -1.44847 0
M  V30 23154 N 2120.81 -5.00669 -0.718604 0
M  V30 23155 C 2119.1 -4.1087 -1.73498 0
M  V30 23156 C 2119.8 -5.79622 -0.491271 0
M  V30 23157 N 2118.78 -5.33344 -1.05094 0
M  V30 23158 H 2122.58 -2.93646 -0.122095 0
M  V30 23159 H 2120.1 -1.62366 0.0332002 0
M  V30 23160 H 2122.09 -3.2895 -2.5612 0
M  V30 23161 H 2120.75 -2.1171 -2.46189 0
M  V30 23162 H 2121.76 -5.16575 -0.370268 0
M  V30 23163 H 2118.44 -3.47253 -2.31779 0
M  V30 23164 H 2119.83 -6.71839 0.0903336 0
M  V30 23165 N 2122.55 0.0417572 -1.57545 0
M  V30 23166 C 2123.97 0.397174 -1.54579 0
M  V30 23167 C 2124.17 1.77381 -0.955943 0
M  V30 23168 O 2123.22 2.45948 -0.571457 0
M  V30 23169 C 2124.54 0.310665 -2.99091 0
M  V30 23170 C 2126.08 0.388675 -3.10577 0
M  V30 23171 C 2126.56 0.331754 -4.56797 0
M  V30 23172 N 2128.05 0.390933 -4.61547 0
M  V30 23173 C 2128.79 0.36958 -5.72208 0
M  V30 23174 N 2128.28 0.301264 -6.92145 0
M  V30 23175 N 2130.07 0.41837 -5.60541 0
M  V30 23176 H 2122.23 -0.859292 -1.94242 0
M  V30 23177 H 2124.49 -0.325513 -0.890362 0
M  V30 23178 H 2124.19 -0.634841 -3.45923 0
M  V30 23179 H 2124.07 1.10929 -3.6052 0
M  V30 23180 H 2126.46 1.32461 -2.63701 0
M  V30 23181 H 2126.54 -0.439073 -2.52004 0
M  V30 23182 H 2126.18 -0.60046 -5.04338 0
M  V30 23183 H 2126.11 1.17744 -5.13268 0
M  V30 23184 H 2128.6 0.44676 -3.7525 0
M  V30 23185 H 2128.91 0.289723 -7.72257 0
M  V30 23186 H 2127.26 0.2675 -6.94485 0
M  V30 23187 H 2130.45 0.469643 -4.65738 0
M  V30 23188 H 2130.62 0.398261 -6.46775 0
M  V30 23189 N 2124.03 1.54445 0.313786 0
M  V30 23190 C 2125.28 1.72328 1.04814 0
M  V30 23191 C 2125.59 0.509186 1.88856 0
M  V30 23192 O 2126.8 0.569563 2.65459 0
M  V30 23193 C 2125.25 3.04843 1.91309 0
M  V30 23194 C 2124.86 4.33689 1.12331 0
M  V30 23195 C 2126.61 3.32087 2.6442 0
M  V30 23196 C 2124.51 5.5726 1.98028 0
M  V30 23197 H 2123.44 0.642234 0.395033 0
M  V30 23198 H 2126.09 1.80934 0.305823 0
M  V30 23199 H 2124.48 2.90169 2.69477 0
M  V30 23200 H 2125.65 4.59158 0.388648 0
M  V30 23201 H 2123.96 4.13283 0.508577 0
M  V30 23202 H 2126.56 4.21607 3.28864 0
M  V30 23203 H 2126.9 2.50397 3.32577 0
M  V30 23204 H 2127.44 3.47673 1.93308 0
M  V30 23205 H 2124.18 6.41581 1.34364 0
M  V30 23206 H 2123.7 5.35995 2.69201 0
M  V30 23207 H 2125.38 5.94035 2.56382 0
M  V30 23208 N 2125.51 -0.576345 1.46683 0
M  V30 23209 C 2126.44 -1.69505 1.60594 0
M  V30 23210 C 2127.42 -1.63873 0.456022 0
M  V30 23211 O 2128.6 -1.81791 0.683045 0
M  V30 23212 C 2125.73 -3.08148 1.60194 0
M  V30 23213 C 2124.69 -3.28615 2.7422 0
M  V30 23214 C 2124.01 -4.6785 2.58884 0
M  V30 23215 C 2125.31 -3.15834 4.15989 0
M  V30 23216 H 2127.01 -1.58119 2.54241 0
M  V30 23217 H 2124.55 -0.759271 1.22356 0
M  V30 23218 H 2126.51 -3.86237 1.68519 0
M  V30 23219 H 2125.23 -3.20447 0.630952 0
M  V30 23220 H 2123.89 -2.52927 2.65375 0
M  V30 23221 H 2123.54 -4.76923 1.59854 0
M  V30 23222 H 2123.24 -4.82495 3.35368 0
M  V30 23223 H 2124.76 -5.48099 2.69109 0
M  V30 23224 H 2126.18 -3.83761 4.25911 0
M  V30 23225 H 2124.57 -3.41998 4.9311 0
M  V30 23226 H 2125.64 -2.12828 4.35698 0
M  V30 23227 N 2126.99 -1.34495 -0.82151 0
M  V30 23228 C 2127.93 -1.26188 -1.93249 0
M  V30 23229 C 2128.9 -0.136822 -1.65536 0
M  V30 23230 O 2130.09 -0.318035 -1.88131 0
M  V30 23231 C 2127.23 -1.02467 -3.29537 0
M  V30 23232 C 2126.34 -2.2376 -3.69534 0
M  V30 23233 C 2125.48 -1.93311 -4.94777 0
M  V30 23234 C 2124.51 -3.10739 -5.27359 0
M  V30 23235 N 2123.65 -2.80164 -6.4378 0
M  V30 23236 H 2128.49 -2.21199 -1.99687 0
M  V30 23237 H 2126.03 -1.09974 -0.976936 0
M  V30 23238 H 2127.99 -0.867518 -4.08081 0
M  V30 23239 H 2126.62 -0.111236 -3.22608 0
M  V30 23240 H 2125.67 -2.50391 -2.86371 0
M  V30 23241 H 2126.98 -3.11491 -3.89583 0
M  V30 23242 H 2126.13 -1.7434 -5.81112 0
M  V30 23243 H 2124.87 -1.02842 -4.76733 0
M  V30 23244 H 2123.88 -3.30304 -4.39521 0
M  V30 23245 H 2125.1 -4.01988 -5.47341 0
M  V30 23246 H 2123.05 -1.92273 -6.2719 0
M  V30 23247 H 2122.97 -3.61428 -6.64007 0
M  V30 23248 H 2124.23 -2.647 -7.33181 0
M  V30 23249 N 2128.46 1.04188 -1.18248 0
M  V30 23250 C 2129.71 1.76764 -0.971464 0
M  V30 23251 C 2130.03 1.89102 0.49997 0
M  V30 23252 O 2131.23 2.58519 0.829468 0
M  V30 23253 C 2129.69 3.17801 -1.68909 0
M  V30 23254 C 2129.3 3.1356 -3.19975 0
M  V30 23255 C 2131.04 3.94763 -1.56084 0
M  V30 23256 C 2128.95 4.49449 -3.84382 0
M  V30 23257 H 2127.88 0.662591 -0.359847 0
M  V30 23258 H 2130.53 1.16702 -1.41608 0
M  V30 23259 H 2128.91 3.78252 -1.17224 0
M  V30 23260 H 2130.08 2.62568 -3.78675 0
M  V30 23261 H 2128.4 2.50097 -3.32927 0
M  V30 23262 H 2131 4.95253 -2.01566 0
M  V30 23263 H 2131.34 4.13128 -0.512919 0
M  V30 23264 H 2131.87 3.40885 -2.05043 0
M  V30 23265 H 2128.61 4.36289 -4.89216 0
M  V30 23266 H 2128.13 5.00549 -3.3047 0
M  V30 23267 H 2129.81 5.18367 -3.87175 0
M  V30 23268 N 2129.94 0.98432 1.23081 0
M  V30 23269 C 2131.17 0.672559 1.95346 0
M  V30 23270 C 2131.58 -0.765295 1.73031 0
M  V30 23271 O 2130.92 -1.52708 1.02108 0
M  V30 23272 C 2130.99 0.887951 3.48361 0
M  V30 23273 C 2130.65 2.30863 3.944 0
M  V30 23274 C 2131.65 3.28757 4.02759 0
M  V30 23275 C 2129.33 2.64077 4.27281 0
M  V30 23276 C 2131.33 4.57943 4.43358 0
M  V30 23277 C 2129.01 3.93485 4.67561 0
M  V30 23278 C 2130.01 4.9023 4.75567 0
M  V30 23279 O 2129.7 6.17327 5.1494 0
M  V30 23280 H 2129.43 0.248593 0.628631 0
M  V30 23281 H 2131.98 1.31942 1.57418 0
M  V30 23282 H 2130.21 0.183919 3.86262 0
M  V30 23283 H 2131.9 0.572752 4.01839 0
M  V30 23284 H 2132.67 3.04428 3.77556 0
M  V30 23285 H 2128.55 1.89483 4.20258 0
M  V30 23286 H 2132.09 5.33456 4.49522 0
M  V30 23287 H 2127.99 4.17607 4.92214 0
M  V30 23288 H 2128.76 6.21137 5.3304 0
M  V30 23289 N 2131.42 -1.38259 0.756453 0
M  V30 23290 C 2132.37 -2.27752 0.10629 0
M  V30 23291 C 2133.35 -1.45343 -0.690231 0
M  V30 23292 O 2134.55 -1.6805 -0.555715 0
M  V30 23293 C 2131.68 -3.34231 -0.783865 0
M  V30 23294 C 2130.76 -4.24095 0.0196592 0
M  V30 23295 N 2131.15 -4.94621 1.05753 0
M  V30 23296 C 2129.45 -4.45521 -0.206711 0
M  V30 23297 C 2130.15 -5.60837 1.54393 0
M  V30 23298 N 2129.13 -5.36774 0.85873 0
M  V30 23299 H 2132.93 -2.79744 0.901144 0
M  V30 23300 H 2130.44 -1.51195 0.592764 0
M  V30 23301 H 2132.44 -3.97235 -1.26529 0
M  V30 23302 H 2131.1 -2.83797 -1.57764 0
M  V30 23303 H 2132.11 -4.97496 1.43938 0
M  V30 23304 H 2128.79 -4.05989 -0.973599 0
M  V30 23305 H 2130.18 -6.27245 2.4086 0
M  V30 23306 N 2132.9 -0.505757 -1.49264 0
M  V30 23307 C 2133.83 0.259368 -2.32055 0
M  V30 23308 C 2134.81 0.95808 -1.40552 0
M  V30 23309 O 2135.99 0.948562 -1.69458 0
M  V30 23310 C 2133.12 1.32138 -3.2118 0
M  V30 23311 C 2132.08 0.742267 -4.21514 0
M  V30 23312 C 2131.4 1.90515 -4.99608 0
M  V30 23313 C 2132.7 -0.269866 -5.21602 0
M  V30 23314 H 2134.4 -0.431697 -2.96271 0
M  V30 23315 H 2131.94 -0.209055 -1.42474 0
M  V30 23316 H 2133.9 1.86441 -3.77912 0
M  V30 23317 H 2132.62 2.0417 -2.54916 0
M  V30 23318 H 2131.28 0.220956 -3.65934 0
M  V30 23319 H 2130.93 2.61327 -4.29788 0
M  V30 23320 H 2130.63 1.52371 -5.67501 0
M  V30 23321 H 2132.15 2.45242 -5.59186 0
M  V30 23322 H 2133.57 0.18519 -5.73001 0
M  V30 23323 H 2131.96 -0.567397 -5.97412 0
M  V30 23324 H 2133.03 -1.18411 -4.7022 0
M  V30 23325 N 2134.38 1.55765 -0.239796 0
M  V30 23326 C 2135.62 1.98769 0.386916 0
M  V30 23327 C 2135.95 1.12781 1.58464 0
M  V30 23328 O 2135.21 0.176954 1.94898 0
M  V30 23329 C 2135.51 3.4722 0.846952 0
M  V30 23330 C 2135.17 4.50249 -0.242234 0
M  V30 23331 C 2133.83 4.78145 -0.541395 0
M  V30 23332 C 2136.19 5.11943 -0.977925 0
M  V30 23333 C 2133.51 5.65012 -1.58045 0
M  V30 23334 C 2135.87 5.99937 -2.00644 0
M  V30 23335 C 2134.53 6.26169 -2.31233 0
M  V30 23336 H 2133.8 0.727348 0.141583 0
M  V30 23337 H 2136.45 1.88346 -0.346135 0
M  V30 23338 H 2134.75 3.54939 1.65908 0
M  V30 23339 H 2136.45 3.77877 1.34201 0
M  V30 23340 H 2133.04 4.286 0.00107931 0
M  V30 23341 H 2137.22 4.90446 -0.76005 0
M  V30 23342 H 2132.48 5.83594 -1.82286 0
M  V30 23343 H 2136.65 6.46787 -2.58146 0
M  V30 23344 H 2134.28 6.93276 -3.11886 0
M  V30 23345 N 2135.85 -0.0334016 1.57565 0
M  V30 23346 C 2137.1 -0.726157 1.89354 0
M  V30 23347 C 2137.43 -1.75237 0.837002 0
M  V30 23348 O 2136.71 -1.93933 -0.148452 0
M  V30 23349 C 2136.99 -1.39963 3.31787 0
M  V30 23350 C 2136.84 -0.387227 4.4813 0
M  V30 23351 C 2138.16 -2.33475 3.73065 0
M  V30 23352 H 2135.28 -0.262518 0.688661 0
M  V30 23353 H 2137.92 0.0110285 1.89997 0
M  V30 23354 H 2136.07 -2.02797 3.31369 0
M  V30 23355 H 2137.75 0.238867 4.60681 0
M  V30 23356 H 2135.99 0.293911 4.32803 0
M  V30 23357 H 2136.66 -0.896846 5.44666 0
M  V30 23358 H 2139.14 -1.80688 3.74822 0
M  V30 23359 H 2138.01 -2.7758 4.73541 0
M  V30 23360 H 2138.27 -3.19962 3.05085 0
M  V30 23361 N 2137.33 -1.54609 -0.305591 0
M  V30 23362 C 2138.56 -1.77981 -1.06479 0
M  V30 23363 C 2138.98 -0.535455 -1.80318 0
M  V30 23364 O 2138.34 0.513813 -1.73867 0
M  V30 23365 C 2138.39 -2.984 -2.0246 0
M  V30 23366 O 2137.49 -2.71203 -3.10681 0
M  V30 23367 H 2136.83 -0.589228 -0.306114 0
M  V30 23368 H 2139.36 -2.0168 -0.344411 0
M  V30 23369 H 2139.37 -3.26244 -2.45008 0
M  V30 23370 H 2138.05 -3.8863 -1.48121 0
M  V30 23371 H 2136.63 -2.54362 -2.7268 0
M  V30 23372 N 2138.81 0.568558 -1.46987 0
M  V30 23373 C 2139.74 1.68651 -1.61491 0
M  V30 23374 C 2140.72 1.63629 -0.464706 0
M  V30 23375 O 2141.91 1.81427 -0.692676 0
M  V30 23376 C 2139.04 3.07294 -1.61826 0
M  V30 23377 C 2137.99 3.27156 -2.75959 0
M  V30 23378 C 2137.32 4.6647 -2.61361 0
M  V30 23379 C 2138.62 3.13623 -4.17658 0
M  V30 23380 H 2140.31 1.56769 -2.55076 0
M  V30 23381 H 2137.86 0.752771 -1.22757 0
M  V30 23382 H 2139.81 3.85338 -1.70565 0
M  V30 23383 H 2138.53 3.20108 -0.647937 0
M  V30 23384 H 2137.19 2.51516 -2.66712 0
M  V30 23385 H 2136.84 4.76069 -1.62381 0
M  V30 23386 H 2136.54 4.8071 -3.37923 0
M  V30 23387 H 2138.06 5.46664 -2.72012 0
M  V30 23388 H 2139.48 3.81497 -4.27941 0
M  V30 23389 H 2137.88 3.39378 -4.94917 0
M  V30 23390 H 2138.95 2.10514 -4.3682 0
M  V30 23391 N 2140.29 1.34929 0.814366 0
M  V30 23392 C 2141.22 1.29866 1.94055 0
M  V30 23393 C 2142.2 0.174504 1.69203 0
M  V30 23394 O 2143.38 0.368232 1.90677 0
M  V30 23395 C 2140.51 1.06201 3.30664 0
M  V30 23396 C 2139.47 2.15174 3.69978 0
M  V30 23397 C 2138.79 1.76686 5.04664 0
M  V30 23398 C 2140.09 3.57077 3.81174 0
M  V30 23399 H 2141.79 2.24095 1.98549 0
M  V30 23400 H 2139.33 1.07877 0.953865 0
M  V30 23401 H 2141.29 1.01301 4.09043 0
M  V30 23402 H 2140.01 0.0841549 3.26492 0
M  V30 23403 H 2138.67 2.19158 2.9388 0
M  V30 23404 H 2138.32 0.775388 4.96988 0
M  V30 23405 H 2138.02 2.49628 5.3194 0
M  V30 23406 H 2139.54 1.73297 5.85492 0
M  V30 23407 H 2140.96 3.55458 4.49803 0
M  V30 23408 H 2139.35 4.28713 4.19911 0
M  V30 23409 H 2140.42 3.93795 2.82937 0
M  V30 23410 N 2141.77 -1.0356 1.18799 0
M  V30 23411 C 2142.7 -2.13602 0.943213 0
M  V30 23412 C 2143.68 -1.69669 -0.120965 0
M  V30 23413 O 2144.86 -1.94173 0.0326748 0
M  V30 23414 C 2141.99 -3.44054 0.473716 0
M  V30 23415 C 2140.95 -4.01635 1.47896 0
M  V30 23416 C 2140.27 -5.27628 0.866789 0
M  V30 23417 C 2141.57 -4.3722 2.8572 0
M  V30 23418 H 2143.27 -2.34336 1.86351 0
M  V30 23419 H 2140.81 -1.12617 0.897406 0
M  V30 23420 H 2142.77 -4.20402 0.289804 0
M  V30 23421 H 2141.49 -3.23021 -0.482167 0
M  V30 23422 H 2140.15 -3.27374 1.6499 0
M  V30 23423 H 2139.8 -5.02908 -0.0964386 0
M  V30 23424 H 2139.5 -5.67115 1.53799 0
M  V30 23425 H 2141.02 -6.06649 0.693523 0
M  V30 23426 H 2142.43 -5.04533 2.72248 0
M  V30 23427 H 2140.83 -4.87771 3.49571 0
M  V30 23428 H 2141.9 -3.46821 3.38885 0
M  V30 23429 N 2143.25 -0.990834 -1.22557 0
M  V30 23430 C 2144.19 -0.539382 -2.24409 0
M  V30 23431 C 2145.16 0.427199 -1.60512 0
M  V30 23432 O 2146.35 0.332419 -1.87882 0
M  V30 23433 C 2143.49 0.141857 -3.44808 0
M  V30 23434 C 2142.6 -0.86622 -4.23226 0
M  V30 23435 C 2141.74 -0.158712 -5.30963 0
M  V30 23436 C 2140.77 -1.1553 -6.01098 0
M  V30 23437 N 2139.91 -0.476237 -7.00483 0
M  V30 23438 H 2144.75 -1.41266 -2.62389 0
M  V30 23439 H 2142.29 -0.707664 -1.28959 0
M  V30 23440 H 2144.25 0.553728 -4.13509 0
M  V30 23441 H 2142.88 0.978941 -3.07598 0
M  V30 23442 H 2141.93 -1.39642 -3.53842 0
M  V30 23443 H 2143.24 -1.62521 -4.71581 0
M  V30 23444 H 2142.39 0.309995 -6.05908 0
M  V30 23445 H 2141.13 0.632794 -4.83577 0
M  V30 23446 H 2140.14 -1.63465 -5.24937 0
M  V30 23447 H 2141.36 -1.94764 -6.50572 0
M  V30 23448 H 2139.31 0.295871 -6.55332 0
M  V30 23449 H 2139.23 -1.1737 -7.46833 0
M  V30 23450 H 2140.49 -0.0302638 -7.79494 0
M  V30 23451 N 2144.72 1.37856 -0.763775 0
M  V30 23452 C 2146 1.94001 -0.249566 0
M  V30 23453 C 2146.38 1.69818 1.254 0
M  V30 23454 O 2145.73 1.04245 2.03335 0
M  V30 23455 C 2145.94 3.43551 -0.614299 0
M  V30 23456 C 2147.29 4.20625 -0.579627 0
M  V30 23457 O 2148.31 3.51878 -0.553206 0
M  V30 23458 O 2147.17 5.43201 -0.599606 0
M  V30 23459 H 2144.26 0.825148 -0.055317 0
M  V30 23460 H 2146.81 1.4719 -0.844588 0
M  V30 23461 H 2145.58 3.54703 -1.65231 0
M  V30 23462 H 2145.2 3.97599 0.00819535 0
M  V30 23463 N 2146.2 0.513665 1.48994 0
M  V30 23464 C 2147.45 -0.0282469 2.0168 0
M  V30 23465 C 2147.76 -1.36865 1.3974 0
M  V30 23466 O 2148.97 -1.99799 1.83828 0
M  V30 23467 C 2147.43 -0.100776 3.59759 0
M  V30 23468 C 2147.03 1.23375 4.30677 0
M  V30 23469 C 2148.78 -0.592381 4.20346 0
M  V30 23470 C 2146.68 1.12269 5.80646 0
M  V30 23471 H 2145.61 -0.0143288 0.753864 0
M  V30 23472 H 2148.27 0.654994 1.71412 0
M  V30 23473 H 2146.65 -0.848743 3.86798 0
M  V30 23474 H 2147.82 1.996 4.15327 0
M  V30 23475 H 2146.14 1.65979 3.8189 0
M  V30 23476 H 2148.73 -0.69318 5.30188 0
M  V30 23477 H 2149.08 -1.59429 3.84562 0
M  V30 23478 H 2149.61 0.0994202 3.97676 0
M  V30 23479 H 2146.35 2.09925 6.20976 0
M  V30 23480 H 2145.87 0.401536 5.98454 0
M  V30 23481 H 2147.55 0.806614 6.41952 0
M  V30 23482 N 2147.68 -1.55636 0.248053 0
M  V30 23483 C 2148.63 -2.21428 -0.651012 0
M  V30 23484 C 2149.6 -1.17855 -1.17045 0
M  V30 23485 O 2150.78 -1.46306 -1.22471 0
M  V30 23486 C 2147.92 -2.91846 -1.84174 0
M  V30 23487 C 2147.03 -4.10077 -1.35872 0
M  V30 23488 C 2146.17 -4.68207 -2.50909 0
M  V30 23489 C 2145.21 -5.78685 -1.99475 0
M  V30 23490 N 2144.35 -6.30993 -3.07883 0
M  V30 23491 H 2149.19 -2.97884 -0.0832758 0
M  V30 23492 H 2146.72 -1.47071 -0.0293424 0
M  V30 23493 H 2148.68 -3.30873 -2.54124 0
M  V30 23494 H 2147.31 -2.17862 -2.38193 0
M  V30 23495 H 2146.36 -3.76356 -0.553219 0
M  V30 23496 H 2147.67 -4.89829 -0.941776 0
M  V30 23497 H 2146.83 -5.09814 -3.28899 0
M  V30 23498 H 2145.57 -3.87674 -2.95905 0
M  V30 23499 H 2144.57 -5.36555 -1.19955 0
M  V30 23500 H 2145.8 -6.6107 -1.55447 0
M  V30 23501 H 2143.74 -5.53365 -3.52312 0
M  V30 23502 H 2143.66 -7.05941 -2.70523 0
M  V30 23503 H 2144.93 -6.77258 -3.8593 0
M  V30 23504 N 2149.16 0.0250451 -1.5758 0
M  V30 23505 C 2150.38 0.730408 -1.94113 0
M  V30 23506 C 2150.81 1.67882 -0.848362 0
M  V30 23507 O 2150.17 1.80242 0.195596 0
M  V30 23508 C 2150.21 1.46014 -3.29715 0
M  V30 23509 O 2149.32 2.57351 -3.22249 0
M  V30 23510 H 2148.66 0.196157 -0.634365 0
M  V30 23511 H 2151.19 -0.0206802 -2.0459 0
M  V30 23512 H 2151.2 1.82917 -3.64699 0
M  V30 23513 H 2149.87 0.764593 -4.08811 0
M  V30 23514 H 2148.45 2.22961 -2.98903 0
M  V30 23515 N 2150.64 1.54769 0.297388 0
M  V30 23516 C 2151.88 1.73877 1.0301 0
M  V30 23517 C 2152.2 0.529442 1.87675 0
M  V30 23518 O 2151.47 -0.456215 1.90514 0
M  V30 23519 H 2150.05 0.641155 0.383313 0
M  V30 23520 H 2152.72 1.92129 0.3275 0
M  V30 23521 H 2151.81 2.62953 1.68113 0
M  V30 23522 N 2152.11 -0.560755 1.47286 0
M  V30 23523 C 2153.04 -1.67792 1.62383 0
M  V30 23524 C 2154.02 -1.6338 0.473377 0
M  V30 23525 O 2155.21 -1.81057 0.702288 0
M  V30 23526 C 2152.34 -3.06431 1.63454 0
M  V30 23527 C 2151.29 -3.25688 2.7769 0
M  V30 23528 C 2150.62 -4.65078 2.63831 0
M  V30 23529 C 2151.92 -3.11404 4.19315 0
M  V30 23530 H 2153.61 -1.55414 2.55904 0
M  V30 23531 H 2151.16 -0.746251 1.23155 0
M  V30 23532 H 2153.11 -3.84428 1.72606 0
M  V30 23533 H 2151.84 -3.1976 0.664904 0
M  V30 23534 H 2150.5 -2.50098 2.68042 0
M  V30 23535 H 2150.14 -4.75201 1.64904 0
M  V30 23536 H 2149.84 -4.78911 3.40467 0
M  V30 23537 H 2151.37 -5.45214 2.74907 0
M  V30 23538 H 2152.78 -3.79222 4.29958 0
M  V30 23539 H 2151.18 -3.36749 4.9671 0
M  V30 23540 H 2152.25 -2.08195 4.3793 0
M  V30 23541 N 2153.59 -1.35359 -0.807199 0
M  V30 23542 C 2154.84 -1.28344 -1.56116 0
M  V30 23543 C 2155.16 0.142081 -1.94482 0
M  V30 23544 O 2154.43 1.07837 -1.63548 0
M  V30 23545 H 2153.01 -0.47207 -0.578929 0
M  V30 23546 H 2155.67 -1.69454 -0.962872 0
M  V30 23547 H 2154.77 -1.89889 -2.47686 0
M  V30 23548 N 2155.07 1.02928 -1.19346 0
M  V30 23549 C 2156.32 1.75973 -0.993881 0
M  V30 23550 C 2156.64 1.89088 0.476523 0
M  V30 23551 O 2155.91 1.42417 1.34515 0
M  V30 23552 H 2154.49 0.651893 -0.364753 0
M  V30 23553 H 2157.15 1.24161 -1.50233 0
M  V30 23554 H 2156.25 2.76812 -1.44157 0
M  V30 23555 N 2156.55 0.997319 1.2203 0
M  V30 23556 C 2157.51 0.556352 2.22345 0
M  V30 23557 C 2158.51 -0.363165 1.56645 0
M  V30 23558 O 2159.7 -0.154511 1.73513 0
M  V30 23559 C 2156.83 -0.190172 3.40369 0
M  V30 23560 H 2158.03 1.44355 2.62872 0
M  V30 23561 H 2155.58 0.784999 1.35157 0
M  V30 23562 H 2156.31 -1.09315 3.05321 0
M  V30 23563 H 2156.1 0.470115 3.89272 0
M  V30 23564 H 2157.59 -0.486708 4.14754 0
M  V30 23565 N 2158.03 -1.37449 0.771075 0
M  V30 23566 C 2159.27 -2.0046 0.344602 0
M  V30 23567 C 2159.63 -1.60113 -1.06685 0
M  V30 23568 O 2158.92 -0.836909 -1.72355 0
M  V30 23569 C 2159.11 -3.54862 0.425162 0
M  V30 23570 C 2158.94 -4.10204 1.8429 0
M  V30 23571 C 2157.71 -4.41185 2.46342 0
M  V30 23572 C 2159.91 -4.31249 2.8023 0
M  V30 23573 N 2157.89 -4.82238 3.79895 0
M  V30 23574 C 2159.26 -4.74904 3.98581 0
M  V30 23575 C 2161.32 -4.13381 2.77526 0
M  V30 23576 C 2160.02 -5.02562 5.1461 0
M  V30 23577 C 2162.05 -4.42175 3.92728 0
M  V30 23578 C 2161.41 -4.86069 5.0982 0
M  V30 23579 H 2157.51 -0.762595 0.173129 0
M  V30 23580 H 2160.09 -1.66771 1.00476 0
M  V30 23581 H 2158.26 -3.8786 -0.204817 0
M  V30 23582 H 2160 -4.04693 -0.0233022 0
M  V30 23583 H 2156.75 -4.30241 1.97965 0
M  V30 23584 H 2157.18 -5.07074 4.48558 0
M  V30 23585 H 2161.82 -3.78618 1.88172 0
M  V30 23586 H 2159.54 -5.36215 6.04565 0
M  V30 23587 H 2163.12 -4.29938 3.91975 0
M  V30 23588 H 2162 -5.07922 5.97482 0
M  V30 23589 N 2159.5 -0.52156 -1.4872 0
M  V30 23590 C 2160.47 0.234979 -2.27992 0
M  V30 23591 C 2161.47 0.875433 -1.34881 0
M  V30 23592 O 2162.66 0.736784 -1.57852 0
M  V30 23593 C 2159.79 1.33914 -3.13496 0
M  V30 23594 H 2160.98 -0.460907 -2.96337 0
M  V30 23595 H 2158.54 -0.277206 -1.53822 0
M  V30 23596 H 2159.27 2.06854 -2.49763 0
M  V30 23597 H 2159.06 0.885123 -3.81979 0
M  V30 23598 H 2160.55 1.8715 -3.73316 0
M  V30 23599 N 2160.98 1.55502 -0.256304 0
M  V30 23600 C 2162.23 1.99168 0.365812 0
M  V30 23601 C 2162.56 1.14455 1.57259 0
M  V30 23602 O 2161.81 0.197615 1.947 0
M  V30 23603 C 2162.11 3.48098 0.810077 0
M  V30 23604 C 2161.78 4.49967 -0.289975 0
M  V30 23605 C 2160.44 4.77544 -0.592079 0
M  V30 23606 C 2162.79 5.10877 -1.03217 0
M  V30 23607 C 2160.12 5.63304 -1.64029 0
M  V30 23608 C 2162.47 5.97775 -2.06996 0
M  V30 23609 C 2161.14 6.23681 -2.37861 0
M  V30 23610 H 2160.41 0.728809 0.13386 0
M  V30 23611 H 2163.05 1.87968 -0.366092 0
M  V30 23612 H 2161.36 3.56679 1.62134 0
M  V30 23613 H 2163.05 3.79279 1.30186 0
M  V30 23614 H 2159.64 4.28577 -0.0443795 0
M  V30 23615 H 2163.83 4.89612 -0.812025 0
M  V30 23616 H 2159.08 5.81628 -1.88465 0
M  V30 23617 H 2163.26 6.44013 -2.64992 0
M  V30 23618 H 2160.89 6.89929 -3.19221 0
M  V30 23619 N 2162.46 -0.0166879 1.57591 0
M  V30 23620 C 2163.71 -0.706033 1.90113 0
M  V30 23621 C 2164.04 -1.74339 0.855541 0
M  V30 23622 O 2163.31 -1.94079 -0.127874 0
M  V30 23623 C 2163.6 -1.36436 3.33253 0
M  V30 23624 C 2163.45 -0.339675 4.48516 0
M  V30 23625 C 2164.77 -2.29505 3.7552 0
M  V30 23626 H 2161.89 -0.255199 0.691406 0
M  V30 23627 H 2164.53 0.0311796 1.89974 0
M  V30 23628 H 2162.68 -1.99271 3.33501 0
M  V30 23629 H 2164.35 0.287715 4.60402 0
M  V30 23630 H 2162.6 0.339799 4.32467 0
M  V30 23631 H 2163.27 -0.839026 5.45586 0
M  V30 23632 H 2165.74 -1.76702 3.76717 0
M  V30 23633 H 2164.62 -2.72542 4.76458 0
M  V30 23634 H 2164.88 -3.16708 3.08461 0
M  V30 23635 N 2163.94 -1.54924 -0.289176 0
M  V30 23636 C 2164.87 -1.89696 -1.36153 0
M  V30 23637 C 2165.85 -0.757081 -1.52323 0
M  V30 23638 O 2167.03 -1.01384 -1.65635 0
M  V30 23639 C 2164.16 -2.15468 -2.7238 0
M  V30 23640 C 2163.12 -3.31307 -2.70961 0
M  V30 23641 C 2162.44 -3.42522 -4.10588 0
M  V30 23642 C 2163.74 -4.68117 -2.31655 0
M  V30 23643 H 2165.44 -2.79513 -1.07299 0
M  V30 23644 H 2162.98 -1.34486 -0.514723 0
M  V30 23645 H 2164.94 -2.3838 -3.47495 0
M  V30 23646 H 2163.66 -1.22435 -3.02783 0
M  V30 23647 H 2162.32 -3.08337 -1.98302 0
M  V30 23648 H 2161.97 -2.46985 -4.38187 0
M  V30 23649 H 2161.67 -4.20397 -4.10537 0
M  V30 23650 H 2163.19 -3.67708 -4.87466 0
M  V30 23651 H 2164.61 -4.9068 -2.96489 0
M  V30 23652 H 2163 -5.4879 -2.42796 0
M  V30 23653 H 2164.07 -4.68033 -1.26781 0
M  V30 23654 N 2165.42 0.552936 -1.47582 0
M  V30 23655 C 2166.83 0.879282 -1.33195 0
M  V30 23656 C 2167.03 1.98851 -0.32564 0
M  V30 23657 O 2166.09 2.51144 0.261323 0
M  V30 23658 C 2167.4 1.26848 -2.72635 0
M  V30 23659 C 2168.95 1.37967 -2.80952 0
M  V30 23660 C 2169.42 1.8024 -4.21043 0
M  V30 23661 N 2170.92 1.87383 -4.23606 0
M  V30 23662 C 2171.65 2.2143 -5.2892 0
M  V30 23663 N 2171.15 2.54061 -6.44535 0
M  V30 23664 N 2172.94 2.2224 -5.163 0
M  V30 23665 H 2165.09 -0.179315 -2.11642 0
M  V30 23666 H 2167.35 -0.0175595 -0.947837 0
M  V30 23667 H 2167.06 0.52723 -3.47726 0
M  V30 23668 H 2166.93 2.22371 -3.04682 0
M  V30 23669 H 2169.32 2.11172 -2.06132 0
M  V30 23670 H 2169.4 0.406213 -2.52554 0
M  V30 23671 H 2169.05 1.07603 -4.96371 0
M  V30 23672 H 2168.98 2.78596 -4.46869 0
M  V30 23673 H 2171.47 1.64536 -3.40201 0
M  V30 23674 H 2171.78 2.79079 -7.20649 0
M  V30 23675 H 2170.12 2.51631 -6.47848 0
M  V30 23676 H 2173.32 1.9619 -4.25002 0
M  V30 23677 H 2173.49 2.48444 -5.98481 0
M  V30 23678 N 2166.89 1.35785 0.800009 0
M  V30 23679 C 2168.17 1.19984 1.54477 0
M  V30 23680 C 2168.55 -0.218358 2.09968 0
M  V30 23681 O 2167.9 -1.2227 1.93035 0
M  V30 23682 C 2168.11 2.27325 2.6481 0
M  V30 23683 C 2169.46 2.63463 3.32975 0
M  V30 23684 O 2170.48 2.26288 2.75086 0
M  V30 23685 O 2169.34 3.27408 4.37569 0
M  V30 23686 H 2166.43 0.466534 0.682844 0
M  V30 23687 H 2168.98 1.47486 0.839403 0
M  V30 23688 H 2167.75 3.22418 2.21725 0
M  V30 23689 H 2167.38 2.01129 3.42976 0
M  V30 23690 N 2168.37 -1.02294 1.19891 0
M  V30 23691 C 2169.62 -1.76051 1.00667 0
M  V30 23692 C 2169.95 -1.88654 -0.460802 0
M  V30 23693 O 2169.23 -1.4077 -1.34216 0
M  V30 23694 C 2169.51 -3.18331 1.68338 0
M  V30 23695 C 2169.36 -3.13562 3.22489 0
M  V30 23696 C 2170.68 -4.16859 1.41125 0
M  V30 23697 H 2167.8 -0.639057 0.367117 0
M  V30 23698 H 2170.44 -1.19377 1.47815 0
M  V30 23699 H 2168.59 -3.6672 1.28252 0
M  V30 23700 H 2170.26 -2.73025 3.71827 0
M  V30 23701 H 2168.51 -2.51121 3.53724 0
M  V30 23702 H 2169.18 -4.1411 3.64989 0
M  V30 23703 H 2171.65 -3.77097 1.75889 0
M  V30 23704 H 2170.53 -5.14592 1.91015 0
M  V30 23705 H 2170.79 -4.40809 0.33758 0
M  V30 23706 N 2169.85 -1.00378 -1.21499 0
M  V30 23707 C 2171.1 -0.681173 -1.8985 0
M  V30 23708 C 2171.41 0.791343 -1.78877 0
M  V30 23709 O 2172.62 1.22598 -2.42244 0
M  V30 23710 C 2171.07 -1.1679 -3.40424 0
M  V30 23711 C 2170.68 -2.6664 -3.6001 0
M  V30 23712 C 2172.43 -0.920124 -4.14408 0
M  V30 23713 C 2170.33 -3.0886 -5.04341 0
M  V30 23714 H 2169.26 -0.251086 -0.710965 0
M  V30 23715 H 2171.91 -1.21478 -1.37533 0
M  V30 23716 H 2170.3 -0.562349 -3.91987 0
M  V30 23717 H 2171.47 -3.32634 -3.18891 0
M  V30 23718 H 2169.79 -2.89419 -2.99376 0
M  V30 23719 H 2172.38 -1.21113 -5.20803 0
M  V30 23720 H 2172.73 0.143641 -4.16052 0
M  V30 23721 H 2173.26 -1.4884 -3.68906 0
M  V30 23722 H 2170 -4.14458 -5.07844 0
M  V30 23723 H 2169.52 -2.47577 -5.4632 0
M  V30 23724 H 2171.2 -3.00772 -5.7284 0
M  V30 23725 N 2171.33 1.37038 -0.778354 0
M  V30 23726 C 2172.56 2.03497 -0.356748 0
M  V30 23727 C 2172.97 1.58831 1.02807 0
M  V30 23728 O 2172.31 0.768031 1.66874 0
M  V30 23729 C 2172.37 3.57995 -0.328646 0
M  V30 23730 C 2172.04 4.25818 -1.65916 0
M  V30 23731 C 2173.03 4.49479 -2.61276 0
M  V30 23732 C 2170.72 4.63516 -1.93542 0
M  V30 23733 C 2172.71 5.09903 -3.82463 0
M  V30 23734 C 2170.4 5.2366 -3.14998 0
M  V30 23735 C 2171.4 5.46791 -4.09278 0
M  V30 23736 O 2171.08 6.05676 -5.28594 0
M  V30 23737 H 2170.82 0.659921 -0.146563 0
M  V30 23738 H 2173.37 1.76221 -1.05523 0
M  V30 23739 H 2171.6 3.84343 0.42626 0
M  V30 23740 H 2173.29 4.05845 0.0667865 0
M  V30 23741 H 2174.06 4.20761 -2.41216 0
M  V30 23742 H 2169.93 4.44842 -1.20983 0
M  V30 23743 H 2173.48 5.27874 -4.56064 0
M  V30 23744 H 2169.38 5.51802 -3.3494 0
M  V30 23745 H 2170.14 6.2415 -5.29508 0
M  V30 23746 N 2172.81 0.529439 1.48441 0
M  V30 23747 C 2174.04 -0.000824174 2.069 0
M  V30 23748 C 2174.45 -1.28195 1.38605 0
M  V30 23749 O 2173.81 -1.76253 0.4734 0
M  V30 23750 C 2173.86 -0.229032 3.60774 0
M  V30 23751 O 2173.58 1.00134 4.26503 0
M  V30 23752 C 2175.08 -0.799736 4.36027 0
M  V30 23753 H 2172.3 0.0332691 0.670175 0
M  V30 23754 H 2174.84 0.734929 1.90838 0
M  V30 23755 H 2173 -0.914832 3.76443 0
M  V30 23756 H 2173.41 0.781737 5.18642 0
M  V30 23757 H 2174.89 -0.908842 5.44467 0
M  V30 23758 H 2175.36 -1.8045 4.00418 0
M  V30 23759 H 2175.97 -0.150518 4.25034 0
M  V30 23760 N 2174.29 -1.55364 0.264547 0
M  V30 23761 C 2175.22 -2.25081 -0.621337 0
M  V30 23762 C 2176.2 -1.23722 -1.16734 0
M  V30 23763 O 2177.38 -1.52418 -1.20343 0
M  V30 23764 C 2174.51 -2.96382 -1.81038 0
M  V30 23765 C 2173.47 -4.0458 -1.39638 0
M  V30 23766 C 2172.79 -4.63399 -2.66768 0
M  V30 23767 C 2174.09 -5.1935 -0.554378 0
M  V30 23768 H 2175.79 -2.99373 -0.0399448 0
M  V30 23769 H 2173.33 -1.43989 -0.0177721 0
M  V30 23770 H 2175.28 -3.43862 -2.43592 0
M  V30 23771 H 2174.01 -2.19608 -2.41744 0
M  V30 23772 H 2172.67 -3.57896 -0.794097 0
M  V30 23773 H 2172.32 -3.83305 -3.25709 0
M  V30 23774 H 2172.02 -5.36449 -2.39784 0
M  V30 23775 H 2173.54 -5.13622 -3.30189 0
M  V30 23776 H 2174.95 -5.62946 -1.08465 0
M  V30 23777 H 2173.35 -5.98897 -0.379861 0
M  V30 23778 H 2174.42 -4.82996 0.42934 0
M  V30 23779 N 2175.76 0.00833021 -1.57598 0
M  V30 23780 C 2177.01 0.69406 -1.89382 0
M  V30 23781 C 2177.33 1.75397 -0.865751 0
M  V30 23782 O 2178.53 2.49374 -1.07353 0
M  V30 23783 C 2176.99 1.28562 -3.36154 0
M  V30 23784 C 2176.6 0.260972 -4.47239 0
M  V30 23785 C 2178.34 1.95003 -3.7706 0
M  V30 23786 C 2176.25 0.862051 -5.85083 0
M  V30 23787 H 2175.18 0.262992 -0.706648 0
M  V30 23788 H 2177.83 -0.0508492 -1.8343 0
M  V30 23789 H 2176.21 2.08092 -3.36918 0
M  V30 23790 H 2177.38 -0.50913 -4.57979 0
M  V30 23791 H 2175.7 -0.302516 -4.153 0
M  V30 23792 H 2178.3 2.40863 -4.77377 0
M  V30 23793 H 2178.64 2.77706 -3.10137 0
M  V30 23794 H 2179.17 1.22218 -3.7856 0
M  V30 23795 H 2175.91 0.0739761 -6.55458 0
M  V30 23796 H 2175.43 1.60151 -5.78024 0
M  V30 23797 H 2177.11 1.3632 -6.32476 0
M  V30 23798 N 2177.24 1.55075 0.280956 0
M  V30 23799 C 2178.19 1.83796 1.34919 0
M  V30 23800 C 2179.18 0.696332 1.45052 0
M  V30 23801 O 2180.37 0.957483 1.48867 0
M  V30 23802 C 2177.5 2.10637 2.71085 0
M  V30 23803 C 2176.58 3.31037 2.65095 0
M  V30 23804 N 2176.97 4.51132 2.28722 0
M  V30 23805 C 2175.27 3.33467 2.96169 0
M  V30 23806 C 2175.97 5.33204 2.32527 0
M  V30 23807 N 2174.95 4.71414 2.70684 0
M  V30 23808 H 2178.75 2.74199 1.05793 0
M  V30 23809 H 2176.26 1.54845 0.48958 0
M  V30 23810 H 2178.26 2.29366 3.48134 0
M  V30 23811 H 2176.92 1.21513 3.01106 0
M  V30 23812 H 2177.93 4.77374 2.00835 0
M  V30 23813 H 2174.61 2.54512 3.30953 0
M  V30 23814 H 2176 6.39208 2.07034 0
M  V30 23815 N 2178.72 -0.545102 1.47873 0
M  V30 23816 C 2179.95 -1.3249 1.58525 0
M  V30 23817 C 2180.36 -1.87685 0.238932 0
M  V30 23818 O 2179.7 -1.6633 -0.779752 0
M  V30 23819 C 2179.76 -2.52362 2.56035 0
M  V30 23820 C 2179.43 -2.18364 4.01455 0
M  V30 23821 C 2180.42 -1.74934 4.89586 0
M  V30 23822 C 2178.11 -2.29352 4.46882 0
M  V30 23823 C 2180.1 -1.42937 6.21167 0
M  V30 23824 C 2177.79 -1.96966 5.78487 0
M  V30 23825 C 2178.79 -1.53828 6.65452 0
M  V30 23826 O 2178.48 -1.2186 7.9461 0
M  V30 23827 H 2178.21 -0.409737 0.537672 0
M  V30 23828 H 2180.76 -0.665921 1.94306 0
M  V30 23829 H 2178.99 -3.21191 2.15345 0
M  V30 23830 H 2180.68 -3.14433 2.56684 0
M  V30 23831 H 2181.45 -1.65929 4.55733 0
M  V30 23832 H 2177.33 -2.61886 3.7939 0
M  V30 23833 H 2180.87 -1.09193 6.89001 0
M  V30 23834 H 2176.77 -2.05608 6.11879 0
M  V30 23835 H 2177.53 -1.35388 8.07225 0
M  V30 23836 N 2180.2 -1.36208 -0.792797 0
M  V30 23837 C 2181.45 -1.2958 -1.5457 0
M  V30 23838 C 2181.76 0.123772 -1.95208 0
M  V30 23839 O 2182.97 0.312401 -2.69697 0
M  V30 23840 C 2181.42 -2.27331 -2.79014 0
M  V30 23841 C 2181.03 -3.74707 -2.45558 0
M  V30 23842 C 2182.77 -2.29674 -3.57002 0
M  V30 23843 C 2180.68 -4.64243 -3.66377 0
M  V30 23844 H 2179.61 -0.481506 -0.580231 0
M  V30 23845 H 2182.26 -1.61551 -0.870256 0
M  V30 23846 H 2180.64 -1.88349 -3.4834 0
M  V30 23847 H 2181.82 -4.22404 -1.84151 0
M  V30 23848 H 2180.13 -3.75106 -1.80788 0
M  V30 23849 H 2182.73 -2.93779 -4.46764 0
M  V30 23850 H 2183.07 -1.30432 -3.95339 0
M  V30 23851 H 2183.61 -2.67255 -2.94652 0
M  V30 23852 H 2180.34 -5.64534 -3.33138 0
M  V30 23853 H 2179.86 -4.21264 -4.26963 0
M  V30 23854 H 2181.54 -4.80348 -4.33446 0
M  V30 23855 N 2181.68 1.01656 -1.20431 0
M  V30 23856 C 2182.62 2.12315 -0.950014 0
M  V30 23857 C 2183.62 1.69113 0.0986435 0
M  V30 23858 O 2184.82 1.79926 -0.0517176 0
M  V30 23859 H 2181.2 0.69388 -0.289886 0
M  V30 23860 H 2183.17 2.30948 -1.8896 0
M  V30 23861 C 2181.92 3.43809 -0.518689 0
M  V30 23862 H 2181.24 3.77478 -1.3172 0
M  V30 23863 H 2182.68 4.22294 -0.37997 0
M  V30 23864 C 2181.14 3.28008 0.768922 0
M  V30 23865 O 2181.67 3.5773 1.82735 0
M  V30 23866 N 2179.88 2.81257 0.730955 0
M  V30 23867 H 2179.42 2.57269 -0.13064 0
M  V30 23868 H 2179.38 2.71065 1.59282 0
M  V30 23869 N 2183.15 1.01021 1.20965 0
M  V30 23870 C 2184.09 0.533213 2.22911 0
M  V30 23871 C 2185.1 -0.38098 1.58279 0
M  V30 23872 O 2186.29 -0.180348 1.77587 0
M  V30 23873 C 2183.39 -0.244499 3.38017 0
M  V30 23874 C 2182.56 0.670039 4.32237 0
M  V30 23875 C 2181.62 -0.0589738 5.26167 0
M  V30 23876 O 2180.65 0.561411 5.66425 0
M  V30 23877 N 2181.85 -1.33588 5.6492 0
M  V30 23878 H 2184.61 1.40992 2.64464 0
M  V30 23879 H 2182.17 0.886969 1.35442 0
M  V30 23880 H 2184.17 -0.74128 3.97853 0
M  V30 23881 H 2182.74 -1.02244 2.95406 0
M  V30 23882 H 2181.96 1.34723 3.70464 0
M  V30 23883 H 2183.24 1.29225 4.92116 0
M  V30 23884 H 2182.64 -1.86096 5.34214 0
M  V30 23885 H 2181.2 -1.77752 6.27095 0
M  V30 23886 N 2184.63 -1.36623 0.78561 0
M  V30 23887 C 2186.05 -1.5262 0.466843 0
M  V30 23888 C 2186.25 -1.74044 -1.01543 0
M  V30 23889 O 2185.3 -1.76975 -1.801 0
M  V30 23890 C 2186.62 -2.71435 1.29398 0
M  V30 23891 C 2188.16 -2.85304 1.28728 0
M  V30 23892 C 2188.64 -4.07118 2.09807 0
M  V30 23893 N 2190.13 -4.14257 2.07233 0
M  V30 23894 C 2190.87 -5.0758 2.6674 0
M  V30 23895 N 2190.36 -6.06372 3.3509 0
M  V30 23896 N 2192.15 -5.00167 2.56494 0
M  V30 23897 H 2184.31 -1.20971 1.74585 0
M  V30 23898 H 2186.57 -0.590141 0.741915 0
M  V30 23899 H 2186.27 -2.62113 2.34498 0
M  V30 23900 H 2186.15 -3.65488 0.932654 0
M  V30 23901 H 2188.54 -2.94088 0.244207 0
M  V30 23902 H 2188.62 -1.92169 1.68834 0
M  V30 23903 H 2188.26 -3.99095 3.14143 0
M  V30 23904 H 2188.19 -4.99393 1.67074 0
M  V30 23905 H 2190.68 -3.43522 1.57483 0
M  V30 23906 H 2190.99 -6.74137 3.77836 0
M  V30 23907 H 2189.34 -6.06609 3.39191 0
M  V30 23908 H 2192.53 -4.21936 2.027 0
M  V30 23909 H 2192.7 -5.7271 3.03162 0
M  V30 23910 N 2186.11 -0.537304 -1.48158 0
M  V30 23911 C 2187.52 -0.0987274 -1.86439 0
M  V30 23912 C 2187.87 1.32599 -1.4461 0
M  V30 23913 O 2187 1.99427 -0.840112 0
M  V30 23914 C 2187.59 -0.172391 -3.38361 0
M  V30 23915 C 2186.15 0.211031 -3.75808 0
M  V30 23916 C 2185.3 -0.528892 -2.7221 0
M  V30 23917 H 2188.25 -0.74815 -1.39959 0
M  V30 23918 H 2188.27 0.614074 -3.75512 0
M  V30 23919 H 2187.78 -1.20942 -3.68774 0
M  V30 23920 H 2185.88 1.24993 -3.51009 0
M  V30 23921 H 2186 -0.133675 -4.78913 0
M  V30 23922 H 2184.36 0.0257117 -2.54687 0
M  V30 23923 H 2185.14 -1.5667 -3.05466 0
M  V30 23924 N 2187.59 1.55221 -0.272782 0
M  V30 23925 C 2188.81 2.04409 0.350963 0
M  V30 23926 C 2189.24 1.14994 1.48856 0
M  V30 23927 O 2188.6 0.148061 1.80694 0
M  V30 23928 C 2188.64 3.51346 0.811686 0
M  V30 23929 O 2187.75 3.65025 1.91914 0
M  V30 23930 H 2187.09 0.659984 0.0729184 0
M  V30 23931 H 2189.62 2.00523 -0.4064 0
M  V30 23932 H 2189.63 3.92665 1.10806 0
M  V30 23933 H 2188.3 4.15895 -0.0206338 0
M  V30 23934 H 2186.88 3.35608 1.62547 0
M  V30 23935 N 2189.07 2.77022e-05 1.576 0
M  V30 23936 C 2190.31 -0.689316 1.92426 0
M  V30 23937 C 2190.67 -1.70936 0.874355 0
M  V30 23938 O 2191.87 -2.44908 1.10786 0
M  V30 23939 C 2190.14 -1.31565 3.32303 0
M  V30 23940 S 2191.7 -2.03011 3.89014 0
M  V30 23941 H 2188.52 -0.22769 0.673556 0
M  V30 23942 H 2191.12 0.0567214 1.95418 0
M  V30 23943 H 2189.83 -0.560419 4.06556 0
M  V30 23944 H 2189.36 -2.09962 3.32685 0
M  V30 23945 H 2191.37 -3.30524 3.70092 0
M  V30 23946 N 2190.54 -1.55222 -0.272728 0
M  V30 23947 C 2191.79 -1.75047 -1.00208 0
M  V30 23948 C 2192.11 -0.559079 -1.8744 0
M  V30 23949 O 2193.31 -0.639745 -2.63855 0
M  V30 23950 C 2191.77 -3.09808 -1.83159 0
M  V30 23951 C 2191.38 -4.36514 -1.00793 0
M  V30 23952 C 2193.12 -3.38981 -2.55523 0
M  V30 23953 C 2191.03 -5.62315 -1.83184 0
M  V30 23954 H 2189.96 -0.652482 -0.377866 0
M  V30 23955 H 2192.61 -1.81681 -0.257744 0
M  V30 23956 H 2190.99 -2.97212 -2.61689 0
M  V30 23957 H 2192.16 -4.60027 -0.266774 0
M  V30 23958 H 2190.48 -4.14486 -0.398824 0
M  V30 23959 H 2193.08 -4.30178 -3.17571 0
M  V30 23960 H 2193.42 -2.59126 -3.25821 0
M  V30 23961 H 2193.95 -3.52676 -1.84022 0
M  V30 23962 H 2190.69 -6.44918 -1.17306 0
M  V30 23963 H 2190.21 -5.42944 -2.54896 0
M  V30 23964 H 2191.89 -6.00624 -2.40542 0
M  V30 23965 N 2192.02 0.537252 -1.4816 0
M  V30 23966 C 2192.96 1.6589 -1.56703 0
M  V30 23967 C 2193.93 1.57138 -0.417898 0
M  V30 23968 O 2195.12 1.77714 -0.628493 0
M  V30 23969 C 2192.24 3.04252 -1.48824 0
M  V30 23970 C 2191.29 3.31386 -2.68487 0
M  V30 23971 S 2192.12 3.18452 -4.30521 0
M  V30 23972 C 2193.28 4.59273 -4.25228 0
M  V30 23973 H 2193.51 1.58392 -2.51593 0
M  V30 23974 H 2191.05 0.719648 -1.36603 0
M  V30 23975 H 2193 3.84051 -1.44964 0
M  V30 23976 H 2191.66 3.09197 -0.552832 0
M  V30 23977 H 2190.86 4.32304 -2.59093 0
M  V30 23978 H 2190.46 2.59243 -2.69572 0
M  V30 23979 H 2192.75 5.50643 -3.94713 0
M  V30 23980 H 2193.69 4.73723 -5.26301 0
M  V30 23981 H 2194.1 4.38255 -3.55799 0
M  V30 23982 N 2193.5 1.36626 0.785562 0
M  V30 23983 C 2194.78 1.21615 1.53196 0
M  V30 23984 C 2195.16 -0.196076 2.10187 0
M  V30 23985 O 2194.51 -1.20216 1.94321 0
M  V30 23986 C 2194.72 2.30121 2.62384 0
M  V30 23987 C 2196.06 2.6698 3.30162 0
M  V30 23988 O 2197.09 2.29193 2.7267 0
M  V30 23989 O 2195.95 3.32031 4.34071 0
M  V30 23990 H 2193.04 0.47375 0.677857 0
M  V30 23991 H 2195.59 1.48368 0.823713 0
M  V30 23992 H 2194.36 3.24752 2.18293 0
M  V30 23993 H 2193.98 2.04756 3.40824 0
M  V30 23994 N 2194.98 -1.01016 1.20969 0
M  V30 23995 C 2196.22 -1.74973 1.02529 0
M  V30 23996 C 2196.56 -1.89132 -0.440767 0
M  V30 23997 O 2195.83 -1.42186 -1.32715 0
M  V30 23998 C 2196.12 -3.16527 1.71705 0
M  V30 23999 C 2195.97 -3.10124 3.25797 0
M  V30 24000 C 2197.29 -4.15339 1.45539 0
M  V30 24001 H 2194.41 -0.635128 0.373874 0
M  V30 24002 H 2197.05 -1.17802 1.49073 0
M  V30 24003 H 2195.2 -3.65339 1.32135 0
M  V30 24004 H 2196.87 -2.69066 3.74702 0
M  V30 24005 H 2195.11 -2.47356 3.56367 0
M  V30 24006 H 2195.78 -4.10216 3.6936 0
M  V30 24007 H 2198.26 -3.7521 1.79879 0
M  V30 24008 H 2197.14 -5.12537 1.96462 0
M  V30 24009 H 2197.4 -4.40426 0.384315 0
M  V30 24010 N 2196.46 -1.01661 -1.20428 0
M  V30 24011 C 2197.68 -0.724976 -1.94316 0
M  V30 24012 C 2198.11 0.708003 -1.74267 0
M  V30 24013 O 2197.46 1.48717 -1.03696 0
M  V30 24014 C 2197.51 -1.06597 -3.44484 0
M  V30 24015 O 2196.62 -0.177671 -4.12017 0
M  V30 24016 H 2195.96 -0.268991 -0.607075 0
M  V30 24017 H 2198.49 -1.35998 -1.52858 0
M  V30 24018 H 2198.5 -1.01769 -3.95104 0
M  V30 24019 H 2197.17 -2.11003 -3.584 0
M  V30 24020 H 2195.75 -0.283486 -3.71821 0
M  V30 24021 N 2197.93 1.36205 -0.792844 0
M  V30 24022 C 2198.86 2.32573 -0.207894 0
M  V30 24023 C 2199.85 1.56815 0.659028 0
M  V30 24024 O 2201.03 1.84952 0.592143 0
M  V30 24025 C 2198.16 3.4106 0.655389 0
M  V30 24026 C 2197.11 4.27854 -0.111917 0
M  V30 24027 C 2196.44 5.27539 0.872181 0
M  V30 24028 C 2197.74 5.05784 -1.30308 0
M  V30 24029 H 2199.43 2.81743 -1.01299 0
M  V30 24030 H 2196.98 1.35459 -0.488564 0
M  V30 24031 H 2198.93 4.07469 1.07457 0
M  V30 24032 H 2197.66 2.90466 1.49323 0
M  V30 24033 H 2196.32 3.63005 -0.512116 0
M  V30 24034 H 2195.96 4.73217 1.70514 0
M  V30 24035 H 2195.66 5.86477 0.363188 0
M  V30 24036 H 2197.19 5.96821 1.28986 0
M  V30 24037 H 2198.6 5.65214 -0.959478 0
M  V30 24038 H 2197 5.7415 -1.7456 0
M  V30 24039 H 2198.07 4.37226 -2.0967 0
M  V30 24040 N 2199.41 0.545154 1.47871 0
M  V30 24041 C 2200.83 0.20406 1.5829 0
M  V30 24042 C 2201.03 -1.29315 1.54531 0
M  V30 24043 O 2200.08 -2.07249 1.44236 0
M  V30 24044 C 2201.4 0.820038 2.89302 0
M  V30 24045 C 2202.95 0.790159 3.02862 0
M  V30 24046 C 2203.42 1.38499 4.36557 0
M  V30 24047 N 2204.91 1.34763 4.43163 0
M  V30 24048 C 2205.65 1.77762 5.4515 0
M  V30 24049 N 2205.14 2.28562 6.54012 0
M  V30 24050 N 2206.94 1.68906 5.36122 0
M  V30 24051 H 2199.09 1.51804 1.48557 0
M  V30 24052 H 2201.35 0.632339 0.706294 0
M  V30 24053 H 2201.06 1.87178 2.97754 0
M  V30 24054 H 2200.93 0.305981 3.75957 0
M  V30 24055 H 2203.32 -0.252861 2.94015 0
M  V30 24056 H 2203.4 1.34185 2.1778 0
M  V30 24057 H 2203.04 2.42701 4.4616 0
M  V30 24058 H 2202.97 0.808846 5.20351 0
M  V30 24059 H 2205.46 0.975919 3.65081 0
M  V30 24060 H 2205.78 2.59327 7.2799 0
M  V30 24061 H 2204.12 2.32565 6.54934 0
M  V30 24062 H 2207.31 1.29006 4.49972 0
M  V30 24063 H 2207.48 2.02737 6.15469 0
M  V30 24064 N 2200.89 -1.55074 0.28101 0
M  V30 24065 C 2202.12 -2.04592 -0.340118 0
M  V30 24066 C 2202.54 -1.15782 -1.48244 0
M  V30 24067 O 2201.9 -0.157642 -1.80613 0
M  V30 24068 C 2201.95 -3.51772 -0.793042 0
M  V30 24069 O 2201.05 -3.66037 -1.89975 0
M  V30 24070 H 2200.39 -0.660361 -0.0694173 0
M  V30 24071 H 2202.92 -2.00305 0.417028 0
M  V30 24072 H 2202.93 -3.93247 -1.08722 0
M  V30 24073 H 2201.61 -4.15878 0.0426894 0
M  V30 24074 H 2200.18 -3.36465 -1.60765 0
M  V30 24075 N 2202.37 -0.00838561 -1.57598 0
M  V30 24076 C 2203.62 0.674699 -1.90929 0
M  V30 24077 C 2203.94 1.73312 -0.882801 0
M  V30 24078 O 2203.2 1.95383 0.11126 0
M  V30 24079 C 2203.5 1.34781 -3.31012 0
M  V30 24080 C 2203.16 0.421782 -4.48923 0
M  V30 24081 C 2201.83 0.166843 -4.80911 0
M  V30 24082 C 2204.18 -0.215303 -5.20755 0
M  V30 24083 C 2201.51 -0.733334 -5.82099 0
M  V30 24084 C 2203.86 -1.10341 -6.22903 0
M  V30 24085 C 2202.52 -1.36744 -6.53343 0
M  V30 24086 H 2201.79 0.24689 -0.69866 0
M  V30 24087 H 2204.44 -0.0657115 -1.91387 0
M  V30 24088 H 2202.74 2.16247 -3.26718 0
M  V30 24089 H 2204.44 1.88253 -3.54064 0
M  V30 24090 H 2201.03 0.630655 -4.23935 0
M  V30 24091 H 2205.22 -0.0313701 -4.9629 0
M  V30 24092 H 2200.47 -0.945818 -6.0404 0
M  V30 24093 H 2204.65 -1.60337 -6.77691 0
M  V30 24094 H 2202.27 -2.06665 -7.31569 0
M  V30 24095 N 2203.85 1.55365 0.264492 0
M  V30 24096 C 2205.07 1.80741 1.01722 0
M  V30 24097 C 2205.5 0.583075 1.78835 0
M  V30 24098 O 2204.86 -0.467535 1.75168 0
M  V30 24099 C 2204.9 3.03663 1.94477 0
M  V30 24100 O 2204.01 2.79345 3.03381 0
M  V30 24101 H 2203.35 0.597137 0.290384 0
M  V30 24102 H 2205.88 2.02523 0.290818 0
M  V30 24103 H 2205.89 3.32625 2.36272 0
M  V30 24104 H 2204.56 3.9242 1.37765 0
M  V30 24105 H 2203.14 2.61503 2.6584 0
M  V30 24106 N 2205.33 -0.529387 1.48443 0
M  V30 24107 C 2206.26 -1.6431 1.65905 0
M  V30 24108 C 2207.24 -1.6234 0.507926 0
M  V30 24109 O 2208.42 -1.79526 0.740534 0
M  V30 24110 C 2205.55 -3.02895 1.69917 0
M  V30 24111 C 2204.51 -3.19724 2.84536 0
M  V30 24112 C 2203.83 -4.59377 2.73637 0
M  V30 24113 C 2205.13 -3.02439 4.25826 0
M  V30 24114 H 2206.83 -1.49951 2.59143 0
M  V30 24115 H 2204.37 -0.71996 1.2471 0
M  V30 24116 H 2206.32 -3.80681 1.80721 0
M  V30 24117 H 2205.05 -3.18278 0.73258 0
M  V30 24118 H 2203.71 -2.44356 2.73287 0
M  V30 24119 H 2203.36 -4.71596 1.74946 0
M  V30 24120 H 2203.06 -4.71582 3.50549 0
M  V30 24121 H 2204.58 -5.3926 2.8641 0
M  V30 24122 H 2205.99 -3.70016 4.37905 0
M  V30 24123 H 2204.39 -3.26137 5.03741 0
M  V30 24124 H 2205.46 -1.98859 4.42248 0
M  V30 24125 N 2206.8 -1.37041 -0.778305 0
M  V30 24126 C 2208.04 -1.33279 -1.54971 0
M  V30 24127 C 2208.41 0.0839039 -1.91817 0
M  V30 24128 O 2209.61 0.246181 -2.6767 0
M  V30 24129 C 2207.88 -2.23976 -2.78513 0
M  V30 24130 S 2209.44 -2.38003 -3.68646 0
M  V30 24131 H 2206.26 -0.473236 -0.530631 0
M  V30 24132 H 2208.86 -1.72725 -0.915776 0
M  V30 24133 H 2207.56 -3.25839 -2.49514 0
M  V30 24134 H 2207.09 -1.85591 -3.46871 0
M  V30 24135 H 2209.11 -1.58576 -4.70179 0
M  V30 24136 N 2208.28 1.00373 -1.21503 0
M  V30 24137 C 2209.52 1.75699 -1.04447 0
M  V30 24138 C 2209.89 1.8747 0.414611 0
M  V30 24139 O 2211.09 2.59371 0.705718 0
M  V30 24140 C 2209.36 3.13074 -1.72394 0
M  V30 24141 S 2210.92 4.04274 -1.70611 0
M  V30 24142 H 2207.73 0.604525 -0.374259 0
M  V30 24143 H 2210.34 1.20089 -1.54269 0
M  V30 24144 H 2209.04 3.02141 -2.77739 0
M  V30 24145 H 2208.57 3.73757 -1.22758 0
M  V30 24146 H 2210.59 4.90528 -0.748098 0
M  V30 24147 N 2209.76 1.02298 1.19887 0
M  V30 24148 C 2211.04 0.630864 1.85147 0
M  V30 24149 C 2211.42 -0.890748 1.91387 0
M  V30 24150 O 2210.76 -1.78506 1.42645 0
M  V30 24151 C 2210.97 1.28608 3.2444 0
M  V30 24152 C 2212.32 1.40557 4.00661 0
M  V30 24153 O 2213.35 1.24279 3.33816 0
M  V30 24154 O 2212.21 1.66922 5.20384 0
M  V30 24155 H 2209.3 0.218513 0.79761 0
M  V30 24156 H 2211.85 1.12076 1.27425 0
M  V30 24157 H 2210.62 2.32551 3.147 0
M  V30 24158 H 2210.24 0.783669 3.898 0
M  V30 24159 N 2211.24 -1.35782 0.800057 0
M  V30 24160 C 2212.17 -2.32459 0.220225 0
M  V30 24161 C 2213.15 -1.57162 -0.650702 0
M  V30 24162 O 2214.33 -1.85264 -0.582326 0
M  V30 24163 C 2211.46 -3.41403 -0.637293 0
M  V30 24164 C 2210.42 -4.27788 0.134606 0
M  V30 24165 C 2209.74 -5.27994 -0.844192 0
M  V30 24166 C 2211.04 -5.05086 1.32988 0
M  V30 24167 H 2212.74 -2.81201 1.02792 0
M  V30 24168 H 2210.28 -1.35198 0.495741 0
M  V30 24169 H 2212.24 -4.08033 -1.05295 0
M  V30 24170 H 2210.96 -2.91253 -1.4778 0
M  V30 24171 H 2209.62 -3.62729 0.53136 0
M  V30 24172 H 2209.27 -4.74114 -1.68002 0
M  V30 24173 H 2208.97 -5.86661 -0.332081 0
M  V30 24174 H 2210.49 -5.97496 -1.25819 0
M  V30 24175 H 2211.91 -5.64697 0.989439 0
M  V30 24176 H 2210.3 -5.73217 1.77603 0
M  V30 24177 H 2211.37 -4.36108 2.11986 0
M  V30 24178 N 2212.72 -0.552988 -1.4758 0
M  V30 24179 C 2213.65 0.18541 -2.32763 0
M  V30 24180 C 2214.63 0.91288 -1.43529 0
M  V30 24181 O 2215.81 0.894171 -1.7239 0
M  V30 24182 C 2212.94 1.21853 -3.25222 0
M  V30 24183 C 2211.9 0.607789 -4.23663 0
M  V30 24184 C 2211.22 1.74524 -5.05416 0
M  V30 24185 C 2212.52 -0.435674 -5.2048 0
M  V30 24186 H 2214.22 -0.525735 -2.94748 0
M  V30 24187 H 2211.76 -0.254276 -1.41737 0
M  V30 24188 H 2213.71 1.74323 -3.83653 0
M  V30 24189 H 2212.44 1.95957 -2.61282 0
M  V30 24190 H 2211.1 0.104425 -3.66451 0
M  V30 24191 H 2210.75 2.47521 -4.37884 0
M  V30 24192 H 2210.45 1.34239 -5.72061 0
M  V30 24193 H 2211.97 2.27328 -5.66705 0
M  V30 24194 H 2213.38 0.0028008 -5.733 0
M  V30 24195 H 2211.78 -0.757172 -5.95304 0
M  V30 24196 H 2212.85 -1.33311 -4.66215 0
M  V30 24197 N 2214.19 1.54923 -0.28923 0
M  V30 24198 C 2215.42 2.0477 0.329263 0
M  V30 24199 C 2215.84 1.16566 1.47628 0
M  V30 24200 O 2215.2 0.167218 1.80527 0
M  V30 24201 C 2215.25 3.52187 0.774376 0
M  V30 24202 O 2214.35 3.6704 1.88031 0
M  V30 24203 H 2213.69 0.66072 0.0659143 0
M  V30 24204 H 2216.22 2.00081 -0.427645 0
M  V30 24205 H 2216.23 3.93818 1.06635 0
M  V30 24206 H 2214.91 4.1585 -0.0647438 0
M  V30 24207 H 2213.49 3.37313 1.58979 0
M  V30 24208 N 2215.67 0.0167433 1.57591 0
M  V30 24209 C 2216.6 -0.997717 2.06345 0
M  V30 24210 C 2217.62 -1.2966 0.984492 0
M  V30 24211 O 2218.81 -1.26342 1.26095 0
M  V30 24212 C 2215.91 -2.3283 2.46259 0
M  V30 24213 C 2215.08 -2.21639 3.77087 0
M  V30 24214 C 2214.14 -3.37527 4.03686 0
M  V30 24215 O 2213.16 -3.14965 4.74116 0
M  V30 24216 N 2214.37 -4.60922 3.52889 0
M  V30 24217 H 2217.13 -0.581823 2.93998 0
M  V30 24218 H 2214.69 -0.170288 1.61002 0
M  V30 24219 H 2216.68 -3.09161 2.61154 0
M  V30 24220 H 2215.25 -2.66103 1.64037 0
M  V30 24221 H 2214.47 -1.30113 3.72108 0
M  V30 24222 H 2215.76 -2.11352 4.62826 0
M  V30 24223 H 2215.16 -4.82149 2.95887 0
M  V30 24224 H 2213.72 -5.34463 3.73085 0
M  V30 24225 N 2217.15 -1.55503 -0.256249 0
M  V30 24226 C 2218.4 -1.77159 -0.987048 0
M  V30 24227 C 2218.73 -0.580347 -1.85326 0
M  V30 24228 O 2218 0.421653 -1.89875 0
M  V30 24229 C 2218.29 -3.08616 -1.85548 0
M  V30 24230 C 2218.14 -4.38127 -1.01808 0
M  V30 24231 C 2219.46 -3.36233 -2.83964 0
M  V30 24232 H 2216.58 -0.644533 -0.357417 0
M  V30 24233 H 2219.22 -1.88237 -0.258206 0
M  V30 24234 H 2217.37 -2.99302 -2.4769 0
M  V30 24235 H 2219.04 -4.5942 -0.416078 0
M  V30 24236 H 2217.29 -4.32603 -0.322102 0
M  V30 24237 H 2217.96 -5.26471 -1.6593 0
M  V30 24238 H 2220.43 -3.45449 -2.31958 0
M  V30 24239 H 2219.31 -4.29448 -3.41856 0
M  V30 24240 H 2219.57 -2.56687 -3.5995 0
M  V30 24241 N 2218.63 0.521507 -1.48721 0
M  V30 24242 C 2219.87 1.28726 -1.58773 0
M  V30 24243 C 2220.23 1.90239 -0.259428 0
M  V30 24244 O 2221.43 2.67771 -0.234989 0
M  V30 24245 C 2219.7 2.34119 -2.70043 0
M  V30 24246 S 2221.26 3.20306 -2.99915 0
M  V30 24247 H 2218.08 0.437757 -0.560259 0
M  V30 24248 H 2220.68 0.593155 -1.86285 0
M  V30 24249 H 2219.39 1.87423 -3.65104 0
M  V30 24250 H 2218.92 3.08225 -2.4446 0
M  V30 24251 H 2220.93 4.34374 -2.39862 0
M  V30 24252 N 2220.11 1.37452 0.771027 0
M  V30 24253 C 2221.04 1.29149 1.89349 0
M  V30 24254 C 2222.05 0.207152 1.61477 0
M  V30 24255 O 2223.24 0.463354 1.72381 0
M  V30 24256 C 2220.34 0.974252 3.24594 0
M  V30 24257 C 2219.51 2.1642 3.80107 0
M  V30 24258 C 2218.57 1.81712 4.93829 0
M  V30 24259 O 2217.6 2.54015 5.09377 0
M  V30 24260 N 2218.8 0.761674 5.75481 0
M  V30 24261 H 2221.57 2.25867 1.96987 0
M  V30 24262 H 2219.13 1.31086 0.950168 0
M  V30 24263 H 2221.12 0.722898 3.98191 0
M  V30 24264 H 2219.69 0.0956076 3.12454 0
M  V30 24265 H 2218.91 2.57726 2.9828 0
M  V30 24266 H 2220.2 2.95875 4.13927 0
M  V30 24267 H 2219.59 0.161708 5.65469 0
M  V30 24268 H 2218.15 0.570178 6.49301 0
M  V30 24269 N 2221.58 -0.997276 1.22033 0
M  V30 24270 C 2222.81 -1.77178 1.06844 0
M  V30 24271 C 2223.23 -1.8491 -0.381292 0
M  V30 24272 O 2222.58 -1.31607 -1.26435 0
M  V30 24273 C 2222.64 -3.20708 1.6682 0
M  V30 24274 O 2222.36 -3.13403 3.06121 0
M  V30 24275 C 2223.86 -4.14625 1.56846 0
M  V30 24276 H 2221.08 -0.556572 0.374792 0
M  V30 24277 H 2223.62 -1.25407 1.61535 0
M  V30 24278 H 2221.78 -3.69561 1.16203 0
M  V30 24279 H 2222.19 -4.03634 3.34933 0
M  V30 24280 H 2223.66 -5.13103 2.03541 0
M  V30 24281 H 2224.14 -4.3606 0.524231 0
M  V30 24282 H 2224.75 -3.71666 2.06747 0
M  V30 24283 N 2223.06 -1.02932 -1.19343 0
M  V30 24284 C 2224.03 -0.615107 -2.20792 0
M  V30 24285 C 2225.03 0.321505 -1.57553 0
M  V30 24286 O 2226.22 0.108453 -1.73862 0
M  V30 24287 C 2223.35 0.0998623 -3.40754 0
M  V30 24288 H 2224.54 -1.51273 -2.58952 0
M  V30 24289 H 2222.09 -0.820558 -1.33028 0
M  V30 24290 H 2222.83 1.01182 -3.08112 0
M  V30 24291 H 2222.61 -0.573158 -3.87888 0
M  V30 24292 H 2224.1 0.376572 -4.15899 0
M  V30 24293 N 2224.54 1.35356 -0.807246 0
M  V30 24294 C 2225.79 1.99044 -0.388498 0
M  V30 24295 C 2226.12 1.6389 1.04181 0
M  V30 24296 O 2225.39 0.902565 1.7229 0
M  V30 24297 C 2225.68 3.55514 -0.572846 0
M  V30 24298 C 2225.53 4.00464 -2.04814 0
M  V30 24299 C 2226.85 4.401 0.00106328 0
M  V30 24300 H 2223.97 0.723067 -0.142631 0
M  V30 24301 H 2226.61 1.60496 -1.0169 0
M  V30 24302 H 2224.76 3.88482 -0.0379108 0
M  V30 24303 H 2226.43 3.77903 -2.6455 0
M  V30 24304 H 2224.68 3.51349 -2.54433 0
M  V30 24305 H 2225.35 5.09333 -2.128 0
M  V30 24306 H 2227.82 4.13596 -0.455788 0
M  V30 24307 H 2226.7 5.48673 -0.157833 0
M  V30 24308 H 2226.96 4.2833 1.09481 0
M  V30 24309 N 2226.02 0.560807 1.47284 0
M  V30 24310 C 2227.25 0.0430626 2.06855 0
M  V30 24311 C 2227.66 -1.25226 1.41293 0
M  V30 24312 O 2227.02 -1.75209 0.510679 0
M  V30 24313 C 2227.07 -0.152455 3.61178 0
M  V30 24314 O 2226.79 1.09158 4.24283 0
M  V30 24315 C 2228.29 -0.707068 4.37625 0
M  V30 24316 H 2225.51 0.047477 0.669318 0
M  V30 24317 H 2228.06 0.775243 1.89236 0
M  V30 24318 H 2226.21 -0.834777 3.78299 0
M  V30 24319 H 2226.62 0.891573 5.16867 0
M  V30 24320 H 2228.1 -0.793148 5.46272 0
M  V30 24321 H 2228.58 -1.71916 4.04155 0
M  V30 24322 H 2229.18 -0.0603279 4.25257 0
M  V30 24323 N 2227.5 -1.54768 0.297442 0
M  V30 24324 C 2228.73 -2.04183 -0.315129 0
M  V30 24325 C 2229.13 -1.17441 -1.48338 0
M  V30 24326 O 2228.48 -0.191923 -1.82695 0
M  V30 24327 C 2228.54 -3.49608 -0.837521 0
M  V30 24328 C 2228.2 -4.5654 0.204992 0
M  V30 24329 C 2229.2 -5.0955 1.03222 0
M  V30 24330 C 2226.89 -5.01109 0.345666 0
M  V30 24331 C 2228.88 -6.05667 1.98611 0
M  V30 24332 C 2226.57 -5.97047 1.303 0
M  V30 24333 C 2227.56 -6.49209 2.1217 0
M  V30 24334 O 2227.25 -7.43268 3.06281 0
M  V30 24335 H 2226.98 -0.672052 -0.0729528 0
M  V30 24336 H 2229.54 -2.00764 0.433942 0
M  V30 24337 H 2227.77 -3.50339 -1.63706 0
M  V30 24338 H 2229.46 -3.82239 -1.36559 0
M  V30 24339 H 2230.22 -4.75914 0.934395 0
M  V30 24340 H 2226.1 -4.60139 -0.281629 0
M  V30 24341 H 2229.65 -6.46306 2.62553 0
M  V30 24342 H 2225.54 -6.301 1.40156 0
M  V30 24343 H 2226.31 -7.61058 3.01219 0
M  V30 24344 N 2228.97 -0.0251005 -1.5758 0
M  V30 24345 C 2230.21 0.658616 -1.93498 0
M  V30 24346 C 2230.58 1.69523 -0.901439 0
M  V30 24347 O 2231.78 2.43114 -1.14669 0
M  V30 24348 C 2230.05 1.26262 -3.34354 0
M  V30 24349 S 2231.61 1.96796 -3.92195 0
M  V30 24350 H 2228.43 0.216946 -0.677093 0
M  V30 24351 H 2231.03 -0.0878035 -1.95303 0
M  V30 24352 H 2229.73 0.495669 -4.07396 0
M  V30 24353 H 2229.26 2.04642 -3.35984 0
M  V30 24354 H 2231.28 3.24595 -3.75304 0
M  V30 24355 N 2230.45 1.55637 0.247999 0
M  V30 24356 C 2231.4 1.90224 1.30703 0
M  V30 24357 C 2232.37 0.756358 1.4788 0
M  V30 24358 O 2233.55 1.00991 1.61881 0
M  V30 24359 C 2230.69 2.20142 2.65766 0
M  V30 24360 C 2229.81 3.4753 2.56606 0
M  V30 24361 C 2228.94 3.67024 3.84014 0
M  V30 24362 C 2227.98 4.88017 3.69467 0
M  V30 24363 N 2227.12 5.04037 4.88765 0
M  V30 24364 H 2231.96 2.80539 1.00507 0
M  V30 24365 H 2229.5 1.38874 0.485031 0
M  V30 24366 H 2231.45 2.35493 3.44382 0
M  V30 24367 H 2230.08 1.33032 2.94113 0
M  V30 24368 H 2229.14 3.40517 1.69565 0
M  V30 24369 H 2230.45 4.36292 2.41767 0
M  V30 24370 H 2229.6 3.82328 4.71074 0
M  V30 24371 H 2228.34 2.76494 4.01749 0
M  V30 24372 H 2227.35 4.72691 2.80791 0
M  V30 24373 H 2228.57 5.80006 3.53228 0
M  V30 24374 H 2226.52 4.16444 5.06863 0
M  V30 24375 H 2226.43 5.86885 4.76552 0
M  V30 24376 H 2227.7 5.23751 5.77326 0
M  V30 24377 N 2231.93 -0.513613 1.48996 0
M  V30 24378 C 2233.21 -1.27493 1.48341 0
M  V30 24379 C 2233.59 -2.10111 0.204102 0
M  V30 24380 O 2232.94 -2.13515 -0.813844 0
M  V30 24381 C 2233.15 -2.14242 2.75502 0
M  V30 24382 C 2234.49 -2.73846 3.24489 0
M  V30 24383 O 2235.52 -2.24518 2.76532 0
M  V30 24384 O 2234.38 -3.63613 4.0798 0
M  V30 24385 H 2231.47 -0.576274 0.593159 0
M  V30 24386 H 2234.02 -0.52892 1.61247 0
M  V30 24387 H 2232.79 -1.53085 3.60112 0
M  V30 24388 H 2232.41 -2.96059 2.65395 0
M  V30 24389 N 2233.41 -1.37859 -0.763727 0
M  V30 24390 C 2234.37 -1.34084 -1.85887 0
M  V30 24391 C 2235.37 -0.243305 -1.58949 0
M  V30 24392 O 2236.56 -0.499619 -1.66882 0
M  V30 24393 C 2233.69 -1.08495 -3.23174 0
M  V30 24394 H 2234.89 -2.31506 -1.90644 0
M  V30 24395 H 2232.44 -1.23004 -0.964345 0
M  V30 24396 H 2233.18 -0.116375 -3.24091 0
M  V30 24397 H 2232.96 -1.87946 -3.4412 0
M  V30 24398 H 2234.45 -1.08524 -4.03252 0
M  V30 24399 N 2234.89 0.990791 -1.22561 0
M  V30 24400 C 2235.82 2.09954 -1.02184 0
M  V30 24401 C 2236.8 1.70001 0.0579095 0
M  V30 24402 O 2237.98 1.93917 -0.104718 0
M  V30 24403 C 2235.11 3.42059 -0.601083 0
M  V30 24404 C 2234.07 3.95869 -1.627 0
M  V30 24405 C 2233.39 5.24047 -1.06202 0
M  V30 24406 C 2234.69 4.26315 -3.0175 0
M  V30 24407 H 2236.39 2.27259 -1.9492 0
M  V30 24408 H 2233.93 1.09209 -0.938585 0
M  V30 24409 H 2235.89 4.19037 -0.445634 0
M  V30 24410 H 2234.61 3.24588 0.361948 0
M  V30 24411 H 2233.27 3.21025 -1.77027 0
M  V30 24412 H 2232.92 5.02919 -0.0902787 0
M  V30 24413 H 2232.62 5.61016 -1.74741 0
M  V30 24414 H 2234.14 6.03657 -0.918198 0
M  V30 24415 H 2235.56 4.94081 -2.90786 0
M  V30 24416 H 2233.95 4.74461 -3.67433 0
M  V30 24417 H 2235.02 3.34004 -3.51524 0
M  V30 24418 N 2236.37 1.03564 1.18795 0
M  V30 24419 C 2237.28 0.632544 2.25912 0
M  V30 24420 C 2238.29 -0.338852 1.70669 0
M  V30 24421 O 2239.47 -0.195041 2.00453 0
M  V30 24422 C 2236.53 -0.00344848 3.467 0
M  V30 24423 C 2235.59 1.01631 4.17097 0
M  V30 24424 C 2234.83 0.410571 5.32118 0
M  V30 24425 O 2235.05 -0.784626 5.64978 0
M  V30 24426 O 2233.98 1.13677 5.91068 0
M  V30 24427 H 2237.81 1.52483 2.62646 0
M  V30 24428 H 2235.39 0.806217 1.2578 0
M  V30 24429 H 2237.28 -0.357736 4.19879 0
M  V30 24430 H 2235.95 -0.869631 3.118 0
M  V30 24431 H 2234.86 1.4223 3.46008 0
M  V30 24432 H 2236.19 1.85309 4.55984 0
M  V30 24433 N 2237.84 -1.34926 0.814413 0
M  V30 24434 C 2238.79 -2.31572 0.218465 0
M  V30 24435 C 2239.79 -1.57004 -0.6361 0
M  V30 24436 O 2240.99 -1.7207 -0.52839 0
M  V30 24437 H 2237.37 -0.750207 0.0518931 0
M  V30 24438 H 2239.34 -2.7937 1.04857 0
M  V30 24439 C 2238.09 -3.42271 -0.612009 0
M  V30 24440 H 2237.41 -3.99784 0.0362281 0
M  V30 24441 H 2238.85 -4.12154 -0.995245 0
M  V30 24442 C 2237.31 -2.85987 -1.78082 0
M  V30 24443 O 2237.84 -2.80173 -2.87865 0
M  V30 24444 N 2236.04 -2.42927 -1.59484 0
M  V30 24445 H 2235.59 -2.47855 -0.701831 0
M  V30 24446 H 2235.55 -2.05617 -2.37842 0
M  V30 24447 N 2239.32 -0.56861 -1.46985 0
M  V30 24448 C 2240.27 0.193299 -2.27179 0
M  V30 24449 C 2241.26 0.874871 -1.35036 0
M  V30 24450 O 2242.45 0.771294 -1.59311 0
M  V30 24451 C 2239.58 1.2154 -3.21065 0
M  V30 24452 C 2238.66 0.536664 -4.20691 0
M  V30 24453 N 2239.05 -0.399761 -5.04218 0
M  V30 24454 C 2237.35 0.789176 -4.38962 0
M  V30 24455 C 2238.05 -0.795118 -5.7624 0
M  V30 24456 N 2237.03 -0.147395 -5.434 0
M  V30 24457 H 2240.83 -0.526509 -2.89145 0
M  V30 24458 H 2238.34 -0.389369 -1.57663 0
M  V30 24459 H 2240.34 1.7753 -3.77212 0
M  V30 24460 H 2239 1.93618 -2.60657 0
M  V30 24461 H 2240.01 -0.774544 -5.12075 0
M  V30 24462 H 2236.69 1.4976 -3.89716 0
M  V30 24463 H 2238.08 -1.56524 -6.53414 0
M  V30 24464 N 2240.8 1.54608 -0.305646 0
M  V30 24465 C 2241.73 2.2665 0.561442 0
M  V30 24466 C 2242.71 1.26774 1.13412 0
M  V30 24467 O 2243.9 1.55555 1.1626 0
M  V30 24468 C 2241.03 3.01078 1.73116 0
M  V30 24469 C 2239.98 4.0814 1.28863 0
M  V30 24470 C 2239.31 4.70309 2.54388 0
M  V30 24471 C 2240.61 5.20637 0.416487 0
M  V30 24472 H 2242.3 2.99374 -0.0394428 0
M  V30 24473 H 2239.85 1.43986 -0.0204103 0
M  V30 24474 H 2241.8 3.50199 2.34389 0
M  V30 24475 H 2240.52 2.2594 2.35836 0
M  V30 24476 H 2239.18 3.59876 0.698928 0
M  V30 24477 H 2238.83 3.91806 3.15432 0
M  V30 24478 H 2238.53 5.42618 2.25476 0
M  V30 24479 H 2240.05 5.22196 3.16455 0
M  V30 24480 H 2241.47 5.65624 0.935017 0
M  V30 24481 H 2239.86 5.99693 0.220941 0
M  V30 24482 H 2240.93 4.81687 -0.557246 0
M  V30 24483 N 2242.28 0.033457 1.57564 0
M  V30 24484 C 2243.23 -0.956201 2.0698 0
M  V30 24485 C 2244.21 -1.28282 0.971216 0
M  V30 24486 O 2245.4 -1.2682 1.23473 0
M  V30 24487 C 2242.53 -2.23714 2.60397 0
M  V30 24488 C 2241.62 -1.9387 3.77194 0
M  V30 24489 N 2242.01 -1.34313 4.87641 0
M  V30 24490 C 2240.31 -2.23838 3.85762 0
M  V30 24491 C 2241.01 -1.21699 5.68827 0
M  V30 24492 N 2239.98 -1.71395 5.15873 0
M  V30 24493 H 2243.79 -0.490764 2.89774 0
M  V30 24494 H 2241.3 -0.171449 1.61492 0
M  V30 24495 H 2243.3 -2.95491 2.94093 0
M  V30 24496 H 2241.96 -2.70881 1.79036 0
M  V30 24497 H 2242.97 -1.01758 5.07805 0
M  V30 24498 H 2239.65 -2.73648 3.15315 0
M  V30 24499 H 2241.04 -0.756092 6.67632 0
M  V30 24500 N 2243.76 -1.55766 -0.239741 0
M  V30 24501 C 2245 -1.78196 -0.968202 0
M  V30 24502 C 2245.33 -0.599971 -1.847 0
M  V30 24503 O 2244.61 0.401491 -1.90311 0
M  V30 24504 C 2244.89 -3.10567 -1.82264 0
M  V30 24505 C 2244.75 -4.39182 -0.971555 0
M  V30 24506 C 2246.06 -3.39226 -2.80382 0
M  V30 24507 H 2243.18 -0.648287 -0.350561 0
M  V30 24508 H 2245.83 -1.88501 -0.238226 0
M  V30 24509 H 2243.98 -3.01913 -2.44501 0
M  V30 24510 H 2245.65 -4.59835 -0.367327 0
M  V30 24511 H 2243.89 -4.3292 -0.2762 0
M  V30 24512 H 2244.56 -5.28201 -1.60337 0
M  V30 24513 H 2247.04 -3.47889 -2.28281 0
M  V30 24514 H 2245.91 -4.3305 -3.37282 0
M  V30 24515 H 2246.17 -2.60491 -3.57207 0
M  V30 24516 N 2245.23 0.505704 -1.49266 0
M  V30 24517 C 2246.48 1.25672 -1.57764 0
M  V30 24518 C 2246.8 1.93764 -0.267405 0
M  V30 24519 O 2248 2.70517 -0.230875 0
M  V30 24520 C 2246.46 2.2816 -2.78336 0
M  V30 24521 C 2246.07 1.6603 -4.16099 0
M  V30 24522 C 2247.81 3.0412 -2.96161 0
M  V30 24523 C 2245.72 2.66601 -5.279 0
M  V30 24524 H 2244.65 0.472735 -0.587399 0
M  V30 24525 H 2247.3 0.531149 -1.75645 0
M  V30 24526 H 2245.68 3.0386 -2.53939 0
M  V30 24527 H 2246.85 0.963543 -4.50613 0
M  V30 24528 H 2245.17 1.02477 -4.03593 0
M  V30 24529 H 2247.77 3.7932 -3.76856 0
M  V30 24530 H 2248.11 3.61451 -2.0654 0
M  V30 24531 H 2248.64 2.35536 -3.20574 0
M  V30 24532 H 2245.38 2.14057 -6.19564 0
M  V30 24533 H 2244.9 3.34531 -4.97845 0
M  V30 24534 H 2246.58 3.29119 -5.57036 0
M  V30 24535 N 2246.71 1.38262 0.756405 0
M  V30 24536 C 2247.96 1.34514 1.51769 0
M  V30 24537 C 2248.29 -0.065635 1.94089 0
M  V30 24538 O 2247.57 -1.02623 1.65223 0
M  V30 24539 C 2247.85 2.29826 2.77222 0
M  V30 24540 C 2247.7 3.79751 2.41058 0
M  V30 24541 C 2249.02 2.23319 3.79232 0
M  V30 24542 H 2246.14 0.489941 0.55057 0
M  V30 24543 H 2248.78 1.69087 0.866577 0
M  V30 24544 H 2246.93 2.00473 3.3278 0
M  V30 24545 H 2248.6 4.19766 1.91296 0
M  V30 24546 H 2246.85 3.9757 1.73553 0
M  V30 24547 H 2247.52 4.41898 3.30802 0
M  V30 24548 H 2249.99 2.49225 3.33206 0
M  V30 24549 H 2248.87 2.92124 4.64709 0
M  V30 24550 H 2249.13 1.2311 4.24613 0
M  V30 24551 N 2248.19 -0.984277 1.23084 0
M  V30 24552 C 2249.44 -1.72163 1.05851 0
M  V30 24553 C 2249.76 -1.90726 -0.406016 0
M  V30 24554 O 2249.03 -1.47311 -1.29136 0
M  V30 24555 H 2247.61 -0.637906 0.388696 0
M  V30 24556 H 2250.27 -1.185 1.54738 0
M  V30 24557 H 2249.37 -2.71271 1.54331 0
M  V30 24558 N 2249.67 -1.04192 -1.18244 0
M  V30 24559 C 2250.9 -0.766106 -1.92194 0
M  V30 24560 C 2251.31 0.676902 -1.76248 0
M  V30 24561 O 2250.67 1.46153 -1.09296 0
M  V30 24562 C 2250.72 -1.12448 -3.43566 0
M  V30 24563 O 2250.44 -2.51084 -3.5901 0
M  V30 24564 C 2251.94 -0.873351 -4.34612 0
M  V30 24565 H 2249.16 -0.279299 -0.610109 0
M  V30 24566 H 2251.71 -1.38992 -1.50005 0
M  V30 24567 H 2249.86 -0.54561 -3.83539 0
M  V30 24568 H 2250.27 -2.64839 -4.52726 0
M  V30 24569 H 2251.75 -1.17395 -5.39372 0
M  V30 24570 H 2252.23 0.191832 -4.38781 0
M  V30 24571 H 2252.83 -1.43558 -4.00339 0
M  V30 24572 N 2251.15 1.34492 -0.821557 0
M  V30 24573 C 2252.08 2.32079 -0.257179 0
M  V30 24574 C 2253.06 1.58177 0.625617 0
M  V30 24575 O 2254.24 1.86167 0.552779 0
M  V30 24576 C 2251.37 3.42373 0.582898 0
M  V30 24577 C 2250.33 4.2752 -0.202646 0
M  V30 24578 C 2249.65 5.2927 0.760086 0
M  V30 24579 C 2250.95 5.02906 -1.41007 0
M  V30 24580 H 2252.65 2.79531 -1.07252 0
M  V30 24581 H 2250.19 1.34392 -0.517187 0
M  V30 24582 H 2252.15 4.09657 0.9879 0
M  V30 24583 H 2250.87 2.93568 1.43128 0
M  V30 24584 H 2249.53 3.61837 -0.589 0
M  V30 24585 H 2249.18 4.76727 1.60438 0
M  V30 24586 H 2248.88 5.87115 0.238706 0
M  V30 24587 H 2250.4 5.99422 1.16297 0
M  V30 24588 H 2251.81 5.63052 -1.07915 0
M  V30 24589 H 2250.21 5.70319 -1.86699 0
M  V30 24590 H 2251.28 4.3268 -2.18897 0
M  V30 24591 N 2252.62 0.576397 1.46681 0
M  V30 24592 C 2253.87 0.057318 2.01619 0
M  V30 24593 C 2254.19 -1.30815 1.45419 0
M  V30 24594 O 2255.39 -1.91822 1.92137 0
M  V30 24595 C 2253.85 0.0519003 3.59863 0
M  V30 24596 C 2253.46 1.4153 4.25057 0
M  V30 24597 C 2255.2 -0.413565 4.22481 0
M  V30 24598 C 2253.11 1.36795 5.75362 0
M  V30 24599 H 2252.04 0.017658 0.753793 0
M  V30 24600 H 2254.69 0.727106 1.6848 0
M  V30 24601 H 2253.07 -0.683925 3.90049 0
M  V30 24602 H 2254.24 2.17036 4.06488 0
M  V30 24603 H 2252.56 1.82027 3.74507 0
M  V30 24604 H 2255.16 -0.467685 5.32651 0
M  V30 24605 H 2255.5 -1.42975 3.90978 0
M  V30 24606 H 2256.03 0.267999 3.96896 0
M  V30 24607 H 2252.77 2.36074 6.11514 0
M  V30 24608 H 2252.29 0.655 5.96213 0
M  V30 24609 H 2253.97 1.07816 6.37953 0
M  V30 24610 N 2254.1 -1.54444 0.313841 0
M  V30 24611 C 2255.51 -1.85867 -0.176211 0
M  V30 24612 C 2255.86 -1.23563 -1.52402 0
M  V30 24613 O 2254.99 -0.538053 -2.09604 0
M  V30 24614 C 2255.58 -3.37223 -0.32651 0
M  V30 24615 C 2254.14 -3.68631 -0.760781 0
M  V30 24616 C 2253.29 -2.77026 0.123296 0
M  V30 24617 H 2256.24 -1.4943 0.534444 0
M  V30 24618 H 2256.26 -3.62418 -1.15902 0
M  V30 24619 H 2255.77 -3.8254 0.654598 0
M  V30 24620 H 2253.88 -3.28841 -1.75198 0
M  V30 24621 H 2253.99 -4.75682 -0.571269 0
M  V30 24622 H 2252.35 -2.51547 -0.399552 0
M  V30 24623 H 2253.14 -3.25166 1.10099 0
M  V30 24624 N 2255.58 -0.0418125 -1.57545 0
M  V30 24625 C 2256.51 0.933891 -2.14011 0
M  V30 24626 C 2257.49 1.33082 -1.0594 0
M  V30 24627 O 2258.68 1.40719 -1.33835 0
M  V30 24628 C 2255.81 2.21194 -2.67751 0
M  V30 24629 C 2254.76 1.95538 -3.80722 0
M  V30 24630 C 2254.09 3.29717 -4.20941 0
M  V30 24631 C 2255.39 1.28443 -5.06261 0
M  V30 24632 H 2257.08 0.463593 -2.95789 0
M  V30 24633 H 2254.63 0.221548 -1.42286 0
M  V30 24634 H 2256.58 2.89843 -3.05891 0
M  V30 24635 H 2255.3 2.70413 -1.83151 0
M  V30 24636 H 2253.96 1.29304 -3.4304 0
M  V30 24637 H 2253.61 3.76719 -3.33305 0
M  V30 24638 H 2253.31 3.13352 -4.97076 0
M  V30 24639 H 2254.83 3.99612 -4.61673 0
M  V30 24640 H 2256.25 1.87111 -5.41906 0
M  V30 24641 H 2254.65 1.22434 -5.87477 0
M  V30 24642 H 2255.72 0.259134 -4.84207 0
M  V30 24643 N 2257.06 1.55891 0.231477 0
M  V30 24644 C 2258.3 1.78707 0.958738 0
M  V30 24645 C 2258.64 0.609757 1.84379 0
M  V30 24646 O 2257.91 -0.391392 1.90521 0
M  V30 24647 C 2258.2 3.11529 1.80614 0
M  V30 24648 C 2258.05 4.39691 0.948251 0
M  V30 24649 C 2259.37 3.40708 2.78579 0
M  V30 24650 H 2256.49 0.650137 0.347118 0
M  V30 24651 H 2259.13 1.88624 0.228226 0
M  V30 24652 H 2257.28 3.03205 2.42897 0
M  V30 24653 H 2258.95 4.60024 0.342936 0
M  V30 24654 H 2257.19 4.3306 0.253237 0
M  V30 24655 H 2257.86 5.29044 1.57533 0
M  V30 24656 H 2260.34 3.49095 2.26433 0
M  V30 24657 H 2259.22 4.34832 3.34981 0
M  V30 24658 H 2259.48 2.62381 3.55821 0
M  V30 24659 N 2258.54 -0.497781 1.49532 0
M  V30 24660 C 2259.77 -1.27379 1.62659 0
M  V30 24661 C 2260.17 -1.8683 0.298521 0
M  V30 24662 O 2259.52 -1.68726 -0.726441 0
M  V30 24663 C 2259.58 -2.44088 2.63934 0
M  V30 24664 C 2259.24 -2.05482 4.08199 0
M  V30 24665 C 2260.24 -1.5927 4.94903 0
M  V30 24666 C 2257.93 -2.15018 4.53952 0
M  V30 24667 C 2259.92 -1.23102 6.254 0
M  V30 24668 C 2257.61 -1.78462 5.84461 0
M  V30 24669 C 2258.6 -1.32579 6.70009 0
M  V30 24670 O 2258.29 -0.965187 7.98085 0
M  V30 24671 H 2258.02 -0.392424 0.550436 0
M  V30 24672 H 2260.58 -0.603767 1.96326 0
M  V30 24673 H 2258.81 -3.14177 2.25454 0
M  V30 24674 H 2260.5 -3.06108 2.66557 0
M  V30 24675 H 2261.26 -1.51346 4.60781 0
M  V30 24676 H 2257.14 -2.49683 3.8753 0
M  V30 24677 H 2260.69 -0.872177 6.92126 0
M  V30 24678 H 2256.58 -1.86037 6.1811 0
M  V30 24679 H 2257.35 -1.09638 8.11124 0
M  V30 24680 N 2260.01 -1.38661 -0.749062 0
M  V30 24681 C 2260.92 -1.38497 -1.89356 0
M  V30 24682 C 2261.94 -0.281506 -1.71708 0
M  V30 24683 O 2263.12 -0.520678 -1.94553 0
M  V30 24684 C 2260.18 -1.21322 -3.2478 0
M  V30 24685 C 2259.24 -2.41514 -3.54922 0
M  V30 24686 C 2258.48 -2.25148 -4.83884 0
M  V30 24687 O 2258.7 -1.24756 -5.5659 0
M  V30 24688 O 2257.63 -3.13835 -5.13606 0
M  V30 24689 H 2261.46 -2.34942 -1.92448 0
M  V30 24690 H 2259.04 -1.19628 -0.89496 0
M  V30 24691 H 2260.93 -1.13821 -4.05737 0
M  V30 24692 H 2259.6 -0.279649 -3.2249 0
M  V30 24693 H 2258.51 -2.5459 -2.74107 0
M  V30 24694 H 2259.84 -3.33516 -3.61977 0
M  V30 24695 N 2261.49 0.977736 -1.23605 0
M  V30 24696 C 2262.43 2.07315 -0.977405 0
M  V30 24697 C 2263.44 1.62725 0.0495559 0
M  V30 24698 O 2264.63 1.77525 -0.186292 0
M  V30 24699 C 2261.73 3.35882 -0.451275 0
M  V30 24700 C 2260.9 4.0943 -1.53903 0
M  V30 24701 C 2259.96 5.16273 -1.01731 0
M  V30 24702 O 2258.99 5.43006 -1.70686 0
M  V30 24703 N 2260.19 5.80297 0.153492 0
M  V30 24704 H 2262.95 2.30079 -1.92051 0
M  V30 24705 H 2260.51 1.14463 -1.14499 0
M  V30 24706 H 2262.51 4.04606 -0.0872286 0
M  V30 24707 H 2261.08 3.10065 0.397314 0
M  V30 24708 H 2260.3 3.35123 -2.07572 0
M  V30 24709 H 2261.58 4.55333 -2.27045 0
M  V30 24710 H 2260.98 5.60967 0.730224 0
M  V30 24711 H 2259.54 6.50183 0.458777 0
M  V30 24712 N 2262.97 1.04818 1.1769 0
M  V30 24713 C 2264.22 0.757143 1.88136 0
M  V30 24714 C 2264.55 -0.713809 1.80606 0
M  V30 24715 O 2263.83 -1.52162 1.21149 0
M  V30 24716 C 2264.11 1.23346 3.38316 0
M  V30 24717 C 2263.96 2.76707 3.54617 0
M  V30 24718 C 2265.28 0.829491 4.32212 0
M  V30 24719 H 2262.4 0.276522 0.683158 0
M  V30 24720 H 2265.04 1.30151 1.38422 0
M  V30 24721 H 2263.19 0.770352 3.80786 0
M  V30 24722 H 2264.86 3.31113 3.21188 0
M  V30 24723 H 2263.11 3.16167 2.9702 0
M  V30 24724 H 2263.78 3.05096 4.60022 0
M  V30 24725 H 2266.25 1.22812 3.97563 0
M  V30 24726 H 2265.13 1.19043 5.35836 0
M  V30 24727 H 2265.39 -0.266814 4.41294 0
M  V30 24728 N 2264.45 -1.34055 0.828678 0
M  V30 24729 C 2265.36 -2.33191 0.256766 0
M  V30 24730 C 2266.38 -1.62887 -0.611869 0
M  V30 24731 O 2267.55 -1.94614 -0.518406 0
M  V30 24732 C 2264.62 -3.42029 -0.567178 0
M  V30 24733 C 2263.68 -4.28072 0.324534 0
M  V30 24734 C 2262.91 -5.31712 -0.460181 0
M  V30 24735 O 2263.13 -5.44699 -1.6929 0
M  V30 24736 O 2262.07 -6.01686 0.160497 0
M  V30 24737 H 2265.89 -2.83945 1.07744 0
M  V30 24738 H 2263.48 -1.37216 0.590954 0
M  V30 24739 H 2265.36 -4.08473 -1.03575 0
M  V30 24740 H 2264.04 -2.93509 -1.36508 0
M  V30 24741 H 2262.94 -3.64531 0.840723 0
M  V30 24742 H 2264.28 -4.80048 1.08694 0
M  V30 24743 N 2265.93 -0.584167 -1.46374 0
M  V30 24744 C 2267.17 -0.0704072 -2.02678 0
M  V30 24745 C 2267.51 1.28676 -1.45452 0
M  V30 24746 O 2266.78 1.84348 -0.620172 0
M  V30 24747 C 2267.06 -0.00621004 -3.60099 0
M  V30 24748 C 2266.92 -1.39238 -4.27707 0
M  V30 24749 C 2268.24 0.693666 -4.34599 0
M  V30 24750 H 2265.36 -0.0270599 -0.736503 0
M  V30 24751 H 2268 -0.751646 -1.745 0
M  V30 24752 H 2266.15 0.573942 -3.84237 0
M  V30 24753 H 2267.82 -2.01781 -4.14828 0
M  V30 24754 H 2266.06 -1.95969 -3.87013 0
M  V30 24755 H 2266.73 -1.29991 -5.36476 0
M  V30 24756 H 2269.21 0.200796 -4.15615 0
M  V30 24757 H 2268.09 0.707618 -5.4432 0
M  V30 24758 H 2268.35 1.75526 -4.05762 0
M  V30 24759 N 2267.41 1.54275 -0.322027 0
M  V30 24760 C 2268.34 2.21776 0.578632 0
M  V30 24761 C 2269.35 1.21724 1.08107 0
M  V30 24762 O 2270.54 1.48202 0.994912 0
M  V30 24763 C 2267.64 2.86735 1.80656 0
M  V30 24764 C 2266.81 4.12909 1.44307 0
M  V30 24765 C 2265.87 4.61476 2.52837 0
M  V30 24766 O 2264.9 5.26194 2.17045 0
M  V30 24767 N 2266.1 4.35573 3.8374 0
M  V30 24768 H 2268.86 2.997 0.000656767 0
M  V30 24769 H 2266.43 1.61248 -0.14516 0
M  V30 24770 H 2268.42 3.16149 2.52649 0
M  V30 24771 H 2266.99 2.12525 2.29242 0
M  V30 24772 H 2266.21 3.90276 0.554837 0
M  V30 24773 H 2267.5 4.95025 1.17589 0
M  V30 24774 H 2266.89 3.83769 4.15618 0
M  V30 24775 H 2265.45 4.69646 4.51969 0
M  V30 24776 N 2268.88 0.0501669 1.5752 0
M  V30 24777 C 2269.83 -0.924566 2.11472 0
M  V30 24778 C 2270.8 -1.30949 1.02184 0
M  V30 24779 O 2271.99 -1.39914 1.29726 0
M  V30 24780 C 2269.13 -2.19446 2.66341 0
M  V30 24781 C 2268.24 -1.86411 3.89711 0
M  V30 24782 C 2267.37 -3.07851 4.32899 0
M  V30 24783 C 2266.41 -2.70733 5.48972 0
M  V30 24784 N 2265.55 -3.84863 5.87218 0
M  V30 24785 H 2270.39 -0.457588 2.94466 0
M  V30 24786 H 2267.93 -0.214241 1.45532 0
M  V30 24787 H 2269.88 -2.93753 2.96252 0
M  V30 24788 H 2268.51 -2.63723 1.86146 0
M  V30 24789 H 2267.57 -1.02257 3.66398 0
M  V30 24790 H 2268.88 -1.55088 4.74077 0
M  V30 24791 H 2268.03 -3.90458 4.64357 0
M  V30 24792 H 2266.77 -3.42352 3.47342 0
M  V30 24793 H 2265.78 -1.86542 5.17187 0
M  V30 24794 H 2267 -2.37425 6.36244 0
M  V30 24795 H 2264.95 -4.19166 5.04614 0
M  V30 24796 H 2264.86 -3.57235 6.66273 0
M  V30 24797 H 2266.13 -4.68113 6.2329 0
M  V30 24798 N 2270.36 -1.56011 -0.223207 0
M  V30 24799 C 2271.29 -1.88764 -1.30003 0
M  V30 24800 C 2272.31 -0.775771 -1.43128 0
M  V30 24801 O 2273.5 -1.05406 -1.44055 0
M  V30 24802 C 2270.6 -2.0797 -2.67585 0
M  V30 24803 C 2269.77 -3.38978 -2.76428 0
M  V30 24804 C 2268.83 -3.47636 -3.95013 0
M  V30 24805 O 2267.85 -4.20679 -3.83429 0
M  V30 24806 N 2269.06 -2.78658 -5.09245 0
M  V30 24807 H 2271.82 -2.81724 -1.02233 0
M  V30 24808 H 2269.38 -1.56537 -0.41325 0
M  V30 24809 H 2271.37 -2.11079 -3.45294 0
M  V30 24810 H 2269.94 -1.21643 -2.87961 0
M  V30 24811 H 2269.16 -3.47981 -1.8521 0
M  V30 24812 H 2270.45 -4.25283 -2.79305 0
M  V30 24813 H 2269.85 -2.1909 -5.21552 0
M  V30 24814 H 2268.41 -2.87431 -5.85002 0
M  V30 24815 N 2271.84 0.489844 -1.49794 0
M  V30 24816 C 2273.09 1.24508 -1.6008 0
M  V30 24817 C 2273.42 1.91998 -0.291642 0
M  V30 24818 O 2272.69 1.81249 0.705615 0
M  V30 24819 C 2272.98 2.3034 -2.76795 0
M  V30 24820 C 2272.83 1.67279 -4.17538 0
M  V30 24821 C 2274.15 3.31812 -2.89117 0
M  V30 24822 H 2271.27 0.451314 -0.582653 0
M  V30 24823 H 2273.91 0.54158 -1.82118 0
M  V30 24824 H 2272.06 2.90342 -2.58135 0
M  V30 24825 H 2273.73 1.11018 -4.47742 0
M  V30 24826 H 2271.97 0.976503 -4.22666 0
M  V30 24827 H 2272.65 2.44094 -4.95098 0
M  V30 24828 H 2275.12 2.81813 -3.06138 0
M  V30 24829 H 2274 4.03212 -3.7244 0
M  V30 24830 H 2274.26 3.94812 -1.98937 0
M  V30 24831 N 2273.32 1.39056 0.741698 0
M  V30 24832 C 2274.25 1.39969 1.86898 0
M  V30 24833 C 2275.23 0.263949 1.6804 0
M  V30 24834 O 2276.41 0.468788 1.88457 0
M  V30 24835 C 2273.54 1.2358 3.24569 0
M  V30 24836 C 2272.5 2.34484 3.58052 0
M  V30 24837 C 2271.82 2.03189 4.94589 0
M  V30 24838 C 2273.12 3.7678 3.6171 0
M  V30 24839 H 2274.82 2.34305 1.86391 0
M  V30 24840 H 2272.36 1.12781 0.895341 0
M  V30 24841 H 2274.32 1.22841 4.03098 0
M  V30 24842 H 2273.04 0.257103 3.25586 0
M  V30 24843 H 2271.7 2.34428 2.81849 0
M  V30 24844 H 2271.35 1.03774 4.92179 0
M  V30 24845 H 2271.05 2.77474 5.17959 0
M  V30 24846 H 2272.57 2.04089 5.75482 0
M  V30 24847 H 2273.99 3.78802 4.30328 0
M  V30 24848 H 2272.38 4.50369 3.96595 0
M  V30 24849 H 2273.45 4.08239 2.61665 0
M  V30 24850 N 2274.8 -0.971167 1.24121 0
M  V30 24851 C 2276.07 -1.68878 0.986897 0
M  V30 24852 C 2276.45 -2.05291 -0.491821 0
M  V30 24853 O 2275.8 -1.75333 -1.46528 0
M  V30 24854 C 2276.01 -2.92334 1.90635 0
M  V30 24855 C 2277.36 -3.6465 2.17522 0
M  V30 24856 O 2278.38 -3.02385 1.8826 0
M  V30 24857 O 2277.24 -4.76726 2.67198 0
M  V30 24858 H 2274.34 -0.738127 0.372957 0
M  V30 24859 H 2276.88 -1.02557 1.35204 0
M  V30 24860 H 2275.65 -2.62092 2.90557 0
M  V30 24861 H 2275.28 -3.6639 1.54415 0
M  V30 24862 N 2276.27 -1.05441 -1.17133 0
M  V30 24863 C 2277.2 -0.678688 -2.23419 0
M  V30 24864 C 2278.19 0.324731 -1.66972 0
M  V30 24865 O 2279.37 0.201768 -1.93149 0
M  V30 24866 C 2276.5 -0.055271 -3.47256 0
M  V30 24867 C 2275.45 -0.983723 -4.16542 0
M  V30 24868 C 2274.78 -0.224055 -5.3423 0
M  V30 24869 C 2276.08 -2.30898 -4.68491 0
M  V30 24870 H 2277.77 -1.56726 -2.55103 0
M  V30 24871 H 2275.32 -0.755019 -1.22619 0
M  V30 24872 H 2277.27 0.219386 -4.20829 0
M  V30 24873 H 2276 0.868264 -3.14847 0
M  V30 24874 H 2274.66 -1.24299 -3.44885 0
M  V30 24875 H 2274.3 0.702325 -4.98073 0
M  V30 24876 H 2274 -0.842729 -5.81525 0
M  V30 24877 H 2275.53 0.0432598 -6.10585 0
M  V30 24878 H 2276.94 -2.09405 -5.33688 0
M  V30 24879 H 2275.34 -2.88185 -5.26374 0
M  V30 24880 H 2276.41 -2.94579 -3.85164 0
M  V30 24881 N 2277.75 1.33613 -0.835776 0
M  V30 24882 C 2278.68 2.31794 -0.28178 0
M  V30 24883 C 2279.66 1.58832 0.608805 0
M  V30 24884 O 2280.85 1.86742 0.533002 0
M  V30 24885 C 2277.98 3.42972 0.546552 0
M  V30 24886 C 2276.93 4.27281 -0.247979 0
M  V30 24887 C 2276.26 5.30046 0.703907 0
M  V30 24888 C 2277.56 5.01382 -1.46333 0
M  V30 24889 H 2279.25 2.78377 -1.10211 0
M  V30 24890 H 2276.8 1.33836 -0.531412 0
M  V30 24891 H 2278.75 4.10681 0.944395 0
M  V30 24892 H 2277.48 2.95069 1.40006 0
M  V30 24893 H 2276.13 3.61192 -0.627345 0
M  V30 24894 H 2275.78 4.78402 1.55373 0
M  V30 24895 H 2275.48 5.87335 0.176421 0
M  V30 24896 H 2277.01 6.00622 1.09933 0
M  V30 24897 H 2278.42 5.61875 -1.13881 0
M  V30 24898 H 2276.82 5.68306 -1.92738 0
M  V30 24899 H 2277.89 4.30334 -2.23474 0
M  V30 24900 N 2279.23 0.591922 1.46062 0
M  V30 24901 C 2280.18 -0.136029 2.30399 0
M  V30 24902 C 2281.15 -0.875214 1.41171 0
M  V30 24903 O 2282.33 -0.86406 1.70114 0
M  V30 24904 C 2279.47 -1.13775 3.25806 0
M  V30 24905 C 2278.59 -0.401062 4.30134 0
M  V30 24906 C 2277.72 -1.39112 5.12661 0
M  V30 24907 C 2276.76 -0.641355 6.08731 0
M  V30 24908 N 2275.9 -1.57992 6.84093 0
M  V30 24909 H 2280.74 0.589195 2.92117 0
M  V30 24910 H 2278.27 0.302367 1.43959 0
M  V30 24911 H 2280.23 -1.73149 3.79572 0
M  V30 24912 H 2278.86 -1.83058 2.65875 0
M  V30 24913 H 2277.91 0.307893 3.79152 0
M  V30 24914 H 2279.23 0.184652 4.98458 0
M  V30 24915 H 2278.38 -2.05739 5.70751 0
M  V30 24916 H 2277.12 -2.01076 4.44319 0
M  V30 24917 H 2276.12 0.0386385 5.49786 0
M  V30 24918 H 2277.35 -0.0269751 6.79095 0
M  V30 24919 H 2275.29 -2.1875 6.18453 0
M  V30 24920 H 2275.21 -1.04725 7.48711 0
M  V30 24921 H 2276.48 -2.23626 7.46734 0
M  V30 24922 N 2280.71 -1.54102 0.330204 0
M  V30 24923 C 2281.94 -2.04805 -0.271748 0
M  V30 24924 C 2282.35 -1.20561 -1.45814 0
M  V30 24925 O 2281.69 -0.230632 -1.82246 0
M  V30 24926 C 2281.75 -3.51306 -0.763176 0
M  V30 24927 C 2281.42 -4.56002 0.301785 0
M  V30 24928 C 2282.41 -5.07246 1.14008 0
M  V30 24929 C 2280.1 -5.00263 0.451881 0
M  V30 24930 C 2282.09 -6.01318 2.11413 0
M  V30 24931 C 2279.78 -5.94149 1.42935 0
M  V30 24932 C 2280.78 -6.44563 2.25893 0
M  V30 24933 O 2280.46 -7.36604 3.21978 0
M  V30 24934 H 2280.2 -0.673448 -0.0586812 0
M  V30 24935 H 2282.75 -1.99798 0.47643 0
M  V30 24936 H 2280.98 -3.53733 -1.56238 0
M  V30 24937 H 2282.67 -3.85049 -1.28421 0
M  V30 24938 H 2283.44 -4.73825 1.03513 0
M  V30 24939 H 2279.31 -4.60633 -0.183963 0
M  V30 24940 H 2282.86 -6.40592 2.76203 0
M  V30 24941 H 2278.76 -6.26986 1.5349 0
M  V30 24942 H 2279.52 -7.54498 3.17294 0
M  V30 24943 N 2282.19 -0.0585199 -1.57491 0
M  V30 24944 C 2283.12 0.91114 -2.1499 0
M  V30 24945 C 2284.1 1.3195 -1.07346 0
M  V30 24946 O 2285.28 1.39292 -1.3532 0
M  V30 24947 C 2282.41 2.18342 -2.70082 0
M  V30 24948 C 2281.37 1.91489 -3.82774 0
M  V30 24949 C 2280.69 3.25234 -4.24414 0
M  V30 24950 C 2281.99 1.23066 -5.07594 0
M  V30 24951 H 2283.69 0.432194 -2.96264 0
M  V30 24952 H 2281.23 0.206444 -1.42512 0
M  V30 24953 H 2283.19 2.86582 -3.08948 0
M  V30 24954 H 2281.91 2.68455 -1.86009 0
M  V30 24955 H 2280.57 1.25658 -3.44392 0
M  V30 24956 H 2280.22 3.73162 -3.37282 0
M  V30 24957 H 2279.92 3.08062 -5.00371 0
M  V30 24958 H 2281.44 3.94693 -4.65886 0
M  V30 24959 H 2282.85 1.81353 -5.4386 0
M  V30 24960 H 2281.25 1.16197 -5.88743 0
M  V30 24961 H 2282.32 0.207762 -4.84455 0
M  V30 24962 N 2283.66 1.56128 0.21493 0
M  V30 24963 C 2284.91 1.79713 0.93973 0
M  V30 24964 C 2285.24 0.629279 1.83722 0
M  V30 24965 O 2284.52 -0.371163 1.90926 0
M  V30 24966 C 2284.8 3.13427 1.773 0
M  V30 24967 C 2284.65 4.40672 0.901562 0
M  V30 24968 C 2285.97 3.43643 2.7495 0
M  V30 24969 H 2283.09 0.653782 0.340203 0
M  V30 24970 H 2285.73 1.88856 0.208207 0
M  V30 24971 H 2283.88 3.05764 2.39667 0
M  V30 24972 H 2285.56 4.60361 0.294125 0
M  V30 24973 H 2283.8 4.33304 0.207291 0
M  V30 24974 H 2284.47 5.30685 1.51913 0
M  V30 24975 H 2286.95 3.51477 2.22717 0
M  V30 24976 H 2285.82 4.38361 3.3035 0
M  V30 24977 H 2286.08 2.66141 3.53018 0
M  V30 24978 N 2285.14 -0.481893 1.50052 0
M  V30 24979 C 2286.39 -1.23147 1.59743 0
M  V30 24980 C 2286.7 -1.93314 0.298197 0
M  V30 24981 O 2287.91 -2.70115 0.273883 0
M  V30 24982 C 2286.37 -2.23703 2.8193 0
M  V30 24983 C 2285.97 -1.59389 4.18688 0
M  V30 24984 C 2287.72 -2.9937 3.00962 0
M  V30 24985 C 2285.63 -2.58168 5.32074 0
M  V30 24986 H 2284.56 -0.46333 0.594846 0
M  V30 24987 H 2287.21 -0.503138 1.76467 0
M  V30 24988 H 2285.59 -2.99782 2.58741 0
M  V30 24989 H 2286.76 -0.891732 4.52089 0
M  V30 24990 H 2285.08 -0.960432 4.05172 0
M  V30 24991 H 2287.67 -3.73277 3.82843 0
M  V30 24992 H 2288.02 -3.58119 2.12265 0
M  V30 24993 H 2288.55 -2.30406 3.24281 0
M  V30 24994 H 2285.29 -2.04173 6.22891 0
M  V30 24995 H 2284.81 -3.26568 5.03104 0
M  V30 24996 H 2286.49 -3.20216 5.62202 0
M  V30 24997 N 2286.62 -1.39448 -0.734313 0
M  V30 24998 C 2287.9 -1.27217 -1.48577 0
M  V30 24999 C 2288.28 0.117931 -2.1077 0
M  V30 25000 O 2287.63 1.12921 -1.98648 0
M  V30 25001 C 2287.84 -2.397 -2.53663 0
M  V30 25002 C 2289.18 -2.7905 -3.20026 0
M  V30 25003 O 2290.21 -2.39155 -2.63976 0
M  V30 25004 O 2289.07 -3.47912 -4.21449 0
M  V30 25005 H 2286.16 -0.498582 -0.659807 0
M  V30 25006 H 2288.71 -1.51323 -0.76808 0
M  V30 25007 H 2287.48 -3.3263 -2.0609 0
M  V30 25008 H 2287.1 -2.17264 -3.3299 0
M  V30 25009 N 2288.1 0.964571 -1.24635 0
M  V30 25010 C 2289.05 2.08094 -1.03921 0
M  V30 25011 C 2290.04 1.69379 0.0268283 0
M  V30 25012 O 2291.25 1.79544 -0.127984 0
M  V30 25013 H 2287.62 0.680961 -0.319055 0
M  V30 25014 H 2289.59 2.22725 -1.98585 0
M  V30 25015 C 2288.34 3.413 -0.664043 0
M  V30 25016 H 2287.66 3.71552 -1.47611 0
M  V30 25017 H 2289.1 4.20302 -0.558737 0
M  V30 25018 C 2287.56 3.30974 0.629111 0
M  V30 25019 O 2288.09 3.65159 1.67398 0
M  V30 25020 N 2286.3 2.84104 0.611007 0
M  V30 25021 H 2285.85 2.56483 -0.239639 0
M  V30 25022 H 2285.8 2.77577 1.47642 0
M  V30 25023 N 2289.58 1.0606 1.16572 0
M  V30 25024 C 2290.52 0.669301 2.20882 0
M  V30 25025 C 2291.49 -0.332889 1.6273 0
M  V30 25026 O 2292.68 -0.222313 1.895 0
M  V30 25027 C 2289.82 0.0594178 3.45049 0
M  V30 25028 C 2288.93 1.1115 4.17456 0
M  V30 25029 C 2288.07 0.468009 5.29134 0
M  V30 25030 C 2287.11 1.50379 5.9334 0
M  V30 25031 N 2286.24 0.883828 6.96515 0
M  V30 25032 H 2291.08 1.56324 2.53706 0
M  V30 25033 H 2288.62 0.781647 1.24614 0
M  V30 25034 H 2290.58 -0.311698 4.16034 0
M  V30 25035 H 2289.21 -0.797937 3.12782 0
M  V30 25036 H 2288.26 1.60035 3.45099 0
M  V30 25037 H 2289.57 1.89739 4.61303 0
M  V30 25038 H 2288.73 0.0437937 6.06684 0
M  V30 25039 H 2287.46 -0.349778 4.86444 0
M  V30 25040 H 2286.47 1.93793 5.14514 0
M  V30 25041 H 2287.69 2.32363 6.3811 0
M  V30 25042 H 2285.64 0.0867103 6.55943 0
M  V30 25043 H 2285.56 1.60713 7.3872 0
M  V30 25044 H 2286.83 0.48468 7.77992 0
M  V30 25045 N 2291.06 -1.33168 0.84285 0
M  V30 25046 C 2292.33 -1.92216 0.36225 0
M  V30 25047 C 2292.71 -1.7684 -1.15286 0
M  V30 25048 O 2292.06 -1.15922 -1.96912 0
M  V30 25049 C 2292.27 -3.39385 0.813554 0
M  V30 25050 C 2293.62 -4.1653 0.823877 0
M  V30 25051 O 2294.64 -3.48054 0.757419 0
M  V30 25052 O 2293.5 -5.38781 0.915288 0
M  V30 25053 H 2290.6 -0.820519 0.103331 0
M  V30 25054 H 2293.14 -1.42015 0.928967 0
M  V30 25055 H 2291.91 -3.44466 1.8563 0
M  V30 25056 H 2291.54 -3.96971 0.22363 0
M  V30 25057 N 2292.53 -0.599659 -1.45746 0
M  V30 25058 C 2293.48 0.136386 -2.322 0
M  V30 25059 C 2294.48 0.867557 -1.45498 0
M  V30 25060 O 2295.68 0.784022 -1.62028 0
M  V30 25061 H 2292.06 0.0628457 -0.749369 0
M  V30 25062 H 2294.03 -0.611333 -2.92071 0
M  V30 25063 C 2292.78 1.12561 -3.28976 0
M  V30 25064 H 2292.1 0.572414 -3.95681 0
M  V30 25065 H 2293.54 1.6107 -3.92215 0
M  V30 25066 C 2292 2.19518 -2.55565 0
M  V30 25067 O 2292.53 3.27139 -2.33116 0
M  V30 25068 N 2290.73 1.94586 -2.15835 0
M  V30 25069 H 2290.28 1.07074 -2.34292 0
M  V30 25070 H 2290.24 2.66356 -1.67039 0
M  V30 25071 N 2294.01 1.53925 -0.338371 0
M  V30 25072 C 2294.92 2.28549 0.52938 0
M  V30 25073 C 2295.94 1.33461 1.11642 0
M  V30 25074 O 2297.11 1.66494 1.13322 0
M  V30 25075 C 2294.18 3.03989 1.66707 0
M  V30 25076 C 2293.24 4.14693 1.11034 0
M  V30 25077 C 2292.47 4.86526 2.19381 0
M  V30 25078 O 2292.7 4.57988 3.40005 0
M  V30 25079 O 2291.63 5.73097 1.83966 0
M  V30 25080 H 2295.46 3.03602 -0.0770932 0
M  V30 25081 H 2293.04 1.4904 -0.103582 0
M  V30 25082 H 2294.92 3.51184 2.32912 0
M  V30 25083 H 2293.6 2.31798 2.25945 0
M  V30 25084 H 2292.5 3.71814 0.412958 0
M  V30 25085 H 2293.84 4.88971 0.562889 0
M  V30 25086 N 2295.49 0.0668712 1.57458 0
M  V30 25087 C 2296.44 -0.919814 2.1364 0
M  V30 25088 C 2297.43 -1.31161 1.07206 0
M  V30 25089 O 2298.64 -1.28943 1.25593 0
M  V30 25090 H 2295.01 -0.31455 0.683054 0
M  V30 25091 H 2296.98 -0.420995 2.95415 0
M  V30 25092 C 2295.73 -2.1797 2.70896 0
M  V30 25093 H 2295.06 -1.88705 3.52463 0
M  V30 25094 H 2296.5 -2.85132 3.13808 0
M  V30 25095 C 2294.95 -2.93493 1.65419 0
M  V30 25096 O 2295.48 -3.87014 1.07626 0
M  V30 25097 N 2293.69 -2.5651 1.36569 0
M  V30 25098 H 2293.24 -1.80533 1.83754 0
M  V30 25099 H 2293.2 -3.07345 0.662284 0
M  V30 25100 N 2296.97 -1.56239 -0.206647 0
M  V30 25101 C 2297.9 -1.96647 -1.25906 0
M  V30 25102 C 2298.88 -0.83676 -1.48096 0
M  V30 25103 O 2300.06 -1.10021 -1.60028 0
M  V30 25104 C 2297.19 -2.29603 -2.60576 0
M  V30 25105 C 2296.15 -3.45204 -2.53018 0
M  V30 25106 C 2295.47 -3.63805 -3.91854 0
M  V30 25107 C 2296.77 -4.79738 -2.06516 0
M  V30 25108 H 2298.47 -2.84807 -0.923319 0
M  V30 25109 H 2296.01 -1.37026 -0.442711 0
M  V30 25110 H 2297.97 -2.56464 -3.34371 0
M  V30 25111 H 2296.69 -1.38312 -2.95867 0
M  V30 25112 H 2295.35 -3.18415 -1.81679 0
M  V30 25113 H 2295 -2.69865 -4.24479 0
M  V30 25114 H 2294.7 -4.41567 -3.87675 0
M  V30 25115 H 2296.22 -3.93031 -4.67289 0
M  V30 25116 H 2297.64 -5.05706 -2.70063 0
M  V30 25117 H 2296.03 -5.60888 -2.13364 0
M  V30 25118 H 2297.1 -4.74095 -1.01793 0
M  V30 25119 N 2298.45 0.473929 -1.50305 0
M  V30 25120 C 2299.68 1.24775 -1.64665 0
M  V30 25121 C 2300.08 1.86332 -0.328207 0
M  V30 25122 O 2299.43 1.69861 0.699506 0
M  V30 25123 C 2299.49 2.39858 -2.67784 0
M  V30 25124 C 2299.15 1.98962 -4.11416 0
M  V30 25125 C 2300.15 1.51376 -4.97374 0
M  V30 25126 C 2297.83 2.07769 -4.57315 0
M  V30 25127 C 2299.83 1.13137 -6.27279 0
M  V30 25128 C 2297.52 1.69141 -5.87226 0
M  V30 25129 C 2298.51 1.21903 -6.72033 0
M  V30 25130 O 2298.2 0.838097 -7.99519 0
M  V30 25131 H 2297.93 0.383617 -0.556609 0
M  V30 25132 H 2300.49 0.572457 -1.97261 0
M  V30 25133 H 2298.72 3.1055 -2.30424 0
M  V30 25134 H 2300.41 3.01829 -2.71393 0
M  V30 25135 H 2301.17 1.43996 -4.63131 0
M  V30 25136 H 2297.05 2.43486 -3.91453 0
M  V30 25137 H 2300.6 0.761955 -6.93426 0
M  V30 25138 H 2296.49 1.7618 -6.20992 0
M  V30 25139 H 2297.26 0.967196 -8.12765 0
M  V30 25140 N 2299.92 1.39835 0.726907 0
M  V30 25141 C 2301.17 1.36808 1.48211 0
M  V30 25142 C 2301.49 -0.0304947 1.95576 0
M  V30 25143 O 2302.69 -0.18337 2.7088 0
M  V30 25144 C 2301.15 2.40384 2.6785 0
M  V30 25145 C 2300.76 3.85996 2.27401 0
M  V30 25146 C 2302.5 2.46445 3.45637 0
M  V30 25147 C 2300.41 4.81195 3.43811 0
M  V30 25148 H 2299.34 0.508641 0.556597 0
M  V30 25149 H 2301.99 1.65519 0.792187 0
M  V30 25150 H 2300.37 2.04755 3.38957 0
M  V30 25151 H 2301.54 4.30709 1.63788 0
M  V30 25152 H 2299.86 3.83304 1.62686 0
M  V30 25153 H 2302.46 3.1476 4.32238 0
M  V30 25154 H 2302.8 1.49146 3.88666 0
M  V30 25155 H 2303.33 2.81009 2.81565 0
M  V30 25156 H 2300.07 5.79786 3.05824 0
M  V30 25157 H 2299.59 4.41155 4.06377 0
M  V30 25158 H 2301.27 5.00481 4.10034 0
M  V30 25159 N 2301.4 -0.957948 1.25144 0
M  V30 25160 C 2302.63 -1.73689 1.12427 0
M  V30 25161 C 2303.04 -1.86029 -0.322272 0
M  V30 25162 O 2302.4 -1.35563 -1.22184 0
M  V30 25163 C 2302.45 -3.15238 1.76938 0
M  V30 25164 O 2302.17 -3.03505 3.15937 0
M  V30 25165 C 2303.67 -4.09426 1.69957 0
M  V30 25166 H 2300.89 -0.544366 0.392309 0
M  V30 25167 H 2303.44 -1.20204 1.65442 0
M  V30 25168 H 2301.59 -3.65678 1.27901 0
M  V30 25169 H 2302.01 -3.92774 3.47605 0
M  V30 25170 H 2303.48 -5.06368 2.19762 0
M  V30 25171 H 2303.96 -4.34172 0.662695 0
M  V30 25172 H 2304.56 -3.649 2.18467 0
M  V30 25173 N 2302.88 -1.06677 -1.16008 0
M  V30 25174 C 2304.13 -0.78085 -1.85972 0
M  V30 25175 C 2304.44 0.695412 -1.82821 0
M  V30 25176 O 2305.65 1.09585 -2.48402 0
M  V30 25177 C 2304.1 -1.3467 -3.33754 0
M  V30 25178 C 2303.71 -2.85349 -3.45369 0
M  V30 25179 C 2305.46 -1.1385 -4.08948 0
M  V30 25180 C 2303.36 -3.35159 -4.8726 0
M  V30 25181 H 2302.29 -0.28842 -0.696656 0
M  V30 25182 H 2304.94 -1.28597 -1.30901 0
M  V30 25183 H 2303.33 -0.769342 -3.88455 0
M  V30 25184 H 2304.5 -3.4907 -3.0081 0
M  V30 25185 H 2302.81 -3.04881 -2.83613 0
M  V30 25186 H 2305.41 -1.48549 -5.13651 0
M  V30 25187 H 2305.75 -0.0771014 -4.16229 0
M  V30 25188 H 2306.29 -1.68186 -3.60497 0
M  V30 25189 H 2303.03 -4.40795 -4.8516 0
M  V30 25190 H 2302.55 -2.76188 -5.32428 0
M  V30 25191 H 2304.23 -3.30714 -5.56091 0
M  V30 25192 N 2304.36 1.32719 -0.8499 0
M  V30 25193 C 2305.3 2.28983 -0.289073 0
M  V30 25194 C 2306.27 1.54834 0.601297 0
M  V30 25195 O 2307.46 1.83081 0.537221 0
M  V30 25196 C 2304.6 3.41151 0.520563 0
M  V30 25197 C 2303.71 4.3019 -0.395064 0
M  V30 25198 C 2302.85 5.29483 0.426741 0
M  V30 25199 C 2301.89 6.10163 -0.486583 0
M  V30 25200 N 2301.02 7.01468 0.297755 0
M  V30 25201 H 2305.86 2.76345 -1.11524 0
M  V30 25202 H 2303.4 1.35966 -0.561403 0
M  V30 25203 H 2305.36 4.049 1.00556 0
M  V30 25204 H 2303.99 2.94952 1.3116 0
M  V30 25205 H 2303.04 3.67064 -0.998425 0
M  V30 25206 H 2304.35 4.86605 -1.09621 0
M  V30 25207 H 2303.51 5.98813 0.9751 0
M  V30 25208 H 2302.25 4.73673 1.16127 0
M  V30 25209 H 2301.25 5.39741 -1.04686 0
M  V30 25210 H 2302.48 6.68058 -1.21965 0
M  V30 25211 H 2300.42 6.48093 1.01547 0
M  V30 25212 H 2300.34 7.55215 -0.34445 0
M  V30 25213 H 2301.61 7.7509 0.827994 0
M  V30 25214 N 2305.84 0.60738 1.45426 0
M  V30 25215 C 2306.77 -0.0988942 2.3329 0
M  V30 25216 C 2307.75 -0.858981 1.46818 0
M  V30 25217 O 2308.93 -0.829573 1.7559 0
M  V30 25218 C 2306.06 -1.09699 3.2952 0
M  V30 25219 C 2305.02 -0.450131 4.25626 0
M  V30 25220 C 2304.34 -1.55646 5.11545 0
M  V30 25221 C 2305.64 0.628546 5.18504 0
M  V30 25222 H 2307.34 0.634767 2.92594 0
M  V30 25223 H 2304.88 0.306706 1.40696 0
M  V30 25224 H 2306.84 -1.59964 3.89858 0
M  V30 25225 H 2305.56 -1.86124 2.68375 0
M  V30 25226 H 2304.22 0.0316531 3.66586 0
M  V30 25227 H 2303.87 -2.31099 4.46769 0
M  V30 25228 H 2303.57 -1.12915 5.76649 0
M  V30 25229 H 2305.09 -2.06138 5.74752 0
M  V30 25230 H 2306.5 0.209978 5.72915 0
M  V30 25231 H 2304.9 0.977593 5.92084 0
M  V30 25232 H 2305.97 1.50522 4.60946 0
M  V30 25233 N 2307.31 -1.53743 0.34653 0
M  V30 25234 C 2308.24 -2.28059 -0.501153 0
M  V30 25235 C 2309.23 -1.29736 -1.10011 0
M  V30 25236 O 2310.41 -1.58583 -1.12094 0
M  V30 25237 C 2307.54 -3.05562 -1.65073 0
M  V30 25238 C 2306.49 -4.11413 -1.17996 0
M  V30 25239 C 2305.82 -4.76889 -2.41829 0
M  V30 25240 C 2307.12 -5.21558 -0.278303 0
M  V30 25241 H 2308.81 -2.99164 0.118803 0
M  V30 25242 H 2306.36 -1.43881 0.0585784 0
M  V30 25243 H 2308.31 -3.56291 -2.25022 0
M  V30 25244 H 2307.04 -2.32113 -2.29763 0
M  V30 25245 H 2305.7 -3.61602 -0.603268 0
M  V30 25246 H 2305.34 -4.00031 -3.04933 0
M  V30 25247 H 2305.04 -5.48405 -2.1101 0
M  V30 25248 H 2306.57 -5.30403 -3.02499 0
M  V30 25249 H 2307.98 -5.67904 -0.784723 0
M  V30 25250 H 2306.38 -6.00068 -0.0618652 0
M  V30 25251 H 2307.45 -4.80041 0.684761 0
M  V30 25252 N 2308.79 -0.0752207 -1.5742 0
M  V30 25253 C 2310.07 0.634296 -1.8503 0
M  V30 25254 C 2310.45 1.8758 -0.968338 0
M  V30 25255 O 2309.8 2.28472 -0.035515 0
M  V30 25256 C 2310.01 0.968683 -3.35287 0
M  V30 25257 C 2311.36 1.3407 -4.02878 0
M  V30 25258 O 2312.38 1.06031 -3.40053 0
M  V30 25259 O 2311.24 1.86497 -5.13694 0
M  V30 25260 H 2308.33 0.315374 -0.764505 0
M  V30 25261 H 2310.88 -0.106412 -1.69366 0
M  V30 25262 H 2309.65 0.0870688 -3.91203 0
M  V30 25263 H 2309.27 1.76604 -3.56226 0
M  V30 25264 N 2310.27 1.56347 0.198358 0
M  V30 25265 C 2311.68 1.70382 0.763328 0
M  V30 25266 C 2312.03 0.681236 1.83994 0
M  V30 25267 O 2311.16 -0.163012 2.15785 0
M  V30 25268 C 2311.75 3.08911 1.39137 0
M  V30 25269 C 2310.31 3.24723 1.90347 0
M  V30 25270 C 2309.46 2.66332 0.772187 0
M  V30 25271 H 2312.41 1.58678 -0.0266656 0
M  V30 25272 H 2312.43 3.06059 2.2607 0
M  V30 25273 H 2311.94 3.83315 0.607571 0
M  V30 25274 H 2310.04 2.5523 2.71456 0
M  V30 25275 H 2310.16 4.32194 2.0675 0
M  V30 25276 H 2308.52 2.25422 1.18562 0
M  V30 25277 H 2309.3 3.433 0.000675217 0
M  V30 25278 N 2311.75 -0.465951 1.50554 0
M  V30 25279 C 2313 -1.21765 1.61801 0
M  V30 25280 C 2313.32 -1.91837 0.320729 0
M  V30 25281 O 2312.58 -1.82993 -0.693692 0
M  V30 25282 C 2312.88 -2.28088 2.75156 0
M  V30 25283 C 2312.54 -1.75232 4.15457 0
M  V30 25284 C 2311.21 -1.60538 4.53631 0
M  V30 25285 C 2313.56 -1.36075 5.03123 0
M  V30 25286 C 2310.89 -1.05118 5.77206 0
M  V30 25287 C 2313.24 -0.820946 6.27251 0
M  V30 25288 C 2311.9 -0.660678 6.64222 0
M  V30 25289 H 2311.17 -0.445571 0.59207 0
M  V30 25290 H 2313.82 -0.512895 1.84504 0
M  V30 25291 H 2312.12 -3.04491 2.46561 0
M  V30 25292 H 2313.82 -2.86018 2.8106 0
M  V30 25293 H 2310.41 -1.87637 3.85344 0
M  V30 25294 H 2314.59 -1.46259 4.74259 0
M  V30 25295 H 2309.85 -0.914513 6.04522 0
M  V30 25296 H 2314.02 -0.508895 6.94538 0
M  V30 25297 H 2311.65 -0.229092 7.59855 0
M  V30 25298 N 2313.23 -1.40218 -0.719481 0
M  V30 25299 C 2314.64 -1.34153 -1.29846 0
M  V30 25300 C 2314.99 -0.0131694 -1.96196 0
M  V30 25301 O 2314.11 0.888885 -1.97301 0
M  V30 25302 C 2314.71 -2.42972 -2.36114 0
M  V30 25303 C 2313.27 -2.40379 -2.89646 0
M  V30 25304 C 2312.41 -2.24052 -1.63389 0
M  V30 25305 H 2315.37 -1.50081 -0.515884 0
M  V30 25306 H 2315.39 -2.10655 -3.16867 0
M  V30 25307 H 2314.9 -3.39639 -1.87794 0
M  V30 25308 H 2313 -1.47398 -3.42206 0
M  V30 25309 H 2313.11 -3.3582 -3.41705 0
M  V30 25310 H 2311.48 -1.71499 -1.88309 0
M  V30 25311 H 2312.26 -3.22712 -1.17099 0
M  V30 25312 N 2314.7 0.951297 -1.25651 0
M  V30 25313 C 2315.98 1.67286 -1.01364 0
M  V30 25314 C 2316.36 2.06047 0.459099 0
M  V30 25315 O 2315.71 1.77642 1.4372 0
M  V30 25316 C 2315.92 2.89264 -1.95262 0
M  V30 25317 C 2317.27 3.61143 -2.23296 0
M  V30 25318 O 2318.29 2.99352 -1.93046 0
M  V30 25319 O 2317.15 4.72414 -2.74749 0
M  V30 25320 H 2314.24 0.7321 -0.384653 0
M  V30 25321 H 2316.79 1.00393 -1.36819 0
M  V30 25322 H 2315.56 2.57437 -2.9469 0
M  V30 25323 H 2315.19 3.63887 -1.60224 0
M  V30 25324 N 2316.18 1.07291 1.1544 0
M  V30 25325 C 2317.13 0.662505 2.18162 0
M  V30 25326 C 2318.12 -0.312047 1.57845 0
M  V30 25327 O 2319.31 -0.125873 1.76552 0
M  V30 25328 C 2316.44 0.0611898 3.43245 0
M  V30 25329 C 2315.52 1.06084 4.10618 0
M  V30 25330 N 2315.91 2.24016 4.53487 0
M  V30 25331 C 2314.21 0.894041 4.36947 0
M  V30 25332 C 2314.91 2.87431 5.05726 0
M  V30 25333 N 2313.89 2.151 4.99232 0
M  V30 25334 H 2317.69 1.56072 2.49036 0
M  V30 25335 H 2315.21 0.946012 1.32001 0
M  V30 25336 H 2317.2 -0.250718 4.16145 0
M  V30 25337 H 2315.86 -0.832152 3.13856 0
M  V30 25338 H 2316.87 2.61737 4.46894 0
M  V30 25339 H 2313.55 0.0535427 4.17466 0
M  V30 25340 H 2314.94 3.87562 5.48858 0
M  V30 25341 N 2317.66 -1.32267 0.856927 0
M  V30 25342 C 2318.91 -1.97465 0.462104 0
M  V30 25343 C 2319.24 -1.67644 -0.980269 0
M  V30 25344 O 2318.51 -0.965888 -1.68822 0
M  V30 25345 C 2318.8 -3.53143 0.704398 0
M  V30 25346 C 2318.65 -3.92587 2.19536 0
M  V30 25347 C 2319.97 -4.39801 0.162278 0
M  V30 25348 H 2317.09 -0.717275 0.169369 0
M  V30 25349 H 2319.73 -1.56612 1.07577 0
M  V30 25350 H 2317.88 -3.88073 0.182067 0
M  V30 25351 H 2319.55 -3.67824 2.78394 0
M  V30 25352 H 2317.8 -3.41664 2.67298 0
M  V30 25353 H 2318.47 -5.01084 2.31557 0
M  V30 25354 H 2320.94 -4.1162 0.608978 0
M  V30 25355 H 2319.82 -5.47709 0.361361 0
M  V30 25356 H 2320.08 -4.32098 -0.935082 0
M  V30 25357 N 2319.14 -0.615084 -1.45102 0
M  V30 25358 C 2320.38 -0.113382 -2.02483 0
M  V30 25359 C 2320.72 1.25561 -1.48149 0
M  V30 25360 O 2319.99 1.82991 -0.659136 0
M  V30 25361 C 2320.28 -0.0825911 -3.60005 0
M  V30 25362 C 2320.13 -1.48279 -4.24657 0
M  V30 25363 C 2321.45 0.601325 -4.35973 0
M  V30 25364 H 2318.57 -0.0426761 -0.735763 0
M  V30 25365 H 2321.21 -0.788491 -1.72866 0
M  V30 25366 H 2319.36 0.49231 -3.85368 0
M  V30 25367 H 2321.03 -2.10534 -4.10455 0
M  V30 25368 H 2319.27 -2.04134 -3.82769 0
M  V30 25369 H 2319.94 -1.41342 -5.33598 0
M  V30 25370 H 2322.42 0.112593 -4.15948 0
M  V30 25371 H 2321.3 0.592001 -5.45698 0
M  V30 25372 H 2321.56 1.66879 -4.09394 0
M  V30 25373 N 2320.62 1.53557 -0.354678 0
M  V30 25374 C 2321.86 2.01092 0.238408 0
M  V30 25375 C 2322.19 1.24225 1.49661 0
M  V30 25376 O 2321.45 0.321037 1.93049 0
M  V30 25377 C 2321.75 3.52546 0.587059 0
M  V30 25378 C 2321.41 4.47212 -0.57555 0
M  V30 25379 C 2320.07 4.72811 -0.89458 0
M  V30 25380 C 2322.43 5.03279 -1.35498 0
M  V30 25381 C 2319.75 5.51732 -1.99521 0
M  V30 25382 C 2322.11 5.83401 -2.44593 0
M  V30 25383 C 2320.77 6.07292 -2.77044 0
M  V30 25384 H 2320.04 0.735847 0.0872397 0
M  V30 25385 H 2322.69 1.85259 -0.484892 0
M  V30 25386 H 2320.99 3.66268 1.39123 0
M  V30 25387 H 2322.69 3.86791 1.05802 0
M  V30 25388 H 2319.28 4.27427 -0.316849 0
M  V30 25389 H 2323.46 4.83457 -1.12176 0
M  V30 25390 H 2318.72 5.68465 -2.25073 0
M  V30 25391 H 2322.89 6.25857 -3.05412 0
M  V30 25392 H 2320.52 6.68231 -3.62452 0
M  V30 25393 N 2322.1 0.083568 1.57378 0
M  V30 25394 C 2323.04 -0.879502 2.13386 0
M  V30 25395 C 2324.01 -1.28752 1.04939 0
M  V30 25396 O 2325.2 -1.3713 1.32665 0
M  V30 25397 C 2322.34 -2.13747 2.70936 0
M  V30 25398 C 2321.45 -1.78103 3.93578 0
M  V30 25399 C 2320.59 -2.98599 4.39331 0
M  V30 25400 C 2319.62 -2.59027 5.54591 0
M  V30 25401 N 2318.76 -3.72321 5.95249 0
M  V30 25402 H 2323.6 -0.395024 2.9537 0
M  V30 25403 H 2321.14 -0.183323 1.45953 0
M  V30 25404 H 2323.1 -2.87403 3.02416 0
M  V30 25405 H 2321.73 -2.59715 1.91698 0
M  V30 25406 H 2320.78 -0.944625 3.68485 0
M  V30 25407 H 2322.09 -1.44997 4.7726 0
M  V30 25408 H 2321.24 -3.80521 4.72535 0
M  V30 25409 H 2319.98 -3.34907 3.54526 0
M  V30 25410 H 2318.99 -1.7553 5.21027 0
M  V30 25411 H 2320.21 -2.23876 6.41137 0
M  V30 25412 H 2318.16 -4.08369 5.13392 0
M  V30 25413 H 2318.08 -3.43022 6.737 0
M  V30 25414 H 2319.34 -4.54786 6.3308 0
M  V30 25415 N 2323.57 -1.5645 -0.190064 0
M  V30 25416 C 2324.85 -1.71759 -0.935856 0
M  V30 25417 C 2325.23 -0.639761 -2.01172 0
M  V30 25418 O 2324.58 0.348462 -2.25827 0
M  V30 25419 C 2324.79 -3.14272 -1.51769 0
M  V30 25420 C 2326.14 -3.7466 -1.99788 0
M  V30 25421 O 2327.16 -3.17432 -1.61602 0
M  V30 25422 O 2326.02 -4.75104 -2.7007 0
M  V30 25423 H 2323.11 -0.700727 -0.439216 0
M  V30 25424 H 2325.66 -1.68749 -0.179365 0
M  V30 25425 H 2324.43 -3.84192 -0.742438 0
M  V30 25426 H 2324.05 -3.21531 -2.33888 0
M  V30 25427 N 2325.05 0.45796 -1.50799 0
M  V30 25428 C 2325.98 1.56207 -1.73556 0
M  V30 25429 C 2326.96 1.59731 -0.584802 0
M  V30 25430 O 2328.15 1.75789 -0.825345 0
M  V30 25431 C 2325.28 2.94444 -1.84175 0
M  V30 25432 C 2324.23 3.05784 -2.99466 0
M  V30 25433 C 2323.56 4.45798 -2.95243 0
M  V30 25434 C 2324.86 2.81778 -4.39771 0
M  V30 25435 H 2326.55 1.37416 -2.66002 0
M  V30 25436 H 2324.1 0.659639 -1.28003 0
M  V30 25437 H 2326.05 3.71625 -1.98678 0
M  V30 25438 H 2324.77 3.1442 -0.8836 0
M  V30 25439 H 2323.43 2.31039 -2.84634 0
M  V30 25440 H 2323.08 4.62712 -1.97248 0
M  V30 25441 H 2322.78 4.54319 -3.72649 0
M  V30 25442 H 2324.31 5.24981 -3.11813 0
M  V30 25443 H 2325.72 3.48702 -4.5506 0
M  V30 25444 H 2324.12 3.01731 -5.18727 0
M  V30 25445 H 2325.19 1.77532 -4.51232 0
M  V30 25446 N 2326.53 1.40598 0.712035 0
M  V30 25447 C 2327.95 1.22706 1.02056 0
M  V30 25448 C 2328.15 0.104764 2.01227 0
M  V30 25449 O 2327.2 -0.536197 2.46741 0
M  V30 25450 C 2328.51 2.57015 1.56089 0
M  V30 25451 C 2330.06 2.64057 1.68056 0
M  V30 25452 C 2330.54 3.98644 2.25494 0
M  V30 25453 N 2332.03 4.00404 2.32875 0
M  V30 25454 C 2332.76 5.0133 2.78308 0
M  V30 25455 N 2332.26 6.1265 3.23468 0
M  V30 25456 N 2334.05 4.88698 2.77725 0
M  V30 25457 H 2326.2 2.12329 0.0547523 0
M  V30 25458 H 2328.47 0.94401 0.0868861 0
M  V30 25459 H 2328.17 3.39809 0.906806 0
M  V30 25460 H 2328.05 2.78352 2.54559 0
M  V30 25461 H 2330.43 1.81633 2.3258 0
M  V30 25462 H 2330.51 2.46548 0.681759 0
M  V30 25463 H 2330.16 4.81509 1.6159 0
M  V30 25464 H 2330.09 4.13485 3.26094 0
M  V30 25465 H 2332.58 3.20021 2.00985 0
M  V30 25466 H 2332.89 6.85548 3.56713 0
M  V30 25467 H 2331.24 6.16211 3.21418 0
M  V30 25468 H 2334.43 4.00823 2.41783 0
M  V30 25469 H 2334.6 5.67495 3.12816 0
M  V30 25470 N 2328.01 -0.94462 1.26153 0
M  V30 25471 C 2329.26 -1.68485 1.10886 0
M  V30 25472 C 2329.57 -1.92477 -0.348119 0
M  V30 25473 O 2330.78 -2.64293 -0.621412 0
M  V30 25474 C 2329.23 -3.03374 1.93629 0
M  V30 25475 C 2328.84 -2.87142 3.4388 0
M  V30 25476 C 2330.58 -3.81112 1.8696 0
M  V30 25477 C 2328.49 -4.17482 4.18882 0
M  V30 25478 H 2327.42 -0.6319 0.411362 0
M  V30 25479 H 2330.07 -1.0508 1.50434 0
M  V30 25480 H 2328.45 -3.67741 1.46911 0
M  V30 25481 H 2329.63 -2.31646 3.98342 0
M  V30 25482 H 2327.94 -2.2285 3.51748 0
M  V30 25483 H 2330.54 -4.77669 2.40284 0
M  V30 25484 H 2330.88 -4.07746 0.83959 0
M  V30 25485 H 2331.42 -3.23513 2.31483 0
M  V30 25486 H 2328.15 -3.96034 5.22339 0
M  V30 25487 H 2327.67 -4.72705 3.69201 0
M  V30 25488 H 2329.35 -4.85961 4.27143 0
M  V30 25489 N 2329.49 -1.07901 -1.1487 0
M  V30 25490 C 2330.71 -0.826863 -1.89659 0
M  V30 25491 C 2331.13 0.620488 -1.78313 0
M  V30 25492 O 2330.49 1.42602 -1.1389 0
M  V30 25493 C 2330.54 -1.23322 -3.39815 0
M  V30 25494 O 2330.26 -2.62379 -3.50841 0
M  V30 25495 C 2331.76 -1.01118 -4.31613 0
M  V30 25496 H 2328.98 -0.298567 -0.600915 0
M  V30 25497 H 2331.52 -1.43694 -1.45507 0
M  V30 25498 H 2329.68 -0.667353 -3.81609 0
M  V30 25499 H 2330.09 -2.79108 -4.44071 0
M  V30 25500 H 2331.57 -1.34495 -5.35364 0
M  V30 25501 H 2332.04 0.0521396 -4.39169 0
M  V30 25502 H 2332.65 -1.56222 -3.95569 0
M  V30 25503 N 2330.96 1.31811 -0.863929 0
M  V30 25504 C 2331.9 2.27574 -0.272525 0
M  V30 25505 C 2332.91 1.52828 0.561013 0
M  V30 25506 O 2334.1 1.74321 0.383991 0
M  V30 25507 C 2331.2 3.3294 0.632771 0
M  V30 25508 C 2330.37 4.37081 -0.166979 0
M  V30 25509 C 2329.43 5.21974 0.665516 0
M  V30 25510 O 2328.46 5.6912 0.0957091 0
M  V30 25511 N 2329.66 5.45739 1.9786 0
M  V30 25512 H 2332.42 2.78963 -1.09544 0
M  V30 25513 H 2329.98 1.44769 -0.724816 0
M  V30 25514 H 2331.98 3.86647 1.19526 0
M  V30 25515 H 2330.55 2.81641 1.35637 0
M  V30 25516 H 2329.77 3.83531 -0.910906 0
M  V30 25517 H 2331.05 5.03737 -0.715963 0
M  V30 25518 H 2330.45 5.09182 2.46475 0
M  V30 25519 H 2329.01 6.02405 2.48901 0
M  V30 25520 N 2332.44 0.62277 1.44773 0
M  V30 25521 C 2333.37 -0.125445 2.28856 0
M  V30 25522 C 2334.39 -0.817044 1.40813 0
M  V30 25523 O 2335.58 -0.679889 1.65045 0
M  V30 25524 C 2332.68 -1.19944 3.16965 0
M  V30 25525 C 2331.85 -0.591988 4.33375 0
M  V30 25526 C 2330.91 -1.55884 5.0258 0
M  V30 25527 O 2329.93 -1.07923 5.58875 0
M  V30 25528 N 2331.14 -2.89325 5.03261 0
M  V30 25529 H 2333.9 0.596119 2.93712 0
M  V30 25530 H 2331.46 0.46333 1.55129 0
M  V30 25531 H 2333.45 -1.84638 3.60126 0
M  V30 25532 H 2332.02 -1.82333 2.53916 0
M  V30 25533 H 2331.24 0.233391 3.93508 0
M  V30 25534 H 2332.53 -0.166649 5.08527 0
M  V30 25535 H 2331.93 -3.30879 4.58842 0
M  V30 25536 H 2330.49 -3.49402 5.50238 0
M  V30 25537 N 2333.92 -1.53367 0.362817 0
M  V30 25538 C 2334.87 -2.25647 -0.484968 0
M  V30 25539 C 2335.84 -1.26212 -1.0798 0
M  V30 25540 O 2337.02 -1.54988 -1.11281 0
M  V30 25541 C 2334.16 -3.04703 -1.62018 0
M  V30 25542 C 2333.27 -4.19026 -1.05079 0
M  V30 25543 C 2332.41 -4.85529 -2.15488 0
M  V30 25544 C 2331.45 -5.91887 -1.56 0
M  V30 25545 N 2330.59 -6.52093 -2.60229 0
M  V30 25546 H 2335.43 -2.97681 0.137916 0
M  V30 25547 H 2332.96 -1.46883 0.0798319 0
M  V30 25548 H 2334.92 -3.48811 -2.28881 0
M  V30 25549 H 2333.55 -2.34931 -2.21376 0
M  V30 25550 H 2332.6 -3.79423 -0.272524 0
M  V30 25551 H 2333.91 -4.95465 -0.575839 0
M  V30 25552 H 2333.07 -5.32806 -2.90177 0
M  V30 25553 H 2331.81 -4.08556 -2.66333 0
M  V30 25554 H 2330.81 -5.43974 -0.798243 0
M  V30 25555 H 2332.04 -6.70779 -1.05982 0
M  V30 25556 H 2329.98 -5.77974 -3.10294 0
M  V30 25557 H 2329.9 -7.24063 -2.17413 0
M  V30 25558 H 2331.17 -7.0402 -3.34629 0
M  V30 25559 N 2335.4 -0.091913 -1.57332 0
M  V30 25560 C 2336.65 0.572215 -1.93413 0
M  V30 25561 C 2336.96 1.69536 -0.975545 0
M  V30 25562 O 2338.17 2.42042 -1.22995 0
M  V30 25563 C 2336.62 1.06924 -3.4365 0
M  V30 25564 C 2336.23 -0.0239837 -4.47994 0
M  V30 25565 C 2337.97 1.70628 -3.88698 0
M  V30 25566 C 2335.88 0.488215 -5.89381 0
M  V30 25567 H 2334.81 0.217519 -0.721943 0
M  V30 25568 H 2337.46 -0.167401 -1.82735 0
M  V30 25569 H 2335.84 1.86244 -3.4947 0
M  V30 25570 H 2337.02 -0.799357 -4.53814 0
M  V30 25571 H 2335.33 -0.566018 -4.12535 0
M  V30 25572 H 2337.93 2.10016 -4.91729 0
M  V30 25573 H 2338.27 2.57421 -3.2717 0
M  V30 25574 H 2338.81 0.978955 -3.85566 0
M  V30 25575 H 2335.55 -0.343021 -6.54602 0
M  V30 25576 H 2335.07 1.23066 -5.87039 0
M  V30 25577 H 2336.74 0.958205 -6.39865 0
M  V30 25578 N 2336.88 1.56548 0.181765 0
M  V30 25579 C 2337.82 1.95597 1.22518 0
M  V30 25580 C 2338.79 0.818398 1.44539 0
M  V30 25581 O 2339.98 1.07766 1.57452 0
M  V30 25582 C 2337.12 2.31216 2.56189 0
M  V30 25583 C 2336.23 3.58101 2.41635 0
M  V30 25584 C 2335.37 3.82981 3.68102 0
M  V30 25585 C 2334.41 5.03248 3.48436 0
M  V30 25586 N 2333.54 5.24314 4.66947 0
M  V30 25587 H 2338.38 2.8455 0.885176 0
M  V30 25588 H 2335.92 1.40806 0.425694 0
M  V30 25589 H 2337.88 2.49888 3.34084 0
M  V30 25590 H 2336.51 1.45387 2.88206 0
M  V30 25591 H 2335.56 3.47403 1.5497 0
M  V30 25592 H 2336.87 4.46153 2.23045 0
M  V30 25593 H 2336.03 4.01964 4.54434 0
M  V30 25594 H 2334.76 2.93285 3.8966 0
M  V30 25595 H 2333.77 4.84175 2.6049 0
M  V30 25596 H 2334.99 5.94466 3.2831 0
M  V30 25597 H 2332.94 4.37567 4.88744 0
M  V30 25598 H 2332.86 6.06569 4.51231 0
M  V30 25599 H 2334.13 5.47766 5.54592 0
M  V30 25600 N 2338.35 -0.449957 1.5104 0
M  V30 25601 C 2339.58 -1.2214 1.6663 0
M  V30 25602 C 2339.99 -1.85786 0.357809 0
M  V30 25603 O 2339.34 -1.70952 -0.672394 0
M  V30 25604 C 2339.4 -2.35568 2.71566 0
M  V30 25605 C 2339.06 -1.92391 4.14529 0
M  V30 25606 C 2340.06 -1.43444 4.9972 0
M  V30 25607 C 2337.74 -2.00467 4.60563 0
M  V30 25608 C 2339.74 -1.03144 6.28999 0
M  V30 25609 C 2337.42 -1.59778 5.89843 0
M  V30 25610 C 2338.42 -1.11196 6.73887 0
M  V30 25611 O 2338.11 -0.710794 8.00751 0
M  V30 25612 H 2337.84 -0.374714 0.562642 0
M  V30 25613 H 2340.4 -0.541001 1.98147 0
M  V30 25614 H 2338.63 -3.06845 2.35336 0
M  V30 25615 H 2340.32 -2.97473 2.76161 0
M  V30 25616 H 2341.08 -1.3661 4.65363 0
M  V30 25617 H 2336.96 -2.37228 3.95277 0
M  V30 25618 H 2340.5 -0.651541 6.94551 0
M  V30 25619 H 2336.4 -1.66278 6.23716 0
M  V30 25620 H 2337.17 -0.83777 8.14201 0
M  V30 25621 N 2339.83 -1.40974 -0.704569 0
M  V30 25622 C 2341.06 -1.4338 -1.49856 0
M  V30 25623 C 2341.48 -0.0382171 -1.88061 0
M  V30 25624 O 2340.84 0.956398 -1.54022 0
M  V30 25625 C 2340.89 -2.34043 -2.74329 0
M  V30 25626 O 2339.99 -1.79127 -3.71466 0
M  V30 25627 H 2339.33 -0.486982 -0.451381 0
M  V30 25628 H 2341.86 -1.85331 -0.8668 0
M  V30 25629 H 2341.87 -2.49609 -3.22737 0
M  V30 25630 H 2340.55 -3.35451 -2.45857 0
M  V30 25631 H 2339.13 -1.72964 -3.3036 0
M  V30 25632 N 2341.31 0.937917 -1.26653 0
M  V30 25633 C 2342.73 1.21203 -1.03836 0
M  V30 25634 C 2342.93 2.00131 0.234467 0
M  V30 25635 O 2341.98 2.34241 0.942726 0
M  V30 25636 C 2343.3 1.97013 -2.27171 0
M  V30 25637 C 2344.84 2.09992 -2.32105 0
M  V30 25638 C 2345.32 2.89204 -3.55141 0
M  V30 25639 N 2346.81 2.96776 -3.55638 0
M  V30 25640 C 2347.54 3.58505 -4.47506 0
M  V30 25641 N 2347.04 4.21707 -5.49668 0
M  V30 25642 N 2348.83 3.55809 -4.35151 0
M  V30 25643 H 2340.98 0.410354 -2.08398 0
M  V30 25644 H 2343.25 0.244098 -0.916035 0
M  V30 25645 H 2342.95 1.46428 -3.19768 0
M  V30 25646 H 2342.83 2.97667 -2.31677 0
M  V30 25647 H 2345.21 2.59766 -1.4002 0
M  V30 25648 H 2345.3 1.0859 -2.31607 0
M  V30 25649 H 2344.94 2.40115 -4.47557 0
M  V30 25650 H 2344.87 3.90869 -3.52887 0
M  V30 25651 H 2347.36 2.51847 -2.81747 0
M  V30 25652 H 2347.67 4.66716 -6.15951 0
M  V30 25653 H 2346.02 4.20284 -5.53522 0
M  V30 25654 H 2349.21 3.05628 -3.54555 0
M  V30 25655 H 2349.38 4.03627 -5.06941 0
M  V30 25656 N 2342.79 1.08509 1.14296 0
M  V30 25657 C 2344.04 0.813795 1.84991 0
M  V30 25658 C 2344.36 -0.662361 1.83406 0
M  V30 25659 O 2343.63 -1.48022 1.28321 0
M  V30 25660 H 2342.21 0.298057 0.684961 0
M  V30 25661 H 2344.87 1.37129 1.38498 0
M  V30 25662 H 2343.97 1.15889 2.89786 0
M  V30 25663 N 2344.27 -1.31351 0.870907 0
M  V30 25664 C 2345.68 -1.78878 0.534745 0
M  V30 25665 C 2346.03 -1.71756 -0.948392 0
M  V30 25666 O 2345.15 -1.28587 -1.74053 0
M  V30 25667 C 2345.75 -3.24799 0.963896 0
M  V30 25668 C 2344.31 -3.70218 0.679376 0
M  V30 25669 C 2343.45 -2.52115 1.15469 0
M  V30 25670 H 2346.41 -1.18419 1.05653 0
M  V30 25671 H 2346.43 -3.79416 0.286958 0
M  V30 25672 H 2345.94 -3.29951 2.04338 0
M  V30 25673 H 2344.04 -3.70567 -0.388704 0
M  V30 25674 H 2344.15 -4.62315 1.25706 0
M  V30 25675 H 2342.52 -2.48138 0.574427 0
M  V30 25676 H 2343.3 -2.60012 2.24162 0
M  V30 25677 N 2345.74 -0.630439 -1.44441 0
M  V30 25678 C 2346.99 -0.134652 -2.02052 0
M  V30 25679 C 2347.32 1.24324 -1.49579 0
M  V30 25680 O 2346.57 1.83879 -0.669838 0
M  V30 25681 C 2346.87 -0.0698463 -3.57332 0
M  V30 25682 C 2346.54 -1.38643 -4.29056 0
M  V30 25683 C 2345.2 -1.74702 -4.48367 0
M  V30 25684 C 2347.55 -2.25551 -4.69868 0
M  V30 25685 C 2344.88 -2.97378 -5.0575 0
M  V30 25686 C 2347.23 -3.47497 -5.2861 0
M  V30 25687 C 2345.9 -3.8378 -5.4614 0
M  V30 25688 H 2345.17 -0.0492728 -0.73936 0
M  V30 25689 H 2347.81 -0.816617 -1.73216 0
M  V30 25690 H 2346.12 0.695485 -3.85578 0
M  V30 25691 H 2347.82 0.330273 -3.99638 0
M  V30 25692 H 2344.41 -1.09582 -4.14355 0
M  V30 25693 H 2348.59 -1.98987 -4.54662 0
M  V30 25694 H 2343.85 -3.25567 -5.1751 0
M  V30 25695 H 2348.02 -4.15073 -5.59184 0
M  V30 25696 H 2345.65 -4.78921 -5.90372 0
M  V30 25697 N 2347.22 1.53172 -0.370945 0
M  V30 25698 C 2348.45 2.06227 0.220257 0
M  V30 25699 C 2348.87 1.24228 1.41241 0
M  V30 25700 O 2348.23 0.262677 1.79387 0
M  V30 25701 C 2348.28 3.55797 0.5866 0
M  V30 25702 O 2347.38 3.76491 1.68311 0
M  V30 25703 H 2346.72 0.663285 0.0307982 0
M  V30 25704 H 2349.25 1.97533 -0.533102 0
M  V30 25705 H 2349.26 3.98917 0.8561 0
M  V30 25706 H 2347.94 4.14922 -0.285086 0
M  V30 25707 H 2346.52 3.45266 1.40875 0
M  V30 25708 N 2348.7 0.100255 1.57281 0
M  V30 25709 C 2349.63 -0.853819 2.1733 0
M  V30 25710 C 2350.61 -1.29058 1.10806 0
M  V30 25711 O 2351.8 -1.35655 1.38966 0
M  V30 25712 C 2348.93 -2.11104 2.75776 0
M  V30 25713 C 2347.88 -1.81273 3.87717 0
M  V30 25714 C 2347.21 -3.13867 4.32888 0
M  V30 25715 C 2348.51 -1.09565 5.10679 0
M  V30 25716 H 2350.2 -0.353493 2.97306 0
M  V30 25717 H 2347.75 -0.168587 1.4301 0
M  V30 25718 H 2349.7 -2.7829 3.16437 0
M  V30 25719 H 2348.42 -2.63429 1.93061 0
M  V30 25720 H 2347.08 -1.16483 3.47602 0
M  V30 25721 H 2346.73 -3.64089 3.47057 0
M  V30 25722 H 2346.43 -2.94687 5.08363 0
M  V30 25723 H 2347.95 -3.82202 4.76187 0
M  V30 25724 H 2349.37 -1.66869 5.48477 0
M  V30 25725 H 2347.77 -1.00546 5.91617 0
M  V30 25726 H 2348.84 -0.0792447 4.84835 0
M  V30 25727 N 2350.18 -1.56643 -0.17346 0
M  V30 25728 C 2351.11 -1.99273 -1.21706 0
M  V30 25729 C 2352.09 -0.867985 -1.46287 0
M  V30 25730 O 2353.28 -1.13391 -1.57658 0
M  V30 25731 C 2350.41 -2.35079 -2.55647 0
M  V30 25732 C 2349.36 -3.50494 -2.45639 0
M  V30 25733 C 2348.69 -3.72035 -3.84049 0
M  V30 25734 C 2349.99 -4.84011 -1.96293 0
M  V30 25735 H 2351.68 -2.86702 -0.8627 0
M  V30 25736 H 2349.23 -1.37934 -0.413547 0
M  V30 25737 H 2351.18 -2.63499 -3.28856 0
M  V30 25738 H 2349.9 -1.44557 -2.92867 0
M  V30 25739 H 2348.56 -3.22197 -1.74884 0
M  V30 25740 H 2348.21 -2.78808 -4.18659 0
M  V30 25741 H 2347.91 -4.49691 -3.78222 0
M  V30 25742 H 2349.43 -4.02854 -4.58847 0
M  V30 25743 H 2350.85 -5.11321 -2.59275 0
M  V30 25744 H 2349.24 -5.65288 -2.01419 0
M  V30 25745 H 2350.31 -4.76148 -0.917143 0
M  V30 25746 N 2351.66 0.44194 -1.51277 0
M  V30 25747 C 2352.57 1.56138 -1.75094 0
M  V30 25748 C 2353.58 1.62 -0.634991 0
M  V30 25749 O 2354.76 1.79327 -0.916717 0
M  V30 25750 C 2351.82 2.92155 -1.86672 0
M  V30 25751 C 2350.89 2.96447 -3.10512 0
M  V30 25752 C 2350.12 4.25977 -3.21527 0
M  V30 25753 O 2350.34 5.18101 -2.38595 0
M  V30 25754 O 2349.28 4.36459 -4.14472 0
M  V30 25755 H 2353.1 1.38956 -2.70046 0
M  V30 25756 H 2350.69 0.624476 -1.35723 0
M  V30 25757 H 2352.57 3.72887 -1.96298 0
M  V30 25758 H 2351.24 3.09474 -0.949068 0
M  V30 25759 H 2350.15 2.14687 -3.06366 0
M  V30 25760 H 2351.48 2.84072 -4.0195 0
M  V30 25761 N 2353.14 1.41345 0.697083 0
M  V30 25762 C 2354.05 1.4543 1.84085 0
M  V30 25763 C 2355.06 0.34504 1.70545 0
M  V30 25764 O 2356.24 0.592526 1.92487 0
M  V30 25765 C 2353.3 1.33292 3.20053 0
M  V30 25766 C 2352.36 2.5452 3.45713 0
M  V30 25767 C 2351.6 2.42952 4.75195 0
M  V30 25768 O 2351.82 1.45328 5.51576 0
M  V30 25769 O 2350.75 3.32681 5.01604 0
M  V30 25770 H 2354.58 2.41922 1.83595 0
M  V30 25771 H 2352.16 1.22867 0.849945 0
M  V30 25772 H 2354.05 1.28801 4.01233 0
M  V30 25773 H 2352.72 0.399146 3.2123 0
M  V30 25774 H 2351.63 2.64588 2.64469 0
M  V30 25775 H 2352.96 3.46721 3.4935 0
M  V30 25776 N 2354.61 -0.931187 1.27148 0
M  V30 25777 C 2355.86 -1.673 1.12667 0
M  V30 25778 C 2356.18 -1.92836 -0.327685 0
M  V30 25779 O 2357.38 -2.64937 -0.593345 0
M  V30 25780 C 2355.84 -3.01303 1.96836 0
M  V30 25781 C 2355.45 -2.83478 3.46906 0
M  V30 25782 C 2357.19 -3.79107 1.90992 0
M  V30 25783 C 2355.1 -4.13016 4.23287 0
M  V30 25784 H 2354.03 -0.627501 0.418041 0
M  V30 25785 H 2356.68 -1.03478 1.5154 0
M  V30 25786 H 2355.06 -3.66162 1.50803 0
M  V30 25787 H 2356.23 -2.27408 4.00777 0
M  V30 25788 H 2354.55 -2.19107 3.54092 0
M  V30 25789 H 2357.15 -4.75094 2.45337 0
M  V30 25790 H 2357.49 -4.06832 0.88279 0
M  V30 25791 H 2358.02 -3.2104 2.34901 0
M  V30 25792 H 2354.76 -3.90471 5.2651 0
M  V30 25793 H 2354.28 -4.68763 3.74194 0
M  V30 25794 H 2355.96 -4.81403 4.32273 0
M  V30 25795 N 2356.09 -1.09114 -1.13719 0
M  V30 25796 C 2357.04 -0.722258 -2.21102 0
M  V30 25797 C 2358.03 0.275344 -1.67147 0
M  V30 25798 O 2359.24 0.137144 -1.79477 0
M  V30 25799 H 2355.61 -0.215565 -0.720441 0
M  V30 25800 H 2357.59 -1.63714 -2.4948 0
M  V30 25801 C 2356.33 -0.155491 -3.47352 0
M  V30 25802 H 2355.66 -0.914314 -3.89205 0
M  V30 25803 H 2357.1 0.0647221 -4.23951 0
M  V30 25804 C 2355.56 1.10847 -3.18142 0
M  V30 25805 O 2356.09 2.19221 -3.36608 0
M  V30 25806 N 2354.29 1.02171 -2.72047 0
M  V30 25807 H 2353.84 0.139719 -2.57221 0
M  V30 25808 H 2353.8 1.86815 -2.52878 0
M  V30 25809 N 2357.57 1.30887 -0.877861 0
M  V30 25810 C 2358.52 2.2587 -0.310912 0
M  V30 25811 C 2359.5 1.50967 0.55657 0
M  V30 25812 O 2360.7 1.72371 0.402157 0
M  V30 25813 C 2357.82 3.39931 0.479762 0
M  V30 25814 C 2356.91 4.22196 -0.401407 0
M  V30 25815 N 2357.3 4.83091 -1.49856 0
M  V30 25816 C 2355.6 4.45572 -0.195246 0
M  V30 25817 C 2356.3 5.44659 -2.0426 0
M  V30 25818 N 2355.28 5.26863 -1.33852 0
M  V30 25819 H 2359.08 2.70494 -1.14935 0
M  V30 25820 H 2356.59 1.45245 -0.726483 0
M  V30 25821 H 2358.59 4.07014 0.902511 0
M  V30 25822 H 2357.25 2.96848 1.31572 0
M  V30 25823 H 2358.26 4.82516 -1.88145 0
M  V30 25824 H 2354.94 4.13106 0.604119 0
M  V30 25825 H 2356.33 6.03012 -2.96355 0
M  V30 25826 N 2359.05 0.638091 1.44105 0
M  V30 25827 C 2360.29 0.145366 2.01978 0
M  V30 25828 C 2360.62 -1.23529 1.50236 0
M  V30 25829 O 2359.88 -1.83522 0.679581 0
M  V30 25830 C 2360.18 0.0887955 3.5729 0
M  V30 25831 C 2359.84 1.40916 4.28315 0
M  V30 25832 C 2358.5 1.77077 4.47434 0
M  V30 25833 C 2360.86 2.28039 4.68666 0
M  V30 25834 C 2358.18 3.00056 5.04166 0
M  V30 25835 C 2360.54 3.50295 5.2676 0
M  V30 25836 C 2359.2 3.86671 5.44097 0
M  V30 25837 H 2358.47 0.0531931 0.739088 0
M  V30 25838 H 2361.12 0.825791 1.7278 0
M  V30 25839 H 2359.42 -0.675027 3.85941 0
M  V30 25840 H 2361.12 -0.309075 3.99807 0
M  V30 25841 H 2357.71 1.11777 4.13768 0
M  V30 25842 H 2361.89 2.01396 4.53601 0
M  V30 25843 H 2357.15 3.28307 5.15776 0
M  V30 25844 H 2361.32 4.18033 5.56975 0
M  V30 25845 H 2358.95 4.82045 5.87824 0
M  V30 25846 N 2360.53 -1.52973 0.379063 0
M  V30 25847 C 2361.46 -2.2907 -0.452665 0
M  V30 25848 C 2362.44 -1.32041 -1.07235 0
M  V30 25849 O 2363.62 -1.60925 -1.08705 0
M  V30 25850 C 2360.75 -3.08995 -1.58554 0
M  V30 25851 C 2359.71 -4.13824 -1.09243 0
M  V30 25852 C 2359.03 -4.81911 -2.31659 0
M  V30 25853 C 2360.33 -5.22031 -0.16761 0
M  V30 25854 H 2362.03 -2.98845 0.182233 0
M  V30 25855 H 2359.57 -1.43724 0.0890845 0
M  V30 25856 H 2361.52 -3.60983 -2.17414 0
M  V30 25857 H 2360.25 -2.36935 -2.24788 0
M  V30 25858 H 2358.91 -3.62801 -0.526431 0
M  V30 25859 H 2358.56 -4.06409 -2.96379 0
M  V30 25860 H 2358.26 -5.52758 -1.9933 0
M  V30 25861 H 2359.78 -5.367 -2.9118 0
M  V30 25862 H 2361.19 -5.69441 -0.664086 0
M  V30 25863 H 2359.59 -6.00064 0.065432 0
M  V30 25864 H 2360.66 -4.7848 0.786431 0
M  V30 25865 N 2362 -0.108595 -1.57225 0
M  V30 25866 C 2363.23 0.563268 -1.99605 0
M  V30 25867 C 2363.65 1.60088 -0.987591 0
M  V30 25868 O 2363.01 1.81251 0.0421369 0
M  V30 25869 C 2363.06 1.17546 -3.40904 0
M  V30 25870 O 2362.16 2.29114 -3.429 0
M  V30 25871 H 2361.5 0.141689 -0.648707 0
M  V30 25872 H 2364.03 -0.193996 -2.03678 0
M  V30 25873 H 2364.04 1.51351 -3.78889 0
M  V30 25874 H 2362.72 0.415372 -4.13821 0
M  V30 25875 H 2361.3 1.96827 -3.16723 0
M  V30 25876 N 2363.48 1.56732 0.16515 0
M  V30 25877 C 2364.73 1.82612 0.88208 0
M  V30 25878 C 2365.06 0.68741 1.81627 0
M  V30 25879 O 2364.34 -0.310234 1.9201 0
M  V30 25880 C 2364.62 3.18909 1.67239 0
M  V30 25881 C 2364.47 4.43317 0.76091 0
M  V30 25882 C 2365.79 3.52217 2.63878 0
M  V30 25883 H 2362.91 0.664275 0.319231 0
M  V30 25884 H 2365.55 1.89423 0.148019 0
M  V30 25885 H 2363.7 3.13234 2.29818 0
M  V30 25886 H 2365.37 4.61064 0.147515 0
M  V30 25887 H 2363.62 4.33745 0.069334 0
M  V30 25888 H 2364.29 5.35249 1.34953 0
M  V30 25889 H 2366.76 3.58385 2.11423 0
M  V30 25890 H 2365.64 4.48649 3.16237 0
M  V30 25891 H 2365.9 2.77237 3.44372 0
M  V30 25892 N 2364.96 -0.433911 1.51509 0
M  V30 25893 C 2366.18 -1.21 1.68445 0
M  V30 25894 C 2366.61 -1.84166 0.382669 0
M  V30 25895 O 2365.97 -1.68957 -0.65752 0
M  V30 25896 C 2366.02 -2.26722 2.80409 0
M  V30 25897 O 2365.12 -3.32288 2.44251 0
M  V30 25898 H 2364.46 -0.354353 0.561543 0
M  V30 25899 H 2366.99 -0.511989 1.9809 0
M  V30 25900 H 2367 -2.71452 3.04594 0
M  V30 25901 H 2365.68 -1.80126 3.7487 0
M  V30 25902 H 2364.25 -2.93011 2.30649 0
M  V30 25903 N 2366.44 -1.41713 -0.689577 0
M  V30 25904 C 2367.68 -1.41602 -1.45179 0
M  V30 25905 C 2368.02 -0.0270422 -1.94181 0
M  V30 25906 O 2367.29 0.946235 -1.69931 0
M  V30 25907 C 2367.58 -2.42791 -2.65941 0
M  V30 25908 C 2367.43 -3.9082 -2.22665 0
M  V30 25909 C 2368.75 -2.41158 -3.68145 0
M  V30 25910 H 2365.87 -0.515651 -0.526567 0
M  V30 25911 H 2368.51 -1.73029 -0.784917 0
M  V30 25912 H 2366.66 -2.16122 -3.22837 0
M  V30 25913 H 2368.33 -4.28415 -1.7105 0
M  V30 25914 H 2366.57 -4.05397 -1.54387 0
M  V30 25915 H 2367.24 -4.57178 -3.09342 0
M  V30 25916 H 2369.72 -2.64839 -3.20935 0
M  V30 25917 H 2368.6 -3.13963 -4.50242 0
M  V30 25918 H 2368.86 -1.43228 -4.18256 0
M  V30 25919 N 2367.92 0.924431 -1.2764 0
M  V30 25920 C 2369.15 1.704 -1.16822 0
M  V30 25921 C 2369.55 1.87159 0.277158 0
M  V30 25922 O 2368.9 1.39069 1.20023 0
M  V30 25923 C 2368.96 3.12163 -1.78311 0
M  V30 25924 C 2368.62 3.18729 -3.27507 0
M  V30 25925 C 2369.62 3.00731 -4.24095 0
M  V30 25926 C 2367.31 3.41583 -3.68275 0
M  V30 25927 C 2369.3 3.05482 -5.59428 0
M  V30 25928 C 2366.99 3.45968 -5.03736 0
M  V30 25929 C 2367.98 3.27936 -5.99122 0
M  V30 25930 O 2367.67 3.32061 -7.32114 0
M  V30 25931 H 2367.4 0.539792 -0.40694 0
M  V30 25932 H 2369.96 1.16623 -1.6908 0
M  V30 25933 H 2368.19 3.67435 -1.20534 0
M  V30 25934 H 2369.88 3.721 -1.62161 0
M  V30 25935 H 2370.64 2.82912 -3.93936 0
M  V30 25936 H 2366.52 3.54668 -2.94502 0
M  V30 25937 H 2370.07 2.91326 -6.33857 0
M  V30 25938 H 2365.96 3.63312 -5.33549 0
M  V30 25939 H 2366.73 3.48494 -7.40604 0
M  V30 25940 N 2369.39 1.09715 1.13139 0
M  V30 25941 C 2370.67 0.747334 1.8076 0
M  V30 25942 C 2371.05 -0.76723 1.96664 0
M  V30 25943 O 2370.4 -1.69073 1.53709 0
M  V30 25944 C 2370.61 1.48981 3.15604 0
M  V30 25945 C 2371.96 1.65753 3.90911 0
M  V30 25946 O 2372.98 1.45257 3.25237 0
M  V30 25947 O 2371.84 1.99679 5.08715 0
M  V30 25948 H 2368.93 0.268796 0.782098 0
M  V30 25949 H 2371.48 1.19953 1.20039 0
M  V30 25950 H 2370.25 2.52094 2.99273 0
M  V30 25951 H 2369.88 1.02998 3.84028 0
M  V30 25952 N 2370.87 -1.30419 0.88479 0
M  V30 25953 C 2371.84 -2.26413 0.356317 0
M  V30 25954 C 2372.84 -1.52793 -0.501097 0
M  V30 25955 O 2374.03 -1.71451 -0.308279 0
M  V30 25956 C 2371.16 -3.37327 -0.492256 0
M  V30 25957 H 2372.35 -2.74673 1.20393 0
M  V30 25958 H 2369.9 -1.41606 0.661632 0
M  V30 25959 H 2370.64 -2.94384 -1.36047 0
M  V30 25960 H 2370.42 -3.9191 0.121901 0
M  V30 25961 H 2371.91 -4.08779 -0.853799 0
M  V30 25962 N 2372.35 -0.645724 -1.43764 0
M  V30 25963 C 2373.28 0.0370066 -2.33471 0
M  V30 25964 C 2374.26 0.819753 -1.49044 0
M  V30 25965 O 2375.45 0.782727 -1.77727 0
M  V30 25966 C 2372.58 1.00924 -3.32313 0
M  V30 25967 C 2371.53 0.337126 -4.2667 0
M  V30 25968 C 2370.86 1.42028 -5.15492 0
M  V30 25969 C 2372.16 -0.765797 -5.16655 0
M  V30 25970 H 2373.85 -0.71212 -2.90808 0
M  V30 25971 H 2371.4 -0.343901 -1.39833 0
M  V30 25972 H 2373.35 1.49571 -3.93962 0
M  V30 25973 H 2372.07 1.78943 -2.73216 0
M  V30 25974 H 2370.73 -0.128836 -3.66374 0
M  V30 25975 H 2370.38 2.19172 -4.52739 0
M  V30 25976 H 2370.08 0.975864 -5.7944 0
M  V30 25977 H 2371.6 1.90827 -5.80015 0
M  V30 25978 H 2373.02 -0.361802 -5.72157 0
M  V30 25979 H 2371.42 -1.13423 -5.89284 0
M  V30 25980 H 2372.49 -1.62691 -4.56793 0
M  V30 25981 N 2373.83 1.5277 -0.38717 0
M  V30 25982 C 2375.24 1.86496 0.0873306 0
M  V30 25983 C 2375.59 1.30694 1.46334 0
M  V30 25984 O 2374.72 0.637445 2.06798 0
M  V30 25985 C 2375.31 3.38397 0.165245 0
M  V30 25986 C 2373.87 3.71841 0.584036 0
M  V30 25987 C 2373.02 2.76122 -0.255328 0
M  V30 25988 H 2375.97 1.4671 -0.60513 0
M  V30 25989 H 2375.99 3.67535 0.984783 0
M  V30 25990 H 2375.5 3.78981 -0.836368 0
M  V30 25991 H 2373.6 3.36825 1.59309 0
M  V30 25992 H 2373.71 4.77866 0.343665 0
M  V30 25993 H 2372.08 2.53166 0.279081 0
M  V30 25994 H 2372.86 3.19543 -1.25488 0
M  V30 25995 N 2375.31 0.116931 1.57166 0
M  V30 25996 C 2376.24 -0.83072 2.18223 0
M  V30 25997 C 2377.22 -1.27875 1.12169 0
M  V30 25998 O 2378.4 -1.34173 1.40396 0
M  V30 25999 C 2375.53 -2.08168 2.77999 0
M  V30 26000 C 2374.49 -1.7715 3.89618 0
M  V30 26001 C 2373.81 -3.09258 4.36192 0
M  V30 26002 C 2375.11 -1.04142 5.11812 0
M  V30 26003 H 2376.81 -0.32194 2.97664 0
M  V30 26004 H 2374.35 -0.153409 1.43181 0
M  V30 26005 H 2376.31 -2.74918 3.19371 0
M  V30 26006 H 2375.03 -2.61366 1.95845 0
M  V30 26007 H 2373.69 -1.1279 3.48818 0
M  V30 26008 H 2373.34 -3.60387 3.50899 0
M  V30 26009 H 2373.04 -2.89279 5.1146 0
M  V30 26010 H 2374.56 -3.7713 4.80214 0
M  V30 26011 H 2375.97 -1.61043 5.50216 0
M  V30 26012 H 2374.37 -0.942657 5.9265 0
M  V30 26013 H 2375.44 -0.027817 4.84892 0
M  V30 26014 N 2376.78 -1.56818 -0.156836 0
M  V30 26015 C 2378.01 -1.86956 -0.886283 0
M  V30 26016 C 2378.43 -0.704006 -1.75183 0
M  V30 26017 O 2377.78 0.326521 -1.79555 0
M  V30 26018 C 2377.84 -3.16257 -1.75112 0
M  V30 26019 O 2377.56 -4.28321 -0.920461 0
M  V30 26020 C 2379.06 -3.59842 -2.58899 0
M  V30 26021 H 2376.28 -0.619928 -0.256769 0
M  V30 26022 H 2378.82 -2.0393 -0.152579 0
M  V30 26023 H 2376.98 -3.01066 -2.43799 0
M  V30 26024 H 2377.39 -5.02195 -1.51329 0
M  V30 26025 H 2378.86 -4.53178 -3.15172 0
M  V30 26026 H 2379.34 -2.84655 -3.34467 0
M  V30 26027 H 2379.95 -3.77693 -1.95519 0
M  V30 26028 N 2378.26 0.425871 -1.51737 0
M  V30 26029 C 2379.68 0.763235 -1.40167 0
M  V30 26030 C 2379.88 1.95376 -0.492996 0
M  V30 26031 O 2378.93 2.52455 0.0475371 0
M  V30 26032 C 2380.25 1.03286 -2.82405 0
M  V30 26033 C 2381.8 1.13659 -2.91634 0
M  V30 26034 C 2382.27 1.43908 -4.34804 0
M  V30 26035 N 2383.76 1.50808 -4.37962 0
M  V30 26036 C 2384.5 1.75807 -5.45783 0
M  V30 26037 N 2383.99 1.98522 -6.63748 0
M  V30 26038 N 2385.79 1.77684 -5.33277 0
M  V30 26039 H 2377.94 -0.358037 -2.09361 0
M  V30 26040 H 2380.2 -0.097826 -0.942939 0
M  V30 26041 H 2379.91 0.230634 -3.50943 0
M  V30 26042 H 2379.78 1.95749 -3.22432 0
M  V30 26043 H 2382.17 1.92943 -2.23287 0
M  V30 26044 H 2382.25 0.190711 -2.55088 0
M  V30 26045 H 2381.89 0.651482 -5.03704 0
M  V30 26046 H 2381.82 2.39721 -4.68872 0
M  V30 26047 H 2384.31 1.35111 -3.52921 0
M  V30 26048 H 2384.63 2.17 -7.41708 0
M  V30 26049 H 2382.97 1.95821 -6.66843 0
M  V30 26050 H 2386.16 1.59465 -4.401 0
M  V30 26051 H 2386.33 1.96829 -6.17384 0
M  V30 26052 N 2379.74 1.42077 0.682052 0
M  V30 26053 C 2380.67 1.4777 1.80793 0
M  V30 26054 C 2381.65 0.334983 1.66769 0
M  V30 26055 O 2382.84 0.548297 1.86299 0
M  V30 26056 C 2379.97 1.37235 3.19036 0
M  V30 26057 C 2378.92 2.49459 3.47785 0
M  V30 26058 C 2378.25 2.23983 4.85526 0
M  V30 26059 C 2379.55 3.91783 3.45404 0
M  V30 26060 H 2381.24 2.42 1.76285 0
M  V30 26061 H 2378.79 1.16477 0.846701 0
M  V30 26062 H 2380.74 1.39828 3.97525 0
M  V30 26063 H 2379.46 0.394964 3.24203 0
M  V30 26064 H 2378.12 2.46171 2.71653 0
M  V30 26065 H 2377.77 1.24556 4.87334 0
M  V30 26066 H 2377.47 2.99193 5.05725 0
M  V30 26067 H 2378.99 2.28314 5.66308 0
M  V30 26068 H 2380.41 3.96712 4.13875 0
M  V30 26069 H 2378.81 4.66784 3.77137 0
M  V30 26070 H 2379.88 4.1897 2.44115 0
M  V30 26071 N 2381.22 -0.917649 1.28129 0
M  V30 26072 C 2382.13 -2.05284 1.1356 0
M  V30 26073 C 2383.15 -1.73885 0.063122 0
M  V30 26074 O 2384.32 -1.9956 0.271634 0
M  V30 26075 C 2381.39 -3.37468 0.794735 0
M  V30 26076 C 2380.45 -3.825 1.94916 0
M  V30 26077 C 2379.68 -5.08377 1.62446 0
M  V30 26078 O 2379.9 -5.67867 0.537005 0
M  V30 26079 O 2378.84 -5.49026 2.46686 0
M  V30 26080 H 2382.66 -2.20491 2.08848 0
M  V30 26081 H 2380.25 -1.03843 1.07411 0
M  V30 26082 H 2382.13 -4.16838 0.618417 0
M  V30 26083 H 2380.81 -3.23445 -0.128524 0
M  V30 26084 H 2379.71 -3.03974 2.1806 0
M  V30 26085 H 2381.05 -4.01081 2.85298 0
M  V30 26086 N 2382.7 -1.10314 -1.12555 0
M  V30 26087 C 2383.95 -0.843123 -1.83673 0
M  V30 26088 C 2384.27 0.633099 -1.84437 0
M  V30 26089 O 2383.54 1.45962 -1.3066 0
M  V30 26090 H 2382.12 -0.308916 -0.680132 0
M  V30 26091 H 2384.78 -1.39315 -1.36299 0
M  V30 26092 H 2383.87 -1.20485 -2.87906 0
M  V30 26093 N 2384.18 1.29948 -0.891694 0
M  V30 26094 C 2385.11 2.3039 -0.379838 0
M  V30 26095 C 2386.09 1.61271 0.540891 0
M  V30 26096 O 2387.27 1.88835 0.453319 0
M  V30 26097 C 2384.4 3.44982 0.400593 0
M  V30 26098 C 2383.36 4.25845 -0.42898 0
M  V30 26099 C 2382.68 5.32555 0.478463 0
M  V30 26100 C 2383.98 4.94724 -1.67467 0
M  V30 26101 H 2385.68 2.73452 -1.21919 0
M  V30 26102 H 2383.22 1.31461 -0.587698 0
M  V30 26103 H 2385.17 4.14317 0.769361 0
M  V30 26104 H 2383.9 3.00742 1.27365 0
M  V30 26105 H 2382.56 3.58207 -0.779974 0
M  V30 26106 H 2382.21 4.84561 1.34943 0
M  V30 26107 H 2381.91 5.87555 -0.0728465 0
M  V30 26108 H 2383.43 6.04744 0.843599 0
M  V30 26109 H 2384.84 5.5654 -1.3761 0
M  V30 26110 H 2383.24 5.5962 -2.16668 0
M  V30 26111 H 2384.31 4.20468 -2.41525 0
M  V30 26112 N 2385.65 0.653339 1.4342 0
M  V30 26113 C 2386.6 -0.0381866 2.30768 0
M  V30 26114 C 2387.57 -0.814551 1.44756 0
M  V30 26115 O 2388.76 -0.791131 1.73625 0
M  V30 26116 C 2385.9 -0.998541 3.30338 0
M  V30 26117 C 2385.01 -0.218266 4.31448 0
M  V30 26118 C 2384.14 -1.17243 5.181 0
M  V30 26119 C 2383.18 -0.382595 6.10903 0
M  V30 26120 N 2382.32 -1.28836 6.90178 0
M  V30 26121 H 2387.16 0.712562 2.89355 0
M  V30 26122 H 2384.7 0.363153 1.42547 0
M  V30 26123 H 2386.65 -1.56894 3.86575 0
M  V30 26124 H 2385.28 -1.71616 2.734 0
M  V30 26125 H 2384.34 0.468427 3.77505 0
M  V30 26126 H 2385.65 0.395899 4.97226 0
M  V30 26127 H 2384.8 -1.81346 5.78963 0
M  V30 26128 H 2383.54 -1.8205 4.52448 0
M  V30 26129 H 2382.55 0.271787 5.49128 0
M  V30 26130 H 2383.77 0.261076 6.78598 0
M  V30 26131 H 2381.72 -1.92323 6.27175 0
M  V30 26132 H 2381.63 -0.728755 7.52479 0
M  V30 26133 H 2382.9 -1.91753 7.55547 0
M  V30 26134 N 2387.13 -1.52563 0.395266 0
M  V30 26135 C 2388.41 -1.94086 -0.242873 0
M  V30 26136 C 2388.79 -1.33116 -1.63839 0
M  V30 26137 O 2388.14 -0.501568 -2.22927 0
M  V30 26138 C 2388.35 -3.48006 -0.263209 0
M  V30 26139 C 2389.69 -4.21772 -0.48928 0
M  V30 26140 O 2390.72 -3.54543 -0.343163 0
M  V30 26141 O 2389.58 -5.40961 -0.776074 0
M  V30 26142 H 2386.67 -0.812814 -0.152522 0
M  V30 26143 H 2389.22 -1.63619 0.450206 0
M  V30 26144 H 2387.99 -3.8473 0.714052 0
M  V30 26145 H 2387.61 -3.84794 -1.00096 0
M  V30 26146 N 2388.61 -0.125265 -1.57101 0
M  V30 26147 C 2389.54 0.819136 -2.18661 0
M  V30 26148 C 2390.52 1.27279 -1.12846 0
M  V30 26149 O 2391.71 1.33427 -1.41106 0
M  V30 26150 C 2388.84 2.0669 -2.79099 0
M  V30 26151 C 2387.79 1.75081 -3.90552 0
M  V30 26152 C 2387.12 3.0694 -4.37826 0
M  V30 26153 C 2388.42 1.01426 -5.12357 0
M  V30 26154 H 2390.11 0.30615 -2.97831 0
M  V30 26155 H 2387.66 0.145814 -1.4326 0
M  V30 26156 H 2389.61 2.73221 -3.20825 0
M  V30 26157 H 2388.33 2.60324 -1.97228 0
M  V30 26158 H 2386.99 1.10938 -3.49411 0
M  V30 26159 H 2386.64 3.58521 -3.52805 0
M  V30 26160 H 2386.34 2.86562 -5.12987 0
M  V30 26161 H 2387.86 3.74578 -4.82207 0
M  V30 26162 H 2389.28 1.58122 -5.51063 0
M  V30 26163 H 2387.67 0.911214 -5.93142 0
M  V30 26164 H 2388.74 0.00210157 -4.849 0
M  V30 26165 N 2390.09 1.56899 0.148518 0
M  V30 26166 C 2391.5 1.51529 0.501104 0
M  V30 26167 C 2391.7 0.833431 1.83456 0
M  V30 26168 O 2390.76 0.403324 2.49258 0
M  V30 26169 C 2392.07 2.96295 0.512812 0
M  V30 26170 C 2393.62 3.07226 0.598433 0
M  V30 26171 C 2394.1 4.53495 0.640818 0
M  V30 26172 N 2395.59 4.57833 0.703082 0
M  V30 26173 C 2396.32 5.68383 0.756835 0
M  V30 26174 N 2395.82 6.88507 0.770026 0
M  V30 26175 N 2397.61 5.56412 0.7976 0
M  V30 26176 H 2389.76 1.99623 -0.725567 0
M  V30 26177 H 2392.02 0.91039 -0.264374 0
M  V30 26178 H 2391.73 3.49432 -0.398753 0
M  V30 26179 H 2391.6 3.52166 1.35126 0
M  V30 26180 H 2393.99 2.54109 1.50042 0
M  V30 26181 H 2394.07 2.54401 -0.267137 0
M  V30 26182 H 2393.72 5.07249 -0.257004 0
M  V30 26183 H 2393.65 5.041 1.52286 0
M  V30 26184 H 2396.14 3.71356 0.700248 0
M  V30 26185 H 2396.45 7.68513 0.812848 0
M  V30 26186 H 2394.8 6.91071 0.737927 0
M  V30 26187 H 2397.99 4.6148 0.784454 0
M  V30 26188 H 2398.16 6.42584 0.836027 0
M  V30 26189 N 2391.57 -0.417818 1.51961 0
M  V30 26190 C 2392.98 -0.755791 1.4057 0
M  V30 26191 C 2393.18 -1.95112 0.503351 0
M  V30 26192 O 2392.24 -2.52477 -0.0341481 0
M  V30 26193 C 2393.55 -1.01787 2.82949 0
M  V30 26194 C 2395.1 -1.12111 2.92233 0
M  V30 26195 C 2395.57 -1.416 4.35561 0
M  V30 26196 N 2397.06 -1.48483 4.38756 0
M  V30 26197 C 2397.8 -1.7291 5.46708 0
M  V30 26198 N 2397.3 -1.94999 6.64791 0
M  V30 26199 N 2399.09 -1.74854 5.34212 0
M  V30 26200 H 2391.24 0.369135 2.09168 0
M  V30 26201 H 2393.5 0.102825 0.942407 0
M  V30 26202 H 2393.21 -0.212019 3.5106 0
M  V30 26203 H 2393.08 -1.94036 3.23465 0
M  V30 26204 H 2395.47 -1.91756 2.24307 0
M  V30 26205 H 2395.55 -0.17718 2.55186 0
M  V30 26206 H 2395.19 -0.62476 5.04043 0
M  V30 26207 H 2395.12 -2.37231 4.70137 0
M  V30 26208 H 2397.62 -1.33238 3.53633 0
M  V30 26209 H 2397.93 -2.13063 7.42849 0
M  V30 26210 H 2396.27 -1.92281 6.67872 0
M  V30 26211 H 2399.46 -1.57129 4.4094 0
M  V30 26212 H 2399.64 -1.93552 6.18419 0
M  V30 26213 N 2393.04 -1.42436 -0.674508 0
M  V30 26214 C 2393.98 -1.41886 -1.80003 0
M  V30 26215 C 2394.99 -0.317898 -1.59666 0
M  V30 26216 O 2396.18 -0.581003 -1.6878 0
M  V30 26217 C 2393.28 -1.19554 -3.17112 0
M  V30 26218 C 2392.45 -2.4209 -3.64295 0
M  V30 26219 C 2391.51 -2.15299 -4.80138 0
M  V30 26220 O 2390.54 -2.88502 -4.90668 0
M  V30 26221 N 2391.74 -1.1563 -5.68867 0
M  V30 26222 H 2394.5 -2.38901 -1.8096 0
M  V30 26223 H 2392.06 -1.3732 -0.857608 0
M  V30 26224 H 2394.06 -0.995486 -3.92265 0
M  V30 26225 H 2392.63 -0.310623 -3.11053 0
M  V30 26226 H 2391.85 -2.77662 -2.79817 0
M  V30 26227 H 2393.13 -3.23686 -3.92562 0
M  V30 26228 H 2392.53 -0.550864 -5.63012 0
M  V30 26229 H 2391.09 -1.01611 -6.43831 0
M  V30 26230 N 2394.52 0.910841 -1.28614 0
M  V30 26231 C 2395.45 2.0303 -1.15329 0
M  V30 26232 C 2396.43 1.70026 -0.0503222 0
M  V30 26233 O 2397.62 1.92859 -0.22783 0
M  V30 26234 C 2394.75 3.37544 -0.817403 0
M  V30 26235 C 2393.7 3.84721 -1.87547 0
M  V30 26236 C 2393.03 5.16232 -1.39314 0
M  V30 26237 C 2394.33 4.06261 -3.28251 0
M  V30 26238 H 2396.02 2.14402 -2.08979 0
M  V30 26239 H 2393.57 1.03019 -1.00614 0
M  V30 26240 H 2395.52 4.15355 -0.711224 0
M  V30 26241 H 2394.24 3.26233 0.154789 0
M  V30 26242 H 2392.9 3.09117 -1.97084 0
M  V30 26243 H 2392.55 5.01327 -0.409934 0
M  V30 26244 H 2392.25 5.48768 -2.10066 0
M  V30 26245 H 2393.78 5.96595 -1.30024 0
M  V30 26246 H 2395.19 4.74588 -3.21619 0
M  V30 26247 H 2393.59 4.50133 -3.96863 0
M  V30 26248 H 2394.66 3.10973 -3.72054 0
M  V30 26249 N 2396 1.10909 1.11969 0
M  V30 26250 C 2396.91 0.774935 2.21432 0
M  V30 26251 C 2397.93 -0.229627 1.72478 0
M  V30 26252 O 2399.1 -0.0671654 2.01288 0
M  V30 26253 C 2396.17 0.217047 3.4602 0
M  V30 26254 C 2395.23 1.27951 4.09789 0
M  V30 26255 C 2394.46 0.748148 5.2843 0
M  V30 26256 O 2394.68 -0.423733 5.68824 0
M  V30 26257 O 2393.62 1.51037 5.82642 0
M  V30 26258 H 2397.44 1.68877 2.52417 0
M  V30 26259 H 2395.03 0.884576 1.20398 0
M  V30 26260 H 2396.91 -0.089985 4.21304 0
M  V30 26261 H 2395.59 -0.669577 3.16699 0
M  V30 26262 H 2394.49 1.63947 3.36262 0
M  V30 26263 H 2395.83 2.13932 4.43276 0
M  V30 26264 N 2397.48 -1.29474 0.898573 0
M  V30 26265 C 2398.41 -2.30185 0.392051 0
M  V30 26266 C 2399.39 -1.61556 -0.532331 0
M  V30 26267 O 2400.57 -1.89073 -0.443298 0
M  V30 26268 C 2397.7 -3.4519 -0.382293 0
M  V30 26269 C 2396.66 -4.25611 0.451558 0
M  V30 26270 C 2395.98 -5.32801 -0.450214 0
M  V30 26271 C 2397.28 -4.93829 1.70088 0
M  V30 26272 H 2398.98 -2.72802 1.23367 0
M  V30 26273 H 2396.52 -1.31148 0.594661 0
M  V30 26274 H 2398.48 -4.14719 -0.747378 0
M  V30 26275 H 2397.2 -3.01413 -1.25769 0
M  V30 26276 H 2395.86 -3.57788 0.79896 0
M  V30 26277 H 2395.51 -4.8527 -1.32371 0
M  V30 26278 H 2395.21 -5.87508 0.104005 0
M  V30 26279 H 2396.73 -6.05183 -0.811516 0
M  V30 26280 H 2398.15 -5.55802 1.40559 0
M  V30 26281 H 2396.54 -5.58463 2.19633 0
M  V30 26282 H 2397.61 -4.19182 2.43752 0
M  V30 26283 N 2398.96 -0.660936 -1.43071 0
M  V30 26284 C 2399.91 0.0484299 -2.27949 0
M  V30 26285 C 2400.89 0.787222 -1.40327 0
M  V30 26286 O 2402.08 0.668417 -1.63894 0
M  V30 26287 C 2399.21 1.00876 -3.28145 0
M  V30 26288 C 2398.3 0.268034 -4.23252 0
M  V30 26289 N 2398.69 -0.719616 -5.00655 0
M  V30 26290 C 2396.99 0.508415 -4.43093 0
M  V30 26291 C 2397.69 -1.15998 -5.70017 0
M  V30 26292 N 2396.66 -0.492679 -5.41363 0
M  V30 26293 H 2400.47 -0.709329 -2.85212 0
M  V30 26294 H 2397.98 -0.488849 -1.54868 0
M  V30 26295 H 2399.98 1.53181 -3.87739 0
M  V30 26296 H 2398.64 1.76649 -2.72443 0
M  V30 26297 H 2399.65 -1.09864 -5.06113 0
M  V30 26298 H 2396.32 1.24672 -3.98451 0
M  V30 26299 H 2397.71 -1.97762 -6.42137 0
M  V30 26300 N 2400.43 1.52351 -0.403352 0
M  V30 26301 C 2401.38 2.26854 0.424972 0
M  V30 26302 C 2402.35 1.29031 1.04596 0
M  V30 26303 O 2403.54 1.57884 1.07132 0
M  V30 26304 C 2400.68 3.08892 1.53882 0
M  V30 26305 C 2399.79 4.21664 0.939322 0
M  V30 26306 C 2398.92 4.91072 2.02539 0
M  V30 26307 C 2397.96 5.95815 1.40252 0
M  V30 26308 N 2397.1 6.58763 2.42849 0
M  V30 26309 H 2401.94 2.9721 -0.216793 0
M  V30 26310 H 2399.48 1.4662 -0.118747 0
M  V30 26311 H 2401.44 3.54757 2.19552 0
M  V30 26312 H 2400.07 2.40717 2.1507 0
M  V30 26313 H 2399.12 3.80012 0.171831 0
M  V30 26314 H 2400.43 4.96818 0.444273 0
M  V30 26315 H 2399.58 5.40312 2.75948 0
M  V30 26316 H 2398.32 4.15473 2.55408 0
M  V30 26317 H 2397.33 5.459 0.653737 0
M  V30 26318 H 2398.55 6.73353 0.881601 0
M  V30 26319 H 2396.5 5.85998 2.94861 0
M  V30 26320 H 2396.42 7.29573 1.98139 0
M  V30 26321 H 2397.68 7.12644 3.15845 0
M  V30 26322 N 2401.91 0.133594 1.57033 0
M  V30 26323 C 2403.19 -0.565187 1.87257 0
M  V30 26324 C 2403.57 -1.83857 1.03729 0
M  V30 26325 O 2402.92 -2.28183 0.120287 0
M  V30 26326 C 2403.13 -0.843576 3.38651 0
M  V30 26327 C 2404.48 -1.19025 4.07576 0
M  V30 26328 O 2405.5 -0.933368 3.43754 0
M  V30 26329 O 2404.36 -1.67303 5.20262 0
M  V30 26330 H 2401.45 -0.286783 0.775683 0
M  V30 26331 H 2404 0.169198 1.68854 0
M  V30 26332 H 2402.77 0.0581836 3.91257 0
M  V30 26333 H 2402.39 -1.63261 3.62535 0
M  V30 26334 N 2403.39 -1.56975 -0.140195 0
M  V30 26335 C 2404.32 -1.9539 -1.19814 0
M  V30 26336 C 2405.34 -0.85055 -1.38815 0
M  V30 26337 O 2406.52 -1.12894 -1.38265 0
M  V30 26338 C 2403.62 -2.21862 -2.56185 0
M  V30 26339 C 2402.8 -3.53154 -2.58071 0
M  V30 26340 C 2401.86 -3.68086 -3.7603 0
M  V30 26341 O 2400.88 -4.40412 -3.60591 0
M  V30 26342 N 2402.08 -3.0526 -4.93758 0
M  V30 26343 H 2404.85 -2.86747 -0.871559 0
M  V30 26344 H 2402.41 -1.58508 -0.329692 0
M  V30 26345 H 2404.4 -2.29086 -3.33619 0
M  V30 26346 H 2402.97 -1.36736 -2.81109 0
M  V30 26347 H 2402.19 -3.5731 -1.66504 0
M  V30 26348 H 2403.48 -4.39491 -2.56369 0
M  V30 26349 H 2402.88 -2.46428 -5.09205 0
M  V30 26350 H 2401.44 -3.18036 -5.68943 0
M  V30 26351 N 2404.87 0.409753 -1.5218 0
M  V30 26352 C 2405.8 1.52013 -1.70198 0
M  V30 26353 C 2406.78 1.53031 -0.549569 0
M  V30 26354 O 2407.96 1.71748 -0.776845 0
M  V30 26355 C 2405.09 2.90544 -1.74074 0
M  V30 26356 C 2404.14 3.07439 -2.95607 0
M  V30 26357 S 2404.97 2.80819 -4.55961 0
M  V30 26358 C 2406.13 4.21582 -4.62622 0
M  V30 26359 H 2406.36 1.365 -2.64112 0
M  V30 26360 H 2403.89 0.601287 -1.42211 0
M  V30 26361 H 2405.85 3.70384 -1.76991 0
M  V30 26362 H 2404.51 3.03399 -0.812888 0
M  V30 26363 H 2403.7 4.08791 -2.94799 0
M  V30 26364 H 2403.31 2.35464 -2.90573 0
M  V30 26365 H 2405.6 5.1521 -4.3996 0
M  V30 26366 H 2406.54 4.27414 -5.64555 0
M  V30 26367 H 2406.95 4.06524 -3.91661 0
M  V30 26368 N 2406.35 1.42792 0.666944 0
M  V30 26369 C 2407.59 1.43893 1.42908 0
M  V30 26370 C 2407.93 0.0579313 1.94114 0
M  V30 26371 O 2407.2 -0.91908 1.71415 0
M  V30 26372 C 2407.48 2.46991 2.62044 0
M  V30 26373 C 2407.34 3.94313 2.16419 0
M  V30 26374 C 2408.66 2.46984 3.64262 0
M  V30 26375 H 2405.77 0.523963 0.518297 0
M  V30 26376 H 2408.42 1.74256 0.75729 0
M  V30 26377 H 2406.57 2.21231 3.19357 0
M  V30 26378 H 2408.24 4.31082 1.64213 0
M  V30 26379 H 2406.48 4.07802 1.47918 0
M  V30 26380 H 2407.15 4.62041 3.02029 0
M  V30 26381 H 2409.63 2.69911 3.16681 0
M  V30 26382 H 2408.5 3.21087 4.45191 0
M  V30 26383 H 2408.77 1.49864 4.15924 0
M  V30 26384 N 2407.82 -0.904008 1.29095 0
M  V30 26385 C 2409.1 -1.63409 1.07503 0
M  V30 26386 C 2409.48 -2.07609 -0.38231 0
M  V30 26387 O 2408.83 -1.82854 -1.37028 0
M  V30 26388 C 2409.04 -2.81818 2.05863 0
M  V30 26389 C 2410.39 -3.52607 2.36545 0
M  V30 26390 O 2411.41 -2.91981 2.04024 0
M  V30 26391 O 2410.27 -4.61892 2.92093 0
M  V30 26392 H 2407.36 -0.71732 0.41156 0
M  V30 26393 H 2409.91 -0.952455 1.40451 0
M  V30 26394 H 2408.68 -2.46322 3.04041 0
M  V30 26395 H 2408.31 -3.5769 1.73619 0
M  V30 26396 N 2409.3 -1.11501 -1.11379 0
M  V30 26397 C 2410.55 -0.859025 -1.82493 0
M  V30 26398 C 2410.86 0.617245 -1.85606 0
M  V30 26399 O 2412.07 0.989507 -2.52826 0
M  V30 26400 C 2410.53 -1.48705 -3.27742 0
M  V30 26401 C 2410.13 -2.9974 -3.32956 0
M  V30 26402 C 2411.88 -1.31092 -4.03751 0
M  V30 26403 C 2409.79 -3.55524 -4.72606 0
M  V30 26404 H 2408.72 -0.317708 -0.683797 0
M  V30 26405 H 2411.37 -1.34033 -1.25329 0
M  V30 26406 H 2409.75 -0.933407 -3.84842 0
M  V30 26407 H 2410.92 -3.61514 -2.85734 0
M  V30 26408 H 2409.24 -3.16636 -2.70427 0
M  V30 26409 H 2411.83 -1.70201 -5.06888 0
M  V30 26410 H 2412.18 -0.253569 -4.15527 0
M  V30 26411 H 2412.71 -1.83324 -3.5304 0
M  V30 26412 H 2409.45 -4.60975 -4.66028 0
M  V30 26413 H 2408.97 -2.98522 -5.20235 0
M  V30 26414 H 2410.65 -3.54002 -5.41564 0
M  V30 26415 N 2410.78 1.28995 -0.905426 0
M  V30 26416 C 2411.71 2.25772 -0.331999 0
M  V30 26417 C 2412.69 1.52686 0.559073 0
M  V30 26418 O 2413.88 1.81621 0.504598 0
M  V30 26419 C 2411 3.34587 0.526218 0
M  V30 26420 C 2410.05 4.25455 -0.298324 0
M  V30 26421 S 2410.88 5.07807 -1.69977 0
M  V30 26422 C 2412.04 6.2012 -0.848628 0
M  V30 26423 H 2412.27 2.74062 -1.15227 0
M  V30 26424 H 2409.8 1.37307 -0.706136 0
M  V30 26425 H 2411.76 3.97739 1.01558 0
M  V30 26426 H 2410.42 2.84981 1.32079 0
M  V30 26427 H 2409.62 5.0273 0.357519 0
M  V30 26428 H 2409.22 3.66984 -0.721033 0
M  V30 26429 H 2411.51 6.77459 -0.0745516 0
M  V30 26430 H 2412.45 6.89934 -1.59365 0
M  V30 26431 H 2412.86 5.63078 -0.400482 0
M  V30 26432 N 2412.26 0.668514 1.42719 0
M  V30 26433 C 2413.68 0.337478 1.55991 0
M  V30 26434 C 2413.88 -1.15753 1.64935 0
M  V30 26435 O 2412.93 -1.9428 1.61281 0
M  V30 26436 C 2414.24 1.06227 2.81312 0
M  V30 26437 C 2415.79 1.04399 2.95076 0
M  V30 26438 C 2416.27 1.74999 4.23249 0
M  V30 26439 N 2417.76 1.71836 4.30147 0
M  V30 26440 C 2418.49 2.23324 5.28123 0
M  V30 26441 N 2417.99 2.83167 6.32288 0
M  V30 26442 N 2419.78 2.13735 5.19878 0
M  V30 26443 H 2411.93 1.63848 1.35157 0
M  V30 26444 H 2414.2 0.689923 0.650162 0
M  V30 26445 H 2413.9 2.11739 2.80819 0
M  V30 26446 H 2413.78 0.623505 3.72011 0
M  V30 26447 H 2416.16 -0.00277253 2.951 0
M  V30 26448 H 2416.24 1.52159 2.05624 0
M  V30 26449 H 2415.89 2.7964 4.23986 0
M  V30 26450 H 2415.82 1.24694 5.11624 0
M  V30 26451 H 2418.31 1.28182 3.55497 0
M  V30 26452 H 2418.62 3.20092 7.03393 0
M  V30 26453 H 2416.97 2.87234 6.32868 0
M  V30 26454 H 2420.16 1.66677 4.3742 0
M  V30 26455 H 2420.33 2.54169 5.96072 0
M  V30 26456 N 2413.74 -1.52135 0.411426 0
M  V30 26457 C 2414.7 -2.25664 -0.401049 0
M  V30 26458 C 2415.7 -1.28119 -0.97171 0
M  V30 26459 O 2416.89 -1.52042 -0.850227 0
M  V30 26460 C 2414.02 -3.02866 -1.56477 0
M  V30 26461 H 2415.22 -2.98914 0.243003 0
M  V30 26462 H 2412.77 -1.55437 0.163995 0
M  V30 26463 H 2413.5 -2.33971 -2.24562 0
M  V30 26464 H 2413.29 -3.74485 -1.16204 0
M  V30 26465 H 2414.78 -3.58633 -2.13945 0
M  V30 26466 N 2415.22 -0.14192 -1.5696 0
M  V30 26467 C 2416.44 0.520802 -2.00755 0
M  V30 26468 C 2416.87 1.57957 -1.02133 0
M  V30 26469 O 2416.22 1.813 0.00368137 0
M  V30 26470 C 2416.27 1.10288 -3.4332 0
M  V30 26471 O 2415.38 2.21789 -3.47683 0
M  V30 26472 H 2414.72 0.127897 -0.651566 0
M  V30 26473 H 2417.25 -0.237156 -2.03221 0
M  V30 26474 H 2417.26 1.4328 -3.82014 0
M  V30 26475 H 2415.93 0.327502 -4.14609 0
M  V30 26476 H 2414.51 1.90064 -3.20827 0
M  V30 26477 N 2416.69 1.57047 0.131868 0
M  V30 26478 C 2417.63 1.96022 1.18776 0
M  V30 26479 C 2418.64 0.857899 1.38362 0
M  V30 26480 O 2419.83 1.13625 1.37664 0
M  V30 26481 C 2416.93 2.23217 2.55005 0
M  V30 26482 C 2416.1 3.54518 2.56195 0
M  V30 26483 C 2415.16 3.70075 3.74073 0
M  V30 26484 O 2414.19 4.42318 3.5825 0
M  V30 26485 N 2415.39 3.07874 4.92132 0
M  V30 26486 H 2418.15 2.87205 0.85634 0
M  V30 26487 H 2415.71 1.5868 0.321282 0
M  V30 26488 H 2417.71 2.30852 3.324 0
M  V30 26489 H 2416.28 1.38225 2.80379 0
M  V30 26490 H 2415.5 3.58188 1.64607 0
M  V30 26491 H 2416.78 4.40844 2.54035 0
M  V30 26492 H 2416.18 2.49125 5.07891 0
M  V30 26493 H 2414.74 3.21049 5.67249 0
M  V30 26494 N 2418.17 -0.401677 1.52395 0
M  V30 26495 C 2419.45 -1.16138 1.57389 0
M  V30 26496 C 2419.83 -2.08018 0.359395 0
M  V30 26497 O 2419.18 -2.18964 -0.653221 0
M  V30 26498 C 2419.39 -1.93216 2.90635 0
M  V30 26499 C 2420.73 -2.49022 3.43909 0
M  V30 26500 O 2421.76 -2.03388 2.92424 0
M  V30 26501 O 2420.62 -3.32348 4.33828 0
M  V30 26502 H 2417.71 -0.530687 0.634272 0
M  V30 26503 H 2420.26 -0.407854 1.64726 0
M  V30 26504 H 2419.03 -1.25952 3.70475 0
M  V30 26505 H 2418.65 -2.75557 2.86625 0
M  V30 26506 N 2419.65 -1.43144 -0.659362 0
M  V30 26507 C 2420.6 -1.48083 -1.79371 0
M  V30 26508 C 2421.59 -0.355017 -1.65638 0
M  V30 26509 O 2422.8 -0.528734 -1.72059 0
M  V30 26510 H 2419.17 -0.46411 -0.591697 0
M  V30 26511 H 2421.14 -2.43612 -1.72325 0
M  V30 26512 C 2419.89 -1.41505 -3.17603 0
M  V30 26513 H 2419.22 -2.27437 -3.28805 0
M  V30 26514 H 2420.66 -1.49022 -3.96949 0
M  V30 26515 C 2419.11 -0.131824 -3.36642 0
M  V30 26516 O 2419.64 0.809317 -3.93463 0
M  V30 26517 N 2417.85 -0.0439906 -2.90567 0
M  V30 26518 H 2417.4 -0.810662 -2.44512 0
M  V30 26519 H 2417.36 0.813916 -3.03682 0
M  V30 26520 N 2421.13 0.897149 -1.29572 0
M  V30 26521 C 2422.54 1.46317 -1.15967 0
M  V30 26522 C 2422.89 1.94674 0.244233 0
M  V30 26523 O 2422.01 1.83941 1.13995 0
M  V30 26524 C 2422.61 2.65938 -2.0991 0
M  V30 26525 C 2421.17 3.18668 -2.00319 0
M  V30 26526 C 2420.32 1.9136 -2.00691 0
M  V30 26527 H 2423.27 0.708243 -1.4202 0
M  V30 26528 H 2423.29 3.41756 -1.67282 0
M  V30 26529 H 2422.8 2.30712 -3.12079 0
M  V30 26530 H 2420.9 3.5858 -1.01248 0
M  V30 26531 H 2421.01 3.82793 -2.88109 0
M  V30 26532 H 2419.38 2.09173 -1.45323 0
M  V30 26533 H 2420.16 1.58407 -3.04568 0
M  V30 26534 N 2422.61 1.1209 1.10786 0
M  V30 26535 C 2423.54 0.743251 2.16814 0
M  V30 26536 C 2424.55 -0.228383 1.6119 0
M  V30 26537 O 2425.74 -0.0102617 1.78497 0
M  V30 26538 C 2422.84 0.0787909 3.38808 0
M  V30 26539 C 2422.01 1.07897 4.23883 0
M  V30 26540 C 2421.07 0.442805 5.24334 0
M  V30 26541 O 2420.1 1.09874 5.58495 0
M  V30 26542 N 2421.3 -0.791356 5.75081 0
M  V30 26543 H 2424.06 1.65557 2.49822 0
M  V30 26544 H 2421.63 1.01203 1.26371 0
M  V30 26545 H 2423.62 -0.358696 4.03107 0
M  V30 26546 H 2422.19 -0.736221 3.03807 0
M  V30 26547 H 2421.41 1.6942 3.55936 0
M  V30 26548 H 2422.7 1.75542 4.77559 0
M  V30 26549 H 2422.09 -1.3433 5.4952 0
M  V30 26550 H 2420.65 -1.17172 6.41182 0
M  V30 26551 N 2424.08 -1.28513 0.912254 0
M  V30 26552 C 2425.36 -1.90026 0.46363 0
M  V30 26553 C 2425.74 -1.82702 -1.0575 0
M  V30 26554 O 2425.09 -1.26197 -1.9049 0
M  V30 26555 C 2425.3 -3.34596 0.992311 0
M  V30 26556 C 2426.65 -4.11577 1.04351 0
M  V30 26557 O 2427.67 -3.4355 0.94085 0
M  V30 26558 O 2426.53 -5.33172 1.1996 0
M  V30 26559 H 2423.62 -0.813888 0.14668 0
M  V30 26560 H 2426.17 -1.36891 1.00294 0
M  V30 26561 H 2424.94 -3.34142 2.03629 0
M  V30 26562 H 2424.56 -3.95227 0.433741 0
M  V30 26563 N 2425.56 -0.676073 -1.42362 0
M  V30 26564 C 2426.81 -0.198473 -2.01123 0
M  V30 26565 C 2427.13 1.19963 -1.53733 0
M  V30 26566 O 2426.4 1.80576 -0.759549 0
M  V30 26567 H 2424.98 -0.0703852 -0.743677 0
M  V30 26568 H 2427.64 -0.872867 -1.74261 0
M  V30 26569 H 2426.74 -0.200741 -3.11454 0
M  V30 26570 N 2427.04 1.51915 -0.419488 0
M  V30 26571 C 2428.29 2.01109 0.154311 0
M  V30 26572 C 2428.6 1.30908 1.45336 0
M  V30 26573 O 2429.81 1.70974 2.10903 0
M  V30 26574 C 2428.26 3.58425 0.325552 0
M  V30 26575 C 2427.87 4.37549 -0.962011 0
M  V30 26576 C 2429.62 4.15819 0.854082 0
M  V30 26577 C 2427.52 5.8653 -0.757391 0
M  V30 26578 H 2426.45 0.751492 0.0614431 0
M  V30 26579 H 2429.1 1.75172 -0.54652 0
M  V30 26580 H 2427.49 3.80733 1.08896 0
M  V30 26581 H 2428.66 4.26996 -1.73237 0
M  V30 26582 H 2426.98 3.91522 -1.41773 0
M  V30 26583 H 2429.57 5.24815 1.02337 0
M  V30 26584 H 2429.92 3.7384 1.83165 0
M  V30 26585 H 2430.45 3.97519 0.149458 0
M  V30 26586 H 2427.19 6.32889 -1.70682 0
M  V30 26587 H 2426.71 5.99794 -0.0265115 0
M  V30 26588 H 2428.39 6.4574 -0.403596 0
M  V30 26589 N 2428.52 0.150242 1.56882 0
M  V30 26590 C 2429.45 -0.82632 2.12714 0
M  V30 26591 C 2430.43 -1.2402 1.05156 0
M  V30 26592 O 2431.61 -1.33573 1.33006 0
M  V30 26593 C 2428.74 -2.10997 2.64949 0
M  V30 26594 C 2427.79 -1.84177 3.84683 0
M  V30 26595 S 2428.62 -1.02986 5.25504 0
M  V30 26596 C 2429.78 -2.32463 5.8113 0
M  V30 26597 H 2430.01 -0.351546 2.95214 0
M  V30 26598 H 2427.54 -0.064094 1.54267 0
M  V30 26599 H 2429.5 -2.84737 2.95694 0
M  V30 26600 H 2428.16 -2.55589 1.82573 0
M  V30 26601 H 2427.35 -2.79368 4.19487 0
M  V30 26602 H 2426.96 -1.18543 3.54716 0
M  V30 26603 H 2429.25 -3.2809 5.92759 0
M  V30 26604 H 2430.19 -2.02159 6.78629 0
M  V30 26605 H 2430.6 -2.4326 5.09396 0
M  V30 26606 N 2430 -1.57115 -0.123538 0
M  V30 26607 C 2431.24 -1.84887 -0.833354 0
M  V30 26608 C 2431.58 -0.735324 -1.7974 0
M  V30 26609 O 2430.85 0.259216 -1.92765 0
M  V30 26610 C 2431.13 -3.23231 -1.58725 0
M  V30 26611 C 2430.99 -4.45179 -0.643104 0
M  V30 26612 C 2432.31 -3.59089 -2.54447 0
M  V30 26613 H 2429.42 -0.672505 -0.301507 0
M  V30 26614 H 2432.07 -1.89748 -0.0977447 0
M  V30 26615 H 2430.22 -3.19218 -2.21433 0
M  V30 26616 H 2431.89 -4.61293 -0.0252204 0
M  V30 26617 H 2430.13 -4.33776 0.0456901 0
M  V30 26618 H 2430.8 -5.38639 -1.20714 0
M  V30 26619 H 2433.28 -3.63864 -2.01846 0
M  V30 26620 H 2432.15 -4.56875 -3.0423 0
M  V30 26621 H 2432.42 -2.8627 -3.36901 0
M  V30 26622 N 2431.47 0.393589 -1.52606 0
M  V30 26623 C 2432.42 1.48051 -1.77058 0
M  V30 26624 C 2433.39 1.5435 -0.613608 0
M  V30 26625 O 2434.58 1.70679 -0.852836 0
M  V30 26626 C 2431.72 2.85332 -1.94113 0
M  V30 26627 C 2430.83 2.8822 -3.21797 0
M  V30 26628 C 2429.96 4.16898 -3.29195 0
M  V30 26629 C 2429 4.1382 -4.5102 0
M  V30 26630 N 2428.14 5.34097 -4.55725 0
M  V30 26631 H 2432.98 1.26501 -2.69817 0
M  V30 26632 H 2430.52 0.613766 -1.33684 0
M  V30 26633 H 2432.48 3.65045 -2.01985 0
M  V30 26634 H 2431.11 3.05342 -1.04719 0
M  V30 26635 H 2430.16 2.00905 -3.23019 0
M  V30 26636 H 2431.47 2.81813 -4.11562 0
M  V30 26637 H 2430.62 5.05013 -3.36225 0
M  V30 26638 H 2429.36 4.26021 -2.37396 0
M  V30 26639 H 2428.37 3.24094 -4.4412 0
M  V30 26640 H 2429.59 4.06324 -5.4413 0
M  V30 26641 H 2427.54 5.43858 -3.66816 0
M  V30 26642 H 2427.46 5.29747 -5.39355 0
M  V30 26643 H 2428.72 6.24121 -4.67004 0
M  V30 26644 N 2432.95 1.43492 0.651762 0
M  V30 26645 C 2433.88 1.51572 1.77618 0
M  V30 26646 C 2434.86 0.370282 1.66021 0
M  V30 26647 O 2436.05 0.587691 1.85094 0
M  V30 26648 C 2433.18 1.43971 3.16053 0
M  V30 26649 C 2432.13 2.5678 3.42415 0
M  V30 26650 C 2431.46 2.34232 4.80666 0
M  V30 26651 C 2432.76 3.99021 3.37016 0
M  V30 26652 H 2434.45 2.45684 1.71113 0
M  V30 26653 H 2432 1.18247 0.821804 0
M  V30 26654 H 2433.95 1.48228 3.9447 0
M  V30 26655 H 2432.68 0.463643 3.23292 0
M  V30 26656 H 2431.33 2.51878 2.6637 0
M  V30 26657 H 2430.98 1.34865 4.84583 0
M  V30 26658 H 2430.68 3.09852 4.99265 0
M  V30 26659 H 2432.21 2.40275 5.61338 0
M  V30 26660 H 2433.62 4.05402 4.05367 0
M  V30 26661 H 2432.02 4.74679 3.67151 0
M  V30 26662 H 2433.09 4.24054 2.35173 0
M  V30 26663 N 2434.43 -0.890264 1.30046 0
M  V30 26664 C 2435.68 -1.64404 1.1874 0
M  V30 26665 C 2436.01 -1.92472 -0.258491 0
M  V30 26666 O 2435.28 -1.54188 -1.18559 0
M  V30 26667 C 2435.57 -2.9872 2.01092 0
M  V30 26668 C 2435.42 -2.77659 3.53872 0
M  V30 26669 C 2436.74 -3.99576 1.84464 0
M  V30 26670 H 2433.86 -0.596601 0.432708 0
M  V30 26671 H 2436.5 -1.03057 1.59622 0
M  V30 26672 H 2434.65 -3.51082 1.66355 0
M  V30 26673 H 2436.32 -2.32126 3.98641 0
M  V30 26674 H 2434.57 -2.12263 3.78321 0
M  V30 26675 H 2435.24 -3.73143 4.06778 0
M  V30 26676 H 2437.71 -3.56357 2.14823 0
M  V30 26677 H 2436.59 -4.91478 2.4442 0
M  V30 26678 H 2436.85 -4.34758 0.802353 0
M  V30 26679 N 2435.91 -1.12676 -1.1019 0
M  V30 26680 C 2437.15 -0.884947 -1.82473 0
M  V30 26681 C 2437.49 0.587698 -1.85094 0
M  V30 26682 O 2436.76 1.43455 -1.31343 0
M  V30 26683 C 2437.05 -1.46359 -3.29015 0
M  V30 26684 C 2436.9 -3.00479 -3.34713 0
M  V30 26685 C 2438.22 -1.12526 -4.25471 0
M  V30 26686 H 2435.34 -0.322926 -0.662486 0
M  V30 26687 H 2437.98 -1.39378 -1.29127 0
M  V30 26688 H 2436.13 -1.03084 -3.74574 0
M  V30 26689 H 2437.8 -3.52452 -2.97616 0
M  V30 26690 H 2436.04 -3.35877 -2.74535 0
M  V30 26691 H 2436.71 -3.36061 -4.37912 0
M  V30 26692 H 2439.19 -1.49907 -3.88159 0
M  V30 26693 H 2438.07 -1.55672 -5.26362 0
M  V30 26694 H 2438.33 -0.0378184 -4.42084 0
M  V30 26695 N 2437.39 1.28028 -0.919057 0
M  V30 26696 C 2438.33 2.29103 -0.401793 0
M  V30 26697 C 2439.33 1.61562 0.509326 0
M  V30 26698 O 2440.53 1.75725 0.389983 0
M  V30 26699 H 2436.91 0.743711 -0.111344 0
M  V30 26700 H 2438.88 2.70154 -1.26725 0
M  V30 26701 C 2437.63 3.46052 0.338088 0
M  V30 26702 H 2436.95 3.98231 -0.353802 0
M  V30 26703 H 2438.39 4.18759 0.664579 0
M  V30 26704 C 2436.85 2.99234 1.54793 0
M  V30 26705 O 2437.38 3.02162 2.6469 0
M  V30 26706 N 2435.59 2.54832 1.39675 0
M  V30 26707 H 2435.13 2.52648 0.502653 0
M  V30 26708 H 2435.09 2.23867 2.20751 0
M  V30 26709 N 2438.86 0.683613 1.42002 0
M  V30 26710 C 2439.79 0.024907 2.33487 0
M  V30 26711 C 2440.78 -0.779948 1.51165 0
M  V30 26712 O 2441.96 -0.735331 1.7974 0
M  V30 26713 C 2439.09 -0.920777 3.34872 0
M  V30 26714 C 2438.04 -0.223883 4.27414 0
M  V30 26715 C 2437.37 -1.28311 5.19076 0
M  V30 26716 C 2438.67 0.90251 5.14443 0
M  V30 26717 H 2440.36 0.788972 2.88818 0
M  V30 26718 H 2437.91 0.380854 1.38872 0
M  V30 26719 H 2439.86 -1.39074 3.97789 0
M  V30 26720 H 2438.59 -1.71637 2.77864 0
M  V30 26721 H 2437.25 0.225928 3.65903 0
M  V30 26722 H 2436.89 -2.07092 4.58391 0
M  V30 26723 H 2436.59 -0.821893 5.81824 0
M  V30 26724 H 2438.12 -1.75382 5.8487 0
M  V30 26725 H 2439.53 0.513372 5.70997 0
M  V30 26726 H 2437.93 1.29007 5.86069 0
M  V30 26727 H 2439 1.74745 4.52319 0
M  V30 26728 N 2440.34 -1.5169 0.427538 0
M  V30 26729 C 2441.27 -2.30394 -0.379559 0
M  V30 26730 C 2442.25 -1.35385 -1.0298 0
M  V30 26731 O 2443.44 -1.64302 -1.03531 0
M  V30 26732 C 2440.57 -3.13883 -1.48644 0
M  V30 26733 C 2439.52 -4.1709 -0.960221 0
M  V30 26734 C 2438.85 -4.89037 -2.1621 0
M  V30 26735 C 2440.15 -5.223 -0.00144499 0
M  V30 26736 H 2441.84 -2.98114 0.277216 0
M  V30 26737 H 2439.39 -1.43368 0.134764 0
M  V30 26738 H 2441.34 -3.67718 -2.0582 0
M  V30 26739 H 2440.07 -2.43966 -2.17136 0
M  V30 26740 H 2438.73 -3.64292 -0.410742 0
M  V30 26741 H 2438.37 -4.15633 -2.83299 0
M  V30 26742 H 2438.07 -5.58819 -1.81644 0
M  V30 26743 H 2439.6 -5.45692 -2.73958 0
M  V30 26744 H 2441.01 -5.71265 -0.482586 0
M  V30 26745 H 2439.41 -5.99552 0.256305 0
M  V30 26746 H 2440.48 -4.75736 0.938258 0
M  V30 26747 N 2441.82 -0.15856 -1.568 0
M  V30 26748 C 2442.75 0.807885 -2.1449 0
M  V30 26749 C 2443.77 1.20269 -1.09723 0
M  V30 26750 O 2444.96 1.14476 -1.36958 0
M  V30 26751 C 2442.06 2.09713 -2.66221 0
M  V30 26752 C 2441.23 1.86789 -3.95511 0
M  V30 26753 C 2440.29 2.99811 -4.32435 0
M  V30 26754 O 2439.31 2.70999 -5.00548 0
M  V30 26755 N 2440.52 4.27279 -3.92955 0
M  V30 26756 H 2443.28 0.314764 -2.98042 0
M  V30 26757 H 2440.84 0.0246408 -1.61881 0
M  V30 26758 H 2442.83 2.84393 -2.87929 0
M  V30 26759 H 2441.4 2.50253 -1.87329 0
M  V30 26760 H 2440.62 0.960823 -3.82311 0
M  V30 26761 H 2441.91 1.68824 -4.79975 0
M  V30 26762 H 2441.31 4.53551 -3.38095 0
M  V30 26763 H 2439.87 4.98702 -4.1969 0
M  V30 26764 N 2443.3 1.57178 0.115204 0
M  V30 26765 C 2444.23 2.03653 1.14227 0
M  V30 26766 C 2445.21 0.921681 1.42965 0
M  V30 26767 O 2446.4 1.19164 1.53341 0
M  V30 26768 C 2443.53 2.44405 2.46746 0
M  V30 26769 C 2442.48 3.59369 2.32461 0
M  V30 26770 C 2441.81 3.86033 3.69977 0
M  V30 26771 C 2443.11 4.90962 1.78194 0
M  V30 26772 H 2444.8 2.89706 0.755698 0
M  V30 26773 H 2442.35 1.39374 0.362068 0
M  V30 26774 H 2444.3 2.75523 3.1885 0
M  V30 26775 H 2443.02 1.55327 2.873 0
M  V30 26776 H 2441.68 3.28466 1.62805 0
M  V30 26777 H 2441.33 2.94154 4.08023 0
M  V30 26778 H 2441.03 4.63419 3.61271 0
M  V30 26779 H 2442.55 4.19606 4.4358 0
M  V30 26780 H 2443.97 5.20592 2.40119 0
M  V30 26781 H 2442.36 5.72374 1.803 0
M  V30 26782 H 2443.43 4.79223 0.739792 0
M  V30 26783 N 2444.78 -0.38549 1.52813 0
M  V30 26784 C 2446 -1.1558 1.72209 0
M  V30 26785 C 2446.43 -1.82856 0.441066 0
M  V30 26786 O 2445.79 -1.70963 -0.603435 0
M  V30 26787 C 2445.83 -2.17687 2.8748 0
M  V30 26788 O 2444.94 -3.24349 2.54699 0
M  V30 26789 H 2444.28 -0.336309 0.572532 0
M  V30 26790 H 2446.81 -0.448709 1.99619 0
M  V30 26791 H 2446.82 -2.61624 3.13076 0
M  V30 26792 H 2445.49 -1.68108 3.80411 0
M  V30 26793 H 2444.07 -2.85524 2.39855 0
M  V30 26794 N 2446.26 -1.43835 -0.644143 0
M  V30 26795 C 2447.2 -1.49697 -1.75668 0
M  V30 26796 C 2448.17 -0.345838 -1.6246 0
M  V30 26797 O 2449.36 -0.554266 -1.82572 0
M  V30 26798 C 2446.5 -1.43468 -3.13864 0
M  V30 26799 C 2445.61 -2.68856 -3.38142 0
M  V30 26800 C 2444.75 -2.54552 -4.66237 0
M  V30 26801 C 2443.78 -3.75165 -4.8365 0
M  V30 26802 N 2442.92 -3.59616 -6.0301 0
M  V30 26803 H 2447.76 -2.44757 -1.69994 0
M  V30 26804 H 2445.3 -1.21486 -0.829437 0
M  V30 26805 H 2447.26 -1.3785 -3.93768 0
M  V30 26806 H 2445.89 -0.519839 -3.18587 0
M  V30 26807 H 2444.94 -2.84716 -2.52271 0
M  V30 26808 H 2446.25 -3.58423 -3.46892 0
M  V30 26809 H 2445.4 -2.46693 -5.54281 0
M  V30 26810 H 2444.14 -1.62524 -4.59823 0
M  V30 26811 H 2443.15 -3.83423 -3.94039 0
M  V30 26812 H 2444.37 -4.68213 -4.91887 0
M  V30 26813 H 2442.32 -2.7033 -5.9771 0
M  V30 26814 H 2442.24 -4.4279 -6.12758 0
M  V30 26815 H 2443.5 -3.55625 -6.93651 0
M  V30 26816 N 2447.73 0.883355 -1.30517 0
M  V30 26817 C 2448.67 1.99182 -1.11362 0
M  V30 26818 C 2449.64 1.62587 -0.0208143 0
M  V30 26819 O 2450.83 1.87689 -0.174679 0
M  V30 26820 C 2447.96 3.31414 -0.698769 0
M  V30 26821 C 2447 3.86995 -1.79268 0
M  V30 26822 S 2447.83 4.1409 -3.39543 0
M  V30 26823 C 2448.99 5.49339 -2.99963 0
M  V30 26824 H 2449.22 2.15124 -2.05204 0
M  V30 26825 H 2446.76 1.03194 -1.14849 0
M  V30 26826 H 2448.71 4.07845 -0.466147 0
M  V30 26827 H 2447.38 3.13326 0.220313 0
M  V30 26828 H 2446.57 4.82549 -1.45472 0
M  V30 26829 H 2446.17 3.17309 -1.97966 0
M  V30 26830 H 2448.46 6.30468 -2.48024 0
M  V30 26831 H 2449.41 5.88073 -3.94431 0
M  V30 26832 H 2449.81 5.11975 -2.37784 0
M  V30 26833 N 2449.21 1.13259 1.09591 0
M  V30 26834 C 2450.17 0.811396 2.14357 0
M  V30 26835 C 2451.17 -0.178349 1.59808 0
M  V30 26836 O 2452.36 0.0485217 1.74132 0
M  V30 26837 C 2449.5 0.207336 3.40269 0
M  V30 26838 H 2450.69 1.73973 2.44281 0
M  V30 26839 H 2448.24 0.936995 1.251 0
M  V30 26840 H 2448.98 -0.730305 3.1597 0
M  V30 26841 H 2448.76 0.920059 3.81153 0
M  V30 26842 H 2450.25 -0.00059454 4.176 0
M  V30 26843 N 2450.69 -1.27539 0.925834 0
M  V30 26844 C 2451.94 -1.93738 0.561118 0
M  V30 26845 C 2452.25 -1.73579 -0.901654 0
M  V30 26846 O 2453.46 -2.34103 -1.37507 0
M  V30 26847 C 2451.91 -3.47061 0.952729 0
M  V30 26848 C 2451.52 -3.75979 2.43606 0
M  V30 26849 C 2453.27 -4.19351 0.659176 0
M  V30 26850 C 2451.17 -5.22668 2.76716 0
M  V30 26851 H 2450.1 -0.725275 0.206135 0
M  V30 26852 H 2452.75 -1.44861 1.12639 0
M  V30 26853 H 2451.14 -3.94736 0.316123 0
M  V30 26854 H 2452.31 -3.39068 3.12041 0
M  V30 26855 H 2450.62 -3.16888 2.70131 0
M  V30 26856 H 2453.22 -5.27357 0.883077 0
M  V30 26857 H 2453.56 -4.1434 -0.403535 0
M  V30 26858 H 2454.1 -3.77491 1.2548 0
M  V30 26859 H 2450.84 -5.32767 3.81889 0
M  V30 26860 H 2450.36 -5.60733 2.12929 0
M  V30 26861 H 2452.04 -5.90527 2.64361 0
M  V30 26862 N 2452.17 -0.691135 -1.41637 0
M  V30 26863 C 2453.12 -0.0115608 -2.32597 0
M  V30 26864 C 2454.11 0.773269 -1.50721 0
M  V30 26865 O 2455.32 0.679391 -1.66686 0
M  V30 26866 H 2451.69 0.0150613 -0.751849 0
M  V30 26867 H 2453.66 -0.795841 -2.87592 0
M  V30 26868 C 2452.41 0.914113 -3.35469 0
M  V30 26869 H 2451.73 0.319617 -3.9852 0
M  V30 26870 H 2453.17 1.35801 -4.01664 0
M  V30 26871 C 2451.63 2.02821 -2.69008 0
M  V30 26872 O 2452.16 3.11651 -2.53449 0
M  V30 26873 N 2450.37 1.80465 -2.27773 0
M  V30 26874 H 2449.92 0.919573 -2.40628 0
M  V30 26875 H 2449.87 2.55193 -1.8364 0
M  V30 26876 N 2453.65 1.51461 -0.435577 0
M  V30 26877 C 2454.6 2.24558 0.394661 0
M  V30 26878 C 2455.58 1.26717 0.991548 0
M  V30 26879 O 2456.77 1.51817 0.90998 0
M  V30 26880 C 2453.9 3.08978 1.49624 0
M  V30 26881 C 2452.99 4.14247 0.908839 0
M  V30 26882 N 2453.38 5.05775 0.0504446 0
M  V30 26883 C 2451.68 4.302 1.17661 0
M  V30 26884 C 2452.38 5.81029 -0.279263 0
M  V30 26885 N 2451.35 5.42556 0.336672 0
M  V30 26886 H 2455.15 2.92683 -0.267158 0
M  V30 26887 H 2452.67 1.60502 -0.247546 0
M  V30 26888 H 2454.67 3.5992 2.10387 0
M  V30 26889 H 2453.33 2.42396 2.16042 0
M  V30 26890 H 2454.34 5.16936 -0.315861 0
M  V30 26891 H 2451.01 3.74845 1.8384 0
M  V30 26892 H 2452.4 6.64749 -0.97767 0
M  V30 26893 N 2455.12 0.166873 1.56714 0
M  V30 26894 C 2456.35 -0.485609 2.0112 0
M  V30 26895 C 2456.77 -1.57104 1.04708 0
M  V30 26896 O 2456.12 -1.82439 0.0472244 0
M  V30 26897 C 2456.18 -1.06802 3.45363 0
M  V30 26898 O 2455.9 -0.0259225 4.38092 0
M  V30 26899 C 2457.4 -1.79917 4.05148 0
M  V30 26900 H 2454.62 -0.124692 0.659312 0
M  V30 26901 H 2457.16 0.267298 2.02746 0
M  V30 26902 H 2455.32 -1.77144 3.44527 0
M  V30 26903 H 2455.73 -0.455306 5.2252 0
M  V30 26904 H 2457.2 -2.15933 5.08013 0
M  V30 26905 H 2457.68 -2.69252 3.46987 0
M  V30 26906 H 2458.29 -1.14226 4.09674 0
M  V30 26907 N 2456.6 -1.57237 -0.106866 0
M  V30 26908 C 2457.85 -1.85119 -0.810889 0
M  V30 26909 C 2458.17 -0.753858 -1.79839 0
M  V30 26910 O 2457.44 0.221022 -1.94649 0
M  V30 26911 H 2456.02 -0.68303 -0.302454 0
M  V30 26912 H 2458.68 -1.94686 -0.0912982 0
M  V30 26913 H 2457.78 -2.81454 -1.3487 0
M  V30 26914 N 2458.08 0.377381 -1.53015 0
M  V30 26915 C 2458.99 1.48571 -1.81559 0
M  V30 26916 C 2460.01 1.59161 -0.70313 0
M  V30 26917 O 2461.18 1.75278 -0.991951 0
M  V30 26918 C 2458.25 2.83975 -1.98895 0
M  V30 26919 C 2457.31 2.83011 -3.22806 0
M  V30 26920 C 2456.54 4.11956 -3.39305 0
M  V30 26921 O 2456.76 5.07515 -2.60354 0
M  V30 26922 O 2455.7 4.18487 -4.32611 0
M  V30 26923 H 2459.52 1.27377 -2.75697 0
M  V30 26924 H 2457.11 0.566349 -1.38249 0
M  V30 26925 H 2458.99 3.64226 -2.11937 0
M  V30 26926 H 2457.67 3.05171 -1.07947 0
M  V30 26927 H 2456.57 2.015 -3.15196 0
M  V30 26928 H 2457.91 2.66768 -4.13637 0
M  V30 26929 N 2459.56 1.44175 0.636506 0
M  V30 26930 C 2460.51 1.50627 1.74872 0
M  V30 26931 C 2461.48 0.354448 1.62274 0
M  V30 26932 O 2462.66 0.56394 1.82275 0
M  V30 26933 C 2459.8 1.45131 3.13099 0
M  V30 26934 C 2458.91 2.70646 3.36712 0
M  V30 26935 C 2458.05 2.57021 4.6488 0
M  V30 26936 C 2457.09 3.77725 4.81654 0
M  V30 26937 N 2456.22 3.62809 6.01094 0
M  V30 26938 H 2461.06 2.45655 1.68693 0
M  V30 26939 H 2458.6 1.21924 0.822983 0
M  V30 26940 H 2460.56 1.39936 3.93031 0
M  V30 26941 H 2459.19 0.536727 3.18307 0
M  V30 26942 H 2458.24 2.8605 2.50758 0
M  V30 26943 H 2459.55 3.60258 3.44987 0
M  V30 26944 H 2458.71 2.49629 5.52965 0
M  V30 26945 H 2457.45 1.64961 4.58955 0
M  V30 26946 H 2456.45 3.85508 3.92 0
M  V30 26947 H 2457.68 4.70815 4.89397 0
M  V30 26948 H 2455.62 2.73496 5.96268 0
M  V30 26949 H 2455.54 4.46034 6.10402 0
M  V30 26950 H 2456.81 3.59299 6.91755 0
M  V30 26951 N 2461.04 -0.876421 1.30983 0
M  V30 26952 C 2461.95 -2.01567 1.20033 0
M  V30 26953 C 2462.96 -1.73597 0.11841 0
M  V30 26954 O 2464.14 -1.98595 0.334984 0
M  V30 26955 C 2461.2 -3.34769 0.901696 0
M  V30 26956 C 2460.26 -3.76105 2.06986 0
M  V30 26957 C 2459.5 -5.02951 1.78538 0
M  V30 26958 O 2459.72 -5.65871 0.717396 0
M  V30 26959 O 2458.65 -5.409 2.64028 0
M  V30 26960 H 2462.48 -2.13735 2.15757 0
M  V30 26961 H 2460.07 -1.00373 1.1066 0
M  V30 26962 H 2461.95 -4.14659 0.750718 0
M  V30 26963 H 2460.62 -3.2369 -0.0255572 0
M  V30 26964 H 2459.53 -2.96883 2.27621 0
M  V30 26965 H 2460.86 -3.91801 2.97914 0
M  V30 26966 N 2462.51 -1.13839 -1.08989 0
M  V30 26967 C 2463.76 -0.904251 -1.81524 0
M  V30 26968 C 2464.09 0.568033 -1.85707 0
M  V30 26969 O 2463.37 1.42054 -1.32857 0
M  V30 26970 C 2463.65 -1.4984 -3.27444 0
M  V30 26971 C 2463.5 -3.04012 -3.31507 0
M  V30 26972 C 2464.82 -1.17033 -4.24254 0
M  V30 26973 H 2461.94 -0.329935 -0.659024 0
M  V30 26974 H 2464.58 -1.40739 -1.27642 0
M  V30 26975 H 2462.73 -1.07051 -3.7346 0
M  V30 26976 H 2464.41 -3.55589 -2.93861 0
M  V30 26977 H 2462.65 -3.38769 -2.70957 0
M  V30 26978 H 2463.32 -3.40687 -4.34323 0
M  V30 26979 H 2465.8 -1.54016 -3.86547 0
M  V30 26980 H 2464.67 -1.61246 -5.24682 0
M  V30 26981 H 2464.93 -0.0847051 -4.42019 0
M  V30 26982 N 2463.99 1.27046 -0.932584 0
M  V30 26983 C 2464.92 2.29065 -0.452942 0
M  V30 26984 C 2465.9 1.6291 0.48931 0
M  V30 26985 O 2467.09 1.90182 0.393013 0
M  V30 26986 C 2464.22 3.46082 0.290637 0
M  V30 26987 C 2463.17 4.24264 -0.564242 0
M  V30 26988 C 2462.5 5.33808 0.308793 0
M  V30 26989 C 2463.8 4.89146 -1.83121 0
M  V30 26990 H 2465.49 2.69435 -1.30557 0
M  V30 26991 H 2463.04 1.29525 -0.629224 0
M  V30 26992 H 2464.99 4.16555 0.63716 0
M  V30 26993 H 2463.72 3.04642 1.17733 0
M  V30 26994 H 2462.37 3.55544 -0.89354 0
M  V30 26995 H 2462.02 4.88609 1.19458 0
M  V30 26996 H 2461.72 5.87026 -0.259736 0
M  V30 26997 H 2463.25 6.07122 0.650777 0
M  V30 26998 H 2464.66 5.5188 -1.55246 0
M  V30 26999 H 2463.06 5.52444 -2.34363 0
M  V30 27000 H 2464.13 4.12572 -2.5478 0
M  V30 27001 N 2465.47 0.698636 1.41269 0
M  V30 27002 C 2466.38 0.0358304 2.34573 0
M  V30 27003 C 2467.4 -0.762673 1.56395 0
M  V30 27004 O 2468.57 -0.69953 1.88861 0
M  V30 27005 C 2465.64 -0.887031 3.35161 0
M  V30 27006 C 2464.7 -0.0803879 4.29225 0
M  V30 27007 C 2463.93 -0.959295 5.25008 0
M  V30 27008 O 2464.15 -2.19877 5.26318 0
M  V30 27009 O 2463.09 -0.407334 6.0052 0
M  V30 27010 H 2466.91 0.805009 2.92837 0
M  V30 27011 H 2464.5 0.458991 1.42175 0
M  V30 27012 H 2466.38 -1.41614 3.96892 0
M  V30 27013 H 2465.06 -1.63565 2.79335 0
M  V30 27014 H 2463.96 0.493394 3.70832 0
M  V30 27015 H 2465.3 0.629632 4.88156 0
M  V30 27016 N 2466.95 -1.51228 0.443603 0
M  V30 27017 C 2467.91 -2.26464 -0.353092 0
M  V30 27018 C 2468.91 -1.30151 -0.944315 0
M  V30 27019 O 2470.1 -1.53811 -0.817786 0
M  V30 27020 C 2467.23 -3.06117 -1.50018 0
M  V30 27021 H 2468.43 -2.98331 0.306352 0
M  V30 27022 H 2465.98 -1.55054 0.196929 0
M  V30 27023 H 2466.71 -2.38681 -2.19549 0
M  V30 27024 H 2466.5 -3.76866 -1.08235 0
M  V30 27025 H 2467.99 -3.6309 -2.06289 0
M  V30 27026 N 2468.43 -0.175182 -1.56623 0
M  V30 27027 C 2469.67 0.469471 -1.97291 0
M  V30 27028 C 2470.01 1.62634 -1.06131 0
M  V30 27029 O 2469.28 1.94193 -0.109218 0
M  V30 27030 C 2469.56 0.948742 -3.47377 0
M  V30 27031 C 2469.42 -0.20857 -4.49316 0
M  V30 27032 C 2470.74 1.82109 -4.00655 0
M  V30 27033 H 2467.85 0.169177 -0.71732 0
M  V30 27034 H 2470.5 -0.262095 -1.88184 0
M  V30 27035 H 2468.65 1.57213 -3.55269 0
M  V30 27036 H 2470.32 -0.845762 -4.5348 0
M  V30 27037 H 2468.56 -0.863469 -4.2512 0
M  V30 27038 H 2469.23 0.168962 -5.51741 0
M  V30 27039 H 2471.71 1.29553 -3.95418 0
M  V30 27040 H 2470.58 2.12545 -5.06079 0
M  V30 27041 H 2470.85 2.76824 -3.44704 0
M  V30 27042 N 2469.91 1.57292 0.0985263 0
M  V30 27043 C 2471.15 1.85546 0.80106 0
M  V30 27044 C 2471.47 0.763385 1.79436 0
M  V30 27045 O 2470.74 -0.210696 1.94764 0
M  V30 27046 H 2469.32 0.684625 0.298828 0
M  V30 27047 H 2471.99 1.94732 0.0809722 0
M  V30 27048 H 2471.08 2.82166 1.33375 0
M  V30 27049 N 2471.38 -0.369261 1.53213 0
M  V30 27050 C 2472.61 -1.13747 1.73425 0
M  V30 27051 C 2473.03 -1.82378 0.460436 0
M  V30 27052 O 2472.39 -1.71593 -0.585268 0
M  V30 27053 C 2472.44 -2.14625 2.89773 0
M  V30 27054 O 2471.54 -3.21629 2.58124 0
M  V30 27055 H 2470.88 -0.330217 0.576067 0
M  V30 27056 H 2473.41 -0.427512 2.00084 0
M  V30 27057 H 2473.42 -2.58289 3.15834 0
M  V30 27058 H 2472.1 -1.64064 3.82173 0
M  V30 27059 H 2470.68 -2.82964 2.42869 0
M  V30 27060 N 2472.86 -1.4451 -0.628851 0
M  V30 27061 C 2474.1 -1.48936 -1.3999 0
M  V30 27062 C 2474.47 -0.119637 -1.91627 0
M  V30 27063 O 2475.67 -0.0385755 -2.68772 0
M  V30 27064 C 2473.94 -2.52202 -2.53237 0
M  V30 27065 S 2475.5 -2.75693 -3.41378 0
M  V30 27066 H 2472.31 -0.526752 -0.477549 0
M  V30 27067 H 2474.92 -1.81449 -0.727772 0
M  V30 27068 H 2473.62 -3.50423 -2.13616 0
M  V30 27069 H 2473.15 -2.2127 -3.25274 0
M  V30 27070 H 2475.17 -2.07461 -4.50749 0
M  V30 27071 N 2474.34 0.869463 -1.31446 0
M  V30 27072 C 2475.27 1.99259 -1.2173 0
M  V30 27073 C 2476.25 1.69779 -0.104389 0
M  V30 27074 O 2477.44 1.92036 -0.289072 0
M  V30 27075 C 2474.57 3.34772 -0.924376 0
M  V30 27076 C 2473.52 3.78559 -1.99692 0
M  V30 27077 C 2472.85 5.11539 -1.55667 0
M  V30 27078 C 2474.15 3.95613 -3.4101 0
M  V30 27079 H 2475.84 2.07645 -2.15694 0
M  V30 27080 H 2473.39 0.997657 -1.0384 0
M  V30 27081 H 2475.34 4.12882 -0.843006 0
M  V30 27082 H 2474.06 3.2656 0.0509219 0
M  V30 27083 H 2472.72 3.02691 -2.06819 0
M  V30 27084 H 2472.37 4.99769 -0.569219 0
M  V30 27085 H 2472.07 5.41807 -2.27419 0
M  V30 27086 H 2473.59 5.92157 -1.48939 0
M  V30 27087 H 2475.01 4.64116 -3.36555 0
M  V30 27088 H 2473.4 4.37279 -4.10983 0
M  V30 27089 H 2474.47 2.98979 -3.81759 0
M  V30 27090 N 2475.82 1.14415 1.08383 0
M  V30 27091 C 2477.07 0.910711 1.80417 0
M  V30 27092 C 2477.39 -0.56421 1.86659 0
M  V30 27093 O 2476.66 -1.41012 1.35987 0
M  V30 27094 H 2475.24 0.333946 0.668198 0
M  V30 27095 H 2477.9 1.44278 1.31034 0
M  V30 27096 H 2476.99 1.31087 2.83236 0
M  V30 27097 N 2477.3 -1.26549 0.939309 0
M  V30 27098 C 2478.21 -2.30176 0.453473 0
M  V30 27099 C 2479.22 -1.67487 -0.47162 0
M  V30 27100 O 2480.4 -1.98307 -0.351605 0
M  V30 27101 C 2477.46 -3.45606 -0.275265 0
M  V30 27102 C 2476.52 -4.23781 0.686159 0
M  V30 27103 C 2475.76 -5.33699 -0.00789613 0
M  V30 27104 O 2475.98 -5.57087 -1.22518 0
M  V30 27105 O 2474.91 -5.98161 0.669851 0
M  V30 27106 H 2478.74 -2.73792 1.31421 0
M  V30 27107 H 2476.32 -1.31713 0.705119 0
M  V30 27108 H 2478.21 -4.15781 -0.685838 0
M  V30 27109 H 2476.88 -3.04022 -1.11142 0
M  V30 27110 H 2475.79 -3.56094 1.14664 0
M  V30 27111 H 2477.12 -4.69109 1.48987 0
M  V30 27112 N 2478.77 -0.706118 -1.40896 0
M  V30 27113 C 2480.02 -0.241924 -2.01352 0
M  V30 27114 C 2480.35 1.15885 -1.55834 0
M  V30 27115 O 2479.63 1.78429 -0.774177 0
M  V30 27116 C 2479.91 -0.311374 -3.58751 0
M  V30 27117 C 2479.76 -1.74985 -4.14367 0
M  V30 27118 C 2481.08 0.322845 -4.38914 0
M  V30 27119 H 2478.2 -0.0893815 -0.73156 0
M  V30 27120 H 2480.84 -0.896832 -1.67502 0
M  V30 27121 H 2478.99 0.246234 -3.87719 0
M  V30 27122 H 2480.67 -2.36211 -3.96235 0
M  V30 27123 H 2478.91 -2.28063 -3.69012 0
M  V30 27124 H 2479.58 -1.7499 -5.23529 0
M  V30 27125 H 2482.06 -0.152162 -4.15822 0
M  V30 27126 H 2480.93 0.243759 -5.48358 0
M  V30 27127 H 2481.19 1.40506 -4.19178 0
M  V30 27128 N 2480.25 1.50991 -0.451617 0
M  V30 27129 C 2481.5 2.01801 0.109821 0
M  V30 27130 C 2481.82 1.33692 1.41956 0
M  V30 27131 O 2481.09 0.475984 1.90029 0
M  V30 27132 H 2479.67 0.745728 0.0435753 0
M  V30 27133 H 2482.33 1.85512 -0.59759 0
M  V30 27134 H 2481.43 3.10882 0.275434 0
M  V30 27135 N 2481.73 0.183486 1.56528 0
M  V30 27136 C 2483.14 -0.331144 1.8374 0
M  V30 27137 C 2483.49 -1.62209 1.10375 0
M  V30 27138 O 2482.62 -2.13372 0.360747 0
M  V30 27139 C 2483.21 -0.607587 3.33307 0
M  V30 27140 C 2481.77 -1.06662 3.60971 0
M  V30 27141 C 2480.92 -0.10898 2.77086 0
M  V30 27142 H 2483.87 0.407511 1.53379 0
M  V30 27143 H 2483.89 -1.45826 3.51447 0
M  V30 27144 H 2483.4 0.332154 3.86676 0
M  V30 27145 H 2481.5 -2.02104 3.13025 0
M  V30 27146 H 2481.62 -0.967364 4.69232 0
M  V30 27147 H 2479.98 -0.60867 2.4732 0
M  V30 27148 H 2480.76 0.824998 3.3324 0
M  V30 27149 N 2483.21 -1.57342 -0.0901833 0
M  V30 27150 C 2484.46 -1.85521 -0.791498 0
M  V30 27151 C 2484.77 -0.773472 -1.79657 0
M  V30 27152 O 2485.98 -0.942542 -2.54614 0
M  V30 27153 C 2484.43 -3.29022 -1.4585 0
M  V30 27154 C 2484.04 -4.4528 -0.492939 0
M  V30 27155 C 2485.78 -3.66422 -2.14326 0
M  V30 27156 C 2483.69 -5.79816 -1.16481 0
M  V30 27157 H 2482.62 -0.692033 -0.299344 0
M  V30 27158 H 2485.27 -1.83446 -0.0445021 0
M  V30 27159 H 2483.65 -3.25654 -2.25313 0
M  V30 27160 H 2484.83 -4.60005 0.270545 0
M  V30 27161 H 2483.14 -4.1631 0.0863793 0
M  V30 27162 H 2485.74 -4.64221 -2.65336 0
M  V30 27163 H 2486.08 -2.95293 -2.93442 0
M  V30 27164 H 2486.62 -3.717 -1.41717 0
M  V30 27165 H 2483.35 -6.54189 -0.414355 0
M  V30 27166 H 2482.87 -5.68925 -1.8996 0
M  V30 27167 H 2484.55 -6.24541 -1.6899 0
M  V30 27168 N 2484.69 0.36113 -1.53407 0
M  V30 27169 C 2485.96 1.11924 -1.60413 0
M  V30 27170 C 2486.34 2.06992 -0.414421 0
M  V30 27171 O 2485.69 2.20619 0.594937 0
M  V30 27172 C 2485.9 1.85442 -2.95655 0
M  V30 27173 C 2487.25 2.39817 -3.5039 0
M  V30 27174 O 2488.27 1.95563 -2.97714 0
M  V30 27175 O 2487.13 3.20729 -4.42487 0
M  V30 27176 H 2484.23 0.513684 -0.648119 0
M  V30 27177 H 2486.77 0.364036 -1.65749 0
M  V30 27178 H 2485.54 1.16085 -3.73684 0
M  V30 27179 H 2485.17 2.67861 -2.9383 0
M  V30 27180 N 2486.16 1.44842 0.621179 0
M  V30 27181 C 2487.41 1.48147 1.38053 0
M  V30 27182 C 2487.74 0.117901 1.94142 0
M  V30 27183 O 2486.99 -0.881663 1.74715 0
M  V30 27184 C 2487.29 2.49735 2.5567 0
M  V30 27185 C 2486.96 3.94803 2.1781 0
M  V30 27186 C 2485.62 4.34307 2.07198 0
M  V30 27187 C 2487.97 4.86091 1.88057 0
M  V30 27188 C 2485.3 5.6301 1.65035 0
M  V30 27189 C 2487.65 6.15192 1.47384 0
M  V30 27190 C 2486.32 6.5364 1.3532 0
M  V30 27191 H 2485.59 0.54211 0.505171 0
M  V30 27192 H 2488.23 1.78112 0.703446 0
M  V30 27193 H 2486.54 2.1329 3.28656 0
M  V30 27194 H 2488.24 2.49535 3.139 0
M  V30 27195 H 2484.83 3.63556 2.26991 0
M  V30 27196 H 2489.01 4.56318 1.9516 0
M  V30 27197 H 2484.27 5.91608 1.54307 0
M  V30 27198 H 2488.44 6.85379 1.23403 0
M  V30 27199 H 2486.07 7.53269 1.02422 0
M  V30 27200 N 2487.64 -0.862479 1.31905 0
M  V30 27201 C 2488.87 -1.65395 1.25137 0
M  V30 27202 C 2489.29 -1.87247 -0.178967 0
M  V30 27203 O 2488.65 -1.41962 -1.12768 0
M  V30 27204 C 2488.7 -2.99494 2.00837 0
M  V30 27205 O 2487.8 -3.89649 1.35082 0
M  V30 27206 H 2487.14 -0.504542 0.431664 0
M  V30 27207 H 2489.67 -1.07479 1.74096 0
M  V30 27208 H 2489.68 -3.49375 2.10715 0
M  V30 27209 H 2488.36 -2.8291 3.04852 0
M  V30 27210 H 2486.94 -3.48106 1.33702 0
M  V30 27211 N 2489.12 -1.14988 -1.07775 0
M  V30 27212 C 2490.35 -0.945805 -1.84017 0
M  V30 27213 C 2490.76 0.505831 -1.81898 0
M  V30 27214 O 2490.12 1.3507 -1.22729 0
M  V30 27215 C 2490.17 -1.44683 -3.31284 0
M  V30 27216 O 2489.89 -2.8416 -3.33444 0
M  V30 27217 C 2491.39 -1.28362 -4.24309 0
M  V30 27218 H 2488.61 -0.336179 -0.580711 0
M  V30 27219 H 2491.16 -1.52657 -1.36074 0
M  V30 27220 H 2489.31 -0.908691 -3.76592 0
M  V30 27221 H 2489.73 -3.06785 -4.25422 0
M  V30 27222 H 2491.2 -1.6827 -5.25727 0
M  V30 27223 H 2491.68 -0.227261 -4.38612 0
M  V30 27224 H 2492.28 -1.81063 -3.84833 0
M  V30 27225 N 2490.6 1.26049 -0.946007 0
M  V30 27226 C 2491.85 1.92821 -0.591869 0
M  V30 27227 C 2492.16 1.74991 0.873925 0
M  V30 27228 O 2493.37 2.36261 1.33765 0
M  V30 27229 C 2491.82 3.45501 -1.00782 0
M  V30 27230 C 2491.43 3.72056 -2.49556 0
M  V30 27231 C 2493.17 4.18249 -0.725808 0
M  V30 27232 C 2491.08 5.182 -2.84997 0
M  V30 27233 H 2490.01 0.721904 -0.217647 0
M  V30 27234 H 2492.66 1.4305 -1.1493 0
M  V30 27235 H 2491.04 3.94183 -0.378882 0
M  V30 27236 H 2492.22 3.3406 -3.17396 0
M  V30 27237 H 2490.53 3.12551 -2.75138 0
M  V30 27238 H 2493.13 5.25886 -0.966864 0
M  V30 27239 H 2493.47 4.14929 0.337566 0
M  V30 27240 H 2494.01 3.75447 -1.31469 0
M  V30 27241 H 2490.75 5.26624 -3.90316 0
M  V30 27242 H 2490.27 5.57274 -2.21823 0
M  V30 27243 H 2491.94 5.86247 -2.73722 0
M  V30 27244 N 2492.08 0.71358 1.4052 0
M  V30 27245 C 2493.04 0.068475 2.29098 0
M  V30 27246 C 2494.04 -0.689446 1.4527 0
M  V30 27247 O 2495.23 -0.521648 1.66206 0
M  V30 27248 C 2492.36 -0.912966 3.28447 0
M  V30 27249 H 2493.55 0.848601 2.87643 0
M  V30 27250 H 2491.11 0.478116 1.48808 0
M  V30 27251 H 2491.84 -1.72022 2.74916 0
M  V30 27252 H 2491.63 -0.372403 3.90328 0
M  V30 27253 H 2493.12 -1.36158 3.9478 0
M  V30 27254 N 2493.55 -1.50749 0.459618 0
M  V30 27255 C 2494.8 -2.01447 -0.100936 0
M  V30 27256 C 2495.12 -1.34715 -1.41814 0
M  V30 27257 O 2496.32 -1.76506 -2.06296 0
M  V30 27258 C 2494.78 -3.59162 -0.230407 0
M  V30 27259 C 2494.39 -4.34845 1.07768 0
M  V30 27260 C 2496.13 -4.17938 -0.743535 0
M  V30 27261 C 2494.04 -5.84316 0.912632 0
M  V30 27262 H 2492.97 -0.752857 -0.041497 0
M  V30 27263 H 2495.62 -1.73662 0.592772 0
M  V30 27264 H 2494 -3.83486 -0.987635 0
M  V30 27265 H 2495.17 -4.22253 1.84497 0
M  V30 27266 H 2493.49 -3.87625 1.52104 0
M  V30 27267 H 2496.09 -5.27344 -0.883866 0
M  V30 27268 H 2496.43 -3.78565 -1.73189 0
M  V30 27269 H 2496.96 -3.97776 -0.04401 0
M  V30 27270 H 2493.7 -6.28141 1.87402 0
M  V30 27271 H 2493.22 -5.99513 0.185527 0
M  V30 27272 H 2494.9 -6.44443 0.57466 0
M  V30 27273 N 2495.03 -0.191784 -1.56429 0
M  V30 27274 C 2495.96 0.762207 -2.16155 0
M  V30 27275 C 2496.98 1.17915 -1.12249 0
M  V30 27276 O 2498.17 1.11545 -1.39355 0
M  V30 27277 C 2495.27 2.04019 -2.7061 0
M  V30 27278 C 2494.44 1.78357 -3.99384 0
M  V30 27279 C 2493.5 2.9057 -4.38697 0
M  V30 27280 O 2492.52 2.60321 -5.06184 0
M  V30 27281 N 2493.73 4.18847 -4.01929 0
M  V30 27282 H 2496.49 0.251474 -2.98643 0
M  V30 27283 H 2494.05 -0.00970219 -1.61897 0
M  V30 27284 H 2496.04 2.78221 -2.93896 0
M  V30 27285 H 2494.61 2.46224 -1.92595 0
M  V30 27286 H 2493.83 0.879513 -3.84263 0
M  V30 27287 H 2495.12 1.58605 -4.83448 0
M  V30 27288 H 2494.52 4.46277 -3.47639 0
M  V30 27289 H 2493.08 4.89688 -4.30173 0
M  V30 27290 N 2496.51 1.57387 0.0818378 0
M  V30 27291 C 2497.46 1.99435 1.10498 0
M  V30 27292 C 2498.44 0.874821 1.3504 0
M  V30 27293 O 2499.64 1.1387 1.35509 0
M  V30 27294 C 2496.77 2.43343 2.42155 0
M  V30 27295 C 2495.85 3.62009 2.2093 0
M  V30 27296 N 2496.24 4.76515 1.69608 0
M  V30 27297 C 2494.54 3.68364 2.51444 0
M  V30 27298 C 2495.24 5.58406 1.62964 0
M  V30 27299 N 2494.22 5.0196 2.08655 0
M  V30 27300 H 2498.02 2.8541 0.701322 0
M  V30 27301 H 2495.53 1.59807 0.289068 0
M  V30 27302 H 2497.53 2.71701 3.16203 0
M  V30 27303 H 2496.19 1.58751 2.83246 0
M  V30 27304 H 2497.2 4.99005 1.38615 0
M  V30 27305 H 2493.88 2.94462 2.9597 0
M  V30 27306 H 2495.27 6.60317 1.24222 0
M  V30 27307 N 2497.99 -0.35299 1.53596 0
M  V30 27308 C 2499.21 -1.11901 1.74622 0
M  V30 27309 C 2499.64 -1.81879 0.479753 0
M  V30 27310 O 2499 -1.72205 -0.567035 0
M  V30 27311 C 2499.04 -2.1154 2.92033 0
M  V30 27312 O 2498.15 -3.18874 2.61521 0
M  V30 27313 H 2497.49 -0.324089 0.579537 0
M  V30 27314 H 2500.02 -0.406266 2.00526 0
M  V30 27315 H 2500.03 -2.54925 3.18555 0
M  V30 27316 H 2498.7 -1.60001 3.83891 0
M  V30 27317 H 2497.28 -2.80373 2.45857 0
M  V30 27318 N 2499.47 -1.45169 -0.613489 0
M  V30 27319 C 2500.41 -1.5339 -1.72454 0
M  V30 27320 C 2501.38 -0.38022 -1.6169 0
M  V30 27321 O 2502.57 -0.592868 -1.81355 0
M  V30 27322 C 2499.71 -1.50094 -3.10751 0
M  V30 27323 C 2498.82 -2.75968 -3.32363 0
M  V30 27324 C 2497.96 -2.64384 -4.60732 0
M  V30 27325 C 2497 -3.8534 -4.75583 0
M  V30 27326 N 2496.13 -3.72326 -5.95246 0
M  V30 27327 H 2500.97 -2.48308 -1.64764 0
M  V30 27328 H 2498.51 -1.23218 -0.803481 0
M  V30 27329 H 2500.47 -1.46171 -3.90755 0
M  V30 27330 H 2499.1 -0.587299 -3.17412 0
M  V30 27331 H 2498.15 -2.90003 -2.46175 0
M  V30 27332 H 2499.46 -3.65701 -3.39212 0
M  V30 27333 H 2498.62 -2.58394 -5.48924 0
M  V30 27334 H 2497.36 -1.72241 -4.56272 0
M  V30 27335 H 2496.36 -3.91695 -3.85817 0
M  V30 27336 H 2497.59 -4.78541 -4.81845 0
M  V30 27337 H 2495.53 -2.82948 -5.91842 0
M  V30 27338 H 2495.45 -4.55688 -6.03228 0
M  V30 27339 H 2496.72 -3.70258 -6.85951 0
M  V30 27340 N 2500.95 0.855472 -1.32361 0
M  V30 27341 C 2502.22 1.59307 -1.13494 0
M  V30 27342 C 2502.6 2.08885 0.304993 0
M  V30 27343 O 2501.95 1.87814 1.30147 0
M  V30 27344 C 2502.16 2.73984 -2.16181 0
M  V30 27345 C 2503.51 3.43585 -2.49469 0
M  V30 27346 O 2504.53 2.84207 -2.1472 0
M  V30 27347 O 2503.39 4.50733 -3.09034 0
M  V30 27348 H 2500.49 0.701551 -0.437899 0
M  V30 27349 H 2503.03 0.899671 -1.43889 0
M  V30 27350 H 2501.8 2.34868 -3.12974 0
M  V30 27351 H 2501.43 3.51 -1.86775 0
M  V30 27352 N 2502.42 1.15558 1.07164 0
M  V30 27353 C 2503.39 0.856682 2.12588 0
M  V30 27354 C 2504.39 -0.144411 1.6015 0
M  V30 27355 O 2505.58 0.0854469 1.7399 0
M  V30 27356 C 2502.71 0.279465 3.39753 0
M  V30 27357 H 2503.9 1.79116 2.40536 0
M  V30 27358 H 2501.45 0.96332 1.23085 0
M  V30 27359 H 2502.19 -0.663119 3.17448 0
M  V30 27360 H 2501.97 1.0007 3.79115 0
M  V30 27361 H 2503.46 0.0879847 4.17507 0
M  V30 27362 N 2503.9 -1.25546 0.952678 0
M  V30 27363 C 2505.13 -1.9782 0.623059 0
M  V30 27364 C 2505.55 -1.70354 -0.79757 0
M  V30 27365 O 2504.91 -0.95831 -1.53903 0
M  V30 27366 C 2504.96 -3.49556 0.885593 0
M  V30 27367 O 2504.06 -4.12384 -0.0365917 0
M  V30 27368 H 2503.4 -0.620228 0.237093 0
M  V30 27369 H 2505.93 -1.59716 1.27874 0
M  V30 27370 H 2505.94 -3.99857 0.811079 0
M  V30 27371 H 2504.62 -3.68877 1.92101 0
M  V30 27372 H 2503.19 -3.72791 0.089961 0
M  V30 27373 N 2505.38 -0.721022 -1.40139 0
M  V30 27374 C 2506.61 -0.272296 -2.04798 0
M  V30 27375 C 2507.02 1.09287 -1.54444 0
M  V30 27376 O 2506.36 1.69907 -0.698372 0
M  V30 27377 C 2506.42 -0.180333 -3.59047 0
M  V30 27378 C 2506.09 -1.48167 -4.32314 0
M  V30 27379 C 2507.08 -2.42466 -4.59898 0
M  V30 27380 C 2504.77 -1.7421 -4.71122 0
M  V30 27381 C 2506.76 -3.61051 -5.25282 0
M  V30 27382 C 2504.45 -2.93075 -5.36237 0
M  V30 27383 C 2505.45 -3.86318 -5.63247 0
M  V30 27384 O 2505.14 -5.03097 -6.27015 0
M  V30 27385 H 2504.87 -0.11915 -0.665417 0
M  V30 27386 H 2507.42 -0.981464 -1.80434 0
M  V30 27387 H 2505.65 0.584822 -3.82252 0
M  V30 27388 H 2507.34 0.234547 -4.05222 0
M  V30 27389 H 2508.11 -2.23612 -4.30375 0
M  V30 27390 H 2503.99 -1.02485 -4.49464 0
M  V30 27391 H 2507.53 -4.33847 -5.46281 0
M  V30 27392 H 2503.43 -3.11836 -5.6518 0
M  V30 27393 H 2504.19 -5.03247 -6.45511 0
M  V30 27394 N 2506.86 1.50503 -0.467606 0
M  V30 27395 C 2508.09 2.0672 0.086377 0
M  V30 27396 C 2508.5 1.33186 1.33817 0
M  V30 27397 O 2507.86 0.400114 1.7806 0
M  V30 27398 C 2507.91 3.59518 0.378016 0
M  V30 27399 O 2507.63 4.30279 -0.82412 0
M  V30 27400 C 2509.13 4.32347 0.97935 0
M  V30 27401 H 2506.35 0.670977 -0.00552876 0
M  V30 27402 H 2508.89 1.93713 -0.655388 0
M  V30 27403 H 2507.05 3.72339 1.06971 0
M  V30 27404 H 2507.46 5.21431 -0.566609 0
M  V30 27405 H 2508.94 5.40243 1.1332 0
M  V30 27406 H 2509.41 3.92614 1.96853 0
M  V30 27407 H 2510.02 4.24048 0.326141 0
M  V30 27408 N 2508.34 0.200077 1.56325 0
M  V30 27409 C 2509.28 -0.718795 2.19322 0
M  V30 27410 C 2510.25 -1.20613 1.142 0
M  V30 27411 O 2511.44 -1.26912 1.42471 0
M  V30 27412 C 2508.58 -1.93061 2.86044 0
M  V30 27413 C 2507.69 -1.48418 4.05705 0
M  V30 27414 C 2506.83 -2.65188 4.6027 0
M  V30 27415 C 2505.86 -2.17175 5.72277 0
M  V30 27416 N 2505 -3.27141 6.21227 0
M  V30 27417 H 2509.84 -0.174837 2.97487 0
M  V30 27418 H 2507.38 -0.0745536 1.46911 0
M  V30 27419 H 2509.34 -2.64179 3.22902 0
M  V30 27420 H 2507.97 -2.4478 2.10435 0
M  V30 27421 H 2507.02 -0.668689 3.74477 0
M  V30 27422 H 2508.33 -1.09196 4.86701 0
M  V30 27423 H 2507.48 -3.44421 4.99459 0
M  V30 27424 H 2506.22 -3.07687 3.78392 0
M  V30 27425 H 2505.23 -1.36398 5.32612 0
M  V30 27426 H 2506.45 -1.75701 6.55977 0
M  V30 27427 H 2504.4 -3.69161 5.42269 0
M  V30 27428 H 2504.32 -2.92104 6.97289 0
M  V30 27429 H 2505.58 -4.06573 6.6507 0
M  V30 27430 N 2509.81 -1.57429 -0.0734901 0
M  V30 27431 C 2510.78 -2.02591 -1.07189 0
M  V30 27432 C 2511.78 -0.922684 -1.31694 0
M  V30 27433 O 2512.97 -1.1876 -1.27443 0
M  V30 27434 C 2510.1 -2.4051 -2.41594 0
M  V30 27435 H 2511.29 -2.92027 -0.682676 0
M  V30 27436 H 2508.84 -1.53007 -0.319167 0
M  V30 27437 H 2509.58 -1.54095 -2.85351 0
M  V30 27438 H 2509.36 -3.21013 -2.25151 0
M  V30 27439 H 2510.85 -2.76033 -3.13362 0
M  V30 27440 N 2511.29 0.344839 -1.53781 0
M  V30 27441 C 2512.22 1.42903 -1.84665 0
M  V30 27442 C 2513.2 1.54953 -0.701675 0
M  V30 27443 O 2514.39 1.69182 -0.953467 0
M  V30 27444 C 2511.52 2.79971 -2.05508 0
M  V30 27445 C 2510.47 2.82728 -3.21323 0
M  V30 27446 C 2509.8 4.22669 -3.27498 0
M  V30 27447 C 2511.1 2.48381 -4.59461 0
M  V30 27448 H 2512.79 1.17306 -2.75463 0
M  V30 27449 H 2510.34 0.562872 -1.32543 0
M  V30 27450 H 2512.29 3.55863 -2.25697 0
M  V30 27451 H 2511.01 3.07 -1.1144 0
M  V30 27452 H 2509.67 2.09289 -3.00988 0
M  V30 27453 H 2509.32 4.46806 -2.31027 0
M  V30 27454 H 2509.02 4.25426 -4.05323 0
M  V30 27455 H 2510.55 5.00405 -3.49895 0
M  V30 27456 H 2511.96 3.13986 -4.79672 0
M  V30 27457 H 2510.36 2.62422 -5.3968 0
M  V30 27458 H 2511.43 1.43572 -4.63158 0
M  V30 27459 N 2512.77 1.45492 0.605781 0
M  V30 27460 C 2513.72 1.54302 1.71638 0
M  V30 27461 C 2514.69 0.388789 1.61486 0
M  V30 27462 O 2515.87 0.602477 1.81038 0
M  V30 27463 C 2513.01 1.51739 3.0995 0
M  V30 27464 C 2512.12 2.77727 3.30895 0
M  V30 27465 C 2511.26 2.66824 4.59324 0
M  V30 27466 C 2510.3 3.87857 4.73533 0
M  V30 27467 N 2509.44 3.75477 5.93263 0
M  V30 27468 H 2514.28 2.49178 1.63444 0
M  V30 27469 H 2511.81 1.23642 0.796936 0
M  V30 27470 H 2513.77 1.48241 3.89975 0
M  V30 27471 H 2512.4 0.604124 3.17096 0
M  V30 27472 H 2511.45 2.91305 2.44634 0
M  V30 27473 H 2512.76 3.67494 3.37267 0
M  V30 27474 H 2511.92 2.61302 5.47546 0
M  V30 27475 H 2510.66 1.74659 4.55352 0
M  V30 27476 H 2509.66 3.93736 3.83735 0
M  V30 27477 H 2510.89 4.8109 4.79301 0
M  V30 27478 H 2508.83 2.86082 5.90333 0
M  V30 27479 H 2508.75 4.58881 6.00803 0
M  V30 27480 H 2510.02 3.73891 6.83978 0
M  V30 27481 N 2514.25 -0.848441 1.32813 0
M  V30 27482 C 2515.18 -1.97297 1.24885 0
M  V30 27483 C 2516.16 -1.69592 0.131386 0
M  V30 27484 O 2517.34 -1.91552 0.319586 0
M  V30 27485 C 2514.47 -3.33259 0.977518 0
M  V30 27486 C 2513.43 -3.75335 2.05689 0
M  V30 27487 C 2512.75 -5.08997 1.63786 0
M  V30 27488 C 2514.05 -3.90137 3.47261 0
M  V30 27489 H 2515.75 -2.04187 2.1897 0
M  V30 27490 H 2513.29 -0.98101 1.05414 0
M  V30 27491 H 2515.25 -4.11488 0.908585 0
M  V30 27492 H 2513.97 -3.266 0.00103742 0
M  V30 27493 H 2512.63 -2.99362 2.11608 0
M  V30 27494 H 2512.28 -4.988 0.648656 0
M  V30 27495 H 2511.98 -5.3812 2.36009 0
M  V30 27496 H 2513.5 -5.89712 1.58341 0
M  V30 27497 H 2514.92 -4.58703 3.43896 0
M  V30 27498 H 2513.31 -4.30685 4.17888 0
M  V30 27499 H 2514.38 -2.92867 3.86467 0
M  V30 27500 N 2515.73 -1.16125 -1.06549 0
M  V30 27501 C 2516.97 -0.941158 -1.793 0
M  V30 27502 C 2517.3 0.531202 -1.87106 0
M  V30 27503 O 2516.56 1.41016 -1.35695 0
M  V30 27504 C 2516.86 -1.51057 -3.23908 0
M  V30 27505 C 2516.52 -3.00481 -3.36187 0
M  V30 27506 C 2515.18 -3.41271 -3.39246 0
M  V30 27507 C 2517.54 -3.96471 -3.38319 0
M  V30 27508 C 2514.86 -4.76675 -3.42049 0
M  V30 27509 C 2517.22 -5.31758 -3.4266 0
M  V30 27510 C 2515.88 -5.72032 -3.44 0
M  V30 27511 H 2515.15 -0.344394 -0.656105 0
M  V30 27512 H 2517.8 -1.44798 -1.25322 0
M  V30 27513 H 2516.1 -0.925129 -3.80721 0
M  V30 27514 H 2517.8 -1.31599 -3.78791 0
M  V30 27515 H 2514.39 -2.67956 -3.34511 0
M  V30 27516 H 2518.57 -3.66026 -3.3517 0
M  V30 27517 H 2513.83 -5.07212 -3.41389 0
M  V30 27518 H 2518 -6.05927 -3.43257 0
M  V30 27519 H 2515.63 -6.76934 -3.45925 0
M  V30 27520 N 2517.2 1.25039 -0.959323 0
M  V30 27521 C 2518.11 2.29425 -0.490034 0
M  V30 27522 C 2519.13 1.68216 0.444915 0
M  V30 27523 O 2520.31 1.98841 0.320011 0
M  V30 27524 C 2517.37 3.46 0.220248 0
M  V30 27525 C 2516.43 4.22636 -0.753492 0
M  V30 27526 C 2515.67 5.33644 -0.0770118 0
M  V30 27527 O 2515.89 5.58965 1.13639 0
M  V30 27528 O 2514.82 5.9702 -0.764929 0
M  V30 27529 H 2518.65 2.71667 -1.3576 0
M  V30 27530 H 2516.23 1.30575 -0.725984 0
M  V30 27531 H 2518.12 4.1682 0.619604 0
M  V30 27532 H 2516.79 3.05751 1.06291 0
M  V30 27533 H 2515.7 3.54225 -1.20315 0
M  V30 27534 H 2517.03 4.6668 -1.56431 0
M  V30 27535 N 2518.68 0.728444 1.39755 0
M  V30 27536 C 2519.96 0.200113 1.94574 0
M  V30 27537 C 2520.34 -1.29681 1.66571 0
M  V30 27538 O 2519.69 -2.05923 0.990362 0
M  V30 27539 C 2519.9 0.526669 3.45003 0
M  V30 27540 C 2521.25 0.472392 4.21964 0
M  V30 27541 O 2522.27 0.463475 3.53172 0
M  V30 27542 O 2521.13 0.46117 5.44551 0
M  V30 27543 H 2518.22 0.0342996 0.826288 0
M  V30 27544 H 2520.77 0.806855 1.49291 0
M  V30 27545 H 2519.54 1.5615 3.58793 0
M  V30 27546 H 2519.16 -0.109379 3.9745 0
M  V30 27547 N 2520.16 -1.50253 0.475581 0
M  V30 27548 C 2521.11 -2.28623 -0.316253 0
M  V30 27549 C 2522.08 -1.33874 -0.983203 0
M  V30 27550 O 2523.26 -1.62815 -0.994776 0
M  V30 27551 C 2520.4 -3.15882 -1.38969 0
M  V30 27552 C 2519.52 -4.25666 -0.737071 0
M  V30 27553 C 2518.65 -5.00176 -1.78879 0
M  V30 27554 C 2517.69 -6.01828 -1.11665 0
M  V30 27555 N 2516.83 -6.696 -2.11142 0
M  V30 27556 H 2521.67 -2.95838 0.358349 0
M  V30 27557 H 2519.2 -1.45886 0.188566 0
M  V30 27558 H 2521.16 -3.64828 -2.02376 0
M  V30 27559 H 2519.79 -2.50704 -2.0334 0
M  V30 27560 H 2518.84 -3.80399 0.00967337 0
M  V30 27561 H 2520.16 -4.98371 -0.206729 0
M  V30 27562 H 2519.31 -5.52863 -2.49855 0
M  V30 27563 H 2518.05 -4.27186 -2.35294 0
M  V30 27564 H 2517.05 -5.48397 -0.392537 0
M  V30 27565 H 2518.28 -6.76793 -0.559331 0
M  V30 27566 H 2516.22 -5.99398 -2.66566 0
M  V30 27567 H 2516.14 -7.38196 -1.63105 0
M  V30 27568 H 2517.41 -7.26902 -2.81485 0
M  V30 27569 N 2521.64 -0.208365 -1.56217 0
M  V30 27570 C 2522.55 0.718796 -2.23317 0
M  V30 27571 C 2523.56 1.2242 -1.2365 0
M  V30 27572 O 2524.74 1.26858 -1.56426 0
M  V30 27573 C 2521.81 1.91563 -2.88971 0
M  V30 27574 C 2520.87 1.4535 -4.03945 0
M  V30 27575 C 2520.1 2.59329 -4.66459 0
M  V30 27576 O 2520.32 3.77141 -4.27926 0
M  V30 27577 O 2519.26 2.31283 -5.5569 0
M  V30 27578 H 2523.08 0.177262 -3.03182 0
M  V30 27579 H 2520.67 0.0215139 -1.49385 0
M  V30 27580 H 2522.55 2.61486 -3.30459 0
M  V30 27581 H 2521.22 2.44552 -2.12076 0
M  V30 27582 H 2520.13 0.722681 -3.67053 0
M  V30 27583 H 2521.46 0.970134 -4.82545 0
M  V30 27584 N 2523.12 1.57465 0.0651402 0
M  V30 27585 C 2524.05 2.07184 1.0769 0
M  V30 27586 C 2525.03 0.966697 1.39961 0
M  V30 27587 O 2526.21 1.23982 1.49472 0
M  V30 27588 C 2523.34 2.52131 2.38845 0
M  V30 27589 C 2522.3 3.66582 2.2091 0
M  V30 27590 C 2521.62 3.97608 3.57508 0
M  V30 27591 C 2522.92 4.96383 1.62485 0
M  V30 27592 H 2524.62 2.91964 0.663148 0
M  V30 27593 H 2522.16 1.40455 0.317544 0
M  V30 27594 H 2524.12 2.85528 3.09923 0
M  V30 27595 H 2522.84 1.64389 2.82213 0
M  V30 27596 H 2521.5 3.33479 1.52273 0
M  V30 27597 H 2521.15 3.06986 3.98458 0
M  V30 27598 H 2520.85 4.74678 3.46345 0
M  V30 27599 H 2522.37 4.33506 4.30006 0
M  V30 27600 H 2523.78 5.27967 2.23435 0
M  V30 27601 H 2522.18 5.7782 1.61999 0
M  V30 27602 H 2523.25 4.81334 0.586956 0
M  V30 27603 N 2524.59 -0.336679 1.53962 0
M  V30 27604 C 2525.53 -1.43457 1.78753 0
M  V30 27605 C 2526.54 -1.48417 0.669045 0
M  V30 27606 O 2527.73 -1.51376 0.94591 0
M  V30 27607 C 2524.83 -2.82075 1.87848 0
M  V30 27608 C 2524 -3.00473 3.17859 0
M  V30 27609 C 2523.06 -4.19374 3.17824 0
M  V30 27610 O 2522.09 -4.13161 3.91518 0
M  V30 27611 N 2523.29 -5.28256 2.40678 0
M  V30 27612 H 2526.05 -1.22558 2.73495 0
M  V30 27613 H 2523.61 -0.526598 1.53097 0
M  V30 27614 H 2525.61 -3.59803 1.85268 0
M  V30 27615 H 2524.18 -2.96085 1.00263 0
M  V30 27616 H 2523.4 -2.10157 3.33508 0
M  V30 27617 H 2524.68 -3.09653 4.03723 0
M  V30 27618 H 2524.08 -5.36175 1.80369 0
M  V30 27619 H 2522.64 -6.04452 2.43888 0
M  V30 27620 N 2526.07 -1.45812 -0.598057 0
M  V30 27621 C 2527.32 -1.51537 -1.35676 0
M  V30 27622 C 2527.67 -0.158674 -1.91745 0
M  V30 27623 O 2526.97 0.830694 -1.72656 0
M  V30 27624 C 2527.16 -2.53771 -2.51665 0
M  V30 27625 C 2526.99 -3.99248 -2.06956 0
M  V30 27626 C 2525.76 -4.6712 -1.92685 0
M  V30 27627 C 2527.96 -4.87503 -1.63846 0
M  V30 27628 N 2525.94 -5.97278 -1.41886 0
M  V30 27629 C 2527.31 -6.07365 -1.24531 0
M  V30 27630 C 2529.37 -4.74283 -1.51524 0
M  V30 27631 C 2528.07 -7.15471 -0.741228 0
M  V30 27632 C 2530.09 -5.82446 -1.0252 0
M  V30 27633 C 2529.46 -7.01471 -0.641745 0
M  V30 27634 H 2525.56 -0.609421 -0.490031 0
M  V30 27635 H 2528.14 -1.8234 -0.682655 0
M  V30 27636 H 2526.31 -2.24904 -3.16659 0
M  V30 27637 H 2528.04 -2.49585 -3.18574 0
M  V30 27638 H 2524.8 -4.22411 -2.14162 0
M  V30 27639 H 2525.22 -6.66514 -1.18692 0
M  V30 27640 H 2529.86 -3.82667 -1.79793 0
M  V30 27641 H 2527.58 -8.06868 -0.446101 0
M  V30 27642 H 2531.17 -5.74254 -0.933987 0
M  V30 27643 H 2530.05 -7.83741 -0.268393 0
M  V30 27644 N 2527.55 0.841385 -1.33261 0
M  V30 27645 C 2528.78 1.62861 -1.27608 0
M  V30 27646 C 2529.19 1.88175 0.153474 0
M  V30 27647 O 2528.55 1.46013 1.09482 0
M  V30 27648 C 2528.6 2.98028 -2.04602 0
M  V30 27649 O 2528.32 2.73828 -3.4198 0
M  V30 27650 C 2529.82 3.92461 -2.06129 0
M  V30 27651 H 2527.04 0.506834 -0.439727 0
M  V30 27652 H 2529.59 1.04821 -1.75593 0
M  V30 27653 H 2527.74 3.52677 -1.60305 0
M  V30 27654 H 2528.16 3.59883 -3.81556 0
M  V30 27655 H 2529.63 4.84526 -2.64459 0
M  V30 27656 H 2530.11 4.26442 -1.0509 0
M  V30 27657 H 2530.71 3.43749 -2.50433 0
M  V30 27658 N 2529.03 1.16688 1.05932 0
M  V30 27659 C 2530.28 0.950653 1.78798 0
M  V30 27660 C 2530.6 -0.521272 1.87385 0
M  V30 27661 O 2529.86 -1.40294 1.36441 0
M  V30 27662 C 2530.16 1.52773 3.23102 0
M  V30 27663 C 2529.82 3.0226 3.34589 0
M  V30 27664 C 2528.49 3.43065 3.37431 0
M  V30 27665 C 2530.84 3.9826 3.36212 0
M  V30 27666 C 2528.17 4.78483 3.39516 0
M  V30 27667 C 2530.52 5.33568 3.39835 0
M  V30 27668 C 2529.18 5.73848 3.40961 0
M  V30 27669 H 2528.45 0.347869 0.654269 0
M  V30 27670 H 2531.1 1.45461 1.24553 0
M  V30 27671 H 2529.4 0.945307 3.80225 0
M  V30 27672 H 2531.1 1.33606 3.78088 0
M  V30 27673 H 2527.69 2.69726 3.33085 0
M  V30 27674 H 2531.88 3.67798 3.33224 0
M  V30 27675 H 2527.13 5.09015 3.38694 0
M  V30 27676 H 2531.31 6.07739 3.40039 0
M  V30 27677 H 2528.93 6.78759 3.4233 0
M  V30 27678 N 2530.51 -1.24529 0.96594 0
M  V30 27679 C 2531.76 -1.91855 0.622471 0
M  V30 27680 C 2532.07 -1.76359 -0.845975 0
M  V30 27681 O 2533.28 -2.38359 -1.29989 0
M  V30 27682 C 2531.73 -3.43854 1.06266 0
M  V30 27683 C 2531.34 -3.68039 2.55444 0
M  V30 27684 C 2533.08 -4.17041 0.792256 0
M  V30 27685 C 2530.99 -5.136 2.93205 0
M  V30 27686 H 2529.92 -0.71835 0.229105 0
M  V30 27687 H 2532.57 -1.41204 1.17191 0
M  V30 27688 H 2530.95 -3.93531 0.441545 0
M  V30 27689 H 2532.13 -3.28969 3.22671 0
M  V30 27690 H 2530.44 -3.08134 2.80076 0
M  V30 27691 H 2533.04 -5.24281 1.05041 0
M  V30 27692 H 2533.38 -4.15414 -0.271511 0
M  V30 27693 H 2533.92 -3.73308 1.37426 0
M  V30 27694 H 2530.65 -5.20348 3.98645 0
M  V30 27695 H 2530.17 -5.53675 2.3066 0
M  V30 27696 H 2531.85 -5.81818 2.83014 0
M  V30 27697 N 2531.99 -0.735845 -1.39367 0
M  V30 27698 C 2532.92 -0.0451576 -2.28155 0
M  V30 27699 C 2533.9 0.746826 -1.44434 0
M  V30 27700 O 2535.08 0.729207 -1.73824 0
M  V30 27701 C 2532.21 0.943208 -3.25302 0
M  V30 27702 C 2531.25 0.23961 -4.25826 0
M  V30 27703 S 2532.09 -1.04702 -5.25164 0
M  V30 27704 C 2533.24 -0.0612739 -6.2587 0
M  V30 27705 H 2533.48 -0.79812 -2.86387 0
M  V30 27706 H 2531.01 -0.527679 -1.45103 0
M  V30 27707 H 2532.97 1.50817 -3.81791 0
M  V30 27708 H 2531.63 1.66901 -2.66088 0
M  V30 27709 H 2530.82 0.987509 -4.94231 0
M  V30 27710 H 2530.42 -0.25334 -3.73141 0
M  V30 27711 H 2532.71 0.778823 -6.73009 0
M  V30 27712 H 2533.66 -0.712485 -7.04506 0
M  V30 27713 H 2534.07 0.311503 -5.6364 0
M  V30 27714 N 2533.46 1.49999 -0.483543 0
M  V30 27715 C 2534.39 2.31644 0.293788 0
M  V30 27716 C 2535.37 1.39114 0.97884 0
M  V30 27717 O 2536.56 1.68031 0.973614 0
M  V30 27718 C 2533.69 3.19183 1.36892 0
M  V30 27719 C 2532.64 4.20366 0.804759 0
M  V30 27720 C 2531.97 4.96725 1.97911 0
M  V30 27721 C 2533.27 5.21945 -0.192404 0
M  V30 27722 H 2534.96 2.9688 -0.387668 0
M  V30 27723 H 2532.51 1.42769 -0.187881 0
M  V30 27724 H 2534.46 3.75103 1.9203 0
M  V30 27725 H 2533.19 2.51857 2.07932 0
M  V30 27726 H 2531.85 3.65565 0.275254 0
M  V30 27727 H 2531.49 4.25861 2.67678 0
M  V30 27728 H 2531.19 5.65176 1.60779 0
M  V30 27729 H 2532.72 5.55483 2.53516 0
M  V30 27730 H 2534.13 5.72663 0.270232 0
M  V30 27731 H 2532.53 5.98188 -0.478648 0
M  V30 27732 H 2533.6 4.71926 -1.11418 0
M  V30 27733 N 2534.94 0.216646 1.56104 0
M  V30 27734 C 2536.17 -0.421378 2.02564 0
M  V30 27735 C 2536.58 -1.53693 1.09653 0
M  V30 27736 O 2535.94 -1.82196 0.105242 0
M  V30 27737 C 2535.99 -0.957604 3.48586 0
M  V30 27738 O 2535.71 0.113466 4.37953 0
M  V30 27739 C 2537.21 -1.66936 4.10667 0
M  V30 27740 H 2534.43 -0.103654 0.662946 0
M  V30 27741 H 2536.98 0.331664 2.01793 0
M  V30 27742 H 2535.13 -1.66094 3.49988 0
M  V30 27743 H 2535.55 -0.28884 5.23704 0
M  V30 27744 H 2537.02 -1.99662 5.14625 0
M  V30 27745 H 2537.5 -2.58077 3.55377 0
M  V30 27746 H 2538.1 -1.01135 4.131 0
M  V30 27747 N 2536.42 -1.57498 -0.0567885 0
M  V30 27748 C 2537.65 -1.91936 -0.764482 0
M  V30 27749 C 2538.06 -0.8123 -1.70875 0
M  V30 27750 O 2537.4 0.222181 -1.82351 0
M  V30 27751 C 2537.46 -3.21965 -1.59935 0
M  V30 27752 C 2537.13 -4.49531 -0.822846 0
M  V30 27753 C 2538.12 -5.19724 -0.135373 0
M  V30 27754 C 2535.81 -4.96119 -0.785579 0
M  V30 27755 C 2537.8 -6.34765 0.578973 0
M  V30 27756 C 2535.49 -6.11063 -0.067471 0
M  V30 27757 C 2536.49 -6.80238 0.613591 0
M  V30 27758 O 2536.18 -7.92987 1.3201 0
M  V30 27759 H 2535.91 -0.638634 -0.221636 0
M  V30 27760 H 2538.46 -2.05383 -0.0267857 0
M  V30 27761 H 2536.69 -3.04768 -2.3802 0
M  V30 27762 H 2538.38 -3.41937 -2.18709 0
M  V30 27763 H 2539.15 -4.84751 -0.155373 0
M  V30 27764 H 2535.03 -4.42139 -1.30516 0
M  V30 27765 H 2538.57 -6.88694 1.11112 0
M  V30 27766 H 2534.47 -6.45484 -0.0454501 0
M  V30 27767 H 2535.23 -8.09191 1.23091 0
M  V30 27768 N 2537.9 0.328509 -1.54138 0
M  V30 27769 C 2538.83 1.40936 -1.8617 0
M  V30 27770 C 2539.81 1.542 -0.718071 0
M  V30 27771 O 2540.99 1.68161 -0.971358 0
M  V30 27772 C 2538.12 2.77775 -2.08466 0
M  V30 27773 C 2537.08 2.79304 -3.24304 0
M  V30 27774 C 2536.4 4.19172 -3.31962 0
M  V30 27775 C 2537.7 2.43494 -4.62069 0
M  V30 27776 H 2539.4 1.14378 -2.76691 0
M  V30 27777 H 2536.94 0.548783 -1.33133 0
M  V30 27778 H 2538.9 3.5345 -2.29459 0
M  V30 27779 H 2537.62 3.058 -1.14689 0
M  V30 27780 H 2536.28 2.06085 -3.03191 0
M  V30 27781 H 2535.93 4.4433 -2.35753 0
M  V30 27782 H 2535.63 4.21103 -4.09813 0
M  V30 27783 H 2537.15 4.96666 -3.55183 0
M  V30 27784 H 2538.57 3.08881 -4.82976 0
M  V30 27785 H 2536.96 2.56683 -5.42433 0
M  V30 27786 H 2538.03 1.38651 -4.64655 0
M  V30 27787 N 2539.38 1.46127 0.590316 0
M  V30 27788 C 2540.32 1.56473 1.72102 0
M  V30 27789 C 2541.32 0.433641 1.63756 0
M  V30 27790 O 2542.52 0.610224 1.69341 0
M  V30 27791 H 2538.9 0.491812 0.56888 0
M  V30 27792 H 2540.87 2.51556 1.60505 0
M  V30 27793 C 2539.62 1.56497 3.1049 0
M  V30 27794 H 2538.94 2.42865 3.17579 0
M  V30 27795 H 2540.38 1.67792 3.89387 0
M  V30 27796 C 2538.84 0.29229 3.3563 0
M  V30 27797 O 2539.37 -0.620669 3.96876 0
M  V30 27798 N 2537.58 0.182574 2.90026 0
M  V30 27799 H 2537.12 0.926399 2.40366 0
M  V30 27800 H 2537.08 -0.668098 3.07219 0
M  V30 27801 N 2540.85 -0.834306 1.33705 0
M  V30 27802 C 2541.8 -1.96585 1.24326 0
M  V30 27803 C 2542.8 -1.6879 0.143689 0
M  V30 27804 O 2544 -1.77346 0.307941 0
M  V30 27805 H 2540.38 -0.645413 0.385936 0
M  V30 27806 H 2542.35 -2.0162 2.19982 0
M  V30 27807 C 2541.1 -3.32889 1.00399 0
M  V30 27808 H 2540.42 -3.54819 1.84238 0
M  V30 27809 H 2541.86 -4.1255 0.978693 0
M  V30 27810 C 2540.32 -3.35624 -0.292988 0
M  V30 27811 O 2540.85 -3.80145 -1.29817 0
M  V30 27812 N 2539.05 -2.88809 -0.322123 0
M  V30 27813 H 2538.6 -2.52771 0.496424 0
M  V30 27814 H 2538.56 -2.91021 -1.18971 0
M  V30 27815 N 2542.33 -1.17248 -1.05312 0
M  V30 27816 C 2543.56 -0.984625 -1.81969 0
M  V30 27817 C 2543.97 0.467134 -1.8293 0
M  V30 27818 O 2543.33 1.32436 -1.25566 0
M  V30 27819 C 2543.38 -1.51677 -3.28141 0
M  V30 27820 O 2543.1 -2.91169 -3.27342 0
M  V30 27821 C 2544.6 -1.37333 -4.21491 0
M  V30 27822 H 2541.82 -0.348421 -0.573449 0
M  V30 27823 H 2544.37 -1.55509 -1.32806 0
M  V30 27824 H 2542.52 -0.988367 -3.7458 0
M  V30 27825 H 2542.94 -3.15739 -4.18818 0
M  V30 27826 H 2544.41 -1.79384 -5.2204 0
M  V30 27827 H 2544.89 -0.320246 -4.38031 0
M  V30 27828 H 2545.49 -1.89185 -3.80906 0
M  V30 27829 N 2543.81 1.24015 -0.972531 0
M  V30 27830 C 2544.74 2.27508 -0.525588 0
M  V30 27831 C 2545.72 1.64385 0.437233 0
M  V30 27832 O 2546.91 1.91336 0.332309 0
M  V30 27833 C 2544.04 3.46831 0.180387 0
M  V30 27834 C 2542.99 4.22255 -0.698933 0
M  V30 27835 C 2542.32 5.3452 0.138809 0
M  V30 27836 C 2543.62 4.83073 -1.9859 0
M  V30 27837 H 2545.31 2.65145 -1.39063 0
M  V30 27838 H 2542.86 1.27458 -0.670113 0
M  V30 27839 H 2544.81 4.18371 0.504313 0
M  V30 27840 H 2543.53 3.08233 1.07981 0
M  V30 27841 H 2542.19 3.52521 -1.0062 0
M  V30 27842 H 2541.84 4.92162 1.03853 0
M  V30 27843 H 2541.54 5.85902 -0.446362 0
M  V30 27844 H 2543.06 6.08885 0.457297 0
M  V30 27845 H 2544.48 5.46662 -1.72725 0
M  V30 27846 H 2542.88 5.44708 -2.5182 0
M  V30 27847 H 2543.95 4.04257 -2.67776 0
M  V30 27848 N 2545.29 0.743226 1.38974 0
M  V30 27849 C 2546.53 0.295224 2.0064 0
M  V30 27850 C 2546.87 -1.11713 1.58852 0
M  V30 27851 O 2546.14 -1.76313 0.821212 0
M  V30 27852 C 2546.43 0.406381 3.578 0
M  V30 27853 C 2546.28 1.8591 4.09582 0
M  V30 27854 C 2547.6 -0.206361 4.39616 0
M  V30 27855 H 2544.72 0.108746 0.728933 0
M  V30 27856 H 2547.36 0.940926 1.65065 0
M  V30 27857 H 2545.51 -0.143351 3.88235 0
M  V30 27858 H 2547.18 2.46634 3.89833 0
M  V30 27859 H 2545.42 2.37767 3.62835 0
M  V30 27860 H 2546.09 1.88809 5.18705 0
M  V30 27861 H 2548.57 0.262356 4.15272 0
M  V30 27862 H 2547.45 -0.0982854 5.48812 0
M  V30 27863 H 2547.71 -1.29342 4.22756 0
M  V30 27864 N 2546.77 -1.4974 0.491491 0
M  V30 27865 C 2547.68 -2.32715 -0.296794 0
M  V30 27866 C 2548.69 -1.44015 -0.97651 0
M  V30 27867 O 2549.87 -1.77048 -0.959992 0
M  V30 27868 C 2546.93 -3.19217 -1.35283 0
M  V30 27869 C 2545.99 -4.23758 -0.687557 0
M  V30 27870 C 2545.23 -5.06126 -1.69328 0
M  V30 27871 O 2545.45 -4.89866 -2.92211 0
M  V30 27872 O 2544.38 -5.88696 -1.25384 0
M  V30 27873 H 2548.21 -3.01287 0.382101 0
M  V30 27874 H 2545.8 -1.47243 0.252979 0
M  V30 27875 H 2547.68 -3.72831 -1.96404 0
M  V30 27876 H 2546.35 -2.53351 -2.01482 0
M  V30 27877 H 2545.26 -3.74082 -0.0368502 0
M  V30 27878 H 2546.59 -4.92153 -0.0681701 0
M  V30 27879 N 2548.24 -0.224922 -1.55987 0
M  V30 27880 C 2549.52 0.455049 -1.90233 0
M  V30 27881 C 2549.9 1.77497 -1.14272 0
M  V30 27882 O 2549.25 2.27094 -0.253119 0
M  V30 27883 C 2549.46 0.644698 -3.42994 0
M  V30 27884 C 2550.81 0.950596 -4.13822 0
M  V30 27885 O 2551.83 0.731362 -3.48611 0
M  V30 27886 O 2550.69 1.36685 -5.29131 0
M  V30 27887 H 2547.78 0.24107 -0.791084 0
M  V30 27888 H 2550.33 -0.267357 -1.67581 0
M  V30 27889 H 2549.1 -0.286199 -3.90252 0
M  V30 27890 H 2548.73 1.41847 -3.71437 0
M  V30 27891 N 2549.72 1.57526 0.0484352 0
M  V30 27892 C 2550.96 1.90215 0.748162 0
M  V30 27893 C 2551.33 0.821378 1.73544 0
M  V30 27894 O 2552.53 1.03203 2.48199 0
M  V30 27895 C 2550.8 3.281 1.41721 0
M  V30 27896 S 2552.36 3.82587 2.14877 0
M  V30 27897 H 2549.18 0.666236 0.248295 0
M  V30 27898 H 2551.78 1.955 0.00339752 0
M  V30 27899 H 2550.48 4.0464 0.685173 0
M  V30 27900 H 2550.01 3.26072 2.20093 0
M  V30 27901 H 2552.03 3.59753 3.41749 0
M  V30 27902 N 2551.2 -0.32033 1.5431 0
M  V30 27903 C 2552.45 -1.05946 1.72926 0
M  V30 27904 C 2552.78 -1.87567 0.503218 0
M  V30 27905 O 2552.05 -1.87969 -0.499806 0
M  V30 27906 C 2552.34 -1.9815 3.0068 0
M  V30 27907 C 2552.19 -1.19838 4.33542 0
M  V30 27908 C 2553.51 -2.97625 3.24203 0
M  V30 27909 H 2550.63 -0.383763 0.629202 0
M  V30 27910 H 2553.27 -0.335821 1.87009 0
M  V30 27911 H 2551.42 -2.59854 2.88804 0
M  V30 27912 H 2553.09 -0.605693 4.57306 0
M  V30 27913 H 2551.34 -0.500708 4.30901 0
M  V30 27914 H 2552.01 -1.87558 5.19159 0
M  V30 27915 H 2554.48 -2.46044 3.35562 0
M  V30 27916 H 2553.36 -3.59322 4.14945 0
M  V30 27917 H 2553.62 -3.70256 2.41584 0
M  V30 27918 N 2552.68 -1.46438 -0.582558 0
M  V30 27919 C 2553.63 -1.57013 -1.69161 0
M  V30 27920 C 2554.6 -0.414431 -1.60847 0
M  V30 27921 O 2555.78 -0.631202 -1.80057 0
M  V30 27922 C 2552.92 -1.56651 -3.07497 0
M  V30 27923 C 2552.03 -2.82956 -3.26435 0
M  V30 27924 C 2551.17 -2.74098 -4.55021 0
M  V30 27925 C 2550.21 -3.95341 -4.67303 0
M  V30 27926 N 2549.34 -3.84868 -5.87215 0
M  V30 27927 H 2554.18 -2.51747 -1.5946 0
M  V30 27928 H 2551.72 -1.24894 -0.777164 0
M  V30 27929 H 2553.68 -1.54427 -3.87567 0
M  V30 27930 H 2552.31 -0.654495 -3.16095 0
M  V30 27931 H 2551.36 -2.9516 -2.39969 0
M  V30 27932 H 2552.67 -3.72813 -3.31378 0
M  V30 27933 H 2551.83 -2.6998 -5.43319 0
M  V30 27934 H 2550.57 -1.81881 -4.52516 0
M  V30 27935 H 2549.57 -3.99791 -3.77422 0
M  V30 27936 H 2550.8 -4.88654 -4.71586 0
M  V30 27937 H 2548.74 -2.95438 -5.85707 0
M  V30 27938 H 2548.66 -4.68381 -5.93427 0
M  V30 27939 H 2549.93 -3.84725 -6.77943 0
M  V30 27940 N 2554.16 0.827204 -1.34146 0
M  V30 27941 C 2555.4 1.58552 -1.26448 0
M  V30 27942 C 2555.74 1.93486 0.166366 0
M  V30 27943 O 2555.01 1.59669 1.11067 0
M  V30 27944 C 2555.29 2.88786 -2.15116 0
M  V30 27945 C 2555.15 2.60459 -3.66717 0
M  V30 27946 C 2556.47 3.9032 -2.03318 0
M  V30 27947 H 2553.58 0.575276 -0.46068 0
M  V30 27948 H 2556.23 0.95324 -1.64357 0
M  V30 27949 H 2554.38 3.42745 -1.82916 0
M  V30 27950 H 2556.05 2.12842 -4.09263 0
M  V30 27951 H 2554.29 1.93971 -3.88018 0
M  V30 27952 H 2554.96 3.5331 -4.24118 0
M  V30 27953 H 2557.44 3.45702 -2.3158 0
M  V30 27954 H 2556.31 4.79256 -2.6759 0
M  V30 27955 H 2556.58 4.30435 -1.00887 0
M  V30 27956 N 2555.63 1.17805 1.04688 0
M  V30 27957 C 2557.05 0.926402 1.29961 0
M  V30 27958 C 2557.25 -0.411601 1.97251 0
M  V30 27959 O 2556.31 -1.1474 2.24924 0
M  V30 27960 C 2557.62 2.08741 2.16444 0
M  V30 27961 C 2559.17 2.125 2.2981 0
M  V30 27962 C 2559.64 3.28001 3.19655 0
M  V30 27963 N 2561.13 3.27822 3.27242 0
M  V30 27964 C 2561.87 4.13834 3.96899 0
M  V30 27965 N 2561.36 5.09967 4.68941 0
M  V30 27966 N 2563.16 4.01768 3.93115 0
M  V30 27967 H 2555.31 2.03921 0.594146 0
M  V30 27968 H 2557.57 0.890684 0.324633 0
M  V30 27969 H 2557.28 3.05472 1.74299 0
M  V30 27970 H 2557.15 2.04274 3.17099 0
M  V30 27971 H 2559.54 1.16352 2.71194 0
M  V30 27972 H 2559.62 2.21027 1.28766 0
M  V30 27973 H 2559.26 4.24418 2.78984 0
M  V30 27974 H 2559.19 3.1671 4.20716 0
M  V30 27975 H 2561.68 2.58222 2.75916 0
M  V30 27976 H 2562 5.71983 5.19669 0
M  V30 27977 H 2560.34 5.13932 4.67866 0
M  V30 27978 H 2563.53 3.25956 3.35962 0
M  V30 27979 H 2563.71 4.69018 4.47131 0
M  V30 27980 N 2557.11 -1.23497 0.979094 0
M  V30 27981 C 2558.34 -1.96454 0.66488 0
M  V30 27982 C 2558.76 -1.72007 -0.761256 0
M  V30 27983 O 2558.12 -0.99074 -1.51836 0
M  V30 27984 C 2558.17 -3.47599 0.95954 0
M  V30 27985 O 2557.27 -4.12369 0.0508893 0
M  V30 27986 H 2556.61 -0.615059 0.250196 0
M  V30 27987 H 2559.14 -1.56968 1.31233 0
M  V30 27988 H 2559.15 -3.98046 0.895712 0
M  V30 27989 H 2557.83 -3.64719 1.99882 0
M  V30 27990 H 2556.41 -3.72517 0.169015 0
M  V30 27991 N 2558.59 -0.750586 -1.38578 0
M  V30 27992 C 2559.55 -0.129192 -2.28836 0
M  V30 27993 C 2560.55 0.650688 -1.47047 0
M  V30 27994 O 2561.74 0.477398 -1.67531 0
M  V30 27995 C 2558.88 0.825563 -3.30753 0
M  V30 27996 H 2560.07 -0.924566 -2.85292 0
M  V30 27997 H 2557.62 -0.517402 -1.47488 0
M  V30 27998 H 2558.36 1.64672 -2.79381 0
M  V30 27999 H 2558.14 0.268784 -3.91178 0
M  V30 28000 H 2559.63 1.25643 -3.98251 0
M  V30 28001 N 2560.07 1.49477 -0.499425 0
M  V30 28002 C 2561.03 2.27618 0.268798 0
M  V30 28003 C 2562.03 1.33566 0.89536 0
M  V30 28004 O 2563.22 1.5674 0.760136 0
M  V30 28005 C 2560.35 3.11474 1.38553 0
M  V30 28006 H 2561.55 2.96989 -0.416865 0
M  V30 28007 H 2559.1 1.54217 -0.254341 0
M  V30 28008 H 2559.84 2.46665 2.10539 0
M  V30 28009 H 2559.62 3.80623 0.94173 0
M  V30 28010 H 2561.11 3.70496 1.92671 0
M  V30 28011 N 2561.55 0.233191 1.55865 0
M  V30 28012 C 2562.79 -0.395924 1.98898 0
M  V30 28013 C 2563.13 -1.58583 1.12094 0
M  V30 28014 O 2562.4 -1.93654 0.181216 0
M  V30 28015 C 2562.68 -0.819162 3.50659 0
M  V30 28016 C 2562.54 0.375187 4.48233 0
M  V30 28017 C 2563.86 -1.67114 4.07138 0
M  V30 28018 H 2560.98 -0.142438 0.723105 0
M  V30 28019 H 2563.62 0.331758 1.87081 0
M  V30 28020 H 2561.77 -1.43919 3.6086 0
M  V30 28021 H 2563.44 1.01349 4.50029 0
M  V30 28022 H 2561.68 1.02065 4.21622 0
M  V30 28023 H 2562.35 0.0359299 5.51988 0
M  V30 28024 H 2564.83 -1.14788 3.99954 0
M  V30 28025 H 2563.71 -1.93615 5.13619 0
M  V30 28026 H 2563.97 -2.6384 3.54741 0
M  V30 28027 N 2563.03 -1.57549 -0.0400806 0
M  V30 28028 C 2564.25 -1.93015 -0.745162 0
M  V30 28029 C 2564.67 -0.832013 -1.69479 0
M  V30 28030 O 2564.03 0.192431 -1.81483 0
M  V30 28031 C 2564.08 -3.28375 -1.5117 0
M  V30 28032 O 2563.8 -4.33969 -0.600207 0
M  V30 28033 C 2565.3 -3.78055 -2.31494 0
M  V30 28034 H 2562.52 -0.637267 -0.210077 0
M  V30 28035 H 2565.06 -2.045 -0.000888743 0
M  V30 28036 H 2563.22 -3.18321 -2.20795 0
M  V30 28037 H 2563.63 -5.12037 -1.1366 0
M  V30 28038 H 2565.11 -4.75308 -2.80689 0
M  V30 28039 H 2565.58 -3.08681 -3.1243 0
M  V30 28040 H 2566.19 -3.91156 -1.66964 0
M  V30 28041 N 2564.5 0.312142 -1.54478 0
M  V30 28042 C 2565.74 1.05681 -1.7496 0
M  V30 28043 C 2566.11 1.84868 -0.518446 0
M  V30 28044 O 2567.31 2.62 -0.600805 0
M  V30 28045 C 2565.58 1.9478 -2.99659 0
M  V30 28046 S 2567.14 2.76043 -3.41095 0
M  V30 28047 H 2563.96 0.356595 -0.61511 0
M  V30 28048 H 2566.56 0.33148 -1.92669 0
M  V30 28049 H 2565.26 1.35461 -3.874 0
M  V30 28050 H 2564.79 2.71699 -2.84505 0
M  V30 28051 H 2566.81 3.97282 -2.9729 0
M  V30 28052 N 2565.98 1.46745 0.574784 0
M  V30 28053 C 2566.91 1.60774 1.69334 0
M  V30 28054 C 2567.89 0.457765 1.63825 0
M  V30 28055 O 2569.08 0.684979 1.81719 0
M  V30 28056 C 2566.21 1.60522 3.07977 0
M  V30 28057 C 2565.16 2.74569 3.28323 0
M  V30 28058 C 2564.49 2.59382 4.67574 0
M  V30 28059 C 2565.79 4.16324 3.15391 0
M  V30 28060 H 2567.48 2.54409 1.57849 0
M  V30 28061 H 2565.03 1.22437 0.757968 0
M  V30 28062 H 2566.98 1.6893 3.86058 0
M  V30 28063 H 2565.7 0.634361 3.2038 0
M  V30 28064 H 2564.36 2.65644 2.52644 0
M  V30 28065 H 2564.01 1.60362 4.76753 0
M  V30 28066 H 2563.71 3.35882 4.82138 0
M  V30 28067 H 2565.24 2.69692 5.47813 0
M  V30 28068 H 2566.65 4.2632 3.83307 0
M  V30 28069 H 2565.05 4.93474 3.41473 0
M  V30 28070 H 2566.12 4.35924 2.12364 0
M  V30 28071 N 2567.46 -0.820078 1.34583 0
M  V30 28072 C 2568.41 -1.93115 1.26393 0
M  V30 28073 C 2569.38 -1.65521 0.138583 0
M  V30 28074 O 2570.56 -1.88097 0.320037 0
M  V30 28075 C 2567.7 -3.29427 1.02818 0
M  V30 28076 C 2566.81 -3.69296 2.24153 0
M  V30 28077 C 2565.95 -4.94571 1.93838 0
M  V30 28078 C 2564.99 -5.27028 3.113 0
M  V30 28079 N 2564.13 -6.43481 2.80849 0
M  V30 28080 H 2568.97 -1.99451 2.21412 0
M  V30 28081 H 2566.5 -0.975765 1.10078 0
M  V30 28082 H 2568.46 -4.07988 0.87186 0
M  V30 28083 H 2567.09 -3.22596 0.114669 0
M  V30 28084 H 2566.14 -2.86105 2.50696 0
M  V30 28085 H 2567.45 -3.89251 3.11905 0
M  V30 28086 H 2566.61 -5.80926 1.74958 0
M  V30 28087 H 2565.35 -4.76624 1.03349 0
M  V30 28088 H 2564.35 -4.3917 3.30772 0
M  V30 28089 H 2565.58 -5.46913 4.0257 0
M  V30 28090 H 2563.52 -6.26985 1.9294 0
M  V30 28091 H 2563.44 -6.63622 3.62134 0
M  V30 28092 H 2564.71 -7.32899 2.6548 0
M  V30 28093 N 2568.94 -1.18359 -1.04062 0
M  V30 28094 C 2569.89 -0.907045 -2.14186 0
M  V30 28095 C 2570.88 0.132695 -1.68879 0
M  V30 28096 O 2572.09 -0.0154565 -1.79993 0
M  V30 28097 H 2568.46 -0.275848 -0.69958 0
M  V30 28098 H 2570.43 -1.84268 -2.34708 0
M  V30 28099 C 2569.18 -0.449314 -3.44785 0
M  V30 28100 H 2568.5 -1.24088 -3.80056 0
M  V30 28101 H 2569.94 -0.294811 -4.22974 0
M  V30 28102 C 2568.4 0.834852 -3.26392 0
M  V30 28103 O 2568.93 1.89905 -3.53976 0
M  V30 28104 N 2567.14 0.787473 -2.79727 0
M  V30 28105 H 2566.69 -0.0787799 -2.5748 0
M  V30 28106 H 2566.64 1.64711 -2.67801 0
M  V30 28107 N 2570.42 1.22976 -0.98563 0
M  V30 28108 C 2571.66 1.9084 -0.652914 0
M  V30 28109 C 2571.98 1.77683 0.817811 0
M  V30 28110 O 2573.18 2.40397 1.26181 0
M  V30 28111 C 2571.64 3.4212 -1.11723 0
M  V30 28112 C 2571.25 3.63928 -2.61267 0
M  V30 28113 C 2572.99 4.15728 -0.858503 0
M  V30 28114 C 2570.9 5.0887 -3.01339 0
M  V30 28115 H 2569.83 0.714614 -0.240504 0
M  V30 28116 H 2572.48 1.39322 -1.19423 0
M  V30 28117 H 2570.86 3.92778 -0.504096 0
M  V30 28118 H 2572.04 3.23794 -3.27863 0
M  V30 28119 H 2570.35 3.03639 -2.84943 0
M  V30 28120 H 2572.95 5.22544 -1.13368 0
M  V30 28121 H 2573.29 4.15793 0.205388 0
M  V30 28122 H 2573.82 3.71075 -1.43347 0
M  V30 28123 H 2570.56 5.1394 -4.06873 0
M  V30 28124 H 2570.08 5.49935 -2.3944 0
M  V30 28125 H 2571.76 5.77242 -2.92235 0
M  V30 28126 N 2571.89 0.757924 1.38178 0
M  V30 28127 C 2572.82 0.148638 2.33026 0
M  V30 28128 C 2573.8 -0.698723 1.55087 0
M  V30 28129 O 2574.99 -0.63902 1.83385 0
M  V30 28130 C 2572.12 -0.741975 3.39282 0
M  V30 28131 C 2571.07 0.00299469 4.28 0
M  V30 28132 C 2570.4 -1.00615 5.25148 0
M  V30 28133 C 2571.7 1.17394 5.08936 0
M  V30 28134 H 2573.39 0.940959 2.84229 0
M  V30 28135 H 2570.94 0.453932 1.36658 0
M  V30 28136 H 2572.89 -1.17792 4.04602 0
M  V30 28137 H 2571.62 -1.56666 2.86571 0
M  V30 28138 H 2570.28 0.419568 3.64191 0
M  V30 28139 H 2569.92 -1.82502 4.68724 0
M  V30 28140 H 2569.62 -0.512325 5.85362 0
M  V30 28141 H 2571.15 -1.44133 5.93345 0
M  V30 28142 H 2572.56 0.815324 5.67473 0
M  V30 28143 H 2570.96 1.59892 5.78407 0
M  V30 28144 H 2572.03 1.98475 4.4242 0
M  V30 28145 N 2573.37 -1.4921 0.507345 0
M  V30 28146 C 2574.34 -2.27758 -0.256723 0
M  V30 28147 C 2575.34 -1.34039 -0.888264 0
M  V30 28148 O 2576.53 -1.57141 -0.751813 0
M  V30 28149 C 2573.66 -3.12204 -1.36899 0
M  V30 28150 H 2574.85 -2.96763 0.432609 0
M  V30 28151 H 2572.4 -1.5408 0.262515 0
M  V30 28152 H 2573.14 -2.47778 -2.09228 0
M  V30 28153 H 2572.92 -3.81117 -0.921532 0
M  V30 28154 H 2574.41 -3.71513 -1.90704 0
M  V30 28155 N 2574.85 -0.241454 -1.55739 0
M  V30 28156 C 2576.08 0.389098 -2.03208 0
M  V30 28157 C 2576.49 1.51929 -1.12084 0
M  V30 28158 O 2575.85 1.82006 -0.134215 0
M  V30 28159 C 2575.9 0.902026 -3.50065 0
M  V30 28160 O 2575.62 -0.183127 -4.37717 0
M  V30 28161 C 2577.12 1.60382 -4.13271 0
M  V30 28162 H 2574.34 0.0930936 -0.664511 0
M  V30 28163 H 2576.89 -0.363726 -2.01239 0
M  V30 28164 H 2575.04 1.60505 -3.52586 0
M  V30 28165 H 2575.46 0.205487 -5.24097 0
M  V30 28166 H 2576.93 1.91449 -5.17737 0
M  V30 28167 H 2577.41 2.5239 -3.59438 0
M  V30 28168 H 2578.01 0.945503 -4.14657 0
M  V30 28169 N 2576.33 1.57568 0.0317248 0
M  V30 28170 C 2577.28 2.06384 1.03317 0
M  V30 28171 C 2578.25 0.952438 1.3608 0
M  V30 28172 O 2579.43 1.22283 1.46463 0
M  V30 28173 C 2576.57 2.54582 2.32985 0
M  V30 28174 C 2575.68 3.79502 2.06403 0
M  V30 28175 C 2574.82 4.16323 3.29922 0
M  V30 28176 C 2573.86 5.34168 2.98883 0
M  V30 28177 N 2572.99 5.66433 4.14847 0
M  V30 28178 H 2577.83 2.91691 0.609931 0
M  V30 28179 H 2575.37 1.44222 0.289548 0
M  V30 28180 H 2577.33 2.80593 3.08745 0
M  V30 28181 H 2575.96 1.72195 2.73036 0
M  V30 28182 H 2575.01 3.60592 1.21152 0
M  V30 28183 H 2576.32 4.65381 1.79504 0
M  V30 28184 H 2575.48 4.43447 4.14052 0
M  V30 28185 H 2574.22 3.2909 3.59932 0
M  V30 28186 H 2573.22 5.06799 2.13156 0
M  V30 28187 H 2574.45 6.23052 2.70154 0
M  V30 28188 H 2572.39 4.82159 4.44813 0
M  V30 28189 H 2572.31 6.46816 3.91362 0
M  V30 28190 H 2573.58 5.98133 4.99857 0
M  V30 28191 N 2577.81 -0.303946 1.54641 0
M  V30 28192 C 2579.03 -1.05855 1.7777 0
M  V30 28193 C 2579.45 -1.81039 0.535754 0
M  V30 28194 O 2578.81 -1.75678 -0.494306 0
M  V30 28195 C 2578.86 -2.04141 2.98344 0
M  V30 28196 O 2578.58 -1.32008 4.17739 0
M  V30 28197 C 2580.08 -2.91663 3.33838 0
M  V30 28198 H 2577.3 -0.314057 0.592967 0
M  V30 28199 H 2579.84 -0.344113 2.01584 0
M  V30 28200 H 2578 -2.71091 2.76746 0
M  V30 28201 H 2578.41 -1.97989 4.85696 0
M  V30 28202 H 2579.89 -3.56483 4.21454 0
M  V30 28203 H 2580.36 -3.59808 2.51863 0
M  V30 28204 H 2580.97 -2.30248 3.57583 0
M  V30 28205 N 2579.28 -1.47047 -0.566994 0
M  V30 28206 C 2580.53 -1.52867 -1.32198 0
M  V30 28207 C 2580.85 -0.188422 -1.94088 0
M  V30 28208 O 2580.12 0.786661 -1.79411 0
M  V30 28209 H 2578.7 -0.563065 -0.490884 0
M  V30 28210 H 2581.37 -1.83282 -0.662847 0
M  V30 28211 H 2580.46 -2.28993 -2.12058 0
M  V30 28212 N 2580.76 0.812929 -1.35016 0
M  V30 28213 C 2581.71 1.91356 -1.23963 0
M  V30 28214 C 2582.7 1.60321 -0.136334 0
M  V30 28215 O 2583.89 1.73154 -0.366955 0
M  V30 28216 C 2581.02 3.28186 -1.00741 0
M  V30 28217 C 2580.1 3.65307 -2.15433 0
M  V30 28218 N 2580.49 3.73915 -3.40619 0
M  V30 28219 C 2578.79 3.95221 -2.06679 0
M  V30 28220 C 2579.49 4.06593 -4.16001 0
M  V30 28221 N 2578.47 4.20343 -3.44693 0
M  V30 28222 H 2582.27 1.96204 -2.18818 0
M  V30 28223 H 2579.79 1.00716 -1.27397 0
M  V30 28224 H 2581.78 4.06867 -0.909124 0
M  V30 28225 H 2580.44 3.2463 -0.067643 0
M  V30 28226 H 2581.45 3.57154 -3.75049 0
M  V30 28227 H 2578.13 3.99727 -1.20518 0
M  V30 28228 H 2579.52 4.20373 -5.24153 0
M  V30 28229 N 2582.24 1.18909 1.03433 0
M  V30 28230 C 2583.47 1.01409 1.80917 0
M  V30 28231 C 2583.89 -0.432689 1.83056 0
M  V30 28232 O 2583.25 -1.31077 1.25254 0
M  V30 28233 C 2583.3 1.58111 3.24089 0
M  V30 28234 O 2582.4 0.80674 4.04432 0
M  V30 28235 H 2581.74 0.358813 0.558703 0
M  V30 28236 H 2584.27 1.57809 1.30221 0
M  V30 28237 H 2584.28 1.61093 3.74851 0
M  V30 28238 H 2582.96 2.63415 3.21846 0
M  V30 28239 H 2581.53 0.84973 3.6309 0
M  V30 28240 N 2583.72 -1.22452 0.992137 0
M  V30 28241 C 2584.97 -1.9118 0.667568 0
M  V30 28242 C 2585.29 -1.77273 -0.800286 0
M  V30 28243 O 2584.55 -1.13508 -1.59419 0
M  V30 28244 C 2584.85 -3.42584 1.01839 0
M  V30 28245 C 2584.51 -3.76679 2.47838 0
M  V30 28246 C 2583.18 -3.85696 2.87736 0
M  V30 28247 C 2585.53 -3.92889 3.42473 0
M  V30 28248 C 2582.86 -4.08359 4.2126 0
M  V30 28249 C 2585.21 -4.17055 4.75655 0
M  V30 28250 C 2583.87 -4.24296 5.15295 0
M  V30 28251 H 2583.14 -0.699577 0.24428 0
M  V30 28252 H 2585.79 -1.45233 1.24818 0
M  V30 28253 H 2584.09 -3.90181 0.355838 0
M  V30 28254 H 2585.79 -3.94013 0.745297 0
M  V30 28255 H 2582.38 -3.70243 2.15912 0
M  V30 28256 H 2586.56 -3.85301 3.12821 0
M  V30 28257 H 2581.82 -4.12192 4.51562 0
M  V30 28258 H 2585.99 -4.28541 5.48932 0
M  V30 28259 H 2583.62 -4.4161 6.18777 0
M  V30 28260 N 2585.2 -0.765242 -1.37774 0
M  V30 28261 C 2586.44 -0.336101 -2.00604 0
M  V30 28262 C 2586.8 1.07363 -1.59659 0
M  V30 28263 O 2586.09 1.72709 -0.829595 0
M  V30 28264 C 2586.28 -0.410115 -3.55039 0
M  V30 28265 C 2586.11 -1.82549 -4.10981 0
M  V30 28266 C 2584.88 -2.44469 -4.42225 0
M  V30 28267 C 2587.08 -2.78399 -4.32433 0
M  V30 28268 N 2585.06 -3.77847 -4.83844 0
M  V30 28269 C 2586.43 -3.96564 -4.76589 0
M  V30 28270 C 2588.49 -2.75771 -4.14554 0
M  V30 28271 C 2587.19 -5.12475 -5.04739 0
M  V30 28272 C 2589.22 -3.9085 -4.43836 0
M  V30 28273 C 2588.58 -5.07755 -4.88226 0
M  V30 28274 H 2584.68 -0.169895 -0.763322 0
M  V30 28275 H 2587.26 -0.997686 -1.67195 0
M  V30 28276 H 2585.43 0.221257 -3.87769 0
M  V30 28277 H 2587.17 0.0404573 -4.0468 0
M  V30 28278 H 2583.92 -1.96139 -4.31076 0
M  V30 28279 H 2584.35 -4.46405 -5.08971 0
M  V30 28280 H 2588.99 -1.86565 -3.79412 0
M  V30 28281 H 2586.71 -6.02287 -5.38773 0
M  V30 28282 H 2590.29 -3.90149 -4.31596 0
M  V30 28283 H 2589.17 -5.95324 -5.1045 0
M  V30 28284 N 2586.67 1.48939 -0.515251 0
M  V30 28285 C 2587.58 2.33158 0.259733 0
M  V30 28286 C 2588.6 1.4555 0.953475 0
M  V30 28287 O 2589.78 1.78553 0.931703 0
M  V30 28288 C 2586.84 3.21329 1.30187 0
M  V30 28289 C 2585.9 4.24799 0.620054 0
M  V30 28290 C 2585.14 5.08756 1.61254 0
M  V30 28291 O 2585.36 4.94453 2.84381 0
M  V30 28292 O 2584.29 5.90616 1.16003 0
M  V30 28293 H 2588.12 3.00641 -0.429984 0
M  V30 28294 H 2585.7 1.46821 -0.276372 0
M  V30 28295 H 2587.59 3.75909 1.90448 0
M  V30 28296 H 2586.26 2.56524 1.97426 0
M  V30 28297 H 2585.17 3.74093 -0.0226677 0
M  V30 28298 H 2586.5 4.92199 -0.0101358 0
M  V30 28299 N 2588.15 0.249709 1.55609 0
M  V30 28300 C 2589.4 -0.374755 1.98188 0
M  V30 28301 C 2589.72 -1.58863 1.14114 0
M  V30 28302 O 2590.92 -2.28442 1.46718 0
M  V30 28303 C 2589.38 -0.71813 3.52663 0
M  V30 28304 C 2588.99 0.474506 4.4548 0
M  V30 28305 C 2590.73 -1.30663 4.0389 0
M  V30 28306 C 2588.64 0.10713 5.91303 0
M  V30 28307 H 2587.57 -0.143795 0.740162 0
M  V30 28308 H 2590.22 0.350368 1.80124 0
M  V30 28309 H 2588.6 -1.50146 3.66432 0
M  V30 28310 H 2589.77 1.2518 4.43471 0
M  V30 28311 H 2588.09 0.978123 4.04749 0
M  V30 28312 H 2590.69 -1.59487 5.10361 0
M  V30 28313 H 2591.03 -2.23204 3.51405 0
M  V30 28314 H 2591.56 -0.586142 3.93458 0
M  V30 28315 H 2588.3 0.999756 6.47831 0
M  V30 28316 H 2587.82 -0.633908 5.96441 0
M  V30 28317 H 2589.5 -0.309694 6.46258 0
M  V30 28318 N 2589.63 -1.57583 -0.0233682 0
M  V30 28319 C 2590.86 -1.93514 -0.723597 0
M  V30 28320 C 2591.27 -0.848362 -1.69114 0
M  V30 28321 O 2590.61 0.183452 -1.82782 0
M  V30 28322 C 2590.67 -3.25285 -1.53069 0
M  V30 28323 C 2590.34 -4.51175 -0.727308 0
M  V30 28324 C 2591.34 -5.19894 -0.025101 0
M  V30 28325 C 2589.02 -4.97674 -0.680168 0
M  V30 28326 C 2591.01 -6.33394 0.713486 0
M  V30 28327 C 2588.7 -6.11068 0.0621597 0
M  V30 28328 C 2589.7 -6.78784 0.757741 0
M  V30 28329 O 2589.39 -7.90009 1.48801 0
M  V30 28330 H 2589.12 -0.643192 -0.208039 0
M  V30 28331 H 2591.67 -2.05393 0.016785 0
M  V30 28332 H 2589.9 -3.09748 -2.31502 0
M  V30 28333 H 2591.59 -3.465 -2.11407 0
M  V30 28334 H 2592.36 -4.84972 -0.0525151 0
M  V30 28335 H 2588.24 -4.44808 -1.21109 0
M  V30 28336 H 2591.78 -6.86183 1.25695 0
M  V30 28337 H 2587.68 -6.45435 0.0914768 0
M  V30 28338 H 2588.45 -8.06398 1.40228 0
M  V30 28339 N 2591.11 0.29574 -1.548 0
M  V30 28340 C 2592.06 1.36491 -1.86115 0
M  V30 28341 C 2593.03 1.50136 -0.710527 0
M  V30 28342 O 2594.21 1.6491 -0.959655 0
M  V30 28343 C 2591.35 2.72409 -2.11866 0
M  V30 28344 C 2590.46 2.67171 -3.39475 0
M  V30 28345 C 2589.6 3.95119 -3.55042 0
M  V30 28346 C 2588.64 3.84299 -4.76425 0
M  V30 28347 N 2587.78 5.04033 -4.88769 0
M  V30 28348 H 2592.62 1.09086 -2.77316 0
M  V30 28349 H 2590.15 0.527506 -1.37316 0
M  V30 28350 H 2592.11 3.51461 -2.24792 0
M  V30 28351 H 2590.74 2.98064 -1.23925 0
M  V30 28352 H 2589.79 1.79956 -3.35142 0
M  V30 28353 H 2591.1 2.55069 -4.28651 0
M  V30 28354 H 2590.26 4.82608 -3.67661 0
M  V30 28355 H 2589 4.10061 -2.64009 0
M  V30 28356 H 2588 2.95194 -4.63833 0
M  V30 28357 H 2589.23 3.70896 -5.6887 0
M  V30 28358 H 2587.17 5.19429 -4.00661 0
M  V30 28359 H 2587.09 4.94374 -5.71954 0
M  V30 28360 H 2588.36 5.93158 -5.0575 0
M  V30 28361 N 2592.59 1.47346 0.559187 0
M  V30 28362 C 2593.52 1.54223 1.68198 0
M  V30 28363 C 2594.5 0.394524 1.57741 0
M  V30 28364 O 2595.68 0.602042 1.78627 0
M  V30 28365 C 2592.81 1.4429 3.06428 0
M  V30 28366 C 2591.86 2.63538 3.35335 0
M  V30 28367 S 2592.69 4.25746 3.24808 0
M  V30 28368 C 2593.84 4.18363 4.65535 0
M  V30 28369 H 2594.08 2.49214 1.6211 0
M  V30 28370 H 2591.61 1.3552 0.739847 0
M  V30 28371 H 2593.57 1.39247 3.86161 0
M  V30 28372 H 2592.23 0.50687 3.09983 0
M  V30 28373 H 2591.42 2.52647 4.36103 0
M  V30 28374 H 2591.02 2.65693 2.63217 0
M  V30 28375 H 2593.32 3.86495 5.56442 0
M  V30 28376 H 2594.26 5.1921 4.81483 0
M  V30 28377 H 2594.67 3.49254 4.43489 0
M  V30 28378 N 2594.07 -0.805758 1.35445 0
M  V30 28379 C 2595.29 -1.59421 1.31881 0
M  V30 28380 C 2595.71 -1.88516 -0.103529 0
M  V30 28381 O 2595.07 -1.48865 -1.05572 0
M  V30 28382 C 2595.12 -2.92498 2.12431 0
M  V30 28383 O 2594.84 -2.64664 3.4912 0
M  V30 28384 C 2596.34 -3.86858 2.16462 0
M  V30 28385 H 2593.56 -0.494998 0.45301 0
M  V30 28386 H 2596.1 -1.00128 1.7831 0
M  V30 28387 H 2594.26 -3.48303 1.69599 0
M  V30 28388 H 2594.67 -3.4964 3.90963 0
M  V30 28389 H 2596.15 -4.77344 2.77213 0
M  V30 28390 H 2596.62 -4.23506 1.1636 0
M  V30 28391 H 2597.23 -3.36988 2.59459 0
M  V30 28392 N 2595.54 -1.19456 -1.02801 0
M  V30 28393 C 2596.77 -1.023 -1.7984 0
M  V30 28394 C 2597.19 0.428227 -1.83879 0
M  V30 28395 O 2596.54 1.29743 -1.28347 0
M  V30 28396 C 2596.59 -1.58604 -3.24849 0
M  V30 28397 O 2596.32 -2.98046 -3.21092 0
M  V30 28398 C 2597.82 -1.46243 -4.18483 0
M  V30 28399 H 2595.04 -0.360506 -0.56593 0
M  V30 28400 H 2597.58 -1.58291 -1.29477 0
M  V30 28401 H 2595.74 -1.0676 -3.72399 0
M  V30 28402 H 2596.15 -3.24552 -4.12027 0
M  V30 28403 H 2597.62 -1.90417 -5.18117 0
M  V30 28404 H 2598.1 -0.413087 -4.37253 0
M  V30 28405 H 2598.71 -1.97222 -3.76807 0
M  V30 28406 N 2597.02 1.21924 -0.998617 0
M  V30 28407 C 2598.3 1.86381 -0.593434 0
M  V30 28408 C 2598.68 1.89553 0.929127 0
M  V30 28409 O 2598.03 1.3902 1.81344 0
M  V30 28410 C 2598.24 3.26965 -1.22045 0
M  V30 28411 C 2599.58 4.03411 -1.32456 0
M  V30 28412 O 2600.61 3.36252 -1.17528 0
M  V30 28413 O 2599.47 5.23641 -1.56404 0
M  V30 28414 H 2596.56 0.80185 -0.202399 0
M  V30 28415 H 2599.11 1.29657 -1.09486 0
M  V30 28416 H 2597.88 3.19321 -2.26163 0
M  V30 28417 H 2597.5 3.913 -0.704975 0
M  V30 28418 N 2598.5 0.772537 1.37367 0
M  V30 28419 C 2599.91 0.402525 1.82309 0
M  V30 28420 C 2600.26 -1.07144 1.64362 0
M  V30 28421 O 2599.39 -1.82988 1.15517 0
M  V30 28422 C 2599.98 0.723835 3.30977 0
M  V30 28423 C 2598.54 0.406868 3.74195 0
M  V30 28424 C 2597.69 0.967264 2.59883 0
M  V30 28425 H 2600.64 0.967121 1.25827 0
M  V30 28426 H 2600.66 0.0087752 3.80499 0
M  V30 28427 H 2600.17 1.79666 3.44008 0
M  V30 28428 H 2598.27 -0.658608 3.66733 0
M  V30 28429 H 2598.39 0.915671 4.70268 0
M  V30 28430 H 2596.75 0.39146 2.51674 0
M  V30 28431 H 2597.53 2.04551 2.75706 0
M  V30 28432 N 2599.98 -1.48664 0.523142 0
M  V30 28433 C 2600.91 -2.26344 -0.290478 0
M  V30 28434 C 2601.89 -1.31897 -0.95089 0
M  V30 28435 O 2603.07 -1.61227 -0.976634 0
M  V30 28436 C 2600.2 -3.07918 -1.41083 0
M  V30 28437 C 2599.25 -4.17687 -0.862524 0
M  V30 28438 S 2600.08 -5.34848 0.264229 0
M  V30 28439 C 2601.23 -6.19981 -0.858755 0
M  V30 28440 H 2601.47 -2.95004 0.368778 0
M  V30 28441 H 2599 -1.5128 0.308807 0
M  V30 28442 H 2600.96 -3.55495 -2.05264 0
M  V30 28443 H 2599.62 -2.38685 -2.04178 0
M  V30 28444 H 2598.81 -4.74364 -1.70279 0
M  V30 28445 H 2598.41 -3.72815 -0.297529 0
M  V30 28446 H 2600.71 -6.54268 -1.75898 0
M  V30 28447 H 2601.65 -7.0733 -0.33012 0
M  V30 28448 H 2602.06 -5.5295 -1.13608 0
M  V30 28449 N 2601.46 -0.257958 -1.55475 0
M  V30 28450 C 2602.39 0.630873 -2.24816 0
M  V30 28451 C 2603.37 1.17257 -1.23226 0
M  V30 28452 O 2604.55 1.20988 -1.51906 0
M  V30 28453 C 2601.68 1.82293 -2.95612 0
M  V30 28454 C 2600.64 1.41352 -4.03985 0
M  V30 28455 C 2599.96 2.6873 -4.62264 0
M  V30 28456 C 2601.26 0.576389 -5.1911 0
M  V30 28457 H 2602.96 0.0526351 -2.99354 0
M  V30 28458 H 2600.5 0.0238757 -1.4398 0
M  V30 28459 H 2602.45 2.45047 -3.42826 0
M  V30 28460 H 2601.18 2.42672 -2.18581 0
M  V30 28461 H 2599.84 0.809261 -3.57556 0
M  V30 28462 H 2599.49 3.27331 -3.81921 0
M  V30 28463 H 2599.19 2.42055 -5.35428 0
M  V30 28464 H 2600.71 3.32363 -5.12218 0
M  V30 28465 H 2602.12 1.10851 -5.62481 0
M  V30 28466 H 2600.52 0.405246 -5.9873 0
M  V30 28467 H 2601.59 -0.408861 -4.83173 0
M  V30 28468 N 2602.93 1.57593 0.0150108 0
M  V30 28469 C 2603.9 2.0643 0.99596 0
M  V30 28470 C 2604.9 0.970926 1.28178 0
M  V30 28471 O 2606.09 1.23409 1.22947 0
M  V30 28472 C 2603.22 2.49311 2.32502 0
M  V30 28473 H 2604.41 2.94359 0.573822 0
M  V30 28474 H 2601.97 1.54086 0.262159 0
M  V30 28475 H 2602.7 1.6458 2.79435 0
M  V30 28476 H 2602.49 3.29149 2.13081 0
M  V30 28477 H 2603.98 2.87473 3.02901 0
M  V30 28478 N 2604.41 -0.287527 1.54955 0
M  V30 28479 C 2605.64 -1.03813 1.78624 0
M  V30 28480 C 2606.05 -1.80954 0.552483 0
M  V30 28481 O 2605.39 -1.7711 -0.487634 0
M  V30 28482 C 2605.46 -2.05494 2.94979 0
M  V30 28483 C 2605.12 -1.47425 4.32568 0
M  V30 28484 C 2606.12 -0.897346 5.12097 0
M  V30 28485 C 2603.8 -1.50583 4.79197 0
M  V30 28486 C 2605.8 -0.359739 6.36384 0
M  V30 28487 C 2603.48 -0.964353 6.03443 0
M  V30 28488 C 2604.48 -0.392294 6.81872 0
M  V30 28489 O 2604.17 0.140929 8.03776 0
M  V30 28490 H 2603.9 -0.313043 0.59915 0
M  V30 28491 H 2606.45 -0.328189 2.02761 0
M  V30 28492 H 2604.68 -2.80207 2.66498 0
M  V30 28493 H 2606.37 -2.66565 3.06101 0
M  V30 28494 H 2607.14 -0.865757 4.7721 0
M  V30 28495 H 2603.02 -1.94048 4.1817 0
M  V30 28496 H 2606.56 0.0874177 6.97545 0
M  V30 28497 H 2602.46 -0.993133 6.37814 0
M  V30 28498 H 2603.23 0.0289056 8.18495 0
M  V30 28499 N 2605.89 -1.47641 -0.551365 0
M  V30 28500 C 2606.82 -1.63448 -1.66755 0
M  V30 28501 C 2607.8 -0.48377 -1.63076 0
M  V30 28502 O 2608.99 -0.713802 -1.80606 0
M  V30 28503 C 2606.12 -1.65401 -3.05384 0
M  V30 28504 C 2605.07 -2.79758 -3.23913 0
M  V30 28505 C 2604.4 -2.66787 -4.63388 0
M  V30 28506 C 2605.7 -4.21289 -3.08727 0
M  V30 28507 H 2607.39 -2.56888 -1.53781 0
M  V30 28508 H 2604.94 -1.23627 -0.738394 0
M  V30 28509 H 2606.89 -1.7505 -3.83322 0
M  V30 28510 H 2605.61 -0.685251 -3.1933 0
M  V30 28511 H 2604.27 -2.69629 -2.48386 0
M  V30 28512 H 2603.92 -1.67926 -4.74141 0
M  V30 28513 H 2603.62 -3.4351 -4.76734 0
M  V30 28514 H 2605.14 -2.78373 -5.43453 0
M  V30 28515 H 2606.56 -4.32364 -3.76476 0
M  V30 28516 H 2604.96 -4.98844 -3.33579 0
M  V30 28517 H 2606.03 -4.39247 -2.05402 0
M  V30 28518 N 2607.37 0.798563 -1.3587 0
M  V30 28519 C 2608.3 1.91913 -1.25308 0
M  V30 28520 C 2609.31 1.61861 -0.174577 0
M  V30 28521 O 2610.5 1.7328 -0.428529 0
M  V30 28522 C 2607.6 3.26491 -0.908657 0
M  V30 28523 C 2606.78 3.8439 -2.08718 0
M  V30 28524 C 2605.83 4.9739 -1.71726 0
M  V30 28525 O 2604.86 5.14391 -2.43701 0
M  V30 28526 N 2606.06 5.76899 -0.645574 0
M  V30 28527 H 2608.83 2.01498 -2.21853 0
M  V30 28528 H 2606.39 0.976385 -1.29145 0
M  V30 28529 H 2608.38 3.99567 -0.642525 0
M  V30 28530 H 2606.95 3.12583 -0.0326365 0
M  V30 28531 H 2606.17 3.03412 -2.51664 0
M  V30 28532 H 2607.46 4.19804 -2.87475 0
M  V30 28533 H 2606.86 5.6568 -0.0477474 0
M  V30 28534 H 2605.41 6.50318 -0.439244 0
M  V30 28535 N 2608.85 1.19999 1.02166 0
M  V30 28536 C 2610.26 1.00827 1.57133 0
M  V30 28537 C 2610.61 -0.436784 1.91276 0
M  V30 28538 O 2609.73 -1.31737 1.71681 0
M  V30 28539 C 2610.33 1.82398 2.85511 0
M  V30 28540 C 2608.89 1.67607 3.37024 0
M  V30 28541 C 2608.03 1.80648 2.10385 0
M  V30 28542 H 2610.99 1.34265 0.846082 0
M  V30 28543 H 2611.01 1.32435 3.56709 0
M  V30 28544 H 2610.52 2.87566 2.60629 0
M  V30 28545 H 2608.62 0.65055 3.66877 0
M  V30 28546 H 2608.73 2.48578 4.09568 0
M  V30 28547 H 2607.1 1.23782 2.22599 0
M  V30 28548 H 2607.88 2.87289 1.87935 0
M  V30 28549 N 2610.32 -1.21392 1.00507 0
M  V30 28550 C 2611.57 -1.90461 0.687807 0
M  V30 28551 C 2611.9 -1.78112 -0.781439 0
M  V30 28552 O 2611.15 -1.15193 -1.58206 0
M  V30 28553 C 2611.45 -3.41484 1.05466 0
M  V30 28554 C 2611.12 -3.74029 2.51819 0
M  V30 28555 C 2609.78 -3.82623 2.9181 0
M  V30 28556 C 2612.13 -3.89234 3.46621 0
M  V30 28557 C 2609.46 -4.03868 4.25567 0
M  V30 28558 C 2611.81 -4.11987 4.80052 0
M  V30 28559 C 2610.48 -4.18807 5.19766 0
M  V30 28560 H 2609.75 -0.696947 0.251687 0
M  V30 28561 H 2612.39 -1.43901 1.26352 0
M  V30 28562 H 2610.7 -3.89781 0.397202 0
M  V30 28563 H 2612.4 -3.932 0.787045 0
M  V30 28564 H 2608.99 -3.67932 2.19827 0
M  V30 28565 H 2613.17 -3.81962 3.1689 0
M  V30 28566 H 2608.43 -4.07379 4.55908 0
M  V30 28567 H 2612.6 -4.22694 5.53446 0
M  V30 28568 H 2610.23 -4.35022 6.23426 0
M  V30 28569 N 2611.8 -0.779811 -1.36955 0
M  V30 28570 C 2613.22 -0.460369 -1.52816 0
M  V30 28571 C 2613.42 1.0228 -1.73612 0
M  V30 28572 O 2612.47 1.80849 -1.7621 0
M  V30 28573 C 2613.79 -1.28246 -2.71981 0
M  V30 28574 C 2615.34 -1.27517 -2.85847 0
M  V30 28575 C 2615.81 -2.08079 -4.08004 0
M  V30 28576 N 2617.3 -2.05475 -4.15132 0
M  V30 28577 C 2618.04 -2.64586 -5.08706 0
M  V30 28578 N 2617.53 -3.32517 -6.07787 0
M  V30 28579 N 2619.33 -2.54372 -5.0125 0
M  V30 28580 H 2611.48 -1.74071 -1.2171 0
M  V30 28581 H 2613.74 -0.739407 -0.593281 0
M  V30 28582 H 2613.45 -2.33385 -2.63105 0
M  V30 28583 H 2613.32 -0.917153 -3.6588 0
M  V30 28584 H 2615.71 -0.231738 -2.94189 0
M  V30 28585 H 2615.79 -1.68018 -1.92883 0
M  V30 28586 H 2615.43 -3.12448 -4.00423 0
M  V30 28587 H 2615.36 -1.64956 -5.00097 0
M  V30 28588 H 2617.85 -1.56026 -3.44187 0
M  V30 28589 H 2618.17 -3.74974 -6.75732 0
M  V30 28590 H 2616.51 -3.36617 -6.08041 0
M  V30 28591 H 2619.7 -2.0091 -4.22792 0
M  V30 28592 H 2619.87 -3.00732 -5.7399 0
M  V30 28593 N 2613.28 1.48384 -0.531019 0
M  V30 28594 C 2614.51 2.069 -0.00137759 0
M  V30 28595 C 2614.92 1.38742 1.28047 0
M  V30 28596 O 2614.28 0.475275 1.76203 0
M  V30 28597 C 2614.33 3.60798 0.225192 0
M  V30 28598 O 2614.05 4.26396 -1.00587 0
M  V30 28599 C 2615.55 4.36111 0.795096 0
M  V30 28600 H 2612.77 0.670139 -0.0339822 0
M  V30 28601 H 2615.32 1.90759 -0.736959 0
M  V30 28602 H 2613.47 3.7654 0.910825 0
M  V30 28603 H 2613.89 5.18558 -0.787256 0
M  V30 28604 H 2615.36 5.44563 0.903047 0
M  V30 28605 H 2615.84 4.0061 1.80024 0
M  V30 28606 H 2616.44 4.25049 0.145995 0
M  V30 28607 N 2614.76 0.2662 1.55336 0
M  V30 28608 C 2615.98 -0.359625 2.04258 0
M  V30 28609 C 2616.41 -1.49342 1.14362 0
M  V30 28610 O 2615.77 -1.80756 0.1404 0
M  V30 28611 C 2615.81 -0.826573 3.50999 0
M  V30 28612 O 2614.92 -1.93459 3.64208 0
M  V30 28613 H 2614.26 -0.0757154 0.659669 0
M  V30 28614 H 2616.79 0.397896 2.00694 0
M  V30 28615 H 2616.8 -1.1247 3.92192 0
M  V30 28616 H 2615.47 0.00300343 4.159 0
M  V30 28617 H 2614.05 -1.63969 3.34916 0
M  V30 28618 N 2616.24 -1.57599 -0.0066531 0
M  V30 28619 C 2617.65 -1.55425 -0.362642 0
M  V30 28620 C 2617.85 -0.995218 -1.75207 0
M  V30 28621 O 2616.91 -0.626101 -2.44614 0
M  V30 28622 C 2618.22 -2.99709 -0.243965 0
M  V30 28623 C 2619.77 -3.11366 -0.319396 0
M  V30 28624 C 2620.24 -4.57423 -0.229918 0
M  V30 28625 N 2621.74 -4.62304 -0.288024 0
M  V30 28626 C 2622.47 -5.72889 -0.242026 0
M  V30 28627 N 2621.97 -6.92644 -0.147012 0
M  V30 28628 N 2623.76 -5.61334 -0.293404 0
M  V30 28629 H 2615.91 -1.9228 0.902347 0
M  V30 28630 H 2618.17 -0.88289 0.345266 0
M  V30 28631 H 2617.88 -3.44423 0.711739 0
M  V30 28632 H 2617.75 -3.62901 -1.02871 0
M  V30 28633 H 2620.14 -2.66586 -1.26554 0
M  V30 28634 H 2620.22 -2.50963 0.495099 0
M  V30 28635 H 2619.87 -5.02875 0.712654 0
M  V30 28636 H 2619.8 -5.15763 -1.06281 0
M  V30 28637 H 2622.29 -3.76152 -0.36306 0
M  V30 28638 H 2622.6 -7.7271 -0.117627 0
M  V30 28639 H 2620.94 -6.94909 -0.112735 0
M  V30 28640 H 2624.14 -4.66669 -0.365782 0
M  V30 28641 H 2624.31 -6.47502 -0.25409 0
M  V30 28642 N 2617.72 0.279305 -1.55105 0
M  V30 28643 C 2618.66 1.34509 -1.87552 0
M  V30 28644 C 2619.63 1.49374 -0.72641 0
M  V30 28645 O 2620.82 1.63883 -0.977092 0
M  V30 28646 C 2617.96 2.70147 -2.14743 0
M  V30 28647 C 2617.07 2.63556 -3.4229 0
M  V30 28648 C 2616.21 3.91331 -3.59213 0
M  V30 28649 C 2615.24 3.79225 -4.80474 0
M  V30 28650 N 2614.38 4.98821 -4.94087 0
M  V30 28651 H 2619.22 1.06138 -2.78458 0
M  V30 28652 H 2616.76 0.512912 -1.37868 0
M  V30 28653 H 2618.72 3.49057 -2.28507 0
M  V30 28654 H 2617.35 2.96733 -1.2708 0
M  V30 28655 H 2616.4 1.76391 -3.37032 0
M  V30 28656 H 2617.71 2.50508 -4.31332 0
M  V30 28657 H 2616.86 4.78681 -3.72759 0
M  V30 28658 H 2615.6 4.07238 -2.68344 0
M  V30 28659 H 2614.61 2.90258 -4.66937 0
M  V30 28660 H 2615.83 3.64842 -5.72772 0
M  V30 28661 H 2613.78 5.15151 -4.06148 0
M  V30 28662 H 2613.7 4.88279 -5.77165 0
M  V30 28663 H 2614.96 5.87761 -5.12013 0
M  V30 28664 N 2619.19 1.47931 0.543528 0
M  V30 28665 C 2620.14 1.61443 1.64939 0
M  V30 28666 C 2621.11 0.456931 1.59691 0
M  V30 28667 O 2622.3 0.678719 1.7832 0
M  V30 28668 C 2619.44 1.64749 3.03236 0
M  V30 28669 C 2618.55 2.91512 3.18818 0
M  V30 28670 C 2617.68 2.86065 4.47594 0
M  V30 28671 C 2616.72 4.07592 4.56657 0
M  V30 28672 N 2615.86 4.00302 5.76804 0
M  V30 28673 H 2620.7 2.55886 1.52729 0
M  V30 28674 H 2618.24 1.26911 0.743778 0
M  V30 28675 H 2620.19 1.64648 3.83336 0
M  V30 28676 H 2618.82 0.738072 3.14249 0
M  V30 28677 H 2617.88 3.01418 2.32059 0
M  V30 28678 H 2619.19 3.81468 3.21377 0
M  V30 28679 H 2618.34 2.8429 5.3597 0
M  V30 28680 H 2617.08 1.93815 4.47535 0
M  V30 28681 H 2616.09 4.09657 3.6669 0
M  V30 28682 H 2617.31 5.00986 4.58465 0
M  V30 28683 H 2615.26 3.10863 5.77668 0
M  V30 28684 H 2615.17 4.8395 5.808 0
M  V30 28685 H 2616.44 4.02564 6.67504 0
M  V30 28686 N 2620.67 -0.791347 1.36292 0
M  V30 28687 C 2621.92 -1.54914 1.30414 0
M  V30 28688 C 2622.25 -1.94147 -0.117127 0
M  V30 28689 O 2621.5 -1.62805 -1.08596 0
M  V30 28690 C 2621.8 -2.83926 2.17073 0
M  V30 28691 C 2621.47 -2.6384 3.65649 0
M  V30 28692 C 2620.13 -2.5807 4.06145 0
M  V30 28693 C 2622.48 -2.45314 4.59859 0
M  V30 28694 C 2619.81 -2.31738 5.38994 0
M  V30 28695 C 2622.16 -2.2051 5.92923 0
M  V30 28696 C 2620.82 -2.13172 6.32546 0
M  V30 28697 H 2620.09 -0.56687 0.47722 0
M  V30 28698 H 2622.74 -0.913143 1.68327 0
M  V30 28699 H 2621.05 -3.51983 1.72091 0
M  V30 28700 H 2622.74 -3.41706 2.09852 0
M  V30 28701 H 2619.33 -2.69185 3.33523 0
M  V30 28702 H 2623.52 -2.48775 4.29447 0
M  V30 28703 H 2618.77 -2.24538 5.68676 0
M  V30 28704 H 2622.95 -2.0517 6.65491 0
M  V30 28705 H 2620.57 -1.92531 7.35415 0
M  V30 28706 N 2622.15 -1.2054 -1.01528 0
M  V30 28707 C 2623.08 -0.979333 -2.1197 0
M  V30 28708 C 2624.06 0.0921489 -1.6985 0
M  V30 28709 O 2625.25 -0.0656273 -1.94089 0
M  V30 28710 C 2622.38 -0.532044 -3.432 0
M  V30 28711 C 2621.33 -1.54692 -3.99067 0
M  V30 28712 C 2620.66 -0.95622 -5.2608 0
M  V30 28713 C 2621.96 -2.931 -4.32308 0
M  V30 28714 H 2623.65 -1.90302 -2.3114 0
M  V30 28715 H 2621.2 -0.916392 -1.11078 0
M  V30 28716 H 2623.15 -0.361118 -4.1985 0
M  V30 28717 H 2621.87 0.427271 -3.23793 0
M  V30 28718 H 2620.53 -1.70523 -3.24527 0
M  V30 28719 H 2620.18 0.0110654 -5.02999 0
M  V30 28720 H 2619.88 -1.63403 -5.64423 0
M  V30 28721 H 2621.4 -0.79639 -6.05384 0
M  V30 28722 H 2622.82 -2.80772 -4.9984 0
M  V30 28723 H 2621.21 -3.57799 -4.81767 0
M  V30 28724 H 2622.28 -3.44723 -3.41019 0
M  V30 28725 N 2623.63 1.20858 -1.01149 0
M  V30 28726 C 2624.54 2.2714 -0.5869 0
M  V30 28727 C 2625.55 1.69951 0.373168 0
M  V30 28728 O 2626.73 2.0002 0.235388 0
M  V30 28729 C 2623.79 3.46623 0.0732993 0
M  V30 28730 C 2622.86 4.1906 -0.932068 0
M  V30 28731 C 2622.09 5.32838 -0.303279 0
M  V30 28732 O 2622.31 5.63282 0.898296 0
M  V30 28733 O 2621.25 5.93238 -1.01746 0
M  V30 28734 H 2625.07 2.65665 -1.4716 0
M  V30 28735 H 2622.66 1.27378 -0.780712 0
M  V30 28736 H 2624.54 4.19073 0.442259 0
M  V30 28737 H 2623.21 3.09984 0.932274 0
M  V30 28738 H 2622.12 3.48803 -1.3523 0
M  V30 28739 H 2623.45 4.59625 -1.76084 0
M  V30 28740 N 2625.11 0.787064 1.3654 0
M  V30 28741 C 2626.35 0.358907 1.99599 0
M  V30 28742 C 2626.68 -1.06603 1.62325 0
M  V30 28743 O 2625.96 -1.73611 0.876889 0
M  V30 28744 C 2626.24 0.520006 3.56326 0
M  V30 28745 C 2626.1 1.98846 4.0346 0
M  V30 28746 C 2627.41 -0.0663964 4.4005 0
M  V30 28747 H 2624.53 0.131882 0.725104 0
M  V30 28748 H 2627.18 0.992964 1.61988 0
M  V30 28749 H 2625.33 -0.0197638 3.88495 0
M  V30 28750 H 2627 2.58911 3.81789 0
M  V30 28751 H 2625.24 2.4919 3.55087 0
M  V30 28752 H 2625.91 2.05216 5.12436 0
M  V30 28753 H 2628.39 0.394339 4.14227 0
M  V30 28754 H 2627.26 0.0763647 5.48847 0
M  V30 28755 H 2627.52 -1.15827 4.26657 0
M  V30 28756 N 2626.58 -1.48101 0.53888 0
M  V30 28757 C 2627.99 -1.86428 0.100711 0
M  V30 28758 C 2628.35 -1.44751 -1.32445 0
M  V30 28759 O 2627.47 -0.842234 -1.99337 0
M  V30 28760 C 2628.07 -3.38343 0.175992 0
M  V30 28761 C 2626.62 -3.7583 -0.207032 0
M  V30 28762 C 2625.77 -2.72153 0.531789 0
M  V30 28763 H 2628.72 -1.39879 0.749639 0
M  V30 28764 H 2628.74 -3.75577 -0.610078 0
M  V30 28765 H 2628.26 -3.68645 1.21335 0
M  V30 28766 H 2626.36 -3.51142 -1.24619 0
M  V30 28767 H 2626.47 -4.78899 0.138772 0
M  V30 28768 H 2624.83 -2.5469 -0.0230014 0
M  V30 28769 H 2625.62 -3.05299 1.56995 0
M  V30 28770 N 2628.06 -0.274434 -1.55192 0
M  V30 28771 C 2629.48 0.0797262 -1.59401 0
M  V30 28772 C 2629.68 1.54657 -1.29165 0
M  V30 28773 O 2628.73 2.29533 -1.05219 0
M  V30 28774 C 2630.05 -0.294291 -2.99256 0
M  V30 28775 C 2631.59 -0.240851 -3.12072 0
M  V30 28776 C 2632.07 -0.589298 -4.54193 0
M  V30 28777 N 2633.56 -0.540825 -4.60032 0
M  V30 28778 C 2634.3 -0.783247 -5.68025 0
M  V30 28779 N 2633.79 -1.09025 -6.84168 0
M  V30 28780 N 2635.58 -0.712091 -5.57571 0
M  V30 28781 H 2627.74 -1.2307 -1.73111 0
M  V30 28782 H 2630 -0.497143 -0.807188 0
M  V30 28783 H 2629.7 -1.3144 -3.26215 0
M  V30 28784 H 2629.58 0.365215 -3.75428 0
M  V30 28785 H 2631.97 0.769973 -2.84878 0
M  V30 28786 H 2632.05 -0.934605 -2.38115 0
M  V30 28787 H 2631.69 -1.59781 -4.82113 0
M  V30 28788 H 2631.62 0.126238 -5.26449 0
M  V30 28789 H 2634.11 -0.313393 -3.76598 0
M  V30 28790 H 2634.42 -1.26191 -7.62427 0
M  V30 28791 H 2632.77 -1.12801 -6.85785 0
M  V30 28792 H 2635.96 -0.472096 -4.65713 0
M  V30 28793 H 2636.13 -0.904402 -6.41658 0
M  V30 28794 N 2629.54 1.576 -0.00170483 0
M  V30 28795 C 2630.79 1.90642 0.682786 0
M  V30 28796 C 2631.11 0.875446 1.73684 0
M  V30 28797 O 2630.37 -0.119541 1.95335 0
M  V30 28798 C 2630.67 3.30438 1.36183 0
M  V30 28799 C 2630.33 4.4874 0.440808 0
M  V30 28800 C 2629 4.80836 0.187227 0
M  V30 28801 C 2631.35 5.20842 -0.193226 0
M  V30 28802 C 2628.68 5.82405 -0.708652 0
M  V30 28803 C 2631.03 6.23365 -1.07699 0
M  V30 28804 C 2629.69 6.53917 -1.33973 0
M  V30 28805 H 2628.96 0.697608 0.249849 0
M  V30 28806 H 2631.61 1.91413 -0.0575979 0
M  V30 28807 H 2629.91 3.25798 2.1763 0
M  V30 28808 H 2631.61 3.53263 1.89753 0
M  V30 28809 H 2628.2 4.23664 0.64862 0
M  V30 28810 H 2632.39 4.96299 -0.0103317 0
M  V30 28811 H 2627.64 6.04435 -0.920204 0
M  V30 28812 H 2631.82 6.78365 -1.57463 0
M  V30 28813 H 2629.44 7.32439 -2.03562 0
M  V30 28814 N 2631.02 -0.271076 1.55251 0
M  V30 28815 C 2632.29 -1.02381 1.66666 0
M  V30 28816 C 2632.67 -2.04224 0.534399 0
M  V30 28817 O 2632.02 -2.23712 -0.465298 0
M  V30 28818 C 2632.23 -1.67889 3.05964 0
M  V30 28819 C 2633.58 -2.1898 3.63776 0
M  V30 28820 O 2634.6 -1.77873 3.08609 0
M  V30 28821 O 2633.46 -2.94385 4.60434 0
M  V30 28822 H 2630.56 -0.475023 0.676966 0
M  V30 28823 H 2633.1 -0.26678 1.6759 0
M  V30 28824 H 2631.88 -0.941004 3.79817 0
M  V30 28825 H 2631.5 -2.50274 3.08947 0
M  V30 28826 N 2632.5 -1.48217 -0.535675 0
M  V30 28827 C 2633.44 -1.62315 -1.6408 0
M  V30 28828 C 2634.41 -0.465394 -1.59447 0
M  V30 28829 O 2635.6 -0.688167 -1.77958 0
M  V30 28830 C 2632.74 -1.66355 -3.02358 0
M  V30 28831 C 2631.85 -2.93198 -3.17268 0
M  V30 28832 C 2630.99 -2.88435 -4.4607 0
M  V30 28833 C 2630.03 -4.10008 -4.54489 0
M  V30 28834 N 2629.16 -4.03355 -5.74673 0
M  V30 28835 H 2634 -2.56693 -1.5137 0
M  V30 28836 H 2631.54 -1.27303 -0.737037 0
M  V30 28837 H 2633.5 -1.66679 -3.82458 0
M  V30 28838 H 2632.13 -0.754727 -3.13853 0
M  V30 28839 H 2631.18 -3.02645 -2.30457 0
M  V30 28840 H 2632.49 -3.83167 -3.1935 0
M  V30 28841 H 2631.65 -2.87128 -5.34455 0
M  V30 28842 H 2630.38 -1.96185 -4.465 0
M  V30 28843 H 2629.39 -4.11596 -3.64512 0
M  V30 28844 H 2630.61 -5.0341 -4.55801 0
M  V30 28845 H 2628.56 -3.13922 -5.76011 0
M  V30 28846 H 2628.48 -4.87023 -5.78225 0
M  V30 28847 H 2629.75 -4.06099 -6.6536 0
M  V30 28848 N 2633.97 0.784108 -1.3671 0
M  V30 28849 C 2634.88 1.92819 -1.33634 0
M  V30 28850 C 2635.9 1.72369 -0.237716 0
M  V30 28851 O 2637.08 1.95815 -0.470996 0
M  V30 28852 C 2634.14 3.27762 -1.13017 0
M  V30 28853 C 2633.2 3.60953 -2.32403 0
M  V30 28854 C 2632.44 4.89457 -2.12761 0
M  V30 28855 O 2632.66 5.59584 -1.10551 0
M  V30 28856 O 2631.59 5.21427 -3.00662 0
M  V30 28857 H 2635.42 1.98364 -2.29968 0
M  V30 28858 H 2633 0.925115 -1.17311 0
M  V30 28859 H 2634.89 4.08503 -1.03458 0
M  V30 28860 H 2633.56 3.23097 -0.197487 0
M  V30 28861 H 2632.47 2.80498 -2.47532 0
M  V30 28862 H 2633.8 3.70348 -3.24196 0
M  V30 28863 N 2635.45 1.21076 1.00888 0
M  V30 28864 C 2636.4 0.963513 2.11705 0
M  V30 28865 C 2637.39 -0.0878734 1.69172 0
M  V30 28866 O 2638.6 0.0631731 1.79889 0
M  V30 28867 H 2634.98 0.294299 0.69202 0
M  V30 28868 H 2636.95 1.90426 2.2974 0
M  V30 28869 C 2635.7 0.54057 3.43472 0
M  V30 28870 H 2635.02 1.34121 3.76632 0
M  V30 28871 H 2636.46 0.406851 4.22044 0
M  V30 28872 C 2634.92 -0.748021 3.28491 0
M  V30 28873 O 2635.45 -1.80453 3.58886 0
M  V30 28874 N 2633.65 -0.713032 2.81717 0
M  V30 28875 H 2633.2 0.147018 2.5718 0
M  V30 28876 H 2633.16 -1.57553 2.72074 0
M  V30 28877 N 2636.93 -1.2032 1.01789 0
M  V30 28878 C 2638.34 -1.71437 0.739337 0
M  V30 28879 C 2638.69 -1.81628 -0.742009 0
M  V30 28880 O 2637.82 -1.47974 -1.57901 0
M  V30 28881 C 2638.41 -3.11371 1.33543 0
M  V30 28882 C 2636.97 -3.59793 1.10572 0
M  V30 28883 C 2636.12 -2.3696 1.44032 0
M  V30 28884 H 2639.07 -1.05315 1.1872 0
M  V30 28885 H 2639.09 -3.73497 0.726676 0
M  V30 28886 H 2638.6 -3.03921 2.41357 0
M  V30 28887 H 2636.7 -3.72572 0.045306 0
M  V30 28888 H 2636.82 -4.44538 1.78668 0
M  V30 28889 H 2635.18 -2.39764 0.859373 0
M  V30 28890 H 2635.96 -2.32151 2.52905 0
M  V30 28891 N 2638.41 -0.794293 -1.3612 0
M  V30 28892 C 2639.66 -0.36894 -1.99111 0
M  V30 28893 C 2639.98 1.06067 -1.63034 0
M  V30 28894 O 2639.24 1.74832 -0.879334 0
M  V30 28895 C 2639.54 -0.485332 -3.54089 0
M  V30 28896 C 2639.2 -1.87646 -4.1 0
M  V30 28897 C 2637.87 -2.25707 -4.24982 0
M  V30 28898 C 2640.22 -2.78714 -4.40418 0
M  V30 28899 C 2637.55 -3.54229 -4.67695 0
M  V30 28900 C 2639.9 -4.06668 -4.84565 0
M  V30 28901 C 2638.56 -4.44745 -4.97753 0
M  V30 28902 H 2637.83 -0.135005 -0.728598 0
M  V30 28903 H 2640.48 -1.0127 -1.62532 0
M  V30 28904 H 2638.78 0.241916 -3.91052 0
M  V30 28905 H 2640.48 -0.13718 -4.00765 0
M  V30 28906 H 2637.07 -1.57071 -3.98782 0
M  V30 28907 H 2641.25 -2.5056 -4.28408 0
M  V30 28908 H 2636.51 -3.83595 -4.76093 0
M  V30 28909 H 2640.68 -4.77345 -5.07065 0
M  V30 28910 H 2638.31 -5.44388 -5.30608 0
M  V30 28911 N 2639.89 1.47813 -0.546727 0
M  V30 28912 C 2640.8 2.33656 0.210219 0
M  V30 28913 C 2641.81 1.4754 0.922387 0
M  V30 28914 O 2642.99 1.80489 0.89362 0
M  V30 28915 C 2640.05 3.24018 1.23342 0
M  V30 28916 C 2639.11 4.26018 0.529809 0
M  V30 28917 C 2638.35 5.12062 1.50426 0
M  V30 28918 O 2638.57 5.00374 2.73828 0
M  V30 28919 O 2637.5 5.92944 1.03449 0
M  V30 28920 H 2641.33 2.99661 -0.493658 0
M  V30 28921 H 2638.92 1.46202 -0.307452 0
M  V30 28922 H 2640.8 3.79864 1.82432 0
M  V30 28923 H 2639.47 2.60654 1.91941 0
M  V30 28924 H 2638.38 3.73961 -0.102013 0
M  V30 28925 H 2639.71 4.92067 -0.114536 0
M  V30 28926 N 2641.36 0.28266 1.55044 0
M  V30 28927 C 2642.61 -0.331299 1.99366 0
M  V30 28928 C 2642.93 -1.5581 1.17253 0
M  V30 28929 O 2642.2 -1.94114 0.263905 0
M  V30 28930 H 2640.78 -0.125401 0.736399 0
M  V30 28931 H 2643.45 0.389744 1.90963 0
M  V30 28932 H 2642.54 -0.615982 3.05961 0
M  V30 28933 N 2642.84 -1.57597 0.0100627 0
M  V30 28934 C 2643.77 -2.12086 -0.97682 0
M  V30 28935 C 2644.75 -1.03237 -1.35189 0
M  V30 28936 O 2645.94 -1.30973 -1.43387 0
M  V30 28937 C 2643.07 -2.6324 -2.26544 0
M  V30 28938 C 2642.02 -3.76705 -2.03169 0
M  V30 28939 C 2641.35 -4.14212 -3.38131 0
M  V30 28940 C 2642.65 -5.0357 -1.38617 0
M  V30 28941 H 2644.34 -2.94795 -0.523093 0
M  V30 28942 H 2641.89 -1.4181 -0.25017 0
M  V30 28943 H 2643.84 -2.99989 -2.95947 0
M  V30 28944 H 2642.57 -1.77666 -2.74048 0
M  V30 28945 H 2641.22 -3.40365 -1.36189 0
M  V30 28946 H 2640.87 -3.25647 -3.83357 0
M  V30 28947 H 2640.57 -4.90662 -3.23303 0
M  V30 28948 H 2642.1 -4.53529 -4.08833 0
M  V30 28949 H 2643.51 -5.38026 -1.97991 0
M  V30 28950 H 2641.91 -5.84891 -1.34246 0
M  V30 28951 H 2642.98 -4.83587 -0.356637 0
M  V30 28952 N 2644.32 0.262839 -1.55393 0
M  V30 28953 C 2645.6 1.01496 -1.67206 0
M  V30 28954 C 2645.98 2.03938 -0.545222 0
M  V30 28955 O 2645.33 2.23956 0.453427 0
M  V30 28956 C 2645.54 1.66265 -3.0685 0
M  V30 28957 C 2646.88 2.17048 -3.64932 0
M  V30 28958 O 2647.91 1.76234 -3.09548 0
M  V30 28959 O 2646.77 2.91939 -4.61989 0
M  V30 28960 H 2643.86 0.471426 -0.679475 0
M  V30 28961 H 2646.41 0.257889 -1.67729 0
M  V30 28962 H 2645.18 0.920848 -3.8031 0
M  V30 28963 H 2644.8 2.48633 -3.1027 0
M  V30 28964 N 2645.8 1.48499 0.527807 0
M  V30 28965 C 2647.08 1.47117 1.28902 0
M  V30 28966 C 2647.46 0.184044 2.10296 0
M  V30 28967 O 2646.8 -0.834181 2.12729 0
M  V30 28968 C 2647.01 2.73445 2.16861 0
M  V30 28969 C 2648.36 3.21861 2.7693 0
M  V30 28970 O 2649.39 2.74377 2.27147 0
M  V30 28971 O 2648.24 4.04492 3.67489 0
M  V30 28972 H 2645.34 0.587633 0.581907 0
M  V30 28973 H 2647.88 1.60735 0.544282 0
M  V30 28974 H 2646.66 3.58635 1.56515 0
M  V30 28975 H 2646.28 2.62558 2.98578 0
M  V30 28976 N 2647.28 -0.776847 1.37123 0
M  V30 28977 C 2648.53 -1.53047 1.31375 0
M  V30 28978 C 2648.84 -1.95339 -0.100982 0
M  V30 28979 O 2650.05 -2.70043 -0.280905 0
M  V30 28980 C 2648.5 -2.76342 2.30572 0
M  V30 28981 C 2648.11 -2.41169 3.77547 0
M  V30 28982 C 2649.85 -3.54297 2.33824 0
M  V30 28983 C 2647.76 -3.60935 4.68487 0
M  V30 28984 H 2646.69 -0.574572 0.488244 0
M  V30 28985 H 2649.34 -0.851343 1.62556 0
M  V30 28986 H 2647.72 -3.46118 1.92402 0
M  V30 28987 H 2648.9 -1.79209 4.24524 0
M  V30 28988 H 2647.21 -1.76398 3.7719 0
M  V30 28989 H 2649.81 -4.43305 2.98973 0
M  V30 28990 H 2650.15 -3.9379 1.35037 0
M  V30 28991 H 2650.69 -2.91513 2.70675 0
M  V30 28992 H 2647.42 -3.26527 5.68384 0
M  V30 28993 H 2646.94 -4.22017 4.26218 0
M  V30 28994 H 2648.62 -4.2781 4.85373 0
M  V30 28995 N 2648.76 -1.2161 -1.00244 0
M  V30 28996 C 2649.7 -0.974727 -2.11191 0
M  V30 28997 C 2650.7 0.0789006 -1.69216 0
M  V30 28998 O 2651.9 -0.0727122 -1.79853 0
M  V30 28999 H 2648.28 -0.297965 -0.69045 0
M  V30 29000 H 2650.25 -1.91642 -2.28727 0
M  V30 29001 C 2649 -0.558777 -3.43181 0
M  V30 29002 H 2648.32 -1.36116 -3.75915 0
M  V30 29003 H 2649.76 -0.429228 -4.21822 0
M  V30 29004 C 2648.22 0.73059 -3.28883 0
M  V30 29005 O 2648.75 1.78547 -3.59838 0
M  V30 29006 N 2646.96 0.698082 -2.82091 0
M  V30 29007 H 2646.5 -0.160655 -2.57099 0
M  V30 29008 H 2646.46 1.56108 -2.72906 0
M  V30 29009 N 2650.23 1.19778 -1.02425 0
M  V30 29010 C 2651.16 2.25074 -0.621609 0
M  V30 29011 C 2652.14 1.66091 0.367119 0
M  V30 29012 O 2653.33 1.92573 0.250858 0
M  V30 29013 C 2650.46 3.47284 0.0331216 0
M  V30 29014 C 2649.41 4.1891 -0.877397 0
M  V30 29015 C 2648.74 5.34628 -0.0880236 0
M  V30 29016 C 2650.04 4.74215 -2.189 0
M  V30 29017 H 2651.73 2.59008 -1.50183 0
M  V30 29018 H 2649.28 1.24501 -0.723569 0
M  V30 29019 H 2651.23 4.20134 0.326414 0
M  V30 29020 H 2649.96 3.12536 0.948109 0
M  V30 29021 H 2648.62 3.47936 -1.15481 0
M  V30 29022 H 2648.26 4.96124 0.828854 0
M  V30 29023 H 2647.96 5.83482 -0.694461 0
M  V30 29024 H 2649.49 6.10277 0.198636 0
M  V30 29025 H 2650.9 5.38844 -1.95755 0
M  V30 29026 H 2649.3 5.33537 -2.74696 0
M  V30 29027 H 2650.37 3.92536 -2.84681 0
M  V30 29028 N 2651.71 0.801501 1.35697 0
M  V30 29029 C 2652.96 0.38917 1.99642 0
M  V30 29030 C 2653.31 -1.03092 1.62449 0
M  V30 29031 O 2652.61 -1.70448 0.875094 0
M  V30 29032 C 2652.8 0.504103 3.53827 0
M  V30 29033 C 2652.63 1.93382 4.05997 0
M  V30 29034 C 2651.4 2.56108 4.35588 0
M  V30 29035 C 2653.6 2.89767 4.249 0
M  V30 29036 N 2651.58 3.90543 4.73656 0
M  V30 29037 C 2652.95 4.0906 4.65907 0
M  V30 29038 C 2655 2.86665 4.07096 0
M  V30 29039 C 2653.71 5.25677 4.90974 0
M  V30 29040 C 2655.73 4.0248 4.33317 0
M  V30 29041 C 2655.1 5.20521 4.74592 0
M  V30 29042 H 2651.19 0.190073 0.758549 0
M  V30 29043 H 2653.78 1.04166 1.64491 0
M  V30 29044 H 2651.95 -0.118369 3.8822 0
M  V30 29045 H 2653.68 0.0668506 4.04645 0
M  V30 29046 H 2650.44 2.07499 4.25724 0
M  V30 29047 H 2650.86 4.59742 4.96957 0
M  V30 29048 H 2655.5 1.96559 3.74332 0
M  V30 29049 H 2653.22 6.1636 5.22615 0
M  V30 29050 H 2656.81 4.01455 4.211 0
M  V30 29051 H 2655.69 6.08648 4.94487 0
M  V30 29052 N 2653.19 -1.47521 0.554558 0
M  V30 29053 C 2654.44 -2.01681 0.0273812 0
M  V30 29054 C 2654.75 -1.43461 -1.32959 0
M  V30 29055 O 2655.96 -1.89268 -1.94653 0
M  V30 29056 C 2654.41 -3.599 -0.00152731 0
M  V30 29057 C 2654.02 -4.27111 1.35204 0
M  V30 29058 C 2655.77 -4.2182 -0.476237 0
M  V30 29059 C 2653.67 -5.77329 1.28239 0
M  V30 29060 H 2652.6 -0.753972 0.00646594 0
M  V30 29061 H 2655.25 -1.69541 0.702015 0
M  V30 29062 H 2653.64 -3.88991 -0.741753 0
M  V30 29063 H 2654.81 -4.09665 2.10977 0
M  V30 29064 H 2653.12 -3.77167 1.76447 0
M  V30 29065 H 2655.72 -5.31898 -0.546706 0
M  V30 29066 H 2656.06 -3.88813 -1.48763 0
M  V30 29067 H 2656.6 -3.9725 0.20905 0
M  V30 29068 H 2653.34 -6.14951 2.2697 0
M  V30 29069 H 2652.86 -5.9712 0.566419 0
M  V30 29070 H 2654.54 -6.39484 0.983339 0
M  V30 29071 N 2654.67 -0.290879 -1.54892 0
M  V30 29072 C 2656.08 0.203783 -1.85585 0
M  V30 29073 C 2656.43 1.5422 -1.21287 0
M  V30 29074 O 2655.55 2.1038 -0.506878 0
M  V30 29075 C 2656.15 0.376535 -3.36701 0
M  V30 29076 C 2654.71 0.815421 -3.67461 0
M  V30 29077 C 2653.86 -0.0821574 -2.77178 0
M  V30 29078 H 2656.81 -0.512202 -1.50207 0
M  V30 29079 H 2656.83 1.21269 -3.60658 0
M  V30 29080 H 2656.34 -0.597738 -3.83469 0
M  V30 29081 H 2654.44 1.80061 -3.26204 0
M  V30 29082 H 2654.55 0.641822 -4.74781 0
M  V30 29083 H 2652.92 0.436851 -2.50926 0
M  V30 29084 H 2653.7 -1.0526 -3.26765 0
M  V30 29085 N 2656.15 1.57589 -0.0184203 0
M  V30 29086 C 2657.08 2.12601 0.965559 0
M  V30 29087 C 2658.06 1.03953 1.3464 0
M  V30 29088 O 2659.24 1.31731 1.4269 0
M  V30 29089 C 2656.37 2.64438 2.25145 0
M  V30 29090 C 2655.33 3.77777 2.01168 0
M  V30 29091 C 2654.65 4.15999 3.35929 0
M  V30 29092 C 2655.95 5.04298 1.35944 0
M  V30 29093 H 2657.65 2.95068 0.507452 0
M  V30 29094 H 2655.19 1.41941 0.242646 0
M  V30 29095 H 2657.14 3.01554 2.94352 0
M  V30 29096 H 2655.87 1.79117 2.73102 0
M  V30 29097 H 2654.53 3.41082 1.34382 0
M  V30 29098 H 2654.18 3.27676 3.81625 0
M  V30 29099 H 2653.88 4.92369 3.20696 0
M  V30 29100 H 2655.4 4.5569 4.06422 0
M  V30 29101 H 2656.81 5.39069 1.95135 0
M  V30 29102 H 2655.21 5.85595 1.31142 0
M  V30 29103 H 2656.28 4.83769 0.330986 0
M  V30 29104 N 2657.62 -0.254594 1.5553 0
M  V30 29105 C 2658.85 -1.00569 1.81385 0
M  V30 29106 C 2659.27 -1.7846 0.59445 0
M  V30 29107 O 2658.63 -1.75462 -0.456372 0
M  V30 29108 C 2658.68 -1.92539 3.04895 0
M  V30 29109 O 2657.78 -3.01596 2.81271 0
M  V30 29110 H 2657.12 -0.286576 0.598974 0
M  V30 29111 H 2659.65 -0.277917 2.02704 0
M  V30 29112 H 2659.66 -2.3415 3.34123 0
M  V30 29113 H 2658.34 -1.35263 3.9329 0
M  V30 29114 H 2656.92 -2.64169 2.6319 0
M  V30 29115 N 2659.1 -1.48777 -0.519925 0
M  V30 29116 C 2660.01 -1.66747 -1.65023 0
M  V30 29117 C 2661.03 -0.549983 -1.65079 0
M  V30 29118 O 2662.2 -0.822328 -1.83847 0
M  V30 29119 C 2659.27 -1.71244 -3.01457 0
M  V30 29120 C 2658.33 -2.94693 -3.12177 0
M  V30 29121 C 2657.56 -2.98965 -4.42103 0
M  V30 29122 O 2657.79 -2.1136 -5.29795 0
M  V30 29123 O 2656.72 -3.91241 -4.57399 0
M  V30 29124 H 2660.55 -2.62464 -1.52796 0
M  V30 29125 H 2658.13 -1.32296 -0.694134 0
M  V30 29126 H 2660.01 -1.76664 -3.82581 0
M  V30 29127 H 2658.69 -0.78703 -3.13987 0
M  V30 29128 H 2657.59 -2.94801 -2.30311 0
M  V30 29129 H 2658.93 -3.86652 -3.04568 0
M  V30 29130 N 2660.58 0.769564 -1.37534 0
M  V30 29131 C 2661.53 1.9043 -1.33564 0
M  V30 29132 C 2662.52 1.67912 -0.224057 0
M  V30 29133 O 2663.73 1.75675 -0.392205 0
M  V30 29134 H 2660.1 0.626264 -0.41629 0
M  V30 29135 H 2662.07 1.90894 -2.29351 0
M  V30 29136 C 2660.82 3.2772 -1.16168 0
M  V30 29137 H 2660.15 3.45625 -2.00957 0
M  V30 29138 H 2661.59 4.07411 -1.17441 0
M  V30 29139 C 2660.04 3.36639 0.132524 0
M  V30 29140 O 2660.57 3.85906 1.11532 0
M  V30 29141 N 2658.78 2.90017 0.183962 0
M  V30 29142 H 2658.33 2.50115 -0.616459 0
M  V30 29143 H 2658.29 2.96366 1.04951 0
M  V30 29144 N 2662.06 1.22139 0.995977 0
M  V30 29145 C 2663.01 0.956078 2.06986 0
M  V30 29146 C 2663.99 -0.0921293 1.60636 0
M  V30 29147 O 2665.18 0.117989 1.76606 0
M  V30 29148 C 2662.31 0.532395 3.39147 0
M  V30 29149 C 2661.4 1.61516 3.92139 0
M  V30 29150 N 2661.79 2.84221 4.18392 0
M  V30 29151 C 2660.09 1.48613 4.20512 0
M  V30 29152 C 2660.79 3.54214 4.61419 0
M  V30 29153 N 2659.77 2.81677 4.64929 0
M  V30 29154 H 2663.57 1.8882 2.2522 0
M  V30 29155 H 2661.08 1.11847 1.17746 0
M  V30 29156 H 2663.08 0.323647 4.15642 0
M  V30 29157 H 2661.74 -0.392864 3.22315 0
M  V30 29158 H 2662.75 3.20678 4.06677 0
M  V30 29159 H 2659.43 0.626835 4.12768 0
M  V30 29160 H 2660.82 4.59324 4.90379 0
M  V30 29161 N 2663.54 -1.19233 1.03059 0
M  V30 29162 C 2664.81 -1.84742 0.642641 0
M  V30 29163 C 2665.19 -1.9195 -0.878544 0
M  V30 29164 O 2664.54 -1.43779 -1.77595 0
M  V30 29165 C 2664.75 -3.23614 1.30671 0
M  V30 29166 C 2666.1 -3.99757 1.43105 0
M  V30 29167 O 2667.12 -3.33018 1.26402 0
M  V30 29168 O 2665.98 -5.1931 1.70232 0
M  V30 29169 H 2663.08 -0.796202 0.223587 0
M  V30 29170 H 2665.62 -1.26709 1.12885 0
M  V30 29171 H 2664.39 -3.13212 2.3455 0
M  V30 29172 H 2664.02 -3.89294 0.808473 0
M  V30 29173 N 2665.01 -0.808686 -1.3527 0
M  V30 29174 C 2666.26 -0.386518 -1.97962 0
M  V30 29175 C 2666.58 1.05252 -1.64868 0
M  V30 29176 O 2667.78 1.5779 -2.2094 0
M  V30 29177 C 2666.24 -0.640158 -3.54161 0
M  V30 29178 C 2665.85 -2.09187 -3.96162 0
M  V30 29179 C 2667.59 -0.283451 -4.23553 0
M  V30 29180 C 2665.5 -2.29115 -5.45216 0
M  V30 29181 H 2664.43 -0.140787 -0.74074 0
M  V30 29182 H 2667.08 -0.993039 -1.54308 0
M  V30 29183 H 2665.46 0.0363421 -3.95983 0
M  V30 29184 H 2666.63 -2.80636 -3.65486 0
M  V30 29185 H 2664.95 -2.40865 -3.39666 0
M  V30 29186 H 2667.55 -0.410366 -5.33123 0
M  V30 29187 H 2667.89 0.770587 -4.09106 0
M  V30 29188 H 2668.42 -0.913952 -3.87159 0
M  V30 29189 H 2665.16 -3.32972 -5.64632 0
M  V30 29190 H 2664.68 -1.62194 -5.77454 0
M  V30 29191 H 2666.36 -2.10771 -6.11706 0
M  V30 29192 N 2666.49 1.47225 -0.562374 0
M  V30 29193 C 2667.74 2.03342 -0.0485651 0
M  V30 29194 C 2668.09 1.42842 1.28895 0
M  V30 29195 O 2667.39 0.576596 1.82718 0
M  V30 29196 C 2667.58 3.57269 0.0969189 0
M  V30 29197 C 2667.41 4.32695 -1.22495 0
M  V30 29198 C 2666.18 4.72394 -1.79365 0
M  V30 29199 C 2668.38 4.67507 -2.1434 0
M  V30 29200 N 2666.36 5.32486 -3.05503 0
M  V30 29201 C 2667.73 5.27955 -3.25059 0
M  V30 29202 C 2669.79 4.49436 -2.14271 0
M  V30 29203 C 2668.49 5.7224 -4.35814 0
M  V30 29204 C 2670.51 4.94723 -3.24041 0
M  V30 29205 C 2669.88 5.55225 -4.3348 0
M  V30 29206 H 2665.98 0.77969 -0.0600601 0
M  V30 29207 H 2668.56 1.79642 -0.750801 0
M  V30 29208 H 2666.73 3.80726 0.768286 0
M  V30 29209 H 2668.46 4.00026 0.613262 0
M  V30 29210 H 2665.22 4.54512 -1.33101 0
M  V30 29211 H 2665.64 5.67071 -3.6981 0
M  V30 29212 H 2670.28 4.02013 -1.30942 0
M  V30 29213 H 2668 6.18652 -5.19899 0
M  V30 29214 H 2671.59 4.82507 -3.25081 0
M  V30 29215 H 2670.47 5.89629 -5.17018 0
M  V30 29216 N 2667.97 0.299089 1.54736 0
M  V30 29217 C 2669.22 -0.311514 1.9928 0
M  V30 29218 C 2669.53 -1.55152 1.1911 0
M  V30 29219 O 2670.74 -2.23659 1.53912 0
M  V30 29220 C 2669.19 -0.60557 3.54769 0
M  V30 29221 C 2668.8 0.615992 4.43745 0
M  V30 29222 C 2670.55 -1.17747 4.07843 0
M  V30 29223 C 2668.45 0.295194 5.90663 0
M  V30 29224 H 2667.38 -0.120174 0.744362 0
M  V30 29225 H 2670.03 0.407495 1.78918 0
M  V30 29226 H 2668.42 -1.38412 3.71023 0
M  V30 29227 H 2669.59 1.39225 4.39264 0
M  V30 29228 H 2667.91 1.1064 4.01432 0
M  V30 29229 H 2670.5 -1.4317 5.15176 0
M  V30 29230 H 2670.85 -2.11912 3.58328 0
M  V30 29231 H 2671.38 -0.46067 3.95124 0
M  V30 29232 H 2668.12 1.20535 6.44323 0
M  V30 29233 H 2667.64 -0.443834 5.98156 0
M  V30 29234 H 2669.32 -0.103935 6.46917 0
M  V30 29235 N 2669.45 -1.57577 0.0267774 0
M  V30 29236 C 2670.4 -2.10076 -0.955858 0
M  V30 29237 C 2671.37 -1.00229 -1.32452 0
M  V30 29238 O 2672.55 -1.27635 -1.41824 0
M  V30 29239 C 2669.69 -2.63054 -2.23376 0
M  V30 29240 C 2668.8 -3.86901 -1.92176 0
M  V30 29241 C 2667.94 -4.28281 -3.14244 0
M  V30 29242 C 2666.98 -5.44893 -2.78852 0
M  V30 29243 N 2666.11 -5.8144 -3.93538 0
M  V30 29244 H 2670.95 -2.93754 -0.501251 0
M  V30 29245 H 2668.49 -1.45197 -0.235821 0
M  V30 29246 H 2670.45 -2.91858 -2.98118 0
M  V30 29247 H 2669.08 -1.8221 -2.66457 0
M  V30 29248 H 2668.13 -3.6484 -1.07685 0
M  V30 29249 H 2669.44 -4.71723 -1.62108 0
M  V30 29250 H 2668.6 -4.58509 -3.97309 0
M  V30 29251 H 2667.34 -3.42222 -3.4747 0
M  V30 29252 H 2666.34 -5.1436 -1.94199 0
M  V30 29253 H 2667.57 -6.32649 -2.46844 0
M  V30 29254 H 2665.51 -4.98336 -4.26611 0
M  V30 29255 H 2665.43 -6.60896 -3.67087 0
M  V30 29256 H 2666.7 -6.16273 -4.77314 0
M  V30 29257 N 2670.93 0.246342 -1.55663 0
M  V30 29258 C 2672.15 0.991845 -1.81577 0
M  V30 29259 C 2672.57 1.78926 -0.602576 0
M  V30 29260 O 2671.93 1.77392 0.428764 0
M  V30 29261 C 2671.98 1.92927 -3.05715 0
M  V30 29262 O 2671.7 1.16413 -4.2235 0
M  V30 29263 C 2673.2 2.79072 -3.44432 0
M  V30 29264 H 2670.42 0.291833 -0.604214 0
M  V30 29265 H 2672.96 0.26906 -2.02722 0
M  V30 29266 H 2671.12 2.60633 -2.86617 0
M  V30 29267 H 2671.53 1.79826 -4.9271 0
M  V30 29268 H 2673.01 3.40596 -4.34394 0
M  V30 29269 H 2673.48 3.50212 -2.65043 0
M  V30 29270 H 2674.09 2.16818 -3.65883 0
M  V30 29271 N 2672.4 1.4905 0.512027 0
M  V30 29272 C 2673.33 1.67812 1.62362 0
M  V30 29273 C 2674.32 0.526837 1.61736 0
M  V30 29274 O 2675.5 0.761435 1.7865 0
M  V30 29275 C 2672.63 1.7344 3.00892 0
M  V30 29276 C 2671.58 2.88248 3.16382 0
M  V30 29277 C 2670.91 2.7898 4.56152 0
M  V30 29278 C 2672.21 4.29327 2.97449 0
M  V30 29279 H 2673.9 2.60875 1.46916 0
M  V30 29280 H 2671.45 1.25542 0.705357 0
M  V30 29281 H 2673.4 1.85152 3.78546 0
M  V30 29282 H 2672.13 0.769675 3.17401 0
M  V30 29283 H 2670.79 2.7612 2.4115 0
M  V30 29284 H 2670.43 1.80438 4.69522 0
M  V30 29285 H 2670.13 3.56029 4.67458 0
M  V30 29286 H 2671.66 2.92684 5.35881 0
M  V30 29287 H 2673.07 4.42193 3.64881 0
M  V30 29288 H 2671.47 5.07513 3.20236 0
M  V30 29289 H 2672.54 4.44539 1.93684 0
M  V30 29290 N 2673.88 -0.762259 1.3794 0
M  V30 29291 C 2675.11 -1.55145 1.36886 0
M  V30 29292 C 2675.53 -1.8875 -0.0435016 0
M  V30 29293 O 2674.88 -1.52148 -1.00783 0
M  V30 29294 C 2674.93 -2.85592 2.21629 0
M  V30 29295 O 2674.65 -2.53423 3.57363 0
M  V30 29296 C 2676.16 -3.79776 2.2866 0
M  V30 29297 H 2673.38 -0.480335 0.468529 0
M  V30 29298 H 2675.92 -0.944047 1.81406 0
M  V30 29299 H 2674.07 -3.42731 1.80594 0
M  V30 29300 H 2674.49 -3.37025 4.01889 0
M  V30 29301 H 2675.96 -4.68283 2.92259 0
M  V30 29302 H 2676.44 -4.19589 1.29774 0
M  V30 29303 H 2677.05 -3.28563 2.70049 0
M  V30 29304 N 2675.36 -1.22666 -0.989486 0
M  V30 29305 C 2676.6 -1.06491 -1.74468 0
M  V30 29306 C 2676.96 0.392704 -1.87941 0
M  V30 29307 O 2678.17 0.6754 -2.60176 0
M  V30 29308 C 2676.44 -1.76036 -3.1104 0
M  V30 29309 S 2678 -1.75317 -4.02255 0
M  V30 29310 H 2674.81 -0.381289 -0.600116 0
M  V30 29311 H 2677.42 -1.5566 -1.1828 0
M  V30 29312 H 2676.12 -2.81246 -2.98879 0
M  V30 29313 H 2675.65 -1.27111 -3.72299 0
M  V30 29314 H 2677.67 -0.805294 -4.89622 0
M  V30 29315 N 2676.84 1.18685 -1.0369 0
M  V30 29316 C 2677.8 2.20396 -0.629154 0
M  V30 29317 C 2678.8 1.57755 0.311467 0
M  V30 29318 O 2679.99 1.73928 0.0973801 0
M  V30 29319 C 2677.12 3.4081 0.0781632 0
M  V30 29320 H 2678.32 2.57984 -1.52919 0
M  V30 29321 H 2675.87 1.32503 -0.829011 0
M  V30 29322 H 2676.61 3.0875 0.992178 0
M  V30 29323 H 2676.39 3.87515 -0.597845 0
M  V30 29324 H 2677.88 4.1613 0.350082 0
M  V30 29325 N 2678.32 0.815849 1.34839 0
M  V30 29326 C 2679.56 0.40057 1.98499 0
M  V30 29327 C 2679.89 -1.0346 1.64701 0
M  V30 29328 O 2679.15 -1.73411 0.907037 0
M  V30 29329 C 2679.45 0.541603 3.53272 0
M  V30 29330 C 2679.11 1.94145 4.06963 0
M  V30 29331 C 2677.77 2.3244 4.21337 0
M  V30 29332 C 2680.13 2.85685 4.35928 0
M  V30 29333 C 2677.45 3.61625 4.62 0
M  V30 29334 C 2679.81 4.14326 4.78034 0
M  V30 29335 C 2678.47 4.52608 4.90614 0
M  V30 29336 H 2677.74 0.146579 0.726358 0
M  V30 29337 H 2680.39 1.03843 1.609 0
M  V30 29338 H 2678.69 -0.179672 3.91388 0
M  V30 29339 H 2680.39 0.20092 4.00496 0
M  V30 29340 H 2676.98 1.63395 3.96232 0
M  V30 29341 H 2681.16 2.57344 4.24367 0
M  V30 29342 H 2676.42 3.91121 4.6993 0
M  V30 29343 H 2680.59 4.85351 4.99407 0
M  V30 29344 H 2678.22 5.52761 5.21881 0
M  V30 29345 N 2679.8 -1.46924 0.570174 0
M  V30 29346 C 2680.73 -2.32963 -0.158233 0
M  V30 29347 C 2681.71 -1.44584 -0.896067 0
M  V30 29348 O 2682.89 -1.73422 -0.873991 0
M  V30 29349 C 2680.02 -3.26621 -1.1805 0
M  V30 29350 C 2678.98 -4.24343 -0.558305 0
M  V30 29351 C 2678.3 -5.07418 -1.68614 0
M  V30 29352 C 2679.6 -5.19936 0.496386 0
M  V30 29353 H 2681.3 -2.94114 0.560098 0
M  V30 29354 H 2678.84 -1.41431 0.2708 0
M  V30 29355 H 2680.79 -3.85661 -1.69834 0
M  V30 29356 H 2679.52 -2.63552 -1.92894 0
M  V30 29357 H 2678.18 -3.66548 -0.0616513 0
M  V30 29358 H 2677.83 -4.40743 -2.42394 0
M  V30 29359 H 2677.53 -5.73589 -1.27554 0
M  V30 29360 H 2679.05 -5.69319 -2.20699 0
M  V30 29361 H 2680.46 -5.73264 0.064106 0
M  V30 29362 H 2678.86 -5.9438 0.826595 0
M  V30 29363 H 2679.93 -4.64627 1.38743 0
M  V30 29364 N 2681.27 -0.307291 -1.54575 0
M  V30 29365 C 2682.55 0.353571 -1.92378 0
M  V30 29366 C 2682.93 1.7119 -1.2352 0
M  V30 29367 O 2682.28 2.25433 -0.373141 0
M  V30 29368 C 2682.49 0.461978 -3.45929 0
M  V30 29369 C 2683.84 0.729902 -4.18279 0
M  V30 29370 O 2684.86 0.545543 -3.51998 0
M  V30 29371 O 2683.72 1.08445 -5.35632 0
M  V30 29372 H 2680.81 0.198798 -0.802751 0
M  V30 29373 H 2683.36 -0.355812 -1.65928 0
M  V30 29374 H 2682.13 -0.49266 -3.88186 0
M  V30 29375 H 2681.75 1.21958 -3.78434 0
M  V30 29376 N 2682.75 1.57561 -0.0351337 0
M  V30 29377 C 2683.98 1.9676 0.655767 0
M  V30 29378 C 2684.4 0.911837 1.64521 0
M  V30 29379 O 2683.76 -0.126642 1.80857 0
M  V30 29380 C 2683.81 3.35049 1.3332 0
M  V30 29381 O 2682.91 3.31839 2.4486 0
M  V30 29382 H 2682.25 0.641391 0.171795 0
M  V30 29383 H 2684.78 2.04361 -0.0987728 0
M  V30 29384 H 2684.79 3.71416 1.6886 0
M  V30 29385 H 2683.47 4.11432 0.607961 0
M  V30 29386 H 2682.04 3.07197 2.11387 0
M  V30 29387 N 2684.23 -0.238084 1.55791 0
M  V30 29388 C 2685.48 -0.96297 1.77683 0
M  V30 29389 C 2685.8 -1.85517 0.600706 0
M  V30 29390 O 2685.07 -1.92117 -0.383148 0
M  V30 29391 H 2683.65 -0.358556 0.655322 0
M  V30 29392 H 2686.31 -0.253911 1.93239 0
M  V30 29393 H 2685.41 -1.57952 2.6918 0
M  V30 29394 N 2685.71 -1.4932 -0.504115 0
M  V30 29395 C 2686.96 -1.58336 -1.25595 0
M  V30 29396 C 2687.28 -0.270572 -1.93114 0
M  V30 29397 O 2686.55 0.709859 -1.82586 0
M  V30 29398 H 2685.13 -0.583378 -0.466561 0
M  V30 29399 H 2687.79 -1.85929 -0.584514 0
M  V30 29400 H 2686.88 -2.37781 -2.02154 0
M  V30 29401 N 2687.19 0.754933 -1.38342 0
M  V30 29402 C 2688.41 1.54416 -1.37707 0
M  V30 29403 C 2688.83 1.8877 0.0334911 0
M  V30 29404 O 2688.19 1.5268 0.999747 0
M  V30 29405 C 2688.24 2.84412 -2.23141 0
M  V30 29406 O 2687.96 2.51525 -3.58702 0
M  V30 29407 C 2689.46 3.78558 -2.30671 0
M  V30 29408 H 2686.68 0.477843 -0.47107 0
M  V30 29409 H 2689.22 0.934414 -1.81904 0
M  V30 29410 H 2687.38 3.41768 -1.82409 0
M  V30 29411 H 2687.79 3.34889 -4.0367 0
M  V30 29412 H 2689.27 4.66726 -2.94738 0
M  V30 29413 H 2689.74 4.18895 -1.31998 0
M  V30 29414 H 2690.35 3.27127 -2.71787 0
M  V30 29415 N 2688.66 1.23189 0.982967 0
M  V30 29416 C 2689.61 1.01079 2.07489 0
M  V30 29417 C 2690.58 -0.0708758 1.65949 0
M  V30 29418 O 2691.77 0.0807157 1.90629 0
M  V30 29419 C 2688.91 0.60532 3.3975 0
M  V30 29420 C 2688.02 1.75883 3.94575 0
M  V30 29421 C 2687.15 1.30039 5.15037 0
M  V30 29422 C 2686.19 2.42481 5.62022 0
M  V30 29423 N 2685.33 1.97614 6.73716 0
M  V30 29424 H 2690.17 1.94544 2.25736 0
M  V30 29425 H 2687.71 0.969199 1.10657 0
M  V30 29426 H 2689.66 0.351352 4.15718 0
M  V30 29427 H 2688.29 -0.292325 3.21474 0
M  V30 29428 H 2687.35 2.12687 3.15386 0
M  V30 29429 H 2688.66 2.60426 4.25417 0
M  V30 29430 H 2687.81 1.0044 5.98328 0
M  V30 29431 H 2686.55 0.425301 4.85842 0
M  V30 29432 H 2685.56 2.72858 4.77314 0
M  V30 29433 H 2686.78 3.30523 5.93238 0
M  V30 29434 H 2684.73 1.12481 6.46285 0
M  V30 29435 H 2684.64 2.75717 7.03929 0
M  V30 29436 H 2685.91 1.71111 7.60487 0
M  V30 29437 N 2690.14 -1.18133 1.04318 0
M  V30 29438 C 2691.38 -1.89867 0.756971 0
M  V30 29439 C 2691.75 -1.78684 -0.702577 0
M  V30 29440 O 2692.95 -2.4515 -1.1025 0
M  V30 29441 C 2691.22 -3.36174 1.21333 0
M  V30 29442 S 2692.78 -4.25974 1.05315 0
M  V30 29443 H 2689.59 -0.6556 0.275155 0
M  V30 29444 H 2692.2 -1.42729 1.33599 0
M  V30 29445 H 2690.9 -3.41844 2.27092 0
M  V30 29446 H 2690.43 -3.88352 0.628206 0
M  V30 29447 H 2692.45 -4.96192 -0.0279221 0
M  V30 29448 N 2691.62 -0.822988 -1.34405 0
M  V30 29449 C 2692.53 -0.246879 -2.33297 0
M  V30 29450 C 2693.55 0.618768 -1.62626 0
M  V30 29451 O 2694.72 0.526651 -1.94392 0
M  V30 29452 C 2691.79 0.581671 -3.41786 0
M  V30 29453 C 2690.85 -0.306384 -4.28205 0
M  V30 29454 C 2690.08 0.482716 -5.31513 0
M  V30 29455 O 2690.3 1.71598 -5.43976 0
M  V30 29456 O 2689.24 -0.134989 -6.01749 0
M  V30 29457 H 2693.06 -1.06539 -2.844 0
M  V30 29458 H 2690.65 -0.585132 -1.37465 0
M  V30 29459 H 2692.53 1.05305 -4.0803 0
M  V30 29460 H 2691.21 1.37751 -2.92927 0
M  V30 29461 H 2690.11 -0.825263 -3.64884 0
M  V30 29462 H 2691.45 -1.06658 -4.80505 0
M  V30 29463 N 2693.1 1.4662 -0.577957 0
M  V30 29464 C 2694.35 2.01612 -0.0594635 0
M  V30 29465 C 2694.66 1.45558 1.3066 0
M  V30 29466 O 2695.87 1.92341 1.91618 0
M  V30 29467 C 2694.32 3.59857 -0.0557298 0
M  V30 29468 C 2693.93 4.24906 -1.41982 0
M  V30 29469 C 2695.67 4.22524 0.409069 0
M  V30 29470 C 2693.58 5.75216 -1.37407 0
M  V30 29471 H 2692.51 0.753774 -0.0184602 0
M  V30 29472 H 2695.16 1.68402 -0.728898 0
M  V30 29473 H 2693.54 3.90122 0.679774 0
M  V30 29474 H 2694.72 4.06256 -2.17468 0
M  V30 29475 H 2693.03 3.74313 -1.82425 0
M  V30 29476 H 2695.63 5.327 0.462017 0
M  V30 29477 H 2695.97 3.9113 1.42559 0
M  V30 29478 H 2696.51 3.96867 -0.272222 0
M  V30 29479 H 2693.25 6.11262 -2.36724 0
M  V30 29480 H 2692.77 5.96143 -0.661344 0
M  V30 29481 H 2694.44 6.37838 -1.08495 0
M  V30 29482 N 2694.58 0.315484 1.5441 0
M  V30 29483 C 2695.51 -0.546999 2.27003 0
M  V30 29484 C 2696.49 -1.12603 1.27494 0
M  V30 29485 O 2697.67 -1.15267 1.56292 0
M  V30 29486 C 2694.8 -1.71196 3.02174 0
M  V30 29487 C 2693.76 -1.26261 4.08952 0
M  V30 29488 C 2693.08 -2.51388 4.7192 0
M  V30 29489 C 2694.38 -0.383327 5.20891 0
M  V30 29490 H 2696.08 0.0585043 2.99343 0
M  V30 29491 H 2693.62 0.0295781 1.4397 0
M  V30 29492 H 2695.58 -2.32155 3.51685 0
M  V30 29493 H 2694.3 -2.34393 2.27437 0
M  V30 29494 H 2692.96 -0.675999 3.60313 0
M  V30 29495 H 2692.61 -3.12931 3.93806 0
M  V30 29496 H 2692.31 -2.22017 5.44043 0
M  V30 29497 H 2693.83 -3.13124 5.242 0
M  V30 29498 H 2695.24 -0.898983 5.66208 0
M  V30 29499 H 2693.64 -0.182752 5.99822 0
M  V30 29500 H 2694.71 0.587906 4.81323 0
M  V30 29501 N 2696.05 -1.5754 0.0434891 0
M  V30 29502 C 2696.99 -2.08009 -0.96255 0
M  V30 29503 C 2698 -1.00636 -1.2797 0
M  V30 29504 O 2699.19 -1.28221 -1.24183 0
M  V30 29505 C 2696.29 -2.50175 -2.28617 0
M  V30 29506 C 2695.46 -3.80795 -2.15207 0
M  V30 29507 C 2694.52 -4.09357 -3.30626 0
M  V30 29508 O 2693.55 -4.79394 -3.06872 0
M  V30 29509 N 2694.75 -3.60662 -4.54866 0
M  V30 29510 H 2697.51 -2.94943 -0.531839 0
M  V30 29511 H 2695.07 -1.61268 -0.142936 0
M  V30 29512 H 2697.07 -2.66364 -3.04684 0
M  V30 29513 H 2695.64 -1.6853 -2.6328 0
M  V30 29514 H 2694.86 -3.74263 -1.23778 0
M  V30 29515 H 2696.14 -4.66346 -2.03466 0
M  V30 29516 H 2695.54 -3.04028 -4.77057 0
M  V30 29517 H 2694.1 -3.82103 -5.28053 0
M  V30 29518 N 2697.53 0.229818 -1.55915 0
M  V30 29519 C 2698.46 1.28811 -1.94756 0
M  V30 29520 C 2699.44 1.49322 -0.814683 0
M  V30 29521 O 2700.63 1.61644 -1.07634 0
M  V30 29522 C 2697.76 2.63955 -2.2571 0
M  V30 29523 C 2696.71 2.58114 -3.4141 0
M  V30 29524 C 2696.04 3.97212 -3.57948 0
M  V30 29525 C 2697.34 2.13615 -4.76619 0
M  V30 29526 H 2699.03 0.965497 -2.83405 0
M  V30 29527 H 2696.58 0.463004 -1.36353 0
M  V30 29528 H 2698.53 3.38141 -2.51472 0
M  V30 29529 H 2697.26 2.97888 -1.33905 0
M  V30 29530 H 2695.91 1.86386 -3.15683 0
M  V30 29531 H 2695.56 4.28438 -2.63534 0
M  V30 29532 H 2695.26 3.94188 -4.35764 0
M  V30 29533 H 2696.79 4.73072 -3.8605 0
M  V30 29534 H 2698.2 2.7754 -5.01642 0
M  V30 29535 H 2696.6 2.21667 -5.57659 0
M  V30 29536 H 2697.67 1.0882 -4.72532 0
M  V30 29537 N 2699.01 1.49585 0.49619 0
M  V30 29538 C 2699.94 1.69524 1.60573 0
M  V30 29539 C 2700.92 0.543962 1.61168 0
M  V30 29540 O 2702.11 0.780341 1.77832 0
M  V30 29541 C 2699.24 1.76622 2.99035 0
M  V30 29542 C 2698.19 2.91587 3.13307 0
M  V30 29543 C 2697.52 2.83802 4.53167 0
M  V30 29544 C 2698.82 4.32457 2.92879 0
M  V30 29545 H 2700.51 2.62419 1.44141 0
M  V30 29546 H 2698.06 1.26283 0.692001 0
M  V30 29547 H 2700.01 1.89156 3.76561 0
M  V30 29548 H 2698.73 0.803296 3.16567 0
M  V30 29549 H 2697.39 2.78662 2.38208 0
M  V30 29550 H 2697.04 1.85408 4.67582 0
M  V30 29551 H 2696.74 3.60967 4.63656 0
M  V30 29552 H 2698.26 2.98351 5.32747 0
M  V30 29553 H 2699.68 4.46039 3.6017 0
M  V30 29554 H 2698.08 5.10881 3.14835 0
M  V30 29555 H 2699.15 4.46568 1.88958 0
M  V30 29556 N 2700.49 -0.747586 1.3874 0
M  V30 29557 C 2701.44 -1.86144 1.36452 0
M  V30 29558 C 2702.41 -1.64554 0.226127 0
M  V30 29559 O 2703.59 -1.86136 0.419293 0
M  V30 29560 C 2700.73 -3.23514 1.20136 0
M  V30 29561 C 2699.84 -3.56895 2.43413 0
M  V30 29562 C 2698.98 -4.83601 2.19781 0
M  V30 29563 C 2698.02 -5.09786 3.38799 0
M  V30 29564 N 2697.15 -6.2769 3.14564 0
M  V30 29565 H 2701.99 -1.87434 2.31673 0
M  V30 29566 H 2699.53 -0.916043 1.15096 0
M  V30 29567 H 2701.49 -4.02793 1.0869 0
M  V30 29568 H 2700.12 -3.21535 0.285509 0
M  V30 29569 H 2699.17 -2.72414 2.65509 0
M  V30 29570 H 2700.48 -3.7217 3.321 0
M  V30 29571 H 2699.64 -5.70835 2.05506 0
M  V30 29572 H 2698.38 -4.70475 1.28469 0
M  V30 29573 H 2697.38 -4.21019 3.53586 0
M  V30 29574 H 2698.61 -5.24805 4.30995 0
M  V30 29575 H 2696.55 -6.15876 2.25904 0
M  V30 29576 H 2696.47 -6.43493 3.96802 0
M  V30 29577 H 2697.74 -7.17796 3.03956 0
M  V30 29578 N 2701.97 -1.23709 -0.97642 0
M  V30 29579 C 2703.38 -1.0659 -1.53282 0
M  V30 29580 C 2703.73 0.365492 -1.92766 0
M  V30 29581 O 2702.85 1.25274 -1.76452 0
M  V30 29582 C 2703.45 -1.92869 -2.78544 0
M  V30 29583 C 2702.01 -1.8 -3.30571 0
M  V30 29584 C 2701.15 -1.88331 -2.03535 0
M  V30 29585 H 2704.11 -1.37313 -0.795668 0
M  V30 29586 H 2704.13 -1.45583 -3.51548 0
M  V30 29587 H 2703.64 -2.97041 -2.49776 0
M  V30 29588 H 2701.74 -0.786266 -3.6421 0
M  V30 29589 H 2701.85 -2.63607 -4.0006 0
M  V30 29590 H 2700.22 -1.31958 -2.17851 0
M  V30 29591 H 2701 -2.94067 -1.77143 0
M  V30 29592 N 2703.44 1.17579 -1.04943 0
M  V30 29593 C 2704.38 2.20372 -0.592557 0
M  V30 29594 C 2705.36 1.58156 0.377534 0
M  V30 29595 O 2706.54 1.8626 0.289747 0
M  V30 29596 C 2703.67 3.38438 0.133156 0
M  V30 29597 C 2702.71 4.1909 -0.791557 0
M  V30 29598 S 2703.55 4.84568 -2.27934 0
M  V30 29599 C 2704.7 6.06026 -1.56472 0
M  V30 29600 H 2704.93 2.58785 -1.46347 0
M  V30 29601 H 2702.47 1.28153 -0.861171 0
M  V30 29602 H 2704.43 4.06857 0.545675 0
M  V30 29603 H 2703.09 2.98418 0.980071 0
M  V30 29604 H 2702.28 5.03474 -0.230127 0
M  V30 29605 H 2701.88 3.56096 -1.14333 0
M  V30 29606 H 2704.17 6.71985 -0.862657 0
M  V30 29607 H 2705.12 6.66692 -2.38595 0
M  V30 29608 H 2705.52 5.54588 -1.05322 0
M  V30 29609 N 2704.92 0.830104 1.33967 0
M  V30 29610 C 2706.16 0.427556 1.99878 0
M  V30 29611 C 2706.53 -0.992517 1.64357 0
M  V30 29612 O 2707.73 -1.49833 2.23167 0
M  V30 29613 C 2706 0.631877 3.5177 0
M  V30 29614 S 2707.56 0.323245 4.37608 0
M  V30 29615 H 2704.38 0.161214 0.692482 0
M  V30 29616 H 2706.98 1.07748 1.63127 0
M  V30 29617 H 2705.68 1.66495 3.7511 0
M  V30 29618 H 2705.21 -0.0325245 3.93387 0
M  V30 29619 H 2707.23 -0.860346 4.88684 0
M  V30 29620 N 2706.4 -1.46311 0.585725 0
M  V30 29621 C 2707.31 -2.34131 -0.148195 0
M  V30 29622 C 2708.33 -1.49934 -0.882946 0
M  V30 29623 O 2709.5 -1.82795 -0.845452 0
M  V30 29624 C 2706.57 -3.27174 -1.14708 0
M  V30 29625 C 2705.63 -4.27273 -0.416671 0
M  V30 29626 C 2704.86 -5.1587 -1.36797 0
M  V30 29627 O 2705.09 -5.07458 -2.60466 0
M  V30 29628 O 2704.02 -5.95478 -0.876914 0
M  V30 29629 H 2707.85 -2.98247 0.572934 0
M  V30 29630 H 2705.43 -1.45336 0.346107 0
M  V30 29631 H 2707.31 -3.84567 -1.72296 0
M  V30 29632 H 2705.99 -2.65651 -1.84962 0
M  V30 29633 H 2704.89 -3.73559 0.201127 0
M  V30 29634 H 2706.23 -4.9159 0.244959 0
M  V30 29635 N 2707.88 -0.323668 -1.54241 0
M  V30 29636 C 2709.13 0.279288 -2.00868 0
M  V30 29637 C 2709.46 1.51778 -1.21149 0
M  V30 29638 O 2708.73 1.92268 -0.293813 0
M  V30 29639 C 2709.02 0.613324 -3.54838 0
M  V30 29640 C 2708.87 -0.635882 -4.45283 0
M  V30 29641 C 2710.19 1.43092 -4.16188 0
M  V30 29642 H 2707.31 0.100036 -0.730179 0
M  V30 29643 H 2709.95 -0.440267 -1.84829 0
M  V30 29644 H 2708.1 1.22635 -3.68637 0
M  V30 29645 H 2709.77 -1.27414 -4.43355 0
M  V30 29646 H 2708.01 -1.26474 -4.14954 0
M  V30 29647 H 2708.69 -0.357694 -5.5084 0
M  V30 29648 H 2711.16 0.912743 -4.05966 0
M  V30 29649 H 2710.04 1.63341 -5.24033 0
M  V30 29650 H 2710.3 2.42708 -3.6952 0
M  V30 29651 N 2709.36 1.57515 -0.0518432 0
M  V30 29652 C 2710.3 2.1157 0.922315 0
M  V30 29653 C 2711.27 1.02323 1.3084 0
M  V30 29654 O 2712.46 1.29875 1.39775 0
M  V30 29655 C 2709.6 2.66574 2.19163 0
M  V30 29656 C 2708.71 3.89909 1.85996 0
M  V30 29657 C 2707.85 4.33226 3.0739 0
M  V30 29658 C 2706.89 5.4926 2.70148 0
M  V30 29659 N 2706.02 5.87627 3.84238 0
M  V30 29660 H 2710.86 2.94514 0.454454 0
M  V30 29661 H 2708.4 1.45554 0.212692 0
M  V30 29662 H 2710.36 2.96564 2.93437 0
M  V30 29663 H 2708.99 1.86426 2.63524 0
M  V30 29664 H 2708.04 3.66507 1.01867 0
M  V30 29665 H 2709.35 4.74242 1.54583 0
M  V30 29666 H 2708.51 4.64772 3.89964 0
M  V30 29667 H 2707.25 3.47706 3.41982 0
M  V30 29668 H 2706.25 5.17385 1.85992 0
M  V30 29669 H 2707.48 6.36496 2.36748 0
M  V30 29670 H 2705.42 5.0506 4.18629 0
M  V30 29671 H 2705.34 6.66652 3.56526 0
M  V30 29672 H 2706.61 6.23788 4.67449 0
M  V30 29673 N 2710.84 -0.221546 1.56035 0
M  V30 29674 C 2712.06 -0.962832 1.83132 0
M  V30 29675 C 2712.48 -1.77945 0.630966 0
M  V30 29676 O 2711.84 -1.78052 -0.400488 0
M  V30 29677 C 2711.89 -1.88039 3.08745 0
M  V30 29678 O 2711.61 -1.09679 4.24149 0
M  V30 29679 C 2713.11 -2.73557 3.48829 0
M  V30 29680 H 2710.33 -0.282183 0.60878 0
M  V30 29681 H 2712.87 -0.236774 2.03125 0
M  V30 29682 H 2711.03 -2.5604 2.90727 0
M  V30 29683 H 2711.44 -1.71965 4.95508 0
M  V30 29684 H 2712.92 -3.33642 4.39758 0
M  V30 29685 H 2713.39 -3.45951 2.70582 0
M  V30 29686 H 2714 -2.1097 3.69286 0
M  V30 29687 N 2712.31 -1.49846 -0.48825 0
M  V30 29688 C 2713.59 -1.50483 -1.24957 0
M  V30 29689 C 2713.97 -0.239735 -2.09734 0
M  V30 29690 O 2713.32 0.777486 -2.14866 0
M  V30 29691 C 2713.53 -2.79098 -2.09535 0
M  V30 29692 C 2714.88 -3.29091 -2.68299 0
M  V30 29693 O 2715.9 -2.80303 -2.19793 0
M  V30 29694 O 2714.76 -4.14093 -3.56636 0
M  V30 29695 H 2711.85 -0.602855 -0.566123 0
M  V30 29696 H 2714.4 -1.62121 -0.501475 0
M  V30 29697 H 2713.17 -3.62658 -1.46951 0
M  V30 29698 H 2712.79 -2.70382 -2.91512 0
M  V30 29699 N 2713.79 0.740218 -1.39135 0
M  V30 29700 C 2715.04 1.49967 -1.36074 0
M  V30 29701 C 2715.37 1.94448 0.0449903 0
M  V30 29702 O 2714.62 1.66723 1.02479 0
M  V30 29703 C 2714.92 2.75674 -2.27462 0
M  V30 29704 C 2714.59 2.50087 -3.7519 0
M  V30 29705 C 2713.25 2.42818 -4.15443 0
M  V30 29706 C 2715.6 2.28078 -4.68647 0
M  V30 29707 C 2712.93 2.11574 -5.47223 0
M  V30 29708 C 2715.28 1.98352 -6.00699 0
M  V30 29709 C 2713.94 1.89548 -6.40022 0
M  V30 29710 H 2713.21 0.548768 -0.49793 0
M  V30 29711 H 2715.86 0.85004 -1.716 0
M  V30 29712 H 2714.17 3.45353 -1.85036 0
M  V30 29713 H 2715.86 3.33682 -2.22389 0
M  V30 29714 H 2712.45 2.56621 -3.43284 0
M  V30 29715 H 2716.64 2.32665 -4.38384 0
M  V30 29716 H 2711.89 2.03277 -5.76618 0
M  V30 29717 H 2716.07 1.80329 -6.72647 0
M  V30 29718 H 2713.69 1.65104 -7.42054 0
M  V30 29719 N 2715.27 1.24225 0.969846 0
M  V30 29720 C 2716.51 1.09253 1.72752 0
M  V30 29721 C 2716.87 -0.362754 1.88542 0
M  V30 29722 O 2718.07 -0.633923 2.61218 0
M  V30 29723 C 2716.35 1.80962 3.082 0
M  V30 29724 S 2717.9 1.81695 3.99415 0
M  V30 29725 H 2714.72 0.390788 0.593975 0
M  V30 29726 H 2717.32 1.57522 1.15789 0
M  V30 29727 H 2716.03 2.85966 2.94367 0
M  V30 29728 H 2715.56 1.33018 3.70229 0
M  V30 29729 H 2717.57 0.883086 4.88279 0
M  V30 29730 N 2716.75 -1.1702 1.05565 0
M  V30 29731 C 2717.68 -2.20713 0.617927 0
M  V30 29732 C 2718.69 -1.59619 -0.320275 0
M  V30 29733 O 2719.88 -1.78146 -0.112417 0
M  V30 29734 C 2716.98 -3.38704 -0.115274 0
M  V30 29735 C 2716.15 -4.29364 0.834569 0
M  V30 29736 C 2715.21 -5.26009 0.141948 0
M  V30 29737 O 2714.24 -5.63868 0.77725 0
M  V30 29738 N 2715.44 -5.69608 -1.11924 0
M  V30 29739 H 2718.21 -2.58889 1.50986 0
M  V30 29740 H 2715.77 -1.31957 0.938031 0
M  V30 29741 H 2717.76 -4.00393 -0.588848 0
M  V30 29742 H 2716.33 -2.99094 -0.908915 0
M  V30 29743 H 2715.55 -3.6505 1.48768 0
M  V30 29744 H 2716.84 -4.86824 1.47918 0
M  V30 29745 H 2716.24 -5.4093 -1.65565 0
M  V30 29746 H 2714.79 -6.33424 -1.53681 0
M  V30 29747 N 2718.23 -0.837197 -1.33524 0
M  V30 29748 C 2719.45 -0.44553 -2.02046 0
M  V30 29749 C 2719.87 0.952759 -1.62997 0
M  V30 29750 O 2719.23 1.61891 -0.842475 0
M  V30 29751 C 2719.28 -0.554639 -3.5722 0
M  V30 29752 O 2719 -1.89783 -3.94859 0
M  V30 29753 C 2720.5 -0.159711 -4.43012 0
M  V30 29754 H 2717.72 -0.177059 -0.647218 0
M  V30 29755 H 2720.26 -1.12931 -1.7049 0
M  V30 29756 H 2718.42 0.08121 -3.87315 0
M  V30 29757 H 2718.83 -1.88217 -4.89566 0
M  V30 29758 H 2720.31 -0.287107 -5.51253 0
M  V30 29759 H 2720.78 0.898213 -4.29917 0
M  V30 29760 H 2721.39 -0.769929 -4.18273 0
M  V30 29761 N 2719.7 1.45999 -0.593476 0
M  V30 29762 C 2720.95 2.02629 -0.0833111 0
M  V30 29763 C 2721.28 1.46268 1.27747 0
M  V30 29764 O 2720.56 0.631898 1.83949 0
M  V30 29765 C 2720.84 3.60088 -0.0291389 0
M  V30 29766 C 2720.69 4.26811 -1.41958 0
M  V30 29767 C 2722.01 4.35032 0.665979 0
M  V30 29768 H 2719.13 0.736316 -0.031749 0
M  V30 29769 H 2721.77 1.74018 -0.762742 0
M  V30 29770 H 2719.92 3.84595 0.549464 0
M  V30 29771 H 2721.6 4.13535 -2.04418 0
M  V30 29772 H 2719.84 3.85757 -1.98429 0
M  V30 29773 H 2720.51 5.35637 -1.33405 0
M  V30 29774 H 2722.99 4.15735 0.174328 0
M  V30 29775 H 2721.86 5.44759 0.672945 0
M  V30 29776 H 2722.12 4.06872 1.72938 0
M  V30 29777 N 2721.18 0.331843 1.54067 0
M  V30 29778 C 2722.11 -0.522892 2.2757 0
M  V30 29779 C 2723.09 -1.11244 1.28681 0
M  V30 29780 O 2724.28 -1.13603 1.57506 0
M  V30 29781 C 2721.41 -1.67981 3.03973 0
M  V30 29782 C 2720.36 -1.21917 4.10269 0
M  V30 29783 C 2719.69 -2.46369 4.74559 0
M  V30 29784 C 2720.99 -0.328058 5.21269 0
M  V30 29785 H 2722.68 0.0902503 2.99264 0
M  V30 29786 H 2720.23 0.0448463 1.4393 0
M  V30 29787 H 2722.18 -2.28412 3.54127 0
M  V30 29788 H 2720.91 -2.31967 2.2991 0
M  V30 29789 H 2719.56 -0.637745 3.6101 0
M  V30 29790 H 2719.21 -3.08736 3.97103 0
M  V30 29791 H 2718.91 -2.16234 5.46367 0
M  V30 29792 H 2720.44 -3.07546 5.27492 0
M  V30 29793 H 2721.85 -0.838878 5.67129 0
M  V30 29794 H 2720.25 -0.119122 5.99982 0
M  V30 29795 H 2721.32 0.638924 4.80672 0
M  V30 29796 N 2722.66 -1.57485 0.0601958 0
M  V30 29797 C 2724.07 -1.80578 -0.474185 0
M  V30 29798 C 2724.42 -0.973177 -1.70363 0
M  V30 29799 O 2723.55 -0.192344 -2.15543 0
M  V30 29800 C 2724.14 -3.27518 -0.867044 0
M  V30 29801 C 2722.7 -3.51497 -1.34635 0
M  V30 29802 C 2721.85 -2.75378 -0.325892 0
M  V30 29803 H 2724.8 -1.56102 0.286001 0
M  V30 29804 H 2724.82 -3.38932 -1.72932 0
M  V30 29805 H 2724.33 -3.8809 0.0279609 0
M  V30 29806 H 2722.43 -2.96216 -2.26025 0
M  V30 29807 H 2722.55 -4.60203 -1.33228 0
M  V30 29808 H 2720.91 -2.41787 -0.800706 0
M  V30 29809 H 2721.69 -3.38682 0.561185 0
M  V30 29810 N 2724.14 0.213268 -1.5615 0
M  V30 29811 C 2725.37 0.951724 -1.83373 0
M  V30 29812 C 2725.78 1.78112 -0.638189 0
M  V30 29813 O 2725.12 1.79234 0.402578 0
M  V30 29814 C 2725.18 1.91186 -3.04447 0
M  V30 29815 C 2724.85 1.26619 -4.39109 0
M  V30 29816 C 2725.84 0.651996 -5.15796 0
M  V30 29817 C 2723.53 1.27548 -4.85836 0
M  V30 29818 C 2725.52 0.055702 -6.37376 0
M  V30 29819 C 2723.21 0.675344 -6.07357 0
M  V30 29820 C 2724.21 0.0665167 -6.82968 0
M  V30 29821 O 2723.89 -0.52426 -8.02189 0
M  V30 29822 H 2723.63 0.2841 -0.613403 0
M  V30 29823 H 2726.18 0.231076 -2.04096 0
M  V30 29824 H 2724.41 2.67173 -2.79563 0
M  V30 29825 H 2726.1 2.51657 -3.18471 0
M  V30 29826 H 2726.87 0.637088 -4.80797 0
M  V30 29827 H 2722.74 1.73876 -4.26952 0
M  V30 29828 H 2726.29 -0.420126 -6.96334 0
M  V30 29829 H 2722.19 0.687693 -6.41826 0
M  V30 29830 H 2722.95 -0.419387 -8.17425 0
M  V30 29831 N 2725.62 1.50103 0.480296 0
M  V30 29832 C 2726.55 1.71218 1.58766 0
M  V30 29833 C 2727.53 0.561025 1.60582 0
M  V30 29834 O 2728.71 0.799158 1.76995 0
M  V30 29835 C 2725.84 1.79783 2.97145 0
M  V30 29836 C 2724.8 2.94894 3.10196 0
M  V30 29837 C 2724.12 2.88592 4.50132 0
M  V30 29838 C 2725.42 4.35539 2.88276 0
M  V30 29839 H 2727.12 2.63933 1.4135 0
M  V30 29840 H 2724.66 1.2701 0.678569 0
M  V30 29841 H 2726.62 1.9314 3.74533 0
M  V30 29842 H 2725.34 0.836827 3.15697 0
M  V30 29843 H 2724 2.81173 2.35239 0
M  V30 29844 H 2723.65 1.90357 4.65589 0
M  V30 29845 H 2723.35 3.65864 4.59801 0
M  V30 29846 H 2724.87 3.03985 5.29552 0
M  V30 29847 H 2726.28 4.49834 3.55419 0
M  V30 29848 H 2724.68 5.14191 3.09399 0
M  V30 29849 H 2725.75 4.48547 1.84211 0
M  V30 29850 N 2727.09 -0.732829 1.39526 0
M  V30 29851 C 2728.34 -1.4879 1.36178 0
M  V30 29852 C 2728.66 -1.95562 -0.0387851 0
M  V30 29853 O 2729.86 -2.708 -0.194851 0
M  V30 29854 C 2728.32 -2.68866 2.39246 0
M  V30 29855 C 2727.93 -2.29035 3.85028 0
M  V30 29856 C 2729.67 -3.46679 2.44978 0
M  V30 29857 C 2727.58 -3.45847 4.79733 0
M  V30 29858 H 2726.51 -0.558748 0.506277 0
M  V30 29859 H 2729.16 -0.799197 1.65182 0
M  V30 29860 H 2727.54 -3.39822 2.03316 0
M  V30 29861 H 2728.71 -1.65612 4.30011 0
M  V30 29862 H 2727.03 -1.64309 3.82611 0
M  V30 29863 H 2729.63 -4.33569 3.12925 0
M  V30 29864 H 2729.97 -3.89295 1.47497 0
M  V30 29865 H 2730.5 -2.82754 2.79813 0
M  V30 29866 H 2727.24 -3.08279 5.78484 0
M  V30 29867 H 2726.76 -4.08244 4.39428 0
M  V30 29868 H 2728.44 -4.12152 4.98738 0
M  V30 29869 N 2728.57 -1.24737 -0.963244 0
M  V30 29870 C 2729.52 -1.01062 -2.04378 0
M  V30 29871 C 2730.51 0.0495071 -1.60824 0
M  V30 29872 O 2731.7 -0.164772 -1.76231 0
M  V30 29873 C 2728.83 -0.622126 -3.37616 0
M  V30 29874 C 2727.91 -1.71856 -3.87719 0
M  V30 29875 N 2728.3 -2.95214 -4.10709 0
M  V30 29876 C 2726.6 -1.5971 -4.16424 0
M  V30 29877 C 2727.3 -3.66323 -4.51865 0
M  V30 29878 N 2726.28 -2.93905 -4.57297 0
M  V30 29879 H 2730.08 -1.94725 -2.20135 0
M  V30 29880 H 2727.6 -1.14929 -1.14739 0
M  V30 29881 H 2729.59 -0.433733 -4.14638 0
M  V30 29882 H 2728.25 0.30727 -3.23243 0
M  V30 29883 H 2729.26 -3.31348 -3.98032 0
M  V30 29884 H 2725.94 -0.736052 -4.1096 0
M  V30 29885 H 2727.33 -4.72164 -4.78028 0
M  V30 29886 N 2730.05 1.16459 -1.06184 0
M  V30 29887 C 2731.33 1.82973 -0.691396 0
M  V30 29888 C 2731.71 1.94212 0.827343 0
M  V30 29889 O 2731.06 1.48437 1.7372 0
M  V30 29890 C 2731.27 3.20036 -1.39205 0
M  V30 29891 C 2732.61 3.95823 -1.53654 0
M  V30 29892 O 2733.64 3.2955 -1.35187 0
M  V30 29893 O 2732.5 5.14614 -1.83941 0
M  V30 29894 H 2729.59 0.789994 -0.244618 0
M  V30 29895 H 2732.14 1.23671 -1.16205 0
M  V30 29896 H 2730.91 3.06884 -2.42772 0
M  V30 29897 H 2730.53 3.87013 -0.911403 0
M  V30 29898 N 2731.53 0.844266 1.33079 0
M  V30 29899 C 2732.78 0.438868 1.96868 0
M  V30 29900 C 2733.09 -1.00844 1.67601 0
M  V30 29901 O 2734.3 -1.51877 2.25046 0
M  V30 29902 C 2732.75 0.733832 3.52339 0
M  V30 29903 C 2732.36 2.19617 3.90477 0
M  V30 29904 C 2734.1 0.395649 4.22652 0
M  V30 29905 C 2732.01 2.4349 5.38949 0
M  V30 29906 H 2730.94 0.160377 0.736746 0
M  V30 29907 H 2733.59 1.0336 1.51621 0
M  V30 29908 H 2731.97 0.0686586 3.9594 0
M  V30 29909 H 2733.15 2.90227 3.57917 0
M  V30 29910 H 2731.46 2.49786 3.33161 0
M  V30 29911 H 2734.06 0.55157 5.31848 0
M  V30 29912 H 2734.4 -0.661849 4.11005 0
M  V30 29913 H 2734.94 1.01628 3.84599 0
M  V30 29914 H 2731.68 3.47825 5.55606 0
M  V30 29915 H 2731.2 1.77447 5.72951 0
M  V30 29916 H 2732.87 2.26915 6.05903 0
M  V30 29917 N 2733.01 -1.45682 0.60121 0
M  V30 29918 C 2733.94 -2.33246 -0.108783 0
M  V30 29919 C 2734.92 -1.46453 -0.865197 0
M  V30 29920 O 2736.1 -1.75236 -0.837009 0
M  V30 29921 C 2733.23 -3.29052 -1.11095 0
M  V30 29922 C 2732.19 -4.25432 -0.46817 0
M  V30 29923 C 2731.51 -5.10881 -1.57813 0
M  V30 29924 C 2732.81 -5.18766 0.606561 0
M  V30 29925 H 2734.51 -2.9286 0.622358 0
M  V30 29926 H 2732.05 -1.40825 0.300739 0
M  V30 29927 H 2734.01 -3.89177 -1.61615 0
M  V30 29928 H 2732.73 -2.67584 -1.8726 0
M  V30 29929 H 2731.39 -3.66596 0.0161129 0
M  V30 29930 H 2731.04 -4.45785 -2.32991 0
M  V30 29931 H 2730.74 -5.76165 -1.15358 0
M  V30 29932 H 2732.26 -5.73873 -2.08573 0
M  V30 29933 H 2733.67 -5.72999 0.185689 0
M  V30 29934 H 2732.07 -5.92493 0.952486 0
M  V30 29935 H 2733.14 -4.6158 1.48567 0
M  V30 29936 N 2734.48 -0.340009 -1.53889 0
M  V30 29937 C 2735.41 0.510816 -2.27844 0
M  V30 29938 C 2736.4 1.1056 -1.29269 0
M  V30 29939 O 2737.58 1.12766 -1.58106 0
M  V30 29940 C 2734.71 1.66367 -3.0486 0
M  V30 29941 C 2733.66 1.19739 -4.10909 0
M  V30 29942 C 2732.99 2.43848 -4.75859 0
M  V30 29943 C 2734.29 0.30041 -5.21435 0
M  V30 29944 H 2735.98 -0.10612 -2.99212 0
M  V30 29945 H 2733.53 -0.0524786 -1.43904 0
M  V30 29946 H 2735.48 2.26531 -3.55333 0
M  V30 29947 H 2734.21 2.30745 -2.31137 0
M  V30 29948 H 2732.87 0.618591 -3.61343 0
M  V30 29949 H 2732.51 3.06626 -3.98735 0
M  V30 29950 H 2732.21 2.13333 -5.47506 0
M  V30 29951 H 2733.74 3.04744 -5.29115 0
M  V30 29952 H 2735.15 0.80879 -5.67566 0
M  V30 29953 H 2733.55 0.0873021 -6.00036 0
M  V30 29954 H 2734.62 -0.664406 -4.80327 0
M  V30 29955 N 2735.96 1.57451 -0.0685468 0
M  V30 29956 C 2736.9 2.09514 0.929336 0
M  V30 29957 C 2737.91 1.02659 1.26353 0
M  V30 29958 O 2739.1 1.30181 1.22128 0
M  V30 29959 C 2736.2 2.53781 2.24608 0
M  V30 29960 C 2735.37 3.8417 2.09122 0
M  V30 29961 C 2734.43 4.14565 3.24072 0
M  V30 29962 O 2733.46 4.84215 2.99206 0
M  V30 29963 N 2734.66 3.67853 4.49071 0
M  V30 29964 H 2737.42 2.95752 0.484849 0
M  V30 29965 H 2734.98 1.61475 0.117262 0
M  V30 29966 H 2736.98 2.71178 3.00408 0
M  V30 29967 H 2735.55 1.72697 2.60566 0
M  V30 29968 H 2734.77 3.76185 1.17808 0
M  V30 29969 H 2736.05 4.69524 1.96021 0
M  V30 29970 H 2735.45 3.11579 4.7216 0
M  V30 29971 H 2734.01 3.90456 5.21908 0
M  V30 29972 N 2737.44 -0.204984 1.56261 0
M  V30 29973 C 2738.72 -0.952203 1.70858 0
M  V30 29974 C 2739.1 -2.01774 0.620536 0
M  V30 29975 O 2738.45 -2.25485 -0.369995 0
M  V30 29976 C 2738.66 -1.54761 3.1281 0
M  V30 29977 C 2740 -2.03354 3.72736 0
M  V30 29978 O 2741.03 -1.64623 3.15876 0
M  V30 29979 O 2739.89 -2.74592 4.72506 0
M  V30 29980 H 2736.98 -0.445883 0.696504 0
M  V30 29981 H 2739.53 -0.19546 1.68571 0
M  V30 29982 H 2738.3 -0.779064 3.83466 0
M  V30 29983 H 2737.92 -2.36946 3.19284 0
M  V30 29984 N 2738.92 -1.50356 -0.472329 0
M  V30 29985 C 2740.15 -1.65037 -1.24781 0
M  V30 29986 C 2740.56 -0.333209 -1.85836 0
M  V30 29987 O 2739.92 0.68469 -1.69169 0
M  V30 29988 C 2739.97 -2.74058 -2.35742 0
M  V30 29989 O 2739.69 -4.00668 -1.7719 0
M  V30 29990 C 2741.19 -2.99702 -3.2664 0
M  V30 29991 H 2738.41 -0.554791 -0.377423 0
M  V30 29992 H 2740.96 -1.96571 -0.563928 0
M  V30 29993 H 2739.11 -2.45223 -2.99908 0
M  V30 29994 H 2739.53 -4.60949 -2.50252 0
M  V30 29995 H 2741 -3.79651 -4.00711 0
M  V30 29996 H 2741.48 -2.10724 -3.85346 0
M  V30 29997 H 2742.08 -3.30064 -2.68212 0
M  V30 29998 N 2740.4 0.725419 -1.39912 0
M  V30 29999 C 2741.35 1.86084 -1.39555 0
M  V30 30000 C 2742.34 1.67114 -0.277363 0
M  V30 30001 O 2743.55 1.74338 -0.447896 0
M  V30 30002 H 2739.92 0.612703 -0.436003 0
M  V30 30003 H 2741.89 1.83501 -2.35308 0
M  V30 30004 C 2740.64 3.23858 -1.26535 0
M  V30 30005 H 2739.96 3.39056 -2.11851 0
M  V30 30006 H 2741.4 4.03468 -1.30343 0
M  V30 30007 C 2739.86 3.3689 0.0253576 0
M  V30 30008 O 2740.39 3.89259 0.99198 0
M  V30 30009 N 2738.6 2.90456 0.0916017 0
M  V30 30010 H 2738.15 2.48027 -0.695719 0
M  V30 30011 H 2738.1 2.99555 0.954692 0
M  V30 30012 N 2741.88 1.25246 0.956615 0
M  V30 30013 C 2742.79 1.07193 2.08679 0
M  V30 30014 C 2743.8 0.00962132 1.73997 0
M  V30 30015 O 2744.98 0.210139 2.00301 0
M  V30 30016 C 2742.04 0.690586 3.39753 0
M  V30 30017 C 2741.1 1.83061 3.88313 0
M  V30 30018 C 2740.34 1.46737 5.13132 0
M  V30 30019 O 2740.56 0.362129 5.69249 0
M  V30 30020 O 2739.49 2.29687 5.56352 0
M  V30 30021 H 2743.32 2.01969 2.26809 0
M  V30 30022 H 2740.9 1.04167 1.07097 0
M  V30 30023 H 2742.79 0.489945 4.18542 0
M  V30 30024 H 2741.46 -0.227924 3.22897 0
M  V30 30025 H 2740.37 2.0861 3.10536 0
M  V30 30026 H 2741.7 2.7283 4.09664 0
M  V30 30027 N 2743.35 -1.15894 1.068 0
M  V30 30028 C 2744.58 -1.90981 0.808773 0
M  V30 30029 C 2745 -1.7718 -0.631568 0
M  V30 30030 O 2744.36 -1.10064 -1.44068 0
M  V30 30031 C 2744.41 -3.39524 1.21474 0
M  V30 30032 O 2743.51 -4.10855 0.356634 0
M  V30 30033 H 2742.85 -0.594806 0.29513 0
M  V30 30034 H 2745.38 -1.46801 1.42515 0
M  V30 30035 H 2745.39 -3.90306 1.18851 0
M  V30 30036 H 2744.07 -3.48888 2.26385 0
M  V30 30037 H 2742.65 -3.70237 0.444874 0
M  V30 30038 N 2744.83 -0.851312 -1.32629 0
M  V30 30039 C 2746.08 -0.462998 -1.9806 0
M  V30 30040 C 2746.43 0.969919 -1.66164 0
M  V30 30041 O 2745.73 1.67083 -0.937752 0
M  V30 30042 C 2745.92 -0.635077 -3.51712 0
M  V30 30043 C 2745.75 -2.08317 -3.9854 0
M  V30 30044 C 2744.52 -2.72098 -4.25782 0
M  V30 30045 C 2746.72 -3.05337 -4.13852 0
M  V30 30046 N 2744.7 -4.07853 -4.58835 0
M  V30 30047 C 2746.07 -4.26071 -4.50404 0
M  V30 30048 C 2748.12 -3.01577 -3.96177 0
M  V30 30049 C 2746.83 -5.43537 -4.71126 0
M  V30 30050 C 2748.85 -4.18285 -4.18081 0
M  V30 30051 C 2748.22 -5.37776 -4.54946 0
M  V30 30052 H 2744.31 -0.218095 -0.750972 0
M  V30 30053 H 2746.9 -1.102 -1.60512 0
M  V30 30054 H 2745.07 -0.025798 -3.88391 0
M  V30 30055 H 2746.8 -0.216986 -4.04118 0
M  V30 30056 H 2743.56 -2.23157 -4.1773 0
M  V30 30057 H 2743.98 -4.7787 -4.79551 0
M  V30 30058 H 2748.62 -2.10317 -3.66779 0
M  V30 30059 H 2746.34 -6.35332 -4.99379 0
M  V30 30060 H 2749.93 -4.16807 -4.0591 0
M  V30 30061 H 2748.81 -6.26581 -4.71556 0
M  V30 30062 N 2746.31 1.45361 -0.608928 0
M  V30 30063 C 2747.73 1.57253 -0.272686 0
M  V30 30064 C 2747.93 1.60007 1.22474 0
M  V30 30065 O 2746.98 1.5311 2.00783 0
M  V30 30066 C 2748.29 2.85464 -0.945041 0
M  V30 30067 C 2749.84 2.9914 -0.921086 0
M  V30 30068 C 2750.32 4.30123 -1.57348 0
M  V30 30069 N 2751.81 4.36885 -1.53903 0
M  V30 30070 C 2752.54 5.36906 -2.01295 0
M  V30 30071 N 2752.04 6.43456 -2.5678 0
M  V30 30072 N 2753.83 5.28272 -1.92055 0
M  V30 30073 H 2745.98 1.41817 -1.58119 0
M  V30 30074 H 2748.25 0.678134 -0.662449 0
M  V30 30075 H 2747.95 2.89334 -1.99946 0
M  V30 30076 H 2747.83 3.74271 -0.469145 0
M  V30 30077 H 2750.21 2.94836 0.124794 0
M  V30 30078 H 2750.29 2.1174 -1.43526 0
M  V30 30079 H 2749.94 4.35186 -2.61869 0
M  V30 30080 H 2749.87 5.16342 -1.03431 0
M  V30 30081 H 2752.36 3.60493 -1.13372 0
M  V30 30082 H 2752.67 7.16027 -2.90732 0
M  V30 30083 H 2751.02 6.44204 -2.60819 0
M  V30 30084 H 2754.21 4.43938 -1.48447 0
M  V30 30085 H 2754.38 6.06073 -2.29303 0
M  V30 30086 N 2747.79 0.348166 1.53706 0
M  V30 30087 C 2748.74 -0.521768 2.26672 0
M  V30 30088 C 2749.73 -1.09809 1.2899 0
M  V30 30089 O 2750.94 -1.04329 1.46681 0
M  V30 30090 H 2747.31 -0.186955 0.72839 0
M  V30 30091 H 2749.28 0.115615 2.98176 0
M  V30 30092 C 2748.03 -1.65855 3.05594 0
M  V30 30093 H 2747.35 -1.22436 3.80591 0
M  V30 30094 H 2748.79 -2.24232 3.59855 0
M  V30 30095 C 2747.25 -2.5907 2.15371 0
M  V30 30096 O 2747.78 -3.61438 1.75287 0
M  V30 30097 N 2745.99 -2.2786 1.80356 0
M  V30 30098 H 2745.54 -1.44653 2.13151 0
M  V30 30099 H 2745.49 -2.90486 1.20273 0
M  V30 30100 N 2749.27 -1.57412 0.0768958 0
M  V30 30101 C 2750.2 -2.16038 -0.885988 0
M  V30 30102 C 2751.18 -1.08878 -1.30689 0
M  V30 30103 O 2752.36 -1.36936 -1.37703 0
M  V30 30104 C 2749.49 -2.72611 -2.15175 0
M  V30 30105 C 2748.45 -3.84983 -1.87008 0
M  V30 30106 C 2747.77 -4.28181 -3.20258 0
M  V30 30107 C 2749.07 -5.08996 -1.17134 0
M  V30 30108 H 2750.77 -2.96748 -0.397589 0
M  V30 30109 H 2748.31 -1.42744 -0.189798 0
M  V30 30110 H 2750.26 -3.12271 -2.82957 0
M  V30 30111 H 2748.99 -1.8913 -2.66266 0
M  V30 30112 H 2747.65 -3.45835 -1.2163 0
M  V30 30113 H 2747.3 -3.41614 -3.69201 0
M  V30 30114 H 2747 -5.03933 -3.02201 0
M  V30 30115 H 2748.52 -4.7046 -3.89229 0
M  V30 30116 H 2749.93 -5.4594 -1.74993 0
M  V30 30117 H 2748.33 -5.90059 -1.09318 0
M  V30 30118 H 2749.4 -4.84664 -0.15121 0
M  V30 30119 N 2750.74 0.196695 -1.56368 0
M  V30 30120 C 2751.67 1.24651 -1.97445 0
M  V30 30121 C 2752.66 1.4756 -0.846173 0
M  V30 30122 O 2753.84 1.59324 -1.11038 0
M  V30 30123 C 2750.97 2.59108 -2.31258 0
M  V30 30124 C 2749.92 2.50815 -3.46808 0
M  V30 30125 C 2749.25 3.8953 -3.66293 0
M  V30 30126 C 2750.55 2.03457 -4.81043 0
M  V30 30127 H 2752.24 0.905166 -2.85389 0
M  V30 30128 H 2749.79 0.433977 -1.37305 0
M  V30 30129 H 2751.74 3.32731 -2.58588 0
M  V30 30130 H 2750.47 2.9498 -1.40194 0
M  V30 30131 H 2749.13 1.79648 -3.19566 0
M  V30 30132 H 2748.77 4.22752 -2.72562 0
M  V30 30133 H 2748.47 3.84856 -4.44027 0
M  V30 30134 H 2750 4.64777 -3.95998 0
M  V30 30135 H 2751.41 2.66837 -5.07416 0
M  V30 30136 H 2749.81 2.09788 -5.62236 0
M  V30 30137 H 2750.88 0.987726 -4.74734 0
M  V30 30138 N 2752.22 1.50604 0.464349 0
M  V30 30139 C 2753.45 1.65973 1.24369 0
M  V30 30140 C 2753.87 0.345486 1.849 0
M  V30 30141 O 2753.23 -0.691427 1.67598 0
M  V30 30142 C 2753.28 2.75784 2.32326 0
M  V30 30143 O 2752.38 2.37506 3.37142 0
M  V30 30144 H 2751.72 0.554289 0.365595 0
M  V30 30145 H 2754.25 1.97019 0.551796 0
M  V30 30146 H 2754.26 2.99064 2.77534 0
M  V30 30147 H 2752.94 3.71165 1.87642 0
M  V30 30148 H 2751.52 2.24699 2.97598 0
M  V30 30149 N 2753.7 -0.717989 1.40295 0
M  V30 30150 C 2754.93 -1.50711 1.41753 0
M  V30 30151 C 2755.34 -1.88793 0.0165698 0
M  V30 30152 O 2754.7 -1.55277 -0.958915 0
M  V30 30153 C 2754.75 -2.78396 2.30603 0
M  V30 30154 O 2754.47 -2.41926 3.65244 0
M  V30 30155 C 2755.97 -3.72309 2.40627 0
M  V30 30156 H 2753.19 -0.465186 0.483573 0
M  V30 30157 H 2755.74 -0.885857 1.84317 0
M  V30 30158 H 2753.89 -3.36812 1.91407 0
M  V30 30159 H 2754.31 -3.24068 4.12408 0
M  V30 30160 H 2755.78 -4.58748 3.07009 0
M  V30 30161 H 2756.26 -4.15248 1.43058 0
M  V30 30162 H 2756.86 -3.19806 2.80365 0
M  V30 30163 N 2755.18 -1.25752 -0.94996 0
M  V30 30164 C 2756.13 -1.03224 -2.03295 0
M  V30 30165 C 2757.11 0.0324468 -1.60867 0
M  V30 30166 O 2758.3 -0.183454 -1.76047 0
M  V30 30167 C 2755.43 -0.6579 -3.36937 0
M  V30 30168 C 2754.52 -1.75959 -3.85875 0
M  V30 30169 N 2754.91 -2.99554 -4.07555 0
M  V30 30170 C 2753.21 -1.64118 -4.14706 0
M  V30 30171 C 2753.91 -3.71095 -4.47954 0
M  V30 30172 N 2752.89 -2.98739 -4.54154 0
M  V30 30173 H 2756.69 -1.97049 -2.18057 0
M  V30 30174 H 2754.2 -1.1614 -1.13514 0
M  V30 30175 H 2756.2 -0.477686 -4.14154 0
M  V30 30176 H 2754.86 0.272968 -3.23551 0
M  V30 30177 H 2755.87 -3.35551 -3.94495 0
M  V30 30178 H 2752.55 -0.779599 -4.10157 0
M  V30 30179 H 2753.94 -4.77207 -4.72993 0
M  V30 30180 N 2756.66 1.15326 -1.07413 0
M  V30 30181 C 2757.9 1.86403 -0.798863 0
M  V30 30182 C 2758.24 1.82151 0.673401 0
M  V30 30183 O 2757.51 1.24508 1.49426 0
M  V30 30184 C 2757.79 3.35484 -1.30852 0
M  V30 30185 C 2757.65 3.48365 -2.84538 0
M  V30 30186 C 2758.97 4.30257 -0.925562 0
M  V30 30187 H 2756.08 0.676829 -0.291671 0
M  V30 30188 H 2758.73 1.35489 -1.33202 0
M  V30 30189 H 2756.88 3.78975 -0.854983 0
M  V30 30190 H 2758.55 3.13733 -3.38185 0
M  V30 30191 H 2756.79 2.89904 -3.22704 0
M  V30 30192 H 2757.46 4.53112 -3.15267 0
M  V30 30193 H 2759.94 3.94729 -1.31637 0
M  V30 30194 H 2758.81 5.33051 -1.30949 0
M  V30 30195 H 2759.08 4.41779 0.168447 0
M  V30 30196 N 2758.13 0.858334 1.32176 0
M  V30 30197 C 2759.07 0.262875 2.27688 0
M  V30 30198 C 2760.08 -0.567487 1.52589 0
M  V30 30199 O 2761.27 -0.391377 1.74157 0
M  V30 30200 C 2758.37 -0.646879 3.32669 0
M  V30 30201 C 2757.54 0.148449 4.37148 0
M  V30 30202 C 2756.6 -0.687637 5.21688 0
M  V30 30203 O 2755.63 -0.119834 5.69074 0
M  V30 30204 N 2756.83 -2.00172 5.44896 0
M  V30 30205 H 2759.59 1.08361 2.79424 0
M  V30 30206 H 2757.15 0.718673 1.45075 0
M  V30 30207 H 2759.15 -1.21164 3.86137 0
M  V30 30208 H 2757.72 -1.36829 2.81063 0
M  V30 30209 H 2756.94 0.894639 3.83914 0
M  V30 30210 H 2758.22 0.694603 5.04036 0
M  V30 30211 H 2757.62 -2.48632 5.08133 0
M  V30 30212 H 2756.18 -2.51452 6.01344 0
M  V30 30213 N 2759.61 -1.45036 0.616628 0
M  V30 30214 C 2760.86 -2.01772 0.115138 0
M  V30 30215 C 2761.18 -1.48641 -1.26218 0
M  V30 30216 O 2760.45 -0.684231 -1.83562 0
M  V30 30217 H 2759.03 -0.745951 0.0395738 0
M  V30 30218 H 2761.69 -1.77722 0.800064 0
M  V30 30219 H 2760.79 -3.12017 0.0717822 0
M  V30 30220 N 2761.09 -0.356312 -1.53519 0
M  V30 30221 C 2762.34 0.236268 -2.01117 0
M  V30 30222 C 2762.67 1.49529 -1.24384 0
M  V30 30223 O 2761.92 1.93015 -0.323091 0
M  V30 30224 C 2762.22 0.583307 -3.52608 0
M  V30 30225 C 2761.89 -0.580309 -4.4715 0
M  V30 30226 C 2760.55 -0.899611 -4.72716 0
M  V30 30227 C 2762.9 -1.36033 -5.03135 0
M  V30 30228 C 2760.23 -2.00108 -5.5152 0
M  V30 30229 C 2762.58 -2.45214 -5.8314 0
M  V30 30230 C 2761.24 -2.7769 -6.06996 0
M  V30 30231 H 2760.51 0.0864566 -0.735939 0
M  V30 30232 H 2763.16 -0.486863 -1.85208 0
M  V30 30233 H 2761.47 1.38733 -3.66416 0
M  V30 30234 H 2763.16 1.0539 -3.86903 0
M  V30 30235 H 2759.75 -0.321397 -4.27393 0
M  V30 30236 H 2763.94 -1.1269 -4.83337 0
M  V30 30237 H 2759.19 -2.25678 -5.68225 0
M  V30 30238 H 2763.37 -3.06078 -6.25531 0
M  V30 30239 H 2760.99 -3.63163 -6.67845 0
M  V30 30240 N 2762.57 1.57369 -0.0852427 0
M  V30 30241 C 2763.82 1.93993 0.580771 0
M  V30 30242 C 2764.14 0.966281 1.68799 0
M  V30 30243 O 2763.4 -0.0158305 1.95694 0
M  V30 30244 C 2763.7 3.37192 1.18476 0
M  V30 30245 C 2763.36 4.50446 0.202321 0
M  V30 30246 C 2762.03 4.81152 -0.0679164 0
M  V30 30247 C 2764.38 5.19085 -0.469041 0
M  V30 30248 C 2761.71 5.77829 -1.01638 0
M  V30 30249 C 2764.06 6.16779 -1.40591 0
M  V30 30250 C 2762.72 6.45896 -1.68448 0
M  V30 30251 H 2761.99 0.709871 0.212519 0
M  V30 30252 H 2764.64 1.90839 -0.158981 0
M  V30 30253 H 2762.94 3.36876 2.00054 0
M  V30 30254 H 2764.64 3.62825 1.7076 0
M  V30 30255 H 2761.23 4.26506 0.423133 0
M  V30 30256 H 2765.41 4.95546 -0.273394 0
M  V30 30257 H 2760.67 5.98708 -1.23931 0
M  V30 30258 H 2764.84 6.69064 -1.932 0
M  V30 30259 H 2762.47 7.20619 -2.421 0
M  V30 30260 N 2764.05 -0.188399 1.5647 0
M  V30 30261 C 2765.27 -0.92377 1.85133 0
M  V30 30262 C 2765.69 -1.76566 0.668568 0
M  V30 30263 O 2765.05 -1.78861 -0.36263 0
M  V30 30264 C 2765.1 -1.81448 3.12664 0
M  V30 30265 O 2764.82 -1.00657 4.2638 0
M  V30 30266 C 2766.32 -2.66096 3.54553 0
M  V30 30267 H 2763.54 -0.269207 0.614629 0
M  V30 30268 H 2766.08 -0.193635 2.03581 0
M  V30 30269 H 2764.24 -2.49816 2.96093 0
M  V30 30270 H 2764.65 -1.61416 4.99044 0
M  V30 30271 H 2766.13 -3.24239 4.46736 0
M  V30 30272 H 2766.6 -3.40134 2.77859 0
M  V30 30273 H 2767.21 -2.03089 3.73678 0
M  V30 30274 N 2765.53 -1.50848 -0.456355 0
M  V30 30275 C 2766.75 -1.6663 -1.23488 0
M  V30 30276 C 2767.18 -0.355287 -1.84714 0
M  V30 30277 O 2766.53 0.682529 -1.67962 0
M  V30 30278 C 2766.58 -2.77013 -2.3086 0
M  V30 30279 O 2765.69 -2.39291 -3.35877 0
M  V30 30280 H 2765.03 -0.55622 -0.36265 0
M  V30 30281 H 2767.56 -1.97309 -0.54134 0
M  V30 30282 H 2767.57 -3.00531 -2.75944 0
M  V30 30283 H 2766.24 -3.72155 -1.85671 0
M  V30 30284 H 2764.82 -2.26274 -2.96402 0
M  V30 30285 N 2767 0.710538 -1.40674 0
M  V30 30286 C 2768.24 1.48286 -1.40679 0
M  V30 30287 C 2768.61 1.91998 -0.00975305 0
M  V30 30288 O 2769.81 2.68552 0.115334 0
M  V30 30289 C 2768.08 2.67258 -2.37293 0
M  V30 30290 S 2769.64 3.56599 -2.557 0
M  V30 30291 H 2766.46 0.506918 -0.498553 0
M  V30 30292 H 2769.06 0.830441 -1.76986 0
M  V30 30293 H 2767.76 2.33324 -3.37621 0
M  V30 30294 H 2767.29 3.37406 -2.02288 0
M  V30 30295 H 2769.31 4.61885 -1.81319 0
M  V30 30296 N 2768.48 1.26254 0.943277 0
M  V30 30297 C 2769.41 1.10125 2.059 0
M  V30 30298 C 2770.39 0.00703542 1.70099 0
M  V30 30299 O 2771.58 0.178675 1.93376 0
M  V30 30300 C 2768.71 0.731235 3.39515 0
M  V30 30301 C 2767.66 1.77695 3.89369 0
M  V30 30302 C 2766.99 1.26131 5.1961 0
M  V30 30303 C 2768.29 3.17806 4.14484 0
M  V30 30304 H 2769.98 2.03454 2.19651 0
M  V30 30305 H 2767.53 0.979594 1.05546 0
M  V30 30306 H 2769.48 0.605288 4.1703 0
M  V30 30307 H 2768.2 -0.237763 3.25733 0
M  V30 30308 H 2766.86 1.89153 3.14033 0
M  V30 30309 H 2766.51 0.282216 5.02208 0
M  V30 30310 H 2766.21 1.96032 5.53936 0
M  V30 30311 H 2767.74 1.14799 5.99711 0
M  V30 30312 H 2769.15 3.09437 4.8262 0
M  V30 30313 H 2767.55 3.85279 4.60087 0
M  V30 30314 H 2768.62 3.64019 3.2034 0
M  V30 30315 N 2769.96 -1.14755 1.08024 0
M  V30 30316 C 2771.38 -1.37688 0.807096 0
M  V30 30317 C 2771.58 -1.92807 -0.58547 0
M  V30 30318 O 2770.63 -2.13824 -1.34297 0
M  V30 30319 C 2771.94 -2.34158 1.88655 0
M  V30 30320 C 2773.49 -2.47805 1.91211 0
M  V30 30321 C 2773.97 -3.47571 2.98259 0
M  V30 30322 N 2775.46 -3.55111 2.97406 0
M  V30 30323 C 2776.19 -4.32145 3.76879 0
M  V30 30324 N 2775.69 -5.12455 4.66221 0
M  V30 30325 N 2777.48 -4.27302 3.65198 0
M  V30 30326 H 2769.63 -0.773225 1.97826 0
M  V30 30327 H 2771.9 -0.402593 0.858267 0
M  V30 30328 H 2771.6 -2.00786 2.88752 0
M  V30 30329 H 2771.48 -3.34017 1.7525 0
M  V30 30330 H 2773.86 -2.80471 0.917613 0
M  V30 30331 H 2773.94 -1.47921 2.08694 0
M  V30 30332 H 2773.59 -3.15639 3.97912 0
M  V30 30333 H 2773.52 -4.47226 2.78022 0
M  V30 30334 H 2776.01 -2.97797 2.32649 0
M  V30 30335 H 2776.32 -5.68499 5.23478 0
M  V30 30336 H 2774.67 -5.11737 4.70266 0
M  V30 30337 H 2777.86 -3.63631 2.94772 0
M  V30 30338 H 2778.03 -4.87088 4.27375 0
M  V30 30339 N 2771.44 -0.865331 -1.31719 0
M  V30 30340 C 2772.39 -0.289345 -2.26157 0
M  V30 30341 C 2773.37 0.57095 -1.50429 0
M  V30 30342 O 2774.56 0.418586 -1.71979 0
M  V30 30343 C 2771.69 0.512177 -3.39458 0
M  V30 30344 C 2770.78 -0.361102 -4.2256 0
M  V30 30345 N 2771.17 -1.4524 -4.84499 0
M  V30 30346 C 2769.47 -0.152719 -4.45738 0
M  V30 30347 C 2770.17 -1.99053 -5.46583 0
M  V30 30348 N 2769.14 -1.28818 -5.28116 0
M  V30 30349 H 2772.95 -1.12348 -2.71579 0
M  V30 30350 H 2770.46 -0.712591 -1.45931 0
M  V30 30351 H 2772.46 0.941308 -4.06134 0
M  V30 30352 H 2771.12 1.34398 -2.95579 0
M  V30 30353 H 2772.13 -1.83532 -4.84289 0
M  V30 30354 H 2768.81 0.643511 -4.12511 0
M  V30 30355 H 2770.2 -2.90588 -6.05812 0
M  V30 30356 N 2772.92 1.44707 -0.624311 0
M  V30 30357 C 2774.16 2.02107 -0.126086 0
M  V30 30358 C 2774.49 1.4905 1.24957 0
M  V30 30359 O 2773.75 0.662038 1.84162 0
M  V30 30360 C 2774.04 3.57358 -0.0546981 0
M  V30 30361 C 2773.71 4.2964 -1.36823 0
M  V30 30362 C 2772.37 4.49103 -1.728 0
M  V30 30363 C 2774.72 4.7082 -2.23557 0
M  V30 30364 C 2772.05 5.07006 -2.95231 0
M  V30 30365 C 2774.4 5.30079 -3.45253 0
M  V30 30366 C 2773.07 5.47762 -3.81461 0
M  V30 30367 H 2772.34 0.739562 -0.0461382 0
M  V30 30368 H 2774.99 1.7356 -0.809267 0
M  V30 30369 H 2773.29 3.8528 0.711824 0
M  V30 30370 H 2774.99 3.99494 0.347211 0
M  V30 30371 H 2771.58 4.14816 -1.07824 0
M  V30 30372 H 2775.76 4.55502 -1.97058 0
M  V30 30373 H 2771.02 5.18885 -3.2337 0
M  V30 30374 H 2775.19 5.60939 -4.12699 0
M  V30 30375 H 2772.82 5.92397 -4.76414 0
M  V30 30376 N 2774.39 0.364449 1.53328 0
M  V30 30377 C 2775.62 -0.228997 2.06132 0
M  V30 30378 C 2776.04 -1.41767 1.23628 0
M  V30 30379 O 2775.4 -1.79497 0.25507 0
M  V30 30380 C 2775.45 -0.601678 3.55545 0
M  V30 30381 O 2774.55 -1.69905 3.75774 0
M  V30 30382 H 2773.89 -0.0336097 0.663149 0
M  V30 30383 H 2776.42 0.524724 1.97757 0
M  V30 30384 H 2776.43 -0.873003 3.98551 0
M  V30 30385 H 2775.11 0.267494 4.15039 0
M  V30 30386 H 2773.69 -1.42337 3.44666 0
M  V30 30387 N 2775.87 -1.57322 0.0935872 0
M  V30 30388 C 2776.8 -2.10966 -0.895886 0
M  V30 30389 C 2777.82 -1.04656 -1.24703 0
M  V30 30390 O 2779.01 -1.32107 -1.20041 0
M  V30 30391 C 2776.11 -2.57322 -2.20542 0
M  V30 30392 C 2775.28 -3.87449 -2.02983 0
M  V30 30393 C 2774.34 -4.19668 -3.17435 0
M  V30 30394 O 2773.36 -4.88914 -2.91465 0
M  V30 30395 N 2774.57 -3.7495 -4.43162 0
M  V30 30396 H 2777.33 -2.96486 -0.437736 0
M  V30 30397 H 2774.89 -1.61641 -0.0915579 0
M  V30 30398 H 2776.88 -2.75923 -2.96055 0
M  V30 30399 H 2775.45 -1.7682 -2.57785 0
M  V30 30400 H 2774.67 -3.78011 -1.11809 0
M  V30 30401 H 2775.96 -4.72583 -1.88527 0
M  V30 30402 H 2775.36 -3.19051 -4.67143 0
M  V30 30403 H 2773.92 -3.98709 -5.1563 0
M  V30 30404 N 2777.35 0.180099 -1.56568 0
M  V30 30405 C 2778.58 0.913939 -1.8562 0
M  V30 30406 C 2778.99 1.76209 -0.677923 0
M  V30 30407 O 2778.35 1.79051 0.35314 0
M  V30 30408 C 2778.4 1.79787 -3.13622 0
M  V30 30409 O 2778.12 0.983945 -4.26908 0
M  V30 30410 C 2779.62 2.64212 -3.55959 0
M  V30 30411 H 2776.84 0.265944 -0.616048 0
M  V30 30412 H 2779.39 0.182836 -2.03681 0
M  V30 30413 H 2777.54 2.48242 -2.97413 0
M  V30 30414 H 2777.96 1.58767 -4.99893 0
M  V30 30415 H 2779.43 3.21865 -4.48449 0
M  V30 30416 H 2779.91 3.38656 -2.79659 0
M  V30 30417 H 2780.51 2.01104 -3.74749 0
M  V30 30418 N 2778.83 1.51088 0.448349 0
M  V30 30419 C 2780.05 1.67283 1.22602 0
M  V30 30420 C 2780.48 0.365078 1.84523 0
M  V30 30421 O 2779.84 -0.673612 1.68322 0
M  V30 30422 C 2779.88 2.78233 2.29388 0
M  V30 30423 O 2778.99 2.41069 3.34604 0
M  V30 30424 H 2778.33 0.558136 0.359695 0
M  V30 30425 H 2780.86 1.97593 0.530868 0
M  V30 30426 H 2780.87 3.0199 2.74346 0
M  V30 30427 H 2779.54 3.73134 1.83694 0
M  V30 30428 H 2778.12 2.27843 2.95198 0
M  V30 30429 N 2780.31 -0.703068 1.41049 0
M  V30 30430 C 2781.72 -1.01273 1.23353 0
M  V30 30431 C 2781.92 -2.01157 0.117575 0
M  V30 30432 O 2780.98 -2.47078 -0.520475 0
M  V30 30433 C 2782.29 -1.54449 2.58004 0
M  V30 30434 C 2783.84 -1.66371 2.65122 0
M  V30 30435 C 2784.31 -2.22951 4.00071 0
M  V30 30436 N 2785.81 -2.30321 4.01879 0
M  V30 30437 C 2786.54 -2.75111 5.03092 0
M  V30 30438 N 2786.04 -3.1956 6.14698 0
M  V30 30439 N 2787.83 -2.74607 4.90456 0
M  V30 30440 H 2779.98 -0.0412313 2.1236 0
M  V30 30441 H 2782.24 -0.0808734 0.944544 0
M  V30 30442 H 2781.95 -0.88515 3.40379 0
M  V30 30443 H 2781.82 -2.52781 2.79967 0
M  V30 30444 H 2784.21 -2.31419 1.8311 0
M  V30 30445 H 2784.29 -0.666046 2.46977 0
M  V30 30446 H 2783.94 -1.58521 4.82528 0
M  V30 30447 H 2783.87 -3.23455 4.15553 0
M  V30 30448 H 2786.36 -1.98943 3.21294 0
M  V30 30449 H 2786.67 -3.5234 6.87805 0
M  V30 30450 H 2785.01 -3.17488 6.18245 0
M  V30 30451 H 2788.21 -2.39225 4.02354 0
M  V30 30452 H 2788.38 -3.09196 5.69475 0
M  V30 30453 N 2781.78 -1.26752 -0.936569 0
M  V30 30454 C 2783.01 -1.15465 -1.72286 0
M  V30 30455 C 2783.43 0.285855 -1.85915 0
M  V30 30456 O 2782.79 1.20709 -1.35274 0
M  V30 30457 C 2782.84 -1.83364 -3.10499 0
M  V30 30458 O 2781.94 -1.12557 -3.96743 0
M  V30 30459 H 2781.29 -0.402076 -0.528423 0
M  V30 30460 H 2783.82 -1.67658 -1.17269 0
M  V30 30461 H 2783.83 -1.90372 -3.60864 0
M  V30 30462 H 2782.5 -2.88158 -2.99896 0
M  V30 30463 H 2781.08 -1.13557 -3.55189 0
M  V30 30464 N 2783.26 1.1418 -1.08631 0
M  V30 30465 C 2784.49 1.89129 -0.838923 0
M  V30 30466 C 2784.91 1.78704 0.609121 0
M  V30 30467 O 2784.26 1.14796 1.41874 0
M  V30 30468 C 2784.31 3.39023 -1.25483 0
M  V30 30469 O 2784.03 3.49163 -2.64607 0
M  V30 30470 C 2785.54 4.30961 -1.03864 0
M  V30 30471 H 2782.76 0.599001 -0.302388 0
M  V30 30472 H 2785.3 1.44589 -1.44617 0
M  V30 30473 H 2783.45 3.81176 -0.691638 0
M  V30 30474 H 2783.87 4.42284 -2.8193 0
M  V30 30475 H 2785.34 5.34497 -1.37901 0
M  V30 30476 H 2785.82 4.39193 0.024175 0
M  V30 30477 H 2786.43 3.94566 -1.58738 0
M  V30 30478 N 2784.74 0.872304 1.31258 0
M  V30 30479 C 2785.97 0.498942 2.00794 0
M  V30 30480 C 2786.38 -0.909209 1.65466 0
M  V30 30481 O 2785.74 -1.596 0.885101 0
M  V30 30482 C 2785.79 0.649155 3.55624 0
M  V30 30483 O 2785.51 2.00185 3.89689 0
M  V30 30484 C 2787.01 0.277112 4.42433 0
M  V30 30485 H 2784.23 0.194157 0.642296 0
M  V30 30486 H 2786.78 1.17411 1.67436 0
M  V30 30487 H 2784.93 0.0215083 3.87394 0
M  V30 30488 H 2785.35 2.01131 4.84403 0
M  V30 30489 H 2786.82 0.433161 5.50298 0
M  V30 30490 H 2787.3 -0.783913 4.32147 0
M  V30 30491 H 2787.9 0.880556 4.16084 0
M  V30 30492 N 2786.22 -1.44374 0.631976 0
M  V30 30493 C 2787.63 -1.8541 0.219069 0
M  V30 30494 C 2787.98 -1.52881 -1.22971 0
M  V30 30495 O 2787.11 -0.9673 -1.93578 0
M  V30 30496 C 2787.7 -3.36538 0.390809 0
M  V30 30497 C 2786.26 -3.76386 0.0324013 0
M  V30 30498 C 2785.41 -2.6822 0.703791 0
M  V30 30499 H 2788.36 -1.34828 0.837079 0
M  V30 30500 H 2788.38 -3.78697 -0.36999 0
M  V30 30501 H 2787.89 -3.60183 1.44534 0
M  V30 30502 H 2785.99 -3.58357 -1.02036 0
M  V30 30503 H 2786.1 -4.77047 0.443052 0
M  V30 30504 H 2784.47 -2.5432 0.139018 0
M  V30 30505 H 2785.25 -2.94697 1.76093 0
M  V30 30506 N 2787.7 -0.372575 -1.53133 0
M  V30 30507 C 2788.66 0.458349 -2.2457 0
M  V30 30508 C 2789.66 1.004 -1.25604 0
M  V30 30509 O 2790.85 0.888646 -1.49829 0
M  V30 30510 C 2787.98 1.64134 -2.98785 0
M  V30 30511 H 2789.17 -0.166852 -2.99435 0
M  V30 30512 H 2786.73 -0.124384 -1.55804 0
M  V30 30513 H 2787.46 2.30444 -2.2818 0
M  V30 30514 H 2787.25 1.25697 -3.71406 0
M  V30 30515 H 2788.74 2.23002 -3.53072 0
M  V30 30516 N 2789.17 1.5727 -0.101929 0
M  V30 30517 C 2790.12 2.15636 0.871996 0
M  V30 30518 C 2791.12 1.10101 1.2874 0
M  V30 30519 O 2792.32 1.28435 1.26113 0
M  V30 30520 H 2788.7 0.689891 0.299257 0
M  V30 30521 H 2790.67 2.9628 0.355085 0
M  V30 30522 C 2789.42 2.75684 2.11882 0
M  V30 30523 H 2788.74 3.56579 1.80807 0
M  V30 30524 H 2790.18 3.20082 2.78071 0
M  V30 30525 C 2788.64 1.71915 2.89736 0
M  V30 30526 O 2789.17 1.1622 3.8452 0
M  V30 30527 N 2787.38 1.42249 2.53404 0
M  V30 30528 H 2786.92 1.8773 1.76395 0
M  V30 30529 H 2786.88 0.730582 3.05794 0
M  V30 30530 N 2790.65 -0.171793 1.56661 0
M  V30 30531 C 2791.58 -1.21494 1.99403 0
M  V30 30532 C 2792.56 -1.46195 0.869541 0
M  V30 30533 O 2793.75 -1.57537 1.13559 0
M  V30 30534 C 2790.88 -2.55396 2.35351 0
M  V30 30535 C 2789.83 -2.45265 3.50755 0
M  V30 30536 C 2789.16 -3.83653 3.72444 0
M  V30 30537 C 2790.46 -1.95778 4.84219 0
M  V30 30538 H 2792.15 -0.859648 2.86793 0
M  V30 30539 H 2789.7 -0.412079 1.37978 0
M  V30 30540 H 2791.65 -3.28575 2.63849 0
M  V30 30541 H 2790.38 -2.92713 1.44869 0
M  V30 30542 H 2789.03 -1.74541 3.22383 0
M  V30 30543 H 2788.68 -4.18362 2.79253 0
M  V30 30544 H 2788.38 -3.77743 4.50093 0
M  V30 30545 H 2789.91 -4.58418 4.03342 0
M  V30 30546 H 2791.32 -2.58731 5.11597 0
M  V30 30547 H 2789.72 -2.00817 5.65502 0
M  V30 30548 H 2790.79 -0.912075 4.76245 0
M  V30 30549 N 2792.13 -1.51324 -0.44033 0
M  V30 30550 C 2793.41 -1.54382 -1.20106 0
M  V30 30551 C 2793.79 -0.306339 -2.08865 0
M  V30 30552 O 2793.14 0.708735 -2.17231 0
M  V30 30553 C 2793.35 -2.85623 -2.0055 0
M  V30 30554 C 2794.69 -3.3746 -2.57694 0
M  V30 30555 O 2795.72 -2.87153 -2.10764 0
M  V30 30556 O 2794.58 -4.2523 -3.43281 0
M  V30 30557 H 2791.67 -0.620561 -0.546657 0
M  V30 30558 H 2794.22 -1.63635 -0.449644 0
M  V30 30559 H 2792.99 -3.6715 -1.35339 0
M  V30 30560 H 2792.61 -2.79519 -2.82763 0
M  V30 30561 N 2793.61 0.695578 -1.41419 0
M  V30 30562 C 2794.83 1.4894 -1.44332 0
M  V30 30563 C 2795.26 1.88033 -0.0501909 0
M  V30 30564 O 2794.62 1.54628 0.946571 0
M  V30 30565 C 2794.66 2.72833 -2.35785 0
M  V30 30566 O 2793.77 3.70318 -1.81488 0
M  V30 30567 H 2793.11 0.448271 -0.489846 0
M  V30 30568 H 2795.64 0.854982 -1.8588 0
M  V30 30569 H 2795.65 3.21141 -2.51659 0
M  V30 30570 H 2794.32 2.43716 -3.37009 0
M  V30 30571 H 2792.9 3.29252 -1.75064 0
M  V30 30572 N 2795.09 1.27247 0.929833 0
M  V30 30573 C 2796 1.11596 2.06358 0
M  V30 30574 C 2797.01 0.0465266 1.73938 0
M  V30 30575 O 2798.19 0.252579 1.9981 0
M  V30 30576 C 2795.25 0.762497 3.38211 0
M  V30 30577 C 2794.32 1.91257 3.84343 0
M  V30 30578 C 2793.55 1.57588 5.09904 0
M  V30 30579 O 2793.77 0.482793 5.68353 0
M  V30 30580 O 2792.71 2.41436 5.51355 0
M  V30 30581 H 2796.53 2.06734 2.22474 0
M  V30 30582 H 2794.12 1.06415 1.04863 0
M  V30 30583 H 2796 0.578614 4.17409 0
M  V30 30584 H 2794.67 -0.159382 3.23307 0
M  V30 30585 H 2793.58 2.1515 3.06041 0
M  V30 30586 H 2794.91 2.81458 4.03785 0
M  V30 30587 N 2796.57 -1.13603 1.09235 0
M  V30 30588 C 2797.79 -1.89222 0.849101 0
M  V30 30589 C 2798.22 -1.7848 -0.593844 0
M  V30 30590 O 2797.57 -1.13095 -1.41701 0
M  V30 30591 C 2797.62 -3.36871 1.28648 0
M  V30 30592 O 2796.73 -4.10006 0.443702 0
M  V30 30593 H 2796.07 -0.588412 0.30768 0
M  V30 30594 H 2798.6 -1.43745 1.45597 0
M  V30 30595 H 2798.61 -3.87697 1.27103 0
M  V30 30596 H 2797.28 -3.44007 2.33735 0
M  V30 30597 H 2795.86 -3.6921 0.523306 0
M  V30 30598 N 2798.04 -0.879253 -1.30793 0
M  V30 30599 C 2798.95 -0.345606 -2.3204 0
M  V30 30600 C 2799.97 0.549236 -1.65104 0
M  V30 30601 O 2801.15 0.443729 -1.96451 0
M  V30 30602 C 2798.21 0.436185 -3.43945 0
M  V30 30603 C 2797.27 -0.487725 -4.2652 0
M  V30 30604 C 2796.5 0.256849 -5.33082 0
M  V30 30605 O 2796.73 1.48371 -5.50765 0
M  V30 30606 O 2795.66 -0.39009 -6.00635 0
M  V30 30607 H 2799.49 -1.18506 -2.79625 0
M  V30 30608 H 2797.07 -0.642909 -1.34859 0
M  V30 30609 H 2798.95 0.879047 -4.1213 0
M  V30 30610 H 2797.63 1.25203 -2.98506 0
M  V30 30611 H 2796.54 -0.97928 -3.61055 0
M  V30 30612 H 2797.87 -1.26942 -4.75549 0
M  V30 30613 N 2799.52 1.44037 -0.639624 0
M  V30 30614 C 2800.47 2.27852 0.0822637 0
M  V30 30615 C 2801.46 1.39143 0.807967 0
M  V30 30616 O 2802.65 1.62883 0.692674 0
M  V30 30617 C 2799.78 3.26611 1.05736 0
M  V30 30618 C 2798.86 4.22808 0.330837 0
M  V30 30619 N 2799.25 5.01668 -0.645214 0
M  V30 30620 C 2797.55 4.42289 0.574137 0
M  V30 30621 C 2798.25 5.71676 -1.07523 0
M  V30 30622 N 2797.23 5.42034 -0.412259 0
M  V30 30623 H 2801.03 2.86233 -0.666911 0
M  V30 30624 H 2798.54 1.55576 -0.465805 0
M  V30 30625 H 2800.54 3.85422 1.5892 0
M  V30 30626 H 2799.2 2.6979 1.80674 0
M  V30 30627 H 2800.21 5.07688 -1.02338 0
M  V30 30628 H 2796.89 3.96556 1.30574 0
M  V30 30629 H 2798.28 6.45002 -1.88208 0
M  V30 30630 N 2801 0.380691 1.52933 0
M  V30 30631 C 2802.25 -0.204242 2.01467 0
M  V30 30632 C 2802.57 -1.47531 1.26747 0
M  V30 30633 O 2801.83 -1.92476 0.353757 0
M  V30 30634 C 2802.13 -0.527137 3.53491 0
M  V30 30635 C 2801.79 0.651373 4.4617 0
M  V30 30636 C 2800.46 0.974702 4.71225 0
M  V30 30637 C 2802.81 1.4402 5.00907 0
M  V30 30638 C 2800.14 2.08856 5.48266 0
M  V30 30639 C 2802.49 2.5446 5.79166 0
M  V30 30640 C 2801.15 2.87311 6.02502 0
M  V30 30641 H 2800.42 -0.0747375 0.737221 0
M  V30 30642 H 2803.07 0.516266 1.8441 0
M  V30 30643 H 2801.37 -1.32886 3.68576 0
M  V30 30644 H 2803.07 -0.992215 3.88531 0
M  V30 30645 H 2799.66 0.389351 4.26828 0
M  V30 30646 H 2803.85 1.20365 4.81483 0
M  V30 30647 H 2799.1 2.34689 5.64563 0
M  V30 30648 H 2803.28 3.15991 6.20583 0
M  V30 30649 H 2800.9 3.73742 6.61983 0
M  V30 30650 N 2802.48 -1.57214 0.110268 0
M  V30 30651 C 2803.72 -1.94892 -0.549835 0
M  V30 30652 C 2804.05 -0.993013 -1.67241 0
M  V30 30653 O 2803.31 -0.0153047 -1.95694 0
M  V30 30654 C 2803.61 -3.39034 -1.13096 0
M  V30 30655 C 2803.27 -4.50711 -0.130633 0
M  V30 30656 C 2801.93 -4.80983 0.144455 0
M  V30 30657 C 2804.29 -5.18273 0.551564 0
M  V30 30658 C 2801.61 -5.76139 1.10817 0
M  V30 30659 C 2803.97 -6.14465 1.50386 0
M  V30 30660 C 2802.63 -6.43134 1.78702 0
M  V30 30661 H 2801.9 -0.713162 -0.201199 0
M  V30 30662 H 2804.55 -1.90562 0.189322 0
M  V30 30663 H 2802.85 -3.40016 -1.94669 0
M  V30 30664 H 2804.55 -3.65496 -1.64966 0
M  V30 30665 H 2801.14 -4.27125 -0.355226 0
M  V30 30666 H 2805.32 -4.95049 0.352197 0
M  V30 30667 H 2800.58 -5.9666 1.3344 0
M  V30 30668 H 2804.75 -6.65906 2.0382 0
M  V30 30669 H 2802.38 -7.16676 2.53534 0
M  V30 30670 N 2803.96 0.163482 -1.5675 0
M  V30 30671 C 2805.37 0.515541 -1.51044 0
M  V30 30672 C 2805.57 1.84243 -0.815887 0
M  V30 30673 O 2804.63 2.49632 -0.37952 0
M  V30 30674 C 2805.94 0.541062 -2.95792 0
M  V30 30675 C 2807.49 0.627722 -3.06641 0
M  V30 30676 C 2807.96 0.684062 -4.52863 0
M  V30 30677 N 2809.45 0.746738 -4.57141 0
M  V30 30678 C 2810.19 0.811037 -5.67635 0
M  V30 30679 N 2809.69 0.83569 -6.87741 0
M  V30 30680 N 2811.48 0.850658 -5.55626 0
M  V30 30681 H 2803.63 -0.706485 -2.00306 0
M  V30 30682 H 2805.89 -0.255675 -0.912872 0
M  V30 30683 H 2805.6 -0.365391 -3.49797 0
M  V30 30684 H 2805.47 1.38481 -3.5086 0
M  V30 30685 H 2807.86 1.5246 -2.52666 0
M  V30 30686 H 2807.94 -0.24285 -2.54645 0
M  V30 30687 H 2807.58 -0.208589 -5.07471 0
M  V30 30688 H 2807.51 1.57089 -5.02624 0
M  V30 30689 H 2810.01 0.735652 -3.7067 0
M  V30 30690 H 2810.32 0.886144 -7.67703 0
M  V30 30691 H 2808.66 0.803837 -6.90336 0
M  V30 30692 H 2811.85 0.828454 -4.60711 0
M  V30 30693 H 2812.03 0.897305 -6.41757 0
M  V30 30694 N 2805.43 1.51555 0.432299 0
M  V30 30695 C 2806.67 1.66135 1.19073 0
M  V30 30696 C 2807.04 0.371906 1.88364 0
M  V30 30697 O 2808.24 0.393537 2.65904 0
M  V30 30698 C 2806.51 2.83465 2.17675 0
M  V30 30699 S 2808.07 3.18402 3.01937 0
M  V30 30700 H 2804.89 0.585258 0.403725 0
M  V30 30701 H 2807.49 1.89477 0.481521 0
M  V30 30702 H 2806.19 3.75586 1.65418 0
M  V30 30703 H 2805.72 2.62327 2.93169 0
M  V30 30704 H 2807.74 2.65226 4.19368 0
M  V30 30705 N 2806.91 -0.688069 1.41786 0
M  V30 30706 C 2808.15 -1.46029 1.4302 0
M  V30 30707 C 2808.52 -1.91958 0.040297 0
M  V30 30708 O 2809.72 -2.68702 -0.0725953 0
M  V30 30709 C 2807.99 -2.63449 2.41515 0
M  V30 30710 S 2809.55 -3.52486 2.61341 0
M  V30 30711 H 2806.36 -0.498922 0.506555 0
M  V30 30712 H 2808.97 -0.802179 1.78284 0
M  V30 30713 H 2807.67 -2.27923 3.4129 0
M  V30 30714 H 2807.2 -3.34146 2.0763 0
M  V30 30715 H 2809.22 -4.58942 1.88645 0
M  V30 30716 N 2808.39 -1.27739 -0.923072 0
M  V30 30717 C 2809.32 -1.13387 -2.04122 0
M  V30 30718 C 2810.3 -0.0340957 -1.70066 0
M  V30 30719 O 2811.49 -0.209417 -1.93068 0
M  V30 30720 C 2808.62 -0.785156 -3.38308 0
M  V30 30721 C 2807.57 -1.83867 -3.86493 0
M  V30 30722 C 2806.9 -1.34382 -5.17538 0
M  V30 30723 C 2808.2 -3.2436 -4.09375 0
M  V30 30724 H 2809.89 -2.06923 -2.16387 0
M  V30 30725 H 2807.44 -0.996262 -1.03974 0
M  V30 30726 H 2809.39 -0.671558 -4.16014 0
M  V30 30727 H 2808.11 0.185912 -3.2607 0
M  V30 30728 H 2806.77 -1.94126 -3.10984 0
M  V30 30729 H 2806.42 -0.362077 -5.01695 0
M  V30 30730 H 2806.12 -2.0482 -5.50747 0
M  V30 30731 H 2807.64 -1.24326 -5.97809 0
M  V30 30732 H 2809.06 -3.17076 -4.77636 0
M  V30 30733 H 2807.45 -3.9255 -4.53899 0
M  V30 30734 H 2808.52 -3.6907 -3.14509 0
M  V30 30735 N 2809.87 1.13022 -1.09836 0
M  V30 30736 C 2811.15 1.80681 -0.749257 0
M  V30 30737 C 2811.53 1.96746 0.765137 0
M  V30 30738 O 2810.87 1.53889 1.6891 0
M  V30 30739 C 2811.08 3.15445 -1.49316 0
M  V30 30740 C 2812.43 3.90734 -1.66169 0
M  V30 30741 O 2813.46 3.25082 -1.45603 0
M  V30 30742 O 2812.31 5.08502 -2.0022 0
M  V30 30743 H 2809.41 0.781812 -0.269628 0
M  V30 30744 H 2811.95 1.19912 -1.2008 0
M  V30 30745 H 2810.73 2.99005 -2.52412 0
M  V30 30746 H 2810.35 3.83918 -1.03407 0
M  V30 30747 N 2811.35 0.886177 1.30325 0
M  V30 30748 C 2812.29 0.352109 2.28098 0
M  V30 30749 C 2813.26 -0.558369 1.56434 0
M  V30 30750 O 2814.45 -0.486529 1.84493 0
M  V30 30751 C 2811.59 -0.426285 3.42457 0
M  V30 30752 C 2810.7 0.513547 4.28937 0
M  V30 30753 C 2809.84 -0.280563 5.30459 0
M  V30 30754 C 2808.88 0.654663 6.08589 0
M  V30 30755 N 2808.01 -0.104198 7.02023 0
M  V30 30756 H 2812.85 1.19102 2.73164 0
M  V30 30757 H 2810.39 0.598685 1.34366 0
M  V30 30758 H 2812.35 -0.893515 4.0752 0
M  V30 30759 H 2810.98 -1.22976 2.98457 0
M  V30 30760 H 2810.03 1.09927 3.64171 0
M  V30 30761 H 2811.34 1.22998 4.83397 0
M  V30 30762 H 2810.5 -0.809594 6.01274 0
M  V30 30763 H 2809.23 -1.03021 4.76695 0
M  V30 30764 H 2808.24 1.19531 5.36649 0
M  V30 30765 H 2809.46 1.40342 6.6444 0
M  V30 30766 H 2807.41 -0.836358 6.50647 0
M  V30 30767 H 2807.33 0.552585 7.53978 0
M  V30 30768 H 2808.6 -0.613933 7.77079 0
M  V30 30769 N 2812.82 -1.43695 0.647253 0
M  V30 30770 C 2813.77 -2.3075 -0.0479687 0
M  V30 30771 C 2814.74 -1.44409 -0.82068 0
M  V30 30772 O 2815.93 -1.73288 -0.798484 0
M  V30 30773 C 2813.07 -3.29912 -1.01254 0
M  V30 30774 C 2812.18 -4.31352 -0.236553 0
M  V30 30775 C 2811.31 -5.17598 -1.19438 0
M  V30 30776 C 2810.35 -6.10735 -0.408488 0
M  V30 30777 N 2809.49 -6.89626 -1.3176 0
M  V30 30778 H 2814.33 -2.89655 0.700289 0
M  V30 30779 H 2811.87 -1.427 0.357107 0
M  V30 30780 H 2813.83 -3.85906 -1.58532 0
M  V30 30781 H 2812.46 -2.7267 -1.72774 0
M  V30 30782 H 2811.51 -3.777 0.45242 0
M  V30 30783 H 2812.82 -4.9739 0.374818 0
M  V30 30784 H 2811.97 -5.78189 -1.83799 0
M  V30 30785 H 2810.71 -4.51672 -1.83967 0
M  V30 30786 H 2809.72 -5.49238 0.248507 0
M  V30 30787 H 2810.94 -6.78703 0.232308 0
M  V30 30788 H 2808.89 -6.26354 -1.9498 0
M  V30 30789 H 2808.81 -7.52164 -0.760647 0
M  V30 30790 H 2810.07 -7.54727 -1.94954 0
M  V30 30791 N 2814.3 -0.388796 -1.52729 0
M  V30 30792 C 2815.53 0.196174 -2.0647 0
M  V30 30793 C 2815.95 1.39782 -1.25868 0
M  V30 30794 O 2815.31 1.79068 -0.283594 0
M  V30 30795 C 2815.36 0.545037 -3.56457 0
M  V30 30796 O 2814.46 1.63906 -3.78429 0
M  V30 30797 H 2813.8 0.0230553 -0.6636 0
M  V30 30798 H 2816.33 -0.556119 -1.96897 0
M  V30 30799 H 2816.34 0.809487 -3.99889 0
M  V30 30800 H 2815.02 -0.333489 -4.14561 0
M  V30 30801 H 2813.6 1.36836 -3.46887 0
M  V30 30802 N 2815.78 1.57153 -0.118604 0
M  V30 30803 C 2816.71 2.12364 0.86221 0
M  V30 30804 C 2817.73 1.06627 1.23023 0
M  V30 30805 O 2818.91 1.34 1.17924 0
M  V30 30806 C 2816.01 2.60798 2.1642 0
M  V30 30807 C 2815.19 3.90629 1.96794 0
M  V30 30808 C 2814.25 4.24665 3.10719 0
M  V30 30809 O 2813.27 4.93489 2.8365 0
M  V30 30810 N 2814.47 3.81953 4.37141 0
M  V30 30811 H 2817.24 2.97145 0.390512 0
M  V30 30812 H 2814.8 1.61766 0.0658306 0
M  V30 30813 H 2816.79 2.80598 2.91628 0
M  V30 30814 H 2815.36 1.80899 2.5494 0
M  V30 30815 H 2814.58 3.79742 1.05781 0
M  V30 30816 H 2815.87 4.75523 1.80985 0
M  V30 30817 H 2815.27 3.26443 4.62008 0
M  V30 30818 H 2813.83 4.06862 5.09221 0
M  V30 30819 N 2817.26 -0.155167 1.56834 0
M  V30 30820 C 2818.67 -0.507523 1.51315 0
M  V30 30821 C 2818.87 -1.83808 0.825647 0
M  V30 30822 O 2817.93 -2.49427 0.392754 0
M  V30 30823 C 2819.24 -0.525368 2.96075 0
M  V30 30824 C 2820.79 -0.611451 3.0697 0
M  V30 30825 C 2821.27 -0.660036 4.53219 0
M  V30 30826 N 2822.76 -0.722484 4.57531 0
M  V30 30827 C 2823.49 -0.780923 5.68057 0
M  V30 30828 N 2822.99 -0.799206 6.88175 0
M  V30 30829 N 2824.78 -0.82118 5.56069 0
M  V30 30830 H 2816.93 0.717098 1.99929 0
M  V30 30831 H 2819.2 0.260512 0.911503 0
M  V30 30832 H 2818.9 0.383936 3.49598 0
M  V30 30833 H 2818.78 -1.36618 3.5159 0
M  V30 30834 H 2821.16 -1.51118 2.53471 0
M  V30 30835 H 2821.24 0.256351 2.54512 0
M  V30 30836 H 2820.89 0.235499 5.07354 0
M  V30 30837 H 2820.82 -1.54421 5.0345 0
M  V30 30838 H 2823.31 -0.715984 3.71055 0
M  V30 30839 H 2823.62 -0.845418 7.68162 0
M  V30 30840 H 2821.97 -0.767216 6.90752 0
M  V30 30841 H 2825.16 -0.80401 4.61143 0
M  V30 30842 H 2825.33 -0.863259 6.42224 0
M  V30 30843 N 2818.74 -1.51782 -0.424256 0
M  V30 30844 C 2819.96 -1.68924 -1.19467 0
M  V30 30845 C 2820.38 -0.392162 -1.84682 0
M  V30 30846 O 2819.74 0.630524 -1.71262 0
M  V30 30847 C 2819.79 -2.8142 -2.26904 0
M  V30 30848 O 2819.51 -4.06103 -1.64354 0
M  V30 30849 C 2821.01 -3.09942 -3.1694 0
M  V30 30850 H 2818.23 -0.566518 -0.359581 0
M  V30 30851 H 2820.77 -1.98265 -0.501105 0
M  V30 30852 H 2818.93 -2.5464 -2.91954 0
M  V30 30853 H 2819.34 -4.68678 -2.3546 0
M  V30 30854 H 2820.82 -3.92207 -3.8843 0
M  V30 30855 H 2821.29 -2.22877 -3.78447 0
M  V30 30856 H 2821.9 -3.3843 -2.57575 0
M  V30 30857 N 2820.21 0.68054 -1.42149 0
M  V30 30858 C 2821.15 1.80515 -1.39605 0
M  V30 30859 C 2822.13 1.6049 -0.261126 0
M  V30 30860 O 2823.31 1.83039 -0.450436 0
M  V30 30861 C 2820.44 3.17428 -1.18139 0
M  V30 30862 C 2819.48 3.56214 -2.3455 0
M  V30 30863 S 2820.32 3.59299 -3.9707 0
M  V30 30864 C 2821.47 4.98915 -3.77935 0
M  V30 30865 H 2821.7 1.82398 -2.34773 0
M  V30 30866 H 2819.24 0.850669 -1.28853 0
M  V30 30867 H 2821.2 3.9646 -1.06441 0
M  V30 30868 H 2819.86 3.13138 -0.245667 0
M  V30 30869 H 2819.05 4.55717 -2.15263 0
M  V30 30870 H 2818.65 2.84529 -2.42733 0
M  V30 30871 H 2820.94 5.86836 -3.3857 0
M  V30 30872 H 2821.89 5.23247 -4.77093 0
M  V30 30873 H 2822.29 4.71162 -3.10913 0
M  V30 30874 N 2821.69 1.28226 0.916285 0
M  V30 30875 C 2822.62 1.14468 2.03518 0
M  V30 30876 C 2823.6 0.0431143 1.70045 0
M  V30 30877 O 2824.79 0.219653 1.92954 0
M  V30 30878 C 2821.92 0.803087 3.37887 0
M  V30 30879 C 2820.87 1.85914 3.85512 0
M  V30 30880 C 2820.2 1.37125 5.16818 0
M  V30 30881 C 2821.5 3.26526 4.07649 0
M  V30 30882 H 2823.19 2.08068 2.15286 0
M  V30 30883 H 2820.74 1.00176 1.03444 0
M  V30 30884 H 2822.69 0.693611 4.15653 0
M  V30 30885 H 2821.42 -0.168617 3.26164 0
M  V30 30886 H 2820.07 1.95772 3.0995 0
M  V30 30887 H 2819.72 0.388678 5.01496 0
M  V30 30888 H 2819.42 2.07738 5.49653 0
M  V30 30889 H 2820.95 1.27494 5.97141 0
M  V30 30890 H 2822.36 3.19604 4.75948 0
M  V30 30891 H 2820.76 3.94951 4.51811 0
M  V30 30892 H 2821.83 3.70732 3.12547 0
M  V30 30893 N 2823.17 -1.12438 1.10433 0
M  V30 30894 C 2824.13 -2.16353 0.75658 0
M  V30 30895 C 2825.13 -1.59302 -0.218962 0
M  V30 30896 O 2826.32 -1.74199 0.0041903 0
M  V30 30897 C 2823.46 -3.40686 0.120672 0
M  V30 30898 H 2824.65 -2.48629 1.677 0
M  V30 30899 H 2822.2 -1.27444 0.904854 0
M  V30 30900 H 2822.94 -3.14009 -0.810481 0
M  V30 30901 H 2822.72 -3.83371 0.82276 0
M  V30 30902 H 2824.21 -4.17463 -0.106871 0
M  V30 30903 N 2824.65 -0.893076 -1.29853 0
M  V30 30904 C 2825.9 -0.516383 -1.96116 0
M  V30 30905 C 2826.23 0.933665 -1.70283 0
M  V30 30906 O 2825.5 1.66094 -1.01208 0
M  V30 30907 C 2825.79 -0.801517 -3.51067 0
M  V30 30908 C 2825.64 -2.30278 -3.86383 0
M  V30 30909 C 2826.96 -0.2835 -4.39186 0
M  V30 30910 H 2824.08 -0.189085 -0.712331 0
M  V30 30911 H 2826.72 -1.11855 -1.53585 0
M  V30 30912 H 2824.87 -0.289017 -3.87423 0
M  V30 30913 H 2826.54 -2.88431 -3.60007 0
M  V30 30914 H 2824.78 -2.76619 -3.34163 0
M  V30 30915 H 2825.46 -2.45288 -4.94508 0
M  V30 30916 H 2827.93 -0.722259 -4.09784 0
M  V30 30917 H 2826.81 -0.512265 -5.46504 0
M  V30 30918 H 2827.07 0.815566 -4.34512 0
M  V30 30919 N 2826.13 1.4335 -0.654865 0
M  V30 30920 C 2827.37 2.02093 -0.169178 0
M  V30 30921 C 2827.71 1.51555 1.21428 0
M  V30 30922 O 2826.98 0.709348 1.81104 0
M  V30 30923 C 2827.26 3.59641 -0.181838 0
M  V30 30924 C 2827.12 4.20406 -1.59933 0
M  V30 30925 C 2828.44 4.37465 0.480868 0
M  V30 30926 H 2825.56 0.734307 -0.0629501 0
M  V30 30927 H 2828.2 1.70626 -0.835863 0
M  V30 30928 H 2826.35 3.86579 0.38585 0
M  V30 30929 H 2828.02 4.04493 -2.21773 0
M  V30 30930 H 2826.26 3.76994 -2.14612 0
M  V30 30931 H 2826.93 5.29497 -1.56003 0
M  V30 30932 H 2829.41 4.161 -0.00215586 0
M  V30 30933 H 2828.29 5.47123 0.441288 0
M  V30 30934 H 2828.55 4.13841 1.55526 0
M  V30 30935 N 2827.61 0.39689 1.52521 0
M  V30 30936 C 2828.88 -0.240808 1.94112 0
M  V30 30937 C 2829.26 -1.63697 1.33291 0
M  V30 30938 O 2828.61 -2.22874 0.50394 0
M  V30 30939 C 2828.82 -0.259505 3.48034 0
M  V30 30940 C 2830.17 -0.484791 4.21823 0
M  V30 30941 O 2831.19 -0.33939 3.54579 0
M  V30 30942 O 2830.05 -0.770317 5.41044 0
M  V30 30943 H 2827.15 -0.151657 0.812976 0
M  V30 30944 H 2829.69 0.451947 1.63571 0
M  V30 30945 H 2828.46 0.718146 3.84654 0
M  V30 30946 H 2828.09 -0.996869 3.849 0
M  V30 30947 N 2829.08 -1.57088 0.126936 0
M  V30 30948 C 2830.31 -1.9953 -0.535857 0
M  V30 30949 C 2830.72 -1.00569 -1.60258 0
M  V30 30950 O 2830.06 0.0084004 -1.83698 0
M  V30 30951 C 2830.13 -3.38393 -1.21368 0
M  V30 30952 C 2829.79 -4.56054 -0.293964 0
M  V30 30953 C 2830.79 -5.17766 0.470545 0
M  V30 30954 C 2828.47 -5.01891 -0.20272 0
M  V30 30955 C 2830.47 -6.2371 1.31395 0
M  V30 30956 C 2828.15 -6.07694 0.64431 0
M  V30 30957 C 2829.15 -6.68471 1.40127 0
M  V30 30958 O 2828.84 -7.72229 2.23422 0
M  V30 30959 H 2828.57 -0.660092 -0.145787 0
M  V30 30960 H 2831.13 -2.04298 0.212477 0
M  V30 30961 H 2829.36 -3.30403 -2.00925 0
M  V30 30962 H 2831.04 -3.65072 -1.77418 0
M  V30 30963 H 2831.81 -4.83264 0.409969 0
M  V30 30964 H 2827.69 -4.54326 -0.781608 0
M  V30 30965 H 2831.23 -6.71078 1.90526 0
M  V30 30966 H 2827.13 -6.41625 0.70625 0
M  V30 30967 H 2827.9 -7.89362 2.1645 0
M  V30 30968 N 2830.56 0.146848 -1.56914 0
M  V30 30969 C 2831.49 1.21084 -1.93427 0
M  V30 30970 C 2832.47 1.41551 -0.800131 0
M  V30 30971 O 2833.66 1.56161 -1.05575 0
M  V30 30972 C 2830.78 2.56971 -2.20643 0
M  V30 30973 C 2829.83 2.53098 -3.43284 0
M  V30 30974 S 2830.66 1.99778 -4.96839 0
M  V30 30975 C 2831.82 3.37394 -5.27178 0
M  V30 30976 H 2832.05 0.899328 -2.83371 0
M  V30 30977 H 2829.58 0.352468 -1.50323 0
M  V30 30978 H 2831.54 3.35171 -2.37004 0
M  V30 30979 H 2830.2 2.85312 -1.31363 0
M  V30 30980 H 2829.4 3.53129 -3.59605 0
M  V30 30981 H 2829 1.83007 -3.26166 0
M  V30 30982 H 2831.29 4.33503 -5.20654 0
M  V30 30983 H 2832.23 3.25926 -6.28632 0
M  V30 30984 H 2832.64 3.34536 -4.54693 0
M  V30 30985 N 2832.04 1.52005 0.4162 0
M  V30 30986 C 2833.46 1.4065 0.754295 0
M  V30 30987 C 2833.66 0.505427 1.95058 0
M  V30 30988 O 2832.71 -0.0314613 2.5248 0
M  V30 30989 C 2834.02 2.83057 1.01485 0
M  V30 30990 C 2835.57 2.92352 1.118 0
M  V30 30991 C 2836.05 4.35711 1.41137 0
M  V30 30992 N 2837.54 4.38914 1.48016 0
M  V30 30993 C 2838.27 5.46892 1.72328 0
M  V30 30994 N 2837.77 6.64998 1.94292 0
M  V30 30995 N 2839.56 5.34398 1.74285 0
M  V30 30996 H 2831.71 2.09128 -0.37136 0
M  V30 30997 H 2833.98 0.942297 -0.103828 0
M  V30 30998 H 2833.68 3.51083 0.208283 0
M  V30 30999 H 2833.56 3.23672 1.93692 0
M  V30 31000 H 2835.94 2.24511 1.91517 0
M  V30 31001 H 2836.02 2.55204 0.174465 0
M  V30 31002 H 2835.67 5.04109 0.619395 0
M  V30 31003 H 2835.6 4.70389 2.36731 0
M  V30 31004 H 2838.09 3.53774 1.32861 0
M  V30 31005 H 2838.4 7.43075 2.12272 0
M  V30 31006 H 2836.75 6.68076 1.91571 0
M  V30 31007 H 2839.94 4.41107 1.5666 0
M  V30 31008 H 2840.11 6.18624 1.92894 0
M  V30 31009 N 2833.52 -0.672992 1.42508 0
M  V30 31010 C 2834.93 -0.986333 1.25474 0
M  V30 31011 C 2835.13 -2.00862 0.160217 0
M  V30 31012 O 2834.19 -2.48126 -0.467949 0
M  V30 31013 C 2835.5 -1.48942 2.61222 0
M  V30 31014 C 2837.05 -1.6071 2.68591 0
M  V30 31015 C 2837.53 -2.14414 4.0471 0
M  V30 31016 N 2839.02 -2.21745 4.06674 0
M  V30 31017 C 2839.75 -2.64377 5.08814 0
M  V30 31018 N 2839.25 -3.06449 6.21338 0
M  V30 31019 N 2841.04 -2.64142 4.96171 0
M  V30 31020 H 2833.19 0.00382266 2.124 0
M  V30 31021 H 2835.45 -0.06082 0.946047 0
M  V30 31022 H 2835.16 -0.812752 3.4218 0
M  V30 31023 H 2835.03 -2.46786 2.85266 0
M  V30 31024 H 2837.42 -2.27483 1.87978 0
M  V30 31025 H 2837.5 -0.613509 2.48334 0
M  V30 31026 H 2837.15 -1.4825 4.85782 0
M  V30 31027 H 2837.08 -3.14568 4.22321 0
M  V30 31028 H 2839.57 -1.92084 3.25442 0
M  V30 31029 H 2839.88 -3.37672 6.95124 0
M  V30 31030 H 2838.23 -3.04302 6.2484 0
M  V30 31031 H 2841.42 -2.30637 4.07338 0
M  V30 31032 H 2841.59 -2.97047 5.75906 0
M  V30 31033 N 2835 -1.2871 -0.909472 0
M  V30 31034 C 2835.93 -1.08807 -2.01727 0
M  V30 31035 C 2836.94 -0.0385025 -1.62754 0
M  V30 31036 O 2838.13 -0.282008 -1.76258 0
M  V30 31037 C 2835.23 -0.632228 -3.32951 0
M  V30 31038 C 2834.4 -1.75816 -4.00509 0
M  V30 31039 C 2833.46 -1.29497 -5.10017 0
M  V30 31040 O 2832.49 -1.99796 -5.32982 0
M  V30 31041 N 2833.69 -0.160502 -5.80278 0
M  V30 31042 H 2836.45 -2.04211 -2.19358 0
M  V30 31043 H 2834.02 -1.2052 -1.08104 0
M  V30 31044 H 2836.01 -0.305873 -4.03542 0
M  V30 31045 H 2834.58 0.229079 -3.1176 0
M  V30 31046 H 2833.8 -2.25389 -3.23409 0
M  V30 31047 H 2835.09 -2.51333 -4.4239 0
M  V30 31048 H 2834.48 0.425838 -5.64095 0
M  V30 31049 H 2833.04 0.106549 -6.51713 0
M  V30 31050 N 2836.47 1.1185 -1.11028 0
M  V30 31051 C 2837.42 2.17764 -0.764701 0
M  V30 31052 C 2838.39 1.64023 0.261825 0
M  V30 31053 O 2839.58 1.90288 0.139715 0
M  V30 31054 C 2836.72 3.44464 -0.209377 0
M  V30 31055 C 2835.83 4.12229 -1.29194 0
M  V30 31056 C 2834.96 5.26599 -0.697616 0
M  V30 31057 C 2834 5.86241 -1.76033 0
M  V30 31058 N 2833.14 6.92014 -1.18581 0
M  V30 31059 H 2837.98 2.4667 -1.67206 0
M  V30 31060 H 2835.52 1.21098 -0.835086 0
M  V30 31061 H 2837.47 4.16996 0.130526 0
M  V30 31062 H 2836.1 3.15956 0.661195 0
M  V30 31063 H 2835.16 3.37814 -1.74887 0
M  V30 31064 H 2836.47 4.52618 -2.09615 0
M  V30 31065 H 2835.62 6.0592 -0.307518 0
M  V30 31066 H 2834.36 4.87505 0.137958 0
M  V30 31067 H 2833.37 5.05602 -2.15979 0
M  V30 31068 H 2834.59 6.27404 -2.59886 0
M  V30 31069 H 2832.54 6.54945 -0.37181 0
M  V30 31070 H 2832.45 7.31034 -1.92678 0
M  V30 31071 H 2833.72 7.75149 -0.822466 0
M  V30 31072 N 2837.95 0.89995 1.29378 0
M  V30 31073 C 2839.37 0.596085 1.48051 0
M  V30 31074 C 2839.57 -0.86234 1.82115 0
M  V30 31075 O 2838.62 -1.6425 1.91777 0
M  V30 31076 C 2839.94 1.52212 2.5933 0
M  V30 31077 C 2841.48 1.52735 2.73205 0
M  V30 31078 C 2841.96 2.43968 3.87613 0
M  V30 31079 N 2843.45 2.42016 3.94946 0
M  V30 31080 C 2844.19 3.09312 4.82819 0
M  V30 31081 N 2843.68 3.85887 5.75381 0
M  V30 31082 N 2845.47 2.98468 4.76312 0
M  V30 31083 H 2837.63 1.84321 1.05543 0
M  V30 31084 H 2839.89 0.789819 0.5243 0
M  V30 31085 H 2839.59 2.56126 2.41024 0
M  V30 31086 H 2839.47 1.24284 3.56137 0
M  V30 31087 H 2841.86 0.495665 2.90907 0
M  V30 31088 H 2841.94 1.84701 1.76972 0
M  V30 31089 H 2841.58 3.47231 3.70666 0
M  V30 31090 H 2841.51 2.09311 4.83215 0
M  V30 31091 H 2844 1.8638 3.28741 0
M  V30 31092 H 2844.31 4.3429 6.39228 0
M  V30 31093 H 2842.66 3.89994 5.75265 0
M  V30 31094 H 2845.85 2.38159 4.02986 0
M  V30 31095 H 2846.02 3.51189 5.44583 0
M  V30 31096 N 2839.43 -1.43001 0.662458 0
M  V30 31097 C 2840.84 -1.84904 0.258348 0
M  V30 31098 C 2841.19 -1.55455 -1.197 0
M  V30 31099 O 2840.32 -1.00814 -1.91482 0
M  V30 31100 C 2840.91 -3.35634 0.462106 0
M  V30 31101 C 2839.47 -3.76233 0.112231 0
M  V30 31102 C 2838.62 -2.66667 0.760526 0
M  V30 31103 H 2841.57 -1.33022 0.86549 0
M  V30 31104 H 2841.59 -3.79396 -0.289579 0
M  V30 31105 H 2841.1 -3.57036 1.52141 0
M  V30 31106 H 2839.2 -3.6044 -0.944115 0
M  V30 31107 H 2839.32 -4.76 0.544142 0
M  V30 31108 H 2837.68 -2.53968 0.192932 0
M  V30 31109 H 2838.46 -2.90895 1.82304 0
M  V30 31110 N 2840.91 -0.404973 -1.52308 0
M  V30 31111 C 2842.13 0.174264 -2.06667 0
M  V30 31112 C 2842.56 1.38439 -1.27343 0
M  V30 31113 O 2841.92 1.78757 -0.302571 0
M  V30 31114 C 2841.96 0.5072 -3.57015 0
M  V30 31115 O 2841.07 1.59883 -3.80146 0
M  V30 31116 H 2840.41 0.0160156 -0.663807 0
M  V30 31117 H 2842.94 -0.576971 -1.96296 0
M  V30 31118 H 2842.95 0.767027 -4.00725 0
M  V30 31119 H 2841.62 -0.37744 -4.14184 0
M  V30 31120 H 2840.2 1.33149 -3.48318 0
M  V30 31121 N 2842.39 1.57018 -0.135265 0
M  V30 31122 C 2843.61 2.00532 0.529308 0
M  V30 31123 C 2844.04 1.01462 1.58389 0
M  V30 31124 O 2843.39 -0.0113668 1.81296 0
M  V30 31125 C 2843.44 3.4285 1.11742 0
M  V30 31126 O 2842.55 3.46739 2.23261 0
M  V30 31127 H 2841.89 0.651018 0.130658 0
M  V30 31128 H 2844.42 2.0332 -0.228539 0
M  V30 31129 H 2844.43 3.81403 1.44898 0
M  V30 31130 H 2843.1 4.14466 0.345074 0
M  V30 31131 H 2841.68 3.20019 1.91422 0
M  V30 31132 N 2843.86 -0.138524 1.5699 0
M  V30 31133 C 2845.11 -0.848021 1.83448 0
M  V30 31134 C 2845.43 -1.81321 0.717472 0
M  V30 31135 O 2844.7 -1.94164 -0.260194 0
M  V30 31136 H 2843.28 -0.316154 0.676798 0
M  V30 31137 H 2845.95 -0.130504 1.94463 0
M  V30 31138 H 2845.04 -1.40513 2.7868 0
M  V30 31139 N 2845.34 -1.52224 -0.408133 0
M  V30 31140 C 2846.57 -1.70181 -1.17669 0
M  V30 31141 C 2846.99 -0.411728 -1.84256 0
M  V30 31142 O 2846.34 0.612324 -1.71921 0
M  V30 31143 C 2846.39 -2.8381 -2.23906 0
M  V30 31144 O 2846.11 -4.07823 -1.60037 0
M  V30 31145 C 2847.62 -3.13286 -3.13634 0
M  V30 31146 H 2844.84 -0.5703 -0.353552 0
M  V30 31147 H 2847.38 -1.98786 -0.480048 0
M  V30 31148 H 2845.53 -2.57722 -2.89237 0
M  V30 31149 H 2845.95 -4.71149 -2.30476 0
M  V30 31150 H 2847.42 -3.96305 -3.84248 0
M  V30 31151 H 2847.9 -2.26879 -3.76062 0
M  V30 31152 H 2848.51 -3.41143 -2.53971 0
M  V30 31153 N 2846.82 0.665425 -1.42863 0
M  V30 31154 C 2848.07 1.42123 -1.43122 0
M  V30 31155 C 2848.38 1.95524 -0.054564 0
M  V30 31156 O 2849.59 2.71421 0.065427 0
M  V30 31157 C 2848.04 2.57145 -2.51802 0
M  V30 31158 C 2847.65 2.10404 -3.95517 0
M  V30 31159 C 2849.4 3.34596 -2.61239 0
M  V30 31160 C 2847.3 3.22565 -4.95687 0
M  V30 31161 H 2846.23 0.533957 -0.532359 0
M  V30 31162 H 2848.88 0.719476 -1.68807 0
M  V30 31163 H 2847.27 3.29734 -2.19298 0
M  V30 31164 H 2848.44 1.44907 -4.37423 0
M  V30 31165 H 2846.76 1.45867 -3.90015 0
M  V30 31166 H 2849.35 4.18145 -3.33255 0
M  V30 31167 H 2849.7 3.81814 -1.65903 0
M  V30 31168 H 2850.23 2.69082 -2.92984 0
M  V30 31169 H 2846.97 2.80328 -5.92534 0
M  V30 31170 H 2846.49 3.86813 -4.58406 0
M  V30 31171 H 2848.17 3.87887 -5.17834 0
M  V30 31172 N 2848.3 1.29191 0.902633 0
M  V30 31173 C 2849.55 1.16992 1.65285 0
M  V30 31174 C 2849.87 -0.279198 1.92486 0
M  V30 31175 O 2849.13 -1.2184 1.53145 0
M  V30 31176 C 2849.43 1.9255 3.01097 0
M  V30 31177 C 2849.09 3.42286 2.93515 0
M  V30 31178 C 2847.76 3.83122 2.91155 0
M  V30 31179 C 2850.11 4.37715 2.82939 0
M  V30 31180 C 2847.44 5.17709 2.76034 0
M  V30 31181 C 2849.79 5.72389 2.69358 0
M  V30 31182 C 2848.45 6.12486 2.65362 0
M  V30 31183 H 2847.72 0.428104 0.60482 0
M  V30 31184 H 2850.37 1.60094 1.05081 0
M  V30 31185 H 2848.67 1.4203 3.6515 0
M  V30 31186 H 2850.37 1.80518 3.5807 0
M  V30 31187 H 2846.96 3.09825 2.96153 0
M  V30 31188 H 2851.14 4.07121 2.83842 0
M  V30 31189 H 2846.4 5.4789 2.71343 0
M  V30 31190 H 2850.57 6.45986 2.60145 0
M  V30 31191 H 2848.2 7.16722 2.53403 0
M  V30 31192 N 2849.78 -1.1126 1.1162 0
M  V30 31193 C 2850.72 -2.19439 0.77133 0
M  V30 31194 C 2851.72 -1.67719 -0.238043 0
M  V30 31195 O 2852.92 -1.79738 -0.0971312 0
M  V30 31196 H 2849.3 -0.715461 0.23156 0
M  V30 31197 H 2851.27 -2.45772 1.6923 0
M  V30 31198 C 2850.02 -3.4692 0.232826 0
M  V30 31199 H 2849.34 -3.87072 1.00078 0
M  V30 31200 H 2850.78 -4.2399 0.0297306 0
M  V30 31201 C 2849.24 -3.20533 -1.03732 0
M  V30 31202 O 2849.77 -3.41408 -2.11669 0
M  V30 31203 N 2847.98 -2.74255 -0.960857 0
M  V30 31204 H 2847.52 -2.57468 -0.0823871 0
M  V30 31205 H 2847.48 -2.56977 -1.81136 0
M  V30 31206 N 2851.25 -0.906798 -1.28899 0
M  V30 31207 C 2852.53 -0.455571 -1.90221 0
M  V30 31208 C 2852.91 1.06523 -1.82252 0
M  V30 31209 O 2852.26 1.91023 -1.25389 0
M  V30 31210 C 2852.47 -0.978119 -3.35013 0
M  V30 31211 C 2853.82 -1.02606 -4.12016 0
M  V30 31212 O 2854.84 -0.926279 -3.43946 0
M  V30 31213 O 2853.7 -1.17698 -5.33675 0
M  V30 31214 H 2850.79 -0.143229 -0.814503 0
M  V30 31215 H 2853.34 -0.997128 -1.37315 0
M  V30 31216 H 2852.11 -2.0221 -3.35003 0
M  V30 31217 H 2851.74 -0.416983 -3.95407 0
M  V30 31218 N 2852.73 1.42648 -0.670032 0
M  V30 31219 C 2853.7 2.292 0.00200631 0
M  V30 31220 C 2854.7 1.43081 0.733792 0
M  V30 31221 O 2855.89 1.64523 0.572511 0
M  V30 31222 C 2853.02 3.25485 1.01353 0
M  V30 31223 H 2854.21 2.90117 -0.759747 0
M  V30 31224 H 2851.76 1.50208 -0.432131 0
M  V30 31225 H 2852.5 2.69497 1.80394 0
M  V30 31226 H 2852.28 3.88998 0.492255 0
M  V30 31227 H 2853.77 3.90406 1.48233 0
M  V30 31228 N 2854.21 0.413044 1.52091 0
M  V30 31229 C 2855.46 -0.161462 2.01855 0
M  V30 31230 C 2855.79 -1.4481 1.29848 0
M  V30 31231 O 2855.04 -1.91682 0.394505 0
M  V30 31232 C 2855.34 -0.452037 3.5453 0
M  V30 31233 C 2855.01 0.745866 4.44688 0
M  V30 31234 C 2853.67 1.07444 4.69051 0
M  V30 31235 C 2856.02 1.54613 4.97739 0
M  V30 31236 C 2853.35 2.20439 5.43713 0
M  V30 31237 C 2855.7 2.66688 5.73638 0
M  V30 31238 C 2854.36 3.00027 5.96272 0
M  V30 31239 H 2853.63 -0.0590831 0.738641 0
M  V30 31240 H 2856.28 0.555266 1.83273 0
M  V30 31241 H 2854.59 -1.25038 3.71312 0
M  V30 31242 H 2856.28 -0.909578 3.90548 0
M  V30 31243 H 2852.87 0.4798 4.25906 0
M  V30 31244 H 2857.06 1.30551 4.78822 0
M  V30 31245 H 2852.31 2.46612 5.59457 0
M  V30 31246 H 2856.49 3.29083 6.1374 0
M  V30 31247 H 2854.11 3.877 6.53906 0
M  V30 31248 N 2855.69 -1.56945 0.143591 0
M  V30 31249 C 2856.94 -1.97089 -0.502752 0
M  V30 31250 C 2857.29 -1.02694 -1.62701 0
M  V30 31251 O 2856.58 -0.0613659 -1.91502 0
M  V30 31252 C 2856.78 -3.41357 -1.05879 0
M  V30 31253 C 2856.61 -4.49699 0.0100611 0
M  V30 31254 C 2855.38 -5.03289 0.450318 0
M  V30 31255 C 2857.57 -5.08036 0.800263 0
M  V30 31256 N 2855.56 -5.95233 1.50237 0
M  V30 31257 C 2856.93 -5.96155 1.7029 0
M  V30 31258 C 2858.98 -4.90618 0.84843 0
M  V30 31259 C 2857.69 -6.68723 2.64957 0
M  V30 31260 C 2859.71 -5.63885 1.78291 0
M  V30 31261 C 2859.07 -6.5171 2.67308 0
M  V30 31262 H 2855.17 -0.766911 -0.152877 0
M  V30 31263 H 2857.76 -1.93247 0.237404 0
M  V30 31264 H 2855.93 -3.45798 -1.76857 0
M  V30 31265 H 2857.66 -3.6857 -1.67147 0
M  V30 31266 H 2854.41 -4.7357 0.0532187 0
M  V30 31267 H 2854.84 -6.45909 2.02806 0
M  V30 31268 H 2859.48 -4.22441 0.174302 0
M  V30 31269 H 2857.2 -7.36131 3.33371 0
M  V30 31270 H 2860.78 -5.52405 1.82594 0
M  V30 31271 H 2859.66 -7.07409 3.38441 0
M  V30 31272 N 2857.17 0.130197 -1.57061 0
M  V30 31273 C 2858.1 1.16165 -2.02554 0
M  V30 31274 C 2859.08 1.43838 -0.907997 0
M  V30 31275 O 2860.26 1.54471 -1.17696 0
M  V30 31276 C 2857.39 2.49067 -2.42039 0
M  V30 31277 C 2856.35 2.3588 -3.57134 0
M  V30 31278 C 2855.67 3.73644 -3.82485 0
M  V30 31279 C 2856.97 1.82871 -4.8924 0
M  V30 31280 H 2858.67 0.783308 -2.88972 0
M  V30 31281 H 2856.21 0.375351 -1.39022 0
M  V30 31282 H 2858.17 3.21464 -2.72468 0
M  V30 31283 H 2856.89 2.88769 -1.52578 0
M  V30 31284 H 2855.55 1.65932 -3.26898 0
M  V30 31285 H 2855.2 4.10811 -2.90247 0
M  V30 31286 H 2854.9 3.65677 -4.5995 0
M  V30 31287 H 2856.42 4.47563 -4.15355 0
M  V30 31288 H 2857.84 2.45076 -5.18277 0
M  V30 31289 H 2856.23 1.85753 -5.70627 0
M  V30 31290 H 2857.3 0.785487 -4.78496 0
M  V30 31291 N 2858.65 1.52438 0.400055 0
M  V30 31292 C 2859.92 1.57513 1.1597 0
M  V30 31293 C 2860.3 0.361609 2.0798 0
M  V30 31294 O 2859.65 -0.650891 2.19033 0
M  V30 31295 C 2859.86 2.9084 1.92907 0
M  V30 31296 C 2861.21 3.44173 2.48656 0
M  V30 31297 O 2862.23 2.92641 2.03076 0
M  V30 31298 O 2861.09 4.34182 3.31886 0
M  V30 31299 H 2858.19 0.634836 0.530012 0
M  V30 31300 H 2860.73 1.64769 0.406101 0
M  V30 31301 H 2859.5 3.70609 1.25557 0
M  V30 31302 H 2859.13 2.86918 2.75252 0
M  V30 31303 N 2860.12 -0.657839 1.43214 0
M  V30 31304 C 2861.05 -1.78259 1.50818 0
M  V30 31305 C 2862.03 -1.66176 0.363241 0
M  V30 31306 O 2863.22 -1.85342 0.579839 0
M  V30 31307 C 2860.35 -3.16661 1.4263 0
M  V30 31308 C 2859.3 -3.43501 2.55326 0
M  V30 31309 C 2858.63 -4.81654 2.32192 0
M  V30 31310 C 2859.93 -3.38704 3.97589 0
M  V30 31311 H 2861.62 -1.72152 2.44957 0
M  V30 31312 H 2859.17 -0.826809 1.17898 0
M  V30 31313 H 2861.12 -3.95095 1.46555 0
M  V30 31314 H 2859.85 -3.23486 0.449934 0
M  V30 31315 H 2858.51 -2.67435 2.50747 0
M  V30 31316 H 2858.15 -4.8515 1.32809 0
M  V30 31317 H 2857.85 -5.00574 3.07733 0
M  V30 31318 H 2859.38 -5.62352 2.37893 0
M  V30 31319 H 2860.79 -4.07082 4.0368 0
M  V30 31320 H 2859.19 -3.6916 4.73118 0
M  V30 31321 H 2860.26 -2.36968 4.23053 0
M  V30 31322 N 2861.6 -1.29668 -0.895769 0
M  V30 31323 C 2862.55 -1.15021 -2.02171 0
M  V30 31324 C 2863.54 -0.0647948 -1.69276 0
M  V30 31325 O 2864.75 -0.224877 -1.7859 0
M  V30 31326 H 2861.12 -0.355409 -0.662713 0
M  V30 31327 H 2863.1 -2.10337 -2.11662 0
M  V30 31328 C 2861.84 -0.847614 -3.3721 0
M  V30 31329 H 2861.17 -1.67485 -3.63027 0
M  V30 31330 H 2862.61 -0.785179 -4.16666 0
M  V30 31331 C 2861.07 0.449232 -3.33891 0
M  V30 31332 O 2861.6 1.47409 -3.73676 0
M  V30 31333 N 2859.8 0.456497 -2.86992 0
M  V30 31334 H 2859.35 -0.377969 -2.54812 0
M  V30 31335 H 2859.31 1.32418 -2.85154 0
M  V30 31336 N 2863.08 1.10667 -1.12208 0
M  V30 31337 C 2864.31 1.86094 -0.897365 0
M  V30 31338 C 2864.72 1.80823 0.556746 0
M  V30 31339 O 2864.06 1.19339 1.39656 0
M  V30 31340 C 2864.12 3.35519 -1.291 0
M  V30 31341 C 2863.79 3.64552 -2.75592 0
M  V30 31342 C 2864.78 3.61353 -3.73791 0
M  V30 31343 C 2862.47 3.93303 -3.12439 0
M  V30 31344 C 2864.46 3.86497 -5.06852 0
M  V30 31345 C 2862.15 4.18103 -4.45682 0
M  V30 31346 C 2863.15 4.1469 -5.42698 0
M  V30 31347 O 2862.84 4.38861 -6.7354 0
M  V30 31348 H 2862.57 0.595079 -0.320714 0
M  V30 31349 H 2865.12 1.4083 -1.49519 0
M  V30 31350 H 2863.35 3.81428 -0.636366 0
M  V30 31351 H 2865.04 3.92329 -1.0408 0
M  V30 31352 H 2865.81 3.39182 -3.4667 0
M  V30 31353 H 2861.69 3.95092 -2.37537 0
M  V30 31354 H 2865.23 3.83748 -5.82566 0
M  V30 31355 H 2861.13 4.39753 -4.72533 0
M  V30 31356 H 2861.89 4.56388 -6.7945 0
M  V30 31357 N 2864.56 0.913621 1.28416 0
M  V30 31358 C 2865.49 0.418888 2.29712 0
M  V30 31359 C 2866.47 -0.51344 1.62166 0
M  V30 31360 O 2867.65 -0.421202 1.89577 0
M  V30 31361 C 2864.78 -0.341981 3.45612 0
M  V30 31362 C 2863.74 0.501198 4.25055 0
M  V30 31363 C 2863.06 -0.388003 5.3329 0
M  V30 31364 C 2864.36 1.75839 4.91811 0
M  V30 31365 H 2866.06 1.26543 2.71344 0
M  V30 31366 H 2863.6 0.609926 1.30445 0
M  V30 31367 H 2865.56 -0.698927 4.15563 0
M  V30 31368 H 2864.28 -1.22242 3.0286 0
M  V30 31369 H 2862.94 0.840661 3.56831 0
M  V30 31370 H 2862.59 -1.26699 4.86782 0
M  V30 31371 H 2862.29 0.172563 5.87347 0
M  V30 31372 H 2863.81 -0.740833 6.06089 0
M  V30 31373 H 2865.23 1.47036 5.54124 0
M  V30 31374 H 2863.62 2.26136 5.55862 0
M  V30 31375 H 2864.69 2.48627 4.16308 0
M  V30 31376 N 2866.04 -1.4229 0.677588 0
M  V30 31377 C 2866.95 -2.346 0.00100389 0
M  V30 31378 C 2867.96 -1.55245 -0.785806 0
M  V30 31379 O 2869.14 -1.87802 -0.72749 0
M  V30 31380 C 2866.2 -3.33807 -0.936688 0
M  V30 31381 C 2865.26 -4.29058 -0.144098 0
M  V30 31382 C 2864.5 -5.23526 -1.03713 0
M  V30 31383 O 2864.72 -5.22996 -2.27666 0
M  V30 31384 O 2863.65 -5.99849 -0.496437 0
M  V30 31385 H 2867.48 -2.93999 0.761448 0
M  V30 31386 H 2865.06 -1.4284 0.437835 0
M  V30 31387 H 2866.95 -3.94746 -1.4749 0
M  V30 31388 H 2865.62 -2.76876 -1.67693 0
M  V30 31389 H 2864.53 -3.71524 0.438289 0
M  V30 31390 H 2865.86 -4.89037 0.557096 0
M  V30 31391 N 2867.51 -0.421104 -1.5187 0
M  V30 31392 C 2868.76 0.150978 -2.02237 0
M  V30 31393 C 2869.09 1.43766 -1.30556 0
M  V30 31394 O 2868.37 1.9001 -0.415494 0
M  V30 31395 C 2868.65 0.386419 -3.58021 0
M  V30 31396 C 2868.5 -0.917777 -4.40337 0
M  V30 31397 C 2869.82 1.16334 -4.24446 0
M  V30 31398 H 2866.94 0.0533973 -0.735063 0
M  V30 31399 H 2869.58 -0.55692 -1.81655 0
M  V30 31400 H 2867.73 0.989428 -3.75689 0
M  V30 31401 H 2869.41 -1.55352 -4.34354 0
M  V30 31402 H 2867.65 -1.52607 -4.06071 0
M  V30 31403 H 2868.32 -0.707283 -5.4745 0
M  V30 31404 H 2870.8 0.652716 -4.10949 0
M  V30 31405 H 2869.67 1.29683 -5.3336 0
M  V30 31406 H 2869.93 2.18717 -3.84207 0
M  V30 31407 N 2868.99 1.56866 -0.151912 0
M  V30 31408 C 2869.96 2.15814 0.771823 0
M  V30 31409 C 2870.96 1.10117 1.17179 0
M  V30 31410 O 2872.15 1.35731 1.09191 0
M  V30 31411 C 2869.28 2.72524 2.04801 0
M  V30 31412 H 2870.47 2.9878 0.258969 0
M  V30 31413 H 2868.02 1.55995 0.0975606 0
M  V30 31414 H 2868.76 1.93238 2.60441 0
M  V30 31415 H 2868.54 3.49857 1.77038 0
M  V30 31416 H 2870.03 3.17925 2.70765 0
M  V30 31417 N 2870.47 -0.121866 1.57128 0
M  V30 31418 C 2871.42 -1.14961 2.00132 0
M  V30 31419 C 2872.39 -1.41309 0.872983 0
M  V30 31420 O 2873.57 -1.53223 1.13699 0
M  V30 31421 C 2870.71 -2.47175 2.40829 0
M  V30 31422 C 2869.83 -2.27787 3.67065 0
M  V30 31423 C 2868.96 -3.53212 3.96755 0
M  V30 31424 C 2868 -3.28969 5.16184 0
M  V30 31425 N 2867.14 -4.46589 5.41758 0
M  V30 31426 H 2871.98 -0.775896 2.87722 0
M  V30 31427 H 2869.51 -0.371627 1.42328 0
M  V30 31428 H 2871.47 -3.243 2.6246 0
M  V30 31429 H 2870.1 -2.82445 1.56284 0
M  V30 31430 H 2869.15 -1.41594 3.53066 0
M  V30 31431 H 2870.47 -2.05849 4.54343 0
M  V30 31432 H 2869.62 -4.38756 4.1902 0
M  V30 31433 H 2868.36 -3.78179 3.07947 0
M  V30 31434 H 2867.36 -2.41815 4.93766 0
M  V30 31435 H 2868.59 -3.05375 6.06566 0
M  V30 31436 H 2866.53 -4.71683 4.55907 0
M  V30 31437 H 2866.45 -4.27745 6.23354 0
M  V30 31438 H 2867.72 -5.33275 5.6854 0
M  V30 31439 N 2871.95 -1.52648 -0.391965 0
M  V30 31440 C 2873.19 -1.67795 -1.13897 0
M  V30 31441 C 2873.53 -0.415174 -1.8971 0
M  V30 31442 O 2872.8 0.586946 -1.85432 0
M  V30 31443 C 2873.09 -2.91109 -2.11961 0
M  V30 31444 C 2872.94 -4.2748 -1.39931 0
M  V30 31445 C 2874.26 -3.09966 -3.12424 0
M  V30 31446 H 2871.38 -0.610615 -0.412696 0
M  V30 31447 H 2874.02 -1.85239 -0.422692 0
M  V30 31448 H 2872.17 -2.76368 -2.73044 0
M  V30 31449 H 2873.84 -4.53983 -0.818359 0
M  V30 31450 H 2872.08 -4.28096 -0.701171 0
M  V30 31451 H 2872.75 -5.09845 -2.11572 0
M  V30 31452 H 2875.23 -3.23719 -2.61429 0
M  V30 31453 H 2874.11 -3.97731 -3.78287 0
M  V30 31454 H 2874.37 -2.24049 -3.81123 0
M  V30 31455 N 2873.43 0.650235 -1.43561 0
M  V30 31456 C 2874.39 1.74486 -1.48618 0
M  V30 31457 C 2875.39 1.56473 -0.37051 0
M  V30 31458 O 2876.58 1.62316 -0.632379 0
M  V30 31459 C 2873.71 3.13388 -1.34166 0
M  V30 31460 H 2874.9 1.71382 -2.46106 0
M  V30 31461 H 2872.46 0.862163 -1.3037 0
M  V30 31462 H 2873.19 3.22102 -0.376974 0
M  V30 31463 H 2872.98 3.27868 -2.15046 0
M  V30 31464 H 2874.47 3.93204 -1.40644 0
M  V30 31465 N 2874.9 1.30141 0.88888 0
M  V30 31466 C 2875.84 1.12003 1.9997 0
M  V30 31467 C 2876.85 0.0643905 1.62673 0
M  V30 31468 O 2878.04 0.310013 1.75787 0
M  V30 31469 C 2875.14 0.685118 3.31903 0
M  V30 31470 C 2874.31 1.82165 3.97661 0
M  V30 31471 C 2873.37 1.37594 5.07892 0
M  V30 31472 O 2872.4 2.0825 5.29736 0
M  V30 31473 N 2873.6 0.252799 5.79949 0
M  V30 31474 H 2876.36 2.07675 2.16082 0
M  V30 31475 H 2873.92 1.22225 1.06173 0
M  V30 31476 H 2875.92 0.370035 4.03005 0
M  V30 31477 H 2874.49 -0.179452 3.12084 0
M  V30 31478 H 2873.71 2.30505 3.19783 0
M  V30 31479 H 2874.99 2.58339 4.38336 0
M  V30 31480 H 2874.39 -0.336042 5.64701 0
M  V30 31481 H 2872.95 -0.00285356 6.518 0
M  V30 31482 N 2876.38 -1.1007 1.12794 0
M  V30 31483 C 2877.61 -1.86425 0.90887 0
M  V30 31484 C 2878.03 -1.80279 -0.536761 0
M  V30 31485 O 2877.39 -1.17546 -1.38031 0
M  V30 31486 C 2877.44 -3.32608 1.393 0
M  V30 31487 O 2876.54 -4.08387 0.573918 0
M  V30 31488 H 2875.88 -0.578326 0.326245 0
M  V30 31489 H 2878.41 -1.3904 1.50097 0
M  V30 31490 H 2878.42 -3.83457 1.39373 0
M  V30 31491 H 2877.1 -3.36397 2.44561 0
M  V30 31492 H 2875.68 -3.67358 0.640503 0
M  V30 31493 N 2877.86 -0.920419 -1.2793 0
M  V30 31494 C 2879.1 -0.564232 -1.96458 0
M  V30 31495 C 2879.46 0.876937 -1.70803 0
M  V30 31496 O 2880.67 1.34103 -2.32959 0
M  V30 31497 C 2878.94 -0.872702 -3.46581 0
M  V30 31498 S 2880.5 -0.623935 -4.34341 0
M  V30 31499 H 2877.31 -0.208535 -0.679731 0
M  V30 31500 H 2879.92 -1.1873 -1.55317 0
M  V30 31501 H 2878.62 -1.9194 -3.6275 0
M  V30 31502 H 2878.15 -0.238548 -3.92676 0
M  V30 31503 H 2880.17 0.521658 -4.9345 0
M  V30 31504 N 2879.34 1.41929 -0.685124 0
M  V30 31505 C 2880.3 2.29189 -0.0223035 0
M  V30 31506 C 2881.3 1.43851 0.718575 0
M  V30 31507 O 2882.49 1.65121 0.555029 0
M  V30 31508 C 2879.62 3.26541 0.978955 0
M  V30 31509 H 2880.82 2.89295 -0.790475 0
M  V30 31510 H 2878.37 1.49741 -0.448038 0
M  V30 31511 H 2879.1 2.71395 1.77526 0
M  V30 31512 H 2878.89 3.89498 0.450969 0
M  V30 31513 H 2880.38 3.91956 1.44084 0
M  V30 31514 N 2880.82 0.429152 1.51644 0
M  V30 31515 C 2881.78 -0.374686 2.26117 0
M  V30 31516 C 2882.78 -0.956691 1.29244 0
M  V30 31517 O 2883.97 -0.832425 1.53024 0
M  V30 31518 C 2881.1 -1.52932 3.04671 0
M  V30 31519 H 2882.29 0.277871 2.9861 0
M  V30 31520 H 2879.85 0.182124 1.55235 0
M  V30 31521 H 2880.58 -2.21817 2.36575 0
M  V30 31522 H 2880.37 -1.11826 3.75816 0
M  V30 31523 H 2881.86 -2.09745 3.61105 0
M  V30 31524 N 2882.29 -1.56783 0.160229 0
M  V30 31525 C 2883.24 -2.14008 -0.786423 0
M  V30 31526 C 2884.23 -1.07136 -1.20044 0
M  V30 31527 O 2885.42 -1.33285 -1.16466 0
M  V30 31528 C 2882.55 -2.77566 -2.02019 0
M  V30 31529 C 2881.64 -3.9158 -1.62867 0
M  V30 31530 N 2882.03 -4.96873 -0.946088 0
M  V30 31531 C 2880.32 -4.02534 -1.92047 0
M  V30 31532 C 2881.03 -5.7678 -0.754983 0
M  V30 31533 N 2880 -5.27999 -1.29298 0
M  V30 31534 H 2883.8 -2.92784 -0.255828 0
M  V30 31535 H 2881.32 -1.62349 -0.0408493 0
M  V30 31536 H 2883.31 -3.16933 -2.70849 0
M  V30 31537 H 2881.97 -2.00267 -2.55584 0
M  V30 31538 H 2882.99 -5.1435 -0.605365 0
M  V30 31539 H 2879.66 -3.36326 -2.47368 0
M  V30 31540 H 2881.05 -6.71553 -0.21602 0
M  V30 31541 N 2883.77 0.113531 -1.57191 0
M  V30 31542 C 2885.02 0.820349 -1.85139 0
M  V30 31543 C 2885.35 1.7962 -0.746111 0
M  V30 31544 O 2884.6 1.93938 0.262043 0
M  V30 31545 C 2884.9 1.59979 -3.19596 0
M  V30 31546 C 2884.57 0.76773 -4.44316 0
M  V30 31547 C 2883.23 0.538295 -4.7818 0
M  V30 31548 C 2885.58 0.188111 -5.2086 0
M  V30 31549 C 2882.91 -0.280923 -5.86027 0
M  V30 31550 C 2885.26 -0.618328 -6.29571 0
M  V30 31551 C 2883.93 -0.858028 -6.61962 0
M  V30 31552 H 2883.2 0.300187 -0.677472 0
M  V30 31553 H 2885.84 0.0825106 -1.91322 0
M  V30 31554 H 2884.15 2.40869 -3.09014 0
M  V30 31555 H 2885.85 2.15074 -3.38444 0
M  V30 31556 H 2882.44 0.956651 -4.17787 0
M  V30 31557 H 2886.62 0.352571 -4.95046 0
M  V30 31558 H 2881.88 -0.4758 -6.09546 0
M  V30 31559 H 2886.05 -1.07442 -6.88062 0
M  V30 31560 H 2883.68 -1.49464 -7.45362 0
M  V30 31561 N 2885.25 1.52854 0.383864 0
M  V30 31562 C 2886.48 1.72032 1.14947 0
M  V30 31563 C 2886.89 0.44099 1.83578 0
M  V30 31564 O 2886.25 -0.584895 1.72873 0
M  V30 31565 C 2886.3 2.87337 2.19363 0
M  V30 31566 O 2886.02 4.10318 1.53529 0
M  V30 31567 C 2887.52 3.18236 3.08611 0
M  V30 31568 H 2884.74 0.575852 0.344435 0
M  V30 31569 H 2887.29 1.99524 0.448362 0
M  V30 31570 H 2885.44 2.62291 2.851 0
M  V30 31571 H 2885.86 4.74756 2.22951 0
M  V30 31572 H 2887.33 4.02368 3.77895 0
M  V30 31573 H 2887.81 2.32833 3.72405 0
M  V30 31574 H 2888.41 3.4514 2.48512 0
M  V30 31575 N 2886.73 -0.642612 1.43904 0
M  V30 31576 C 2887.69 -1.73696 1.49541 0
M  V30 31577 C 2888.69 -1.56275 0.378803 0
M  V30 31578 O 2889.88 -1.61979 0.640978 0
M  V30 31579 C 2887.01 -3.12672 1.35826 0
M  V30 31580 H 2888.21 -1.70075 2.47011 0
M  V30 31581 H 2885.76 -0.855237 1.30826 0
M  V30 31582 H 2886.5 -3.21897 0.394051 0
M  V30 31583 H 2886.28 -3.26723 2.16782 0
M  V30 31584 H 2887.77 -3.92452 1.42727 0
M  V30 31585 N 2888.21 -1.30611 -0.881966 0
M  V30 31586 C 2889.14 -1.19823 -2.00411 0
M  V30 31587 C 2890.12 -0.0881836 -1.69871 0
M  V30 31588 O 2891.3 -0.270734 -1.92304 0
M  V30 31589 C 2888.43 -0.892389 -3.35639 0
M  V30 31590 C 2887.39 -1.9607 -3.80448 0
M  V30 31591 C 2886.71 -1.50779 -5.13001 0
M  V30 31592 C 2888.01 -3.3722 -3.98849 0
M  V30 31593 H 2889.71 -2.13703 -2.09694 0
M  V30 31594 H 2887.25 -1.02884 -1.00752 0
M  V30 31595 H 2889.21 -0.80357 -4.13667 0
M  V30 31596 H 2887.93 0.0820807 -3.26497 0
M  V30 31597 H 2886.59 -2.03921 -3.0465 0
M  V30 31598 H 2886.24 -0.521504 -5.00289 0
M  V30 31599 H 2885.94 -2.22238 -5.43952 0
M  V30 31600 H 2887.46 -1.43281 -5.93551 0
M  V30 31601 H 2888.88 -3.32111 -4.67306 0
M  V30 31602 H 2887.27 -4.06792 -4.41181 0
M  V30 31603 H 2888.34 -3.78889 -3.02608 0
M  V30 31604 N 2889.69 1.0947 -1.13376 0
M  V30 31605 C 2890.62 2.18124 -0.833306 0
M  V30 31606 C 2891.6 1.68834 0.20714 0
M  V30 31607 O 2892.78 1.94087 0.0661671 0
M  V30 31608 C 2889.91 3.46019 -0.298039 0
M  V30 31609 C 2888.87 4.0864 -1.27268 0
M  V30 31610 C 2888.19 5.31355 -0.597197 0
M  V30 31611 C 2889.49 4.51192 -2.63103 0
M  V30 31612 H 2891.19 2.43515 -1.74186 0
M  V30 31613 H 2888.73 1.17037 -0.838941 0
M  V30 31614 H 2890.68 4.21332 -0.0755184 0
M  V30 31615 H 2889.41 3.20149 0.645903 0
M  V30 31616 H 2888.07 3.35345 -1.48119 0
M  V30 31617 H 2887.72 5.01765 0.352205 0
M  V30 31618 H 2887.42 5.74206 -1.24744 0
M  V30 31619 H 2888.94 6.09392 -0.383947 0
M  V30 31620 H 2890.35 5.17732 -2.46223 0
M  V30 31621 H 2888.75 5.04926 -3.24299 0
M  V30 31622 H 2889.82 3.63615 -3.20799 0
M  V30 31623 N 2891.16 0.92719 1.2744 0
M  V30 31624 C 2892.39 0.58281 1.98209 0
M  V30 31625 C 2892.8 -0.843376 1.69363 0
M  V30 31626 O 2892.14 -1.57203 0.950408 0
M  V30 31627 C 2892.21 0.728227 3.52047 0
M  V30 31628 C 2891.87 2.12644 4.04514 0
M  V30 31629 C 2892.87 3.10056 4.17327 0
M  V30 31630 C 2890.55 2.44325 4.38874 0
M  V30 31631 C 2892.55 4.37257 4.63773 0
M  V30 31632 C 2890.23 3.71762 4.85012 0
M  V30 31633 C 2891.23 4.68041 4.9742 0
M  V30 31634 O 2890.92 5.93211 5.42546 0
M  V30 31635 H 2890.65 0.219679 0.63931 0
M  V30 31636 H 2893.21 1.24628 1.63269 0
M  V30 31637 H 2891.44 0.00764941 3.86699 0
M  V30 31638 H 2893.12 0.388977 4.04032 0
M  V30 31639 H 2893.89 2.86901 3.91041 0
M  V30 31640 H 2889.77 1.70128 4.28459 0
M  V30 31641 H 2893.31 5.1241 4.73373 0
M  V30 31642 H 2889.21 3.94735 5.10739 0
M  V30 31643 H 2889.98 5.96192 5.608 0
M  V30 31644 N 2892.64 -1.41564 0.692641 0
M  V30 31645 C 2893.6 -2.29174 0.0344577 0
M  V30 31646 C 2894.6 -1.4423 -0.710936 0
M  V30 31647 O 2895.79 -1.65413 -0.546264 0
M  V30 31648 C 2892.93 -3.27056 -0.961624 0
M  V30 31649 H 2894.12 -2.88872 0.805806 0
M  V30 31650 H 2891.67 -1.49501 0.455973 0
M  V30 31651 H 2892.41 -2.72332 -1.76084 0
M  V30 31652 H 2892.19 -3.89732 -0.430306 0
M  V30 31653 H 2893.68 -3.92715 -1.42003 0
M  V30 31654 N 2894.12 -0.437188 -1.51415 0
M  V30 31655 C 2895.03 0.380497 -2.31494 0
M  V30 31656 C 2896.05 1.02779 -1.40401 0
M  V30 31657 O 2897.22 1.0232 -1.73472 0
M  V30 31658 C 2894.29 1.46703 -3.14132 0
M  V30 31659 C 2893.35 0.839879 -4.21004 0
M  V30 31660 C 2892.58 1.87464 -4.99693 0
M  V30 31661 O 2892.8 3.09681 -4.79013 0
M  V30 31662 O 2891.74 1.46526 -5.83793 0
M  V30 31663 H 2895.56 -0.273236 -3.02468 0
M  V30 31664 H 2893.15 -0.199732 -1.48059 0
M  V30 31665 H 2895.03 2.09718 -3.65508 0
M  V30 31666 H 2893.71 2.10485 -2.45922 0
M  V30 31667 H 2892.61 0.171686 -3.73706 0
M  V30 31668 H 2893.95 0.245551 -4.91587 0
M  V30 31669 N 2895.6 1.56696 -0.168541 0
M  V30 31670 C 2896.85 1.95974 0.477198 0
M  V30 31671 C 2897.16 1.05707 1.64576 0
M  V30 31672 O 2898.37 1.34654 2.35755 0
M  V30 31673 C 2896.82 3.48456 0.900352 0
M  V30 31674 C 2896.43 4.47343 -0.242461 0
M  V30 31675 C 2898.17 3.96558 1.51467 0
M  V30 31676 C 2896.08 5.91061 0.200168 0
M  V30 31677 H 2895.01 0.731693 0.182048 0
M  V30 31678 H 2897.66 1.81701 -0.256329 0
M  V30 31679 H 2896.04 3.58138 1.68978 0
M  V30 31680 H 2897.22 4.49375 -1.01975 0
M  V30 31681 H 2895.53 4.09283 -0.766555 0
M  V30 31682 H 2898.13 5.01387 1.85783 0
M  V30 31683 H 2898.47 3.39336 2.41157 0
M  V30 31684 H 2899.01 3.89882 0.789733 0
M  V30 31685 H 2895.74 6.5215 -0.661889 0
M  V30 31686 H 2895.26 5.92343 0.942875 0
M  V30 31687 H 2896.94 6.43777 0.644975 0
M  V30 31688 N 2897.08 -0.105193 1.57249 0
M  V30 31689 C 2898.31 -0.823141 1.89494 0
M  V30 31690 C 2898.71 -1.73292 0.759371 0
M  V30 31691 O 2898.06 -1.81582 -0.27815 0
M  V30 31692 C 2898.12 -1.6976 3.16894 0
M  V30 31693 C 2897.78 -0.96069 4.46788 0
M  V30 31694 C 2898.78 -0.295127 5.19062 0
M  V30 31695 C 2896.46 -0.937767 4.93469 0
M  V30 31696 C 2898.46 0.383505 6.36245 0
M  V30 31697 C 2896.15 -0.255344 6.10566 0
M  V30 31698 C 2897.14 0.404123 6.81803 0
M  V30 31699 O 2896.83 1.07563 7.96672 0
M  V30 31700 H 2896.56 -0.241169 0.631517 0
M  V30 31701 H 2899.12 -0.0899294 2.05203 0
M  V30 31702 H 2897.35 -2.47279 2.97304 0
M  V30 31703 H 2899.04 -2.2912 3.3505 0
M  V30 31704 H 2899.8 -0.304363 4.84044 0
M  V30 31705 H 2895.68 -1.44051 4.37916 0
M  V30 31706 H 2899.23 0.898818 6.91785 0
M  V30 31707 H 2895.12 -0.243919 6.45039 0
M  V30 31708 H 2895.89 0.981498 8.12594 0
M  V30 31709 N 2898.55 -1.53055 -0.375752 0
M  V30 31710 C 2899.52 -1.78113 -1.44251 0
M  V30 31711 C 2900.52 -0.651354 -1.47017 0
M  V30 31712 O 2901.71 -0.919498 -1.47956 0
M  V30 31713 C 2898.84 -1.89396 -2.83447 0
M  V30 31714 H 2900.03 -2.73376 -1.23311 0
M  V30 31715 H 2897.59 -1.43978 -0.608287 0
M  V30 31716 H 2898.32 -0.961643 -3.09714 0
M  V30 31717 H 2898.11 -2.7156 -2.82839 0
M  V30 31718 H 2899.6 -2.1041 -3.60718 0
M  V30 31719 N 2900.03 0.634971 -1.44242 0
M  V30 31720 C 2901.31 1.39314 -1.37299 0
M  V30 31721 C 2901.69 2.11079 -0.0297903 0
M  V30 31722 O 2901.04 2.06061 0.987488 0
M  V30 31723 C 2901.25 2.36274 -2.56857 0
M  V30 31724 C 2902.6 2.99722 -3.00752 0
M  V30 31725 O 2903.62 2.466 -2.57034 0
M  V30 31726 O 2902.48 3.96081 -3.7654 0
M  V30 31727 H 2899.57 0.623315 -0.543514 0
M  V30 31728 H 2902.12 0.660349 -1.56325 0
M  V30 31729 H 2900.89 1.82318 -3.46231 0
M  V30 31730 H 2900.51 3.16977 -2.40024 0
M  V30 31731 N 2901.51 1.31076 0.875027 0
M  V30 31732 C 2902.46 1.183 1.98176 0
M  V30 31733 C 2903.43 0.0700215 1.65952 0
M  V30 31734 O 2904.61 0.241984 1.89259 0
M  V30 31735 C 2901.75 0.891082 3.33397 0
M  V30 31736 C 2900.87 2.0869 3.78249 0
M  V30 31737 C 2900 1.73221 5.02163 0
M  V30 31738 C 2899.04 2.89241 5.3945 0
M  V30 31739 N 2898.18 2.54001 6.54544 0
M  V30 31740 H 2903.02 2.12975 2.08436 0
M  V30 31741 H 2900.55 1.05949 1.02045 0
M  V30 31742 H 2902.51 0.70241 4.11244 0
M  V30 31743 H 2901.14 -0.0188232 3.22795 0
M  V30 31744 H 2900.19 2.38651 2.96226 0
M  V30 31745 H 2901.51 2.95543 4.01816 0
M  V30 31746 H 2900.66 1.50787 5.87663 0
M  V30 31747 H 2899.4 0.835525 4.8049 0
M  V30 31748 H 2898.4 3.12329 4.52471 0
M  V30 31749 H 2899.63 3.79611 5.63092 0
M  V30 31750 H 2897.57 1.66849 6.34427 0
M  V30 31751 H 2897.49 3.34384 6.78029 0
M  V30 31752 H 2898.76 2.34947 7.4325 0
M  V30 31753 N 2902.99 -1.08867 1.13955 0
M  V30 31754 C 2903.94 -2.1566 0.822168 0
M  V30 31755 C 2904.91 -1.6466 -0.218245 0
M  V30 31756 O 2906.09 -1.90591 -0.089214 0
M  V30 31757 C 2903.23 -3.43788 0.300632 0
M  V30 31758 C 2902.34 -4.08659 1.40079 0
M  V30 31759 C 2901.48 -5.24565 0.836989 0
M  V30 31760 C 2900.52 -5.81368 1.91515 0
M  V30 31761 N 2899.65 -6.88626 1.36887 0
M  V30 31762 H 2904.49 -2.4215 1.73688 0
M  V30 31763 H 2902.03 -1.18841 0.866899 0
M  V30 31764 H 2903.99 -4.17195 -0.0199209 0
M  V30 31765 H 2902.62 -3.17598 -0.577193 0
M  V30 31766 H 2901.67 -3.33059 1.83782 0
M  V30 31767 H 2902.98 -4.46901 2.21542 0
M  V30 31768 H 2902.14 -6.04892 0.468059 0
M  V30 31769 H 2900.88 -4.87699 -0.00865635 0
M  V30 31770 H 2899.88 -4.99698 2.29308 0
M  V30 31771 H 2901.11 -6.20293 2.7643 0
M  V30 31772 H 2899.05 -6.53729 0.545326 0
M  V30 31773 H 2898.97 -7.25669 2.11993 0
M  V30 31774 H 2900.24 -7.72696 1.02769 0
M  V30 31775 N 2904.47 -0.933936 -1.26946 0
M  V30 31776 C 2905.69 -0.593624 -1.98723 0
M  V30 31777 C 2906.12 0.822772 -1.69151 0
M  V30 31778 O 2905.47 1.55309 -0.935357 0
M  V30 31779 C 2905.52 -0.833604 -3.50832 0
M  V30 31780 O 2904.63 0.0978064 -4.12284 0
M  V30 31781 H 2903.97 -0.22786 -0.623679 0
M  V30 31782 H 2906.5 -1.25489 -1.61597 0
M  V30 31783 H 2906.51 -0.75163 -4.01017 0
M  V30 31784 H 2905.18 -1.86604 -3.71688 0
M  V30 31785 H 2903.76 -0.0346098 -3.72884 0
M  V30 31786 N 2905.94 1.41194 -0.700139 0
M  V30 31787 C 2906.88 2.28196 0.0129213 0
M  V30 31788 C 2907.86 1.42487 0.783342 0
M  V30 31789 O 2909.04 1.71912 0.773208 0
M  V30 31790 C 2906.17 3.22796 1.02569 0
M  V30 31791 C 2905.21 4.25079 0.347903 0
M  V30 31792 S 2906.05 5.27659 -0.913031 0
M  V30 31793 C 2907.2 6.25823 0.0980262 0
M  V30 31794 H 2907.43 2.88325 -0.724978 0
M  V30 31795 H 2904.97 1.46399 -0.49058 0
M  V30 31796 H 2906.93 3.77829 1.60485 0
M  V30 31797 H 2905.59 2.61754 1.73619 0
M  V30 31798 H 2904.78 4.91558 1.11297 0
M  V30 31799 H 2904.38 3.73665 -0.158296 0
M  V30 31800 H 2906.67 6.70809 0.949847 0
M  V30 31801 H 2907.62 7.06091 -0.532962 0
M  V30 31802 H 2908.02 5.62665 0.454845 0
M  V30 31803 N 2907.42 0.445212 1.51181 0
M  V30 31804 C 2908.7 -0.178931 1.9478 0
M  V30 31805 C 2909.08 -1.59374 1.38431 0
M  V30 31806 O 2908.43 -2.21158 0.57459 0
M  V30 31807 C 2908.64 -0.14865 3.48683 0
M  V30 31808 C 2909.99 -0.350346 4.23152 0
M  V30 31809 O 2911.01 -0.226412 3.5548 0
M  V30 31810 O 2909.87 -0.597798 5.43221 0
M  V30 31811 H 2906.96 -0.125716 0.817389 0
M  V30 31812 H 2909.51 0.503757 1.62051 0
M  V30 31813 H 2908.28 0.840157 3.82174 0
M  V30 31814 H 2907.9 -0.873911 3.87877 0
M  V30 31815 N 2908.9 -1.56605 0.176849 0
M  V30 31816 C 2910.18 -1.88744 -0.513332 0
M  V30 31817 C 2910.56 -1.0876 -1.80927 0
M  V30 31818 O 2909.91 -0.183167 -2.27765 0
M  V30 31819 C 2910.12 -3.40849 -0.749865 0
M  V30 31820 C 2911.46 -4.10703 -1.0774 0
M  V30 31821 O 2912.49 -3.46197 -0.838216 0
M  V30 31822 O 2911.35 -5.24677 -1.52892 0
M  V30 31823 H 2908.44 -0.783297 -0.265283 0
M  V30 31824 H 2910.99 -1.68324 0.215698 0
M  V30 31825 H 2909.76 -3.90947 0.166058 0
M  V30 31826 H 2909.38 -3.66899 -1.53201 0
M  V30 31827 N 2910.38 0.0968524 -1.57302 0
M  V30 31828 C 2911.31 1.14381 -1.9862 0
M  V30 31829 C 2912.32 1.36416 -0.888507 0
M  V30 31830 O 2913.51 1.35099 -1.16664 0
M  V30 31831 C 2910.61 2.49969 -2.28842 0
M  V30 31832 C 2909.79 2.48234 -3.60137 0
M  V30 31833 C 2908.84 3.65737 -3.78316 0
M  V30 31834 O 2907.87 3.48308 -4.50189 0
M  V30 31835 N 2909.07 4.85152 -3.1876 0
M  V30 31836 H 2911.84 0.792151 -2.89042 0
M  V30 31837 H 2909.4 0.285855 -1.59356 0
M  V30 31838 H 2911.39 3.27175 -2.38199 0
M  V30 31839 H 2909.96 2.77231 -1.44436 0
M  V30 31840 H 2909.18 1.56587 -3.61765 0
M  V30 31841 H 2910.47 2.44152 -4.46394 0
M  V30 31842 H 2909.87 5.02216 -2.60377 0
M  V30 31843 H 2908.42 5.59956 -3.33605 0
M  V30 31844 N 2911.86 1.53252 0.36763 0
M  V30 31845 C 2912.77 1.82502 1.47412 0
M  V30 31846 C 2913.78 0.71325 1.5871 0
M  V30 31847 O 2914.96 1.00309 1.74643 0
M  V30 31848 C 2912.02 2.00699 2.82703 0
M  V30 31849 C 2911.08 3.24601 2.8095 0
M  V30 31850 C 2910.32 3.41921 4.09787 0
M  V30 31851 O 2910.54 2.63581 5.05847 0
M  V30 31852 O 2909.47 4.35267 4.15724 0
M  V30 31853 H 2913.3 2.76502 1.25619 0
M  V30 31854 H 2910.89 1.38607 0.557535 0
M  V30 31855 H 2912.77 2.14252 3.62869 0
M  V30 31856 H 2911.44 1.09888 3.04477 0
M  V30 31857 H 2910.35 3.16473 1.99489 0
M  V30 31858 H 2911.68 4.15327 2.64129 0
M  V30 31859 N 2913.34 -0.627313 1.44577 0
M  V30 31860 C 2914.28 -1.73909 1.51737 0
M  V30 31861 C 2915.25 -1.62045 0.364774 0
M  V30 31862 O 2916.44 -1.81913 0.575535 0
M  V30 31863 C 2913.58 -3.12169 1.47121 0
M  V30 31864 C 2912.69 -3.34982 2.72784 0
M  V30 31865 C 2911.83 -4.63234 2.59976 0
M  V30 31866 C 2910.86 -4.79239 3.80784 0
M  V30 31867 N 2910 -5.98772 3.66629 0
M  V30 31868 H 2914.84 -1.67126 2.46725 0
M  V30 31869 H 2912.38 -0.815203 1.22445 0
M  V30 31870 H 2914.34 -3.92132 1.42436 0
M  V30 31871 H 2912.97 -3.17958 0.556984 0
M  V30 31872 H 2912.02 -2.48931 2.87641 0
M  V30 31873 H 2913.33 -3.42686 3.62447 0
M  V30 31874 H 2912.48 -5.51364 2.53145 0
M  V30 31875 H 2911.22 -4.57895 1.6788 0
M  V30 31876 H 2910.23 -3.89537 3.87996 0
M  V30 31877 H 2911.45 -4.8639 4.73922 0
M  V30 31878 H 2909.4 -5.94515 2.77287 0
M  V30 31879 H 2909.32 -6.07549 4.49911 0
M  V30 31880 H 2910.58 -6.89453 3.63696 0
M  V30 31881 N 2914.81 -1.31539 -0.868063 0
M  V30 31882 C 2916.23 -1.10237 -1.15412 0
M  V30 31883 C 2916.43 0.125912 -2.01106 0
M  V30 31884 O 2915.49 0.814691 -2.38996 0
M  V30 31885 C 2916.8 -2.37491 -1.84441 0
M  V30 31886 C 2918.35 -2.43119 -1.97134 0
M  V30 31887 C 2918.82 -3.70259 -2.69578 0
M  V30 31888 N 2920.31 -3.71164 -2.77113 0
M  V30 31889 C 2921.05 -4.66236 -3.33783 0
M  V30 31890 N 2920.54 -5.71666 -3.9137 0
M  V30 31891 N 2922.34 -4.53753 -3.31759 0
M  V30 31892 H 2914.49 -2.10312 -0.297072 0
M  V30 31893 H 2916.75 -0.927893 -0.194211 0
M  V30 31894 H 2916.46 -3.27218 -1.28924 0
M  V30 31895 H 2916.33 -2.47433 -2.84704 0
M  V30 31896 H 2918.72 -1.5386 -2.51815 0
M  V30 31897 H 2918.8 -2.3714 -0.959078 0
M  V30 31898 H 2918.44 -4.59885 -2.15564 0
M  V30 31899 H 2918.37 -3.73505 -3.71216 0
M  V30 31900 H 2920.86 -2.94953 -2.36244 0
M  V30 31901 H 2921.18 -6.40286 -4.32729 0
M  V30 31902 H 2919.52 -5.75437 -3.8974 0
M  V30 31903 H 2922.71 -3.70562 -2.8601 0
M  V30 31904 H 2922.89 -5.28023 -3.75627 0
M  V30 31905 N 2916.29 1.08262 -1.1453 0
M  V30 31906 C 2917.52 1.84956 -0.938414 0
M  V30 31907 C 2917.94 1.8111 0.508012 0
M  V30 31908 O 2917.3 1.19727 1.36144 0
M  V30 31909 C 2917.35 3.30349 -1.44574 0
M  V30 31910 O 2916.45 4.07422 -0.638816 0
M  V30 31911 H 2915.79 0.573062 -0.335404 0
M  V30 31912 H 2918.32 1.36635 -1.5229 0
M  V30 31913 H 2918.33 3.81191 -1.45456 0
M  V30 31914 H 2917.01 3.32463 -2.49882 0
M  V30 31915 H 2915.58 3.66293 -0.698865 0
M  V30 31916 N 2917.77 0.940655 1.26449 0
M  V30 31917 C 2918.7 0.467519 2.28772 0
M  V30 31918 C 2919.68 -0.478927 1.63219 0
M  V30 31919 O 2920.87 -0.380895 1.90428 0
M  V30 31920 C 2918 -0.268595 3.4626 0
M  V30 31921 C 2916.95 0.591246 4.23897 0
M  V30 31922 C 2916.28 -0.274797 5.33993 0
M  V30 31923 C 2917.58 1.86232 4.8797 0
M  V30 31924 H 2919.27 1.3227 2.68598 0
M  V30 31925 H 2916.82 0.637458 1.29122 0
M  V30 31926 H 2918.77 -0.610623 4.16952 0
M  V30 31927 H 2917.49 -1.15791 3.05385 0
M  V30 31928 H 2916.15 0.916161 3.54968 0
M  V30 31929 H 2915.8 -1.16345 4.8936 0
M  V30 31930 H 2915.5 0.297109 5.86848 0
M  V30 31931 H 2917.02 -0.612106 6.07524 0
M  V30 31932 H 2918.44 1.58757 5.5088 0
M  V30 31933 H 2916.83 2.37875 5.5094 0
M  V30 31934 H 2917.9 2.57402 4.10941 0
M  V30 31935 N 2919.25 -1.40821 0.707617 0
M  V30 31936 C 2920.21 -2.29125 0.0587627 0
M  V30 31937 C 2921.21 -1.44976 -0.695598 0
M  V30 31938 O 2922.4 -1.65983 -0.528689 0
M  V30 31939 C 2919.53 -3.28057 -0.926881 0
M  V30 31940 H 2920.73 -2.88001 0.8364 0
M  V30 31941 H 2918.28 -1.49009 0.471804 0
M  V30 31942 H 2919.01 -2.74185 -1.73186 0
M  V30 31943 H 2918.8 -3.90166 -0.388946 0
M  V30 31944 H 2920.29 -3.94199 -1.3783 0
M  V30 31945 N 2920.73 -0.453223 -1.50943 0
M  V30 31946 C 2921.97 0.107887 -2.02212 0
M  V30 31947 C 2922.3 1.41316 -1.33641 0
M  V30 31948 O 2921.56 1.90569 -0.445187 0
M  V30 31949 C 2921.85 0.357881 -3.55604 0
M  V30 31950 C 2921.52 -0.863505 -4.42554 0
M  V30 31951 C 2920.18 -1.19842 -4.66038 0
M  V30 31952 C 2922.53 -1.67755 -4.93465 0
M  V30 31953 C 2919.86 -2.34777 -5.37677 0
M  V30 31954 C 2922.21 -2.81803 -5.66365 0
M  V30 31955 C 2920.88 -3.1573 -5.88108 0
M  V30 31956 H 2920.15 0.0394786 -0.739948 0
M  V30 31957 H 2922.8 -0.603662 -1.81737 0
M  V30 31958 H 2921.1 1.15149 -3.74497 0
M  V30 31959 H 2922.8 0.805712 -3.92822 0
M  V30 31960 H 2919.39 -0.592553 -4.24484 0
M  V30 31961 H 2923.57 -1.432 -4.75192 0
M  V30 31962 H 2918.83 -2.61358 -5.52722 0
M  V30 31963 H 2923 -3.4524 -6.048 0
M  V30 31964 H 2920.63 -4.049 -6.43397 0
M  V30 31965 N 2922.2 1.56509 -0.185151 0
M  V30 31966 C 2923.11 2.22225 0.751869 0
M  V30 31967 C 2924.13 1.21819 1.24242 0
M  V30 31968 O 2925.31 1.54525 1.29166 0
M  V30 31969 C 2922.37 2.86096 1.95832 0
M  V30 31970 C 2921.43 4.01743 1.5133 0
M  V30 31971 C 2920.66 4.62558 2.66225 0
M  V30 31972 O 2920.89 4.2228 3.83452 0
M  V30 31973 O 2919.82 5.52196 2.39507 0
M  V30 31974 H 2923.65 3.02886 0.22225 0
M  V30 31975 H 2921.23 1.49336 0.0436878 0
M  V30 31976 H 2923.11 3.26541 2.66362 0
M  V30 31977 H 2921.79 2.08422 2.47673 0
M  V30 31978 H 2920.7 3.6594 0.777091 0
M  V30 31979 H 2922.03 4.81051 1.04166 0
M  V30 31980 N 2923.68 -0.0885089 1.57351 0
M  V30 31981 C 2924.59 -1.12512 2.05859 0
M  V30 31982 C 2925.61 -1.4345 0.984783 0
M  V30 31983 O 2926.78 -1.53961 1.29839 0
M  V30 31984 C 2923.85 -2.42391 2.47886 0
M  V30 31985 C 2922.91 -2.18576 3.6949 0
M  V30 31986 C 2922.14 -3.42261 4.09503 0
M  V30 31987 O 2922.37 -4.50749 3.49544 0
M  V30 31988 O 2921.3 -3.3146 5.02412 0
M  V30 31989 H 2925.13 -0.743094 2.94469 0
M  V30 31990 H 2922.71 -0.301481 1.46327 0
M  V30 31991 H 2924.59 -3.18857 2.75515 0
M  V30 31992 H 2923.27 -2.80007 1.62412 0
M  V30 31993 H 2922.17 -1.39869 3.46969 0
M  V30 31994 H 2923.51 -1.85849 4.55764 0
M  V30 31995 N 2925.16 -1.53445 -0.359498 0
M  V30 31996 C 2926.41 -1.69586 -1.09932 0
M  V30 31997 C 2926.73 -0.453404 -1.89656 0
M  V30 31998 O 2926 0.532597 -1.88521 0
M  V30 31999 H 2924.58 -0.625192 -0.408832 0
M  V30 32000 H 2927.24 -1.90653 -0.404637 0
M  V30 32001 H 2926.34 -2.55967 -1.7857 0
M  V30 32002 N 2926.64 0.619637 -1.44908 0
M  V30 32003 C 2927.86 1.4108 -1.52024 0
M  V30 32004 C 2928.29 1.87503 -0.149793 0
M  V30 32005 O 2927.65 1.59428 0.863275 0
M  V30 32006 C 2927.69 2.59951 -2.49916 0
M  V30 32007 O 2926.8 3.60177 -2.00863 0
M  V30 32008 H 2926.14 0.421675 -0.512919 0
M  V30 32009 H 2928.67 0.755249 -1.9015 0
M  V30 32010 H 2928.68 3.0735 -2.68329 0
M  V30 32011 H 2927.35 2.25509 -3.49454 0
M  V30 32012 H 2925.93 3.1951 -1.92271 0
M  V30 32013 N 2928.12 1.31997 0.861075 0
M  V30 32014 C 2929.05 1.16219 1.97549 0
M  V30 32015 C 2930.06 0.0988813 1.62499 0
M  V30 32016 O 2931.25 0.347231 1.7509 0
M  V30 32017 C 2928.35 0.755365 3.30375 0
M  V30 32018 C 2927.52 1.90559 3.93708 0
M  V30 32019 C 2926.58 1.48337 5.04859 0
M  V30 32020 O 2925.61 2.1944 5.252 0
M  V30 32021 N 2926.81 0.375758 5.79283 0
M  V30 32022 H 2929.58 2.12212 2.11628 0
M  V30 32023 H 2927.14 1.24449 1.03557 0
M  V30 32024 H 2929.13 0.455435 4.02129 0
M  V30 32025 H 2927.7 -0.113214 3.12395 0
M  V30 32026 H 2926.92 2.37237 3.14821 0
M  V30 32027 H 2928.21 2.67579 4.32757 0
M  V30 32028 H 2927.6 -0.216185 5.65287 0
M  V30 32029 H 2926.16 0.135404 6.51659 0
M  V30 32030 N 2929.59 -1.07653 1.15103 0
M  V30 32031 C 2930.82 -1.84455 0.948209 0
M  V30 32032 C 2931.24 -1.81377 -0.498401 0
M  V30 32033 O 2930.6 -1.20447 -1.35507 0
M  V30 32034 C 2930.65 -3.29578 1.46324 0
M  V30 32035 O 2929.75 -4.07078 0.660414 0
M  V30 32036 H 2929.1 -0.571275 0.338438 0
M  V30 32037 H 2931.63 -1.35825 1.53012 0
M  V30 32038 H 2931.64 -3.80414 1.47475 0
M  V30 32039 H 2930.31 -3.31134 2.51641 0
M  V30 32040 H 2928.89 -3.65917 0.718281 0
M  V30 32041 N 2931.07 -0.947348 -1.25949 0
M  V30 32042 C 2932.3 -0.615162 -1.97543 0
M  V30 32043 C 2932.72 0.811191 -1.70485 0
M  V30 32044 O 2932.07 1.54168 -0.976647 0
M  V30 32045 C 2932.12 -0.85539 -3.51234 0
M  V30 32046 O 2931.84 -2.22565 -3.77355 0
M  V30 32047 C 2933.35 -0.534592 -4.40065 0
M  V30 32048 H 2930.57 -0.231274 -0.629884 0
M  V30 32049 H 2933.11 -1.26974 -1.60306 0
M  V30 32050 H 2931.26 -0.247334 -3.8661 0
M  V30 32051 H 2931.68 -2.29031 -4.71853 0
M  V30 32052 H 2933.15 -0.753264 -5.46836 0
M  V30 32053 H 2933.63 0.530625 -4.35983 0
M  V30 32054 H 2934.24 -1.12165 -4.10243 0
M  V30 32055 N 2932.55 1.40444 -0.715075 0
M  V30 32056 C 2933.78 2.05209 -0.263995 0
M  V30 32057 C 2934.19 1.53873 1.094 0
M  V30 32058 O 2933.55 0.695094 1.68744 0
M  V30 32059 C 2933.6 3.60738 -0.234608 0
M  V30 32060 O 2933.32 4.10179 -1.53898 0
M  V30 32061 C 2934.82 4.42676 0.235086 0
M  V30 32062 H 2932.04 0.660405 -0.118771 0
M  V30 32063 H 2934.59 1.79862 -0.973139 0
M  V30 32064 H 2932.74 3.85056 0.425496 0
M  V30 32065 H 2933.16 5.0437 -1.43912 0
M  V30 32066 H 2934.63 5.51621 0.204501 0
M  V30 32067 H 2935.11 4.2022 1.27716 0
M  V30 32068 H 2935.71 4.23464 -0.394723 0
M  V30 32069 N 2934.03 0.461222 1.507 0
M  V30 32070 C 2935.28 -0.0987923 2.01458 0
M  V30 32071 C 2935.59 -1.4167 1.34866 0
M  V30 32072 O 2936.8 -2.06108 1.76725 0
M  V30 32073 C 2935.25 -0.226585 3.59186 0
M  V30 32074 C 2934.86 1.08231 4.3473 0
M  V30 32075 C 2936.6 -0.739087 4.18016 0
M  V30 32076 C 2934.51 0.91885 5.84218 0
M  V30 32077 H 2933.44 -0.0406958 0.752901 0
M  V30 32078 H 2936.09 0.59462 1.73599 0
M  V30 32079 H 2934.47 -0.983554 3.83591 0
M  V30 32080 H 2935.65 1.84946 4.22056 0
M  V30 32081 H 2933.96 1.52516 3.87463 0
M  V30 32082 H 2936.56 -0.878254 5.27438 0
M  V30 32083 H 2936.9 -1.72786 3.78749 0
M  V30 32084 H 2937.44 -0.039777 3.9778 0
M  V30 32085 H 2934.18 1.8807 6.27941 0
M  V30 32086 H 2933.7 0.191907 5.99493 0
M  V30 32087 H 2935.37 0.581518 6.44381 0
M  V30 32088 N 2935.51 -1.56408 0.193449 0
M  V30 32089 C 2936.73 -2.02358 -0.454517 0
M  V30 32090 C 2937.16 -1.07271 -1.54514 0
M  V30 32091 O 2936.51 -0.055928 -1.81214 0
M  V30 32092 C 2936.56 -3.46761 -0.989408 0
M  V30 32093 O 2935.67 -3.54787 -2.10238 0
M  V30 32094 H 2935.01 -0.655419 -0.106405 0
M  V30 32095 H 2937.54 -2.02331 0.303842 0
M  V30 32096 H 2937.55 -3.86518 -1.30643 0
M  V30 32097 H 2936.22 -4.15461 -0.19101 0
M  V30 32098 H 2934.8 -3.26903 -1.79413 0
M  V30 32099 N 2936.98 0.0801629 -1.57396 0
M  V30 32100 C 2938.21 0.797875 -1.91439 0
M  V30 32101 C 2938.63 1.70748 -0.789105 0
M  V30 32102 O 2937.99 1.79447 0.258539 0
M  V30 32103 C 2938.04 1.57461 -3.24405 0
M  V30 32104 O 2937.14 2.68468 -3.13047 0
M  V30 32105 H 2936.49 0.218232 -0.627113 0
M  V30 32106 H 2939.02 0.0509131 -2.04537 0
M  V30 32107 H 2939.03 1.95565 -3.58076 0
M  V30 32108 H 2937.7 0.907157 -4.05886 0
M  V30 32109 H 2936.28 2.33282 -2.90919 0
M  V30 32110 N 2938.46 1.53634 0.351355 0
M  V30 32111 C 2939.39 1.84057 1.43684 0
M  V30 32112 C 2940.37 0.6951 1.55249 0
M  V30 32113 O 2941.56 0.946287 1.69585 0
M  V30 32114 C 2938.69 2.0432 2.80839 0
M  V30 32115 C 2937.64 3.20122 2.84088 0
M  V30 32116 C 2936.97 3.25703 4.24054 0
M  V30 32117 C 2938.27 4.58404 2.50326 0
M  V30 32118 H 2939.96 2.74963 1.18473 0
M  V30 32119 H 2937.51 1.32304 0.568486 0
M  V30 32120 H 2939.46 2.24187 3.56817 0
M  V30 32121 H 2938.19 1.10137 3.07469 0
M  V30 32122 H 2936.84 3.00098 2.10563 0
M  V30 32123 H 2936.49 2.29131 4.47781 0
M  V30 32124 H 2936.19 4.03516 4.2714 0
M  V30 32125 H 2937.72 3.47771 5.01884 0
M  V30 32126 H 2939.13 4.78337 3.16017 0
M  V30 32127 H 2937.53 5.38563 2.64708 0
M  V30 32128 H 2938.6 4.62545 1.45534 0
M  V30 32129 N 2939.94 -0.611943 1.45234 0
M  V30 32130 C 2941.17 -1.40272 1.5277 0
M  V30 32131 C 2941.59 -1.87421 0.159734 0
M  V30 32132 O 2940.95 -1.59883 -0.854808 0
M  V30 32133 C 2941 -2.58622 2.51291 0
M  V30 32134 O 2940.1 -3.59107 2.0277 0
M  V30 32135 H 2939.44 -0.418949 0.515148 0
M  V30 32136 H 2941.97 -0.745154 1.90548 0
M  V30 32137 H 2941.98 -3.05922 2.69955 0
M  V30 32138 H 2940.66 -2.23653 3.50645 0
M  V30 32139 H 2939.23 -3.18485 1.93963 0
M  V30 32140 N 2941.42 -1.32452 -0.854063 0
M  V30 32141 C 2942.33 -1.23437 -1.995 0
M  V30 32142 C 2943.34 -0.147858 -1.73371 0
M  V30 32143 O 2944.52 -0.368644 -1.97997 0
M  V30 32144 C 2941.59 -0.958387 -3.3319 0
M  V30 32145 C 2940.65 -2.1334 -3.72538 0
M  V30 32146 C 2939.88 -1.87049 -4.99848 0
M  V30 32147 O 2940.1 -0.813338 -5.64571 0
M  V30 32148 O 2939.04 -2.73171 -5.36341 0
M  V30 32149 H 2942.86 -2.19353 -2.10042 0
M  V30 32150 H 2940.45 -1.12348 -0.984804 0
M  V30 32151 H 2942.33 -0.820991 -4.13325 0
M  V30 32152 H 2941 -0.0293868 -3.23687 0
M  V30 32153 H 2939.91 -2.32627 -2.92977 0
M  V30 32154 H 2941.24 -3.04521 -3.86688 0
M  V30 32155 N 2942.9 1.07041 -1.15672 0
M  V30 32156 C 2943.84 2.14324 -0.856374 0
M  V30 32157 C 2944.81 1.64986 0.192022 0
M  V30 32158 O 2946 1.90709 0.0588813 0
M  V30 32159 C 2943.14 3.43266 -0.355288 0
M  V30 32160 C 2942.25 4.06379 -1.46562 0
M  V30 32161 C 2941.39 5.23167 -0.920337 0
M  V30 32162 C 2940.43 5.78247 -2.00739 0
M  V30 32163 N 2939.56 6.86361 -1.47825 0
M  V30 32164 H 2944.4 2.39356 -1.77518 0
M  V30 32165 H 2941.94 1.17447 -0.885696 0
M  V30 32166 H 2943.9 4.17174 -0.0464537 0
M  V30 32167 H 2942.53 3.18476 0.526593 0
M  V30 32168 H 2941.58 3.30093 -1.89058 0
M  V30 32169 H 2942.89 4.4332 -2.28624 0
M  V30 32170 H 2942.05 6.04071 -0.564233 0
M  V30 32171 H 2940.79 4.87651 -0.0689335 0
M  V30 32172 H 2939.79 4.95986 -2.37229 0
M  V30 32173 H 2941.02 6.15817 -2.86263 0
M  V30 32174 H 2938.96 6.52779 -0.64926 0
M  V30 32175 H 2938.88 7.22204 -2.23511 0
M  V30 32176 H 2940.15 7.70963 -1.15049 0
M  V30 32177 N 2944.38 0.954014 1.25445 0
M  V30 32178 C 2945.6 0.625164 1.97754 0
M  V30 32179 C 2946.03 -0.795757 1.70439 0
M  V30 32180 O 2945.38 -1.53801 0.959947 0
M  V30 32181 C 2945.43 0.889313 3.49462 0
M  V30 32182 O 2944.54 -0.0322032 4.12387 0
M  V30 32183 H 2943.88 0.237753 0.619975 0
M  V30 32184 H 2946.41 1.28044 1.5958 0
M  V30 32185 H 2946.42 0.815333 3.9977 0
M  V30 32186 H 2945.09 1.92493 3.68672 0
M  V30 32187 H 2943.67 0.093928 3.72782 0
M  V30 32188 N 2945.85 -1.40063 0.722513 0
M  V30 32189 C 2946.8 -2.3068 0.0744144 0
M  V30 32190 C 2947.77 -1.48557 -0.742978 0
M  V30 32191 O 2948.96 -1.77277 -0.705505 0
M  V30 32192 C 2946.1 -3.34815 -0.836233 0
M  V30 32193 C 2945.21 -4.31999 -0.00757069 0
M  V30 32194 C 2944.34 -5.23202 -0.918336 0
M  V30 32195 C 2943.38 -6.12042 -0.0841763 0
M  V30 32196 N 2942.52 -6.95641 -0.950193 0
M  V30 32197 H 2947.36 -2.85536 0.852844 0
M  V30 32198 H 2944.9 -1.40606 0.432247 0
M  V30 32199 H 2946.85 -3.93767 -1.37853 0
M  V30 32200 H 2945.48 -2.81445 -1.58077 0
M  V30 32201 H 2944.54 -3.74771 0.651994 0
M  V30 32202 H 2945.85 -4.94704 0.637947 0
M  V30 32203 H 2945 -5.87119 -1.52892 0
M  V30 32204 H 2943.74 -4.60789 -1.59766 0
M  V30 32205 H 2942.75 -5.47149 0.539296 0
M  V30 32206 H 2943.97 -6.76517 0.591747 0
M  V30 32207 H 2941.92 -6.35809 -1.61504 0
M  V30 32208 H 2941.83 -7.55138 -0.360872 0
M  V30 32209 H 2943.1 -7.64 -1.54674 0
M  V30 32210 N 2947.33 -0.469207 -1.50453 0
M  V30 32211 C 2948.24 0.331308 -2.32249 0
M  V30 32212 C 2949.26 0.997782 -1.42549 0
M  V30 32213 O 2950.43 0.986169 -1.75604 0
M  V30 32214 C 2947.5 1.40007 -3.17173 0
M  V30 32215 C 2946.56 0.750389 -4.22691 0
M  V30 32216 C 2945.79 1.76822 -5.03557 0
M  V30 32217 O 2946.02 2.99451 -4.85474 0
M  V30 32218 O 2944.95 1.34109 -5.86769 0
M  V30 32219 H 2948.78 -0.337332 -3.01821 0
M  V30 32220 H 2946.36 -0.231092 -1.47602 0
M  V30 32221 H 2948.24 2.01918 -3.69875 0
M  V30 32222 H 2946.92 2.05221 -2.50332 0
M  V30 32223 H 2945.82 0.0923789 -3.73986 0
M  V30 32224 H 2947.16 0.141223 -4.91997 0
M  V30 32225 N 2948.81 1.56303 -0.201741 0
M  V30 32226 C 2949.72 2.2301 0.728256 0
M  V30 32227 C 2950.74 1.2313 1.22943 0
M  V30 32228 O 2951.91 1.55886 1.2752 0
M  V30 32229 C 2948.98 2.88157 1.92787 0
M  V30 32230 C 2948.04 4.03326 1.47061 0
M  V30 32231 C 2947.27 4.65356 2.61304 0
M  V30 32232 O 2947.49 4.26323 3.78952 0
M  V30 32233 O 2946.43 5.54705 2.33637 0
M  V30 32234 H 2950.25 3.03104 0.190113 0
M  V30 32235 H 2947.84 1.49374 0.0278463 0
M  V30 32236 H 2949.72 3.29348 2.62884 0
M  V30 32237 H 2948.4 2.11037 2.45449 0
M  V30 32238 H 2947.3 3.66744 0.738234 0
M  V30 32239 H 2948.64 4.82129 0.990581 0
M  V30 32240 N 2950.29 -0.0718147 1.57436 0
M  V30 32241 C 2951.52 -0.783898 1.91475 0
M  V30 32242 C 2951.93 -1.7112 0.797699 0
M  V30 32243 O 2951.29 -1.81058 -0.228957 0
M  V30 32244 C 2951.34 -1.57755 3.25262 0
M  V30 32245 O 2951.06 -0.68752 4.32672 0
M  V30 32246 C 2952.56 -2.39063 3.73314 0
M  V30 32247 H 2949.78 -0.222874 0.632905 0
M  V30 32248 H 2952.32 -0.0420903 2.04457 0
M  V30 32249 H 2950.48 -2.27164 3.13808 0
M  V30 32250 H 2950.89 -1.23953 5.09643 0
M  V30 32251 H 2952.37 -2.90208 4.69557 0
M  V30 32252 H 2952.84 -3.18586 3.02324 0
M  V30 32253 H 2953.45 -1.74811 3.87713 0
M  V30 32254 N 2951.77 -1.53818 -0.343203 0
M  V30 32255 C 2953.01 -1.70743 -1.08127 0
M  V30 32256 C 2953.33 -0.473494 -1.89164 0
M  V30 32257 O 2952.6 0.512571 -1.89075 0
M  V30 32258 H 2951.18 -0.629493 -0.402178 0
M  V30 32259 H 2953.85 -1.91072 -0.384393 0
M  V30 32260 H 2952.94 -2.57847 -1.75845 0
M  V30 32261 N 2953.24 0.604233 -1.45557 0
M  V30 32262 C 2954.49 1.35925 -1.49021 0
M  V30 32263 C 2954.81 1.95117 -0.137443 0
M  V30 32264 O 2956.01 2.71454 -0.0497509 0
M  V30 32265 C 2954.47 2.46234 -2.62482 0
M  V30 32266 C 2954.08 1.9344 -4.04085 0
M  V30 32267 C 2955.82 3.23215 -2.75196 0
M  V30 32268 C 2953.73 3.01251 -5.08922 0
M  V30 32269 H 2952.66 0.510897 -0.554527 0
M  V30 32270 H 2955.31 0.647232 -1.71707 0
M  V30 32271 H 2953.69 3.20136 -2.33085 0
M  V30 32272 H 2954.86 1.26224 -4.43175 0
M  V30 32273 H 2953.18 1.29194 -3.95851 0
M  V30 32274 H 2955.78 4.03634 -3.5069 0
M  V30 32275 H 2956.12 3.74434 -1.81947 0
M  V30 32276 H 2956.65 2.56413 -3.04134 0
M  V30 32277 H 2953.39 2.54944 -6.0389 0
M  V30 32278 H 2952.91 3.67022 -4.74399 0
M  V30 32279 H 2954.59 3.65575 -5.3382 0
M  V30 32280 N 2954.72 1.32903 0.847027 0
M  V30 32281 C 2955.95 1.27059 1.63923 0
M  V30 32282 C 2956.37 -0.157103 1.87443 0
M  V30 32283 O 2955.73 -1.11103 1.43268 0
M  V30 32284 C 2955.78 2.04318 2.9713 0
M  V30 32285 O 2954.88 1.3962 3.88046 0
M  V30 32286 H 2954.22 0.437523 0.49947 0
M  V30 32287 H 2956.75 1.75338 1.0544 0
M  V30 32288 H 2956.76 2.14778 3.46892 0
M  V30 32289 H 2955.44 3.08133 2.79333 0
M  V30 32290 H 2954.01 1.37756 3.46522 0
M  V30 32291 N 2956.2 -1.06426 1.16238 0
M  V30 32292 C 2957.13 -2.15838 0.890845 0
M  V30 32293 C 2958.11 -1.69324 -0.162303 0
M  V30 32294 O 2959.3 -1.94194 -0.014685 0
M  V30 32295 C 2956.43 -3.45107 0.389675 0
M  V30 32296 C 2955.38 -4.05122 1.38058 0
M  V30 32297 C 2954.71 -5.29584 0.737867 0
M  V30 32298 C 2956.01 -4.44058 2.74973 0
M  V30 32299 H 2957.7 -2.38811 1.80582 0
M  V30 32300 H 2955.25 -1.14772 0.869677 0
M  V30 32301 H 2957.2 -4.20984 0.187201 0
M  V30 32302 H 2955.92 -3.21749 -0.560794 0
M  V30 32303 H 2954.58 -3.313 1.56958 0
M  V30 32304 H 2954.23 -5.02523 -0.219047 0
M  V30 32305 H 2953.93 -5.70697 1.39924 0
M  V30 32306 H 2955.45 -6.08159 0.545381 0
M  V30 32307 H 2956.87 -5.11022 2.59864 0
M  V30 32308 H 2955.26 -4.9615 3.37572 0
M  V30 32309 H 2956.33 -3.54982 3.30327 0
M  V30 32310 N 2957.68 -0.960653 -1.24937 0
M  V30 32311 C 2958.61 -0.442976 -2.24879 0
M  V30 32312 C 2959.62 0.444437 -1.56616 0
M  V30 32313 O 2960.81 0.251745 -1.76716 0
M  V30 32314 C 2957.91 0.380477 -3.36757 0
M  V30 32315 C 2957.09 -0.49536 -4.34586 0
M  V30 32316 C 2956.14 0.270902 -5.25502 0
M  V30 32317 O 2955.17 -0.332761 -5.68226 0
M  V30 32318 N 2956.37 1.56239 -5.59079 0
M  V30 32319 H 2959.14 -1.30223 -2.6993 0
M  V30 32320 H 2956.7 -0.831684 -1.38905 0
M  V30 32321 H 2958.69 0.900961 -3.94544 0
M  V30 32322 H 2957.26 1.14062 -2.91047 0
M  V30 32323 H 2956.48 -1.19689 -3.75591 0
M  V30 32324 H 2957.77 -1.09294 -4.96923 0
M  V30 32325 H 2957.17 2.07466 -5.26283 0
M  V30 32326 H 2955.72 2.02871 -6.19424 0
M  V30 32327 N 2959.16 1.39677 -0.729931 0
M  V30 32328 C 2960.43 1.94552 -0.202184 0
M  V30 32329 C 2960.81 1.66709 1.29504 0
M  V30 32330 O 2960.16 0.992553 2.05817 0
M  V30 32331 C 2960.37 3.44947 -0.53034 0
M  V30 32332 C 2961.72 4.21913 -0.476882 0
M  V30 32333 O 2962.74 3.53122 -0.467234 0
M  V30 32334 O 2961.6 5.44501 -0.466965 0
M  V30 32335 H 2958.7 0.826251 -0.0351789 0
M  V30 32336 H 2961.24 1.49205 -0.808444 0
M  V30 32337 H 2960.01 3.58627 -1.56532 0
M  V30 32338 H 2959.64 3.97461 0.10515 0
M  V30 32339 N 2960.63 0.47718 1.50202 0
M  V30 32340 C 2961.56 -0.303605 2.31518 0
M  V30 32341 C 2962.55 -0.984728 1.38698 0
M  V30 32342 O 2963.73 -0.980728 1.67617 0
M  V30 32343 C 2960.86 -1.38244 3.186 0
M  V30 32344 C 2959.81 -0.822572 4.20021 0
M  V30 32345 C 2959.14 -2.00015 4.95881 0
M  V30 32346 C 2960.44 0.170277 5.22022 0
M  V30 32347 H 2962.13 0.37508 2.97041 0
M  V30 32348 H 2959.68 0.181828 1.42847 0
M  V30 32349 H 2961.63 -1.93619 3.74286 0
M  V30 32350 H 2960.36 -2.08998 2.50973 0
M  V30 32351 H 2959.02 -0.290749 3.65445 0
M  V30 32352 H 2958.66 -2.69481 4.24722 0
M  V30 32353 H 2958.36 -1.63173 5.64489 0
M  V30 32354 H 2959.89 -2.55869 5.54404 0
M  V30 32355 H 2961.3 -0.294506 5.72543 0
M  V30 32356 H 2959.7 0.453286 5.98386 0
M  V30 32357 H 2960.77 1.09416 4.72394 0
M  V30 32358 N 2962.11 -1.56194 0.210027 0
M  V30 32359 C 2963.04 -2.2277 -0.699707 0
M  V30 32360 C 2964.02 -1.19562 -1.20991 0
M  V30 32361 O 2965.21 -1.48114 -1.25602 0
M  V30 32362 C 2962.34 -2.89867 -1.91297 0
M  V30 32363 C 2961.29 -3.99447 -1.53708 0
M  V30 32364 C 2960.62 -4.53782 -2.82818 0
M  V30 32365 C 2961.92 -5.17092 -0.735746 0
M  V30 32366 H 2963.61 -2.9905 -0.144663 0
M  V30 32367 H 2961.16 -1.43839 -0.0681392 0
M  V30 32368 H 2963.11 -3.35129 -2.55474 0
M  V30 32369 H 2961.84 -2.11015 -2.49279 0
M  V30 32370 H 2960.49 -3.54899 -0.918829 0
M  V30 32371 H 2960.14 -3.71675 -3.3892 0
M  V30 32372 H 2959.84 -5.27731 -2.58406 0
M  V30 32373 H 2961.37 -5.01755 -3.47957 0
M  V30 32374 H 2962.78 -5.58806 -1.28095 0
M  V30 32375 H 2961.18 -5.97201 -0.589167 0
M  V30 32376 H 2962.25 -4.84202 0.260089 0
M  V30 32377 N 2963.59 0.0634645 -1.57472 0
M  V30 32378 C 2964.52 1.07469 -2.07298 0
M  V30 32379 C 2965.5 1.39858 -0.968186 0
M  V30 32380 O 2966.69 1.4934 -1.24141 0
M  V30 32381 C 2963.82 2.38577 -2.52385 0
M  V30 32382 C 2962.77 2.2052 -3.66817 0
M  V30 32383 C 2962.1 3.57085 -3.97988 0
M  V30 32384 C 2963.4 1.61956 -4.96556 0
M  V30 32385 H 2965.09 0.66004 -2.92034 0
M  V30 32386 H 2962.64 0.316049 -1.40489 0
M  V30 32387 H 2964.59 3.09619 -2.85857 0
M  V30 32388 H 2963.31 2.82037 -1.64689 0
M  V30 32389 H 2961.97 1.51918 -3.33641 0
M  V30 32390 H 2961.62 3.98131 -3.0741 0
M  V30 32391 H 2961.32 3.4584 -4.75046 0
M  V30 32392 H 2962.84 4.29544 -4.33963 0
M  V30 32393 H 2964.26 2.22873 -5.28205 0
M  V30 32394 H 2962.66 1.61384 -5.77992 0
M  V30 32395 H 2963.73 0.581834 -4.81397 0
M  V30 32396 N 2965.07 1.53998 0.33504 0
M  V30 32397 C 2965.98 1.85587 1.43508 0
M  V30 32398 C 2966.99 0.746754 1.57161 0
M  V30 32399 O 2968.17 1.03991 1.72476 0
M  V30 32400 C 2965.24 2.0665 2.78382 0
M  V30 32401 C 2964.3 3.30487 2.74001 0
M  V30 32402 C 2963.53 3.50536 4.02443 0
M  V30 32403 O 2963.75 2.74251 5.00142 0
M  V30 32404 O 2962.69 4.43987 4.06398 0
M  V30 32405 H 2966.51 2.79105 1.19726 0
M  V30 32406 H 2964.1 1.39758 0.528009 0
M  V30 32407 H 2965.98 2.21901 3.58243 0
M  V30 32408 H 2964.65 1.16322 3.02078 0
M  V30 32409 H 2963.56 3.20633 1.92731 0
M  V30 32410 H 2964.89 4.20837 2.5526 0
M  V30 32411 N 2966.55 -0.596505 1.45875 0
M  V30 32412 C 2967.8 -1.35133 1.4974 0
M  V30 32413 C 2968.11 -1.95041 0.147789 0
M  V30 32414 O 2969.31 -2.71424 0.0641461 0
M  V30 32415 C 2967.77 -2.44839 2.63784 0
M  V30 32416 C 2967.38 -1.91294 4.05106 0
M  V30 32417 C 2969.12 -3.21751 2.76906 0
M  V30 32418 C 2967.03 -2.98548 5.10513 0
M  V30 32419 H 2965.96 -0.507949 0.557228 0
M  V30 32420 H 2968.61 -0.638117 1.72047 0
M  V30 32421 H 2966.99 -3.18896 2.3478 0
M  V30 32422 H 2968.17 -1.23872 4.43838 0
M  V30 32423 H 2966.48 -1.27093 3.9653 0
M  V30 32424 H 2969.08 -4.01769 3.52826 0
M  V30 32425 H 2969.42 -3.73464 1.83931 0
M  V30 32426 H 2969.95 -2.54797 3.05489 0
M  V30 32427 H 2966.69 -2.51738 6.05234 0
M  V30 32428 H 2966.21 -3.64501 4.76339 0
M  V30 32429 H 2967.89 -3.62739 5.35751 0
M  V30 32430 N 2968.02 -1.3335 -0.839967 0
M  V30 32431 C 2969.25 -1.27596 -1.6249 0
M  V30 32432 C 2969.66 0.155564 -1.88559 0
M  V30 32433 O 2969.01 1.1078 -1.46539 0
M  V30 32434 C 2969.07 -1.98121 -2.9998 0
M  V30 32435 C 2968.73 -3.4743 -2.96886 0
M  V30 32436 C 2969.73 -4.42653 -2.7268 0
M  V30 32437 C 2967.41 -3.8959 -3.17056 0
M  V30 32438 C 2969.41 -5.78009 -2.68671 0
M  V30 32439 C 2967.09 -5.25051 -3.12673 0
M  V30 32440 C 2968.09 -6.19072 -2.88511 0
M  V30 32441 O 2967.78 -7.52052 -2.84029 0
M  V30 32442 H 2967.51 -0.440991 -0.512351 0
M  V30 32443 H 2970.07 -1.76267 -1.05447 0
M  V30 32444 H 2968.3 -1.4404 -3.58872 0
M  V30 32445 H 2969.99 -1.85881 -3.60837 0
M  V30 32446 H 2970.75 -4.11405 -2.56849 0
M  V30 32447 H 2966.63 -3.16818 -3.34884 0
M  V30 32448 H 2970.17 -6.51368 -2.49732 0
M  V30 32449 H 2966.07 -5.55924 -3.28053 0
M  V30 32450 H 2966.84 -7.61587 -2.99879 0
M  V30 32451 N 2969.5 1.05808 -1.16801 0
M  V30 32452 C 2970.92 1.30839 -0.913958 0
M  V30 32453 C 2971.12 1.9685 0.430404 0
M  V30 32454 O 2970.17 2.23819 1.16881 0
M  V30 32455 C 2971.49 2.18426 -2.06666 0
M  V30 32456 C 2973.04 2.31827 -2.10298 0
M  V30 32457 C 2973.51 3.2277 -3.24936 0
M  V30 32458 N 2975 3.30355 -3.24684 0
M  V30 32459 C 2975.74 4.0083 -4.10028 0
M  V30 32460 N 2975.23 4.73786 -5.05469 0
M  V30 32461 N 2977.03 3.9693 -3.97998 0
M  V30 32462 H 2969.18 0.613577 -2.03345 0
M  V30 32463 H 2971.44 0.333117 -0.887545 0
M  V30 32464 H 2971.15 1.77206 -3.03794 0
M  V30 32465 H 2971.02 3.19034 -2.01239 0
M  V30 32466 H 2973.41 2.72292 -1.13759 0
M  V30 32467 H 2973.49 1.30869 -2.19788 0
M  V30 32468 H 2973.13 2.83021 -4.21736 0
M  V30 32469 H 2973.06 4.23719 -3.12682 0
M  V30 32470 H 2975.55 2.78368 -2.55577 0
M  V30 32471 H 2975.87 5.25103 -5.66998 0
M  V30 32472 H 2974.21 4.72749 -5.09444 0
M  V30 32473 H 2977.4 3.39057 -3.22736 0
M  V30 32474 H 2977.57 4.51586 -4.6473 0
M  V30 32475 N 2970.98 0.967265 1.24426 0
M  V30 32476 C 2972.21 0.646103 1.97079 0
M  V30 32477 C 2972.63 -0.777635 1.71273 0
M  V30 32478 O 2971.99 -1.52774 0.976206 0
M  V30 32479 C 2972.04 0.926328 3.48499 0
M  V30 32480 O 2971.14 0.0115378 4.12398 0
M  V30 32481 H 2970.48 0.244315 0.617419 0
M  V30 32482 H 2973.01 1.2973 1.58213 0
M  V30 32483 H 2973.02 0.857689 3.98883 0
M  V30 32484 H 2971.7 1.96393 3.6661 0
M  V30 32485 H 2970.27 0.133461 3.72661 0
M  V30 32486 N 2972.46 -1.39288 0.737328 0
M  V30 32487 C 2973.71 -1.99702 0.283164 0
M  V30 32488 C 2974.02 -1.59178 -1.13674 0
M  V30 32489 O 2975.23 -2.12445 -1.69054 0
M  V30 32490 C 2973.68 -3.57008 0.455324 0
M  V30 32491 C 2973.29 -4.06494 1.88326 0
M  V30 32492 C 2975.04 -4.24453 0.0630532 0
M  V30 32493 C 2972.94 -5.56381 2.00485 0
M  V30 32494 H 2971.87 -0.747053 0.102119 0
M  V30 32495 H 2974.52 -1.59258 0.911543 0
M  V30 32496 H 2972.91 -3.9526 -0.241987 0
M  V30 32497 H 2974.08 -3.79571 2.61272 0
M  V30 32498 H 2972.39 -3.51719 2.22896 0
M  V30 32499 H 2974.99 -5.34535 0.132881 0
M  V30 32500 H 2975.33 -4.04551 -0.982057 0
M  V30 32501 H 2975.87 -3.91383 0.711608 0
M  V30 32502 H 2972.61 -5.81166 3.03193 0
M  V30 32503 H 2972.13 -5.851 1.31979 0
M  V30 32504 H 2973.81 -6.21829 1.78711 0
M  V30 32505 N 2973.94 -0.485139 -1.49947 0
M  V30 32506 C 2975.19 0.064842 -2.01996 0
M  V30 32507 C 2975.51 1.38942 -1.36821 0
M  V30 32508 O 2974.78 1.88922 -0.518196 0
M  V30 32509 H 2973.36 0.0269531 -0.746514 0
M  V30 32510 H 2976.02 -0.638765 -1.84135 0
M  V30 32511 H 2975.11 0.206116 -3.11419 0
M  V30 32512 N 2975.42 1.56081 -0.218307 0
M  V30 32513 C 2976.33 2.2377 0.704562 0
M  V30 32514 C 2977.34 1.24427 1.2163 0
M  V30 32515 O 2978.52 1.5723 1.2586 0
M  V30 32516 C 2975.58 2.90185 1.89719 0
M  V30 32517 C 2974.64 4.04863 1.42775 0
M  V30 32518 C 2973.88 4.68101 2.56353 0
M  V30 32519 O 2974.1 4.30319 3.74409 0
M  V30 32520 O 2973.03 5.57152 2.2774 0
M  V30 32521 H 2976.86 3.03289 0.157954 0
M  V30 32522 H 2974.44 1.49395 0.0120016 0
M  V30 32523 H 2976.33 3.32117 2.59376 0
M  V30 32524 H 2975 2.13628 2.43197 0
M  V30 32525 H 2973.91 3.67506 0.699295 0
M  V30 32526 H 2975.24 4.83152 0.939389 0
M  V30 32527 N 2976.89 -0.0551124 1.57504 0
M  V30 32528 C 2978.3 -0.604948 1.76627 0
M  V30 32529 C 2978.66 -1.77023 0.846009 0
M  V30 32530 O 2977.78 -2.16373 0.0342317 0
M  V30 32531 C 2978.38 -1.10419 3.20301 0
M  V30 32532 C 2976.93 -1.59975 3.40712 0
M  V30 32533 C 2976.08 -0.526366 2.72258 0
M  V30 32534 H 2979.03 0.171099 1.57775 0
M  V30 32535 H 2979.05 -1.97251 3.2538 0
M  V30 32536 H 2978.57 -0.255871 3.87256 0
M  V30 32537 H 2976.67 -2.47078 2.78897 0
M  V30 32538 H 2976.78 -1.6652 4.4923 0
M  V30 32539 H 2975.14 -0.975349 2.35285 0
M  V30 32540 H 2975.93 0.312051 3.41879 0
M  V30 32541 N 2978.37 -1.54173 -0.326869 0
M  V30 32542 C 2979.65 -1.62866 -1.08323 0
M  V30 32543 C 2980.03 -0.460427 -2.06018 0
M  V30 32544 O 2979.38 0.545646 -2.2189 0
M  V30 32545 C 2979.59 -2.99713 -1.78811 0
M  V30 32546 C 2980.93 -3.55645 -2.31952 0
M  V30 32547 O 2981.96 -3.01996 -1.88883 0
M  V30 32548 O 2980.82 -4.49522 -3.10793 0
M  V30 32549 H 2977.91 -0.659401 -0.499119 0
M  V30 32550 H 2980.46 -1.66519 -0.327025 0
M  V30 32551 H 2979.23 -3.76177 -1.07732 0
M  V30 32552 H 2978.85 -2.99724 -2.6125 0
M  V30 32553 N 2979.85 0.58876 -1.4619 0
M  V30 32554 C 2981.07 1.37823 -1.54982 0
M  V30 32555 C 2981.5 1.87143 -0.189531 0
M  V30 32556 O 2980.86 1.61223 0.829264 0
M  V30 32557 C 2980.91 2.54591 -2.55374 0
M  V30 32558 O 2980.01 3.55836 -2.08458 0
M  V30 32559 H 2979.35 0.410701 -0.521748 0
M  V30 32560 H 2981.88 0.714745 -1.9171 0
M  V30 32561 H 2981.89 3.01589 -2.74788 0
M  V30 32562 H 2980.57 2.18046 -3.54159 0
M  V30 32563 H 2979.14 3.15359 -1.99005 0
M  V30 32564 N 2981.33 1.33794 0.832883 0
M  V30 32565 C 2982.26 1.27179 1.95826 0
M  V30 32566 C 2983.24 0.151169 1.69427 0
M  V30 32567 O 2984.42 0.34192 1.91166 0
M  V30 32568 C 2981.55 1.01634 3.32096 0
M  V30 32569 C 2980.51 2.10055 3.72909 0
M  V30 32570 C 2979.83 1.69715 5.07051 0
M  V30 32571 C 2981.13 3.5179 3.86058 0
M  V30 32572 H 2982.83 2.21338 2.01618 0
M  V30 32573 H 2980.37 1.06552 0.968641 0
M  V30 32574 H 2982.33 0.956546 4.104 0
M  V30 32575 H 2981.05 0.039153 3.26577 0
M  V30 32576 H 2979.71 2.15087 2.96872 0
M  V30 32577 H 2979.36 0.706824 4.98009 0
M  V30 32578 H 2979.06 2.42273 5.35329 0
M  V30 32579 H 2980.58 1.65212 5.87824 0
M  V30 32580 H 2982 3.49226 4.54658 0
M  V30 32581 H 2980.39 4.22885 4.25779 0
M  V30 32582 H 2981.46 3.89859 2.88337 0
M  V30 32583 N 2982.81 -1.05187 1.1736 0
M  V30 32584 C 2984.04 -1.816 0.985131 0
M  V30 32585 C 2984.44 -1.83273 -0.469839 0
M  V30 32586 O 2983.79 -1.25866 -1.33803 0
M  V30 32587 C 2983.85 -3.28978 1.44961 0
M  V30 32588 C 2983.51 -3.50987 2.92672 0
M  V30 32589 C 2984.51 -3.43108 3.90606 0
M  V30 32590 C 2982.19 -3.77948 3.30848 0
M  V30 32591 C 2984.19 -3.61874 5.24715 0
M  V30 32592 C 2981.88 -3.96363 4.65123 0
M  V30 32593 C 2982.87 -3.88325 5.61865 0
M  V30 32594 O 2982.56 -4.06226 6.93712 0
M  V30 32595 H 2982.29 -0.579099 0.348741 0
M  V30 32596 H 2984.85 -1.33536 1.56068 0
M  V30 32597 H 2983.08 -3.77957 0.817626 0
M  V30 32598 H 2984.77 -3.86916 1.2268 0
M  V30 32599 H 2985.53 -3.22256 3.62458 0
M  V30 32600 H 2981.41 -3.83309 2.56116 0
M  V30 32601 H 2984.96 -3.55516 6.00212 0
M  V30 32602 H 2980.85 -4.16707 4.92976 0
M  V30 32603 H 2981.62 -4.23451 7.00451 0
M  V30 32604 N 2984.28 -0.97385 -1.23911 0
M  V30 32605 C 2985.53 -0.637851 -1.9177 0
M  V30 32606 C 2985.85 0.830404 -1.76435 0
M  V30 32607 O 2985.12 1.59337 -1.13968 0
M  V30 32608 H 2983.7 -0.232925 -0.709757 0
M  V30 32609 H 2986.36 -1.23625 -1.50675 0
M  V30 32610 H 2985.46 -0.883783 -2.99325 0
M  V30 32611 N 2985.76 1.38895 -0.744705 0
M  V30 32612 C 2987 2.02161 -0.301727 0
M  V30 32613 C 2987.37 1.57828 1.09335 0
M  V30 32614 O 2988.57 2.13361 1.63495 0
M  V30 32615 C 2986.84 3.55033 -0.410663 0
M  V30 32616 S 2988.4 4.38773 -0.0489573 0
M  V30 32617 H 2985.21 0.701208 -0.117595 0
M  V30 32618 H 2987.82 1.69546 -0.973364 0
M  V30 32619 H 2986.52 3.84788 -1.42712 0
M  V30 32620 H 2986.05 3.92413 0.278462 0
M  V30 32621 H 2988.07 4.82348 1.16426 0
M  V30 32622 N 2987.24 0.493084 1.49688 0
M  V30 32623 C 2988.49 -0.0541287 2.02028 0
M  V30 32624 C 2988.81 -1.38215 1.37556 0
M  V30 32625 O 2988.08 -1.88645 0.528207 0
M  V30 32626 H 2986.66 -0.0229938 0.746646 0
M  V30 32627 H 2989.32 0.648521 1.83794 0
M  V30 32628 H 2988.42 -0.189597 3.11524 0
M  V30 32629 N 2988.72 -1.55963 0.226582 0
M  V30 32630 C 2989.97 -1.98042 -0.402957 0
M  V30 32631 C 2990.29 -1.1156 -1.59936 0
M  V30 32632 O 2989.56 -0.193754 -1.94939 0
M  V30 32633 H 2988.14 -0.7314 -0.151867 0
M  V30 32634 H 2990.8 -1.92244 0.320647 0
M  V30 32635 H 2989.9 -3.03541 -0.725883 0
M  V30 32636 N 2990.2 0.0467589 -1.57531 0
M  V30 32637 C 2991.44 0.739623 -1.8808 0
M  V30 32638 C 2991.77 1.7683 -0.821967 0
M  V30 32639 O 2991.04 1.95351 0.146548 0
M  V30 32640 H 2989.62 0.276157 -0.694079 0
M  V30 32641 H 2992.28 0.0169048 -1.94893 0
M  V30 32642 H 2991.37 1.24026 -2.86398 0
M  V30 32643 N 2991.67 1.54344 0.318688 0
M  V30 32644 C 2992.62 1.84068 1.39239 0
M  V30 32645 C 2993.59 0.68816 1.51174 0
M  V30 32646 O 2994.78 0.935068 1.66316 0
M  V30 32647 C 2991.92 2.07799 2.75525 0
M  V30 32648 C 2991.03 3.35472 2.72182 0
M  V30 32649 C 2990.16 3.49137 4.00346 0
M  V30 32650 C 2989.2 4.70667 3.9133 0
M  V30 32651 N 2988.34 4.81233 5.11233 0
M  V30 32652 H 2993.18 2.75666 1.13191 0
M  V30 32653 H 2990.72 1.36518 0.547833 0
M  V30 32654 H 2992.68 2.1955 3.54759 0
M  V30 32655 H 2991.31 1.19487 2.99871 0
M  V30 32656 H 2990.36 3.32434 1.84911 0
M  V30 32657 H 2991.67 4.24817 2.61404 0
M  V30 32658 H 2990.82 3.60456 4.88012 0
M  V30 32659 H 2989.56 2.57893 4.13935 0
M  V30 32660 H 2988.57 4.59399 3.02047 0
M  V30 32661 H 2989.79 5.63301 3.793 0
M  V30 32662 H 2987.74 3.92906 5.2532 0
M  V30 32663 H 2987.66 5.64551 5.0281 0
M  V30 32664 H 2988.92 4.96889 6.00601 0
M  V30 32665 N 2993.15 -0.580999 1.465 0
M  V30 32666 C 2994.09 -1.70469 1.51709 0
M  V30 32667 C 2995.06 -1.58309 0.371064 0
M  V30 32668 O 2996.25 -1.79501 0.575458 0
M  V30 32669 C 2993.37 -3.08536 1.39726 0
M  V30 32670 C 2992.42 -3.39211 2.58531 0
M  V30 32671 S 2993.25 -3.31093 4.20878 0
M  V30 32672 C 2994.41 -4.71694 4.11406 0
M  V30 32673 H 2994.64 -1.65792 2.4678 0
M  V30 32674 H 2992.18 -0.759884 1.34407 0
M  V30 32675 H 2994.13 -3.88186 1.33499 0
M  V30 32676 H 2992.79 -3.10702 0.460797 0
M  V30 32677 H 2991.99 -4.39805 2.46145 0
M  V30 32678 H 2991.59 -2.67132 2.61757 0
M  V30 32679 H 2993.88 -5.62118 3.78192 0
M  V30 32680 H 2994.82 -4.89138 5.12005 0
M  V30 32681 H 2995.23 -4.48625 3.42631 0
M  V30 32682 N 2994.63 -1.34234 -0.825776 0
M  V30 32683 C 2995.56 -1.28216 -1.95149 0
M  V30 32684 C 2996.54 -0.160152 -1.69344 0
M  V30 32685 O 2997.73 -0.352053 -1.90982 0
M  V30 32686 C 2994.86 -1.03394 -3.31552 0
M  V30 32687 C 2993.81 -2.1203 -3.71789 0
M  V30 32688 C 2993.14 -1.72401 -5.06144 0
M  V30 32689 C 2994.44 -3.53833 -3.84187 0
M  V30 32690 H 2996.13 -2.22404 -2.00441 0
M  V30 32691 H 2993.68 -1.07064 -0.962977 0
M  V30 32692 H 2995.63 -0.978297 -4.09887 0
M  V30 32693 H 2994.35 -0.0564716 -3.26551 0
M  V30 32694 H 2993.01 -2.16659 -2.95727 0
M  V30 32695 H 2992.66 -0.733225 -4.97627 0
M  V30 32696 H 2992.36 -2.45109 -5.34037 0
M  V30 32697 H 2993.88 -1.68327 -5.8694 0
M  V30 32698 H 2995.3 -3.51632 -4.528 0
M  V30 32699 H 2993.7 -4.25137 -4.23531 0
M  V30 32700 H 2994.77 -3.91382 -2.86266 0
M  V30 32701 N 2996.11 1.04563 -1.17917 0
M  V30 32702 C 2997.04 2.12478 -0.859396 0
M  V30 32703 C 2998.05 1.62189 0.140893 0
M  V30 32704 O 2999.24 1.78291 -0.0862675 0
M  V30 32705 C 2996.34 3.37887 -0.261871 0
M  V30 32706 C 2995.52 4.17429 -1.30659 0
M  V30 32707 C 2994.57 5.21172 -0.725667 0
M  V30 32708 O 2993.6 5.51737 -1.39911 0
M  V30 32709 N 2994.8 5.78518 0.479249 0
M  V30 32710 H 2997.57 2.40505 -1.78823 0
M  V30 32711 H 2995.13 1.20714 -1.07888 0
M  V30 32712 H 2997.12 4.04457 0.140209 0
M  V30 32713 H 2995.69 3.07343 0.570875 0
M  V30 32714 H 2994.91 3.46255 -1.88418 0
M  V30 32715 H 2996.2 4.67369 -2.01107 0
M  V30 32716 H 2995.6 5.55979 1.04421 0
M  V30 32717 H 2994.15 6.46579 0.823313 0
M  V30 32718 N 2997.59 0.980408 1.23393 0
M  V30 32719 C 2999 0.68627 1.7363 0
M  V30 32720 C 2999.35 -0.79751 1.7926 0
M  V30 32721 O 2998.47 -1.62376 1.43049 0
M  V30 32722 C 2999.07 1.23905 3.1533 0
M  V30 32723 C 2997.63 0.994557 3.63023 0
M  V30 32724 C 2996.77 1.36677 2.41277 0
M  V30 32725 H 2999.73 1.15425 1.08916 0
M  V30 32726 H 2999.75 0.61148 3.75554 0
M  V30 32727 H 2999.26 2.31897 3.112 0
M  V30 32728 H 2997.36 -0.0692837 3.72536 0
M  V30 32729 H 2997.47 1.64914 4.49822 0
M  V30 32730 H 2995.84 0.785237 2.42293 0
M  V30 32731 H 2996.62 2.45647 2.39818 0
M  V30 32732 N 2999.06 -1.38498 0.75206 0
M  V30 32733 C 3000.31 -1.99391 0.304329 0
M  V30 32734 C 3000.63 -1.60375 -1.11979 0
M  V30 32735 O 3001.83 -2.14226 -1.66791 0
M  V30 32736 C 3000.29 -3.56505 0.493164 0
M  V30 32737 C 2999.9 -4.04474 1.92627 0
M  V30 32738 C 3001.64 -4.24362 0.108069 0
M  V30 32739 C 2999.55 -5.54223 2.06375 0
M  V30 32740 H 2998.48 -0.745928 0.110037 0
M  V30 32741 H 3001.13 -1.58282 0.928383 0
M  V30 32742 H 2999.51 -3.95494 -0.200051 0
M  V30 32743 H 3000.68 -3.76778 2.65283 0
M  V30 32744 H 2999 -3.49335 2.26614 0
M  V30 32745 H 3001.6 -5.34364 0.189568 0
M  V30 32746 H 3001.94 -4.0557 -0.939094 0
M  V30 32747 H 3002.47 -3.90607 0.75308 0
M  V30 32748 H 2999.21 -5.77918 3.0934 0
M  V30 32749 H 2998.73 -5.83667 1.38178 0
M  V30 32750 H 3000.41 -6.19899 1.85297 0
M  V30 32751 N 3000.54 -0.501015 -1.49424 0
M  V30 32752 C 3001.77 0.0403079 -2.06861 0
M  V30 32753 C 3002.19 1.30817 -1.36134 0
M  V30 32754 O 3001.54 1.77124 -0.439678 0
M  V30 32755 C 3001.59 0.297838 -3.60271 0
M  V30 32756 O 3001.31 -0.919761 -4.28336 0
M  V30 32757 C 3002.82 0.8828 -4.34421 0
M  V30 32758 H 3000.04 -0.0204737 -0.670688 0
M  V30 32759 H 3002.58 -0.698376 -1.92206 0
M  V30 32760 H 3000.73 0.986504 -3.74629 0
M  V30 32761 H 3001.15 -0.682619 -5.20039 0
M  V30 32762 H 3002.62 1.01258 -5.42633 0
M  V30 32763 H 3003.1 1.88059 -3.96901 0
M  V30 32764 H 3003.71 0.231602 -4.24669 0
M  V30 32765 N 3002.02 1.5584 -0.234849 0
M  V30 32766 C 3003.44 1.59146 0.120267 0
M  V30 32767 C 3003.64 1.25187 1.57894 0
M  V30 32768 O 3002.69 0.993434 2.32136 0
M  V30 32769 C 3004.01 2.99908 -0.218036 0
M  V30 32770 C 3005.55 3.12584 -0.161353 0
M  V30 32771 C 3006.03 4.55546 -0.473518 0
M  V30 32772 N 3007.52 4.61259 -0.423575 0
M  V30 32773 C 3008.26 5.69835 -0.638434 0
M  V30 32774 N 3007.75 6.86721 -0.915779 0
M  V30 32775 N 3009.54 5.59203 -0.569962 0
M  V30 32776 H 3001.7 1.76187 -1.18625 0
M  V30 32777 H 3003.96 0.819579 -0.47644 0
M  V30 32778 H 3003.66 3.29455 -1.23096 0
M  V30 32779 H 3003.54 3.74377 0.460641 0
M  V30 32780 H 3005.93 2.82826 0.842224 0
M  V30 32781 H 3006.01 2.40416 -0.873703 0
M  V30 32782 H 3005.65 4.86023 -1.47459 0
M  V30 32783 H 3005.58 5.25957 0.260175 0
M  V30 32784 H 3008.07 3.77274 -0.217449 0
M  V30 32785 H 3008.38 7.65392 -1.06747 0
M  V30 32786 H 3006.73 6.88433 -0.953121 0
M  V30 32787 H 3009.92 4.66764 -0.353422 0
M  V30 32788 H 3010.09 6.43751 -0.740811 0
M  V30 32789 N 3003.5 -0.038404 1.57553 0
M  V30 32790 C 3004.43 -1.04158 2.08982 0
M  V30 32791 C 3005.41 -1.383 0.990314 0
M  V30 32792 O 3006.6 -1.47347 1.26502 0
M  V30 32793 C 3003.73 -2.34531 2.56149 0
M  V30 32794 C 3002.68 -2.14656 3.70279 0
M  V30 32795 C 3002.01 -3.50708 4.03618 0
M  V30 32796 C 3003.31 -1.54036 4.99069 0
M  V30 32797 H 3005 -0.613497 2.93047 0
M  V30 32798 H 3002.55 -0.293659 1.40974 0
M  V30 32799 H 3004.5 -3.05032 2.90747 0
M  V30 32800 H 3003.22 -2.79382 1.69155 0
M  V30 32801 H 3001.88 -1.46591 3.36016 0
M  V30 32802 H 3001.53 -3.9319 3.13705 0
M  V30 32803 H 3001.23 -3.38238 4.80488 0
M  V30 32804 H 3002.75 -4.22586 4.40742 0
M  V30 32805 H 3004.17 -2.14442 5.31684 0
M  V30 32806 H 3002.56 -1.52168 5.80487 0
M  V30 32807 H 3003.63 -0.505174 4.82261 0
M  V30 32808 N 3004.98 -1.54511 -0.310498 0
M  V30 32809 C 3006.39 -1.45513 -0.655612 0
M  V30 32810 C 3006.59 -0.638597 -1.91113 0
M  V30 32811 O 3005.65 -0.142542 -2.52097 0
M  V30 32812 C 3006.96 -2.89376 -0.817451 0
M  V30 32813 C 3008.51 -2.99359 -0.91395 0
M  V30 32814 C 3008.99 -4.44399 -1.10786 0
M  V30 32815 N 3010.48 -4.48068 -1.17429 0
M  V30 32816 C 3011.21 -5.57464 -1.34245 0
M  V30 32817 N 3010.71 -6.76803 -1.4802 0
M  V30 32818 N 3012.5 -5.45135 -1.37057 0
M  V30 32819 H 3004.65 -2.06073 0.514542 0
M  V30 32820 H 3006.91 -0.932906 0.168494 0
M  V30 32821 H 3006.62 -3.51684 0.0340648 0
M  V30 32822 H 3006.49 -3.36246 -1.70934 0
M  V30 32823 H 3008.88 -2.37171 -1.75596 0
M  V30 32824 H 3008.96 -2.558 0.00175454 0
M  V30 32825 H 3008.61 -5.07178 -0.270654 0
M  V30 32826 H 3008.54 -4.8558 -2.03764 0
M  V30 32827 H 3011.03 -3.62086 -1.08175 0
M  V30 32828 H 3011.34 -7.55933 -1.60579 0
M  V30 32829 H 3009.69 -6.79686 -1.45093 0
M  V30 32830 H 3012.88 -4.50851 -1.25901 0
M  V30 32831 H 3013.05 -6.30443 -1.4982 0
M  V30 32832 N 3006.46 0.573222 -1.46806 0
M  V30 32833 C 3007.68 1.35688 -1.56194 0
M  V30 32834 C 3008.1 1.87668 -0.206395 0
M  V30 32835 O 3007.46 1.64136 0.797855 0
M  V30 32836 C 3007.51 2.53787 -2.57438 0
M  V30 32837 O 3007.23 2.03958 -3.87728 0
M  V30 32838 C 3008.73 3.46215 -2.76857 0
M  V30 32839 H 3005.95 0.414183 -0.527914 0
M  V30 32840 H 3008.49 0.695956 -1.92293 0
M  V30 32841 H 3006.65 3.1585 -2.24316 0
M  V30 32842 H 3007.06 2.8094 -4.42914 0
M  V30 32843 H 3008.54 4.25539 -3.51598 0
M  V30 32844 H 3009.01 3.98752 -1.84103 0
M  V30 32845 H 3009.62 2.89981 -3.11113 0
M  V30 32846 N 3007.93 1.3467 0.818645 0
M  V30 32847 C 3009.16 1.30165 1.60439 0
M  V30 32848 C 3009.57 -0.125546 1.88783 0
M  V30 32849 O 3008.91 -1.08434 1.48282 0
M  V30 32850 C 3008.98 2.02869 2.9679 0
M  V30 32851 C 3008.64 3.5211 2.91321 0
M  V30 32852 C 3009.64 4.46935 2.65604 0
M  V30 32853 C 3007.32 3.94585 3.10818 0
M  V30 32854 C 3009.32 5.8221 2.59442 0
M  V30 32855 C 3007 5.29959 3.0428 0
M  V30 32856 C 3008 6.23584 2.78626 0
M  V30 32857 O 3007.69 7.56476 2.72029 0
M  V30 32858 H 3007.42 0.449086 0.50527 0
M  V30 32859 H 3009.98 1.77922 1.02629 0
M  V30 32860 H 3008.21 1.49731 3.56535 0
M  V30 32861 H 3009.89 1.91598 3.57834 0
M  V30 32862 H 3010.66 4.15439 2.50271 0
M  V30 32863 H 3006.54 3.22106 3.29801 0
M  V30 32864 H 3010.08 6.55258 2.39338 0
M  V30 32865 H 3005.98 5.61073 3.19167 0
M  V30 32866 H 3006.75 7.66262 2.87725 0
M  V30 32867 N 3009.41 -1.03936 1.1847 0
M  V30 32868 C 3010.32 -2.15468 0.927927 0
M  V30 32869 C 3011.34 -1.73662 -0.108417 0
M  V30 32870 O 3012.51 -2.01265 0.073799 0
M  V30 32871 C 3009.58 -3.43654 0.458554 0
M  V30 32872 C 3008.64 -3.99835 1.56302 0
M  V30 32873 C 3007.87 -5.21903 1.11595 0
M  V30 32874 O 3008.1 -5.70395 -0.0248054 0
M  V30 32875 O 3007.03 -5.7065 1.91422 0
M  V30 32876 H 3010.86 -2.39986 1.8612 0
M  V30 32877 H 3008.44 -1.13915 0.966627 0
M  V30 32878 H 3010.32 -4.20901 0.204935 0
M  V30 32879 H 3009 -3.20607 -0.446408 0
M  V30 32880 H 3007.9 -3.2397 1.87067 0
M  V30 32881 H 3009.24 -4.27226 2.44415 0
M  V30 32882 N 3010.89 -0.986938 -1.22871 0
M  V30 32883 C 3011.84 -0.503586 -2.22369 0
M  V30 32884 C 3012.82 0.424971 -1.55186 0
M  V30 32885 O 3014.02 0.252761 -1.75186 0
M  V30 32886 C 3011.14 0.186294 -3.42794 0
M  V30 32887 C 3010.23 -0.762216 -4.17194 0
M  V30 32888 N 3010.62 -1.90758 -4.6845 0
M  V30 32889 C 3008.92 -0.576875 -4.42253 0
M  V30 32890 C 3009.62 -2.50244 -5.25122 0
M  V30 32891 N 3008.6 -1.78569 -5.13434 0
M  V30 32892 H 3012.4 -1.37722 -2.59634 0
M  V30 32893 H 3009.91 -0.848439 -1.38475 0
M  V30 32894 H 3011.91 0.54992 -4.13257 0
M  V30 32895 H 3010.57 1.05614 -3.07044 0
M  V30 32896 H 3011.58 -2.28856 -4.64591 0
M  V30 32897 H 3008.26 0.247401 -4.16766 0
M  V30 32898 H 3009.65 -3.47007 -5.75357 0
M  V30 32899 N 3012.37 1.38098 -0.759394 0
M  V30 32900 C 3013.28 2.34195 -0.137781 0
M  V30 32901 C 3014.29 1.59563 0.693957 0
M  V30 32902 O 3015.47 1.91724 0.616759 0
M  V30 32903 C 3012.53 3.387 0.740475 0
M  V30 32904 C 3011.6 4.29168 -0.1063 0
M  V30 32905 C 3010.83 5.28682 0.730132 0
M  V30 32906 O 3011.05 5.35379 1.96787 0
M  V30 32907 O 3009.99 6.01723 0.145863 0
M  V30 32908 H 3013.81 2.8906 -0.931563 0
M  V30 32909 H 3011.4 1.40045 -0.52037 0
M  V30 32910 H 3013.28 4.02674 1.24225 0
M  V30 32911 H 3011.95 2.86183 1.51266 0
M  V30 32912 H 3010.86 3.68336 -0.654152 0
M  V30 32913 H 3012.19 4.84957 -0.841271 0
M  V30 32914 N 3013.85 0.508932 1.49156 0
M  V30 32915 C 3014.81 -0.254299 2.27785 0
M  V30 32916 C 3015.81 -0.886837 1.34134 0
M  V30 32917 O 3017 -0.75014 1.57221 0
M  V30 32918 C 3014.13 -1.36567 3.1235 0
M  V30 32919 H 3015.32 0.435767 2.96717 0
M  V30 32920 H 3012.88 0.264155 1.54052 0
M  V30 32921 H 3013.61 -2.08964 2.48001 0
M  V30 32922 H 3013.4 -0.917476 3.81215 0
M  V30 32923 H 3014.89 -1.90308 3.71716 0
M  V30 32924 N 3015.32 -1.55714 0.243111 0
M  V30 32925 C 3016.26 -2.17244 -0.698585 0
M  V30 32926 C 3017.23 -1.12333 -1.17559 0
M  V30 32927 O 3018.42 -1.40701 -1.25441 0
M  V30 32928 C 3015.55 -2.77007 -1.94896 0
M  V30 32929 C 3014.59 -3.94939 -1.61015 0
M  V30 32930 S 3015.42 -5.30691 -0.71608 0
M  V30 32931 C 3016.58 -5.93905 -1.97555 0
M  V30 32932 H 3016.81 -2.96781 -0.175672 0
M  V30 32933 H 3014.35 -1.54375 0.0275999 0
M  V30 32934 H 3016.3 -3.12076 -2.66681 0
M  V30 32935 H 3014.97 -1.97424 -2.443 0
M  V30 32936 H 3014.16 -4.35332 -2.53972 0
M  V30 32937 H 3013.76 -3.61128 -0.972766 0
M  V30 32938 H 3016.05 -6.11191 -2.92322 0
M  V30 32939 H 3017 -6.89433 -1.61516 0
M  V30 32940 H 3017.4 -5.22939 -2.12591 0
M  V30 32941 N 3016.8 0.030048 -1.57571 0
M  V30 32942 C 3018.05 0.716654 -1.90357 0
M  V30 32943 C 3018.4 1.73017 -0.841599 0
M  V30 32944 O 3017.7 1.91013 0.149814 0
M  V30 32945 C 3017.89 1.42813 -3.27627 0
M  V30 32946 C 3017.72 0.485033 -4.47077 0
M  V30 32947 C 3016.49 0.106444 -5.05188 0
M  V30 32948 C 3018.69 -0.23615 -5.13758 0
M  V30 32949 N 3016.67 -0.838006 -6.08153 0
M  V30 32950 C 3018.04 -1.0363 -6.11278 0
M  V30 32951 C 3020.1 -0.303197 -4.96976 0
M  V30 32952 C 3018.8 -1.89733 -6.93826 0
M  V30 32953 C 3020.82 -1.15135 -5.80084 0
M  V30 32954 C 3020.19 -1.93942 -6.77175 0
M  V30 32955 H 3016.29 0.236371 -0.745421 0
M  V30 32956 H 3018.87 -0.0232327 -1.94686 0
M  V30 32957 H 3017.04 2.13848 -3.24228 0
M  V30 32958 H 3018.77 2.06704 -3.4793 0
M  V30 32959 H 3015.53 0.468415 -4.71278 0
M  V30 32960 H 3015.95 -1.30471 -6.64309 0
M  V30 32961 H 3020.59 0.291784 -4.21792 0
M  V30 32962 H 3018.31 -2.50311 -7.68355 0
M  V30 32963 H 3021.9 -1.20675 -5.69147 0
M  V30 32964 H 3020.78 -2.58512 -7.40366 0
M  V30 32965 N 3018.28 1.54674 0.3023 0
M  V30 32966 C 3019.53 1.73549 1.03562 0
M  V30 32967 C 3019.85 0.523481 1.87842 0
M  V30 32968 O 3019.12 -0.462261 1.90368 0
M  V30 32969 H 3017.7 0.639935 0.385347 0
M  V30 32970 H 3020.36 1.92024 0.333598 0
M  V30 32971 H 3019.46 2.62418 1.68947 0
M  V30 32972 N 3019.76 -0.565428 1.47108 0
M  V30 32973 C 3020.71 -1.67317 1.58977 0
M  V30 32974 C 3021.68 -1.60352 0.433174 0
M  V30 32975 O 3022.86 -1.79308 0.652173 0
M  V30 32976 C 3020 -3.05648 1.60229 0
M  V30 32977 C 3019.11 -3.2311 2.86747 0
M  V30 32978 C 3018.25 -4.51791 2.79389 0
M  V30 32979 C 3017.29 -4.62657 4.00768 0
M  V30 32980 N 3016.42 -5.82683 3.91695 0
M  V30 32981 H 3021.26 -1.56511 2.53591 0
M  V30 32982 H 3018.8 -0.762536 1.25793 0
M  V30 32983 H 3020.76 -3.85738 1.58939 0
M  V30 32984 H 3019.39 -3.1531 0.69134 0
M  V30 32985 H 3018.44 -2.36508 2.9794 0
M  V30 32986 H 3019.75 -3.27005 3.76655 0
M  V30 32987 H 3018.91 -5.40131 2.76302 0
M  V30 32988 H 3017.65 -4.50362 1.87149 0
M  V30 32989 H 3016.65 -3.72731 4.04168 0
M  V30 32990 H 3017.88 -4.65851 4.94125 0
M  V30 32991 H 3015.82 -5.82219 3.02253 0
M  V30 32992 H 3015.74 -5.8792 4.75275 0
M  V30 32993 H 3017.01 -6.73407 3.92611 0
M  V30 32994 N 3021.24 -1.35102 -0.811492 0
M  V30 32995 C 3022.2 -1.27499 -1.90465 0
M  V30 32996 C 3023.2 -0.187544 -1.59703 0
M  V30 32997 O 3024.39 -0.440925 -1.68527 0
M  V30 32998 C 3021.52 -0.971211 -3.26773 0
M  V30 32999 H 3022.71 -2.24694 -1.98627 0
M  V30 33000 H 3020.27 -1.19555 -1.00679 0
M  V30 33001 H 3021 -0.0029127 -3.243 0
M  V30 33002 H 3020.79 -1.75791 -3.50485 0
M  V30 33003 H 3022.28 -0.943486 -4.06802 0
M  V30 33004 N 3022.71 1.03306 -1.19019 0
M  V30 33005 C 3023.64 2.13401 -0.947757 0
M  V30 33006 C 3024.63 1.69695 0.117353 0
M  V30 33007 O 3025.81 1.94165 -0.0368074 0
M  V30 33008 C 3022.94 3.43952 -0.481037 0
M  V30 33009 C 3021.89 4.01319 -1.4875 0
M  V30 33010 C 3021.22 5.27442 -0.878017 0
M  V30 33011 C 3022.52 4.36611 -2.8665 0
M  V30 33012 H 3024.21 2.33939 -1.8685 0
M  V30 33013 H 3021.76 1.12426 -0.899801 0
M  V30 33014 H 3023.71 4.2034 -0.298751 0
M  V30 33015 H 3022.44 3.23123 0.475291 0
M  V30 33016 H 3021.1 3.27022 -1.65686 0
M  V30 33017 H 3020.74 5.02927 0.0857348 0
M  V30 33018 H 3020.44 5.66786 -1.55006 0
M  V30 33019 H 3021.97 6.065 -0.706433 0
M  V30 33020 H 3023.38 5.03953 -2.73321 0
M  V30 33021 H 3021.78 4.87026 -3.50608 0
M  V30 33022 H 3022.85 3.46099 -3.39623 0
M  V30 33023 N 3024.19 0.99344 1.22346 0
M  V30 33024 C 3025.44 0.670594 1.91392 0
M  V30 33025 C 3025.77 -0.795397 1.77164 0
M  V30 33026 O 3025.05 -1.57526 1.14086 0
M  V30 33027 C 3025.33 1.07796 3.43587 0
M  V30 33028 C 3025.18 2.60254 3.66862 0
M  V30 33029 C 3026.5 0.631603 4.35544 0
M  V30 33030 H 3023.62 0.245093 0.695053 0
M  V30 33031 H 3026.26 1.23706 1.44211 0
M  V30 33032 H 3024.41 0.595969 3.83902 0
M  V30 33033 H 3026.08 3.16127 3.35948 0
M  V30 33034 H 3024.33 3.02298 3.11124 0
M  V30 33035 H 3025 2.83808 4.73452 0
M  V30 33036 H 3027.47 1.04561 4.02748 0
M  V30 33037 H 3026.35 0.944926 5.40705 0
M  V30 33038 H 3026.61 -0.467701 4.39619 0
M  V30 33039 N 3025.67 -1.37693 0.766707 0
M  V30 33040 C 3026.9 -2.04088 0.339975 0
M  V30 33041 C 3027.31 -1.57828 -1.03614 0
M  V30 33042 O 3026.67 -0.757243 -1.66048 0
M  V30 33043 C 3026.72 -3.59619 0.368332 0
M  V30 33044 O 3026.44 -4.04185 1.69016 0
M  V30 33045 C 3027.94 -4.43244 -0.0706274 0
M  V30 33046 H 3025.16 -0.655542 0.1432 0
M  V30 33047 H 3027.71 -1.76126 1.03922 0
M  V30 33048 H 3025.86 -3.8637 -0.282292 0
M  V30 33049 H 3026.28 -4.98682 1.62532 0
M  V30 33050 H 3027.75 -5.52 0.000370566 0
M  V30 33051 H 3028.23 -4.24671 -1.12032 0
M  V30 33052 H 3028.83 -4.21708 0.551617 0
M  V30 33053 N 3027.15 -0.516835 -1.48884 0
M  V30 33054 C 3028.38 0.0183387 -2.06592 0
M  V30 33055 C 3028.79 1.29915 -1.37545 0
M  V30 33056 O 3028.13 1.78038 -0.452558 0
M  V30 33057 C 3028.19 0.326252 -3.58017 0
M  V30 33058 C 3027.86 -0.859151 -4.48851 0
M  V30 33059 C 3028.85 -1.754 -4.89419 0
M  V30 33060 C 3026.54 -1.06243 -4.90935 0
M  V30 33061 C 3028.53 -2.83614 -5.70826 0
M  V30 33062 C 3026.22 -2.14773 -5.72115 0
M  V30 33063 C 3027.22 -3.03292 -6.11966 0
M  V30 33064 O 3026.9 -4.09947 -6.91519 0
M  V30 33065 H 3026.64 -0.0244141 -0.675559 0
M  V30 33066 H 3029.19 -0.718039 -1.92441 0
M  V30 33067 H 3027.42 1.11643 -3.70233 0
M  V30 33068 H 3029.11 0.801929 -3.97899 0
M  V30 33069 H 3029.88 -1.60883 -4.57539 0
M  V30 33070 H 3025.75 -0.382758 -4.59408 0
M  V30 33071 H 3029.3 -3.52734 -6.01851 0
M  V30 33072 H 3025.2 -2.29279 -6.03408 0
M  V30 33073 H 3025.96 -4.07494 -7.09853 0
M  V30 33074 N 3028.63 1.55583 -0.251365 0
M  V30 33075 C 3029.9 1.90978 0.422695 0
M  V30 33076 C 3030.28 1.17268 1.75532 0
M  V30 33077 O 3029.63 0.291628 2.26631 0
M  V30 33078 C 3029.84 3.44039 0.586388 0
M  V30 33079 C 3031.19 4.15376 0.880221 0
M  V30 33080 O 3032.21 3.49802 0.672087 0
M  V30 33081 O 3031.07 5.31375 1.27685 0
M  V30 33082 H 3028.17 0.795062 0.227608 0
M  V30 33083 H 3030.71 1.67103 -0.295762 0
M  V30 33084 H 3029.48 3.8971 -0.352395 0
M  V30 33085 H 3029.11 3.73791 1.35522 0
M  V30 33086 N 3030.1 -0.0216912 1.57585 0
M  V30 33087 C 3031.03 -1.01935 2.10075 0
M  V30 33088 C 3032.02 -1.37242 1.00493 0
M  V30 33089 O 3033.2 -1.45997 1.28057 0
M  V30 33090 C 3030.33 -2.31801 2.58622 0
M  V30 33091 C 3029.28 -2.10717 3.72535 0
M  V30 33092 C 3028.61 -3.46408 4.07315 0
M  V30 33093 C 3029.91 -1.48734 5.00675 0
M  V30 33094 H 3031.6 -0.582381 2.93681 0
M  V30 33095 H 3029.15 -0.27869 1.41277 0
M  V30 33096 H 3031.1 -3.01931 2.93966 0
M  V30 33097 H 3029.83 -2.77572 1.72109 0
M  V30 33098 H 3028.49 -1.43019 3.37552 0
M  V30 33099 H 3028.13 -3.89841 3.17857 0
M  V30 33100 H 3027.83 -3.33123 4.84048 0
M  V30 33101 H 3029.36 -4.17887 4.45199 0
M  V30 33102 H 3030.77 -2.08791 5.33928 0
M  V30 33103 H 3029.17 -1.46003 5.82068 0
M  V30 33104 H 3030.24 -0.453995 4.8277 0
M  V30 33105 N 3031.58 -1.54832 -0.294093 0
M  V30 33106 C 3032.49 -1.89327 -1.38537 0
M  V30 33107 C 3033.51 -0.78816 -1.55126 0
M  V30 33108 O 3034.69 -1.08527 -1.69658 0
M  V30 33109 C 3031.75 -2.13959 -2.72805 0
M  V30 33110 C 3030.81 -3.37636 -2.65142 0
M  V30 33111 C 3030.04 -3.61083 -3.93007 0
M  V30 33112 O 3030.27 -2.87415 -4.92695 0
M  V30 33113 O 3029.2 -4.54606 -3.94483 0
M  V30 33114 H 3033.03 -2.82181 -1.12284 0
M  V30 33115 H 3030.61 -1.41109 -0.490769 0
M  V30 33116 H 3032.49 -2.31321 -3.52234 0
M  V30 33117 H 3031.17 -1.2429 -2.98887 0
M  V30 33118 H 3030.08 -3.2563 -1.84162 0
M  V30 33119 H 3031.41 -4.27456 -2.44012 0
M  V30 33120 N 3033.06 0.557619 -1.47405 0
M  V30 33121 C 3034.29 1.34023 -1.57624 0
M  V30 33122 C 3034.7 1.87439 -0.226289 0
M  V30 33123 O 3034.06 1.64973 0.780401 0
M  V30 33124 C 3034.11 2.51043 -2.60115 0
M  V30 33125 O 3033.83 1.99834 -3.89869 0
M  V30 33126 C 3035.33 3.43259 -2.80514 0
M  V30 33127 H 3032.55 0.40856 -0.532278 0
M  V30 33128 H 3035.1 0.675521 -1.93021 0
M  V30 33129 H 3033.25 3.13453 -2.27654 0
M  V30 33130 H 3033.67 2.76226 -4.45869 0
M  V30 33131 H 3035.14 4.21785 -3.56091 0
M  V30 33132 H 3035.62 3.96777 -1.88321 0
M  V30 33133 H 3036.22 2.86665 -3.14171 0
M  V30 33134 N 3034.54 1.35531 0.804316 0
M  V30 33135 C 3035.5 1.28507 1.89786 0
M  V30 33136 C 3036.5 0.196011 1.59601 0
M  V30 33137 O 3037.69 0.449857 1.68291 0
M  V30 33138 C 3034.82 0.988527 3.26253 0
M  V30 33139 H 3036.02 2.25744 1.97432 0
M  V30 33140 H 3033.57 1.20087 1.00044 0
M  V30 33141 H 3034.31 0.0201111 3.24294 0
M  V30 33142 H 3034.09 1.77647 3.49548 0
M  V30 33143 H 3035.58 0.965046 4.06296 0
M  V30 33144 N 3036.02 -1.02674 1.19565 0
M  V30 33145 C 3037.27 -1.75512 0.993895 0
M  V30 33146 C 3037.58 -1.89724 -0.475849 0
M  V30 33147 O 3038.79 -2.59554 -0.796479 0
M  V30 33148 C 3037.24 -3.15625 1.72942 0
M  V30 33149 C 3036.85 -3.0946 3.23942 0
M  V30 33150 C 3038.59 -3.92744 1.61099 0
M  V30 33151 C 3036.5 -4.44517 3.90075 0
M  V30 33152 H 3035.43 -0.657954 0.368255 0
M  V30 33153 H 3038.08 -1.14889 1.43083 0
M  V30 33154 H 3036.46 -3.76729 1.22031 0
M  V30 33155 H 3037.64 -2.57724 3.81988 0
M  V30 33156 H 3035.95 -2.45837 3.36085 0
M  V30 33157 H 3038.55 -4.92646 2.07856 0
M  V30 33158 H 3038.89 -4.12441 0.565487 0
M  V30 33159 H 3039.43 -3.38246 2.09367 0
M  V30 33160 H 3036.16 -4.30024 4.94732 0
M  V30 33161 H 3035.68 -4.963 3.36818 0
M  V30 33162 H 3037.36 -5.13394 3.93745 0
M  V30 33163 N 3037.5 -0.999914 -1.21817 0
M  V30 33164 C 3038.91 -0.713806 -1.72516 0
M  V30 33165 C 3039.26 0.76889 -1.80506 0
M  V30 33166 O 3038.38 1.6008 -1.45614 0
M  V30 33167 C 3038.98 -1.28906 -3.13319 0
M  V30 33168 C 3037.54 -1.05219 -3.61395 0
M  V30 33169 C 3036.68 -1.40499 -2.39072 0
M  V30 33170 H 3039.63 -1.17143 -1.07066 0
M  V30 33171 H 3039.66 -0.67115 -3.74534 0
M  V30 33172 H 3039.17 -2.36819 -3.07471 0
M  V30 33173 H 3037.27 0.0100078 -3.72599 0
M  V30 33174 H 3037.38 -1.7205 -4.47142 0
M  V30 33175 H 3035.75 -0.823685 -2.41014 0
M  V30 33176 H 3036.53 -2.49431 -2.35879 0
M  V30 33177 N 3038.97 1.37284 -0.773999 0
M  V30 33178 C 3040.2 2.04432 -0.349597 0
M  V30 33179 C 3040.62 1.57992 1.02079 0
M  V30 33180 O 3039.98 0.741201 1.65457 0
M  V30 33181 C 3040.03 3.58326 -0.404355 0
M  V30 33182 O 3039.13 4.08094 0.594375 0
M  V30 33183 H 3038.47 0.64661 -0.15097 0
M  V30 33184 H 3041 1.75553 -1.05082 0
M  V30 33185 H 3041.01 4.07155 -0.26245 0
M  V30 33186 H 3039.69 3.91482 -1.4041 0
M  V30 33187 H 3038.27 3.70579 0.415403 0
M  V30 33188 N 3040.45 0.524724 1.48608 0
M  V30 33189 C 3041.68 -0.00948494 2.07398 0
M  V30 33190 C 3042.1 -1.27882 1.37941 0
M  V30 33191 O 3041.46 -1.75788 0.443664 0
M  V30 33192 C 3041.51 -0.221893 3.59917 0
M  V30 33193 O 3040.61 -1.29169 3.91649 0
M  V30 33194 H 3039.95 0.0367845 0.66298 0
M  V30 33195 H 3042.48 0.731134 1.91091 0
M  V30 33196 H 3042.49 -0.446165 4.05553 0
M  V30 33197 H 3041.17 0.705378 4.09875 0
M  V30 33198 H 3039.74 -1.05049 3.57798 0
M  V30 33199 N 3041.93 -1.55447 0.259613 0
M  V30 33200 C 3043.16 -2.03649 -0.365357 0
M  V30 33201 C 3043.57 -1.1385 -1.50611 0
M  V30 33202 O 3042.93 -0.155446 -1.81837 0
M  V30 33203 C 3042.98 -3.51094 -0.86111 0
M  V30 33204 O 3042.7 -4.37474 0.234198 0
M  V30 33205 C 3044.2 -4.15114 -1.55548 0
M  V30 33206 H 3041.42 -0.665552 -0.0853322 0
M  V30 33207 H 3043.97 -2.00801 0.387186 0
M  V30 33208 H 3042.12 -3.54435 -1.56379 0
M  V30 33209 H 3042.54 -5.24301 -0.144308 0
M  V30 33210 H 3044.01 -5.19936 -1.85394 0
M  V30 33211 H 3044.49 -3.62359 -2.48178 0
M  V30 33212 H 3045.09 -4.15732 -0.897047 0
M  V30 33213 N 3043.41 0.0133338 -1.57594 0
M  V30 33214 C 3044.82 0.369228 -1.5527 0
M  V30 33215 C 3045.02 1.75628 -0.987782 0
M  V30 33216 O 3044.08 2.44878 -0.615726 0
M  V30 33217 C 3045.39 0.256667 -2.99603 0
M  V30 33218 C 3046.94 0.332593 -3.11228 0
M  V30 33219 C 3047.42 0.249306 -4.57321 0
M  V30 33220 N 3048.91 0.307619 -4.62177 0
M  V30 33221 C 3049.64 0.266309 -5.72781 0
M  V30 33222 N 3049.14 0.176372 -6.92575 0
M  V30 33223 N 3050.93 0.317197 -5.61204 0
M  V30 33224 H 3043.08 -0.894188 -1.9266 0
M  V30 33225 H 3045.34 -0.34152 -0.884346 0
M  V30 33226 H 3045.05 -0.697132 -3.44722 0
M  V30 33227 H 3044.92 1.04408 -3.62462 0
M  V30 33228 H 3047.31 1.27683 -2.66047 0
M  V30 33229 H 3047.39 -0.484456 -2.51171 0
M  V30 33230 H 3047.04 -0.691331 -5.03173 0
M  V30 33231 H 3046.97 1.08467 -5.15308 0
M  V30 33232 H 3049.46 0.379002 -3.75995 0
M  V30 33233 H 3049.77 0.150382 -7.72654 0
M  V30 33234 H 3048.12 0.142191 -6.94855 0
M  V30 33235 H 3051.31 0.385561 -4.66509 0
M  V30 33236 H 3051.48 0.281536 -6.47388 0
M  V30 33237 N 3044.89 1.54985 0.285878 0
M  V30 33238 C 3045.82 1.83373 1.37502 0
M  V30 33239 C 3046.83 0.71748 1.46137 0
M  V30 33240 O 3048.02 0.995168 1.48185 0
M  V30 33241 C 3045.12 1.97021 2.75746 0
M  V30 33242 C 3044.29 3.27566 2.8986 0
M  V30 33243 C 3043.35 3.3144 4.08698 0
M  V30 33244 O 3042.38 4.0489 4.00066 0
M  V30 33245 N 3043.58 2.57916 5.20057 0
M  V30 33246 H 3046.34 2.77377 1.135 0
M  V30 33247 H 3043.91 1.54745 0.475979 0
M  V30 33248 H 3045.9 1.96997 3.53517 0
M  V30 33249 H 3044.47 1.09943 2.92628 0
M  V30 33250 H 3043.69 3.40237 1.99079 0
M  V30 33251 H 3044.98 4.13686 2.96212 0
M  V30 33252 H 3044.37 1.979 5.29955 0
M  V30 33253 H 3042.93 2.63629 5.96106 0
M  V30 33254 N 3046.36 -0.549794 1.47699 0
M  V30 33255 C 3047.33 -1.63834 1.60285 0
M  V30 33256 C 3048.33 -1.53549 0.477421 0
M  V30 33257 O 3049.52 -1.57574 0.742693 0
M  V30 33258 C 3046.65 -3.03401 1.55436 0
M  V30 33259 H 3047.84 -1.54022 2.57327 0
M  V30 33260 H 3045.4 -0.770305 1.36 0
M  V30 33261 H 3046.13 -3.18739 0.597968 0
M  V30 33262 H 3045.92 -3.12275 2.37121 0
M  V30 33263 H 3047.41 -3.82581 1.67396 0
M  V30 33264 N 3047.84 -1.35955 -0.797117 0
M  V30 33265 C 3049.09 -1.295 -1.55158 0
M  V30 33266 C 3049.41 0.127625 -1.94582 0
M  V30 33267 O 3048.68 1.06619 -1.64345 0
M  V30 33268 H 3047.26 -0.47636 -0.575405 0
M  V30 33269 H 3049.92 -1.70165 -0.950252 0
M  V30 33270 H 3049.02 -1.91725 -2.46268 0
M  V30 33271 N 3049.32 1.02038 -1.20108 0
M  V30 33272 C 3050.57 1.74983 -1.00319 0
M  V30 33273 C 3050.88 1.89973 0.46578 0
M  V30 33274 O 3052.09 2.59973 0.782703 0
M  V30 33275 C 3050.54 3.14703 -1.74614 0
M  V30 33276 C 3050.15 3.07738 -3.25579 0
M  V30 33277 C 3051.9 3.91884 -1.63179 0
M  V30 33278 C 3049.8 4.42442 -3.92427 0
M  V30 33279 H 3048.73 0.655992 -0.371739 0
M  V30 33280 H 3051.38 1.14129 -1.4369 0
M  V30 33281 H 3049.77 3.76076 -1.24027 0
M  V30 33282 H 3050.94 2.55695 -3.83349 0
M  V30 33283 H 3049.26 2.44051 -3.37384 0
M  V30 33284 H 3051.85 4.91536 -2.10466 0
M  V30 33285 H 3052.2 4.12136 -0.587352 0
M  V30 33286 H 3052.73 3.37131 -2.11158 0
M  V30 33287 H 3049.47 4.27394 -4.97006 0
M  V30 33288 H 3048.99 4.94507 -3.39445 0
M  V30 33289 H 3050.67 5.11299 -3.96462 0
M  V30 33290 N 3050.8 1.00636 1.21285 0
M  V30 33291 C 3052.05 0.685212 1.89704 0
M  V30 33292 C 3052.36 -0.787534 1.79045 0
M  V30 33293 O 3053.57 -1.22082 2.42504 0
M  V30 33294 C 3052.02 1.17514 3.40174 0
M  V30 33295 C 3051.63 2.67406 3.59441 0
M  V30 33296 C 3053.37 0.928942 4.14211 0
M  V30 33297 C 3051.28 3.09932 5.03682 0
M  V30 33298 H 3050.21 0.252599 0.710429 0
M  V30 33299 H 3052.86 1.2177 1.37274 0
M  V30 33300 H 3051.24 0.570691 3.91866 0
M  V30 33301 H 3052.42 3.33312 3.18182 0
M  V30 33302 H 3050.73 2.90055 2.98759 0
M  V30 33303 H 3053.33 1.22221 5.20544 0
M  V30 33304 H 3053.67 -0.134785 4.16082 0
M  V30 33305 H 3054.21 1.49625 3.68588 0
M  V30 33306 H 3050.95 4.15538 5.0696 0
M  V30 33307 H 3050.47 2.48739 5.45792 0
M  V30 33308 H 3052.14 3.0199 5.72198 0
M  V30 33309 N 3052.28 -1.36872 0.781268 0
M  V30 33310 C 3053.21 -2.28819 0.132115 0
M  V30 33311 C 3054.22 -1.49091 -0.653899 0
M  V30 33312 O 3055.41 -1.71631 -0.490423 0
M  V30 33313 C 3052.51 -3.28421 -0.83624 0
M  V30 33314 C 3051.68 -4.37281 -0.10202 0
M  V30 33315 C 3050.74 -5.16896 -0.985126 0
M  V30 33316 O 3049.77 -5.67455 -0.445378 0
M  V30 33317 N 3050.97 -5.32544 -2.31034 0
M  V30 33318 H 3053.74 -2.85169 0.921888 0
M  V30 33319 H 3051.3 -1.48951 0.634453 0
M  V30 33320 H 3053.29 -3.78568 -1.43068 0
M  V30 33321 H 3051.86 -2.7277 -1.52693 0
M  V30 33322 H 3051.08 -3.88405 0.673418 0
M  V30 33323 H 3052.37 -5.07186 0.404951 0
M  V30 33324 H 3051.76 -4.93068 -2.7731 0
M  V30 33325 H 3050.32 -5.85965 -2.85461 0
M  V30 33326 N 3053.75 -0.532597 -1.48328 0
M  V30 33327 C 3054.72 0.218029 -2.28161 0
M  V30 33328 C 3055.72 0.865385 -1.35528 0
M  V30 33329 O 3056.91 0.725033 -1.58395 0
M  V30 33330 C 3054.04 1.31581 -3.14483 0
M  V30 33331 H 3055.23 -0.482917 -2.95986 0
M  V30 33332 H 3052.79 -0.28863 -1.53612 0
M  V30 33333 H 3053.52 2.04992 -2.51294 0
M  V30 33334 H 3053.31 0.856711 -3.82626 0
M  V30 33335 H 3054.8 1.8437 -3.74696 0
M  V30 33336 N 3055.23 1.55307 -0.267853 0
M  V30 33337 C 3056.16 2.25213 0.616545 0
M  V30 33338 C 3057.14 1.23971 1.1647 0
M  V30 33339 O 3058.33 1.52674 1.20018 0
M  V30 33340 C 3055.46 2.96767 1.80407 0
M  V30 33341 C 3054.41 4.04876 1.38777 0
M  V30 33342 C 3053.74 4.63966 2.65781 0
M  V30 33343 C 3055.04 5.19466 0.543323 0
M  V30 33344 H 3056.73 2.99381 0.0335731 0
M  V30 33345 H 3054.28 1.43992 0.0147074 0
M  V30 33346 H 3056.23 3.44379 2.4286 0
M  V30 33347 H 3054.96 2.20122 2.41276 0
M  V30 33348 H 3053.61 3.58064 0.786478 0
M  V30 33349 H 3053.26 3.83997 3.24892 0
M  V30 33350 H 3052.96 5.36958 2.38641 0
M  V30 33351 H 3054.49 5.14324 3.29095 0
M  V30 33352 H 3055.9 5.63176 1.07267 0
M  V30 33353 H 3054.3 5.98976 0.367114 0
M  V30 33354 H 3055.37 4.82903 -0.439618 0
M  V30 33355 N 3056.71 -0.00497598 1.57599 0
M  V30 33356 C 3057.64 -1.02606 2.0495 0
M  V30 33357 C 3058.66 -1.31004 0.96653 0
M  V30 33358 O 3059.84 -1.28068 1.24342 0
M  V30 33359 C 3056.94 -2.36202 2.43027 0
M  V30 33360 C 3056.12 -2.26815 3.73997 0
M  V30 33361 C 3055.18 -3.43058 3.98996 0
M  V30 33362 O 3054.2 -3.21468 4.6973 0
M  V30 33363 N 3055.4 -4.65742 3.46504 0
M  V30 33364 H 3058.17 -0.622284 2.93168 0
M  V30 33365 H 3055.73 -0.19246 1.60752 0
M  V30 33366 H 3057.72 -3.12731 2.56869 0
M  V30 33367 H 3056.29 -2.68338 1.60354 0
M  V30 33368 H 3055.51 -1.35229 3.70279 0
M  V30 33369 H 3056.8 -2.17711 4.59869 0
M  V30 33370 H 3056.2 -4.86181 2.89214 0
M  V30 33371 H 3054.76 -5.39554 3.65684 0
M  V30 33372 N 3058.19 -1.55135 -0.277654 0
M  V30 33373 C 3059.14 -1.8848 -1.36301 0
M  V30 33374 C 3060.13 -0.760681 -1.51361 0
M  V30 33375 O 3061.34 -0.94497 -1.532 0
M  V30 33376 H 3057.71 -0.598154 -0.455759 0
M  V30 33377 H 3059.68 -2.79156 -1.05426 0
M  V30 33378 C 3058.43 -2.16922 -2.71735 0
M  V30 33379 H 3057.75 -3.02906 -2.60937 0
M  V30 33380 H 3059.19 -2.44178 -3.46631 0
M  V30 33381 C 3057.65 -0.975296 -3.22474 0
M  V30 33382 O 3058.18 -0.207568 -4.01163 0
M  V30 33383 N 3056.39 -0.774268 -2.80095 0
M  V30 33384 H 3055.94 -1.40026 -2.16219 0
M  V30 33385 H 3055.89 0.0229658 -3.14392 0
M  V30 33386 N 3059.67 0.541953 -1.47989 0
M  V30 33387 C 3060.6 1.6571 -1.64506 0
M  V30 33388 C 3061.58 1.62764 -0.494144 0
M  V30 33389 O 3062.76 1.80148 -0.725287 0
M  V30 33390 C 3059.89 3.04325 -1.67343 0
M  V30 33391 C 3058.85 3.22125 -2.81815 0
M  V30 33392 C 3058.17 4.6168 -2.69733 0
M  V30 33393 C 3059.47 3.06039 -4.23247 0
M  V30 33394 H 3061.17 1.52142 -2.57862 0
M  V30 33395 H 3058.71 0.730507 -1.24095 0
M  V30 33396 H 3060.67 3.82199 -1.77487 0
M  V30 33397 H 3059.39 3.18888 -0.70557 0
M  V30 33398 H 3058.05 2.46664 -2.71205 0
M  V30 33399 H 3057.7 4.73062 -1.70942 0
M  V30 33400 H 3057.4 4.74537 -3.46538 0
M  V30 33401 H 3058.92 5.41669 -2.81828 0
M  V30 33402 H 3060.33 3.73716 -4.34752 0
M  V30 33403 H 3058.73 3.30396 -5.00958 0
M  V30 33404 H 3059.8 2.02601 -4.40546 0
M  V30 33405 N 3061.15 1.36376 0.789896 0
M  V30 33406 C 3062.39 1.30321 1.54469 0
M  V30 33407 C 3062.71 -0.117304 1.94647 0
M  V30 33408 O 3061.98 -1.05746 1.64908 0
M  V30 33409 H 3060.56 0.479404 0.57287 0
M  V30 33410 H 3063.23 1.70667 0.941215 0
M  V30 33411 H 3062.32 1.93028 2.45248 0
M  V30 33412 N 3062.62 -1.014 1.20647 0
M  V30 33413 C 3063.55 -2.11866 0.981588 0
M  V30 33414 C 3064.53 -1.6986 -0.0903413 0
M  V30 33415 O 3065.72 -1.94082 0.0676927 0
M  V30 33416 C 3062.85 -3.43144 0.535696 0
M  V30 33417 C 3061.8 -3.98902 1.55116 0
M  V30 33418 C 3061.13 -5.25978 0.961817 0
M  V30 33419 C 3062.43 -4.31995 2.9356 0
M  V30 33420 H 3064.12 -2.30937 1.90548 0
M  V30 33421 H 3061.67 -1.1098 0.917573 0
M  V30 33422 H 3063.62 -4.19811 0.365586 0
M  V30 33423 H 3062.35 -3.23838 -0.423825 0
M  V30 33424 H 3061.01 -3.24345 1.70868 0
M  V30 33425 H 3060.65 -5.03 -0.00571266 0
M  V30 33426 H 3060.35 -5.64249 1.64003 0
M  V30 33427 H 3061.88 -6.05299 0.802832 0
M  V30 33428 H 3063.29 -4.99541 2.81304 0
M  V30 33429 H 3061.69 -4.81386 3.58312 0
M  V30 33430 H 3062.76 -3.40652 3.45086 0
M  V30 33431 N 3064.1 -1.01278 -1.2075 0
M  V30 33432 C 3065.34 -0.708406 -1.91732 0
M  V30 33433 C 3065.71 0.747824 -1.76838 0
M  V30 33434 O 3066.91 1.16454 -2.42264 0
M  V30 33435 C 3065.18 -1.12738 -3.39153 0
M  V30 33436 S 3066.74 -0.9444 -4.28517 0
M  V30 33437 H 3063.55 -0.258381 -0.66239 0
M  V30 33438 H 3066.16 -1.29924 -1.46082 0
M  V30 33439 H 3064.86 -2.18319 -3.47513 0
M  V30 33440 H 3064.39 -0.529169 -3.89825 0
M  V30 33441 H 3066.41 0.154191 -4.9596 0
M  V30 33442 N 3065.58 1.36456 -0.788516 0
M  V30 33443 C 3066.53 2.27442 -0.159417 0
M  V30 33444 C 3067.51 1.46914 0.65612 0
M  V30 33445 O 3068.71 1.69301 0.516342 0
M  V30 33446 C 3065.83 3.3597 0.705644 0
M  V30 33447 C 3064.92 4.23934 -0.118635 0
M  V30 33448 N 3065.31 4.92018 -1.17269 0
M  V30 33449 C 3063.61 4.45882 0.102674 0
M  V30 33450 C 3064.31 5.57081 -1.6744 0
M  V30 33451 N 3063.29 5.34624 -0.983776 0
M  V30 33452 H 3067.09 2.77564 -0.966189 0
M  V30 33453 H 3064.6 1.49771 -0.627891 0
M  V30 33454 H 3066.6 4.0008 1.17224 0
M  V30 33455 H 3065.26 2.87402 1.51097 0
M  V30 33456 H 3066.27 4.94001 -1.5551 0
M  V30 33457 H 3062.95 4.08151 0.878579 0
M  V30 33458 H 3064.34 6.21452 -2.55434 0
M  V30 33459 N 3067.06 0.540456 1.48043 0
M  V30 33460 C 3068.31 0.00813507 2.01698 0
M  V30 33461 C 3068.62 -1.34322 1.42186 0
M  V30 33462 O 3069.83 -1.9645 1.87402 0
M  V30 33463 C 3068.28 -0.0358697 3.59882 0
M  V30 33464 C 3067.89 1.31123 4.28382 0
M  V30 33465 C 3069.63 -0.516466 4.21347 0
M  V30 33466 C 3067.54 1.22724 5.78526 0
M  V30 33467 H 3066.47 -0.00072892 0.754 0
M  V30 33468 H 3069.12 0.685805 1.70203 0
M  V30 33469 H 3067.5 -0.778838 3.88266 0
M  V30 33470 H 3068.68 2.07059 4.11659 0
M  V30 33471 H 3066.99 1.7284 3.78834 0
M  V30 33472 H 3069.59 -0.597436 5.31352 0
M  V30 33473 H 3069.93 -1.52466 3.87375 0
M  V30 33474 H 3070.47 0.171133 3.97432 0
M  V30 33475 H 3067.2 2.21091 6.17089 0
M  V30 33476 H 3066.72 0.509415 5.97633 0
M  V30 33477 H 3068.4 0.922273 6.40393 0
M  V30 33478 N 3068.54 -1.55163 0.276085 0
M  V30 33479 C 3069.47 -2.25537 -0.604593 0
M  V30 33480 C 3070.45 -1.24587 -1.15811 0
M  V30 33481 O 3071.63 -1.53308 -1.19207 0
M  V30 33482 C 3068.76 -2.9772 -1.78831 0
M  V30 33483 C 3067.72 -4.05607 -1.36628 0
M  V30 33484 C 3067.04 -4.65369 -2.63317 0
M  V30 33485 C 3068.34 -5.19747 -0.515767 0
M  V30 33486 H 3070.04 -2.99395 -0.0176957 0
M  V30 33487 H 3067.58 -1.43998 -0.00707096 0
M  V30 33488 H 3069.53 -3.45663 -2.4103 0
M  V30 33489 H 3068.26 -2.21398 -2.40105 0
M  V30 33490 H 3066.92 -3.58476 -0.767478 0
M  V30 33491 H 3066.57 -3.85715 -3.22851 0
M  V30 33492 H 3066.27 -5.38216 -2.3579 0
M  V30 33493 H 3067.79 -5.16062 -3.26363 0
M  V30 33494 H 3069.2 -5.63736 -1.04279 0
M  V30 33495 H 3067.6 -5.99162 -0.335344 0
M  V30 33496 H 3068.67 -4.82663 0.465222 0
M  V30 33497 N 3070.01 -0.00338196 -1.576 0
M  V30 33498 C 3071.24 0.695276 -1.95399 0
M  V30 33499 C 3071.66 1.66325 -0.878505 0
M  V30 33500 O 3071.02 1.80565 0.163054 0
M  V30 33501 C 3071.07 1.40044 -3.32295 0
M  V30 33502 O 3070.17 2.51497 -3.26838 0
M  V30 33503 H 3069.51 0.184683 -0.637799 0
M  V30 33504 H 3072.04 -0.0575789 -2.04519 0
M  V30 33505 H 3072.05 1.76309 -3.67939 0
M  V30 33506 H 3070.73 0.690731 -4.10124 0
M  V30 33507 H 3069.31 2.17533 -3.02876 0
M  V30 33508 N 3071.49 1.5528 0.269423 0
M  V30 33509 C 3072.74 1.76316 1.00203 0
M  V30 33510 C 3073.07 0.564614 1.85811 0
M  V30 33511 O 3072.35 -0.437736 1.8951 0
M  V30 33512 C 3072.63 3.07032 1.88158 0
M  V30 33513 C 3072.48 4.37248 1.05519 0
M  V30 33514 C 3073.8 3.33813 2.86805 0
M  V30 33515 H 3070.92 0.641479 0.362868 0
M  V30 33516 H 3073.56 1.88012 0.274155 0
M  V30 33517 H 3071.71 2.97192 2.50218 0
M  V30 33518 H 3073.38 4.5905 0.455013 0
M  V30 33519 H 3071.63 4.32314 0.358766 0
M  V30 33520 H 3072.3 5.25045 1.70388 0
M  V30 33521 H 3074.77 3.4347 2.34878 0
M  V30 33522 H 3073.65 4.26534 3.45485 0
M  V30 33523 H 3073.91 2.53626 3.62113 0
M  V30 33524 N 3072.97 -0.534097 1.48274 0
M  V30 33525 C 3074.2 -1.31308 1.59505 0
M  V30 33526 C 3074.61 -1.87503 0.252873 0
M  V30 33527 O 3073.95 -1.66905 -0.767369 0
M  V30 33528 C 3074.01 -2.50452 2.57903 0
M  V30 33529 C 3073.68 -2.15375 4.03067 0
M  V30 33530 C 3074.67 -1.71291 4.90872 0
M  V30 33531 C 3072.36 -2.26024 4.48574 0
M  V30 33532 C 3074.35 -1.38317 6.22212 0
M  V30 33533 C 3072.04 -1.92662 5.79935 0
M  V30 33534 C 3073.04 -1.48878 6.66576 0
M  V30 33535 O 3072.73 -1.15952 7.95494 0
M  V30 33536 H 3072.46 -0.40573 0.540703 0
M  V30 33537 H 3075.01 -0.651462 1.94795 0
M  V30 33538 H 3073.24 -3.19581 2.17726 0
M  V30 33539 H 3074.93 -3.12517 2.59013 0
M  V30 33540 H 3075.7 -1.62537 4.56954 0
M  V30 33541 H 3071.58 -2.59059 3.81326 0
M  V30 33542 H 3075.12 -1.0407 6.89794 0
M  V30 33543 H 3071.02 -2.01055 6.1339 0
M  V30 33544 H 3071.78 -1.29385 8.08209 0
M  V30 33545 N 3074.45 -1.36793 -0.782652 0
M  V30 33546 C 3075.38 -1.34359 -1.90971 0
M  V30 33547 C 3076.36 -0.213947 -1.68749 0
M  V30 33548 O 3077.54 -0.412634 -1.89766 0
M  V30 33549 C 3074.67 -1.1389 -3.28095 0
M  V30 33550 C 3073.63 -2.23751 -3.64856 0
M  V30 33551 C 3072.95 -1.88417 -5.00403 0
M  V30 33552 C 3074.25 -3.65876 -3.72736 0
M  V30 33553 H 3075.95 -2.28668 -1.93264 0
M  V30 33554 H 3073.49 -1.10074 -0.928428 0
M  V30 33555 H 3075.45 -1.1082 -4.06567 0
M  V30 33556 H 3074.17 -0.160333 -3.26206 0
M  V30 33557 H 3072.83 -2.25957 -2.88685 0
M  V30 33558 H 3072.48 -0.89117 -4.95043 0
M  V30 33559 H 3072.18 -2.61975 -5.25969 0
M  V30 33560 H 3073.7 -1.86915 -5.81288 0
M  V30 33561 H 3075.12 -3.65859 -4.41384 0
M  V30 33562 H 3073.51 -4.38397 -4.09791 0
M  V30 33563 H 3074.58 -4.00291 -2.73669 0
M  V30 33564 N 3075.93 1.00759 -1.21184 0
M  V30 33565 C 3076.87 2.09483 -0.968778 0
M  V30 33566 C 3077.84 1.65772 0.104296 0
M  V30 33567 O 3079.03 1.90753 -0.0422922 0
M  V30 33568 C 3076.17 3.409 -0.536746 0
M  V30 33569 C 3075.28 3.98038 -1.67897 0
M  V30 33570 C 3074.42 5.17553 -1.19636 0
M  V30 33571 C 3073.46 5.66794 -2.31109 0
M  V30 33572 N 3072.59 6.77561 -1.84 0
M  V30 33573 H 3077.43 2.2961 -1.89956 0
M  V30 33574 H 3074.97 1.12587 -0.946707 0
M  V30 33575 H 3076.93 4.16341 -0.267523 0
M  V30 33576 H 3075.56 3.20819 0.357035 0
M  V30 33577 H 3074.61 3.19607 -2.06289 0
M  V30 33578 H 3075.92 4.30578 -2.51802 0
M  V30 33579 H 3075.08 6.0023 -0.883644 0
M  V30 33580 H 3073.81 4.866 -0.32733 0
M  V30 33581 H 3072.82 4.82714 -2.63186 0
M  V30 33582 H 3074.04 5.99777 -3.18504 0
M  V30 33583 H 3071.99 6.4842 -0.994371 0
M  V30 33584 H 3071.91 7.09341 -2.61479 0
M  V30 33585 H 3073.18 7.63781 -1.55755 0
M  V30 33586 N 3077.4 1.01917 1.20211 0
M  V30 33587 C 3078.65 0.708586 1.89271 0
M  V30 33588 C 3078.97 -0.764349 1.79395 0
M  V30 33589 O 3078.24 -1.54997 1.19803 0
M  V30 33590 H 3076.82 0.259106 0.700623 0
M  V30 33591 H 3079.49 1.29132 1.45983 0
M  V30 33592 H 3078.58 0.994267 2.95839 0
M  V30 33593 N 3078.88 -1.36036 0.795742 0
M  V30 33594 C 3079.81 -2.32528 0.212843 0
M  V30 33595 C 3080.79 -1.56955 -0.655689 0
M  V30 33596 O 3081.98 -1.85078 -0.588205 0
M  V30 33597 C 3079.11 -3.41199 -0.648129 0
M  V30 33598 C 3078.06 -4.27829 0.121023 0
M  V30 33599 C 3077.39 -5.27723 -0.860951 0
M  V30 33600 C 3078.69 -5.05505 1.31384 0
M  V30 33601 H 3080.38 -2.81526 1.01898 0
M  V30 33602 H 3077.93 -1.35354 0.491446 0
M  V30 33603 H 3079.88 -4.07697 -1.0659 0
M  V30 33604 H 3078.61 -2.90783 -1.48704 0
M  V30 33605 H 3077.26 -3.62896 0.519841 0
M  V30 33606 H 3076.91 -4.73578 -1.69507 0
M  V30 33607 H 3076.61 -5.86552 -0.350705 0
M  V30 33608 H 3078.14 -5.97094 -1.27715 0
M  V30 33609 H 3079.55 -5.65009 0.971506 0
M  V30 33610 H 3077.95 -5.73778 1.75782 0
M  V30 33611 H 3079.02 -4.36779 2.106 0
M  V30 33612 N 3080.36 -0.5483 -1.47755 0
M  V30 33613 C 3081.64 0.044326 -1.9555 0
M  V30 33614 C 3082.02 1.49459 -1.49081 0
M  V30 33615 O 3081.37 2.16674 -0.725576 0
M  V30 33616 C 3081.58 -0.0919039 -3.48879 0
M  V30 33617 C 3082.92 0.0580133 -4.2456 0
M  V30 33618 O 3083.95 -0.0190086 -3.56195 0
M  V30 33619 O 3082.81 0.222165 -5.46048 0
M  V30 33620 H 3079.9 0.069109 -0.824107 0
M  V30 33621 H 3082.45 -0.614194 -1.58195 0
M  V30 33622 H 3081.22 -1.10143 -3.75479 0
M  V30 33623 H 3080.84 0.604635 -3.92976 0
M  V30 33624 N 3081.84 1.55014 -0.28431 0
M  V30 33625 C 3083.07 2.03908 0.332429 0
M  V30 33626 C 3083.48 1.16179 1.49328 0
M  V30 33627 O 3082.82 0.176427 1.82851 0
M  V30 33628 C 3082.88 3.48885 0.867131 0
M  V30 33629 C 3082.55 4.56697 -0.166279 0
M  V30 33630 C 3083.54 5.10407 -0.988988 0
M  V30 33631 C 3081.23 5.01384 -0.303169 0
M  V30 33632 C 3083.22 6.07329 -1.93469 0
M  V30 33633 C 3080.91 5.9813 -1.25233 0
M  V30 33634 C 3081.91 6.50985 -2.06659 0
M  V30 33635 O 3081.59 7.45838 -2.99969 0
M  V30 33636 H 3081.33 0.671409 0.0786479 0
M  V30 33637 H 3083.88 2.01124 -0.416906 0
M  V30 33638 H 3082.11 3.48938 1.6667 0
M  V30 33639 H 3083.8 3.81067 1.39795 0
M  V30 33640 H 3084.57 4.76689 -0.894013 0
M  V30 33641 H 3080.44 4.59884 0.32063 0
M  V30 33642 H 3083.99 6.48509 -2.57064 0
M  V30 33643 H 3079.89 6.31266 -1.34809 0
M  V30 33644 H 3080.65 7.63585 -2.94755 0
M  V30 33645 N 3083.32 0.0117398 1.57596 0
M  V30 33646 C 3084.23 -0.991927 2.12598 0
M  V30 33647 C 3085.24 -1.36897 1.07402 0
M  V30 33648 O 3086.42 -1.45392 1.39367 0
M  V30 33649 C 3083.48 -2.26136 2.628 0
M  V30 33650 C 3082.54 -1.94635 3.82643 0
M  V30 33651 C 3081.78 -3.15526 4.30441 0
M  V30 33652 O 3082 -4.27607 3.77503 0
M  V30 33653 O 3080.93 -2.98837 5.22475 0
M  V30 33654 H 3084.76 -0.554319 2.98598 0
M  V30 33655 H 3082.35 -0.207813 1.47948 0
M  V30 33656 H 3084.23 -3.0069 2.95235 0
M  V30 33657 H 3082.9 -2.69111 1.79891 0
M  V30 33658 H 3081.81 -1.1752 3.55162 0
M  V30 33659 H 3083.14 -1.56488 4.66661 0
M  V30 33660 N 3084.79 -1.55421 -0.261185 0
M  V30 33661 C 3085.74 -1.89915 -1.34294 0
M  V30 33662 C 3086.74 -0.776692 -1.50545 0
M  V30 33663 O 3087.94 -0.961165 -1.52189 0
M  V30 33664 H 3084.32 -0.602954 -0.449389 0
M  V30 33665 H 3086.29 -2.80258 -1.02459 0
M  V30 33666 C 3085.04 -2.19792 -2.69419 0
M  V30 33667 H 3084.36 -3.05657 -2.57709 0
M  V30 33668 H 3085.8 -2.47841 -3.44021 0
M  V30 33669 C 3084.26 -1.00944 -3.21422 0
M  V30 33670 O 3084.79 -0.250105 -4.00921 0
M  V30 33671 N 3083 -0.803932 -2.79258 0
M  V30 33672 H 3082.54 -1.42311 -2.14721 0
M  V30 33673 H 3082.5 -0.010381 -3.14398 0
M  V30 33674 N 3086.27 0.526227 -1.48555 0
M  V30 33675 C 3087.22 1.63043 -1.63357 0
M  V30 33676 C 3088.19 1.59147 -0.475537 0
M  V30 33677 O 3089.37 1.77516 -0.699484 0
M  V30 33678 C 3086.51 3.01292 -1.68277 0
M  V30 33679 C 3085.63 3.15394 -2.95213 0
M  V30 33680 C 3084.76 4.44225 -2.91269 0
M  V30 33681 C 3083.8 4.51869 -4.12894 0
M  V30 33682 N 3082.94 5.72093 -4.07006 0
M  V30 33683 H 3087.78 1.49732 -2.57651 0
M  V30 33684 H 3085.32 0.728916 -1.2777 0
M  V30 33685 H 3087.27 3.81389 -1.69111 0
M  V30 33686 H 3085.9 3.13366 -0.774696 0
M  V30 33687 H 3084.96 2.28525 -3.04106 0
M  V30 33688 H 3086.27 3.16904 -3.85193 0
M  V30 33689 H 3085.42 5.32616 -2.90526 0
M  V30 33690 H 3084.16 4.45242 -1.99024 0
M  V30 33691 H 3083.17 3.61884 -4.13908 0
M  V30 33692 H 3084.39 4.52587 -5.06302 0
M  V30 33693 H 3082.34 5.74001 -3.17583 0
M  V30 33694 H 3082.25 5.75112 -4.90695 0
M  V30 33695 H 3083.52 6.62761 -4.10327 0
M  V30 33696 N 3087.75 1.37206 0.775387 0
M  V30 33697 C 3089.03 1.22751 1.52288 0
M  V30 33698 C 3089.41 -0.180451 2.10327 0
M  V30 33699 O 3088.76 -1.18768 1.95209 0
M  V30 33700 C 3088.97 2.32064 2.60667 0
M  V30 33701 C 3090.31 2.69426 3.28169 0
M  V30 33702 O 3091.34 2.31213 2.70959 0
M  V30 33703 O 3090.2 3.35247 4.31592 0
M  V30 33704 H 3087.29 0.478774 0.674318 0
M  V30 33705 H 3089.84 1.48976 0.812664 0
M  V30 33706 H 3088.61 3.26365 2.15874 0
M  V30 33707 H 3088.23 2.07283 3.39293 0
M  V30 33708 N 3089.23 -1.00115 1.21716 0
M  V30 33709 C 3090.47 -1.74304 1.04832 0
M  V30 33710 C 3090.83 -1.87907 -0.413354 0
M  V30 33711 O 3090.12 -1.40514 -1.30255 0
M  V30 33712 C 3090.32 -3.15267 1.6835 0
M  V30 33713 C 3090.15 -3.15409 3.20543 0
M  V30 33714 C 3088.92 -3.21769 3.89606 0
M  V30 33715 C 3091.11 -3.00217 4.17582 0
M  V30 33716 N 3089.1 -3.11578 5.28954 0
M  V30 33717 C 3090.47 -2.97965 5.43707 0
M  V30 33718 C 3092.52 -2.84547 4.0858 0
M  V30 33719 C 3091.22 -2.81649 6.61866 0
M  V30 33720 C 3093.25 -2.69589 5.2638 0
M  V30 33721 C 3092.61 -2.68017 6.51419 0
M  V30 33722 H 3088.71 -0.647844 0.437975 0
M  V30 33723 H 3091.3 -1.18962 1.5413 0
M  V30 33724 H 3089.47 -3.68869 1.21614 0
M  V30 33725 H 3091.2 -3.77972 1.44635 0
M  V30 33726 H 3087.95 -3.2912 3.40554 0
M  V30 33727 H 3088.38 -3.09814 6.0195 0
M  V30 33728 H 3093.02 -2.84566 3.12701 0
M  V30 33729 H 3090.74 -2.80377 7.57901 0
M  V30 33730 H 3094.32 -2.58459 5.21239 0
M  V30 33731 H 3093.2 -2.5658 7.41037 0
M  V30 33732 N 3090.71 -1.02553 -1.19669 0
M  V30 33733 C 3091.95 -0.728701 -1.90969 0
M  V30 33734 C 3092.31 0.729026 -1.77621 0
M  V30 33735 O 3093.51 1.13878 -2.43486 0
M  V30 33736 C 3091.78 -1.16329 -3.37938 0
M  V30 33737 S 3093.34 -0.989797 -4.27491 0
M  V30 33738 H 3090.16 -0.265392 -0.659612 0
M  V30 33739 H 3092.76 -1.31466 -1.44696 0
M  V30 33740 H 3091.47 -2.21992 -3.45178 0
M  V30 33741 H 3091 -0.570485 -3.89242 0
M  V30 33742 H 3093.01 0.101579 -4.96096 0
M  V30 33743 N 3092.19 1.35612 -0.802945 0
M  V30 33744 C 3093.6 1.81367 -0.443035 0
M  V30 33745 C 3093.95 1.66707 1.03456 0
M  V30 33746 O 3093.07 1.19564 1.8037 0
M  V30 33747 C 3093.67 3.29283 -0.797382 0
M  V30 33748 C 3092.23 3.73195 -0.49012 0
M  V30 33749 C 3091.37 2.57664 -1.02491 0
M  V30 33750 H 3094.32 1.23642 -0.99491 0
M  V30 33751 H 3094.35 3.80385 -0.0935307 0
M  V30 33752 H 3093.86 3.39921 -1.87284 0
M  V30 33753 H 3091.96 3.68109 0.576754 0
M  V30 33754 H 3092.07 4.68112 -1.0202 0
M  V30 33755 H 3090.44 2.50739 -0.447424 0
M  V30 33756 H 3091.22 2.71081 -2.10641 0
M  V30 33757 N 3093.66 0.556128 1.47462 0
M  V30 33758 C 3094.57 -0.195337 2.33785 0
M  V30 33759 C 3095.59 -0.912974 1.48124 0
M  V30 33760 O 3096.77 -0.882109 1.81055 0
M  V30 33761 C 3093.83 -1.21277 3.24797 0
M  V30 33762 C 3092.89 -0.502672 4.26347 0
M  V30 33763 C 3092.12 -1.47163 5.1301 0
M  V30 33764 O 3092.35 -2.70637 5.02107 0
M  V30 33765 O 3091.28 -0.99671 5.9359 0
M  V30 33766 H 3095.11 0.512729 2.99341 0
M  V30 33767 H 3092.69 0.316755 1.46003 0
M  V30 33768 H 3094.57 -1.80009 3.81018 0
M  V30 33769 H 3093.25 -1.90277 2.61871 0
M  V30 33770 H 3092.16 0.125823 3.73888 0
M  V30 33771 H 3093.49 0.145866 4.91984 0
M  V30 33772 N 3095.14 -1.54861 0.292527 0
M  V30 33773 C 3096.07 -2.26166 -0.580638 0
M  V30 33774 C 3097.05 -1.25808 -1.14483 0
M  V30 33775 O 3098.24 -1.54564 -1.17574 0
M  V30 33776 C 3095.37 -2.996 -1.75663 0
M  V30 33777 C 3094.32 -4.07033 -1.32318 0
M  V30 33778 C 3093.65 -4.68136 -2.58366 0
M  V30 33779 C 3094.95 -5.20265 -0.460612 0
M  V30 33780 H 3096.64 -2.99397 0.0140601 0
M  V30 33781 H 3094.19 -1.43998 0.00820238 0
M  V30 33782 H 3096.14 -3.482 -2.3735 0
M  V30 33783 H 3094.86 -2.23932 -2.37743 0
M  V30 33784 H 3093.52 -3.5927 -0.729414 0
M  V30 33785 H 3093.17 -3.89118 -3.18742 0
M  V30 33786 H 3092.87 -5.40687 -2.30069 0
M  V30 33787 H 3094.4 -5.19494 -3.20871 0
M  V30 33788 H 3095.81 -5.64811 -0.982938 0
M  V30 33789 H 3094.21 -5.99484 -0.271776 0
M  V30 33790 H 3095.28 -4.82143 0.516388 0
M  V30 33791 N 3096.62 -0.0200973 -1.57587 0
M  V30 33792 C 3097.53 0.980638 -2.13121 0
M  V30 33793 C 3098.55 1.36326 -1.08126 0
M  V30 33794 O 3099.72 1.4465 -1.40136 0
M  V30 33795 C 3096.79 2.24739 -2.63995 0
M  V30 33796 C 3095.85 1.92603 -3.8367 0
M  V30 33797 C 3095.08 3.13238 -4.32108 0
M  V30 33798 O 3095.3 4.25599 -3.79765 0
M  V30 33799 O 3094.24 2.96062 -5.24052 0
M  V30 33800 H 3098.06 0.538476 -2.98888 0
M  V30 33801 H 3095.65 0.199964 -1.48056 0
M  V30 33802 H 3097.53 2.9912 -2.96826 0
M  V30 33803 H 3096.21 2.68154 -1.81316 0
M  V30 33804 H 3095.11 1.15635 -3.5578 0
M  V30 33805 H 3096.45 1.54011 -4.67484 0
M  V30 33806 N 3098.1 1.55557 0.252939 0
M  V30 33807 C 3099.01 1.92933 1.33468 0
M  V30 33808 C 3100.02 0.829012 1.52982 0
M  V30 33809 O 3101.2 1.12987 1.66721 0
M  V30 33810 C 3098.26 2.21116 2.67036 0
M  V30 33811 C 3097.33 3.44547 2.56097 0
M  V30 33812 C 3096.56 3.71376 3.83296 0
M  V30 33813 O 3096.78 3.00377 4.84902 0
M  V30 33814 O 3095.72 4.64905 3.82291 0
M  V30 33815 H 3099.54 2.85059 1.04763 0
M  V30 33816 H 3097.13 1.42361 0.453183 0
M  V30 33817 H 3099.01 2.40578 3.45977 0
M  V30 33818 H 3097.68 1.32171 2.95487 0
M  V30 33819 H 3096.59 3.30399 1.75464 0
M  V30 33820 H 3097.92 4.33776 2.32593 0
M  V30 33821 N 3099.58 -0.518341 1.48832 0
M  V30 33822 C 3100.51 -1.63072 1.67122 0
M  V30 33823 C 3101.49 -1.61958 0.519976 0
M  V30 33824 O 3102.67 -1.78971 0.753855 0
M  V30 33825 C 3099.8 -3.01624 1.72163 0
M  V30 33826 C 3098.76 -3.17601 2.86904 0
M  V30 33827 C 3098.08 -4.5733 2.77043 0
M  V30 33828 C 3099.38 -2.99266 4.28062 0
M  V30 33829 H 3101.08 -1.48021 2.6025 0
M  V30 33830 H 3098.62 -0.710672 1.25242 0
M  V30 33831 H 3100.57 -3.79327 1.83545 0
M  V30 33832 H 3099.3 -3.17725 0.756213 0
M  V30 33833 H 3097.96 -2.42318 2.75095 0
M  V30 33834 H 3097.61 -4.70283 1.78446 0
M  V30 33835 H 3097.31 -4.68963 3.54044 0
M  V30 33836 H 3098.83 -5.37117 2.9041 0
M  V30 33837 H 3100.24 -3.66752 4.40643 0
M  V30 33838 H 3098.64 -3.22384 5.06151 0
M  V30 33839 H 3099.71 -1.95567 4.43714 0
M  V30 33840 N 3101.05 -1.37615 -0.7681 0
M  V30 33841 C 3102 -1.30187 -1.87177 0
M  V30 33842 C 3102.99 -0.188971 -1.59786 0
M  V30 33843 O 3104.18 -0.423686 -1.71854 0
M  V30 33844 C 3101.31 -1.11477 -3.24696 0
M  V30 33845 C 3100.39 -2.27327 -3.58027 0
M  V30 33846 N 3100.79 -3.52728 -3.62514 0
M  V30 33847 C 3099.08 -2.19561 -3.88213 0
M  V30 33848 C 3099.78 -4.29144 -3.92696 0
M  V30 33849 N 3098.76 -3.58326 -4.08783 0
M  V30 33850 H 3102.56 -2.2515 -1.88903 0
M  V30 33851 H 3100.08 -1.3064 -0.96473 0
M  V30 33852 H 3102.07 -1.0424 -4.03658 0
M  V30 33853 H 3100.73 -0.174338 -3.24232 0
M  V30 33854 H 3101.74 -3.86589 -3.4463 0
M  V30 33855 H 3098.42 -1.33595 -3.95548 0
M  V30 33856 H 3099.81 -5.3769 -4.02913 0
M  V30 33857 N 3102.53 0.994677 -1.22245 0
M  V30 33858 C 3103.76 1.76693 -1.07065 0
M  V30 33859 C 3104.17 1.85306 0.381862 0
M  V30 33860 O 3103.51 1.32107 1.27646 0
M  V30 33861 C 3103.57 3.21687 -1.60492 0
M  V30 33862 C 3103.24 3.36624 -3.09085 0
M  V30 33863 C 3104.24 3.24081 -4.06531 0
M  V30 33864 C 3101.92 3.61733 -3.48504 0
M  V30 33865 C 3103.91 3.36427 -5.41383 0
M  V30 33866 C 3101.6 3.7372 -4.83504 0
M  V30 33867 C 3102.6 3.61075 -5.79753 0
M  V30 33868 O 3102.29 3.72665 -7.12303 0
M  V30 33869 H 3102.02 0.561801 -0.375973 0
M  V30 33870 H 3104.57 1.25938 -1.62262 0
M  V30 33871 H 3102.8 3.73626 -0.997023 0
M  V30 33872 H 3104.49 3.80623 -1.41001 0
M  V30 33873 H 3105.26 3.04596 -3.77421 0
M  V30 33874 H 3101.14 3.70652 -2.74113 0
M  V30 33875 H 3104.68 3.26474 -6.1649 0
M  V30 33876 H 3100.58 3.92712 -5.12297 0
M  V30 33877 H 3101.35 3.89549 -7.19857 0
M  V30 33878 N 3104.01 1.03186 1.19123 0
M  V30 33879 C 3104.94 0.573333 2.21913 0
M  V30 33880 C 3105.95 -0.352369 1.58941 0
M  V30 33881 O 3107.14 -0.148287 1.77883 0
M  V30 33882 C 3104.24 -0.183491 3.38403 0
M  V30 33883 C 3103.42 0.747893 4.30959 0
M  V30 33884 C 3102.48 0.0359414 5.26188 0
M  V30 33885 O 3101.5 0.663487 5.6532 0
M  V30 33886 N 3102.7 -1.23377 5.67237 0
M  V30 33887 H 3105.47 1.45739 2.61878 0
M  V30 33888 H 3103.03 0.911255 1.3382 0
M  V30 33889 H 3105.02 -0.669398 3.99125 0
M  V30 33890 H 3103.59 -0.96899 2.97203 0
M  V30 33891 H 3102.81 1.41383 3.67973 0
M  V30 33892 H 3104.1 1.3808 4.89705 0
M  V30 33893 H 3103.5 -1.7643 5.37484 0
M  V30 33894 H 3102.05 -1.66412 6.30199 0
M  V30 33895 N 3105.49 -1.35184 0.810125 0
M  V30 33896 C 3106.45 -2.28058 0.22856 0
M  V30 33897 C 3107.45 -1.49736 -0.586142 0
M  V30 33898 O 3108.64 -1.69448 -0.40411 0
M  V30 33899 C 3105.77 -3.34029 -0.680983 0
M  V30 33900 H 3106.97 -2.81003 1.04773 0
M  V30 33901 H 3104.52 -1.45099 0.581036 0
M  V30 33902 H 3105.25 -2.86276 -1.5237 0
M  V30 33903 H 3105.04 -3.91976 -0.0984587 0
M  V30 33904 H 3106.53 -4.03337 -1.08209 0
M  V30 33905 N 3106.97 -0.56394 -1.47165 0
M  V30 33906 C 3107.93 0.169583 -2.28572 0
M  V30 33907 C 3108.93 0.836443 -1.37333 0
M  V30 33908 O 3110.12 0.691272 -1.59897 0
M  V30 33909 C 3107.25 1.2488 -3.17203 0
M  V30 33910 H 3108.44 -0.545591 -2.94895 0
M  V30 33911 H 3106 -0.321148 -1.52965 0
M  V30 33912 H 3106.73 1.99616 -2.55585 0
M  V30 33913 H 3106.52 0.775358 -3.84357 0
M  V30 33914 H 3108.01 1.76381 -3.78523 0
M  V30 33915 N 3108.44 1.54704 -0.300735 0
M  V30 33916 C 3109.69 2.01146 0.301947 0
M  V30 33917 C 3110.05 1.1854 1.51546 0
M  V30 33918 O 3109.34 0.253689 1.89913 0
M  V30 33919 C 3109.53 3.50276 0.710046 0
M  V30 33920 C 3109.36 4.47317 -0.46237 0
M  V30 33921 C 3108.13 4.96207 -0.954301 0
M  V30 33922 C 3110.33 4.97409 -1.30725 0
M  V30 33923 N 3108.31 5.77101 -2.09351 0
M  V30 33924 C 3109.68 5.76002 -2.29394 0
M  V30 33925 C 3111.74 4.79595 -1.33765 0
M  V30 33926 C 3110.44 6.38679 -3.30881 0
M  V30 33927 C 3112.47 5.4309 -2.34109 0
M  V30 33928 C 3111.83 6.21515 -3.31508 0
M  V30 33929 H 3107.93 0.778399 0.0749572 0
M  V30 33930 H 3110.51 1.89879 -0.43059 0
M  V30 33931 H 3108.68 3.61834 1.41176 0
M  V30 33932 H 3110.41 3.83514 1.29224 0
M  V30 33933 H 3107.17 4.70633 -0.529321 0
M  V30 33934 H 3107.59 6.22232 -2.6675 0
M  V30 33935 H 3112.24 4.18545 -0.598358 0
M  V30 33936 H 3109.95 6.98863 -4.05729 0
M  V30 33937 H 3113.54 5.31235 -2.37235 0
M  V30 33938 H 3112.42 6.69777 -4.07883 0
M  V30 33939 N 3109.92 0.0284543 1.57574 0
M  V30 33940 C 3111.34 -0.327931 1.56195 0
M  V30 33941 C 3111.54 -1.72947 1.034 0
M  V30 33942 O 3110.59 -2.43159 0.680435 0
M  V30 33943 C 3111.91 -0.177143 3.00178 0
M  V30 33944 C 3113.46 -0.249959 3.12 0
M  V30 33945 C 3113.93 -0.127968 4.57821 0
M  V30 33946 N 3115.42 -0.184973 4.62831 0
M  V30 33947 C 3116.16 -0.114353 5.73286 0
M  V30 33948 N 3115.65 0.00731402 6.928 0
M  V30 33949 N 3117.45 -0.168292 5.61848 0
M  V30 33950 H 3109.6 0.944955 1.90222 0
M  V30 33951 H 3111.86 0.364847 0.87498 0
M  V30 33952 H 3111.57 0.788284 3.42752 0
M  V30 33953 H 3111.44 -0.947616 3.65103 0
M  V30 33954 H 3113.83 -1.20584 2.69339 0
M  V30 33955 H 3113.91 0.550879 2.49798 0
M  V30 33956 H 3113.55 0.824495 5.01163 0
M  V30 33957 H 3113.48 -0.947662 5.18003 0
M  V30 33958 H 3115.97 -0.279181 3.76867 0
M  V30 33959 H 3116.29 0.0545261 7.72781 0
M  V30 33960 H 3114.63 0.042087 6.94987 0
M  V30 33961 H 3117.82 -0.261739 4.67368 0
M  V30 33962 H 3117.99 -0.109794 6.47907 0
M  V30 33963 N 3111.4 -1.55689 -0.244686 0
M  V30 33964 C 3112.35 -1.91329 -1.32273 0
M  V30 33965 C 3113.34 -0.792615 -1.49713 0
M  V30 33966 O 3114.55 -0.977253 -1.51161 0
M  V30 33967 H 3110.92 -0.607686 -0.442969 0
M  V30 33968 H 3112.89 -2.81329 -0.99481 0
M  V30 33969 C 3111.64 -2.22638 -2.67073 0
M  V30 33970 H 3110.97 -3.08373 -2.54453 0
M  V30 33971 H 3112.41 -2.51476 -3.41373 0
M  V30 33972 C 3110.87 -1.04348 -3.20333 0
M  V30 33973 O 3111.4 -0.292614 -4.00633 0
M  V30 33974 N 3109.6 -0.833506 -2.7839 0
M  V30 33975 H 3109.15 -1.44581 -2.132 0
M  V30 33976 H 3109.11 -0.0437265 -3.1437 0
M  V30 33977 N 3112.88 0.510441 -1.49105 0
M  V30 33978 C 3113.81 1.63037 -1.59669 0
M  V30 33979 C 3114.79 1.56359 -0.446173 0
M  V30 33980 O 3115.97 1.76551 -0.660445 0
M  V30 33981 C 3113.1 3.01518 -1.54287 0
M  V30 33982 C 3112.15 3.26489 -2.74421 0
M  V30 33983 S 3112.98 3.10635 -4.36195 0
M  V30 33984 C 3114.14 4.51529 -4.33443 0
M  V30 33985 H 3114.37 1.53829 -2.54409 0
M  V30 33986 H 3111.9 0.694891 -1.37879 0
M  V30 33987 H 3113.86 3.81374 -1.51868 0
M  V30 33988 H 3112.52 3.08149 -0.608512 0
M  V30 33989 H 3111.71 4.27561 -2.66848 0
M  V30 33990 H 3111.32 2.54339 -2.74204 0
M  V30 33991 H 3113.61 5.43434 -4.04581 0
M  V30 33992 H 3114.55 4.64153 -5.3476 0
M  V30 33993 H 3114.96 4.31766 -3.63646 0
M  V30 33994 N 3114.36 1.38021 0.760791 0
M  V30 33995 C 3115.29 1.30553 1.88384 0
M  V30 33996 C 3116.3 0.219147 1.61318 0
M  V30 33997 O 3117.49 0.476152 1.72032 0
M  V30 33998 C 3114.59 0.998348 3.23861 0
M  V30 33999 C 3113.76 2.19239 3.78488 0
M  V30 34000 C 3112.82 1.85377 4.92465 0
M  V30 34001 O 3111.85 2.57794 5.07475 0
M  V30 34002 N 3113.05 0.80442 5.74899 0
M  V30 34003 H 3115.82 2.27325 1.95304 0
M  V30 34004 H 3113.38 1.31788 0.9404 0
M  V30 34005 H 3115.37 0.75247 3.97643 0
M  V30 34006 H 3113.94 0.118825 3.12374 0
M  V30 34007 H 3113.16 2.59936 2.96356 0
M  V30 34008 H 3114.45 2.98943 4.11717 0
M  V30 34009 H 3113.84 0.203727 5.65333 0
M  V30 34010 H 3112.4 0.618415 6.4886 0
M  V30 34011 N 3115.83 -0.98818 1.22771 0
M  V30 34012 C 3117.08 -1.73182 1.06675 0
M  V30 34013 C 3117.44 -1.88335 -0.393401 0
M  V30 34014 O 3116.73 -1.41887 -1.28758 0
M  V30 34015 C 3116.92 -3.13463 1.71684 0
M  V30 34016 C 3116.75 -3.11991 3.2387 0
M  V30 34017 C 3115.52 -3.17619 3.92997 0
M  V30 34018 C 3117.72 -2.95771 4.20742 0
M  V30 34019 N 3115.7 -3.0595 5.32229 0
M  V30 34020 C 3117.07 -2.92181 5.46836 0
M  V30 34021 C 3119.13 -2.80197 4.11575 0
M  V30 34022 C 3117.83 -2.74613 6.64816 0
M  V30 34023 C 3119.86 -2.63991 5.2921 0
M  V30 34024 C 3119.22 -2.61093 6.54225 0
M  V30 34025 H 3115.32 -0.643162 0.444822 0
M  V30 34026 H 3117.9 -1.17321 1.55383 0
M  V30 34027 H 3116.07 -3.67559 1.25519 0
M  V30 34028 H 3117.8 -3.76417 1.48636 0
M  V30 34029 H 3114.56 -3.25489 3.44026 0
M  V30 34030 H 3114.98 -3.03412 6.05202 0
M  V30 34031 H 3119.63 -2.81233 3.15702 0
M  V30 34032 H 3117.34 -2.72322 7.60833 0
M  V30 34033 H 3120.93 -2.52916 5.23951 0
M  V30 34034 H 3119.81 -2.48706 7.43717 0
M  V30 34035 N 3117.31 -1.03816 -1.18575 0
M  V30 34036 C 3118.59 -0.654391 -1.84329 0
M  V30 34037 C 3118.97 0.866304 -1.92506 0
M  V30 34038 O 3118.32 1.76675 -1.44907 0
M  V30 34039 C 3118.53 -1.32729 -3.22776 0
M  V30 34040 C 3119.88 -1.45648 -3.98838 0
M  V30 34041 O 3120.9 -1.2852 -3.32206 0
M  V30 34042 O 3119.76 -1.73535 -5.18216 0
M  V30 34043 H 3116.85 -0.228652 -0.794762 0
M  V30 34044 H 3119.4 -1.1369 -1.25987 0
M  V30 34045 H 3118.17 -2.36539 -3.11713 0
M  V30 34046 H 3117.79 -0.833245 -3.88771 0
M  V30 34047 N 3118.79 1.34753 -0.817283 0
M  V30 34048 C 3119.74 2.27053 -0.207625 0
M  V30 34049 C 3120.72 1.48273 0.62481 0
M  V30 34050 O 3121.92 1.70358 0.480314 0
M  V30 34051 C 3119.05 3.37391 0.634221 0
M  V30 34052 C 3118.13 4.23587 -0.208531 0
M  V30 34053 N 3118.52 4.8942 -1.27679 0
M  V30 34054 C 3116.82 4.45999 0.00807256 0
M  V30 34055 C 3117.52 5.53404 -1.79219 0
M  V30 34056 N 3116.5 5.32417 -1.09696 0
M  V30 34057 H 3120.3 2.75453 -1.02485 0
M  V30 34058 H 3117.81 1.48405 -0.659518 0
M  V30 34059 H 3119.81 4.02477 1.08711 0
M  V30 34060 H 3118.47 2.90542 1.44967 0
M  V30 34061 H 3119.48 4.90591 -1.65954 0
M  V30 34062 H 3116.16 4.09923 0.791806 0
M  V30 34063 H 3117.55 6.15894 -2.68559 0
M  V30 34064 N 3120.27 0.571737 1.46864 0
M  V30 34065 C 3121.51 0.0556846 2.04324 0
M  V30 34066 C 3121.87 -1.27574 1.43488 0
M  V30 34067 O 3123.07 -1.88036 1.92083 0
M  V30 34068 C 3121.35 -0.0205635 3.57394 0
M  V30 34069 S 3122.9 -0.480633 4.3616 0
M  V30 34070 H 3119.72 0.0321592 0.710272 0
M  V30 34071 H 3122.32 0.761756 1.80049 0
M  V30 34072 H 3121.03 0.952579 3.99192 0
M  V30 34073 H 3120.56 -0.749745 3.8619 0
M  V30 34074 H 3122.57 -1.73755 4.64783 0
M  V30 34075 N 3121.75 -1.54542 0.308935 0
M  V30 34076 C 3122.98 -2.04708 -0.300382 0
M  V30 34077 C 3123.39 -1.18584 -1.46913 0
M  V30 34078 O 3122.75 -0.213218 -1.8125 0
M  V30 34079 C 3122.8 -3.53656 -0.748976 0
M  V30 34080 O 3122.52 -4.36507 0.373258 0
M  V30 34081 C 3124.02 -4.19853 -1.42262 0
M  V30 34082 H 3121.24 -0.66793 -0.0641149 0
M  V30 34083 H 3123.78 -1.99468 0.450874 0
M  V30 34084 H 3121.94 -3.59231 -1.45024 0
M  V30 34085 H 3122.35 -5.24495 0.0225674 0
M  V30 34086 H 3123.83 -5.25571 -1.68759 0
M  V30 34087 H 3124.3 -3.70071 -2.36525 0
M  V30 34088 H 3124.91 -4.18376 -0.76433 0
M  V30 34089 N 3123.23 -0.0368104 -1.57557 0
M  V30 34090 C 3124.45 0.653673 -1.9683 0
M  V30 34091 C 3124.88 1.64424 -0.913588 0
M  V30 34092 O 3124.23 1.80871 0.124717 0
M  V30 34093 C 3124.28 1.32964 -3.35191 0
M  V30 34094 O 3123.39 2.44507 -3.32099 0
M  V30 34095 H 3122.73 0.171113 -0.641573 0
M  V30 34096 H 3125.26 -0.100947 -2.04351 0
M  V30 34097 H 3125.27 1.68465 -3.71596 0
M  V30 34098 H 3123.94 0.603582 -4.11497 0
M  V30 34099 H 3122.52 2.1106 -3.07422 0
M  V30 34100 N 3124.7 1.55817 0.236426 0
M  V30 34101 C 3125.95 1.78401 0.964407 0
M  V30 34102 C 3126.28 0.6039 1.84572 0
M  V30 34103 O 3125.56 -0.397439 1.90396 0
M  V30 34104 C 3125.84 3.10954 1.81603 0
M  V30 34105 C 3125.69 4.39388 0.962206 0
M  V30 34106 C 3127.01 3.39822 2.79659 0
M  V30 34107 H 3124.13 0.649032 0.34918 0
M  V30 34108 H 3126.77 1.88551 0.234214 0
M  V30 34109 H 3124.92 3.02432 2.43858 0
M  V30 34110 H 3126.6 4.59912 0.357539 0
M  V30 34111 H 3124.84 4.32978 0.266986 0
M  V30 34112 H 3125.51 5.28541 1.59212 0
M  V30 34113 H 3127.99 3.48374 2.2754 0
M  V30 34114 H 3126.86 4.33766 3.3636 0
M  V30 34115 H 3127.12 2.6125 3.56652 0
M  V30 34116 N 3126.18 -0.502526 1.49373 0
M  V30 34117 C 3127.41 -1.28553 1.62754 0
M  V30 34118 C 3127.83 -1.85719 0.298318 0
M  V30 34119 O 3127.19 -1.65784 -0.733856 0
M  V30 34120 C 3127.24 -2.39269 2.69783 0
M  V30 34121 O 3126.34 -3.43077 2.28849 0
M  V30 34122 H 3125.68 -0.379583 0.544805 0
M  V30 34123 H 3128.21 -0.601757 1.95551 0
M  V30 34124 H 3128.22 -2.85055 2.91904 0
M  V30 34125 H 3126.9 -1.97027 3.66269 0
M  V30 34126 H 3125.47 -3.0322 2.17053 0
M  V30 34127 N 3127.66 -1.38422 -0.75346 0
M  V30 34128 C 3128.61 -1.35662 -1.8672 0
M  V30 34129 C 3129.58 -0.21915 -1.64648 0
M  V30 34130 O 3130.76 -0.411398 -1.86312 0
M  V30 34131 C 3127.9 -1.18763 -3.24021 0
M  V30 34132 C 3127.01 -2.41898 -3.57924 0
M  V30 34133 C 3126.15 -2.17729 -4.84528 0
M  V30 34134 C 3125.19 -3.36635 -5.11218 0
M  V30 34135 N 3124.33 -3.119 -6.29017 0
M  V30 34136 H 3129.17 -2.30876 -1.88415 0
M  V30 34137 H 3126.7 -1.14707 -0.920913 0
M  V30 34138 H 3128.66 -1.06982 -4.0325 0
M  V30 34139 H 3127.29 -0.271876 -3.21653 0
M  V30 34140 H 3126.34 -2.64352 -2.73537 0
M  V30 34141 H 3127.65 -3.3052 -3.73575 0
M  V30 34142 H 3126.81 -2.03084 -5.71701 0
M  V30 34143 H 3125.55 -1.26473 -4.71016 0
M  V30 34144 H 3124.55 -3.51799 -4.22514 0
M  V30 34145 H 3125.78 -4.28766 -5.26627 0
M  V30 34146 H 3123.72 -2.23291 -6.16828 0
M  V30 34147 H 3123.64 -3.94071 -6.4517 0
M  V30 34148 H 3124.91 -3.00911 -7.19078 0
M  V30 34149 N 3129.14 0.981655 -1.23294 0
M  V30 34150 C 3130.05 2.10796 -1.02967 0
M  V30 34151 C 3131.06 1.73981 0.0254368 0
M  V30 34152 O 3132.24 2.00683 -0.169741 0
M  V30 34153 C 3129.3 3.41075 -0.621994 0
M  V30 34154 C 3128.37 3.91922 -1.75201 0
M  V30 34155 C 3127.6 5.15984 -1.36368 0
M  V30 34156 O 3127.82 5.69863 -0.247365 0
M  V30 34157 O 3126.76 5.60867 -2.18431 0
M  V30 34158 H 3130.58 2.30832 -1.97358 0
M  V30 34159 H 3128.17 1.09174 -1.01988 0
M  V30 34160 H 3130.05 4.19444 -0.405519 0
M  V30 34161 H 3128.72 3.22372 0.292934 0
M  V30 34162 H 3127.63 3.14676 -2.02311 0
M  V30 34163 H 3128.96 4.15078 -2.64521 0
M  V30 34164 N 3130.62 1.04444 1.18022 0
M  V30 34165 C 3131.86 0.751166 1.88376 0
M  V30 34166 C 3132.19 -0.719539 1.80378 0
M  V30 34167 O 3131.47 -1.52546 1.20665 0
M  V30 34168 C 3131.75 1.22271 3.38706 0
M  V30 34169 C 3131.61 2.7558 3.55494 0
M  V30 34170 C 3132.92 0.815764 4.32473 0
M  V30 34171 H 3130.04 0.274352 0.684032 0
M  V30 34172 H 3132.69 1.29711 1.38835 0
M  V30 34173 H 3130.84 0.758259 3.81028 0
M  V30 34174 H 3132.51 3.30092 3.22238 0
M  V30 34175 H 3130.75 3.15222 2.98023 0
M  V30 34176 H 3131.42 3.03634 4.60989 0
M  V30 34177 H 3133.9 1.21549 3.97951 0
M  V30 34178 H 3132.77 1.17341 5.36211 0
M  V30 34179 H 3133.03 -0.280823 4.41207 0
M  V30 34180 N 3132.09 -1.34317 0.824418 0
M  V30 34181 C 3133 -2.33271 0.249361 0
M  V30 34182 C 3134.02 -1.62692 -0.617037 0
M  V30 34183 O 3135.2 -1.94448 -0.524582 0
M  V30 34184 C 3132.26 -3.41847 -0.578034 0
M  V30 34185 C 3131.32 -4.28172 0.310941 0
M  V30 34186 C 3130.55 -5.31564 -0.47706 0
M  V30 34187 O 3130.78 -5.44159 -1.71019 0
M  V30 34188 O 3129.71 -6.01734 0.141393 0
M  V30 34189 H 3133.54 -2.84286 1.06842 0
M  V30 34190 H 3131.12 -1.37402 0.586594 0
M  V30 34191 H 3133 -4.08142 -1.04871 0
M  V30 34192 H 3131.68 -2.93074 -1.37439 0
M  V30 34193 H 3130.59 -3.64796 0.829145 0
M  V30 34194 H 3131.92 -4.80391 1.07169 0
M  V30 34195 N 3133.57 -0.579517 -1.46558 0
M  V30 34196 C 3134.82 -0.0637512 -2.01999 0
M  V30 34197 C 3135.14 1.2996 -1.4538 0
M  V30 34198 O 3134.41 1.85244 -0.637294 0
M  V30 34199 H 3132.99 -0.0205769 -0.746717 0
M  V30 34200 H 3135.65 -0.754575 -1.797 0
M  V30 34201 H 3134.75 0.00764768 -3.12099 0
M  V30 34202 N 3135.05 1.54376 -0.317127 0
M  V30 34203 C 3136.28 2.04864 0.289522 0
M  V30 34204 C 3136.69 1.19361 1.46282 0
M  V30 34205 O 3136.05 0.222827 1.81135 0
M  V30 34206 C 3136.1 3.54048 0.73021 0
M  V30 34207 O 3135.82 4.36303 -0.396402 0
M  V30 34208 C 3137.32 4.20601 1.40034 0
M  V30 34209 H 3134.54 0.66826 0.0605719 0
M  V30 34210 H 3137.09 1.99226 -0.461446 0
M  V30 34211 H 3135.24 3.59995 1.43117 0
M  V30 34212 H 3135.66 5.24476 -0.0503823 0
M  V30 34213 H 3137.13 5.26458 1.65969 0
M  V30 34214 H 3137.61 3.7132 2.34559 0
M  V30 34215 H 3138.21 4.18775 0.742132 0
M  V30 34216 N 3136.53 0.0451655 1.57535 0
M  V30 34217 C 3137.75 -0.643225 1.97173 0
M  V30 34218 C 3138.18 -1.63937 0.922295 0
M  V30 34219 O 3137.54 -1.80934 -0.115123 0
M  V30 34220 C 3137.58 -1.31184 3.35891 0
M  V30 34221 O 3136.69 -2.42743 3.33391 0
M  V30 34222 H 3136.03 -0.167708 0.642472 0
M  V30 34223 H 3138.56 0.111783 2.04294 0
M  V30 34224 H 3138.57 -1.66492 3.72484 0
M  V30 34225 H 3137.24 -0.581751 4.11811 0
M  V30 34226 H 3135.82 -2.09427 3.08537 0
M  V30 34227 N 3138.01 -1.5594 -0.228159 0
M  V30 34228 C 3139.24 -1.82457 -0.969179 0
M  V30 34229 C 3139.64 -0.621164 -1.78713 0
M  V30 34230 O 3138.99 0.419662 -1.78842 0
M  V30 34231 C 3139.05 -3.02609 -1.94083 0
M  V30 34232 C 3138.71 -4.37881 -1.30803 0
M  V30 34233 C 3139.71 -5.1515 -0.701185 0
M  V30 34234 C 3137.4 -4.84597 -1.32178 0
M  V30 34235 C 3139.39 -6.37293 -0.116519 0
M  V30 34236 C 3137.08 -6.06685 -0.733269 0
M  V30 34237 C 3138.07 -6.82873 -0.131684 0
M  V30 34238 O 3137.76 -8.02652 0.44769 0
M  V30 34239 H 3137.49 -0.610664 -0.28994 0
M  V30 34240 H 3140.05 -2.03866 -0.250541 0
M  V30 34241 H 3138.28 -2.77001 -2.69828 0
M  V30 34242 H 3139.97 -3.16055 -2.54684 0
M  V30 34243 H 3140.73 -4.80168 -0.682938 0
M  V30 34244 H 3136.61 -4.25274 -1.77942 0
M  V30 34245 H 3140.16 -6.96703 0.353661 0
M  V30 34246 H 3136.05 -6.41141 -0.748906 0
M  V30 34247 H 3136.82 -8.17788 0.341368 0
M  V30 34248 N 3139.48 0.494597 -1.49638 0
M  V30 34249 C 3140.43 1.59246 -1.63171 0
M  V30 34250 C 3141.42 1.53349 -0.487116 0
M  V30 34251 O 3142.61 1.60771 -0.740388 0
M  V30 34252 C 3139.74 2.97825 -1.70749 0
M  V30 34253 C 3138.83 3.08694 -2.90807 0
M  V30 34254 N 3139.22 2.89435 -4.14802 0
M  V30 34255 C 3137.51 3.39803 -2.88877 0
M  V30 34256 C 3138.22 3.04654 -4.95541 0
M  V30 34257 N 3137.19 3.33816 -4.29031 0
M  V30 34258 H 3140.99 1.4302 -2.56754 0
M  V30 34259 H 3138.51 0.700859 -1.46498 0
M  V30 34260 H 3140.5 3.76733 -1.78543 0
M  V30 34261 H 3139.16 3.15116 -0.783079 0
M  V30 34262 H 3140.18 2.65482 -4.44679 0
M  V30 34263 H 3136.85 3.6323 -2.05841 0
M  V30 34264 H 3138.24 2.94203 -6.04065 0
M  V30 34265 N 3140.96 1.3882 0.746109 0
M  V30 34266 C 3141.87 1.389 1.89061 0
M  V30 34267 C 3142.89 0.28516 1.71647 0
M  V30 34268 O 3144.06 0.524817 1.94442 0
M  V30 34269 C 3141.13 1.22013 3.24521 0
M  V30 34270 C 3140.19 2.42269 3.54407 0
M  V30 34271 C 3139.42 2.26178 4.83404 0
M  V30 34272 O 3139.65 1.2594 5.56323 0
M  V30 34273 O 3138.58 3.14927 5.12937 0
M  V30 34274 H 3142.41 2.35351 1.91947 0
M  V30 34275 H 3139.99 1.19818 0.892412 0
M  V30 34276 H 3141.87 1.14684 4.05494 0
M  V30 34277 H 3140.55 0.286512 3.2243 0
M  V30 34278 H 3139.46 2.55173 2.73565 0
M  V30 34279 H 3140.79 3.34286 3.61267 0
M  V30 34280 N 3142.44 -0.975103 1.23812 0
M  V30 34281 C 3143.67 -1.75756 1.10112 0
M  V30 34282 C 3144.09 -1.84948 -0.34289 0
M  V30 34283 O 3143.45 -1.31498 -1.24812 0
M  V30 34284 C 3143.5 -3.15991 1.7373 0
M  V30 34285 O 3142.6 -4.00016 1.00304 0
M  V30 34286 H 3141.94 -0.540537 0.385636 0
M  V30 34287 H 3144.47 -1.22369 1.63973 0
M  V30 34288 H 3144.48 -3.66547 1.79185 0
M  V30 34289 H 3143.16 -3.08616 2.788 0
M  V30 34290 H 3141.73 -3.58513 1.02581 0
M  V30 34291 N 3143.92 -1.05068 -1.17467 0
M  V30 34292 C 3144.85 -0.671591 -2.23633 0
M  V30 34293 C 3145.83 0.33003 -1.66868 0
M  V30 34294 O 3147.01 0.207899 -1.93084 0
M  V30 34295 C 3144.14 -0.0442456 -3.47272 0
M  V30 34296 C 3143.1 -0.970493 -4.16852 0
M  V30 34297 C 3142.42 -0.207092 -5.34299 0
M  V30 34298 C 3143.72 -2.29409 -4.69221 0
M  V30 34299 H 3145.42 -1.55915 -2.55599 0
M  V30 34300 H 3142.96 -0.751122 -1.22858 0
M  V30 34301 H 3144.92 0.232746 -4.20757 0
M  V30 34302 H 3143.64 0.878256 -3.1457 0
M  V30 34303 H 3142.3 -1.23203 -3.45278 0
M  V30 34304 H 3141.95 0.718134 -4.97847 0
M  V30 34305 H 3141.65 -0.824262 -5.8179 0
M  V30 34306 H 3143.17 0.0626451 -6.10568 0
M  V30 34307 H 3144.59 -2.0771 -5.3435 0
M  V30 34308 H 3142.98 -2.86512 -5.27286 0
M  V30 34309 H 3144.05 -2.93355 -3.86097 0
M  V30 34310 N 3145.4 1.33878 -0.831529 0
M  V30 34311 C 3146.63 2.0194 -0.436327 0
M  V30 34312 C 3147.03 1.62743 0.96495 0
M  V30 34313 O 3146.38 0.832923 1.63732 0
M  V30 34314 C 3146.44 3.56429 -0.468874 0
M  V30 34315 C 3146.1 4.18979 -1.82498 0
M  V30 34316 C 3147.1 4.3888 -2.78712 0
M  V30 34317 C 3144.79 4.55564 -2.11582 0
M  V30 34318 C 3146.78 4.94502 -4.02177 0
M  V30 34319 C 3144.47 5.10895 -3.35304 0
M  V30 34320 C 3145.46 5.3031 -4.30419 0
M  V30 34321 O 3145.15 5.84467 -5.51954 0
M  V30 34322 H 3144.88 0.653661 -0.172347 0
M  V30 34323 H 3147.44 1.71945 -1.12357 0
M  V30 34324 H 3145.67 3.8572 0.275111 0
M  V30 34325 H 3147.36 4.05795 -0.0925232 0
M  V30 34326 H 3148.12 4.10971 -2.57542 0
M  V30 34327 H 3144 4.39752 -1.38346 0
M  V30 34328 H 3147.55 5.09571 -4.76427 0
M  V30 34329 H 3143.44 5.38234 -3.56335 0
M  V30 34330 H 3144.21 6.02891 -5.53593 0
M  V30 34331 N 3146.87 0.587281 1.46249 0
M  V30 34332 C 3147.82 -0.156067 2.32076 0
M  V30 34333 C 3148.82 -0.879861 1.44758 0
M  V30 34334 O 3150.02 -0.797731 1.61358 0
M  V30 34335 H 3146.4 -0.0691966 0.74881 0
M  V30 34336 H 3148.37 0.586549 2.92578 0
M  V30 34337 C 3147.12 -1.15346 3.2801 0
M  V30 34338 H 3146.44 -0.60594 3.95181 0
M  V30 34339 H 3147.88 -1.64389 3.90835 0
M  V30 34340 C 3146.34 -2.21677 2.53695 0
M  V30 34341 O 3146.87 -3.29103 2.30335 0
M  V30 34342 N 3145.08 -1.96408 2.14178 0
M  V30 34343 H 3144.62 -1.09057 2.33376 0
M  V30 34344 H 3144.58 -2.67762 1.64775 0
M  V30 34345 N 3148.35 -1.54206 0.325309 0
M  V30 34346 C 3149.32 -2.23055 -0.527189 0
M  V30 34347 C 3150.32 -1.22458 -1.04215 0
M  V30 34348 O 3151.51 -1.47026 -0.934299 0
M  V30 34349 C 3148.64 -2.93597 -1.73245 0
M  V30 34350 H 3149.83 -2.99807 0.074695 0
M  V30 34351 H 3147.38 -1.56113 0.0764146 0
M  V30 34352 H 3148.12 -2.20986 -2.37352 0
M  V30 34353 H 3147.9 -3.67365 -1.37059 0
M  V30 34354 H 3149.39 -3.46047 -2.33754 0
M  V30 34355 N 3149.83 -0.0535194 -1.57509 0
M  V30 34356 C 3150.76 0.917961 -2.14699 0
M  V30 34357 C 3151.74 1.32291 -1.06926 0
M  V30 34358 O 3152.93 1.3972 -1.34877 0
M  V30 34359 C 3150.06 2.19198 -2.69387 0
M  V30 34360 C 3149.01 1.92703 -3.82164 0
M  V30 34361 C 3148.34 3.26579 -4.23379 0
M  V30 34362 C 3149.64 1.24677 -5.07201 0
M  V30 34363 H 3151.33 0.441598 -2.96125 0
M  V30 34364 H 3148.88 0.210968 -1.42446 0
M  V30 34365 H 3150.83 2.87561 -3.08036 0
M  V30 34366 H 3149.55 2.69044 -1.85156 0
M  V30 34367 H 3148.21 1.26751 -3.43991 0
M  V30 34368 H 3147.86 3.74231 -3.36095 0
M  V30 34369 H 3147.56 3.09649 -4.99391 0
M  V30 34370 H 3149.09 3.9617 -4.6463 0
M  V30 34371 H 3150.5 1.83078 -5.43282 0
M  V30 34372 H 3148.9 1.18065 -5.88371 0
M  V30 34373 H 3149.97 0.223142 -4.84386 0
M  V30 34374 N 3151.31 1.56059 0.219886 0
M  V30 34375 C 3152.24 1.8904 1.29601 0
M  V30 34376 C 3153.25 0.778816 1.42963 0
M  V30 34377 O 3154.44 1.05712 1.4383 0
M  V30 34378 C 3151.54 2.08539 2.67142 0
M  V30 34379 C 3150.72 3.39566 2.75706 0
M  V30 34380 C 3149.78 3.48476 3.94273 0
M  V30 34381 O 3148.8 4.21494 3.82533 0
M  V30 34382 N 3150 2.79741 5.0865 0
M  V30 34383 H 3152.77 2.81941 1.01633 0
M  V30 34384 H 3150.33 1.56625 0.409918 0
M  V30 34385 H 3152.32 2.11814 3.44843 0
M  V30 34386 H 3150.89 1.22255 2.87702 0
M  V30 34387 H 3150.11 3.48375 1.84469 0
M  V30 34388 H 3151.4 4.25877 2.784 0
M  V30 34389 H 3150.8 2.20199 5.21084 0
M  V30 34390 H 3149.35 2.88675 5.84389 0
M  V30 34391 N 3152.79 -0.486655 1.49898 0
M  V30 34392 C 3154.01 -1.2682 1.64108 0
M  V30 34393 C 3154.44 -1.85392 0.317999 0
M  V30 34394 O 3153.8 -1.66553 -0.716231 0
M  V30 34395 C 3153.84 -2.36394 2.72305 0
M  V30 34396 O 3152.95 -3.4063 2.32475 0
M  V30 34397 H 3152.29 -0.373783 0.548801 0
M  V30 34398 H 3154.82 -0.580983 1.96178 0
M  V30 34399 H 3154.83 -2.81943 2.94911 0
M  V30 34400 H 3153.5 -1.93131 3.68338 0
M  V30 34401 H 3152.08 -3.00901 2.20257 0
M  V30 34402 N 3154.27 -1.39214 -0.738737 0
M  V30 34403 C 3155.2 -1.40367 -1.866 0
M  V30 34404 C 3156.18 -0.267525 -1.67983 0
M  V30 34405 O 3157.36 -0.472798 -1.88357 0
M  V30 34406 C 3154.49 -1.2427 -3.24306 0
M  V30 34407 C 3153.45 -2.35245 -3.57552 0
M  V30 34408 C 3152.77 -2.04241 -4.94155 0
M  V30 34409 C 3154.07 -3.77549 -3.60907 0
M  V30 34410 H 3155.77 -2.34701 -1.85892 0
M  V30 34411 H 3153.31 -1.12972 -0.892939 0
M  V30 34412 H 3155.26 -1.23699 -4.02836 0
M  V30 34413 H 3153.99 -0.264032 -3.25531 0
M  V30 34414 H 3152.65 -2.35027 -2.8135 0
M  V30 34415 H 3152.3 -1.04821 -4.91957 0
M  V30 34416 H 3152 -2.78576 -5.17368 0
M  V30 34417 H 3153.52 -2.05313 -5.75047 0
M  V30 34418 H 3154.93 -3.79717 -4.29521 0
M  V30 34419 H 3153.33 -4.51212 -3.95636 0
M  V30 34420 H 3154.4 -4.08795 -2.60796 0
M  V30 34421 N 3155.74 0.968523 -1.24328 0
M  V30 34422 C 3157.16 1.23699 -1.00849 0
M  V30 34423 C 3157.36 1.995 0.2832 0
M  V30 34424 O 3156.42 2.31873 0.999567 0
M  V30 34425 C 3157.73 2.02494 -2.22299 0
M  V30 34426 C 3159.28 2.15589 -2.26915 0
M  V30 34427 C 3159.75 2.97778 -3.47983 0
M  V30 34428 N 3161.24 3.05361 -3.48295 0
M  V30 34429 C 3161.98 3.69311 -4.38631 0
M  V30 34430 N 3161.47 4.34986 -5.39221 0
M  V30 34431 N 3163.27 3.66314 -4.26345 0
M  V30 34432 H 3155.42 0.461051 -2.07336 0
M  V30 34433 H 3157.68 0.266364 -0.90981 0
M  V30 34434 H 3157.39 1.54183 -3.16102 0
M  V30 34435 H 3157.26 3.03228 -2.2435 0
M  V30 34436 H 3159.65 2.63104 -1.33643 0
M  V30 34437 H 3159.73 1.14205 -2.2889 0
M  V30 34438 H 3159.37 2.50958 -4.41568 0
M  V30 34439 H 3159.3 3.99358 -3.43251 0
M  V30 34440 H 3161.79 2.58643 -2.75522 0
M  V30 34441 H 3162.11 4.81598 -6.04387 0
M  V30 34442 H 3160.45 4.33657 -5.43108 0
M  V30 34443 H 3163.64 3.14183 -3.46997 0
M  V30 34444 H 3163.82 4.1587 -4.96947 0
M  V30 34445 N 3157.22 1.0569 1.16908 0
M  V30 34446 C 3158.5 0.683633 1.83264 0
M  V30 34447 C 3158.88 -0.835568 1.93859 0
M  V30 34448 O 3158.23 -1.74348 1.47699 0
M  V30 34449 C 3158.44 1.37847 3.20623 0
M  V30 34450 C 3159.78 1.51974 3.96471 0
M  V30 34451 O 3160.81 1.33789 3.3012 0
M  V30 34452 O 3159.67 1.81758 5.1539 0
M  V30 34453 H 3156.76 0.241267 0.791024 0
M  V30 34454 H 3159.31 1.15679 1.24163 0
M  V30 34455 H 3158.08 2.41469 3.0791 0
M  V30 34456 H 3157.7 0.894989 3.87396 0
M  V30 34457 N 3158.7 -1.33435 0.838617 0
M  V30 34458 C 3160.12 -1.5067 0.526373 0
M  V30 34459 C 3160.32 -1.77894 -0.946355 0
M  V30 34460 O 3159.37 -1.83906 -1.73017 0
M  V30 34461 C 3160.68 -2.66148 1.39949 0
M  V30 34462 C 3162.23 -2.80032 1.39824 0
M  V30 34463 C 3162.71 -3.98572 2.25621 0
M  V30 34464 N 3164.2 -4.05806 2.23329 0
M  V30 34465 C 3164.93 -4.96722 2.86452 0
M  V30 34466 N 3164.43 -5.92755 3.58627 0
M  V30 34467 N 3166.22 -4.89717 2.75924 0
M  V30 34468 H 3158.37 -1.14026 1.79197 0
M  V30 34469 H 3160.64 -0.560573 0.764501 0
M  V30 34470 H 3160.34 -2.52709 2.44603 0
M  V30 34471 H 3160.22 -3.61547 1.07536 0
M  V30 34472 H 3162.6 -2.92903 0.359422 0
M  V30 34473 H 3162.68 -1.85395 1.76245 0
M  V30 34474 H 3162.33 -3.8646 3.29562 0
M  V30 34475 H 3162.26 -4.92453 1.86542 0
M  V30 34476 H 3164.75 -3.37078 1.70842 0
M  V30 34477 H 3165.06 -6.58791 4.03998 0
M  V30 34478 H 3163.41 -5.92831 3.62734 0
M  V30 34479 H 3166.6 -4.13657 2.19101 0
M  V30 34480 H 3166.77 -5.60372 3.25403 0
M  V30 34481 N 3160.18 -0.595029 -1.45935 0
M  V30 34482 C 3161.09 0.133284 -2.34221 0
M  V30 34483 C 3162.1 0.873381 -1.50493 0
M  V30 34484 O 3163.28 0.833796 -1.8333 0
M  V30 34485 C 3160.34 1.12622 -3.27898 0
M  V30 34486 C 3159.41 0.389457 -4.2753 0
M  V30 34487 C 3158.64 1.3351 -5.16731 0
M  V30 34488 O 3158.86 2.57229 -5.09106 0
M  V30 34489 O 3157.8 0.838979 -5.96024 0
M  V30 34490 H 3161.62 -0.591913 -2.97876 0
M  V30 34491 H 3159.21 -0.355354 -1.45112 0
M  V30 34492 H 3161.09 1.69844 -3.85657 0
M  V30 34493 H 3159.76 1.83267 -2.66824 0
M  V30 34494 H 3158.67 -0.224908 -3.73423 0
M  V30 34495 H 3160 -0.276255 -4.91424 0
M  V30 34496 N 3161.66 1.54031 -0.333483 0
M  V30 34497 C 3162.9 2.00744 0.266098 0
M  V30 34498 C 3163.23 1.2215 1.51359 0
M  V30 34499 O 3162.49 0.294402 1.93473 0
M  V30 34500 C 3162.78 3.51703 0.635588 0
M  V30 34501 C 3162.45 4.47962 -0.513865 0
M  V30 34502 C 3161.11 4.73999 -0.829337 0
M  V30 34503 C 3163.46 5.05099 -1.28549 0
M  V30 34504 C 3160.79 5.54429 -1.91898 0
M  V30 34505 C 3163.14 5.86716 -2.3653 0
M  V30 34506 C 3161.81 6.11052 -2.68648 0
M  V30 34507 H 3161.08 0.734574 0.0973721 0
M  V30 34508 H 3163.73 1.8591 -0.459315 0
M  V30 34509 H 3162.03 3.64316 1.44157 0
M  V30 34510 H 3163.73 3.85296 1.11122 0
M  V30 34511 H 3160.32 4.27823 -0.257915 0
M  V30 34512 H 3164.5 4.84957 -1.05502 0
M  V30 34513 H 3159.76 5.71512 -2.17218 0
M  V30 34514 H 3163.93 6.30006 -2.96758 0
M  V30 34515 H 3161.56 6.73162 -3.53209 0
M  V30 34516 N 3163.13 0.0618717 1.57479 0
M  V30 34517 C 3164.36 -0.622276 1.97845 0
M  V30 34518 C 3164.78 -1.6295 0.939631 0
M  V30 34519 O 3164.14 -1.81046 -0.0959261 0
M  V30 34520 C 3164.19 -1.27614 3.37264 0
M  V30 34521 O 3163.29 -2.39193 3.35947 0
M  V30 34522 H 3162.63 -0.160884 0.644214 0
M  V30 34523 H 3165.16 0.133445 2.04164 0
M  V30 34524 H 3165.17 -1.62532 3.74229 0
M  V30 34525 H 3163.85 -0.53804 4.12405 0
M  V30 34526 H 3162.43 -2.06142 3.10741 0
M  V30 34527 N 3164.61 -1.56173 -0.211607 0
M  V30 34528 C 3165.84 -1.83741 -0.951151 0
M  V30 34529 C 3166.26 -0.642283 -1.77539 0
M  V30 34530 O 3165.61 0.389143 -1.78303 0
M  V30 34531 C 3165.66 -3.09936 -1.86069 0
M  V30 34532 O 3165.38 -4.24839 -1.06976 0
M  V30 34533 C 3166.89 -3.50563 -2.7133 0
M  V30 34534 H 3164.11 -0.610565 -0.278301 0
M  V30 34535 H 3166.65 -2.03271 -0.223836 0
M  V30 34536 H 3164.8 -2.92352 -2.54184 0
M  V30 34537 H 3165.22 -4.96593 -1.68806 0
M  V30 34538 H 3166.69 -4.41873 -3.30835 0
M  V30 34539 H 3167.17 -2.72779 -3.44221 0
M  V30 34540 H 3167.78 -3.70622 -2.08614 0
M  V30 34541 N 3166.09 0.478699 -1.50154 0
M  V30 34542 C 3167.34 1.23133 -1.60762 0
M  V30 34543 C 3167.67 1.92102 -0.304454 0
M  V30 34544 O 3166.92 1.82398 0.709181 0
M  V30 34545 C 3167.22 2.30412 -2.73212 0
M  V30 34546 C 3166.89 1.78748 -4.13957 0
M  V30 34547 C 3165.55 1.64378 -4.52254 0
M  V30 34548 C 3167.9 1.40335 -5.01952 0
M  V30 34549 C 3165.23 1.10007 -5.76294 0
M  V30 34550 C 3167.58 0.874095 -6.26532 0
M  V30 34551 C 3166.24 0.716968 -6.63638 0
M  V30 34552 H 3165.51 0.450575 -0.588272 0
M  V30 34553 H 3168.16 0.528519 -1.84062 0
M  V30 34554 H 3166.47 3.06571 -2.43971 0
M  V30 34555 H 3168.16 2.8839 -2.78625 0
M  V30 34556 H 3164.75 1.90898 -3.8374 0
M  V30 34557 H 3168.94 1.50275 -4.73002 0
M  V30 34558 H 3164.19 0.965732 -6.03725 0
M  V30 34559 H 3168.37 0.567761 -6.94082 0
M  V30 34560 H 3165.99 0.293505 -7.59633 0
M  V30 34561 N 3167.57 1.39603 0.731343 0
M  V30 34562 C 3168.8 1.40105 1.51836 0
M  V30 34563 C 3169.21 -0.00523308 1.89199 0
M  V30 34564 O 3168.55 -0.987846 1.54878 0
M  V30 34565 C 3168.61 2.21333 2.83288 0
M  V30 34566 C 3168.28 3.69924 2.68338 0
M  V30 34567 C 3169.27 4.62922 2.36642 0
M  V30 34568 C 3166.96 4.13553 2.85095 0
M  V30 34569 C 3168.95 5.97531 2.2189 0
M  V30 34570 C 3166.64 5.48237 2.69961 0
M  V30 34571 C 3167.64 6.40041 2.38404 0
M  V30 34572 O 3167.32 7.72244 2.23369 0
M  V30 34573 H 3167.06 0.48031 0.475687 0
M  V30 34574 H 3169.61 1.84089 0.911064 0
M  V30 34575 H 3167.84 1.72102 3.46291 0
M  V30 34576 H 3169.53 2.13967 3.44925 0
M  V30 34577 H 3170.3 4.30514 2.23344 0
M  V30 34578 H 3166.17 3.42428 3.08649 0
M  V30 34579 H 3169.72 6.69153 1.97181 0
M  V30 34580 H 3165.62 5.80235 2.82839 0
M  V30 34581 H 3166.38 7.83009 2.38411 0
M  V30 34582 N 3169.05 -0.961916 1.2484 0
M  V30 34583 C 3169.96 -2.09131 1.06308 0
M  V30 34584 C 3170.97 -1.74 0.00224534 0
M  V30 34585 O 3172.15 -2.00388 0.201646 0
M  V30 34586 C 3169.21 -3.40042 0.676177 0
M  V30 34587 C 3168.27 -3.89086 1.81414 0
M  V30 34588 C 3167.51 -5.13749 1.4456 0
M  V30 34589 O 3167.73 -5.69398 0.337994 0
M  V30 34590 O 3166.66 -5.57321 2.27326 0
M  V30 34591 H 3170.49 -2.27663 2.01005 0
M  V30 34592 H 3168.08 -1.07537 1.03712 0
M  V30 34593 H 3169.96 -4.18746 0.472198 0
M  V30 34594 H 3168.63 -3.22797 -0.24161 0
M  V30 34595 H 3167.54 -3.11418 2.07292 0
M  V30 34596 H 3168.87 -4.10817 2.71091 0
M  V30 34597 N 3170.52 -1.06308 -1.16346 0
M  V30 34598 C 3171.75 -0.80067 -1.91322 0
M  V30 34599 C 3172.17 0.639074 -1.76911 0
M  V30 34600 O 3171.53 1.44533 -1.09452 0
M  V30 34601 C 3171.58 -1.20033 -3.40036 0
M  V30 34602 O 3170.68 -0.339214 -4.11003 0
M  V30 34603 H 3170.03 -0.292606 -0.596052 0
M  V30 34604 H 3172.56 -1.41892 -1.47404 0
M  V30 34605 H 3172.57 -1.17195 -3.90806 0
M  V30 34606 H 3171.24 -2.24904 -3.49844 0
M  V30 34607 H 3169.82 -0.429175 -3.70422 0
M  V30 34608 N 3172 1.32989 -0.845682 0
M  V30 34609 C 3172.93 2.31578 -0.298998 0
M  V30 34610 C 3173.91 1.5928 0.596984 0
M  V30 34611 O 3175.1 1.87133 0.51911 0
M  V30 34612 C 3172.23 3.43369 0.521048 0
M  V30 34613 C 3171.18 4.27085 -0.279726 0
M  V30 34614 C 3170.51 5.30555 0.664497 0
M  V30 34615 C 3171.81 5.00281 -1.50055 0
M  V30 34616 H 3173.5 2.77551 -1.12277 0
M  V30 34617 H 3171.05 1.33437 -0.541343 0
M  V30 34618 H 3173 4.11372 0.913849 0
M  V30 34619 H 3171.73 2.96102 1.37809 0
M  V30 34620 H 3170.38 3.60716 -0.654169 0
M  V30 34621 H 3170.03 4.79543 1.51813 0
M  V30 34622 H 3169.73 5.8745 0.132768 0
M  V30 34623 H 3171.26 6.01423 1.05467 0
M  V30 34624 H 3172.67 5.61014 -1.18054 0
M  V30 34625 H 3171.07 5.66858 -1.96956 0
M  V30 34626 H 3172.14 4.28661 -2.26666 0
M  V30 34627 N 3173.48 0.60276 1.45618 0
M  V30 34628 C 3174.43 -0.118903 2.30494 0
M  V30 34629 C 3175.4 -0.864698 1.41817 0
M  V30 34630 O 3176.58 -0.851394 1.70751 0
M  V30 34631 C 3173.72 -1.11351 3.26642 0
M  V30 34632 C 3172.84 -0.369085 4.3042 0
M  V30 34633 C 3171.97 -1.35298 5.13681 0
M  V30 34634 C 3171.01 -0.5961 6.0919 0
M  V30 34635 N 3170.15 -1.52904 6.85248 0
M  V30 34636 H 3174.99 0.610887 2.91671 0
M  V30 34637 H 3172.52 0.313057 1.4373 0
M  V30 34638 H 3174.48 -1.70324 3.80849 0
M  V30 34639 H 3173.11 -1.81077 2.67228 0
M  V30 34640 H 3172.16 0.336061 3.78913 0
M  V30 34641 H 3173.48 0.22169 4.98307 0
M  V30 34642 H 3172.63 -2.01492 5.72264 0
M  V30 34643 H 3171.37 -1.97769 4.45801 0
M  V30 34644 H 3170.37 0.079495 5.49743 0
M  V30 34645 H 3171.6 0.0234928 6.79096 0
M  V30 34646 H 3169.54 -2.14148 6.20062 0
M  V30 34647 H 3169.46 -0.991582 7.49469 0
M  V30 34648 H 3170.73 -2.1807 7.48375 0
M  V30 34649 N 3174.96 -1.53852 0.341647 0
M  V30 34650 C 3176.19 -2.05001 -0.256521 0
M  V30 34651 C 3176.6 -1.21642 -1.44914 0
M  V30 34652 O 3175.94 -0.24417 -1.8207 0
M  V30 34653 C 3176 -3.51863 -0.737047 0
M  V30 34654 C 3175.67 -4.55766 0.335664 0
M  V30 34655 C 3176.66 -5.06385 1.17774 0
M  V30 34656 C 3174.35 -4.99914 0.489046 0
M  V30 34657 C 3176.34 -5.9973 2.15876 0
M  V30 34658 C 3174.03 -5.9307 1.47346 0
M  V30 34659 C 3175.03 -6.42866 2.30677 0
M  V30 34660 O 3174.71 -7.34191 3.27443 0
M  V30 34661 H 3174.45 -0.673866 -0.0536748 0
M  V30 34662 H 3177 -1.99439 0.491265 0
M  V30 34663 H 3175.23 -3.54884 -1.53604 0
M  V30 34664 H 3176.92 -3.85993 -1.25555 0
M  V30 34665 H 3177.69 -4.73042 1.07032 0
M  V30 34666 H 3173.56 -4.60757 -0.149726 0
M  V30 34667 H 3177.11 -6.38521 2.80956 0
M  V30 34668 H 3173.01 -6.25828 1.58145 0
M  V30 34669 H 3173.77 -7.52119 3.22892 0
M  V30 34670 N 3176.44 -0.0702223 -1.57443 0
M  V30 34671 C 3177.4 0.882886 -2.11513 0
M  V30 34672 C 3178.4 1.22741 -1.03881 0
M  V30 34673 O 3179.59 1.16094 -1.29876 0
M  V30 34674 C 3176.72 2.18681 -2.61518 0
M  V30 34675 H 3177.91 0.413821 -2.97031 0
M  V30 34676 H 3175.47 0.178461 -1.55278 0
M  V30 34677 H 3176.2 2.70128 -1.79448 0
M  V30 34678 H 3175.99 1.94972 -3.40188 0
M  V30 34679 H 3177.48 2.86914 -3.0343 0
M  V30 34680 N 3177.91 1.56283 0.203321 0
M  V30 34681 C 3179.33 1.49683 0.553814 0
M  V30 34682 C 3179.53 0.768734 1.8626 0
M  V30 34683 O 3178.59 0.315868 2.50517 0
M  V30 34684 C 3179.9 2.94319 0.616164 0
M  V30 34685 C 3181.45 3.04944 0.705557 0
M  V30 34686 C 3181.92 4.50975 0.799091 0
M  V30 34687 N 3183.41 4.55093 0.862836 0
M  V30 34688 C 3184.15 5.65387 0.955234 0
M  V30 34689 N 3183.64 6.85392 1.01045 0
M  V30 34690 N 3185.44 5.53281 0.991786 0
M  V30 34691 H 3177.59 2.02039 -0.65528 0
M  V30 34692 H 3179.85 0.919083 -0.23236 0
M  V30 34693 H 3179.56 3.50613 -0.276251 0
M  V30 34694 H 3179.43 3.47222 1.47365 0
M  V30 34695 H 3181.82 2.48704 1.58841 0
M  V30 34696 H 3181.9 2.5518 -0.177966 0
M  V30 34697 H 3181.54 5.07838 -0.0793733 0
M  V30 34698 H 3181.47 4.98463 1.6983 0
M  V30 34699 H 3183.96 3.68678 0.829747 0
M  V30 34700 H 3184.28 7.65199 1.08123 0
M  V30 34701 H 3182.62 6.88066 0.979263 0
M  V30 34702 H 3185.81 4.58453 0.945434 0
M  V30 34703 H 3185.99 6.39266 1.06034 0
M  V30 34704 N 3179.39 -0.470729 1.50406 0
M  V30 34705 C 3180.64 -1.2246 1.61652 0
M  V30 34706 C 3180.97 -1.91611 0.316068 0
M  V30 34707 O 3180.25 -1.82133 -0.682477 0
M  V30 34708 C 3180.53 -2.26796 2.79706 0
M  V30 34709 C 3180.38 -1.61948 4.19634 0
M  V30 34710 C 3181.7 -3.28104 2.93319 0
M  V30 34711 H 3178.82 -0.443857 0.588353 0
M  V30 34712 H 3181.46 -0.518344 1.82793 0
M  V30 34713 H 3179.61 -2.87031 2.61812 0
M  V30 34714 H 3181.29 -1.05308 4.49119 0
M  V30 34715 H 3179.53 -0.922599 4.23876 0
M  V30 34716 H 3180.2 -2.3777 4.98166 0
M  V30 34717 H 3182.68 -2.77892 3.09702 0
M  V30 34718 H 3181.55 -3.98436 3.77544 0
M  V30 34719 H 3181.81 -3.92246 2.03949 0
M  V30 34720 N 3180.87 -1.39989 -0.72393 0
M  V30 34721 C 3181.82 -1.39592 -1.83801 0
M  V30 34722 C 3182.79 -0.254025 -1.64146 0
M  V30 34723 O 3183.97 -0.450825 -1.85397 0
M  V30 34724 C 3181.11 -1.25609 -3.21428 0
M  V30 34725 C 3180.23 -2.49436 -3.52712 0
M  V30 34726 C 3179.36 -2.27958 -4.79801 0
M  V30 34727 C 3178.4 -3.47403 -5.03962 0
M  V30 34728 N 3177.54 -3.25172 -6.2226 0
M  V30 34729 H 3182.38 -2.34821 -1.83475 0
M  V30 34730 H 3179.91 -1.16634 -0.896375 0
M  V30 34731 H 3181.87 -1.15511 -4.0089 0
M  V30 34732 H 3180.5 -0.340043 -3.21004 0
M  V30 34733 H 3179.55 -2.70094 -2.67868 0
M  V30 34734 H 3180.87 -3.38369 -3.6648 0
M  V30 34735 H 3180.02 -2.15165 -5.67264 0
M  V30 34736 H 3178.76 -1.36436 -4.68227 0
M  V30 34737 H 3177.76 -3.60681 -4.14957 0
M  V30 34738 H 3178.99 -4.3984 -5.17414 0
M  V30 34739 H 3176.94 -2.36325 -6.11953 0
M  V30 34740 H 3176.85 -4.07667 -6.36666 0
M  V30 34741 H 3178.12 -3.16096 -7.12533 0
M  V30 34742 N 3182.35 0.955282 -1.25348 0
M  V30 34743 C 3183.26 2.08564 -1.07415 0
M  V30 34744 C 3184.28 1.73996 -0.0114729 0
M  V30 34745 O 3185.45 2.00278 -0.212271 0
M  V30 34746 C 3182.52 3.39679 -0.694201 0
M  V30 34747 C 3181.58 3.88118 -1.83475 0
M  V30 34748 C 3180.81 5.12975 -1.47283 0
M  V30 34749 O 3181.03 5.6921 -0.368186 0
M  V30 34750 O 3179.97 5.56107 -2.30279 0
M  V30 34751 H 3183.79 2.26594 -2.0221 0
M  V30 34752 H 3181.38 1.06986 -1.0428 0
M  V30 34753 H 3183.26 4.1849 -0.494399 0
M  V30 34754 H 3181.94 3.22921 0.224488 0
M  V30 34755 H 3180.84 3.10314 -2.0894 0
M  V30 34756 H 3182.18 4.09374 -2.73265 0
M  V30 34757 N 3183.83 1.06924 1.1578 0
M  V30 34758 C 3185.07 0.790954 1.8674 0
M  V30 34759 C 3185.41 -0.681117 1.81864 0
M  V30 34760 O 3184.68 -1.49952 1.23873 0
M  V30 34761 C 3184.96 1.29428 3.36036 0
M  V30 34762 C 3184.82 2.83058 3.49568 0
M  V30 34763 C 3186.14 0.907314 4.30646 0
M  V30 34764 H 3183.26 0.288799 0.678059 0
M  V30 34765 H 3185.9 1.32627 1.36052 0
M  V30 34766 H 3184.05 0.83891 3.79334 0
M  V30 34767 H 3185.72 3.36852 3.15164 0
M  V30 34768 H 3183.96 3.21473 2.91269 0
M  V30 34769 H 3184.63 3.13343 4.54445 0
M  V30 34770 H 3187.11 1.29963 3.95283 0
M  V30 34771 H 3185.99 1.28688 5.33602 0
M  V30 34772 H 3186.25 -0.187173 4.41704 0
M  V30 34773 N 3185.31 -1.32538 0.852723 0
M  V30 34774 C 3186.22 -2.3269 0.298785 0
M  V30 34775 C 3187.23 -1.63964 -0.582389 0
M  V30 34776 O 3188.41 -1.95517 -0.483219 0
M  V30 34777 C 3185.47 -3.42997 -0.505393 0
M  V30 34778 C 3184.53 -4.27417 0.401693 0
M  V30 34779 C 3183.77 -5.32456 -0.3642 0
M  V30 34780 O 3183.99 -5.47664 -1.59438 0
M  V30 34781 O 3182.92 -6.01299 0.268998 0
M  V30 34782 H 3186.75 -2.81956 1.12848 0
M  V30 34783 H 3184.33 -1.36127 0.615608 0
M  V30 34784 H 3186.22 -4.10275 -0.961902 0
M  V30 34785 H 3184.89 -2.95923 -1.31192 0
M  V30 34786 H 3183.8 -3.62955 0.906337 0
M  V30 34787 H 3185.13 -4.7801 1.17335 0
M  V30 34788 N 3186.78 -0.610474 -1.45296 0
M  V30 34789 C 3187.69 0.108434 -2.34349 0
M  V30 34790 C 3188.71 0.85737 -1.51411 0
M  V30 34791 O 3189.89 0.814304 -1.84204 0
M  V30 34792 C 3186.95 1.09138 -3.29074 0
M  V30 34793 C 3186.01 0.344089 -4.27919 0
M  V30 34794 C 3185.24 1.28021 -5.18118 0
M  V30 34795 O 3185.47 2.51815 -5.11806 0
M  V30 34796 O 3184.4 0.775716 -5.9688 0
M  V30 34797 H 3188.23 -0.623474 -2.97231 0
M  V30 34798 H 3185.81 -0.370725 -1.44727 0
M  V30 34799 H 3187.69 1.65744 -3.87436 0
M  V30 34800 H 3186.37 1.80427 -2.68752 0
M  V30 34801 H 3185.28 -0.264502 -3.73164 0
M  V30 34802 H 3186.61 -0.328362 -4.91103 0
M  V30 34803 N 3188.26 1.53669 -0.349801 0
M  V30 34804 C 3189.19 2.2154 0.54727 0
M  V30 34805 C 3190.17 1.20165 1.09541 0
M  V30 34806 O 3191.36 1.49008 1.15451 0
M  V30 34807 C 3188.48 2.89775 1.75351 0
M  V30 34808 C 3187.53 4.05092 1.33426 0
M  V30 34809 S 3188.36 5.34363 0.348797 0
M  V30 34810 C 3189.52 6.06103 1.56172 0
M  V30 34811 H 3189.75 2.97286 -0.0291914 0
M  V30 34812 H 3187.28 1.53818 -0.13388 0
M  V30 34813 H 3189.24 3.29706 2.44549 0
M  V30 34814 H 3187.9 2.13784 2.3012 0
M  V30 34815 H 3187.1 4.51794 2.2338 0
M  V30 34816 H 3186.7 3.66971 0.721682 0
M  V30 34817 H 3188.99 6.29876 2.49524 0
M  V30 34818 H 3189.93 6.98922 1.13639 0
M  V30 34819 H 3190.34 5.36342 1.76062 0
M  V30 34820 N 3189.74 0.0785709 1.57404 0
M  V30 34821 C 3190.98 -0.59256 1.95622 0
M  V30 34822 C 3191.34 -1.66366 0.958458 0
M  V30 34823 O 3192.54 -2.39082 1.22854 0
M  V30 34824 C 3190.82 -1.1484 3.38447 0
M  V30 34825 S 3192.37 -1.83371 3.98648 0
M  V30 34826 H 3189.19 -0.193839 0.684067 0
M  V30 34827 H 3191.79 0.154041 1.94892 0
M  V30 34828 H 3190.5 -0.357107 4.08843 0
M  V30 34829 H 3190.03 -1.93121 3.42736 0
M  V30 34830 H 3192.04 -3.11669 3.86105 0
M  V30 34831 N 3191.22 -1.56389 -0.19503 0
M  V30 34832 C 3192.16 -1.94551 -1.24172 0
M  V30 34833 C 3193.13 -0.806115 -1.45227 0
M  V30 34834 O 3194.32 -1.06427 -1.5836 0
M  V30 34835 C 3191.46 -2.29036 -2.5814 0
M  V30 34836 C 3190.57 -3.5604 -2.44662 0
M  V30 34837 C 3189.71 -3.79847 -3.71335 0
M  V30 34838 C 3188.75 -5.00276 -3.5269 0
M  V30 34839 N 3187.88 -5.20336 -4.71375 0
M  V30 34840 H 3192.72 -2.83789 -0.909269 0
M  V30 34841 H 3190.26 -1.4044 -0.437616 0
M  V30 34842 H 3192.22 -2.47046 -3.3619 0
M  V30 34843 H 3190.85 -1.42938 -2.89428 0
M  V30 34844 H 3189.9 -3.46076 -1.57909 0
M  V30 34845 H 3191.21 -4.44246 -2.26819 0
M  V30 34846 H 3190.37 -3.98096 -4.57825 0
M  V30 34847 H 3189.11 -2.89971 -3.92133 0
M  V30 34848 H 3188.11 -4.81949 -2.64586 0
M  V30 34849 H 3189.34 -5.91661 -3.33338 0
M  V30 34850 H 3187.28 -4.33408 -4.92436 0
M  V30 34851 H 3187.2 -6.02722 -4.56358 0
M  V30 34852 H 3188.47 -5.43045 -5.59216 0
M  V30 34853 N 3192.7 0.462746 -1.50653 0
M  V30 34854 C 3194.11 0.797189 -1.38264 0
M  V30 34855 C 3194.31 1.9652 -0.445206 0
M  V30 34856 O 3193.37 2.52264 0.109086 0
M  V30 34857 C 3194.68 1.10142 -2.79802 0
M  V30 34858 C 3196.23 1.20737 -2.88776 0
M  V30 34859 C 3196.7 1.54468 -4.31165 0
M  V30 34860 N 3198.19 1.61443 -4.34155 0
M  V30 34861 C 3198.93 1.89064 -5.41334 0
M  V30 34862 N 3198.43 2.14649 -6.58709 0
M  V30 34863 N 3200.22 1.90636 -5.28786 0
M  V30 34864 H 3192.37 -0.306877 -2.10171 0
M  V30 34865 H 3194.63 -0.0748028 -0.945044 0
M  V30 34866 H 3194.34 0.316145 -3.50276 0
M  V30 34867 H 3194.21 2.03553 -3.17563 0
M  V30 34868 H 3196.6 1.9833 -2.18516 0
M  V30 34869 H 3196.68 0.252859 -2.54547 0
M  V30 34870 H 3196.32 0.774119 -5.01966 0
M  V30 34871 H 3196.25 2.51084 -4.62887 0
M  V30 34872 H 3198.75 1.43677 -3.49521 0
M  V30 34873 H 3199.06 2.35022 -7.36196 0
M  V30 34874 H 3197.4 2.12024 -6.61869 0
M  V30 34875 H 3200.59 1.7015 -4.36081 0
M  V30 34876 H 3200.77 2.11825 -6.124 0
M  V30 34877 N 3194.17 1.40371 0.716495 0
M  V30 34878 C 3195.4 1.42105 1.51066 0
M  V30 34879 C 3195.82 0.0222717 1.88087 0
M  V30 34880 O 3195.18 -0.969421 1.53205 0
M  V30 34881 C 3195.23 2.31709 2.76303 0
M  V30 34882 O 3194.33 1.75971 3.72972 0
M  V30 34883 H 3193.68 0.483137 0.455494 0
M  V30 34884 H 3196.21 1.8459 0.882481 0
M  V30 34885 H 3196.22 2.46864 3.24842 0
M  V30 34886 H 3194.89 3.33354 2.48692 0
M  V30 34887 H 3193.47 1.70157 3.31815 0
M  V30 34888 N 3195.65 -0.948621 1.25853 0
M  V30 34889 C 3196.58 -2.06365 1.09251 0
M  V30 34890 C 3197.56 -1.701 -0.000175269 0
M  V30 34891 O 3198.75 -1.9345 0.170476 0
M  V30 34892 C 3195.88 -3.39822 0.716836 0
M  V30 34893 C 3194.83 -3.90119 1.76043 0
M  V30 34894 C 3194.16 -5.2014 1.23927 0
M  V30 34895 C 3195.46 -4.15827 3.16046 0
M  V30 34896 H 3197.15 -2.20512 2.02521 0
M  V30 34897 H 3194.7 -1.0596 0.975111 0
M  V30 34898 H 3196.65 -4.17283 0.587605 0
M  V30 34899 H 3195.38 -3.2563 -0.251569 0
M  V30 34900 H 3194.03 -3.14832 1.87821 0
M  V30 34901 H 3193.68 -5.02323 0.260925 0
M  V30 34902 H 3193.38 -5.54762 1.93682 0
M  V30 34903 H 3194.91 -6.00192 1.12256 0
M  V30 34904 H 3196.32 -4.83927 3.07388 0
M  V30 34905 H 3194.72 -4.61716 3.83325 0
M  V30 34906 H 3195.79 -3.21881 3.62658 0
M  V30 34907 N 3197.13 -1.07536 -1.15212 0
M  V30 34908 C 3198.04 -0.708857 -2.23634 0
M  V30 34909 C 3199.06 0.280729 -1.7172 0
M  V30 34910 O 3200.23 0.126892 -2.01 0
M  V30 34911 C 3197.3 -0.114228 -3.46512 0
M  V30 34912 C 3196.36 -1.15729 -4.13407 0
M  V30 34913 C 3195.59 -0.590943 -5.30418 0
M  V30 34914 O 3195.81 0.592412 -5.67315 0
M  V30 34915 O 3194.75 -1.33674 -5.86869 0
M  V30 34916 H 3198.57 -1.61309 -2.57319 0
M  V30 34917 H 3196.16 -0.848444 -1.22971 0
M  V30 34918 H 3198.04 0.215017 -4.20851 0
M  V30 34919 H 3196.72 0.7633 -3.14572 0
M  V30 34920 H 3195.62 -1.53892 -3.40981 0
M  V30 34921 H 3196.96 -2.00679 -4.49432 0
M  V30 34922 N 3198.61 1.32084 -0.85974 0
M  V30 34923 C 3199.83 2.01795 -0.478901 0
M  V30 34924 C 3200.26 1.64164 0.918246 0
M  V30 34925 O 3199.62 0.844924 1.60408 0
M  V30 34926 C 3199.66 3.55029 -0.631419 0
M  V30 34927 O 3198.77 4.11048 0.333639 0
M  V30 34928 H 3198.11 0.6357 -0.191786 0
M  V30 34929 H 3200.64 1.68515 -1.16034 0
M  V30 34930 H 3200.65 4.04662 -0.520854 0
M  V30 34931 H 3199.32 3.8176 -1.65022 0
M  V30 34932 H 3197.9 3.72471 0.178887 0
M  V30 34933 N 3200.09 0.618171 1.4497 0
M  V30 34934 C 3201.33 0.117692 2.02458 0
M  V30 34935 C 3201.67 -1.25246 1.48415 0
M  V30 34936 O 3200.94 -1.8285 0.663029 0
M  V30 34937 C 3201.22 0.090253 3.59987 0
M  V30 34938 C 3201.08 1.49182 4.2434 0
M  V30 34939 C 3202.4 -0.592044 4.361 0
M  V30 34940 H 3199.51 0.044242 0.735671 0
M  V30 34941 H 3202.16 0.792168 1.72698 0
M  V30 34942 H 3200.31 -0.484107 3.85472 0
M  V30 34943 H 3201.98 2.11407 4.10006 0
M  V30 34944 H 3200.22 2.04948 3.82333 0
M  V30 34945 H 3200.89 1.42477 5.33296 0
M  V30 34946 H 3203.37 -0.10374 4.15971 0
M  V30 34947 H 3202.24 -0.580385 5.45823 0
M  V30 34948 H 3202.51 -1.66008 4.09749 0
M  V30 34949 N 3201.56 -1.53481 0.357946 0
M  V30 34950 C 3202.79 -2.05262 -0.234763 0
M  V30 34951 C 3203.2 -1.23172 -1.43615 0
M  V30 34952 O 3202.55 -0.263467 -1.81801 0
M  V30 34953 C 3202.61 -3.52625 -0.699686 0
M  V30 34954 C 3202.27 -4.55384 0.383986 0
M  V30 34955 C 3203.27 -5.05107 1.23138 0
M  V30 34956 C 3200.95 -4.99367 0.542041 0
M  V30 34957 C 3202.95 -5.97407 2.22225 0
M  V30 34958 C 3200.63 -5.91474 1.53628 0
M  V30 34959 C 3201.63 -6.40384 2.37483 0
M  V30 34960 O 3201.32 -7.30677 3.35212 0
M  V30 34961 H 3201.05 -0.674397 -0.0465245 0
M  V30 34962 H 3203.61 -1.98906 0.51239 0
M  V30 34963 H 3201.84 -3.56493 -1.49832 0
M  V30 34964 H 3203.53 -3.87303 -1.21454 0
M  V30 34965 H 3204.29 -4.71881 1.12043 0
M  V30 34966 H 3200.17 -4.6089 -0.100848 0
M  V30 34967 H 3203.71 -6.35505 2.87713 0
M  V30 34968 H 3199.61 -6.24115 1.64774 0
M  V30 34969 H 3200.38 -7.48652 3.30851 0
M  V30 34970 N 3203.04 -0.0869173 -1.5736 0
M  V30 34971 C 3204.27 0.590722 -1.9881 0
M  V30 34972 C 3204.69 1.61434 -0.965435 0
M  V30 34973 O 3204.05 1.81176 0.0671111 0
M  V30 34974 C 3204.1 1.22232 -3.39252 0
M  V30 34975 O 3203.2 2.33818 -3.3971 0
M  V30 34976 H 3202.54 0.150615 -0.646692 0
M  V30 34977 H 3205.07 -0.165909 -2.03926 0
M  V30 34978 H 3205.08 1.56558 -3.76767 0
M  V30 34979 H 3203.76 0.472362 -4.13209 0
M  V30 34980 H 3202.34 2.01173 -3.13981 0
M  V30 34981 N 3204.52 1.5649 0.186734 0
M  V30 34982 C 3205.45 1.98234 1.23391 0
M  V30 34983 C 3206.43 0.855551 1.47018 0
M  V30 34984 O 3207.62 1.1205 1.58614 0
M  V30 34985 C 3204.75 2.32903 2.57631 0
M  V30 34986 C 3203.7 3.48398 2.48601 0
M  V30 34987 C 3203.03 3.68766 3.8719 0
M  V30 34988 C 3204.33 4.82329 2.0039 0
M  V30 34989 H 3206.02 2.8596 0.886976 0
M  V30 34990 H 3203.57 1.37578 0.425226 0
M  V30 34991 H 3205.52 2.60702 3.31078 0
M  V30 34992 H 3204.24 1.42069 2.94082 0
M  V30 34993 H 3202.9 3.20703 1.77609 0
M  V30 34994 H 3202.55 2.75248 4.21008 0
M  V30 34995 H 3202.25 4.46468 3.82021 0
M  V30 34996 H 3203.77 3.98949 4.62246 0
M  V30 34997 H 3205.19 5.09105 2.63601 0
M  V30 34998 H 3203.59 5.6356 2.06204 0
M  V30 34999 H 3204.66 4.75353 0.957478 0
M  V30 35000 N 3206 -0.45475 1.50897 0
M  V30 35001 C 3207.23 -1.22668 1.66241 0
M  V30 35002 C 3207.64 -1.85898 0.351908 0
M  V30 35003 O 3206.98 -1.70738 -0.677818 0
M  V30 35004 C 3207.04 -2.36429 2.70817 0
M  V30 35005 C 3206.71 -1.93706 4.13916 0
M  V30 35006 C 3207.7 -1.4503 4.99262 0
M  V30 35007 C 3205.39 -2.01929 4.59924 0
M  V30 35008 C 3207.38 -1.0514 6.28669 0
M  V30 35009 C 3205.07 -1.6165 5.89332 0
M  V30 35010 C 3206.07 -1.13335 6.73531 0
M  V30 35011 O 3205.75 -0.736214 8.00522 0
M  V30 35012 H 3205.49 -0.376498 0.561449 0
M  V30 35013 H 3208.04 -0.54729 1.97974 0
M  V30 35014 H 3206.27 -3.07591 2.3436 0
M  V30 35015 H 3207.96 -2.98348 2.75215 0
M  V30 35016 H 3208.73 -1.38087 4.64927 0
M  V30 35017 H 3204.6 -2.38482 3.94522 0
M  V30 35018 H 3208.15 -0.673589 6.9434 0
M  V30 35019 H 3204.05 -1.68258 6.23185 0
M  V30 35020 H 3204.81 -0.863616 8.13931 0
M  V30 35021 N 3207.48 -1.40749 -0.709041 0
M  V30 35022 C 3208.89 -1.35114 -1.28845 0
M  V30 35023 C 3209.24 -0.0277494 -1.9618 0
M  V30 35024 O 3208.36 0.874198 -1.97956 0
M  V30 35025 C 3208.96 -2.4472 -2.34302 0
M  V30 35026 C 3207.52 -2.42525 -2.87852 0
M  V30 35027 C 3206.66 -2.2526 -1.61719 0
M  V30 35028 H 3209.62 -1.5046 -0.504716 0
M  V30 35029 H 3209.64 -2.13004 -3.15293 0
M  V30 35030 H 3209.15 -3.41026 -1.85265 0
M  V30 35031 H 3207.25 -1.49937 -3.41101 0
M  V30 35032 H 3207.36 -3.3835 -3.392 0
M  V30 35033 H 3205.73 -1.72893 -1.87029 0
M  V30 35034 H 3206.51 -3.23573 -1.14697 0
M  V30 35035 N 3208.96 0.941933 -1.26354 0
M  V30 35036 C 3210.18 1.72243 -1.14629 0
M  V30 35037 C 3210.6 1.86424 0.298555 0
M  V30 35038 O 3209.96 1.37108 1.20447 0
M  V30 35039 C 3210.01 3.12959 -1.80938 0
M  V30 35040 O 3209.73 2.99457 -3.19777 0
M  V30 35041 C 3211.23 4.07228 -1.75157 0
M  V30 35042 H 3208.45 0.539326 -0.39921 0
M  V30 35043 H 3210.99 1.18088 -1.6696 0
M  V30 35044 H 3209.15 3.64019 -1.32548 0
M  V30 35045 H 3209.56 3.88315 -3.52578 0
M  V30 35046 H 3211.04 5.03529 -2.26192 0
M  V30 35047 H 3211.51 4.33292 -0.717931 0
M  V30 35048 H 3212.12 3.62089 -2.23096 0
M  V30 35049 N 3210.43 1.08146 1.1464 0
M  V30 35050 C 3211.36 0.730648 2.21774 0
M  V30 35051 C 3212.34 -0.285672 1.67684 0
M  V30 35052 O 3213.53 -0.156633 1.93567 0
M  V30 35053 C 3210.66 0.136303 3.47032 0
M  V30 35054 C 3209.61 1.08067 4.14132 0
M  V30 35055 C 3208.94 0.348679 5.33562 0
M  V30 35056 C 3210.24 2.41769 4.62974 0
M  V30 35057 H 3211.93 1.62637 2.51375 0
M  V30 35058 H 3209.48 0.783432 1.20824 0
M  V30 35059 H 3211.43 -0.121108 4.21226 0
M  V30 35060 H 3210.16 -0.794544 3.16788 0
M  V30 35061 H 3208.82 1.32314 3.4189 0
M  V30 35062 H 3208.46 -0.585887 4.99576 0
M  V30 35063 H 3208.16 0.978224 5.794 0
M  V30 35064 H 3209.69 0.0992582 6.10519 0
M  V30 35065 H 3211.1 2.21804 5.28655 0
M  V30 35066 H 3209.5 3.00392 5.19504 0
M  V30 35067 H 3210.57 3.03488 3.78184 0
M  V30 35068 N 3211.91 -1.31626 0.866732 0
M  V30 35069 C 3213.14 -2.01538 0.489596 0
M  V30 35070 C 3213.56 -1.64649 -0.909527 0
M  V30 35071 O 3212.92 -0.853419 -1.59958 0
M  V30 35072 C 3212.97 -3.54689 0.650238 0
M  V30 35073 O 3212.07 -4.11219 -0.311836 0
M  V30 35074 H 3211.41 -0.634674 0.195155 0
M  V30 35075 H 3213.94 -1.67897 1.16926 0
M  V30 35076 H 3213.95 -4.0438 0.542307 0
M  V30 35077 H 3212.63 -3.80879 1.67044 0
M  V30 35078 H 3211.2 -3.7256 -0.159132 0
M  V30 35079 N 3213.39 -0.62585 -1.4464 0
M  V30 35080 C 3214.81 -0.29102 -1.56924 0
M  V30 35081 C 3215.01 1.20598 -1.61426 0
M  V30 35082 O 3214.06 1.98982 -1.55443 0
M  V30 35083 C 3215.37 -0.978292 -2.84341 0
M  V30 35084 C 3216.92 -0.955934 -2.98045 0
M  V30 35085 C 3217.4 -1.62357 -4.28257 0
M  V30 35086 N 3218.89 -1.58991 -4.35059 0
M  V30 35087 C 3219.62 -2.07548 -5.3452 0
M  V30 35088 N 3219.12 -2.64272 -6.40416 0
M  V30 35089 N 3220.91 -1.98208 -5.25994 0
M  V30 35090 H 3213.06 -1.59764 -1.39962 0
M  V30 35091 H 3215.33 -0.670318 -0.670357 0
M  V30 35092 H 3215.03 -2.03309 -2.86981 0
M  V30 35093 H 3214.91 -0.512792 -3.73698 0
M  V30 35094 H 3217.29 0.0903773 -2.94962 0
M  V30 35095 H 3217.37 -1.45987 -2.10051 0
M  V30 35096 H 3217.02 -2.6693 -4.321 0
M  V30 35097 H 3216.95 -1.0945 -5.151 0
M  V30 35098 H 3219.44 -1.17571 -3.59145 0
M  V30 35099 H 3219.75 -2.99069 -7.12585 0
M  V30 35100 H 3218.1 -2.6832 -6.41116 0
M  V30 35101 H 3221.29 -1.53618 -4.42175 0
M  V30 35102 H 3221.46 -2.36361 -6.03355 0
M  V30 35103 N 3214.87 1.53289 -0.36608 0
M  V30 35104 C 3215.8 2.28678 0.47207 0
M  V30 35105 C 3216.78 1.31127 1.0835 0
M  V30 35106 O 3217.96 1.59997 1.10066 0
M  V30 35107 C 3215.09 3.07639 1.61168 0
M  V30 35108 C 3214.05 4.12883 1.12747 0
M  V30 35109 C 3213.37 4.7993 2.35736 0
M  V30 35110 C 3214.67 5.2187 0.211862 0
M  V30 35111 H 3216.37 2.98989 -0.15689 0
M  V30 35112 H 3213.91 1.43795 -0.0768962 0
M  V30 35113 H 3215.87 3.59127 2.20467 0
M  V30 35114 H 3214.59 2.3502 2.26788 0
M  V30 35115 H 3213.25 3.62341 0.55717 0
M  V30 35116 H 3212.9 4.03882 2.99814 0
M  V30 35117 H 3212.6 5.51048 2.0401 0
M  V30 35118 H 3214.12 5.34212 2.9572 0
M  V30 35119 H 3215.54 5.68857 0.71234 0
M  V30 35120 H 3213.93 6.00098 -0.0145556 0
M  V30 35121 H 3215 4.7913 -0.745837 0
M  V30 35122 N 3216.35 0.0952613 1.57312 0
M  V30 35123 C 3217.28 -0.893641 2.11061 0
M  V30 35124 C 3218.29 -1.24592 1.04789 0
M  V30 35125 O 3219.48 -1.19901 1.32235 0
M  V30 35126 C 3216.58 -2.20268 2.57556 0
M  V30 35127 C 3215.75 -2.02571 3.87664 0
M  V30 35128 C 3214.81 -3.16989 4.20006 0
M  V30 35129 O 3213.84 -2.90945 4.89224 0
M  V30 35130 N 3215.04 -4.42763 3.75422 0
M  V30 35131 H 3217.8 -0.43458 2.96532 0
M  V30 35132 H 3215.37 -0.0898377 1.61651 0
M  V30 35133 H 3217.36 -2.95762 2.76237 0
M  V30 35134 H 3215.93 -2.57597 1.77095 0
M  V30 35135 H 3215.15 -1.11406 3.7813 0
M  V30 35136 H 3216.44 -1.88024 4.72784 0
M  V30 35137 H 3215.83 -4.66803 3.19548 0
M  V30 35138 H 3214.39 -5.15205 3.99258 0
M  V30 35139 N 3217.82 -1.56587 -0.178432 0
M  V30 35140 C 3218.79 -1.94983 -1.20476 0
M  V30 35141 C 3219.79 -0.832701 -1.3756 0
M  V30 35142 O 3220.98 -1.09987 -1.35087 0
M  V30 35143 C 3218.11 -2.23843 -2.57113 0
M  V30 35144 H 3219.3 -2.86817 -0.876122 0
M  V30 35145 H 3216.85 -1.50534 -0.420608 0
M  V30 35146 H 3217.59 -1.347 -2.95002 0
M  V30 35147 H 3217.37 -3.05265 -2.4608 0
M  V30 35148 H 3218.86 -2.54496 -3.31092 0
M  V30 35149 N 3219.3 0.446741 -1.51136 0
M  V30 35150 C 3220.55 1.19385 -1.62574 0
M  V30 35151 C 3220.86 1.92565 -0.343234 0
M  V30 35152 O 3222.07 2.69402 -0.336851 0
M  V30 35153 C 3220.53 2.17062 -2.87075 0
M  V30 35154 C 3220.13 1.49573 -4.22293 0
M  V30 35155 C 3221.88 2.92264 -3.07867 0
M  V30 35156 C 3219.78 2.4568 -5.37955 0
M  V30 35157 H 3218.71 0.44932 -0.605497 0
M  V30 35158 H 3221.37 0.461815 -1.77594 0
M  V30 35159 H 3219.75 2.93661 -2.65667 0
M  V30 35160 H 3220.92 0.785975 -4.54047 0
M  V30 35161 H 3219.24 0.865606 -4.07304 0
M  V30 35162 H 3221.83 3.6424 -3.91451 0
M  V30 35163 H 3222.18 3.53068 -2.20565 0
M  V30 35164 H 3222.71 2.22774 -3.2957 0
M  V30 35165 H 3219.45 1.8958 -6.27487 0
M  V30 35166 H 3218.97 3.14737 -5.10589 0
M  V30 35167 H 3220.65 3.07007 -5.69522 0
M  V30 35168 N 3220.78 1.41123 0.701567 0
M  V30 35169 C 3222.03 1.39881 1.45869 0
M  V30 35170 C 3222.35 0.00672197 1.94999 0
M  V30 35171 O 3221.62 -0.95044 1.71299 0
M  V30 35172 H 3220.2 0.514866 0.541222 0
M  V30 35173 H 3222.86 1.76307 0.830772 0
M  V30 35174 H 3221.96 2.08234 2.32476 0
M  V30 35175 N 3222.26 -0.935219 1.26852 0
M  V30 35176 C 3223.17 -2.06829 1.1072 0
M  V30 35177 C 3224.18 -1.73956 0.0391528 0
M  V30 35178 O 3225.36 -1.99915 0.244106 0
M  V30 35179 C 3222.42 -3.38531 0.748153 0
M  V30 35180 C 3221.49 -3.8515 1.89626 0
M  V30 35181 C 3220.72 -5.10567 1.55425 0
M  V30 35182 O 3220.94 -5.68553 0.458696 0
M  V30 35183 O 3219.88 -5.52373 2.39097 0
M  V30 35184 H 3223.7 -2.23348 2.05789 0
M  V30 35185 H 3221.29 -1.05313 1.05969 0
M  V30 35186 H 3223.17 -4.1765 0.560914 0
M  V30 35187 H 3221.84 -3.23237 -0.173086 0
M  V30 35188 H 3220.75 -3.06951 2.13851 0
M  V30 35189 H 3222.08 -4.04974 2.79744 0
M  V30 35190 N 3223.74 -1.08752 -1.14065 0
M  V30 35191 C 3224.67 -0.742398 -2.21384 0
M  V30 35192 C 3225.65 0.276776 -1.67833 0
M  V30 35193 O 3226.83 0.146366 -1.93648 0
M  V30 35194 C 3223.96 -0.154705 -3.46955 0
M  V30 35195 C 3222.92 -1.10262 -4.13553 0
M  V30 35196 C 3222.24 -0.37697 -5.33369 0
M  V30 35197 C 3223.54 -2.44221 -4.61685 0
M  V30 35198 H 3225.24 -1.63968 -2.50509 0
M  V30 35199 H 3222.78 -0.789829 -1.20406 0
M  V30 35200 H 3224.74 0.0987679 -4.21284 0
M  V30 35201 H 3223.46 0.777733 -3.17205 0
M  V30 35202 H 3222.12 -1.34125 -3.41183 0
M  V30 35203 H 3221.77 0.559385 -4.9988 0
M  V30 35204 H 3221.47 -1.00894 -5.78873 0
M  V30 35205 H 3222.99 -0.131634 -6.10458 0
M  V30 35206 H 3224.4 -2.24605 -5.27471 0
M  V30 35207 H 3222.8 -3.03143 -5.17904 0
M  V30 35208 H 3223.87 -3.05489 -3.76569 0
M  V30 35209 N 3225.21 1.31165 -0.873701 0
M  V30 35210 C 3226.12 2.32185 -0.335766 0
M  V30 35211 C 3227.14 1.6487 0.55623 0
M  V30 35212 O 3228.32 1.96261 0.452053 0
M  V30 35213 C 3225.38 3.43757 0.450761 0
M  V30 35214 C 3224.44 4.26723 -0.46964 0
M  V30 35215 C 3223.68 5.32968 0.279445 0
M  V30 35216 O 3223.9 5.50131 1.50705 0
M  V30 35217 O 3222.83 6.00795 -0.364625 0
M  V30 35218 H 3226.66 2.80125 -1.17319 0
M  V30 35219 H 3224.24 1.35131 -0.637186 0
M  V30 35220 H 3226.13 4.11753 0.896509 0
M  V30 35221 H 3224.8 2.97973 1.26467 0
M  V30 35222 H 3223.71 3.61467 -0.963966 0
M  V30 35223 H 3225.04 4.76083 -1.24925 0
M  V30 35224 N 3226.69 0.633512 1.44307 0
M  V30 35225 C 3227.92 0.144384 2.06897 0
M  V30 35226 C 3228.34 -1.17297 1.47047 0
M  V30 35227 O 3227.7 -1.72012 0.572836 0
M  V30 35228 C 3227.75 0.0456957 3.60571 0
M  V30 35229 O 3226.85 -0.997612 4.00152 0
M  V30 35230 H 3226.19 0.0858614 0.658425 0
M  V30 35231 H 3228.72 0.870866 1.85141 0
M  V30 35232 H 3228.73 -0.144106 4.07745 0
M  V30 35233 H 3227.41 1.00747 4.03513 0
M  V30 35234 H 3225.99 -0.782188 3.64604 0
M  V30 35235 N 3228.17 -1.53093 0.374204 0
M  V30 35236 C 3229.42 -2.00562 -0.213946 0
M  V30 35237 C 3229.73 -1.26536 -1.49158 0
M  V30 35238 O 3230.94 -1.64638 -2.15886 0
M  V30 35239 C 3229.39 -3.573 -0.431813 0
M  V30 35240 C 3229 -4.40212 0.831692 0
M  V30 35241 C 3230.75 -4.13101 -0.977149 0
M  V30 35242 C 3228.65 -5.8852 0.582934 0
M  V30 35243 H 3227.58 -0.749337 -0.0837255 0
M  V30 35244 H 3230.23 -1.76718 0.494276 0
M  V30 35245 H 3228.62 -3.77332 -1.20151 0
M  V30 35246 H 3229.79 -4.31951 1.60484 0
M  V30 35247 H 3228.11 -3.95558 1.30087 0
M  V30 35248 H 3230.7 -5.21546 -1.17872 0
M  V30 35249 H 3231.05 -3.68238 -1.94182 0
M  V30 35250 H 3231.58 -3.969 -0.267403 0
M  V30 35251 H 3228.32 -6.37677 1.51818 0
M  V30 35252 H 3227.84 -5.99608 -0.15156 0
M  V30 35253 H 3229.52 -6.46654 0.211718 0
M  V30 35254 N 3229.65 -0.103603 -1.57259 0
M  V30 35255 C 3230.9 0.55699 -1.94273 0
M  V30 35256 C 3231.22 1.6819 -0.986768 0
M  V30 35257 O 3230.49 1.95859 -0.0403162 0
M  V30 35258 H 3229.07 0.208745 -0.717241 0
M  V30 35259 H 3231.73 -0.168932 -1.94167 0
M  V30 35260 H 3230.83 0.961638 -2.96916 0
M  V30 35261 N 3231.13 1.56679 0.170126 0
M  V30 35262 C 3232.04 1.99737 1.23054 0
M  V30 35263 C 3233.05 0.908938 1.48372 0
M  V30 35264 O 3234.23 1.21666 1.60497 0
M  V30 35265 C 3231.29 2.3496 2.5494 0
M  V30 35266 C 3230.35 3.57638 2.37474 0
M  V30 35267 C 3229.59 3.91172 3.63071 0
M  V30 35268 O 3229.81 3.25658 4.68298 0
M  V30 35269 O 3228.74 4.84516 3.5711 0
M  V30 35270 H 3232.57 2.90211 0.895053 0
M  V30 35271 H 3230.16 1.44563 0.377084 0
M  V30 35272 H 3232.04 2.5858 3.32738 0
M  V30 35273 H 3230.71 1.47648 2.88065 0
M  V30 35274 H 3229.62 3.39235 1.57703 0
M  V30 35275 H 3230.95 4.45495 2.09273 0
M  V30 35276 N 3232.6 -0.43872 1.5137 0
M  V30 35277 C 3233.53 -1.53984 1.75531 0
M  V30 35278 C 3234.52 -1.58974 0.605095 0
M  V30 35279 O 3235.7 -1.74723 0.847664 0
M  V30 35280 C 3232.83 -2.92074 1.87909 0
M  V30 35281 C 3231.78 -3.01946 3.03336 0
M  V30 35282 C 3231.11 -4.42002 3.00896 0
M  V30 35283 C 3232.41 -2.76155 4.43323 0
M  V30 35284 H 3234.1 -1.34017 2.67731 0
M  V30 35285 H 3231.65 -0.643285 1.28833 0
M  V30 35286 H 3233.6 -3.69064 2.03395 0
M  V30 35287 H 3232.33 -3.13269 0.923569 0
M  V30 35288 H 3230.99 -2.27395 2.87553 0
M  V30 35289 H 3230.63 -4.60163 2.03124 0
M  V30 35290 H 3230.33 -4.49537 3.78405 0
M  V30 35291 H 3231.86 -5.20968 3.18473 0
M  V30 35292 H 3233.27 -3.42879 4.59464 0
M  V30 35293 H 3231.67 -2.95101 5.22528 0
M  V30 35294 H 3232.74 -1.71771 4.53456 0
M  V30 35295 N 3234.08 -1.41493 -0.694073 0
M  V30 35296 C 3235.33 -1.40931 -1.45412 0
M  V30 35297 C 3235.66 -0.0189643 -1.94491 0
M  V30 35298 O 3234.91 0.96942 -1.70002 0
M  V30 35299 C 3235.21 -2.36402 -2.68046 0
M  V30 35300 C 3234.88 -3.83209 -2.37616 0
M  V30 35301 C 3233.54 -4.23202 -2.29028 0
M  V30 35302 C 3235.89 -4.75892 -2.12547 0
M  V30 35303 C 3233.22 -5.53883 -1.93468 0
M  V30 35304 C 3235.57 -6.06896 -1.78495 0
M  V30 35305 C 3234.24 -6.45908 -1.68403 0
M  V30 35306 H 3233.51 -0.515703 -0.532101 0
M  V30 35307 H 3236.15 -1.74302 -0.793162 0
M  V30 35308 H 3234.46 -1.96291 -3.39083 0
M  V30 35309 H 3236.15 -2.3324 -3.2619 0
M  V30 35310 H 3232.74 -3.51535 -2.45196 0
M  V30 35311 H 3236.93 -4.45797 -2.18126 0
M  V30 35312 H 3232.18 -5.8299 -1.84209 0
M  V30 35313 H 3236.36 -6.78212 -1.58117 0
M  V30 35314 H 3233.99 -7.47081 -1.40618 0
M  V30 35315 N 3235.56 0.928479 -1.27346 0
M  V30 35316 C 3236.79 1.71548 -1.1656 0
M  V30 35317 C 3237.21 1.86093 0.274011 0
M  V30 35318 O 3236.57 1.3604 1.19845 0
M  V30 35319 C 3236.62 3.09326 -1.85338 0
M  V30 35320 O 3235.72 3.96018 -1.15081 0
M  V30 35321 H 3235.06 0.525852 -0.405432 0
M  V30 35322 H 3237.59 1.16199 -1.68401 0
M  V30 35323 H 3237.6 3.59644 -1.92665 0
M  V30 35324 H 3236.28 2.98055 -2.90062 0
M  V30 35325 H 3234.85 3.54459 -1.15817 0
M  V30 35326 N 3237.04 1.09355 1.13486 0
M  V30 35327 C 3238.45 0.82311 1.36737 0
M  V30 35328 C 3238.65 -0.562929 1.93477 0
M  V30 35329 O 3237.71 -1.31793 2.15376 0
M  V30 35330 C 3239.02 1.91375 2.3194 0
M  V30 35331 C 3240.57 1.9409 2.45557 0
M  V30 35332 C 3241.05 3.02295 3.44066 0
M  V30 35333 N 3242.54 3.0153 3.51616 0
M  V30 35334 C 3243.27 3.81897 4.27717 0
M  V30 35335 N 3242.77 4.7217 5.06979 0
M  V30 35336 N 3244.56 3.70159 4.23011 0
M  V30 35337 H 3236.71 1.98715 0.750085 0
M  V30 35338 H 3238.98 0.862907 0.392549 0
M  V30 35339 H 3238.68 2.91076 1.97403 0
M  V30 35340 H 3238.56 1.79136 3.31949 0
M  V30 35341 H 3240.94 0.950283 2.79381 0
M  V30 35342 H 3241.02 2.10406 1.45475 0
M  V30 35343 H 3240.67 4.01569 3.10974 0
M  V30 35344 H 3240.6 2.83222 4.43951 0
M  V30 35345 H 3243.09 2.36108 2.95061 0
M  V30 35346 H 3243.4 5.30077 5.62351 0
M  V30 35347 H 3241.75 4.76206 5.06214 0
M  V30 35348 H 3244.94 2.98995 3.60166 0
M  V30 35349 H 3245.11 4.3303 4.82067 0
M  V30 35350 N 3238.52 -1.307 0.880644 0
M  V30 35351 C 3239.74 -2.01008 0.510944 0
M  V30 35352 C 3240.17 -1.65604 -0.892012 0
M  V30 35353 O 3239.53 -0.870337 -1.59043 0
M  V30 35354 C 3239.57 -3.53979 0.687821 0
M  V30 35355 O 3238.68 -4.11527 -0.268203 0
M  V30 35356 H 3238.02 -0.632568 0.201876 0
M  V30 35357 H 3240.55 -1.66648 1.187 0
M  V30 35358 H 3240.56 -4.03782 0.585166 0
M  V30 35359 H 3239.23 -3.79086 1.71075 0
M  V30 35360 H 3237.81 -3.72708 -0.119608 0
M  V30 35361 N 3240 -0.641156 -1.43969 0
M  V30 35362 C 3241.24 -0.149886 -2.02245 0
M  V30 35363 C 3241.57 1.22869 -1.50389 0
M  V30 35364 O 3240.85 1.81772 -0.692035 0
M  V30 35365 C 3241.13 -0.147512 -3.59798 0
M  V30 35366 C 3240.99 -1.55914 -4.21913 0
M  V30 35367 C 3242.3 0.52259 -4.36986 0
M  V30 35368 H 3239.42 -0.0559403 -0.734874 0
M  V30 35369 H 3242.07 -0.819543 -1.71416 0
M  V30 35370 H 3240.22 0.422721 -3.86193 0
M  V30 35371 H 3241.89 -2.17903 -4.0659 0
M  V30 35372 H 3240.13 -2.11004 -3.79024 0
M  V30 35373 H 3240.8 -1.50943 -5.30962 0
M  V30 35374 H 3243.28 0.0375494 -4.16083 0
M  V30 35375 H 3242.15 0.493476 -5.46677 0
M  V30 35376 H 3242.41 1.59468 -4.12338 0
M  V30 35377 N 3241.47 1.52892 -0.382318 0
M  V30 35378 C 3242.7 2.05908 0.202372 0
M  V30 35379 C 3243.12 1.25458 1.41088 0
M  V30 35380 O 3242.47 0.299452 1.80026 0
M  V30 35381 C 3242.52 3.56827 0.579389 0
M  V30 35382 O 3242.25 4.34229 -0.581096 0
M  V30 35383 C 3243.75 4.26162 1.22069 0
M  V30 35384 H 3240.97 0.670228 0.0321741 0
M  V30 35385 H 3243.51 1.97089 -0.545529 0
M  V30 35386 H 3241.67 3.65741 1.27719 0
M  V30 35387 H 3242.08 5.2379 -0.272785 0
M  V30 35388 H 3243.55 5.33024 1.43491 0
M  V30 35389 H 3244.03 3.80935 2.18599 0
M  V30 35390 H 3244.64 4.21546 0.563848 0
M  V30 35391 N 3242.95 0.111941 1.57202 0
M  V30 35392 C 3243.9 -0.85186 2.11488 0
M  V30 35393 C 3244.89 -1.23282 1.03394 0
M  V30 35394 O 3246.08 -1.20509 1.2964 0
M  V30 35395 C 3243.21 -2.10459 2.71223 0
M  V30 35396 C 3242.29 -1.74831 3.86387 0
M  V30 35397 N 3242.68 -1.09843 4.93729 0
M  V30 35398 C 3240.98 -2.04334 3.96438 0
M  V30 35399 C 3241.68 -0.931989 5.74185 0
M  V30 35400 N 3240.66 -1.45473 5.23773 0
M  V30 35401 H 3244.46 -0.34574 2.91859 0
M  V30 35402 H 3241.97 -0.0907531 1.62146 0
M  V30 35403 H 3243.97 -2.80467 3.08454 0
M  V30 35404 H 3242.63 -2.61621 1.92313 0
M  V30 35405 H 3243.64 -0.763244 5.12245 0
M  V30 35406 H 3240.32 -2.57593 3.28561 0
M  V30 35407 H 3241.71 -0.422424 6.70571 0
M  V30 35408 N 3244.43 -1.56767 -0.161814 0
M  V30 35409 C 3245.85 -1.51099 -0.513933 0
M  V30 35410 C 3246.05 -0.817847 -1.84156 0
M  V30 35411 O 3245.1 -0.382177 -2.49591 0
M  V30 35412 C 3246.41 -2.9585 -0.537914 0
M  V30 35413 C 3247.96 -3.06708 -0.624458 0
M  V30 35414 C 3248.44 -4.52935 -0.679242 0
M  V30 35415 N 3249.93 -4.5722 -0.741873 0
M  V30 35416 C 3250.66 -5.67721 -0.804996 0
M  V30 35417 N 3250.16 -6.8783 -0.828371 0
M  V30 35418 N 3251.95 -5.55716 -0.844745 0
M  V30 35419 H 3244.1 -2.00231 0.708616 0
M  V30 35420 H 3246.37 -0.912599 0.256646 0
M  V30 35421 H 3246.07 -3.49758 0.369113 0
M  V30 35422 H 3245.95 -3.51007 -1.38107 0
M  V30 35423 H 3248.33 -2.52828 -1.52191 0
M  V30 35424 H 3248.41 -2.54619 0.245559 0
M  V30 35425 H 3248.06 -5.07449 0.21399 0
M  V30 35426 H 3247.99 -5.02791 -1.56554 0
M  V30 35427 H 3250.48 -3.70749 -0.731707 0
M  V30 35428 H 3250.79 -7.67796 -0.877974 0
M  V30 35429 H 3249.14 -6.90421 -0.79649 0
M  V30 35430 H 3252.33 -4.60798 -0.823551 0
M  V30 35431 H 3252.5 -6.41852 -0.890475 0
M  V30 35432 N 3245.91 0.430686 -1.51601 0
M  V30 35433 C 3246.84 1.54174 -1.69597 0
M  V30 35434 C 3247.85 1.52249 -0.576545 0
M  V30 35435 O 3249.04 1.56905 -0.851067 0
M  V30 35436 C 3246.14 2.93089 -1.70153 0
M  V30 35437 C 3245.31 3.19445 -2.98787 0
M  V30 35438 C 3244.37 4.38118 -2.91443 0
M  V30 35439 O 3243.4 4.36447 -3.6538 0
M  V30 35440 N 3244.6 5.42052 -2.0775 0
M  V30 35441 H 3247.37 1.39139 -2.65444 0
M  V30 35442 H 3244.93 0.619714 -1.4957 0
M  V30 35443 H 3246.92 3.70511 -1.628 0
M  V30 35444 H 3245.49 3.01688 -0.81872 0
M  V30 35445 H 3244.71 2.30261 -3.19958 0
M  V30 35446 H 3246 3.33885 -3.83925 0
M  V30 35447 H 3245.4 5.46248 -1.47068 0
M  V30 35448 H 3243.95 6.18301 -2.0627 0
M  V30 35449 N 3247.39 1.4186 0.686559 0
M  V30 35450 C 3248.32 1.47196 1.81261 0
M  V30 35451 C 3249.3 0.329686 1.66874 0
M  V30 35452 O 3250.48 0.54238 1.86472 0
M  V30 35453 C 3247.61 1.36221 3.1947 0
M  V30 35454 C 3246.57 2.48353 3.48575 0
M  V30 35455 C 3245.89 2.22441 4.86235 0
M  V30 35456 C 3247.19 3.90684 3.46646 0
M  V30 35457 H 3248.89 2.41439 1.77053 0
M  V30 35458 H 3246.43 1.16208 0.850395 0
M  V30 35459 H 3248.38 1.38565 3.97967 0
M  V30 35460 H 3247.11 0.384668 3.24327 0
M  V30 35461 H 3245.77 2.45307 2.72433 0
M  V30 35462 H 3245.42 1.23008 4.87727 0
M  V30 35463 H 3245.12 2.97585 5.06672 0
M  V30 35464 H 3246.64 2.26514 5.6703 0
M  V30 35465 H 3248.05 3.95396 4.15132 0
M  V30 35466 H 3246.45 4.65585 3.78617 0
M  V30 35467 H 3247.52 4.18193 2.45444 0
M  V30 35468 N 3248.86 -0.921712 1.27837 0
M  V30 35469 C 3250.09 -1.70927 1.17468 0
M  V30 35470 C 3250.51 -1.86236 -0.264138 0
M  V30 35471 O 3249.87 -1.36674 -1.19122 0
M  V30 35472 C 3249.92 -3.08338 1.86975 0
M  V30 35473 O 3249.02 -3.95402 1.1718 0
M  V30 35474 H 3248.36 -0.523695 0.408216 0
M  V30 35475 H 3250.89 -1.15304 1.69015 0
M  V30 35476 H 3250.9 -3.58617 1.9457 0
M  V30 35477 H 3249.58 -2.96513 2.91638 0
M  V30 35478 H 3248.16 -3.53839 1.17695 0
M  V30 35479 N 3250.34 -1.09956 -1.12905 0
M  V30 35480 C 3251.25 -0.756134 -2.22081 0
M  V30 35481 C 3252.27 0.244241 -1.72277 0
M  V30 35482 O 3253.44 0.0842284 -2.01224 0
M  V30 35483 C 3250.51 -0.187703 -3.46192 0
M  V30 35484 C 3249.57 -1.24472 -4.10859 0
M  V30 35485 C 3248.8 -0.70332 -5.29045 0
M  V30 35486 O 3249.03 0.471943 -5.68444 0
M  V30 35487 O 3247.96 -1.46092 -5.83901 0
M  V30 35488 H 3251.79 -1.66731 -2.53839 0
M  V30 35489 H 3249.37 -0.874337 -1.21143 0
M  V30 35490 H 3251.25 0.1257 -4.21212 0
M  V30 35491 H 3249.93 0.696403 -3.1612 0
M  V30 35492 H 3248.83 -1.6109 -3.3764 0
M  V30 35493 H 3250.17 -2.10167 -4.45074 0
M  V30 35494 N 3251.82 1.30231 -0.887563 0
M  V30 35495 C 3253.07 1.96333 -0.508065 0
M  V30 35496 C 3253.4 1.69886 0.940875 0
M  V30 35497 O 3252.67 1.00503 1.66522 0
M  V30 35498 C 3252.96 3.51403 -0.786627 0
M  V30 35499 C 3252.81 3.87356 -2.28638 0
M  V30 35500 C 3254.13 4.39302 -0.26488 0
M  V30 35501 H 3251.25 0.713126 -0.186064 0
M  V30 35502 H 3253.89 1.54058 -1.11203 0
M  V30 35503 H 3252.04 3.87543 -0.272591 0
M  V30 35504 H 3253.71 3.61226 -2.86903 0
M  V30 35505 H 3251.95 3.35332 -2.752 0
M  V30 35506 H 3252.63 4.95543 -2.43189 0
M  V30 35507 H 3255.1 4.10086 -0.704881 0
M  V30 35508 H 3253.98 5.46717 -0.489094 0
M  V30 35509 H 3254.24 4.34163 0.833978 0
M  V30 35510 N 3253.3 0.648782 1.43627 0
M  V30 35511 C 3254.53 0.167738 2.05918 0
M  V30 35512 C 3254.94 -1.17004 1.48684 0
M  V30 35513 O 3254.28 -1.73241 0.611014 0
M  V30 35514 C 3254.34 -0.00259195 3.595 0
M  V30 35515 C 3254.01 1.25978 4.39293 0
M  V30 35516 C 3255 2.18751 4.7164 0
M  V30 35517 C 3252.69 1.50012 4.79376 0
M  V30 35518 C 3254.68 3.33856 5.42973 0
M  V30 35519 C 3252.37 2.65411 5.50455 0
M  V30 35520 C 3253.37 3.57158 5.82175 0
M  V30 35521 O 3253.05 4.70542 6.51802 0
M  V30 35522 H 3252.79 0.0851379 0.670617 0
M  V30 35523 H 3255.34 0.888383 1.85194 0
M  V30 35524 H 3253.57 -0.778564 3.78781 0
M  V30 35525 H 3255.26 -0.44043 4.03503 0
M  V30 35526 H 3256.03 2.01423 4.41196 0
M  V30 35527 H 3251.9 0.794825 4.54096 0
M  V30 35528 H 3255.45 4.05489 5.67648 0
M  V30 35529 H 3251.35 2.82675 5.80315 0
M  V30 35530 H 3252.11 4.6975 6.70282 0
M  V30 35531 N 3254.78 -1.52688 0.390421 0
M  V30 35532 C 3256.03 -2.00778 -0.192661 0
M  V30 35533 C 3256.34 -1.2811 -1.47808 0
M  V30 35534 O 3257.54 -1.66918 -2.14128 0
M  V30 35535 C 3256 -3.57738 -0.393892 0
M  V30 35536 C 3255.61 -4.39305 0.878336 0
M  V30 35537 C 3257.35 -4.14114 -0.93328 0
M  V30 35538 C 3255.26 -5.87869 0.645322 0
M  V30 35539 H 3254.19 -0.750183 -0.075773 0
M  V30 35540 H 3256.84 -1.76184 0.512992 0
M  V30 35541 H 3255.22 -3.78586 -1.16142 0
M  V30 35542 H 3256.4 -4.30224 1.65057 0
M  V30 35543 H 3254.71 -3.94156 1.34276 0
M  V30 35544 H 3257.31 -5.22767 -1.12334 0
M  V30 35545 H 3257.65 -3.70276 -1.90266 0
M  V30 35546 H 3258.18 -3.97162 -0.225291 0
M  V30 35547 H 3254.92 -6.36031 1.58573 0
M  V30 35548 H 3254.44 -5.99736 -0.0879555 0
M  V30 35549 H 3256.12 -6.46393 0.280292 0
M  V30 35550 N 3256.25 -0.120276 -1.5714 0
M  V30 35551 C 3257.2 0.82946 -2.1538 0
M  V30 35552 C 3258.17 1.26268 -1.07915 0
M  V30 35553 O 3259.36 1.33997 -1.35829 0
M  V30 35554 C 3256.5 2.07366 -2.75851 0
M  V30 35555 C 3255.61 1.68868 -3.97627 0
M  V30 35556 C 3254.74 2.88264 -4.46181 0
M  V30 35557 C 3253.78 2.46013 -5.60486 0
M  V30 35558 N 3252.92 3.58327 -6.03777 0
M  V30 35559 H 3257.76 0.325979 -2.96212 0
M  V30 35560 H 3255.3 0.149209 -1.46341 0
M  V30 35561 H 3257.26 2.80266 -3.09041 0
M  V30 35562 H 3255.89 2.5517 -1.97707 0
M  V30 35563 H 3254.94 0.858366 -3.70589 0
M  V30 35564 H 3256.25 1.33819 -4.80514 0
M  V30 35565 H 3255.4 3.69388 -4.81287 0
M  V30 35566 H 3254.14 3.26542 -3.62246 0
M  V30 35567 H 3253.15 1.63322 -5.24982 0
M  V30 35568 H 3254.37 2.08851 -6.46187 0
M  V30 35569 H 3252.32 3.96275 -5.22783 0
M  V30 35570 H 3252.24 3.27205 -6.81523 0
M  V30 35571 H 3253.5 4.39887 -6.43521 0
M  V30 35572 N 3257.73 1.56851 0.153498 0
M  V30 35573 C 3258.98 1.84152 0.863695 0
M  V30 35574 C 3259.33 0.703355 1.79083 0
M  V30 35575 O 3258.63 -0.299115 1.89251 0
M  V30 35576 C 3258.82 3.15421 1.6806 0
M  V30 35577 C 3258.65 4.41898 0.834067 0
M  V30 35578 C 3257.42 5.02798 0.502206 0
M  V30 35579 C 3259.62 5.14028 0.167385 0
M  V30 35580 N 3257.6 6.12852 -0.358608 0
M  V30 35581 C 3258.97 6.17521 -0.553838 0
M  V30 35582 C 3261.03 4.97823 0.087387 0
M  V30 35583 C 3259.73 7.06566 -1.3475 0
M  V30 35584 C 3261.75 5.87326 -0.692992 0
M  V30 35585 C 3261.12 6.90296 -1.40252 0
M  V30 35586 H 3257.22 0.724594 0.294087 0
M  V30 35587 H 3259.8 1.94269 0.129481 0
M  V30 35588 H 3257.97 3.06463 2.38611 0
M  V30 35589 H 3259.7 3.30653 2.33347 0
M  V30 35590 H 3256.46 4.66155 0.836475 0
M  V30 35591 H 3256.88 6.72493 -0.779848 0
M  V30 35592 H 3261.52 4.18206 0.621589 0
M  V30 35593 H 3259.24 7.85616 -1.89298 0
M  V30 35594 H 3262.83 5.76857 -0.756796 0
M  V30 35595 H 3261.71 7.58355 -1.99668 0
M  V30 35596 N 3259.21 -0.42264 1.51827 0
M  V30 35597 C 3260.14 -1.53272 1.70412 0
M  V30 35598 C 3261.16 -1.51941 0.584611 0
M  V30 35599 O 3262.34 -1.56451 0.859376 0
M  V30 35600 C 3259.44 -2.92182 1.71705 0
M  V30 35601 C 3258.62 -3.17856 3.00477 0
M  V30 35602 C 3257.68 -4.36566 2.93762 0
M  V30 35603 O 3256.7 -4.34503 3.67689 0
M  V30 35604 N 3257.9 -5.40943 2.10622 0
M  V30 35605 H 3260.67 -1.37729 2.66178 0
M  V30 35606 H 3258.23 -0.611773 1.49896 0
M  V30 35607 H 3260.22 -3.69642 1.64762 0
M  V30 35608 H 3258.79 -3.0125 0.834708 0
M  V30 35609 H 3258.01 -2.28561 3.21175 0
M  V30 35610 H 3259.3 -3.31844 3.8569 0
M  V30 35611 H 3258.7 -5.45461 1.49963 0
M  V30 35612 H 3257.26 -6.17198 2.09546 0
M  V30 35613 N 3260.69 -1.42222 -0.679027 0
M  V30 35614 C 3261.64 -1.45369 -1.79267 0
M  V30 35615 C 3262.61 -0.306118 -1.63255 0
M  V30 35616 O 3263.79 -0.50958 -1.83869 0
M  V30 35617 C 3260.93 -1.35772 -3.1727 0
M  V30 35618 C 3260.04 -2.60531 -3.44598 0
M  V30 35619 C 3259.18 -2.43107 -4.72306 0
M  V30 35620 C 3258.22 -3.6326 -4.92655 0
M  V30 35621 N 3257.35 -3.44804 -6.116 0
M  V30 35622 H 3262.19 -2.40539 -1.75912 0
M  V30 35623 H 3259.73 -1.19427 -0.858815 0
M  V30 35624 H 3261.69 -1.28207 -3.97012 0
M  V30 35625 H 3260.32 -0.441995 -3.1976 0
M  V30 35626 H 3259.37 -2.7848 -2.59139 0
M  V30 35627 H 3260.68 -3.49857 -3.5553 0
M  V30 35628 H 3259.84 -2.33103 -5.60132 0
M  V30 35629 H 3258.58 -1.51263 -4.63649 0
M  V30 35630 H 3257.58 -3.737 -4.03272 0
M  V30 35631 H 3258.81 -4.56079 -5.03159 0
M  V30 35632 H 3256.75 -2.55674 -6.04125 0
M  V30 35633 H 3256.67 -4.27716 -6.23374 0
M  V30 35634 H 3257.94 -3.38604 -7.02116 0
M  V30 35635 N 3262.17 0.91492 -1.28324 0
M  V30 35636 C 3263.12 2.00371 -1.08791 0
M  V30 35637 C 3264.1 1.60896 -0.0119279 0
M  V30 35638 O 3265.29 1.75474 -0.231933 0
M  V30 35639 C 3262.42 3.34995 -0.750567 0
M  V30 35640 C 3261.51 3.80875 -1.86533 0
M  V30 35641 N 3261.9 3.99139 -3.10679 0
M  V30 35642 C 3260.2 4.10023 -1.75492 0
M  V30 35643 C 3260.9 4.3755 -3.83307 0
M  V30 35644 N 3259.87 4.45743 -3.11149 0
M  V30 35645 H 3263.68 2.1254 -2.02988 0
M  V30 35646 H 3261.19 1.10268 -1.19226 0
M  V30 35647 H 3263.19 4.12679 -0.591716 0
M  V30 35648 H 3261.85 3.2418 0.183639 0
M  V30 35649 H 3262.86 3.85091 -3.46302 0
M  V30 35650 H 3259.53 4.07851 -0.892411 0
M  V30 35651 H 3260.92 4.59654 -4.9007 0
M  V30 35652 N 3263.64 1.10553 1.1232 0
M  V30 35653 C 3264.87 0.871126 1.88218 0
M  V30 35654 C 3265.29 -0.572974 1.79161 0
M  V30 35655 O 3264.65 -1.40372 1.14741 0
M  V30 35656 C 3264.7 1.32571 3.35347 0
M  V30 35657 O 3263.8 0.491522 4.0946 0
M  V30 35658 H 3263.15 0.314526 0.584781 0
M  V30 35659 H 3265.68 1.47265 1.42036 0
M  V30 35660 H 3265.69 1.31619 3.86187 0
M  V30 35661 H 3264.36 2.37734 3.41256 0
M  V30 35662 H 3262.94 0.566359 3.68574 0
M  V30 35663 N 3265.12 -1.29758 0.894457 0
M  V30 35664 C 3266.05 -2.26876 0.325565 0
M  V30 35665 C 3267.07 -1.54096 -0.525191 0
M  V30 35666 O 3268.26 -1.7517 -0.343201 0
M  V30 35667 C 3265.36 -3.34326 -0.554893 0
M  V30 35668 C 3264.53 -4.36572 0.268945 0
M  V30 35669 C 3263.59 -5.23386 -0.543509 0
M  V30 35670 O 3262.61 -5.69188 0.0371455 0
M  V30 35671 N 3263.82 -5.50209 -1.85069 0
M  V30 35672 H 3266.58 -2.7633 1.16025 0
M  V30 35673 H 3264.14 -1.43038 0.758407 0
M  V30 35674 H 3266.13 -3.89331 -1.10469 0
M  V30 35675 H 3264.7 -2.8473 -1.29026 0
M  V30 35676 H 3263.92 -3.81301 1.00017 0
M  V30 35677 H 3265.21 -5.01929 0.833337 0
M  V30 35678 H 3264.61 -5.14796 -2.34524 0
M  V30 35679 H 3263.17 -6.0805 -2.34773 0
M  V30 35680 N 3266.6 -0.65639 -1.4328 0
M  V30 35681 C 3267.53 0.0196551 -2.33492 0
M  V30 35682 C 3268.51 0.808654 -1.49649 0
M  V30 35683 O 3269.7 0.769498 -1.78304 0
M  V30 35684 C 3266.83 0.984515 -3.33053 0
M  V30 35685 C 3265.78 0.305408 -4.26909 0
M  V30 35686 C 3265.11 1.38193 -5.16533 0
M  V30 35687 C 3266.41 -0.804172 -5.16072 0
M  V30 35688 H 3268.1 -0.733712 -2.90271 0
M  V30 35689 H 3265.65 -0.354283 -1.39574 0
M  V30 35690 H 3267.6 1.4664 -3.95063 0
M  V30 35691 H 3266.32 1.76908 -2.74538 0
M  V30 35692 H 3264.98 -0.156059 -3.66268 0
M  V30 35693 H 3264.63 2.15802 -4.54355 0
M  V30 35694 H 3264.33 0.932776 -5.80149 0
M  V30 35695 H 3265.85 1.86512 -5.81417 0
M  V30 35696 H 3267.27 -0.404312 -5.71873 0
M  V30 35697 H 3265.67 -1.17799 -5.88424 0
M  V30 35698 H 3266.74 -1.66081 -4.55571 0
M  V30 35699 N 3268.08 1.52478 -0.398513 0
M  V30 35700 C 3269.01 2.29628 0.423458 0
M  V30 35701 C 3269.99 1.33395 1.05545 0
M  V30 35702 O 3271.18 1.62296 1.06647 0
M  V30 35703 C 3268.31 3.10989 1.54607 0
M  V30 35704 C 3267.26 4.15181 1.03964 0
M  V30 35705 C 3266.59 4.84822 2.25503 0
M  V30 35706 C 3267.89 5.22202 0.101118 0
M  V30 35707 H 3269.58 2.98589 -0.220275 0
M  V30 35708 H 3267.13 1.43599 -0.10738 0
M  V30 35709 H 3269.08 3.63723 2.128 0
M  V30 35710 H 3267.8 2.39778 2.21752 0
M  V30 35711 H 3266.46 3.63442 0.480187 0
M  V30 35712 H 3266.11 4.10151 2.91179 0
M  V30 35713 H 3265.81 5.55251 1.92275 0
M  V30 35714 H 3267.33 5.40364 2.84322 0
M  V30 35715 H 3268.75 5.7024 0.591516 0
M  V30 35716 H 3267.14 5.99932 -0.141842 0
M  V30 35717 H 3268.21 4.7744 -0.8473 0
M  V30 35718 N 3269.56 0.128608 1.57074 0
M  V30 35719 C 3270.5 -0.818026 2.15817 0
M  V30 35720 C 3271.47 -1.25694 1.08583 0
M  V30 35721 O 3272.66 -1.33275 1.36538 0
M  V30 35722 C 3269.8 -2.059 2.76946 0
M  V30 35723 C 3268.91 -1.66757 3.98517 0
M  V30 35724 C 3268.05 -2.85894 4.47703 0
M  V30 35725 C 3267.09 -2.43037 5.61782 0
M  V30 35726 N 3266.22 -3.5512 6.05669 0
M  V30 35727 H 3271.06 -0.310266 2.9638 0
M  V30 35728 H 3268.6 -0.141446 1.46418 0
M  V30 35729 H 3270.56 -2.78624 3.10523 0
M  V30 35730 H 3269.19 -2.54118 1.99057 0
M  V30 35731 H 3268.24 -0.8387 3.71039 0
M  V30 35732 H 3269.55 -1.31268 4.81217 0
M  V30 35733 H 3268.71 -3.66831 4.83239 0
M  V30 35734 H 3267.45 -3.24616 3.63972 0
M  V30 35735 H 3266.45 -1.60535 5.25841 0
M  V30 35736 H 3267.68 -2.05422 6.47286 0
M  V30 35737 H 3265.62 -3.93497 5.24877 0
M  V30 35738 H 3265.54 -3.23586 6.83248 0
M  V30 35739 H 3266.81 -4.36468 6.45845 0
M  V30 35740 N 3271.04 -1.5693 -0.145178 0
M  V30 35741 C 3272.31 -1.74369 -0.886279 0
M  V30 35742 C 3272.69 -0.697116 -1.99257 0
M  V30 35743 O 3272.04 0.28364 -2.26733 0
M  V30 35744 C 3272.25 -3.1849 -1.42706 0
M  V30 35745 C 3273.6 -3.80228 -1.88975 0
M  V30 35746 O 3274.62 -3.21931 -1.52444 0
M  V30 35747 O 3273.48 -4.82645 -2.56352 0
M  V30 35748 H 3270.58 -0.713019 -0.418967 0
M  V30 35749 H 3273.12 -1.69194 -0.130961 0
M  V30 35750 H 3271.89 -3.86161 -0.632097 0
M  V30 35751 H 3271.52 -3.28098 -2.24583 0
M  V30 35752 N 3272.51 0.414582 -1.52049 0
M  V30 35753 C 3273.74 1.18845 -1.69972 0
M  V30 35754 C 3274.16 1.83664 -0.40609 0
M  V30 35755 O 3273.52 1.6978 0.635951 0
M  V30 35756 C 3273.57 2.23133 -2.83274 0
M  V30 35757 O 3272.67 3.29151 -2.48462 0
M  V30 35758 H 3272.01 0.347173 -0.566009 0
M  V30 35759 H 3274.54 0.486722 -1.98726 0
M  V30 35760 H 3274.55 2.67551 -3.08027 0
M  V30 35761 H 3273.23 1.75337 -3.77134 0
M  V30 35762 H 3271.81 2.9005 -2.34362 0
M  V30 35763 N 3273.99 1.4258 0.671475 0
M  V30 35764 C 3275.27 1.33709 1.42763 0
M  V30 35765 C 3275.65 -0.0239377 2.11086 0
M  V30 35766 O 3275 -1.03961 2.03481 0
M  V30 35767 C 3275.21 2.50761 2.42735 0
M  V30 35768 C 3276.55 2.93027 3.07279 0
M  V30 35769 O 3277.58 2.50675 2.53062 0
M  V30 35770 O 3276.44 3.66338 4.05535 0
M  V30 35771 H 3273.53 0.527474 0.636946 0
M  V30 35772 H 3276.08 1.54594 0.699919 0
M  V30 35773 H 3274.85 3.41479 1.9107 0
M  V30 35774 H 3274.47 2.3188 3.22982 0
M  V30 35775 N 3275.47 -0.908102 1.28807 0
M  V30 35776 C 3276.72 -1.65779 1.1629 0
M  V30 35777 C 3277.04 -1.92366 -0.287356 0
M  V30 35778 O 3276.3 -1.52627 -1.22488 0
M  V30 35779 C 3276.6 -3.0191 1.91272 0
M  V30 35780 C 3276.26 -2.94964 3.41039 0
M  V30 35781 C 3274.93 -2.92776 3.81884 0
M  V30 35782 C 3277.28 -2.84792 4.36512 0
M  V30 35783 C 3274.61 -2.78226 5.16534 0
M  V30 35784 C 3276.96 -2.71782 5.71242 0
M  V30 35785 C 3275.62 -2.67956 6.11356 0
M  V30 35786 H 3274.89 -0.60663 0.425537 0
M  V30 35787 H 3277.54 -1.05759 1.59647 0
M  V30 35788 H 3275.84 -3.65749 1.40481 0
M  V30 35789 H 3277.54 -3.58832 1.78999 0
M  V30 35790 H 3274.13 -2.97464 3.08566 0
M  V30 35791 H 3278.32 -2.85566 4.05914 0
M  V30 35792 H 3273.57 -2.73663 5.46735 0
M  V30 35793 H 3277.75 -2.62881 6.44877 0
M  V30 35794 H 3275.37 -2.56439 7.15642 0
M  V30 35795 N 3276.95 -1.11147 -1.11732 0
M  V30 35796 C 3278.17 -0.881095 -1.87754 0
M  V30 35797 C 3278.6 0.563465 -1.79462 0
M  V30 35798 O 3277.96 1.39761 -1.15484 0
M  V30 35799 C 3278 -1.34347 -3.34639 0
M  V30 35800 O 3277.11 -0.513229 -4.09194 0
M  V30 35801 H 3276.45 -0.317623 -0.583105 0
M  V30 35802 H 3278.98 -1.48016 -1.41253 0
M  V30 35803 H 3278.99 -1.33665 -3.85484 0
M  V30 35804 H 3277.66 -2.3954 -3.3999 0
M  V30 35805 H 3276.24 -0.585897 -3.68268 0
M  V30 35806 N 3278.43 1.29282 -0.901326 0
M  V30 35807 C 3279.67 1.95493 -0.528078 0
M  V30 35808 C 3280 1.71046 0.92594 0
M  V30 35809 O 3279.26 1.01726 1.67183 0
M  V30 35810 C 3279.55 3.49031 -0.76889 0
M  V30 35811 C 3279.22 3.93558 -2.20052 0
M  V30 35812 C 3277.88 4.05426 -2.59196 0
M  V30 35813 C 3280.23 4.16544 -3.13273 0
M  V30 35814 C 3277.56 4.37652 -3.9074 0
M  V30 35815 C 3279.91 4.50244 -4.44368 0
M  V30 35816 C 3278.58 4.60323 -4.83383 0
M  V30 35817 H 3277.85 0.71536 -0.193237 0
M  V30 35818 H 3280.5 1.53849 -1.14029 0
M  V30 35819 H 3278.8 3.91731 -0.0737685 0
M  V30 35820 H 3280.5 3.98359 -0.459454 0
M  V30 35821 H 3277.09 3.84838 -1.88673 0
M  V30 35822 H 3281.27 4.0684 -2.84245 0
M  V30 35823 H 3276.53 4.43658 -4.20687 0
M  V30 35824 H 3280.7 4.6698 -5.16626 0
M  V30 35825 H 3278.33 4.85048 -5.85348 0
M  V30 35826 N 3279.9 0.663979 1.4293 0
M  V30 35827 C 3280.84 -0.0598475 2.29122 0
M  V30 35828 C 3281.85 -0.776379 1.43095 0
M  V30 35829 O 3283.04 -0.63234 1.66924 0
M  V30 35830 C 3280.14 -1.10816 3.2027 0
M  V30 35831 C 3279.31 -0.467623 4.34893 0
M  V30 35832 C 3278.37 -1.41426 5.06838 0
M  V30 35833 O 3277.4 -0.918719 5.61737 0
M  V30 35834 N 3278.6 -2.74792 5.11341 0
M  V30 35835 H 3281.36 0.679996 2.91884 0
M  V30 35836 H 3278.92 0.50757 1.53738 0
M  V30 35837 H 3280.92 -1.74248 3.65267 0
M  V30 35838 H 3279.49 -1.74986 2.59034 0
M  V30 35839 H 3278.71 0.345999 3.92679 0
M  V30 35840 H 3279.99 -0.0209343 5.08796 0
M  V30 35841 H 3279.39 -3.17602 4.6813 0
M  V30 35842 H 3277.95 -3.33499 5.60019 0
M  V30 35843 N 3281.38 -1.52265 0.406593 0
M  V30 35844 C 3282.29 -2.3068 -0.42706 0
M  V30 35845 C 3283.31 -1.38302 -1.05587 0
M  V30 35846 O 3284.48 -1.71376 -1.05794 0
M  V30 35847 C 3281.55 -3.11113 -1.53002 0
M  V30 35848 C 3280.61 -4.19227 -0.924531 0
M  V30 35849 C 3279.84 -4.95815 -1.97493 0
M  V30 35850 O 3280.07 -4.72677 -3.19269 0
M  V30 35851 O 3279 -5.80722 -1.58258 0
M  V30 35852 H 3282.83 -3.02957 0.21224 0
M  V30 35853 H 3280.41 -1.48431 0.169861 0
M  V30 35854 H 3282.29 -3.61209 -2.17039 0
M  V30 35855 H 3280.97 -2.41632 -2.15397 0
M  V30 35856 H 3279.87 -3.73284 -0.246944 0
M  V30 35857 H 3281.21 -4.90993 -0.344544 0
M  V30 35858 N 3282.86 -0.136936 -1.57004 0
M  V30 35859 C 3284.27 0.385545 -1.82676 0
M  V30 35860 C 3284.62 1.65414 -1.05511 0
M  V30 35861 O 3283.75 2.14349 -0.297245 0
M  V30 35862 C 3284.34 0.706268 -3.31357 0
M  V30 35863 C 3282.9 1.17331 -3.57646 0
M  V30 35864 C 3282.05 0.19119 -2.7664 0
M  V30 35865 H 3285 -0.361798 -1.54521 0
M  V30 35866 H 3285.02 1.56195 -3.46963 0
M  V30 35867 H 3284.53 -0.217215 -3.87492 0
M  V30 35868 H 3282.63 2.11308 -3.06887 0
M  V30 35869 H 3282.75 1.10624 -4.66154 0
M  V30 35870 H 3281.11 0.681824 -2.45404 0
M  V30 35871 H 3281.89 -0.725706 -3.35542 0
M  V30 35872 N 3284.34 1.57005 0.136853 0
M  V30 35873 C 3285.59 1.8309 0.846225 0
M  V30 35874 C 3285.9 0.719797 1.81874 0
M  V30 35875 O 3287.11 0.86654 2.573 0
M  V30 35876 C 3285.56 3.24548 1.55553 0
M  V30 35877 C 3285.17 4.4362 0.624911 0
M  V30 35878 C 3286.91 3.59897 2.25109 0
M  V30 35879 C 3284.82 5.76102 1.33643 0
M  V30 35880 H 3283.75 0.682841 0.319756 0
M  V30 35881 H 3286.4 1.83233 0.0989419 0
M  V30 35882 H 3284.78 3.18821 2.34881 0
M  V30 35883 H 3285.96 4.60606 -0.133864 0
M  V30 35884 H 3284.27 4.16383 0.0372484 0
M  V30 35885 H 3286.87 4.56139 2.79 0
M  V30 35886 H 3287.21 2.86451 3.02079 0
M  V30 35887 H 3287.75 3.67329 1.52689 0
M  V30 35888 H 3284.49 6.52671 0.608381 0
M  V30 35889 H 3284.01 5.63035 2.06766 0
M  V30 35890 H 3285.68 6.19249 1.87456 0
M  V30 35891 N 3285.82 -0.406513 1.52267 0
M  V30 35892 C 3286.75 -1.5165 1.70521 0
M  V30 35893 C 3287.73 -1.52914 0.552825 0
M  V30 35894 O 3288.91 -1.71582 0.780498 0
M  V30 35895 C 3286.04 -2.90173 1.74692 0
M  V30 35896 C 3285.08 -3.0681 2.9626 0
M  V30 35897 S 3285.92 -2.79848 4.56558 0
M  V30 35898 C 3287.07 -4.20597 4.63518 0
M  V30 35899 H 3287.31 -1.35937 2.64402 0
M  V30 35900 H 3284.84 -0.598259 1.42338 0
M  V30 35901 H 3286.8 -3.70006 1.77779 0
M  V30 35902 H 3285.46 -3.03225 0.819344 0
M  V30 35903 H 3284.65 -4.08162 2.95668 0
M  V30 35904 H 3284.25 -2.34845 2.91073 0
M  V30 35905 H 3286.55 -5.14272 4.41056 0
M  V30 35906 H 3287.49 -4.26212 5.65464 0
M  V30 35907 H 3287.9 -4.0569 3.92525 0
M  V30 35908 N 3287.29 -1.42934 -0.663904 0
M  V30 35909 C 3288.26 -1.46946 -1.75896 0
M  V30 35910 C 3289.26 -0.355562 -1.5682 0
M  V30 35911 O 3290.45 -0.616862 -1.62912 0
M  V30 35912 C 3287.58 -1.3117 -3.14654 0
M  V30 35913 H 3288.77 -2.44459 -1.73723 0
M  V30 35914 H 3286.33 -1.29542 -0.874564 0
M  V30 35915 H 3287.06 -0.346222 -3.22447 0
M  V30 35916 H 3286.85 -2.11908 -3.29905 0
M  V30 35917 H 3288.34 -1.36885 -3.94528 0
M  V30 35918 N 3288.77 0.901258 -1.29287 0
M  V30 35919 C 3289.7 2.02168 -1.16835 0
M  V30 35920 C 3290.68 1.69983 -0.0629564 0
M  V30 35921 O 3291.87 1.92684 -0.242157 0
M  V30 35922 C 3289 3.36927 -0.842465 0
M  V30 35923 C 3287.95 3.83316 -1.90401 0
M  V30 35924 C 3287.28 5.15183 -1.43147 0
M  V30 35925 C 3288.58 4.03811 -3.31261 0
M  V30 35926 H 3290.27 2.12843 -2.10566 0
M  V30 35927 H 3287.82 1.02268 -1.01377 0
M  V30 35928 H 3289.77 4.14815 -0.742072 0
M  V30 35929 H 3288.5 3.26339 0.13054 0
M  V30 35930 H 3287.15 3.07644 -1.99376 0
M  V30 35931 H 3286.8 5.01008 -0.447179 0
M  V30 35932 H 3286.5 5.47191 -2.14139 0
M  V30 35933 H 3288.03 5.95613 -1.34454 0
M  V30 35934 H 3289.44 4.72185 -3.25137 0
M  V30 35935 H 3287.84 4.47171 -4.00197 0
M  V30 35936 H 3288.91 3.08199 -3.74355 0
M  V30 35937 N 3290.25 1.11738 1.11141 0
M  V30 35938 C 3291.67 0.851929 1.3496 0
M  V30 35939 C 3291.87 -0.521763 1.94628 0
M  V30 35940 O 3290.92 -1.27195 2.18123 0
M  V30 35941 C 3292.24 1.96252 2.27828 0
M  V30 35942 C 3293.78 1.99255 2.41385 0
M  V30 35943 C 3294.26 3.09525 3.37577 0
M  V30 35944 N 3295.75 3.0892 3.45141 0
M  V30 35945 C 3296.48 3.90884 4.19521 0
M  V30 35946 N 3295.98 4.82817 4.96849 0
M  V30 35947 N 3297.77 3.79049 4.15064 0
M  V30 35948 H 3289.92 2.00261 0.707766 0
M  V30 35949 H 3292.19 0.87104 0.374157 0
M  V30 35950 H 3291.89 2.95197 1.91184 0
M  V30 35951 H 3291.77 1.86137 3.28074 0
M  V30 35952 H 3294.15 1.00933 2.77302 0
M  V30 35953 H 3294.24 2.13444 1.4098 0
M  V30 35954 H 3293.88 4.08075 3.02386 0
M  V30 35955 H 3293.81 2.92575 4.37844 0
M  V30 35956 H 3296.3 2.42314 2.89987 0
M  V30 35957 H 3296.61 5.41886 5.50981 0
M  V30 35958 H 3294.96 4.86837 4.95999 0
M  V30 35959 H 3298.15 3.06568 3.53743 0
M  V30 35960 H 3298.32 4.43158 4.72773 0
M  V30 35961 N 3291.73 -1.28802 0.90817 0
M  V30 35962 C 3292.96 -1.99342 0.554125 0
M  V30 35963 C 3293.37 -1.6791 -0.863233 0
M  V30 35964 O 3292.73 -0.928778 -1.57099 0
M  V30 35965 C 3292.78 -3.53698 0.746978 0
M  V30 35966 O 3292.5 -3.8402 2.10856 0
M  V30 35967 C 3294 -4.41501 0.399017 0
M  V30 35968 H 3291.22 -0.636698 0.211795 0
M  V30 35969 H 3293.77 -1.64134 1.21984 0
M  V30 35970 H 3291.92 -3.87187 0.128332 0
M  V30 35971 H 3292.33 -4.78673 2.14413 0
M  V30 35972 H 3293.81 -5.48894 0.584752 0
M  V30 35973 H 3294.29 -4.34145 -0.664441 0
M  V30 35974 H 3294.89 -4.13498 0.994965 0
M  V30 35975 N 3293.21 -0.67155 -1.42576 0
M  V30 35976 C 3294.45 -0.192752 -2.01882 0
M  V30 35977 C 3294.79 1.19651 -1.52962 0
M  V30 35978 O 3294.06 1.80263 -0.730436 0
M  V30 35979 C 3294.34 -0.223798 -3.59404 0
M  V30 35980 C 3294.2 -1.64828 -4.18511 0
M  V30 35981 C 3295.52 0.429781 -4.37996 0
M  V30 35982 H 3292.63 -0.0715154 -0.733522 0
M  V30 35983 H 3295.28 -0.855718 -1.69639 0
M  V30 35984 H 3293.43 0.340708 -3.87003 0
M  V30 35985 H 3295.1 -2.26479 -4.01877 0
M  V30 35986 H 3293.34 -2.18997 -3.74463 0
M  V30 35987 H 3294.01 -1.62172 -5.2764 0
M  V30 35988 H 3296.49 -0.0507164 -4.16069 0
M  V30 35989 H 3295.36 0.377407 -5.47601 0
M  V30 35990 H 3295.63 1.50686 -4.15627 0
M  V30 35991 N 3294.68 1.52047 -0.414663 0
M  V30 35992 C 3295.93 2.01059 0.160695 0
M  V30 35993 C 3296.25 1.30446 1.45751 0
M  V30 35994 O 3297.45 1.70304 2.11445 0
M  V30 35995 C 3295.91 3.58319 0.33693 0
M  V30 35996 C 3295.52 4.37852 -0.948114 0
M  V30 35997 C 3297.26 4.15546 0.86728 0
M  V30 35998 C 3295.17 5.86768 -0.738765 0
M  V30 35999 H 3294.1 0.751293 0.0638287 0
M  V30 36000 H 3296.75 1.75345 -0.540956 0
M  V30 36001 H 3295.13 3.80385 1.10105 0
M  V30 36002 H 3296.3 4.27544 -1.7188 0
M  V30 36003 H 3294.62 3.9197 -1.40529 0
M  V30 36004 H 3297.22 5.24488 1.04003 0
M  V30 36005 H 3297.56 3.73256 1.84351 0
M  V30 36006 H 3298.09 3.9747 0.162078 0
M  V30 36007 H 3294.83 6.33427 -1.68672 0
M  V30 36008 H 3294.35 5.998 -0.00746837 0
M  V30 36009 H 3296.03 6.45865 -0.383092 0
M  V30 36010 N 3296.16 0.145261 1.56929 0
M  V30 36011 C 3297.09 -0.791224 2.19686 0
M  V30 36012 C 3298.07 -1.25831 1.14457 0
M  V30 36013 O 3299.26 -1.31619 1.42794 0
M  V30 36014 C 3296.39 -2.03119 2.81709 0
M  V30 36015 C 3295.34 -1.70094 3.92749 0
M  V30 36016 C 3294.67 -3.0134 4.417 0
M  V30 36017 C 3295.97 -0.948935 5.13607 0
M  V30 36018 H 3297.66 -0.268197 2.98196 0
M  V30 36019 H 3295.21 -0.127558 1.43434 0
M  V30 36020 H 3297.16 -2.69113 3.24278 0
M  V30 36021 H 3295.89 -2.57791 2.00527 0
M  V30 36022 H 3294.54 -1.06479 3.50796 0
M  V30 36023 H 3294.19 -3.53999 3.57342 0
M  V30 36024 H 3293.89 -2.80006 5.16595 0
M  V30 36025 H 3295.42 -3.68407 4.86938 0
M  V30 36026 H 3296.83 -1.51092 5.53032 0
M  V30 36027 H 3295.23 -0.835607 5.94254 0
M  V30 36028 H 3296.3 0.0596483 4.84863 0
M  V30 36029 N 3297.64 -1.57075 -0.128525 0
M  V30 36030 C 3298.55 -2.02929 -1.17715 0
M  V30 36031 C 3299.57 -0.947957 -1.4591 0
M  V30 36032 O 3300.74 -1.25879 -1.57215 0
M  V30 36033 C 3297.81 -2.41637 -2.48621 0
M  V30 36034 C 3296.87 -3.63808 -2.27908 0
M  V30 36035 C 3296.1 -4.0066 -3.52572 0
M  V30 36036 O 3296.33 -3.3796 -4.59499 0
M  V30 36037 O 3295.26 -4.93814 -3.44139 0
M  V30 36038 H 3299.09 -2.92482 -0.817794 0
M  V30 36039 H 3296.67 -1.45512 -0.338623 0
M  V30 36040 H 3298.55 -2.67311 -3.25765 0
M  V30 36041 H 3297.23 -1.55234 -2.8405 0
M  V30 36042 H 3296.13 -3.43297 -1.48654 0
M  V30 36043 H 3297.47 -4.50887 -1.97388 0
M  V30 36044 N 3299.12 0.398432 -1.5248 0
M  V30 36045 C 3300.37 1.14152 -1.66289 0
M  V30 36046 C 3300.68 1.91376 -0.404323 0
M  V30 36047 O 3301.89 2.68194 -0.422389 0
M  V30 36048 C 3300.34 2.0782 -2.93835 0
M  V30 36049 C 3299.95 1.36063 -4.26838 0
M  V30 36050 C 3301.7 2.82322 -3.17009 0
M  V30 36051 C 3299.6 2.28441 -5.45499 0
M  V30 36052 H 3298.53 0.42983 -0.619486 0
M  V30 36053 H 3301.18 0.405081 -1.78973 0
M  V30 36054 H 3299.57 2.85061 -2.74875 0
M  V30 36055 H 3300.74 0.641125 -4.56318 0
M  V30 36056 H 3299.05 0.735587 -4.09851 0
M  V30 36057 H 3301.65 3.51602 -4.02841 0
M  V30 36058 H 3301.99 3.45872 -2.31686 0
M  V30 36059 H 3302.53 2.12177 -3.36491 0
M  V30 36060 H 3299.27 1.69521 -6.33201 0
M  V30 36061 H 3298.79 2.98334 -5.20343 0
M  V30 36062 H 3300.47 2.88733 -5.79001 0
M  V30 36063 N 3300.6 1.43284 0.656314 0
M  V30 36064 C 3301.53 1.51007 1.78098 0
M  V30 36065 C 3302.51 0.365009 1.66138 0
M  V30 36066 O 3303.69 0.581811 1.8528 0
M  V30 36067 C 3300.82 1.42967 3.16509 0
M  V30 36068 C 3299.78 2.55691 3.43229 0
M  V30 36069 C 3299.1 2.32705 4.81407 0
M  V30 36070 C 3300.4 3.97949 3.38281 0
M  V30 36071 H 3302.1 2.4514 1.71892 0
M  V30 36072 H 3299.64 1.17986 0.825554 0
M  V30 36073 H 3301.6 1.46975 3.94938 0
M  V30 36074 H 3300.32 0.453376 3.23438 0
M  V30 36075 H 3298.98 2.51031 2.67168 0
M  V30 36076 H 3298.63 1.33325 4.85009 0
M  V30 36077 H 3298.33 3.08266 5.00246 0
M  V30 36078 H 3299.85 2.38491 5.62098 0
M  V30 36079 H 3301.27 4.04113 4.06652 0
M  V30 36080 H 3299.66 4.73511 3.68656 0
M  V30 36081 H 3300.73 4.23305 2.36518 0
M  V30 36082 N 3302.08 -0.894389 1.29763 0
M  V30 36083 C 3303.01 -2.00119 1.0967 0
M  V30 36084 C 3303.99 -1.62598 0.00702935 0
M  V30 36085 O 3305.17 -1.8783 0.158761 0
M  V30 36086 C 3302.3 -3.31994 0.670646 0
M  V30 36087 C 3301.34 -3.88501 1.7598 0
M  V30 36088 S 3302.18 -4.16954 3.3602 0
M  V30 36089 C 3303.33 -5.51862 2.95295 0
M  V30 36090 H 3303.57 -2.16856 2.03373 0
M  V30 36091 H 3301.1 -1.04164 1.1397 0
M  V30 36092 H 3303.06 -4.08225 0.431552 0
M  V30 36093 H 3301.72 -3.13128 -0.246869 0
M  V30 36094 H 3300.91 -4.83765 1.41376 0
M  V30 36095 H 3300.51 -3.18976 1.95269 0
M  V30 36096 H 3302.8 -6.32548 2.4267 0
M  V30 36097 H 3303.75 -5.91396 3.89431 0
M  V30 36098 H 3304.16 -5.13973 2.33435 0
M  V30 36099 N 3303.55 -1.12326 -1.10547 0
M  V30 36100 C 3304.46 -0.803071 -2.20427 0
M  V30 36101 C 3305.48 0.207644 -1.72757 0
M  V30 36102 O 3306.66 0.0415269 -2.01357 0
M  V30 36103 C 3303.72 -0.261093 -3.45715 0
M  V30 36104 C 3302.78 -1.33159 -4.08126 0
M  V30 36105 C 3302.01 -0.81538 -5.27435 0
M  V30 36106 O 3302.24 0.351261 -5.69317 0
M  V30 36107 O 3301.17 -1.58444 -5.80671 0
M  V30 36108 H 3305 -1.72078 -2.50246 0
M  V30 36109 H 3302.58 -0.899836 -1.19261 0
M  V30 36110 H 3304.46 0.0363266 -4.21384 0
M  V30 36111 H 3303.14 0.629193 -3.17526 0
M  V30 36112 H 3302.05 -1.68216 -3.34147 0
M  V30 36113 H 3303.38 -2.1956 -4.40516 0
M  V30 36114 N 3305.03 1.28319 -0.914988 0
M  V30 36115 C 3305.98 2.27257 -0.402832 0
M  V30 36116 C 3306.95 1.57638 0.523385 0
M  V30 36117 O 3308.13 1.85531 0.445311 0
M  V30 36118 C 3305.27 3.43322 0.349896 0
M  V30 36119 C 3304.39 4.27686 -0.608967 0
M  V30 36120 C 3303.52 5.30952 0.162332 0
M  V30 36121 C 3302.56 6.0698 -0.790066 0
M  V30 36122 N 3301.7 7.02081 -0.052206 0
M  V30 36123 H 3306.54 2.70443 -1.25157 0
M  V30 36124 H 3304.07 1.32999 -0.628467 0
M  V30 36125 H 3306.03 4.09409 0.802517 0
M  V30 36126 H 3304.66 3.01123 1.16297 0
M  V30 36127 H 3303.71 3.61632 -1.18012 0
M  V30 36128 H 3305.03 4.80537 -1.33736 0
M  V30 36129 H 3304.18 6.02928 0.675457 0
M  V30 36130 H 3302.92 4.78871 0.923767 0
M  V30 36131 H 3301.92 5.33853 -1.31456 0
M  V30 36132 H 3303.15 6.61149 -1.55108 0
M  V30 36133 H 3301.1 6.52348 0.691216 0
M  V30 36134 H 3301.01 7.5256 -0.7204 0
M  V30 36135 H 3302.28 7.78253 0.440683 0
M  V30 36136 N 3306.51 0.679102 1.42218 0
M  V30 36137 C 3307.42 0.00350043 2.346 0
M  V30 36138 C 3308.44 -0.784154 1.55329 0
M  V30 36139 O 3309.61 -0.725491 1.87879 0
M  V30 36140 C 3306.68 -0.933135 3.33906 0
M  V30 36141 C 3305.74 -0.139532 4.29073 0
M  V30 36142 C 3304.97 -1.03156 5.23636 0
M  V30 36143 O 3305.19 -2.27109 5.23238 0
M  V30 36144 O 3304.13 -0.490053 5.99902 0
M  V30 36145 H 3307.95 0.764577 2.93918 0
M  V30 36146 H 3305.54 0.439354 1.42794 0
M  V30 36147 H 3307.42 -1.4707 3.94903 0
M  V30 36148 H 3306.1 -1.67399 2.77055 0
M  V30 36149 H 3305 0.442242 3.71477 0
M  V30 36150 H 3306.34 0.5623 4.88978 0
M  V30 36151 N 3307.99 -1.51825 0.42272 0
M  V30 36152 C 3308.92 -2.23899 -0.440947 0
M  V30 36153 C 3309.9 -1.25254 -1.03683 0
M  V30 36154 O 3311.08 -1.54347 -1.0821 0
M  V30 36155 C 3308.21 -2.97812 -1.61326 0
M  V30 36156 C 3307.26 -4.10997 -1.13947 0
M  V30 36157 S 3308.09 -5.35418 -0.0934485 0
M  V30 36158 C 3309.24 -6.12864 -1.27077 0
M  V30 36159 H 3309.48 -2.96808 0.170997 0
M  V30 36160 H 3307.01 -1.53005 0.207117 0
M  V30 36161 H 3308.97 -3.40998 -2.2854 0
M  V30 36162 H 3307.63 -2.2452 -2.19658 0
M  V30 36163 H 3306.82 -4.61937 -2.0157 0
M  V30 36164 H 3306.42 -3.69996 -0.545773 0
M  V30 36165 H 3308.72 -6.41064 -2.19188 0
M  V30 36166 H 3309.66 -7.03548 -0.801628 0
M  V30 36167 H 3310.07 -5.44131 -1.50272 0
M  V30 36168 N 3309.47 -0.153581 -1.5685 0
M  V30 36169 C 3310.74 0.541295 -1.87961 0
M  V30 36170 C 3311.12 1.82521 -1.06062 0
M  V30 36171 O 3310.47 2.28011 -0.149335 0
M  V30 36172 C 3310.68 0.800382 -3.39698 0
M  V30 36173 C 3312.03 1.13825 -4.09059 0
M  V30 36174 O 3313.05 0.889517 -3.44915 0
M  V30 36175 O 3311.91 1.60664 -5.2235 0
M  V30 36176 H 3309.01 0.276881 -0.779273 0
M  V30 36177 H 3311.55 -0.190687 -1.68625 0
M  V30 36178 H 3310.32 -0.108004 -3.91151 0
M  V30 36179 H 3309.95 1.58631 -3.64585 0
M  V30 36180 N 3310.94 1.57141 0.120193 0
M  V30 36181 C 3311.89 2.01235 1.1665 0
M  V30 36182 C 3312.89 0.909079 1.42941 0
M  V30 36183 O 3314.09 1.09428 1.42918 0
M  V30 36184 H 3310.47 0.640965 0.393278 0
M  V30 36185 H 3312.44 2.88345 0.768106 0
M  V30 36186 C 3311.19 2.43156 2.48536 0
M  V30 36187 H 3310.51 3.27618 2.29143 0
M  V30 36188 H 3311.95 2.77808 3.2031 0
M  V30 36189 C 3310.41 1.29473 3.11028 0
M  V30 36190 O 3310.94 0.610052 3.97041 0
M  V30 36191 N 3309.14 1.05209 2.70886 0
M  V30 36192 H 3308.69 1.61066 2.01036 0
M  V30 36193 H 3308.65 0.293402 3.13028 0
M  V30 36194 N 3312.42 -0.39034 1.5269 0
M  V30 36195 C 3313.65 -1.16126 1.71841 0
M  V30 36196 C 3314.07 -1.82995 0.435258 0
M  V30 36197 O 3313.43 -1.70771 -0.60886 0
M  V30 36198 C 3313.48 -2.18598 2.86788 0
M  V30 36199 O 3312.58 -3.25156 2.53668 0
M  V30 36200 H 3311.92 -0.338125 0.571461 0
M  V30 36201 H 3314.45 -0.455045 1.99476 0
M  V30 36202 H 3314.46 -2.62617 3.12244 0
M  V30 36203 H 3313.14 -1.69315 3.79875 0
M  V30 36204 H 3311.72 -2.86285 2.38947 0
M  V30 36205 N 3313.9 -1.4363 -0.648706 0
M  V30 36206 C 3314.83 -1.4511 -1.77414 0
M  V30 36207 C 3315.85 -0.346646 -1.59067 0
M  V30 36208 O 3317.03 -0.611352 -1.67704 0
M  V30 36209 C 3314.13 -1.25255 -3.14904 0
M  V30 36210 C 3313.31 -2.48622 -3.59869 0
M  V30 36211 C 3312.37 -2.23925 -4.76177 0
M  V30 36212 O 3311.39 -2.97305 -4.85385 0
M  V30 36213 N 3312.59 -1.25872 -5.66689 0
M  V30 36214 H 3315.36 -2.42126 -1.76621 0
M  V30 36215 H 3312.92 -1.38844 -0.8327 0
M  V30 36216 H 3314.91 -1.06608 -3.90406 0
M  V30 36217 H 3313.48 -0.366678 -3.10442 0
M  V30 36218 H 3312.7 -2.82664 -2.74763 0
M  V30 36219 H 3313.99 -3.30714 -3.86659 0
M  V30 36220 H 3313.39 -0.652325 -5.61926 0
M  V30 36221 H 3311.95 -1.13208 -6.41893 0
M  V30 36222 N 3315.38 0.887495 -1.30236 0
M  V30 36223 C 3316.79 1.17035 -1.08512 0
M  V30 36224 C 3316.99 2.00897 0.155752 0
M  V30 36225 O 3316.05 2.3776 0.850081 0
M  V30 36226 C 3317.36 1.87947 -2.34727 0
M  V30 36227 C 3318.91 2.00722 -2.40166 0
M  V30 36228 C 3319.39 2.75045 -3.66216 0
M  V30 36229 N 3320.88 2.82592 -3.67009 0
M  V30 36230 C 3321.61 3.40668 -4.6123 0
M  V30 36231 N 3321.11 3.99813 -5.65793 0
M  V30 36232 N 3322.9 3.38459 -4.48778 0
M  V30 36233 H 3315.05 0.32826 -2.09848 0
M  V30 36234 H 3317.32 0.207964 -0.924908 0
M  V30 36235 H 3317.02 1.33768 -3.25268 0
M  V30 36236 H 3316.9 2.88346 -2.4318 0
M  V30 36237 H 3319.28 2.54072 -1.50105 0
M  V30 36238 H 3319.36 0.994176 -2.3569 0
M  V30 36239 H 3319.01 2.22368 -4.56634 0
M  V30 36240 H 3318.94 3.7672 -3.67953 0
M  V30 36241 H 3321.43 2.40597 -2.91413 0
M  V30 36242 H 3321.74 4.42186 -6.33791 0
M  V30 36243 H 3320.09 3.9824 -5.69588 0
M  V30 36244 H 3323.28 2.91479 -3.66275 0
M  V30 36245 H 3323.45 3.83424 -5.22389 0
M  V30 36246 N 3316.86 1.12911 1.0995 0
M  V30 36247 C 3317.77 0.814749 2.19998 0
M  V30 36248 C 3318.78 -0.198479 1.72864 0
M  V30 36249 O 3319.96 -0.0308478 2.01376 0
M  V30 36250 C 3317.02 0.279424 3.45572 0
M  V30 36251 C 3316.08 1.35322 4.07414 0
M  V30 36252 C 3315.32 0.84334 5.26995 0
M  V30 36253 O 3315.54 -0.321064 5.69496 0
M  V30 36254 O 3314.47 1.61522 5.79823 0
M  V30 36255 H 3318.3 1.73403 2.4933 0
M  V30 36256 H 3315.89 0.906149 1.18783 0
M  V30 36257 H 3317.77 -0.0139791 4.21398 0
M  V30 36258 H 3316.44 -0.612345 3.17855 0
M  V30 36259 H 3315.35 1.69986 3.3325 0
M  V30 36260 H 3316.68 2.21893 4.39345 0
M  V30 36261 N 3318.33 -1.27832 0.92178 0
M  V30 36262 C 3319.57 -1.96398 0.566323 0
M  V30 36263 C 3319.94 -1.70897 -0.875119 0
M  V30 36264 O 3321.14 -2.33101 -1.33855 0
M  V30 36265 C 3319.41 -3.46488 0.87639 0
M  V30 36266 S 3320.97 -4.34275 0.628557 0
M  V30 36267 H 3317.79 -0.679509 0.209258 0
M  V30 36268 H 3320.39 -1.55191 1.18895 0
M  V30 36269 H 3319.09 -3.62545 1.92326 0
M  V30 36270 H 3318.62 -3.9265 0.242727 0
M  V30 36271 H 3320.64 -4.93506 -0.516406 0
M  V30 36272 N 3319.81 -0.686634 -1.41856 0
M  V30 36273 C 3321.06 -0.210986 -2.00593 0
M  V30 36274 C 3321.37 1.19338 -1.54977 0
M  V30 36275 O 3322.58 1.76603 -2.06213 0
M  V30 36276 C 3321.04 -0.326324 -3.58418 0
M  V30 36277 C 3320.64 -1.73549 -4.13019 0
M  V30 36278 C 3322.39 0.090007 -4.24405 0
M  V30 36279 C 3320.3 -1.80296 -5.63247 0
M  V30 36280 H 3319.23 -0.0751209 -0.750249 0
M  V30 36281 H 3321.88 -0.853536 -1.62441 0
M  V30 36282 H 3320.26 0.384325 -3.94131 0
M  V30 36283 H 3321.43 -2.47418 -3.88743 0
M  V30 36284 H 3319.75 -2.10071 -3.59526 0
M  V30 36285 H 3322.34 0.05991 -5.34666 0
M  V30 36286 H 3322.69 1.12726 -4.00747 0
M  V30 36287 H 3323.22 -0.570049 -3.93694 0
M  V30 36288 H 3319.96 -2.82044 -5.91719 0
M  V30 36289 H 3319.48 -1.108 -5.89477 0
M  V30 36290 H 3321.16 -1.56178 -6.27867 0
M  V30 36291 N 3321.29 1.51599 -0.430766 0
M  V30 36292 C 3322.24 2.27583 0.383984 0
M  V30 36293 C 3323.21 1.30896 1.02251 0
M  V30 36294 O 3324.39 1.5979 1.04267 0
M  V30 36295 C 3321.53 3.11617 1.48286 0
M  V30 36296 C 3320.65 4.2329 0.863113 0
M  V30 36297 C 3319.78 4.94645 1.93648 0
M  V30 36298 C 3318.82 5.98248 1.29482 0
M  V30 36299 N 3317.96 6.63036 2.30927 0
M  V30 36300 H 3322.8 2.96771 -0.270366 0
M  V30 36301 H 3320.33 1.46382 -0.145174 0
M  V30 36302 H 3322.29 3.5866 2.13118 0
M  V30 36303 H 3320.92 2.44557 2.10693 0
M  V30 36304 H 3319.97 3.8026 0.10326 0
M  V30 36305 H 3321.29 4.97538 0.354588 0
M  V30 36306 H 3320.44 5.45202 2.66158 0
M  V30 36307 H 3319.18 4.20013 2.47872 0
M  V30 36308 H 3318.18 5.4699 0.555166 0
M  V30 36309 H 3319.41 6.74834 0.760004 0
M  V30 36310 H 3317.35 5.91221 2.84243 0
M  V30 36311 H 3317.27 7.33028 1.84948 0
M  V30 36312 H 3318.54 7.18225 3.0294 0
M  V30 36313 N 3322.77 0.161897 1.56766 0
M  V30 36314 C 3324.05 -0.531319 1.88245 0
M  V30 36315 C 3324.43 -1.81956 1.07028 0
M  V30 36316 O 3323.77 -2.27929 0.161425 0
M  V30 36317 C 3323.98 -0.782356 3.40118 0
M  V30 36318 C 3325.33 -1.11654 4.09657 0
M  V30 36319 O 3326.36 -0.871213 3.45381 0
M  V30 36320 O 3325.21 -1.57891 5.23195 0
M  V30 36321 H 3322.31 -0.272745 0.78073 0
M  V30 36322 H 3324.85 0.199627 1.68522 0
M  V30 36323 H 3323.63 0.128746 3.91088 0
M  V30 36324 H 3323.25 -1.56695 3.65421 0
M  V30 36325 N 3324.25 -1.57203 -0.111858 0
M  V30 36326 C 3325.5 -1.84413 -0.81699 0
M  V30 36327 C 3325.81 -0.74864 -1.80706 0
M  V30 36328 O 3327.01 -0.907364 -2.55889 0
M  V30 36329 C 3325.47 -3.26981 -1.50371 0
M  V30 36330 C 3325.08 -4.44558 -0.554256 0
M  V30 36331 C 3326.82 -3.63433 -2.19355 0
M  V30 36332 C 3324.73 -5.78155 -1.2446 0
M  V30 36333 H 3323.66 -0.687842 -0.308852 0
M  V30 36334 H 3326.31 -1.83367 -0.0697786 0
M  V30 36335 H 3324.69 -3.22518 -2.29779 0
M  V30 36336 H 3325.87 -4.60334 0.207126 0
M  V30 36337 H 3324.18 -4.1639 0.0289993 0
M  V30 36338 H 3326.78 -4.6052 -2.71708 0
M  V30 36339 H 3327.12 -2.91221 -2.97483 0
M  V30 36340 H 3327.65 -3.69712 -1.46826 0
M  V30 36341 H 3324.39 -6.53556 -0.504469 0
M  V30 36342 H 3323.91 -5.66253 -1.97782 0
M  V30 36343 H 3325.59 -6.22153 -1.7758 0
M  V30 36344 N 3325.72 0.382237 -1.52894 0
M  V30 36345 C 3326.65 1.47363 -1.81125 0
M  V30 36346 C 3327.64 1.56618 -0.66368 0
M  V30 36347 O 3328.82 1.71457 -0.911928 0
M  V30 36348 C 3325.95 2.84899 -1.9862 0
M  V30 36349 C 3324.9 2.9048 -3.14333 0
M  V30 36350 C 3324.23 4.3053 -3.17093 0
M  V30 36351 C 3325.53 2.59511 -4.53267 0
M  V30 36352 H 3327.22 1.23988 -2.7252 0
M  V30 36353 H 3324.77 0.595026 -1.31131 0
M  V30 36354 H 3326.72 3.61261 -2.16952 0
M  V30 36355 H 3325.45 3.09626 -1.0392 0
M  V30 36356 H 3324.11 2.16566 -2.95795 0
M  V30 36357 H 3323.75 4.52307 -2.20063 0
M  V30 36358 H 3323.45 4.35183 -3.94828 0
M  V30 36359 H 3324.98 5.08789 -3.37589 0
M  V30 36360 H 3326.39 3.2559 -4.71873 0
M  V30 36361 H 3324.79 2.75505 -5.3312 0
M  V30 36362 H 3325.86 1.54823 -4.59519 0
M  V30 36363 N 3327.2 1.43972 0.64108 0
M  V30 36364 C 3328.43 1.49694 1.42826 0
M  V30 36365 C 3328.85 0.118627 1.88427 0
M  V30 36366 O 3328.2 -0.873553 1.60235 0
M  V30 36367 C 3328.25 2.45319 2.6552 0
M  V30 36368 O 3327.98 3.77791 2.21823 0
M  V30 36369 C 3329.48 2.60406 3.58753 0
M  V30 36370 H 3326.7 0.508019 0.438358 0
M  V30 36371 H 3329.24 1.88837 0.784899 0
M  V30 36372 H 3327.4 2.09338 3.2597 0
M  V30 36373 H 3327.81 4.29327 3.01295 0
M  V30 36374 H 3329.28 3.31364 4.41477 0
M  V30 36375 H 3329.76 1.65301 4.06906 0
M  V30 36376 H 3330.37 2.97247 3.04178 0
M  V30 36377 N 3328.68 -0.880575 1.30704 0
M  V30 36378 C 3329.63 -1.98676 1.17459 0
M  V30 36379 C 3330.6 -1.65981 0.062986 0
M  V30 36380 O 3331.78 -1.8936 0.233959 0
M  V30 36381 C 3328.92 -3.33772 0.876941 0
M  V30 36382 C 3328.04 -3.7913 2.07085 0
M  V30 36383 C 3327.17 -5.02893 1.71091 0
M  V30 36384 C 3326.21 -5.40671 2.86951 0
M  V30 36385 N 3325.35 -6.55615 2.51224 0
M  V30 36386 H 3330.19 -2.09337 2.1209 0
M  V30 36387 H 3327.72 -1.02493 1.05516 0
M  V30 36388 H 3329.68 -4.11539 0.684971 0
M  V30 36389 H 3328.31 -3.22784 -0.0325066 0
M  V30 36390 H 3327.36 -2.97235 2.37393 0
M  V30 36391 H 3328.68 -4.03065 2.93837 0
M  V30 36392 H 3327.83 -5.88297 1.48294 0
M  V30 36393 H 3326.57 -4.80839 0.815149 0
M  V30 36394 H 3325.57 -4.53791 3.10409 0
M  V30 36395 H 3326.8 -5.64696 3.77221 0
M  V30 36396 H 3324.75 -6.35128 1.64158 0
M  V30 36397 H 3324.66 -6.79441 3.31506 0
M  V30 36398 H 3325.93 -7.44239 2.31795 0
M  V30 36399 N 3330.16 -1.13492 -1.09349 0
M  V30 36400 C 3331.11 -0.781777 -2.14178 0
M  V30 36401 C 3332.09 0.224547 -1.59325 0
M  V30 36402 O 3333.29 0.0283436 -1.76977 0
M  V30 36403 C 3330.41 -0.250338 -3.42386 0
M  V30 36404 C 3329.5 -1.28562 -4.04144 0
M  V30 36405 N 3329.89 -2.48678 -4.40446 0
M  V30 36406 C 3328.19 -1.13358 -4.31354 0
M  V30 36407 C 3328.89 -3.14876 -4.89109 0
M  V30 36408 N 3327.87 -2.42297 -4.86614 0
M  V30 36409 H 3331.67 -1.69565 -2.40052 0
M  V30 36410 H 3329.18 -1.01735 -1.26585 0
M  V30 36411 H 3331.18 0.0209034 -4.16895 0
M  V30 36412 H 3329.84 0.657848 -3.17966 0
M  V30 36413 H 3330.85 -2.85978 -4.31784 0
M  V30 36414 H 3327.53 -0.283623 -4.16536 0
M  V30 36415 H 3328.92 -4.17233 -5.26656 0
M  V30 36416 N 3331.64 1.27341 -0.928546 0
M  V30 36417 C 3332.57 2.29207 -0.445668 0
M  V30 36418 C 3333.55 1.62754 0.49448 0
M  V30 36419 O 3334.73 1.90056 0.399049 0
M  V30 36420 C 3331.86 3.45988 0.301624 0
M  V30 36421 C 3330.82 4.24441 -0.550769 0
M  V30 36422 C 3330.14 5.33707 0.325739 0
M  V30 36423 C 3331.44 4.89725 -1.81567 0
M  V30 36424 H 3333.14 2.69848 -1.29701 0
M  V30 36425 H 3330.68 1.29724 -0.625108 0
M  V30 36426 H 3332.64 4.16351 0.650382 0
M  V30 36427 H 3331.36 3.04266 1.18699 0
M  V30 36428 H 3330.02 3.55826 -0.882247 0
M  V30 36429 H 3329.67 4.88227 1.21009 0
M  V30 36430 H 3329.37 5.87105 -0.241097 0
M  V30 36431 H 3330.89 6.06912 0.67005 0
M  V30 36432 H 3332.31 5.5237 -1.53493 0
M  V30 36433 H 3330.7 5.53185 -2.32607 0
M  V30 36434 H 3331.77 4.13378 -2.53469 0
M  V30 36435 N 3333.12 0.694147 1.4149 0
M  V30 36436 C 3334.36 0.224845 2.0155 0
M  V30 36437 C 3334.69 -1.17202 1.54846 0
M  V30 36438 O 3333.97 -1.79079 0.759022 0
M  V30 36439 C 3334.25 0.280947 3.59002 0
M  V30 36440 C 3334.11 1.71466 4.15836 0
M  V30 36441 C 3335.42 -0.360045 4.38625 0
M  V30 36442 H 3332.54 0.0831761 0.732291 0
M  V30 36443 H 3335.19 0.882598 1.68256 0
M  V30 36444 H 3333.34 -0.279096 3.87496 0
M  V30 36445 H 3335.01 2.32844 3.98223 0
M  V30 36446 H 3333.25 2.24926 3.70932 0
M  V30 36447 H 3333.92 1.70546 5.24994 0
M  V30 36448 H 3336.4 0.116903 4.15936 0
M  V30 36449 H 3335.27 -0.29024 5.48132 0
M  V30 36450 H 3335.53 -1.44054 4.17972 0
M  V30 36451 N 3334.59 -1.51368 0.438799 0
M  V30 36452 C 3335.5 -2.31534 -0.378033 0
M  V30 36453 C 3336.52 -1.4051 -1.0263 0
M  V30 36454 O 3337.7 -1.73581 -1.02135 0
M  V30 36455 C 3334.76 -3.14288 -1.46369 0
M  V30 36456 C 3333.82 -4.21093 -0.835398 0
M  V30 36457 C 3333.05 -4.99892 -1.86932 0
M  V30 36458 O 3333.28 -4.79343 -3.09171 0
M  V30 36459 O 3332.21 -5.83948 -1.45904 0
M  V30 36460 H 3336.04 -3.02439 0.276454 0
M  V30 36461 H 3333.62 -1.48038 0.201307 0
M  V30 36462 H 3335.5 -3.65731 -2.09329 0
M  V30 36463 H 3334.18 -2.46146 -2.10223 0
M  V30 36464 H 3333.09 -3.73724 -0.167709 0
M  V30 36465 H 3334.42 -4.91613 -0.24032 0
M  V30 36466 N 3336.07 -0.170208 -1.56678 0
M  V30 36467 C 3337 0.756174 -2.20917 0
M  V30 36468 C 3337.98 1.23995 -1.16445 0
M  V30 36469 O 3339.17 1.29331 -1.4487 0
M  V30 36470 C 3336.3 1.98612 -2.84905 0
M  V30 36471 C 3335.25 1.63824 -3.95406 0
M  V30 36472 C 3334.58 2.94275 -4.46438 0
M  V30 36473 C 3335.88 0.867104 -5.15052 0
M  V30 36474 H 3337.57 0.220723 -2.98585 0
M  V30 36475 H 3335.12 0.104723 -1.43619 0
M  V30 36476 H 3337.07 2.6392 -3.28518 0
M  V30 36477 H 3335.79 2.54569 -2.04603 0
M  V30 36478 H 3334.45 1.00885 -3.52445 0
M  V30 36479 H 3334.1 3.48269 -3.62929 0
M  V30 36480 H 3333.8 2.71752 -5.20984 0
M  V30 36481 H 3335.33 3.60614 -4.92737 0
M  V30 36482 H 3336.74 1.42275 -5.55365 0
M  V30 36483 H 3335.14 0.74096 -5.95508 0
M  V30 36484 H 3336.21 -0.136778 -4.84707 0
M  V30 36485 N 3337.55 1.5726 0.10352 0
M  V30 36486 C 3338.77 1.90233 0.826207 0
M  V30 36487 C 3339.2 0.763671 1.719 0
M  V30 36488 O 3338.56 -0.285149 1.79044 0
M  V30 36489 C 3338.61 3.22031 1.62259 0
M  V30 36490 O 3337.71 3.09028 2.73086 0
M  V30 36491 H 3337.05 0.623804 0.227517 0
M  V30 36492 H 3339.58 2.04439 0.0812711 0
M  V30 36493 H 3339.59 3.55133 2.00859 0
M  V30 36494 H 3338.27 4.04495 0.967312 0
M  V30 36495 H 3336.84 2.87424 2.37575 0
M  V30 36496 N 3339.03 -0.374123 1.53095 0
M  V30 36497 C 3340.28 -1.11492 1.68084 0
M  V30 36498 C 3340.59 -1.90708 0.434718 0
M  V30 36499 O 3341.8 -2.67488 0.465003 0
M  V30 36500 C 3340.25 -2.03119 2.97104 0
M  V30 36501 C 3339.86 -1.29255 4.28949 0
M  V30 36502 C 3341.6 -2.77243 3.2146 0
M  V30 36503 C 3339.51 -2.19734 5.49064 0
M  V30 36504 H 3338.44 -0.41992 0.626246 0
M  V30 36505 H 3341.09 -0.376556 1.79595 0
M  V30 36506 H 3339.47 -2.80651 2.79376 0
M  V30 36507 H 3340.65 -0.568448 4.5728 0
M  V30 36508 H 3338.96 -0.67029 4.1097 0
M  V30 36509 H 3341.56 -3.45148 4.08383 0
M  V30 36510 H 3341.9 -3.42142 2.37159 0
M  V30 36511 H 3342.44 -2.06797 3.39824 0
M  V30 36512 H 3339.17 -1.59426 6.35817 0
M  V30 36513 H 3338.69 -2.90018 5.25024 0
M  V30 36514 H 3340.37 -2.79485 5.83521 0
M  V30 36515 N 3340.51 -1.4431 -0.633436 0
M  V30 36516 C 3341.44 -1.53822 -1.75673 0
M  V30 36517 C 3342.42 -0.391394 -1.65536 0
M  V30 36518 O 3343.6 -0.611214 -1.84331 0
M  V30 36519 C 3340.73 -1.47984 -3.14194 0
M  V30 36520 C 3339.69 -2.61119 -3.39118 0
M  V30 36521 C 3339.01 -2.40334 -4.77644 0
M  V30 36522 C 3340.31 -4.0328 -3.31907 0
M  V30 36523 H 3342.01 -2.47844 -1.6797 0
M  V30 36524 H 3339.55 -1.19284 -0.806679 0
M  V30 36525 H 3341.5 -1.5324 -3.9255 0
M  V30 36526 H 3340.23 -0.504775 -3.22676 0
M  V30 36527 H 3338.89 -2.5525 -2.63141 0
M  V30 36528 H 3338.54 -1.41025 -4.82826 0
M  V30 36529 H 3338.24 -3.16185 -4.95278 0
M  V30 36530 H 3339.76 -2.47403 -5.58233 0
M  V30 36531 H 3341.17 -4.10531 -4.00171 0
M  V30 36532 H 3339.57 -4.79316 -3.61076 0
M  V30 36533 H 3340.64 -4.27014 -2.29754 0
M  V30 36534 N 3341.98 0.873632 -1.3117 0
M  V30 36535 C 3342.95 1.96205 -1.18475 0
M  V30 36536 C 3343.95 1.60404 -0.112842 0
M  V30 36537 O 3345.14 1.70401 -0.36183 0
M  V30 36538 C 3342.27 3.30947 -0.81772 0
M  V30 36539 H 3343.46 2.08892 -2.15184 0
M  V30 36540 H 3341.02 1.06146 -1.14728 0
M  V30 36541 H 3341.75 3.2396 0.148371 0
M  V30 36542 H 3341.54 3.58304 -1.5925 0
M  V30 36543 H 3343.03 4.10761 -0.752692 0
M  V30 36544 N 3343.46 1.1407 1.08746 0
M  V30 36545 C 3344.88 0.880364 1.33123 0
M  V30 36546 C 3345.08 -0.480362 1.95691 0
M  V30 36547 O 3344.13 -1.22539 2.20772 0
M  V30 36548 C 3345.45 2.0104 2.23614 0
M  V30 36549 C 3347 2.0433 2.37104 0
M  V30 36550 C 3347.47 3.16616 3.30935 0
M  V30 36551 N 3348.96 3.16172 3.38511 0
M  V30 36552 C 3349.7 3.99694 4.11135 0
M  V30 36553 N 3349.19 4.93248 4.86496 0
M  V30 36554 N 3350.99 3.87768 4.06931 0
M  V30 36555 H 3343.14 2.01717 0.665129 0
M  V30 36556 H 3345.4 0.87878 0.355597 0
M  V30 36557 H 3345.11 2.99186 1.8488 0
M  V30 36558 H 3344.98 1.93054 3.24052 0
M  V30 36559 H 3347.37 1.06792 2.75099 0
M  V30 36560 H 3347.45 2.16387 1.3642 0
M  V30 36561 H 3347.09 4.14397 2.93662 0
M  V30 36562 H 3347.02 3.01797 4.31539 0
M  V30 36563 H 3349.51 2.4841 2.84782 0
M  V30 36564 H 3349.83 5.53451 5.39363 0
M  V30 36565 H 3348.17 4.97248 4.85561 0
M  V30 36566 H 3351.36 3.14002 3.4716 0
M  V30 36567 H 3351.53 4.53087 4.63267 0
M  V30 36568 N 3344.94 -1.26847 0.935286 0
M  V30 36569 C 3346.17 -1.98121 0.596284 0
M  V30 36570 C 3346.58 -1.69703 -0.827422 0
M  V30 36571 O 3345.94 -0.961892 -1.55093 0
M  V30 36572 C 3345.99 -3.52034 0.821835 0
M  V30 36573 O 3345.71 -3.79461 2.18954 0
M  V30 36574 C 3347.21 -4.40555 0.492576 0
M  V30 36575 H 3344.43 -0.632062 0.225253 0
M  V30 36576 H 3346.98 -1.6151 1.25438 0
M  V30 36577 H 3345.13 -3.86828 0.210431 0
M  V30 36578 H 3345.55 -4.74017 2.24518 0
M  V30 36579 H 3347.02 -5.4753 0.701049 0
M  V30 36580 H 3347.5 -4.35457 -0.572203 0
M  V30 36581 H 3348.1 -4.11294 1.08245 0
M  V30 36582 N 3346.42 -0.701641 -1.4112 0
M  V30 36583 C 3347.67 -0.235182 -2.0113 0
M  V30 36584 C 3347.99 1.16715 -1.55589 0
M  V30 36585 O 3347.25 1.80313 -0.760646 0
M  V30 36586 C 3347.55 -0.247843 -3.5654 0
M  V30 36587 C 3347.21 -1.59854 -4.21613 0
M  V30 36588 C 3345.88 -1.9683 -4.39103 0
M  V30 36589 C 3348.23 -2.48687 -4.58044 0
M  V30 36590 C 3345.56 -3.22213 -4.90301 0
M  V30 36591 C 3347.91 -3.73409 -5.10635 0
M  V30 36592 C 3346.57 -4.10521 -5.26335 0
M  V30 36593 H 3345.84 -0.0860592 -0.735986 0
M  V30 36594 H 3348.49 -0.901928 -1.68931 0
M  V30 36595 H 3346.79 0.50246 -3.88565 0
M  V30 36596 H 3348.49 0.130695 -4.00787 0
M  V30 36597 H 3345.08 -1.30096 -4.08379 0
M  V30 36598 H 3349.26 -2.21399 -4.4418 0
M  V30 36599 H 3344.52 -3.50953 -5.00641 0
M  V30 36600 H 3348.69 -4.42426 -5.37803 0
M  V30 36601 H 3346.32 -5.07748 -5.6577 0
M  V30 36602 N 3347.9 1.51133 -0.446821 0
M  V30 36603 C 3348.84 2.27978 0.359825 0
M  V30 36604 C 3349.81 1.31974 1.00857 0
M  V30 36605 O 3351 1.60887 1.02567 0
M  V30 36606 C 3348.14 3.13173 1.44972 0
M  V30 36607 C 3347.25 4.24182 0.818169 0
M  V30 36608 C 3346.39 4.96671 1.88391 0
M  V30 36609 C 3345.43 5.99588 1.2313 0
M  V30 36610 N 3344.56 6.65448 2.23882 0
M  V30 36611 H 3349.4 2.96468 -0.301827 0
M  V30 36612 H 3346.94 1.4622 -0.160692 0
M  V30 36613 H 3348.9 3.609 2.09302 0
M  V30 36614 H 3347.53 2.46778 2.08087 0
M  V30 36615 H 3346.58 3.80348 0.0629221 0
M  V30 36616 H 3347.89 4.97886 0.301798 0
M  V30 36617 H 3347.05 5.47994 2.6036 0
M  V30 36618 H 3345.78 4.22618 2.43403 0
M  V30 36619 H 3344.79 5.47548 0.497119 0
M  V30 36620 H 3346.01 6.75602 0.688386 0
M  V30 36621 H 3343.96 5.94202 2.77956 0
M  V30 36622 H 3343.88 7.34949 1.77163 0
M  V30 36623 H 3345.15 7.21398 2.95305 0
M  V30 36624 N 3349.37 0.178515 1.56586 0
M  V30 36625 C 3350.32 -0.765783 2.19633 0
M  V30 36626 C 3351.32 -1.23217 1.1625 0
M  V30 36627 O 3352.52 -1.19699 1.34433 0
M  V30 36628 H 3348.9 -0.265252 0.703666 0
M  V30 36629 H 3350.87 -0.210154 2.97659 0
M  V30 36630 C 3349.62 -1.98183 2.8569 0
M  V30 36631 H 3348.94 -1.632 3.64974 0
M  V30 36632 H 3350.38 -2.62128 3.33264 0
M  V30 36633 C 3348.84 -2.81006 1.85842 0
M  V30 36634 O 3349.37 -3.78394 1.34837 0
M  V30 36635 N 3347.58 -2.46164 1.54439 0
M  V30 36636 H 3347.12 -1.67029 1.9611 0
M  V30 36637 H 3347.08 -3.01867 0.878861 0
M  V30 36638 N 3350.85 -1.57312 -0.0951784 0
M  V30 36639 C 3352.08 -1.9029 -0.812237 0
M  V30 36640 C 3352.5 -0.772208 -1.72286 0
M  V30 36641 O 3351.85 0.25581 -1.80698 0
M  V30 36642 C 3351.9 -3.22884 -1.62566 0
M  V30 36643 O 3351.62 -4.31603 -0.751674 0
M  V30 36644 C 3353.13 -3.69724 -2.44579 0
M  V30 36645 H 3350.35 -0.629526 -0.232245 0
M  V30 36646 H 3352.89 -2.04372 -0.0724374 0
M  V30 36647 H 3351.04 -3.10401 -2.31797 0
M  V30 36648 H 3351.46 -5.07747 -1.31505 0
M  V30 36649 H 3352.93 -4.65197 -2.97146 0
M  V30 36650 H 3353.41 -2.97561 -3.23039 0
M  V30 36651 H 3354.02 -3.85075 -1.80547 0
M  V30 36652 N 3352.33 0.365999 -1.53291 0
M  V30 36653 C 3353.26 1.46842 -1.75983 0
M  V30 36654 C 3354.28 1.49667 -0.6406 0
M  V30 36655 O 3355.46 1.53154 -0.91685 0
M  V30 36656 C 3352.56 2.85608 -1.82431 0
M  V30 36657 C 3351.74 3.06485 -3.12067 0
M  V30 36658 C 3350.8 4.25363 -3.09763 0
M  V30 36659 O 3349.82 4.20557 -3.83562 0
M  V30 36660 N 3351.02 5.32753 -2.30553 0
M  V30 36661 H 3353.79 1.27755 -2.71106 0
M  V30 36662 H 3351.35 0.555718 -1.52064 0
M  V30 36663 H 3353.34 3.63273 -1.78368 0
M  V30 36664 H 3351.91 2.97944 -0.94594 0
M  V30 36665 H 3351.13 2.16483 -3.29437 0
M  V30 36666 H 3352.42 3.17301 -3.97741 0
M  V30 36667 H 3351.82 5.39519 -1.70104 0
M  V30 36668 H 3350.38 6.08996 -2.32309 0
M  V30 36669 N 3353.81 1.44644 0.625774 0
M  V30 36670 C 3354.74 1.54751 1.74855 0
M  V30 36671 C 3355.72 0.400167 1.65326 0
M  V30 36672 O 3356.9 0.620981 1.84004 0
M  V30 36673 C 3354.03 1.49648 3.13405 0
M  V30 36674 C 3352.99 2.62914 3.37728 0
M  V30 36675 C 3352.31 2.42864 4.76363 0
M  V30 36676 C 3353.61 4.05035 3.29764 0
M  V30 36677 H 3355.31 2.48731 1.66653 0
M  V30 36678 H 3352.85 1.1971 0.800342 0
M  V30 36679 H 3354.81 1.55319 3.91732 0
M  V30 36680 H 3353.53 0.52188 3.22403 0
M  V30 36681 H 3352.19 2.56642 2.61784 0
M  V30 36682 H 3351.84 1.43583 4.82071 0
M  V30 36683 H 3351.54 3.18807 4.93595 0
M  V30 36684 H 3353.06 2.5036 5.56913 0
M  V30 36685 H 3354.48 4.12648 3.97988 0
M  V30 36686 H 3352.87 4.81224 3.58529 0
M  V30 36687 H 3353.94 4.28227 2.27486 0
M  V30 36688 N 3355.29 -0.866663 1.31631 0
M  V30 36689 C 3356.7 -1.4357 1.1935 0
M  V30 36690 C 3357.05 -1.95191 -0.198731 0
M  V30 36691 O 3356.17 -1.86551 -1.09671 0
M  V30 36692 C 3356.77 -2.60967 2.1606 0
M  V30 36693 C 3355.33 -3.13906 2.07702 0
M  V30 36694 C 3354.47 -1.86623 2.05102 0
M  V30 36695 H 3357.43 -0.674903 1.43634 0
M  V30 36696 H 3357.45 -3.37758 1.75213 0
M  V30 36697 H 3356.96 -2.23366 3.17379 0
M  V30 36698 H 3355.06 -3.56119 1.0959 0
M  V30 36699 H 3355.17 -3.75964 2.96964 0
M  V30 36700 H 3353.54 -2.05724 1.50165 0
M  V30 36701 H 3354.32 -1.51256 3.08183 0
M  V30 36702 N 3356.77 -1.14645 -1.0814 0
M  V30 36703 C 3357.68 -0.849646 -2.18674 0
M  V30 36704 C 3358.69 0.170953 -1.73158 0
M  V30 36705 O 3359.87 -0.0011933 -2.014 0
M  V30 36706 C 3356.93 -0.334366 -3.45084 0
M  V30 36707 C 3355.99 -1.41786 -4.0521 0
M  V30 36708 C 3355.23 -0.927073 -5.25586 0
M  V30 36709 O 3355.45 0.230422 -5.69934 0
M  V30 36710 O 3354.38 -1.70726 -5.7718 0
M  V30 36711 H 3358.21 -1.77347 -2.46539 0
M  V30 36712 H 3355.79 -0.924931 -1.17326 0
M  V30 36713 H 3357.68 -0.0530634 -4.21367 0
M  V30 36714 H 3356.35 0.561699 -3.18789 0
M  V30 36715 H 3355.26 -1.75266 -3.30504 0
M  V30 36716 H 3356.59 -2.28855 -4.3576 0
M  V30 36717 N 3358.24 1.26349 -0.942 0
M  V30 36718 C 3359.66 1.46011 -0.644439 0
M  V30 36719 C 3359.86 1.84852 0.801999 0
M  V30 36720 O 3358.92 1.97073 1.57856 0
M  V30 36721 C 3360.23 2.54185 -1.60656 0
M  V30 36722 C 3361.78 2.68036 -1.61635 0
M  V30 36723 C 3362.25 3.79382 -2.5658 0
M  V30 36724 N 3363.74 3.86776 -2.5487 0
M  V30 36725 C 3364.48 4.72388 -3.25018 0
M  V30 36726 N 3363.97 5.62382 -4.04596 0
M  V30 36727 N 3365.77 4.66242 -3.13967 0
M  V30 36728 H 3357.92 0.99426 -1.87692 0
M  V30 36729 H 3360.18 0.498049 -0.80663 0
M  V30 36730 H 3359.89 2.32473 -2.63911 0
M  V30 36731 H 3359.76 3.51858 -1.35926 0
M  V30 36732 H 3362.15 2.89121 -0.591041 0
M  V30 36733 H 3362.23 1.70804 -1.9042 0
M  V30 36734 H 3361.87 3.59049 -3.5923 0
M  V30 36735 H 3361.8 4.76072 -2.25085 0
M  V30 36736 H 3364.29 3.22436 -1.97088 0
M  V30 36737 H 3364.61 6.24604 -4.55072 0
M  V30 36738 H 3362.95 5.62132 -4.08696 0
M  V30 36739 H 3366.14 3.94938 -2.5128 0
M  V30 36740 H 3366.32 5.32742 -3.68904 0
M  V30 36741 N 3359.72 0.709115 1.40746 0
M  V30 36742 C 3360.68 0.0612009 2.29118 0
M  V30 36743 C 3361.68 -0.694055 1.4505 0
M  V30 36744 O 3362.87 -0.526922 1.6604 0
M  V30 36745 C 3360.01 -0.92339 3.28156 0
M  V30 36746 H 3361.2 0.839464 2.87911 0
M  V30 36747 H 3358.75 0.47339 1.48959 0
M  V30 36748 H 3359.49 -1.72894 2.74369 0
M  V30 36749 H 3359.27 -0.384794 3.90207 0
M  V30 36750 H 3360.76 -1.3741 3.94345 0
M  V30 36751 N 3361.2 -1.50894 0.454829 0
M  V30 36752 C 3362.45 -2.01414 -0.107331 0
M  V30 36753 C 3362.76 -1.34264 -1.42241 0
M  V30 36754 O 3363.97 -1.7585 -2.06855 0
M  V30 36755 C 3362.42 -3.59087 -0.241809 0
M  V30 36756 C 3362.03 -4.35185 1.06387 0
M  V30 36757 C 3363.78 -4.17699 -0.7568 0
M  V30 36758 C 3361.68 -5.84603 0.894076 0
M  V30 36759 H 3360.61 -0.752722 -0.043887 0
M  V30 36760 H 3363.26 -1.73849 0.587256 0
M  V30 36761 H 3361.65 -3.83171 -0.999806 0
M  V30 36762 H 3362.82 -4.22836 1.83156 0
M  V30 36763 H 3361.13 -3.88106 1.50872 0
M  V30 36764 H 3363.73 -5.27061 -0.900605 0
M  V30 36765 H 3364.07 -3.78013 -1.7439 0
M  V30 36766 H 3364.61 -3.9776 -0.0566389 0
M  V30 36767 H 3361.35 -6.28733 1.85406 0
M  V30 36768 H 3360.87 -5.99569 0.166492 0
M  V30 36769 H 3362.55 -6.44622 0.554197 0
M  V30 36770 N 3362.68 -0.186817 -1.56489 0
M  V30 36771 C 3363.92 0.454124 -1.97342 0
M  V30 36772 C 3364.25 1.62198 -1.0734 0
M  V30 36773 O 3363.51 1.95386 -0.110735 0
M  V30 36774 C 3363.81 0.964254 -3.44147 0
M  V30 36775 C 3363.47 -0.0893527 -4.50811 0
M  V30 36776 C 3362.13 -0.378879 -4.79706 0
M  V30 36777 C 3364.49 -0.803691 -5.14966 0
M  V30 36778 C 3361.81 -1.38786 -5.70048 0
M  V30 36779 C 3364.17 -1.80177 -6.06399 0
M  V30 36780 C 3362.83 -2.09858 -6.33653 0
M  V30 36781 H 3362.1 0.166176 -0.722126 0
M  V30 36782 H 3364.75 -0.282041 -1.89412 0
M  V30 36783 H 3363.05 1.77854 -3.49106 0
M  V30 36784 H 3364.75 1.46943 -3.73107 0
M  V30 36785 H 3361.34 0.146476 -4.2835 0
M  V30 36786 H 3365.52 -0.593234 -4.92742 0
M  V30 36787 H 3360.78 -1.62383 -5.89442 0
M  V30 36788 H 3364.95 -2.36056 -6.55172 0
M  V30 36789 H 3362.58 -2.88188 -7.03457 0
M  V30 36790 N 3364.16 1.57361 0.0868344 0
M  V30 36791 C 3365.09 1.99344 1.13113 0
M  V30 36792 C 3366.1 0.897175 1.35848 0
M  V30 36793 O 3367.29 1.17522 1.34354 0
M  V30 36794 C 3364.39 2.30429 2.48507 0
M  V30 36795 C 3363.56 3.6171 2.45936 0
M  V30 36796 C 3362.62 3.80637 3.6332 0
M  V30 36797 O 3361.65 4.52398 3.45435 0
M  V30 36798 N 3362.85 3.21843 4.83112 0
M  V30 36799 H 3365.61 2.8954 0.773731 0
M  V30 36800 H 3363.18 1.59535 0.275703 0
M  V30 36801 H 3365.17 2.40277 3.25651 0
M  V30 36802 H 3363.74 1.46198 2.76306 0
M  V30 36803 H 3362.96 3.62755 1.5428 0
M  V30 36804 H 3364.25 4.47939 2.41305 0
M  V30 36805 H 3363.64 2.63569 5.00548 0
M  V30 36806 H 3362.2 3.37164 5.57821 0
M  V30 36807 N 3365.63 -0.357865 1.53483 0
M  V30 36808 C 3366.88 -1.09703 1.69257 0
M  V30 36809 C 3367.2 -1.90236 0.454921 0
M  V30 36810 O 3368.4 -2.6698 0.493347 0
M  V30 36811 C 3366.86 -1.99956 2.99242 0
M  V30 36812 C 3366.47 -1.24698 4.30296 0
M  V30 36813 C 3368.21 -2.73818 3.24383 0
M  V30 36814 C 3366.12 -2.13898 5.51364 0
M  V30 36815 H 3365.05 -0.413254 0.630664 0
M  V30 36816 H 3367.7 -0.357487 1.79984 0
M  V30 36817 H 3366.08 -2.77672 2.82337 0
M  V30 36818 H 3367.25 -0.519915 4.57858 0
M  V30 36819 H 3365.57 -0.626664 4.11657 0
M  V30 36820 H 3368.17 -3.40797 4.12021 0
M  V30 36821 H 3368.51 -3.39608 2.40775 0
M  V30 36822 H 3369.04 -2.03181 3.41998 0
M  V30 36823 H 3365.78 -1.52673 6.37473 0
M  V30 36824 H 3365.3 -2.84433 5.2807 0
M  V30 36825 H 3366.98 -2.7328 5.86453 0
M  V30 36826 N 3367.11 -1.44974 -0.618094 0
M  V30 36827 C 3368.06 -1.52841 -1.7294 0
M  V30 36828 C 3369.03 -0.375084 -1.6181 0
M  V30 36829 O 3370.21 -0.587107 -1.81543 0
M  V30 36830 C 3367.35 -1.49106 -3.11226 0
M  V30 36831 C 3366.47 -2.74912 -3.33238 0
M  V30 36832 C 3365.6 -2.6292 -4.6157 0
M  V30 36833 C 3364.64 -3.83828 -4.76804 0
M  V30 36834 N 3363.78 -3.70434 -5.96425 0
M  V30 36835 H 3368.62 -2.47784 -1.65551 0
M  V30 36836 H 3366.15 -1.22962 -0.807389 0
M  V30 36837 H 3368.11 -1.4493 -3.91218 0
M  V30 36838 H 3366.74 -0.577219 -3.17597 0
M  V30 36839 H 3365.79 -2.8922 -2.47095 0
M  V30 36840 H 3367.11 -3.64622 -3.40371 0
M  V30 36841 H 3366.26 -2.5665 -5.49741 0
M  V30 36842 H 3365 -1.70792 -4.56817 0
M  V30 36843 H 3364 -3.90468 -3.87059 0
M  V30 36844 H 3365.23 -4.77009 -4.83362 0
M  V30 36845 H 3363.18 -2.81067 -5.92737 0
M  V30 36846 H 3363.09 -4.53771 -6.04672 0
M  V30 36847 H 3364.36 -3.68079 -6.87123 0
M  V30 36848 N 3368.59 0.85967 -1.32089 0
M  V30 36849 C 3369.52 1.97426 -1.16429 0
M  V30 36850 C 3370.53 1.62489 -0.10061 0
M  V30 36851 O 3371.72 1.75053 -0.349094 0
M  V30 36852 C 3368.82 3.30294 -0.75888 0
M  V30 36853 C 3368 3.93505 -1.90978 0
M  V30 36854 C 3367.06 5.04701 -1.48874 0
M  V30 36855 O 3366.08 5.24966 -2.19999 0
M  V30 36856 N 3367.28 5.79242 -0.381922 0
M  V30 36857 H 3370.05 2.11402 -2.12437 0
M  V30 36858 H 3367.61 1.03424 -1.24559 0
M  V30 36859 H 3369.6 4.0208 -0.459714 0
M  V30 36860 H 3368.17 3.12407 0.109889 0
M  V30 36861 H 3367.39 3.14569 -2.37571 0
M  V30 36862 H 3368.68 4.32472 -2.68039 0
M  V30 36863 H 3368.08 5.65309 0.210169 0
M  V30 36864 H 3366.63 6.51645 -0.142338 0
M  V30 36865 N 3370.07 1.15217 1.0753 0
M  V30 36866 C 3371.3 0.948343 1.83548 0
M  V30 36867 C 3371.71 -0.506669 1.8229 0
M  V30 36868 O 3371.05 -1.36312 1.23145 0
M  V30 36869 C 3371.11 1.38304 3.31832 0
M  V30 36870 C 3370.77 2.85541 3.56813 0
M  V30 36871 C 3371.77 3.83614 3.50908 0
M  V30 36872 C 3369.46 3.23166 3.84537 0
M  V30 36873 C 3371.45 5.17318 3.72372 0
M  V30 36874 C 3369.14 4.57043 4.05654 0
M  V30 36875 C 3370.14 5.53928 3.99566 0
M  V30 36876 O 3369.82 6.85386 4.2012 0
M  V30 36877 H 3369.56 0.337003 0.586008 0
M  V30 36878 H 3372.11 1.53346 1.36653 0
M  V30 36879 H 3370.34 0.741311 3.79528 0
M  V30 36880 H 3372.03 1.1486 3.8931 0
M  V30 36881 H 3372.79 3.55892 3.29493 0
M  V30 36882 H 3368.67 2.48342 3.88391 0
M  V30 36883 H 3372.22 5.92927 3.67537 0
M  V30 36884 H 3368.11 4.84481 4.26554 0
M  V30 36885 H 3368.88 6.91777 4.37478 0
M  V30 36886 N 3371.55 -1.25848 0.948687 0
M  V30 36887 C 3372.49 -2.28103 0.455155 0
M  V30 36888 C 3373.49 -1.62707 -0.47148 0
M  V30 36889 O 3374.69 -1.76587 -0.348864 0
M  V30 36890 H 3371.07 -0.74091 0.128672 0
M  V30 36891 H 3373.04 -2.67123 1.32996 0
M  V30 36892 C 3371.79 -3.46747 -0.257229 0
M  V30 36893 H 3371.11 -3.97297 0.44665 0
M  V30 36894 H 3372.55 -4.20196 -0.566662 0
M  V30 36895 C 3371.01 -3.02765 -1.47767 0
M  V30 36896 O 3371.54 -3.08257 -2.57566 0
M  V30 36897 N 3369.75 -2.58022 -1.3369 0
M  V30 36898 H 3369.29 -2.53753 -0.44355 0
M  V30 36899 H 3369.25 -2.28958 -2.15466 0
M  V30 36900 N 3373.02 -0.716569 -1.40368 0
M  V30 36901 C 3374.25 -0.264765 -2.05703 0
M  V30 36902 C 3374.67 1.08525 -1.53636 0
M  V30 36903 O 3374.03 1.6838 -0.67215 0
M  V30 36904 C 3374.08 -0.255841 -3.59691 0
M  V30 36905 O 3373.18 0.762615 -4.05287 0
M  V30 36906 H 3372.53 -0.124103 -0.652299 0
M  V30 36907 H 3375.06 -0.977327 -1.79748 0
M  V30 36908 H 3375.07 -0.0938661 -4.07892 0
M  V30 36909 H 3373.74 -1.24102 -3.96953 0
M  V30 36910 H 3372.32 0.568283 -3.68544 0
M  V30 36911 N 3374.5 1.50651 -0.462825 0
M  V30 36912 C 3375.75 2.02577 0.0951497 0
M  V30 36913 C 3376.08 1.34471 1.40111 0
M  V30 36914 O 3375.36 0.467735 1.88792 0
M  V30 36915 C 3375.64 3.5895 0.28754 0
M  V30 36916 C 3375.49 4.37639 -1.03886 0
M  V30 36917 C 3376.81 4.27493 1.04585 0
M  V30 36918 H 3373.93 0.736256 0.0331061 0
M  V30 36919 H 3376.57 1.8005 -0.606803 0
M  V30 36920 H 3374.72 3.78275 0.885448 0
M  V30 36921 H 3376.39 4.29905 -1.67271 0
M  V30 36922 H 3374.64 4.01708 -1.63747 0
M  V30 36923 H 3375.31 5.45291 -0.857985 0
M  V30 36924 H 3377.78 4.12592 0.539141 0
M  V30 36925 H 3376.66 5.36734 1.14926 0
M  V30 36926 H 3376.92 3.90093 2.08038 0
M  V30 36927 N 3375.98 0.195113 1.56388 0
M  V30 36928 C 3377.21 -0.452363 2.02407 0
M  V30 36929 C 3377.63 -1.544 1.07435 0
M  V30 36930 O 3376.99 -1.81208 0.0578564 0
M  V30 36931 C 3377.04 -0.985717 3.46866 0
M  V30 36932 O 3376.14 -2.09861 3.5501 0
M  V30 36933 H 3375.48 -0.105708 0.655532 0
M  V30 36934 H 3378.01 0.305995 2.02299 0
M  V30 36935 H 3378.02 -1.30231 3.86657 0
M  V30 36936 H 3376.7 -0.186589 4.15481 0
M  V30 36937 H 3375.27 -1.79065 3.27093 0
M  V30 36938 N 3377.46 -1.57404 -0.0784879 0
M  V30 36939 C 3378.7 -1.88753 -0.784326 0
M  V30 36940 C 3379.06 -0.78811 -1.75079 0
M  V30 36941 O 3380.26 -0.984475 -2.50123 0
M  V30 36942 C 3378.53 -3.25336 -1.47957 0
M  V30 36943 S 3380.09 -3.78417 -2.22139 0
M  V30 36944 H 3376.91 -0.661376 -0.260964 0
M  V30 36945 H 3379.51 -1.95458 -0.0407052 0
M  V30 36946 H 3378.22 -4.03259 -0.762268 0
M  V30 36947 H 3377.75 -3.21812 -2.26275 0
M  V30 36948 H 3379.76 -3.53166 -3.48552 0
M  V30 36949 N 3378.94 0.34972 -1.53671 0
M  V30 36950 C 3380.18 1.0885 -1.70283 0
M  V30 36951 C 3380.51 1.89363 -0.465471 0
M  V30 36952 O 3379.78 1.88856 0.520582 0
M  V30 36953 H 3378.36 0.404843 -0.627783 0
M  V30 36954 H 3381.02 0.392489 -1.90907 0
M  V30 36955 H 3380.11 1.76937 -2.57099 0
M  V30 36956 N 3380.41 1.45299 0.610397 0
M  V30 36957 C 3381.66 1.4939 1.37151 0
M  V30 36958 C 3381.99 0.134059 1.93737 0
M  V30 36959 O 3381.27 -0.851107 1.7489 0
M  V30 36960 C 3381.55 2.57084 2.5215 0
M  V30 36961 C 3381.4 4.02502 2.00779 0
M  V30 36962 C 3382.72 2.61088 3.5429 0
M  V30 36963 H 3379.84 0.543898 0.497336 0
M  V30 36964 H 3382.48 1.77093 0.688327 0
M  V30 36965 H 3380.63 2.33592 3.1043 0
M  V30 36966 H 3382.31 4.37194 1.4717 0
M  V30 36967 H 3380.55 4.13293 1.31801 0
M  V30 36968 H 3381.22 4.73537 2.83666 0
M  V30 36969 H 3383.7 2.8213 3.05846 0
M  V30 36970 H 3382.57 3.38309 4.32248 0
M  V30 36971 H 3382.83 1.6607 4.09723 0
M  V30 36972 N 3381.89 -0.852653 1.32543 0
M  V30 36973 C 3383.12 -1.6446 1.26363 0
M  V30 36974 C 3383.54 -1.87375 -0.165047 0
M  V30 36975 O 3382.9 -1.42796 -1.1171 0
M  V30 36976 C 3382.95 -2.97994 2.03057 0
M  V30 36977 O 3382.05 -3.88635 1.37974 0
M  V30 36978 H 3381.39 -0.50132 0.435402 0
M  V30 36979 H 3383.92 -1.06183 1.7489 0
M  V30 36980 H 3383.93 -3.478 2.13306 0
M  V30 36981 H 3382.61 -2.80637 3.06946 0
M  V30 36982 H 3381.19 -3.47103 1.36286 0
M  V30 36983 N 3383.37 -1.15786 -1.06918 0
M  V30 36984 C 3384.28 -0.872791 -2.1776 0
M  V30 36985 C 3385.3 0.152577 -1.7333 0
M  V30 36986 O 3386.47 -0.0225544 -2.01387 0
M  V30 36987 C 3383.54 -0.370948 -3.4471 0
M  V30 36988 C 3382.6 -1.46076 -4.03683 0
M  V30 36989 C 3381.83 -0.982767 -5.24574 0
M  V30 36990 O 3382.05 0.16996 -5.70147 0
M  V30 36991 O 3380.99 -1.76838 -5.75336 0
M  V30 36992 H 3384.81 -1.79952 -2.44644 0
M  V30 36993 H 3382.4 -0.937323 -1.16338 0
M  V30 36994 H 3384.28 -0.097752 -4.21287 0
M  V30 36995 H 3382.96 0.527856 -3.19367 0
M  V30 36996 H 3381.86 -1.78762 -3.28626 0
M  V30 36997 H 3383.2 -2.33464 -4.33308 0
M  V30 36998 N 3384.85 1.25343 -0.955348 0
M  V30 36999 C 3386.09 1.93689 -0.620984 0
M  V30 37000 C 3386.45 1.73434 0.832964 0
M  V30 37001 O 3385.74 1.06925 1.58989 0
M  V30 37002 C 3385.94 3.45456 -0.916234 0
M  V30 37003 C 3385.77 3.80471 -2.39733 0
M  V30 37004 C 3384.54 4.02489 -3.05501 0
M  V30 37005 C 3386.73 3.87921 -3.37671 0
M  V30 37006 N 3384.72 4.24502 -4.43476 0
M  V30 37007 C 3386.09 4.14632 -4.60956 0
M  V30 37008 C 3388.14 3.70605 -3.325 0
M  V30 37009 C 3386.84 4.25827 -5.7971 0
M  V30 37010 C 3388.87 3.8304 -4.50593 0
M  V30 37011 C 3388.23 4.10164 -5.72665 0
M  V30 37012 H 3384.33 0.730971 -0.277859 0
M  V30 37013 H 3386.92 1.51117 -1.22767 0
M  V30 37014 H 3385.09 3.86922 -0.33847 0
M  V30 37015 H 3386.82 4.01058 -0.541701 0
M  V30 37016 H 3383.57 3.98403 -2.5607 0
M  V30 37017 H 3384 4.39513 -5.14934 0
M  V30 37018 H 3388.64 3.48652 -2.39169 0
M  V30 37019 H 3386.36 4.46597 -6.73481 0
M  V30 37020 H 3389.94 3.71028 -4.4814 0
M  V30 37021 H 3388.82 4.19569 -6.62519 0
M  V30 37022 N 3386.33 0.724003 1.39986 0
M  V30 37023 C 3387.26 0.0373847 2.2917 0
M  V30 37024 C 3388.27 -0.714989 1.46259 0
M  V30 37025 O 3389.46 -0.560973 1.69456 0
M  V30 37026 C 3386.56 -0.971327 3.24682 0
M  V30 37027 C 3385.73 -0.282749 4.36485 0
M  V30 37028 C 3384.79 -1.19802 5.12381 0
M  V30 37029 O 3383.82 -0.67964 5.65128 0
M  V30 37030 N 3385.02 -2.52857 5.22536 0
M  V30 37031 H 3387.79 0.803182 2.88737 0
M  V30 37032 H 3385.35 0.572319 1.51447 0
M  V30 37033 H 3387.34 -1.58599 3.72328 0
M  V30 37034 H 3385.91 -1.63842 2.66223 0
M  V30 37035 H 3385.13 0.512236 3.90858 0
M  V30 37036 H 3386.42 0.194882 5.08427 0
M  V30 37037 H 3385.82 -2.97461 4.81179 0
M  V30 37038 H 3384.37 -3.09447 5.7366 0
M  V30 37039 N 3387.81 -1.50403 0.470808 0
M  V30 37040 C 3388.74 -2.31387 -0.313417 0
M  V30 37041 C 3389.72 -1.38279 -0.990599 0
M  V30 37042 O 3390.9 -1.67199 -0.987825 0
M  V30 37043 C 3388.03 -3.18011 -1.39593 0
M  V30 37044 C 3386.99 -4.19669 -0.840369 0
M  V30 37045 C 3386.31 -4.95029 -2.02115 0
M  V30 37046 C 3387.61 -5.2209 0.148146 0
M  V30 37047 H 3389.31 -2.97198 0.362484 0
M  V30 37048 H 3386.85 -1.42923 0.175771 0
M  V30 37049 H 3388.8 -3.73462 -1.95203 0
M  V30 37050 H 3387.53 -2.50085 -2.1006 0
M  V30 37051 H 3386.19 -3.65319 -0.306238 0
M  V30 37052 H 3385.84 -4.23576 -2.71279 0
M  V30 37053 H 3385.54 -5.63793 -1.65564 0
M  V30 37054 H 3387.06 -5.53314 -2.58217 0
M  V30 37055 H 3388.47 -5.72413 -0.318774 0
M  V30 37056 H 3386.87 -5.98572 0.427916 0
M  V30 37057 H 3387.94 -4.72854 1.07413 0
M  V30 37058 N 3389.28 -0.203404 -1.56282 0
M  V30 37059 C 3390.19 0.725883 -2.23088 0
M  V30 37060 C 3391.21 1.22812 -1.23261 0
M  V30 37061 O 3392.39 1.27354 -1.56022 0
M  V30 37062 C 3389.45 1.9248 -2.88362 0
M  V30 37063 C 3388.51 1.46631 -4.03482 0
M  V30 37064 C 3387.74 2.60808 -4.65634 0
M  V30 37065 O 3387.97 3.78498 -4.26726 0
M  V30 37066 O 3386.9 2.33046 -5.54953 0
M  V30 37067 H 3390.73 0.186887 -3.03124 0
M  V30 37068 H 3388.31 0.0262567 -1.49377 0
M  V30 37069 H 3390.19 2.62533 -3.29627 0
M  V30 37070 H 3388.87 2.45224 -2.11298 0
M  V30 37071 H 3387.78 0.734331 -3.66822 0
M  V30 37072 H 3389.11 0.98545 -4.82234 0
M  V30 37073 N 3390.76 1.57444 0.0701393 0
M  V30 37074 C 3391.67 2.07159 1.10102 0
M  V30 37075 C 3392.69 1.00146 1.42291 0
M  V30 37076 O 3393.86 1.31627 1.52435 0
M  V30 37077 C 3390.93 2.50698 2.39481 0
M  V30 37078 C 3389.99 3.72016 2.14249 0
M  V30 37079 C 3389.22 4.1347 3.37459 0
M  V30 37080 O 3389.45 3.54781 4.46639 0
M  V30 37081 O 3388.38 5.06246 3.25574 0
M  V30 37082 H 3392.21 2.95316 0.708678 0
M  V30 37083 H 3389.79 1.46668 0.284384 0
M  V30 37084 H 3391.67 2.79217 3.1562 0
M  V30 37085 H 3390.35 1.65669 2.78092 0
M  V30 37086 H 3389.25 3.48578 1.3581 0
M  V30 37087 H 3390.59 4.57902 1.80517 0
M  V30 37088 N 3392.24 -0.341566 1.53854 0
M  V30 37089 C 3393.2 -1.40248 1.81282 0
M  V30 37090 C 3394.2 -1.4553 0.683941 0
M  V30 37091 O 3395.39 -1.45871 0.952228 0
M  V30 37092 C 3392.52 -2.79157 1.95663 0
M  V30 37093 H 3393.72 -1.17191 2.76055 0
M  V30 37094 H 3391.27 -0.576064 1.45297 0
M  V30 37095 H 3392.01 -3.07495 1.03039 0
M  V30 37096 H 3391.79 -2.7672 2.77793 0
M  V30 37097 H 3393.28 -3.55941 2.18393 0
M  V30 37098 N 3393.72 -1.45621 -0.602683 0
M  V30 37099 C 3394.65 -1.50681 -1.72708 0
M  V30 37100 C 3395.66 -0.397076 -1.57883 0
M  V30 37101 O 3396.85 -0.664396 -1.65674 0
M  V30 37102 C 3393.95 -1.3521 -3.1076 0
M  V30 37103 C 3393.12 -2.59945 -3.51777 0
M  V30 37104 C 3392.18 -2.3896 -4.68812 0
M  V30 37105 O 3391.21 -3.12597 -4.75681 0
M  V30 37106 N 3392.41 -1.43837 -5.62398 0
M  V30 37107 H 3395.18 -2.47622 -1.68829 0
M  V30 37108 H 3392.74 -1.41423 -0.788107 0
M  V30 37109 H 3394.73 -1.18974 -3.86817 0
M  V30 37110 H 3393.3 -0.465257 -3.09118 0
M  V30 37111 H 3392.52 -2.91262 -2.65632 0
M  V30 37112 H 3393.81 -3.42848 -3.75942 0
M  V30 37113 H 3393.21 -0.830768 -5.59567 0
M  V30 37114 H 3391.76 -1.33572 -6.37967 0
M  V30 37115 N 3395.2 0.845612 -1.32993 0
M  V30 37116 C 3396.44 1.60279 -1.24251 0
M  V30 37117 C 3396.77 1.93238 0.193015 0
M  V30 37118 O 3396.05 1.58124 1.13257 0
M  V30 37119 C 3396.33 2.91723 -2.11116 0
M  V30 37120 C 3396.19 2.65488 -3.63093 0
M  V30 37121 C 3397.5 3.93085 -1.97919 0
M  V30 37122 H 3394.62 0.58157 -0.452709 0
M  V30 37123 H 3397.27 0.975799 -1.63028 0
M  V30 37124 H 3395.42 3.45233 -1.78175 0
M  V30 37125 H 3397.09 2.18462 -4.06291 0
M  V30 37126 H 3395.33 1.993 -3.85308 0
M  V30 37127 H 3396 3.59121 -4.19209 0
M  V30 37128 H 3398.48 3.4886 -2.26794 0
M  V30 37129 H 3397.35 4.82898 -2.6096 0
M  V30 37130 H 3397.61 4.31784 -0.949453 0
M  V30 37131 N 3396.67 1.16351 1.06302 0
M  V30 37132 C 3397.92 0.944972 1.79099 0
M  V30 37133 C 3398.25 -0.527218 1.87218 0
M  V30 37134 O 3397.5 -1.40727 1.35994 0
M  V30 37135 C 3397.8 1.51746 3.23586 0
M  V30 37136 C 3397.47 3.01196 3.35547 0
M  V30 37137 C 3396.13 3.41992 3.38519 0
M  V30 37138 C 3398.48 3.9719 3.37475 0
M  V30 37139 C 3395.81 4.77402 3.41034 0
M  V30 37140 C 3398.16 5.32486 3.41528 0
M  V30 37141 C 3396.83 5.72763 3.42782 0
M  V30 37142 H 3396.1 0.34579 0.655371 0
M  V30 37143 H 3398.74 1.45065 1.25014 0
M  V30 37144 H 3397.05 0.93323 3.80523 0
M  V30 37145 H 3398.75 1.32405 3.7851 0
M  V30 37146 H 3395.34 2.68667 3.3394 0
M  V30 37147 H 3399.52 3.66738 3.3439 0
M  V30 37148 H 3394.78 5.07937 3.40308 0
M  V30 37149 H 3398.95 6.06656 3.41967 0
M  V30 37150 H 3396.58 6.77669 3.44483 0
M  V30 37151 N 3398.15 -1.24835 0.961982 0
M  V30 37152 C 3399.4 -1.93357 0.631247 0
M  V30 37153 C 3399.75 -1.73874 -0.823755 0
M  V30 37154 O 3399.05 -1.07767 -1.5842 0
M  V30 37155 C 3399.24 -3.44965 0.934541 0
M  V30 37156 C 3399.07 -3.79194 2.41748 0
M  V30 37157 C 3397.84 -4.00863 3.07631 0
M  V30 37158 C 3400.04 -3.86125 3.39724 0
M  V30 37159 N 3398.02 -4.22144 4.45721 0
M  V30 37160 C 3399.39 -4.12181 4.63148 0
M  V30 37161 C 3401.44 -3.68837 3.34461 0
M  V30 37162 C 3400.15 -4.22747 5.8196 0
M  V30 37163 C 3402.17 -3.80645 4.52618 0
M  V30 37164 C 3401.54 -4.07121 5.74832 0
M  V30 37165 H 3397.63 -0.729487 0.281732 0
M  V30 37166 H 3400.22 -1.50464 1.23567 0
M  V30 37167 H 3398.39 -3.86737 0.358985 0
M  V30 37168 H 3400.12 -4.00765 0.562962 0
M  V30 37169 H 3396.88 -3.9704 2.58179 0
M  V30 37170 H 3397.3 -4.36776 5.17258 0
M  V30 37171 H 3401.94 -3.47379 2.41014 0
M  V30 37172 H 3399.66 -4.43019 6.7584 0
M  V30 37173 H 3403.25 -3.68647 4.50101 0
M  V30 37174 H 3402.13 -4.1605 6.64735 0
M  V30 37175 N 3399.63 -0.731417 -1.396 0
M  V30 37176 C 3400.59 -0.0976439 -2.28992 0
M  V30 37177 C 3401.59 0.670891 -1.46136 0
M  V30 37178 O 3402.78 0.50044 -1.66857 0
M  V30 37179 C 3399.91 0.871066 -3.29583 0
M  V30 37180 H 3401.11 -0.885162 -2.8654 0
M  V30 37181 H 3398.66 -0.497028 -1.48187 0
M  V30 37182 H 3399.4 1.68507 -2.77085 0
M  V30 37183 H 3399.18 0.322666 -3.9077 0
M  V30 37184 H 3400.67 1.31119 -3.96481 0
M  V30 37185 N 3401.11 1.50152 -0.478778 0
M  V30 37186 C 3402.06 2.2869 0.311386 0
M  V30 37187 C 3403.03 1.34083 0.980352 0
M  V30 37188 O 3404.21 1.63027 0.991309 0
M  V30 37189 C 3401.35 3.16177 1.38297 0
M  V30 37190 C 3400.46 4.25822 0.728009 0
M  V30 37191 C 3399.6 5.00555 1.77814 0
M  V30 37192 C 3398.64 6.02065 1.10384 0
M  V30 37193 N 3397.77 6.70047 2.09716 0
M  V30 37194 H 3402.61 2.95761 -0.364644 0
M  V30 37195 H 3400.15 1.45846 -0.191671 0
M  V30 37196 H 3402.11 3.65258 2.01599 0
M  V30 37197 H 3400.74 2.51137 2.02806 0
M  V30 37198 H 3399.79 3.80396 -0.0177695 0
M  V30 37199 H 3401.1 4.98414 0.196121 0
M  V30 37200 H 3400.26 5.53393 2.48678 0
M  V30 37201 H 3399 4.27686 2.34384 0
M  V30 37202 H 3398 5.48479 0.380864 0
M  V30 37203 H 3399.23 6.7691 0.544926 0
M  V30 37204 H 3397.17 5.99964 2.6529 0
M  V30 37205 H 3397.09 7.38541 1.61533 0
M  V30 37206 H 3398.36 7.275 2.79937 0
M  V30 37207 N 3402.59 0.211689 1.56172 0
M  V30 37208 C 3403.53 -0.702476 2.1985 0
M  V30 37209 C 3404.5 -1.19761 1.15093 0
M  V30 37210 O 3405.69 -1.2585 1.4341 0
M  V30 37211 C 3402.83 -1.9093 2.87471 0
M  V30 37212 C 3401.94 -1.45398 4.06796 0
M  V30 37213 C 3401.08 -2.6176 4.62228 0
M  V30 37214 C 3400.12 -2.12916 5.73875 0
M  V30 37215 N 3399.25 -3.22515 6.23641 0
M  V30 37216 H 3404.09 -0.152725 2.97608 0
M  V30 37217 H 3401.63 -0.0636338 1.46962 0
M  V30 37218 H 3403.59 -2.61772 3.24856 0
M  V30 37219 H 3402.22 -2.43209 2.12248 0
M  V30 37220 H 3401.27 -0.640842 3.74963 0
M  V30 37221 H 3402.58 -1.05576 4.87499 0
M  V30 37222 H 3401.74 -3.407 5.02005 0
M  V30 37223 H 3400.47 -3.04866 3.80668 0
M  V30 37224 H 3399.48 -1.32436 5.33611 0
M  V30 37225 H 3400.7 -1.70822 6.57265 0
M  V30 37226 H 3398.65 -3.65121 5.44998 0
M  V30 37227 H 3398.57 -2.86914 6.9944 0
M  V30 37228 H 3399.84 -4.01619 6.68073 0
M  V30 37229 N 3404.06 -1.57479 -0.0617887 0
M  V30 37230 C 3404.97 -2.0774 -1.09002 0
M  V30 37231 C 3405.99 -1.00899 -1.41758 0
M  V30 37232 O 3407.17 -1.32433 -1.51735 0
M  V30 37233 C 3404.23 -2.51965 -2.38149 0
M  V30 37234 C 3403.29 -3.73147 -2.12273 0
M  V30 37235 C 3402.53 -4.15254 -3.35261 0
M  V30 37236 O 3402.75 -3.57145 -4.44751 0
M  V30 37237 O 3401.68 -5.07966 -3.22885 0
M  V30 37238 H 3405.51 -2.95688 -0.693007 0
M  V30 37239 H 3403.09 -1.46817 -0.276602 0
M  V30 37240 H 3404.98 -2.80887 -3.14134 0
M  V30 37241 H 3403.65 -1.67142 -2.7721 0
M  V30 37242 H 3402.56 -3.49293 -1.3396 0
M  V30 37243 H 3403.89 -4.58853 -1.78086 0
M  V30 37244 N 3405.54 0.333401 -1.54033 0
M  V30 37245 C 3406.47 1.43076 -1.79058 0
M  V30 37246 C 3407.49 1.48274 -0.672202 0
M  V30 37247 O 3408.68 1.51175 -0.94913 0
M  V30 37248 C 3405.78 2.81674 -1.88448 0
M  V30 37249 C 3404.95 2.99796 -3.18498 0
M  V30 37250 C 3404.01 4.18696 -3.18716 0
M  V30 37251 O 3403.03 4.12327 -3.92397 0
M  V30 37252 N 3404.24 5.27743 -2.41802 0
M  V30 37253 H 3407 1.21976 -2.73755 0
M  V30 37254 H 3404.56 0.523338 -1.53208 0
M  V30 37255 H 3406.55 3.59408 -1.86033 0
M  V30 37256 H 3405.12 2.95871 -1.00893 0
M  V30 37257 H 3404.34 2.09447 -3.33955 0
M  V30 37258 H 3405.63 3.08793 -4.04381 0
M  V30 37259 H 3405.03 5.3579 -1.8151 0
M  V30 37260 H 3403.59 6.03931 -2.45174 0
M  V30 37261 N 3407.02 1.45939 0.594952 0
M  V30 37262 C 3408.25 1.54396 1.38479 0
M  V30 37263 C 3408.67 0.181596 1.87221 0
M  V30 37264 O 3408.03 -0.836091 1.6087 0
M  V30 37265 C 3408.08 2.54292 2.55672 0
M  V30 37266 O 3407.18 2.06947 3.56716 0
M  V30 37267 H 3406.52 0.520002 0.412909 0
M  V30 37268 H 3409.05 1.91405 0.722865 0
M  V30 37269 H 3409.06 2.73507 3.02751 0
M  V30 37270 H 3407.74 3.53232 2.19546 0
M  V30 37271 H 3406.31 1.97666 3.162 0
M  V30 37272 N 3408.5 -0.838547 1.3344 0
M  V30 37273 C 3409.43 -1.96363 1.26348 0
M  V30 37274 C 3410.41 -1.69489 0.143986 0
M  V30 37275 O 3411.59 -1.9131 0.333813 0
M  V30 37276 C 3408.72 -3.32524 1.00226 0
M  V30 37277 C 3407.68 -3.73796 2.08472 0
M  V30 37278 C 3407 -5.07766 1.67564 0
M  V30 37279 C 3408.3 -3.87546 3.50151 0
M  V30 37280 H 3410 -2.02555 2.20481 0
M  V30 37281 H 3407.54 -0.973149 1.0614 0
M  V30 37282 H 3409.5 -4.10802 0.93914 0
M  V30 37283 H 3408.22 -3.2659 0.0253088 0
M  V30 37284 H 3406.88 -2.97781 2.13827 0
M  V30 37285 H 3406.53 -4.98304 0.685707 0
M  V30 37286 H 3406.23 -5.36351 2.40002 0
M  V30 37287 H 3407.75 -5.88519 1.62719 0
M  V30 37288 H 3409.17 -4.56135 3.47295 0
M  V30 37289 H 3407.56 -4.27568 4.21077 0
M  V30 37290 H 3408.63 -2.89987 3.88633 0
M  V30 37291 N 3409.98 -1.16914 -1.05683 0
M  V30 37292 C 3410.94 -0.883684 -2.1148 0
M  V30 37293 C 3411.94 0.124005 -1.60321 0
M  V30 37294 O 3413.13 -0.107597 -1.73867 0
M  V30 37295 C 3410.26 -0.322708 -3.39369 0
M  V30 37296 H 3411.45 -1.82165 -2.38235 0
M  V30 37297 H 3409.01 -0.978916 -1.21848 0
M  V30 37298 H 3409.74 0.622639 -3.18267 0
M  V30 37299 H 3409.53 -1.0489 -3.7781 0
M  V30 37300 H 3411.02 -0.141145 -4.17361 0
M  V30 37301 N 3411.45 1.24323 -0.968589 0
M  V30 37302 C 3412.38 2.27674 -0.518363 0
M  V30 37303 C 3413.37 1.64245 0.44245 0
M  V30 37304 O 3414.55 1.91229 0.338382 0
M  V30 37305 C 3411.68 3.46772 0.191398 0
M  V30 37306 C 3410.63 4.22474 -0.685523 0
M  V30 37307 C 3409.96 5.34473 0.155779 0
M  V30 37308 C 3411.26 4.83701 -1.97055 0
M  V30 37309 H 3412.95 2.65585 -1.3822 0
M  V30 37310 H 3410.5 1.2767 -0.666063 0
M  V30 37311 H 3412.45 4.18209 0.517594 0
M  V30 37312 H 3411.18 3.07889 1.08959 0
M  V30 37313 H 3409.84 3.52839 -0.995004 0
M  V30 37314 H 3409.48 4.9183 1.05415 0
M  V30 37315 H 3409.18 5.86041 -0.427758 0
M  V30 37316 H 3410.71 6.08737 0.476626 0
M  V30 37317 H 3412.12 5.47207 -1.70988 0
M  V30 37318 H 3410.52 5.45505 -2.50089 0
M  V30 37319 H 3411.59 4.05105 -2.66492 0
M  V30 37320 N 3412.93 0.73881 1.3921 0
M  V30 37321 C 3414.16 0.297457 2.05256 0
M  V30 37322 C 3414.58 -1.06067 1.55343 0
M  V30 37323 O 3413.94 -1.67289 0.698853 0
M  V30 37324 C 3413.99 0.313033 3.59239 0
M  V30 37325 O 3413.09 -0.69804 4.06449 0
M  V30 37326 H 3412.43 0.134465 0.650242 0
M  V30 37327 H 3414.96 1.0058 1.78171 0
M  V30 37328 H 3414.97 0.158746 4.07691 0
M  V30 37329 H 3413.65 1.30401 3.94928 0
M  V30 37330 H 3412.23 -0.509578 3.69402 0
M  V30 37331 N 3414.41 -1.49895 0.486734 0
M  V30 37332 C 3415.66 -2.01597 -0.0645843 0
M  V30 37333 C 3415.97 -1.37251 -1.39361 0
M  V30 37334 O 3417.18 -1.80198 -2.03079 0
M  V30 37335 C 3415.63 -3.59519 -0.165587 0
M  V30 37336 C 3415.24 -4.3283 1.15594 0
M  V30 37337 C 3416.99 -4.19211 -0.66803 0
M  V30 37338 C 3414.89 -5.82575 1.01788 0
M  V30 37339 H 3413.82 -0.753483 -0.0279108 0
M  V30 37340 H 3416.47 -1.72564 0.623999 0
M  V30 37341 H 3414.86 -3.85205 -0.918305 0
M  V30 37342 H 3416.03 -4.18856 1.92083 0
M  V30 37343 H 3414.35 -3.84819 1.59071 0
M  V30 37344 H 3416.94 -5.28853 -0.788605 0
M  V30 37345 H 3417.29 -3.81627 -1.66332 0
M  V30 37346 H 3417.82 -3.9779 0.0277446 0
M  V30 37347 H 3414.56 -6.24658 1.98701 0
M  V30 37348 H 3414.08 -5.99081 0.293632 0
M  V30 37349 H 3415.76 -6.43302 0.690806 0
M  V30 37350 N 3415.89 -0.219968 -1.56057 0
M  V30 37351 C 3416.82 0.685508 -2.23211 0
M  V30 37352 C 3417.8 1.20227 -1.2033 0
M  V30 37353 O 3418.99 1.24656 -1.48911 0
M  V30 37354 C 3416.12 1.89447 -2.91079 0
M  V30 37355 C 3415.07 1.51161 -4.00418 0
M  V30 37356 C 3414.4 2.79922 -4.55574 0
M  V30 37357 C 3415.7 0.702805 -5.1755 0
M  V30 37358 H 3417.39 0.125619 -2.99136 0
M  V30 37359 H 3414.94 0.058979 -1.43879 0
M  V30 37360 H 3416.89 2.53335 -3.36748 0
M  V30 37361 H 3415.61 2.4793 -2.12598 0
M  V30 37362 H 3414.27 0.896213 -3.55477 0
M  V30 37363 H 3413.92 3.36547 -3.73825 0
M  V30 37364 H 3413.62 2.5504 -5.29366 0
M  V30 37365 H 3415.14 3.44755 -5.03961 0
M  V30 37366 H 3416.56 1.24534 -5.59611 0
M  V30 37367 H 3414.95 0.551129 -5.97564 0
M  V30 37368 H 3416.02 -0.290915 -4.84027 0
M  V30 37369 N 3417.37 1.57509 0.0534363 0
M  V30 37370 C 3418.31 2.0494 1.06151 0
M  V30 37371 C 3419.28 0.933594 1.3738 0
M  V30 37372 O 3420.47 1.20253 1.48135 0
M  V30 37373 C 3417.61 2.51347 2.36471 0
M  V30 37374 C 3416.72 3.76622 2.11613 0
M  V30 37375 C 3415.86 4.11737 3.35628 0
M  V30 37376 C 3414.9 5.29998 3.06216 0
M  V30 37377 N 3414.03 5.60662 4.22613 0
M  V30 37378 H 3418.87 2.90823 0.650071 0
M  V30 37379 H 3416.41 1.43809 0.309396 0
M  V30 37380 H 3418.37 2.76311 3.12583 0
M  V30 37381 H 3417 1.68416 2.75383 0
M  V30 37382 H 3416.05 3.58888 1.2611 0
M  V30 37383 H 3417.36 4.62863 1.85901 0
M  V30 37384 H 3416.52 4.37699 4.20124 0
M  V30 37385 H 3415.26 3.24098 3.64433 0
M  V30 37386 H 3414.26 5.03813 2.20119 0
M  V30 37387 H 3415.49 6.19269 2.78715 0
M  V30 37388 H 3413.43 4.75983 4.51415 0
M  V30 37389 H 3413.35 6.41362 4.00239 0
M  V30 37390 H 3414.62 5.91187 5.08053 0
M  V30 37391 N 3418.85 -0.325228 1.54208 0
M  V30 37392 C 3419.78 -1.42124 1.79815 0
M  V30 37393 C 3420.79 -1.47916 0.680056 0
M  V30 37394 O 3421.98 -1.50669 0.957134 0
M  V30 37395 C 3419.08 -2.80671 1.8994 0
M  V30 37396 C 3418.25 -2.98103 3.20084 0
M  V30 37397 C 3417.31 -4.17 3.20932 0
M  V30 37398 O 3416.34 -4.1024 3.94578 0
M  V30 37399 N 3417.54 -5.26453 2.44597 0
M  V30 37400 H 3420.3 -1.20522 2.74398 0
M  V30 37401 H 3417.87 -0.515206 1.53484 0
M  V30 37402 H 3419.86 -3.58416 1.87937 0
M  V30 37403 H 3418.43 -2.95331 1.0246 0
M  V30 37404 H 3417.65 -2.07673 3.35061 0
M  V30 37405 H 3418.94 -3.06644 4.06013 0
M  V30 37406 H 3418.33 -5.3482 1.84349 0
M  V30 37407 H 3416.89 -6.02623 2.48373 0
M  V30 37408 N 3420.32 -1.46252 -0.587204 0
M  V30 37409 C 3421.26 -1.50985 -1.7111 0
M  V30 37410 C 3422.23 -0.36435 -1.58465 0
M  V30 37411 O 3423.42 -0.567844 -1.79744 0
M  V30 37412 C 3420.55 -1.38416 -3.09125 0
M  V30 37413 C 3419.59 -2.57091 -3.40304 0
M  V30 37414 S 3420.42 -4.1947 -3.32874 0
M  V30 37415 C 3421.58 -4.09403 -4.73434 0
M  V30 37416 H 3421.81 -2.46075 -1.66836 0
M  V30 37417 H 3419.35 -1.34083 -0.765575 0
M  V30 37418 H 3421.3 -1.31853 -3.88748 0
M  V30 37419 H 3419.97 -0.447622 -3.10894 0
M  V30 37420 H 3419.16 -2.44278 -4.40845 0
M  V30 37421 H 3418.76 -2.60622 -2.68239 0
M  V30 37422 H 3421.05 -3.75806 -5.63716 0
M  V30 37423 H 3422 -5.09927 -4.91304 0
M  V30 37424 H 3422.4 -3.40727 -4.50073 0
M  V30 37425 N 3421.8 0.831459 -1.33883 0
M  V30 37426 C 3423.05 1.58215 -1.25103 0
M  V30 37427 C 3423.36 1.94774 0.179596 0
M  V30 37428 O 3424.57 2.68692 0.389469 0
M  V30 37429 C 3423.03 2.85406 -2.19251 0
M  V30 37430 C 3422.63 2.56183 -3.67524 0
M  V30 37431 C 3424.38 3.63429 -2.19361 0
M  V30 37432 C 3422.28 3.79515 -4.53566 0
M  V30 37433 H 3421.21 0.593776 -0.4647 0
M  V30 37434 H 3423.87 0.916141 -1.58994 0
M  V30 37435 H 3422.25 3.53588 -1.78302 0
M  V30 37436 H 3423.42 1.96166 -4.1696 0
M  V30 37437 H 3421.74 1.91451 -3.69778 0
M  V30 37438 H 3424.33 4.5499 -2.80871 0
M  V30 37439 H 3424.68 3.98911 -1.19063 0
M  V30 37440 H 3425.21 3.02181 -2.58711 0
M  V30 37441 H 3421.95 3.4916 -5.54768 0
M  V30 37442 H 3421.47 4.38846 -4.0887 0
M  V30 37443 H 3423.15 4.47017 -4.67744 0
M  V30 37444 N 3423.28 1.17472 1.05062 0
M  V30 37445 C 3424.23 0.892628 2.1284 0
M  V30 37446 C 3425.2 -0.163991 1.65288 0
M  V30 37447 O 3426.38 -0.0265035 1.90782 0
M  V30 37448 C 3423.52 0.4135 3.42614 0
M  V30 37449 C 3422.63 1.53439 4.03832 0
M  V30 37450 C 3421.77 1.009 5.21529 0
M  V30 37451 C 3420.81 2.10525 5.74757 0
M  V30 37452 N 3419.95 1.59454 6.83754 0
M  V30 37453 H 3424.79 1.81555 2.36309 0
M  V30 37454 H 3422.32 0.905503 1.15927 0
M  V30 37455 H 3424.28 0.117255 4.17035 0
M  V30 37456 H 3422.91 -0.472461 3.19324 0
M  V30 37457 H 3421.96 1.94633 3.26836 0
M  V30 37458 H 3423.27 2.36115 4.39376 0
M  V30 37459 H 3422.43 0.666681 6.03026 0
M  V30 37460 H 3421.17 0.151693 4.87464 0
M  V30 37461 H 3420.17 2.45613 4.91888 0
M  V30 37462 H 3421.4 2.96674 6.10869 0
M  V30 37463 H 3419.34 0.759964 6.51583 0
M  V30 37464 H 3419.26 2.35737 7.18307 0
M  V30 37465 H 3420.53 1.28118 7.68899 0
M  V30 37466 N 3424.76 -1.23807 0.975168 0
M  V30 37467 C 3425.7 -2.25077 0.510801 0
M  V30 37468 C 3426.67 -1.59956 -0.447577 0
M  V30 37469 O 3427.86 -1.87444 -0.356285 0
M  V30 37470 C 3425 -3.446 -0.185694 0
M  V30 37471 C 3424.11 -4.24294 0.812329 0
M  V30 37472 C 3423.25 -5.31122 0.0911769 0
M  V30 37473 C 3422.29 -6.02519 1.07876 0
M  V30 37474 N 3421.42 -7.01032 0.387118 0
M  V30 37475 H 3426.26 -2.64164 1.37918 0
M  V30 37476 H 3423.8 -1.29849 0.691207 0
M  V30 37477 H 3425.76 -4.12771 -0.606269 0
M  V30 37478 H 3424.39 -3.06328 -1.01798 0
M  V30 37479 H 3423.44 -3.55589 1.35131 0
M  V30 37480 H 3424.75 -4.73609 1.5651 0
M  V30 37481 H 3423.91 -6.05464 -0.387023 0
M  V30 37482 H 3422.65 -4.82733 -0.694239 0
M  V30 37483 H 3421.65 -5.26974 1.56777 0
M  V30 37484 H 3422.88 -6.52996 1.86475 0
M  V30 37485 H 3420.82 -6.54903 -0.379185 0
M  V30 37486 H 3420.74 -7.48266 1.07864 0
M  V30 37487 H 3422.01 -7.7947 -0.0688666 0
M  V30 37488 N 3426.24 -0.746182 -1.38816 0
M  V30 37489 C 3427.17 -0.128877 -2.33144 0
M  V30 37490 C 3428.15 0.711846 -1.54489 0
M  V30 37491 O 3429.33 0.654545 -1.82837 0
M  V30 37492 C 3426.46 0.770712 -3.3864 0
M  V30 37493 C 3425.42 0.0332917 -4.27987 0
M  V30 37494 C 3424.74 1.05064 -5.24276 0
M  V30 37495 C 3426.04 -1.13075 -5.09913 0
M  V30 37496 H 3427.74 -0.916828 -2.85017 0
M  V30 37497 H 3425.28 -0.44233 -1.37038 0
M  V30 37498 H 3427.23 1.21218 -4.03589 0
M  V30 37499 H 3425.96 1.5909 -2.85233 0
M  V30 37500 H 3424.62 -0.388676 -3.64534 0
M  V30 37501 H 3424.27 1.8647 -4.6716 0
M  V30 37502 H 3423.97 0.561934 -5.84907 0
M  V30 37503 H 3425.49 1.49158 -5.92102 0
M  V30 37504 H 3426.9 -0.767183 -5.68144 0
M  V30 37505 H 3425.3 -1.54982 -5.79742 0
M  V30 37506 H 3426.37 -1.94717 -4.44087 0
M  V30 37507 N 3427.71 1.49635 -0.494676 0
M  V30 37508 C 3428.99 1.95263 0.114795 0
M  V30 37509 C 3429.37 1.43596 1.54736 0
M  V30 37510 O 3428.72 0.646992 2.19149 0
M  V30 37511 C 3428.93 3.48984 0.0339299 0
M  V30 37512 C 3430.28 4.24075 0.211033 0
M  V30 37513 O 3431.3 3.56032 0.109415 0
M  V30 37514 O 3430.16 5.44892 0.418875 0
M  V30 37515 H 3427.25 0.82108 0.0987739 0
M  V30 37516 H 3429.8 1.60307 -0.556764 0
M  V30 37517 H 3428.57 3.79205 -0.965353 0
M  V30 37518 H 3428.19 3.90541 0.745913 0
M  V30 37519 N 3429.19 0.228241 1.55939 0
M  V30 37520 C 3430.15 -0.665643 2.19321 0
M  V30 37521 C 3431.15 -1.11669 1.15701 0
M  V30 37522 O 3432.34 -1.02441 1.40895 0
M  V30 37523 C 3429.48 -1.91265 2.82189 0
M  V30 37524 H 3430.67 -0.112933 2.99687 0
M  V30 37525 H 3428.22 -0.0213591 1.56285 0
M  V30 37526 H 3428.96 -2.50706 2.0571 0
M  V30 37527 H 3428.74 -1.59763 3.58076 0
M  V30 37528 H 3430.23 -2.54936 3.30753 0
M  V30 37529 N 3430.67 -1.57536 -0.0450825 0
M  V30 37530 C 3431.9 -1.93168 -0.755034 0
M  V30 37531 C 3432.32 -0.826944 -1.68947 0
M  V30 37532 O 3431.68 0.218502 -1.79978 0
M  V30 37533 C 3431.73 -3.27832 -1.50196 0
M  V30 37534 O 3430.83 -3.1895 -2.61428 0
M  V30 37535 H 3430.17 -0.631819 -0.204208 0
M  V30 37536 H 3432.7 -2.04599 -0.00533908 0
M  V30 37537 H 3432.71 -3.62343 -1.8754 0
M  V30 37538 H 3431.39 -4.07806 -0.81652 0
M  V30 37539 H 3429.96 -2.96043 -2.26744 0
M  V30 37540 N 3432.15 0.317045 -1.54378 0
M  V30 37541 C 3433.39 1.06236 -1.74623 0
M  V30 37542 C 3433.75 1.85032 -0.512574 0
M  V30 37543 O 3434.95 2.62189 -0.592484 0
M  V30 37544 C 3433.22 1.9573 -2.99039 0
M  V30 37545 S 3434.78 2.77125 -3.40216 0
M  V30 37546 H 3431.6 0.358546 -0.613975 0
M  V30 37547 H 3434.2 0.337596 -1.92563 0
M  V30 37548 H 3432.91 1.3669 -3.86968 0
M  V30 37549 H 3432.44 2.72601 -2.83641 0
M  V30 37550 H 3434.45 3.98224 -2.96027 0
M  V30 37551 N 3433.63 1.46561 0.57944 0
M  V30 37552 C 3434.59 1.56951 1.6703 0
M  V30 37553 C 3435.59 0.446388 1.5448 0
M  V30 37554 O 3436.78 0.710795 1.59039 0
M  V30 37555 C 3433.91 1.49292 3.06472 0
M  V30 37556 H 3435.1 2.54172 1.59175 0
M  V30 37557 H 3432.66 1.3442 0.79755 0
M  V30 37558 H 3433.39 0.533628 3.1988 0
M  V30 37559 H 3433.18 2.30782 3.16989 0
M  V30 37560 H 3434.67 1.59654 3.85876 0
M  V30 37561 N 3435.1 -0.824347 1.34322 0
M  V30 37562 C 3436.07 -1.91673 1.25675 0
M  V30 37563 C 3437.07 -1.59874 0.172297 0
M  V30 37564 O 3438.26 -1.6894 0.424824 0
M  V30 37565 C 3435.39 -3.27684 0.939986 0
M  V30 37566 H 3436.58 -2.00762 2.22788 0
M  V30 37567 H 3434.14 -1.01815 1.18589 0
M  V30 37568 H 3434.87 -3.24288 -0.0280328 0
M  V30 37569 H 3434.66 -3.52147 1.72438 0
M  V30 37570 H 3436.15 -4.07684 0.904625 0
M  V30 37571 N 3436.58 -1.18028 -1.04437 0
M  V30 37572 C 3437.53 -0.90024 -2.14472 0
M  V30 37573 C 3438.52 0.138057 -1.68837 0
M  V30 37574 O 3439.73 -0.00974175 -1.79997 0
M  V30 37575 H 3436.11 -0.273625 -0.700452 0
M  V30 37576 H 3438.08 -1.83522 -2.35292 0
M  V30 37577 C 3436.83 -0.438365 -3.44926 0
M  V30 37578 H 3436.15 -1.2288 -3.80448 0
M  V30 37579 H 3437.59 -0.28138 -4.23065 0
M  V30 37580 C 3436.05 0.84521 -3.26125 0
M  V30 37581 O 3436.58 1.91028 -3.53371 0
M  V30 37582 N 3434.78 0.796351 -2.79476 0
M  V30 37583 H 3434.33 -0.0706048 -2.57503 0
M  V30 37584 H 3434.29 1.65561 -2.67277 0
M  V30 37585 N 3438.06 1.23288 -0.98172 0
M  V30 37586 C 3439.01 2.26816 -0.515472 0
M  V30 37587 C 3440 1.63899 0.428175 0
M  V30 37588 O 3441.21 1.7745 0.301923 0
M  V30 37589 H 3437.58 0.737238 -0.14827 0
M  V30 37590 H 3439.55 2.63503 -1.40031 0
M  V30 37591 C 3438.3 3.47307 0.165205 0
M  V30 37592 H 3437.63 3.95973 -0.551829 0
M  V30 37593 H 3439.07 4.21551 0.455056 0
M  V30 37594 C 3437.53 3.06576 1.39687 0
M  V30 37595 O 3438.06 3.14978 2.49303 0
M  V30 37596 N 3436.26 2.61476 1.26802 0
M  V30 37597 H 3435.81 2.54839 0.376116 0
M  V30 37598 H 3435.77 2.3459 2.0932 0
M  V30 37599 N 3439.54 0.753533 1.38418 0
M  V30 37600 C 3440.95 0.377363 1.82847 0
M  V30 37601 C 3441.3 -1.09398 1.62869 0
M  V30 37602 O 3440.43 -1.84563 1.12984 0
M  V30 37603 C 3441.02 0.678154 3.31944 0
M  V30 37604 C 3439.58 0.355262 3.7472 0
M  V30 37605 C 3438.73 0.931357 2.61192 0
M  V30 37606 H 3441.68 0.949689 1.27148 0
M  V30 37607 H 3441.7 -0.0436623 3.80475 0
M  V30 37608 H 3441.21 1.74908 3.46452 0
M  V30 37609 H 3439.31 -0.709085 3.65791 0
M  V30 37610 H 3439.42 0.850776 4.71486 0
M  V30 37611 H 3437.79 0.35674 2.52189 0
M  V30 37612 H 3438.57 2.00732 2.78499 0
M  V30 37613 N 3441.02 -1.49371 0.502605 0
M  V30 37614 C 3442.24 -2.07361 -0.0402723 0
M  V30 37615 C 3442.67 -1.36028 -1.29916 0
M  V30 37616 O 3442.02 -0.417519 -1.76427 0
M  V30 37617 C 3442.07 -3.59548 -0.275298 0
M  V30 37618 O 3441.18 -3.89689 -1.34968 0
M  V30 37619 H 3440.52 -0.663453 0.0269384 0
M  V30 37620 H 3443.05 -1.92155 0.702686 0
M  V30 37621 H 3443.06 -4.04846 -0.50632 0
M  V30 37622 H 3441.73 -4.10877 0.644455 0
M  V30 37623 H 3440.31 -3.56199 -1.10349 0
M  V30 37624 N 3442.49 -0.236508 -1.55815 0
M  V30 37625 C 3443.42 0.661795 -2.23925 0
M  V30 37626 C 3444.41 1.18944 -1.21599 0
M  V30 37627 O 3445.59 1.2307 -1.50225 0
M  V30 37628 C 3442.72 1.86349 -2.93072 0
M  V30 37629 C 3441.67 1.46906 -4.01998 0
M  V30 37630 C 3441 2.75075 -4.58517 0
M  V30 37631 C 3442.3 0.647873 -5.18266 0
M  V30 37632 H 3443.99 0.0938842 -2.99253 0
M  V30 37633 H 3441.54 0.0437154 -1.43934 0
M  V30 37634 H 3443.49 2.49749 -3.39416 0
M  V30 37635 H 3442.22 2.45662 -2.15216 0
M  V30 37636 H 3440.88 0.85846 -3.56407 0
M  V30 37637 H 3440.52 3.32563 -3.77374 0
M  V30 37638 H 3440.22 2.49411 -5.32041 0
M  V30 37639 H 3441.75 3.39391 -5.07589 0
M  V30 37640 H 3443.16 1.18592 -5.609 0
M  V30 37641 H 3441.56 0.487718 -5.98115 0
M  V30 37642 H 3442.63 -0.342236 -4.83691 0
M  V30 37643 N 3443.97 1.57557 0.0367273 0
M  V30 37644 C 3444.92 2.06055 1.03971 0
M  V30 37645 C 3445.89 0.948113 1.36382 0
M  V30 37646 O 3447.07 1.21817 1.46851 0
M  V30 37647 C 3444.21 2.53841 2.33792 0
M  V30 37648 C 3443.33 3.78845 2.07607 0
M  V30 37649 C 3442.46 4.15273 3.31243 0
M  V30 37650 C 3441.5 5.33216 3.00578 0
M  V30 37651 N 3440.64 5.65113 4.16643 0
M  V30 37652 H 3445.48 2.91496 0.619188 0
M  V30 37653 H 3443.02 1.44129 0.294126 0
M  V30 37654 H 3444.97 2.79611 3.09634 0
M  V30 37655 H 3443.6 1.71327 2.73581 0
M  V30 37656 H 3442.66 3.60205 1.22296 0
M  V30 37657 H 3443.97 4.64809 1.80981 0
M  V30 37658 H 3443.12 4.42131 4.15458 0
M  V30 37659 H 3441.86 3.27945 3.60975 0
M  V30 37660 H 3440.87 5.06119 2.14764 0
M  V30 37661 H 3442.09 6.22191 2.72131 0
M  V30 37662 H 3440.04 4.80745 4.46341 0
M  V30 37663 H 3439.95 6.45571 3.93414 0
M  V30 37664 H 3441.22 5.96543 5.01754 0
M  V30 37665 N 3445.45 -0.308854 1.54544 0
M  V30 37666 C 3446.38 -1.38554 1.8795 0
M  V30 37667 C 3447.36 -1.53273 0.737649 0
M  V30 37668 O 3448.55 -1.66911 0.992694 0
M  V30 37669 C 3445.68 -2.75098 2.11987 0
M  V30 37670 C 3444.63 -2.75152 3.27834 0
M  V30 37671 C 3443.96 -4.14911 3.37273 0
M  V30 37672 C 3445.26 -2.3759 4.65133 0
M  V30 37673 H 3446.95 -1.10845 2.78125 0
M  V30 37674 H 3444.5 -0.531784 1.33821 0
M  V30 37675 H 3446.45 -3.50499 2.33941 0
M  V30 37676 H 3445.17 -3.04315 1.18574 0
M  V30 37677 H 3443.83 -2.02207 3.05791 0
M  V30 37678 H 3443.48 -4.41292 2.41392 0
M  V30 37679 H 3443.18 -4.1585 4.15142 0
M  V30 37680 H 3444.71 -4.92103 3.61479 0
M  V30 37681 H 3446.12 -3.02705 4.8687 0
M  V30 37682 H 3444.52 -2.49755 5.45658 0
M  V30 37683 H 3445.59 -1.32723 4.66383 0
M  V30 37684 N 3446.93 -1.46867 -0.571659 0
M  V30 37685 C 3448.16 -1.56338 -1.35521 0
M  V30 37686 C 3448.57 -0.208392 -1.87646 0
M  V30 37687 O 3447.93 0.796107 -1.64221 0
M  V30 37688 C 3447.98 -2.57708 -2.53513 0
M  V30 37689 O 3447.7 -3.87944 -2.03545 0
M  V30 37690 C 3449.2 -2.77226 -3.4592 0
M  V30 37691 H 3446.42 -0.528355 -0.413621 0
M  V30 37692 H 3448.97 -1.92367 -0.693909 0
M  V30 37693 H 3447.12 -2.24652 -3.15611 0
M  V30 37694 H 3447.54 -4.43213 -2.80468 0
M  V30 37695 H 3449.01 -3.5205 -4.25164 0
M  V30 37696 H 3449.49 -1.84527 -3.98556 0
M  V30 37697 H 3450.09 -3.11421 -2.8965 0
M  V30 37698 N 3448.41 0.817212 -1.34757 0
M  V30 37699 C 3449.64 1.60301 -1.30335 0
M  V30 37700 C 3450.05 1.88796 0.123537 0
M  V30 37701 O 3449.39 1.48398 1.08276 0
M  V30 37702 C 3449.45 2.96574 -2.03184 0
M  V30 37703 C 3449.11 2.90946 -3.52419 0
M  V30 37704 C 3450.11 2.65128 -4.47217 0
M  V30 37705 C 3447.8 3.10398 -3.94916 0
M  V30 37706 C 3449.79 2.58822 -5.82486 0
M  V30 37707 C 3447.48 3.03716 -5.30283 0
M  V30 37708 C 3448.48 2.77962 -6.2388 0
M  V30 37709 O 3448.16 2.71224 -7.56765 0
M  V30 37710 H 3447.9 0.504792 -0.449623 0
M  V30 37711 H 3450.45 1.0244 -1.78032 0
M  V30 37712 H 3448.68 3.56376 -1.5011 0
M  V30 37713 H 3450.37 3.5763 -1.91979 0
M  V30 37714 H 3451.13 2.49829 -4.15705 0
M  V30 37715 H 3447.01 3.29458 -3.22457 0
M  V30 37716 H 3450.56 2.3864 -6.55513 0
M  V30 37717 H 3446.45 3.1857 -5.61412 0
M  V30 37718 H 3447.22 2.86909 -7.66567 0
M  V30 37719 N 3449.89 1.1858 1.0381 0
M  V30 37720 C 3451.11 1.00772 1.807 0
M  V30 37721 C 3451.53 -0.443801 1.8351 0
M  V30 37722 O 3450.89 -1.30826 1.27243 0
M  V30 37723 C 3450.94 1.55844 3.26182 0
M  V30 37724 O 3450.66 2.95313 3.23607 0
M  V30 37725 C 3452.16 1.4269 4.19708 0
M  V30 37726 H 3449.38 0.355695 0.568966 0
M  V30 37727 H 3451.92 1.57187 1.30814 0
M  V30 37728 H 3450.08 1.03599 3.73291 0
M  V30 37729 H 3450.49 3.21047 4.14764 0
M  V30 37730 H 3451.97 1.86017 5.19713 0
M  V30 37731 H 3452.44 0.376001 4.37588 0
M  V30 37732 H 3453.05 1.9402 3.78466 0
M  V30 37733 N 3451.36 -1.22766 0.988245 0
M  V30 37734 C 3452.27 -2.28219 0.543447 0
M  V30 37735 C 3453.29 -1.69208 -0.405533 0
M  V30 37736 O 3454.47 -1.99534 -0.273516 0
M  V30 37737 C 3451.53 -3.4642 -0.139434 0
M  V30 37738 C 3450.59 -4.20762 0.851927 0
M  V30 37739 C 3449.82 -5.33319 0.20154 0
M  V30 37740 O 3450.05 -5.61465 -1.00563 0
M  V30 37741 O 3448.98 -5.95072 0.904061 0
M  V30 37742 H 3452.81 -2.68425 1.42063 0
M  V30 37743 H 3450.39 -1.28845 0.756261 0
M  V30 37744 H 3452.27 -4.18153 -0.522153 0
M  V30 37745 H 3450.95 -3.08149 -0.991261 0
M  V30 37746 H 3449.86 -3.5132 1.28549 0
M  V30 37747 H 3451.19 -4.62902 1.67281 0
M  V30 37748 N 3452.84 -0.760864 -1.38017 0
M  V30 37749 C 3454.08 -0.325299 -2.01795 0
M  V30 37750 C 3454.45 1.07486 -1.59094 0
M  V30 37751 O 3455.65 1.60994 -2.15254 0
M  V30 37752 C 3453.92 -0.452069 -3.54529 0
M  V30 37753 S 3455.48 -0.100161 -4.38686 0
M  V30 37754 H 3452.29 -0.12577 -0.699788 0
M  V30 37755 H 3454.9 -0.993084 -1.68399 0
M  V30 37756 H 3453.6 -1.47193 -3.83096 0
M  V30 37757 H 3453.13 0.232647 -3.92711 0
M  V30 37758 H 3455.15 1.10789 -4.83674 0
M  V30 37759 N 3454.32 1.49102 -0.510519 0
M  V30 37760 C 3455.25 2.32137 0.251958 0
M  V30 37761 C 3456.23 1.40857 0.953588 0
M  V30 37762 O 3457.42 1.6976 0.943148 0
M  V30 37763 C 3454.55 3.216 1.31112 0
M  V30 37764 C 3453.5 4.21749 0.728806 0
M  V30 37765 C 3452.83 5.00214 1.88919 0
M  V30 37766 C 3454.13 5.21514 -0.286517 0
M  V30 37767 H 3455.82 2.96132 -0.441154 0
M  V30 37768 H 3453.37 1.42407 -0.213602 0
M  V30 37769 H 3455.32 3.78506 1.85233 0
M  V30 37770 H 3454.04 2.55567 2.03355 0
M  V30 37771 H 3452.7 3.66002 0.209272 0
M  V30 37772 H 3452.35 4.3062 2.59953 0
M  V30 37773 H 3452.05 5.67984 1.50558 0
M  V30 37774 H 3453.57 5.59966 2.43456 0
M  V30 37775 H 3454.99 5.73057 0.166896 0
M  V30 37776 H 3453.38 5.97227 -0.586466 0
M  V30 37777 H 3454.45 4.6984 -1.19912 0
M  V30 37778 N 3455.8 0.244768 1.55688 0
M  V30 37779 C 3457.21 -0.110131 1.5922 0
M  V30 37780 C 3457.41 -1.57093 1.2619 0
M  V30 37781 O 3456.47 -2.31499 1.0082 0
M  V30 37782 C 3457.78 0.237128 2.99764 0
M  V30 37783 C 3459.33 0.181253 3.12475 0
M  V30 37784 C 3459.81 0.502515 4.55235 0
M  V30 37785 N 3461.3 0.452936 4.6098 0
M  V30 37786 C 3462.03 0.674705 5.69417 0
M  V30 37787 N 3461.53 0.959487 6.86124 0
M  V30 37788 N 3463.32 0.605557 5.58829 0
M  V30 37789 H 3455.47 1.19744 1.75428 0
M  V30 37790 H 3457.73 0.481649 0.816528 0
M  V30 37791 H 3457.44 1.25191 3.28664 0
M  V30 37792 H 3457.31 -0.436794 3.74662 0
M  V30 37793 H 3459.7 -0.824198 2.83357 0
M  V30 37794 H 3459.78 0.888994 2.39855 0
M  V30 37795 H 3459.43 1.50551 4.85074 0
M  V30 37796 H 3459.36 -0.22668 5.26112 0
M  V30 37797 H 3461.85 0.241467 3.77128 0
M  V30 37798 H 3462.16 1.11618 7.64697 0
M  V30 37799 H 3460.51 0.996937 6.87813 0
M  V30 37800 H 3463.7 0.383135 4.66529 0
M  V30 37801 H 3463.87 0.781787 6.43267 0
M  V30 37802 N 3457.28 -1.57574 -0.0283712 0
M  V30 37803 C 3458.52 -1.89584 -0.720109 0
M  V30 37804 C 3458.85 -0.842592 -1.74969 0
M  V30 37805 O 3458.13 0.14226 -1.93979 0
M  V30 37806 C 3458.41 -3.32232 -1.38903 0
M  V30 37807 C 3458.27 -4.48251 -0.372919 0
M  V30 37808 C 3459.58 -3.73808 -2.32283 0
M  V30 37809 H 3456.7 -0.689495 -0.260318 0
M  V30 37810 H 3459.35 -1.89992 0.0170941 0
M  V30 37811 H 3457.5 -3.32015 -2.01739 0
M  V30 37812 H 3459.17 -4.60603 0.253573 0
M  V30 37813 H 3457.41 -4.32707 0.307726 0
M  V30 37814 H 3458.08 -5.44949 -0.879453 0
M  V30 37815 H 3460.56 -3.75396 -1.7949 0
M  V30 37816 H 3459.43 -4.74424 -2.76067 0
M  V30 37817 H 3459.69 -3.06105 -3.18986 0
M  V30 37818 N 3458.75 0.300654 -1.54706 0
M  V30 37819 C 3459.99 1.04378 -1.7574 0
M  V30 37820 C 3460.36 1.84477 -0.53217 0
M  V30 37821 O 3461.56 2.61546 -0.620259 0
M  V30 37822 C 3459.83 1.92547 -3.01098 0
M  V30 37823 S 3461.39 2.73501 -3.43137 0
M  V30 37824 H 3458.21 0.352014 -0.617744 0
M  V30 37825 H 3460.81 0.317153 -1.9291 0
M  V30 37826 H 3459.51 1.32578 -3.88396 0
M  V30 37827 H 3459.04 2.69577 -2.86516 0
M  V30 37828 H 3461.06 3.95062 -3.00234 0
M  V30 37829 N 3460.23 1.47168 0.563863 0
M  V30 37830 C 3461.48 1.53148 1.31872 0
M  V30 37831 C 3461.8 0.192552 1.94047 0
M  V30 37832 O 3461.07 -0.782841 1.79578 0
M  V30 37833 H 3459.65 0.564108 0.489684 0
M  V30 37834 H 3462.31 1.83423 0.658944 0
M  V30 37835 H 3461.41 2.29444 2.1157 0
M  V30 37836 N 3461.71 -0.810054 1.35188 0
M  V30 37837 C 3462.66 -1.94311 1.27852 0
M  V30 37838 C 3463.65 -1.68503 0.17411 0
M  V30 37839 O 3464.86 -1.76762 0.339879 0
M  V30 37840 H 3461.23 -0.638346 0.397515 0
M  V30 37841 H 3463.2 -1.97619 2.23583 0
M  V30 37842 C 3461.95 -3.31024 1.06387 0
M  V30 37843 H 3461.28 -3.51438 1.90608 0
M  V30 37844 H 3462.72 -4.10718 1.05295 0
M  V30 37845 C 3461.18 -3.36097 -0.232403 0
M  V30 37846 O 3461.71 -3.82425 -1.22939 0
M  V30 37847 N 3459.91 -2.89343 -0.269978 0
M  V30 37848 H 3459.46 -2.51835 0.541936 0
M  V30 37849 H 3459.42 -2.93119 -1.13703 0
M  V30 37850 N 3463.19 -1.19129 -1.0318 0
M  V30 37851 C 3464.43 -1.00362 -1.76915 0
M  V30 37852 C 3464.79 0.461042 -1.86794 0
M  V30 37853 O 3464.08 1.33789 -1.37153 0
M  V30 37854 C 3464.28 -1.60272 -3.19449 0
M  V30 37855 C 3464.11 -3.12412 -3.23464 0
M  V30 37856 C 3462.88 -3.81291 -3.3158 0
M  V30 37857 C 3465.07 -4.09806 -3.10747 0
M  V30 37858 N 3463.06 -5.20853 -3.24939 0
M  V30 37859 C 3464.43 -5.35948 -3.11705 0
M  V30 37860 C 3466.48 -4.01206 -2.94853 0
M  V30 37861 C 3465.18 -6.54484 -2.98401 0
M  V30 37862 C 3467.21 -5.19349 -2.82898 0
M  V30 37863 C 3466.57 -6.44387 -2.84508 0
M  V30 37864 H 3462.67 -0.421346 -0.65878 0
M  V30 37865 H 3465.26 -1.51053 -1.22846 0
M  V30 37866 H 3463.43 -1.12187 -3.71845 0
M  V30 37867 H 3465.16 -1.34969 -3.8153 0
M  V30 37868 H 3461.91 -3.32068 -3.3768 0
M  V30 37869 H 3462.34 -5.93871 -3.25033 0
M  V30 37870 H 3466.98 -3.05358 -2.92432 0
M  V30 37871 H 3464.7 -7.50521 -2.99574 0
M  V30 37872 H 3468.28 -5.14493 -2.7164 0
M  V30 37873 H 3467.16 -7.34267 -2.75356 0
M  V30 37874 N 3464.67 1.2224 -0.994741 0
M  V30 37875 C 3465.6 2.26523 -0.566539 0
M  V30 37876 C 3466.58 1.65146 0.407512 0
M  V30 37877 O 3467.76 1.91904 0.297743 0
M  V30 37878 C 3464.89 3.471 0.117799 0
M  V30 37879 C 3463.85 4.20925 -0.774982 0
M  V30 37880 C 3463.17 5.34683 0.0423747 0
M  V30 37881 C 3464.47 4.79412 -2.07271 0
M  V30 37882 H 3466.17 2.62594 -1.43822 0
M  V30 37883 H 3463.71 1.26228 -0.692993 0
M  V30 37884 H 3465.67 4.19213 0.428769 0
M  V30 37885 H 3464.39 3.10131 1.02404 0
M  V30 37886 H 3463.05 3.50649 -1.06962 0
M  V30 37887 H 3462.7 4.93955 0.94959 0
M  V30 37888 H 3462.4 5.85002 -0.55197 0
M  V30 37889 H 3463.92 6.09611 0.347397 0
M  V30 37890 H 3465.33 5.43457 -1.82557 0
M  V30 37891 H 3463.73 5.40077 -2.61604 0
M  V30 37892 H 3464.8 3.99361 -2.75024 0
M  V30 37893 N 3466.14 0.768172 1.37611 0
M  V30 37894 C 3467.11 0.158323 2.28653 0
M  V30 37895 C 3468.11 -0.63191 1.47863 0
M  V30 37896 O 3469.3 -0.456025 1.68125 0
M  V30 37897 C 3466.43 -0.783377 3.31777 0
M  V30 37898 H 3467.62 0.960822 2.84092 0
M  V30 37899 H 3465.18 0.536142 1.46817 0
M  V30 37900 H 3465.91 -1.61101 2.81455 0
M  V30 37901 H 3465.7 -0.218947 3.91488 0
M  V30 37902 H 3467.19 -1.20561 3.99818 0
M  V30 37903 N 3467.62 -1.48829 0.518419 0
M  V30 37904 C 3468.53 -2.33213 -0.25477 0
M  V30 37905 C 3469.55 -1.45753 -0.950375 0
M  V30 37906 O 3470.72 -1.78751 -0.927901 0
M  V30 37907 C 3467.79 -3.21605 -1.29503 0
M  V30 37908 C 3466.85 -4.2493 -0.611012 0
M  V30 37909 C 3466.08 -5.09098 -1.60171 0
M  V30 37910 O 3466.31 -4.95057 -2.83328 0
M  V30 37911 O 3465.24 -5.90861 -1.14745 0
M  V30 37912 H 3469.07 -3.00548 0.436382 0
M  V30 37913 H 3466.65 -1.46762 0.279496 0
M  V30 37914 H 3468.53 -3.76313 -1.89648 0
M  V30 37915 H 3467.21 -2.56944 -1.9688 0
M  V30 37916 H 3466.12 -3.74087 0.0306296 0
M  V30 37917 H 3467.45 -4.92196 0.0206114 0
M  V30 37918 N 3469.1 -0.253021 -1.55556 0
M  V30 37919 C 3470.33 0.373986 -2.03492 0
M  V30 37920 C 3470.74 1.51092 -1.1321 0
M  V30 37921 O 3470.1 1.81901 -0.147737 0
M  V30 37922 C 3470.15 0.875986 -3.50726 0
M  V30 37923 O 3469.87 -0.215651 -4.37569 0
M  V30 37924 C 3471.37 1.57306 -4.14451 0
M  V30 37925 H 3468.59 0.0881527 -0.665184 0
M  V30 37926 H 3471.14 -0.378671 -2.00964 0
M  V30 37927 H 3469.29 1.5788 -3.53769 0
M  V30 37928 H 3469.71 0.166532 -5.24236 0
M  V30 37929 H 3471.18 1.87596 -5.19145 0
M  V30 37930 H 3471.66 2.49712 -3.61304 0
M  V30 37931 H 3472.26 0.914662 -4.15348 0
M  V30 37932 N 3470.58 1.57587 0.0200142 0
M  V30 37933 C 3471.82 1.91534 0.713731 0
M  V30 37934 C 3472.18 0.852547 1.72034 0
M  V30 37935 O 3473.38 1.07663 2.46297 0
M  V30 37936 C 3471.65 3.30603 1.3578 0
M  V30 37937 S 3473.21 3.86401 2.07942 0
M  V30 37938 H 3470.03 0.670606 0.236238 0
M  V30 37939 H 3472.63 1.95474 -0.0318656 0
M  V30 37940 H 3471.34 4.0581 0.612076 0
M  V30 37941 H 3470.87 3.29988 2.14176 0
M  V30 37942 H 3472.88 3.65859 3.35204 0
M  V30 37943 N 3472.06 -0.292445 1.54863 0
M  V30 37944 C 3472.99 -1.36553 1.89409 0
M  V30 37945 C 3473.97 -1.52482 0.753864 0
M  V30 37946 O 3475.15 -1.65849 1.01034 0
M  V30 37947 C 3472.28 -2.72834 2.14893 0
M  V30 37948 C 3471.24 -2.71659 3.30734 0
M  V30 37949 C 3470.56 -4.1131 3.41655 0
M  V30 37950 C 3471.86 -2.32643 4.67627 0
M  V30 37951 H 3473.56 -1.07889 2.79285 0
M  V30 37952 H 3471.1 -0.517561 1.34377 0
M  V30 37953 H 3473.06 -3.47998 2.37646 0
M  V30 37954 H 3471.78 -3.0304 1.21795 0
M  V30 37955 H 3470.44 -1.98952 3.07918 0
M  V30 37956 H 3470.09 -4.38707 2.46059 0
M  V30 37957 H 3469.79 -4.11423 4.19529 0
M  V30 37958 H 3471.31 -4.88241 3.66678 0
M  V30 37959 H 3472.72 -2.97524 4.90053 0
M  V30 37960 H 3471.12 -2.43953 5.48276 0
M  V30 37961 H 3472.19 -1.27769 4.67764 0
M  V30 37962 N 3473.53 -1.47465 -0.55605 0
M  V30 37963 C 3474.44 -1.62674 -1.6904 0
M  V30 37964 C 3475.46 -0.509564 -1.66371 0
M  V30 37965 O 3476.64 -0.777251 -1.85798 0
M  V30 37966 C 3473.7 -1.63841 -3.05544 0
M  V30 37967 C 3472.76 -2.86993 -3.1927 0
M  V30 37968 C 3472 -2.88096 -4.49262 0
M  V30 37969 O 3472.22 -1.98377 -5.34792 0
M  V30 37970 O 3471.15 -3.79971 -4.66804 0
M  V30 37971 H 3474.98 -2.58659 -1.59151 0
M  V30 37972 H 3472.56 -1.30564 -0.726189 0
M  V30 37973 H 3474.45 -1.67282 -3.86775 0
M  V30 37974 H 3473.12 -0.710229 -3.15812 0
M  V30 37975 H 3472.03 -2.89097 -2.37432 0
M  V30 37976 H 3473.36 -3.7911 -3.13906 0
M  V30 37977 N 3475.01 0.802873 -1.35616 0
M  V30 37978 C 3475.96 1.9363 -1.28881 0
M  V30 37979 C 3476.96 1.68408 -0.183044 0
M  V30 37980 O 3478.16 1.76579 -0.349249 0
M  V30 37981 H 3474.54 0.636229 -0.400894 0
M  V30 37982 H 3476.51 1.96431 -2.24628 0
M  V30 37983 C 3475.26 3.30455 -1.08141 0
M  V30 37984 H 3474.58 3.50422 -1.92469 0
M  V30 37985 H 3476.02 4.10154 -1.07471 0
M  V30 37986 C 3474.48 3.36216 0.214576 0
M  V30 37987 O 3475.01 3.83072 1.20909 0
M  V30 37988 N 3473.21 2.89482 0.254629 0
M  V30 37989 H 3472.76 2.51544 -0.555283 0
M  V30 37990 H 3472.72 2.93718 1.12147 0
M  V30 37991 N 3476.49 1.19674 1.02547 0
M  V30 37992 C 3477.9 1.00328 1.57452 0
M  V30 37993 C 3478.25 -0.442855 1.91137 0
M  V30 37994 O 3477.38 -1.32281 1.71262 0
M  V30 37995 C 3477.97 1.81491 2.86088 0
M  V30 37996 C 3476.53 1.66536 3.37554 0
M  V30 37997 C 3475.68 1.79979 2.10957 0
M  V30 37998 H 3478.63 1.33996 0.850341 0
M  V30 37999 H 3478.65 1.31302 3.57127 0
M  V30 38000 H 3478.16 2.86737 2.6154 0
M  V30 38001 H 3476.26 0.638898 3.67082 0
M  V30 38002 H 3476.38 2.47276 4.10355 0
M  V30 38003 H 3474.74 1.23075 2.2299 0
M  V30 38004 H 3475.52 2.86691 1.88847 0
M  V30 38005 N 3477.97 -1.21711 1.00121 0
M  V30 38006 C 3478.93 -2.22166 0.563448 0
M  V30 38007 C 3479.93 -1.5676 -0.358162 0
M  V30 38008 O 3481.12 -1.73562 -0.148971 0
M  V30 38009 C 3478.25 -3.40428 -0.179305 0
M  V30 38010 H 3479.45 -2.6241 1.45193 0
M  V30 38011 H 3477 -1.34906 0.78931 0
M  V30 38012 H 3477.74 -3.05668 -1.0834 0
M  V30 38013 H 3477.52 -3.89119 0.48254 0
M  V30 38014 H 3479.01 -4.14907 -0.473464 0
M  V30 38015 N 3479.45 -0.775459 -1.37202 0
M  V30 38016 C 3480.69 -0.341972 -1.99896 0
M  V30 38017 C 3481.03 1.07975 -1.61416 0
M  V30 38018 O 3480.3 1.74349 -0.862138 0
M  V30 38019 C 3480.58 -0.489778 -3.56754 0
M  V30 38020 C 3480.44 -1.95418 -4.05132 0
M  V30 38021 C 3481.76 0.103702 -4.39978 0
M  V30 38022 H 3478.88 -0.125729 -0.726196 0
M  V30 38023 H 3481.52 -0.979195 -1.62824 0
M  V30 38024 H 3479.67 0.0527001 -3.88464 0
M  V30 38025 H 3481.34 -2.55665 -3.8397 0
M  V30 38026 H 3479.58 -2.4617 -3.57187 0
M  V30 38027 H 3480.25 -2.00864 -5.14157 0
M  V30 38028 H 3482.73 -0.359207 -4.14547 0
M  V30 38029 H 3481.61 -0.0298302 -5.48892 0
M  V30 38030 H 3481.87 1.1944 -4.2566 0
M  V30 38031 N 3480.93 1.48552 -0.526305 0
M  V30 38032 C 3482.17 2.01697 0.0111118 0
M  V30 38033 C 3482.49 1.40898 1.35673 0
M  V30 38034 O 3483.69 1.85519 1.9823 0
M  V30 38035 C 3482.15 3.59832 0.0702088 0
M  V30 38036 C 3481.76 4.29613 -1.27029 0
M  V30 38037 C 3483.5 4.20834 0.556648 0
M  V30 38038 C 3481.41 5.79671 -1.17198 0
M  V30 38039 H 3480.34 0.753958 0.00792372 0
M  V30 38040 H 3482.99 1.70849 -0.669533 0
M  V30 38041 H 3481.37 3.87505 0.815851 0
M  V30 38042 H 3482.55 4.13616 -2.03121 0
M  V30 38043 H 3480.86 3.80466 -1.69217 0
M  V30 38044 H 3483.46 5.30758 0.648112 0
M  V30 38045 H 3483.8 3.85903 1.56156 0
M  V30 38046 H 3484.33 3.97577 -0.133202 0
M  V30 38047 H 3481.07 6.19171 -2.15193 0
M  V30 38048 H 3480.59 5.98092 -0.452364 0
M  V30 38049 H 3482.27 6.41244 -0.861123 0
M  V30 38050 N 3482.4 0.261267 1.55419 0
M  V30 38051 C 3483.34 -0.673184 2.18045 0
M  V30 38052 C 3484.31 -1.1624 1.13698 0
M  V30 38053 O 3485.5 -1.23791 1.42155 0
M  V30 38054 C 3482.63 -1.9165 2.79263 0
M  V30 38055 C 3481.67 -1.56395 3.96791 0
M  V30 38056 S 3482.5 -0.654097 5.3149 0
M  V30 38057 C 3483.66 -1.9061 5.9617 0
M  V30 38058 H 3483.89 -0.141024 2.96965 0
M  V30 38059 H 3481.43 0.0456143 1.54333 0
M  V30 38060 H 3483.38 -2.63021 3.15167 0
M  V30 38061 H 3482.05 -2.4198 2.00262 0
M  V30 38062 H 3481.24 -2.48875 4.38266 0
M  V30 38063 H 3480.84 -0.930554 3.62238 0
M  V30 38064 H 3483.13 -2.85169 6.14561 0
M  V30 38065 H 3484.08 -1.53459 6.91271 0
M  V30 38066 H 3484.48 -2.06473 5.25385 0
M  V30 38067 N 3483.88 -1.57596 -0.0116567 0
M  V30 38068 C 3484.81 -2.04514 -1.03474 0
M  V30 38069 C 3485.83 -0.960968 -1.31412 0
M  V30 38070 O 3487.02 -1.23798 -1.28594 0
M  V30 38071 C 3484.12 -2.42023 -2.3723 0
M  V30 38072 C 3483.29 -3.73032 -2.28398 0
M  V30 38073 C 3482.35 -3.97538 -3.44746 0
M  V30 38074 O 3481.37 -4.68364 -3.23457 0
M  V30 38075 N 3482.58 -3.44526 -4.67206 0
M  V30 38076 H 3485.34 -2.92902 -0.634706 0
M  V30 38077 H 3482.9 -1.60669 -0.199272 0
M  V30 38078 H 3484.89 -2.55541 -3.13817 0
M  V30 38079 H 3483.46 -1.59215 -2.69016 0
M  V30 38080 H 3482.68 -3.69703 -1.36797 0
M  V30 38081 H 3483.97 -4.58942 -2.19658 0
M  V30 38082 H 3483.37 -2.87151 -4.87402 0
M  V30 38083 H 3481.93 -3.63394 -5.41099 0
M  V30 38084 N 3485.36 0.284228 -1.55016 0
M  V30 38085 C 3486.59 1.03583 -1.79104 0
M  V30 38086 C 3487 1.80342 -0.558765 0
M  V30 38087 O 3486.36 1.76294 0.471894 0
M  V30 38088 C 3486.41 2.00325 -3.00919 0
M  V30 38089 O 3486.13 1.26677 -4.19386 0
M  V30 38090 C 3487.63 2.87388 -3.37525 0
M  V30 38091 H 3484.85 0.30648 -0.596918 0
M  V30 38092 H 3487.4 0.318415 -2.02006 0
M  V30 38093 H 3485.55 2.67545 -2.80176 0
M  V30 38094 H 3485.97 1.91788 -4.88178 0
M  V30 38095 H 3487.44 3.51088 -4.2596 0
M  V30 38096 H 3487.92 3.56571 -2.56425 0
M  V30 38097 H 3488.52 2.25676 -3.60487 0
M  V30 38098 N 3486.84 1.47758 0.548222 0
M  V30 38099 C 3488.07 1.58245 1.32824 0
M  V30 38100 C 3488.48 0.234969 1.87735 0
M  V30 38101 O 3487.82 -0.783261 1.66165 0
M  V30 38102 C 3487.88 2.55502 2.52901 0
M  V30 38103 C 3487.54 4.00993 2.19211 0
M  V30 38104 C 3488.54 4.89215 1.75967 0
M  V30 38105 C 3486.23 4.46396 2.30294 0
M  V30 38106 C 3488.22 6.20863 1.44248 0
M  V30 38107 C 3485.91 5.7807 1.98187 0
M  V30 38108 C 3486.91 6.65125 1.55232 0
M  V30 38109 O 3486.59 7.94351 1.23537 0
M  V30 38110 H 3486.33 0.536806 0.410871 0
M  V30 38111 H 3488.88 1.94165 0.67002 0
M  V30 38112 H 3487.11 2.14667 3.21644 0
M  V30 38113 H 3488.8 2.56019 3.14975 0
M  V30 38114 H 3489.56 4.55382 1.6689 0
M  V30 38115 H 3485.44 3.78837 2.62686 0
M  V30 38116 H 3488.99 6.88769 1.10647 0
M  V30 38117 H 3484.88 6.11443 2.06899 0
M  V30 38118 H 3485.65 8.06938 1.37091 0
M  V30 38119 N 3488.32 -0.79567 1.3604 0
M  V30 38120 C 3489.25 -1.92244 1.32531 0
M  V30 38121 C 3490.23 -1.68946 0.197835 0
M  V30 38122 O 3491.41 -1.90151 0.394508 0
M  V30 38123 C 3488.54 -3.29167 1.10754 0
M  V30 38124 C 3487.5 -3.66974 2.20259 0
M  V30 38125 C 3486.82 -5.02178 1.83633 0
M  V30 38126 C 3488.12 -3.7621 3.62303 0
M  V30 38127 H 3489.82 -1.95438 2.26814 0
M  V30 38128 H 3487.36 -0.938889 1.09183 0
M  V30 38129 H 3489.31 -4.07606 1.06936 0
M  V30 38130 H 3488.04 -3.26344 0.129198 0
M  V30 38131 H 3486.7 -2.90828 2.23192 0
M  V30 38132 H 3486.35 -4.9587 0.843891 0
M  V30 38133 H 3486.05 -5.28444 2.56944 0
M  V30 38134 H 3487.57 -5.83045 1.8136 0
M  V30 38135 H 3488.98 -4.44855 3.61631 0
M  V30 38136 H 3487.38 -4.13955 4.34466 0
M  V30 38137 H 3488.45 -2.77476 3.97662 0
M  V30 38138 N 3489.79 -1.20217 -1.0191 0
M  V30 38139 C 3490.7 -0.964365 -2.13862 0
M  V30 38140 C 3491.72 0.0789251 -1.73821 0
M  V30 38141 O 3492.9 -0.107949 -2.0111 0
M  V30 38142 C 3489.96 -0.516817 -3.42826 0
M  V30 38143 C 3489.02 -1.63066 -3.97125 0
M  V30 38144 C 3488.26 -1.20437 -5.19933 0
M  V30 38145 O 3488.48 -0.0720121 -5.70355 0
M  V30 38146 O 3487.41 -2.01081 -5.67318 0
M  V30 38147 H 3491.24 -1.90166 -2.36792 0
M  V30 38148 H 3488.82 -0.985823 -1.12258 0
M  V30 38149 H 3490.71 -0.276346 -4.20493 0
M  V30 38150 H 3489.38 0.391926 -3.21319 0
M  V30 38151 H 3488.29 -1.92539 -3.20749 0
M  V30 38152 H 3489.62 -2.51632 -4.23016 0
M  V30 38153 N 3491.27 1.21178 -1.00765 0
M  V30 38154 C 3492.22 2.23643 -0.570296 0
M  V30 38155 C 3493.19 1.61087 0.40501 0
M  V30 38156 O 3494.37 1.88323 0.306462 0
M  V30 38157 C 3491.51 3.44971 0.0942644 0
M  V30 38158 C 3490.63 4.21991 -0.924537 0
M  V30 38159 C 3489.76 5.30693 -0.231962 0
M  V30 38160 C 3488.8 5.99447 -1.23813 0
M  V30 38161 N 3487.94 6.99759 -0.572848 0
M  V30 38162 H 3492.78 2.60414 -1.44873 0
M  V30 38163 H 3490.32 1.27971 -0.725391 0
M  V30 38164 H 3492.27 4.14234 0.496616 0
M  V30 38165 H 3490.9 3.0892 0.936403 0
M  V30 38166 H 3489.96 3.51881 -1.44512 0
M  V30 38167 H 3491.27 4.69293 -1.69012 0
M  V30 38168 H 3490.42 6.06278 0.226359 0
M  V30 38169 H 3489.16 4.84404 0.566007 0
M  V30 38170 H 3488.17 5.22632 -1.70693 0
M  V30 38171 H 3489.39 6.47822 -2.03723 0
M  V30 38172 H 3487.34 6.55678 0.205416 0
M  V30 38173 H 3487.25 7.45143 -1.27665 0
M  V30 38174 H 3488.52 7.79378 -0.13782 0
M  V30 38175 N 3492.75 0.782725 1.36789 0
M  V30 38176 C 3493.71 0.182566 2.28472 0
M  V30 38177 C 3494.71 -0.616191 1.48525 0
M  V30 38178 O 3495.9 -0.438168 1.68599 0
M  V30 38179 C 3493.04 -0.748143 3.32589 0
M  V30 38180 H 3494.23 0.990899 2.83057 0
M  V30 38181 H 3491.78 0.551684 1.4624 0
M  V30 38182 H 3492.52 -1.58107 2.83148 0
M  V30 38183 H 3492.3 -0.177412 3.91698 0
M  V30 38184 H 3493.79 -1.16314 4.01075 0
M  V30 38185 N 3494.23 -1.48271 0.534176 0
M  V30 38186 C 3495.47 -2.028 0.00161056 0
M  V30 38187 C 3495.81 -1.41003 -1.33536 0
M  V30 38188 O 3495.08 -0.557278 -1.86346 0
M  V30 38189 C 3495.37 -3.59913 -0.115953 0
M  V30 38190 C 3495.22 -4.32184 1.24648 0
M  V30 38191 C 3496.54 -4.31996 -0.840699 0
M  V30 38192 H 3493.66 -0.736997 0.0020593 0
M  V30 38193 H 3496.3 -1.7695 0.692016 0
M  V30 38194 H 3494.45 -3.82069 -0.703959 0
M  V30 38195 H 3496.12 -4.21434 1.87592 0
M  V30 38196 H 3494.36 -3.93438 1.82727 0
M  V30 38197 H 3495.03 -5.40577 1.11717 0
M  V30 38198 H 3497.51 -4.14695 -0.341673 0
M  V30 38199 H 3496.39 -5.41606 -0.891865 0
M  V30 38200 H 3496.65 -3.99574 -1.8919 0
M  V30 38201 N 3495.71 -0.269505 -1.55279 0
M  V30 38202 C 3496.62 0.630611 -2.25966 0
M  V30 38203 C 3497.63 1.17474 -1.28359 0
M  V30 38204 O 3498.81 1.20622 -1.61283 0
M  V30 38205 C 3495.87 1.80076 -2.96266 0
M  V30 38206 C 3494.93 1.29386 -4.09338 0
M  V30 38207 C 3494.17 2.40824 -4.76276 0
M  V30 38208 O 3494.39 3.60059 -4.42396 0
M  V30 38209 O 3493.32 2.09299 -5.64338 0
M  V30 38210 H 3497.15 0.0581535 -3.03644 0
M  V30 38211 H 3494.74 -0.0371228 -1.49354 0
M  V30 38212 H 3496.62 2.48317 -3.40466 0
M  V30 38213 H 3495.29 2.36041 -2.21509 0
M  V30 38214 H 3494.2 0.578089 -3.69606 0
M  V30 38215 H 3495.53 0.780031 -4.8598 0
M  V30 38216 N 3497.18 1.576 0.00329885 0
M  V30 38217 C 3498.43 1.90706 0.689856 0
M  V30 38218 C 3498.76 0.870322 1.73606 0
M  V30 38219 O 3498.04 -0.111381 1.94181 0
M  V30 38220 C 3498.32 3.344 1.336 0
M  V30 38221 C 3498.17 4.48788 0.301559 0
M  V30 38222 C 3499.49 3.77457 2.26306 0
M  V30 38223 H 3496.61 0.693549 0.249316 0
M  V30 38224 H 3499.25 1.89941 -0.0473181 0
M  V30 38225 H 3497.4 3.35182 1.96431 0
M  V30 38226 H 3499.08 4.60141 -0.326819 0
M  V30 38227 H 3497.32 4.32163 -0.376527 0
M  V30 38228 H 3497.99 5.46279 0.792645 0
M  V30 38229 H 3500.47 3.78204 1.73495 0
M  V30 38230 H 3499.34 4.78756 2.68484 0
M  V30 38231 H 3499.6 3.11141 3.14076 0
M  V30 38232 N 3498.66 -0.276003 1.55164 0
M  V30 38233 C 3499.63 -1.32433 1.87067 0
M  V30 38234 C 3500.63 -1.42498 0.745049 0
M  V30 38235 O 3501.82 -1.41701 1.01324 0
M  V30 38236 C 3498.95 -2.70607 2.07327 0
M  V30 38237 H 3500.14 -1.05377 2.80777 0
M  V30 38238 H 3497.69 -0.513921 1.47609 0
M  V30 38239 H 3498.43 -3.02848 1.15989 0
M  V30 38240 H 3498.21 -2.64688 2.89279 0
M  V30 38241 H 3499.7 -3.46358 2.33293 0
M  V30 38242 N 3500.14 -1.48046 -0.540378 0
M  V30 38243 C 3501.39 -1.55226 -1.29419 0
M  V30 38244 C 3501.71 -0.223399 -1.93716 0
M  V30 38245 O 3500.98 0.754172 -1.80801 0
M  V30 38246 H 3499.56 -0.571827 -0.480648 0
M  V30 38247 H 3502.22 -1.84448 -0.62968 0
M  V30 38248 H 3501.32 -2.32781 -2.07893 0
M  V30 38249 N 3501.62 0.788444 -1.3646 0
M  V30 38250 C 3502.57 1.92252 -1.30927 0
M  V30 38251 C 3503.56 1.68205 -0.200895 0
M  V30 38252 O 3504.77 1.76199 -0.367958 0
M  V30 38253 H 3501.14 0.631941 -0.40762 0
M  V30 38254 H 3503.11 1.94037 -2.26698 0
M  V30 38255 C 3501.86 3.2929 -1.1164 0
M  V30 38256 H 3501.18 3.48361 -1.96175 0
M  V30 38257 H 3502.62 4.08991 -1.11815 0
M  V30 38258 C 3501.08 3.36425 0.178904 0
M  V30 38259 O 3501.61 3.84332 1.16839 0
M  V30 38260 N 3499.82 2.89736 0.223911 0
M  V30 38261 H 3499.37 2.50941 -0.581932 0
M  V30 38262 H 3499.32 2.94891 1.09025 0
M  V30 38263 N 3503.1 1.20755 1.01271 0
M  V30 38264 C 3504.33 1.0443 1.78263 0
M  V30 38265 C 3504.73 -0.409329 1.84719 0
M  V30 38266 O 3504.08 -1.29593 1.30197 0
M  V30 38267 C 3504.14 1.55699 3.24034 0
M  V30 38268 C 3503.8 3.04053 3.41175 0
M  V30 38269 C 3504.8 4.01675 3.3008 0
M  V30 38270 C 3502.49 3.43095 3.66866 0
M  V30 38271 C 3504.48 5.36329 3.44427 0
M  V30 38272 C 3502.17 4.77903 3.80857 0
M  V30 38273 C 3503.16 5.74329 3.69642 0
M  V30 38274 O 3502.85 7.06692 3.83199 0
M  V30 38275 H 3502.58 0.367592 0.56732 0
M  V30 38276 H 3505.14 1.60374 1.28333 0
M  V30 38277 H 3503.37 0.941448 3.75065 0
M  V30 38278 H 3505.06 1.35335 3.82674 0
M  V30 38279 H 3505.82 3.72857 3.10165 0
M  V30 38280 H 3501.7 2.6858 3.74681 0
M  V30 38281 H 3505.25 6.11576 3.3559 0
M  V30 38282 H 3501.14 5.0641 4.00273 0
M  V30 38283 H 3501.91 7.13994 4.00193 0
M  V30 38284 N 3504.58 -1.20642 1.01406 0
M  V30 38285 C 3505.85 -1.8561 0.61712 0
M  V30 38286 C 3506.23 -1.90721 -0.904913 0
M  V30 38287 O 3505.58 -1.41318 -1.79559 0
M  V30 38288 C 3505.79 -3.25384 1.26199 0
M  V30 38289 C 3507.14 -4.01692 1.37583 0
M  V30 38290 O 3508.16 -3.34728 1.218 0
M  V30 38291 O 3507.02 -5.21607 1.63059 0
M  V30 38292 H 3504.12 -0.799208 0.212593 0
M  V30 38293 H 3506.66 -1.28252 1.11128 0
M  V30 38294 H 3505.43 -3.16415 2.30211 0
M  V30 38295 H 3505.06 -3.90371 0.754748 0
M  V30 38296 N 3506.05 -0.789968 -1.36372 0
M  V30 38297 C 3507.3 -0.3619 -1.98833 0
M  V30 38298 C 3507.62 1.07021 -1.63008 0
M  V30 38299 O 3506.89 1.73777 -0.904343 0
M  V30 38300 H 3505.47 -0.130825 -0.735455 0
M  V30 38301 H 3508.13 -1.01213 -1.66559 0
M  V30 38302 H 3507.23 -0.454176 -3.08778 0
M  V30 38303 N 3507.53 1.47986 -0.542031 0
M  V30 38304 C 3508.44 2.33588 0.217636 0
M  V30 38305 C 3509.46 1.47246 0.927067 0
M  V30 38306 O 3510.63 1.80205 0.899346 0
M  V30 38307 C 3507.7 3.23625 1.2437 0
M  V30 38308 C 3506.76 4.25848 0.543332 0
M  V30 38309 C 3505.99 5.11582 1.52051 0
M  V30 38310 O 3506.22 4.99502 2.75416 0
M  V30 38311 O 3505.15 5.92612 1.05331 0
M  V30 38312 H 3508.98 2.99816 -0.484142 0
M  V30 38313 H 3506.56 1.46299 -0.302809 0
M  V30 38314 H 3508.44 3.79283 1.83637 0
M  V30 38315 H 3507.12 2.60043 1.92767 0
M  V30 38316 H 3506.02 3.73991 -0.0901398 0
M  V30 38317 H 3507.36 4.92101 -0.0989129 0
M  V30 38318 N 3509.01 0.277736 1.55133 0
M  V30 38319 C 3510.23 -0.344436 2.0452 0
M  V30 38320 C 3510.66 -1.48488 1.15468 0
M  V30 38321 O 3510.02 -1.80646 0.153829 0
M  V30 38322 C 3510.07 -0.800465 3.51603 0
M  V30 38323 O 3509.17 -1.90747 3.65635 0
M  V30 38324 H 3508.51 -0.070811 0.660213 0
M  V30 38325 H 3511.04 0.412799 2.00392 0
M  V30 38326 H 3511.05 -1.09552 3.93017 0
M  V30 38327 H 3509.73 0.0339111 4.15886 0
M  V30 38328 H 3508.3 -1.61475 3.36125 0
M  V30 38329 N 3510.49 -1.57599 0.00505908 0
M  V30 38330 C 3511.71 -1.95473 -0.693197 0
M  V30 38331 C 3512.14 -0.880275 -1.66231 0
M  V30 38332 O 3511.5 0.161132 -1.80583 0
M  V30 38333 C 3511.54 -3.32444 -1.3969 0
M  V30 38334 O 3510.65 -3.27106 -2.51149 0
M  V30 38335 H 3509.99 -0.637996 -0.184004 0
M  V30 38336 H 3512.52 -2.04513 0.0597553 0
M  V30 38337 H 3512.53 -3.68126 -1.75918 0
M  V30 38338 H 3511.2 -4.10197 -0.686366 0
M  V30 38339 H 3509.78 -3.03107 -2.17211 0
M  V30 38340 N 3511.97 0.267771 -1.55309 0
M  V30 38341 C 3513.24 1.02026 -1.66883 0
M  V30 38342 C 3513.62 2.0411 -0.538744 0
M  V30 38343 O 3512.97 2.23811 0.460535 0
M  V30 38344 C 3513.18 1.67238 -3.06321 0
M  V30 38345 C 3514.53 2.18205 -3.64241 0
M  V30 38346 O 3515.55 1.77215 -3.08987 0
M  V30 38347 O 3514.41 2.93404 -4.6106 0
M  V30 38348 H 3511.51 0.473581 -0.677975 0
M  V30 38349 H 3514.05 0.263213 -1.67646 0
M  V30 38350 H 3512.82 0.932918 -3.80016 0
M  V30 38351 H 3512.45 2.49616 -3.09479 0
M  V30 38352 N 3513.44 1.48331 0.532519 0
M  V30 38353 C 3514.35 1.65342 1.6643 0
M  V30 38354 C 3515.37 0.535968 1.6554 0
M  V30 38355 O 3516.55 0.806711 1.84538 0
M  V30 38356 C 3513.61 1.68682 3.02898 0
M  V30 38357 C 3512.67 2.92036 3.14664 0
M  V30 38358 C 3511.9 2.95207 4.44622 0
M  V30 38359 O 3512.13 2.0686 5.31568 0
M  V30 38360 O 3511.06 3.87349 4.607 0
M  V30 38361 H 3514.89 2.61159 1.55016 0
M  V30 38362 H 3512.47 1.31702 0.705325 0
M  V30 38363 H 3514.35 1.73414 3.84065 0
M  V30 38364 H 3513.03 0.760382 3.14642 0
M  V30 38365 H 3511.94 2.92838 2.32802 0
M  V30 38366 H 3513.27 3.84056 3.07835 0
M  V30 38367 N 3514.92 -0.781196 1.36876 0
M  V30 38368 C 3515.85 -1.90828 1.34563 0
M  V30 38369 C 3516.83 -1.68726 0.215743 0
M  V30 38370 O 3518.02 -1.89722 0.414653 0
M  V30 38371 C 3515.15 -3.27974 1.14239 0
M  V30 38372 C 3514.1 -3.64617 2.24139 0
M  V30 38373 C 3513.43 -5.00202 1.88949 0
M  V30 38374 C 3514.73 -3.72346 3.66273 0
M  V30 38375 H 3516.42 -1.93021 2.28874 0
M  V30 38376 H 3513.97 -0.927256 1.10172 0
M  V30 38377 H 3515.92 -4.06449 1.11253 0
M  V30 38378 H 3514.64 -3.26189 0.163804 0
M  V30 38379 H 3513.3 -2.88444 2.26264 0
M  V30 38380 H 3512.95 -4.94947 0.896438 0
M  V30 38381 H 3512.65 -5.25689 2.62534 0
M  V30 38382 H 3514.18 -5.81088 1.87533 0
M  V30 38383 H 3515.59 -4.40994 3.66329 0
M  V30 38384 H 3513.99 -4.09324 4.38832 0
M  V30 38385 H 3515.06 -2.73243 4.00582 0
M  V30 38386 N 3516.4 -1.21291 -1.0063 0
M  V30 38387 C 3517.82 -0.969979 -1.26742 0
M  V30 38388 C 3518.02 0.344414 -1.98535 0
M  V30 38389 O 3517.07 1.0704 -2.28689 0
M  V30 38390 C 3518.38 -2.15967 -2.09234 0
M  V30 38391 C 3519.93 -2.20178 -2.22465 0
M  V30 38392 C 3520.41 -3.38662 -3.08338 0
M  V30 38393 N 3521.9 -3.3874 -3.15926 0
M  V30 38394 C 3522.63 -4.27067 -3.82624 0
M  V30 38395 N 3522.13 -5.2559 -4.51362 0
M  V30 38396 N 3523.92 -4.14879 -3.79252 0
M  V30 38397 H 3516.07 -2.0582 -0.52459 0
M  V30 38398 H 3518.34 -0.901189 -0.294215 0
M  V30 38399 H 3518.04 -3.11212 -1.6383 0
M  V30 38400 H 3517.92 -2.14919 -3.09983 0
M  V30 38401 H 3520.3 -1.2549 -2.67089 0
M  V30 38402 H 3520.38 -2.2527 -1.2119 0
M  V30 38403 H 3520.03 -4.33642 -2.64418 0
M  V30 38404 H 3519.96 -3.30808 -4.09724 0
M  V30 38405 H 3522.45 -2.67438 -2.66993 0
M  V30 38406 H 3522.76 -5.89292 -4.99955 0
M  V30 38407 H 3521.11 -5.29516 -4.50153 0
M  V30 38408 H 3524.3 -3.37171 -3.24705 0
M  V30 38409 H 3524.47 -4.83924 -4.30954 0
M  V30 38410 N 3517.88 1.20103 -1.02045 0
M  V30 38411 C 3518.83 2.25062 -0.587371 0
M  V30 38412 C 3519.82 1.65179 0.375815 0
M  V30 38413 O 3521.03 1.78321 0.245316 0
M  V30 38414 H 3517.4 0.732148 -0.17165 0
M  V30 38415 H 3519.37 2.58915 -1.48344 0
M  V30 38416 C 3518.12 3.47657 0.0546282 0
M  V30 38417 H 3517.44 3.94017 -0.677526 0
M  V30 38418 H 3518.88 4.22785 0.320712 0
M  V30 38419 C 3517.34 3.10865 1.29863 0
M  V30 38420 O 3517.87 3.2275 2.39156 0
M  V30 38421 N 3516.08 2.65378 1.18419 0
M  V30 38422 H 3515.63 2.55907 0.29485 0
M  V30 38423 H 3515.58 2.41131 2.0175 0
M  V30 38424 N 3519.36 0.797189 1.35951 0
M  V30 38425 C 3520.6 0.37244 1.98639 0
M  V30 38426 C 3520.93 -1.06155 1.63573 0
M  V30 38427 O 3520.2 -1.73295 0.913546 0
M  V30 38428 H 3518.78 0.134723 0.734751 0
M  V30 38429 H 3521.44 1.02095 1.6602 0
M  V30 38430 H 3520.53 0.470545 3.08532 0
M  V30 38431 N 3520.83 -1.47696 0.549872 0
M  V30 38432 C 3521.78 -2.29915 -0.201921 0
M  V30 38433 C 3522.75 -1.38608 -0.915263 0
M  V30 38434 O 3523.94 -1.67571 -0.912398 0
M  V30 38435 C 3521.08 -3.22415 -1.23054 0
M  V30 38436 C 3520.19 -4.2881 -0.524015 0
M  V30 38437 C 3519.32 -5.08469 -1.53729 0
M  V30 38438 C 3518.36 -6.06646 -0.815331 0
M  V30 38439 N 3517.5 -6.7929 -1.77509 0
M  V30 38440 H 3522.34 -2.93684 0.50534 0
M  V30 38441 H 3519.88 -1.44765 0.261038 0
M  V30 38442 H 3521.84 -3.74461 -1.83943 0
M  V30 38443 H 3520.47 -2.60527 -1.90593 0
M  V30 38444 H 3519.52 -3.79878 0.199241 0
M  V30 38445 H 3520.83 -4.98782 0.0419022 0
M  V30 38446 H 3519.98 -5.64628 -2.21991 0
M  V30 38447 H 3518.72 -4.38382 -2.13712 0
M  V30 38448 H 3517.73 -5.49672 -0.118744 0
M  V30 38449 H 3518.95 -6.78739 -0.221343 0
M  V30 38450 H 3516.9 -6.11938 -2.36363 0
M  V30 38451 H 3516.82 -7.45407 -1.26113 0
M  V30 38452 H 3518.08 -7.40027 -2.44908 0
M  V30 38453 N 3522.31 -0.285959 -1.54984 0
M  V30 38454 C 3523.25 0.63841 -2.19088 0
M  V30 38455 C 3524.22 1.14416 -1.15532 0
M  V30 38456 O 3525.41 1.21513 -1.44107 0
M  V30 38457 C 3522.53 1.87183 -2.82277 0
M  V30 38458 C 3521.58 1.50063 -3.99229 0
M  V30 38459 S 3522.41 0.569459 -5.32464 0
M  V30 38460 C 3523.57 1.81101 -5.99127 0
M  V30 38461 H 3523.8 0.0937617 -2.97152 0
M  V30 38462 H 3521.34 -0.0701615 -1.54241 0
M  V30 38463 H 3523.29 2.57974 -3.19312 0
M  V30 38464 H 3521.95 2.38763 -2.04086 0
M  V30 38465 H 3521.15 2.41871 -4.4217 0
M  V30 38466 H 3520.75 0.872808 -3.63673 0
M  V30 38467 H 3523.04 2.75356 -6.1902 0
M  V30 38468 H 3523.98 1.42442 -6.93625 0
M  V30 38469 H 3524.39 1.98089 -5.28603 0
M  V30 38470 N 3523.79 1.57594 -0.0134169 0
M  V30 38471 C 3524.74 2.09258 0.973634 0
M  V30 38472 C 3525.71 0.991022 1.33297 0
M  V30 38473 O 3526.89 1.26428 1.42901 0
M  V30 38474 C 3524.03 2.61151 2.25598 0
M  V30 38475 C 3523.15 3.85258 1.95449 0
M  V30 38476 C 3522.28 4.25601 3.17863 0
M  V30 38477 C 3521.32 5.42509 2.83462 0
M  V30 38478 N 3520.46 5.78082 3.98453 0
M  V30 38479 H 3525.3 2.93319 0.526138 0
M  V30 38480 H 3522.83 1.44992 0.248123 0
M  V30 38481 H 3524.79 2.8932 3.00582 0
M  V30 38482 H 3523.42 1.79944 2.67992 0
M  V30 38483 H 3522.47 3.63914 1.10775 0
M  V30 38484 H 3523.79 4.70331 1.66102 0
M  V30 38485 H 3522.94 4.55124 4.01182 0
M  V30 38486 H 3521.68 3.39263 3.50359 0
M  V30 38487 H 3520.68 5.12696 1.98553 0
M  V30 38488 H 3521.91 6.30533 2.52199 0
M  V30 38489 H 3519.85 4.94701 4.30821 0
M  V30 38490 H 3519.77 6.5776 3.72676 0
M  V30 38491 H 3521.04 6.12204 4.82521 0
M  V30 38492 N 3525.27 -0.259531 1.55448 0
M  V30 38493 C 3526.23 -1.30441 1.88461 0
M  V30 38494 C 3527.23 -1.417 0.760121 0
M  V30 38495 O 3528.42 -1.40618 1.02821 0
M  V30 38496 C 3525.55 -2.68393 2.10185 0
M  V30 38497 H 3526.75 -1.02393 2.81879 0
M  V30 38498 H 3524.3 -0.498236 1.48146 0
M  V30 38499 H 3525.03 -3.01601 1.19194 0
M  V30 38500 H 3524.82 -2.61605 2.9207 0
M  V30 38501 H 3526.31 -3.43865 2.36953 0
M  V30 38502 N 3526.75 -1.48611 -0.524645 0
M  V30 38503 C 3527.99 -1.569 -1.28018 0
M  V30 38504 C 3528.32 -0.245237 -1.92948 0
M  V30 38505 O 3527.58 0.764935 -1.80131 0
M  V30 38506 C 3527.88 -2.65998 -2.38705 0
M  V30 38507 C 3527.54 -4.08264 -1.91393 0
M  V30 38508 C 3526.2 -4.46985 -1.78207 0
M  V30 38509 C 3528.56 -4.97399 -1.55704 0
M  V30 38510 C 3525.88 -5.72639 -1.27677 0
M  V30 38511 C 3528.24 -6.23548 -1.06634 0
M  V30 38512 C 3526.9 -6.6112 -0.920702 0
M  V30 38513 H 3526.17 -0.574138 -0.468451 0
M  V30 38514 H 3528.82 -1.8235 -0.584869 0
M  V30 38515 H 3527.12 -2.34428 -3.13928 0
M  V30 38516 H 3528.82 -2.69625 -2.96822 0
M  V30 38517 H 3525.41 -3.77688 -2.02607 0
M  V30 38518 H 3529.59 -4.68158 -1.64749 0
M  V30 38519 H 3524.85 -6.0047 -1.15092 0
M  V30 38520 H 3529.02 -6.92008 -0.780926 0
M  V30 38521 H 3526.65 -7.58371 -0.526958 0
M  V30 38522 N 3528.22 0.773926 -1.37289 0
M  V30 38523 C 3529.15 1.90111 -1.35573 0
M  V30 38524 C 3530.14 1.6861 -0.224688 0
M  V30 38525 O 3531.32 1.89499 -0.424709 0
M  V30 38526 C 3528.45 3.27363 -1.15977 0
M  V30 38527 C 3527.4 3.63424 -2.26069 0
M  V30 38528 C 3526.73 4.99193 -1.91599 0
M  V30 38529 C 3528.03 3.70399 -3.68242 0
M  V30 38530 H 3529.72 1.91804 -2.29894 0
M  V30 38531 H 3527.27 0.9214 -1.10663 0
M  V30 38532 H 3529.22 4.05853 -1.13407 0
M  V30 38533 H 3527.95 3.26098 -0.1811 0
M  V30 38534 H 3526.61 2.8724 -2.27791 0
M  V30 38535 H 3526.25 4.94465 -0.922673 0
M  V30 38536 H 3525.95 5.2429 -2.65319 0
M  V30 38537 H 3527.48 5.80086 -1.90612 0
M  V30 38538 H 3528.89 4.39045 -3.68662 0
M  V30 38539 H 3527.29 4.06991 -4.40997 0
M  V30 38540 H 3528.36 2.71115 -4.02026 0
M  V30 38541 N 3529.7 1.21823 0.99985 0
M  V30 38542 C 3530.93 1.06549 1.77938 0
M  V30 38543 C 3531.35 -0.380083 1.8422 0
M  V30 38544 O 3530.71 -1.27436 1.28957 0
M  V30 38545 C 3530.76 1.67328 3.19427 0
M  V30 38546 O 3529.86 0.922241 4.01956 0
M  V30 38547 H 3529.2 0.374668 0.548197 0
M  V30 38548 H 3531.73 1.61474 1.25647 0
M  V30 38549 H 3531.74 1.71763 3.70083 0
M  V30 38550 H 3530.42 2.72525 3.1417 0
M  V30 38551 H 3529 0.953373 3.60507 0
M  V30 38552 N 3531.18 -1.1956 1.0268 0
M  V30 38553 C 3532.11 -2.24941 0.626398 0
M  V30 38554 C 3533.09 -1.66169 -0.363583 0
M  V30 38555 O 3534.28 -1.92626 -0.246759 0
M  V30 38556 C 3531.41 -3.4729 -0.0257301 0
M  V30 38557 C 3530.36 -4.18723 0.886311 0
M  V30 38558 C 3529.69 -5.34608 0.099402 0
M  V30 38559 C 3530.99 -4.73748 2.19909 0
M  V30 38560 H 3532.68 -2.58688 1.50734 0
M  V30 38561 H 3530.23 -1.24347 0.726217 0
M  V30 38562 H 3532.18 -4.20202 -0.317471 0
M  V30 38563 H 3530.9 -3.12737 -0.941456 0
M  V30 38564 H 3529.56 -3.4769 1.16221 0
M  V30 38565 H 3529.21 -4.96299 -0.818293 0
M  V30 38566 H 3528.91 -5.83333 0.706878 0
M  V30 38567 H 3530.43 -6.10318 -0.185647 0
M  V30 38568 H 3531.85 -5.38426 1.96902 0
M  V30 38569 H 3530.25 -5.32952 2.75831 0
M  V30 38570 H 3531.32 -3.91929 2.85516 0
M  V30 38571 N 3532.66 -0.804387 -1.35526 0
M  V30 38572 C 3533.62 -0.21889 -2.28152 0
M  V30 38573 C 3534.62 0.592484 -1.49487 0
M  V30 38574 O 3535.81 0.411289 -1.69275 0
M  V30 38575 C 3532.94 0.695136 -3.33737 0
M  V30 38576 H 3534.14 -1.03581 -2.81445 0
M  V30 38577 H 3531.69 -0.574879 -1.45344 0
M  V30 38578 H 3532.42 1.53582 -2.85627 0
M  V30 38579 H 3532.21 0.115074 -3.91931 0
M  V30 38580 H 3533.7 1.09918 -4.02874 0
M  V30 38581 N 3534.14 1.47403 -0.557697 0
M  V30 38582 C 3535.55 1.58111 -0.217501 0
M  V30 38583 C 3535.75 1.55624 1.27997 0
M  V30 38584 O 3534.81 1.45991 2.06016 0
M  V30 38585 C 3536.12 2.88595 -0.844586 0
M  V30 38586 C 3537.67 3.0218 -0.81586 0
M  V30 38587 C 3538.15 4.35365 -1.42202 0
M  V30 38588 N 3539.64 4.42002 -1.38523 0
M  V30 38589 C 3540.37 5.4362 -1.82387 0
M  V30 38590 N 3539.87 6.52046 -2.3411 0
M  V30 38591 N 3541.66 5.34668 -1.73455 0
M  V30 38592 H 3533.81 1.47262 -1.53061 0
M  V30 38593 H 3536.07 0.700896 -0.638317 0
M  V30 38594 H 3535.78 2.96153 -1.89701 0
M  V30 38595 H 3535.65 3.75683 -0.33791 0
M  V30 38596 H 3538.04 2.94219 0.227874 0
M  V30 38597 H 3538.12 2.16632 -1.3603 0
M  V30 38598 H 3537.77 4.44082 -2.46483 0
M  V30 38599 H 3537.7 5.19645 -0.853024 0
M  V30 38600 H 3540.19 3.64239 -1.0069 0
M  V30 38601 H 3540.5 7.25761 -2.65502 0
M  V30 38602 H 3538.85 6.52935 -2.38121 0
M  V30 38603 H 3542.04 4.4886 -1.32824 0
M  V30 38604 H 3542.21 6.13724 -2.07958 0
M  V30 38605 N 3535.62 0.294175 1.5483 0
M  V30 38606 C 3536.86 -0.3171 2.00002 0
M  V30 38607 C 3537.19 -1.54419 1.18259 0
M  V30 38608 O 3536.45 -1.94159 0.245069 0
M  V30 38609 C 3536.74 -0.724888 3.49972 0
M  V30 38610 C 3536.41 0.399695 4.49125 0
M  V30 38611 C 3535.07 0.708438 4.75957 0
M  V30 38612 C 3537.42 1.15653 5.08206 0
M  V30 38613 C 3534.75 1.77726 5.59134 0
M  V30 38614 C 3537.1 2.21522 5.92546 0
M  V30 38615 C 3535.77 2.5301 6.17691 0
M  V30 38616 H 3535.04 -0.116035 0.731858 0
M  V30 38617 H 3537.69 0.411853 1.87019 0
M  V30 38618 H 3535.99 -1.53382 3.60529 0
M  V30 38619 H 3537.69 -1.20892 3.82343 0
M  V30 38620 H 3534.28 0.148953 4.28341 0
M  V30 38621 H 3538.46 0.931264 4.87485 0
M  V30 38622 H 3533.72 2.02603 5.76855 0
M  V30 38623 H 3537.89 2.80629 6.37354 0
M  V30 38624 H 3535.52 3.35963 6.81933 0
M  V30 38625 N 3537.09 -1.57585 0.0217743 0
M  V30 38626 C 3538.32 -1.96197 -0.672425 0
M  V30 38627 C 3538.74 -0.897856 -1.65288 0
M  V30 38628 O 3538.1 0.14197 -1.80743 0
M  V30 38629 C 3538.15 -3.33907 -1.36156 0
M  V30 38630 O 3537.25 -3.29751 -2.47665 0
M  V30 38631 H 3536.59 -0.639911 -0.177227 0
M  V30 38632 H 3539.12 -2.04438 0.0814433 0
M  V30 38633 H 3539.13 -3.69971 -1.72003 0
M  V30 38634 H 3537.81 -4.10902 -0.64282 0
M  V30 38635 H 3536.39 -3.05394 -2.13984 0
M  V30 38636 N 3538.57 0.251283 -1.55584 0
M  V30 38637 C 3539.85 1.00251 -1.67956 0
M  V30 38638 C 3540.23 2.03527 -0.560362 0
M  V30 38639 O 3539.58 2.24287 0.436771 0
M  V30 38640 C 3539.79 1.6398 -3.08077 0
M  V30 38641 C 3541.13 2.1433 -3.66535 0
M  V30 38642 O 3542.16 1.73928 -3.10849 0
M  V30 38643 O 3541.02 2.88498 -4.64146 0
M  V30 38644 H 3538.11 0.466363 -0.68296 0
M  V30 38645 H 3540.66 0.245417 -1.67916 0
M  V30 38646 H 3539.43 0.89256 -3.80984 0
M  V30 38647 H 3539.05 2.4632 -3.12109 0
M  V30 38648 N 3540.05 1.48887 0.516757 0
M  V30 38649 C 3541.28 1.6126 1.29625 0
M  V30 38650 C 3541.69 0.277893 1.86744 0
M  V30 38651 O 3541.05 -0.73461 1.67062 0
M  V30 38652 C 3541.1 2.66939 2.43774 0
M  V30 38653 O 3540.82 3.95232 1.89007 0
M  V30 38654 C 3542.32 2.89873 3.35393 0
M  V30 38655 H 3539.54 0.543342 0.393726 0
M  V30 38656 H 3542.09 1.9481 0.622035 0
M  V30 38657 H 3540.24 2.36211 3.07055 0
M  V30 38658 H 3540.66 4.53317 2.63825 0
M  V30 38659 H 3542.13 3.67588 4.11805 0
M  V30 38660 H 3542.61 1.99192 3.91432 0
M  V30 38661 H 3543.21 3.21957 2.77892 0
M  V30 38662 N 3541.53 -0.766635 1.37697 0
M  V30 38663 C 3542.46 -1.88936 1.29753 0
M  V30 38664 C 3543.47 -1.6141 0.212307 0
M  V30 38665 O 3544.66 -1.72232 0.468855 0
M  V30 38666 C 3541.76 -3.24282 0.98461 0
M  V30 38667 C 3540.93 -3.79414 2.17632 0
M  V30 38668 C 3539.99 -4.93246 1.83288 0
M  V30 38669 O 3539.02 -5.08563 2.5564 0
M  V30 38670 N 3540.22 -5.75235 0.780042 0
M  V30 38671 H 3542.99 -1.96265 2.26495 0
M  V30 38672 H 3540.55 -0.945978 1.31388 0
M  V30 38673 H 3542.54 -3.97958 0.735606 0
M  V30 38674 H 3541.11 -3.12422 0.105582 0
M  V30 38675 H 3540.33 -2.97456 2.58677 0
M  V30 38676 H 3541.62 -4.1298 2.97195 0
M  V30 38677 H 3541.02 -5.65414 0.17976 0
M  V30 38678 H 3539.57 -6.49116 0.590904 0
M  V30 38679 N 3543.01 -1.22351 -0.993375 0
M  V30 38680 C 3544.24 -1.07253 -1.76579 0
M  V30 38681 C 3544.64 0.37989 -1.85347 0
M  V30 38682 O 3543.99 1.27505 -1.32243 0
M  V30 38683 C 3544.05 -1.60835 -3.21516 0
M  V30 38684 C 3543.71 -3.09443 -3.36295 0
M  V30 38685 C 3544.71 -4.06876 -3.23648 0
M  V30 38686 C 3542.39 -3.48888 -3.61362 0
M  V30 38687 C 3544.39 -5.41741 -3.35851 0
M  V30 38688 C 3542.08 -4.83902 -3.73205 0
M  V30 38689 C 3543.07 -5.80137 -3.60458 0
M  V30 38690 O 3542.76 -7.12699 -3.71907 0
M  V30 38691 H 3542.49 -0.376571 -0.5614 0
M  V30 38692 H 3545.05 -1.62396 -1.25765 0
M  V30 38693 H 3543.28 -1.001 -3.7352 0
M  V30 38694 H 3544.97 -1.41406 -3.80472 0
M  V30 38695 H 3545.73 -3.77745 -3.04194 0
M  V30 38696 H 3541.61 -2.74507 -3.7036 0
M  V30 38697 H 3545.16 -6.16837 -3.25818 0
M  V30 38698 H 3541.05 -5.12714 -3.92166 0
M  V30 38699 H 3541.82 -7.20271 -3.88783 0
M  V30 38700 N 3544.48 1.19014 -1.03313 0
M  V30 38701 C 3545.42 2.21852 -0.575694 0
M  V30 38702 C 3546.43 1.58978 0.350678 0
M  V30 38703 O 3547.62 1.77899 0.146394 0
M  V30 38704 C 3544.72 3.38422 0.17989 0
M  V30 38705 C 3543.89 4.30879 -0.752479 0
M  V30 38706 C 3542.95 5.26184 -0.0415409 0
M  V30 38707 O 3541.98 5.65249 -0.669503 0
M  V30 38708 N 3543.18 5.67368 1.22773 0
M  V30 38709 H 3545.94 2.61723 -1.46017 0
M  V30 38710 H 3543.5 1.33723 -0.912679 0
M  V30 38711 H 3545.5 3.99196 0.66515 0
M  V30 38712 H 3544.07 2.97305 0.965827 0
M  V30 38713 H 3543.29 3.67823 -1.41775 0
M  V30 38714 H 3544.57 4.89558 -1.38601 0
M  V30 38715 H 3543.97 5.37671 1.75858 0
M  V30 38716 H 3542.53 6.30375 1.65741 0
M  V30 38717 N 3545.96 0.811563 1.35098 0
M  V30 38718 C 3547.38 0.49591 1.517 0
M  V30 38719 C 3547.58 -0.982004 1.75951 0
M  V30 38720 O 3546.63 -1.76687 1.80383 0
M  V30 38721 C 3547.95 1.34559 2.68913 0
M  V30 38722 C 3549.49 1.34154 2.82793 0
M  V30 38723 C 3549.97 2.17545 4.03036 0
M  V30 38724 N 3551.46 2.15108 4.10223 0
M  V30 38725 C 3552.2 2.76386 5.02392 0
M  V30 38726 N 3551.69 3.46611 5.9986 0
M  V30 38727 N 3553.48 2.66001 4.95177 0
M  V30 38728 H 3545.64 1.76864 1.17614 0
M  V30 38729 H 3547.9 0.753052 0.575862 0
M  V30 38730 H 3547.6 2.39462 2.57586 0
M  V30 38731 H 3547.48 1.0023 3.6364 0
M  V30 38732 H 3549.87 0.300336 2.93568 0
M  V30 38733 H 3549.95 1.72474 1.88909 0
M  V30 38734 H 3549.59 3.21708 3.93022 0
M  V30 38735 H 3549.52 1.76583 4.96111 0
M  V30 38736 H 3552.01 1.64016 3.40451 0
M  V30 38737 H 3552.32 3.90643 6.66796 0
M  V30 38738 H 3550.67 3.50716 6.00019 0
M  V30 38739 H 3553.86 2.10723 4.17988 0
M  V30 38740 H 3554.03 3.14046 5.66815 0
M  V30 38741 N 3547.44 -1.47105 0.565506 0
M  V30 38742 C 3548.69 -2.01655 0.0423685 0
M  V30 38743 C 3549 -1.44445 -1.3189 0
M  V30 38744 O 3550.21 -1.90709 -1.93241 0
M  V30 38745 C 3548.66 -3.59891 0.0252188 0
M  V30 38746 C 3548.27 -4.26094 1.38375 0
M  V30 38747 C 3550.02 -4.22162 -0.444876 0
M  V30 38748 C 3547.92 -5.7636 1.32526 0
M  V30 38749 H 3546.85 -0.753903 0.0120689 0
M  V30 38750 H 3549.5 -1.69014 0.714595 0
M  V30 38751 H 3547.89 -3.89532 -0.712825 0
M  V30 38752 H 3549.06 -4.08086 2.14016 0
M  V30 38753 H 3547.37 -3.75846 1.79245 0
M  V30 38754 H 3549.97 -5.32289 -0.507163 0
M  V30 38755 H 3550.31 -3.89907 -1.45869 0
M  V30 38756 H 3550.85 -3.97084 0.238566 0
M  V30 38757 H 3547.59 -6.13247 2.31534 0
M  V30 38758 H 3547.11 -5.96682 0.610779 0
M  V30 38759 H 3548.79 -6.38735 1.03084 0
M  V30 38760 N 3548.92 -0.302382 -1.54672 0
M  V30 38761 C 3549.83 0.582538 -2.27252 0
M  V30 38762 C 3550.84 1.14725 -1.30821 0
M  V30 38763 O 3552.02 1.17174 -1.63805 0
M  V30 38764 C 3549.09 1.73751 -3.00019 0
M  V30 38765 C 3548.15 1.20675 -4.1199 0
M  V30 38766 C 3547.38 2.30668 -4.81278 0
M  V30 38767 O 3547.6 3.50594 -4.49934 0
M  V30 38768 O 3546.54 1.97281 -5.68651 0
M  V30 38769 H 3550.36 -0.00626703 -3.03699 0
M  V30 38770 H 3547.95 -0.0687946 -1.49242 0
M  V30 38771 H 3549.83 2.41039 -3.45656 0
M  V30 38772 H 3548.5 2.3129 -2.26466 0
M  V30 38773 H 3547.41 0.499559 -3.7075 0
M  V30 38774 H 3548.74 0.676772 -4.87525 0
M  V30 38775 N 3550.4 1.57571 -0.0301311 0
M  V30 38776 C 3551.34 2.11437 0.969388 0
M  V30 38777 C 3552.34 1.04118 1.33625 0
M  V30 38778 O 3553.54 1.22552 1.31837 0
M  V30 38779 H 3549.92 0.675532 0.330395 0
M  V30 38780 H 3551.89 2.94353 0.489776 0
M  V30 38781 C 3550.64 2.65738 2.24228 0
M  V30 38782 H 3549.96 3.47967 1.96874 0
M  V30 38783 H 3551.4 3.07073 2.92373 0
M  V30 38784 C 3549.86 1.58529 2.97271 0
M  V30 38785 O 3550.39 0.985709 3.89418 0
M  V30 38786 N 3548.6 1.3055 2.59625 0
M  V30 38787 H 3548.14 1.79494 1.84769 0
M  V30 38788 H 3548.1 0.590426 3.08806 0
M  V30 38789 N 3551.87 -0.243029 1.55715 0
M  V30 38790 C 3553.1 -0.986545 1.81524 0
M  V30 38791 C 3553.51 -1.79297 0.604083 0
M  V30 38792 O 3552.86 -1.78434 -0.436709 0
M  V30 38793 C 3552.92 -1.96962 3.00743 0
M  V30 38794 C 3552.58 -1.34976 4.36613 0
M  V30 38795 C 3553.58 -0.75031 5.14457 0
M  V30 38796 C 3551.26 -1.36796 4.83314 0
M  V30 38797 C 3553.26 -0.177326 6.37153 0
M  V30 38798 C 3550.94 -0.791126 6.05957 0
M  V30 38799 C 3551.94 -0.196839 6.82716 0
M  V30 38800 O 3551.63 0.371079 8.03043 0
M  V30 38801 H 3551.36 -0.295754 0.60787 0
M  V30 38802 H 3553.92 -0.269983 2.03618 0
M  V30 38803 H 3552.15 -2.72459 2.74414 0
M  V30 38804 H 3553.84 -2.57689 3.1361 0
M  V30 38805 H 3554.6 -0.728725 4.79494 0
M  V30 38806 H 3550.48 -1.81992 4.23556 0
M  V30 38807 H 3554.02 0.287164 6.97009 0
M  V30 38808 H 3549.92 -0.810051 6.40397 0
M  V30 38809 H 3550.69 0.263317 8.18076 0
M  V30 38810 N 3553.35 -1.49159 -0.508854 0
M  V30 38811 C 3554.29 -1.59843 -1.62867 0
M  V30 38812 C 3555.26 -0.447837 -1.56311 0
M  V30 38813 O 3556.45 -0.662323 -1.76481 0
M  V30 38814 C 3553.57 -1.54608 -3.01354 0
M  V30 38815 C 3552.62 -2.74768 -3.26197 0
M  V30 38816 S 3553.45 -4.36525 -3.10171 0
M  V30 38817 C 3554.61 -4.33923 -4.51067 0
M  V30 38818 H 3554.84 -2.54573 -1.53558 0
M  V30 38819 H 3552.38 -1.37953 -0.693424 0
M  V30 38820 H 3554.33 -1.52274 -3.81212 0
M  V30 38821 H 3552.99 -0.611791 -3.08084 0
M  V30 38822 H 3552.19 -2.67303 -4.27276 0
M  V30 38823 H 3551.79 -2.74474 -2.54047 0
M  V30 38824 H 3554.08 -4.05159 -5.43003 0
M  V30 38825 H 3555.02 -5.35253 -4.63583 0
M  V30 38826 H 3555.43 -3.64105 -4.31379 0
M  V30 38827 N 3554.83 0.759322 -1.38102 0
M  V30 38828 C 3555.78 1.87294 -1.34869 0
M  V30 38829 C 3556.75 1.64739 -0.212168 0
M  V30 38830 O 3557.93 1.86485 -0.403497 0
M  V30 38831 C 3555.07 3.24521 -1.17389 0
M  V30 38832 C 3554.19 3.58946 -2.40379 0
M  V30 38833 C 3553.32 4.85447 -2.15673 0
M  V30 38834 C 3552.36 5.1264 -3.34464 0
M  V30 38835 N 3551.5 6.30334 -3.09231 0
M  V30 38836 H 3556.34 1.89392 -2.30076 0
M  V30 38837 H 3553.87 0.925768 -1.14315 0
M  V30 38838 H 3555.83 4.037 -1.05271 0
M  V30 38839 H 3554.46 3.21765 -0.258239 0
M  V30 38840 H 3553.51 2.74655 -2.6319 0
M  V30 38841 H 3554.83 3.74973 -3.28933 0
M  V30 38842 H 3553.98 5.72557 -2.00659 0
M  V30 38843 H 3552.72 4.71548 -1.24475 0
M  V30 38844 H 3551.72 4.24001 -3.50004 0
M  V30 38845 H 3552.95 5.2844 -4.2653 0
M  V30 38846 H 3550.89 6.17769 -2.20675 0
M  V30 38847 H 3550.81 6.46834 -3.91333 0
M  V30 38848 H 3552.08 7.20347 -2.9786 0
M  V30 38849 N 3556.31 1.22876 0.986873 0
M  V30 38850 C 3557.53 1.0843 1.76798 0
M  V30 38851 C 3557.96 -0.360522 1.84613 0
M  V30 38852 O 3557.32 -1.26061 1.30301 0
M  V30 38853 C 3557.36 1.70706 3.17635 0
M  V30 38854 O 3556.47 0.964822 4.00955 0
M  V30 38855 H 3555.81 0.380461 0.544192 0
M  V30 38856 H 3558.34 1.62798 1.23928 0
M  V30 38857 H 3558.35 1.75679 3.6824 0
M  V30 38858 H 3557.02 2.75842 3.11262 0
M  V30 38859 H 3555.6 0.991556 3.59475 0
M  V30 38860 N 3557.79 -1.18464 1.03942 0
M  V30 38861 C 3559.01 -1.92896 0.76196 0
M  V30 38862 C 3559.44 -1.75587 -0.674587 0
M  V30 38863 O 3558.79 -1.06518 -1.46709 0
M  V30 38864 C 3558.84 -3.42385 1.13158 0
M  V30 38865 O 3557.95 -4.11603 0.256339 0
M  V30 38866 H 3557.29 -0.601826 0.280538 0
M  V30 38867 H 3559.82 -1.50233 1.38893 0
M  V30 38868 H 3559.83 -3.93088 1.09297 0
M  V30 38869 H 3558.5 -3.54304 2.1781 0
M  V30 38870 H 3557.08 -3.71212 0.354457 0
M  V30 38871 N 3559.26 -0.818716 -1.34665 0
M  V30 38872 C 3560.17 -0.23947 -2.33375 0
M  V30 38873 C 3561.19 0.623928 -1.62429 0
M  V30 38874 O 3562.37 0.53282 -1.94224 0
M  V30 38875 C 3559.43 0.59252 -3.41599 0
M  V30 38876 C 3558.49 -0.292788 -4.283 0
M  V30 38877 C 3557.73 0.499589 -5.31357 0
M  V30 38878 O 3557.95 1.73324 -5.43429 0
M  V30 38879 O 3556.88 -0.115884 -6.01788 0
M  V30 38880 H 3560.71 -1.05636 -2.84736 0
M  V30 38881 H 3558.29 -0.580765 -1.3765 0
M  V30 38882 H 3560.18 1.066 -4.07694 0
M  V30 38883 H 3558.85 1.3868 -2.92488 0
M  V30 38884 H 3557.76 -0.813674 -3.65144 0
M  V30 38885 H 3559.09 -1.05132 -4.80841 0
M  V30 38886 N 3560.74 1.46803 -0.573299 0
M  V30 38887 C 3561.99 2.02424 -0.0552969 0
M  V30 38888 C 3562.32 1.44587 1.30095 0
M  V30 38889 O 3561.57 0.597199 1.86365 0
M  V30 38890 C 3561.87 3.57331 0.0703657 0
M  V30 38891 C 3561.54 4.34164 -1.21707 0
M  V30 38892 C 3560.2 4.54874 -1.56981 0
M  V30 38893 C 3562.55 4.78354 -2.06947 0
M  V30 38894 C 3559.88 5.17025 -2.77312 0
M  V30 38895 C 3562.23 5.41834 -3.26495 0
M  V30 38896 C 3560.9 5.60773 -3.62063 0
M  V30 38897 H 3560.17 0.740724 -0.0202346 0
M  V30 38898 H 3562.81 1.76285 -0.748047 0
M  V30 38899 H 3561.12 3.82553 0.846187 0
M  V30 38900 H 3562.81 3.98035 0.486771 0
M  V30 38901 H 3559.4 4.18334 -0.932448 0
M  V30 38902 H 3563.59 4.62117 -1.81001 0
M  V30 38903 H 3558.84 5.29881 -3.05018 0
M  V30 38904 H 3563.02 5.75035 -3.92821 0
M  V30 38905 H 3560.65 6.08703 -4.55396 0
M  V30 38906 N 3562.22 0.31058 1.54509 0
M  V30 38907 C 3563.13 -0.570478 2.27558 0
M  V30 38908 C 3564.15 -1.14029 1.31428 0
M  V30 38909 O 3565.32 -1.16304 1.64425 0
M  V30 38910 C 3562.39 -1.72158 3.00936 0
M  V30 38911 C 3561.45 -1.18488 4.12625 0
M  V30 38912 C 3560.68 -2.28112 4.82494 0
M  V30 38913 O 3560.9 -3.48203 4.51786 0
M  V30 38914 O 3559.84 -1.94263 5.69689 0
M  V30 38915 H 3563.66 0.0223729 3.03692 0
M  V30 38916 H 3561.25 0.0767083 1.49203 0
M  V30 38917 H 3563.13 -2.39202 3.4693 0
M  V30 38918 H 3561.81 -2.30086 2.27689 0
M  V30 38919 H 3560.71 -0.479891 3.71009 0
M  V30 38920 H 3562.05 -0.650908 4.87877 0
M  V30 38921 N 3563.7 -1.57553 0.0384871 0
M  V30 38922 C 3564.65 -2.11948 -0.958161 0
M  V30 38923 C 3565.64 -1.04825 -1.33071 0
M  V30 38924 O 3566.85 -1.2325 -1.31185 0
M  V30 38925 H 3563.22 -0.677275 -0.326808 0
M  V30 38926 H 3565.19 -2.94609 -0.474159 0
M  V30 38927 C 3563.94 -2.66924 -2.22816 0
M  V30 38928 H 3563.27 -3.49006 -1.95026 0
M  V30 38929 H 3564.71 -3.08619 -2.9074 0
M  V30 38930 C 3563.16 -1.60103 -2.96426 0
M  V30 38931 O 3563.69 -1.00635 -3.8889 0
M  V30 38932 N 3561.9 -1.31925 -2.58929 0
M  V30 38933 H 3561.45 -1.80471 -1.83815 0
M  V30 38934 H 3561.41 -0.606794 -3.08489 0
M  V30 38935 N 3565.18 0.234767 -1.55842 0
M  V30 38936 C 3566.12 1.29082 -1.91328 0
M  V30 38937 C 3567.09 1.47232 -0.768894 0
M  V30 38938 O 3568.28 1.61017 -1.02363 0
M  V30 38939 C 3565.42 2.63886 -2.22392 0
M  V30 38940 C 3564.53 2.53644 -3.49698 0
M  V30 38941 C 3563.67 3.80882 -3.70273 0
M  V30 38942 C 3562.71 3.65308 -4.91138 0
M  V30 38943 N 3561.84 4.84465 -5.08171 0
M  V30 38944 H 3566.68 0.981197 -2.81383 0
M  V30 38945 H 3564.22 0.473215 -1.39281 0
M  V30 38946 H 3566.18 3.42369 -2.3841 0
M  V30 38947 H 3564.81 2.92972 -1.35526 0
M  V30 38948 H 3563.86 1.66666 -3.41945 0
M  V30 38949 H 3565.17 2.38051 -4.3833 0
M  V30 38950 H 3564.33 4.67808 -3.86316 0
M  V30 38951 H 3563.07 3.99386 -2.79897 0
M  V30 38952 H 3562.07 2.76765 -4.75059 0
M  V30 38953 H 3563.3 3.48288 -5.82986 0
M  V30 38954 H 3561.24 5.03307 -4.20735 0
M  V30 38955 H 3561.16 4.71549 -5.90913 0
M  V30 38956 H 3562.43 5.72855 -5.28637 0
M  V30 38957 N 3566.66 1.49427 0.500936 0
M  V30 38958 C 3567.59 1.6222 1.61917 0
M  V30 38959 C 3568.6 0.504895 1.54773 0
M  V30 38960 O 3569.79 0.776947 1.60704 0
M  V30 38961 C 3566.89 1.56296 3.00707 0
M  V30 38962 C 3566.06 2.83561 3.33035 0
M  V30 38963 C 3565.12 2.70688 4.51236 0
M  V30 38964 O 3564.15 3.44623 4.53016 0
M  V30 38965 N 3565.35 1.82238 5.51153 0
M  V30 38966 H 3568.11 2.58664 1.5137 0
M  V30 38967 H 3565.68 1.46516 0.688811 0
M  V30 38968 H 3567.67 1.45339 3.77702 0
M  V30 38969 H 3566.24 0.677097 3.05179 0
M  V30 38970 H 3565.46 3.08869 2.44936 0
M  V30 38971 H 3566.75 3.67932 3.51431 0
M  V30 38972 H 3566.14 1.21427 5.52514 0
M  V30 38973 H 3564.7 1.77203 6.2725 0
M  V30 38974 N 3568.13 -0.751987 1.38502 0
M  V30 38975 C 3569.1 -1.84741 1.35659 0
M  V30 38976 C 3570.1 -1.58736 0.2568 0
M  V30 38977 O 3571.29 -1.66451 0.513778 0
M  V30 38978 C 3568.42 -3.22241 1.11236 0
M  V30 38979 H 3569.61 -1.8867 2.33117 0
M  V30 38980 H 3567.16 -0.95386 1.23819 0
M  V30 38981 H 3567.9 -3.23981 0.143905 0
M  V30 38982 H 3567.68 -3.42511 1.90863 0
M  V30 38983 H 3569.17 -4.02316 1.11946 0
M  V30 38984 N 3569.61 -1.23398 -0.980343 0
M  V30 38985 C 3570.54 -1.03964 -2.09078 0
M  V30 38986 C 3571.52 0.0434647 -1.70044 0
M  V30 38987 O 3572.71 -0.121189 -1.93821 0
M  V30 38988 C 3569.84 -0.630121 -3.41536 0
M  V30 38989 C 3568.79 -1.66058 -3.94473 0
M  V30 38990 C 3568.12 -1.1065 -5.23126 0
M  V30 38991 C 3569.42 -3.05361 -4.23736 0
M  V30 38992 H 3571.11 -1.96844 -2.25594 0
M  V30 38993 H 3568.66 -0.947829 -1.08408 0
M  V30 38994 H 3570.61 -0.481218 -4.18643 0
M  V30 38995 H 3569.33 0.334358 -3.24884 0
M  V30 38996 H 3567.99 -1.79747 -3.1951 0
M  V30 38997 H 3567.64 -0.133002 -5.02824 0
M  V30 38998 H 3567.34 -1.79501 -5.59511 0
M  V30 38999 H 3568.87 -0.96945 -6.02855 0
M  V30 39000 H 3570.28 -2.94973 -4.91593 0
M  V30 39001 H 3568.68 -3.71451 -4.71322 0
M  V30 39002 H 3569.75 -3.54349 -3.31006 0
M  V30 39003 N 3571.09 1.17911 -1.04569 0
M  V30 39004 C 3572.02 2.23916 -0.662105 0
M  V30 39005 C 3573 1.66726 0.337101 0
M  V30 39006 O 3574.19 1.92994 0.216082 0
M  V30 39007 C 3571.32 3.47287 -0.029524 0
M  V30 39008 C 3570.27 4.17259 -0.952814 0
M  V30 39009 C 3569.6 5.34382 -0.184441 0
M  V30 39010 C 3570.9 4.7019 -2.27418 0
M  V30 39011 H 3572.59 2.56257 -1.5483 0
M  V30 39012 H 3570.14 1.23176 -0.745908 0
M  V30 39013 H 3572.09 4.20654 0.25058 0
M  V30 39014 H 3570.81 3.14195 0.891583 0
M  V30 39015 H 3569.47 3.45797 -1.21738 0
M  V30 39016 H 3569.12 4.97538 0.739232 0
M  V30 39017 H 3568.82 5.82134 -0.799592 0
M  V30 39018 H 3570.34 6.10536 0.0885271 0
M  V30 39019 H 3571.76 5.35225 -2.05443 0
M  V30 39020 H 3570.15 5.28496 -2.84275 0
M  V30 39021 H 3571.22 3.87337 -2.91715 0
M  V30 39022 N 3572.57 0.825847 1.34229 0
M  V30 39023 C 3573.51 0.247764 2.29466 0
M  V30 39024 C 3574.48 -0.6291 1.53726 0
M  V30 39025 O 3575.67 -0.570124 1.82083 0
M  V30 39026 C 3572.81 -0.581952 3.40158 0
M  V30 39027 C 3571.92 0.317482 4.30832 0
M  V30 39028 C 3571.06 -0.522083 5.28628 0
M  V30 39029 C 3570.1 0.376555 6.10941 0
M  V30 39030 N 3569.23 -0.424109 7.00818 0
M  V30 39031 H 3574.07 1.06526 2.7831 0
M  V30 39032 H 3571.61 0.536812 1.36955 0
M  V30 39033 H 3573.57 -1.07836 4.03023 0
M  V30 39034 H 3572.2 -1.36453 2.92541 0
M  V30 39035 H 3571.25 0.932119 3.68803 0
M  V30 39036 H 3572.56 1.00835 4.88502 0
M  V30 39037 H 3571.72 -1.08284 5.96958 0
M  V30 39038 H 3570.46 -1.24644 4.71503 0
M  V30 39039 H 3569.46 0.949436 5.4154 0
M  V30 39040 H 3570.69 1.09907 6.70147 0
M  V30 39041 H 3568.63 -1.13209 6.46158 0
M  V30 39042 H 3568.55 0.208308 7.55713 0
M  V30 39043 H 3569.82 -0.967528 7.73472 0
M  V30 39044 N 3574.05 -1.46497 0.581077 0
M  V30 39045 C 3575.46 -1.57745 0.242627 0
M  V30 39046 C 3575.66 -1.57641 -1.25505 0
M  V30 39047 O 3574.72 -1.4925 -2.03668 0
M  V30 39048 C 3576.03 -2.87215 0.890392 0
M  V30 39049 C 3577.58 -3.00844 0.863831 0
M  V30 39050 C 3578.05 -4.33047 1.49111 0
M  V30 39051 N 3579.54 -4.39742 1.45537 0
M  V30 39052 C 3580.28 -5.40649 1.91013 0
M  V30 39053 N 3579.78 -6.48239 2.44454 0
M  V30 39054 N 3581.57 -5.31841 1.81939 0
M  V30 39055 H 3573.72 -1.44808 1.55384 0
M  V30 39056 H 3575.98 -0.690652 0.649387 0
M  V30 39057 H 3575.69 -2.93097 1.94388 0
M  V30 39058 H 3575.56 -3.75098 0.397635 0
M  V30 39059 H 3577.95 -2.94544 -0.181037 0
M  V30 39060 H 3578.03 -2.14441 1.39459 0
M  V30 39061 H 3577.67 -4.40104 2.53517 0
M  V30 39062 H 3577.6 -5.18222 0.935587 0
M  V30 39063 H 3580.1 -3.62591 1.06472 0
M  V30 39064 H 3580.41 -7.21445 2.77015 0
M  V30 39065 H 3578.75 -6.49064 2.48478 0
M  V30 39066 H 3581.94 -4.4669 1.39948 0
M  V30 39067 H 3582.12 -6.10338 2.17696 0
M  V30 39068 N 3575.52 -0.31877 -1.54343 0
M  V30 39069 C 3576.49 0.53664 -2.22829 0
M  V30 39070 C 3577.49 1.04733 -1.22015 0
M  V30 39071 O 3578.68 0.940523 -1.46628 0
M  V30 39072 C 3575.81 1.74488 -2.9286 0
M  V30 39073 H 3577 -0.0619852 -2.99836 0
M  V30 39074 H 3574.55 -0.0697961 -1.56144 0
M  V30 39075 H 3575.29 2.38286 -2.19977 0
M  V30 39076 H 3575.07 1.38615 -3.66781 0
M  V30 39077 H 3576.56 2.35219 -3.45053 0
M  V30 39078 N 3577 1.5753 -0.0468419 0
M  V30 39079 C 3577.95 2.11276 0.929028 0
M  V30 39080 C 3578.92 1.01907 1.31164 0
M  V30 39081 O 3580.1 1.2943 1.40187 0
M  V30 39082 C 3577.24 2.65877 2.20008 0
M  V30 39083 C 3576.36 3.89317 1.87233 0
M  V30 39084 C 3575.49 4.32248 3.08764 0
M  V30 39085 C 3574.53 5.48399 2.71891 0
M  V30 39086 N 3573.67 5.86404 3.86102 0
M  V30 39087 H 3578.51 2.94369 0.463802 0
M  V30 39088 H 3576.04 1.45486 0.217312 0
M  V30 39089 H 3578 2.95631 2.94378 0
M  V30 39090 H 3576.63 1.85589 2.64115 0
M  V30 39091 H 3575.68 3.66181 1.0303 0
M  V30 39092 H 3577 4.73749 1.56088 0
M  V30 39093 H 3576.15 4.63532 3.91438 0
M  V30 39094 H 3574.89 3.46619 3.43084 0
M  V30 39095 H 3573.89 5.16792 1.87633 0
M  V30 39096 H 3575.12 6.35741 2.38768 0
M  V30 39097 H 3573.07 5.03728 4.20231 0
M  V30 39098 H 3572.98 6.65517 3.58641 0
M  V30 39099 H 3574.25 6.22301 4.69427 0
M  V30 39100 N 3578.48 -0.226499 1.55964 0
M  V30 39101 C 3579.39 -1.30175 1.95171 0
M  V30 39102 C 3580.41 -1.51553 0.854858 0
M  V30 39103 O 3581.58 -1.64779 1.15801 0
M  V30 39104 C 3578.65 -2.63245 2.25617 0
M  V30 39105 C 3577.71 -2.50212 3.48844 0
M  V30 39106 C 3576.94 -3.76937 3.77828 0
M  V30 39107 O 3577.16 -4.79734 3.08564 0
M  V30 39108 O 3576.1 -3.74345 4.71327 0
M  V30 39109 H 3579.92 -0.999095 2.86796 0
M  V30 39110 H 3577.51 -0.428955 1.4311 0
M  V30 39111 H 3579.39 -3.41844 2.46416 0
M  V30 39112 H 3578.07 -2.93201 1.37167 0
M  V30 39113 H 3576.97 -1.69831 3.33329 0
M  V30 39114 H 3578.31 -2.25197 4.37661 0
M  V30 39115 N 3579.96 -1.4969 -0.493005 0
M  V30 39116 C 3580.87 -1.69697 -1.61988 0
M  V30 39117 C 3581.88 -0.579669 -1.6406 0
M  V30 39118 O 3583.06 -0.855355 -1.82334 0
M  V30 39119 C 3580.13 -1.76653 -2.9832 0
M  V30 39120 C 3579.19 -3.00276 -3.0681 0
M  V30 39121 C 3578.42 -3.06891 -4.36639 0
M  V30 39122 O 3578.64 -2.20881 -5.25897 0
M  V30 39123 O 3577.58 -3.99427 -4.50268 0
M  V30 39124 H 3581.4 -2.65177 -1.48037 0
M  V30 39125 H 3578.99 -1.33526 -0.670159 0
M  V30 39126 H 3580.87 -1.83536 -3.79332 0
M  V30 39127 H 3579.54 -0.843537 -3.12516 0
M  V30 39128 H 3578.45 -2.98907 -2.24956 0
M  V30 39129 H 3579.78 -3.92082 -2.97544 0
M  V30 39130 N 3581.44 0.744631 -1.38899 0
M  V30 39131 C 3582.68 1.50621 -1.35798 0
M  V30 39132 C 3583.02 1.94138 0.0491434 0
M  V30 39133 O 3582.29 1.66089 1.01216 0
M  V30 39134 C 3582.57 2.75259 -2.32173 0
M  V30 39135 C 3582.43 2.37823 -3.81786 0
M  V30 39136 C 3583.75 3.77321 -2.26532 0
M  V30 39137 H 3580.86 0.546387 -0.494601 0
M  V30 39138 H 3583.51 0.852181 -1.69817 0
M  V30 39139 H 3581.66 3.31065 -2.03293 0
M  V30 39140 H 3583.33 1.87723 -4.21376 0
M  V30 39141 H 3581.57 1.70169 -3.9903 0
M  V30 39142 H 3582.24 3.27036 -4.44693 0
M  V30 39143 H 3584.72 3.31076 -2.52047 0
M  V30 39144 H 3583.59 4.62211 -2.96062 0
M  V30 39145 H 3583.86 4.23552 -1.26712 0
M  V30 39146 N 3582.91 1.23916 0.973785 0
M  V30 39147 C 3584.16 1.0731 1.71257 0
M  V30 39148 C 3584.48 -0.389798 1.91064 0
M  V30 39149 O 3583.75 -1.2788 1.48403 0
M  V30 39150 H 3582.33 0.394101 0.634581 0
M  V30 39151 H 3585 1.55739 1.17181 0
M  V30 39152 H 3584.09 1.56631 2.69951 0
M  V30 39153 N 3584.39 -1.17355 1.05193 0
M  V30 39154 C 3585.32 -2.23562 0.673971 0
M  V30 39155 C 3586.3 -1.66903 -0.328254 0
M  V30 39156 O 3587.49 -1.93106 -0.205844 0
M  V30 39157 C 3584.62 -3.47267 0.0479411 0
M  V30 39158 C 3583.57 -4.16748 0.974929 0
M  V30 39159 C 3582.9 -5.34276 0.212778 0
M  V30 39160 C 3584.2 -4.68977 2.29908 0
M  V30 39161 H 3585.89 -2.55433 1.56187 0
M  V30 39162 H 3583.44 -1.22778 0.752429 0
M  V30 39163 H 3585.39 -4.20781 -0.228269 0
M  V30 39164 H 3584.12 -3.14663 -0.874908 0
M  V30 39165 H 3582.77 -3.45146 1.2357 0
M  V30 39166 H 3582.42 -4.97923 -0.712836 0
M  V30 39167 H 3582.12 -5.81702 0.830453 0
M  V30 39168 H 3583.65 -6.10574 -0.0561476 0
M  V30 39169 H 3585.06 -5.34128 2.08278 0
M  V30 39170 H 3583.46 -5.26981 2.87073 0
M  V30 39171 H 3584.53 -3.85785 2.93765 0
M  V30 39172 N 3585.87 -0.832954 -1.3379 0
M  V30 39173 C 3586.8 -0.276887 -2.31853 0
M  V30 39174 C 3587.78 0.612156 -1.58703 0
M  V30 39175 O 3588.97 0.536943 -1.86629 0
M  V30 39176 C 3586.1 0.55379 -3.42856 0
M  V30 39177 C 3585.05 -0.23896 -4.27332 0
M  V30 39178 C 3584.38 0.715094 -5.29897 0
M  V30 39179 C 3585.68 -1.45274 -5.0169 0
M  V30 39180 H 3587.37 -1.09623 -2.78609 0
M  V30 39181 H 3584.92 -0.528586 -1.33948 0
M  V30 39182 H 3586.87 0.953061 -4.10481 0
M  V30 39183 H 3585.59 1.40629 -2.94773 0
M  V30 39184 H 3584.25 -0.619719 -3.61324 0
M  V30 39185 H 3583.9 1.56382 -4.78073 0
M  V30 39186 H 3583.6 0.188818 -5.87297 0
M  V30 39187 H 3585.12 1.11201 -6.00389 0
M  V30 39188 H 3586.54 -1.12695 -5.62115 0
M  V30 39189 H 3584.94 -1.91538 -5.68712 0
M  V30 39190 H 3586.01 -2.22565 -4.30805 0
M  V30 39191 N 3587.35 1.46186 -0.588837 0
M  V30 39192 C 3588.76 1.57614 -0.250989 0
M  V30 39193 C 3588.96 1.58304 1.24667 0
M  V30 39194 O 3588.02 1.50328 2.02873 0
M  V30 39195 C 3589.33 2.86739 -0.905611 0
M  V30 39196 C 3590.88 3.00381 -0.879774 0
M  V30 39197 C 3591.36 4.3225 -1.51405 0
M  V30 39198 N 3592.85 4.38964 -1.47867 0
M  V30 39199 C 3593.58 5.39629 -1.93877 0
M  V30 39200 N 3593.08 6.46934 -2.47888 0
M  V30 39201 N 3594.87 5.30868 -1.84757 0
M  V30 39202 H 3587.02 1.43982 -1.5615 0
M  V30 39203 H 3589.29 0.687199 -0.653041 0
M  V30 39204 H 3588.99 2.92062 -1.9594 0
M  V30 39205 H 3588.87 3.74882 -0.417522 0
M  V30 39206 H 3591.25 2.94636 0.165414 0
M  V30 39207 H 3591.33 2.13698 -1.40594 0
M  V30 39208 H 3590.98 4.38754 -2.55847 0
M  V30 39209 H 3590.91 5.17719 -0.963056 0
M  V30 39210 H 3593.4 3.62021 -1.08393 0
M  V30 39211 H 3593.71 7.19966 -2.80837 0
M  V30 39212 H 3592.06 6.47737 -2.51917 0
M  V30 39213 H 3595.25 4.45942 -1.42315 0
M  V30 39214 H 3595.42 6.09175 -2.20929 0
M  V30 39215 N 3588.83 0.32695 1.54171 0
M  V30 39216 C 3589.74 -0.54631 2.2815 0
M  V30 39217 C 3590.75 -1.12629 1.3263 0
M  V30 39218 O 3591.93 -1.14553 1.65649 0
M  V30 39219 C 3588.99 -1.68956 3.02745 0
M  V30 39220 C 3588.05 -1.14105 4.13858 0
M  V30 39221 C 3587.29 -2.22982 4.84886 0
M  V30 39222 O 3587.51 -3.43391 4.55454 0
M  V30 39223 O 3586.44 -1.8821 5.71717 0
M  V30 39224 H 3590.27 0.0545822 3.03651 0
M  V30 39225 H 3587.86 0.092529 1.49113 0
M  V30 39226 H 3589.74 -2.35509 3.49447 0
M  V30 39227 H 3588.41 -2.27658 2.30117 0
M  V30 39228 H 3587.32 -0.440513 3.71497 0
M  V30 39229 H 3588.65 -0.599126 4.8854 0
M  V30 39230 N 3590.3 -1.57503 0.0551955 0
M  V30 39231 C 3591.25 -2.0828 -0.92755 0
M  V30 39232 C 3592.24 -0.988824 -1.26929 0
M  V30 39233 O 3593.43 -1.25211 -1.25104 0
M  V30 39234 C 3590.56 -2.63459 -2.201 0
M  V30 39235 C 3589.65 -3.79833 -1.88647 0
M  V30 39236 N 3590.04 -4.89448 -1.27571 0
M  V30 39237 C 3588.33 -3.88814 -2.18494 0
M  V30 39238 C 3589.04 -5.70452 -1.13838 0
M  V30 39239 N 3588.01 -5.18189 -1.64261 0
M  V30 39240 H 3591.81 -2.90423 -0.450733 0
M  V30 39241 H 3589.33 -1.61714 -0.149149 0
M  V30 39242 H 3591.32 -2.98142 -2.91405 0
M  V30 39243 H 3589.98 -1.82756 -2.68384 0
M  V30 39244 H 3591 -5.09161 -0.947417 0
M  V30 39245 H 3587.67 -3.1906 -2.69271 0
M  V30 39246 H 3589.06 -6.68612 -0.663896 0
M  V30 39247 N 3591.78 0.218225 -1.56082 0
M  V30 39248 C 3592.73 1.27046 -1.92686 0
M  V30 39249 C 3593.7 1.46408 -0.784467 0
M  V30 39250 O 3594.88 1.59922 -1.04065 0
M  V30 39251 C 3592.02 2.61512 -2.25179 0
M  V30 39252 C 3591.14 2.49921 -3.52368 0
M  V30 39253 C 3590.27 3.76933 -3.74292 0
M  V30 39254 C 3589.31 3.60078 -4.94985 0
M  V30 39255 N 3588.45 4.79048 -5.13281 0
M  V30 39256 H 3593.29 0.951297 -2.82408 0
M  V30 39257 H 3590.83 0.458416 -1.39775 0
M  V30 39258 H 3592.78 3.39821 -2.42028 0
M  V30 39259 H 3591.41 2.91518 -1.38626 0
M  V30 39260 H 3590.47 1.6303 -3.43694 0
M  V30 39261 H 3591.78 2.33389 -4.4083 0
M  V30 39262 H 3590.93 4.63685 -3.91256 0
M  V30 39263 H 3589.67 3.96394 -2.84118 0
M  V30 39264 H 3588.68 2.71711 -4.77968 0
M  V30 39265 H 3589.9 3.42085 -5.86647 0
M  V30 39266 H 3587.85 4.98816 -4.2605 0
M  V30 39267 H 3587.76 4.65255 -5.95881 0
M  V30 39268 H 3589.03 5.67216 -5.34683 0
M  V30 39269 N 3593.26 1.4995 0.485059 0
M  V30 39270 C 3594.51 1.59483 1.23484 0
M  V30 39271 C 3594.82 0.294116 1.93376 0
M  V30 39272 O 3596.03 0.26818 2.70172 0
M  V30 39273 C 3594.49 2.81458 2.24298 0
M  V30 39274 C 3594.09 4.1835 1.60272 0
M  V30 39275 C 3595.84 3.00329 3.00005 0
M  V30 39276 C 3593.74 5.31528 2.59291 0
M  V30 39277 H 3592.67 0.593866 0.464584 0
M  V30 39278 H 3595.33 1.76361 0.506862 0
M  V30 39279 H 3593.71 2.58108 3.00327 0
M  V30 39280 H 3594.88 4.519 0.901272 0
M  V30 39281 H 3593.2 4.04969 0.968982 0
M  V30 39282 H 3595.79 3.82054 3.74084 0
M  V30 39283 H 3596.14 2.11508 3.58567 0
M  V30 39284 H 3596.67 3.23794 2.3109 0
M  V30 39285 H 3593.41 6.22459 2.05487 0
M  V30 39286 H 3592.93 5.02413 3.27629 0
M  V30 39287 H 3594.61 5.61525 3.21402 0
M  V30 39288 N 3594.74 -0.737255 1.39292 0
M  V30 39289 C 3595.67 -1.86141 1.33731 0
M  V30 39290 C 3596.68 -1.60923 0.246496 0
M  V30 39291 O 3597.87 -1.71199 0.505282 0
M  V30 39292 C 3594.97 -3.2212 1.05317 0
M  V30 39293 C 3594.15 -3.74712 2.25631 0
M  V30 39294 C 3593.21 -4.89248 1.93709 0
M  V30 39295 O 3592.23 -5.03027 2.6637 0
M  V30 39296 N 3593.43 -5.73451 0.901883 0
M  V30 39297 H 3596.2 -1.91417 2.30607 0
M  V30 39298 H 3593.76 -0.917896 1.33365 0
M  V30 39299 H 3595.75 -3.96309 0.819854 0
M  V30 39300 H 3594.32 -3.12127 0.171828 0
M  V30 39301 H 3593.54 -2.91902 2.64928 0
M  V30 39302 H 3594.83 -4.06583 3.05888 0
M  V30 39303 H 3594.23 -5.64906 0.299652 0
M  V30 39304 H 3592.78 -6.47717 0.728458 0
M  V30 39305 N 3596.22 -1.24431 -0.967199 0
M  V30 39306 C 3597.45 -1.11136 -1.74518 0
M  V30 39307 C 3597.86 0.336055 -1.85785 0
M  V30 39308 O 3597.22 1.23185 -1.34654 0
M  V30 39309 C 3597.27 -1.74596 -3.16541 0
M  V30 39310 O 3596.99 -3.13678 -3.05839 0
M  V30 39311 C 3598.49 -1.66917 -4.10674 0
M  V30 39312 H 3595.71 -0.388263 -0.54726 0
M  V30 39313 H 3598.25 -1.64547 -1.21427 0
M  V30 39314 H 3596.41 -1.25187 -3.66616 0
M  V30 39315 H 3596.82 -3.44683 -3.9534 0
M  V30 39316 H 3598.3 -2.16001 -5.07984 0
M  V30 39317 H 3598.77 -0.630488 -4.34651 0
M  V30 39318 H 3599.38 -2.15756 -3.6651 0
M  V30 39319 N 3597.7 1.16795 -1.05814 0
M  V30 39320 C 3598.64 2.23079 -0.658675 0
M  V30 39321 C 3599.64 1.66291 0.323074 0
M  V30 39322 O 3600.84 1.79011 0.18846 0
M  V30 39323 H 3597.22 0.726316 -0.194856 0
M  V30 39324 H 3599.19 2.54064 -1.56506 0
M  V30 39325 C 3597.94 3.47655 -0.0560039 0
M  V30 39326 H 3597.26 3.91662 -0.802537 0
M  V30 39327 H 3598.7 4.23592 0.186044 0
M  V30 39328 C 3597.16 3.14839 1.19908 0
M  V30 39329 O 3597.69 3.30195 2.28766 0
M  V30 39330 N 3595.9 2.69011 1.09916 0
M  V30 39331 H 3595.44 2.56716 0.213286 0
M  V30 39332 H 3595.4 2.47428 1.93977 0
M  V30 39333 N 3599.17 0.840037 1.33346 0
M  V30 39334 C 3600.59 0.527976 1.50614 0
M  V30 39335 C 3600.79 -0.944462 1.77995 0
M  V30 39336 O 3599.85 -1.72821 1.8409 0
M  V30 39337 C 3601.16 1.40232 2.65999 0
M  V30 39338 C 3602.71 1.40122 2.79883 0
M  V30 39339 C 3603.18 2.26045 3.98331 0
M  V30 39340 N 3604.67 2.23761 4.05568 0
M  V30 39341 C 3605.41 2.86981 4.96417 0
M  V30 39342 N 3604.9 3.59257 5.92373 0
M  V30 39343 N 3606.7 2.76445 4.89423 0
M  V30 39344 H 3598.85 1.79319 1.13836 0
M  V30 39345 H 3601.11 0.765097 0.559759 0
M  V30 39346 H 3600.82 2.44872 2.52449 0
M  V30 39347 H 3600.69 1.0792 3.61432 0
M  V30 39348 H 3603.08 0.362539 2.92865 0
M  V30 39349 H 3603.16 1.76442 1.85208 0
M  V30 39350 H 3602.8 3.29973 3.86109 0
M  V30 39351 H 3602.73 1.87066 4.92254 0
M  V30 39352 H 3605.22 1.71201 3.36896 0
M  V30 39353 H 3605.54 4.04699 6.5836 0
M  V30 39354 H 3603.88 3.63365 5.92445 0
M  V30 39355 H 3607.07 2.19541 4.13424 0
M  V30 39356 H 3607.25 3.25999 5.60026 0
M  V30 39357 N 3600.65 -1.45872 0.596582 0
M  V30 39358 C 3601.88 -2.06389 0.0933933 0
M  V30 39359 C 3602.29 -1.44369 -1.22288 0
M  V30 39360 O 3601.63 -0.548162 -1.75331 0
M  V30 39361 C 3601.69 -3.59257 -0.132193 0
M  V30 39362 C 3601.36 -4.43549 1.10059 0
M  V30 39363 C 3602.36 -4.79219 2.01606 0
M  V30 39364 C 3600.04 -4.84473 1.32633 0
M  V30 39365 C 3602.03 -5.54655 3.14064 0
M  V30 39366 C 3599.72 -5.59665 2.45394 0
M  V30 39367 C 3600.72 -5.94672 3.35938 0
M  V30 39368 O 3600.41 -6.68342 4.46738 0
M  V30 39369 H 3600.14 -0.673251 0.0609062 0
M  V30 39370 H 3602.69 -1.88277 0.821042 0
M  V30 39371 H 3600.92 -3.75728 -0.914612 0
M  V30 39372 H 3602.61 -4.01653 -0.58561 0
M  V30 39373 H 3603.38 -4.4817 1.85387 0
M  V30 39374 H 3599.26 -4.56667 0.630602 0
M  V30 39375 H 3602.8 -5.81898 3.84761 0
M  V30 39376 H 3598.7 -5.90128 2.6157 0
M  V30 39377 H 3599.47 -6.86781 4.4528 0
M  V30 39378 N 3602.13 -0.335122 -1.53996 0
M  V30 39379 C 3603.36 0.265594 -2.05188 0
M  V30 39380 C 3603.77 1.44879 -1.2106 0
M  V30 39381 O 3603.13 1.80862 -0.243951 0
M  V30 39382 C 3603.18 0.688842 -3.54876 0
M  V30 39383 O 3602.9 -0.447293 -4.35811 0
M  V30 39384 C 3604.4 1.35116 -4.22207 0
M  V30 39385 H 3601.62 0.0527688 -0.668922 0
M  V30 39386 H 3604.17 -0.484665 -1.98674 0
M  V30 39387 H 3602.32 1.38906 -3.61641 0
M  V30 39388 H 3602.74 -0.111588 -5.24381 0
M  V30 39389 H 3604.21 1.59814 -5.28359 0
M  V30 39390 H 3604.69 2.30209 -3.74033 0
M  V30 39391 H 3605.29 0.693209 -4.19613 0
M  V30 39392 N 3603.61 1.57472 -0.0635475 0
M  V30 39393 C 3604.85 1.9346 0.60835 0
M  V30 39394 C 3605.19 0.943171 1.69758 0
M  V30 39395 O 3604.46 -0.0289225 1.94478 0
M  V30 39396 C 3604.74 3.39765 1.19296 0
M  V30 39397 C 3604.6 4.49663 0.110941 0
M  V30 39398 C 3605.92 3.86715 2.10094 0
M  V30 39399 H 3603.04 0.7035 0.219675 0
M  V30 39400 H 3605.68 1.89569 -0.127836 0
M  V30 39401 H 3603.83 3.43212 1.82038 0
M  V30 39402 H 3605.5 4.58341 -0.521686 0
M  V30 39403 H 3603.74 4.30177 -0.559484 0
M  V30 39404 H 3604.41 5.4915 0.560236 0
M  V30 39405 H 3606.89 3.85223 1.57298 0
M  V30 39406 H 3605.77 4.89713 2.47937 0
M  V30 39407 H 3606.03 3.24182 3.00597 0
M  V30 39408 N 3605.09 -0.209945 1.56195 0
M  V30 39409 C 3606.03 -1.26022 1.93357 0
M  V30 39410 C 3607 -1.4599 0.79222 0
M  V30 39411 O 3608.19 -1.59368 1.04912 0
M  V30 39412 C 3605.33 -2.60314 2.26562 0
M  V30 39413 C 3604.44 -2.48049 3.53689 0
M  V30 39414 C 3603.58 -3.74943 3.76286 0
M  V30 39415 C 3602.61 -3.57448 4.96888 0
M  V30 39416 N 3601.75 -4.76319 5.15814 0
M  V30 39417 H 3606.59 -0.936307 2.82909 0
M  V30 39418 H 3604.13 -0.450997 1.40016 0
M  V30 39419 H 3606.09 -3.38532 2.43827 0
M  V30 39420 H 3604.72 -2.90779 1.4017 0
M  V30 39421 H 3603.77 -1.61205 3.44554 0
M  V30 39422 H 3605.08 -2.31048 4.42061 0
M  V30 39423 H 3604.23 -4.61603 3.9371 0
M  V30 39424 H 3602.97 -3.94882 2.86216 0
M  V30 39425 H 3601.98 -2.69172 4.79402 0
M  V30 39426 H 3603.2 -3.38969 5.88453 0
M  V30 39427 H 3601.15 -4.9655 4.28689 0
M  V30 39428 H 3601.07 -4.62088 5.9834 0
M  V30 39429 H 3602.33 -5.64373 5.37684 0
M  V30 39430 N 3606.56 -1.50205 -0.4771 0
M  V30 39431 C 3607.81 -1.61132 -1.23144 0
M  V30 39432 C 3608.14 -0.307943 -1.91743 0
M  V30 39433 O 3607.42 0.690191 -1.81842 0
M  V30 39434 C 3607.7 -2.78742 -2.2798 0
M  V30 39435 C 3607.55 -4.18944 -1.63725 0
M  V30 39436 C 3608.87 -2.91926 -3.29344 0
M  V30 39437 H 3605.99 -0.586466 -0.446348 0
M  V30 39438 H 3608.63 -1.82571 -0.526088 0
M  V30 39439 H 3606.78 -2.60593 -2.88138 0
M  V30 39440 H 3608.46 -4.48669 -1.07211 0
M  V30 39441 H 3606.7 -4.23481 -0.940559 0
M  V30 39442 H 3607.37 -4.97154 -2.39879 0
M  V30 39443 H 3609.85 -3.08521 -2.79202 0
M  V30 39444 H 3608.72 -3.75852 -4.00033 0
M  V30 39445 H 3608.98 -2.02284 -3.93107 0
M  V30 39446 N 3608.04 0.729857 -1.39681 0
M  V30 39447 C 3608.97 1.85429 -1.34717 0
M  V30 39448 C 3609.99 1.6079 -0.255027 0
M  V30 39449 O 3611.18 1.70929 -0.514354 0
M  V30 39450 C 3608.28 3.21557 -1.07024 0
M  V30 39451 C 3607.45 3.73511 -2.27615 0
M  V30 39452 C 3606.51 4.88213 -1.96301 0
M  V30 39453 O 3605.53 5.01607 -2.69034 0
M  V30 39454 N 3606.74 5.72965 -0.932282 0
M  V30 39455 H 3609.5 1.90191 -2.31619 0
M  V30 39456 H 3607.06 0.91081 -1.3385 0
M  V30 39457 H 3609.05 3.95868 -0.840859 0
M  V30 39458 H 3607.62 3.12032 -0.188378 0
M  V30 39459 H 3606.84 2.90493 -2.66473 0
M  V30 39460 H 3608.13 4.04956 -3.0804 0
M  V30 39461 H 3607.53 5.64739 -0.329607 0
M  V30 39462 H 3606.09 6.47321 -0.762798 0
M  V30 39463 N 3609.52 1.24942 0.960587 0
M  V30 39464 C 3610.94 1.01635 1.23055 0
M  V30 39465 C 3611.14 -0.270491 1.99676 0
M  V30 39466 O 3610.19 -0.984782 2.32504 0
M  V30 39467 C 3611.51 2.23584 2.01074 0
M  V30 39468 C 3613.05 2.28283 2.1414 0
M  V30 39469 C 3613.53 3.49872 2.95556 0
M  V30 39470 N 3615.02 3.50232 3.03137 0
M  V30 39471 C 3615.75 4.40974 3.6651 0
M  V30 39472 N 3615.25 5.4198 4.31544 0
M  V30 39473 N 3617.04 4.28669 3.63592 0
M  V30 39474 H 3609.19 2.07625 0.44784 0
M  V30 39475 H 3611.46 0.911488 0.260565 0
M  V30 39476 H 3611.16 3.17078 1.52167 0
M  V30 39477 H 3611.04 2.26276 3.01793 0
M  V30 39478 H 3613.42 1.35316 2.62247 0
M  V30 39479 H 3613.51 2.29613 1.12746 0
M  V30 39480 H 3613.15 4.43157 2.48141 0
M  V30 39481 H 3613.08 3.45786 3.97164 0
M  V30 39482 H 3615.57 2.77163 2.56883 0
M  V30 39483 H 3615.88 6.07441 4.7774 0
M  V30 39484 H 3614.23 5.45858 4.3019 0
M  V30 39485 H 3617.42 3.4899 3.11967 0
M  V30 39486 H 3617.59 4.99585 4.12697 0
M  V30 39487 N 3611 -1.16233 1.06432 0
M  V30 39488 C 3611.91 -2.24301 0.687485 0
M  V30 39489 C 3612.92 -1.71445 -0.297102 0
M  V30 39490 O 3614.1 -2.0087 -0.146066 0
M  V30 39491 C 3611.17 -3.46605 0.0811582 0
M  V30 39492 C 3610.23 -4.14492 1.11779 0
M  V30 39493 C 3609.46 -5.30958 0.540303 0
M  V30 39494 O 3609.68 -5.66724 -0.64652 0
M  V30 39495 O 3608.62 -5.88118 1.28067 0
M  V30 39496 H 3612.44 -2.58846 1.58846 0
M  V30 39497 H 3610.03 -1.23775 0.836671 0
M  V30 39498 H 3611.91 -4.20627 -0.255166 0
M  V30 39499 H 3610.58 -3.13829 -0.793283 0
M  V30 39500 H 3609.49 -3.42434 1.50632 0
M  V30 39501 H 3610.82 -4.51326 1.96381 0
M  V30 39502 N 3612.48 -0.847097 -1.32899 0
M  V30 39503 C 3613.41 -0.301462 -2.31546 0
M  V30 39504 C 3614.39 0.595289 -1.59343 0
M  V30 39505 O 3615.57 0.517118 -1.87188 0
M  V30 39506 C 3612.7 0.517394 -3.43424 0
M  V30 39507 C 3611.66 -0.28427 -4.27055 0
M  V30 39508 C 3610.98 0.658851 -5.30625 0
M  V30 39509 C 3612.28 -1.50587 -5.00121 0
M  V30 39510 H 3613.98 -1.12572 -2.77431 0
M  V30 39511 H 3611.52 -0.542763 -1.33379 0
M  V30 39512 H 3613.48 0.90947 -4.11469 0
M  V30 39513 H 3612.2 1.37494 -2.96248 0
M  V30 39514 H 3610.86 -0.658008 -3.60646 0
M  V30 39515 H 3610.51 1.51303 -4.79704 0
M  V30 39516 H 3610.21 0.126517 -5.87464 0
M  V30 39517 H 3611.73 1.04827 -6.01534 0
M  V30 39518 H 3613.14 -1.1865 -5.60888 0
M  V30 39519 H 3611.54 -1.97559 -5.66648 0
M  V30 39520 H 3612.61 -2.27122 -4.2842 0
M  V30 39521 N 3613.95 1.45554 -0.604309 0
M  V30 39522 C 3614.86 2.34301 0.118367 0
M  V30 39523 C 3615.88 1.51046 0.863781 0
M  V30 39524 O 3617.06 1.83857 0.822106 0
M  V30 39525 C 3614.12 3.28608 1.10532 0
M  V30 39526 C 3613.18 4.27769 0.362226 0
M  V30 39527 C 3612.42 5.17571 1.30217 0
M  V30 39528 O 3612.64 5.10734 2.53982 0
M  V30 39529 O 3611.57 5.96546 0.801011 0
M  V30 39530 H 3615.4 2.97493 -0.610868 0
M  V30 39531 H 3612.98 1.44883 -0.364587 0
M  V30 39532 H 3614.87 3.8673 1.67385 0
M  V30 39533 H 3613.54 2.67985 1.81564 0
M  V30 39534 H 3612.45 3.73273 -0.248681 0
M  V30 39535 H 3613.78 4.91238 -0.307541 0
M  V30 39536 N 3615.43 0.343284 1.53816 0
M  V30 39537 C 3616.36 -0.505965 2.27952 0
M  V30 39538 C 3617.34 -1.10285 1.29504 0
M  V30 39539 O 3618.53 -1.12429 1.58346 0
M  V30 39540 C 3615.66 -1.65718 3.05213 0
M  V30 39541 C 3614.61 -1.18864 4.11163 0
M  V30 39542 C 3613.94 -2.42835 4.76377 0
M  V30 39543 C 3615.24 -0.289311 5.21498 0
M  V30 39544 H 3616.93 0.112488 2.99189 0
M  V30 39545 H 3614.48 0.0555413 1.43893 0
M  V30 39546 H 3616.43 -2.25774 3.55815 0
M  V30 39547 H 3615.16 -2.30252 2.31628 0
M  V30 39548 H 3613.81 -0.610899 3.61474 0
M  V30 39549 H 3613.46 -3.05776 3.99387 0
M  V30 39550 H 3613.16 -2.12168 5.47959 0
M  V30 39551 H 3614.69 -3.03618 5.29763 0
M  V30 39552 H 3616.1 -0.796708 5.67737 0
M  V30 39553 H 3614.5 -0.0745311 6.00054 0
M  V30 39554 H 3615.57 0.674627 4.80184 0
M  V30 39555 N 3616.91 -1.57436 0.0718977 0
M  V30 39556 C 3618.19 -1.84896 -0.6382 0
M  V30 39557 C 3618.57 -0.964376 -1.87784 0
M  V30 39558 O 3617.92 -0.0306925 -2.28479 0
M  V30 39559 C 3618.13 -3.35082 -0.975758 0
M  V30 39560 C 3619.47 -4.02594 -1.3492 0
M  V30 39561 O 3620.5 -3.39828 -1.06748 0
M  V30 39562 O 3619.36 -5.13299 -1.8758 0
M  V30 39563 H 3616.45 -0.763838 -0.316987 0
M  V30 39564 H 3619 -1.69388 0.102837 0
M  V30 39565 H 3617.77 -3.91184 -0.095326 0
M  V30 39566 H 3617.39 -3.55852 -1.77355 0
M  V30 39567 N 3618.39 0.201658 -1.56305 0
M  V30 39568 C 3619.3 1.27053 -1.97217 0
M  V30 39569 C 3620.31 1.50173 -0.878861 0
M  V30 39570 O 3621.49 1.62916 -1.18408 0
M  V30 39571 C 3618.56 2.59622 -2.29776 0
M  V30 39572 C 3617.62 2.44631 -3.52781 0
M  V30 39573 C 3616.85 3.70878 -3.83777 0
M  V30 39574 O 3617.07 4.74764 -3.16157 0
M  V30 39575 O 3616.01 3.668 -4.77223 0
M  V30 39576 H 3619.83 0.953342 -2.88349 0
M  V30 39577 H 3617.42 0.406133 -1.43774 0
M  V30 39578 H 3619.3 3.3788 -2.51823 0
M  V30 39579 H 3617.97 2.90982 -1.41814 0
M  V30 39580 H 3616.88 1.64506 -3.35989 0
M  V30 39581 H 3618.21 2.18206 -4.41188 0
M  V30 39582 N 3619.87 1.50456 0.469128 0
M  V30 39583 C 3620.8 1.72393 1.5749 0
M  V30 39584 C 3621.78 0.572943 1.6016 0
M  V30 39585 O 3622.96 0.81229 1.76396 0
M  V30 39586 C 3620.09 1.81987 2.95801 0
M  V30 39587 C 3619.05 2.97191 3.07996 0
M  V30 39588 C 3618.37 2.9193 4.47975 0
M  V30 39589 C 3619.67 4.3767 2.85031 0
M  V30 39590 H 3621.37 2.64976 1.39384 0
M  V30 39591 H 3618.91 1.2751 0.669111 0
M  V30 39592 H 3620.87 1.95918 3.73087 0
M  V30 39593 H 3619.59 0.860265 3.15067 0
M  V30 39594 H 3618.25 2.82913 2.33143 0
M  V30 39595 H 3617.9 1.93812 4.64162 0
M  V30 39596 H 3617.6 3.69271 4.5707 0
M  V30 39597 H 3619.12 3.07912 5.27279 0
M  V30 39598 H 3620.53 4.52462 3.52066 0
M  V30 39599 H 3618.93 5.16476 3.05569 0
M  V30 39600 H 3620 4.49903 1.80873 0
M  V30 39601 N 3621.34 -0.722439 1.40066 0
M  V30 39602 C 3622.31 -1.81822 1.39547 0
M  V30 39603 C 3623.31 -1.58156 0.290413 0
M  V30 39604 O 3624.5 -1.65324 0.54897 0
M  V30 39605 C 3621.63 -3.19809 1.18046 0
M  V30 39606 H 3622.82 -1.83683 2.37067 0
M  V30 39607 H 3620.38 -0.927382 1.25815 0
M  V30 39608 H 3621.11 -3.23602 0.212593 0
M  V30 39609 H 3620.9 -3.38386 1.98085 0
M  V30 39610 H 3622.39 -3.99851 1.20454 0
M  V30 39611 N 3622.82 -1.2545 -0.953947 0
M  V30 39612 C 3623.75 -1.08376 -2.06826 0
M  V30 39613 C 3624.73 0.00738595 -1.70098 0
M  V30 39614 O 3625.92 -0.162274 -1.93521 0
M  V30 39615 C 3623.05 -0.702424 -3.40122 0
M  V30 39616 C 3622 -1.74388 -3.90862 0
M  V30 39617 C 3621.33 -1.21721 -5.20661 0
M  V30 39618 C 3622.63 -3.1428 -4.17163 0
M  V30 39619 H 3624.32 -2.01585 -2.21368 0
M  V30 39620 H 3621.87 -0.970611 -1.06373 0
M  V30 39621 H 3623.82 -0.56991 -4.17528 0
M  V30 39622 H 3622.55 0.265371 -3.2552 0
M  V30 39623 H 3621.21 -1.86484 -3.15625 0
M  V30 39624 H 3620.85 -0.239628 -5.02429 0
M  V30 39625 H 3620.55 -1.91329 -5.55578 0
M  V30 39626 H 3622.08 -1.09711 -6.00663 0
M  V30 39627 H 3623.49 -3.05334 -4.85226 0
M  V30 39628 H 3621.89 -3.81364 -4.63337 0
M  V30 39629 H 3622.96 -3.6129 -3.23415 0
M  V30 39630 N 3624.3 1.15667 -1.07047 0
M  V30 39631 C 3625.72 1.38368 -0.795394 0
M  V30 39632 C 3625.92 1.92304 0.601795 0
M  V30 39633 O 3624.97 2.12677 1.36105 0
M  V30 39634 C 3626.29 2.35749 -1.86663 0
M  V30 39635 C 3627.83 2.49418 -1.89103 0
M  V30 39636 C 3628.31 3.50087 -2.95302 0
M  V30 39637 N 3629.8 3.5762 -2.94384 0
M  V30 39638 C 3630.54 4.35325 -3.73202 0
M  V30 39639 N 3630.03 5.16389 -4.6186 0
M  V30 39640 N 3631.82 4.30383 -3.61562 0
M  V30 39641 H 3623.98 0.789969 -1.97163 0
M  V30 39642 H 3626.24 0.409855 -0.854823 0
M  V30 39643 H 3625.94 2.03227 -2.87039 0
M  V30 39644 H 3625.82 3.35491 -1.72412 0
M  V30 39645 H 3628.21 2.81239 -0.893802 0
M  V30 39646 H 3628.29 1.49685 -2.07432 0
M  V30 39647 H 3627.93 3.19001 -3.95222 0
M  V30 39648 H 3627.86 4.49567 -2.7422 0
M  V30 39649 H 3630.35 2.99759 -2.30116 0
M  V30 39650 H 3630.66 5.72917 -5.18639 0
M  V30 39651 H 3629.01 5.15706 -4.65911 0
M  V30 39652 H 3632.2 3.66117 -2.91678 0
M  V30 39653 H 3632.37 4.90694 -4.2323 0
M  V30 39654 N 3625.78 0.854133 1.32447 0
M  V30 39655 C 3626.74 0.303417 2.27183 0
M  V30 39656 C 3627.74 -0.536595 1.51583 0
M  V30 39657 O 3628.93 -0.348181 1.70685 0
M  V30 39658 C 3626.06 -0.570793 3.36087 0
M  V30 39659 H 3627.26 1.13955 2.77406 0
M  V30 39660 H 3624.81 0.628427 1.4311 0
M  V30 39661 H 3625.55 -1.42876 2.91131 0
M  V30 39662 H 3625.33 0.0304679 3.92088 0
M  V30 39663 H 3626.82 -0.948901 4.06676 0
M  V30 39664 N 3627.26 -1.45231 0.61202 0
M  V30 39665 C 3628.19 -2.33321 -0.0914459 0
M  V30 39666 C 3629.17 -1.47091 -0.85429 0
M  V30 39667 O 3630.35 -1.75854 -0.823963 0
M  V30 39668 C 3627.48 -3.29868 -1.08647 0
M  V30 39669 C 3626.44 -4.25768 -0.436541 0
M  V30 39670 C 3625.76 -5.1204 -1.54012 0
M  V30 39671 C 3627.06 -5.18301 0.645096 0
M  V30 39672 H 3628.76 -2.9239 0.644105 0
M  V30 39673 H 3626.3 -1.40597 0.311196 0
M  V30 39674 H 3628.26 -3.90367 -1.58719 0
M  V30 39675 H 3626.98 -2.68968 -1.85267 0
M  V30 39676 H 3625.64 -3.66574 0.0433562 0
M  V30 39677 H 3625.29 -4.47504 -2.29671 0
M  V30 39678 H 3624.99 -5.77006 -1.11073 0
M  V30 39679 H 3626.51 -5.75407 -2.04302 0
M  V30 39680 H 3627.93 -5.72845 0.228267 0
M  V30 39681 H 3626.32 -5.91769 0.996491 0
M  V30 39682 H 3627.39 -4.60463 1.51993 0
M  V30 39683 N 3628.74 -0.351436 -1.53632 0
M  V30 39684 C 3629.68 0.501685 -2.25282 0
M  V30 39685 C 3630.65 1.08913 -1.25408 0
M  V30 39686 O 3631.84 1.12427 -1.54159 0
M  V30 39687 C 3628.98 1.64272 -3.03494 0
M  V30 39688 C 3628.09 1.08183 -4.18235 0
M  V30 39689 C 3627.23 2.19081 -4.83918 0
M  V30 39690 C 3626.26 1.60384 -5.90714 0
M  V30 39691 N 3625.4 2.65057 -6.50146 0
M  V30 39692 H 3630.24 -0.115843 -2.97775 0
M  V30 39693 H 3627.78 -0.0689399 -1.46938 0
M  V30 39694 H 3629.74 2.31461 -3.47105 0
M  V30 39695 H 3628.37 2.23112 -2.33283 0
M  V30 39696 H 3627.42 0.300647 -3.7921 0
M  V30 39697 H 3628.73 0.612557 -4.95024 0
M  V30 39698 H 3627.88 2.94119 -5.3064 0
M  V30 39699 H 3626.62 2.69355 -4.0657 0
M  V30 39700 H 3625.63 0.838551 -5.43368 0
M  V30 39701 H 3626.85 1.10952 -6.69975 0
M  V30 39702 H 3624.8 3.1457 -5.75657 0
M  V30 39703 H 3624.72 2.22775 -7.22431 0
M  V30 39704 H 3625.98 3.39839 -7.01519 0
M  V30 39705 N 3630.21 1.57396 -0.0802459 0
M  V30 39706 C 3631.12 2.1671 0.898559 0
M  V30 39707 C 3632.14 1.13252 1.32098 0
M  V30 39708 O 3633.32 1.45557 1.39195 0
M  V30 39709 C 3630.38 2.72383 2.14496 0
M  V30 39710 C 3629.44 3.90743 1.77815 0
M  V30 39711 C 3628.67 4.43752 2.96513 0
M  V30 39712 O 3628.9 3.95737 4.1079 0
M  V30 39713 O 3627.83 5.34973 2.7584 0
M  V30 39714 H 3631.66 3.00726 0.423974 0
M  V30 39715 H 3629.24 1.48711 0.143294 0
M  V30 39716 H 3631.12 3.08029 2.87569 0
M  V30 39717 H 3629.8 1.91421 2.61036 0
M  V30 39718 H 3628.71 3.59935 1.01967 0
M  V30 39719 H 3630.04 4.73023 1.36051 0
M  V30 39720 N 3631.69 -0.193366 1.56409 0
M  V30 39721 C 3632.97 -0.93948 1.71561 0
M  V30 39722 C 3633.35 -2.01307 0.635514 0
M  V30 39723 O 3632.7 -2.25753 -0.353228 0
M  V30 39724 C 3632.91 -1.52432 3.13951 0
M  V30 39725 C 3634.25 -2.00578 3.74237 0
M  V30 39726 O 3635.28 -1.62271 3.17091 0
M  V30 39727 O 3634.14 -2.71073 4.74533 0
M  V30 39728 H 3631.23 -0.440694 0.699798 0
M  V30 39729 H 3633.78 -0.182927 1.68711 0
M  V30 39730 H 3632.55 -0.750545 3.84035 0
M  V30 39731 H 3632.17 -2.34566 3.21036 0
M  V30 39732 N 3633.17 -1.50702 -0.461142 0
M  V30 39733 C 3634.59 -1.38349 -0.795717 0
M  V30 39734 C 3634.79 -0.447297 -1.96473 0
M  V30 39735 O 3633.84 0.106401 -2.52276 0
M  V30 39736 C 3635.15 -2.79919 -1.09844 0
M  V30 39737 C 3636.7 -2.88904 -1.2043 0
M  V30 39738 C 3637.18 -4.3133 -1.54009 0
M  V30 39739 N 3638.67 -4.34326 -1.60981 0
M  V30 39740 C 3639.4 -5.41535 -1.88488 0
M  V30 39741 N 3638.9 -6.58937 -2.13948 0
M  V30 39742 N 3640.69 -5.28988 -1.90073 0
M  V30 39743 H 3632.84 -2.10139 0.309113 0
M  V30 39744 H 3635.11 -0.944964 0.0758084 0
M  V30 39745 H 3634.81 -3.5031 -0.312417 0
M  V30 39746 H 3634.69 -3.17779 -2.03215 0
M  V30 39747 H 3637.07 -2.18727 -1.98098 0
M  V30 39748 H 3637.15 -2.54574 -0.25015 0
M  V30 39749 H 3636.8 -5.02048 -0.768777 0
M  V30 39750 H 3636.73 -4.63154 -2.50591 0
M  V30 39751 H 3639.22 -3.49674 -1.43305 0
M  V30 39752 H 3639.53 -7.36446 -2.34239 0
M  V30 39753 H 3637.88 -6.62095 -2.11319 0
M  V30 39754 H 3641.07 -4.36262 -1.69686 0
M  V30 39755 H 3641.24 -6.12625 -2.11174 0
M  V30 39756 N 3634.65 0.715001 -1.40447 0
M  V30 39757 C 3635.59 1.82908 -1.4076 0
M  V30 39758 C 3636.56 1.63981 -0.264471 0
M  V30 39759 O 3637.75 1.85107 -0.462621 0
M  V30 39760 C 3634.89 3.20622 -1.27654 0
M  V30 39761 C 3634 3.51117 -2.51676 0
M  V30 39762 C 3633.14 4.78339 -2.31008 0
M  V30 39763 C 3632.18 5.0174 -3.50604 0
M  V30 39764 N 3631.31 6.20177 -3.29128 0
M  V30 39765 H 3636.15 1.81976 -2.35984 0
M  V30 39766 H 3633.69 0.888931 -1.17203 0
M  V30 39767 H 3635.65 4.00147 -1.18061 0
M  V30 39768 H 3634.28 3.20781 -0.360475 0
M  V30 39769 H 3633.33 2.66143 -2.71795 0
M  V30 39770 H 3634.64 3.64318 -3.40696 0
M  V30 39771 H 3633.8 5.65883 -2.18772 0
M  V30 39772 H 3632.54 4.67349 -1.39414 0
M  V30 39773 H 3631.54 4.12651 -3.63316 0
M  V30 39774 H 3632.77 5.14603 -4.43126 0
M  V30 39775 H 3630.71 6.10436 -2.40217 0
M  V30 39776 H 3630.63 6.34057 -4.11713 0
M  V30 39777 H 3631.9 7.10506 -3.20626 0
M  V30 39778 N 3636.13 1.25954 0.947281 0
M  V30 39779 C 3637.54 1.02934 1.2197 0
M  V30 39780 C 3637.74 -0.249298 1.99952 0
M  V30 39781 O 3636.8 -0.960067 2.33536 0
M  V30 39782 C 3638.11 2.25704 1.98692 0
M  V30 39783 C 3639.66 2.30541 2.11707 0
M  V30 39784 C 3640.13 3.52987 2.91829 0
M  V30 39785 N 3641.62 3.53427 2.99405 0
M  V30 39786 C 3642.36 4.44836 3.61813 0
M  V30 39787 N 3641.86 5.46526 4.25771 0
M  V30 39788 N 3643.65 4.32501 3.59025 0
M  V30 39789 H 3635.8 2.08088 0.425793 0
M  V30 39790 H 3638.06 0.9142 0.250883 0
M  V30 39791 H 3637.77 3.18674 1.48795 0
M  V30 39792 H 3637.64 2.29464 2.99376 0
M  V30 39793 H 3640.03 1.3809 2.60797 0
M  V30 39794 H 3640.11 2.30796 1.10304 0
M  V30 39795 H 3639.75 4.45764 2.43427 0
M  V30 39796 H 3639.68 3.49979 3.93474 0
M  V30 39797 H 3642.18 2.79872 2.53929 0
M  V30 39798 H 3642.49 6.12474 4.7127 0
M  V30 39799 H 3640.83 5.5039 4.24376 0
M  V30 39800 H 3644.02 3.5228 3.08248 0
M  V30 39801 H 3644.2 5.03934 4.07375 0
M  V30 39802 N 3637.6 -1.15097 1.07659 0
M  V30 39803 C 3638.85 -1.85957 0.801641 0
M  V30 39804 C 3639.18 -1.82508 -0.672383 0
M  V30 39805 O 3638.43 -1.24542 -1.50956 0
M  V30 39806 C 3638.73 -3.34487 1.25909 0
M  V30 39807 C 3638.4 -3.58129 2.7396 0
M  V30 39808 C 3637.06 -3.6429 3.14398 0
M  V30 39809 C 3639.41 -3.67577 3.69508 0
M  V30 39810 C 3636.74 -3.77414 4.49194 0
M  V30 39811 C 3639.09 -3.82226 5.0407 0
M  V30 39812 C 3637.76 -3.86633 5.44124 0
M  V30 39813 H 3637.03 -0.680464 0.293341 0
M  V30 39814 H 3639.67 -1.36003 1.34816 0
M  V30 39815 H 3637.98 -3.86669 0.632011 0
M  V30 39816 H 3639.68 -3.87726 1.02321 0
M  V30 39817 H 3636.27 -3.53976 2.41658 0
M  V30 39818 H 3640.45 -3.62115 3.39392 0
M  V30 39819 H 3635.71 -3.79085 4.79692 0
M  V30 39820 H 3639.88 -3.88479 5.77977 0
M  V30 39821 H 3637.51 -3.96555 6.48574 0
M  V30 39822 N 3639.08 -0.861145 -1.31993 0
M  V30 39823 C 3640.01 -0.326004 -2.31213 0
M  V30 39824 C 3640.99 0.578355 -1.59966 0
M  V30 39825 O 3642.18 0.497235 -1.87726 0
M  V30 39826 C 3639.31 0.48094 -3.43954 0
M  V30 39827 C 3638.26 -0.329549 -4.26729 0
M  V30 39828 C 3637.59 0.602534 -5.31294 0
M  V30 39829 C 3638.89 -1.55883 -4.98495 0
M  V30 39830 H 3640.58 -1.15508 -2.76221 0
M  V30 39831 H 3638.13 -0.556879 -1.32796 0
M  V30 39832 H 3640.08 0.865778 -4.1241 0
M  V30 39833 H 3638.81 1.34344 -2.9769 0
M  V30 39834 H 3637.46 -0.696222 -3.59928 0
M  V30 39835 H 3637.11 1.46207 -4.81282 0
M  V30 39836 H 3636.81 0.0642012 -5.87565 0
M  V30 39837 H 3638.34 0.984406 -6.02612 0
M  V30 39838 H 3639.75 -1.24593 -5.59598 0
M  V30 39839 H 3638.15 -2.03558 -5.64521 0
M  V30 39840 H 3639.22 -2.31653 -4.25987 0
M  V30 39841 N 3640.56 1.44905 -0.619713 0
M  V30 39842 C 3641.8 2.04031 -0.122832 0
M  V30 39843 C 3642.16 1.47605 1.22787 0
M  V30 39844 O 3643.37 1.98161 1.81619 0
M  V30 39845 C 3641.64 3.57268 -0.0969511 0
M  V30 39846 S 3643.2 4.37504 0.336973 0
M  V30 39847 H 3640.01 0.708831 -0.055494 0
M  V30 39848 H 3642.62 1.77447 -0.820541 0
M  V30 39849 H 3641.32 3.95844 -1.08331 0
M  V30 39850 H 3640.85 3.88446 0.622368 0
M  V30 39851 H 3642.87 4.70245 1.5838 0
M  V30 39852 N 3642.04 0.359579 1.53443 0
M  V30 39853 C 3642.99 -0.48973 2.25544 0
M  V30 39854 C 3643.96 -1.08246 1.25984 0
M  V30 39855 O 3645.14 -1.11608 1.54753 0
M  V30 39856 C 3642.28 -1.62661 3.04361 0
M  V30 39857 C 3641.39 -1.05963 4.18803 0
M  V30 39858 C 3640.53 -2.16512 4.85073 0
M  V30 39859 C 3639.57 -1.57249 5.91557 0
M  V30 39860 N 3638.7 -2.61605 6.51542 0
M  V30 39861 H 3643.54 0.131633 2.97709 0
M  V30 39862 H 3641.08 0.0767314 1.469 0
M  V30 39863 H 3643.04 -2.29617 3.48328 0
M  V30 39864 H 3641.67 -2.21872 2.34463 0
M  V30 39865 H 3640.72 -0.280532 3.79364 0
M  V30 39866 H 3642.03 -0.586296 4.95342 0
M  V30 39867 H 3641.19 -2.91301 5.32193 0
M  V30 39868 H 3639.93 -2.67195 4.07993 0
M  V30 39869 H 3638.93 -0.809723 5.43805 0
M  V30 39870 H 3640.16 -1.07397 6.70554 0
M  V30 39871 H 3638.1 -3.11513 5.77318 0
M  V30 39872 H 3638.02 -2.18941 7.23603 0
M  V30 39873 H 3639.29 -3.36114 7.03312 0
M  V30 39874 N 3643.52 -1.57351 0.0885919 0
M  V30 39875 C 3644.48 -2.12529 -0.858141 0
M  V30 39876 C 3645.48 -1.05307 -1.2152 0
M  V30 39877 O 3646.67 -1.31222 -1.14571 0
M  V30 39878 C 3643.8 -2.64052 -2.15614 0
M  V30 39879 H 3644.99 -2.97494 -0.379128 0
M  V30 39880 H 3642.55 -1.55476 -0.160327 0
M  V30 39881 H 3643.28 -1.82588 -2.68015 0
M  V30 39882 H 3643.07 -3.42441 -1.90989 0
M  V30 39883 H 3644.56 -3.06758 -2.83353 0
M  V30 39884 N 3644.99 0.185069 -1.5651 0
M  V30 39885 C 3646.24 0.905232 -1.81476 0
M  V30 39886 C 3646.57 1.82486 -0.664257 0
M  V30 39887 O 3645.85 1.916 0.334626 0
M  V30 39888 C 3646.13 1.71281 -3.16757 0
M  V30 39889 C 3645.98 0.817224 -4.42314 0
M  V30 39890 C 3647.3 2.68336 -3.48832 0
M  V30 39891 H 3644.42 0.327653 -0.660161 0
M  V30 39892 H 3647.06 0.172096 -1.89219 0
M  V30 39893 H 3645.21 2.33783 -3.10286 0
M  V30 39894 H 3646.89 0.206137 -4.60839 0
M  V30 39895 H 3645.13 0.124487 -4.33621 0
M  V30 39896 H 3645.8 1.41749 -5.3349 0
M  V30 39897 H 3648.28 2.15963 -3.55667 0
M  V30 39898 H 3647.15 3.21917 -4.44591 0
M  V30 39899 H 3647.41 3.4787 -2.72835 0
M  V30 39900 N 3646.47 1.50945 0.453144 0
M  V30 39901 C 3647.38 1.73932 1.57432 0
M  V30 39902 C 3648.4 0.622963 1.62466 0
M  V30 39903 O 3649.57 0.903397 1.80002 0
M  V30 39904 C 3646.64 1.845 2.93531 0
M  V30 39905 C 3645.7 3.08305 2.98741 0
M  V30 39906 C 3644.93 3.1836 4.28349 0
M  V30 39907 O 3645.16 2.34747 5.19856 0
M  V30 39908 O 3644.09 4.11225 4.3952 0
M  V30 39909 H 3647.92 2.69009 1.40954 0
M  V30 39910 H 3645.5 1.35256 0.634521 0
M  V30 39911 H 3647.38 1.93528 3.74332 0
M  V30 39912 H 3646.06 0.926098 3.10169 0
M  V30 39913 H 3644.97 3.04766 2.16952 0
M  V30 39914 H 3646.3 3.99833 2.87044 0
M  V30 39915 N 3647.95 -0.707543 1.40825 0
M  V30 39916 C 3648.9 -1.84292 1.41913 0
M  V30 39917 C 3649.89 -1.66747 0.298622 0
M  V30 39918 O 3651.1 -1.73754 0.470061 0
M  V30 39919 H 3647.47 -0.607101 0.443771 0
M  V30 39920 H 3649.44 -1.8049 2.37626 0
M  V30 39921 C 3648.19 -3.22221 1.30649 0
M  V30 39922 H 3647.52 -3.36331 2.16151 0
M  V30 39923 H 3648.96 -4.01776 1.35471 0
M  V30 39924 C 3647.42 -3.36895 0.0175459 0
M  V30 39925 O 3647.95 -3.90491 -0.942329 0
M  V30 39926 N 3646.15 -2.90549 -0.0546061 0
M  V30 39927 H 3645.7 -2.47121 0.727248 0
M  V30 39928 H 3645.66 -3.00746 -0.916468 0
M  V30 39929 N 3649.43 -1.26454 -0.940588 0
M  V30 39930 C 3650.66 -1.14646 -1.71872 0
M  V30 39931 C 3651.07 0.300936 -1.86791 0
M  V30 39932 O 3650.41 1.21782 -1.37532 0
M  V30 39933 C 3650.47 -1.74326 -3.14405 0
M  V30 39934 C 3650.14 -3.23428 -3.22868 0
M  V30 39935 C 3651.13 -4.20237 -3.061 0
M  V30 39936 C 3648.82 -3.63901 -3.46239 0
M  V30 39937 C 3650.81 -5.55498 -3.12572 0
M  V30 39938 C 3648.5 -4.99295 -3.52346 0
M  V30 39939 C 3649.5 -5.94903 -3.35528 0
M  V30 39940 O 3649.18 -7.27832 -3.41345 0
M  V30 39941 H 3648.92 -0.400043 -0.544924 0
M  V30 39942 H 3651.47 -1.67584 -1.18764 0
M  V30 39943 H 3649.7 -1.15852 -3.68938 0
M  V30 39944 H 3651.39 -1.57416 -3.74132 0
M  V30 39945 H 3652.16 -3.90307 -2.87899 0
M  V30 39946 H 3648.03 -2.89968 -3.58384 0
M  V30 39947 H 3651.58 -6.30101 -2.99363 0
M  V30 39948 H 3647.48 -5.28886 -3.70067 0
M  V30 39949 H 3648.24 -7.36112 -3.57884 0
M  V30 39950 N 3650.91 1.14525 -1.08268 0
M  V30 39951 C 3652.16 1.84877 -0.806437 0
M  V30 39952 C 3652.47 1.83763 0.670119 0
M  V30 39953 O 3653.67 2.4989 1.06147 0
M  V30 39954 C 3652.13 3.31864 -1.39263 0
M  V30 39955 C 3651.74 3.41399 -2.90087 0
M  V30 39956 C 3653.48 4.07338 -1.19482 0
M  V30 39957 C 3651.39 4.82589 -3.41851 0
M  V30 39958 H 3650.32 0.69261 -0.298005 0
M  V30 39959 H 3652.97 1.29114 -1.30391 0
M  V30 39960 H 3651.35 3.87356 -0.82287 0
M  V30 39961 H 3652.53 2.95965 -3.53188 0
M  V30 39962 H 3650.84 2.79379 -3.08765 0
M  V30 39963 H 3653.44 5.11552 -1.55623 0
M  V30 39964 H 3653.78 4.16083 -0.134528 0
M  V30 39965 H 3654.31 3.58142 -1.73144 0
M  V30 39966 H 3651.05 4.79032 -4.47447 0
M  V30 39967 H 3650.57 5.28567 -2.83509 0
M  V30 39968 H 3652.25 5.51475 -3.38356 0
M  V30 39969 N 3652.39 0.868133 1.31534 0
M  V30 39970 C 3653.33 0.311621 2.30503 0
M  V30 39971 C 3654.33 -0.572304 1.5944 0
M  V30 39972 O 3655.53 -0.458609 1.7406 0
M  V30 39973 H 3651.91 0.0820876 0.747506 0
M  V30 39974 H 3653.88 1.16031 2.74917 0
M  V30 39975 C 3652.63 -0.473562 3.4446 0
M  V30 39976 H 3651.95 0.197329 3.99313 0
M  V30 39977 H 3653.39 -0.82832 4.1583 0
M  V30 39978 C 3651.85 -1.66411 2.92932 0
M  V30 39979 O 3652.38 -2.76339 2.91547 0
M  V30 39980 N 3650.59 -1.49563 2.49157 0
M  V30 39981 H 3650.13 -0.601364 2.50482 0
M  V30 39982 H 3650.09 -2.29362 2.15036 0
M  V30 39983 N 3653.86 -1.44574 0.627389 0
M  V30 39984 C 3655.1 -2.03963 0.13365 0
M  V30 39985 C 3655.47 -1.48254 -1.22003 0
M  V30 39986 O 3656.67 -1.99121 -1.80566 0
M  V30 39987 C 3654.94 -3.57212 0.115897 0
M  V30 39988 S 3656.5 -4.37677 -0.313766 0
M  V30 39989 H 3653.32 -0.708527 0.0592523 0
M  V30 39990 H 3655.92 -1.77009 0.82994 0
M  V30 39991 H 3654.62 -3.95264 1.10429 0
M  V30 39992 H 3654.15 -3.8877 -0.601759 0
M  V30 39993 H 3656.17 -4.71078 -1.55884 0
M  V30 39994 N 3655.34 -0.367711 -1.5325 0
M  V30 39995 C 3656.27 0.469636 -2.28728 0
M  V30 39996 C 3657.25 1.08211 -1.31242 0
M  V30 39997 O 3658.44 1.09896 -1.60114 0
M  V30 39998 C 3655.57 1.60841 -3.07811 0
M  V30 39999 C 3654.52 1.12308 -4.13002 0
M  V30 40000 C 3653.85 2.35226 -4.8018 0
M  V30 40001 C 3655.15 0.206309 -5.21892 0
M  V30 40002 H 3656.84 -0.160072 -2.98972 0
M  V30 40003 H 3654.39 -0.0784264 -1.43786 0
M  V30 40004 H 3656.34 2.20084 -3.59362 0
M  V30 40005 H 3655.06 2.26538 -2.35262 0
M  V30 40006 H 3653.72 0.553314 -3.624 0
M  V30 40007 H 3653.37 2.99384 -4.04201 0
M  V30 40008 H 3653.07 2.03423 -5.51265 0
M  V30 40009 H 3654.6 2.95151 -5.34526 0
M  V30 40010 H 3656.01 0.706286 -5.68933 0
M  V30 40011 H 3654.41 -0.0209417 -6.00096 0
M  V30 40012 H 3655.48 -0.750935 -4.7905 0
M  V30 40013 N 3656.82 1.57302 -0.0969353 0
M  V30 40014 C 3657.75 2.17149 0.858405 0
M  V30 40015 C 3658.73 1.10534 1.29292 0
M  V30 40016 O 3659.92 1.38679 1.35948 0
M  V30 40017 C 3657.05 2.75329 2.11686 0
M  V30 40018 C 3656 3.87333 1.82091 0
M  V30 40019 C 3655.33 4.32224 3.1478 0
M  V30 40020 C 3656.63 5.10446 1.10642 0
M  V30 40021 H 3658.32 2.97231 0.359768 0
M  V30 40022 H 3655.87 1.42974 0.171605 0
M  V30 40023 H 3657.82 3.15849 2.78957 0
M  V30 40024 H 3656.54 1.92505 2.63836 0
M  V30 40025 H 3655.2 3.47356 1.17216 0
M  V30 40026 H 3654.85 3.46288 3.6482 0
M  V30 40027 H 3654.55 5.0774 2.9576 0
M  V30 40028 H 3656.07 4.75379 3.83207 0
M  V30 40029 H 3657.49 5.48124 1.68027 0
M  V30 40030 H 3655.88 5.91403 1.01795 0
M  V30 40031 H 3656.95 4.84817 0.0894782 0
M  V30 40032 N 3658.3 -0.176766 1.56606 0
M  V30 40033 C 3659.52 -0.914048 1.86172 0
M  V30 40034 C 3659.95 -1.75275 0.682651 0
M  V30 40035 O 3659.31 -1.77518 -0.36836 0
M  V30 40036 C 3659.35 -1.77105 3.14112 0
M  V30 40037 O 3658.46 -2.87204 2.95952 0
M  V30 40038 H 3657.8 -0.256369 0.612512 0
M  V30 40039 H 3660.33 -0.17655 2.03837 0
M  V30 40040 H 3660.34 -2.17207 3.45377 0
M  V30 40041 H 3659.01 -1.15495 3.99542 0
M  V30 40042 H 3657.59 -2.50724 2.76028 0
M  V30 40043 N 3659.78 -1.51183 -0.445132 0
M  V30 40044 C 3661.02 -1.63143 -1.19285 0
M  V30 40045 C 3661.34 -0.346143 -1.91903 0
M  V30 40046 O 3660.61 0.637663 -1.85231 0
M  V30 40047 H 3659.19 -0.601237 -0.443309 0
M  V30 40048 H 3661.86 -1.88079 -0.511103 0
M  V30 40049 H 3660.95 -2.45531 -1.92668 0
M  V30 40050 N 3661.25 0.700065 -1.41198 0
M  V30 40051 C 3662.16 1.84392 -1.45041 0
M  V30 40052 C 3663.18 1.70617 -0.34144 0
M  V30 40053 O 3664.36 1.92611 -0.588462 0
M  V30 40054 C 3661.42 3.20334 -1.32616 0
M  V30 40055 C 3660.48 3.4625 -2.5379 0
M  V30 40056 C 3659.71 4.75706 -2.41949 0
M  V30 40057 O 3659.94 5.51881 -1.44163 0
M  V30 40058 O 3658.87 5.02306 -3.31621 0
M  V30 40059 H 3662.7 1.84106 -2.41534 0
M  V30 40060 H 3660.28 0.852536 -1.22687 0
M  V30 40061 H 3662.16 4.01504 -1.27954 0
M  V30 40062 H 3660.84 3.21313 -0.392365 0
M  V30 40063 H 3659.75 2.65027 -2.64029 0
M  V30 40064 H 3661.08 3.50081 -3.45983 0
M  V30 40065 N 3662.73 1.26951 0.933869 0
M  V30 40066 C 3663.64 1.1094 2.06711 0
M  V30 40067 C 3664.66 0.0410039 1.73952 0
M  V30 40068 O 3665.83 0.246234 1.99889 0
M  V30 40069 C 3662.9 0.751755 3.38452 0
M  V30 40070 C 3661.96 1.90036 3.84948 0
M  V30 40071 C 3661.19 1.55968 5.10401 0
M  V30 40072 O 3661.42 0.464746 5.68504 0
M  V30 40073 O 3660.35 2.39684 5.52119 0
M  V30 40074 H 3664.18 2.06027 2.23129 0
M  V30 40075 H 3661.76 1.06081 1.052 0
M  V30 40076 H 3663.64 0.565358 4.1759 0
M  V30 40077 H 3662.32 -0.169646 3.23255 0
M  V30 40078 H 3661.22 2.14177 3.06723 0
M  V30 40079 H 3662.56 2.80174 4.04677 0
M  V30 40080 N 3664.21 -1.13949 1.08873 0
M  V30 40081 C 3665.16 -2.17228 0.692545 0
M  V30 40082 C 3666.14 -1.58261 -0.290237 0
M  V30 40083 O 3667.34 -1.76709 -0.1015 0
M  V30 40084 C 3664.46 -3.43128 0.108547 0
M  V30 40085 C 3663.55 -4.09115 1.1174 0
M  V30 40086 N 3663.94 -4.50353 2.30252 0
M  V30 40087 C 3662.24 -4.35672 0.954248 0
M  V30 40088 C 3662.94 -5.01711 2.94382 0
M  V30 40089 N 3661.92 -4.96217 2.21968 0
M  V30 40090 H 3665.72 -2.46858 1.59494 0
M  V30 40091 H 3663.23 -1.30684 0.964136 0
M  V30 40092 H 3665.23 -4.16452 -0.193272 0
M  V30 40093 H 3663.89 -3.14974 -0.788765 0
M  V30 40094 H 3664.9 -4.43239 2.67879 0
M  V30 40095 H 3661.58 -4.17352 0.111142 0
M  V30 40096 H 3662.97 -5.43458 3.95099 0
M  V30 40097 N 3665.69 -0.875096 -1.31072 0
M  V30 40098 C 3666.96 -0.409049 -1.91275 0
M  V30 40099 C 3667.34 1.10936 -1.79601 0
M  V30 40100 O 3666.69 1.94024 -1.20693 0
M  V30 40101 C 3666.9 -0.896133 -3.37299 0
M  V30 40102 C 3668.25 -0.925278 -4.14396 0
M  V30 40103 O 3669.27 -0.84213 -3.46102 0
M  V30 40104 O 3668.13 -1.04649 -5.36387 0
M  V30 40105 H 3665.23 -0.123324 -0.817753 0
M  V30 40106 H 3667.77 -0.963346 -1.39706 0
M  V30 40107 H 3666.55 -1.93981 -3.39834 0
M  V30 40108 H 3666.17 -0.320437 -3.96307 0
M  V30 40109 N 3667.17 1.44239 -0.635047 0
M  V30 40110 C 3668.1 2.279 0.116932 0
M  V30 40111 C 3669.08 1.38768 0.847481 0
M  V30 40112 O 3670.26 1.68209 0.850771 0
M  V30 40113 C 3667.39 3.17785 1.17177 0
M  V30 40114 C 3666.43 4.23051 0.541314 0
M  V30 40115 S 3667.27 5.31273 -0.671547 0
M  V30 40116 C 3668.42 6.24726 0.383208 0
M  V30 40117 H 3668.66 2.9133 -0.59279 0
M  V30 40118 H 3666.19 1.48483 -0.423334 0
M  V30 40119 H 3668.15 3.70121 1.77541 0
M  V30 40120 H 3666.81 2.53567 1.85371 0
M  V30 40121 H 3666 4.85973 1.33589 0
M  V30 40122 H 3665.6 3.73998 0.0122049 0
M  V30 40123 H 3667.9 6.65781 1.25465 0
M  V30 40124 H 3668.84 7.07787 -0.210534 0
M  V30 40125 H 3669.25 5.60006 0.710864 0
M  V30 40126 N 3668.64 0.375833 1.53053 0
M  V30 40127 C 3669.89 -0.20348 2.0238 0
M  V30 40128 C 3670.25 -1.45584 1.2579 0
M  V30 40129 O 3669.54 -1.8845 0.346016 0
M  V30 40130 C 3669.73 -0.538357 3.53322 0
M  V30 40131 C 3669.56 0.679995 4.44529 0
M  V30 40132 C 3668.33 1.19519 4.90962 0
M  V30 40133 C 3670.53 1.5483 4.90441 0
M  V30 40134 N 3668.51 2.37249 5.66203 0
M  V30 40135 C 3669.88 2.57215 5.64128 0
M  V30 40136 C 3671.94 1.56997 4.725 0
M  V30 40137 C 3670.64 3.61638 6.2178 0
M  V30 40138 C 3672.67 2.60319 5.31025 0
M  V30 40139 C 3672.03 3.61428 6.04607 0
M  V30 40140 H 3668.13 -0.0369022 0.781129 0
M  V30 40141 H 3670.71 0.52269 1.87553 0
M  V30 40142 H 3668.88 -1.23359 3.68289 0
M  V30 40143 H 3670.61 -1.10365 3.89361 0
M  V30 40144 H 3667.37 0.758238 4.67491 0
M  V30 40145 H 3667.79 2.96782 6.08481 0
M  V30 40146 H 3672.44 0.801788 4.15128 0
M  V30 40147 H 3670.15 4.39332 6.78242 0
M  V30 40148 H 3673.74 2.62863 5.19032 0
M  V30 40149 H 3672.62 4.40066 6.49085 0
M  V30 40150 N 3670.12 -1.57248 0.105276 0
M  V30 40151 C 3671.37 -1.95005 -0.556844 0
M  V30 40152 C 3671.7 -0.987848 -1.67198 0
M  V30 40153 O 3670.98 -0.0226502 -1.94487 0
M  V30 40154 C 3671.26 -3.42809 -1.10246 0
M  V30 40155 C 3671.11 -4.49799 0.00831815 0
M  V30 40156 C 3672.43 -3.9215 -1.99767 0
M  V30 40157 H 3669.55 -0.709077 -0.200946 0
M  V30 40158 H 3672.19 -1.89164 0.178052 0
M  V30 40159 H 3670.34 -3.47918 -1.72874 0
M  V30 40160 H 3672.01 -4.56796 0.643024 0
M  V30 40161 H 3670.26 -4.28542 0.673341 0
M  V30 40162 H 3670.93 -5.50442 -0.414442 0
M  V30 40163 H 3673.4 -3.89258 -1.47029 0
M  V30 40164 H 3672.28 -4.96114 -2.34866 0
M  V30 40165 H 3672.54 -3.32038 -2.91896 0
M  V30 40166 N 3671.6 0.168458 -1.56697 0
M  V30 40167 C 3672.85 0.884622 -1.82156 0
M  V30 40168 C 3673.18 1.82121 -0.68281 0
M  V30 40169 O 3672.43 1.92902 0.329736 0
M  V30 40170 C 3672.73 1.71063 -3.13803 0
M  V30 40171 C 3672.4 0.922715 -4.41358 0
M  V30 40172 C 3671.06 0.705268 -4.76004 0
M  V30 40173 C 3673.41 0.370232 -5.19883 0
M  V30 40174 C 3670.74 -0.0757152 -5.86651 0
M  V30 40175 C 3673.09 -0.397679 -6.31349 0
M  V30 40176 C 3671.75 -0.625899 -6.64559 0
M  V30 40177 H 3671.02 0.323706 -0.666555 0
M  V30 40178 H 3673.67 0.149399 -1.90916 0
M  V30 40179 H 3671.98 2.51533 -3.00397 0
M  V30 40180 H 3673.67 2.26784 -3.30712 0
M  V30 40181 H 3670.26 1.10224 -4.14184 0
M  V30 40182 H 3674.45 0.525559 -4.93509 0
M  V30 40183 H 3669.7 -0.262245 -6.10837 0
M  V30 40184 H 3673.88 -0.833023 -6.914 0
M  V30 40185 H 3671.5 -1.23294 -7.50135 0
M  V30 40186 N 3673.08 1.51417 0.437109 0
M  V30 40187 C 3674.49 1.39598 0.773606 0
M  V30 40188 C 3674.69 0.478498 1.95736 0
M  V30 40189 O 3673.75 -0.0662527 2.52413 0
M  V30 40190 C 3675.06 2.81631 1.05377 0
M  V30 40191 C 3676.61 2.90784 1.15818 0
M  V30 40192 C 3677.09 4.33725 1.47128 0
M  V30 40193 N 3678.58 4.36832 1.54051 0
M  V30 40194 C 3679.31 5.44465 1.79849 0
M  V30 40195 N 3678.81 6.62258 2.03437 0
M  V30 40196 N 3680.6 5.31945 1.81633 0
M  V30 40197 H 3672.75 2.0962 -0.342505 0
M  V30 40198 H 3675.02 0.943638 -0.0908324 0
M  V30 40199 H 3674.72 3.50762 0.256646 0
M  V30 40200 H 3674.6 3.20972 1.98134 0
M  V30 40201 H 3676.98 2.2185 1.94593 0
M  V30 40202 H 3677.06 2.5494 0.209618 0
M  V30 40203 H 3676.71 5.03208 0.688808 0
M  V30 40204 H 3676.64 4.67082 2.43191 0
M  V30 40205 H 3679.13 3.5191 1.37724 0
M  V30 40206 H 3679.44 7.40079 2.22493 0
M  V30 40207 H 3677.79 6.65373 2.00759 0
M  V30 40208 H 3680.98 4.38906 1.62724 0
M  V30 40209 H 3681.15 6.15907 2.01401 0
M  V30 40210 N 3674.56 -0.692567 1.41567 0
M  V30 40211 C 3675.49 -1.81884 1.46426 0
M  V30 40212 C 3676.47 -1.67013 0.32261 0
M  V30 40213 O 3677.65 -1.867 0.53447 0
M  V30 40214 C 3674.78 -3.20045 1.34866 0
M  V30 40215 C 3673.74 -3.49625 2.46873 0
M  V30 40216 C 3673.06 -4.87173 2.20378 0
M  V30 40217 C 3674.36 -3.48299 3.89211 0
M  V30 40218 H 3676.06 -1.78075 2.40686 0
M  V30 40219 H 3673.6 -0.855313 1.15846 0
M  V30 40220 H 3675.56 -3.98551 1.36876 0
M  V30 40221 H 3674.28 -3.24487 0.370917 0
M  V30 40222 H 3672.94 -2.73471 2.4415 0
M  V30 40223 H 3672.59 -4.88245 1.20939 0
M  V30 40224 H 3672.29 -5.07929 2.95435 0
M  V30 40225 H 3673.81 -5.67986 2.24109 0
M  V30 40226 H 3675.22 -4.16804 3.93633 0
M  V30 40227 H 3673.62 -3.80587 4.63976 0
M  V30 40228 H 3674.69 -2.47214 4.17149 0
M  V30 40229 N 3676.03 -1.27445 -0.927123 0
M  V30 40230 C 3677.27 -1.15053 -1.68944 0
M  V30 40231 C 3677.64 0.298551 -1.89665 0
M  V30 40232 O 3678.84 0.544896 -2.63219 0
M  V30 40233 C 3677.11 -1.91319 -3.01881 0
M  V30 40234 S 3678.67 -1.95147 -3.93018 0
M  V30 40235 H 3675.49 -0.410723 -0.580368 0
M  V30 40236 H 3678.09 -1.61361 -1.10376 0
M  V30 40237 H 3676.79 -2.95792 -2.84491 0
M  V30 40238 H 3676.32 -1.45508 -3.65501 0
M  V30 40239 H 3678.34 -1.04831 -4.85 0
M  V30 40240 N 3677.51 1.1337 -1.09476 0
M  V30 40241 C 3678.74 1.89041 -0.853126 0
M  V30 40242 C 3679.16 1.78606 0.590044 0
M  V30 40243 O 3678.52 1.13396 1.4146 0
M  V30 40244 C 3678.57 3.36596 -1.29365 0
M  V30 40245 O 3677.67 4.09911 -0.452428 0
M  V30 40246 H 3677.01 0.587756 -0.308932 0
M  V30 40247 H 3679.54 1.43435 -1.45903 0
M  V30 40248 H 3679.55 3.87426 -1.27928 0
M  V30 40249 H 3678.23 3.43509 -2.34466 0
M  V30 40250 H 3676.81 3.69098 -0.531163 0
M  V30 40251 N 3678.99 0.882035 1.30606 0
M  V30 40252 C 3679.92 0.362747 2.30665 0
M  V30 40253 C 3680.9 -0.552833 1.60866 0
M  V30 40254 O 3682.09 -0.467306 1.88494 0
M  V30 40255 C 3679.22 -0.426159 3.44675 0
M  V30 40256 C 3678.17 0.397397 4.26151 0
M  V30 40257 C 3677.5 -0.517933 5.32186 0
M  V30 40258 C 3678.8 1.63794 4.95952 0
M  V30 40259 H 3680.49 1.19888 2.74349 0
M  V30 40260 H 3678.04 0.577935 1.31894 0
M  V30 40261 H 3679.99 -0.800057 4.13735 0
M  V30 40262 H 3678.71 -1.29591 2.99789 0
M  V30 40263 H 3677.37 0.753395 3.58775 0
M  V30 40264 H 3677.02 -1.38531 4.83547 0
M  V30 40265 H 3676.72 0.0292834 5.87593 0
M  V30 40266 H 3678.24 -0.888411 6.04102 0
M  V30 40267 H 3679.66 1.3348 5.57545 0
M  V30 40268 H 3678.06 2.12513 5.61211 0
M  V30 40269 H 3679.13 2.38401 4.22247 0
M  V30 40270 N 3680.47 -1.439 0.642688 0
M  V30 40271 C 3681.71 -2.02765 0.1606 0
M  V30 40272 C 3682.07 -1.49731 -1.20824 0
M  V30 40273 O 3681.36 -0.676457 -1.79261 0
M  V30 40274 C 3681.56 -3.5726 0.100202 0
M  V30 40275 C 3681.39 -4.25283 1.46164 0
M  V30 40276 C 3680.16 -4.61787 2.05137 0
M  V30 40277 C 3682.35 -4.54979 2.39789 0
M  V30 40278 N 3680.34 -5.14833 3.34396 0
M  V30 40279 C 3681.71 -5.09231 3.53672 0
M  V30 40280 C 3683.76 -4.36939 2.38723 0
M  V30 40281 C 3682.46 -5.47342 4.667 0
M  V30 40282 C 3684.49 -4.76105 3.50824 0
M  V30 40283 C 3683.85 -5.30481 4.63432 0
M  V30 40284 H 3679.95 -0.775193 0.102955 0
M  V30 40285 H 3682.54 -1.75229 0.848701 0
M  V30 40286 H 3680.71 -3.84382 -0.557212 0
M  V30 40287 H 3682.44 -4.02799 -0.391783 0
M  V30 40288 H 3679.19 -4.46482 1.57957 0
M  V30 40289 H 3679.62 -5.4582 4.00512 0
M  V30 40290 H 3684.26 -3.94182 1.52907 0
M  V30 40291 H 3681.98 -5.89048 5.53216 0
M  V30 40292 H 3685.56 -4.63851 3.51189 0
M  V30 40293 H 3684.44 -5.60227 5.4874 0
M  V30 40294 N 3681.95 -0.383945 -1.52852 0
M  V30 40295 C 3682.88 0.44535 -2.29214 0
M  V30 40296 C 3683.86 1.06813 -1.32382 0
M  V30 40297 O 3685.04 1.08191 -1.61271 0
M  V30 40298 C 3682.17 1.57567 -3.09499 0
M  V30 40299 C 3681.13 1.07921 -4.1417 0
M  V30 40300 C 3680.45 2.30119 -4.82648 0
M  V30 40301 C 3681.75 0.150943 -5.22082 0
M  V30 40302 H 3683.45 -0.191773 -2.98785 0
M  V30 40303 H 3680.99 -0.0936724 -1.43695 0
M  V30 40304 H 3682.95 2.16261 -3.61676 0
M  V30 40305 H 3681.67 2.2403 -2.37651 0
M  V30 40306 H 3680.33 0.514846 -3.62967 0
M  V30 40307 H 3679.98 2.9508 -4.07353 0
M  V30 40308 H 3679.68 1.97565 -5.53391 0
M  V30 40309 H 3681.2 2.89465 -5.37627 0
M  V30 40310 H 3682.62 0.645903 -5.6965 0
M  V30 40311 H 3681.01 -0.0845887 -6.0004 0
M  V30 40312 H 3682.08 -0.801703 -4.78227 0
M  V30 40313 N 3683.43 1.5719 -0.113614 0
M  V30 40314 C 3684.34 2.18567 0.852389 0
M  V30 40315 C 3685.35 1.16029 1.29666 0
M  V30 40316 O 3686.53 1.48476 1.36076 0
M  V30 40317 C 3683.59 2.76871 2.0867 0
M  V30 40318 C 3682.65 3.94427 1.69487 0
M  V30 40319 C 3681.89 4.49941 2.87034 0
M  V30 40320 O 3682.11 4.04361 4.02304 0
M  V30 40321 O 3681.04 5.40704 2.6443 0
M  V30 40322 H 3684.87 3.01558 0.360091 0
M  V30 40323 H 3682.45 1.48982 0.111718 0
M  V30 40324 H 3684.34 3.14059 2.80971 0
M  V30 40325 H 3683.01 1.96915 2.56917 0
M  V30 40326 H 3681.92 3.62017 0.943098 0
M  V30 40327 H 3683.25 4.75803 1.25987 0
M  V30 40328 N 3684.9 -0.160146 1.56784 0
M  V30 40329 C 3685.85 -1.21734 1.98201 0
M  V30 40330 C 3686.85 -1.45208 0.872406 0
M  V30 40331 O 3688.05 -1.45656 1.05756 0
M  V30 40332 H 3684.43 -0.409463 0.630749 0
M  V30 40333 H 3686.4 -0.841239 2.86297 0
M  V30 40334 C 3685.15 -2.54644 2.36753 0
M  V30 40335 H 3684.47 -2.37407 3.2168 0
M  V30 40336 H 3685.91 -3.27277 2.69566 0
M  V30 40337 C 3684.37 -3.14222 1.21516 0
M  V30 40338 O 3684.9 -3.98465 0.50881 0
M  V30 40339 N 3683.1 -2.73476 0.982814 0
M  V30 40340 H 3682.65 -2.0507 1.55897 0
M  V30 40341 H 3682.61 -3.13673 0.213644 0
M  V30 40342 N 3686.38 -1.51647 -0.429072 0
M  V30 40343 C 3687.61 -1.6883 -1.20462 0
M  V30 40344 C 3688.03 -0.388546 -1.84043 0
M  V30 40345 O 3687.39 0.652123 -1.69166 0
M  V30 40346 C 3687.44 -2.81132 -2.25826 0
M  V30 40347 O 3686.54 -2.4531 -3.31507 0
M  V30 40348 H 3685.88 -0.562671 -0.352558 0
M  V30 40349 H 3688.41 -1.98253 -0.505663 0
M  V30 40350 H 3688.42 -3.0546 -2.70478 0
M  V30 40351 H 3687.1 -3.75443 -1.78928 0
M  V30 40352 H 3685.67 -2.31584 -2.92273 0
M  V30 40353 N 3687.86 0.685049 -1.41932 0
M  V30 40354 C 3689.11 1.44226 -1.41574 0
M  V30 40355 C 3689.43 1.94978 -0.0294787 0
M  V30 40356 O 3688.7 1.72397 0.930384 0
M  V30 40357 H 3687.28 0.535177 -0.521148 0
M  V30 40358 H 3689.94 0.810139 -1.77265 0
M  V30 40359 H 3689.04 2.3003 -2.10933 0
M  V30 40360 N 3689.34 1.27935 0.920351 0
M  V30 40361 C 3690.58 1.14873 1.67129 0
M  V30 40362 C 3690.92 -0.303309 1.91817 0
M  V30 40363 O 3690.19 -1.22123 1.51381 0
M  V30 40364 C 3690.47 1.94071 3.03329 0
M  V30 40365 C 3690.33 3.47301 2.85836 0
M  V30 40366 C 3691.65 1.75095 4.0377 0
M  V30 40367 H 3688.77 0.418677 0.60653 0
M  V30 40368 H 3691.41 1.57175 1.06752 0
M  V30 40369 H 3689.56 1.58122 3.54866 0
M  V30 40370 H 3691.23 3.93119 2.4136 0
M  V30 40371 H 3689.47 3.73268 2.21028 0
M  V30 40372 H 3690.14 3.97965 3.82528 0
M  V30 40373 H 3692.62 2.06454 3.6127 0
M  V30 40374 H 3691.5 2.32891 4.97044 0
M  V30 40375 H 3691.76 0.700741 4.36511 0
M  V30 40376 N 3690.82 -1.12788 1.10076 0
M  V30 40377 C 3692.04 -1.88586 0.863139 0
M  V30 40378 C 3692.47 -1.78916 -0.580564 0
M  V30 40379 O 3691.82 -1.14145 -1.40857 0
M  V30 40380 C 3691.87 -3.35906 1.31148 0
M  V30 40381 O 3690.98 -4.09665 0.47416 0
M  V30 40382 H 3690.32 -0.586109 0.312045 0
M  V30 40383 H 3692.85 -1.42659 1.46661 0
M  V30 40384 H 3692.86 -3.86742 1.2998 0
M  V30 40385 H 3691.53 -3.42261 2.36285 0
M  V30 40386 H 3690.11 -3.68811 0.55073 0
M  V30 40387 N 3692.29 -0.888949 -1.30136 0
M  V30 40388 C 3693.2 -0.362841 -2.31777 0
M  V30 40389 C 3694.22 0.536951 -1.65508 0
M  V30 40390 O 3695.4 0.429117 -1.96775 0
M  V30 40391 C 3692.46 0.410612 -3.4426 0
M  V30 40392 C 3691.52 -0.519409 -4.26146 0
M  V30 40393 C 3690.75 0.217226 -5.33258 0
M  V30 40394 O 3690.98 1.44274 -5.51852 0
M  V30 40395 O 3689.91 -0.434716 -6.00328 0
M  V30 40396 H 3693.74 -1.2058 -2.78737 0
M  V30 40397 H 3691.32 -0.652913 -1.34378 0
M  V30 40398 H 3693.2 0.848395 -4.12771 0
M  V30 40399 H 3691.88 1.22981 -2.99428 0
M  V30 40400 H 3690.79 -1.00608 -3.60318 0
M  V30 40401 H 3692.12 -1.30472 -4.74592 0
M  V30 40402 N 3693.77 1.43557 -0.65031 0
M  V30 40403 C 3695.02 2.02146 -0.162761 0
M  V30 40404 C 3695.35 1.51169 1.21909 0
M  V30 40405 O 3694.63 0.703595 1.81328 0
M  V30 40406 C 3694.91 3.59697 -0.170419 0
M  V30 40407 C 3694.76 4.20912 -1.58597 0
M  V30 40408 C 3696.08 4.3731 0.494755 0
M  V30 40409 H 3693.2 0.734503 -0.0606184 0
M  V30 40410 H 3695.84 1.70891 -0.830441 0
M  V30 40411 H 3693.99 3.86455 0.398122 0
M  V30 40412 H 3695.66 4.05195 -2.20488 0
M  V30 40413 H 3693.91 3.77673 -2.13414 0
M  V30 40414 H 3694.58 5.2999 -1.54321 0
M  V30 40415 H 3697.05 4.16099 0.011055 0
M  V30 40416 H 3695.93 5.4698 0.458657 0
M  V30 40417 H 3696.19 4.13345 1.56839 0
M  V30 40418 N 3695.25 0.392045 1.52646 0
M  V30 40419 C 3696.2 -0.456634 2.28074 0
M  V30 40420 C 3697.19 -1.06069 1.32082 0
M  V30 40421 O 3698.4 -1.00085 1.49609 0
M  V30 40422 H 3694.77 -0.166017 0.733446 0
M  V30 40423 H 3696.74 0.200968 2.97722 0
M  V30 40424 C 3695.49 -1.57035 3.10218 0
M  V30 40425 H 3694.82 -1.11486 3.83941 0
M  V30 40426 H 3696.26 -2.13834 3.6613 0
M  V30 40427 C 3694.71 -2.52795 2.22702 0
M  V30 40428 O 3695.24 -3.5627 1.85566 0
M  V30 40429 N 3693.45 -2.22601 1.86808 0
M  V30 40430 H 3693 -1.38488 2.17207 0
M  V30 40431 H 3692.96 -2.86922 1.28543 0
M  V30 40432 N 3696.73 -1.57127 0.121948 0
M  V30 40433 C 3697.98 -1.9491 -0.534279 0
M  V30 40434 C 3698.3 -1.00633 -1.67027 0
M  V30 40435 O 3697.57 -0.063171 -1.95798 0
M  V30 40436 H 3696.15 -0.719628 -0.20036 0
M  V30 40437 H 3698.81 -1.93956 0.191581 0
M  V30 40438 H 3697.91 -2.98018 -0.926922 0
M  V30 40439 N 3698.21 0.151829 -1.56867 0
M  V30 40440 C 3699.14 1.21697 -1.93041 0
M  V30 40441 C 3700.12 1.41804 -0.795632 0
M  V30 40442 O 3701.3 1.56495 -1.05079 0
M  V30 40443 C 3698.43 2.5767 -2.19826 0
M  V30 40444 C 3697.47 2.54186 -3.42479 0
M  V30 40445 S 3698.31 2.01354 -4.96202 0
M  V30 40446 C 3699.46 3.39066 -5.26104 0
M  V30 40447 H 3699.7 0.90832 -2.83084 0
M  V30 40448 H 3697.23 0.357239 -1.5021 0
M  V30 40449 H 3699.19 3.35922 -2.35938 0
M  V30 40450 H 3697.85 2.85727 -1.30456 0
M  V30 40451 H 3697.04 3.54269 -3.58482 0
M  V30 40452 H 3696.64 1.84041 -3.25584 0
M  V30 40453 H 3698.94 4.35154 -5.19275 0
M  V30 40454 H 3699.88 3.2792 -6.27594 0
M  V30 40455 H 3700.29 3.35978 -4.53629 0
M  V30 40456 N 3699.68 1.51872 0.421024 0
M  V30 40457 C 3700.62 1.69067 1.5327 0
M  V30 40458 C 3701.6 0.538209 1.53434 0
M  V30 40459 O 3702.78 0.76409 1.72319 0
M  V30 40460 C 3699.91 1.71915 2.91827 0
M  V30 40461 C 3698.95 2.93319 3.09623 0
M  V30 40462 S 3699.79 4.53867 2.84192 0
M  V30 40463 C 3700.94 4.59484 4.25001 0
M  V30 40464 H 3701.17 2.63093 1.38454 0
M  V30 40465 H 3698.71 1.41761 0.611814 0
M  V30 40466 H 3700.67 1.74241 3.71686 0
M  V30 40467 H 3699.33 0.790372 3.03993 0
M  V30 40468 H 3698.52 2.9176 4.10965 0
M  V30 40469 H 3698.12 2.88819 2.37612 0
M  V30 40470 H 3700.41 4.36128 5.18458 0
M  V30 40471 H 3701.36 5.61371 4.31588 0
M  V30 40472 H 3701.76 3.88636 4.09417 0
M  V30 40473 N 3701.16 -0.677513 1.42294 0
M  V30 40474 C 3702.11 -1.79112 1.4556 0
M  V30 40475 C 3703.08 -1.63222 0.307855 0
M  V30 40476 O 3704.26 -1.83815 0.511536 0
M  V30 40477 C 3701.4 -3.17125 1.36109 0
M  V30 40478 C 3700.52 -3.44321 2.60897 0
M  V30 40479 C 3699.65 -4.72047 2.43609 0
M  V30 40480 C 3698.69 -4.92268 3.63784 0
M  V30 40481 N 3697.83 -6.11233 3.45455 0
M  V30 40482 H 3702.67 -1.75655 2.40726 0
M  V30 40483 H 3700.21 -0.857544 1.19518 0
M  V30 40484 H 3702.16 -3.96876 1.28629 0
M  V30 40485 H 3700.79 -3.19712 0.445398 0
M  V30 40486 H 3699.85 -2.58843 2.78755 0
M  V30 40487 H 3701.16 -3.55157 3.50235 0
M  V30 40488 H 3700.31 -5.59884 2.33699 0
M  V30 40489 H 3699.05 -4.63488 1.51756 0
M  V30 40490 H 3698.06 -4.02874 3.74129 0
M  V30 40491 H 3699.28 -5.02673 4.56614 0
M  V30 40492 H 3697.23 -6.03852 2.56317 0
M  V30 40493 H 3697.14 -6.22918 4.28379 0
M  V30 40494 H 3698.41 -7.01756 3.39351 0
M  V30 40495 N 3702.64 -1.28421 -0.913554 0
M  V30 40496 C 3704.06 -1.06132 -1.19198 0
M  V30 40497 C 3704.26 0.196197 -2.00543 0
M  V30 40498 O 3703.31 0.897811 -2.35999 0
M  V30 40499 C 3704.63 -2.30892 -1.92638 0
M  V30 40500 C 3706.17 -2.36073 -2.0552 0
M  V30 40501 C 3706.65 -3.606 -2.82368 0
M  V30 40502 N 3708.14 -3.61241 -2.89929 0
M  V30 40503 C 3708.87 -4.54273 -3.49891 0
M  V30 40504 N 3708.37 -5.57623 -4.11131 0
M  V30 40505 N 3710.16 -4.41868 -3.47432 0
M  V30 40506 H 3702.31 -2.09144 -0.370473 0
M  V30 40507 H 3704.58 -0.92053 -0.226556 0
M  V30 40508 H 3704.28 -3.22507 -1.40294 0
M  V30 40509 H 3704.16 -2.37321 -2.93187 0
M  V30 40510 H 3706.54 -1.44956 -2.57044 0
M  V30 40511 H 3706.63 -2.33639 -1.04146 0
M  V30 40512 H 3706.27 -4.52062 -2.31523 0
M  V30 40513 H 3706.2 -3.60289 -3.84057 0
M  V30 40514 H 3708.69 -2.86506 -2.46419 0
M  V30 40515 H 3709 -6.24754 -4.54866 0
M  V30 40516 H 3707.35 -5.61449 -4.09635 0
M  V30 40517 H 3710.54 -3.60328 -2.98799 0
M  V30 40518 H 3710.71 -5.14558 -3.93871 0
M  V30 40519 N 3704.12 1.12202 -1.10672 0
M  V30 40520 C 3705.4 1.80119 -0.762664 0
M  V30 40521 C 3705.78 1.97309 0.750495 0
M  V30 40522 O 3705.12 1.5514 1.67761 0
M  V30 40523 C 3705.33 3.14327 -1.51656 0
M  V30 40524 C 3706.68 3.89488 -1.69068 0
M  V30 40525 O 3707.71 3.23991 -1.48015 0
M  V30 40526 O 3706.56 5.07 -2.03993 0
M  V30 40527 H 3703.66 0.779787 -0.27543 0
M  V30 40528 H 3706.2 1.19016 -1.20968 0
M  V30 40529 H 3704.98 2.97121 -2.54627 0
M  V30 40530 H 3704.6 3.83139 -1.06257 0
M  V30 40531 N 3705.6 0.895838 1.29663 0
M  V30 40532 C 3706.84 0.518759 1.95329 0
M  V30 40533 C 3707.17 -0.937292 1.70997 0
M  V30 40534 O 3706.44 -1.66041 1.03958 0
M  V30 40535 H 3705.02 0.188854 0.722733 0
M  V30 40536 H 3707.68 1.14129 1.57989 0
M  V30 40537 H 3706.77 0.69811 3.04192 0
M  V30 40538 N 3707.07 -1.43211 0.657914 0
M  V30 40539 C 3708.01 -2.28057 -0.08066 0
M  V30 40540 C 3708.99 -1.40099 -0.825297 0
M  V30 40541 O 3710.17 -1.69541 -0.823903 0
M  V30 40542 C 3707.3 -3.19609 -1.12107 0
M  V30 40543 C 3706.34 -4.23859 -0.473942 0
M  V30 40544 S 3707.18 -5.30137 0.755983 0
M  V30 40545 C 3708.33 -6.25256 -0.283771 0
M  V30 40546 H 3708.56 -2.9035 0.639063 0
M  V30 40547 H 3706.1 -1.47791 0.446902 0
M  V30 40548 H 3708.06 -3.72898 -1.7163 0
M  V30 40549 H 3706.72 -2.56484 -1.81313 0
M  V30 40550 H 3705.91 -4.88037 -1.25841 0
M  V30 40551 H 3705.51 -3.7397 0.0472965 0
M  V30 40552 H 3707.8 -6.67693 -1.14857 0
M  V30 40553 H 3708.75 -7.07362 0.32311 0
M  V30 40554 H 3709.15 -5.61066 -0.621682 0
M  V30 40555 N 3708.55 -0.400135 -1.52436 0
M  V30 40556 C 3709.5 0.429759 -2.26764 0
M  V30 40557 C 3710.47 1.04868 -1.2881 0
M  V30 40558 O 3711.65 1.07465 -1.57657 0
M  V30 40559 C 3708.79 1.54534 -3.08567 0
M  V30 40560 C 3707.91 0.94822 -4.21465 0
M  V30 40561 C 3707.04 2.03575 -4.90643 0
M  V30 40562 C 3706.08 1.41509 -5.95518 0
M  V30 40563 N 3705.22 2.44239 -6.58249 0
M  V30 40564 H 3710.06 -0.210519 -2.97255 0
M  V30 40565 H 3707.6 -0.115652 -1.46645 0
M  V30 40566 H 3709.55 2.20301 -3.54293 0
M  V30 40567 H 3708.18 2.15577 -2.40263 0
M  V30 40568 H 3707.24 0.179852 -3.79975 0
M  V30 40569 H 3708.55 0.454758 -4.96723 0
M  V30 40570 H 3707.7 2.77088 -5.39729 0
M  V30 40571 H 3706.44 2.56284 -4.14933 0
M  V30 40572 H 3705.45 0.665258 -5.4576 0
M  V30 40573 H 3706.67 0.895812 -6.73166 0
M  V30 40574 H 3704.62 2.96097 -5.85374 0
M  V30 40575 H 3704.53 1.99679 -7.29153 0
M  V30 40576 H 3705.8 3.17349 -7.11976 0
M  V30 40577 N 3710.03 1.57061 -0.13028 0
M  V30 40578 C 3711.28 1.94752 0.524846 0
M  V30 40579 C 3711.59 1.01663 1.67105 0
M  V30 40580 O 3712.8 1.28865 2.38969 0
M  V30 40581 C 3711.25 3.46157 0.985057 0
M  V30 40582 C 3710.86 4.47802 -0.133301 0
M  V30 40583 C 3712.61 3.92746 1.61092 0
M  V30 40584 C 3710.51 5.90397 0.344242 0
M  V30 40585 H 3709.44 0.727036 0.199837 0
M  V30 40586 H 3712.09 1.82272 -0.211944 0
M  V30 40587 H 3710.48 3.53911 1.77661 0
M  V30 40588 H 3711.65 4.51728 -0.909864 0
M  V30 40589 H 3709.97 4.11031 -0.666521 0
M  V30 40590 H 3712.56 4.96707 1.97954 0
M  V30 40591 H 3712.91 3.33355 2.4936 0
M  V30 40592 H 3713.44 3.8784 0.884573 0
M  V30 40593 H 3710.18 6.5357 -0.502662 0
M  V30 40594 H 3709.7 5.89867 1.08704 0
M  V30 40595 H 3711.38 6.42013 0.801772 0
M  V30 40596 N 3711.51 -0.143508 1.56945 0
M  V30 40597 C 3712.92 -0.703218 1.7295 0
M  V30 40598 C 3713.27 -1.81496 0.745225 0
M  V30 40599 O 3712.4 -2.16224 -0.0873764 0
M  V30 40600 C 3712.99 -1.28239 3.13593 0
M  V30 40601 C 3711.55 -1.78863 3.31187 0
M  V30 40602 C 3710.7 -0.678484 2.68872 0
M  V30 40603 H 3713.65 0.0821943 1.58487 0
M  V30 40604 H 3713.67 -2.15218 3.13785 0
M  V30 40605 H 3713.18 -0.473019 3.85207 0
M  V30 40606 H 3711.28 -2.62356 2.64576 0
M  V30 40607 H 3711.4 -1.91494 4.39166 0
M  V30 40608 H 3709.76 -1.10599 2.29434 0
M  V30 40609 H 3710.54 0.119497 3.43092 0
M  V30 40610 N 3712.99 -1.52093 -0.412964 0
M  V30 40611 C 3714.22 -1.69807 -1.18209 0
M  V30 40612 C 3714.63 -0.405876 -1.84386 0
M  V30 40613 O 3713.99 0.617779 -1.71726 0
M  V30 40614 C 3714.04 -2.83098 -2.24806 0
M  V30 40615 O 3713.76 -4.07313 -1.61331 0
M  V30 40616 C 3715.26 -3.12289 -3.14627 0
M  V30 40617 H 3712.48 -0.569174 -0.355361 0
M  V30 40618 H 3715.02 -1.98632 -0.486357 0
M  V30 40619 H 3713.18 -2.56802 -2.90054 0
M  V30 40620 H 3713.59 -4.70415 -2.31971 0
M  V30 40621 H 3715.07 -3.95083 -3.85504 0
M  V30 40622 H 3715.54 -2.25683 -3.76781 0
M  V30 40623 H 3716.15 -3.40335 -2.55053 0
M  V30 40624 N 3714.47 0.669957 -1.42651 0
M  V30 40625 C 3715.7 1.45602 -1.46573 0
M  V30 40626 C 3716.1 1.89043 -0.0770293 0
M  V30 40627 O 3715.45 1.59027 0.919577 0
M  V30 40628 C 3715.51 2.73397 -2.3344 0
M  V30 40629 C 3715.17 2.52001 -3.8124 0
M  V30 40630 C 3716.17 2.16292 -4.72772 0
M  V30 40631 C 3713.85 2.66845 -4.25557 0
M  V30 40632 C 3715.85 1.95702 -6.06613 0
M  V30 40633 C 3713.54 2.4587 -5.59456 0
M  V30 40634 C 3714.53 2.10352 -6.49801 0
M  V30 40635 O 3714.22 1.89583 -7.81226 0
M  V30 40636 H 3713.95 0.454355 -0.500537 0
M  V30 40637 H 3716.51 0.830166 -1.87876 0
M  V30 40638 H 3714.74 3.38482 -1.86995 0
M  V30 40639 H 3716.43 3.35296 -2.28761 0
M  V30 40640 H 3717.19 2.04416 -4.39817 0
M  V30 40641 H 3713.07 2.93469 -3.55523 0
M  V30 40642 H 3716.62 1.67902 -6.77093 0
M  V30 40643 H 3712.51 2.57345 -5.91983 0
M  V30 40644 H 3713.28 2.04143 -7.92634 0
M  V30 40645 N 3715.94 1.28904 0.90673 0
M  V30 40646 C 3716.89 1.13432 2.01002 0
M  V30 40647 C 3717.86 0.0295322 1.66074 0
M  V30 40648 O 3719.05 0.195761 1.89793 0
M  V30 40649 C 3716.19 0.809516 3.35471 0
M  V30 40650 C 3715.3 1.99405 3.83226 0
M  V30 40651 C 3714.43 1.60924 5.06238 0
M  V30 40652 C 3713.47 2.76 5.46343 0
M  V30 40653 N 3712.61 2.37964 6.60543 0
M  V30 40654 H 3717.45 2.07829 2.13568 0
M  V30 40655 H 3714.99 1.03429 1.04598 0
M  V30 40656 H 3716.94 0.601917 4.12835 0
M  V30 40657 H 3715.57 -0.0975329 3.22653 0
M  V30 40658 H 3714.63 2.31356 3.01958 0
M  V30 40659 H 3715.94 2.85657 4.08903 0
M  V30 40660 H 3715.09 1.36412 5.91166 0
M  V30 40661 H 3713.83 0.718106 4.82384 0
M  V30 40662 H 3712.84 3.01203 4.59953 0
M  V30 40663 H 3714.06 3.65767 5.72181 0
M  V30 40664 H 3712.01 1.51329 6.38307 0
M  V30 40665 H 3711.92 3.1775 6.85982 0
M  V30 40666 H 3713.19 2.16753 7.48758 0
M  V30 40667 N 3717.42 -1.11614 1.11266 0
M  V30 40668 C 3718.67 -1.83312 0.860396 0
M  V30 40669 C 3719 -1.84555 -0.613979 0
M  V30 40670 O 3718.25 -1.29282 -1.46917 0
M  V30 40671 C 3718.55 -3.30312 1.36486 0
M  V30 40672 C 3718.22 -3.49232 2.85215 0
M  V30 40673 C 3716.88 -3.54103 3.25828 0
M  V30 40674 C 3719.23 -3.55636 3.81015 0
M  V30 40675 C 3716.56 -3.62932 4.60974 0
M  V30 40676 C 3718.91 -3.65996 5.15975 0
M  V30 40677 C 3717.57 -3.69127 5.56149 0
M  V30 40678 H 3716.84 -0.670788 0.314841 0
M  V30 40679 H 3719.49 -1.31645 1.39075 0
M  V30 40680 H 3717.8 -3.84463 0.754707 0
M  V30 40681 H 3719.49 -3.84274 1.14604 0
M  V30 40682 H 3716.08 -3.46109 2.52797 0
M  V30 40683 H 3720.27 -3.51134 3.5074 0
M  V30 40684 H 3715.52 -3.63632 4.91509 0
M  V30 40685 H 3719.7 -3.69894 5.90044 0
M  V30 40686 H 3717.32 -3.75721 6.60862 0
M  V30 40687 N 3718.9 -0.902701 -1.29186 0
M  V30 40688 C 3719.83 -0.399397 -2.30059 0
M  V30 40689 C 3720.81 0.52717 -1.61725 0
M  V30 40690 O 3722 0.43726 -1.89213 0
M  V30 40691 C 3719.13 0.37127 -3.4531 0
M  V30 40692 C 3718.08 -0.465143 -4.25465 0
M  V30 40693 C 3717.41 0.433202 -5.32942 0
M  V30 40694 C 3718.71 -1.71664 -4.93284 0
M  V30 40695 H 3720.4 -1.24238 -2.72407 0
M  V30 40696 H 3717.95 -0.598845 -1.30957 0
M  V30 40697 H 3719.9 0.734134 -4.14956 0
M  V30 40698 H 3718.62 1.24806 -3.01813 0
M  V30 40699 H 3717.28 -0.810378 -3.57531 0
M  V30 40700 H 3716.93 1.30821 -4.8569 0
M  V30 40701 H 3716.63 -0.122761 -5.87472 0
M  V30 40702 H 3718.15 0.792192 -6.05439 0
M  V30 40703 H 3719.57 -1.42333 -5.55351 0
M  V30 40704 H 3717.96 -2.21415 -5.57759 0
M  V30 40705 H 3719.03 -2.45089 -4.18401 0
M  V30 40706 N 3720.38 1.4286 -0.6655 0
M  V30 40707 C 3721.79 1.84849 -0.262283 0
M  V30 40708 C 3722.14 1.55709 1.19369 0
M  V30 40709 O 3721.26 1.01222 1.91267 0
M  V30 40710 C 3721.86 3.35535 -0.469248 0
M  V30 40711 C 3720.42 3.76208 -0.120238 0
M  V30 40712 C 3719.57 2.66505 -0.7662 0
M  V30 40713 H 3722.52 1.32838 -0.868319 0
M  V30 40714 H 3722.54 3.79457 0.281504 0
M  V30 40715 H 3722.05 3.56711 -1.52901 0
M  V30 40716 H 3720.15 3.6064 0.936442 0
M  V30 40717 H 3720.26 4.75883 -0.554271 0
M  V30 40718 H 3718.63 2.53927 -0.198337 0
M  V30 40719 H 3719.41 2.90507 -1.82923 0
M  V30 40720 N 3721.86 0.408213 1.52221 0
M  V30 40721 C 3722.79 -0.408828 2.29893 0
M  V30 40722 C 3723.77 -1.04693 1.34065 0
M  V30 40723 O 3724.95 -1.05612 1.62972 0
M  V30 40724 C 3722.08 -1.52623 3.11967 0
M  V30 40725 C 3721.04 -1.01318 4.15835 0
M  V30 40726 C 3720.36 -2.22412 4.86248 0
M  V30 40727 C 3721.66 -0.0678655 5.22256 0
M  V30 40728 H 3723.36 0.239283 2.98442 0
M  V30 40729 H 3720.9 0.116521 1.43528 0
M  V30 40730 H 3722.85 -2.10479 3.6507 0
M  V30 40731 H 3721.58 -2.20221 2.41185 0
M  V30 40732 H 3720.24 -0.457036 3.6374 0
M  V30 40733 H 3719.89 -2.88562 4.11996 0
M  V30 40734 H 3719.59 -1.88736 5.56464 0
M  V30 40735 H 3721.11 -2.80875 5.42164 0
M  V30 40736 H 3722.52 -0.555195 5.70605 0
M  V30 40737 H 3720.92 0.180039 5.9983 0
M  V30 40738 H 3721.99 0.877683 4.76891 0
M  V30 40739 N 3723.33 -1.56989 0.138607 0
M  V30 40740 C 3724.27 -2.12095 -0.842068 0
M  V30 40741 C 3725.24 -1.04234 -1.24796 0
M  V30 40742 O 3726.43 -1.32012 -1.34555 0
M  V30 40743 C 3723.56 -2.63377 -2.12956 0
M  V30 40744 C 3722.6 -3.83307 -1.87024 0
M  V30 40745 S 3723.43 -5.24726 -1.06879 0
M  V30 40746 C 3724.59 -5.7939 -2.36766 0
M  V30 40747 H 3724.82 -2.94945 -0.373424 0
M  V30 40748 H 3722.36 -1.54215 -0.0755295 0
M  V30 40749 H 3724.31 -2.93575 -2.86922 0
M  V30 40750 H 3722.98 -1.80673 -2.56936 0
M  V30 40751 H 3722.17 -4.17404 -2.8247 0
M  V30 40752 H 3721.77 -3.53827 -1.2117 0
M  V30 40753 H 3724.06 -5.9031 -3.32476 0
M  V30 40754 H 3725.01 -6.77111 -2.07185 0
M  V30 40755 H 3725.41 -5.07579 -2.4703 0
M  V30 40756 N 3724.81 0.135183 -1.57019 0
M  V30 40757 C 3726.04 0.859154 -1.87889 0
M  V30 40758 C 3726.45 1.7471 -0.726162 0
M  V30 40759 O 3725.79 1.81018 0.312752 0
M  V30 40760 C 3725.85 1.75776 -3.13597 0
M  V30 40761 C 3725.52 1.04578 -4.44874 0
M  V30 40762 C 3726.52 0.394128 -5.18404 0
M  V30 40763 C 3724.2 1.03177 -4.91589 0
M  V30 40764 C 3726.19 -0.262017 -6.36861 0
M  V30 40765 C 3723.88 0.371816 -6.09968 0
M  V30 40766 C 3724.88 -0.273937 -6.8245 0
M  V30 40767 O 3724.57 -0.923397 -7.98579 0
M  V30 40768 H 3724.3 0.253177 -0.626799 0
M  V30 40769 H 3726.85 0.129073 -2.04994 0
M  V30 40770 H 3725.08 2.52908 -2.92531 0
M  V30 40771 H 3726.77 2.35472 -3.30617 0
M  V30 40772 H 3727.54 0.396681 -4.83375 0
M  V30 40773 H 3723.42 1.52381 -4.35087 0
M  V30 40774 H 3726.96 -0.766636 -6.93375 0
M  V30 40775 H 3722.86 0.366971 -6.44456 0
M  V30 40776 H 3723.63 -0.826247 -8.14319 0
M  V30 40777 N 3726.29 1.5231 0.404892 0
M  V30 40778 C 3727.22 1.72189 1.51273 0
M  V30 40779 C 3728.24 0.602303 1.51249 0
M  V30 40780 O 3729.42 0.877576 1.55438 0
M  V30 40781 C 3726.52 1.75104 2.90158 0
M  V30 40782 C 3725.7 3.04166 3.14327 0
M  V30 40783 C 3724.76 2.98837 4.33108 0
M  V30 40784 O 3723.78 3.72735 4.30183 0
M  V30 40785 N 3724.98 2.1692 5.38448 0
M  V30 40786 H 3727.75 2.67767 1.34613 0
M  V30 40787 H 3725.31 1.506 0.594238 0
M  V30 40788 H 3727.3 1.69065 3.67694 0
M  V30 40789 H 3725.87 0.869809 3.00255 0
M  V30 40790 H 3725.09 3.23821 2.24797 0
M  V30 40791 H 3726.38 3.89537 3.2732 0
M  V30 40792 H 3725.78 1.56319 5.43674 0
M  V30 40793 H 3724.34 2.16735 6.14711 0
M  V30 40794 N 3727.77 -0.662382 1.43004 0
M  V30 40795 C 3728.7 -1.78737 1.50251 0
M  V30 40796 C 3729.68 -1.66291 0.357963 0
M  V30 40797 O 3730.86 -1.85525 0.573952 0
M  V30 40798 C 3727.99 -3.17112 1.41624 0
M  V30 40799 C 3726.95 -3.4431 2.54234 0
M  V30 40800 C 3726.27 -4.82389 2.30662 0
M  V30 40801 C 3727.57 -3.39965 3.96511 0
M  V30 40802 H 3729.27 -1.72929 2.44409 0
M  V30 40803 H 3726.81 -0.830548 1.17635 0
M  V30 40804 H 3728.77 -3.95558 1.45299 0
M  V30 40805 H 3727.49 -3.23627 0.439662 0
M  V30 40806 H 3726.15 -2.6823 2.49896 0
M  V30 40807 H 3725.8 -4.85569 1.31268 0
M  V30 40808 H 3725.5 -5.01548 3.06142 0
M  V30 40809 H 3727.02 -5.63104 2.36106 0
M  V30 40810 H 3728.44 -4.08361 4.02385 0
M  V30 40811 H 3726.83 -3.7066 4.71944 0
M  V30 40812 H 3727.9 -2.3831 4.22299 0
M  V30 40813 N 3729.25 -1.29383 -0.899882 0
M  V30 40814 C 3730.21 -1.14498 -1.98552 0
M  V30 40815 C 3731.21 -0.0805014 -1.60598 0
M  V30 40816 O 3732.4 -0.327425 -1.71095 0
M  V30 40817 C 3729.53 -0.750876 -3.32528 0
M  V30 40818 H 3730.72 -2.10931 -2.13185 0
M  V30 40819 H 3728.28 -1.12567 -1.08436 0
M  V30 40820 H 3729.01 0.213611 -3.23596 0
M  V30 40821 H 3728.8 -1.51999 -3.6144 0
M  V30 40822 H 3730.29 -0.669781 -4.12194 0
M  V30 40823 N 3730.72 1.11022 -1.11856 0
M  V30 40824 C 3731.69 2.15372 -0.784071 0
M  V30 40825 C 3732.69 1.59568 0.198657 0
M  V30 40826 O 3733.88 1.7418 -0.0263735 0
M  V30 40827 C 3731.01 3.40505 -0.164047 0
M  V30 40828 H 3732.2 2.46474 -1.70853 0
M  V30 40829 H 3729.76 1.26282 -0.92101 0
M  V30 40830 H 3730.49 3.15016 0.770428 0
M  V30 40831 H 3730.28 3.82292 -0.871514 0
M  V30 40832 H 3731.77 4.17565 0.0537005 0
M  V30 40833 N 3732.2 0.90954 1.28706 0
M  V30 40834 C 3733.62 0.607071 1.47604 0
M  V30 40835 C 3733.82 -0.848783 1.82751 0
M  V30 40836 O 3732.87 -1.6282 1.92992 0
M  V30 40837 C 3734.19 1.54135 2.58191 0
M  V30 40838 C 3735.74 1.54761 2.72062 0
M  V30 40839 C 3736.21 2.46842 3.85789 0
M  V30 40840 N 3737.7 2.44944 3.93137 0
M  V30 40841 C 3738.44 3.12891 4.80507 0
M  V30 40842 N 3737.93 3.90153 5.72497 0
M  V30 40843 N 3739.73 3.01999 4.74081 0
M  V30 40844 H 3731.88 1.85101 1.0417 0
M  V30 40845 H 3734.14 0.793693 0.518416 0
M  V30 40846 H 3733.85 2.5791 2.39114 0
M  V30 40847 H 3733.72 1.26927 3.55203 0
M  V30 40848 H 3736.11 0.51727 2.90531 0
M  V30 40849 H 3736.19 1.86011 1.75595 0
M  V30 40850 H 3735.83 3.49976 3.68075 0
M  V30 40851 H 3735.76 2.12896 4.81646 0
M  V30 40852 H 3738.25 1.88818 3.27347 0
M  V30 40853 H 3738.57 4.39029 6.35983 0
M  V30 40854 H 3736.91 3.94258 5.72351 0
M  V30 40855 H 3740.1 2.41147 4.01205 0
M  V30 40856 H 3740.27 3.55226 5.41958 0
M  V30 40857 N 3733.68 -1.42505 0.673067 0
M  V30 40858 C 3734.61 -2.2813 -0.0564669 0
M  V30 40859 C 3735.59 -1.40966 -0.810391 0
M  V30 40860 O 3736.78 -1.70405 -0.805874 0
M  V30 40861 C 3733.9 -3.2078 -1.0871 0
M  V30 40862 C 3732.95 -4.24337 -0.428959 0
M  V30 40863 S 3733.78 -5.29305 0.812168 0
M  V30 40864 C 3734.94 -6.25522 -0.217438 0
M  V30 40865 H 3735.17 -2.89656 0.669823 0
M  V30 40866 H 3732.7 -1.47309 0.462552 0
M  V30 40867 H 3734.66 -3.74698 -1.67666 0
M  V30 40868 H 3733.32 -2.58393 -1.78583 0
M  V30 40869 H 3732.52 -4.89344 -1.20657 0
M  V30 40870 H 3732.12 -3.73899 0.0869583 0
M  V30 40871 H 3734.41 -6.68874 -1.07769 0
M  V30 40872 H 3735.35 -7.0698 0.398117 0
M  V30 40873 H 3735.76 -5.61694 -0.562139 0
M  V30 40874 N 3735.16 -0.41628 -1.52003 0
M  V30 40875 C 3736.41 0.156855 -2.0149 0
M  V30 40876 C 3736.73 1.45035 -1.30345 0
M  V30 40877 O 3736 1.91088 -0.431536 0
M  V30 40878 H 3734.58 0.0609551 -0.744509 0
M  V30 40879 H 3737.24 -0.554163 -1.86856 0
M  V30 40880 H 3736.34 0.347862 -3.10155 0
M  V30 40881 N 3736.64 1.56914 -0.146931 0
M  V30 40882 C 3737.86 2.00487 0.511146 0
M  V30 40883 C 3738.28 1.02702 1.58423 0
M  V30 40884 O 3737.64 0.0240199 1.82484 0
M  V30 40885 C 3737.69 3.43977 1.11185 0
M  V30 40886 O 3737.41 4.38024 0.0816324 0
M  V30 40887 C 3738.91 4.02827 1.85054 0
M  V30 40888 H 3736.13 0.657673 0.133067 0
M  V30 40889 H 3738.67 2.03069 -0.241493 0
M  V30 40890 H 3736.83 3.42246 1.81511 0
M  V30 40891 H 3737.24 5.21899 0.521718 0
M  V30 40892 H 3738.72 5.05226 2.22376 0
M  V30 40893 H 3739.19 3.43535 2.73643 0
M  V30 40894 H 3739.8 4.08188 1.19427 0
M  V30 40895 N 3738.11 -0.126854 1.57089 0
M  V30 40896 C 3739.06 -1.15596 1.99766 0
M  V30 40897 C 3740.03 -1.41585 0.868493 0
M  V30 40898 O 3741.22 -1.53583 1.13212 0
M  V30 40899 C 3738.36 -2.47939 2.40043 0
M  V30 40900 C 3737.47 -2.28952 3.6634 0
M  V30 40901 C 3736.6 -3.5447 3.95632 0
M  V30 40902 C 3735.64 -3.30607 5.15137 0
M  V30 40903 N 3734.78 -4.48307 5.40338 0
M  V30 40904 H 3739.62 -0.785027 2.87474 0
M  V30 40905 H 3737.16 -0.376144 1.4221 0
M  V30 40906 H 3739.12 -3.25132 2.61429 0
M  V30 40907 H 3737.75 -2.8294 1.55387 0
M  V30 40908 H 3736.8 -1.42714 3.52614 0
M  V30 40909 H 3738.11 -2.0729 4.53687 0
M  V30 40910 H 3737.26 -4.40085 4.17625 0
M  V30 40911 H 3736 -3.79155 3.06745 0
M  V30 40912 H 3735.01 -2.43382 4.92996 0
M  V30 40913 H 3736.23 -3.073 6.05594 0
M  V30 40914 H 3734.18 -4.73128 4.54408 0
M  V30 40915 H 3734.1 -4.29722 6.21993 0
M  V30 40916 H 3735.36 -5.35078 5.66844 0
M  V30 40917 N 3739.59 -1.52523 -0.396809 0
M  V30 40918 C 3740.53 -1.71484 -1.50561 0
M  V30 40919 C 3741.5 -0.562551 -1.52559 0
M  V30 40920 O 3742.69 -0.791408 -1.71082 0
M  V30 40921 C 3739.81 -1.76536 -2.89055 0
M  V30 40922 C 3738.86 -2.98208 -3.04917 0
M  V30 40923 S 3739.69 -4.58331 -2.76936 0
M  V30 40924 C 3740.85 -4.66187 -4.17637 0
M  V30 40925 H 3741.08 -2.65262 -1.34251 0
M  V30 40926 H 3738.62 -1.42716 -0.589183 0
M  V30 40927 H 3740.57 -1.80132 -3.68867 0
M  V30 40928 H 3739.23 -0.838635 -3.02697 0
M  V30 40929 H 3738.43 -2.98261 -4.06271 0
M  V30 40930 H 3738.03 -2.92563 -2.32987 0
M  V30 40931 H 3740.32 -4.44321 -5.11454 0
M  V30 40932 H 3741.26 -5.68166 -4.22602 0
M  V30 40933 H 3741.67 -3.951 -4.03182 0
M  V30 40934 N 3741.07 0.654789 -1.43354 0
M  V30 40935 C 3742 1.77967 -1.42839 0
M  V30 40936 C 3742.98 1.59992 -0.290032 0
M  V30 40937 O 3744.17 1.82197 -0.483378 0
M  V30 40938 C 3741.29 3.15246 -1.23846 0
M  V30 40939 C 3740.34 3.51926 -2.40936 0
M  V30 40940 S 3741.17 3.52079 -4.03486 0
M  V30 40941 C 3742.33 4.92017 -3.86873 0
M  V30 40942 H 3742.56 1.78134 -2.38025 0
M  V30 40943 H 3740.09 0.827289 -1.30366 0
M  V30 40944 H 3742.05 3.94476 -1.13575 0
M  V30 40945 H 3740.71 3.12644 -0.302108 0
M  V30 40946 H 3739.91 4.5176 -2.23448 0
M  V30 40947 H 3739.51 2.80105 -2.47825 0
M  V30 40948 H 3741.8 5.80634 -3.491 0
M  V30 40949 H 3742.74 5.14557 -4.86454 0
M  V30 40950 H 3743.15 4.65477 -3.1936 0
M  V30 40951 N 3742.55 1.29858 0.893007 0
M  V30 40952 C 3743.8 1.17984 1.64086 0
M  V30 40953 C 3744.12 -0.267499 1.93157 0
M  V30 40954 O 3743.39 -1.18183 1.56235 0
M  V30 40955 H 3741.97 0.433661 0.608233 0
M  V30 40956 H 3744.63 1.62876 1.07039 0
M  V30 40957 H 3743.73 1.73481 2.59443 0
M  V30 40958 N 3744.03 -1.10427 1.12443 0
M  V30 40959 C 3745.28 -1.82029 0.878053 0
M  V30 40960 C 3745.6 -1.85612 -0.597754 0
M  V30 40961 O 3744.87 -1.33424 -1.43439 0
M  V30 40962 H 3743.45 -0.674107 0.321851 0
M  V30 40963 H 3746.11 -1.33613 1.41893 0
M  V30 40964 H 3745.2 -2.85552 1.25962 0
M  V30 40965 N 3745.51 -0.916353 -1.28221 0
M  V30 40966 C 3746.44 -0.423776 -2.29622 0
M  V30 40967 C 3747.42 0.509987 -1.62275 0
M  V30 40968 O 3748.6 0.417166 -1.89666 0
M  V30 40969 C 3745.73 0.334625 -3.45684 0
M  V30 40970 C 3744.69 -0.510243 -4.24948 0
M  V30 40971 C 3744.01 0.376652 -5.33372 0
M  V30 40972 C 3745.31 -1.76886 -4.91435 0
M  V30 40973 H 3747.01 -1.2712 -2.71074 0
M  V30 40974 H 3744.55 -0.612701 -1.30315 0
M  V30 40975 H 3746.5 0.690081 -4.15711 0
M  V30 40976 H 3745.23 1.21597 -3.0312 0
M  V30 40977 H 3743.89 -0.848253 -3.56651 0
M  V30 40978 H 3743.54 1.25662 -4.8705 0
M  V30 40979 H 3743.24 -0.185063 -5.87309 0
M  V30 40980 H 3744.76 0.727932 -6.06245 0
M  V30 40981 H 3746.17 -1.48215 -5.5381 0
M  V30 40982 H 3744.57 -2.27318 -5.5538 0
M  V30 40983 H 3745.64 -2.49512 -4.15778 0
M  V30 40984 N 3746.98 1.42146 -0.680615 0
M  V30 40985 C 3748.23 2.01059 -0.204893 0
M  V30 40986 C 3748.55 1.54115 1.19472 0
M  V30 40987 O 3747.82 0.76531 1.80332 0
M  V30 40988 H 3746.4 0.743448 -0.072759 0
M  V30 40989 H 3749.06 1.73982 -0.878426 0
M  V30 40990 H 3748.16 3.11388 -0.210683 0
M  V30 40991 N 3748.46 0.424336 1.5178 0
M  V30 40992 C 3749.71 -0.146457 2.0197 0
M  V30 40993 C 3750.04 -1.43841 1.3092 0
M  V30 40994 O 3749.29 -1.91384 0.408739 0
M  V30 40995 C 3749.59 -0.425678 3.54856 0
M  V30 40996 C 3749.26 0.778893 4.44122 0
M  V30 40997 C 3747.92 1.10926 4.6824 0
M  V30 40998 C 3750.27 1.58308 4.96576 0
M  V30 40999 C 3747.6 2.24473 5.4206 0
M  V30 41000 C 3749.95 2.70944 5.7164 0
M  V30 41001 C 3748.61 3.0445 5.94026 0
M  V30 41002 H 3747.88 -0.0535922 0.739059 0
M  V30 41003 H 3750.53 0.568871 1.82855 0
M  V30 41004 H 3748.84 -1.22275 3.72231 0
M  V30 41005 H 3750.53 -0.880529 3.91213 0
M  V30 41006 H 3747.12 0.511438 4.25538 0
M  V30 41007 H 3751.31 1.34106 4.77838 0
M  V30 41008 H 3746.56 2.50762 5.57609 0
M  V30 41009 H 3750.74 3.33635 6.11278 0
M  V30 41010 H 3748.36 3.92548 6.51007 0
M  V30 41011 N 3749.94 -1.56833 0.15525 0
M  V30 41012 C 3750.89 -2.13757 -0.793214 0
M  V30 41013 C 3751.87 -1.06755 -1.20384 0
M  V30 41014 O 3753.07 -1.32914 -1.16888 0
M  V30 41015 C 3750.19 -2.76924 -2.02899 0
M  V30 41016 C 3749.28 -3.91061 -1.64109 0
M  V30 41017 N 3749.67 -4.9657 -0.961859 0
M  V30 41018 C 3747.97 -4.01923 -1.93324 0
M  V30 41019 C 3748.67 -5.76537 -0.773291 0
M  V30 41020 N 3747.65 -5.27586 -1.30973 0
M  V30 41021 H 3751.45 -2.92702 -0.265122 0
M  V30 41022 H 3748.96 -1.62335 -0.0460035 0
M  V30 41023 H 3750.96 -3.16071 -2.71854 0
M  V30 41024 H 3749.62 -1.99455 -2.56219 0
M  V30 41025 H 3750.63 -5.14155 -0.621692 0
M  V30 41026 H 3747.31 -3.35539 -2.48434 0
M  V30 41027 H 3748.7 -6.71481 -0.23734 0
M  V30 41028 N 3751.42 0.118521 -1.57154 0
M  V30 41029 C 3752.33 1.1642 -2.03675 0
M  V30 41030 C 3753.34 1.45304 -0.957229 0
M  V30 41031 O 3754.52 1.5641 -1.26877 0
M  V30 41032 C 3751.58 2.47077 -2.43215 0
M  V30 41033 C 3750.65 2.25587 -3.65252 0
M  V30 41034 C 3749.88 3.50014 -4.02897 0
M  V30 41035 O 3750.1 4.57338 -3.40879 0
M  V30 41036 O 3749.04 3.40987 -4.95995 0
M  V30 41037 H 3752.86 0.799154 -2.92997 0
M  V30 41038 H 3750.45 0.329351 -1.45725 0
M  V30 41039 H 3752.33 3.24056 -2.6938 0
M  V30 41040 H 3751 2.83055 -1.57039 0
M  V30 41041 H 3749.91 1.46465 -3.44237 0
M  V30 41042 H 3751.24 1.94513 -4.52135 0
M  V30 41043 N 3752.9 1.52731 0.388715 0
M  V30 41044 C 3754.14 1.68037 1.1354 0
M  V30 41045 C 3754.47 0.41921 1.89621 0
M  V30 41046 O 3753.75 -0.582998 1.85557 0
M  V30 41047 C 3754.03 2.9156 2.11341 0
M  V30 41048 C 3753.89 4.27777 1.39021 0
M  V30 41049 C 3755.2 3.10631 3.11764 0
M  V30 41050 H 3752.32 0.611492 0.411396 0
M  V30 41051 H 3754.97 1.85328 0.418749 0
M  V30 41052 H 3753.12 2.76949 2.72455 0
M  V30 41053 H 3754.79 4.54156 0.808695 0
M  V30 41054 H 3753.03 4.28244 0.692058 0
M  V30 41055 H 3753.7 5.10294 2.10486 0
M  V30 41056 H 3756.18 3.24275 2.6074 0
M  V30 41057 H 3755.05 3.98536 3.7744 0
M  V30 41058 H 3755.31 2.2486 3.80645 0
M  V30 41059 N 3754.37 -0.647178 1.43699 0
M  V30 41060 C 3755.3 -1.77133 1.52138 0
M  V30 41061 C 3756.28 -1.65902 0.37558 0
M  V30 41062 O 3757.47 -1.84906 0.593597 0
M  V30 41063 C 3754.6 -3.15592 1.44979 0
M  V30 41064 C 3753.55 -3.41594 2.57872 0
M  V30 41065 C 3752.88 -4.79916 2.35765 0
M  V30 41066 C 3754.18 -3.3574 4.00095 0
M  V30 41067 H 3755.87 -1.70327 2.4623 0
M  V30 41068 H 3753.42 -0.818025 1.18509 0
M  V30 41069 H 3755.37 -3.93995 1.49487 0
M  V30 41070 H 3754.1 -3.23143 0.473962 0
M  V30 41071 H 3752.76 -2.65565 2.52727 0
M  V30 41072 H 3752.4 -4.8415 1.36411 0
M  V30 41073 H 3752.1 -4.98273 3.11445 0
M  V30 41074 H 3753.63 -5.60568 2.42065 0
M  V30 41075 H 3755.04 -4.0407 4.06694 0
M  V30 41076 H 3753.44 -3.65634 4.75849 0
M  V30 41077 H 3754.51 -2.33818 4.24803 0
M  V30 41078 N 3755.85 -1.3033 -0.886108 0
M  V30 41079 C 3756.8 -1.1652 -2.0131 0
M  V30 41080 C 3757.79 -0.0773729 -1.69223 0
M  V30 41081 O 3759 -0.238143 -1.78418 0
M  V30 41082 H 3755.38 -0.360324 -0.660054 0
M  V30 41083 H 3757.35 -2.11904 -2.10093 0
M  V30 41084 C 3756.1 -0.872651 -3.36571 0
M  V30 41085 H 3755.42 -1.70179 -3.61772 0
M  V30 41086 H 3756.86 -0.816123 -4.16071 0
M  V30 41087 C 3755.32 0.424406 -3.34216 0
M  V30 41088 O 3755.85 1.44628 -3.74761 0
M  V30 41089 N 3754.05 0.435156 -2.87323 0
M  V30 41090 H 3753.6 -0.396896 -2.54524 0
M  V30 41091 H 3753.56 1.30295 -2.8613 0
M  V30 41092 N 3757.33 1.0983 -1.13028 0
M  V30 41093 C 3758.28 2.18438 -0.799212 0
M  V30 41094 C 3759.27 1.68009 0.216666 0
M  V30 41095 O 3760.48 1.79847 0.0742346 0
M  V30 41096 H 3756.85 0.712454 -0.240652 0
M  V30 41097 H 3758.82 2.43597 -1.72346 0
M  V30 41098 C 3757.57 3.46595 -0.276986 0
M  V30 41099 H 3756.9 3.85766 -1.04999 0
M  V30 41100 H 3758.34 4.23917 -0.0837213 0
M  V30 41101 C 3756.8 3.21828 0.996422 0
M  V30 41102 O 3757.33 3.44075 2.07304 0
M  V30 41103 N 3755.53 2.75457 0.925854 0
M  V30 41104 H 3755.08 2.57552 0.049593 0
M  V30 41105 H 3755.04 2.59263 1.77849 0
M  V30 41106 N 3758.81 0.92314 1.27734 0
M  V30 41107 C 3759.74 0.435947 2.29394 0
M  V30 41108 C 3760.72 -0.501374 1.62543 0
M  V30 41109 O 3761.9 -0.407102 1.89885 0
M  V30 41110 C 3759.03 -0.316288 3.45857 0
M  V30 41111 C 3757.99 0.532772 4.24671 0
M  V30 41112 C 3757.31 -0.34836 5.33564 0
M  V30 41113 C 3758.61 1.7949 4.9049 0
M  V30 41114 H 3760.31 1.28556 2.70396 0
M  V30 41115 H 3757.85 0.619604 1.29988 0
M  V30 41116 H 3759.81 -0.668025 4.16071 0
M  V30 41117 H 3758.53 -1.19988 3.0376 0
M  V30 41118 H 3757.19 0.867155 3.56197 0
M  V30 41119 H 3756.84 -1.23078 4.8771 0
M  V30 41120 H 3756.54 0.216207 5.87202 0
M  V30 41121 H 3758.06 -0.695771 6.06623 0
M  V30 41122 H 3759.48 1.5115 5.53016 0
M  V30 41123 H 3757.87 2.3026 5.54166 0
M  V30 41124 H 3758.94 2.51714 4.14449 0
M  V30 41125 N 3760.29 -1.41783 0.688143 0
M  V30 41126 C 3761.54 -2.00571 0.21312 0
M  V30 41127 C 3761.85 -1.55103 -1.19173 0
M  V30 41128 O 3763.05 -2.064 -1.76383 0
M  V30 41129 C 3761.51 -3.58383 0.330138 0
M  V30 41130 C 3761.12 -4.12834 1.73989 0
M  V30 41131 C 3762.86 -4.24414 -0.0854905 0
M  V30 41132 C 3760.77 -5.63055 1.80896 0
M  V30 41133 H 3759.7 -0.750168 0.0759192 0
M  V30 41134 H 3762.35 -1.6235 0.855264 0
M  V30 41135 H 3760.73 -3.94171 -0.38013 0
M  V30 41136 H 3761.91 -3.88479 2.47831 0
M  V30 41137 H 3760.22 -3.59302 2.10454 0
M  V30 41138 H 3762.82 -5.34673 -0.0542202 0
M  V30 41139 H 3763.16 -4.00867 -1.123 0
M  V30 41140 H 3763.69 -3.93634 0.574238 0
M  V30 41141 H 3760.43 -5.91419 2.82674 0
M  V30 41142 H 3759.95 -5.89359 1.11427 0
M  V30 41143 H 3761.63 -6.27701 1.56846 0
M  V30 41144 N 3761.76 -0.432379 -1.51553 0
M  V30 41145 C 3762.99 0.136959 -2.06947 0
M  V30 41146 C 3763.41 1.3612 -1.29819 0
M  V30 41147 O 3762.77 1.78183 -0.334764 0
M  V30 41148 C 3762.82 0.442722 -3.57872 0
M  V30 41149 O 3761.92 1.53 -3.82968 0
M  V30 41150 H 3761.27 0.00403985 -0.663988 0
M  V30 41151 H 3763.8 -0.612284 -1.95224 0
M  V30 41152 H 3763.81 0.694623 -4.02044 0
M  V30 41153 H 3762.48 -0.452086 -4.13436 0
M  V30 41154 H 3761.06 1.26845 -3.50663 0
M  V30 41155 N 3763.24 1.56749 -0.163565 0
M  V30 41156 C 3764.66 1.58433 0.192689 0
M  V30 41157 C 3764.86 1.17859 1.63436 0
M  V30 41158 O 3763.91 0.886582 2.36423 0
M  V30 41159 C 3765.23 3.00591 -0.0810955 0
M  V30 41160 C 3766.78 3.12994 -0.0186928 0
M  V30 41161 C 3767.25 4.57231 -0.265364 0
M  V30 41162 N 3768.74 4.62711 -0.212868 0
M  V30 41163 C 3769.48 5.72153 -0.37801 0
M  V30 41164 N 3768.97 6.90181 -0.601784 0
M  V30 41165 N 3770.77 5.6122 -0.314455 0
M  V30 41166 H 3762.92 1.81412 -1.1047 0
M  V30 41167 H 3765.18 0.840445 -0.438584 0
M  V30 41168 H 3764.89 3.34723 -1.07949 0
M  V30 41169 H 3764.76 3.71888 0.630823 0
M  V30 41170 H 3767.15 2.78693 0.970275 0
M  V30 41171 H 3767.23 2.44149 -0.763201 0
M  V30 41172 H 3766.87 4.9224 -1.25151 0
M  V30 41173 H 3766.8 5.24224 0.499664 0
M  V30 41174 H 3769.29 3.77873 -0.0452418 0
M  V30 41175 H 3769.61 7.69462 -0.717454 0
M  V30 41176 H 3767.95 6.92063 -0.638306 0
M  V30 41177 H 3771.14 4.6789 -0.140279 0
M  V30 41178 H 3771.31 6.46459 -0.446585 0
M  V30 41179 N 3764.72 -0.110185 1.57214 0
M  V30 41180 C 3765.97 -0.815027 1.845 0
M  V30 41181 C 3766.28 -1.80626 0.750563 0
M  V30 41182 O 3767.49 -2.55792 0.910087 0
M  V30 41183 C 3765.94 -1.50022 3.27141 0
M  V30 41184 C 3765.55 -0.549525 4.44617 0
M  V30 41185 C 3767.3 -2.18968 3.63666 0
M  V30 41186 C 3765.2 -1.23845 5.78287 0
M  V30 41187 H 3764.13 -0.30812 0.68817 0
M  V30 41188 H 3766.78 -0.0678272 1.83375 0
M  V30 41189 H 3765.17 -2.29436 3.22762 0
M  V30 41190 H 3766.34 0.212024 4.60312 0
M  V30 41191 H 3764.66 0.0334303 4.16387 0
M  V30 41192 H 3767.25 -2.71218 4.60809 0
M  V30 41193 H 3767.6 -2.97173 2.91537 0
M  V30 41194 H 3768.13 -1.46433 3.69868 0
M  V30 41195 H 3764.87 -0.497514 6.53609 0
M  V30 41196 H 3764.39 -1.9718 5.66463 0
M  V30 41197 H 3766.07 -1.76918 6.22342 0
M  V30 41198 N 3766.2 -1.52935 -0.38061 0
M  V30 41199 C 3767.42 -1.72577 -1.1503 0
M  V30 41200 C 3767.85 -0.446901 -1.82714 0
M  V30 41201 O 3767.21 0.597974 -1.71155 0
M  V30 41202 C 3767.25 -2.88174 -2.16768 0
M  V30 41203 O 3766.36 -2.55733 -3.23534 0
M  V30 41204 H 3765.7 -0.573602 -0.334479 0
M  V30 41205 H 3768.23 -1.99761 -0.442334 0
M  V30 41206 H 3768.24 -3.1391 -2.60623 0
M  V30 41207 H 3766.91 -3.80946 -1.66893 0
M  V30 41208 H 3765.49 -2.40765 -2.84757 0
M  V30 41209 N 3767.68 0.639548 -1.4404 0
M  V30 41210 C 3768.61 1.76442 -1.44718 0
M  V30 41211 C 3769.59 1.59676 -0.306985 0
M  V30 41212 O 3770.77 1.81674 -0.502675 0
M  V30 41213 C 3767.9 3.13915 -1.27182 0
M  V30 41214 C 3766.94 3.49351 -2.44656 0
M  V30 41215 S 3767.78 3.4778 -4.07197 0
M  V30 41216 C 3768.93 4.87886 -3.92069 0
M  V30 41217 H 3769.17 1.75599 -2.39901 0
M  V30 41218 H 3766.7 0.813415 -1.31236 0
M  V30 41219 H 3768.66 3.93249 -1.17752 0
M  V30 41220 H 3767.32 3.12306 -0.335251 0
M  V30 41221 H 3766.51 4.49365 -2.28227 0
M  V30 41222 H 3766.11 2.7746 -2.50782 0
M  V30 41223 H 3768.41 5.76898 -3.55239 0
M  V30 41224 H 3769.35 5.09368 -4.91884 0
M  V30 41225 H 3769.76 4.62064 -3.2428 0
M  V30 41226 N 3769.15 1.30798 0.879184 0
M  V30 41227 C 3770.43 1.10604 1.61326 0
M  V30 41228 C 3770.81 -0.342584 2.08302 0
M  V30 41229 O 3770.16 -1.33511 1.85438 0
M  V30 41230 C 3770.37 2.11208 2.77835 0
M  V30 41231 C 3771.72 2.43237 3.48024 0
M  V30 41232 O 3772.74 2.09564 2.8803 0
M  V30 41233 O 3771.6 3.00862 4.56228 0
M  V30 41234 H 3768.69 0.425186 0.709328 0
M  V30 41235 H 3771.24 1.42244 0.925453 0
M  V30 41236 H 3770.01 3.08691 2.40469 0
M  V30 41237 H 3769.64 1.8042 3.54308 0
M  V30 41238 N 3770.63 -1.09229 1.13608 0
M  V30 41239 C 3771.58 -2.14095 0.784056 0
M  V30 41240 C 3772.57 -1.59349 -0.222852 0
M  V30 41241 O 3773.76 -1.7698 -0.0264603 0
M  V30 41242 C 3770.89 -3.42359 0.253982 0
M  V30 41243 C 3769.97 -4.04007 1.28992 0
M  V30 41244 N 3770.37 -4.40182 2.49146 0
M  V30 41245 C 3768.66 -4.31233 1.13817 0
M  V30 41246 C 3769.36 -4.88774 3.15396 0
M  V30 41247 N 3768.34 -4.86356 2.42815 0
M  V30 41248 H 3772.14 -2.39872 1.6982 0
M  V30 41249 H 3769.66 -1.26477 1.0187 0
M  V30 41250 H 3771.65 -4.16897 -0.0164669 0
M  V30 41251 H 3770.31 -3.18036 -0.654464 0
M  V30 41252 H 3771.32 -4.31479 2.86437 0
M  V30 41253 H 3768 -4.16505 0.288055 0
M  V30 41254 H 3769.39 -5.26211 4.17793 0
M  V30 41255 N 3772.11 -0.929901 -1.27242 0
M  V30 41256 C 3773.52 -0.615763 -1.76253 0
M  V30 41257 C 3773.87 0.86908 -1.75902 0
M  V30 41258 O 3773 1.68008 -1.36391 0
M  V30 41259 C 3773.59 -1.11101 -3.20066 0
M  V30 41260 C 3772.15 -0.847499 -3.66735 0
M  V30 41261 C 3771.3 -1.26846 -2.46587 0
M  V30 41262 H 3774.25 -1.10944 -1.13478 0
M  V30 41263 H 3774.27 -0.459684 -3.77713 0
M  V30 41264 H 3773.78 -2.19172 -3.20289 0
M  V30 41265 H 3771.88 0.21931 -3.71954 0
M  V30 41266 H 3772 -1.46658 -4.56101 0
M  V30 41267 H 3770.36 -0.686987 -2.4526 0
M  V30 41268 H 3771.14 -2.35786 -2.4952 0
M  V30 41269 N 3773.59 1.41416 -0.695653 0
M  V30 41270 C 3774.54 2.27999 -0.00721115 0
M  V30 41271 C 3775.52 1.42206 0.752743 0
M  V30 41272 O 3776.72 1.65476 0.628223 0
M  V30 41273 C 3773.84 3.30509 0.928378 0
M  V30 41274 C 3772.93 4.2378 0.164667 0
M  V30 41275 N 3773.32 4.9875 -0.841577 0
M  V30 41276 C 3771.62 4.44201 0.400135 0
M  V30 41277 C 3772.32 5.67017 -1.29873 0
M  V30 41278 N 3771.3 5.39999 -0.624642 0
M  V30 41279 H 3775.1 2.83396 -0.778718 0
M  V30 41280 H 3772.61 1.53629 -0.526496 0
M  V30 41281 H 3774.61 3.91361 1.43673 0
M  V30 41282 H 3773.27 2.76673 1.69948 0
M  V30 41283 H 3774.28 5.03281 -1.22182 0
M  V30 41284 H 3770.96 4.01375 1.14912 0
M  V30 41285 H 3772.35 6.3712 -2.13373 0
M  V30 41286 N 3775.07 0.44041 1.51321 0
M  V30 41287 C 3776.02 -0.38749 2.24683 0
M  V30 41288 C 3777 -0.987497 1.27033 0
M  V30 41289 O 3778.19 -0.905129 1.52107 0
M  V30 41290 C 3775.32 -1.48637 3.09454 0
M  V30 41291 C 3774.41 -0.89561 4.14535 0
M  V30 41292 N 3774.8 -0.0342974 5.05788 0
M  V30 41293 C 3773.1 -1.16287 4.30573 0
M  V30 41294 C 3773.8 0.297811 5.80937 0
M  V30 41295 N 3772.77 -0.319349 5.42661 0
M  V30 41296 H 3776.58 0.2765 2.92596 0
M  V30 41297 H 3774.09 0.252669 1.60422 0
M  V30 41298 H 3776.09 -2.09237 3.6059 0
M  V30 41299 H 3774.75 -2.15267 2.43085 0
M  V30 41300 H 3775.76 0.332362 5.16832 0
M  V30 41301 H 3772.44 -1.82643 3.7543 0
M  V30 41302 H 3773.83 0.998887 6.64433 0
M  V30 41303 N 3776.55 -1.5666 0.171876 0
M  V30 41304 C 3777.77 -2.01274 -0.479185 0
M  V30 41305 C 3778.19 -1.05209 -1.56769 0
M  V30 41306 O 3777.55 -0.0530485 -1.82423 0
M  V30 41307 C 3777.6 -3.45702 -1.05699 0
M  V30 41308 O 3777.32 -4.38098 -0.0119363 0
M  V30 41309 C 3778.82 -4.0572 -1.78622 0
M  V30 41310 H 3776.04 -0.659707 -0.122587 0
M  V30 41311 H 3778.58 -2.02659 0.273769 0
M  V30 41312 H 3776.74 -3.4509 -1.76044 0
M  V30 41313 H 3777.15 -5.22663 -0.438622 0
M  V30 41314 H 3778.63 -5.08699 -2.1431 0
M  V30 41315 H 3779.1 -3.47845 -2.68143 0
M  V30 41316 H 3779.71 -4.10036 -1.12918 0
M  V30 41317 N 3778.02 0.101846 -1.57271 0
M  V30 41318 C 3778.95 1.12492 -2.04616 0
M  V30 41319 C 3779.93 1.42177 -0.933793 0
M  V30 41320 O 3781.12 1.52323 -1.20463 0
M  V30 41321 C 3778.25 2.4466 -2.46492 0
M  V30 41322 C 3777.2 2.29399 -3.61331 0
M  V30 41323 C 3776.53 3.66684 -3.89162 0
M  V30 41324 C 3777.83 1.74017 -4.92459 0
M  V30 41325 H 3779.52 0.731058 -2.90338 0
M  V30 41326 H 3777.07 0.350215 -1.39676 0
M  V30 41327 H 3779.02 3.16497 -2.78222 0
M  V30 41328 H 3777.75 2.8597 -1.57762 0
M  V30 41329 H 3776.41 1.60009 -3.29837 0
M  V30 41330 H 3776.05 4.05509 -2.9761 0
M  V30 41331 H 3775.75 3.57321 -4.66471 0
M  V30 41332 H 3777.28 4.39999 -4.2336 0
M  V30 41333 H 3778.69 2.35688 -5.22613 0
M  V30 41334 H 3777.09 1.75431 -5.73885 0
M  V30 41335 H 3778.16 0.699052 -4.79835 0
M  V30 41336 N 3779.5 1.53135 0.372494 0
M  V30 41337 C 3780.75 1.68982 1.11586 0
M  V30 41338 C 3781.08 0.438082 1.89502 0
M  V30 41339 O 3780.33 -0.579858 1.86912 0
M  V30 41340 C 3780.63 2.8866 2.10737 0
M  V30 41341 C 3780.3 4.25446 1.49354 0
M  V30 41342 C 3778.96 4.62644 1.3234 0
M  V30 41343 C 3781.31 5.10539 1.0488 0
M  V30 41344 C 3778.64 5.82578 0.694265 0
M  V30 41345 C 3780.99 6.31112 0.433698 0
M  V30 41346 C 3779.65 6.67028 0.251 0
M  V30 41347 H 3778.92 0.618348 0.408322 0
M  V30 41348 H 3781.57 1.87308 0.398474 0
M  V30 41349 H 3779.88 2.64817 2.88754 0
M  V30 41350 H 3781.57 2.98115 2.68194 0
M  V30 41351 H 3778.16 3.96153 1.63588 0
M  V30 41352 H 3782.35 4.82355 1.1682 0
M  V30 41353 H 3777.6 6.09001 0.541064 0
M  V30 41354 H 3781.78 6.96353 0.0808635 0
M  V30 41355 H 3779.4 7.59826 -0.238573 0
M  V30 41356 N 3780.98 -0.6319 1.44377 0
M  V30 41357 C 3782.23 -1.38744 1.464 0
M  V30 41358 C 3782.54 -1.95343 0.100183 0
M  V30 41359 O 3783.75 -2.715 -0.00206136 0
M  V30 41360 C 3782.2 -2.51199 2.57735 0
M  V30 41361 C 3781.81 -2.01116 4.0032 0
M  V30 41362 C 3783.56 -3.28407 2.68977 0
M  V30 41363 C 3781.46 -3.10908 5.03081 0
M  V30 41364 H 3780.39 -0.521387 0.544676 0
M  V30 41365 H 3783.04 -0.679882 1.7044 0
M  V30 41366 H 3781.43 -3.24526 2.26934 0
M  V30 41367 H 3782.6 -1.34659 4.40685 0
M  V30 41368 H 3780.91 -1.36725 3.93313 0
M  V30 41369 H 3783.51 -4.10253 3.42923 0
M  V30 41370 H 3783.85 -3.77838 1.74769 0
M  V30 41371 H 3784.39 -2.6217 2.99185 0
M  V30 41372 H 3781.13 -2.66422 5.98915 0
M  V30 41373 H 3780.65 -3.76009 4.67309 0
M  V30 41374 H 3782.33 -3.75696 5.26746 0
M  V30 41375 N 3782.46 -1.31262 -0.872235 0
M  V30 41376 C 3783.71 -1.20179 -1.61988 0
M  V30 41377 C 3784.02 0.239405 -1.94129 0
M  V30 41378 O 3785.23 0.471909 -2.67367 0
M  V30 41379 C 3783.68 -2.10371 -2.92014 0
M  V30 41380 C 3783.29 -3.59473 -2.67364 0
M  V30 41381 C 3785.03 -2.08082 -3.70003 0
M  V30 41382 C 3782.94 -4.41681 -3.93283 0
M  V30 41383 H 3781.87 -0.446221 -0.607785 0
M  V30 41384 H 3784.52 -1.56102 -0.964599 0
M  V30 41385 H 3782.9 -1.67344 -3.58904 0
M  V30 41386 H 3784.08 -4.1073 -2.08895 0
M  V30 41387 H 3782.39 -3.63715 -2.02731 0
M  V30 41388 H 3784.99 -2.66747 -4.63411 0
M  V30 41389 H 3785.33 -1.0674 -4.02383 0
M  V30 41390 H 3785.87 -2.49297 -3.09993 0
M  V30 41391 H 3782.6 -5.43768 -3.66055 0
M  V30 41392 H 3782.12 -3.95182 -4.51211 0
M  V30 41393 H 3783.8 -4.53777 -4.61189 0
M  V30 41394 N 3783.94 1.08625 -1.14186 0
M  V30 41395 C 3784.87 2.17499 -0.849493 0
M  V30 41396 C 3785.85 1.68983 0.194587 0
M  V30 41397 O 3787.03 1.94131 0.0517416 0
M  V30 41398 C 3784.16 3.45788 -0.323746 0
M  V30 41399 C 3783.12 4.07683 -1.30302 0
M  V30 41400 C 3782.44 5.30896 -0.636669 0
M  V30 41401 C 3783.74 4.49224 -2.66449 0
M  V30 41402 H 3785.44 2.42214 -1.75991 0
M  V30 41403 H 3782.98 1.16411 -0.847616 0
M  V30 41404 H 3784.93 4.21265 -0.106828 0
M  V30 41405 H 3783.66 3.20621 0.622093 0
M  V30 41406 H 3782.32 3.34235 -1.50607 0
M  V30 41407 H 3781.97 5.02013 0.314906 0
M  V30 41408 H 3781.67 5.73263 -1.29008 0
M  V30 41409 H 3783.19 6.0909 -0.429224 0
M  V30 41410 H 3784.6 5.15888 -2.50064 0
M  V30 41411 H 3783 5.02502 -3.28042 0
M  V30 41412 H 3784.07 3.61221 -3.23493 0
M  V30 41413 N 3785.41 0.936635 1.26747 0
M  V30 41414 C 3786.38 0.447282 2.24793 0
M  V30 41415 C 3787.38 -0.439108 1.54688 0
M  V30 41416 O 3788.57 -0.238927 1.72554 0
M  V30 41417 C 3785.7 -0.355899 3.39037 0
M  V30 41418 H 3786.89 1.31366 2.69598 0
M  V30 41419 H 3784.45 0.718167 1.38824 0
M  V30 41420 H 3785.18 -1.24072 2.99628 0
M  V30 41421 H 3784.97 0.27976 3.91101 0
M  V30 41422 H 3786.46 -0.688349 4.11888 0
M  V30 41423 N 3786.89 -1.41045 0.703143 0
M  V30 41424 C 3787.82 -2.3343 0.0571225 0
M  V30 41425 C 3788.8 -1.52227 -0.759015 0
M  V30 41426 O 3789.99 -1.80738 -0.710459 0
M  V30 41427 C 3787.12 -3.3611 -0.874482 0
M  V30 41428 C 3786.07 -4.27682 -0.164884 0
M  V30 41429 C 3785.4 -5.20798 -1.21136 0
M  V30 41430 C 3786.7 -5.13149 0.97341 0
M  V30 41431 H 3788.39 -2.87701 0.82875 0
M  V30 41432 H 3785.94 -1.38333 0.399981 0
M  V30 41433 H 3787.89 -3.99671 -1.33572 0
M  V30 41434 H 3786.62 -2.80206 -1.67786 0
M  V30 41435 H 3785.27 -3.65557 0.276396 0
M  V30 41436 H 3784.92 -4.61205 -2.00747 0
M  V30 41437 H 3784.62 -5.82902 -0.741531 0
M  V30 41438 H 3786.15 -5.87235 -1.67295 0
M  V30 41439 H 3787.56 -5.70234 0.592113 0
M  V30 41440 H 3785.96 -5.84233 1.37082 0
M  V30 41441 H 3787.03 -4.49865 1.80969 0
M  V30 41442 N 3788.37 -0.448429 -1.51086 0
M  V30 41443 C 3789.33 0.34586 -2.26575 0
M  V30 41444 C 3790.33 0.940155 -1.30452 0
M  V30 41445 O 3791.52 0.812871 -1.54072 0
M  V30 41446 C 3788.66 1.4904 -3.06594 0
M  V30 41447 H 3789.85 -0.315875 -2.98232 0
M  V30 41448 H 3787.4 -0.201878 -1.54991 0
M  V30 41449 H 3788.14 2.18786 -2.39381 0
M  V30 41450 H 3787.92 1.07031 -3.77209 0
M  V30 41451 H 3789.41 2.05129 -3.63747 0
M  V30 41452 N 3789.85 1.56567 -0.180181 0
M  V30 41453 C 3790.8 2.19714 0.763446 0
M  V30 41454 C 3791.79 1.16381 1.23093 0
M  V30 41455 O 3793 1.3456 1.19556 0
M  V30 41456 H 3789.37 0.703948 0.264503 0
M  V30 41457 H 3791.34 2.97681 0.206987 0
M  V30 41458 C 3790.09 2.85901 1.97879 0
M  V30 41459 H 3789.41 3.65147 1.62811 0
M  V30 41460 H 3790.85 3.33542 2.61774 0
M  V30 41461 C 3789.31 1.86141 2.80808 0
M  V30 41462 O 3789.84 1.35239 3.7825 0
M  V30 41463 N 3788.05 1.54701 2.46 0
M  V30 41464 H 3787.6 1.96288 1.6682 0
M  V30 41465 H 3787.55 0.882073 3.01773 0
M  V30 41466 N 3791.33 -0.0935042 1.57322 0
M  V30 41467 C 3792.29 -1.09757 2.01212 0
M  V30 41468 C 3793.29 -1.32856 0.905862 0
M  V30 41469 O 3794.48 -1.28943 1.1713 0
M  V30 41470 C 3791.61 -2.44633 2.37418 0
M  V30 41471 H 3792.8 -0.719757 2.91135 0
M  V30 41472 H 3790.36 -0.338598 1.52588 0
M  V30 41473 H 3791.09 -2.87287 1.50454 0
M  V30 41474 H 3790.88 -2.29215 3.18124 0
M  V30 41475 H 3792.37 -3.16847 2.72026 0
M  V30 41476 N 3792.8 -1.5333 -0.364368 0
M  V30 41477 C 3793.75 -1.80525 -1.46674 0
M  V30 41478 C 3794.75 -0.674448 -1.55395 0
M  V30 41479 O 3795.95 -0.857412 -1.58267 0
M  V30 41480 H 3792.33 -0.571605 -0.488642 0
M  V30 41481 H 3794.3 -2.72792 -1.20942 0
M  V30 41482 C 3793.05 -2.01314 -2.83492 0
M  V30 41483 H 3792.37 -2.87769 -2.77541 0
M  V30 41484 H 3793.81 -2.2432 -3.59801 0
M  V30 41485 C 3792.27 -0.792596 -3.27444 0
M  V30 41486 O 3792.8 0.0181259 -4.01696 0
M  V30 41487 N 3791.01 -0.615693 -2.84003 0
M  V30 41488 H 3790.55 -1.27658 -2.23744 0
M  V30 41489 H 3790.51 0.199548 -3.13766 0
M  V30 41490 N 3794.28 0.624234 -1.4471 0
M  V30 41491 C 3795.7 0.943177 -1.28749 0
M  V30 41492 C 3795.9 2.00203 -0.2283 0
M  V30 41493 O 3794.95 2.49571 0.383462 0
M  V30 41494 C 3796.27 1.3999 -2.66127 0
M  V30 41495 C 3797.82 1.51501 -2.73891 0
M  V30 41496 C 3798.29 2.00554 -4.11755 0
M  V30 41497 N 3799.78 2.07814 -4.13966 0
M  V30 41498 C 3800.52 2.46955 -5.17495 0
M  V30 41499 N 3800.01 2.85184 -6.31381 0
M  V30 41500 N 3801.81 2.47149 -5.0485 0
M  V30 41501 H 3793.96 -0.0759119 -2.12264 0
M  V30 41502 H 3796.22 0.0286748 -0.947566 0
M  V30 41503 H 3795.93 0.696143 -3.44742 0
M  V30 41504 H 3795.8 2.36961 -2.93478 0
M  V30 41505 H 3798.19 2.20971 -1.95591 0
M  V30 41506 H 3798.27 0.528867 -2.50273 0
M  V30 41507 H 3797.91 1.31676 -4.90534 0
M  V30 41508 H 3797.84 3.00052 -4.32754 0
M  V30 41509 H 3800.33 1.80927 -3.31774 0
M  V30 41510 H 3800.65 3.13884 -7.06185 0
M  V30 41511 H 3798.99 2.82919 -6.34809 0
M  V30 41512 H 3802.18 2.16679 -4.14931 0
M  V30 41513 H 3802.35 2.77329 -5.85656 0
M  V30 41514 N 3795.76 1.31723 0.865262 0
M  V30 41515 C 3797.04 1.12309 1.60144 0
M  V30 41516 C 3797.42 -0.320472 2.08653 0
M  V30 41517 O 3796.77 -1.31536 1.86843 0
M  V30 41518 C 3796.98 2.14143 2.75579 0
M  V30 41519 C 3798.32 2.46915 3.45425 0
M  V30 41520 O 3799.35 2.12607 2.85792 0
M  V30 41521 O 3798.21 3.05684 4.53011 0
M  V30 41522 H 3795.3 0.432686 0.704778 0
M  V30 41523 H 3797.85 1.43218 0.910314 0
M  V30 41524 H 3796.62 3.11224 2.37182 0
M  V30 41525 H 3796.24 1.84168 3.52375 0
M  V30 41526 N 3797.24 -1.08018 1.14761 0
M  V30 41527 C 3798.15 -2.18583 0.851972 0
M  V30 41528 C 3799.16 -1.73176 -0.16911 0
M  V30 41529 O 3800.34 -2.014 0.00333654 0
M  V30 41530 C 3797.41 -3.45048 0.338038 0
M  V30 41531 C 3796.47 -4.05059 1.42217 0
M  V30 41532 C 3795.7 -5.25487 0.932666 0
M  V30 41533 O 3795.92 -5.69959 -0.224356 0
M  V30 41534 O 3794.86 -5.76998 1.7134 0
M  V30 41535 H 3798.68 -2.4635 1.77609 0
M  V30 41536 H 3796.27 -1.17227 0.926179 0
M  V30 41537 H 3798.15 -4.21361 0.0575474 0
M  V30 41538 H 3796.82 -3.18849 -0.558307 0
M  V30 41539 H 3795.73 -3.30317 1.75618 0
M  V30 41540 H 3797.06 -4.35516 2.29318 0
M  V30 41541 N 3798.72 -0.943344 -1.26249 0
M  V30 41542 C 3799.96 -0.592066 -1.93651 0
M  V30 41543 C 3800.29 0.869203 -1.73997 0
M  V30 41544 O 3799.55 1.63748 -1.07168 0
M  V30 41545 C 3799.85 -0.883228 -3.46315 0
M  V30 41546 C 3799.51 -2.32872 -3.8611 0
M  V30 41547 C 3798.17 -2.72386 -3.96685 0
M  V30 41548 C 3800.53 -3.26799 -4.06019 0
M  V30 41549 C 3797.85 -4.04918 -4.24568 0
M  V30 41550 C 3800.21 -4.58931 -4.35391 0
M  V30 41551 C 3798.87 -4.98256 -4.44181 0
M  V30 41552 H 3798.14 -0.216652 -0.70862 0
M  V30 41553 H 3800.79 -1.19026 -1.50017 0
M  V30 41554 H 3799.09 -0.202521 -3.91276 0
M  V30 41555 H 3800.79 -0.590177 -3.96633 0
M  V30 41556 H 3797.38 -2.01223 -3.78427 0
M  V30 41557 H 3801.56 -2.97467 -3.97275 0
M  V30 41558 H 3796.82 -4.35047 -4.29586 0
M  V30 41559 H 3800.99 -5.317 -4.49742 0
M  V30 41560 H 3798.62 -6.00979 -4.65541 0
M  V30 41561 N 3800.2 1.4067 -0.710613 0
M  V30 41562 C 3801.13 2.33397 -0.0695011 0
M  V30 41563 C 3802.11 1.52627 0.750932 0
M  V30 41564 O 3803.29 1.81112 0.700864 0
M  V30 41565 C 3800.42 3.36569 0.856645 0
M  V30 41566 C 3799.38 4.27764 0.142201 0
M  V30 41567 C 3798.7 5.21433 1.18373 0
M  V30 41568 C 3800 5.12626 -1.00061 0
M  V30 41569 H 3801.7 2.87258 -0.843996 0
M  V30 41570 H 3799.24 1.38119 -0.407311 0
M  V30 41571 H 3801.19 4.00373 1.3145 0
M  V30 41572 H 3799.92 2.81092 1.66298 0
M  V30 41573 H 3798.58 3.65405 -0.295779 0
M  V30 41574 H 3798.23 4.62263 1.98298 0
M  V30 41575 H 3797.93 5.83287 0.710608 0
M  V30 41576 H 3799.45 5.88114 1.64179 0
M  V30 41577 H 3800.86 5.69912 -0.622346 0
M  V30 41578 H 3799.26 5.83498 -1.40178 0
M  V30 41579 H 3800.33 4.48899 -1.83352 0
M  V30 41580 N 3801.67 0.456435 1.50846 0
M  V30 41581 C 3802.9 -0.101701 2.0665 0
M  V30 41582 C 3803.32 -1.348 1.3219 0
M  V30 41583 O 3802.67 -1.78352 0.386902 0
M  V30 41584 C 3802.72 -0.40466 3.59228 0
M  V30 41585 O 3802.45 0.792196 4.30878 0
M  V30 41586 C 3803.95 -1.01138 4.31609 0
M  V30 41587 H 3801.17 0.000554013 0.671 0
M  V30 41588 H 3803.71 0.641009 1.94194 0
M  V30 41589 H 3801.87 -1.09729 3.71535 0
M  V30 41590 H 3802.28 0.527935 5.21836 0
M  V30 41591 H 3803.75 -1.17322 5.39388 0
M  V30 41592 H 3804.23 -1.99759 3.91143 0
M  V30 41593 H 3804.84 -0.357571 4.23794 0
M  V30 41594 N 3803.15 -1.56469 0.188482 0
M  V30 41595 C 3804.1 -2.18783 -0.735035 0
M  V30 41596 C 3805.07 -1.13303 -1.21457 0
M  V30 41597 O 3806.25 -1.41526 -1.27965 0
M  V30 41598 C 3803.39 -2.84605 -1.95176 0
M  V30 41599 C 3802.51 -4.04593 -1.51421 0
M  V30 41600 C 3801.64 -4.58291 -2.68593 0
M  V30 41601 C 3800.68 -5.70651 -2.21412 0
M  V30 41602 N 3799.82 -6.18785 -3.31738 0
M  V30 41603 H 3804.66 -2.97349 -0.196888 0
M  V30 41604 H 3802.19 -1.46852 -0.0854435 0
M  V30 41605 H 3804.15 -3.20934 -2.66565 0
M  V30 41606 H 3802.78 -2.08614 -2.46333 0
M  V30 41607 H 3801.83 -3.73971 -0.696435 0
M  V30 41608 H 3803.15 -4.85878 -1.12801 0
M  V30 41609 H 3802.3 -4.96892 -3.48114 0
M  V30 41610 H 3801.04 -3.761 -3.10484 0
M  V30 41611 H 3800.04 -5.31586 -1.40343 0
M  V30 41612 H 3801.27 -6.54656 -1.8056 0
M  V30 41613 H 3799.22 -5.39517 -3.73172 0
M  V30 41614 H 3799.13 -6.95104 -2.97265 0
M  V30 41615 H 3800.4 -6.62038 -4.11493 0
M  V30 41616 N 3804.63 0.0851597 -1.5737 0
M  V30 41617 C 3806.04 0.638544 -1.75441 0
M  V30 41618 C 3806.39 1.78605 -0.812073 0
M  V30 41619 O 3805.52 2.16399 0.00706624 0
M  V30 41620 C 3806.11 1.16512 -3.18136 0
M  V30 41621 C 3804.67 1.66448 -3.37597 0
M  V30 41622 C 3803.82 0.578227 -2.71204 0
M  V30 41623 H 3806.77 -0.140959 -1.58073 0
M  V30 41624 H 3806.79 2.03424 -3.21557 0
M  V30 41625 H 3806.3 0.329726 -3.86697 0
M  V30 41626 H 3804.4 2.52355 -2.74131 0
M  V30 41627 H 3804.52 1.75063 -4.45971 0
M  V30 41628 H 3802.88 1.02007 -2.33381 0
M  V30 41629 H 3803.66 -0.246751 -3.42412 0
M  V30 41630 N 3806.11 1.53521 0.356231 0
M  V30 41631 C 3807.02 1.83592 1.46052 0
M  V30 41632 C 3808.03 0.725025 1.58175 0
M  V30 41633 O 3809.21 1.01604 1.73892 0
M  V30 41634 C 3806.27 2.02794 2.81203 0
M  V30 41635 C 3805.34 3.2668 2.78529 0
M  V30 41636 C 3804.57 3.44957 4.07235 0
M  V30 41637 O 3804.79 2.67333 5.03874 0
M  V30 41638 O 3803.73 4.38344 4.12478 0
M  V30 41639 H 3807.55 2.77428 1.23561 0
M  V30 41640 H 3805.14 1.39018 0.547219 0
M  V30 41641 H 3807.02 2.16943 3.61267 0
M  V30 41642 H 3805.69 1.12148 3.03652 0
M  V30 41643 H 3804.6 3.17947 1.97131 0
M  V30 41644 H 3805.93 4.17279 2.61035 0
M  V30 41645 N 3807.59 -0.616551 1.45039 0
M  V30 41646 C 3808.83 -1.37783 1.48808 0
M  V30 41647 C 3809.16 -1.93792 0.125845 0
M  V30 41648 O 3808.44 -1.74527 -0.858513 0
M  V30 41649 C 3808.72 -2.53238 2.56013 0
M  V30 41650 C 3808.58 -2.02484 4.01647 0
M  V30 41651 C 3809.89 -3.55393 2.59584 0
M  V30 41652 H 3807.01 -0.499638 0.541785 0
M  V30 41653 H 3809.66 -0.695828 1.768 0
M  V30 41654 H 3807.81 -3.11418 2.32274 0
M  V30 41655 H 3809.48 -1.49022 4.36566 0
M  V30 41656 H 3807.72 -1.33552 4.1273 0
M  V30 41657 H 3808.39 -2.85671 4.72331 0
M  V30 41658 H 3810.87 -3.07039 2.80831 0
M  V30 41659 H 3809.74 -4.33678 3.36474 0
M  V30 41660 H 3810 -4.10424 1.64332 0
M  V30 41661 N 3809.06 -1.3218 -0.858264 0
M  V30 41662 C 3810.03 -1.20757 -1.94809 0
M  V30 41663 C 3811.03 -0.131554 -1.60261 0
M  V30 41664 O 3812.22 -0.381692 -1.69967 0
M  V30 41665 C 3809.35 -0.856287 -3.2997 0
M  V30 41666 H 3810.54 -2.17607 -2.06367 0
M  V30 41667 H 3808.09 -1.15959 -1.048 0
M  V30 41668 H 3808.83 0.110553 -3.24112 0
M  V30 41669 H 3808.61 -1.63421 -3.56421 0
M  V30 41670 H 3810.1 -0.800579 -4.09854 0
M  V30 41671 N 3810.54 1.07407 -1.15332 0
M  V30 41672 C 3811.96 1.32087 -0.89584 0
M  V30 41673 C 3812.16 1.96238 0.457491 0
M  V30 41674 O 3811.21 2.22187 1.19954 0
M  V30 41675 C 3812.53 2.21253 -2.03636 0
M  V30 41676 C 3814.07 2.34703 -2.07083 0
M  V30 41677 C 3814.55 3.27218 -3.20457 0
M  V30 41678 N 3816.04 3.34798 -3.20101 0
M  V30 41679 C 3816.78 4.06442 -4.04465 0
M  V30 41680 N 3816.27 4.80707 -4.98892 0
M  V30 41681 N 3818.06 4.02378 -3.9249 0
M  V30 41682 H 3810.22 0.641542 -2.0248 0
M  V30 41683 H 3812.48 0.345317 -0.88287 0
M  V30 41684 H 3812.18 1.81375 -3.01324 0
M  V30 41685 H 3812.06 3.21777 -1.96823 0
M  V30 41686 H 3814.45 2.73834 -1.09996 0
M  V30 41687 H 3814.53 1.33886 -2.17964 0
M  V30 41688 H 3814.17 2.88806 -4.17796 0
M  V30 41689 H 3814.1 4.27988 -3.06813 0
M  V30 41690 H 3816.59 2.81863 -2.51717 0
M  V30 41691 H 3816.9 5.32867 -5.59708 0
M  V30 41692 H 3815.25 4.79725 -5.02881 0
M  V30 41693 H 3818.44 3.43472 -3.18032 0
M  V30 41694 H 3818.61 4.57948 -4.58463 0
M  V30 41695 N 3812.02 0.950026 1.25747 0
M  V30 41696 C 3813.44 0.653723 1.45597 0
M  V30 41697 C 3813.64 -0.790212 1.85359 0
M  V30 41698 O 3812.69 -1.56598 1.98074 0
M  V30 41699 C 3814 1.62271 2.53157 0
M  V30 41700 C 3815.55 1.63339 2.67001 0
M  V30 41701 C 3816.03 2.5899 3.77741 0
M  V30 41702 N 3817.52 2.57328 3.85145 0
M  V30 41703 C 3818.25 3.2802 4.70309 0
M  V30 41704 N 3817.75 4.08169 5.59795 0
M  V30 41705 N 3819.54 3.16929 4.64233 0
M  V30 41706 H 3811.69 1.88321 0.982288 0
M  V30 41707 H 3813.96 0.809785 0.492903 0
M  V30 41708 H 3813.66 2.65386 2.30788 0
M  V30 41709 H 3813.54 1.38164 3.50985 0
M  V30 41710 H 3815.92 0.609439 2.88738 0
M  V30 41711 H 3816 1.91503 1.69588 0
M  V30 41712 H 3815.65 3.61508 3.56755 0
M  V30 41713 H 3815.58 2.28112 4.74629 0
M  V30 41714 H 3818.07 1.99137 3.21174 0
M  V30 41715 H 3818.38 4.5904 6.21693 0
M  V30 41716 H 3816.73 4.12267 5.59518 0
M  V30 41717 H 3819.92 2.53789 3.9333 0
M  V30 41718 H 3820.09 3.72288 5.30382 0
M  V30 41719 N 3813.5 -1.40291 0.718063 0
M  V30 41720 C 3814.72 -2.05675 0.266954 0
M  V30 41721 C 3815.15 -1.53751 -1.08361 0
M  V30 41722 O 3814.51 -0.673942 -1.68308 0
M  V30 41723 C 3814.55 -3.59664 0.259669 0
M  V30 41724 O 3813.66 -4.05368 -0.758301 0
M  V30 41725 H 3813 -0.652167 0.124798 0
M  V30 41726 H 3815.53 -1.79644 0.979239 0
M  V30 41727 H 3815.54 -4.07882 0.0982067 0
M  V30 41728 H 3814.21 -3.96821 1.24524 0
M  V30 41729 H 3812.79 -3.68605 -0.56436 0
M  V30 41730 N 3814.98 -0.464428 -1.50602 0
M  V30 41731 C 3816.39 -0.118201 -1.59162 0
M  V30 41732 C 3816.59 1.37479 -1.47316 0
M  V30 41733 O 3815.65 2.14743 -1.32822 0
M  V30 41734 C 3816.96 -0.662462 -2.93312 0
M  V30 41735 C 3818.51 -0.625298 -3.0669 0
M  V30 41736 C 3818.98 -1.14699 -4.43405 0
M  V30 41737 N 3820.48 -1.10612 -4.49799 0
M  V30 41738 C 3821.21 -1.48035 -5.53961 0
M  V30 41739 N 3820.71 -1.92876 -6.6541 0
M  V30 41740 N 3822.5 -1.39681 -5.44468 0
M  V30 41741 H 3814.65 -1.43552 -1.56545 0
M  V30 41742 H 3816.91 -0.593238 -0.739441 0
M  V30 41743 H 3816.62 -1.7081 -3.07436 0
M  V30 41744 H 3816.49 -0.102318 -3.77061 0
M  V30 41745 H 3818.88 0.411415 -2.92218 0
M  V30 41746 H 3818.96 -1.22217 -2.24715 0
M  V30 41747 H 3818.61 -2.1823 -4.58626 0
M  V30 41748 H 3818.54 -0.526398 -5.23962 0
M  V30 41749 H 3821.03 -0.777155 -3.69823 0
M  V30 41750 H 3821.34 -2.19598 -7.40943 0
M  V30 41751 H 3819.68 -1.96824 -6.66547 0
M  V30 41752 H 3822.88 -1.04495 -4.56288 0
M  V30 41753 H 3823.05 -1.69172 -6.25528 0
M  V30 41754 N 3816.45 1.56367 -0.196777 0
M  V30 41755 C 3817.7 1.96803 0.441773 0
M  V30 41756 C 3818.02 1.08659 1.62643 0
M  V30 41757 O 3819.22 1.38884 2.33288 0
M  V30 41758 C 3817.68 3.50023 0.837354 0
M  V30 41759 C 3817.29 4.46833 -0.323109 0
M  V30 41760 C 3819.03 3.99225 1.44289 0
M  V30 41761 C 3816.94 5.91326 0.0935245 0
M  V30 41762 H 3815.87 0.734857 0.168821 0
M  V30 41763 H 3818.52 1.81209 -0.289061 0
M  V30 41764 H 3816.9 3.61127 1.6249 0
M  V30 41765 H 3818.07 4.47462 -1.10064 0
M  V30 41766 H 3816.39 4.07834 -0.840254 0
M  V30 41767 H 3818.99 5.04656 1.76709 0
M  V30 41768 H 3819.33 3.43631 2.34997 0
M  V30 41769 H 3819.86 3.91243 0.719281 0
M  V30 41770 H 3816.6 6.5085 -0.779411 0
M  V30 41771 H 3816.12 5.93947 0.835879 0
M  V30 41772 H 3817.8 6.44836 0.528751 0
M  V30 41773 N 3817.93 -0.0768128 1.57413 0
M  V30 41774 C 3819.16 -0.789974 1.91225 0
M  V30 41775 C 3819.58 -1.71373 0.792262 0
M  V30 41776 O 3818.93 -1.80985 -0.234704 0
M  V30 41777 C 3818.98 -1.58787 3.2476 0
M  V30 41778 O 3818.7 -0.701253 4.32451 0
M  V30 41779 C 3820.21 -2.40247 3.72553 0
M  V30 41780 H 3817.43 -0.224882 0.632194 0
M  V30 41781 H 3819.97 -0.0485814 2.04442 0
M  V30 41782 H 3818.12 -2.28159 3.13085 0
M  V30 41783 H 3818.54 -1.25571 5.09247 0
M  V30 41784 H 3820.01 -2.91697 4.68633 0
M  V30 41785 H 3820.49 -3.19544 3.01311 0
M  V30 41786 H 3821.1 -1.76041 3.87156 0
M  V30 41787 N 3819.41 -1.53708 -0.348084 0
M  V30 41788 C 3820.36 -1.81378 -1.42726 0
M  V30 41789 C 3821.33 -0.659186 -1.5246 0
M  V30 41790 O 3822.51 -0.903159 -1.6807 0
M  V30 41791 C 3819.65 -2.02503 -2.7944 0
M  V30 41792 C 3818.77 -3.30216 -2.78534 0
M  V30 41793 C 3817.9 -3.41434 -4.06936 0
M  V30 41794 C 3816.94 -4.63114 -4.0024 0
M  V30 41795 N 3816.08 -4.71389 -5.20324 0
M  V30 41796 H 3820.92 -2.73456 -1.18431 0
M  V30 41797 H 3818.45 -1.35448 -0.573786 0
M  V30 41798 H 3820.41 -2.12739 -3.58884 0
M  V30 41799 H 3819.04 -1.13743 -3.02097 0
M  V30 41800 H 3818.09 -3.28844 -1.91221 0
M  V30 41801 H 3819.41 -4.19751 -2.69463 0
M  V30 41802 H 3818.56 -3.51078 -4.94802 0
M  V30 41803 H 3817.3 -2.49946 -4.18782 0
M  V30 41804 H 3816.3 -4.53551 -3.10759 0
M  V30 41805 H 3817.53 -5.5596 -3.89981 0
M  V30 41806 H 3815.47 -3.82809 -5.32722 0
M  V30 41807 H 3815.39 -5.54853 -5.13492 0
M  V30 41808 H 3816.66 -4.85337 -6.09974 0
M  V30 41809 N 3820.89 0.608851 -1.45364 0
M  V30 41810 C 3821.84 1.74078 -1.54272 0
M  V30 41811 C 3822.83 1.64294 -0.412781 0
M  V30 41812 O 3824.04 1.70103 -0.58864 0
M  V30 41813 H 3820.41 0.575088 -0.484538 0
M  V30 41814 H 3822.38 1.63691 -2.49495 0
M  V30 41815 C 3821.13 3.12455 -1.52536 0
M  V30 41816 H 3820.45 3.20642 -2.38807 0
M  V30 41817 H 3821.89 3.91489 -1.62826 0
M  V30 41818 C 3820.35 3.35974 -0.249584 0
M  V30 41819 O 3820.88 3.96055 0.67109 0
M  V30 41820 N 3819.09 2.90235 -0.145676 0
M  V30 41821 H 3818.64 2.41524 -0.895756 0
M  V30 41822 H 3818.59 3.06345 0.707113 0
M  V30 41823 N 3822.37 1.32633 0.851242 0
M  V30 41824 C 3823.61 1.23571 1.60805 0
M  V30 41825 C 3823.95 -0.201205 1.93155 0
M  V30 41826 O 3823.22 -1.13926 1.57642 0
M  V30 41827 C 3823.5 2.09877 2.92615 0
M  V30 41828 C 3823.36 3.61964 2.67025 0
M  V30 41829 C 3824.68 1.96251 3.93921 0
M  V30 41830 H 3821.79 0.450239 0.583484 0
M  V30 41831 H 3824.44 1.62613 0.982702 0
M  V30 41832 H 3822.59 1.7671 3.45985 0
M  V30 41833 H 3824.26 4.05361 2.20182 0
M  V30 41834 H 3822.5 3.8446 2.00931 0
M  V30 41835 H 3823.17 4.17683 3.60895 0
M  V30 41836 H 3825.65 2.25313 3.49819 0
M  V30 41837 H 3824.52 2.58911 4.84 0
M  V30 41838 H 3824.79 0.931141 4.32183 0
M  V30 41839 N 3823.84 -1.06794 1.159 0
M  V30 41840 C 3825.26 -1.60967 0.945865 0
M  V30 41841 C 3825.61 -1.89416 -0.511474 0
M  V30 41842 O 3824.73 -1.66382 -1.38369 0
M  V30 41843 C 3825.33 -2.92445 1.71059 0
M  V30 41844 C 3823.89 -3.43338 1.54258 0
M  V30 41845 C 3823.03 -2.17308 1.72257 0
M  V30 41846 H 3825.98 -0.898095 1.30843 0
M  V30 41847 H 3826 -3.61629 1.18342 0
M  V30 41848 H 3825.52 -2.71708 2.77122 0
M  V30 41849 H 3823.62 -3.69146 0.506147 0
M  V30 41850 H 3823.73 -4.19003 2.32322 0
M  V30 41851 H 3822.09 -2.27282 1.14956 0
M  V30 41852 H 3822.88 -1.99059 2.79697 0
M  V30 41853 N 3825.32 -0.956681 -1.25241 0
M  V30 41854 C 3826.27 -0.477331 -2.2581 0
M  V30 41855 C 3827.24 0.471273 -1.59274 0
M  V30 41856 O 3828.42 0.384072 -1.86894 0
M  V30 41857 C 3825.56 0.23683 -3.44286 0
M  V30 41858 C 3824.68 -0.749252 -4.25453 0
M  V30 41859 C 3823.81 -0.0123214 -5.31199 0
M  V30 41860 C 3822.85 -0.989201 -6.04054 0
M  V30 41861 N 3821.99 -0.283007 -7.01529 0
M  V30 41862 H 3826.83 -1.33981 -2.66182 0
M  V30 41863 H 3824.37 -0.671855 -1.30861 0
M  V30 41864 H 3826.32 0.667478 -4.11826 0
M  V30 41865 H 3824.95 1.06334 -3.04783 0
M  V30 41866 H 3824.01 -1.29838 -3.57556 0
M  V30 41867 H 3825.32 -1.49462 -4.75881 0
M  V30 41868 H 3824.47 0.476862 -6.04823 0
M  V30 41869 H 3823.21 0.765825 -4.8165 0
M  V30 41870 H 3822.22 -1.48936 -5.29243 0
M  V30 41871 H 3823.44 -1.76761 -6.55692 0
M  V30 41872 H 3821.39 0.476364 -6.54268 0
M  V30 41873 H 3821.3 -0.967436 -7.49784 0
M  V30 41874 H 3822.57 0.184572 -7.79281 0
M  V30 41875 N 3826.8 1.39908 -0.725493 0
M  V30 41876 C 3827.73 2.29165 -0.0398235 0
M  V30 41877 C 3828.75 1.46335 0.713432 0
M  V30 41878 O 3829.93 1.69516 0.55917 0
M  V30 41879 C 3827.03 3.24785 0.967871 0
M  V30 41880 C 3826.21 4.36515 0.278104 0
M  V30 41881 C 3825.27 5.12508 1.19257 0
M  V30 41882 O 3824.29 5.652 0.673626 0
M  V30 41883 N 3825.49 5.22804 2.52301 0
M  V30 41884 H 3828.26 2.88651 -0.806254 0
M  V30 41885 H 3825.82 1.51386 -0.57393 0
M  V30 41886 H 3827.81 3.72497 1.58203 0
M  V30 41887 H 3826.38 2.66397 1.63558 0
M  V30 41888 H 3825.6 3.90803 -0.516395 0
M  V30 41889 H 3826.89 5.08406 -0.200293 0
M  V30 41890 H 3826.29 4.81496 2.96949 0
M  V30 41891 H 3824.85 5.73989 3.08836 0
M  V30 41892 N 3828.28 0.472408 1.50353 0
M  V30 41893 C 3829.5 -0.0820422 2.07238 0
M  V30 41894 C 3829.93 -1.3263 1.33383 0
M  V30 41895 O 3829.29 -1.77232 0.381888 0
M  V30 41896 C 3829.33 -0.347683 3.5892 0
M  V30 41897 O 3828.44 -1.42792 3.8689 0
M  V30 41898 H 3827.78 0.013566 0.663861 0
M  V30 41899 H 3830.31 0.663829 1.93532 0
M  V30 41900 H 3830.32 -0.587784 4.03744 0
M  V30 41901 H 3828.99 0.561542 4.12092 0
M  V30 41902 H 3827.57 -1.17503 3.53903 0
M  V30 41903 N 3829.76 -1.5626 0.205067 0
M  V30 41904 C 3830.98 -2.02691 -0.439466 0
M  V30 41905 C 3831.41 -1.08416 -1.53713 0
M  V30 41906 O 3830.77 -0.0693935 -1.81167 0
M  V30 41907 C 3830.81 -3.47487 -0.963611 0
M  V30 41908 O 3829.92 -3.56339 -2.07596 0
M  V30 41909 H 3829.26 -0.656192 -0.101532 0
M  V30 41910 H 3831.79 -2.021 0.31887 0
M  V30 41911 H 3831.8 -3.87479 -1.27767 0
M  V30 41912 H 3830.47 -4.15592 -0.16013 0
M  V30 41913 H 3829.05 -3.28227 -1.76979 0
M  V30 41914 N 3831.24 0.0684638 -1.57451 0
M  V30 41915 C 3832.17 1.10779 -2.0065 0
M  V30 41916 C 3833.18 1.34791 -0.912968 0
M  V30 41917 O 3834.37 1.32973 -1.19082 0
M  V30 41918 C 3831.47 2.45801 -2.33314 0
M  V30 41919 C 3830.64 2.41698 -3.64556 0
M  V30 41920 C 3829.7 3.58854 -3.84851 0
M  V30 41921 O 3828.73 3.40131 -4.56398 0
M  V30 41922 N 3829.93 4.79323 -3.27459 0
M  V30 41923 H 3832.69 0.739887 -2.90423 0
M  V30 41924 H 3830.26 0.257065 -1.59846 0
M  V30 41925 H 3832.25 3.22825 -2.44061 0
M  V30 41926 H 3830.82 2.74581 -1.49413 0
M  V30 41927 H 3830.04 1.50036 -3.64531 0
M  V30 41928 H 3831.33 2.36061 -4.50725 0
M  V30 41929 H 3830.72 4.97437 -2.69393 0
M  V30 41930 H 3829.28 5.53848 -3.43651 0
M  V30 41931 N 3832.71 1.5389 0.339928 0
M  V30 41932 C 3833.64 1.8512 1.42313 0
M  V30 41933 C 3834.62 0.706619 1.54729 0
M  V30 41934 O 3835.81 0.958864 1.68877 0
M  V30 41935 C 3832.94 2.06401 2.79313 0
M  V30 41936 C 3831.89 3.22224 2.81701 0
M  V30 41937 C 3831.22 3.28845 4.21622 0
M  V30 41938 C 3832.52 4.60251 2.46913 0
M  V30 41939 H 3834.21 2.75836 1.16426 0
M  V30 41940 H 3831.76 1.32722 0.558638 0
M  V30 41941 H 3833.71 2.26832 3.55141 0
M  V30 41942 H 3832.44 1.12419 3.06642 0
M  V30 41943 H 3831.1 3.01655 2.08327 0
M  V30 41944 H 3830.74 2.32452 4.46066 0
M  V30 41945 H 3830.44 4.06679 4.24129 0
M  V30 41946 H 3831.97 3.51491 4.99286 0
M  V30 41947 H 3833.38 4.80672 3.12453 0
M  V30 41948 H 3831.78 5.40515 2.60698 0
M  V30 41949 H 3832.85 4.63614 1.42092 0
M  V30 41950 N 3834.19 -0.601133 1.45685 0
M  V30 41951 C 3835.47 -1.36072 1.40513 0
M  V30 41952 C 3835.85 -2.10952 0.0790465 0
M  V30 41953 O 3835.2 -2.08309 -0.939126 0
M  V30 41954 C 3835.41 -2.30215 2.62301 0
M  V30 41955 C 3836.75 -2.92621 3.07665 0
M  V30 41956 O 3837.78 -2.40534 2.6272 0
M  V30 41957 O 3836.64 -3.87184 3.85682 0
M  V30 41958 H 3833.73 -0.61046 0.557913 0
M  V30 41959 H 3836.28 -0.623684 1.57824 0
M  V30 41960 H 3835.05 -1.74187 3.50392 0
M  V30 41961 H 3834.67 -3.11288 2.47357 0
M  V30 41962 N 3835.67 -1.33083 -0.844196 0
M  V30 41963 C 3836.58 -1.24916 -1.98578 0
M  V30 41964 C 3837.6 -0.160738 -1.73256 0
M  V30 41965 O 3838.77 -0.383348 -1.97718 0
M  V30 41966 C 3835.84 -0.983121 -3.32469 0
M  V30 41967 C 3834.9 -2.16103 -3.70942 0
M  V30 41968 C 3834.13 -1.90758 -4.98445 0
M  V30 41969 O 3834.35 -0.855272 -5.63951 0
M  V30 41970 O 3833.29 -2.77149 -5.34296 0
M  V30 41971 H 3837.11 -2.20908 -2.08406 0
M  V30 41972 H 3834.7 -1.13076 -0.976427 0
M  V30 41973 H 3836.58 -0.851684 -4.12704 0
M  V30 41974 H 3835.26 -0.0534409 -3.23656 0
M  V30 41975 H 3834.16 -2.34798 -2.9124 0
M  V30 41976 H 3835.5 -3.07386 -3.84415 0
M  V30 41977 N 3837.15 1.06178 -1.16464 0
M  V30 41978 C 3838.42 1.75823 -0.857069 0
M  V30 41979 C 3838.8 2.0101 0.64485 0
M  V30 41980 O 3838.15 1.63814 1.59302 0
M  V30 41981 C 3838.36 3.05846 -1.68105 0
M  V30 41982 C 3839.71 3.79979 -1.89476 0
M  V30 41983 O 3840.73 3.1569 -1.6498 0
M  V30 41984 O 3839.59 4.95474 -2.30581 0
M  V30 41985 H 3836.69 0.76409 -0.316378 0
M  V30 41986 H 3839.23 1.12436 -1.27107 0
M  V30 41987 H 3838.01 2.83206 -2.70019 0
M  V30 41988 H 3837.63 3.76968 -1.26417 0
M  V30 41989 N 3838.63 0.96331 1.24732 0
M  V30 41990 C 3840.04 0.669128 1.44896 0
M  V30 41991 C 3840.24 -0.770508 1.86187 0
M  V30 41992 O 3839.3 -1.54488 1.99724 0
M  V30 41993 C 3840.61 1.64947 2.51422 0
M  V30 41994 C 3842.16 1.66161 2.65254 0
M  V30 41995 C 3842.63 2.62982 3.74973 0
M  V30 41996 N 3844.12 2.61398 3.82394 0
M  V30 41997 C 3844.86 3.3299 4.66804 0
M  V30 41998 N 3844.36 4.14083 5.55434 0
M  V30 41999 N 3846.15 3.21835 4.60846 0
M  V30 42000 H 3838.3 1.89352 0.962259 0
M  V30 42001 H 3840.56 0.814967 0.484286 0
M  V30 42002 H 3840.27 2.67819 2.2796 0
M  V30 42003 H 3840.14 1.41879 3.495 0
M  V30 42004 H 3842.53 0.640029 2.88076 0
M  V30 42005 H 3842.61 1.93291 1.67547 0
M  V30 42006 H 3842.25 3.65272 3.52901 0
M  V30 42007 H 3842.18 2.33133 4.72183 0
M  V30 42008 H 3844.68 2.02532 3.19044 0
M  V30 42009 H 3844.99 4.65608 6.1679 0
M  V30 42010 H 3843.33 4.18179 5.55114 0
M  V30 42011 H 3846.52 2.57947 3.90616 0
M  V30 42012 H 3846.7 3.77893 5.26404 0
M  V30 42013 N 3840.1 -1.39522 0.732902 0
M  V30 42014 C 3841.33 -2.04856 0.290106 0
M  V30 42015 C 3841.75 -1.55254 -1.07432 0
M  V30 42016 O 3841.1 -0.716526 -1.67846 0
M  V30 42017 C 3841.15 -3.6041 0.280528 0
M  V30 42018 O 3840.88 -4.08186 1.59109 0
M  V30 42019 C 3842.38 -4.4294 -0.178694 0
M  V30 42020 H 3839.6 -0.658839 0.127172 0
M  V30 42021 H 3842.14 -1.78608 0.995964 0
M  V30 42022 H 3840.3 -3.85567 -0.376426 0
M  V30 42023 H 3840.71 -5.02497 1.50323 0
M  V30 42024 H 3842.18 -5.51837 -0.134238 0
M  V30 42025 H 3842.66 -4.21813 -1.22355 0
M  V30 42026 H 3843.27 -4.22927 0.448617 0
M  V30 42027 N 3841.58 -0.480375 -1.501 0
M  V30 42028 C 3842.49 0.314039 -2.32489 0
M  V30 42029 C 3843.51 0.987161 -1.43287 0
M  V30 42030 O 3844.68 0.973092 -1.76332 0
M  V30 42031 C 3841.75 1.37646 -3.18205 0
M  V30 42032 C 3840.81 0.718956 -4.23237 0
M  V30 42033 C 3840.04 1.73075 -5.04857 0
M  V30 42034 O 3840.27 2.95835 -4.87686 0
M  V30 42035 O 3839.2 1.29745 -5.8775 0
M  V30 42036 H 3843.03 -0.359753 -3.01562 0
M  V30 42037 H 3840.61 -0.242055 -1.47426 0
M  V30 42038 H 3842.49 1.99163 -3.71365 0
M  V30 42039 H 3841.17 2.03355 -2.5185 0
M  V30 42040 H 3840.07 0.0645834 -3.74044 0
M  V30 42041 H 3841.41 0.104656 -4.92089 0
M  V30 42042 N 3843.06 1.56149 -0.213351 0
M  V30 42043 C 3844.02 2.18676 0.686541 0
M  V30 42044 C 3845.02 1.1463 1.12768 0
M  V30 42045 O 3846.21 1.39911 1.03781 0
M  V30 42046 C 3843.34 2.80351 1.93949 0
M  V30 42047 H 3844.54 2.99566 0.141525 0
M  V30 42048 H 3842.09 1.56258 0.0362712 0
M  V30 42049 H 3842.83 2.03309 2.52658 0
M  V30 42050 H 3842.61 3.56535 1.63173 0
M  V30 42051 H 3844.1 3.28305 2.58081 0
M  V30 42052 N 3844.54 -0.0601128 1.57485 0
M  V30 42053 C 3845.5 -1.05464 2.03494 0
M  V30 42054 C 3846.5 -1.30905 0.933839 0
M  V30 42055 O 3847.69 -1.26429 1.19839 0
M  V30 42056 C 3844.82 -2.39542 2.42554 0
M  V30 42057 H 3846.02 -0.657841 2.92596 0
M  V30 42058 H 3843.57 -0.306156 1.53272 0
M  V30 42059 H 3844.3 -2.84032 1.56514 0
M  V30 42060 H 3844.09 -2.22415 3.22915 0
M  V30 42061 H 3845.58 -3.11005 2.78685 0
M  V30 42062 N 3846.02 -1.54068 -0.331762 0
M  V30 42063 C 3846.96 -1.83596 -1.42812 0
M  V30 42064 C 3847.96 -0.707258 -1.53929 0
M  V30 42065 O 3849.16 -0.89079 -1.56413 0
M  V30 42066 H 3845.54 -0.581842 -0.476408 0
M  V30 42067 H 3847.51 -2.75296 -1.15128 0
M  V30 42068 C 3846.26 -2.07282 -2.79158 0
M  V30 42069 H 3845.58 -2.93591 -2.71375 0
M  V30 42070 H 3847.02 -2.31901 -3.54962 0
M  V30 42071 C 3845.48 -0.861874 -3.25689 0
M  V30 42072 O 3846.01 -0.0670838 -4.01644 0
M  V30 42073 N 3844.22 -0.675796 -2.82633 0
M  V30 42074 H 3843.76 -1.32375 -2.20985 0
M  V30 42075 H 3843.72 0.132949 -3.14119 0
M  V30 42076 N 3847.49 0.593399 -1.46002 0
M  V30 42077 C 3848.91 0.915655 -1.30721 0
M  V30 42078 C 3849.11 1.99673 -0.270714 0
M  V30 42079 O 3848.17 2.50329 0.330438 0
M  V30 42080 C 3849.48 1.34313 -2.69036 0
M  V30 42081 C 3851.03 1.45657 -2.77043 0
M  V30 42082 C 3851.5 1.91775 -4.15916 0
M  V30 42083 N 3852.99 1.98986 -4.18281 0
M  V30 42084 C 3853.73 2.35923 -5.22617 0
M  V30 42085 N 3853.22 2.71727 -6.37288 0
M  V30 42086 N 3855.02 2.36385 -5.09979 0
M  V30 42087 H 3847.17 -0.120919 -2.12056 0
M  V30 42088 H 3849.43 0.00856908 -0.947961 0
M  V30 42089 H 3849.14 0.622861 -3.46141 0
M  V30 42090 H 3849.01 2.30683 -2.98438 0
M  V30 42091 H 3851.4 2.16773 -2.00234 0
M  V30 42092 H 3851.48 0.475662 -2.51339 0
M  V30 42093 H 3851.12 1.21242 -4.93217 0
M  V30 42094 H 3851.05 2.90805 -4.39021 0
M  V30 42095 H 3853.54 1.73849 -3.35537 0
M  V30 42096 H 3853.86 2.98834 -7.12684 0
M  V30 42097 H 3852.2 2.6939 -6.40667 0
M  V30 42098 H 3855.39 2.07829 -4.19434 0
M  V30 42099 H 3855.57 2.64844 -5.91407 0
M  V30 42100 N 3848.97 1.33529 0.837127 0
M  V30 42101 C 3850.22 1.24431 1.58744 0
M  V30 42102 C 3850.53 -0.187851 1.94696 0
M  V30 42103 O 3851.74 -0.400856 2.68524 0
M  V30 42104 C 3850.2 2.1804 2.86333 0
M  V30 42105 C 3849.8 3.66435 2.57739 0
M  V30 42106 C 3851.55 2.17819 3.64356 0
M  V30 42107 C 3849.46 4.51953 3.81435 0
M  V30 42108 H 3848.39 0.462179 0.59574 0
M  V30 42109 H 3851.04 1.58604 0.922873 0
M  V30 42110 H 3849.42 1.76801 3.54341 0
M  V30 42111 H 3850.59 4.16125 1.97932 0
M  V30 42112 H 3848.91 3.68963 1.93017 0
M  V30 42113 H 3851.5 2.7894 4.56176 0
M  V30 42114 H 3851.85 1.17371 3.99412 0
M  V30 42115 H 3852.38 2.57428 3.03275 0
M  V30 42116 H 3849.12 5.53283 3.51509 0
M  V30 42117 H 3848.64 4.07006 4.40575 0
M  V30 42118 H 3850.32 4.65845 4.48996 0
M  V30 42119 N 3850.45 -1.05559 1.17026 0
M  V30 42120 C 3851.7 -1.77884 0.9508 0
M  V30 42121 C 3852.01 -1.88507 -0.521972 0
M  V30 42122 O 3853.22 -2.57535 -0.859536 0
M  V30 42123 C 3851.67 -3.19748 1.65194 0
M  V30 42124 C 3851.28 -3.17268 3.16299 0
M  V30 42125 C 3853.03 -3.96555 1.51473 0
M  V30 42126 C 3850.93 -4.53897 3.79119 0
M  V30 42127 H 3849.86 -0.666739 0.352101 0
M  V30 42128 H 3852.51 -1.18344 1.40239 0
M  V30 42129 H 3850.9 -3.79592 1.12808 0
M  V30 42130 H 3852.07 -2.66963 3.7559 0
M  V30 42131 H 3850.39 -2.5396 3.2999 0
M  V30 42132 H 3852.98 -4.97568 1.95781 0
M  V30 42133 H 3853.33 -4.13698 0.464743 0
M  V30 42134 H 3853.86 -3.43251 2.01056 0
M  V30 42135 H 3850.6 -4.4196 4.84099 0
M  V30 42136 H 3850.12 -5.04366 3.24615 0
M  V30 42137 H 3851.8 -5.22843 3.81109 0
M  V30 42138 N 3851.93 -0.969911 -1.2422 0
M  V30 42139 C 3853.17 -0.64089 -1.94093 0
M  V30 42140 C 3853.53 0.809237 -1.74113 0
M  V30 42141 O 3854.73 1.24859 -2.38042 0
M  V30 42142 C 3853 -1.00803 -3.4289 0
M  V30 42143 S 3854.56 -0.793895 -4.31559 0
M  V30 42144 H 3851.38 -0.235048 -0.671024 0
M  V30 42145 H 3853.98 -1.24733 -1.50539 0
M  V30 42146 H 3852.69 -2.06027 -3.54938 0
M  V30 42147 H 3852.22 -0.392455 -3.91438 0
M  V30 42148 H 3854.23 0.32762 -4.95117 0
M  V30 42149 N 3853.41 1.39131 -0.740291 0
M  V30 42150 C 3854.63 2.04699 -0.300966 0
M  V30 42151 C 3855.05 1.55821 1.06607 0
M  V30 42152 O 3854.41 0.725417 1.67463 0
M  V30 42153 C 3854.46 3.60256 -0.299637 0
M  V30 42154 O 3854.18 4.07336 -1.61272 0
M  V30 42155 C 3855.68 4.43028 0.155201 0
M  V30 42156 H 3852.9 0.658155 -0.130664 0
M  V30 42157 H 3855.44 1.78077 -1.00542 0
M  V30 42158 H 3853.6 3.85761 0.355973 0
M  V30 42159 H 3854.01 5.01693 -1.52986 0
M  V30 42160 H 3855.49 5.519 0.104971 0
M  V30 42161 H 3855.96 4.22456 1.20116 0
M  V30 42162 H 3856.57 4.22683 -0.47104 0
M  V30 42163 N 3854.88 0.488329 1.49844 0
M  V30 42164 C 3856.13 -0.0624389 2.01603 0
M  V30 42165 C 3856.45 -1.39215 1.37399 0
M  V30 42166 O 3857.65 -2.02887 1.80414 0
M  V30 42167 C 3856.11 -0.161761 3.59536 0
M  V30 42168 C 3855.72 1.16054 4.32707 0
M  V30 42169 C 3857.46 -0.663568 4.19282 0
M  V30 42170 C 3855.37 1.02408 5.82466 0
M  V30 42171 H 3854.3 -0.027109 0.753513 0
M  V30 42172 H 3856.95 0.625836 1.72498 0
M  V30 42173 H 3855.33 -0.914205 3.85303 0
M  V30 42174 H 3856.5 1.92529 4.18652 0
M  V30 42175 H 3854.82 1.5948 3.84649 0
M  V30 42176 H 3857.42 -0.782976 5.28936 0
M  V30 42177 H 3857.76 -1.65926 3.81804 0
M  V30 42178 H 3858.29 0.0319777 3.97787 0
M  V30 42179 H 3855.03 1.99366 6.24447 0
M  V30 42180 H 3854.55 0.300007 5.99049 0
M  V30 42181 H 3856.23 0.697651 6.43228 0
M  V30 42182 N 3856.36 -1.56034 0.221629 0
M  V30 42183 C 3857.78 -1.59039 -0.133755 0
M  V30 42184 C 3857.98 -1.23844 -1.58949 0
M  V30 42185 O 3857.03 -0.973718 -2.3297 0
M  V30 42186 C 3858.35 -3.00083 0.192602 0
M  V30 42187 C 3859.9 -3.12709 0.134846 0
M  V30 42188 C 3860.37 -4.55931 0.434879 0
M  V30 42189 N 3861.86 -4.61602 0.384453 0
M  V30 42190 C 3862.6 -5.70355 0.5901 0
M  V30 42191 N 3862.09 -6.87472 0.857526 0
M  V30 42192 N 3863.89 -5.59666 0.522532 0
M  V30 42193 H 3856.04 -1.77187 1.17127 0
M  V30 42194 H 3858.3 -0.823588 0.469474 0
M  V30 42195 H 3858.01 -3.30486 1.20298 0
M  V30 42196 H 3857.88 -3.73973 -0.492364 0
M  V30 42197 H 3860.27 -2.82102 -0.866172 0
M  V30 42198 H 3860.35 -2.41149 0.853289 0
M  V30 42199 H 3859.99 -4.87255 1.43334 0
M  V30 42200 H 3859.92 -5.25717 -0.304757 0
M  V30 42201 H 3862.41 -3.77445 0.185456 0
M  V30 42202 H 3862.73 -7.6627 1.00254 0
M  V30 42203 H 3861.07 -6.89217 0.894721 0
M  V30 42204 H 3864.26 -4.67047 0.313836 0
M  V30 42205 H 3864.43 -6.44356 0.686207 0
M  V30 42206 N 3857.84 0.0517601 -1.57515 0
M  V30 42207 C 3859.07 0.763216 -1.92847 0
M  V30 42208 C 3859.49 1.69296 -0.819775 0
M  V30 42209 O 3858.85 1.79884 0.226129 0
M  V30 42210 C 3858.9 1.51584 -3.27192 0
M  V30 42211 O 3858 2.62778 -3.17839 0
M  V30 42212 H 3857.34 0.206885 -0.630947 0
M  V30 42213 H 3859.87 0.0140122 -2.04595 0
M  V30 42214 H 3859.88 1.89075 -3.61545 0
M  V30 42215 H 3858.56 0.833799 -4.07456 0
M  V30 42216 H 3857.13 2.27997 -2.95079 0
M  V30 42217 N 3859.32 1.54242 0.323587 0
M  V30 42218 C 3860.74 1.44951 0.667925 0
M  V30 42219 C 3860.94 0.622372 1.91648 0
M  V30 42220 O 3859.99 0.121164 2.52209 0
M  V30 42221 C 3861.3 2.88672 0.841955 0
M  V30 42222 C 3862.85 2.98574 0.939298 0
M  V30 42223 C 3863.33 4.43444 1.1455 0
M  V30 42224 N 3864.82 4.47056 1.21224 0
M  V30 42225 C 3865.55 5.56306 1.38966 0
M  V30 42226 N 3865.05 6.75524 1.53752 0
M  V30 42227 N 3866.84 5.43953 1.41674 0
M  V30 42228 H 3858.99 2.06502 -0.497053 0
M  V30 42229 H 3861.26 0.934301 -0.160579 0
M  V30 42230 H 3860.96 3.517 -0.0042475 0
M  V30 42231 H 3860.84 3.34785 1.73779 0
M  V30 42232 H 3863.22 2.35674 1.776 0
M  V30 42233 H 3863.3 2.55792 0.0199325 0
M  V30 42234 H 3862.95 5.06931 0.313643 0
M  V30 42235 H 3862.88 4.83835 2.07874 0
M  V30 42236 H 3865.37 3.61156 1.11241 0
M  V30 42237 H 3865.68 7.54544 1.66982 0
M  V30 42238 H 3864.03 6.78431 1.5085 0
M  V30 42239 H 3867.22 4.49767 1.29718 0
M  V30 42240 H 3867.39 6.2915 1.55159 0
M  V30 42241 N 3860.8 -0.585648 1.46314 0
M  V30 42242 C 3862.21 -0.90871 1.31204 0
M  V30 42243 C 3862.41 -1.99527 0.2813 0
M  V30 42244 O 3861.47 -2.505 -0.317158 0
M  V30 42245 C 3862.78 -1.32885 2.69745 0
M  V30 42246 C 3864.33 -1.44186 2.77812 0
M  V30 42247 C 3864.81 -1.89567 4.16927 0
M  V30 42248 N 3866.3 -1.96765 4.1933 0
M  V30 42249 C 3867.03 -2.33148 5.2386 0
M  V30 42250 N 3866.53 -2.68344 6.3872 0
M  V30 42251 N 3868.32 -2.33677 5.11225 0
M  V30 42252 H 3860.47 0.132163 2.11988 0
M  V30 42253 H 3862.73 -0.00354169 0.947993 0
M  V30 42254 H 3862.44 -0.604496 3.46466 0
M  V30 42255 H 3862.31 -2.29097 2.99657 0
M  V30 42256 H 3864.7 -2.15708 2.0138 0
M  V30 42257 H 3864.78 -0.462326 2.51587 0
M  V30 42258 H 3864.43 -1.18624 4.93853 0
M  V30 42259 H 3864.36 -2.88473 4.40557 0
M  V30 42260 H 3866.85 -1.72067 3.36454 0
M  V30 42261 H 3867.16 -2.9505 7.14259 0
M  V30 42262 H 3865.51 -2.65989 6.42086 0
M  V30 42263 H 3868.7 -2.05601 4.2053 0
M  V30 42264 H 3868.87 -2.61703 5.92803 0
M  V30 42265 N 3862.28 -1.33971 -0.830033 0
M  V30 42266 C 3863.69 -1.23264 -1.40225 0
M  V30 42267 C 3864.04 0.144827 -1.95665 0
M  V30 42268 O 3863.16 1.04484 -1.89505 0
M  V30 42269 C 3863.76 -2.23174 -2.54909 0
M  V30 42270 C 3862.32 -2.1628 -3.08058 0
M  V30 42271 C 3861.46 -2.10171 -1.80896 0
M  V30 42272 H 3864.41 -1.45441 -0.635037 0
M  V30 42273 H 3864.44 -1.8446 -3.32798 0
M  V30 42274 H 3863.95 -3.23418 -2.14528 0
M  V30 42275 H 3862.05 -1.19369 -3.52962 0
M  V30 42276 H 3862.16 -3.07219 -3.67632 0
M  V30 42277 H 3860.53 -1.55782 -2.01505 0
M  V30 42278 H 3861.31 -3.12237 -1.427 0
M  V30 42279 N 3863.75 1.04937 -1.17584 0
M  V30 42280 C 3864.69 2.1275 -0.852646 0
M  V30 42281 C 3865.7 1.62144 0.146042 0
M  V30 42282 O 3866.89 1.78318 -0.0806064 0
M  V30 42283 C 3863.99 3.37968 -0.251142 0
M  V30 42284 C 3863.16 4.17842 -1.29333 0
M  V30 42285 C 3862.22 5.214 -0.709116 0
M  V30 42286 O 3861.25 5.52178 -1.38159 0
M  V30 42287 N 3862.45 5.78363 0.497614 0
M  V30 42288 H 3865.21 2.41071 -1.78058 0
M  V30 42289 H 3862.77 1.21056 -1.07504 0
M  V30 42290 H 3864.77 4.0441 0.153049 0
M  V30 42291 H 3863.34 3.0716 0.58063 0
M  V30 42292 H 3862.56 3.46851 -1.87317 0
M  V30 42293 H 3863.84 4.68005 -1.99622 0
M  V30 42294 H 3863.24 5.55645 1.06186 0
M  V30 42295 H 3861.8 6.46315 0.843837 0
M  V30 42296 N 3865.23 0.976485 1.23703 0
M  V30 42297 C 3866.16 0.458348 2.2355 0
M  V30 42298 C 3867.14 -0.472386 1.55587 0
M  V30 42299 O 3868.33 -0.401738 1.84169 0
M  V30 42300 C 3865.45 -0.337363 3.37016 0
M  V30 42301 C 3864.5 0.53694 4.23107 0
M  V30 42302 S 3865.33 1.98245 4.97453 0
M  V30 42303 C 3866.49 1.19577 6.14371 0
M  V30 42304 H 3866.72 1.30446 2.67154 0
M  V30 42305 H 3864.25 0.782181 1.33121 0
M  V30 42306 H 3866.21 -0.79046 4.02818 0
M  V30 42307 H 3864.87 -1.15856 2.91953 0
M  V30 42308 H 3864.07 -0.0744414 5.03945 0
M  V30 42309 H 3863.67 0.926122 3.62352 0
M  V30 42310 H 3865.96 0.455136 6.75969 0
M  V30 42311 H 3866.9 1.97884 6.79888 0
M  V30 42312 H 3867.31 0.716274 5.59937 0
M  V30 42313 N 3866.71 -1.38737 0.747659 0
M  V30 42314 C 3867.96 -2.00544 0.301628 0
M  V30 42315 C 3868.29 -1.59207 -1.11205 0
M  V30 42316 O 3867.56 -0.826836 -1.7605 0
M  V30 42317 C 3867.85 -3.57668 0.417802 0
M  V30 42318 C 3867.7 -4.08987 1.87216 0
M  V30 42319 C 3869.02 -4.3968 -0.192326 0
M  V30 42320 H 3866.14 -0.728582 0.111073 0
M  V30 42321 H 3868.78 -1.64764 0.946191 0
M  V30 42322 H 3866.93 -3.88279 -0.130955 0
M  V30 42323 H 3868.6 -3.89043 2.47877 0
M  V30 42324 H 3866.84 -3.62074 2.38924 0
M  V30 42325 H 3867.52 -5.181 1.90464 0
M  V30 42326 H 3869.99 -4.15186 0.275613 0
M  V30 42327 H 3868.87 -5.48841 -0.0807641 0
M  V30 42328 H 3869.13 -4.23167 -1.27992 0
M  V30 42329 N 3868.19 -0.496268 -1.49583 0
M  V30 42330 C 3869.6 -0.151935 -1.58875 0
M  V30 42331 C 3869.8 1.34323 -1.50199 0
M  V30 42332 O 3868.86 2.11877 -1.37348 0
M  V30 42333 C 3870.17 -0.724529 -2.91841 0
M  V30 42334 C 3871.72 -0.690211 -3.05295 0
M  V30 42335 C 3872.2 -1.24078 -4.40872 0
M  V30 42336 N 3873.69 -1.20128 -4.47352 0
M  V30 42337 C 3874.42 -1.59752 -5.50697 0
M  V30 42338 N 3873.92 -2.06947 -6.61169 0
M  V30 42339 N 3875.71 -1.51198 -5.41383 0
M  V30 42340 H 3867.86 -1.46841 -1.53465 0
M  V30 42341 H 3870.12 -0.608789 -0.726691 0
M  V30 42342 H 3869.83 -1.77293 -3.03744 0
M  V30 42343 H 3869.7 -0.182275 -3.76759 0
M  V30 42344 H 3872.09 0.349339 -2.93025 0
M  V30 42345 H 3872.17 -1.26956 -2.22072 0
M  V30 42346 H 3871.82 -2.27909 -4.53894 0
M  V30 42347 H 3871.75 -0.63742 -5.22728 0
M  V30 42348 H 3874.24 -0.855425 -3.68091 0
M  V30 42349 H 3874.55 -2.35265 -7.36118 0
M  V30 42350 H 3872.9 -2.10918 -6.62222 0
M  V30 42351 H 3876.09 -1.1415 -4.53969 0
M  V30 42352 H 3876.26 -1.82403 -6.21798 0
M  V30 42353 N 3869.67 1.55914 -0.2299 0
M  V30 42354 C 3870.89 2.03364 0.407164 0
M  V30 42355 C 3871.32 1.10848 1.51968 0
M  V30 42356 O 3870.67 0.0982068 1.81034 0
M  V30 42357 C 3870.72 3.48976 0.908207 0
M  V30 42358 O 3869.83 3.59597 2.01901 0
M  V30 42359 H 3869.17 0.657724 0.0910795 0
M  V30 42360 H 3871.7 2.01567 -0.350982 0
M  V30 42361 H 3871.71 3.89462 1.21586 0
M  V30 42362 H 3870.38 4.15794 0.0939924 0
M  V30 42363 H 3868.96 3.31001 1.71735 0
M  V30 42364 N 3871.14 -0.043406 1.5754 0
M  V30 42365 C 3872.39 -0.738166 1.88889 0
M  V30 42366 C 3872.72 -1.75765 0.825858 0
M  V30 42367 O 3872 -1.93834 -0.160763 0
M  V30 42368 C 3872.28 -1.42067 3.30891 0
M  V30 42369 C 3872.13 -0.415675 4.47875 0
M  V30 42370 C 3873.45 -2.35839 3.71575 0
M  V30 42371 H 3870.57 -0.266885 0.68698 0
M  V30 42372 H 3873.21 -0.00103617 1.9 0
M  V30 42373 H 3871.36 -2.04898 3.30075 0
M  V30 42374 H 3873.04 0.20961 4.60824 0
M  V30 42375 H 3871.28 0.266422 4.32981 0
M  V30 42376 H 3871.95 -0.931413 5.44085 0
M  V30 42377 H 3874.43 -1.83064 3.73667 0
M  V30 42378 H 3873.3 -2.80581 4.71768 0
M  V30 42379 H 3873.56 -3.21893 3.03047 0
M  V30 42380 N 3872.62 -1.54412 -0.315402 0
M  V30 42381 C 3873.53 -1.874 -1.41133 0
M  V30 42382 C 3874.55 -0.766707 -1.56197 0
M  V30 42383 O 3875.72 -1.06179 -1.71137 0
M  V30 42384 C 3872.79 -2.10179 -2.75728 0
M  V30 42385 C 3871.85 -3.3395 -2.6977 0
M  V30 42386 C 3871.08 -3.55633 -3.97946 0
M  V30 42387 O 3871.31 -2.80598 -4.96609 0
M  V30 42388 O 3870.24 -4.49126 -4.00711 0
M  V30 42389 H 3874.07 -2.80607 -1.16162 0
M  V30 42390 H 3871.65 -1.4042 -0.510168 0
M  V30 42391 H 3873.53 -2.26445 -3.55388 0
M  V30 42392 H 3872.21 -1.20159 -3.00572 0
M  V30 42393 H 3871.11 -3.23062 -1.88632 0
M  V30 42394 H 3872.45 -4.24053 -2.4988 0
M  V30 42395 N 3874.1 0.57788 -1.46623 0
M  V30 42396 C 3875.06 1.66863 -1.57129 0
M  V30 42397 C 3876.06 1.54432 -0.448031 0
M  V30 42398 O 3877.25 1.58963 -0.712487 0
M  V30 42399 C 3874.39 3.06312 -1.49618 0
M  V30 42400 H 3875.58 1.58904 -2.54341 0
M  V30 42401 H 3873.13 0.796119 -1.34505 0
M  V30 42402 H 3873.87 3.19823 -0.537032 0
M  V30 42403 H 3873.65 3.16744 -2.31119 0
M  V30 42404 H 3875.14 3.85706 -1.60065 0
M  V30 42405 N 3875.58 1.34409 0.822917 0
M  V30 42406 C 3876.51 1.28631 1.94875 0
M  V30 42407 C 3877.49 0.163756 1.6931 0
M  V30 42408 O 3878.67 0.356117 1.90907 0
M  V30 42409 C 3875.8 1.041 3.31331 0
M  V30 42410 C 3874.76 2.12821 3.71337 0
M  V30 42411 C 3874.08 1.73478 5.05776 0
M  V30 42412 C 3875.38 3.54649 3.83433 0
M  V30 42413 H 3877.08 2.2283 1.99968 0
M  V30 42414 H 3874.62 1.07269 0.960696 0
M  V30 42415 H 3876.58 0.987019 4.09678 0
M  V30 42416 H 3875.3 0.0634216 3.26538 0
M  V30 42417 H 3873.96 2.17288 2.95265 0
M  V30 42418 H 3873.61 0.743814 4.9747 0
M  V30 42419 H 3873.31 2.46245 5.33514 0
M  V30 42420 H 3874.83 1.69576 5.8658 0
M  V30 42421 H 3876.25 3.52595 4.52051 0
M  V30 42422 H 3874.64 4.26038 4.22625 0
M  V30 42423 H 3875.71 3.91991 2.85432 0
M  V30 42424 N 3877.06 -1.04312 1.18139 0
M  V30 42425 C 3878.3 -1.79036 0.986176 0
M  V30 42426 C 3878.66 -1.86006 -0.47599 0
M  V30 42427 O 3879.86 -2.56911 -0.790566 0
M  V30 42428 C 3878.13 -3.18569 1.62013 0
M  V30 42429 S 3879.69 -4.09662 1.57234 0
M  V30 42430 H 3876.51 -0.616497 0.354192 0
M  V30 42431 H 3879.11 -1.25093 1.5024 0
M  V30 42432 H 3877.82 -3.11104 2.67661 0
M  V30 42433 H 3877.35 -3.77589 1.1041 0
M  V30 42434 H 3879.36 -4.92722 0.586505 0
M  V30 42435 N 3878.53 -0.983032 -1.23184 0
M  V30 42436 C 3879.81 -0.569684 -1.8712 0
M  V30 42437 C 3880.19 0.953157 -1.88356 0
M  V30 42438 O 3879.54 1.83097 -1.36703 0
M  V30 42439 C 3879.75 -1.17877 -3.2849 0
M  V30 42440 C 3881.1 -1.27315 -4.05063 0
M  V30 42441 O 3882.12 -1.13242 -3.3772 0
M  V30 42442 O 3880.98 -1.49732 -5.25588 0
M  V30 42443 H 3878.07 -0.192185 -0.804359 0
M  V30 42444 H 3880.62 -1.07828 -1.31039 0
M  V30 42445 H 3879.39 -2.22084 -3.22171 0
M  V30 42446 H 3879.02 -0.655156 -3.92165 0
M  V30 42447 N 3880.01 1.38338 -0.755006 0
M  V30 42448 C 3880.98 2.28793 -0.136497 0
M  V30 42449 C 3881.98 1.47254 0.64599 0
M  V30 42450 O 3883.17 1.67682 0.472047 0
M  V30 42451 C 3880.3 3.31014 0.815 0
M  V30 42452 H 3881.49 2.84996 -0.933669 0
M  V30 42453 H 3879.04 1.47322 -0.522108 0
M  V30 42454 H 3879.78 2.79905 1.6378 0
M  V30 42455 H 3879.56 3.91261 0.256294 0
M  V30 42456 H 3881.05 3.9865 1.24371 0
M  V30 42457 N 3881.49 0.504194 1.49317 0
M  V30 42458 C 3882.72 -0.0358531 2.06569 0
M  V30 42459 C 3883.13 -1.31076 1.36439 0
M  V30 42460 O 3882.47 -1.78415 0.437448 0
M  V30 42461 C 3882.53 -0.356593 3.57727 0
M  V30 42462 C 3882.2 0.821066 4.49564 0
M  V30 42463 C 3883.19 1.71244 4.90889 0
M  V30 42464 C 3880.88 1.02077 4.91819 0
M  V30 42465 C 3882.87 2.78764 5.7321 0
M  V30 42466 C 3880.56 2.09915 5.73915 0
M  V30 42467 C 3881.56 2.98093 6.14516 0
M  V30 42468 O 3881.25 4.04069 6.9497 0
M  V30 42469 H 3880.98 0.0186858 0.675742 0
M  V30 42470 H 3883.53 0.701698 1.93042 0
M  V30 42471 H 3881.76 -1.14778 3.69273 0
M  V30 42472 H 3883.45 -0.835635 3.97205 0
M  V30 42473 H 3884.22 1.56998 4.58886 0
M  V30 42474 H 3880.1 0.343795 4.59716 0
M  V30 42475 H 3883.64 3.47619 6.0482 0
M  V30 42476 H 3879.54 2.24155 6.0533 0
M  V30 42477 H 3880.31 4.01461 7.13282 0
M  V30 42478 N 3882.97 -1.5579 0.238166 0
M  V30 42479 C 3884.22 -1.97905 -0.389439 0
M  V30 42480 C 3884.53 -1.12933 -1.59705 0
M  V30 42481 O 3885.74 -1.45021 -2.29524 0
M  V30 42482 C 3884.19 -3.5212 -0.744257 0
M  V30 42483 C 3883.8 -4.4582 0.441466 0
M  V30 42484 C 3885.54 -4.02911 -1.33654 0
M  V30 42485 C 3883.45 -5.91366 0.063288 0
M  V30 42486 H 3882.38 -0.739075 -0.149278 0
M  V30 42487 H 3885.03 -1.80379 0.337004 0
M  V30 42488 H 3883.41 -3.65308 -1.52858 0
M  V30 42489 H 3884.59 -4.44387 1.21889 0
M  V30 42490 H 3882.9 -4.05463 0.948088 0
M  V30 42491 H 3885.5 -5.09164 -1.63267 0
M  V30 42492 H 3885.84 -3.4974 -2.25804 0
M  V30 42493 H 3886.38 -3.93013 -0.615297 0
M  V30 42494 H 3883.12 -6.48555 0.951698 0
M  V30 42495 H 3882.64 -5.95954 -0.678111 0
M  V30 42496 H 3884.31 -6.46011 -0.357598 0
M  V30 42497 N 3884.45 0.0350506 -1.57561 0
M  V30 42498 C 3885.7 0.726071 -1.88178 0
M  V30 42499 C 3886.01 1.7684 -0.835887 0
M  V30 42500 O 3887.21 2.51159 -1.03109 0
M  V30 42501 C 3885.67 1.34243 -3.33926 0
M  V30 42502 C 3885.28 0.336767 -4.46732 0
M  V30 42503 C 3887.02 2.01368 -3.73699 0
M  V30 42504 C 3884.93 0.961132 -5.83538 0
M  V30 42505 H 3883.86 0.274936 -0.702087 0
M  V30 42506 H 3886.51 -0.0197404 -1.83489 0
M  V30 42507 H 3884.89 2.13775 -3.33341 0
M  V30 42508 H 3886.07 -0.431404 -4.58776 0
M  V30 42509 H 3884.38 -0.232056 -4.15753 0
M  V30 42510 H 3886.98 2.48923 -4.73224 0
M  V30 42511 H 3887.32 2.82925 -3.05384 0
M  V30 42512 H 3887.85 1.28619 -3.76433 0
M  V30 42513 H 3884.59 0.185102 -6.55239 0
M  V30 42514 H 3884.11 1.69928 -5.75226 0
M  V30 42515 H 3885.79 1.47024 -6.30074 0
M  V30 42516 N 3885.92 1.54577 0.307209 0
M  V30 42517 C 3886.85 1.88097 1.38354 0
M  V30 42518 C 3887.84 0.73928 1.53195 0
M  V30 42519 O 3889.02 0.994469 1.66805 0
M  V30 42520 C 3886.15 2.12279 2.74872 0
M  V30 42521 C 3885.1 3.28127 2.74803 0
M  V30 42522 C 3884.43 3.37715 4.14551 0
M  V30 42523 C 3885.73 4.65385 2.37095 0
M  V30 42524 H 3887.42 2.78243 1.10549 0
M  V30 42525 H 3884.97 1.33877 0.53036 0
M  V30 42526 H 3886.92 2.34314 3.5025 0
M  V30 42527 H 3885.65 1.18898 3.04189 0
M  V30 42528 H 3884.31 3.06006 2.01881 0
M  V30 42529 H 3883.95 2.41862 4.41035 0
M  V30 42530 H 3883.65 4.15584 4.15408 0
M  V30 42531 H 3885.18 3.62003 4.91718 0
M  V30 42532 H 3886.59 4.87192 3.02187 0
M  V30 42533 H 3884.99 5.45923 2.49174 0
M  V30 42534 H 3886.06 4.66524 1.32226 0
M  V30 42535 N 3887.4 -0.570096 1.46927 0
M  V30 42536 C 3888.37 -1.66027 1.58012 0
M  V30 42537 C 3889.37 -1.54192 0.456215 0
M  V30 42538 O 3890.56 -1.58583 0.720907 0
M  V30 42539 C 3887.69 -3.05515 1.5124 0
M  V30 42540 H 3888.88 -1.57553 2.5518 0
M  V30 42541 H 3886.43 -0.788974 1.34925 0
M  V30 42542 H 3887.17 -3.19533 0.553985 0
M  V30 42543 H 3886.95 -3.15513 2.32795 0
M  V30 42544 H 3888.44 -3.84852 1.62108 0
M  V30 42545 N 3888.88 -1.34844 -0.815777 0
M  V30 42546 C 3889.83 -1.27027 -1.94851 0
M  V30 42547 C 3890.82 -0.166966 -1.68575 0
M  V30 42548 O 3892.03 -0.332383 -1.76905 0
M  V30 42549 H 3888.4 -0.394805 -0.640026 0
M  V30 42550 H 3890.38 -2.22743 -1.98565 0
M  V30 42551 C 3889.12 -1.04983 -3.31472 0
M  V30 42552 H 3888.45 -1.89116 -3.52243 0
M  V30 42553 H 3889.89 -1.03553 -4.1116 0
M  V30 42554 C 3888.35 0.246649 -3.35996 0
M  V30 42555 O 3888.88 1.24559 -3.819 0
M  V30 42556 N 3887.08 0.282241 -2.89226 0
M  V30 42557 H 3886.63 -0.531255 -2.52062 0
M  V30 42558 H 3886.59 1.14944 -2.92635 0
M  V30 42559 N 3890.36 1.03684 -1.1869 0
M  V30 42560 C 3891.29 2.137 -0.940977 0
M  V30 42561 C 3892.27 1.69657 0.12274 0
M  V30 42562 O 3893.46 1.94176 -0.0306426 0
M  V30 42563 C 3890.59 3.44103 -0.470115 0
M  V30 42564 C 3889.54 4.0179 -1.47475 0
M  V30 42565 C 3888.87 5.27718 -0.861267 0
M  V30 42566 C 3890.17 4.37519 -2.85262 0
M  V30 42567 H 3891.86 2.34531 -1.86106 0
M  V30 42568 H 3889.41 1.12711 -0.896227 0
M  V30 42569 H 3891.36 4.20432 -0.285404 0
M  V30 42570 H 3890.08 3.22971 0.485547 0
M  V30 42571 H 3888.74 3.27547 -1.64647 0
M  V30 42572 H 3888.39 5.02897 0.101702 0
M  V30 42573 H 3888.09 5.67276 -1.53206 0
M  V30 42574 H 3889.61 6.06721 -0.687173 0
M  V30 42575 H 3891.03 5.04818 -2.7172 0
M  V30 42576 H 3889.42 4.88137 -3.4906 0
M  V30 42577 H 3890.49 3.47175 -3.38522 0
M  V30 42578 N 3891.84 0.989551 1.22661 0
M  V30 42579 C 3893.11 0.579599 1.86815 0
M  V30 42580 C 3893.49 -0.943155 1.88859 0
M  V30 42581 O 3892.84 -1.8237 1.37672 0
M  V30 42582 C 3893.05 1.19618 3.27861 0
M  V30 42583 C 3894.4 1.29462 4.04382 0
M  V30 42584 O 3895.42 1.15032 3.37114 0
M  V30 42585 O 3894.28 1.52517 5.24786 0
M  V30 42586 H 3891.38 0.196448 0.803329 0
M  V30 42587 H 3893.92 1.08522 1.30465 0
M  V30 42588 H 3892.7 2.2379 3.20989 0
M  V30 42589 H 3892.32 0.675944 3.91812 0
M  V30 42590 N 3893.32 -1.37936 0.762332 0
M  V30 42591 C 3894.28 -2.28718 0.148629 0
M  V30 42592 C 3895.28 -1.47594 -0.638172 0
M  V30 42593 O 3896.47 -1.6793 -0.463148 0
M  V30 42594 C 3893.6 -3.31442 -0.797434 0
M  V30 42595 H 3894.79 -2.84497 0.94877 0
M  V30 42596 H 3892.35 -1.47043 0.529914 0
M  V30 42597 H 3893.08 -2.80769 -1.62293 0
M  V30 42598 H 3892.87 -3.91392 -0.235541 0
M  V30 42599 H 3894.36 -3.99304 -1.22255 0
M  V30 42600 N 3894.79 -0.512106 -1.49048 0
M  V30 42601 C 3896.02 0.0249339 -2.06885 0
M  V30 42602 C 3896.44 1.29801 -1.37102 0
M  V30 42603 O 3895.79 1.76793 -0.452829 0
M  V30 42604 C 3895.84 0.271056 -3.60482 0
M  V30 42605 O 3895.57 -0.951568 -4.27641 0
M  V30 42606 C 3897.07 0.850491 -4.35065 0
M  V30 42607 H 3894.29 -0.0254574 -0.670517 0
M  V30 42608 H 3896.83 -0.712641 -1.91681 0
M  V30 42609 H 3894.99 0.958636 -3.75352 0
M  V30 42610 H 3895.4 -0.721247 -5.19517 0
M  V30 42611 H 3896.87 0.972226 -5.43371 0
M  V30 42612 H 3897.35 1.85104 -3.98288 0
M  V30 42613 H 3897.96 0.200036 -4.24829 0
M  V30 42614 N 3896.27 1.55662 -0.246424 0
M  V30 42615 C 3897.2 2.18691 0.686075 0
M  V30 42616 C 3898.22 1.16308 1.13913 0
M  V30 42617 O 3899.41 1.43175 1.06599 0
M  V30 42618 C 3896.51 2.77585 1.94421 0
M  V30 42619 C 3895.68 4.05382 1.64268 0
M  V30 42620 C 3894.74 4.486 2.75036 0
M  V30 42621 O 3893.76 5.14986 2.42442 0
M  V30 42622 N 3894.97 4.16345 4.04521 0
M  V30 42623 H 3897.73 2.9934 0.14678 0
M  V30 42624 H 3895.29 1.61764 -0.0663683 0
M  V30 42625 H 3897.28 3.03455 2.67763 0
M  V30 42626 H 3895.85 2.01096 2.39331 0
M  V30 42627 H 3895.07 3.87106 0.744463 0
M  V30 42628 H 3896.36 4.88703 1.41585 0
M  V30 42629 H 3895.76 3.63048 4.33835 0
M  V30 42630 H 3894.32 4.47051 4.74329 0
M  V30 42631 N 3897.75 -0.0266943 1.57577 0
M  V30 42632 C 3899 -0.712601 1.90509 0
M  V30 42633 C 3899.35 -1.72837 0.845279 0
M  V30 42634 O 3898.64 -1.91045 -0.145748 0
M  V30 42635 C 3898.84 -1.42115 3.2793 0
M  V30 42636 C 3898.67 -0.475516 4.47179 0
M  V30 42637 C 3897.44 -0.0956921 5.05209 0
M  V30 42638 C 3899.63 0.247084 5.13706 0
M  V30 42639 N 3897.62 0.850948 6.07974 0
M  V30 42640 C 3898.99 1.0493 6.11056 0
M  V30 42641 C 3901.04 0.313774 4.9691 0
M  V30 42642 C 3899.75 1.91209 6.9342 0
M  V30 42643 C 3901.77 1.16369 5.79838 0
M  V30 42644 C 3901.13 1.95383 6.7676 0
M  V30 42645 H 3897.23 -0.234784 0.745923 0
M  V30 42646 H 3899.82 0.0273762 1.94681 0
M  V30 42647 H 3897.99 -2.13157 3.24682 0
M  V30 42648 H 3899.72 -2.05963 3.48369 0
M  V30 42649 H 3896.47 -0.458384 4.71377 0
M  V30 42650 H 3896.9 1.31885 6.6403 0
M  V30 42651 H 3901.54 -0.282806 4.21853 0
M  V30 42652 H 3899.26 2.51946 7.67821 0
M  V30 42653 H 3902.84 1.21886 5.68889 0
M  V30 42654 H 3901.72 2.60087 7.39814 0
M  V30 42655 N 3899.23 -1.54738 -0.299007 0
M  V30 42656 C 3900.17 -1.85827 -1.36884 0
M  V30 42657 C 3901.14 -0.707356 -1.50285 0
M  V30 42658 O 3902.33 -0.956172 -1.65112 0
M  V30 42659 C 3899.47 -2.1129 -2.72856 0
M  V30 42660 C 3898.58 -3.38911 -2.67887 0
M  V30 42661 C 3897.72 -3.54207 -3.95867 0
M  V30 42662 C 3896.76 -4.75612 -3.85304 0
M  V30 42663 N 3895.89 -4.87704 -5.05064 0
M  V30 42664 H 3900.73 -2.77085 -1.09671 0
M  V30 42665 H 3898.27 -1.37205 -0.530403 0
M  V30 42666 H 3900.23 -2.24049 -3.51934 0
M  V30 42667 H 3898.86 -1.23296 -2.98325 0
M  V30 42668 H 3897.91 -3.34761 -1.80663 0
M  V30 42669 H 3899.22 -4.28111 -2.55973 0
M  V30 42670 H 3898.38 -3.66642 -4.83383 0
M  V30 42671 H 3897.12 -2.63143 -4.10618 0
M  V30 42672 H 3896.12 -4.63208 -2.96172 0
M  V30 42673 H 3897.35 -5.68086 -3.72096 0
M  V30 42674 H 3895.29 -3.99564 -5.20274 0
M  V30 42675 H 3895.21 -5.70909 -4.9558 0
M  V30 42676 H 3896.48 -5.04497 -5.94225 0
M  V30 42677 N 3900.71 0.562296 -1.47228 0
M  V30 42678 C 3901.93 1.34523 -1.57198 0
M  V30 42679 C 3902.35 1.8751 -0.220336 0
M  V30 42680 O 3901.71 1.64724 0.785635 0
M  V30 42681 C 3901.76 2.51867 -2.59317 0
M  V30 42682 O 3901.48 2.01071 -3.89233 0
M  V30 42683 C 3902.98 3.44148 -2.79423 0
M  V30 42684 H 3900.2 0.410248 -0.530978 0
M  V30 42685 H 3902.74 0.681646 -1.92805 0
M  V30 42686 H 3900.9 3.14174 -2.26657 0
M  V30 42687 H 3901.31 2.7764 -4.4499 0
M  V30 42688 H 3902.79 4.22914 -3.5475 0
M  V30 42689 H 3903.26 3.97373 -1.87061 0
M  V30 42690 H 3903.87 2.87661 -3.13259 0
M  V30 42691 N 3902.18 1.35274 0.808615 0
M  V30 42692 C 3903.12 1.23882 1.92837 0
M  V30 42693 C 3904.13 0.162572 1.61986 0
M  V30 42694 O 3905.32 0.415671 1.73593 0
M  V30 42695 C 3902.42 0.884426 3.27156 0
M  V30 42696 C 3901.59 2.05862 3.85927 0
M  V30 42697 C 3900.65 1.68033 4.98649 0
M  V30 42698 O 3899.68 2.3988 5.16184 0
M  V30 42699 N 3900.88 0.602785 5.77362 0
M  V30 42700 H 3903.64 2.20353 2.03137 0
M  V30 42701 H 3901.2 1.28417 0.985933 0
M  V30 42702 H 3903.2 0.612884 4.00032 0
M  V30 42703 H 3901.77 0.00946079 3.12599 0
M  V30 42704 H 3900.99 2.49408 3.05269 0
M  V30 42705 H 3902.27 2.84355 4.21924 0
M  V30 42706 H 3901.67 0.00580685 5.657 0
M  V30 42707 H 3900.23 0.391018 6.50626 0
M  V30 42708 N 3903.66 -1.03053 1.19239 0
M  V30 42709 C 3905.08 -1.28671 0.944246 0
M  V30 42710 C 3905.28 -1.97801 -0.384344 0
M  V30 42711 O 3904.33 -2.26486 -1.11625 0
M  V30 42712 C 3905.65 -2.13543 2.11707 0
M  V30 42713 C 3907.2 -2.26856 2.15651 0
M  V30 42714 C 3907.67 -3.15099 3.32381 0
M  V30 42715 N 3909.16 -3.22687 3.32306 0
M  V30 42716 C 3909.9 -3.91151 4.19271 0
M  V30 42717 N 3909.39 -4.61859 5.16389 0
M  V30 42718 N 3911.19 -3.87533 4.07154 0
M  V30 42719 H 3903.34 -0.565951 2.04721 0
M  V30 42720 H 3905.6 -0.312312 0.895078 0
M  V30 42721 H 3905.31 -1.70067 3.07848 0
M  V30 42722 H 3905.18 -3.1425 2.0863 0
M  V30 42723 H 3907.57 -2.69563 1.20083 0
M  V30 42724 H 3907.65 -1.25704 2.22783 0
M  V30 42725 H 3907.29 -2.73101 4.28227 0
M  V30 42726 H 3907.22 -4.16306 3.22486 0
M  V30 42727 H 3909.71 -2.72327 2.62005 0
M  V30 42728 H 3910.03 -5.11726 5.79099 0
M  V30 42729 H 3908.37 -4.6073 5.20339 0
M  V30 42730 H 3911.56 -3.31432 3.30561 0
M  V30 42731 H 3911.73 -4.40617 4.75143 0
M  V30 42732 N 3905.14 -0.996042 -1.22134 0
M  V30 42733 C 3906.09 -0.54893 -2.24177 0
M  V30 42734 C 3907.06 0.420363 -1.60693 0
M  V30 42735 O 3908.24 0.324419 -1.88022 0
M  V30 42736 C 3905.38 0.127178 -3.44866 0
M  V30 42737 C 3904.5 -0.884228 -4.22854 0
M  V30 42738 C 3903.63 -0.181312 -5.3089 0
M  V30 42739 C 3902.67 -1.18088 -6.00601 0
M  V30 42740 N 3901.81 -0.50605 -7.00274 0
M  V30 42741 H 3906.65 -1.42382 -2.61785 0
M  V30 42742 H 3904.18 -0.713147 -1.28657 0
M  V30 42743 H 3906.14 0.536121 -4.13741 0
M  V30 42744 H 3904.77 0.965838 -3.08012 0
M  V30 42745 H 3903.82 -1.41147 -3.53244 0
M  V30 42746 H 3905.14 -1.64527 -4.70885 0
M  V30 42747 H 3904.29 0.284201 -6.06034 0
M  V30 42748 H 3903.03 0.612204 -4.83842 0
M  V30 42749 H 3902.03 -1.65698 -5.24237 0
M  V30 42750 H 3903.26 -1.97532 -6.49737 0
M  V30 42751 H 3901.2 0.267973 -6.55452 0
M  V30 42752 H 3901.12 -1.20548 -7.46327 0
M  V30 42753 H 3902.39 -0.0634439 -7.79474 0
M  V30 42754 N 3906.62 1.37529 -0.769636 0
M  V30 42755 C 3907.87 1.99349 -0.332344 0
M  V30 42756 C 3908.19 1.61401 1.09429 0
M  V30 42757 O 3907.46 0.878446 1.751 0
M  V30 42758 H 3906.04 0.737316 -0.119892 0
M  V30 42759 H 3908.7 1.68043 -0.987294 0
M  V30 42760 H 3907.8 3.09418 -0.408287 0
M  V30 42761 N 3908.1 0.520003 1.48774 0
M  V30 42762 C 3909.35 -0.0196618 2.0169 0
M  V30 42763 C 3909.66 -1.36269 1.40321 0
M  V30 42764 O 3910.86 -1.99014 1.84677 0
M  V30 42765 C 3909.32 -0.0854618 3.59799 0
M  V30 42766 C 3908.93 1.25207 4.30148 0
M  V30 42767 C 3910.67 -0.574483 4.20595 0
M  V30 42768 C 3908.58 1.1474 5.80163 0
M  V30 42769 H 3907.51 -0.0111197 0.753918 0
M  V30 42770 H 3910.16 0.662284 1.71132 0
M  V30 42771 H 3908.54 -0.832271 3.87155 0
M  V30 42772 H 3909.72 2.01366 4.14474 0
M  V30 42773 H 3908.03 1.67603 3.8118 0
M  V30 42774 H 3910.63 -0.670605 5.30478 0
M  V30 42775 H 3910.97 -1.5779 3.85237 0
M  V30 42776 H 3911.5 0.116347 3.9763 0
M  V30 42777 H 3908.24 2.12566 6.20077 0
M  V30 42778 H 3907.76 0.427007 5.98278 0
M  V30 42779 H 3909.44 0.833933 6.41603 0
M  V30 42780 N 3909.57 -1.55529 0.254676 0
M  V30 42781 C 3910.52 -2.23106 -0.657748 0
M  V30 42782 C 3911.52 -1.22121 -1.174 0
M  V30 42783 O 3912.72 -1.40111 -1.13 0
M  V30 42784 H 3909.1 -0.715766 -0.230615 0
M  V30 42785 H 3911.07 -2.9833 -0.0647235 0
M  V30 42786 C 3909.82 -2.95016 -1.84013 0
M  V30 42787 H 3909.14 -3.72499 -1.45204 0
M  V30 42788 H 3910.58 -3.45652 -2.45562 0
M  V30 42789 C 3909.04 -1.99327 -2.71607 0
M  V30 42790 O 3909.57 -1.53132 -3.71367 0
M  V30 42791 N 3907.78 -1.66262 -2.38339 0
M  V30 42792 H 3907.32 -2.04023 -1.57265 0
M  V30 42793 H 3907.28 -1.02505 -2.97221 0
M  V30 42794 N 3911.05 0.0183372 -1.57589 0
M  V30 42795 C 3912.3 0.706072 -1.88938 0
M  V30 42796 C 3912.61 1.75943 -0.854596 0
M  V30 42797 O 3913.82 2.50051 -1.05767 0
M  V30 42798 C 3912.28 1.30694 -3.35331 0
M  V30 42799 C 3911.88 0.289366 -4.47065 0
M  V30 42800 C 3913.63 1.97393 -3.75814 0
M  V30 42801 C 3911.54 0.899186 -5.84524 0
M  V30 42802 H 3910.47 0.267474 -0.704964 0
M  V30 42803 H 3913.12 -0.0392008 -1.83458 0
M  V30 42804 H 3911.5 2.10227 -3.3559 0
M  V30 42805 H 3912.67 -0.480039 -4.58293 0
M  V30 42806 H 3910.99 -0.276139 -4.15483 0
M  V30 42807 H 3913.58 2.4389 -4.75838 0
M  V30 42808 H 3913.93 2.7967 -3.08367 0
M  V30 42809 H 3914.46 1.24619 -3.77776 0
M  V30 42810 H 3911.2 0.115595 -6.55398 0
M  V30 42811 H 3910.72 1.63818 -5.76995 0
M  V30 42812 H 3912.4 1.40333 -6.31598 0
M  V30 42813 N 3912.53 1.54894 0.290797 0
M  V30 42814 C 3913.94 1.65552 0.863101 0
M  V30 42815 C 3914.29 0.570839 1.87712 0
M  V30 42816 O 3913.42 -0.290788 2.14437 0
M  V30 42817 C 3914.01 3.00109 1.57225 0
M  V30 42818 C 3912.57 3.12854 2.09283 0
M  V30 42819 C 3911.72 2.6128 0.928887 0
M  V30 42820 H 3914.67 1.58556 0.0675528 0
M  V30 42821 H 3914.69 2.92103 2.43836 0
M  V30 42822 H 3914.2 3.79033 0.833988 0
M  V30 42823 H 3912.3 2.3867 2.86125 0
M  V30 42824 H 3912.42 4.19162 2.32035 0
M  V30 42825 H 3910.78 2.17988 1.31732 0
M  V30 42826 H 3911.56 3.42691 0.204414 0
M  V30 42827 N 3914.01 -0.55448 1.47524 0
M  V30 42828 C 3914.97 -1.64342 1.59764 0
M  V30 42829 C 3915.97 -1.537 0.472543 0
M  V30 42830 O 3917.16 -1.57809 0.737687 0
M  V30 42831 C 3914.29 -3.03893 1.54472 0
M  V30 42832 H 3915.49 -1.54838 2.56837 0
M  V30 42833 H 3913.04 -0.774619 1.35755 0
M  V30 42834 H 3913.77 -3.18928 0.587845 0
M  V30 42835 H 3913.56 -3.13027 2.36129 0
M  V30 42836 H 3915.05 -3.8311 1.66181 0
M  V30 42837 N 3915.49 -1.35701 -0.80143 0
M  V30 42838 C 3916.76 -1.19822 -1.54603 0
M  V30 42839 C 3917.14 0.220556 -2.09945 0
M  V30 42840 O 3916.49 1.22472 -1.92906 0
M  V30 42841 C 3916.7 -2.27048 -2.65048 0
M  V30 42842 C 3918.05 -2.63114 -3.33251 0
M  V30 42843 O 3919.07 -2.26 -2.75322 0
M  V30 42844 O 3917.93 -3.2695 -4.37911 0
M  V30 42845 H 3915.03 -0.465819 -0.683332 0
M  V30 42846 H 3917.57 -1.47398 -0.840946 0
M  V30 42847 H 3916.34 -3.22186 -2.22063 0
M  V30 42848 H 3915.97 -2.0077 -3.43187 0
M  V30 42849 N 3916.96 1.02419 -1.19783 0
M  V30 42850 C 3917.9 2.10894 -0.897581 0
M  V30 42851 C 3918.91 1.62417 0.111616 0
M  V30 42852 O 3920.1 1.78107 -0.118412 0
M  V30 42853 C 3917.2 3.37359 -0.322773 0
M  V30 42854 C 3916.37 4.15004 -1.38167 0
M  V30 42855 C 3915.43 5.19779 -0.819553 0
M  V30 42856 O 3914.46 5.49123 -1.4984 0
M  V30 42857 N 3915.66 5.79289 0.374823 0
M  V30 42858 H 3918.42 2.3724 -1.83132 0
M  V30 42859 H 3915.98 1.18748 -1.10047 0
M  V30 42860 H 3917.98 4.04644 0.0672334 0
M  V30 42861 H 3916.55 3.08323 0.515346 0
M  V30 42862 H 3915.77 3.428 -1.94633 0
M  V30 42863 H 3917.05 4.63665 -2.09504 0
M  V30 42864 H 3916.45 5.57772 0.943758 0
M  V30 42865 H 3915.01 6.47959 0.706554 0
M  V30 42866 N 3918.44 1.0025 1.21604 0
M  V30 42867 C 3919.85 0.717476 1.72363 0
M  V30 42868 C 3920.21 -0.765046 1.8067 0
M  V30 42869 O 3919.33 -1.5977 1.45954 0
M  V30 42870 C 3919.93 1.29573 3.13044 0
M  V30 42871 C 3918.48 1.05987 3.6117 0
M  V30 42872 C 3917.63 1.41007 2.38772 0
M  V30 42873 H 3920.58 1.17371 1.06816 0
M  V30 42874 H 3920.6 0.67912 3.7439 0
M  V30 42875 H 3920.12 2.37473 3.06966 0
M  V30 42876 H 3918.22 -0.00207758 3.726 0
M  V30 42877 H 3918.33 1.73001 4.46775 0
M  V30 42878 H 3916.69 0.828812 2.40838 0
M  V30 42879 H 3917.48 2.49932 2.35348 0
M  V30 42880 N 3919.92 -1.37119 0.776919 0
M  V30 42881 C 3921.17 -1.9881 0.340244 0
M  V30 42882 C 3921.48 -1.62368 -1.09068 0
M  V30 42883 O 3922.69 -2.172 -1.629 0
M  V30 42884 C 3921.15 -3.55558 0.557387 0
M  V30 42885 C 3920.75 -4.00933 1.99891 0
M  V30 42886 C 3922.5 -4.24098 0.184594 0
M  V30 42887 C 3920.4 -5.50411 2.16338 0
M  V30 42888 H 3919.33 -0.743821 0.123473 0
M  V30 42889 H 3921.99 -1.56582 0.956781 0
M  V30 42890 H 3920.37 -3.95791 -0.128682 0
M  V30 42891 H 3921.54 -3.71932 2.72036 0
M  V30 42892 H 3919.86 -3.45191 2.32878 0
M  V30 42893 H 3922.45 -5.33935 0.285921 0
M  V30 42894 H 3922.8 -4.07198 -0.865788 0
M  V30 42895 H 3923.33 -3.89185 0.823412 0
M  V30 42896 H 3920.07 -5.72244 3.19713 0
M  V30 42897 H 3919.59 -5.8108 1.48683 0
M  V30 42898 H 3921.27 -6.16455 1.96448 0
M  V30 42899 N 3921.4 -0.527886 -1.48496 0
M  V30 42900 C 3922.63 0.00298957 -2.069 0
M  V30 42901 C 3923.04 1.2834 -1.38471 0
M  V30 42902 O 3922.4 1.76303 -0.471555 0
M  V30 42903 C 3922.45 0.232807 -3.6075 0
M  V30 42904 O 3922.17 -0.996871 -4.26608 0
M  V30 42905 C 3923.67 0.804299 -4.35943 0
M  V30 42906 H 3920.89 -0.0325676 -0.670209 0
M  V30 42907 H 3923.44 -0.732931 -1.90915 0
M  V30 42908 H 3921.59 0.918771 -3.76347 0
M  V30 42909 H 3922.01 -0.776309 -5.18723 0
M  V30 42910 H 3923.48 0.91454 -5.44371 0
M  V30 42911 H 3923.96 1.80869 -4.00229 0
M  V30 42912 H 3924.56 0.154966 -4.25018 0
M  V30 42913 N 3922.88 1.55391 -0.26292 0
M  V30 42914 C 3923.82 2.2204 0.629814 0
M  V30 42915 C 3924.79 1.18968 1.15913 0
M  V30 42916 O 3925.98 1.4747 1.21067 0
M  V30 42917 C 3923.12 2.93593 1.81375 0
M  V30 42918 C 3922.23 4.11357 1.31945 0
M  V30 42919 C 3921.37 4.70584 2.46422 0
M  V30 42920 C 3920.41 5.80565 1.93933 0
M  V30 42921 N 3919.54 6.33908 3.01837 0
M  V30 42922 H 3924.38 2.9795 0.054795 0
M  V30 42923 H 3921.92 1.47092 0.0152814 0
M  V30 42924 H 3923.88 3.33287 2.5095 0
M  V30 42925 H 3922.51 2.20129 2.36099 0
M  V30 42926 H 3921.56 3.76867 0.517215 0
M  V30 42927 H 3922.87 4.90706 0.894907 0
M  V30 42928 H 3922.03 5.12935 3.24011 0
M  V30 42929 H 3920.77 3.90485 2.92186 0
M  V30 42930 H 3919.77 5.37677 1.1482 0
M  V30 42931 H 3921 6.62526 1.4912 0
M  V30 42932 H 3918.94 5.56707 3.47006 0
M  V30 42933 H 3918.86 7.08495 2.63762 0
M  V30 42934 H 3920.13 6.80917 3.79437 0
M  V30 42935 N 3924.36 -0.00997961 1.57597 0
M  V30 42936 C 3925.29 -1.00371 2.10827 0
M  V30 42937 C 3926.27 -1.36491 1.0151 0
M  V30 42938 O 3927.45 -1.45041 1.29139 0
M  V30 42939 C 3924.58 -2.29873 2.60338 0
M  V30 42940 C 3923.54 -2.07943 3.74091 0
M  V30 42941 C 3922.86 -3.43371 4.09879 0
M  V30 42942 C 3924.16 -1.45009 5.01767 0
M  V30 42943 H 3925.86 -0.560539 2.94106 0
M  V30 42944 H 3923.4 -0.268183 1.41481 0
M  V30 42945 H 3925.35 -2.99738 2.96201 0
M  V30 42946 H 3924.08 -2.76285 1.74167 0
M  V30 42947 H 3922.74 -1.40506 3.38605 0
M  V30 42948 H 3922.39 -3.87468 3.20746 0
M  V30 42949 H 3922.09 -3.29517 4.86511 0
M  V30 42950 H 3923.61 -4.14567 4.48293 0
M  V30 42951 H 3925.02 -2.04817 5.35465 0
M  V30 42952 H 3923.42 -1.41673 5.83137 0
M  V30 42953 H 3924.49 -0.418105 4.83094 0
M  V30 42954 N 3925.83 -1.55046 -0.282578 0
M  V30 42955 C 3926.78 -1.87268 -1.34905 0
M  V30 42956 C 3927.75 -0.723256 -1.49527 0
M  V30 42957 O 3928.94 -0.973631 -1.64089 0
M  V30 42958 C 3926.08 -2.14173 -2.706 0
M  V30 42959 C 3925.19 -3.41733 -2.64278 0
M  V30 42960 C 3924.32 -3.58386 -3.92088 0
M  V30 42961 C 3923.36 -4.79672 -3.80238 0
M  V30 42962 N 3922.5 -4.93033 -4.99862 0
M  V30 42963 H 3927.34 -2.78233 -1.06726 0
M  V30 42964 H 3924.88 -1.3776 -0.515821 0
M  V30 42965 H 3926.83 -2.2777 -3.49538 0
M  V30 42966 H 3925.46 -1.26453 -2.97001 0
M  V30 42967 H 3924.52 -3.36659 -1.77102 0
M  V30 42968 H 3925.83 -4.30802 -2.51418 0
M  V30 42969 H 3924.98 -3.71748 -4.79467 0
M  V30 42970 H 3923.72 -2.67484 -4.07804 0
M  V30 42971 H 3922.73 -4.66324 -2.91243 0
M  V30 42972 H 3923.95 -5.72 -3.6605 0
M  V30 42973 H 3921.9 -4.05059 -5.16007 0
M  V30 42974 H 3921.81 -5.76133 -4.89497 0
M  V30 42975 H 3923.08 -5.10771 -5.8884 0
M  V30 42976 N 3927.31 0.546649 -1.47816 0
M  V30 42977 C 3928.26 1.67378 -1.61516 0
M  V30 42978 C 3929.25 1.62395 -0.482092 0
M  V30 42979 O 3930.46 1.67453 -0.660256 0
M  V30 42980 H 3926.83 0.55402 -0.508494 0
M  V30 42981 H 3928.81 1.52962 -2.56213 0
M  V30 42982 C 3927.55 3.05704 -1.65651 0
M  V30 42983 H 3926.88 3.10225 -2.52192 0
M  V30 42984 H 3928.32 3.84231 -1.79284 0
M  V30 42985 C 3926.78 3.34613 -0.391858 0
M  V30 42986 O 3927.31 3.98545 0.502505 0
M  V30 42987 N 3925.51 2.89356 -0.268644 0
M  V30 42988 H 3925.06 2.37508 -0.997389 0
M  V30 42989 H 3925.02 3.09068 0.576546 0
M  V30 42990 N 3928.79 1.36124 0.794222 0
M  V30 42991 C 3929.72 1.32735 1.92103 0
M  V30 42992 C 3930.7 0.199633 1.68924 0
M  V30 42993 O 3931.89 0.396531 1.90109 0
M  V30 42994 C 3929.02 1.11104 3.29049 0
M  V30 42995 C 3927.97 2.20649 3.66739 0
M  V30 42996 C 3927.3 1.84167 5.01983 0
M  V30 42997 C 3928.6 3.62703 3.75824 0
M  V30 42998 H 3930.29 2.27022 1.95196 0
M  V30 42999 H 3927.84 1.09283 0.937727 0
M  V30 43000 H 3929.79 1.0737 4.07492 0
M  V30 43001 H 3928.51 0.132671 3.2633 0
M  V30 43002 H 3927.17 2.23502 2.9059 0
M  V30 43003 H 3926.82 0.849168 4.9578 0
M  V30 43004 H 3926.52 2.57506 5.28171 0
M  V30 43005 H 3928.04 1.8198 5.82851 0
M  V30 43006 H 3929.46 3.62104 4.4447 0
M  V30 43007 H 3927.85 4.34907 4.13493 0
M  V30 43008 H 3928.92 3.97957 2.77053 0
M  V30 43009 N 3930.27 -1.01782 1.20325 0
M  V30 43010 C 3931.18 -2.1376 0.966641 0
M  V30 43011 C 3932.19 -1.73829 -0.0770753 0
M  V30 43012 O 3933.37 -2.01099 0.110089 0
M  V30 43013 C 3930.43 -3.42771 0.520465 0
M  V30 43014 C 3929.5 -3.96951 1.63489 0
M  V30 43015 C 3928.73 -5.19805 1.2099 0
M  V30 43016 O 3928.95 -5.70347 0.0780816 0
M  V30 43017 O 3927.89 -5.67104 2.01684 0
M  V30 43018 H 3931.71 -2.36589 1.90418 0
M  V30 43019 H 3929.3 -1.12153 0.987017 0
M  V30 43020 H 3931.18 -4.20463 0.280821 0
M  V30 43021 H 3929.85 -3.2136 -0.388507 0
M  V30 43022 H 3928.76 -3.20543 1.9288 0
M  V30 43023 H 3930.09 -4.22748 2.52082 0
M  V30 43024 N 3931.75 -1.00894 -1.21071 0
M  V30 43025 C 3933.02 -0.609247 -1.8587 0
M  V30 43026 C 3933.4 0.91299 -1.90336 0
M  V30 43027 O 3932.75 1.80157 -1.40556 0
M  V30 43028 C 3932.96 -1.24818 -3.25916 0
M  V30 43029 C 3934.31 -1.35879 -4.02271 0
M  V30 43030 O 3935.33 -1.2038 -3.35242 0
M  V30 43031 O 3934.19 -1.60847 -5.22294 0
M  V30 43032 H 3931.29 -0.209204 -0.800102 0
M  V30 43033 H 3933.83 -1.10583 -1.28722 0
M  V30 43034 H 3932.6 -2.28868 -3.17388 0
M  V30 43035 H 3932.23 -0.738193 -3.90687 0
M  V30 43036 N 3933.22 1.36705 -0.78418 0
M  V30 43037 C 3934.47 1.99674 -0.354693 0
M  V30 43038 C 3934.8 1.621 1.06945 0
M  V30 43039 O 3934.08 0.873222 1.73796 0
M  V30 43040 C 3934.36 3.56435 -0.512484 0
M  V30 43041 C 3934.21 4.03879 -1.97994 0
M  V30 43042 C 3935.53 4.40035 0.0756846 0
M  V30 43043 H 3932.65 0.725381 -0.130351 0
M  V30 43044 H 3935.29 1.62198 -0.989543 0
M  V30 43045 H 3933.44 3.8849 0.027964 0
M  V30 43046 H 3935.12 3.82334 -2.58105 0
M  V30 43047 H 3933.36 3.55613 -2.48439 0
M  V30 43048 H 3934.03 5.12868 -2.04134 0
M  V30 43049 H 3936.51 4.1431 -0.385595 0
M  V30 43050 H 3935.38 5.48862 -0.0647797 0
M  V30 43051 H 3935.64 4.26412 1.16728 0
M  V30 43052 N 3934.7 0.535753 1.48214 0
M  V30 43053 C 3935.95 0.0037687 2.028 0
M  V30 43054 C 3936.28 -1.33386 1.41145 0
M  V30 43055 O 3935.56 -1.86286 0.55926 0
M  V30 43056 C 3935.84 -0.112123 3.59925 0
M  V30 43057 C 3935.69 1.25108 4.32051 0
M  V30 43058 C 3937.01 -0.836102 4.32085 0
M  V30 43059 H 3934.13 0.00284358 0.736995 0
M  V30 43060 H 3936.77 0.693899 1.76876 0
M  V30 43061 H 3934.92 -0.699893 3.82144 0
M  V30 43062 H 3936.59 1.8804 4.21235 0
M  V30 43063 H 3934.84 1.83145 3.93243 0
M  V30 43064 H 3935.51 1.12293 5.40458 0
M  V30 43065 H 3937.98 -0.33726 4.14731 0
M  V30 43066 H 3936.86 -0.886101 5.41701 0
M  V30 43067 H 3937.12 -1.88764 3.99775 0
M  V30 43068 N 3936.18 -1.5525 0.271158 0
M  V30 43069 C 3937.43 -1.99805 -0.347269 0
M  V30 43070 C 3937.76 -1.1593 -1.55801 0
M  V30 43071 O 3937.03 -0.22842 -1.93154 0
M  V30 43072 C 3937.32 -3.52554 -0.733346 0
M  V30 43073 C 3937.17 -4.47183 0.484459 0
M  V30 43074 C 3938.49 -4.11094 -1.57128 0
M  V30 43075 H 3935.61 -0.726365 -0.124749 0
M  V30 43076 H 3938.25 -1.86216 0.377313 0
M  V30 43077 H 3936.4 -3.64264 -1.3507 0
M  V30 43078 H 3938.07 -4.47422 1.12301 0
M  V30 43079 H 3936.32 -4.19006 1.12324 0
M  V30 43080 H 3936.99 -5.51736 0.170622 0
M  V30 43081 H 3939.46 -4.02636 -1.04994 0
M  V30 43082 H 3938.34 -5.18191 -1.81024 0
M  V30 43083 H 3938.6 -3.61074 -2.55104 0
M  V30 43084 N 3937.66 0.00162173 -1.576 0
M  V30 43085 C 3939.07 0.544649 -1.78579 0
M  V30 43086 C 3939.42 1.74049 -0.905606 0
M  V30 43087 O 3938.55 2.16132 -0.107652 0
M  V30 43088 C 3939.14 0.994841 -3.23865 0
M  V30 43089 C 3937.7 1.48319 -3.45946 0
M  V30 43090 C 3936.85 0.433654 -2.73888 0
M  V30 43091 H 3939.8 -0.224552 -1.57103 0
M  V30 43092 H 3939.82 1.86093 -3.31888 0
M  V30 43093 H 3939.33 0.124283 -3.87901 0
M  V30 43094 H 3937.43 2.37469 -2.87122 0
M  V30 43095 H 3937.54 1.51177 -4.54623 0
M  V30 43096 H 3935.91 0.894927 -2.3846 0
M  V30 43097 H 3936.69 -0.42791 -3.40623 0
M  V30 43098 N 3939.14 1.55194 0.274352 0
M  V30 43099 C 3940.36 1.7976 1.0244 0
M  V30 43100 C 3940.78 0.570237 1.79983 0
M  V30 43101 O 3940.14 -0.460659 1.7659 0
M  V30 43102 C 3940.19 3.02188 1.98405 0
M  V30 43103 O 3939.91 4.20184 1.24004 0
M  V30 43104 C 3941.41 3.39348 2.85233 0
M  V30 43105 H 3938.63 0.598857 0.302673 0
M  V30 43106 H 3941.17 2.02205 0.305546 0
M  V30 43107 H 3939.33 2.81874 2.65755 0
M  V30 43108 H 3939.74 4.89389 1.88676 0
M  V30 43109 H 3941.22 4.28186 3.48368 0
M  V30 43110 H 3941.69 2.5869 3.54931 0
M  V30 43111 H 3942.3 3.61916 2.23376 0
M  V30 43112 N 3940.61 -0.538802 1.48104 0
M  V30 43113 C 3941.55 -1.66054 1.56529 0
M  V30 43114 C 3942.53 -1.57182 0.416253 0
M  V30 43115 O 3943.71 -1.7778 0.626632 0
M  V30 43116 C 3940.84 -3.04408 1.48505 0
M  V30 43117 C 3939.88 -3.31667 2.6814 0
M  V30 43118 S 3940.72 -3.18902 4.30188 0
M  V30 43119 C 3941.87 -4.59718 4.24747 0
M  V30 43120 H 3942.1 -1.58656 2.51427 0
M  V30 43121 H 3939.64 -0.721077 1.36528 0
M  V30 43122 H 3941.6 -3.84203 1.44562 0
M  V30 43123 H 3940.26 -3.09254 0.549595 0
M  V30 43124 H 3939.45 -4.32575 2.5864 0
M  V30 43125 H 3939.05 -2.59525 2.693 0
M  V30 43126 H 3941.34 -5.51056 3.94136 0
M  V30 43127 H 3942.29 -4.74273 5.25805 0
M  V30 43128 H 3942.69 -4.38627 3.5534 0
M  V30 43129 N 3942.09 -1.36544 -0.786992 0
M  V30 43130 C 3943 -1.33226 -1.93101 0
M  V30 43131 C 3944.02 -0.234077 -1.72418 0
M  V30 43132 O 3945.19 -0.466862 -1.95914 0
M  V30 43133 C 3942.26 -1.12325 -3.28 0
M  V30 43134 C 3941.32 -2.31641 -3.61443 0
M  V30 43135 C 3940.55 -2.11727 -4.89905 0
M  V30 43136 O 3940.78 -1.09369 -5.59816 0
M  V30 43137 O 3939.71 -2.99561 -5.2206 0
M  V30 43138 H 3943.54 -2.29549 -1.98849 0
M  V30 43139 H 3941.12 -1.17116 -0.927589 0
M  V30 43140 H 3943 -1.02596 -4.0872 0
M  V30 43141 H 3941.68 -0.190666 -3.23138 0
M  V30 43142 H 3940.59 -2.46939 -2.81019 0
M  V30 43143 H 3941.92 -3.23414 -3.71031 0
M  V30 43144 N 3943.57 1.01143 -1.20863 0
M  V30 43145 C 3944.82 1.74233 -1.01617 0
M  V30 43146 C 3945.13 1.90314 0.45165 0
M  V30 43147 O 3946.34 2.60548 0.763362 0
M  V30 43148 C 3944.79 3.13397 -1.76948 0
M  V30 43149 C 3944.4 3.0531 -3.27857 0
M  V30 43150 C 3946.15 3.9066 -1.66087 0
M  V30 43151 C 3944.05 4.39514 -3.95704 0
M  V30 43152 H 3942.98 0.653212 -0.376604 0
M  V30 43153 H 3945.63 1.13058 -1.44535 0
M  V30 43154 H 3944.02 3.75144 -1.26819 0
M  V30 43155 H 3945.19 2.52839 -3.85239 0
M  V30 43156 H 3943.51 2.41537 -3.39188 0
M  V30 43157 H 3946.1 4.89959 -2.14113 0
M  V30 43158 H 3946.45 4.11688 -0.617964 0
M  V30 43159 H 3946.98 3.35552 -2.13657 0
M  V30 43160 H 3943.72 4.23689 -5.00168 0
M  V30 43161 H 3943.24 4.91971 -3.4311 0
M  V30 43162 H 3944.92 5.08339 -4.00251 0
M  V30 43163 N 3945.05 1.01535 1.20534 0
M  V30 43164 C 3946 0.584525 2.23275 0
M  V30 43165 C 3946.97 -0.394745 1.61341 0
M  V30 43166 O 3948.15 -0.294465 1.88514 0
M  V30 43167 C 3945.29 -0.0722968 3.45024 0
M  V30 43168 C 3944.4 0.951388 4.21394 0
M  V30 43169 C 3943.54 0.265749 5.30535 0
M  V30 43170 C 3942.58 1.27628 5.98646 0
M  V30 43171 N 3941.71 0.617393 6.9938 0
M  V30 43172 H 3946.55 1.46529 2.59487 0
M  V30 43173 H 3944.09 0.733525 1.27506 0
M  V30 43174 H 3946.05 -0.47023 4.14542 0
M  V30 43175 H 3944.68 -0.916714 3.0951 0
M  V30 43176 H 3943.73 1.46749 3.50954 0
M  V30 43177 H 3945.04 1.71997 4.68208 0
M  V30 43178 H 3944.2 -0.18775 6.06409 0
M  V30 43179 H 3942.94 -0.535152 4.84755 0
M  V30 43180 H 3941.94 1.74018 5.21534 0
M  V30 43181 H 3943.17 2.07844 6.46512 0
M  V30 43182 H 3941.11 -0.163662 6.55796 0
M  V30 43183 H 3941.03 1.32407 7.44315 0
M  V30 43184 H 3942.3 0.187443 7.79275 0
M  V30 43185 N 3946.53 -1.36288 0.791419 0
M  V30 43186 C 3947.77 -1.99483 0.365277 0
M  V30 43187 C 3948.11 -1.62665 -1.06084 0
M  V30 43188 O 3947.38 -0.882427 -1.73331 0
M  V30 43189 C 3947.66 -3.56158 0.531379 0
M  V30 43190 C 3947.52 -4.02823 2.00133 0
M  V30 43191 C 3948.84 -4.40069 -0.0523475 0
M  V30 43192 H 3945.95 -0.72468 0.134196 0
M  V30 43193 H 3948.6 -1.6167 0.998131 0
M  V30 43194 H 3946.75 -3.88499 -0.00736101 0
M  V30 43195 H 3948.42 -3.8096 2.60129 0
M  V30 43196 H 3946.66 -3.5429 2.50322 0
M  V30 43197 H 3947.33 -5.11778 2.06851 0
M  V30 43198 H 3949.81 -4.14099 0.407562 0
M  V30 43199 H 3948.68 -5.4882 0.0938863 0
M  V30 43200 H 3948.95 -4.27025 -1.14465 0
M  V30 43201 N 3948.01 -0.543606 -1.47928 0
M  V30 43202 C 3949.28 0.0505343 -1.95535 0
M  V30 43203 C 3949.66 1.49932 -1.48606 0
M  V30 43204 O 3949.01 2.16903 -0.718693 0
M  V30 43205 C 3949.22 -0.0808268 -3.48906 0
M  V30 43206 C 3950.57 0.0714925 -4.2454 0
M  V30 43207 O 3951.59 -0.00769961 -3.56199 0
M  V30 43208 O 3950.45 0.2395 -5.45975 0
M  V30 43209 H 3947.55 0.0717251 -0.823884 0
M  V30 43210 H 3950.09 -0.609168 -1.58389 0
M  V30 43211 H 3948.86 -1.08951 -3.75826 0
M  V30 43212 H 3948.49 0.617109 -3.92782 0
M  V30 43213 N 3949.48 1.55104 -0.279387 0
M  V30 43214 C 3950.43 2.19384 0.620843 0
M  V30 43215 C 3951.42 1.15983 1.1152 0
M  V30 43216 O 3952.61 1.41782 1.05956 0
M  V30 43217 C 3949.74 2.92171 1.80252 0
M  V30 43218 C 3948.82 4.02866 1.32514 0
M  V30 43219 N 3949.22 5.02643 0.564217 0
M  V30 43220 C 3947.51 4.16014 1.60774 0
M  V30 43221 C 3948.21 5.80859 0.3127 0
M  V30 43222 N 3947.19 5.36325 0.886344 0
M  V30 43223 H 3950.99 2.93883 0.0316879 0
M  V30 43224 H 3948.51 1.62187 -0.0831416 0
M  V30 43225 H 3950.5 3.36674 2.45878 0
M  V30 43226 H 3949.16 2.19184 2.39559 0
M  V30 43227 H 3950.17 5.17469 0.211152 0
M  V30 43228 H 3946.85 3.5422 2.20985 0
M  V30 43229 H 3948.24 6.71243 -0.297003 0
M  V30 43230 N 3950.96 0.0067362 1.57599 0
M  V30 43231 C 3952.19 -0.687499 1.95144 0
M  V30 43232 C 3952.6 -1.66932 0.881989 0
M  V30 43233 O 3951.96 -1.81974 -0.138438 0
M  V30 43234 C 3952.01 -1.41349 3.3272 0
M  V30 43235 O 3951.73 -0.471034 4.3556 0
M  V30 43236 C 3953.23 -2.20161 3.84765 0
M  V30 43237 H 3950.45 -0.191054 0.643226 0
M  V30 43238 H 3953 0.0598573 2.04412 0
M  V30 43239 H 3951.15 -2.11242 3.24739 0
M  V30 43240 H 3951.57 -0.984001 5.15187 0
M  V30 43241 H 3953.04 -2.66446 4.83436 0
M  V30 43242 H 3953.52 -3.03123 3.17825 0
M  V30 43243 H 3954.12 -1.55271 3.95943 0
M  V30 43244 N 3952.44 -1.55337 -0.266118 0
M  V30 43245 C 3953.69 -1.75919 -0.994831 0
M  V30 43246 C 3954.01 -0.567179 -1.86569 0
M  V30 43247 O 3953.28 0.417705 -1.91395 0
M  V30 43248 H 3951.86 -0.648754 -0.370307 0
M  V30 43249 H 3954.52 -1.9275 -0.28869 0
M  V30 43250 H 3953.62 -2.6629 -1.62777 0
M  V30 43251 N 3953.92 0.53094 -1.48387 0
M  V30 43252 C 3954.83 1.66254 -1.65519 0
M  V30 43253 C 3955.84 1.65483 -0.537729 0
M  V30 43254 O 3957.02 1.84452 -0.808675 0
M  V30 43255 C 3954.08 3.02719 -1.69004 0
M  V30 43256 C 3953.15 3.14353 -2.92371 0
M  V30 43257 C 3952.38 4.44308 -2.9568 0
M  V30 43258 O 3952.6 5.31348 -2.07426 0
M  V30 43259 O 3951.54 4.60287 -3.87839 0
M  V30 43260 H 3955.36 1.54738 -2.61323 0
M  V30 43261 H 3952.95 0.703923 -1.31777 0
M  V30 43262 H 3954.83 3.8388 -1.73822 0
M  V30 43263 H 3953.5 3.14561 -0.76373 0
M  V30 43264 H 3952.41 2.32491 -2.93085 0
M  V30 43265 H 3953.74 3.07426 -3.84383 0
M  V30 43266 N 3955.4 1.36959 0.779739 0
M  V30 43267 C 3956.63 1.34706 1.56645 0
M  V30 43268 C 3957.03 -0.0714258 1.89065 0
M  V30 43269 O 3956.38 -1.04143 1.51327 0
M  V30 43270 C 3956.44 2.11286 2.90858 0
M  V30 43271 C 3956.1 3.60309 2.81117 0
M  V30 43272 C 3957.1 4.54359 2.52694 0
M  V30 43273 C 3954.78 4.03325 2.99389 0
M  V30 43274 C 3956.78 5.89402 2.4266 0
M  V30 43275 C 3954.47 5.38457 2.88977 0
M  V30 43276 C 3955.46 6.31308 2.60652 0
M  V30 43277 O 3955.15 7.63957 2.50251 0
M  V30 43278 H 3954.88 0.463373 0.492201 0
M  V30 43279 H 3957.44 1.80789 0.974914 0
M  V30 43280 H 3955.67 1.59881 3.52101 0
M  V30 43281 H 3957.36 2.01768 3.52199 0
M  V30 43282 H 3958.12 4.22436 2.3827 0
M  V30 43283 H 3954 3.3142 3.2044 0
M  V30 43284 H 3957.55 6.61844 2.20472 0
M  V30 43285 H 3953.44 5.69984 3.02967 0
M  V30 43286 H 3954.21 7.74188 2.6566 0
M  V30 43287 N 3956.87 -1.00501 1.21398 0
M  V30 43288 C 3958.12 -1.73933 1.02916 0
M  V30 43289 C 3958.44 -1.9001 -0.438296 0
M  V30 43290 O 3957.71 -1.45101 -1.31615 0
M  V30 43291 H 3956.29 -0.644405 0.377824 0
M  V30 43292 H 3958.95 -1.21107 1.52706 0
M  V30 43293 H 3958.05 -2.73849 1.4971 0
M  V30 43294 N 3958.35 -1.02172 -1.19994 0
M  V30 43295 C 3959.3 -0.589766 -2.24999 0
M  V30 43296 C 3960.29 0.374057 -1.65219 0
M  V30 43297 O 3961.5 0.243418 -1.78347 0
M  V30 43298 H 3957.87 -0.172429 -0.731965 0
M  V30 43299 H 3959.85 -1.48619 -2.58757 0
M  V30 43300 C 3958.59 0.0509285 -3.47663 0
M  V30 43301 H 3957.92 -0.681719 -3.93945 0
M  V30 43302 H 3959.36 0.316213 -4.22819 0
M  V30 43303 C 3957.82 1.29532 -3.11003 0
M  V30 43304 O 3958.35 2.38812 -3.23004 0
M  V30 43305 N 3956.55 1.18136 -2.65504 0
M  V30 43306 H 3956.1 0.292127 -2.55938 0
M  V30 43307 H 3956.06 2.01494 -2.41346 0
M  V30 43308 N 3959.83 1.35866 -0.798635 0
M  V30 43309 C 3960.76 2.32482 -0.217792 0
M  V30 43310 C 3961.74 1.57094 0.652347 0
M  V30 43311 O 3962.93 1.85203 0.584265 0
M  V30 43312 C 3960.06 3.41336 0.640865 0
M  V30 43313 C 3959.01 4.27802 -0.130129 0
M  V30 43314 C 3958.34 5.27905 0.849718 0
M  V30 43315 C 3959.64 5.05224 -1.3246 0
M  V30 43316 H 3961.33 2.81309 -1.02497 0
M  V30 43317 H 3958.88 1.35249 -0.494325 0
M  V30 43318 H 3960.83 4.07923 1.05722 0
M  V30 43319 H 3959.55 2.91099 1.48085 0
M  V30 43320 H 3958.21 3.62784 -0.527564 0
M  V30 43321 H 3957.86 4.73938 1.68498 0
M  V30 43322 H 3957.56 5.86626 0.33822 0
M  V30 43323 H 3959.08 5.97364 1.26444 0
M  V30 43324 H 3960.5 5.648 -0.983529 0
M  V30 43325 H 3958.89 5.73402 -1.77003 0
M  V30 43326 H 3959.96 4.36329 -2.1153 0
M  V30 43327 N 3961.31 0.551443 1.47638 0
M  V30 43328 C 3962.55 0.0252781 2.02784 0
M  V30 43329 C 3962.89 -1.31881 1.42552 0
M  V30 43330 O 3962.16 -1.85683 0.578987 0
M  V30 43331 C 3962.44 -0.0739418 3.60024 0
M  V30 43332 C 3962.3 1.29683 4.307 0
M  V30 43333 C 3963.62 -0.790226 4.32947 0
M  V30 43334 H 3960.74 0.0106602 0.736923 0
M  V30 43335 H 3963.38 0.71262 1.7613 0
M  V30 43336 H 3961.53 -0.659322 3.82864 0
M  V30 43337 H 3963.2 1.92497 4.19216 0
M  V30 43338 H 3961.44 1.87306 3.91279 0
M  V30 43339 H 3962.11 1.18018 5.39236 0
M  V30 43340 H 3964.59 -0.293253 4.15065 0
M  V30 43341 H 3963.47 -0.828597 5.4261 0
M  V30 43342 H 3963.73 -1.84514 4.01755 0
M  V30 43343 N 3962.79 -1.54953 0.287609 0
M  V30 43344 C 3964.01 -2.04274 -0.328565 0
M  V30 43345 C 3964.43 -1.16548 -1.48533 0
M  V30 43346 O 3963.79 -0.188219 -1.81527 0
M  V30 43347 C 3963.84 -3.5259 -0.797643 0
M  V30 43348 O 3963.56 -4.3698 0.313067 0
M  V30 43349 C 3965.06 -4.17852 -1.48035 0
M  V30 43350 H 3962.28 -0.666983 -0.0733136 0
M  V30 43351 H 3964.82 -2.0007 0.423342 0
M  V30 43352 H 3962.98 -3.57198 -1.49961 0
M  V30 43353 H 3963.39 -5.24476 -0.0497156 0
M  V30 43354 H 3964.87 -5.23195 -1.75986 0
M  V30 43355 H 3965.34 -3.66777 -2.41602 0
M  V30 43356 H 3965.95 -4.17282 -0.821914 0
M  V30 43357 N 3964.26 -0.0150939 -1.57593 0
M  V30 43358 C 3965.51 0.665836 -1.90393 0
M  V30 43359 C 3965.83 1.74091 -0.891724 0
M  V30 43360 O 3967.03 2.47751 -1.11047 0
M  V30 43361 C 3965.49 1.23552 -3.38028 0
M  V30 43362 C 3965.1 0.194472 -4.47578 0
M  V30 43363 C 3966.84 1.89377 -3.79917 0
M  V30 43364 C 3964.75 0.774997 -5.863 0
M  V30 43365 H 3963.68 0.25246 -0.710479 0
M  V30 43366 H 3966.33 -0.0781061 -1.83334 0
M  V30 43367 H 3964.71 2.03062 -3.39973 0
M  V30 43368 H 3965.88 -0.577142 -4.57171 0
M  V30 43369 H 3964.2 -0.364207 -4.14804 0
M  V30 43370 H 3966.8 2.33742 -4.80904 0
M  V30 43371 H 3967.14 2.73066 -3.1423 0
M  V30 43372 H 3967.67 1.16578 -3.80335 0
M  V30 43373 H 3964.41 -0.0234506 -6.55496 0
M  V30 43374 H 3963.93 1.51542 -5.8034 0
M  V30 43375 H 3965.61 1.26904 -6.34432 0
M  V30 43376 N 3965.74 1.55476 0.257876 0
M  V30 43377 C 3966.67 1.85824 1.34172 0
M  V30 43378 C 3967.69 0.743722 1.44819 0
M  V30 43379 O 3968.88 1.02173 1.46365 0
M  V30 43380 C 3965.98 2.01963 2.72148 0
M  V30 43381 C 3965.15 3.32741 2.83905 0
M  V30 43382 C 3964.21 3.38758 4.02653 0
M  V30 43383 O 3963.23 4.12041 3.92697 0
M  V30 43384 N 3964.44 2.67254 5.15321 0
M  V30 43385 H 3967.2 2.79379 1.08478 0
M  V30 43386 H 3964.76 1.55578 0.447989 0
M  V30 43387 H 3966.75 2.03342 3.49906 0
M  V30 43388 H 3965.32 1.15203 2.90598 0
M  V30 43389 H 3964.54 3.43773 1.92909 0
M  V30 43390 H 3965.83 4.18961 2.88702 0
M  V30 43391 H 3965.23 2.07427 5.26299 0
M  V30 43392 H 3963.79 2.74338 5.91254 0
M  V30 43393 N 3967.22 -0.523064 1.48667 0
M  V30 43394 C 3968.45 -1.30784 1.60967 0
M  V30 43395 C 3968.87 -1.86113 0.272696 0
M  V30 43396 O 3968.23 -1.64757 -0.756633 0
M  V30 43397 C 3968.28 -2.42964 2.6646 0
M  V30 43398 O 3967.38 -3.46198 2.241 0
M  V30 43399 H 3966.72 -0.387055 0.539523 0
M  V30 43400 H 3969.25 -0.628649 1.94703 0
M  V30 43401 H 3969.26 -2.89051 2.87948 0
M  V30 43402 H 3967.94 -2.02056 3.63519 0
M  V30 43403 H 3966.51 -3.06183 2.12853 0
M  V30 43404 N 3968.7 -1.37371 -0.772465 0
M  V30 43405 C 3969.95 -1.3254 -1.531 0
M  V30 43406 C 3970.27 0.0903267 -1.9429 0
M  V30 43407 O 3969.53 1.06339 -1.64288 0
M  V30 43408 C 3969.83 -2.20971 -2.80903 0
M  V30 43409 C 3969.49 -3.69255 -2.58769 0
M  V30 43410 C 3968.16 -4.09667 -2.52441 0
M  V30 43411 C 3970.51 -4.632 -2.38946 0
M  V30 43412 C 3967.84 -5.4214 -2.24279 0
M  V30 43413 C 3970.19 -5.9591 -2.12307 0
M  V30 43414 C 3968.85 -6.35427 -2.04423 0
M  V30 43415 H 3968.12 -0.484997 -0.560231 0
M  V30 43416 H 3970.77 -1.69571 -0.889829 0
M  V30 43417 H 3969.07 -1.76932 -3.49575 0
M  V30 43418 H 3970.77 -2.14547 -3.38778 0
M  V30 43419 H 3967.36 -3.37205 -2.64557 0
M  V30 43420 H 3971.54 -4.32839 -2.42825 0
M  V30 43421 H 3966.8 -5.71721 -2.16669 0
M  V30 43422 H 3970.97 -6.68259 -1.95967 0
M  V30 43423 H 3968.6 -7.38002 -1.82365 0
M  V30 43424 N 3970.18 0.998553 -1.21929 0
M  V30 43425 C 3971.12 2.08758 -0.984319 0
M  V30 43426 C 3972.09 1.65845 0.0919737 0
M  V30 43427 O 3973.28 1.90716 -0.0564669 0
M  V30 43428 C 3970.42 3.40492 -0.562066 0
M  V30 43429 C 3969.53 3.9678 -1.70851 0
M  V30 43430 C 3968.67 5.16649 -1.23479 0
M  V30 43431 C 3967.71 5.65061 -2.35315 0
M  V30 43432 N 3966.84 6.76175 -1.8903 0
M  V30 43433 H 3971.68 2.28192 -1.91657 0
M  V30 43434 H 3969.22 1.1188 -0.955048 0
M  V30 43435 H 3971.18 4.16131 -0.298457 0
M  V30 43436 H 3969.81 3.21076 0.333183 0
M  V30 43437 H 3968.86 3.18065 -2.08659 0
M  V30 43438 H 3970.17 4.28695 -2.54995 0
M  V30 43439 H 3969.33 5.99557 -0.928226 0
M  V30 43440 H 3968.06 4.86344 -0.363483 0
M  V30 43441 H 3967.07 4.80745 -2.66766 0
M  V30 43442 H 3968.29 5.97393 -3.22952 0
M  V30 43443 H 3966.24 6.47663 -1.04253 0
M  V30 43444 H 3966.16 7.07378 -2.66743 0
M  V30 43445 H 3967.43 7.62602 -1.61426 0
M  V30 43446 N 3971.65 1.02807 1.1945 0
M  V30 43447 C 3972.62 0.612796 2.20856 0
M  V30 43448 C 3973.62 -0.323154 1.57519 0
M  V30 43449 O 3974.81 -0.110272 1.73851 0
M  V30 43450 C 3971.94 -0.103429 3.40743 0
M  V30 43451 H 3973.13 1.51002 2.59111 0
M  V30 43452 H 3970.69 0.819165 1.33114 0
M  V30 43453 H 3971.42 -1.01504 3.08006 0
M  V30 43454 H 3971.21 0.569098 3.87948 0
M  V30 43455 H 3972.7 -0.380924 4.15859 0
M  V30 43456 N 3973.13 -1.35441 0.805829 0
M  V30 43457 C 3974.04 -2.33592 0.21719 0
M  V30 43458 C 3975.06 -1.61826 -0.639399 0
M  V30 43459 O 3976.23 -1.93707 -0.551329 0
M  V30 43460 C 3973.3 -3.41018 -0.625089 0
M  V30 43461 C 3972.36 -4.2856 0.251905 0
M  V30 43462 C 3971.59 -5.30856 -0.550269 0
M  V30 43463 O 3971.82 -5.4175 -1.78502 0
M  V30 43464 O 3970.75 -6.01872 0.0584545 0
M  V30 43465 H 3974.58 -2.85731 1.02914 0
M  V30 43466 H 3972.16 -1.38198 0.567603 0
M  V30 43467 H 3974.04 -4.06658 -1.10486 0
M  V30 43468 H 3972.72 -2.91152 -1.41465 0
M  V30 43469 H 3971.63 -3.65904 0.778794 0
M  V30 43470 H 3972.96 -4.81822 1.00539 0
M  V30 43471 N 3974.61 -0.559265 -1.47343 0
M  V30 43472 C 3975.86 -0.0359786 -2.02468 0
M  V30 43473 C 3976.19 1.31469 -1.43339 0
M  V30 43474 O 3975.44 1.86927 -0.579388 0
M  V30 43475 C 3975.74 0.10446 -3.57247 0
M  V30 43476 C 3975.41 -1.17559 -4.35305 0
M  V30 43477 C 3974.07 -1.52633 -4.56351 0
M  V30 43478 C 3976.42 -2.02373 -4.80307 0
M  V30 43479 C 3973.75 -2.72365 -5.19648 0
M  V30 43480 C 3976.1 -3.2131 -5.44924 0
M  V30 43481 C 3974.76 -3.56695 -5.64203 0
M  V30 43482 H 3974.03 -0.0131655 -0.740883 0
M  V30 43483 H 3976.68 -0.731191 -1.76991 0
M  V30 43484 H 3974.99 0.882653 -3.81728 0
M  V30 43485 H 3976.68 0.524731 -3.97552 0
M  V30 43486 H 3973.27 -0.892487 -4.19205 0
M  V30 43487 H 3977.46 -1.76583 -4.63824 0
M  V30 43488 H 3972.71 -2.99947 -5.32768 0
M  V30 43489 H 3976.89 -3.87316 -5.78757 0
M  V30 43490 H 3974.51 -4.49566 -6.1302 0
M  V30 43491 N 3976.09 1.54799 -0.295822 0
M  V30 43492 C 3977.5 1.59496 0.0577236 0
M  V30 43493 C 3977.7 1.31287 1.5286 0
M  V30 43494 O 3976.76 1.08376 2.28059 0
M  V30 43495 C 3978.07 2.98822 -0.335556 0
M  V30 43496 C 3979.62 3.1171 -0.28389 0
M  V30 43497 C 3980.1 4.53337 -0.651914 0
M  V30 43498 N 3981.59 4.59242 -0.604252 0
M  V30 43499 C 3982.32 5.6689 -0.861552 0
M  V30 43500 N 3981.82 6.82598 -1.18455 0
M  V30 43501 N 3983.61 5.56536 -0.788961 0
M  V30 43502 H 3975.76 1.71396 -1.25447 0
M  V30 43503 H 3978.03 0.800251 -0.508234 0
M  V30 43504 H 3977.73 3.2437 -1.35929 0
M  V30 43505 H 3977.61 3.75896 0.313377 0
M  V30 43506 H 3979.99 2.85913 0.730591 0
M  V30 43507 H 3980.07 2.36803 -0.967373 0
M  V30 43508 H 3979.72 4.79862 -1.66418 0
M  V30 43509 H 3979.65 5.26573 0.0535835 0
M  V30 43510 H 3982.14 3.7613 -0.365328 0
M  V30 43511 H 3982.45 7.60614 -1.367 0
M  V30 43512 H 3980.8 6.84163 -1.22254 0
M  V30 43513 H 3983.99 4.65018 -0.536313 0
M  V30 43514 H 3984.16 6.40349 -0.992856 0
M  V30 43515 N 3977.57 0.0234513 1.57583 0
M  V30 43516 C 3978.5 -0.958766 2.12908 0
M  V30 43517 C 3979.48 -1.34307 1.04382 0
M  V30 43518 O 3980.66 -1.42269 1.32186 0
M  V30 43519 C 3977.79 -2.24299 2.65155 0
M  V30 43520 C 3976.75 -1.99961 3.78417 0
M  V30 43521 C 3976.07 -3.346 4.1707 0
M  V30 43522 C 3977.37 -1.34333 5.04729 0
M  V30 43523 H 3979.07 -0.498029 2.95229 0
M  V30 43524 H 3976.61 -0.238113 1.42018 0
M  V30 43525 H 3978.57 -2.93387 3.02493 0
M  V30 43526 H 3977.29 -2.72529 1.79988 0
M  V30 43527 H 3975.95 -1.33292 3.41509 0
M  V30 43528 H 3975.6 -3.80577 3.28892 0
M  V30 43529 H 3975.3 -3.19123 4.93391 0
M  V30 43530 H 3976.82 -4.04965 4.56985 0
M  V30 43531 H 3978.24 -1.93413 5.39689 0
M  V30 43532 H 3976.63 -1.29272 5.86011 0
M  V30 43533 H 3977.7 -0.31554 4.83872 0
M  V30 43534 N 3979.05 -1.5561 -0.249627 0
M  V30 43535 C 3980.01 -1.89288 -1.29239 0
M  V30 43536 C 3981.01 -0.769128 -1.41213 0
M  V30 43537 O 3982.2 -1.03714 -1.39961 0
M  V30 43538 C 3979.33 -2.1189 -2.67049 0
M  V30 43539 H 3980.52 -2.82525 -1.00596 0
M  V30 43540 H 3978.08 -1.4846 -0.488793 0
M  V30 43541 H 3978.81 -1.21112 -3.00836 0
M  V30 43542 H 3978.6 -2.9373 -2.5974 0
M  V30 43543 H 3980.09 -2.39138 -3.42349 0
M  V30 43544 N 3980.52 0.515172 -1.48942 0
M  V30 43545 C 3981.77 1.26766 -1.574 0
M  V30 43546 C 3982.09 1.93309 -0.256247 0
M  V30 43547 O 3981.36 1.82055 0.723376 0
M  V30 43548 H 3979.94 0.470873 -0.579903 0
M  V30 43549 H 3982.6 0.598282 -1.8549 0
M  V30 43550 H 3981.7 2.03912 -2.36276 0
M  V30 43551 N 3982 1.37779 0.765169 0
M  V30 43552 C 3983.25 1.33086 1.52094 0
M  V30 43553 C 3983.57 -0.0821758 1.94827 0
M  V30 43554 O 3982.84 -1.02754 1.66789 0
M  V30 43555 H 3981.42 0.489659 0.56413 0
M  V30 43556 H 3984.08 1.72337 0.910278 0
M  V30 43557 H 3983.18 1.9742 2.41727 0
M  V30 43558 N 3983.48 -0.992073 1.22457 0
M  V30 43559 C 3984.73 -1.7343 1.05118 0
M  V30 43560 C 3985.06 -1.89766 -0.412608 0
M  V30 43561 O 3984.33 -1.44143 -1.30587 0
M  V30 43562 C 3984.62 -3.1394 1.7639 0
M  V30 43563 C 3984.47 -3.05247 3.3037 0
M  V30 43564 C 3985.79 -4.1313 1.51696 0
M  V30 43565 H 3982.91 -0.629501 0.383272 0
M  V30 43566 H 3985.55 -1.15574 1.50807 0
M  V30 43567 H 3983.7 -3.63335 1.3755 0
M  V30 43568 H 3985.37 -2.63467 3.78659 0
M  V30 43569 H 3983.61 -2.42032 3.60004 0
M  V30 43570 H 3984.29 -4.04681 3.75417 0
M  V30 43571 H 3986.76 -3.72495 1.85436 0
M  V30 43572 H 3985.64 -5.0956 2.04058 0
M  V30 43573 H 3985.9 -4.39807 0.449731 0
M  V30 43574 N 3984.96 -1.03439 -1.18904 0
M  V30 43575 C 3985.91 -0.613597 -2.24361 0
M  V30 43576 C 3986.9 0.356512 -1.65606 0
M  V30 43577 O 3988.11 0.224488 -1.78595 0
M  V30 43578 H 3984.48 -0.180183 -0.730095 0
M  V30 43579 H 3986.45 -1.51355 -2.57166 0
M  V30 43580 C 3985.2 0.0140514 -3.47697 0
M  V30 43581 H 3984.52 -0.723463 -3.932 0
M  V30 43582 H 3985.96 0.271349 -4.23131 0
M  V30 43583 C 3984.42 1.26226 -3.1236 0
M  V30 43584 O 3984.95 2.35373 -3.25519 0
M  V30 43585 N 3983.16 1.15314 -2.66742 0
M  V30 43586 H 3982.71 0.264965 -2.56234 0
M  V30 43587 H 3982.66 1.98922 -2.43469 0
M  V30 43588 N 3986.44 1.35011 -0.813001 0
M  V30 43589 C 3987.37 2.32238 -0.242437 0
M  V30 43590 C 3988.35 1.57777 0.635648 0
M  V30 43591 O 3989.53 1.85812 0.564589 0
M  V30 43592 C 3986.66 3.41996 0.604626 0
M  V30 43593 C 3985.62 4.2764 -0.175495 0
M  V30 43594 C 3984.94 5.28777 0.793679 0
M  V30 43595 C 3986.24 5.03791 -1.37811 0
M  V30 43596 H 3987.94 2.80206 -1.05475 0
M  V30 43597 H 3985.48 1.34718 -0.508643 0
M  V30 43598 H 3987.43 4.09021 1.01389 0
M  V30 43599 H 3986.16 2.92653 1.44989 0
M  V30 43600 H 3984.82 3.62204 -0.566012 0
M  V30 43601 H 3984.47 4.75699 1.63462 0
M  V30 43602 H 3984.17 5.86952 0.275982 0
M  V30 43603 H 3985.69 5.98672 1.20101 0
M  V30 43604 H 3987.1 5.63726 -1.04338 0
M  V30 43605 H 3985.5 5.71493 -1.83074 0
M  V30 43606 H 3986.57 4.34061 -2.16146 0
M  V30 43607 N 3987.91 0.567071 1.47044 0
M  V30 43608 C 3989.32 0.136303 1.86202 0
M  V30 43609 C 3989.68 -1.29656 1.47255 0
M  V30 43610 O 3988.8 -1.97692 0.880156 0
M  V30 43611 C 3989.4 0.240587 3.37945 0
M  V30 43612 C 3987.95 -0.135206 3.76157 0
M  V30 43613 C 3987.1 0.583676 2.71088 0
M  V30 43614 H 3990.05 0.776221 1.38421 0
M  V30 43615 H 3990.07 -0.538227 3.76674 0
M  V30 43616 H 3989.59 1.28354 3.66261 0
M  V30 43617 H 3987.69 -1.17889 3.53458 0
M  V30 43618 H 3987.8 0.230221 4.78547 0
M  V30 43619 H 3986.16 0.0256514 2.54687 0
M  V30 43620 H 3986.95 1.62798 3.02245 0
M  V30 43621 N 3989.39 -1.5464 0.304027 0
M  V30 43622 C 3990.34 -2.23632 -0.570723 0
M  V30 43623 C 3991.31 -1.22 -1.12718 0
M  V30 43624 O 3992.49 -1.50628 -1.17114 0
M  V30 43625 C 3989.63 -2.98299 -1.73527 0
M  V30 43626 C 3988.75 -4.14711 -1.20992 0
M  V30 43627 C 3987.88 -4.76952 -2.33859 0
M  V30 43628 C 3986.92 -5.85503 -1.78473 0
M  V30 43629 N 3986.06 -6.41687 -2.84924 0
M  V30 43630 H 3990.9 -2.9799 0.0242204 0
M  V30 43631 H 3988.43 -1.47081 0.0237229 0
M  V30 43632 H 3990.39 -3.39823 -2.42025 0
M  V30 43633 H 3989.02 -2.26312 -2.3018 0
M  V30 43634 H 3988.07 -3.78106 -0.417114 0
M  V30 43635 H 3989.39 -4.92907 -0.76449 0
M  V30 43636 H 3988.54 -5.21345 -3.10297 0
M  V30 43637 H 3987.28 -3.98095 -2.8173 0
M  V30 43638 H 3986.28 -5.40532 -1.00524 0
M  V30 43639 H 3987.51 -6.66246 -1.31502 0
M  V30 43640 H 3985.46 -5.65712 -3.32123 0
M  V30 43641 H 3985.37 -7.15239 -2.44885 0
M  V30 43642 H 3986.64 -6.90737 -3.61251 0
M  V30 43643 N 3990.87 -0.0318079 -1.57568 0
M  V30 43644 C 3992.12 0.645605 -1.91089 0
M  V30 43645 C 3992.43 1.73135 -0.910139 0
M  V30 43646 O 3993.64 2.4656 -1.13669 0
M  V30 43647 C 3992.09 1.1996 -3.39319 0
M  V30 43648 C 3991.7 0.146989 -4.47759 0
M  V30 43649 C 3993.45 1.85337 -3.81904 0
M  V30 43650 C 3991.35 0.712769 -5.87089 0
M  V30 43651 H 3990.28 0.24491 -0.713116 0
M  V30 43652 H 3992.93 -0.0975467 -1.83241 0
M  V30 43653 H 3991.32 1.99444 -3.42108 0
M  V30 43654 H 3992.49 -0.625598 -4.56534 0
M  V30 43655 H 3990.8 -0.408182 -4.14395 0
M  V30 43656 H 3993.4 2.28628 -4.83356 0
M  V30 43657 H 3993.74 2.69718 -3.17109 0
M  V30 43658 H 3994.28 1.12537 -3.8155 0
M  V30 43659 H 3991.02 -0.0929734 -6.55434 0
M  V30 43660 H 3990.54 1.45378 -5.81915 0
M  V30 43661 H 3992.22 1.20168 -6.35743 0
M  V30 43662 N 3992.35 1.55741 0.241371 0
M  V30 43663 C 3993.6 1.77032 0.966576 0
M  V30 43664 C 3993.91 0.596763 1.86274 0
M  V30 43665 O 3995.12 0.692821 2.62511 0
M  V30 43666 C 3993.57 3.13438 1.76875 0
M  V30 43667 C 3993.18 4.38458 0.919697 0
M  V30 43668 C 3994.92 3.44065 2.48635 0
M  V30 43669 C 3992.83 5.65894 1.71808 0
M  V30 43670 H 3991.76 0.659969 0.364632 0
M  V30 43671 H 3994.41 1.82164 0.221056 0
M  V30 43672 H 3992.79 3.02428 2.55643 0
M  V30 43673 H 3993.97 4.60472 0.173955 0
M  V30 43674 H 3992.28 4.15206 0.315161 0
M  V30 43675 H 3994.88 4.36494 3.08831 0
M  V30 43676 H 3995.22 2.65644 3.20529 0
M  V30 43677 H 3995.76 3.56315 1.76873 0
M  V30 43678 H 3992.5 6.47153 1.04278 0
M  V30 43679 H 3992.02 5.47974 2.43895 0
M  V30 43680 H 3993.69 6.05352 2.28381 0
M  V30 43681 N 3993.83 -0.507266 1.49213 0
M  V30 43682 C 3995.1 -1.2686 1.48882 0
M  V30 43683 C 3995.48 -2.10022 0.213044 0
M  V30 43684 O 3994.83 -2.1386 -0.804748 0
M  V30 43685 C 3995.04 -2.13068 2.76411 0
M  V30 43686 C 3996.39 -2.72463 3.25652 0
M  V30 43687 O 3997.41 -2.23339 2.77485 0
M  V30 43688 O 3996.27 -3.61873 4.09525 0
M  V30 43689 H 3993.37 -0.573743 0.595607 0
M  V30 43690 H 3995.91 -0.522051 1.6147 0
M  V30 43691 H 3994.68 -1.51551 3.6076 0
M  V30 43692 H 3994.31 -2.94927 2.66653 0
M  V30 43693 N 3995.3 -1.38182 -0.757851 0
M  V30 43694 C 3996.54 -1.35568 -1.52973 0
M  V30 43695 C 3996.91 0.0553855 -1.9192 0
M  V30 43696 O 3998.11 0.206371 -2.68007 0
M  V30 43697 C 3996.38 -2.2809 -2.75154 0
M  V30 43698 S 3997.94 -2.43456 -3.65068 0
M  V30 43699 H 3994.76 -0.48107 -0.523539 0
M  V30 43700 H 3997.36 -1.74067 -0.890003 0
M  V30 43701 H 3996.06 -3.29511 -2.44643 0
M  V30 43702 H 3995.59 -1.90725 -3.44075 0
M  V30 43703 H 3997.61 -1.65546 -4.6777 0
M  V30 43704 N 3996.78 0.985565 -1.22981 0
M  V30 43705 C 3998.03 1.7287 -1.06037 0
M  V30 43706 C 3998.36 1.89982 0.402539 0
M  V30 43707 O 3997.64 1.44833 1.29821 0
M  V30 43708 C 3997.92 3.13 -1.78053 0
M  V30 43709 C 3997.77 3.03491 -3.31984 0
M  V30 43710 C 3999.09 4.1232 -1.53884 0
M  V30 43711 H 3996.21 0.627459 -0.386605 0
M  V30 43712 H 3998.85 1.14772 -1.51418 0
M  V30 43713 H 3997 3.626 -1.39475 0
M  V30 43714 H 3998.67 2.61455 -3.80051 0
M  V30 43715 H 3996.92 2.40119 -3.61283 0
M  V30 43716 H 3997.59 4.02684 -3.77557 0
M  V30 43717 H 4000.06 3.71507 -1.87409 0
M  V30 43718 H 3998.94 5.08471 -2.06758 0
M  V30 43719 H 3999.2 4.39562 -0.473049 0
M  V30 43720 N 3998.26 1.04068 1.18353 0
M  V30 43721 C 3999.51 0.742609 1.87962 0
M  V30 43722 C 3999.83 -0.731867 1.80745 0
M  V30 43723 O 3999.1 -1.52811 1.22579 0
M  V30 43724 H 3997.68 0.271701 0.695836 0
M  V30 43725 H 4000.34 1.31744 1.4363 0
M  V30 43726 H 3999.44 1.04747 2.93998 0
M  V30 43727 N 3999.74 -1.34578 0.820149 0
M  V30 43728 C 4000.96 -2.03128 0.418783 0
M  V30 43729 C 4001.39 -1.61366 -0.966576 0
M  V30 43730 O 4000.75 -0.796932 -1.62846 0
M  V30 43731 C 4000.79 -3.56747 0.525743 0
M  V30 43732 O 3999.9 -4.09877 -0.45552 0
M  V30 43733 H 3999.24 -0.641113 0.17283 0
M  V30 43734 H 4001.77 -1.71886 1.1098 0
M  V30 43735 H 4001.78 -4.0603 0.400493 0
M  V30 43736 H 4000.45 -3.8649 1.53616 0
M  V30 43737 H 3999.03 -3.71775 -0.289384 0
M  V30 43738 N 4001.22 -0.574861 -1.46742 0
M  V30 43739 C 4002.49 0.00904711 -1.95598 0
M  V30 43740 C 4002.87 1.46746 -1.51753 0
M  V30 43741 O 4002.22 2.1533 -0.76454 0
M  V30 43742 C 4002.43 -0.154817 -3.48656 0
M  V30 43743 C 4003.78 -0.0185748 -4.24596 0
M  V30 43744 O 4004.8 -0.083253 -3.56103 0
M  V30 43745 O 4003.66 0.123637 -5.4636 0
M  V30 43746 H 4000.76 0.0542332 -0.82522 0
M  V30 43747 H 4003.3 -0.642628 -1.57062 0
M  V30 43748 H 4002.07 -1.16898 -3.73431 0
M  V30 43749 H 4001.7 0.533655 -3.94002 0
M  V30 43750 N 4002.69 1.54476 -0.312224 0
M  V30 43751 C 4003.94 1.99962 0.293157 0
M  V30 43752 C 4004.26 1.20208 1.53542 0
M  V30 43753 O 4003.53 0.300935 1.93575 0
M  V30 43754 H 4002.11 0.73866 0.111312 0
M  V30 43755 H 4004.78 1.90184 -0.426149 0
M  V30 43756 H 4003.87 3.07082 0.557428 0
M  V30 43757 N 4004.17 0.0401637 1.57549 0
M  V30 43758 C 4005.12 -0.937976 2.10881 0
M  V30 43759 C 4006.09 -1.31595 1.0135 0
M  V30 43760 O 4007.27 -1.40735 1.28835 0
M  V30 43761 C 4004.41 -2.21133 2.64942 0
M  V30 43762 C 4003.53 -1.88882 3.8852 0
M  V30 43763 C 4002.66 -3.10594 4.30935 0
M  V30 43764 C 4001.7 -2.74213 5.47242 0
M  V30 43765 N 4000.84 -3.88584 5.84762 0
M  V30 43766 H 4005.68 -0.476276 2.94169 0
M  V30 43767 H 4003.22 -0.223477 1.45393 0
M  V30 43768 H 4005.17 -2.95628 2.9438 0
M  V30 43769 H 4003.8 -2.64899 1.84467 0
M  V30 43770 H 4002.86 -1.04582 3.65741 0
M  V30 43771 H 4004.17 -1.58095 4.73083 0
M  V30 43772 H 4003.32 -3.93399 4.61868 0
M  V30 43773 H 4002.06 -3.4455 3.45161 0
M  V30 43774 H 4001.07 -1.89822 5.15992 0
M  V30 43775 H 4002.29 -2.4146 6.34723 0
M  V30 43776 H 4000.24 -4.22362 5.01942 0
M  V30 43777 H 4000.15 -3.61459 6.63991 0
M  V30 43778 H 4001.42 -4.72061 6.20305 0
M  V30 43779 N 4005.65 -1.55866 -0.233109 0
M  V30 43780 C 4006.56 -1.94617 -1.31001 0
M  V30 43781 C 4007.58 -0.848426 -1.51914 0
M  V30 43782 O 4008.75 -1.15101 -1.65268 0
M  V30 43783 C 4005.82 -2.24499 -2.64199 0
M  V30 43784 C 4004.88 -3.4778 -2.51689 0
M  V30 43785 C 4004.11 -3.76227 -3.78535 0
M  V30 43786 O 4004.33 -3.06528 -4.81037 0
M  V30 43787 O 4003.27 -4.69736 -3.7634 0
M  V30 43788 H 4007.09 -2.8637 -1.01124 0
M  V30 43789 H 4004.68 -1.42926 -0.435018 0
M  V30 43790 H 4006.56 -2.44965 -3.42885 0
M  V30 43791 H 4005.24 -1.35923 -2.9378 0
M  V30 43792 H 4004.14 -3.32606 -1.71242 0
M  V30 43793 H 4005.48 -4.36702 -2.2705 0
M  V30 43794 N 4007.13 0.499346 -1.4948 0
M  V30 43795 C 4008.55 0.830668 -1.36279 0
M  V30 43796 C 4008.75 1.97547 -0.397151 0
M  V30 43797 O 4007.8 2.51923 0.170569 0
M  V30 43798 C 4009.11 1.16932 -2.77033 0
M  V30 43799 C 4010.66 1.27743 -2.85746 0
M  V30 43800 C 4011.14 1.64936 -4.2727 0
M  V30 43801 N 4012.63 1.71982 -4.30089 0
M  V30 43802 C 4013.36 2.02209 -5.36562 0
M  V30 43803 N 4012.86 2.30648 -6.53279 0
M  V30 43804 N 4014.65 2.03474 -5.2398 0
M  V30 43805 H 4006.8 -0.255534 -2.10857 0
M  V30 43806 H 4009.07 -0.0517351 -0.946587 0
M  V30 43807 H 4008.77 0.401468 -3.49401 0
M  V30 43808 H 4008.65 2.11236 -3.12504 0
M  V30 43809 H 4011.03 2.036 -2.13614 0
M  V30 43810 H 4011.11 0.314857 -2.53855 0
M  V30 43811 H 4010.76 0.896296 -4.99929 0
M  V30 43812 H 4010.69 2.62297 -4.56627 0
M  V30 43813 H 4013.18 1.52158 -3.45914 0
M  V30 43814 H 4013.49 2.52905 -7.30246 0
M  V30 43815 H 4011.84 2.28101 -6.56502 0
M  V30 43816 H 4015.03 1.80733 -4.31802 0
M  V30 43817 H 4015.2 2.26696 -6.07053 0
M  V30 43818 N 4008.61 1.38582 0.750513 0
M  V30 43819 C 4010.02 1.19847 1.05399 0
M  V30 43820 C 4010.22 0.0492671 2.0144 0
M  V30 43821 O 4009.28 -0.603994 2.4517 0
M  V30 43822 C 4010.59 2.52616 1.63113 0
M  V30 43823 C 4012.14 2.59326 1.75269 0
M  V30 43824 C 4012.62 3.92278 2.36394 0
M  V30 43825 N 4014.11 3.93834 2.43822 0
M  V30 43826 C 4014.84 4.9347 2.92019 0
M  V30 43827 N 4014.34 6.03503 3.40229 0
M  V30 43828 N 4016.13 4.80858 2.91087 0
M  V30 43829 H 4008.28 2.12098 0.113248 0
M  V30 43830 H 4010.54 0.941257 0.112869 0
M  V30 43831 H 4010.25 3.3718 1.00011 0
M  V30 43832 H 4010.12 2.7123 2.62133 0
M  V30 43833 H 4012.51 1.75154 2.37497 0
M  V30 43834 H 4012.59 2.44575 0.749447 0
M  V30 43835 H 4012.24 4.76873 1.74799 0
M  V30 43836 H 4012.17 4.04341 3.37366 0
M  V30 43837 H 4014.66 3.1436 2.09728 0
M  V30 43838 H 4014.97 6.75457 3.7547 0
M  V30 43839 H 4013.32 6.07119 3.38278 0
M  V30 43840 H 4016.51 3.94007 2.52737 0
M  V30 43841 H 4016.68 5.58658 3.28337 0
M  V30 43842 N 4010.09 -0.979029 1.23502 0
M  V30 43843 C 4011.02 -2.07417 0.975235 0
M  V30 43844 C 4012.03 -1.62719 -0.0512589 0
M  V30 43845 O 4013.22 -1.77545 0.184434 0
M  V30 43846 C 4010.32 -3.35929 0.44776 0
M  V30 43847 C 4009.49 -4.09591 1.53474 0
M  V30 43848 C 4008.55 -5.16379 1.0119 0
M  V30 43849 O 4007.58 -5.43184 1.70117 0
M  V30 43850 N 4008.78 -5.80281 -0.159565 0
M  V30 43851 H 4011.54 -2.3028 1.9181 0
M  V30 43852 H 4009.11 -1.14582 1.14379 0
M  V30 43853 H 4011.1 -4.04615 0.0829939 0
M  V30 43854 H 4009.67 -3.10023 -0.400559 0
M  V30 43855 H 4008.89 -3.3534 2.07221 0
M  V30 43856 H 4010.18 -4.5557 2.26568 0
M  V30 43857 H 4009.57 -5.6089 -0.736095 0
M  V30 43858 H 4008.13 -6.50135 -0.465582 0
M  V30 43859 N 4011.56 -1.04695 -1.178 0
M  V30 43860 C 4012.49 -0.664488 -2.23846 0
M  V30 43861 C 4013.47 0.335327 -1.66762 0
M  V30 43862 O 4014.66 0.214029 -1.93017 0
M  V30 43863 C 4011.79 -0.0332197 -3.47284 0
M  V30 43864 C 4010.74 -0.957254 -4.17158 0
M  V30 43865 C 4010.07 -0.190127 -5.34362 0
M  V30 43866 C 4011.37 -2.27918 -4.69947 0
M  V30 43867 H 4013.06 -1.55103 -2.56093 0
M  V30 43868 H 4010.61 -0.747218 -1.23096 0
M  V30 43869 H 4012.56 0.246104 -4.20681 0
M  V30 43870 H 4011.29 0.888239 -3.14289 0
M  V30 43871 H 4009.95 -1.22106 -3.45667 0
M  V30 43872 H 4009.59 0.733937 -4.97617 0
M  V30 43873 H 4009.29 -0.805787 -5.82049 0
M  V30 43874 H 4010.82 0.0820299 -6.10545 0
M  V30 43875 H 4012.23 -2.06012 -5.35006 0
M  V30 43876 H 4010.63 -2.84837 -5.28193 0
M  V30 43877 H 4011.7 -2.92127 -3.87027 0
M  V30 43878 N 4013.04 1.34141 -0.827275 0
M  V30 43879 C 4014.29 1.98445 -0.418038 0
M  V30 43880 C 4014.62 1.6542 1.01734 0
M  V30 43881 O 4013.9 0.928072 1.7093 0
M  V30 43882 C 4014.18 3.54624 -0.625622 0
M  V30 43883 C 4014.03 3.97376 -2.10743 0
M  V30 43884 C 4015.35 4.40053 -0.0643474 0
M  V30 43885 H 4012.47 0.720867 -0.153362 0
M  V30 43886 H 4015.11 1.58967 -1.04064 0
M  V30 43887 H 4013.26 3.88382 -0.0956453 0
M  V30 43888 H 4014.93 3.73929 -2.70138 0
M  V30 43889 H 4013.18 3.47529 -2.59627 0
M  V30 43890 H 4013.85 5.06114 -2.20347 0
M  V30 43891 H 4016.32 4.12873 -0.517209 0
M  V30 43892 H 4015.2 5.48378 -0.239363 0
M  V30 43893 H 4015.46 4.2991 1.03103 0
M  V30 43894 N 4014.52 0.582635 1.46435 0
M  V30 43895 C 4015.47 -0.150656 2.30308 0
M  V30 43896 C 4016.44 -0.88416 1.40612 0
M  V30 43897 O 4017.62 -0.874844 1.69562 0
M  V30 43898 C 4014.76 -1.15842 3.25077 0
M  V30 43899 C 4013.87 -0.428366 4.29871 0
M  V30 43900 C 4013.01 -1.42364 5.11767 0
M  V30 43901 C 4012.05 -0.679996 6.08311 0
M  V30 43902 N 4011.19 -1.62333 6.83076 0
M  V30 43903 H 4016.03 0.570634 2.92485 0
M  V30 43904 H 4013.56 0.29322 1.44148 0
M  V30 43905 H 4015.52 -1.75556 3.78465 0
M  V30 43906 H 4014.15 -1.84742 2.64708 0
M  V30 43907 H 4013.2 0.283811 3.7934 0
M  V30 43908 H 4014.51 0.152998 4.98565 0
M  V30 43909 H 4013.67 -2.09359 5.69433 0
M  V30 43910 H 4012.41 -2.03894 4.43033 0
M  V30 43911 H 4011.41 0.00372731 5.498 0
M  V30 43912 H 4012.64 -0.0700959 6.79064 0
M  V30 43913 H 4010.58 -2.22673 6.17052 0
M  V30 43914 H 4010.5 -1.09477 7.48031 0
M  V30 43915 H 4011.77 -2.28363 7.45299 0
M  V30 43916 N 4016 -1.54309 0.320412 0
M  V30 43917 C 4017.25 -2.00115 -0.282548 0
M  V30 43918 C 4017.57 -1.21021 -1.52902 0
M  V30 43919 O 4016.84 -0.311197 -1.93412 0
M  V30 43920 H 4015.42 -0.73924 -0.107393 0
M  V30 43921 H 4018.08 -1.89955 0.436229 0
M  V30 43922 H 4017.17 -3.07373 -0.541135 0
M  V30 43923 N 4017.48 -0.0485183 -1.57525 0
M  V30 43924 C 4018.89 0.308013 -1.566 0
M  V30 43925 C 4019.09 1.71616 -1.05594 0
M  V30 43926 O 4018.15 2.42273 -0.711345 0
M  V30 43927 C 4019.46 0.138902 -3.00379 0
M  V30 43928 C 4021.01 0.210207 -3.12293 0
M  V30 43929 C 4021.48 0.0696564 -4.57947 0
M  V30 43930 N 4022.97 0.126018 -4.63029 0
M  V30 43931 C 4023.71 0.0413384 -5.73385 0
M  V30 43932 N 4023.21 -0.0955382 -6.92734 0
M  V30 43933 N 4025 0.0967293 -5.62017 0
M  V30 43934 H 4017.15 -0.969102 -1.89003 0
M  V30 43935 H 4019.41 -0.37596 -0.870263 0
M  V30 43936 H 4019.12 -0.831868 -3.4172 0
M  V30 43937 H 4018.99 0.901045 -3.6628 0
M  V30 43938 H 4021.38 1.17145 -2.70853 0
M  V30 43939 H 4021.46 -0.582645 -2.49076 0
M  V30 43940 H 4021.1 -0.888249 -5.00073 0
M  V30 43941 H 4021.03 0.881619 -5.19168 0
M  V30 43942 H 4023.53 0.231166 -3.77192 0
M  V30 43943 H 4023.84 -0.152932 -7.72649 0
M  V30 43944 H 4022.18 -0.130587 -6.94877 0
M  V30 43945 H 4025.37 0.2022 -4.67663 0
M  V30 43946 H 4025.55 0.0272769 -6.47994 0
M  V30 43947 N 4018.95 1.55988 0.224839 0
M  V30 43948 C 4020.23 1.69633 0.973854 0
M  V30 43949 C 4020.61 0.594826 2.02546 0
M  V30 43950 O 4019.96 -0.39864 2.24996 0
M  V30 43951 C 4020.17 3.10816 1.58727 0
M  V30 43952 C 4021.52 3.7012 2.08077 0
M  V30 43953 O 4022.54 3.13757 1.68627 0
M  V30 43954 O 4021.4 4.68976 2.80578 0
M  V30 43955 H 4018.49 0.690777 0.454704 0
M  V30 43956 H 4021.04 1.68308 0.216881 0
M  V30 43957 H 4019.81 3.82444 0.827766 0
M  V30 43958 H 4019.43 3.16245 2.40987 0
M  V30 43959 N 4020.43 -0.491412 1.49743 0
M  V30 43960 C 4021.71 -1.25274 1.50219 0
M  V30 43961 C 4022.09 -2.09784 0.235308 0
M  V30 43962 O 4021.44 -2.14701 -0.78202 0
M  V30 43963 C 4021.65 -2.10124 2.78656 0
M  V30 43964 C 4022.99 -2.68993 3.28524 0
M  V30 43965 O 4024.02 -2.20384 2.79838 0
M  V30 43966 O 4022.88 -3.57509 4.1334 0
M  V30 43967 H 4019.97 -0.567394 0.601659 0
M  V30 43968 H 4022.52 -0.504896 1.62015 0
M  V30 43969 H 4021.29 -1.47716 3.62347 0
M  V30 43970 H 4020.91 -2.92082 2.69766 0
M  V30 43971 N 4021.91 -1.38978 -0.743153 0
M  V30 43972 C 4022.84 -1.39774 -1.87044 0
M  V30 43973 C 4023.82 -0.26219 -1.68067 0
M  V30 43974 O 4025.01 -0.466815 -1.88506 0
M  V30 43975 C 4022.14 -1.2324 -3.24699 0
M  V30 43976 C 4021.09 -2.34109 -3.58298 0
M  V30 43977 C 4020.42 -2.02671 -4.94801 0
M  V30 43978 C 4021.72 -3.76401 -3.62104 0
M  V30 43979 H 4023.41 -2.3411 -1.86636 0
M  V30 43980 H 4020.96 -1.12688 -0.896521 0
M  V30 43981 H 4022.91 -1.22419 -4.03226 0
M  V30 43982 H 4021.63 -0.253695 -3.25613 0
M  V30 43983 H 4020.29 -2.34133 -2.82095 0
M  V30 43984 H 4019.94 -1.03259 -4.92287 0
M  V30 43985 H 4019.64 -2.76932 -5.1825 0
M  V30 43986 H 4021.16 -2.03487 -5.75696 0
M  V30 43987 H 4022.58 -3.78351 -4.30724 0
M  V30 43988 H 4020.98 -4.49953 -3.97067 0
M  V30 43989 H 4022.05 -4.07965 -2.62092 0
M  V30 43990 N 4023.39 0.972465 -1.2402 0
M  V30 43991 C 4024.8 1.24019 -1.00456 0
M  V30 43992 C 4025 1.99409 0.289533 0
M  V30 43993 O 4024.06 2.31554 1.00692 0
M  V30 43994 C 4025.37 2.03199 -2.21655 0
M  V30 43995 C 4026.92 2.16308 -2.26229 0
M  V30 43996 C 4027.4 2.98882 -3.47036 0
M  V30 43997 N 4028.89 3.06465 -3.47323 0
M  V30 43998 C 4029.62 3.70701 -4.37456 0
M  V30 43999 N 4029.12 4.36696 -5.37837 0
M  V30 44000 N 4030.91 3.67666 -4.2518 0
M  V30 44001 H 4023.06 0.467631 -2.07188 0
M  V30 44002 H 4025.33 0.269251 -0.90896 0
M  V30 44003 H 4025.03 1.55185 -3.15611 0
M  V30 44004 H 4024.91 3.03939 -2.23386 0
M  V30 44005 H 4027.29 2.63526 -1.32807 0
M  V30 44006 H 4027.37 1.14932 -2.28527 0
M  V30 44007 H 4027.02 2.52358 -4.40769 0
M  V30 44008 H 4026.95 4.00446 -3.41981 0
M  V30 44009 H 4029.44 2.59516 -2.74699 0
M  V30 44010 H 4029.75 4.83514 -6.02855 0
M  V30 44011 H 4028.1 4.35379 -5.41729 0
M  V30 44012 H 4031.29 3.15283 -3.45998 0
M  V30 44013 H 4031.46 4.17445 -4.95624 0
M  V30 44014 N 4024.87 1.05318 1.17243 0
M  V30 44015 C 4025.8 0.613267 2.20843 0
M  V30 44016 C 4026.81 -0.323643 1.59551 0
M  V30 44017 O 4028 -0.116177 1.78122 0
M  V30 44018 C 4025.1 -0.122423 3.38679 0
M  V30 44019 C 4024.27 0.825504 4.2954 0
M  V30 44020 C 4023.33 0.130845 5.26037 0
M  V30 44021 O 4022.36 0.765347 5.64031 0
M  V30 44022 N 4023.56 -1.13126 5.69371 0
M  V30 44023 H 4026.33 1.50439 2.59207 0
M  V30 44024 H 4023.89 0.935244 1.32154 0
M  V30 44025 H 4025.88 -0.597298 4.00268 0
M  V30 44026 H 4024.45 -0.915226 2.98902 0
M  V30 44027 H 4023.67 1.47997 3.65363 0
M  V30 44028 H 4024.96 1.4689 4.87135 0
M  V30 44029 H 4024.35 -1.66706 5.40579 0
M  V30 44030 H 4022.91 -1.55018 6.33098 0
M  V30 44031 N 4026.34 -1.33701 0.834377 0
M  V30 44032 C 4027.62 -1.92442 0.350037 0
M  V30 44033 C 4028 -1.76104 -1.16406 0
M  V30 44034 O 4027.35 -1.1467 -1.97644 0
M  V30 44035 C 4027.56 -3.39895 0.791988 0
M  V30 44036 C 4028.91 -4.17045 0.797412 0
M  V30 44037 O 4029.93 -3.48528 0.735303 0
M  V30 44038 O 4028.79 -5.39351 0.881057 0
M  V30 44039 H 4025.88 -0.821159 0.0981192 0
M  V30 44040 H 4028.43 -1.42602 0.91993 0
M  V30 44041 H 4027.2 -3.45638 1.83439 0
M  V30 44042 H 4026.83 -3.97105 0.198419 0
M  V30 44043 N 4027.82 -0.590393 -1.46124 0
M  V30 44044 C 4028.79 0.128328 -2.2884 0
M  V30 44045 C 4029.79 0.811536 -1.38819 0
M  V30 44046 O 4030.98 0.662318 -1.61118 0
M  V30 44047 C 4028.11 1.19139 -3.19404 0
M  V30 44048 H 4029.3 -0.598693 -2.93863 0
M  V30 44049 H 4026.85 -0.348687 -1.52361 0
M  V30 44050 H 4027.59 1.94974 -2.59144 0
M  V30 44051 H 4027.37 0.705905 -3.85693 0
M  V30 44052 H 4028.86 1.69525 -3.81643 0
M  V30 44053 N 4029.3 1.54136 -0.328591 0
M  V30 44054 C 4030.55 2.00956 0.272874 0
M  V30 44055 C 4030.88 1.21633 1.5139 0
M  V30 44056 O 4030.15 0.29995 1.92173 0
M  V30 44057 C 4030.44 3.55032 0.601993 0
M  V30 44058 C 4030.29 4.45077 -0.650094 0
M  V30 44059 C 4031.61 4.16643 1.41763 0
M  V30 44060 H 4028.73 0.730495 0.0977049 0
M  V30 44061 H 4031.37 1.84687 -0.446166 0
M  V30 44062 H 4029.52 3.69026 1.21457 0
M  V30 44063 H 4031.19 4.42946 -1.28829 0
M  V30 44064 H 4029.44 4.14548 -1.27798 0
M  V30 44065 H 4030.11 5.50723 -0.375278 0
M  V30 44066 H 4032.58 4.06255 0.899778 0
M  V30 44067 H 4031.46 5.24552 1.61667 0
M  V30 44068 H 4031.72 3.70293 2.41527 0
M  V30 44069 N 4030.78 0.0568716 1.57497 0
M  V30 44070 C 4031.71 -0.951104 2.07435 0
M  V30 44071 C 4032.69 -1.30042 0.976106 0
M  V30 44072 O 4033.87 -1.41231 1.24844 0
M  V30 44073 C 4031 -2.26349 2.5196 0
M  V30 44074 C 4030.05 -2.06682 3.73075 0
M  V30 44075 S 4030.88 -1.33992 5.18465 0
M  V30 44076 C 4032.04 -2.66542 5.66309 0
M  V30 44077 H 4032.27 -0.526129 2.92608 0
M  V30 44078 H 4029.8 -0.155535 1.53615 0
M  V30 44079 H 4031.76 -3.01784 2.78274 0
M  V30 44080 H 4030.42 -2.65974 1.67082 0
M  V30 44081 H 4029.61 -3.03771 4.02168 0
M  V30 44082 H 4029.22 -1.39386 3.47056 0
M  V30 44083 H 4031.51 -3.62691 5.72243 0
M  V30 44084 H 4032.45 -2.42078 6.65435 0
M  V30 44085 H 4032.86 -2.73063 4.94062 0
M  V30 44086 N 4032.26 -1.56105 -0.216564 0
M  V30 44087 C 4033.19 -1.89316 -1.29198 0
M  V30 44088 C 4034.2 -0.781857 -1.42797 0
M  V30 44089 O 4035.39 -1.06018 -1.43605 0
M  V30 44090 C 4032.49 -2.09107 -2.66697 0
M  V30 44091 C 4031.66 -3.40152 -2.74983 0
M  V30 44092 C 4030.72 -3.49315 -3.9353 0
M  V30 44093 O 4029.75 -4.22307 -3.81635 0
M  V30 44094 N 4030.95 -2.80823 -5.08054 0
M  V30 44095 H 4033.72 -2.82157 -1.01033 0
M  V30 44096 H 4031.28 -1.56712 -0.406583 0
M  V30 44097 H 4033.27 -2.12547 -3.44392 0
M  V30 44098 H 4031.84 -1.22868 -2.87441 0
M  V30 44099 H 4031.06 -3.48766 -1.83727 0
M  V30 44100 H 4032.35 -4.26468 -2.77493 0
M  V30 44101 H 4031.74 -2.21308 -5.20614 0
M  V30 44102 H 4030.3 -2.89918 -5.83773 0
M  V30 44103 N 4033.73 0.483463 -1.50001 0
M  V30 44104 C 4034.67 1.60013 -1.64099 0
M  V30 44105 C 4035.68 1.54173 -0.522924 0
M  V30 44106 O 4036.87 1.59786 -0.795649 0
M  V30 44107 C 4033.97 2.98863 -1.59795 0
M  V30 44108 C 4033.14 3.29703 -2.87428 0
M  V30 44109 C 4032.2 4.48047 -2.75936 0
M  V30 44110 O 4031.23 4.48964 -3.49886 0
M  V30 44111 N 4032.43 5.48989 -1.88658 0
M  V30 44112 H 4035.19 1.48341 -2.60413 0
M  V30 44113 H 4032.75 0.671665 -1.4731 0
M  V30 44114 H 4034.75 3.7598 -1.49737 0
M  V30 44115 H 4033.32 3.04368 -0.712666 0
M  V30 44116 H 4032.54 2.41315 -3.11706 0
M  V30 44117 H 4033.82 3.47113 -3.72008 0
M  V30 44118 H 4033.22 5.5106 -1.27867 0
M  V30 44119 H 4031.78 6.25139 -1.84511 0
M  V30 44120 N 4035.21 1.39371 0.735772 0
M  V30 44121 C 4036.46 1.36754 1.49753 0
M  V30 44122 C 4036.79 -0.0367809 1.94165 0
M  V30 44123 O 4036.07 -1.00156 1.6673 0
M  V30 44124 C 4036.35 2.33921 2.73775 0
M  V30 44125 C 4036.2 3.83292 2.35387 0
M  V30 44126 C 4037.52 2.2893 3.75871 0
M  V30 44127 H 4034.64 0.49807 0.543227 0
M  V30 44128 H 4037.28 1.70356 0.841351 0
M  V30 44129 H 4035.43 2.05397 3.29764 0
M  V30 44130 H 4037.1 4.22563 1.85036 0
M  V30 44131 H 4035.35 4.00105 1.67625 0
M  V30 44132 H 4036.02 4.46766 3.24198 0
M  V30 44133 H 4038.49 2.5415 3.29465 0
M  V30 44134 H 4037.37 2.98999 4.60316 0
M  V30 44135 H 4037.63 1.29407 4.22737 0
M  V30 44136 N 4036.69 -0.965875 1.24534 0
M  V30 44137 C 4037.94 -1.70908 1.08612 0
M  V30 44138 C 4038.27 -1.90856 -0.374747 0
M  V30 44139 O 4037.52 -1.46885 -1.29319 0
M  V30 44140 C 4037.82 -3.10316 1.77311 0
M  V30 44141 C 4037.49 -3.10203 3.27238 0
M  V30 44142 C 4036.15 -3.0988 3.68141 0
M  V30 44143 C 4038.5 -3.04395 4.23076 0
M  V30 44144 C 4035.83 -3.01483 5.03314 0
M  V30 44145 C 4038.18 -2.9754 5.58259 0
M  V30 44146 C 4036.84 -2.95546 5.98505 0
M  V30 44147 H 4036.11 -0.625397 0.397441 0
M  V30 44148 H 4038.76 -1.12927 1.5466 0
M  V30 44149 H 4037.07 -3.71773 1.23662 0
M  V30 44150 H 4038.76 -3.66619 1.62455 0
M  V30 44151 H 4035.35 -3.11221 2.94686 0
M  V30 44152 H 4039.54 -3.03772 3.92474 0
M  V30 44153 H 4034.79 -2.98301 5.33691 0
M  V30 44154 H 4038.97 -2.92005 6.32223 0
M  V30 44155 H 4036.59 -2.88795 7.03208 0
M  V30 44156 N 4038.17 -1.05938 -1.16683 0
M  V30 44157 C 4039.1 -0.62497 -2.20515 0
M  V30 44158 C 4040.11 0.315177 -1.5972 0
M  V30 44159 O 4041.3 0.10673 -1.78181 0
M  V30 44160 C 4038.4 0.10446 -3.38739 0
M  V30 44161 C 4037.58 -0.848272 -4.29096 0
M  V30 44162 C 4036.64 -0.15874 -5.25961 0
M  V30 44163 O 4035.66 -0.795248 -5.63617 0
M  V30 44164 N 4036.86 1.10105 -5.69962 0
M  V30 44165 H 4039.63 -1.51811 -2.58406 0
M  V30 44166 H 4037.19 -0.942239 -1.31657 0
M  V30 44167 H 4039.18 0.576062 -4.00579 0
M  V30 44168 H 4037.75 0.899361 -2.99383 0
M  V30 44169 H 4036.97 -1.49933 -3.64573 0
M  V30 44170 H 4038.26 -1.49472 -4.86349 0
M  V30 44171 H 4037.66 1.63837 -5.41455 0
M  V30 44172 H 4036.21 1.51658 -6.33911 0
M  V30 44173 N 4039.65 1.33256 -0.841456 0
M  V30 44174 C 4040.58 2.27122 -0.221525 0
M  V30 44175 C 4041.56 1.49779 0.632853 0
M  V30 44176 O 4042.74 1.78944 0.59255 0
M  V30 44177 C 4039.87 3.31624 0.688725 0
M  V30 44178 C 4038.92 4.26404 -0.0905313 0
M  V30 44179 S 4039.75 5.15491 -1.45016 0
M  V30 44180 C 4040.9 6.2352 -0.545269 0
M  V30 44181 H 4041.14 2.79354 -1.01728 0
M  V30 44182 H 4038.67 1.40586 -0.63835 0
M  V30 44183 H 4040.63 3.92314 1.20829 0
M  V30 44184 H 4039.29 2.78202 1.45817 0
M  V30 44185 H 4038.48 5.00389 0.602208 0
M  V30 44186 H 4038.08 3.70063 -0.541246 0
M  V30 44187 H 4040.38 6.77017 0.255843 0
M  V30 44188 H 4041.32 6.96883 -1.25536 0
M  V30 44189 H 4041.73 5.64361 -0.125468 0
M  V30 44190 N 4041.13 0.598134 1.45809 0
M  V30 44191 C 4042.37 0.0925298 2.0419 0
M  V30 44192 C 4042.73 -1.24965 1.45766 0
M  V30 44193 O 4043.93 -1.84541 1.95443 0
M  V30 44194 C 4042.2 0.0439036 3.57373 0
M  V30 44195 S 4043.76 -0.401884 4.36956 0
M  V30 44196 H 4040.58 0.0449652 0.709577 0
M  V30 44197 H 4043.18 0.794108 1.78645 0
M  V30 44198 H 4041.88 1.02443 3.97409 0
M  V30 44199 H 4041.42 -0.679965 3.87479 0
M  V30 44200 H 4043.43 -1.65343 4.67842 0
M  V30 44201 N 4042.6 -1.5396 0.33676 0
M  V30 44202 C 4043.55 -2.26279 -0.538559 0
M  V30 44203 C 4044.55 -1.28172 -1.10762 0
M  V30 44204 O 4045.75 -1.45904 -1.05414 0
M  V30 44205 H 4042.13 -0.726984 -0.19235 0
M  V30 44206 H 4044.1 -2.98253 0.0935056 0
M  V30 44207 C 4042.85 -3.04355 -1.68116 0
M  V30 44208 H 4042.17 -3.79673 -1.25255 0
M  V30 44209 H 4043.61 -3.58183 -2.26894 0
M  V30 44210 C 4042.07 -2.13444 -2.60659 0
M  V30 44211 O 4042.6 -1.72602 -3.62728 0
M  V30 44212 N 4040.8 -1.78662 -2.2919 0
M  V30 44213 H 4040.35 -2.12073 -1.46229 0
M  V30 44214 H 4040.31 -1.18116 -2.91369 0
M  V30 44215 N 4044.08 -0.0652232 -1.57465 0
M  V30 44216 C 4045.31 0.614599 -1.97561 0
M  V30 44217 C 4045.72 1.63544 -0.943337 0
M  V30 44218 O 4045.08 1.82363 0.0708042 0
M  V30 44219 C 4045.13 1.28903 -3.37737 0
M  V30 44220 O 4044.85 0.309054 -4.37009 0
M  V30 44221 C 4046.35 2.05729 -3.92671 0
M  V30 44222 H 4043.57 0.16705 -0.649873 0
M  V30 44223 H 4046.12 -0.135682 -2.04049 0
M  V30 44224 H 4044.27 1.99044 -3.32355 0
M  V30 44225 H 4044.69 0.792115 -5.18484 0
M  V30 44226 H 4046.16 2.4832 -4.92992 0
M  V30 44227 H 4046.64 2.91119 -3.28857 0
M  V30 44228 H 4047.24 1.40469 -4.01433 0
M  V30 44229 N 4045.56 1.56218 0.208282 0
M  V30 44230 C 4046.49 1.96515 1.26112 0
M  V30 44231 C 4047.47 0.83521 1.48183 0
M  V30 44232 O 4048.66 1.09854 1.60143 0
M  V30 44233 C 4045.79 2.2933 2.60816 0
M  V30 44234 C 4044.74 3.44939 2.53379 0
M  V30 44235 C 4044.07 3.63395 3.92235 0
M  V30 44236 C 4045.37 4.79522 2.07018 0
M  V30 44237 H 4047.06 2.8471 0.9263 0
M  V30 44238 H 4044.61 1.36979 0.444145 0
M  V30 44239 H 4046.56 2.56114 3.34639 0
M  V30 44240 H 4045.28 1.38003 2.96012 0
M  V30 44241 H 4043.94 3.18225 1.82012 0
M  V30 44242 H 4043.59 2.6942 4.24761 0
M  V30 44243 H 4043.29 4.41161 3.88137 0
M  V30 44244 H 4044.81 3.92541 4.677 0
M  V30 44245 H 4046.23 5.05424 2.70592 0
M  V30 44246 H 4044.62 5.60665 2.13951 0
M  V30 44247 H 4045.69 4.73988 1.0229 0
M  V30 44248 N 4047.04 -0.475502 1.50256 0
M  V30 44249 C 4047.97 -1.58219 1.71724 0
M  V30 44250 C 4048.95 -1.60402 0.566149 0
M  V30 44251 O 4050.13 -1.76739 0.804805 0
M  V30 44252 C 4047.26 -2.9657 1.80731 0
M  V30 44253 C 4046.22 -3.09253 2.95882 0
M  V30 44254 C 4045.54 -4.49208 2.90028 0
M  V30 44255 C 4046.84 -2.86884 4.36457 0
M  V30 44256 H 4048.54 -1.40506 2.64383 0
M  V30 44257 H 4046.08 -0.67451 1.27226 0
M  V30 44258 H 4048.04 -3.73915 1.94334 0
M  V30 44259 H 4046.76 -3.15429 0.846901 0
M  V30 44260 H 4045.42 -2.3434 2.81923 0
M  V30 44261 H 4045.07 -4.64979 1.91842 0
M  V30 44262 H 4044.77 -4.58631 3.6733 0
M  V30 44263 H 4046.29 -5.28579 3.05674 0
M  V30 44264 H 4047.71 -3.53981 4.50966 0
M  V30 44265 H 4046.1 -3.07756 5.15176 0
M  V30 44266 H 4047.17 -1.82778 4.49133 0
M  V30 44267 N 4048.52 -1.39759 -0.72837 0
M  V30 44268 C 4049.45 -1.34914 -1.85286 0
M  V30 44269 C 4050.46 -0.256738 -1.60763 0
M  V30 44270 O 4051.65 -0.516173 -1.70874 0
M  V30 44271 C 4048.75 -1.07366 -3.21443 0
M  V30 44272 C 4047.92 -2.28012 -3.73268 0
M  V30 44273 C 4046.98 -1.9682 -4.88004 0
M  V30 44274 O 4046.01 -2.69567 -5.0132 0
M  V30 44275 N 4047.21 -0.938378 -5.72865 0
M  V30 44276 H 4049.97 -2.31821 -1.89945 0
M  V30 44277 H 4047.54 -1.33947 -0.909385 0
M  V30 44278 H 4049.53 -0.845072 -3.95779 0
M  V30 44279 H 4048.1 -0.191699 -3.12012 0
M  V30 44280 H 4047.32 -2.66782 -2.90209 0
M  V30 44281 H 4048.61 -3.0847 -4.04628 0
M  V30 44282 H 4048 -0.335616 -5.64704 0
M  V30 44283 H 4046.56 -0.769686 -6.4724 0
M  V30 44284 N 4049.99 0.959257 -1.25044 0
M  V30 44285 C 4051.41 1.22947 -1.01766 0
M  V30 44286 C 4051.61 1.99705 0.268366 0
M  V30 44287 O 4050.67 2.32609 0.982307 0
M  V30 44288 C 4051.98 2.00836 -2.23797 0
M  V30 44289 C 4053.53 2.13897 -2.28511 0
M  V30 44290 C 4054 2.95184 -3.50186 0
M  V30 44291 N 4055.49 3.02764 -3.50554 0
M  V30 44292 C 4056.23 3.66041 -4.41363 0
M  V30 44293 N 4055.72 4.30967 -5.42438 0
M  V30 44294 N 4057.52 3.63136 -4.29056 0
M  V30 44295 H 4049.67 0.44563 -2.07673 0
M  V30 44296 H 4051.93 0.259595 -0.911764 0
M  V30 44297 H 4051.64 1.51829 -3.17239 0
M  V30 44298 H 4051.51 3.01552 -2.26597 0
M  V30 44299 H 4053.9 2.62103 -1.35595 0
M  V30 44300 H 4053.98 1.12501 -2.29733 0
M  V30 44301 H 4053.62 2.47669 -4.43421 0
M  V30 44302 H 4053.55 3.96796 -3.46209 0
M  V30 44303 H 4056.04 2.56588 -2.77437 0
M  V30 44304 H 4056.36 4.77093 -6.07949 0
M  V30 44305 H 4054.7 4.29609 -5.46316 0
M  V30 44306 H 4057.89 3.11595 -3.49322 0
M  V30 44307 H 4058.07 4.12165 -5.00024 0
M  V30 44308 N 4051.47 1.06556 1.16119 0
M  V30 44309 C 4052.42 0.672866 2.22655 0
M  V30 44310 C 4053.41 -0.312479 1.66493 0
M  V30 44311 O 4054.62 -0.177058 1.79127 0
M  V30 44312 H 4051 0.199477 0.725061 0
M  V30 44313 H 4052.97 1.5812 2.53062 0
M  V30 44314 C 4051.72 0.0781393 3.47612 0
M  V30 44315 H 4051.04 0.827459 3.91143 0
M  V30 44316 H 4052.48 -0.159068 4.23702 0
M  V30 44317 C 4050.94 -1.179 3.15596 0
M  V30 44318 O 4051.47 -2.26659 3.31645 0
M  V30 44319 N 4049.67 -1.08201 2.69705 0
M  V30 44320 H 4049.22 -0.196936 2.56846 0
M  V30 44321 H 4049.18 -1.92397 2.48658 0
M  V30 44322 N 4052.95 -1.32808 0.848511 0
M  V30 44323 C 4054.18 -2.0166 0.462679 0
M  V30 44324 C 4054.59 -1.638 -0.938877 0
M  V30 44325 O 4053.95 -0.856198 -1.61169 0
M  V30 44326 C 4054 -3.56736 0.584968 0
M  V30 44327 O 4053.72 -3.93233 1.93131 0
M  V30 44328 C 4055.22 -4.42861 0.197343 0
M  V30 44329 H 4052.44 -0.64569 0.182551 0
M  V30 44330 H 4054.99 -1.69525 1.14375 0
M  V30 44331 H 4053.14 -3.8737 -0.048302 0
M  V30 44332 H 4053.56 -4.87949 1.92369 0
M  V30 44333 H 4055.03 -5.50989 0.333929 0
M  V30 44334 H 4055.51 -4.30665 -0.861657 0
M  V30 44335 H 4056.11 -4.17604 0.805436 0
M  V30 44336 N 4054.43 -0.605858 -1.45489 0
M  V30 44337 C 4055.34 0.115874 -2.34314 0
M  V30 44338 C 4056.35 0.862173 -1.51138 0
M  V30 44339 O 4057.53 0.820149 -1.83944 0
M  V30 44340 C 4054.6 1.10183 -3.28726 0
M  V30 44341 C 4053.66 0.357674 -4.27807 0
M  V30 44342 C 4052.89 1.29666 -5.17709 0
M  V30 44343 O 4053.11 2.53439 -5.11004 0
M  V30 44344 O 4052.05 0.794662 -5.96631 0
M  V30 44345 H 4055.87 -0.614034 -2.97428 0
M  V30 44346 H 4053.46 -0.366129 -1.44844 0
M  V30 44347 H 4055.34 1.66973 -3.86908 0
M  V30 44348 H 4054.01 1.81279 -2.68178 0
M  V30 44349 H 4052.92 -0.252653 -3.73246 0
M  V30 44350 H 4054.25 -0.312768 -4.91205 0
M  V30 44351 N 4055.91 1.53779 -0.34492 0
M  V30 44352 C 4057.13 2.05353 0.252523 0
M  V30 44353 C 4057.55 1.2198 1.44105 0
M  V30 44354 O 4056.91 0.255462 1.80703 0
M  V30 44355 C 4056.96 3.55308 0.666231 0
M  V30 44356 O 4056.68 4.35517 -0.475034 0
M  V30 44357 C 4058.18 4.23059 1.32425 0
M  V30 44358 H 4055.4 0.669244 0.0485085 0
M  V30 44359 H 4057.94 1.98361 -0.497305 0
M  V30 44360 H 4056.1 3.62518 1.366 0
M  V30 44361 H 4056.51 5.243 -0.144975 0
M  V30 44362 H 4057.99 5.29366 1.56446 0
M  V30 44363 H 4058.46 3.75491 2.27823 0
M  V30 44364 H 4059.07 4.20045 0.666476 0
M  V30 44365 N 4057.38 0.0735731 1.57428 0
M  V30 44366 C 4058.8 -0.283061 1.5707 0
M  V30 44367 C 4059 -1.69915 1.08311 0
M  V30 44368 O 4058.06 -2.41111 0.749798 0
M  V30 44369 C 4059.37 -0.091097 3.00562 0
M  V30 44370 C 4060.92 -0.160497 3.12588 0
M  V30 44371 C 4061.39 0.00320782 4.58 0
M  V30 44372 N 4062.88 -0.0523386 4.6317 0
M  V30 44373 C 4063.62 0.0498874 5.73378 0
M  V30 44374 N 4063.11 0.205734 6.92494 0
M  V30 44375 N 4064.91 -0.00730506 5.621 0
M  V30 44376 H 4057.06 0.999048 1.87437 0
M  V30 44377 H 4059.32 0.389757 0.864172 0
M  V30 44378 H 4059.03 0.886127 3.40354 0
M  V30 44379 H 4058.9 -0.842659 3.67667 0
M  V30 44380 H 4061.29 -1.12821 2.72682 0
M  V30 44381 H 4061.37 0.622197 2.48118 0
M  V30 44382 H 4061.01 0.967694 4.98596 0
M  V30 44383 H 4060.94 -0.798913 5.20505 0
M  V30 44384 H 4063.43 -0.171129 3.77512 0
M  V30 44385 H 4063.75 0.275834 7.72308 0
M  V30 44386 H 4062.09 0.241119 6.94582 0
M  V30 44387 H 4065.28 -0.127774 4.67926 0
M  V30 44388 H 4065.46 0.0758168 6.47956 0
M  V30 44389 N 4058.86 -1.56326 -0.199995 0
M  V30 44390 C 4059.81 -1.94156 -1.24789 0
M  V30 44391 C 4060.78 -0.8015 -1.45483 0
M  V30 44392 O 4061.96 -1.05924 -1.58697 0
M  V30 44393 C 4059.1 -2.28215 -2.58866 0
M  V30 44394 C 4058.22 -3.55261 -2.45792 0
M  V30 44395 C 4057.35 -3.78666 -3.7254 0
M  V30 44396 C 4056.39 -4.99154 -3.54277 0
M  V30 44397 N 4055.53 -5.18837 -4.73025 0
M  V30 44398 H 4060.37 -2.83499 -0.918274 0
M  V30 44399 H 4057.91 -1.403 -0.442073 0
M  V30 44400 H 4059.86 -2.45978 -3.36973 0
M  V30 44401 H 4058.49 -1.42019 -2.8988 0
M  V30 44402 H 4057.55 -3.45573 -1.59007 0
M  V30 44403 H 4058.86 -4.43524 -2.28228 0
M  V30 44404 H 4058.01 -3.96641 -4.59087 0
M  V30 44405 H 4056.75 -2.88724 -3.93052 0
M  V30 44406 H 4055.76 -4.81106 -2.66114 0
M  V30 44407 H 4056.98 -5.90599 -3.35215 0
M  V30 44408 H 4054.93 -4.31842 -4.9381 0
M  V30 44409 H 4054.84 -6.0127 -4.58269 0
M  V30 44410 H 4056.11 -5.41266 -5.60937 0
M  V30 44411 N 4060.34 0.467527 -1.50506 0
M  V30 44412 C 4061.76 0.801575 -1.38011 0
M  V30 44413 C 4061.96 1.9666 -0.438965 0
M  V30 44414 O 4061.01 2.52228 0.117094 0
M  V30 44415 C 4062.33 1.11029 -2.79451 0
M  V30 44416 C 4063.87 1.21654 -2.88391 0
M  V30 44417 C 4064.35 1.55836 -4.30673 0
M  V30 44418 N 4065.84 1.62821 -4.3364 0
M  V30 44419 C 4066.57 1.90782 -5.40731 0
M  V30 44420 N 4066.07 2.16739 -6.58024 0
M  V30 44421 N 4067.86 1.92313 -5.28178 0
M  V30 44422 H 4060.01 -0.300202 -2.10268 0
M  V30 44423 H 4062.28 -0.0718019 -0.945277 0
M  V30 44424 H 4061.98 0.327264 -3.50174 0
M  V30 44425 H 4061.86 2.0456 -3.16915 0
M  V30 44426 H 4064.24 1.99023 -2.17885 0
M  V30 44427 H 4064.33 0.26094 -2.54466 0
M  V30 44428 H 4063.97 0.790052 -5.01718 0
M  V30 44429 H 4063.9 2.52552 -4.62088 0
M  V30 44430 H 4066.39 1.44786 -3.49063 0
M  V30 44431 H 4066.7 2.37358 -7.35446 0
M  V30 44432 H 4065.05 2.14124 -6.61193 0
M  V30 44433 H 4068.24 1.71534 -4.35539 0
M  V30 44434 H 4068.41 2.13769 -6.11725 0
M  V30 44435 N 4061.82 1.40143 0.720948 0
M  V30 44436 C 4062.77 1.39983 1.83503 0
M  V30 44437 C 4063.74 0.257518 1.64092 0
M  V30 44438 O 4064.92 0.45477 1.85301 0
M  V30 44439 C 4062.06 1.26293 3.2116 0
M  V30 44440 C 4061.17 2.50186 3.5218 0
M  V30 44441 C 4060.31 2.28978 4.79314 0
M  V30 44442 C 4059.35 3.48474 5.03222 0
M  V30 44443 N 4058.48 3.26496 6.21566 0
M  V30 44444 H 4063.32 2.35211 1.82975 0
M  V30 44445 H 4060.86 1.16825 0.893891 0
M  V30 44446 H 4062.82 1.16364 4.00644 0
M  V30 44447 H 4061.45 0.346874 3.20931 0
M  V30 44448 H 4060.5 2.70664 2.67292 0
M  V30 44449 H 4061.81 3.39149 3.65759 0
M  V30 44450 H 4060.97 2.16372 5.66805 0
M  V30 44451 H 4059.71 1.37432 4.67936 0
M  V30 44452 H 4058.71 3.61564 4.14188 0
M  V30 44453 H 4059.94 4.40941 5.16477 0
M  V30 44454 H 4057.88 2.37627 6.11449 0
M  V30 44455 H 4057.8 4.09021 6.35797 0
M  V30 44456 H 4059.07 3.17611 7.11859 0
M  V30 44457 N 4063.3 -0.952612 1.25551 0
M  V30 44458 C 4064.23 -2.06711 1.08596 0
M  V30 44459 C 4065.21 -1.70099 -0.00557581 0
M  V30 44460 O 4066.39 -1.93503 0.164333 0
M  V30 44461 C 4063.52 -3.40048 0.706044 0
M  V30 44462 C 4062.48 -3.90676 1.74804 0
M  V30 44463 C 4061.8 -5.20531 1.22275 0
M  V30 44464 C 4063.1 -4.16828 3.14724 0
M  V30 44465 H 4064.8 -2.21154 2.0182 0
M  V30 44466 H 4062.34 -1.06269 0.971742 0
M  V30 44467 H 4064.3 -4.17468 0.574353 0
M  V30 44468 H 4063.02 -3.25548 -0.261906 0
M  V30 44469 H 4061.68 -3.15426 1.8682 0
M  V30 44470 H 4061.33 -5.02403 0.244975 0
M  V30 44471 H 4061.03 -5.55374 1.9192 0
M  V30 44472 H 4062.55 -6.00546 1.1035 0
M  V30 44473 H 4063.96 -4.84901 3.0585 0
M  V30 44474 H 4062.36 -4.62931 3.81857 0
M  V30 44475 H 4063.43 -3.2303 3.61634 0
M  V30 44476 N 4064.77 -1.0717 -1.15553 0
M  V30 44477 C 4066 -0.814803 -1.9018 0
M  V30 44478 C 4066.42 0.631798 -1.77915 0
M  V30 44479 O 4065.77 1.43322 -1.12983 0
M  V30 44480 C 4065.83 -1.21161 -3.40591 0
M  V30 44481 O 4065.55 -2.60146 -3.525 0
M  V30 44482 C 4067.05 -0.983751 -4.32247 0
M  V30 44483 H 4064.27 -0.294746 -0.602798 0
M  V30 44484 H 4066.81 -1.42767 -1.46417 0
M  V30 44485 H 4064.97 -0.643108 -3.82025 0
M  V30 44486 H 4065.38 -2.76283 -4.45834 0
M  V30 44487 H 4066.85 -1.31093 -5.36208 0
M  V30 44488 H 4067.33 0.080025 -4.39127 0
M  V30 44489 H 4067.94 -1.53707 -3.96553 0
M  V30 44490 N 4066.25 1.32356 -0.855542 0
M  V30 44491 C 4067.5 1.96488 -0.455577 0
M  V30 44492 C 4067.82 1.68451 0.99416 0
M  V30 44493 O 4069.02 2.26328 1.4996 0
M  V30 44494 C 4067.48 3.51703 -0.763739 0
M  V30 44495 C 4067.09 3.88597 -2.22927 0
M  V30 44496 C 4068.83 4.22301 -0.431541 0
M  V30 44497 C 4066.74 5.36861 -2.4806 0
M  V30 44498 H 4065.67 0.735357 -0.16663 0
M  V30 44499 H 4068.32 1.50737 -1.04645 0
M  V30 44500 H 4066.7 3.95868 -0.102294 0
M  V30 44501 H 4067.87 3.55439 -2.93258 0
M  V30 44502 H 4066.19 3.31026 -2.52607 0
M  V30 44503 H 4068.79 5.3136 -0.596734 0
M  V30 44504 H 4069.13 4.11553 0.626907 0
M  V30 44505 H 4069.66 3.83722 -1.04892 0
M  V30 44506 H 4066.4 5.52631 -3.52533 0
M  V30 44507 H 4065.92 5.71423 -1.82308 0
M  V30 44508 H 4067.6 6.03953 -2.32055 0
M  V30 44509 N 4067.73 0.613565 1.45166 0
M  V30 44510 C 4068.97 0.114182 2.04081 0
M  V30 44511 C 4069.34 -1.23412 1.47083 0
M  V30 44512 O 4070.54 -1.82458 1.97389 0
M  V30 44513 C 4068.81 0.0818053 3.57306 0
M  V30 44514 S 4070.37 -0.355516 4.37357 0
M  V30 44515 H 4067.18 0.0524887 0.70906 0
M  V30 44516 H 4069.79 0.813011 1.77793 0
M  V30 44517 H 4068.49 1.06652 3.963 0
M  V30 44518 H 4068.02 -0.638829 3.88178 0
M  V30 44519 H 4070.04 -1.60372 4.69569 0
M  V30 44520 N 4069.21 -1.53594 0.353071 0
M  V30 44521 C 4070.44 -2.05484 -0.241629 0
M  V30 44522 C 4070.85 -1.22743 -1.43456 0
M  V30 44523 O 4070.21 -0.265042 -1.80565 0
M  V30 44524 C 4070.26 -3.55656 -0.647379 0
M  V30 44525 O 4069.98 -4.35259 0.498124 0
M  V30 44526 C 4071.48 -4.23755 -1.30179 0
M  V30 44527 H 4068.7 -0.669492 -0.0449586 0
M  V30 44528 H 4071.25 -1.98095 0.507818 0
M  V30 44529 H 4069.4 -3.63237 -1.34676 0
M  V30 44530 H 4069.82 -5.24215 0.172778 0
M  V30 44531 H 4071.29 -5.30188 -1.53637 0
M  V30 44532 H 4071.77 -3.76694 -2.25828 0
M  V30 44533 H 4072.37 -4.20393 -0.644191 0
M  V30 44534 N 4070.69 -0.0819208 -1.57387 0
M  V30 44535 C 4071.92 0.592749 -1.97914 0
M  V30 44536 C 4072.33 1.63071 -0.959406 0
M  V30 44537 O 4071.67 1.83599 0.0609772 0
M  V30 44538 C 4071.73 1.31004 -3.34781 0
M  V30 44539 C 4071.39 0.424381 -4.55025 0
M  V30 44540 C 4072.39 -0.322151 -5.18901 0
M  V30 44541 C 4070.08 0.346294 -5.01105 0
M  V30 44542 C 4072.07 -1.13489 -6.27215 0
M  V30 44543 C 4069.76 -0.470104 -6.09289 0
M  V30 44544 C 4070.76 -1.20935 -6.72208 0
M  V30 44545 O 4070.44 -2.01227 -7.78308 0
M  V30 44546 H 4070.18 0.164621 -0.655649 0
M  V30 44547 H 4072.73 -0.153913 -2.04823 0
M  V30 44548 H 4070.96 2.103 -3.24516 0
M  V30 44549 H 4072.65 1.87795 -3.59844 0
M  V30 44550 H 4073.41 -0.271476 -4.8424 0
M  V30 44551 H 4069.29 0.91133 -4.51902 0
M  V30 44552 H 4072.84 -1.71239 -6.76257 0
M  V30 44553 H 4068.73 -0.522307 -6.43383 0
M  V30 44554 H 4069.5 -1.93767 -7.95234 0
M  V30 44555 N 4072.17 1.5643 0.191702 0
M  V30 44556 C 4073.11 1.94815 1.23757 0
M  V30 44557 C 4074.08 0.809204 1.45056 0
M  V30 44558 O 4075.27 1.06764 1.58133 0
M  V30 44559 C 4072.41 2.29585 2.57652 0
M  V30 44560 C 4071.52 3.5656 2.43904 0
M  V30 44561 C 4070.66 3.80636 3.70526 0
M  V30 44562 C 4069.69 5.01025 3.51625 0
M  V30 44563 N 4068.83 5.21338 4.70267 0
M  V30 44564 H 4073.67 2.83982 0.903227 0
M  V30 44565 H 4071.21 1.40533 0.434626 0
M  V30 44566 H 4073.17 2.47761 3.35664 0
M  V30 44567 H 4071.8 1.43554 2.89123 0
M  V30 44568 H 4070.85 3.46412 1.57173 0
M  V30 44569 H 4072.16 4.44728 2.25873 0
M  V30 44570 H 4071.31 3.9907 4.56977 0
M  V30 44571 H 4070.05 2.90805 3.91515 0
M  V30 44572 H 4069.06 4.82511 2.63559 0
M  V30 44573 H 4070.28 5.92369 3.32078 0
M  V30 44574 H 4068.23 4.34455 4.91513 0
M  V30 44575 H 4068.15 6.03692 4.55074 0
M  V30 44576 H 4069.41 5.44234 5.58059 0
M  V30 44577 N 4073.64 -0.459538 1.50751 0
M  V30 44578 C 4074.89 -1.21255 1.62558 0
M  V30 44579 C 4075.22 -1.9137 0.330299 0
M  V30 44580 O 4074.5 -1.82635 -0.668923 0
M  V30 44581 C 4074.78 -2.24712 2.81384 0
M  V30 44582 C 4074.63 -1.58825 4.20826 0
M  V30 44583 C 4075.95 -3.25915 2.95749 0
M  V30 44584 H 4073.07 -0.439473 0.591636 0
M  V30 44585 H 4075.71 -0.504745 1.83173 0
M  V30 44586 H 4073.86 -2.85077 2.63938 0
M  V30 44587 H 4075.54 -1.01967 4.49889 0
M  V30 44588 H 4073.78 -0.891073 4.2455 0
M  V30 44589 H 4074.45 -2.34061 4.99919 0
M  V30 44590 H 4076.93 -2.75583 3.11758 0
M  V30 44591 H 4075.8 -3.9562 3.80495 0
M  V30 44592 H 4076.06 -3.9072 2.06858 0
M  V30 44593 N 4075.12 -1.40523 -0.713506 0
M  V30 44594 C 4076.37 -1.3912 -1.47559 0
M  V30 44595 C 4076.7 0.00588625 -1.94199 0
M  V30 44596 O 4075.98 0.974912 -1.68302 0
M  V30 44597 C 4076.26 -2.38247 -2.70019 0
M  V30 44598 C 4076.11 -3.86988 -2.2926 0
M  V30 44599 C 4077.43 -2.34881 -3.72181 0
M  V30 44600 H 4074.55 -0.506649 -0.535234 0
M  V30 44601 H 4077.19 -1.71673 -0.814142 0
M  V30 44602 H 4075.34 -2.10617 -3.26455 0
M  V30 44603 H 4077.01 -4.25453 -1.7829 0
M  V30 44604 H 4075.26 -4.02721 -1.61239 0
M  V30 44605 H 4075.93 -4.51867 -3.17049 0
M  V30 44606 H 4078.4 -2.59359 -3.2538 0
M  V30 44607 H 4077.28 -3.06284 -4.55501 0
M  V30 44608 H 4077.54 -1.36116 -4.20624 0
M  V30 44609 N 4076.6 0.94594 -1.26054 0
M  V30 44610 C 4078.01 1.50636 -1.10299 0
M  V30 44611 C 4078.36 1.936 0.318343 0
M  V30 44612 O 4077.49 1.79457 1.20931 0
M  V30 44613 C 4078.08 2.73755 -1.99609 0
M  V30 44614 C 4076.64 3.2608 -1.88013 0
M  V30 44615 C 4075.79 1.98879 -1.93242 0
M  V30 44616 H 4078.74 0.761922 -1.39214 0
M  V30 44617 H 4078.76 3.4789 -1.54119 0
M  V30 44618 H 4078.27 2.42453 -3.03048 0
M  V30 44619 H 4076.37 3.62182 -0.87491 0
M  V30 44620 H 4076.49 3.93508 -2.73291 0
M  V30 44621 H 4074.85 2.14566 -1.37235 0
M  V30 44622 H 4075.63 1.69914 -2.98302 0
M  V30 44623 N 4078.08 1.07781 1.14983 0
M  V30 44624 C 4079.01 0.723603 2.22005 0
M  V30 44625 C 4079.99 -0.290995 1.67592 0
M  V30 44626 O 4081.17 -0.162778 1.93517 0
M  V30 44627 C 4078.3 0.125284 3.47074 0
M  V30 44628 C 4077.26 1.06752 4.14473 0
M  V30 44629 C 4076.58 0.331737 5.3367 0
M  V30 44630 C 4077.88 2.40298 4.63739 0
M  V30 44631 H 4079.58 1.61838 2.5189 0
M  V30 44632 H 4077.12 0.779592 1.21072 0
M  V30 44633 H 4079.08 -0.134481 4.21185 0
M  V30 44634 H 4077.8 -0.804598 3.16534 0
M  V30 44635 H 4076.46 1.31228 3.42308 0
M  V30 44636 H 4076.11 -0.601745 4.99388 0
M  V30 44637 H 4075.81 0.959823 5.79708 0
M  V30 44638 H 4077.33 0.0798741 6.10548 0
M  V30 44639 H 4078.75 2.20124 5.29356 0
M  V30 44640 H 4077.14 2.98741 5.20455 0
M  V30 44641 H 4078.21 3.02286 3.79145 0
M  V30 44642 N 4079.56 -1.31901 0.862549 0
M  V30 44643 C 4080.78 -2.01693 0.483195 0
M  V30 44644 C 4081.21 -1.64359 -0.91475 0
M  V30 44645 O 4080.56 -0.848337 -1.60228 0
M  V30 44646 C 4080.61 -3.54894 0.638973 0
M  V30 44647 O 4079.72 -4.11118 -0.32489 0
M  V30 44648 H 4079.06 -0.63529 0.193139 0
M  V30 44649 H 4081.59 -1.68268 1.16392 0
M  V30 44650 H 4081.6 -4.0455 0.529465 0
M  V30 44651 H 4080.27 -3.81408 1.65834 0
M  V30 44652 H 4078.85 -3.72508 -0.17096 0
M  V30 44653 N 4081.03 -0.621255 -1.44838 0
M  V30 44654 C 4081.97 0.12784 -2.28843 0
M  V30 44655 C 4082.98 0.818517 -1.40727 0
M  V30 44656 O 4084.17 0.681616 -1.64973 0
M  V30 44657 C 4081.27 1.20275 -3.16839 0
M  V30 44658 C 4080.44 0.596523 -4.33313 0
M  V30 44659 C 4079.5 1.5641 -5.02416 0
M  V30 44660 O 4078.53 1.08508 -5.58762 0
M  V30 44661 N 4079.73 2.89851 -5.02958 0
M  V30 44662 H 4082.49 -0.593045 -2.93774 0
M  V30 44663 H 4080.05 -0.461707 -1.55177 0
M  V30 44664 H 4082.05 1.85015 -3.59933 0
M  V30 44665 H 4080.62 1.82599 -2.53725 0
M  V30 44666 H 4079.84 -0.229272 -3.93533 0
M  V30 44667 H 4081.12 0.171971 -5.08509 0
M  V30 44668 H 4080.52 3.31359 -4.58495 0
M  V30 44669 H 4079.08 3.49978 -5.49872 0
M  V30 44670 N 4082.51 1.53405 -0.361211 0
M  V30 44671 C 4083.93 1.59597 -0.0099759 0
M  V30 44672 C 4084.13 1.37652 1.47154 0
M  V30 44673 O 4083.18 1.17951 2.23257 0
M  V30 44674 C 4084.5 2.9713 -0.461994 0
M  V30 44675 C 4086.05 3.10225 -0.415841 0
M  V30 44676 C 4086.52 4.50164 -0.843603 0
M  V30 44677 N 4088.01 4.56266 -0.798488 0
M  V30 44678 C 4088.75 5.62726 -1.10121 0
M  V30 44679 N 4088.24 6.7696 -1.473 0
M  V30 44680 N 4090.04 5.52689 -1.0243 0
M  V30 44681 H 4082.19 1.65922 -1.32604 0
M  V30 44682 H 4084.45 0.777975 -0.541718 0
M  V30 44683 H 4084.16 3.18313 -1.49564 0
M  V30 44684 H 4084.03 3.76887 0.153664 0
M  V30 44685 H 4086.42 2.88755 0.608668 0
M  V30 44686 H 4086.5 2.32487 -1.06694 0
M  V30 44687 H 4086.14 4.72372 -1.86621 0
M  V30 44688 H 4086.07 5.26326 -0.169802 0
M  V30 44689 H 4088.56 3.74242 -0.524529 0
M  V30 44690 H 4088.88 7.54131 -1.68837 0
M  V30 44691 H 4087.22 6.78362 -1.51161 0
M  V30 44692 H 4090.41 4.62324 -0.73306 0
M  V30 44693 H 4090.58 6.35561 -1.26356 0
M  V30 44694 N 4083.99 0.0902663 1.57341 0
M  V30 44695 C 4085.22 -0.586489 1.98935 0
M  V30 44696 C 4085.64 -1.61228 0.968869 0
M  V30 44697 O 4085 -1.8119 -0.0632549 0
M  V30 44698 C 4085.05 -1.2151 3.39511 0
M  V30 44699 O 4084.15 -2.33094 3.40207 0
M  V30 44700 H 4083.49 -0.149238 0.647012 0
M  V30 44701 H 4086.02 0.170249 2.0389 0
M  V30 44702 H 4086.03 -1.55756 3.771 0
M  V30 44703 H 4084.71 -0.463566 4.13308 0
M  V30 44704 H 4083.28 -2.00504 3.14408 0
M  V30 44705 N 4085.47 -1.56529 -0.183403 0
M  V30 44706 C 4086.72 -1.80945 -0.900182 0
M  V30 44707 C 4087.04 -0.665278 -1.833 0
M  V30 44708 O 4086.31 0.315663 -1.9334 0
M  V30 44709 H 4084.89 -0.667471 -0.335397 0
M  V30 44710 H 4087.55 -1.94009 -0.186112 0
M  V30 44711 H 4086.65 -2.74544 -1.48432 0
M  V30 44712 N 4086.95 0.451537 -1.50993 0
M  V30 44713 C 4088.19 1.20391 -1.63199 0
M  V30 44714 C 4088.53 1.91193 -0.340443 0
M  V30 44715 O 4087.8 1.82988 0.659228 0
M  V30 44716 C 4088.08 2.23216 -2.82571 0
M  V30 44717 C 4087.94 1.56591 -4.21663 0
M  V30 44718 C 4089.26 3.24342 -2.97474 0
M  V30 44719 H 4086.37 0.436329 -0.593958 0
M  V30 44720 H 4089.02 0.495024 -1.83438 0
M  V30 44721 H 4087.17 2.83674 -2.65446 0
M  V30 44722 H 4088.84 0.995798 -4.50424 0
M  V30 44723 H 4087.08 0.868546 -4.25016 0
M  V30 44724 H 4087.75 2.31407 -5.01154 0
M  V30 44725 H 4090.23 2.73926 -3.13216 0
M  V30 44726 H 4089.1 3.93596 -3.82587 0
M  V30 44727 H 4089.37 3.89617 -2.08928 0
M  V30 44728 N 4088.42 1.409 0.706044 0
M  V30 44729 C 4089.35 1.44684 1.83273 0
M  V30 44730 C 4090.34 0.306658 1.67313 0
M  V30 44731 O 4091.52 0.51663 1.87202 0
M  V30 44732 C 4088.65 1.31806 3.21317 0
M  V30 44733 C 4087.6 2.43526 3.51965 0
M  V30 44734 C 4086.93 2.15719 4.89254 0
M  V30 44735 C 4088.23 3.8587 3.51997 0
M  V30 44736 H 4089.92 2.38976 1.80363 0
M  V30 44737 H 4087.47 1.15025 0.866329 0
M  V30 44738 H 4089.42 1.33067 3.99839 0
M  V30 44739 H 4088.15 0.339936 3.24826 0
M  V30 44740 H 4086.81 2.4153 2.75788 0
M  V30 44741 H 4086.45 1.16275 4.89376 0
M  V30 44742 H 4086.15 2.90575 5.10725 0
M  V30 44743 H 4087.68 2.18679 5.70098 0
M  V30 44744 H 4089.09 3.89638 4.20542 0
M  V30 44745 H 4087.49 4.60323 3.84997 0
M  V30 44746 H 4088.56 4.14771 2.51184 0
M  V30 44747 N 4089.9 -0.939242 1.26554 0
M  V30 44748 C 4090.81 -2.0718 1.10063 0
M  V30 44749 C 4091.83 -1.73967 0.0336296 0
M  V30 44750 O 4093 -1.99992 0.237758 0
M  V30 44751 C 4090.07 -3.38767 0.737401 0
M  V30 44752 C 4089.13 -3.8575 1.88402 0
M  V30 44753 C 4088.36 -5.11058 1.53803 0
M  V30 44754 O 4088.59 -5.68695 0.440643 0
M  V30 44755 O 4087.52 -5.5313 2.37342 0
M  V30 44756 H 4091.35 -2.24001 2.05079 0
M  V30 44757 H 4088.93 -1.05649 1.05634 0
M  V30 44758 H 4090.81 -4.17826 0.547651 0
M  V30 44759 H 4089.49 -3.2318 -0.183347 0
M  V30 44760 H 4088.4 -3.07628 2.12875 0
M  V30 44761 H 4089.73 -4.05861 2.78456 0
M  V30 44762 N 4091.38 -1.08389 -1.14409 0
M  V30 44763 C 4092.63 -0.824525 -1.85939 0
M  V30 44764 C 4092.98 0.642745 -1.81346 0
M  V30 44765 O 4092.27 1.46645 -1.23312 0
M  V30 44766 C 4092.47 -1.28036 -3.33679 0
M  V30 44767 C 4092.3 -2.79041 -3.52656 0
M  V30 44768 C 4091.07 -3.46786 -3.67516 0
M  V30 44769 C 4093.27 -3.77214 -3.49592 0
M  V30 44770 N 4091.25 -4.86324 -3.7465 0
M  V30 44771 C 4092.62 -5.02648 -3.62967 0
M  V30 44772 C 4094.67 -3.70221 -3.32928 0
M  V30 44773 C 4093.38 -6.21918 -3.61401 0
M  V30 44774 C 4095.4 -4.88966 -3.32665 0
M  V30 44775 C 4094.76 -6.13238 -3.46581 0
M  V30 44776 H 4090.86 -0.354425 -0.69707 0
M  V30 44777 H 4093.45 -1.38221 -1.37124 0
M  V30 44778 H 4091.62 -0.750245 -3.81085 0
M  V30 44779 H 4093.35 -0.967426 -3.92967 0
M  V30 44780 H 4090.11 -2.97201 -3.68739 0
M  V30 44781 H 4090.53 -5.58977 -3.81934 0
M  V30 44782 H 4095.17 -2.75077 -3.2108 0
M  V30 44783 H 4092.89 -7.17372 -3.72025 0
M  V30 44784 H 4096.48 -4.85243 -3.20984 0
M  V30 44785 H 4095.36 -7.03583 -3.46324 0
M  V30 44786 N 4092.86 1.31442 -0.869532 0
M  V30 44787 C 4094.1 1.9852 -0.48674 0
M  V30 44788 C 4094.46 1.67232 0.943258 0
M  V30 44789 O 4095.66 2.27519 1.43138 0
M  V30 44790 C 4093.93 3.49738 -0.736089 0
M  V30 44791 S 4095.49 4.36454 -0.453091 0
M  V30 44792 H 4092.31 0.687387 -0.181713 0
M  V30 44793 H 4094.91 1.59855 -1.12546 0
M  V30 44794 H 4093.62 3.69999 -1.77564 0
M  V30 44795 H 4093.15 3.9331 -0.0843433 0
M  V30 44796 H 4095.16 4.91024 0.714805 0
M  V30 44797 N 4094.34 0.628927 1.44507 0
M  V30 44798 C 4095.56 0.139546 2.06429 0
M  V30 44799 C 4095.98 -1.18496 1.46983 0
M  V30 44800 O 4095.34 -1.72635 0.591886 0
M  V30 44801 C 4095.39 0.0162586 3.61496 0
M  V30 44802 O 4095.11 1.28838 4.18727 0
M  V30 44803 C 4096.61 -0.502077 4.40448 0
M  V30 44804 H 4093.83 0.0786596 0.666374 0
M  V30 44805 H 4096.37 0.862707 1.85412 0
M  V30 44806 H 4094.53 -0.657331 3.81783 0
M  V30 44807 H 4094.94 1.1318 5.12143 0
M  V30 44808 H 4096.42 -0.537361 5.49378 0
M  V30 44809 H 4096.89 -1.52869 4.11738 0
M  V30 44810 H 4097.5 0.138188 4.25075 0
M  V30 44811 N 4095.82 -1.53211 0.369342 0
M  V30 44812 C 4097.06 -2.00913 -0.21874 0
M  V30 44813 C 4097.38 -1.25824 -1.48974 0
M  V30 44814 O 4096.65 -0.372572 -1.92325 0
M  V30 44815 H 4095.23 -0.742282 -0.0838204 0
M  V30 44816 H 4097.9 -1.88471 0.496441 0
M  V30 44817 H 4096.99 -3.08939 -0.443072 0
M  V30 44818 N 4097.29 -0.0986092 -1.57291 0
M  V30 44819 C 4098.52 0.572555 -1.9882 0
M  V30 44820 C 4098.94 1.61506 -0.977815 0
M  V30 44821 O 4098.29 1.82472 0.0321064 0
M  V30 44822 C 4098.34 1.2171 -3.40395 0
M  V30 44823 O 4098.07 0.216289 -4.37566 0
M  V30 44824 C 4099.57 1.97354 -3.96946 0
M  V30 44825 H 4096.79 0.153228 -0.65327 0
M  V30 44826 H 4099.33 -0.178934 -2.03716 0
M  V30 44827 H 4097.49 1.9195 -3.36503 0
M  V30 44828 H 4097.9 0.681958 -5.20048 0
M  V30 44829 H 4099.37 2.37807 -4.98148 0
M  V30 44830 H 4099.85 2.84077 -3.34958 0
M  V30 44831 H 4100.46 1.31923 -4.04322 0
M  V30 44832 N 4098.77 1.56624 0.175099 0
M  V30 44833 C 4100.02 1.82048 0.893658 0
M  V30 44834 C 4100.35 0.675863 1.8206 0
M  V30 44835 O 4099.63 -0.32242 1.91809 0
M  V30 44836 C 4099.91 3.17841 1.69261 0
M  V30 44837 C 4099.76 4.42825 0.789044 0
M  V30 44838 C 4101.08 3.50534 2.66109 0
M  V30 44839 H 4098.2 0.662234 0.323442 0
M  V30 44840 H 4100.84 1.89325 0.160044 0
M  V30 44841 H 4098.99 3.11769 2.31803 0
M  V30 44842 H 4100.66 4.60961 0.176789 0
M  V30 44843 H 4098.91 4.33692 0.0968745 0
M  V30 44844 H 4099.58 5.34381 1.38349 0
M  V30 44845 H 4102.05 3.57035 2.13694 0
M  V30 44846 H 4100.93 4.46632 3.19079 0
M  V30 44847 H 4101.19 2.75045 3.46126 0
M  V30 44848 N 4100.25 -0.443523 1.5123 0
M  V30 44849 C 4101.66 -1.02359 1.56139 0
M  V30 44850 C 4102.01 -1.92462 0.381169 0
M  V30 44851 O 4101.14 -2.10478 -0.50278 0
M  V30 44852 C 4101.73 -1.86315 2.8297 0
M  V30 44853 C 4100.29 -2.39383 2.9047 0
M  V30 44854 C 4099.44 -1.18433 2.50737 0
M  V30 44855 H 4102.39 -0.225033 1.57096 0
M  V30 44856 H 4102.41 -2.71699 2.66383 0
M  V30 44857 H 4101.92 -1.20711 3.6885 0
M  V30 44858 H 4100.02 -3.0846 2.09006 0
M  V30 44859 H 4100.14 -2.72603 3.93985 0
M  V30 44860 H 4098.5 -1.52774 2.03794 0
M  V30 44861 H 4099.28 -0.544489 3.38955 0
M  V30 44862 N 4101.73 -1.41272 -0.698562 0
M  V30 44863 C 4102.98 -1.39768 -1.45422 0
M  V30 44864 C 4103.29 -0.00894966 -1.95598 0
M  V30 44865 O 4104.5 0.128709 -2.71195 0
M  V30 44866 C 4102.95 -2.45736 -2.62948 0
M  V30 44867 C 4102.56 -3.90503 -2.19571 0
M  V30 44868 C 4104.3 -2.53365 -3.40597 0
M  V30 44869 C 4102.21 -4.8803 -3.34037 0
M  V30 44870 H 4101.14 -0.519761 -0.546227 0
M  V30 44871 H 4103.79 -1.67083 -0.758649 0
M  V30 44872 H 4102.17 -2.11548 -3.34759 0
M  V30 44873 H 4103.35 -4.33924 -1.55069 0
M  V30 44874 H 4101.66 -3.86507 -1.54923 0
M  V30 44875 H 4104.26 -3.23412 -4.25803 0
M  V30 44876 H 4104.6 -1.56953 -3.85579 0
M  V30 44877 H 4105.14 -2.86629 -2.75841 0
M  V30 44878 H 4101.87 -5.85835 -2.94071 0
M  V30 44879 H 4101.39 -4.4926 -3.97399 0
M  V30 44880 H 4103.07 -5.08647 -3.99859 0
M  V30 44881 N 4103.21 0.932517 -1.27051 0
M  V30 44882 C 4104.45 1.67637 -1.12882 0
M  V30 44883 C 4104.77 1.92243 0.326769 0
M  V30 44884 O 4104.04 1.52527 1.22932 0
M  V30 44885 H 4102.62 0.621281 -0.414752 0
M  V30 44886 H 4105.29 1.11997 -1.59507 0
M  V30 44887 H 4104.38 2.64655 -1.65421 0
M  V30 44888 N 4104.68 1.08995 1.13833 0
M  V30 44889 C 4105.59 0.737279 2.22714 0
M  V30 44890 C 4106.61 -0.258838 1.72064 0
M  V30 44891 O 4107.79 -0.101285 2.01145 0
M  V30 44892 C 4104.85 0.158346 3.46338 0
M  V30 44893 C 4103.91 1.20984 4.119 0
M  V30 44894 C 4103.14 0.658442 5.29623 0
M  V30 44895 O 4103.37 -0.520119 5.68024 0
M  V30 44896 O 4102.3 1.41136 5.85119 0
M  V30 44897 H 4106.13 1.64573 2.55244 0
M  V30 44898 H 4103.71 0.864035 1.2188 0
M  V30 44899 H 4105.59 -0.161407 4.21091 0
M  V30 44900 H 4104.27 -0.723179 3.15518 0
M  V30 44901 H 4103.18 1.58222 3.38993 0
M  V30 44902 H 4104.51 2.06386 4.4684 0
M  V30 44903 N 4106.16 -1.30979 0.87649 0
M  V30 44904 C 4107.41 -1.96465 0.490675 0
M  V30 44905 C 4107.74 -1.69247 -0.958413 0
M  V30 44906 O 4106.99 -0.985173 -1.69094 0
M  V30 44907 C 4107.29 -3.50435 0.702142 0
M  V30 44908 C 4106.96 -3.97686 2.12501 0
M  V30 44909 C 4105.62 -4.10299 2.51412 0
M  V30 44910 C 4107.97 -4.22447 3.05267 0
M  V30 44911 C 4105.3 -4.45029 3.82317 0
M  V30 44912 C 4107.65 -4.58643 4.35695 0
M  V30 44913 C 4106.31 -4.69464 4.7451 0
M  V30 44914 H 4105.58 -0.718918 0.179551 0
M  V30 44915 H 4108.23 -1.55997 1.11072 0
M  V30 44916 H 4106.54 -3.918 -0.00100109 0
M  V30 44917 H 4108.23 -3.99163 0.383349 0
M  V30 44918 H 4104.82 -3.88369 1.81294 0
M  V30 44919 H 4109.01 -4.1219 2.76429 0
M  V30 44920 H 4104.26 -4.51605 4.12144 0
M  V30 44921 H 4108.44 -4.76754 5.07621 0
M  V30 44922 H 4106.06 -4.9613 5.75985 0
M  V30 44923 N 4107.64 -0.636582 -1.44171 0
M  V30 44924 C 4108.57 0.0518308 -2.33442 0
M  V30 44925 C 4109.55 0.8292 -1.4852 0
M  V30 44926 O 4110.74 0.793997 -1.77227 0
M  V30 44927 C 4107.87 1.03032 -3.31665 0
M  V30 44928 C 4106.82 0.364212 -4.26448 0
M  V30 44929 C 4106.15 1.45299 -5.1458 0
M  V30 44930 C 4107.45 -0.732975 -5.17131 0
M  V30 44931 H 4109.14 -0.69364 -2.91254 0
M  V30 44932 H 4106.69 -0.335015 -1.40049 0
M  V30 44933 H 4108.64 1.5207 -3.93005 0
M  V30 44934 H 4107.36 1.80675 -2.72074 0
M  V30 44935 H 4106.02 -0.105569 -3.66448 0
M  V30 44936 H 4105.67 2.22043 -4.51338 0
M  V30 44937 H 4105.37 1.01264 -5.78809 0
M  V30 44938 H 4106.89 1.94507 -5.78791 0
M  V30 44939 H 4108.31 -0.325464 -5.72375 0
M  V30 44940 H 4106.7 -1.09679 -5.89992 0
M  V30 44941 H 4107.77 -1.59787 -4.57817 0
M  V30 44942 N 4109.12 1.53013 -0.377462 0
M  V30 44943 C 4110.36 2.01722 0.208803 0
M  V30 44944 C 4110.7 1.26388 1.47444 0
M  V30 44945 O 4109.97 0.360937 1.91122 0
M  V30 44946 C 4110.25 3.56768 0.488737 0
M  V30 44947 C 4110.11 4.42784 -0.791363 0
M  V30 44948 C 4111.43 4.20942 1.28436 0
M  V30 44949 H 4108.55 0.733234 0.0744153 0
M  V30 44950 H 4111.19 1.83174 -0.504697 0
M  V30 44951 H 4109.34 3.72703 1.09656 0
M  V30 44952 H 4111.01 4.38623 -1.42856 0
M  V30 44953 H 4109.25 4.10273 -1.40922 0
M  V30 44954 H 4109.92 5.4925 -0.550296 0
M  V30 44955 H 4112.4 4.08912 0.770075 0
M  V30 44956 H 4111.28 5.2943 1.44897 0
M  V30 44957 H 4111.54 3.7779 2.29625 0
M  V30 44958 N 4110.6 0.106949 1.57237 0
M  V30 44959 C 4111.54 -0.865107 2.15914 0
M  V30 44960 C 4112.54 -1.28388 1.10512 0
M  V30 44961 O 4113.74 -1.25703 1.28837 0
M  V30 44962 H 4110.12 -0.297053 0.690843 0
M  V30 44963 H 4112.09 -0.345625 2.96392 0
M  V30 44964 C 4110.84 -2.11 2.76359 0
M  V30 44965 H 4110.16 -1.79668 3.57155 0
M  V30 44966 H 4111.6 -2.77048 3.20968 0
M  V30 44967 C 4110.06 -2.89185 1.72839 0
M  V30 44968 O 4110.59 -3.84147 1.17447 0
M  V30 44969 N 4108.8 -2.52949 1.43057 0
M  V30 44970 H 4108.34 -1.75795 1.88292 0
M  V30 44971 H 4108.3 -3.05559 0.740341 0
M  V30 44972 N 4112.07 -1.56715 -0.166791 0
M  V30 44973 C 4113.02 -1.97683 -1.22573 0
M  V30 44974 C 4114.02 -0.866243 -1.45577 0
M  V30 44975 O 4115.22 -1.05137 -1.46103 0
M  V30 44976 H 4111.6 -0.629007 -0.412133 0
M  V30 44977 H 4113.57 -2.85937 -0.853368 0
M  V30 44978 C 4112.32 -2.35671 -2.55645 0
M  V30 44979 H 4111.64 -3.20671 -2.38768 0
M  V30 44980 H 4113.08 -2.68177 -3.28416 0
M  V30 44981 C 4111.54 -1.20183 -3.14734 0
M  V30 44982 O 4112.07 -0.491914 -3.98677 0
M  V30 44983 N 4110.28 -0.971212 -2.7389 0
M  V30 44984 H 4109.82 -1.55026 -2.05729 0
M  V30 44985 H 4109.78 -0.200345 -3.13761 0
M  V30 44986 N 4113.55 0.435497 -1.51463 0
M  V30 44987 C 4114.46 1.55391 -1.75758 0
M  V30 44988 C 4115.48 1.61728 -0.641881 0
M  V30 44989 O 4116.65 1.78935 -0.924342 0
M  V30 44990 C 4113.72 2.91358 -1.87914 0
M  V30 44991 C 4112.78 2.95123 -3.11771 0
M  V30 44992 C 4112.01 4.24604 -3.23337 0
M  V30 44993 O 4112.24 5.17081 -2.40798 0
M  V30 44994 O 4111.17 4.34691 -4.16326 0
M  V30 44995 H 4115 1.37805 -2.70635 0
M  V30 44996 H 4112.58 0.618693 -1.35987 0
M  V30 44997 H 4114.46 3.72048 -1.97884 0
M  V30 44998 H 4113.14 3.09068 -0.962233 0
M  V30 44999 H 4112.05 2.13381 -3.07277 0
M  V30 45000 H 4113.38 2.82358 -4.03156 0
M  V30 45001 N 4115.03 1.41641 0.69106 0
M  V30 45002 C 4116.31 1.31729 1.44592 0
M  V30 45003 C 4116.69 -0.0530253 2.11033 0
M  V30 45004 O 4116.04 -1.06755 2.02029 0
M  V30 45005 C 4116.25 2.47392 2.46167 0
M  V30 45006 C 4117.59 2.88764 3.11288 0
M  V30 45007 O 4118.62 2.47164 2.56492 0
M  V30 45008 O 4117.48 3.60715 4.10545 0
M  V30 45009 H 4114.57 0.518647 0.644154 0
M  V30 45010 H 4117.12 1.53615 0.721157 0
M  V30 45011 H 4115.89 3.38813 1.95758 0
M  V30 45012 H 4115.51 2.27407 3.26147 0
M  V30 45013 N 4116.51 -0.925766 1.27543 0
M  V30 45014 C 4117.76 -1.67036 1.1377 0
M  V30 45015 C 4118.08 -1.92413 -0.316569 0
M  V30 45016 O 4117.35 -1.53177 -1.22121 0
M  V30 45017 H 4115.93 -0.619072 0.418041 0
M  V30 45018 H 4118.59 -1.1115 1.60099 0
M  V30 45019 H 4117.69 -2.63774 1.66822 0
M  V30 45020 N 4117.99 -1.09597 -1.13253 0
M  V30 45021 C 4118.95 -0.740519 -2.16908 0
M  V30 45022 C 4119.95 0.230766 -1.59136 0
M  V30 45023 O 4121.14 0.00872489 -1.74198 0
M  V30 45024 C 4118.27 -0.0954103 -3.40766 0
M  V30 45025 H 4119.46 -1.65852 -2.49866 0
M  V30 45026 H 4117.02 -0.895381 -1.28112 0
M  V30 45027 H 4117.75 0.833739 -3.134 0
M  V30 45028 H 4117.54 -0.794315 -3.8397 0
M  V30 45029 H 4119.03 0.137819 -4.17373 0
M  V30 45030 N 4119.46 1.30512 -0.883424 0
M  V30 45031 C 4120.41 2.25736 -0.320524 0
M  V30 45032 C 4121.4 1.51203 0.550139 0
M  V30 45033 O 4122.59 1.7254 0.394816 0
M  V30 45034 C 4119.72 3.40132 0.465288 0
M  V30 45035 C 4118.81 4.22021 -0.419375 0
M  V30 45036 N 4119.2 4.82449 -1.51911 0
M  V30 45037 C 4117.49 4.45485 -0.214211 0
M  V30 45038 C 4118.2 5.43784 -2.06576 0
M  V30 45039 N 4117.17 5.26288 -1.36093 0
M  V30 45040 H 4120.97 2.70003 -1.16085 0
M  V30 45041 H 4118.49 1.44934 -0.732659 0
M  V30 45042 H 4120.48 4.07394 0.885177 0
M  V30 45043 H 4119.14 2.97406 1.30307 0
M  V30 45044 H 4120.16 4.81711 -1.90197 0
M  V30 45045 H 4116.83 4.1336 0.586529 0
M  V30 45046 H 4118.22 6.01745 -2.98919 0
M  V30 45047 N 4120.94 0.644219 1.43832 0
M  V30 45048 C 4121.89 -0.0528392 2.3074 0
M  V30 45049 C 4122.86 -0.823726 1.44236 0
M  V30 45050 O 4124.04 -0.80214 1.73119 0
M  V30 45051 C 4121.18 -1.0195 3.29697 0
M  V30 45052 C 4120.3 -0.245658 4.31301 0
M  V30 45053 C 4119.43 -1.20531 5.17345 0
M  V30 45054 C 4118.47 -0.421378 6.10648 0
M  V30 45055 N 4117.61 -1.33215 6.89346 0
M  V30 45056 H 4122.45 0.694174 2.89802 0
M  V30 45057 H 4119.99 0.354094 1.42775 0
M  V30 45058 H 4121.94 -1.59346 3.85571 0
M  V30 45059 H 4120.57 -1.73349 2.72305 0
M  V30 45060 H 4119.63 0.444446 3.77795 0
M  V30 45061 H 4120.94 0.364318 4.97468 0
M  V30 45062 H 4120.09 -1.85019 5.778 0
M  V30 45063 H 4118.83 -1.8492 4.51283 0
M  V30 45064 H 4117.84 0.236913 5.49289 0
M  V30 45065 H 4119.06 0.217981 6.7875 0
M  V30 45066 H 4117.01 -1.96301 6.25941 0
M  V30 45067 H 4116.92 -0.776521 7.52001 0
M  V30 45068 H 4118.19 -1.96547 7.54314 0
M  V30 45069 N 4122.42 -1.52811 0.385571 0
M  V30 45070 C 4123.84 -1.59561 0.0353651 0
M  V30 45071 C 4124.04 -1.39975 -1.44945 0
M  V30 45072 O 4123.09 -1.21488 -2.21352 0
M  V30 45073 C 4124.41 -2.96357 0.509207 0
M  V30 45074 C 4125.95 -3.09525 0.465143 0
M  V30 45075 C 4126.43 -4.48765 0.915114 0
M  V30 45076 N 4127.92 -4.54938 0.870975 0
M  V30 45077 C 4128.65 -5.60903 1.1906 0
M  V30 45078 N 4128.15 -6.74531 1.58051 0
M  V30 45079 N 4129.94 -5.50989 1.11209 0
M  V30 45080 H 4122.09 -1.63791 1.35227 0
M  V30 45081 H 4124.36 -0.769258 0.554027 0
M  V30 45082 H 4124.06 -3.15894 1.5461 0
M  V30 45083 H 4123.94 -3.77084 -0.0936853 0
M  V30 45084 H 4126.32 -2.89686 -0.562653 0
M  V30 45085 H 4126.41 -2.3076 1.10379 0
M  V30 45086 H 4126.05 -4.69343 1.94112 0
M  V30 45087 H 4125.98 -5.25989 0.253515 0
M  V30 45088 H 4128.47 -3.7336 0.584001 0
M  V30 45089 H 4128.78 -7.5135 1.80813 0
M  V30 45090 H 4127.13 -6.75871 1.61934 0
M  V30 45091 H 4130.32 -4.611 0.806519 0
M  V30 45092 H 4130.49 -6.33471 1.36451 0
M  V30 45093 N 4123.9 -0.115287 -1.57178 0
M  V30 45094 C 4125.13 0.550636 -1.99127 0
M  V30 45095 C 4125.54 1.60999 -0.99378 0
M  V30 45096 O 4124.88 1.83687 0.0220195 0
M  V30 45097 C 4124.94 1.23874 -3.37484 0
M  V30 45098 C 4124.61 0.327768 -4.55823 0
M  V30 45099 C 4125.6 -0.432145 -5.18101 0
M  V30 45100 C 4123.29 0.239924 -5.01727 0
M  V30 45101 C 4125.28 -1.26767 -6.24667 0
M  V30 45102 C 4122.97 -0.599238 -6.08155 0
M  V30 45103 C 4123.97 -1.35167 -6.69492 0
M  V30 45104 O 4123.65 -2.17691 -7.73864 0
M  V30 45105 H 4123.39 0.150677 -0.658993 0
M  V30 45106 H 4125.94 -0.197324 -2.0445 0
M  V30 45107 H 4124.17 2.03369 -3.28904 0
M  V30 45108 H 4125.86 1.8012 -3.63747 0
M  V30 45109 H 4126.63 -0.374129 -4.83555 0
M  V30 45110 H 4122.5 0.81527 -4.53734 0
M  V30 45111 H 4126.05 -1.85545 -6.72472 0
M  V30 45112 H 4121.95 -0.658661 -6.42131 0
M  V30 45113 H 4122.71 -2.10592 -7.90945 0
M  V30 45114 N 4125.38 1.56801 0.158477 0
M  V30 45115 C 4126.79 1.51208 0.510716 0
M  V30 45116 C 4126.99 0.821765 1.83982 0
M  V30 45117 O 4126.05 0.387488 2.49509 0
M  V30 45118 C 4127.36 2.95963 0.531616 0
M  V30 45119 C 4128.91 3.0684 0.617929 0
M  V30 45120 C 4129.39 4.53079 0.669601 0
M  V30 45121 N 4130.88 4.57377 0.73214 0
M  V30 45122 C 4131.61 5.67891 0.792911 0
M  V30 45123 N 4131.11 6.88005 0.81373 0
M  V30 45124 N 4132.9 5.55895 0.832916 0
M  V30 45125 H 4125.05 2.0008 -0.712876 0
M  V30 45126 H 4127.31 0.912051 -0.258588 0
M  V30 45127 H 4127.02 3.49678 -0.376556 0
M  V30 45128 H 4126.89 3.51301 1.3736 0
M  V30 45129 H 4129.28 2.53151 1.51652 0
M  V30 45130 H 4129.36 2.54566 -0.250978 0
M  V30 45131 H 4129.01 5.07402 -0.224789 0
M  V30 45132 H 4128.94 5.03123 1.55484 0
M  V30 45133 H 4131.43 3.70903 0.723815 0
M  V30 45134 H 4131.74 7.67982 0.861631 0
M  V30 45135 H 4130.09 6.90589 0.781794 0
M  V30 45136 H 4133.28 4.60973 0.813741 0
M  V30 45137 H 4133.45 6.4204 0.876813 0
M  V30 45138 N 4126.86 -0.427458 1.51692 0
M  V30 45139 C 4128.27 -1.00698 1.57216 0
M  V30 45140 C 4128.62 -1.92047 0.401561 0
M  V30 45141 O 4127.74 -2.11 -0.480427 0
M  V30 45142 C 4128.34 -1.83304 2.8493 0
M  V30 45143 C 4126.9 -2.36288 2.92993 0
M  V30 45144 C 4126.04 -1.15767 2.51979 0
M  V30 45145 H 4128.99 -0.208358 1.57326 0
M  V30 45146 H 4129.02 -2.68858 2.6925 0
M  V30 45147 H 4128.53 -1.16792 3.7011 0
M  V30 45148 H 4126.63 -3.06226 2.12266 0
M  V30 45149 H 4126.74 -2.68409 3.96854 0
M  V30 45150 H 4125.11 -1.50604 2.05403 0
M  V30 45151 H 4125.89 -0.508508 3.39513 0
M  V30 45152 N 4128.33 -1.42005 -0.683539 0
M  V30 45153 C 4129.28 -1.45021 -1.81856 0
M  V30 45154 C 4130.28 -0.326881 -1.66216 0
M  V30 45155 O 4131.48 -0.499485 -1.72931 0
M  V30 45156 H 4127.86 -0.454011 -0.599481 0
M  V30 45157 H 4129.83 -2.40655 -1.76431 0
M  V30 45158 C 4128.58 -1.36099 -3.19957 0
M  V30 45159 H 4127.9 -2.21829 -3.32614 0
M  V30 45160 H 4129.34 -1.4227 -3.99418 0
M  V30 45161 C 4127.8 -0.0747252 -3.36817 0
M  V30 45162 O 4128.33 0.875915 -3.92034 0
M  V30 45163 N 4126.53 0.00528298 -2.906 0
M  V30 45164 H 4126.08 -0.769087 -2.45851 0
M  V30 45165 H 4126.04 0.86529 -3.02258 0
M  V30 45166 N 4129.81 0.918989 -1.28033 0
M  V30 45167 C 4131.09 1.64651 -1.05591 0
M  V30 45168 C 4131.47 2.0715 0.406476 0
M  V30 45169 O 4130.82 1.81245 1.3915 0
M  V30 45170 C 4131.03 2.84198 -2.02565 0
M  V30 45171 C 4132.37 3.55339 -2.3242 0
M  V30 45172 O 4133.4 2.94338 -2.00607 0
M  V30 45173 O 4132.26 4.65264 -2.86691 0
M  V30 45174 H 4129.35 0.722067 -0.403173 0
M  V30 45175 H 4131.9 0.968756 -1.39331 0
M  V30 45176 H 4130.67 2.49848 -3.0115 0
M  V30 45177 H 4130.29 3.59689 -1.69439 0
M  V30 45178 N 4131.29 1.10196 1.12671 0
M  V30 45179 C 4132.54 0.842865 1.84125 0
M  V30 45180 C 4132.86 -0.631561 1.83961 0
M  V30 45181 O 4132.12 -1.48144 1.27874 0
M  V30 45182 C 4132.42 1.33328 3.316 0
M  V30 45183 C 4132.08 2.8187 3.51938 0
M  V30 45184 C 4130.75 3.22435 3.57196 0
M  V30 45185 C 4133.1 3.77604 3.59255 0
M  V30 45186 C 4130.43 4.5749 3.67315 0
M  V30 45187 C 4132.78 5.12459 3.70902 0
M  V30 45188 C 4131.44 5.52601 3.74417 0
M  V30 45189 H 4130.71 0.308426 0.673761 0
M  V30 45190 H 4133.36 1.37813 1.32966 0
M  V30 45191 H 4131.66 0.717986 3.85165 0
M  V30 45192 H 4133.36 1.10932 3.85351 0
M  V30 45193 H 4129.95 2.49483 3.48506 0
M  V30 45194 H 4134.14 3.47374 3.54465 0
M  V30 45195 H 4129.39 4.88017 3.68306 0
M  V30 45196 H 4133.57 5.86487 3.75508 0
M  V30 45197 H 4131.19 6.57246 3.82009 0
M  V30 45198 N 4132.77 -1.30042 0.890333 0
M  V30 45199 C 4133.99 -2.00623 0.525868 0
M  V30 45200 C 4134.42 -1.66263 -0.879681 0
M  V30 45201 O 4133.78 -0.882132 -1.58392 0
M  V30 45202 C 4133.82 -3.53458 0.714108 0
M  V30 45203 O 4132.93 -4.11715 -0.237613 0
M  V30 45204 H 4132.27 -0.63105 0.206571 0
M  V30 45205 H 4134.8 -1.65761 1.19935 0
M  V30 45206 H 4134.81 -4.03336 0.615157 0
M  V30 45207 H 4133.48 -3.77804 1.73887 0
M  V30 45208 H 4132.06 -3.72787 -0.0919067 0
M  V30 45209 N 4134.25 -0.651838 -1.43488 0
M  V30 45210 C 4135.21 0.0311534 -2.29179 0
M  V30 45211 C 4136.21 0.751928 -1.42136 0
M  V30 45212 O 4137.4 0.593387 -1.63782 0
M  V30 45213 C 4134.53 1.05484 -3.24169 0
M  V30 45214 H 4135.72 -0.722792 -2.9106 0
M  V30 45215 H 4133.28 -0.412994 -1.50745 0
M  V30 45216 H 4134.01 1.83807 -2.67181 0
M  V30 45217 H 4133.8 0.541684 -3.8834 0
M  V30 45218 H 4135.29 1.53186 -3.88489 0
M  V30 45219 N 4135.72 1.52604 -0.39367 0
M  V30 45220 C 4136.97 2.01634 0.187119 0
M  V30 45221 C 4137.3 1.27996 1.46449 0
M  V30 45222 O 4136.55 0.370097 1.92169 0
M  V30 45223 C 4136.85 3.53926 0.497086 0
M  V30 45224 C 4136.52 4.45601 -0.689255 0
M  V30 45225 C 4135.18 4.7038 -1.0147 0
M  V30 45226 C 4137.53 4.99665 -1.48271 0
M  V30 45227 C 4134.86 5.46472 -2.13507 0
M  V30 45228 C 4137.21 5.76983 -2.59372 0
M  V30 45229 C 4135.88 6.00039 -2.9242 0
M  V30 45230 H 4135.15 0.73783 0.0684716 0
M  V30 45231 H 4137.79 1.83964 -0.531914 0
M  V30 45232 H 4136.1 3.69692 1.2975 0
M  V30 45233 H 4137.8 3.8936 0.95917 0
M  V30 45234 H 4134.39 4.26482 -0.425599 0
M  V30 45235 H 4138.57 4.80443 -1.24451 0
M  V30 45236 H 4133.83 5.62548 -2.39477 0
M  V30 45237 H 4138 6.17876 -3.21252 0
M  V30 45238 H 4135.63 6.58784 -3.79352 0
M  V30 45239 N 4137.2 0.12362 1.57114 0
M  V30 45240 C 4138.13 -0.855426 2.12638 0
M  V30 45241 C 4139.15 -1.22682 1.07019 0
M  V30 45242 O 4140.34 -1.17496 1.34376 0
M  V30 45243 C 4137.44 -2.15587 2.61487 0
M  V30 45244 C 4136.61 -1.95546 3.91255 0
M  V30 45245 C 4135.67 -3.09361 4.25655 0
M  V30 45246 O 4134.69 -2.82073 4.94392 0
M  V30 45247 N 4135.9 -4.35919 3.83347 0
M  V30 45248 H 4138.66 -0.381024 2.97268 0
M  V30 45249 H 4136.22 -0.0606659 1.61786 0
M  V30 45250 H 4138.21 -2.90731 2.81527 0
M  V30 45251 H 4136.78 -2.54361 1.81712 0
M  V30 45252 H 4136 -1.04568 3.80078 0
M  V30 45253 H 4137.29 -1.79466 4.76098 0
M  V30 45254 H 4136.69 -4.60964 3.27916 0
M  V30 45255 H 4135.25 -5.0792 4.08486 0
M  V30 45256 N 4138.68 -1.56883 -0.15016 0
M  V30 45257 C 4139.92 -1.84981 -0.869554 0
M  V30 45258 C 4140.28 -0.70748 -1.7849 0
M  V30 45259 O 4141.48 -0.869432 -2.54351 0
M  V30 45260 C 4139.76 -3.18253 -1.62633 0
M  V30 45261 S 4141.31 -3.67897 -2.39159 0
M  V30 45262 H 4138.13 -0.648793 -0.290842 0
M  V30 45263 H 4140.73 -1.95069 -0.129763 0
M  V30 45264 H 4139.44 -3.99365 -0.945302 0
M  V30 45265 H 4138.97 -3.11163 -2.4071 0
M  V30 45266 H 4140.98 -3.3691 -3.64288 0
M  V30 45267 N 4140.16 0.419408 -1.51917 0
M  V30 45268 C 4141.09 1.52909 -1.70738 0
M  V30 45269 C 4142.1 1.51816 -0.587843 0
M  V30 45270 O 4143.29 1.56268 -0.862704 0
M  V30 45271 C 4140.39 2.91816 -1.72327 0
M  V30 45272 C 4139.57 3.17215 -3.01153 0
M  V30 45273 C 4138.62 4.3594 -2.94691 0
M  V30 45274 O 4137.65 4.3372 -3.68613 0
M  V30 45275 N 4138.85 5.40493 -2.11772 0
M  V30 45276 H 4141.62 1.37162 -2.66471 0
M  V30 45277 H 4139.18 0.608581 -1.50026 0
M  V30 45278 H 4141.17 3.69291 -1.65549 0
M  V30 45279 H 4139.74 3.01071 -0.841118 0
M  V30 45280 H 4138.96 2.27877 -3.21661 0
M  V30 45281 H 4140.25 3.31023 -3.86395 0
M  V30 45282 H 4139.65 5.4514 -1.51124 0
M  V30 45283 H 4138.2 6.16751 -2.10859 0
M  V30 45284 N 4141.64 1.42366 0.675998 0
M  V30 45285 C 4142.58 1.4575 1.78957 0
M  V30 45286 C 4143.55 0.309592 1.63189 0
M  V30 45287 O 4144.74 0.513492 1.8376 0
M  V30 45288 C 4141.88 1.36447 3.1698 0
M  V30 45289 C 4140.99 2.61263 3.44043 0
M  V30 45290 C 4140.13 2.44111 4.71787 0
M  V30 45291 C 4139.17 3.64308 4.9188 0
M  V30 45292 N 4138.3 3.46105 6.10865 0
M  V30 45293 H 4143.14 2.40913 1.75399 0
M  V30 45294 H 4140.68 1.19609 0.856272 0
M  V30 45295 H 4142.64 1.29051 3.96739 0
M  V30 45296 H 4141.27 0.4488 3.19665 0
M  V30 45297 H 4140.32 2.79031 2.58546 0
M  V30 45298 H 4141.63 3.50613 3.54784 0
M  V30 45299 H 4140.79 2.34295 5.59635 0
M  V30 45300 H 4139.52 1.52249 4.63326 0
M  V30 45301 H 4138.53 3.74558 4.02475 0
M  V30 45302 H 4139.75 4.57149 5.02187 0
M  V30 45303 H 4137.7 2.56959 6.03579 0
M  V30 45304 H 4137.62 4.29042 6.22462 0
M  V30 45305 H 4138.89 3.40098 7.01394 0
M  V30 45306 N 4143.11 -0.912187 1.28518 0
M  V30 45307 C 4144.06 -2.01481 1.12579 0
M  V30 45308 C 4145.03 -1.66085 0.022492 0
M  V30 45309 O 4146.22 -1.89874 0.187713 0
M  V30 45310 C 4143.36 -3.35811 0.795288 0
M  V30 45311 C 4142.47 -3.84067 1.97778 0
M  V30 45312 C 4141.6 -5.06916 1.58777 0
M  V30 45313 C 4140.64 -5.47508 2.73681 0
M  V30 45314 N 4139.78 -6.61546 2.35161 0
M  V30 45315 H 4144.62 -2.14447 2.06922 0
M  V30 45316 H 4142.16 -1.05036 1.02985 0
M  V30 45317 H 4144.12 -4.13087 0.584411 0
M  V30 45318 H 4142.75 -3.22608 -0.11121 0
M  V30 45319 H 4141.8 -3.02936 2.30074 0
M  V30 45320 H 4143.11 -4.1011 2.83921 0
M  V30 45321 H 4142.26 -5.91739 1.33904 0
M  V30 45322 H 4141 -4.82684 0.697651 0
M  V30 45323 H 4140.01 -4.61226 2.9925 0
M  V30 45324 H 4141.23 -5.73727 3.63338 0
M  V30 45325 H 4139.18 -6.38943 1.48622 0
M  V30 45326 H 4139.1 -6.87322 3.14839 0
M  V30 45327 H 4140.36 -7.4967 2.13577 0
M  V30 45328 N 4144.59 -1.10792 -1.12085 0
M  V30 45329 C 4145.53 -0.703958 -2.17071 0
M  V30 45330 C 4146.5 0.296543 -1.59873 0
M  V30 45331 O 4147.69 0.194566 -1.87493 0
M  V30 45332 C 4144.81 -0.0392814 -3.38677 0
M  V30 45333 C 4143.86 -1.00385 -4.14518 0
M  V30 45334 S 4144.69 -2.52303 -4.72338 0
M  V30 45335 C 4145.85 -1.87116 -5.97276 0
M  V30 45336 H 4146.08 -1.59329 -2.51001 0
M  V30 45337 H 4143.62 -0.925284 -1.23604 0
M  V30 45338 H 4145.57 0.337878 -4.09107 0
M  V30 45339 H 4144.23 0.826906 -3.0302 0
M  V30 45340 H 4143.43 -0.486097 -5.0165 0
M  V30 45341 H 4143.03 -1.3231 -3.49814 0
M  V30 45342 H 4145.32 -1.20358 -6.66724 0
M  V30 45343 H 4146.26 -2.7222 -6.53683 0
M  V30 45344 H 4146.67 -1.33414 -5.48508 0
M  V30 45345 N 4146.07 1.29568 -0.897217 0
M  V30 45346 C 4147 2.25978 -0.317656 0
M  V30 45347 C 4147.98 1.52328 0.568757 0
M  V30 45348 O 4149.17 1.81297 0.51612 0
M  V30 45349 C 4146.29 3.34246 0.547453 0
M  V30 45350 C 4145.34 4.25636 -0.271302 0
M  V30 45351 S 4146.17 5.08876 -1.66749 0
M  V30 45352 C 4147.33 6.20647 -0.809235 0
M  V30 45353 H 4147.56 2.74788 -1.13485 0
M  V30 45354 H 4145.09 1.37752 -0.697403 0
M  V30 45355 H 4147.05 3.97086 1.04081 0
M  V30 45356 H 4145.71 2.84136 1.33886 0
M  V30 45357 H 4144.91 5.02493 0.389434 0
M  V30 45358 H 4144.51 3.67434 -0.697715 0
M  V30 45359 H 4146.8 6.77493 -0.0315327 0
M  V30 45360 H 4147.74 6.90932 -1.54981 0
M  V30 45361 H 4148.15 5.63321 -0.364719 0
M  V30 45362 N 4147.55 0.659438 1.4314 0
M  V30 45363 C 4148.46 -0.0288302 2.34582 0
M  V30 45364 C 4149.47 -0.805485 1.54233 0
M  V30 45365 O 4150.65 -0.751314 1.86862 0
M  V30 45366 C 4147.72 -0.979062 3.32589 0
M  V30 45367 C 4146.78 -0.198649 4.2884 0
M  V30 45368 C 4146.01 -1.10362 5.22165 0
M  V30 45369 O 4146.23 -2.34298 5.20058 0
M  V30 45370 O 4145.17 -0.572679 5.99169 0
M  V30 45371 H 4148.99 0.723999 2.94944 0
M  V30 45372 H 4146.58 0.419634 1.43386 0
M  V30 45373 H 4148.46 -1.52498 3.92839 0
M  V30 45374 H 4147.13 -1.71201 2.74722 0
M  V30 45375 H 4146.04 0.391007 3.72051 0
M  V30 45376 H 4147.37 0.49486 4.89706 0
M  V30 45377 N 4149.03 -1.52393 0.401757 0
M  V30 45378 C 4150.27 -2.02029 -0.176684 0
M  V30 45379 C 4150.61 -1.28717 -1.45415 0
M  V30 45380 O 4149.88 -0.391297 -1.90523 0
M  V30 45381 C 4150.16 -3.575 -0.431917 0
M  V30 45382 C 4150.02 -4.41469 0.861706 0
M  V30 45383 C 4151.34 -4.22932 -1.21723 0
M  V30 45384 H 4148.45 -0.734325 -0.0627407 0
M  V30 45385 H 4151.1 -1.82348 0.533774 0
M  V30 45386 H 4149.25 -3.74401 -1.03712 0
M  V30 45387 H 4150.92 -4.36295 1.49816 0
M  V30 45388 H 4149.16 -4.07979 1.47431 0
M  V30 45389 H 4149.83 -5.48305 0.637607 0
M  V30 45390 H 4152.31 -4.10085 -0.704923 0
M  V30 45391 H 4151.18 -5.31668 -1.36456 0
M  V30 45392 H 4151.45 -3.81395 -2.23585 0
M  V30 45393 N 4150.5 -0.131951 -1.57047 0
M  V30 45394 C 4151.44 0.844137 -2.13089 0
M  V30 45395 C 4152.45 1.22112 -1.07668 0
M  V30 45396 O 4153.64 1.16782 -1.34997 0
M  V30 45397 C 4150.74 2.14197 -2.62627 0
M  V30 45398 C 4149.91 1.93468 -3.92287 0
M  V30 45399 C 4148.97 3.071 -4.27289 0
M  V30 45400 O 4148 2.79447 -4.95881 0
M  V30 45401 N 4149.2 4.3388 -3.85653 0
M  V30 45402 H 4151.96 0.365253 -2.97466 0
M  V30 45403 H 4149.52 0.0520851 -1.61816 0
M  V30 45404 H 4151.52 2.89234 -2.83065 0
M  V30 45405 H 4150.09 2.53394 -1.83058 0
M  V30 45406 H 4149.31 1.02551 -3.80627 0
M  V30 45407 H 4150.59 1.76938 -4.77043 0
M  V30 45408 H 4149.99 4.59218 -3.30356 0
M  V30 45409 H 4148.55 5.05747 -4.11174 0
M  V30 45410 N 4151.98 1.5696 0.141838 0
M  V30 45411 C 4152.93 1.98653 1.17497 0
M  V30 45412 C 4153.9 0.854943 1.42408 0
M  V30 45413 O 4155.08 1.11741 1.54656 0
M  V30 45414 C 4152.22 2.37666 2.50218 0
M  V30 45415 C 4151.34 3.64139 2.32437 0
M  V30 45416 C 4150.47 3.92231 3.58229 0
M  V30 45417 C 4149.51 5.11958 3.35507 0
M  V30 45418 N 4148.65 5.36035 4.53443 0
M  V30 45419 H 4153.49 2.86712 0.812423 0
M  V30 45420 H 4151.03 1.41844 0.389697 0
M  V30 45421 H 4152.98 2.58315 3.27612 0
M  V30 45422 H 4151.61 1.5268 2.8441 0
M  V30 45423 H 4150.67 3.51237 1.46072 0
M  V30 45424 H 4151.98 4.51689 2.1161 0
M  V30 45425 H 4151.13 4.13406 4.4405 0
M  V30 45426 H 4149.87 3.03113 3.82065 0
M  V30 45427 H 4148.88 4.90651 2.48075 0
M  V30 45428 H 4150.1 6.02634 3.13064 0
M  V30 45429 H 4148.05 4.49872 4.77442 0
M  V30 45430 H 4147.96 6.17864 4.35637 0
M  V30 45431 H 4149.23 5.61712 5.40462 0
M  V30 45432 N 4153.46 -0.411345 1.52137 0
M  V30 45433 C 4154.41 -1.50104 1.75321 0
M  V30 45434 C 4155.38 -1.55055 0.59558 0
M  V30 45435 O 4156.56 -1.71661 0.832889 0
M  V30 45436 C 4153.7 -2.87574 1.90775 0
M  V30 45437 C 4152.82 -2.9195 3.18416 0
M  V30 45438 C 4151.95 -4.20706 3.24315 0
M  V30 45439 C 4150.99 -4.19048 4.46167 0
M  V30 45440 N 4150.13 -5.39371 4.4947 0
M  V30 45441 H 4154.97 -1.29637 2.68325 0
M  V30 45442 H 4152.5 -0.629303 1.32959 0
M  V30 45443 H 4154.46 -3.67374 1.97718 0
M  V30 45444 H 4153.09 -3.06542 1.01154 0
M  V30 45445 H 4152.14 -2.04656 3.20656 0
M  V30 45446 H 4153.46 -2.8659 4.0825 0
M  V30 45447 H 4152.61 -5.08896 3.30317 0
M  V30 45448 H 4151.35 -4.28759 2.32416 0
M  V30 45449 H 4150.35 -3.29248 4.40314 0
M  V30 45450 H 4151.58 -4.12637 5.39359 0
M  V30 45451 H 4149.52 -5.48096 3.60454 0
M  V30 45452 H 4149.44 -5.35996 5.33146 0
M  V30 45453 H 4150.71 -6.29521 4.59699 0
M  V30 45454 N 4154.94 -1.42722 -0.668439 0
M  V30 45455 C 4156.16 -1.4715 -1.46156 0
M  V30 45456 C 4156.59 -0.0860982 -1.87903 0
M  V30 45457 O 4155.95 0.916863 -1.56408 0
M  V30 45458 C 4156 -2.40953 -2.68279 0
M  V30 45459 O 4155.1 -1.88529 -3.66784 0
M  V30 45460 H 4154.44 -0.498319 -0.438833 0
M  V30 45461 H 4156.97 -1.87479 -0.81932 0
M  V30 45462 H 4156.98 -2.57748 -3.16275 0
M  V30 45463 H 4155.66 -3.41603 -2.37234 0
M  V30 45464 H 4154.23 -1.81321 -3.25848 0
M  V30 45465 N 4156.42 0.905358 -1.29 0
M  V30 45466 C 4157.66 1.65531 -1.16643 0
M  V30 45467 C 4157.99 1.92426 0.283261 0
M  V30 45468 O 4157.25 1.52888 1.22163 0
M  V30 45469 C 4157.55 3.01502 -1.91914 0
M  V30 45470 C 4157.21 2.94237 -3.41666 0
M  V30 45471 C 4155.87 2.91963 -3.82507 0
M  V30 45472 C 4158.23 2.83863 -4.37117 0
M  V30 45473 C 4155.55 2.77126 -5.17125 0
M  V30 45474 C 4157.91 2.70566 -5.71819 0
M  V30 45475 C 4156.57 2.66654 -6.11925 0
M  V30 45476 H 4155.84 0.605723 -0.426827 0
M  V30 45477 H 4158.49 1.05419 -1.59872 0
M  V30 45478 H 4156.79 3.65449 -1.41259 0
M  V30 45479 H 4158.49 3.5845 -1.79762 0
M  V30 45480 H 4155.08 2.96806 -3.09199 0
M  V30 45481 H 4159.26 2.84701 -4.06521 0
M  V30 45482 H 4154.52 2.72498 -5.47316 0
M  V30 45483 H 4158.69 2.61508 -6.45435 0
M  V30 45484 H 4156.32 2.54915 -7.16186 0
M  V30 45485 N 4157.9 1.11385 1.11495 0
M  V30 45486 C 4158.81 0.784354 2.211 0
M  V30 45487 C 4159.82 -0.222283 1.72574 0
M  V30 45488 O 4161 -0.0585966 2.01315 0
M  V30 45489 C 4158.06 0.231774 3.45924 0
M  V30 45490 C 4157.12 1.29694 4.09241 0
M  V30 45491 C 4156.36 0.770635 5.28107 0
M  V30 45492 O 4156.58 -0.399516 5.68999 0
M  V30 45493 O 4155.51 1.53516 5.81994 0
M  V30 45494 H 4159.34 1.6995 2.51696 0
M  V30 45495 H 4156.92 0.889693 1.2002 0
M  V30 45496 H 4158.81 -0.0720507 4.21338 0
M  V30 45497 H 4157.48 -0.65609 3.16981 0
M  V30 45498 H 4156.39 1.65377 3.35561 0
M  V30 45499 H 4157.72 2.15817 4.42361 0
M  V30 45500 N 4159.37 -1.2909 0.904076 0
M  V30 45501 C 4160.28 -2.31338 0.389865 0
M  V30 45502 C 4161.3 -1.66123 -0.517599 0
M  V30 45503 O 4162.48 -1.97263 -0.406124 0
M  V30 45504 C 4159.54 -3.44716 -0.370408 0
M  V30 45505 C 4158.6 -4.25511 0.569107 0
M  V30 45506 C 4157.83 -5.33475 -0.154978 0
M  V30 45507 O 4158.06 -5.53499 -1.37824 0
M  V30 45508 O 4156.99 -5.9978 0.504747 0
M  V30 45509 H 4160.82 -2.7731 1.23825 0
M  V30 45510 H 4158.4 -1.33607 0.668551 0
M  V30 45511 H 4160.28 -4.13733 -0.800165 0
M  V30 45512 H 4158.96 -3.00843 -1.19478 0
M  V30 45513 H 4157.87 -3.59119 1.04807 0
M  V30 45514 H 4159.2 -4.73037 1.36002 0
M  V30 45515 N 4160.85 -0.66702 -1.42789 0
M  V30 45516 C 4161.8 0.0161238 -2.30794 0
M  V30 45517 C 4162.77 0.800675 -1.45528 0
M  V30 45518 O 4163.95 0.774497 -1.74374 0
M  V30 45519 C 4161.09 0.966916 -3.31277 0
M  V30 45520 C 4160.21 0.17701 -4.31637 0
M  V30 45521 C 4159.34 1.12285 -5.19197 0
M  V30 45522 C 4158.38 0.324176 -6.11241 0
M  V30 45523 N 4157.52 1.22232 -6.91378 0
M  V30 45524 H 4162.36 -0.740191 -2.88661 0
M  V30 45525 H 4159.89 -0.376763 -1.42193 0
M  V30 45526 H 4161.85 1.53192 -3.88057 0
M  V30 45527 H 4160.48 1.68995 -2.75028 0
M  V30 45528 H 4159.53 -0.504494 -3.7704 0
M  V30 45529 H 4160.85 -0.443415 -4.96825 0
M  V30 45530 H 4160 1.75803 -5.8067 0
M  V30 45531 H 4158.74 1.77717 -4.54167 0
M  V30 45532 H 4157.74 -0.32427 -5.48843 0
M  V30 45533 H 4158.97 -0.325937 -6.78317 0
M  V30 45534 H 4156.92 1.86318 -6.28984 0
M  V30 45535 H 4156.83 0.656786 -7.53142 0
M  V30 45536 H 4158.1 1.84521 -7.57345 0
M  V30 45537 N 4162.33 1.52178 -0.409833 0
M  V30 45538 C 4163.56 2.0594 0.164959 0
M  V30 45539 C 4163.97 1.27975 1.39352 0
M  V30 45540 O 4163.31 0.325021 1.80802 0
M  V30 45541 C 4163.37 3.54797 0.579597 0
M  V30 45542 C 4163.04 4.53818 -0.538328 0
M  V30 45543 C 4164.03 5.00636 -1.40211 0
M  V30 45544 C 4161.72 4.97239 -0.711221 0
M  V30 45545 C 4163.71 5.8952 -2.42373 0
M  V30 45546 C 4161.4 5.85919 -1.73615 0
M  V30 45547 C 4162.4 6.31954 -2.59081 0
M  V30 45548 O 4162.09 7.18878 -3.59819 0
M  V30 45549 H 4161.82 0.675588 0.0236077 0
M  V30 45550 H 4164.37 1.97053 -0.579607 0
M  V30 45551 H 4162.6 3.61373 1.37646 0
M  V30 45552 H 4164.29 3.91202 1.08239 0
M  V30 45553 H 4165.06 4.67806 -1.27995 0
M  V30 45554 H 4160.94 4.60966 -0.0556423 0
M  V30 45555 H 4164.48 6.25374 -3.09117 0
M  V30 45556 H 4160.38 6.18163 -1.85862 0
M  V30 45557 H 4161.14 7.36991 -3.56071 0
M  V30 45558 N 4163.81 0.140278 1.56974 0
M  V30 45559 C 4164.72 -0.815169 2.19982 0
M  V30 45560 C 4165.73 -1.27678 1.18213 0
M  V30 45561 O 4166.91 -1.33536 1.50765 0
M  V30 45562 C 4163.97 -2.03941 2.80373 0
M  V30 45563 C 4163.04 -1.62767 3.97247 0
M  V30 45564 C 4162.27 -2.79355 4.54749 0
M  V30 45565 O 4162.49 -3.95382 4.11131 0
M  V30 45566 O 4161.43 -2.55214 5.45114 0
M  V30 45567 H 4165.25 -0.308855 3.02125 0
M  V30 45568 H 4162.84 -0.0864147 1.4915 0
M  V30 45569 H 4164.72 -2.756 3.18783 0
M  V30 45570 H 4163.39 -2.53537 2.01247 0
M  V30 45571 H 4162.3 -0.881516 3.63566 0
M  V30 45572 H 4163.63 -1.17893 4.77873 0
M  V30 45573 N 4165.29 -1.57033 -0.133512 0
M  V30 45574 C 4166.53 -1.84354 -0.845077 0
M  V30 45575 C 4166.86 -0.723896 -1.80204 0
M  V30 45576 O 4166.14 0.271451 -1.92596 0
M  V30 45577 C 4166.42 -3.22217 -1.60774 0
M  V30 45578 C 4166.28 -4.44762 -0.671359 0
M  V30 45579 C 4167.59 -3.57466 -2.56722 0
M  V30 45580 H 4164.71 -0.670577 -0.305771 0
M  V30 45581 H 4167.36 -1.89683 -0.109791 0
M  V30 45582 H 4165.51 -3.17805 -2.23455 0
M  V30 45583 H 4167.18 -4.61268 -0.0545112 0
M  V30 45584 H 4165.42 -4.33796 0.0181452 0
M  V30 45585 H 4166.09 -5.37862 -1.24132 0
M  V30 45586 H 4168.57 -3.62575 -2.04153 0
M  V30 45587 H 4167.44 -4.54934 -3.07125 0
M  V30 45588 H 4167.7 -2.84125 -3.38712 0
M  V30 45589 N 4166.76 0.403271 -1.52353 0
M  V30 45590 C 4168.01 1.14968 -1.66699 0
M  V30 45591 C 4168.34 1.90346 -0.399813 0
M  V30 45592 O 4167.59 1.85706 0.617398 0
M  V30 45593 C 4167.89 2.1651 -2.84356 0
M  V30 45594 C 4167.56 1.57895 -4.2235 0
M  V30 45595 C 4166.22 1.41635 -4.59884 0
M  V30 45596 C 4168.57 1.15145 -5.08322 0
M  V30 45597 C 4165.9 0.8115 -5.81061 0
M  V30 45598 C 4168.25 0.560764 -6.3011 0
M  V30 45599 C 4166.92 0.385339 -6.66387 0
M  V30 45600 H 4166.19 0.420697 -0.609996 0
M  V30 45601 H 4168.83 0.436131 -1.86468 0
M  V30 45602 H 4167.14 2.94031 -2.58946 0
M  V30 45603 H 4168.84 2.74146 -2.92651 0
M  V30 45604 H 4165.43 1.71536 -3.92777 0
M  V30 45605 H 4169.61 1.26515 -4.79904 0
M  V30 45606 H 4164.87 0.663653 -6.07787 0
M  V30 45607 H 4169.04 0.221145 -6.96049 0
M  V30 45608 H 4166.67 -0.0854386 -7.60152 0
M  V30 45609 N 4168.24 1.43075 0.66086 0
M  V30 45610 C 4169.17 1.42083 1.78571 0
M  V30 45611 C 4170.15 0.283247 1.60114 0
M  V30 45612 O 4171.34 0.47565 1.824 0
M  V30 45613 C 4168.46 1.22508 3.15768 0
M  V30 45614 C 4167.51 2.39442 3.52944 0
M  V30 45615 S 4168.34 4.0199 3.53786 0
M  V30 45616 C 4169.5 3.84783 4.93652 0
M  V30 45617 H 4169.73 2.37267 1.79141 0
M  V30 45618 H 4167.26 1.30014 0.832808 0
M  V30 45619 H 4169.22 1.11901 3.94954 0
M  V30 45620 H 4167.88 0.288852 3.12769 0
M  V30 45621 H 4167.08 2.21531 4.52703 0
M  V30 45622 H 4166.68 2.46636 2.81153 0
M  V30 45623 H 4168.97 3.46636 5.82108 0
M  V30 45624 H 4169.91 4.84268 5.16614 0
M  V30 45625 H 4170.32 3.17384 4.66827 0
M  V30 45626 N 4169.72 -0.898504 1.29478 0
M  V30 45627 C 4171 -1.6295 1.08197 0
M  V30 45628 C 4171.38 -2.0777 -0.373469 0
M  V30 45629 O 4170.73 -1.83435 -1.36249 0
M  V30 45630 C 4170.94 -2.80939 2.07061 0
M  V30 45631 C 4172.28 -3.51597 2.38044 0
M  V30 45632 O 4173.31 -2.9111 2.05265 0
M  V30 45633 O 4172.17 -4.60644 2.94056 0
M  V30 45634 H 4169.26 -0.715561 0.414609 0
M  V30 45635 H 4171.81 -0.946467 1.40855 0
M  V30 45636 H 4170.58 -2.45025 3.05087 0
M  V30 45637 H 4170.2 -3.56948 1.7514 0
M  V30 45638 N 4171.2 -1.11974 -1.10903 0
M  V30 45639 C 4172.44 -0.873343 -1.83032 0
M  V30 45640 C 4172.78 0.599439 -1.84717 0
M  V30 45641 O 4172.05 1.44286 -1.30429 0
M  V30 45642 C 4172.34 -1.44267 -3.29938 0
M  V30 45643 C 4172.19 -2.98347 -3.36614 0
M  V30 45644 C 4173.51 -1.09822 -4.26177 0
M  V30 45645 H 4170.63 -0.318713 -0.664523 0
M  V30 45646 H 4173.27 -1.38555 -1.3001 0
M  V30 45647 H 4171.42 -1.00703 -3.75221 0
M  V30 45648 H 4173.09 -3.50555 -2.99848 0
M  V30 45649 H 4171.33 -3.34127 -2.76662 0
M  V30 45650 H 4172 -3.33273 -4.40037 0
M  V30 45651 H 4174.48 -1.47439 -3.89103 0
M  V30 45652 H 4173.36 -1.52327 -5.2734 0
M  V30 45653 H 4173.62 -0.00974609 -4.42099 0
M  V30 45654 N 4172.68 1.28609 -0.910909 0
M  V30 45655 C 4173.92 1.96871 -0.549651 0
M  V30 45656 C 4174.28 1.70149 0.889577 0
M  V30 45657 O 4175.48 2.31958 1.35827 0
M  V30 45658 C 4173.75 3.47219 -0.846983 0
M  V30 45659 S 4175.31 4.34792 -0.591716 0
M  V30 45660 H 4172.13 0.681258 -0.20349 0
M  V30 45661 H 4174.73 1.56193 -1.17575 0
M  V30 45662 H 4173.44 3.64163 -1.89245 0
M  V30 45663 H 4172.97 3.92842 -0.209429 0
M  V30 45664 H 4174.98 4.9305 0.558227 0
M  V30 45665 N 4174.15 0.674583 1.42433 0
M  V30 45666 C 4175.09 -0.0428186 2.2916 0
M  V30 45667 C 4176.1 -0.765723 1.43668 0
M  V30 45668 O 4177.29 -0.619918 1.6739 0
M  V30 45669 C 4174.39 -1.08433 3.21085 0
M  V30 45670 C 4173.56 -0.435291 4.35229 0
M  V30 45671 C 4172.62 -1.37656 5.07875 0
M  V30 45672 O 4171.65 -0.876948 5.62404 0
M  V30 45673 N 4172.85 -2.70985 5.13369 0
M  V30 45674 H 4175.61 0.701669 2.9137 0
M  V30 45675 H 4173.17 0.518981 1.53356 0
M  V30 45676 H 4175.17 -1.71529 3.66551 0
M  V30 45677 H 4173.74 -1.73056 2.60328 0
M  V30 45678 H 4172.96 0.375172 3.92411 0
M  V30 45679 H 4174.24 0.0168777 5.08797 0
M  V30 45680 H 4173.64 -3.14114 4.70477 0
M  V30 45681 H 4172.2 -3.29328 5.62482 0
M  V30 45682 N 4175.63 -1.51958 0.417898 0
M  V30 45683 C 4176.58 -2.28816 -0.417856 0
M  V30 45684 C 4177.57 -1.33863 -1.03812 0
M  V30 45685 O 4178.78 -1.51287 -0.975315 0
M  V30 45686 H 4175.16 -0.736158 -0.153544 0
M  V30 45687 H 4177.13 -2.97338 0.251472 0
M  V30 45688 C 4175.88 -3.12839 -1.51747 0
M  V30 45689 H 4175.2 -3.85778 -1.04953 0
M  V30 45690 H 4176.64 -3.69707 -2.07589 0
M  V30 45691 C 4175.1 -2.26961 -2.48979 0
M  V30 45692 O 4175.63 -1.91587 -3.53069 0
M  V30 45693 N 4173.83 -1.9056 -2.19398 0
M  V30 45694 H 4173.38 -2.19526 -1.34782 0
M  V30 45695 H 4173.34 -1.33395 -2.84699 0
M  V30 45696 N 4177.11 -0.1486 -1.56898 0
M  V30 45697 C 4178.36 0.502112 -1.96176 0
M  V30 45698 C 4178.69 1.64768 -1.03353 0
M  V30 45699 O 4177.94 1.95598 -0.0630556 0
M  V30 45700 C 4178.24 1.04789 -3.41693 0
M  V30 45701 C 4177.91 0.0206069 -4.50895 0
M  V30 45702 C 4176.57 -0.261787 -4.80487 0
M  V30 45703 C 4178.92 -0.677874 -5.16773 0
M  V30 45704 C 4176.25 -1.24844 -5.73263 0
M  V30 45705 C 4178.6 -1.65336 -6.10612 0
M  V30 45706 C 4177.26 -1.94343 -6.38582 0
M  V30 45707 H 4176.53 0.183736 -0.717859 0
M  V30 45708 H 4179.18 -0.235768 -1.90043 0
M  V30 45709 H 4177.49 1.86314 -3.44666 0
M  V30 45710 H 4179.18 1.55998 -3.69413 0
M  V30 45711 H 4175.77 0.250888 -4.27865 0
M  V30 45712 H 4179.96 -0.4729 -4.94042 0
M  V30 45713 H 4175.21 -1.47961 -5.93226 0
M  V30 45714 H 4179.39 -2.20009 -6.60734 0
M  V30 45715 H 4177.01 -2.70948 -7.10275 0
M  V30 45716 N 4178.59 1.57102 0.125182 0
M  V30 45717 C 4179.52 1.96526 1.17941 0
M  V30 45718 C 4180.53 0.863781 1.37995 0
M  V30 45719 O 4181.72 1.1421 1.3718 0
M  V30 45720 C 4178.82 2.24301 2.54052 0
M  V30 45721 C 4178 3.55605 2.54683 0
M  V30 45722 C 4177.05 3.71664 3.72494 0
M  V30 45723 O 4176.08 4.43839 3.56364 0
M  V30 45724 N 4177.28 3.09966 4.90817 0
M  V30 45725 H 4180.05 2.87567 0.844107 0
M  V30 45726 H 4177.61 1.58815 0.314524 0
M  V30 45727 H 4179.6 2.32265 3.31414 0
M  V30 45728 H 4178.17 1.39417 2.79789 0
M  V30 45729 H 4177.39 3.58885 1.6308 0
M  V30 45730 H 4178.68 4.41922 2.52156 0
M  V30 45731 H 4178.08 2.51285 5.06826 0
M  V30 45732 H 4176.63 3.23461 5.65877 0
M  V30 45733 N 4180.07 -0.395186 1.52565 0
M  V30 45734 C 4181.48 -0.973401 1.59317 0
M  V30 45735 C 4181.83 -1.91152 0.442207 0
M  V30 45736 O 4180.95 -2.11971 -0.435563 0
M  V30 45737 C 4181.55 -1.77219 2.88754 0
M  V30 45738 C 4180.11 -2.3002 2.97939 0
M  V30 45739 C 4179.25 -1.10396 2.54378 0
M  V30 45740 H 4182.21 -0.17494 1.57733 0
M  V30 45741 H 4182.23 -2.63087 2.74892 0
M  V30 45742 H 4181.74 -1.08915 3.72504 0
M  V30 45743 H 4179.84 -3.01654 2.18713 0
M  V30 45744 H 4179.95 -2.59931 4.02458 0
M  V30 45745 H 4178.32 -1.46213 2.08551 0
M  V30 45746 H 4179.1 -0.436378 3.40515 0
M  V30 45747 N 4181.54 -1.43423 -0.653263 0
M  V30 45748 C 4182.79 -1.45253 -1.41525 0
M  V30 45749 C 4183.12 -0.0764855 -1.94049 0
M  V30 45750 O 4182.4 0.902651 -1.72286 0
M  V30 45751 C 4182.68 -2.49485 -2.59671 0
M  V30 45752 C 4182.53 -3.96364 -2.1264 0
M  V30 45753 C 4183.85 -2.50455 -3.61884 0
M  V30 45754 H 4180.97 -0.528894 -0.513264 0
M  V30 45755 H 4183.61 -1.74972 -0.740597 0
M  V30 45756 H 4181.76 -2.24274 -3.17228 0
M  V30 45757 H 4183.44 -4.32632 -1.60084 0
M  V30 45758 H 4181.68 -4.09198 -1.44013 0
M  V30 45759 H 4182.35 -4.64908 -2.97599 0
M  V30 45760 H 4184.83 -2.72927 -3.14086 0
M  V30 45761 H 4183.7 -3.25328 -4.42101 0
M  V30 45762 H 4183.96 -1.53833 -4.14473 0
M  V30 45763 N 4183.02 0.891625 -1.29953 0
M  V30 45764 C 4184.27 1.64285 -1.18392 0
M  V30 45765 C 4184.6 1.92716 0.262835 0
M  V30 45766 O 4183.85 1.54175 1.20535 0
M  V30 45767 C 4184.15 2.9945 -1.95101 0
M  V30 45768 C 4183.82 2.90597 -3.44767 0
M  V30 45769 C 4182.48 2.87889 -3.85582 0
M  V30 45770 C 4184.83 2.79211 -4.40103 0
M  V30 45771 C 4182.16 2.71625 -5.20035 0
M  V30 45772 C 4184.51 2.64486 -5.74657 0
M  V30 45773 C 4183.18 2.60149 -6.14719 0
M  V30 45774 H 4182.45 0.601161 -0.433227 0
M  V30 45775 H 4185.09 1.03717 -1.60981 0
M  V30 45776 H 4183.4 3.6393 -1.45127 0
M  V30 45777 H 4185.09 3.56524 -1.83554 0
M  V30 45778 H 4181.68 2.9351 -3.1233 0
M  V30 45779 H 4185.87 2.80373 -4.09517 0
M  V30 45780 H 4181.12 2.66678 -5.50175 0
M  V30 45781 H 4185.3 2.54648 -6.48172 0
M  V30 45782 H 4182.93 2.47305 -7.18849 0
M  V30 45783 N 4184.5 1.12561 1.10308 0
M  V30 45784 C 4185.92 0.861935 1.34324 0
M  V30 45785 C 4186.12 -0.507284 1.9501 0
M  V30 45786 O 4185.17 -1.2557 2.19063 0
M  V30 45787 C 4186.49 1.97939 2.26364 0
M  V30 45788 C 4188.03 2.01043 2.39897 0
M  V30 45789 C 4188.51 3.12026 3.35267 0
M  V30 45790 N 4190 3.11477 3.42836 0
M  V30 45791 C 4190.74 3.93991 4.16604 0
M  V30 45792 N 4190.23 4.86496 4.93247 0
M  V30 45793 N 4192.02 3.82123 4.12236 0
M  V30 45794 H 4184.18 2.00781 0.692864 0
M  V30 45795 H 4186.44 0.873796 0.367674 0
M  V30 45796 H 4186.14 2.9661 1.88985 0
M  V30 45797 H 4186.02 1.8857 3.26682 0
M  V30 45798 H 4188.41 1.02991 2.76545 0
M  V30 45799 H 4188.49 2.14486 1.39389 0
M  V30 45800 H 4188.13 4.10311 2.99345 0
M  V30 45801 H 4188.06 2.95821 4.35657 0
M  V30 45802 H 4190.55 2.44462 2.88178 0
M  V30 45803 H 4190.86 5.45965 5.46938 0
M  V30 45804 H 4189.21 4.90509 4.92367 0
M  V30 45805 H 4192.4 3.09188 3.51454 0
M  V30 45806 H 4192.57 4.4666 4.69467 0
M  V30 45807 N 4185.98 -1.28124 0.917717 0
M  V30 45808 C 4187.21 -1.98636 0.568099 0
M  V30 45809 C 4187.62 -1.68733 -0.855909 0
M  V30 45810 O 4186.96 -0.938727 -1.57904 0
M  V30 45811 C 4187.02 -3.52577 0.702106 0
M  V30 45812 C 4186.69 -4.06079 2.09639 0
M  V30 45813 C 4187.68 -4.19614 3.06953 0
M  V30 45814 C 4185.37 -4.40674 2.41064 0
M  V30 45815 C 4187.36 -4.67002 4.33806 0
M  V30 45816 C 4185.05 -4.87755 3.68156 0
M  V30 45817 C 4186.05 -5.00876 4.64341 0
M  V30 45818 O 4185.74 -5.46929 5.89172 0
M  V30 45819 H 4185.47 -0.640921 0.214933 0
M  V30 45820 H 4188.02 -1.64189 1.23415 0
M  V30 45821 H 4186.25 -3.86694 -0.0210205 0
M  V30 45822 H 4187.94 -4.04309 0.359012 0
M  V30 45823 H 4188.71 -3.93157 2.83994 0
M  V30 45824 H 4184.59 -4.29709 1.66947 0
M  V30 45825 H 4188.13 -4.77159 5.08887 0
M  V30 45826 H 4184.03 -5.13652 3.90938 0
M  V30 45827 H 4184.79 -5.65205 5.92018 0
M  V30 45828 N 4187.46 -0.682127 -1.42073 0
M  V30 45829 C 4188.7 -0.207442 -2.01435 0
M  V30 45830 C 4189.03 1.18848 -1.53965 0
M  V30 45831 O 4188.29 1.81344 -0.735725 0
M  V30 45832 C 4188.59 -0.198685 -3.56847 0
M  V30 45833 C 4188.25 -1.54028 -4.23776 0
M  V30 45834 C 4186.91 -1.9076 -4.41774 0
M  V30 45835 C 4189.27 -2.42351 -4.61427 0
M  V30 45836 C 4186.59 -3.15426 -4.94695 0
M  V30 45837 C 4188.95 -3.66337 -5.15733 0
M  V30 45838 C 4187.61 -4.03228 -5.31943 0
M  V30 45839 H 4186.88 -0.0759083 -0.737102 0
M  V30 45840 H 4189.53 -0.878562 -1.70157 0
M  V30 45841 H 4187.83 0.55596 -3.87835 0
M  V30 45842 H 4189.53 0.185915 -4.00569 0
M  V30 45843 H 4186.12 -1.24455 -4.10133 0
M  V30 45844 H 4190.3 -2.15257 -4.47189 0
M  V30 45845 H 4185.56 -3.44021 -5.0543 0
M  V30 45846 H 4189.73 -4.34972 -5.43849 0
M  V30 45847 H 4187.36 -4.99903 -5.72714 0
M  V30 45848 N 4188.94 1.51735 -0.425951 0
M  V30 45849 C 4190.18 2.03895 0.143622 0
M  V30 45850 C 4190.54 1.30378 1.40945 0
M  V30 45851 O 4191.74 1.72852 2.05854 0
M  V30 45852 C 4190.01 3.55494 0.368621 0
M  V30 45853 S 4191.57 4.29403 0.903231 0
M  V30 45854 H 4188.39 0.710027 0.0371849 0
M  V30 45855 H 4190.99 1.86613 -0.582739 0
M  V30 45856 H 4189.69 4.06573 -0.559177 0
M  V30 45857 H 4189.23 3.77049 1.12238 0
M  V30 45858 H 4191.24 4.45647 2.18205 0
M  V30 45859 N 4190.41 0.156919 1.56817 0
M  V30 45860 C 4191.35 -0.817258 2.13064 0
M  V30 45861 C 4192.32 -1.23571 1.05683 0
M  V30 45862 O 4193.51 -1.33005 1.33573 0
M  V30 45863 C 4190.64 -2.09868 2.65845 0
M  V30 45864 C 4189.68 -1.82537 3.85464 0
M  V30 45865 S 4190.51 -1.00748 5.25937 0
M  V30 45866 C 4191.67 -2.29988 5.82114 0
M  V30 45867 H 4191.9 -0.338977 2.95361 0
M  V30 45868 H 4189.44 -0.0575268 1.54293 0
M  V30 45869 H 4191.39 -2.83476 2.96903 0
M  V30 45870 H 4190.06 -2.5481 1.83659 0
M  V30 45871 H 4189.25 -2.7758 4.20673 0
M  V30 45872 H 4188.85 -1.17032 3.55217 0
M  V30 45873 H 4191.14 -3.25564 5.9415 0
M  V30 45874 H 4192.09 -1.99269 6.79483 0
M  V30 45875 H 4192.49 -2.4109 5.10427 0
M  V30 45876 N 4191.89 -1.57166 -0.116849 0
M  V30 45877 C 4192.8 -2.03799 -1.16204 0
M  V30 45878 C 4193.82 -0.958774 -1.45202 0
M  V30 45879 O 4194.99 -1.27043 -1.56275 0
M  V30 45880 C 4192.06 -2.43478 -2.46818 0
M  V30 45881 C 4191.12 -3.65492 -2.25198 0
M  V30 45882 C 4190.35 -4.03269 -3.49585 0
M  V30 45883 O 4190.58 -3.41365 -4.56975 0
M  V30 45884 O 4189.51 -4.96358 -3.40459 0
M  V30 45885 H 4193.34 -2.93082 -0.796036 0
M  V30 45886 H 4190.92 -1.4576 -0.3278 0
M  V30 45887 H 4192.8 -2.69724 -3.2377 0
M  V30 45888 H 4191.48 -1.5734 -2.82888 0
M  V30 45889 H 4190.38 -3.44392 -1.46098 0
M  V30 45890 H 4191.72 -4.52341 -1.94031 0
M  V30 45891 N 4193.37 0.38709 -1.52772 0
M  V30 45892 C 4194.32 1.47296 -1.77687 0
M  V30 45893 C 4195.29 1.54088 -0.620172 0
M  V30 45894 O 4196.47 1.70315 -0.860094 0
M  V30 45895 C 4193.61 2.84503 -1.95326 0
M  V30 45896 C 4192.72 2.86848 -3.23021 0
M  V30 45897 C 4191.86 4.15493 -3.30967 0
M  V30 45898 C 4190.9 4.11897 -4.52778 0
M  V30 45899 N 4190.04 5.32152 -4.57994 0
M  V30 45900 H 4194.88 1.25352 -2.70353 0
M  V30 45901 H 4192.41 0.60807 -1.33944 0
M  V30 45902 H 4194.37 3.64182 -2.03537 0
M  V30 45903 H 4193 3.04894 -1.06018 0
M  V30 45904 H 4192.05 1.99528 -3.23871 0
M  V30 45905 H 4193.36 2.80058 -4.12757 0
M  V30 45906 H 4192.52 5.03577 -3.38372 0
M  V30 45907 H 4191.26 4.25007 -2.39208 0
M  V30 45908 H 4190.26 3.22201 -4.45496 0
M  V30 45909 H 4191.49 4.04004 -5.45855 0
M  V30 45910 H 4189.43 5.42292 -3.69128 0
M  V30 45911 H 4189.35 5.27446 -5.41605 0
M  V30 45912 H 4190.62 6.22128 -4.69656 0
M  V30 45913 N 4194.85 1.43768 0.645648 0
M  V30 45914 C 4196.09 1.45785 1.40545 0
M  V30 45915 C 4196.42 0.0849663 1.94314 0
M  V30 45916 O 4195.68 -0.91116 1.73195 0
M  V30 45917 C 4195.98 2.45364 2.59868 0
M  V30 45918 C 4195.64 3.91053 2.24473 0
M  V30 45919 C 4194.3 4.30731 2.14532 0
M  V30 45920 C 4196.66 4.82832 1.96272 0
M  V30 45921 C 4193.98 5.60131 1.74557 0
M  V30 45922 C 4196.34 6.12604 1.57793 0
M  V30 45923 C 4195 6.51251 1.46383 0
M  V30 45924 H 4194.27 0.533467 0.51429 0
M  V30 45925 H 4196.92 1.76894 0.733544 0
M  V30 45926 H 4195.22 2.07686 3.32225 0
M  V30 45927 H 4196.92 2.44177 3.18086 0
M  V30 45928 H 4193.51 3.59655 2.33123 0
M  V30 45929 H 4197.69 4.52944 2.02869 0
M  V30 45930 H 4192.95 5.88906 1.64315 0
M  V30 45931 H 4197.12 6.83188 1.35006 0
M  V30 45932 H 4194.75 7.51424 1.1518 0
M  V30 45933 N 4196.33 -0.884721 1.30424 0
M  V30 45934 C 4197.26 -2.00664 1.194 0
M  V30 45935 C 4198.24 -1.69889 0.0845978 0
M  V30 45936 O 4199.42 -1.9236 0.266674 0
M  V30 45937 C 4196.55 -3.35827 0.885303 0
M  V30 45938 C 4195.51 -3.80861 1.95267 0
M  V30 45939 C 4194.83 -5.13318 1.49696 0
M  V30 45940 C 4196.13 -3.9956 3.36377 0
M  V30 45941 H 4197.83 -2.10145 2.13259 0
M  V30 45942 H 4195.37 -1.00969 1.02671 0
M  V30 45943 H 4197.32 -4.13836 0.794836 0
M  V30 45944 H 4196.05 -3.26479 -0.0889721 0
M  V30 45945 H 4194.71 -3.0508 2.03277 0
M  V30 45946 H 4194.36 -5.00398 0.510943 0
M  V30 45947 H 4194.06 -5.4442 2.21089 0
M  V30 45948 H 4195.58 -5.93852 1.42028 0
M  V30 45949 H 4196.99 -4.68006 3.31124 0
M  V30 45950 H 4195.39 -4.42039 4.05859 0
M  V30 45951 H 4196.46 -3.03407 3.78249 0
M  V30 45952 N 4197.8 -1.13144 -1.09709 0
M  V30 45953 C 4199.08 -0.802597 -1.78375 0
M  V30 45954 C 4199.46 0.706357 -1.98932 0
M  V30 45955 O 4198.81 1.64264 -1.58838 0
M  V30 45956 C 4199.02 -1.58621 -3.10871 0
M  V30 45957 C 4200.37 -1.77702 -3.85626 0
M  V30 45958 O 4201.39 -1.55195 -3.20613 0
M  V30 45959 O 4200.25 -2.15236 -5.0233 0
M  V30 45960 H 4197.34 -0.292732 -0.773458 0
M  V30 45961 H 4199.89 -1.23589 -1.16292 0
M  V30 45962 H 4198.66 -2.61182 -2.91375 0
M  V30 45963 H 4198.28 -1.14765 -3.80677 0
M  V30 45964 N 4199.28 1.27635 -0.924498 0
M  V30 45965 C 4200.69 1.76513 -0.608286 0
M  V30 45966 C 4201.04 1.75532 0.876529 0
M  V30 45967 O 4200.17 1.35677 1.68584 0
M  V30 45968 C 4200.76 3.20534 -1.09743 0
M  V30 45969 C 4199.32 3.67091 -0.831946 0
M  V30 45970 C 4198.47 2.47123 -1.258 0
M  V30 45971 H 4201.42 1.13947 -1.10462 0
M  V30 45972 H 4201.44 3.77905 -0.443669 0
M  V30 45973 H 4200.95 3.21216 -2.17812 0
M  V30 45974 H 4199.06 3.71858 0.235076 0
M  V30 45975 H 4199.17 4.56719 -1.44724 0
M  V30 45976 H 4197.53 2.45549 -0.676584 0
M  V30 45977 H 4198.32 2.50517 -2.34726 0
M  V30 45978 N 4200.76 0.689652 1.41709 0
M  V30 45979 C 4201.72 0.0296203 2.29181 0
M  V30 45980 C 4202.72 -0.713979 1.4408 0
M  V30 45981 O 4203.91 -0.549754 1.65298 0
M  V30 45982 C 4201.05 -0.968525 3.26852 0
M  V30 45983 H 4202.24 0.799707 2.89041 0
M  V30 45984 H 4199.79 0.452817 1.49597 0
M  V30 45985 H 4200.53 -1.76658 2.7196 0
M  V30 45986 H 4200.31 -0.438532 3.8964 0
M  V30 45987 H 4201.8 -1.42832 3.92414 0
M  V30 45988 N 4202.24 -1.51507 0.433991 0
M  V30 45989 C 4203.49 -2.01247 -0.135078 0
M  V30 45990 C 4203.8 -1.32291 -1.44078 0
M  V30 45991 O 4205.01 -1.72982 -2.09259 0
M  V30 45992 C 4203.46 -3.58719 -0.291272 0
M  V30 45993 C 4203.07 -4.3661 1.0038 0
M  V30 45994 C 4204.81 -4.16617 -0.814291 0
M  V30 45995 C 4202.72 -5.85779 0.813427 0
M  V30 45996 H 4201.65 -0.752045 -0.0542561 0
M  V30 45997 H 4204.3 -1.74642 0.563242 0
M  V30 45998 H 4202.68 -3.81757 -1.05252 0
M  V30 45999 H 4203.86 -4.2532 1.77311 0
M  V30 46000 H 4202.17 -3.90149 1.45509 0
M  V30 46001 H 4204.77 -5.2577 -0.973154 0
M  V30 46002 H 4205.11 -3.75574 -1.79583 0
M  V30 46003 H 4205.65 -3.97644 -0.111449 0
M  V30 46004 H 4202.39 -6.31228 1.76724 0
M  V30 46005 H 4201.91 -5.99741 0.0838494 0
M  V30 46006 H 4203.58 -6.45325 0.465309 0
M  V30 46007 N 4203.72 -0.165233 -1.56731 0
M  V30 46008 C 4204.96 0.475509 -1.97764 0
M  V30 46009 C 4205.32 1.61269 -1.0493 0
M  V30 46010 O 4204.61 1.91399 -0.0877847 0
M  V30 46011 C 4204.8 1.01159 -3.42785 0
M  V30 46012 C 4204.63 -0.0721124 -4.49642 0
M  V30 46013 C 4203.4 -0.519722 -5.0262 0
M  V30 46014 C 4205.6 -0.870289 -5.06883 0
M  V30 46015 N 4203.58 -1.58436 -5.93103 0
M  V30 46016 C 4204.95 -1.785 -5.93749 0
M  V30 46017 C 4207.01 -0.916048 -4.89401 0
M  V30 46018 C 4205.71 -2.74159 -6.65003 0
M  V30 46019 C 4207.74 -1.86055 -5.61371 0
M  V30 46020 C 4207.1 -2.76275 -6.47959 0
M  V30 46021 H 4203.2 0.142281 -0.768947 0
M  V30 46022 H 4205.78 -0.264047 -1.92901 0
M  V30 46023 H 4203.95 1.72069 -3.48205 0
M  V30 46024 H 4205.69 1.62046 -3.70841 0
M  V30 46025 H 4202.44 -0.11856 -4.73452 0
M  V30 46026 H 4202.87 -2.11699 -6.43049 0
M  V30 46027 H 4207.51 -0.232576 -4.2216 0
M  V30 46028 H 4205.23 -3.43497 -7.31461 0
M  V30 46029 H 4208.81 -1.90199 -5.49832 0
M  V30 46030 H 4207.69 -3.4817 -7.02672 0
M  V30 46031 N 4205.19 1.57226 0.108512 0
M  V30 46032 C 4206.44 1.854 0.814434 0
M  V30 46033 C 4206.77 0.751842 1.79381 0
M  V30 46034 O 4206.02 -0.25585 1.9402 0
M  V30 46035 C 4206.32 3.20105 1.58958 0
M  V30 46036 C 4205.99 4.44559 0.753542 0
M  V30 46037 C 4204.65 4.78349 0.523027 0
M  V30 46038 C 4207 5.20918 0.171482 0
M  V30 46039 C 4204.33 5.85934 -0.29963 0
M  V30 46040 C 4206.68 6.2937 -0.638424 0
M  V30 46041 C 4205.35 6.61685 -0.879157 0
M  V30 46042 H 4204.62 0.678427 0.298023 0
M  V30 46043 H 4207.26 1.91348 0.0764023 0
M  V30 46044 H 4205.57 3.09781 2.39881 0
M  V30 46045 H 4207.27 3.39129 2.13993 0
M  V30 46046 H 4203.86 4.1809 0.943308 0
M  V30 46047 H 4208.04 4.95156 0.336765 0
M  V30 46048 H 4203.3 6.09391 -0.495257 0
M  V30 46049 H 4207.47 6.87715 -1.09638 0
M  V30 46050 H 4205.1 7.44881 -1.51842 0
M  V30 46051 N 4206.67 -0.378982 1.52975 0
M  V30 46052 C 4207.58 -1.48761 1.81404 0
M  V30 46053 C 4208.6 -1.59234 0.701463 0
M  V30 46054 O 4209.77 -1.75381 0.990116 0
M  V30 46055 C 4206.84 -2.84183 1.98598 0
M  V30 46056 C 4205.9 -2.83348 3.22509 0
M  V30 46057 C 4205.13 -4.12311 3.38873 0
M  V30 46058 O 4205.36 -5.07787 2.59823 0
M  V30 46059 O 4204.29 -4.18939 4.32173 0
M  V30 46060 H 4208.12 -1.27666 2.75563 0
M  V30 46061 H 4205.7 -0.567796 1.3819 0
M  V30 46062 H 4207.58 -3.64448 2.11556 0
M  V30 46063 H 4206.26 -3.05283 1.07628 0
M  V30 46064 H 4205.17 -2.01829 3.14985 0
M  V30 46065 H 4206.5 -2.67201 4.13358 0
M  V30 46066 N 4208.15 -1.44108 -0.638015 0
M  V30 46067 C 4209.1 -1.50444 -1.7503 0
M  V30 46068 C 4210.07 -0.35275 -1.62311 0
M  V30 46069 O 4211.25 -0.562033 -1.82334 0
M  V30 46070 C 4208.39 -1.44803 -3.13251 0
M  V30 46071 C 4207.51 -2.70293 -3.36995 0
M  V30 46072 C 4206.64 -2.56534 -4.65149 0
M  V30 46073 C 4205.68 -3.77221 -4.82049 0
M  V30 46074 N 4204.82 -3.6218 -6.01474 0
M  V30 46075 H 4209.66 -2.45479 -1.6895 0
M  V30 46076 H 4207.19 -1.21838 -0.824258 0
M  V30 46077 H 4209.15 -1.39525 -3.93178 0
M  V30 46078 H 4207.78 -0.533396 -3.18363 0
M  V30 46079 H 4206.83 -2.85787 -2.51057 0
M  V30 46080 H 4208.15 -3.59896 -3.45364 0
M  V30 46081 H 4207.3 -2.4905 -5.53226 0
M  V30 46082 H 4206.04 -1.6448 -4.59127 0
M  V30 46083 H 4205.04 -3.85097 -3.92403 0
M  V30 46084 H 4206.27 -4.70303 -4.8989 0
M  V30 46085 H 4204.21 -2.72872 -5.96554 0
M  V30 46086 H 4204.13 -4.45394 -6.10868 0
M  V30 46087 H 4205.4 -3.58574 -6.9213 0
M  V30 46088 N 4209.63 0.877792 -1.30891 0
M  V30 46089 C 4211.04 1.16226 -1.09379 0
M  V30 46090 C 4211.24 2.01007 0.140818 0
M  V30 46091 O 4210.3 2.38385 0.832388 0
M  V30 46092 C 4211.61 1.86197 -2.36117 0
M  V30 46093 C 4213.16 1.98931 -2.41651 0
M  V30 46094 C 4213.64 2.72316 -3.6825 0
M  V30 46095 N 4215.13 2.79857 -3.69099 0
M  V30 46096 C 4215.86 3.37231 -4.63749 0
M  V30 46097 N 4215.36 3.95597 -5.68748 0
M  V30 46098 N 4217.15 3.35114 -4.51281 0
M  V30 46099 H 4209.3 0.312656 -2.10086 0
M  V30 46100 H 4211.57 0.201085 -0.926428 0
M  V30 46101 H 4211.27 1.31347 -3.26253 0
M  V30 46102 H 4211.15 2.86531 -2.45316 0
M  V30 46103 H 4213.53 2.52949 -1.51989 0
M  V30 46104 H 4213.61 0.976633 -2.36422 0
M  V30 46105 H 4213.26 2.18968 -4.58274 0
M  V30 46106 H 4213.19 3.73975 -3.70743 0
M  V30 46107 H 4215.68 2.38425 -2.93193 0
M  V30 46108 H 4215.99 4.37464 -6.3706 0
M  V30 46109 H 4214.34 3.93996 -5.72532 0
M  V30 46110 H 4217.53 2.88749 -3.68431 0
M  V30 46111 H 4217.7 3.79531 -5.25224 0
M  V30 46112 N 4211.11 1.13725 1.09108 0
M  V30 46113 C 4212.04 0.840265 2.17857 0
M  V30 46114 C 4213.02 -0.201749 1.68899 0
M  V30 46115 O 4214.2 -0.0599705 1.94107 0
M  V30 46116 C 4211.33 0.309085 3.45922 0
M  V30 46117 C 4210.29 1.28572 4.08232 0
M  V30 46118 C 4209.61 0.614158 5.31161 0
M  V30 46119 C 4210.91 2.64542 4.5035 0
M  V30 46120 H 4212.61 1.74963 2.42957 0
M  V30 46121 H 4210.15 0.842674 1.16769 0
M  V30 46122 H 4212.11 0.0889691 4.21306 0
M  V30 46123 H 4210.83 -0.635679 3.20354 0
M  V30 46124 H 4209.49 1.49188 3.34871 0
M  V30 46125 H 4209.14 -0.336184 5.01875 0
M  V30 46126 H 4208.84 1.26576 5.73805 0
M  V30 46127 H 4210.36 0.4034 6.09266 0
M  V30 46128 H 4211.77 2.47875 5.16944 0
M  V30 46129 H 4210.17 3.25909 5.03888 0
M  V30 46130 H 4211.24 3.21959 3.62589 0
M  V30 46131 N 4212.58 -1.27143 0.931254 0
M  V30 46132 C 4213.55 -2.24981 0.437749 0
M  V30 46133 C 4214.55 -1.54501 -0.445661 0
M  V30 46134 O 4215.74 -1.72451 -0.246239 0
M  V30 46135 C 4212.87 -3.38883 -0.370267 0
M  V30 46136 H 4214.06 -2.70152 1.30222 0
M  V30 46137 H 4211.62 -1.39127 0.712276 0
M  V30 46138 H 4212.35 -2.99099 -1.25341 0
M  V30 46139 H 4212.14 -3.91216 0.263178 0
M  V30 46140 H 4213.63 -4.11592 -0.705803 0
M  V30 46141 N 4214.06 -0.697157 -1.41342 0
M  V30 46142 C 4215.29 -0.237532 -2.0523 0
M  V30 46143 C 4215.7 1.1189 -1.52569 0
M  V30 46144 O 4215.04 1.71067 -0.669462 0
M  V30 46145 C 4215.11 -0.119429 -3.59302 0
M  V30 46146 C 4214.77 -1.40815 -4.34764 0
M  V30 46147 C 4215.77 -2.34633 -4.63943 0
M  V30 46148 C 4213.45 -1.66197 -4.74008 0
M  V30 46149 C 4215.45 -3.52092 -5.31328 0
M  V30 46150 C 4213.13 -2.83941 -5.41129 0
M  V30 46151 C 4214.13 -3.76712 -5.69717 0
M  V30 46152 O 4213.82 -4.92394 -6.35456 0
M  V30 46153 H 4213.55 -0.107851 -0.667341 0
M  V30 46154 H 4216.11 -0.950729 -1.82072 0
M  V30 46155 H 4214.34 0.649551 -3.81206 0
M  V30 46156 H 4216.02 0.303221 -4.04766 0
M  V30 46157 H 4216.79 -2.16282 -4.34105 0
M  V30 46158 H 4212.67 -0.948494 -4.51137 0
M  V30 46159 H 4216.21 -4.24522 -5.53559 0
M  V30 46160 H 4212.11 -3.02208 -5.70386 0
M  V30 46161 H 4212.88 -4.92229 -6.53951 0
M  V30 46162 N 4215.54 1.51274 -0.44202 0
M  V30 46163 C 4216.77 2.06543 0.121415 0
M  V30 46164 C 4217.18 1.30898 1.36056 0
M  V30 46165 O 4216.54 0.369865 1.78713 0
M  V30 46166 C 4216.59 3.58826 0.43892 0
M  V30 46167 O 4216.31 4.31614 -0.751045 0
M  V30 46168 C 4217.81 4.30624 1.05252 0
M  V30 46169 H 4215.03 0.670975 0.00584884 0
M  V30 46170 H 4217.58 1.94797 -0.622449 0
M  V30 46171 H 4215.73 3.70471 1.13269 0
M  V30 46172 H 4216.15 5.22316 -0.478116 0
M  V30 46173 H 4217.62 5.38244 1.22464 0
M  V30 46174 H 4218.1 3.89219 2.03482 0
M  V30 46175 H 4218.7 4.23434 0.397994 0
M  V30 46176 N 4217.02 0.173543 1.56642 0
M  V30 46177 C 4218.44 -0.182597 1.58552 0
M  V30 46178 C 4218.64 -1.62683 1.18898 0
M  V30 46179 O 4217.69 -2.35854 0.901618 0
M  V30 46180 C 4219 0.100234 3.00533 0
M  V30 46181 C 4220.55 0.038622 3.12976 0
M  V30 46182 C 4221.03 0.294472 4.57052 0
M  V30 46183 N 4222.52 0.242326 4.62566 0
M  V30 46184 C 4223.25 0.414434 5.719 0
M  V30 46185 N 4222.75 0.645718 6.89784 0
M  V30 46186 N 4224.54 0.350184 5.61008 0
M  V30 46187 H 4216.69 1.11623 1.80704 0
M  V30 46188 H 4218.96 0.443926 0.837636 0
M  V30 46189 H 4218.66 1.10079 3.34029 0
M  V30 46190 H 4218.54 -0.60713 3.72282 0
M  V30 46191 H 4220.92 -0.95251 2.79305 0
M  V30 46192 H 4221 0.778731 2.43658 0
M  V30 46193 H 4220.65 1.28282 4.91433 0
M  V30 46194 H 4220.58 -0.466274 5.24532 0
M  V30 46195 H 4223.07 0.0693015 3.77836 0
M  V30 46196 H 4223.38 0.766435 7.6899 0
M  V30 46197 H 4221.73 0.682359 6.91642 0
M  V30 46198 H 4224.92 0.170068 4.67791 0
M  V30 46199 H 4225.09 0.487739 6.46162 0
M  V30 46200 N 4218.5 -1.57281 -0.100172 0
M  V30 46201 C 4219.72 -1.90408 -0.822156 0
M  V30 46202 C 4220.15 -0.767328 -1.71737 0
M  V30 46203 O 4219.51 0.281338 -1.79104 0
M  V30 46204 C 4219.55 -3.22376 -1.61574 0
M  V30 46205 O 4218.66 -3.09608 -2.72427 0
M  V30 46206 H 4218 -0.624287 -0.226189 0
M  V30 46207 H 4220.53 -2.04455 -0.0769198 0
M  V30 46208 H 4220.54 -3.5556 -2.00103 0
M  V30 46209 H 4219.21 -4.047 -0.9587 0
M  V30 46210 H 4217.79 -2.87929 -2.36963 0
M  V30 46211 N 4219.98 0.370864 -1.53174 0
M  V30 46212 C 4221.22 1.11571 -1.69351 0
M  V30 46213 C 4221.55 1.89119 -0.441311 0
M  V30 46214 O 4220.83 1.86225 0.561303 0
M  V30 46215 C 4221.11 2.07924 -2.94006 0
M  V30 46216 C 4220.97 1.34019 -4.2937 0
M  V30 46217 C 4222.28 3.08117 -3.14248 0
M  V30 46218 H 4219.4 0.404231 -0.616252 0
M  V30 46219 H 4222.05 0.397092 -1.85804 0
M  V30 46220 H 4220.2 2.69204 -2.8011 0
M  V30 46221 H 4221.87 0.755638 -4.55069 0
M  V30 46222 H 4220.11 0.642033 -4.29023 0
M  V30 46223 H 4220.78 2.04516 -5.12715 0
M  V30 46224 H 4223.26 2.56938 -3.27295 0
M  V30 46225 H 4222.13 3.72763 -4.02913 0
M  V30 46226 H 4222.39 3.77995 -2.29287 0
M  V30 46227 N 4221.45 1.44444 0.630363 0
M  V30 46228 C 4222.42 1.51011 1.72419 0
M  V30 46229 C 4223.42 0.392066 1.55947 0
M  V30 46230 O 4224.61 0.654716 1.61428 0
M  V30 46231 C 4221.74 1.38478 3.11507 0
M  V30 46232 H 4222.93 2.48447 1.6797 0
M  V30 46233 H 4220.48 1.31548 0.844091 0
M  V30 46234 H 4221.22 0.421384 3.21551 0
M  V30 46235 H 4221 2.1955 3.2487 0
M  V30 46236 H 4222.49 1.46056 3.91226 0
M  V30 46237 N 4222.93 -0.870838 1.31355 0
M  V30 46238 C 4224.16 -1.65661 1.23951 0
M  V30 46239 C 4224.57 -1.87787 -0.19532 0
M  V30 46240 O 4223.93 -1.4354 -1.12705 0
M  V30 46241 C 4223.98 -3.02508 1.97917 0
M  V30 46242 O 4223.7 -2.81371 3.358 0
M  V30 46243 C 4225.2 -3.96952 1.97343 0
M  V30 46244 H 4222.42 -0.516496 0.428337 0
M  V30 46245 H 4224.97 -1.08703 1.73216 0
M  V30 46246 H 4223.12 -3.56158 1.52415 0
M  V30 46247 H 4223.54 -3.68286 3.73451 0
M  V30 46248 H 4225.01 -4.90292 2.53609 0
M  V30 46249 H 4225.49 -4.28675 0.955727 0
M  V30 46250 H 4226.09 -3.49238 2.4272 0
M  V30 46251 N 4224.41 -1.14302 -1.08503 0
M  V30 46252 C 4225.63 -0.934508 -1.85153 0
M  V30 46253 C 4226.06 0.511834 -1.81002 0
M  V30 46254 O 4225.42 1.36396 -1.19439 0
M  V30 46255 C 4225.47 -1.43877 -3.30654 0
M  V30 46256 O 4224.57 -0.630215 -4.07556 0
M  V30 46257 H 4223.91 -0.334194 -0.573769 0
M  V30 46258 H 4226.44 -1.52001 -1.36956 0
M  V30 46259 H 4226.45 -1.44651 -3.81497 0
M  V30 46260 H 4225.13 -2.49179 -3.3299 0
M  V30 46261 H 4223.7 -0.691132 -3.66439 0
M  V30 46262 N 4225.89 1.26648 -0.937984 0
M  V30 46263 C 4227.11 1.98533 -0.599965 0
M  V30 46264 C 4227.54 1.69413 0.817367 0
M  V30 46265 O 4226.9 0.940311 1.55009 0
M  V30 46266 C 4226.94 3.50565 -0.8448 0
M  V30 46267 O 4226.05 4.12313 0.0846437 0
M  V30 46268 H 4225.39 0.622949 -0.22985 0
M  V30 46269 H 4227.92 1.61196 -1.26004 0
M  V30 46270 H 4227.93 4.00775 -0.764429 0
M  V30 46271 H 4226.6 3.7109 -1.87789 0
M  V30 46272 H 4225.18 3.72871 -0.046514 0
M  V30 46273 N 4227.37 0.704643 1.4097 0
M  V30 46274 C 4228.61 0.236513 2.00309 0
M  V30 46275 C 4228.93 -1.17355 1.56484 0
M  V30 46276 O 4230.13 -1.73963 2.08445 0
M  V30 46277 C 4228.59 0.37194 3.57973 0
M  V30 46278 C 4228.2 1.78795 4.10775 0
M  V30 46279 C 4229.94 -0.0359538 4.24485 0
M  V30 46280 C 4227.85 1.87454 5.60905 0
M  V30 46281 H 4226.78 0.0846688 0.749231 0
M  V30 46282 H 4229.43 0.874153 1.61341 0
M  V30 46283 H 4227.81 -0.334103 3.94588 0
M  V30 46284 H 4228.99 2.52348 3.85561 0
M  V30 46285 H 4227.3 2.14632 3.56822 0
M  V30 46286 H 4229.9 0.00818212 5.34699 0
M  V30 46287 H 4230.24 -1.07614 4.0215 0
M  V30 46288 H 4230.77 0.620138 3.92937 0
M  V30 46289 H 4227.51 2.89556 5.88079 0
M  V30 46290 H 4227.03 1.18298 5.88018 0
M  V30 46291 H 4228.71 1.64161 6.25828 0
M  V30 46292 N 4228.84 -1.51038 0.450036 0
M  V30 46293 C 4230.09 -2.02489 -0.112321 0
M  V30 46294 C 4230.42 -1.33279 -1.41246 0
M  V30 46295 O 4229.7 -0.451712 -1.89182 0
M  V30 46296 C 4229.98 -3.58693 -0.317962 0
M  V30 46297 C 4229.83 -4.38504 1.00172 0
M  V30 46298 C 4231.15 -4.26591 -1.08206 0
M  V30 46299 H 4228.27 -0.735949 -0.039347 0
M  V30 46300 H 4230.91 -1.80558 0.591517 0
M  V30 46301 H 4229.06 -3.77511 -0.917486 0
M  V30 46302 H 4230.74 -4.31307 1.6362 0
M  V30 46303 H 4228.98 -4.03082 1.60336 0
M  V30 46304 H 4229.65 -5.45999 0.811723 0
M  V30 46305 H 4232.13 -4.1212 -0.574101 0
M  V30 46306 H 4231 -5.3574 -1.19472 0
M  V30 46307 H 4231.26 -3.88315 -2.11338 0
M  V30 46308 N 4230.32 -0.181847 -1.56547 0
M  V30 46309 C 4231.57 0.459477 -1.96808 0
M  V30 46310 C 4231.89 1.63063 -1.06936 0
M  V30 46311 O 4231.16 1.95414 -0.137876 0
M  V30 46312 H 4229.74 0.17274 -0.726753 0
M  V30 46313 H 4232.4 -0.265489 -1.93083 0
M  V30 46314 H 4231.5 0.812469 -3.01339 0
M  V30 46315 N 4231.8 1.57332 0.09183 0
M  V30 46316 C 4233.03 1.90186 0.807013 0
M  V30 46317 C 4233.44 0.774066 1.72641 0
M  V30 46318 O 4232.78 -0.262714 1.81812 0
M  V30 46319 C 4232.84 3.18325 1.67061 0
M  V30 46320 C 4232.51 4.47588 0.922698 0
M  V30 46321 C 4233.5 5.19294 0.251018 0
M  V30 46322 C 4231.19 4.94247 0.89581 0
M  V30 46323 C 4233.18 6.35896 -0.437544 0
M  V30 46324 C 4230.87 6.10761 0.203464 0
M  V30 46325 C 4231.87 6.81435 -0.462032 0
M  V30 46326 O 4231.56 7.95729 -1.14327 0
M  V30 46327 H 4231.29 0.633543 0.235795 0
M  V30 46328 H 4233.84 2.05272 0.0724928 0
M  V30 46329 H 4232.07 2.99394 2.44745 0
M  V30 46330 H 4233.76 3.36985 2.26265 0
M  V30 46331 H 4234.53 4.84285 0.263229 0
M  V30 46332 H 4230.41 4.39124 1.40325 0
M  V30 46333 H 4233.95 6.90997 -0.957557 0
M  V30 46334 H 4229.85 6.45223 0.18911 0
M  V30 46335 H 4230.62 8.11731 -1.0505 0
M  V30 46336 N 4233.28 -0.362736 1.53369 0
M  V30 46337 C 4234.53 -1.1024 1.68908 0
M  V30 46338 C 4234.84 -1.9038 0.448879 0
M  V30 46339 O 4236.05 -2.67135 0.484868 0
M  V30 46340 C 4234.5 -2.00905 2.98605 0
M  V30 46341 C 4234.11 -1.26064 4.29898 0
M  V30 46342 C 4235.85 -2.74846 3.23512 0
M  V30 46343 C 4233.76 -2.15647 5.50682 0
M  V30 46344 H 4232.69 -0.415254 0.629349 0
M  V30 46345 H 4235.34 -0.363199 1.7987 0
M  V30 46346 H 4233.72 -2.78567 2.81454 0
M  V30 46347 H 4234.9 -0.534449 4.5769 0
M  V30 46348 H 4233.21 -0.63973 4.11456 0
M  V30 46349 H 4235.81 -3.42104 4.10937 0
M  V30 46350 H 4236.15 -3.4037 2.39695 0
M  V30 46351 H 4236.69 -2.04265 3.41351 0
M  V30 46352 H 4233.43 -1.54696 6.36985 0
M  V30 46353 H 4232.95 -2.86108 5.27164 0
M  V30 46354 H 4234.62 -2.7514 5.85582 0
M  V30 46355 N 4234.76 -1.44777 -0.622694 0
M  V30 46356 C 4235.69 -1.55123 -1.74525 0
M  V30 46357 C 4236.67 -0.403685 -1.6524 0
M  V30 46358 O 4237.85 -0.624895 -1.83871 0
M  V30 46359 C 4234.98 -1.50315 -3.13086 0
M  V30 46360 C 4233.94 -2.63632 -3.37168 0
M  V30 46361 C 4233.26 -2.43877 -4.75845 0
M  V30 46362 C 4234.56 -4.05736 -3.28901 0
M  V30 46363 H 4236.26 -2.49085 -1.66123 0
M  V30 46364 H 4233.8 -1.1988 -0.797792 0
M  V30 46365 H 4235.76 -1.56153 -3.914 0
M  V30 46366 H 4234.48 -0.528741 -3.22292 0
M  V30 46367 H 4233.14 -2.57198 -2.61237 0
M  V30 46368 H 4232.79 -1.44609 -4.81765 0
M  V30 46369 H 4232.49 -3.19857 -4.92915 0
M  V30 46370 H 4234.01 -2.51545 -5.56379 0
M  V30 46371 H 4235.42 -4.13494 -3.97109 0
M  V30 46372 H 4233.82 -4.81986 -3.57504 0
M  V30 46373 H 4234.89 -4.2871 -2.26574 0
M  V30 46374 N 4236.23 0.863859 -1.31815 0
M  V30 46375 C 4237.48 1.61417 -1.21609 0
M  V30 46376 C 4237.8 1.93704 0.224406 0
M  V30 46377 O 4237.07 1.58829 1.14674 0
M  V30 46378 H 4235.65 0.598422 -0.447102 0
M  V30 46379 H 4238.32 1.03385 -1.6522 0
M  V30 46380 H 4237.41 2.55514 -1.79217 0
M  V30 46381 N 4237.71 1.14875 1.07895 0
M  V30 46382 C 4238.64 0.863325 2.16954 0
M  V30 46383 C 4239.62 -0.183823 1.69104 0
M  V30 46384 O 4240.81 -0.0393794 1.9416 0
M  V30 46385 C 4237.94 0.345757 3.45575 0
M  V30 46386 C 4236.89 1.32895 4.06845 0
M  V30 46387 C 4236.22 0.67046 5.3048 0
M  V30 46388 C 4237.52 2.69304 4.47518 0
M  V30 46389 H 4239.21 1.7753 2.41088 0
M  V30 46390 H 4236.76 0.855011 1.15869 0
M  V30 46391 H 4238.71 0.133649 4.21188 0
M  V30 46392 H 4237.44 -0.601666 3.2101 0
M  V30 46393 H 4236.09 1.52732 3.33269 0
M  V30 46394 H 4235.74 -0.282935 5.02204 0
M  V30 46395 H 4235.44 1.32655 5.7243 0
M  V30 46396 H 4236.97 0.467998 6.08804 0
M  V30 46397 H 4238.38 2.53344 5.14286 0
M  V30 46398 H 4236.78 3.31235 5.00403 0
M  V30 46399 H 4237.85 3.25786 3.59154 0
M  V30 46400 N 4239.19 -1.26148 0.944687 0
M  V30 46401 C 4240.44 -1.93206 0.592953 0
M  V30 46402 C 4240.76 -1.7445 -0.871326 0
M  V30 46403 O 4240.03 -1.10221 -1.61951 0
M  V30 46404 H 4238.61 -0.714996 0.216309 0
M  V30 46405 H 4241.27 -1.53517 1.20077 0
M  V30 46406 H 4240.37 -3.01305 0.813735 0
M  V30 46407 N 4240.67 -0.712109 -1.40594 0
M  V30 46408 C 4241.95 -0.177426 -1.94794 0
M  V30 46409 C 4242.33 1.31613 -1.65049 0
M  V30 46410 O 4241.67 2.07063 -0.966299 0
M  V30 46411 C 4241.88 -0.48643 -3.45593 0
M  V30 46412 C 4243.23 -0.423189 -4.22486 0
M  V30 46413 O 4244.26 -0.422289 -3.53688 0
M  V30 46414 O 4243.11 -0.397683 -5.45051 0
M  V30 46415 H 4240.21 -0.0246686 -0.826632 0
M  V30 46416 H 4242.75 -0.789404 -1.50222 0
M  V30 46417 H 4241.53 -1.51959 -3.60589 0
M  V30 46418 H 4241.15 0.155686 -3.97295 0
M  V30 46419 N 4242.15 1.50797 -0.45804 0
M  V30 46420 C 4243.56 1.5921 -0.111453 0
M  V30 46421 C 4243.76 1.46732 1.38102 0
M  V30 46422 O 4242.82 1.31911 2.15304 0
M  V30 46423 C 4244.13 2.9359 -0.650023 0
M  V30 46424 C 4245.68 3.06953 -0.612291 0
M  V30 46425 C 4246.15 4.43887 -1.12818 0
M  V30 46426 N 4247.65 4.50264 -1.08704 0
M  V30 46427 C 4248.38 5.54584 -1.45686 0
M  V30 46428 N 4247.88 6.66222 -1.90054 0
M  V30 46429 N 4249.67 5.45056 -1.37371 0
M  V30 46430 H 4241.82 1.57153 -1.42887 0
M  V30 46431 H 4244.08 0.741949 -0.590098 0
M  V30 46432 H 4243.79 3.08157 -1.69505 0
M  V30 46433 H 4243.66 3.77101 -0.0863329 0
M  V30 46434 H 4246.05 2.92041 0.423799 0
M  V30 46435 H 4246.13 2.25231 -1.21263 0
M  V30 46436 H 4245.78 4.59547 -2.16284 0
M  V30 46437 H 4245.71 5.24181 -0.504182 0
M  V30 46438 H 4248.2 3.70149 -0.761471 0
M  V30 46439 H 4248.51 7.41867 -2.16455 0
M  V30 46440 H 4246.85 6.67376 -1.93997 0
M  V30 46441 H 4250.05 4.56727 -1.0256 0
M  V30 46442 H 4250.22 6.26239 -1.66519 0
M  V30 46443 N 4243.63 0.190147 1.56449 0
M  V30 46444 C 4244.58 -0.745402 2.15471 0
M  V30 46445 C 4245.56 -1.17976 1.0941 0
M  V30 46446 O 4246.75 -1.13898 1.35485 0
M  V30 46447 C 4243.88 -1.96681 2.81375 0
M  V30 46448 C 4242.97 -1.55357 3.9462 0
M  V30 46449 N 4243.36 -0.851007 4.9859 0
M  V30 46450 C 4241.66 -1.84323 4.06129 0
M  V30 46451 C 4242.36 -0.644673 5.78117 0
M  V30 46452 N 4241.33 -1.19189 5.30373 0
M  V30 46453 H 4245.13 -0.199856 2.9322 0
M  V30 46454 H 4242.65 -0.00983139 1.62397 0
M  V30 46455 H 4244.65 -2.64746 3.22048 0
M  V30 46456 H 4243.31 -2.51712 2.05113 0
M  V30 46457 H 4244.32 -0.507008 5.15412 0
M  V30 46458 H 4240.99 -2.40899 3.4099 0
M  V30 46459 H 4242.38 -0.0877063 6.71843 0
M  V30 46460 N 4245.1 -1.57379 -0.083485 0
M  V30 46461 C 4246.35 -1.86949 -0.785998 0
M  V30 46462 C 4246.68 -0.78086 -1.7781 0
M  V30 46463 O 4245.96 0.210041 -1.93363 0
M  V30 46464 C 4246.24 -3.27169 -1.50442 0
M  V30 46465 C 4246.09 -4.46672 -0.529522 0
M  V30 46466 C 4247.41 -3.65453 -2.45219 0
M  V30 46467 H 4244.53 -0.679965 -0.284282 0
M  V30 46468 H 4247.17 -1.89936 -0.0493897 0
M  V30 46469 H 4245.32 -3.24753 -2.13231 0
M  V30 46470 H 4247 -4.61208 0.0922653 0
M  V30 46471 H 4245.24 -4.33519 0.156145 0
M  V30 46472 H 4245.91 -5.41539 -1.06958 0
M  V30 46473 H 4248.39 -3.68887 -1.92514 0
M  V30 46474 H 4247.26 -4.64475 -2.92496 0
M  V30 46475 H 4247.52 -2.94757 -3.29501 0
M  V30 46476 N 4246.58 0.354597 -1.53559 0
M  V30 46477 C 4247.51 1.4553 -1.7707 0
M  V30 46478 C 4248.53 1.49187 -0.651705 0
M  V30 46479 O 4249.72 1.52468 -0.928206 0
M  V30 46480 C 4246.82 2.84245 -1.84549 0
M  V30 46481 C 4245.99 3.04157 -3.14336 0
M  V30 46482 C 4245.05 4.23049 -3.12915 0
M  V30 46483 O 4244.07 4.17695 -3.86677 0
M  V30 46484 N 4245.28 5.31025 -2.34506 0
M  V30 46485 H 4248.04 1.25737 -2.72048 0
M  V30 46486 H 4245.6 0.544402 -1.52473 0
M  V30 46487 H 4247.59 3.61937 -1.81062 0
M  V30 46488 H 4246.16 2.97233 -0.968056 0
M  V30 46489 H 4245.38 2.14029 -3.31036 0
M  V30 46490 H 4246.67 3.14336 -4.00088 0
M  V30 46491 H 4246.07 5.3824 -1.74109 0
M  V30 46492 H 4244.63 6.07253 -2.36828 0
M  V30 46493 N 4248.06 1.45105 0.615008 0
M  V30 46494 C 4249.01 1.53532 1.7473 0
M  V30 46495 C 4250 0.405813 1.64467 0
M  V30 46496 O 4251.21 0.581423 1.70351 0
M  V30 46497 H 4247.58 0.482096 0.577137 0
M  V30 46498 H 4249.55 2.48799 1.64748 0
M  V30 46499 C 4248.3 1.5121 3.13099 0
M  V30 46500 H 4247.63 2.37446 3.21651 0
M  V30 46501 H 4249.07 1.61165 3.92176 0
M  V30 46502 C 4247.52 0.23534 3.36077 0
M  V30 46503 O 4248.05 -0.687873 3.95767 0
M  V30 46504 N 4246.26 0.133372 2.90294 0
M  V30 46505 H 4245.81 0.88551 2.41902 0
M  V30 46506 H 4245.77 -0.720093 3.06043 0
M  V30 46507 N 4249.54 -0.856857 1.32271 0
M  V30 46508 C 4250.79 -1.60574 1.22061 0
M  V30 46509 C 4251.1 -1.94396 -0.216733 0
M  V30 46510 O 4252.31 -2.679 -0.440674 0
M  V30 46511 C 4250.76 -2.89539 2.13765 0
M  V30 46512 C 4250.37 -2.6315 3.62569 0
M  V30 46513 C 4252.11 -3.67549 2.12386 0
M  V30 46514 C 4250.02 -3.88102 4.46241 0
M  V30 46515 H 4248.95 -0.602536 0.453284 0
M  V30 46516 H 4251.6 -0.946316 1.57217 0
M  V30 46517 H 4249.98 -3.56926 1.71521 0
M  V30 46518 H 4251.16 -2.04087 4.1314 0
M  V30 46519 H 4249.47 -1.98473 3.66057 0
M  V30 46520 H 4252.07 -4.60267 2.72137 0
M  V30 46521 H 4252.41 -4.0111 1.11429 0
M  V30 46522 H 4252.95 -3.07063 2.52898 0
M  V30 46523 H 4249.68 -3.59684 5.48003 0
M  V30 46524 H 4249.2 -4.46568 4.00421 0
M  V30 46525 H 4250.88 -4.55862 4.59128 0
M  V30 46526 N 4251.02 -1.15446 -1.07285 0
M  V30 46527 C 4251.95 -0.874818 -2.16493 0
M  V30 46528 C 4252.93 0.174853 -1.69199 0
M  V30 46529 O 4254.11 0.0290821 -1.94178 0
M  V30 46530 C 4251.24 -0.364079 -3.45386 0
M  V30 46531 C 4250.2 -1.3505 -4.06135 0
M  V30 46532 C 4249.52 -0.698583 -5.30117 0
M  V30 46533 C 4250.82 -2.71673 -4.46084 0
M  V30 46534 H 4252.52 -1.78806 -2.40143 0
M  V30 46535 H 4250.06 -0.861144 -1.15414 0
M  V30 46536 H 4252.01 -0.155984 -4.21111 0
M  V30 46537 H 4250.74 0.584633 -3.21325 0
M  V30 46538 H 4249.4 -1.54497 -3.32455 0
M  V30 46539 H 4249.05 0.256298 -5.02347 0
M  V30 46540 H 4248.75 -1.35689 -5.71719 0
M  V30 46541 H 4250.27 -0.500278 -6.08547 0
M  V30 46542 H 4251.68 -2.56068 -5.12935 0
M  V30 46543 H 4250.08 -3.33884 -4.98639 0
M  V30 46544 H 4251.15 -3.27686 -3.57421 0
M  V30 46545 N 4252.49 1.25646 -0.951364 0
M  V30 46546 C 4253.74 1.92567 -0.600072 0
M  V30 46547 C 4254.06 1.75362 0.866468 0
M  V30 46548 O 4255.26 2.36828 1.32758 0
M  V30 46549 C 4253.72 3.45069 -1.02252 0
M  V30 46550 C 4253.33 3.7099 -2.51138 0
M  V30 46551 C 4255.07 4.17936 -0.743605 0
M  V30 46552 C 4252.98 5.16982 -2.872 0
M  V30 46553 H 4251.91 0.720971 -0.220718 0
M  V30 46554 H 4254.56 1.4256 -1.15538 0
M  V30 46555 H 4252.94 3.94018 -0.395657 0
M  V30 46556 H 4254.11 3.32706 -3.18815 0
M  V30 46557 H 4252.43 3.11377 -2.76466 0
M  V30 46558 H 4255.03 5.25469 -0.98924 0
M  V30 46559 H 4255.37 4.15069 0.3199 0
M  V30 46560 H 4255.9 3.74884 -1.33066 0
M  V30 46561 H 4252.64 5.24958 -3.92555 0
M  V30 46562 H 4252.16 5.56325 -2.24193 0
M  V30 46563 H 4253.84 5.85076 -2.76215 0
M  V30 46564 N 4253.97 0.719555 1.40215 0
M  V30 46565 C 4254.92 0.058462 2.32527 0
M  V30 46566 C 4255.91 -0.742719 1.5225 0
M  V30 46567 O 4257.12 -0.645641 1.68022 0
M  V30 46568 H 4253.49 0.000102846 0.752 0
M  V30 46569 H 4255.47 0.853672 2.85928 0
M  V30 46570 C 4254.21 -0.84628 3.37244 0
M  V30 46571 H 4253.54 -0.23919 3.99084 0
M  V30 46572 H 4254.98 -1.27673 4.04321 0
M  V30 46573 C 4253.44 -1.97355 2.73043 0
M  V30 46574 O 4253.97 -3.06477 2.59682 0
M  V30 46575 N 4252.17 -1.75836 2.31366 0
M  V30 46576 H 4251.72 -0.870863 2.42433 0
M  V30 46577 H 4251.68 -2.51438 1.88749 0
M  V30 46578 N 4255.45 -1.50552 0.466031 0
M  V30 46579 C 4256.36 -2.32178 -0.336209 0
M  V30 46580 C 4257.38 -1.42338 -1.00079 0
M  V30 46581 O 4258.55 -1.75395 -0.989873 0
M  V30 46582 C 4255.62 -3.16877 -1.40676 0
M  V30 46583 C 4254.68 -4.22532 -0.759309 0
M  V30 46584 C 4253.91 -5.03183 -1.77885 0
M  V30 46585 O 4254.13 -4.84841 -3.00475 0
M  V30 46586 O 4253.07 -5.86485 -1.35348 0
M  V30 46587 H 4256.89 -3.01891 0.330961 0
M  V30 46588 H 4254.48 -1.4765 0.227976 0
M  V30 46589 H 4256.36 -3.69448 -2.02698 0
M  V30 46590 H 4255.04 -2.49898 -2.05749 0
M  V30 46591 H 4253.94 -3.73966 -0.100273 0
M  V30 46592 H 4255.28 -4.91966 -0.151608 0
M  V30 46593 N 4256.93 -0.198441 -1.56346 0
M  V30 46594 C 4257.86 0.752999 -2.16478 0
M  V30 46595 C 4258.87 1.17436 -1.1275 0
M  V30 46596 O 4260.06 1.10951 -1.39829 0
M  V30 46597 C 4257.16 2.02865 -2.71476 0
M  V30 46598 C 4256.33 1.76656 -4.00139 0
M  V30 46599 C 4255.39 2.887 -4.3993 0
M  V30 46600 O 4254.42 2.58164 -5.07287 0
M  V30 46601 N 4255.62 4.17133 -4.03709 0
M  V30 46602 H 4258.39 0.238759 -2.98747 0
M  V30 46603 H 4255.95 -0.0165935 -1.61891 0
M  V30 46604 H 4257.94 2.76968 -2.95078 0
M  V30 46605 H 4256.51 2.45402 -1.93641 0
M  V30 46606 H 4255.73 0.863148 -3.84634 0
M  V30 46607 H 4257.02 1.56546 -4.84119 0
M  V30 46608 H 4256.42 4.44794 -3.49536 0
M  V30 46609 H 4254.97 4.87852 -4.32254 0
M  V30 46610 N 4258.41 1.57421 0.0751377 0
M  V30 46611 C 4259.63 1.91692 0.79176 0
M  V30 46612 C 4260.06 0.794552 1.70495 0
M  V30 46613 O 4259.41 -0.252808 1.79529 0
M  V30 46614 C 4259.46 3.24906 1.56424 0
M  V30 46615 O 4258.57 3.13903 2.67467 0
M  V30 46616 H 4257.91 0.627807 0.216229 0
M  V30 46617 H 4260.44 2.04552 0.044383 0
M  V30 46618 H 4260.45 3.58698 1.94421 0
M  V30 46619 H 4259.12 4.06174 0.894195 0
M  V30 46620 H 4257.7 2.91662 2.32352 0
M  V30 46621 N 4259.88 -0.346449 1.53745 0
M  V30 46622 C 4260.85 -1.40823 1.80836 0
M  V30 46623 C 4261.85 -1.45746 0.679317 0
M  V30 46624 O 4263.04 -1.46172 0.947592 0
M  V30 46625 C 4260.17 -2.79777 1.94776 0
M  V30 46626 H 4261.36 -1.18066 2.75682 0
M  V30 46627 H 4258.92 -0.580675 1.45113 0
M  V30 46628 H 4259.65 -3.07821 1.02063 0
M  V30 46629 H 4259.44 -2.776 2.76913 0
M  V30 46630 H 4260.93 -3.56633 2.17262 0
M  V30 46631 N 4261.36 -1.45429 -0.607304 0
M  V30 46632 C 4262.27 -1.5666 -1.74628 0
M  V30 46633 C 4263.29 -0.451043 -1.68052 0
M  V30 46634 O 4264.46 -0.711769 -1.88403 0
M  V30 46635 C 4261.53 -1.53051 -3.11089 0
M  V30 46636 C 4260.59 -2.75647 -3.29116 0
M  V30 46637 C 4259.82 -2.72201 -4.59067 0
M  V30 46638 O 4260.05 -1.79545 -5.41405 0
M  V30 46639 O 4258.98 -3.63406 -4.79812 0
M  V30 46640 H 4262.81 -2.52933 -1.68103 0
M  V30 46641 H 4260.39 -1.27943 -0.771425 0
M  V30 46642 H 4262.27 -1.53647 -3.92391 0
M  V30 46643 H 4260.95 -0.599299 -3.18104 0
M  V30 46644 H 4259.86 -2.80613 -2.47401 0
M  V30 46645 H 4261.19 -3.67895 -3.26978 0
M  V30 46646 N 4262.84 0.84983 -1.32724 0
M  V30 46647 C 4263.77 1.97427 -1.24678 0
M  V30 46648 C 4264.75 1.69605 -0.129611 0
M  V30 46649 O 4265.94 1.91586 -0.317582 0
M  V30 46650 C 4263.07 3.33362 -0.97403 0
M  V30 46651 C 4262.02 3.7555 -2.05296 0
M  V30 46652 C 4261.35 5.09169 -1.63253 0
M  V30 46653 C 4262.65 3.90501 -3.46852 0
M  V30 46654 H 4264.34 2.04417 -2.18756 0
M  V30 46655 H 4261.89 0.982113 -1.05312 0
M  V30 46656 H 4263.84 4.11583 -0.904278 0
M  V30 46657 H 4262.56 3.266 0.00238075 0
M  V30 46658 H 4261.22 2.99583 -2.11295 0
M  V30 46659 H 4260.87 4.98868 -0.643436 0
M  V30 46660 H 4260.57 5.38367 -2.35446 0
M  V30 46661 H 4262.09 5.89878 -1.57723 0
M  V30 46662 H 4263.51 4.59063 -3.43416 0
M  V30 46663 H 4261.91 4.31123 -4.17437 0
M  V30 46664 H 4262.98 2.93272 -3.8616 0
M  V30 46665 N 4264.32 1.16013 1.06671 0
M  V30 46666 C 4265.56 0.940672 1.79664 0
M  V30 46667 C 4265.9 -0.53047 1.86815 0
M  V30 46668 O 4265.17 -1.39346 1.35695 0
M  V30 46669 C 4265.46 1.56413 3.24356 0
M  V30 46670 C 4265.31 3.10635 3.25309 0
M  V30 46671 C 4266.63 1.25564 4.21808 0
M  V30 46672 H 4263.75 0.343157 0.652236 0
M  V30 46673 H 4266.39 1.43285 1.24778 0
M  V30 46674 H 4264.54 1.1456 3.71225 0
M  V30 46675 H 4266.21 3.61443 2.8663 0
M  V30 46676 H 4264.45 3.44164 2.64071 0
M  V30 46677 H 4265.12 3.49375 4.27365 0
M  V30 46678 H 4267.6 1.61779 3.83362 0
M  V30 46679 H 4266.48 1.71794 5.21323 0
M  V30 46680 H 4266.74 0.173822 4.41758 0
M  V30 46681 N 4265.8 -1.25139 0.958014 0
M  V30 46682 C 4266.75 -2.23483 0.451589 0
M  V30 46683 C 4267.73 -1.54153 -0.461047 0
M  V30 46684 O 4268.92 -1.74549 -0.293548 0
M  V30 46685 C 4266.05 -3.42266 -0.266189 0
M  V30 46686 C 4265.14 -4.18858 0.664712 0
M  V30 46687 N 4265.53 -4.72771 1.79781 0
M  V30 46688 C 4263.83 -4.43479 0.473577 0
M  V30 46689 C 4264.53 -5.30815 2.37929 0
M  V30 46690 N 4263.5 -5.17459 1.66546 0
M  V30 46691 H 4267.31 -2.62775 1.3163 0
M  V30 46692 H 4264.82 -1.40416 0.815914 0
M  V30 46693 H 4266.82 -4.11862 -0.646149 0
M  V30 46694 H 4265.48 -3.04497 -1.12746 0
M  V30 46695 H 4266.49 -4.69802 2.17959 0
M  V30 46696 H 4263.16 -4.16076 -0.344531 0
M  V30 46697 H 4264.55 -5.83293 3.33494 0
M  V30 46698 N 4267.27 -0.726981 -1.39831 0
M  V30 46699 C 4268.52 -0.26835 -1.99907 0
M  V30 46700 C 4268.84 1.14851 -1.58331 0
M  V30 46701 O 4270.04 1.70624 -2.11186 0
M  V30 46702 C 4268.5 -0.428843 -3.57336 0
M  V30 46703 C 4268.11 -1.85307 -4.07879 0
M  V30 46704 C 4269.85 -0.0315826 -4.24488 0
M  V30 46705 C 4267.76 -1.96354 -5.57852 0
M  V30 46706 H 4266.69 -0.0965777 -0.747789 0
M  V30 46707 H 4269.34 -0.89971 -1.5993 0
M  V30 46708 H 4267.72 0.271285 -3.9507 0
M  V30 46709 H 4268.89 -2.5845 -3.81497 0
M  V30 46710 H 4267.21 -2.20282 -3.53362 0
M  V30 46711 H 4269.81 -0.0932471 -5.34619 0
M  V30 46712 H 4270.15 1.01202 -4.03812 0
M  V30 46713 H 4270.68 -0.682572 -3.919 0
M  V30 46714 H 4267.42 -2.98876 -5.83398 0
M  V30 46715 H 4266.94 -1.27638 -5.86062 0
M  V30 46716 H 4268.62 -1.74096 -6.23137 0
M  V30 46717 N 4268.75 1.50303 -0.474008 0
M  V30 46718 C 4270.03 1.95086 0.141693 0
M  V30 46719 C 4270.41 1.4145 1.56701 0
M  V30 46720 O 4269.76 0.616729 2.2002 0
M  V30 46721 C 4269.97 3.48904 0.0820202 0
M  V30 46722 C 4271.32 4.23744 0.269455 0
M  V30 46723 O 4272.34 3.55847 0.15847 0
M  V30 46724 O 4271.2 5.44263 0.493927 0
M  V30 46725 H 4268.29 0.819641 0.11008 0
M  V30 46726 H 4270.84 1.61059 -0.534619 0
M  V30 46727 H 4269.61 3.805 -0.913003 0
M  V30 46728 H 4269.23 3.89475 0.799663 0
M  V30 46729 N 4270.23 0.20673 1.56238 0
M  V30 46730 C 4271.16 -0.704407 2.22622 0
M  V30 46731 C 4272.14 -1.21243 1.19307 0
M  V30 46732 O 4273.33 -1.25914 1.47849 0
M  V30 46733 C 4270.46 -1.91908 2.89462 0
M  V30 46734 C 4269.41 -1.54551 3.99122 0
M  V30 46735 C 4268.74 -2.83775 4.53184 0
M  V30 46736 C 4270.04 -0.746658 5.16935 0
M  V30 46737 H 4271.73 -0.150975 2.99019 0
M  V30 46738 H 4269.28 -0.0711751 1.43824 0
M  V30 46739 H 4271.23 -2.56181 3.34589 0
M  V30 46740 H 4269.95 -2.49724 2.10489 0
M  V30 46741 H 4268.61 -0.926318 3.54704 0
M  V30 46742 H 4268.26 -3.39704 3.70958 0
M  V30 46743 H 4267.96 -2.59519 5.27185 0
M  V30 46744 H 4269.48 -3.49015 5.0102 0
M  V30 46745 H 4270.9 -1.29274 5.58535 0
M  V30 46746 H 4269.3 -0.601771 5.97075 0
M  V30 46747 H 4270.37 0.249868 4.84256 0
M  V30 46748 N 4271.71 -1.57458 -0.0667882 0
M  V30 46749 C 4272.96 -1.87124 -0.763481 0
M  V30 46750 C 4273.28 -0.799413 -1.77861 0
M  V30 46751 O 4272.55 0.171379 -1.95149 0
M  V30 46752 H 4271.13 -0.690511 -0.284962 0
M  V30 46753 H 4273.79 -1.94855 -0.0416879 0
M  V30 46754 H 4272.89 -2.84798 -1.27658 0
M  V30 46755 N 4273.19 0.33829 -1.53926 0
M  V30 46756 C 4274.43 1.07954 -1.71679 0
M  V30 46757 C 4274.77 1.88141 -0.481327 0
M  V30 46758 O 4274.04 1.87373 0.521676 0
M  V30 46759 C 4274.32 2.01641 -2.9835 0
M  V30 46760 C 4274.18 1.24882 -4.32116 0
M  V30 46761 C 4275.5 3.01382 -3.20713 0
M  V30 46762 H 4272.62 0.391069 -0.624687 0
M  V30 46763 H 4275.26 0.35759 -1.86605 0
M  V30 46764 H 4273.41 2.63202 -2.85757 0
M  V30 46765 H 4275.08 0.658941 -4.56569 0
M  V30 46766 H 4273.32 0.550886 -4.30288 0
M  V30 46767 H 4273.99 1.93595 -5.16938 0
M  V30 46768 H 4276.47 2.49937 -3.32672 0
M  V30 46769 H 4275.35 3.64133 -4.10729 0
M  V30 46770 H 4275.61 3.73046 -2.37253 0
M  V30 46771 N 4274.67 1.45749 0.599583 0
M  V30 46772 C 4275.63 1.54634 1.69177 0
M  V30 46773 C 4276.63 0.425056 1.5508 0
M  V30 46774 O 4277.82 0.68881 1.60003 0
M  V30 46775 C 4274.95 1.45054 3.085 0
M  V30 46776 H 4276.14 2.51954 1.62663 0
M  V30 46777 H 4273.7 1.33309 0.815998 0
M  V30 46778 H 4274.43 0.489495 3.20585 0
M  V30 46779 H 4274.22 2.26391 3.2014 0
M  V30 46780 H 4275.71 1.54321 3.88039 0
M  V30 46781 N 4276.14 -0.84278 1.33173 0
M  V30 46782 C 4277.39 -1.59778 1.24408 0
M  V30 46783 C 4277.72 -1.93559 -0.191129 0
M  V30 46784 O 4276.97 -1.58542 -1.1473 0
M  V30 46785 C 4277.27 -2.92003 2.06081 0
M  V30 46786 C 4276.94 -2.77601 3.55315 0
M  V30 46787 C 4275.6 -2.7338 3.96001 0
M  V30 46788 C 4277.95 -2.62684 4.50163 0
M  V30 46789 C 4275.28 -2.52138 5.29758 0
M  V30 46790 C 4277.63 -2.42975 5.84077 0
M  V30 46791 C 4276.3 -2.37155 6.2395 0
M  V30 46792 H 4275.57 -0.584668 0.455241 0
M  V30 46793 H 4278.21 -0.976711 1.6472 0
M  V30 46794 H 4276.52 -3.58293 1.58534 0
M  V30 46795 H 4278.22 -3.49465 1.96659 0
M  V30 46796 H 4274.81 -2.81716 3.23008 0
M  V30 46797 H 4278.99 -2.64981 4.19641 0
M  V30 46798 H 4274.25 -2.46075 5.59694 0
M  V30 46799 H 4278.42 -2.30416 6.57177 0
M  V30 46800 H 4276.05 -2.20454 7.27533 0
M  V30 46801 N 4277.62 -1.16577 -1.06054 0
M  V30 46802 C 4278.53 -0.88895 -2.17106 0
M  V30 46803 C 4279.55 0.139692 -1.73438 0
M  V30 46804 O 4280.72 -0.0375199 -2.01365 0
M  V30 46805 C 4277.79 -0.396555 -3.44425 0
M  V30 46806 C 4276.85 -1.49072 -4.02587 0
M  V30 46807 C 4276.08 -1.02172 -5.23829 0
M  V30 46808 O 4276.31 0.127584 -5.70257 0
M  V30 46809 O 4275.24 -1.81108 -5.74006 0
M  V30 46810 H 4279.07 -1.81765 -2.433 0
M  V30 46811 H 4276.65 -0.945943 -1.15639 0
M  V30 46812 H 4278.53 -0.129057 -4.21202 0
M  V30 46813 H 4277.21 0.504107 -3.19751 0
M  V30 46814 H 4276.11 -1.81199 -3.27289 0
M  V30 46815 H 4277.45 -2.36677 -4.31561 0
M  V30 46816 N 4279.1 1.2463 -0.964637 0
M  V30 46817 C 4280.03 2.24736 -0.450153 0
M  V30 46818 C 4281.04 1.56757 0.439435 0
M  V30 46819 O 4282.23 1.76795 0.246102 0
M  V30 46820 C 4279.33 3.36877 0.369724 0
M  V30 46821 C 4278.51 4.34426 -0.509231 0
M  V30 46822 C 4277.57 5.25586 0.254124 0
M  V30 46823 O 4276.59 5.68117 -0.3509 0
M  V30 46824 N 4277.79 5.59575 1.54453 0
M  V30 46825 H 4280.56 2.69513 -1.31084 0
M  V30 46826 H 4278.12 1.38639 -0.836114 0
M  V30 46827 H 4280.11 3.94829 0.88836 0
M  V30 46828 H 4278.68 2.9141 1.13132 0
M  V30 46829 H 4277.9 3.75206 -1.20887 0
M  V30 46830 H 4279.19 4.96571 -1.1088 0
M  V30 46831 H 4278.59 5.26943 2.05785 0
M  V30 46832 H 4277.14 6.20069 2.00893 0
M  V30 46833 N 4280.58 0.734386 1.39444 0
M  V30 46834 C 4281.83 0.281503 2.0013 0
M  V30 46835 C 4282.15 -1.13501 1.58564 0
M  V30 46836 O 4281.42 -1.77279 0.833599 0
M  V30 46837 H 4280 0.101089 0.740128 0
M  V30 46838 H 4282.66 0.944208 1.70501 0
M  V30 46839 H 4281.75 0.32941 3.10357 0
M  V30 46840 N 4282.06 -1.50049 0.481972 0
M  V30 46841 C 4283 -2.28756 -0.306518 0
M  V30 46842 C 4283.97 -1.34292 -0.977496 0
M  V30 46843 O 4285.16 -1.63237 -0.987837 0
M  V30 46844 C 4282.3 -3.16471 -1.37623 0
M  V30 46845 C 4281.41 -4.25976 -0.718945 0
M  V30 46846 C 4280.55 -5.00933 -1.76748 0
M  V30 46847 C 4279.58 -6.02298 -1.09102 0
M  V30 46848 N 4278.72 -6.70492 -2.0829 0
M  V30 46849 H 4283.56 -2.95682 0.370938 0
M  V30 46850 H 4281.1 -1.45805 0.194775 0
M  V30 46851 H 4283.06 -3.65686 -2.00821 0
M  V30 46852 H 4281.69 -2.51568 -2.02271 0
M  V30 46853 H 4280.74 -3.80391 0.0258656 0
M  V30 46854 H 4282.05 -4.98455 -0.185513 0
M  V30 46855 H 4281.2 -5.53921 -2.47499 0
M  V30 46856 H 4279.94 -4.28184 -2.33474 0
M  V30 46857 H 4278.95 -5.48559 -0.36919 0
M  V30 46858 H 4280.17 -6.77025 -0.530518 0
M  V30 46859 H 4278.12 -6.00528 -2.64012 0
M  V30 46860 H 4278.04 -7.38883 -1.59961 0
M  V30 46861 H 4279.3 -7.28094 -2.78388 0
M  V30 46862 N 4283.53 -0.215012 -1.56126 0
M  V30 46863 C 4284.78 0.418775 -1.97305 0
M  V30 46864 C 4285.1 1.61364 -1.10549 0
M  V30 46865 O 4286.3 2.31651 -1.41598 0
M  V30 46866 C 4284.76 0.796447 -3.50977 0
M  V30 46867 C 4284.37 -0.375235 -4.46426 0
M  V30 46868 C 4286.11 1.3962 -4.00882 0
M  V30 46869 C 4284.02 0.0245078 -5.91395 0
M  V30 46870 H 4282.95 0.160233 -0.736778 0
M  V30 46871 H 4285.6 -0.310189 -1.80859 0
M  V30 46872 H 4283.98 1.58265 -3.62999 0
M  V30 46873 H 4285.15 -1.15278 -4.46147 0
M  V30 46874 H 4283.47 -0.887793 -4.06826 0
M  V30 46875 H 4286.07 1.70807 -5.06684 0
M  V30 46876 H 4286.41 2.30971 -3.4635 0
M  V30 46877 H 4286.94 0.673572 -3.92056 0
M  V30 46878 H 4283.68 -0.855315 -6.49896 0
M  V30 46879 H 4283.2 0.766506 -5.94882 0
M  V30 46880 H 4284.88 0.45346 -6.45409 0
M  V30 46881 N 4285.01 1.57492 0.0584368 0
M  V30 46882 C 4285.94 2.0764 1.06807 0
M  V30 46883 C 4286.92 0.972646 1.39548 0
M  V30 46884 O 4288.11 1.24618 1.48943 0
M  V30 46885 C 4285.24 2.53146 2.3777 0
M  V30 46886 C 4284.19 3.67519 2.19348 0
M  V30 46887 C 4283.52 3.99126 3.55813 0
M  V30 46888 C 4284.82 4.9707 1.6037 0
M  V30 46889 H 4286.51 2.92243 0.650714 0
M  V30 46890 H 4284.06 1.40589 0.311563 0
M  V30 46891 H 4286.01 2.86844 3.08704 0
M  V30 46892 H 4284.73 1.65588 2.8151 0
M  V30 46893 H 4283.39 3.34125 1.50852 0
M  V30 46894 H 4283.04 3.08679 3.97147 0
M  V30 46895 H 4282.74 4.76148 3.44321 0
M  V30 46896 H 4284.27 4.35333 4.28156 0
M  V30 46897 H 4285.68 5.28914 2.21186 0
M  V30 46898 H 4284.08 5.78505 1.59538 0
M  V30 46899 H 4285.15 4.8158 0.566462 0
M  V30 46900 N 4286.49 -0.330122 1.54104 0
M  V30 46901 C 4287.9 -0.904953 1.63302 0
M  V30 46902 C 4288.25 -1.89104 0.522883 0
M  V30 46903 O 4287.38 -2.13628 -0.345267 0
M  V30 46904 C 4287.97 -1.64812 2.96011 0
M  V30 46905 C 4286.53 -2.17177 3.07427 0
M  V30 46906 C 4285.68 -0.99508 2.58831 0
M  V30 46907 H 4288.63 -0.107883 1.58333 0
M  V30 46908 H 4288.65 -2.51191 2.85803 0
M  V30 46909 H 4288.16 -0.93018 3.76788 0
M  V30 46910 H 4286.26 -2.92106 2.31311 0
M  V30 46911 H 4286.38 -2.42627 4.13121 0
M  V30 46912 H 4284.74 -1.37237 2.14565 0
M  V30 46913 H 4285.52 -0.291561 3.4206 0
M  V30 46914 N 4287.97 -1.46065 -0.591845 0
M  V30 46915 C 4289.2 -1.54456 -1.37663 0
M  V30 46916 C 4289.61 -0.182513 -1.87916 0
M  V30 46917 O 4288.97 0.818663 -1.63108 0
M  V30 46918 C 4289.02 -2.5419 -2.57041 0
M  V30 46919 O 4288.74 -3.85103 -2.08872 0
M  V30 46920 C 4290.24 -2.72432 -3.49708 0
M  V30 46921 H 4287.46 -0.522605 -0.420863 0
M  V30 46922 H 4290.01 -1.91393 -0.720353 0
M  V30 46923 H 4288.16 -2.20281 -3.18677 0
M  V30 46924 H 4288.57 -4.39306 -2.8655 0
M  V30 46925 H 4290.05 -3.46158 -4.29975 0
M  V30 46926 H 4290.53 -1.79017 -4.01061 0
M  V30 46927 H 4291.13 -3.074 -2.93914 0
M  V30 46928 N 4289.45 0.835705 -1.33618 0
M  V30 46929 C 4290.86 1.40746 -1.22668 0
M  V30 46930 C 4291.21 1.95602 0.15312 0
M  V30 46931 O 4290.33 1.8906 1.05287 0
M  V30 46932 C 4290.93 2.55853 -2.22092 0
M  V30 46933 C 4289.49 3.08972 -2.14972 0
M  V30 46934 C 4288.63 1.81786 -2.09402 0
M  V30 46935 H 4291.59 0.641196 -1.4517 0
M  V30 46936 H 4291.61 3.33577 -1.83048 0
M  V30 46937 H 4291.12 2.15898 -3.22506 0
M  V30 46938 H 4289.22 3.53464 -1.17871 0
M  V30 46939 H 4289.33 3.68931 -3.05658 0
M  V30 46940 H 4287.7 2.02163 -1.54926 0
M  V30 46941 H 4288.48 1.44022 -3.11629 0
M  V30 46942 N 4290.92 1.17138 1.05434 0
M  V30 46943 C 4291.83 0.900451 2.16631 0
M  V30 46944 C 4292.85 -0.130492 1.7351 0
M  V30 46945 O 4294.03 0.0481983 2.01342 0
M  V30 46946 C 4291.09 0.414815 3.44209 0
M  V30 46947 C 4290.15 1.51205 4.0179 0
M  V30 46948 C 4289.39 1.04949 5.23279 0
M  V30 46949 O 4289.61 -0.0973402 5.70317 0
M  V30 46950 O 4288.54 1.8415 5.73038 0
M  V30 46951 H 4292.37 1.83053 2.42333 0
M  V30 46952 H 4289.95 0.952062 1.15135 0
M  V30 46953 H 4291.84 0.151393 4.21128 0
M  V30 46954 H 4290.51 -0.487143 3.20013 0
M  V30 46955 H 4289.42 1.82932 3.26323 0
M  V30 46956 H 4290.75 2.38963 4.303 0
M  V30 46957 N 4292.4 -1.24116 0.971232 0
M  V30 46958 C 4293.63 -1.96332 0.652783 0
M  V30 46959 C 4294.05 -1.72003 -0.778478 0
M  V30 46960 O 4293.4 -1.00592 -1.52275 0
M  V30 46961 C 4293.45 -3.49536 0.922323 0
M  V30 46962 O 4293.17 -3.73035 2.29732 0
M  V30 46963 C 4294.68 -4.38963 0.618552 0
M  V30 46964 H 4291.9 -0.625351 0.243263 0
M  V30 46965 H 4294.44 -1.57851 1.30013 0
M  V30 46966 H 4292.59 -3.86067 0.321135 0
M  V30 46967 H 4293.01 -4.67392 2.38002 0
M  V30 46968 H 4294.48 -5.45298 0.857578 0
M  V30 46969 H 4294.96 -4.36917 -0.44725 0
M  V30 46970 H 4295.57 -4.08025 1.1998 0
M  V30 46971 N 4293.88 -0.741771 -1.39052 0
M  V30 46972 C 4295.13 -0.293124 -2.0067 0
M  V30 46973 C 4295.46 1.11879 -1.58735 0
M  V30 46974 O 4294.73 1.76399 -0.819366 0
M  V30 46975 C 4295.02 -0.402636 -3.57842 0
M  V30 46976 C 4294.87 -1.85481 -4.09777 0
M  V30 46977 C 4296.19 0.210962 -4.39594 0
M  V30 46978 H 4293.31 -0.107983 -0.729046 0
M  V30 46979 H 4295.95 -0.939198 -1.65164 0
M  V30 46980 H 4294.1 0.147414 -3.8822 0
M  V30 46981 H 4295.77 -2.46226 -3.9009 0
M  V30 46982 H 4294.02 -2.37387 -3.63084 0
M  V30 46983 H 4294.69 -1.88266 -5.18902 0
M  V30 46984 H 4297.16 -0.25801 -4.15299 0
M  V30 46985 H 4296.04 0.104029 -5.48801 0
M  V30 46986 H 4296.3 1.29785 -4.22621 0
M  V30 46987 N 4295.36 1.49792 -0.489923 0
M  V30 46988 C 4296.77 1.86658 -0.0393962 0
M  V30 46989 C 4297.12 1.40321 1.3713 0
M  V30 46990 O 4296.25 0.776276 2.01997 0
M  V30 46991 C 4296.84 3.38738 -0.0647167 0
M  V30 46992 C 4295.4 3.74947 0.330419 0
M  V30 46993 C 4294.55 2.73754 -0.442071 0
M  V30 46994 H 4297.5 1.42267 -0.70327 0
M  V30 46995 H 4297.52 3.7337 0.733164 0
M  V30 46996 H 4297.03 3.72433 -1.09156 0
M  V30 46997 H 4295.13 3.46857 1.36091 0
M  V30 46998 H 4295.24 4.79096 0.018671 0
M  V30 46999 H 4293.61 2.54476 0.106681 0
M  V30 47000 H 4294.39 3.10293 -1.46878 0
M  V30 47001 N 4296.84 0.223289 1.5601 0
M  V30 47002 C 4298.08 -0.407942 1.98348 0
M  V30 47003 C 4298.41 -1.59649 1.11097 0
M  V30 47004 O 4297.67 -1.95075 0.156306 0
M  V30 47005 C 4297.97 -0.88367 3.46303 0
M  V30 47006 C 4297.63 0.194545 4.5048 0
M  V30 47007 C 4296.29 0.490736 4.78691 0
M  V30 47008 C 4298.65 0.923661 5.1295 0
M  V30 47009 C 4295.97 1.52053 5.66654 0
M  V30 47010 C 4298.33 1.9428 6.02028 0
M  V30 47011 C 4296.99 2.2459 6.28582 0
M  V30 47012 H 4296.26 -0.149276 0.725808 0
M  V30 47013 H 4298.91 0.326172 1.88702 0
M  V30 47014 H 4297.21 -1.69657 3.53162 0
M  V30 47015 H 4298.91 -1.38195 3.76435 0
M  V30 47016 H 4295.5 -0.0464627 4.28575 0
M  V30 47017 H 4299.68 0.708075 4.91223 0
M  V30 47018 H 4294.94 1.76096 5.85491 0
M  V30 47019 H 4299.11 2.51283 6.49484 0
M  V30 47020 H 4296.74 3.04528 6.96539 0
M  V30 47021 N 4298.31 -1.5752 -0.0500839 0
M  V30 47022 C 4299.73 -1.54367 -0.405339 0
M  V30 47023 C 4299.93 -0.946554 -1.77884 0
M  V30 47024 O 4298.99 -0.558449 -2.46247 0
M  V30 47025 C 4300.3 -2.98923 -0.32647 0
M  V30 47026 C 4301.85 -3.10368 -0.405086 0
M  V30 47027 C 4302.32 -4.56615 -0.355894 0
M  V30 47028 N 4303.81 -4.61334 -0.415323 0
M  V30 47029 C 4304.55 -5.72004 -0.399819 0
M  V30 47030 N 4304.04 -6.91976 -0.337845 0
M  V30 47031 N 4305.84 -5.60312 -0.447993 0
M  V30 47032 H 4297.99 -1.94693 0.849013 0
M  V30 47033 H 4300.25 -0.89207 0.320803 0
M  V30 47034 H 4299.96 -3.46254 0.616548 0
M  V30 47035 H 4299.83 -3.59928 -1.12833 0
M  V30 47036 H 4302.22 -2.62997 -1.33853 0
M  V30 47037 H 4302.3 -2.52232 0.425747 0
M  V30 47038 H 4301.94 -5.04648 0.573794 0
M  V30 47039 H 4301.87 -5.12638 -1.20455 0
M  V30 47040 H 4304.36 -3.75008 -0.466588 0
M  V30 47041 H 4304.68 -7.72093 -0.330537 0
M  V30 47042 H 4303.02 -6.94334 -0.304205 0
M  V30 47043 H 4306.21 -4.65483 -0.494254 0
M  V30 47044 H 4306.39 -6.46555 -0.432442 0
M  V30 47045 N 4299.79 0.321945 -1.54277 0
M  V30 47046 C 4300.72 1.40142 -1.86768 0
M  V30 47047 C 4301.7 1.53893 -0.724628 0
M  V30 47048 O 4302.89 1.67746 -0.978507 0
M  V30 47049 C 4300.02 2.76885 -2.09647 0
M  V30 47050 C 4298.97 2.77921 -3.2549 0
M  V30 47051 C 4298.3 4.17755 -3.33743 0
M  V30 47052 C 4299.6 2.41525 -4.63102 0
M  V30 47053 H 4301.29 1.13199 -2.77176 0
M  V30 47054 H 4298.84 0.543111 -1.33365 0
M  V30 47055 H 4300.79 3.5247 -2.30961 0
M  V30 47056 H 4299.52 3.05309 -1.1599 0
M  V30 47057 H 4298.17 2.04792 -3.04065 0
M  V30 47058 H 4297.82 4.43323 -2.37642 0
M  V30 47059 H 4297.52 4.19354 -4.11601 0
M  V30 47060 H 4299.05 4.9515 -3.57294 0
M  V30 47061 H 4300.46 3.06822 -4.84286 0
M  V30 47062 H 4298.86 2.54372 -5.43521 0
M  V30 47063 H 4299.93 1.36672 -4.65241 0
M  V30 47064 N 4301.27 1.46377 0.58409 0
M  V30 47065 C 4302.5 1.55184 1.36842 0
M  V30 47066 C 4302.91 0.192476 1.87816 0
M  V30 47067 O 4302.27 -0.810002 1.6354 0
M  V30 47068 C 4302.32 2.55549 2.55689 0
M  V30 47069 O 4302.04 3.86205 2.06827 0
M  V30 47070 C 4303.54 2.74283 3.48258 0
M  V30 47071 H 4300.76 0.524829 0.418085 0
M  V30 47072 H 4303.31 1.91772 0.710193 0
M  V30 47073 H 4301.46 2.21968 3.17504 0
M  V30 47074 H 4301.88 4.40819 2.84216 0
M  V30 47075 H 4303.35 3.48433 4.28134 0
M  V30 47076 H 4303.83 1.81141 4.00106 0
M  V30 47077 H 4304.43 3.08954 2.9228 0
M  V30 47078 N 4302.75 -0.828607 1.34059 0
M  V30 47079 C 4304.17 -1.12086 1.13617 0
M  V30 47080 C 4304.37 -2.01391 -0.0661187 0
M  V30 47081 O 4303.42 -2.4131 -0.74334 0
M  V30 47082 C 4304.73 -1.77305 2.42865 0
M  V30 47083 C 4306.28 -1.89826 2.48868 0
M  V30 47084 C 4306.76 -2.58461 3.78103 0
M  V30 47085 N 4308.25 -2.65965 3.79232 0
M  V30 47086 C 4308.98 -3.19787 4.75945 0
M  V30 47087 N 4308.48 -3.74216 5.83039 0
M  V30 47088 N 4310.27 -3.18135 4.63408 0
M  V30 47089 H 4302.42 -0.234468 2.11102 0
M  V30 47090 H 4304.69 -0.166562 0.933253 0
M  V30 47091 H 4304.39 -1.19147 3.30903 0
M  V30 47092 H 4304.27 -2.77229 2.55781 0
M  V30 47093 H 4306.65 -2.47134 1.61273 0
M  V30 47094 H 4306.73 -0.888214 2.39884 0
M  V30 47095 H 4306.38 -2.01809 4.66086 0
M  V30 47096 H 4306.31 -3.59958 3.84367 0
M  V30 47097 H 4308.8 -2.27379 3.0184 0
M  V30 47098 H 4309.11 -4.13518 6.52857 0
M  V30 47099 H 4307.46 -3.72475 5.8676 0
M  V30 47100 H 4310.65 -2.74876 3.78894 0
M  V30 47101 H 4310.82 -3.59776 5.38948 0
M  V30 47102 N 4304.23 -1.17696 -1.04812 0
M  V30 47103 C 4305.5 -0.87753 -1.74811 0
M  V30 47104 C 4305.88 0.621348 -2.01749 0
M  V30 47105 O 4305.23 1.57379 -1.65662 0
M  V30 47106 C 4305.44 -1.71663 -3.03863 0
M  V30 47107 C 4306.79 -1.93898 -3.77742 0
M  V30 47108 O 4307.81 -1.68653 -3.13743 0
M  V30 47109 O 4306.67 -2.36348 -4.92749 0
M  V30 47110 H 4303.77 -0.325274 -0.760346 0
M  V30 47111 H 4306.31 -1.28411 -1.10945 0
M  V30 47112 H 4305.09 -2.73306 -2.80035 0
M  V30 47113 H 4304.71 -1.30808 -3.75467 0
M  V30 47114 N 4305.71 1.23599 -0.977801 0
M  V30 47115 C 4306.95 1.91251 -0.640783 0
M  V30 47116 C 4307.27 1.7716 0.829077 0
M  V30 47117 O 4308.47 2.39591 1.27705 0
M  V30 47118 C 4306.93 3.42822 -1.09548 0
M  V30 47119 C 4306.54 3.6558 -2.58951 0
M  V30 47120 C 4308.28 4.16265 -0.832088 0
M  V30 47121 C 4306.19 5.10774 -2.98101 0
M  V30 47122 H 4305.12 0.716127 -0.235961 0
M  V30 47123 H 4307.77 1.40077 -1.18536 0
M  V30 47124 H 4306.15 3.93091 -0.479145 0
M  V30 47125 H 4307.33 3.25869 -3.25801 0
M  V30 47126 H 4305.64 3.05442 -2.83009 0
M  V30 47127 H 4308.24 5.23253 -1.10048 0
M  V30 47128 H 4308.58 4.15654 0.231786 0
M  V30 47129 H 4309.11 3.71977 -1.40988 0
M  V30 47130 H 4305.85 5.16513 -4.03601 0
M  V30 47131 H 4305.37 5.51444 -2.35943 0
M  V30 47132 H 4307.05 5.79086 -2.88563 0
M  V30 47133 N 4307.18 0.749135 1.38657 0
M  V30 47134 C 4308.43 0.303762 2.00512 0
M  V30 47135 C 4308.76 -1.11036 1.59326 0
M  V30 47136 O 4308.04 -1.75962 0.828709 0
M  V30 47137 C 4308.32 0.421608 3.57623 0
M  V30 47138 C 4308.17 1.87652 4.08787 0
M  V30 47139 C 4309.49 -0.187646 4.397 0
M  V30 47140 H 4306.61 0.111848 0.728463 0
M  V30 47141 H 4309.25 0.947944 1.64663 0
M  V30 47142 H 4307.4 -0.126823 3.88293 0
M  V30 47143 H 4309.08 2.48291 3.88779 0
M  V30 47144 H 4307.32 2.39309 3.6182 0
M  V30 47145 H 4307.99 1.91016 5.17897 0
M  V30 47146 H 4310.47 0.280031 4.15157 0
M  V30 47147 H 4309.34 -0.0749234 5.48849 0
M  V30 47148 H 4309.6 -1.27542 4.23303 0
M  V30 47149 N 4308.66 -1.4953 0.49786 0
M  V30 47150 C 4309.94 -1.95287 -0.110638 0
M  V30 47151 C 4310.32 -1.43925 -1.5443 0
M  V30 47152 O 4309.67 -0.651654 -2.19011 0
M  V30 47153 C 4309.88 -3.4899 -0.0265022 0
M  V30 47154 C 4311.22 -4.24119 -0.202007 0
M  V30 47155 O 4312.25 -3.56054 -0.101837 0
M  V30 47156 O 4311.11 -5.4498 -0.407277 0
M  V30 47157 H 4308.2 -0.821289 -0.0970261 0
M  V30 47158 H 4310.75 -1.60188 0.560174 0
M  V30 47159 H 4309.52 -3.78999 0.973422 0
M  V30 47160 H 4309.14 -3.90698 -0.737599 0
M  V30 47161 N 4310.14 -0.23156 -1.5589 0
M  V30 47162 C 4311.39 0.396632 -1.9817 0
M  V30 47163 C 4311.71 1.59579 -1.1207 0
M  V30 47164 O 4310.98 1.94877 -0.199976 0
M  V30 47165 H 4309.56 0.149531 -0.731881 0
M  V30 47166 H 4312.22 -0.326783 -1.92141 0
M  V30 47167 H 4311.32 0.716189 -3.03772 0
M  V30 47168 N 4311.62 1.57545 0.0417295 0
M  V30 47169 C 4312.55 2.01081 1.07896 0
M  V30 47170 C 4313.53 0.892875 1.35892 0
M  V30 47171 O 4314.71 1.15768 1.48761 0
M  V30 47172 C 4311.84 2.37312 2.41663 0
M  V30 47173 C 4310.89 3.5942 2.29607 0
M  V30 47174 S 4311.72 5.09072 1.66152 0
M  V30 47175 C 4312.87 5.48533 3.01434 0
M  V30 47176 H 4313.11 2.88745 0.708079 0
M  V30 47177 H 4310.64 1.52341 0.251292 0
M  V30 47178 H 4312.6 2.58858 3.18595 0
M  V30 47179 H 4311.26 1.50123 2.75902 0
M  V30 47180 H 4310.45 3.82385 3.28326 0
M  V30 47181 H 4310.05 3.3766 1.60816 0
M  V30 47182 H 4312.35 5.48442 3.97765 0
M  V30 47183 H 4313.29 6.48994 2.83217 0
M  V30 47184 H 4313.7 4.76019 3.03424 0
M  V30 47185 N 4313.1 -0.313759 1.54445 0
M  V30 47186 C 4314.34 -1.04846 1.72777 0
M  V30 47187 C 4314.66 -1.88225 0.50954 0
M  V30 47188 O 4313.93 -1.9002 -0.476362 0
M  V30 47189 H 4312.51 -0.390081 0.63706 0
M  V30 47190 H 4315.18 -0.347826 1.91771 0
M  V30 47191 H 4314.27 -1.70888 2.61158 0
M  V30 47192 N 4314.57 -1.46684 -0.576319 0
M  V30 47193 C 4315.82 -1.5159 -1.33054 0
M  V30 47194 C 4316.14 -0.174688 -1.94818 0
M  V30 47195 O 4317.34 -0.101593 -2.7131 0
M  V30 47196 C 4315.8 -2.67137 -2.41176 0
M  V30 47197 C 4315.41 -4.07707 -1.85686 0
M  V30 47198 C 4317.15 -2.81319 -3.17899 0
M  V30 47199 C 4315.06 -5.14584 -2.91475 0
M  V30 47200 H 4313.99 -0.564184 -0.500212 0
M  V30 47201 H 4316.64 -1.72912 -0.614316 0
M  V30 47202 H 4315.02 -2.39158 -3.15626 0
M  V30 47203 H 4316.19 -4.45505 -1.17736 0
M  V30 47204 H 4314.51 -3.98246 -1.21609 0
M  V30 47205 H 4317.11 -3.58336 -3.96862 0
M  V30 47206 H 4317.45 -1.89066 -3.7089 0
M  V30 47207 H 4317.98 -3.08976 -2.50557 0
M  V30 47208 H 4314.72 -6.0865 -2.43363 0
M  V30 47209 H 4314.24 -4.81323 -3.57894 0
M  V30 47210 H 4315.92 -5.40706 -3.55312 0
M  V30 47211 N 4316.05 0.821486 -1.34497 0
M  V30 47212 C 4317.28 1.60947 -1.30014 0
M  V30 47213 C 4317.69 1.88382 0.125489 0
M  V30 47214 O 4317.05 1.47624 1.073 0
M  V30 47215 C 4317.1 2.94954 -2.09008 0
M  V30 47216 O 4316.82 2.68715 -3.46012 0
M  V30 47217 C 4318.32 3.89354 -2.11939 0
M  V30 47218 H 4315.54 0.500243 -0.447212 0
M  V30 47219 H 4318.09 1.02199 -1.77131 0
M  V30 47220 H 4316.24 3.50256 -1.65529 0
M  V30 47221 H 4316.66 3.54172 -3.86862 0
M  V30 47222 H 4318.13 4.80542 -2.71631 0
M  V30 47223 H 4318.61 4.24833 -1.11417 0
M  V30 47224 H 4319.21 3.39989 -2.55514 0
M  V30 47225 N 4317.53 1.1825 1.04186 0
M  V30 47226 C 4318.78 0.975192 1.77015 0
M  V30 47227 C 4319.1 -0.496518 1.88573 0
M  V30 47228 O 4318.37 -1.36015 1.40985 0
M  V30 47229 H 4316.95 0.35783 0.655719 0
M  V30 47230 H 4319.61 1.4891 1.25745 0
M  V30 47231 H 4318.71 1.41218 2.78323 0
M  V30 47232 N 4319.01 -1.23079 0.984342 0
M  V30 47233 C 4320.25 -1.91884 0.656386 0
M  V30 47234 C 4320.59 -1.76569 -0.80851 0
M  V30 47235 O 4319.86 -1.12915 -1.58368 0
M  V30 47236 C 4320.15 -3.44377 1.05245 0
M  V30 47237 C 4320 -3.68782 2.57527 0
M  V30 47238 C 4321.32 -4.36001 0.599295 0
M  V30 47239 H 4318.44 -0.696851 0.239933 0
M  V30 47240 H 4321.08 -1.45124 1.22633 0
M  V30 47241 H 4319.23 -3.84333 0.567491 0
M  V30 47242 H 4320.9 -3.38283 3.13628 0
M  V30 47243 H 4319.14 -3.13357 2.99983 0
M  V30 47244 H 4319.81 -4.75543 2.8029 0
M  V30 47245 H 4322.29 -4.03512 1.01572 0
M  V30 47246 H 4321.17 -5.41391 0.904812 0
M  V30 47247 H 4321.43 -4.3926 -0.500282 0
M  V30 47248 N 4320.49 -0.756478 -1.38258 0
M  V30 47249 C 4321.4 -0.132837 -2.34224 0
M  V30 47250 C 4322.41 0.697323 -1.59416 0
M  V30 47251 O 4323.59 0.620804 -1.91593 0
M  V30 47252 C 4320.65 0.747623 -3.38543 0
M  V30 47253 C 4319.71 -0.0972415 -4.2919 0
M  V30 47254 C 4318.95 0.74129 -5.28527 0
M  V30 47255 O 4319.17 1.97916 -5.34963 0
M  V30 47256 O 4318.1 0.158564 -6.01691 0
M  V30 47257 H 4321.93 -0.92546 -2.89256 0
M  V30 47258 H 4319.52 -0.517413 -1.40154 0
M  V30 47259 H 4321.4 1.25074 -4.02411 0
M  V30 47260 H 4320.07 1.51869 -2.85863 0
M  V30 47261 H 4318.98 -0.646376 -3.68474 0
M  V30 47262 H 4320.31 -0.831033 -4.85134 0
M  V30 47263 N 4321.96 1.49264 -0.505783 0
M  V30 47264 C 4323.21 2.02066 0.0369632 0
M  V30 47265 C 4323.53 1.38725 1.37041 0
M  V30 47266 O 4322.8 0.544215 1.88189 0
M  V30 47267 H 4321.38 0.746814 0.0166497 0
M  V30 47268 H 4324.05 1.83236 -0.664112 0
M  V30 47269 H 4323.14 3.11673 0.163125 0
M  V30 47270 N 4323.44 0.239823 1.55765 0
M  V30 47271 C 4324.69 -0.387454 1.99064 0
M  V30 47272 C 4325.02 -1.58105 1.12768 0
M  V30 47273 O 4324.3 -1.93575 0.189457 0
M  V30 47274 C 4324.58 -0.804228 3.51005 0
M  V30 47275 C 4324.43 0.394264 4.48069 0
M  V30 47276 C 4325.75 -1.65379 4.07845 0
M  V30 47277 H 4322.87 -0.139359 0.723704 0
M  V30 47278 H 4325.51 0.339718 1.86938 0
M  V30 47279 H 4323.66 -1.42382 3.61469 0
M  V30 47280 H 4325.33 1.03263 4.49594 0
M  V30 47281 H 4323.58 1.03859 4.21184 0
M  V30 47282 H 4324.25 0.0594258 5.51968 0
M  V30 47283 H 4326.72 -1.13084 4.00439 0
M  V30 47284 H 4325.6 -1.91427 5.14438 0
M  V30 47285 H 4325.86 -2.62327 3.55861 0
M  V30 47286 N 4324.92 -1.57565 -0.0333739 0
M  V30 47287 C 4326.17 -1.89075 -0.72505 0
M  V30 47288 C 4326.5 -0.836571 -1.7559 0
M  V30 47289 O 4325.75 0.162989 -1.9502 0
M  V30 47290 C 4326.05 -3.27325 -1.43504 0
M  V30 47291 C 4325.72 -4.47648 -0.540579 0
M  V30 47292 C 4324.38 -4.803 -0.294205 0
M  V30 47293 C 4326.73 -5.21143 0.0772499 0
M  V30 47294 C 4324.06 -5.83838 0.578846 0
M  V30 47295 C 4326.41 -6.25608 0.937977 0
M  V30 47296 C 4325.07 -6.56737 1.19385 0
M  V30 47297 H 4324.34 -0.691874 -0.265315 0
M  V30 47298 H 4326.99 -1.91494 0.0149791 0
M  V30 47299 H 4325.3 -3.20873 -2.24828 0
M  V30 47300 H 4326.99 -3.48952 -1.97569 0
M  V30 47301 H 4323.58 -4.22115 -0.742758 0
M  V30 47302 H 4327.77 -4.96199 -0.100136 0
M  V30 47303 H 4323.02 -6.06334 0.785442 0
M  V30 47304 H 4327.2 -6.81701 1.42325 0
M  V30 47305 H 4324.82 -7.36788 1.87209 0
M  V30 47306 N 4326.4 0.305564 -1.54609 0
M  V30 47307 C 4327.81 0.650963 -1.45721 0
M  V30 47308 C 4328.01 1.90908 -0.644695 0
M  V30 47309 O 4327.07 2.52051 -0.150589 0
M  V30 47310 C 4328.38 0.808208 -2.89635 0
M  V30 47311 C 4329.93 0.904389 -2.99649 0
M  V30 47312 C 4330.41 1.09367 -4.4475 0
M  V30 47313 N 4331.9 1.15998 -4.4844 0
M  V30 47314 C 4332.63 1.32464 -5.5789 0
M  V30 47315 N 4332.13 1.45858 -6.77272 0
M  V30 47316 N 4333.92 1.35316 -5.45569 0
M  V30 47317 H 4326.07 -0.521119 -2.05908 0
M  V30 47318 H 4328.34 -0.171472 -0.932363 0
M  V30 47319 H 4328.04 -0.0452921 -3.51671 0
M  V30 47320 H 4327.92 1.6986 -3.3679 0
M  V30 47321 H 4330.3 1.74838 -2.3773 0
M  V30 47322 H 4330.38 -0.00992095 -2.55798 0
M  V30 47323 H 4330.03 0.254461 -5.07262 0
M  V30 47324 H 4329.96 2.02213 -4.86228 0
M  V30 47325 H 4332.45 1.07019 -3.6243 0
M  V30 47326 H 4332.76 1.58165 -7.56441 0
M  V30 47327 H 4331.11 1.42922 -6.80146 0
M  V30 47328 H 4334.3 1.24461 -4.51251 0
M  V30 47329 H 4334.47 1.47806 -6.30918 0
M  V30 47330 N 4327.88 1.46988 0.568532 0
M  V30 47331 C 4329.29 1.32256 0.893336 0
M  V30 47332 C 4329.49 0.304566 1.99185 0
M  V30 47333 O 4328.55 -0.287902 2.50853 0
M  V30 47334 C 4329.86 2.71277 1.29728 0
M  V30 47335 C 4331.41 2.79476 1.40934 0
M  V30 47336 C 4331.88 4.19111 1.84688 0
M  V30 47337 N 4333.38 4.21598 1.91858 0
M  V30 47338 C 4334.11 5.26546 2.27018 0
M  V30 47339 N 4333.61 6.41808 2.60871 0
M  V30 47340 N 4335.4 5.13918 2.27695 0
M  V30 47341 H 4327.55 2.1182 -0.156894 0
M  V30 47342 H 4329.81 0.94797 -0.00752205 0
M  V30 47343 H 4329.52 3.47148 0.56402 0
M  V30 47344 H 4329.39 3.0231 2.25584 0
M  V30 47345 H 4331.78 2.03884 2.13343 0
M  V30 47346 H 4331.86 2.5211 0.432933 0
M  V30 47347 H 4331.51 4.95204 1.12853 0
M  V30 47348 H 4331.44 4.43894 2.83312 0
M  V30 47349 H 4333.93 3.38439 1.68129 0
M  V30 47350 H 4334.24 7.17653 2.86694 0
M  V30 47351 H 4332.58 6.45147 2.58477 0
M  V30 47352 H 4335.78 4.22901 2.0068 0
M  V30 47353 H 4335.95 5.95817 2.54767 0
M  V30 47354 N 4329.35 -0.814342 1.3493 0
M  V30 47355 C 4330.59 -1.58448 1.29126 0
M  V30 47356 C 4330.96 -1.91527 -0.134697 0
M  V30 47357 O 4332.16 -2.66924 -0.317016 0
M  V30 47358 C 4330.43 -2.8435 2.16518 0
M  V30 47359 S 4331.99 -3.74823 2.28152 0
M  V30 47360 H 4328.81 -0.542983 0.45901 0
M  V30 47361 H 4331.41 -0.961219 1.70238 0
M  V30 47362 H 4330.11 -2.5806 3.19114 0
M  V30 47363 H 4329.64 -3.51667 1.76335 0
M  V30 47364 H 4331.66 -4.74215 1.46062 0
M  V30 47365 N 4330.83 -1.18801 -1.03557 0
M  V30 47366 C 4332.07 -0.997555 -1.78405 0
M  V30 47367 C 4332.44 0.464136 -1.86306 0
M  V30 47368 O 4333.64 0.774192 -2.5741 0
M  V30 47369 C 4331.91 -1.64038 -3.17531 0
M  V30 47370 S 4333.47 -1.5984 -4.08652 0
M  V30 47371 H 4330.29 -0.358111 -0.614229 0
M  V30 47372 H 4332.89 -1.51033 -1.24134 0
M  V30 47373 H 4331.59 -2.69636 -3.09394 0
M  V30 47374 H 4331.12 -1.12812 -3.76878 0
M  V30 47375 H 4333.14 -0.617867 -4.92338 0
M  V30 47376 N 4332.31 1.22555 -0.990855 0
M  V30 47377 C 4333.22 2.28103 -0.548303 0
M  V30 47378 C 4334.24 1.69294 0.401931 0
M  V30 47379 O 4335.41 1.99592 0.269269 0
M  V30 47380 C 4332.48 3.46448 0.132061 0
M  V30 47381 C 4331.54 4.2058 -0.86088 0
M  V30 47382 C 4330.77 5.33275 -0.21289 0
M  V30 47383 O 4331 5.61678 0.993674 0
M  V30 47384 O 4329.93 5.94878 -0.916724 0
M  V30 47385 H 4333.76 2.68122 -1.42634 0
M  V30 47386 H 4331.34 1.28684 -0.759002 0
M  V30 47387 H 4333.22 4.18263 0.513252 0
M  V30 47388 H 4331.9 3.08359 0.9847 0
M  V30 47389 H 4330.8 3.51046 -1.29297 0
M  V30 47390 H 4332.14 4.62545 -1.68266 0
M  V30 47391 N 4333.79 0.763799 1.37855 0
M  V30 47392 C 4334.74 0.142904 2.30357 0
M  V30 47393 C 4335.71 -0.698522 1.50698 0
M  V30 47394 O 4336.89 -0.652535 1.79295 0
M  V30 47395 C 4334.03 -0.736409 3.37151 0
M  V30 47396 C 4333.14 0.120756 4.31831 0
M  V30 47397 C 4332.28 -0.762517 5.25699 0
M  V30 47398 C 4331.32 0.0976648 6.12022 0
M  V30 47399 N 4330.46 -0.743138 6.98156 0
M  V30 47400 H 4335.3 0.937285 2.82876 0
M  V30 47401 H 4332.83 0.473822 1.3926 0
M  V30 47402 H 4334.79 -1.26095 3.97688 0
M  V30 47403 H 4333.42 -1.49647 2.86017 0
M  V30 47404 H 4332.47 0.76303 3.72669 0
M  V30 47405 H 4333.78 0.784614 4.9259 0
M  V30 47406 H 4332.94 -1.35384 5.91402 0
M  V30 47407 H 4331.68 -1.46008 4.65331 0
M  V30 47408 H 4330.68 0.701586 5.45305 0
M  V30 47409 H 4331.91 0.792441 6.74461 0
M  V30 47410 H 4329.85 -1.42546 6.40325 0
M  V30 47411 H 4329.77 -0.136402 7.55877 0
M  V30 47412 H 4331.04 -1.31911 7.68258 0
M  V30 47413 N 4335.27 -1.48993 0.513692 0
M  V30 47414 C 4336.5 -2.06888 -0.0227323 0
M  V30 47415 C 4336.91 -1.3724 -1.29655 0
M  V30 47416 O 4336.27 -0.45471 -1.76745 0
M  V30 47417 C 4336.32 -3.60511 -0.26722 0
M  V30 47418 O 4336.04 -4.27539 0.956118 0
M  V30 47419 C 4337.54 -4.35155 -0.845861 0
M  V30 47420 H 4334.76 -0.670489 0.0261709 0
M  V30 47421 H 4337.3 -1.91605 0.71468 0
M  V30 47422 H 4335.46 -3.75454 -0.954641 0
M  V30 47423 H 4335.87 -5.1944 0.726776 0
M  V30 47424 H 4337.35 -5.43474 -0.966443 0
M  V30 47425 H 4337.82 -3.98485 -1.8468 0
M  V30 47426 H 4338.43 -4.2485 -0.195515 0
M  V30 47427 N 4336.75 -0.248081 -1.55635 0
M  V30 47428 C 4337.68 0.691646 -2.17466 0
M  V30 47429 C 4338.66 1.17199 -1.12708 0
M  V30 47430 O 4339.84 1.24991 -1.41101 0
M  V30 47431 C 4336.97 1.94011 -2.77628 0
M  V30 47432 C 4336.01 1.59753 -3.95451 0
M  V30 47433 S 4336.85 0.699134 -5.30917 0
M  V30 47434 C 4338 1.95658 -5.94533 0
M  V30 47435 H 4338.24 0.166196 -2.96835 0
M  V30 47436 H 4335.77 -0.0325282 -1.54366 0
M  V30 47437 H 4337.73 2.65684 -3.12926 0
M  V30 47438 H 4336.39 2.43669 -1.98203 0
M  V30 47439 H 4335.58 2.52581 -4.36141 0
M  V30 47440 H 4335.18 0.961232 -3.61436 0
M  V30 47441 H 4337.47 2.90369 -6.12121 0
M  V30 47442 H 4338.42 1.59314 -6.89945 0
M  V30 47443 H 4338.83 2.1092 -5.23615 0
M  V30 47444 N 4338.22 1.5758 0.0250174 0
M  V30 47445 C 4339.13 2.10227 1.04124 0
M  V30 47446 C 4340.15 1.0418 1.39365 0
M  V30 47447 O 4341.33 1.35939 1.48602 0
M  V30 47448 C 4338.39 2.57454 2.32203 0
M  V30 47449 C 4337.45 3.78 2.03506 0
M  V30 47450 C 4336.68 4.22965 3.25478 0
M  V30 47451 O 4336.91 3.67428 4.36295 0
M  V30 47452 O 4335.84 5.15363 3.10941 0
M  V30 47453 H 4339.67 2.97224 0.623806 0
M  V30 47454 H 4337.25 1.47423 0.24226 0
M  V30 47455 H 4339.13 2.88142 3.07493 0
M  V30 47456 H 4337.81 1.73566 2.73233 0
M  V30 47457 H 4336.72 3.52324 1.25771 0
M  V30 47458 H 4338.05 4.62884 1.67328 0
M  V30 47459 N 4339.7 -0.29736 1.54769 0
M  V30 47460 C 4340.95 -1.03364 1.74481 0
M  V30 47461 C 4341.28 -1.86798 0.53104 0
M  V30 47462 O 4340.56 -1.88691 -0.471814 0
M  V30 47463 C 4340.84 -1.9366 3.03592 0
M  V30 47464 C 4340.69 -1.13381 4.35276 0
M  V30 47465 C 4342.01 -2.92773 3.28591 0
M  V30 47466 H 4339.13 -0.374369 0.634836 0
M  V30 47467 H 4341.77 -0.30799 1.87487 0
M  V30 47468 H 4339.92 -2.55533 2.92635 0
M  V30 47469 H 4341.59 -0.537658 4.58156 0
M  V30 47470 H 4339.84 -0.436609 4.31597 0
M  V30 47471 H 4340.51 -1.79821 5.21889 0
M  V30 47472 H 4342.98 -2.41029 3.39181 0
M  V30 47473 H 4341.86 -3.53115 4.20239 0
M  V30 47474 H 4342.12 -3.66625 2.4706 0
M  V30 47475 N 4341.18 -1.47287 -0.560729 0
M  V30 47476 C 4342.11 -1.54047 -1.68359 0
M  V30 47477 C 4343.09 -0.392873 -1.57782 0
M  V30 47478 O 4344.27 -0.600172 -1.7869 0
M  V30 47479 C 4341.4 -1.4397 -3.06579 0
M  V30 47480 C 4340.45 -2.63187 -3.35611 0
M  V30 47481 S 4341.28 -4.25406 -3.25254 0
M  V30 47482 C 4342.44 -4.17876 -4.65973 0
M  V30 47483 H 4342.67 -2.49044 -1.62371 0
M  V30 47484 H 4340.2 -1.35442 -0.741265 0
M  V30 47485 H 4342.16 -1.38843 -3.86307 0
M  V30 47486 H 4340.82 -0.503626 -3.10036 0
M  V30 47487 H 4340.01 -2.5219 -4.36367 0
M  V30 47488 H 4339.62 -2.65418 -2.63495 0
M  V30 47489 H 4341.91 -3.85912 -5.56846 0
M  V30 47490 H 4342.85 -5.18706 -4.82027 0
M  V30 47491 H 4343.26 -3.48789 -4.43854 0
M  V30 47492 N 4342.66 0.807175 -1.3536 0
M  V30 47493 C 4344.07 1.10264 -1.15386 0
M  V30 47494 C 4344.27 2.01471 0.0340707 0
M  V30 47495 O 4343.33 2.42462 0.704855 0
M  V30 47496 C 4344.64 1.73419 -2.45655 0
M  V30 47497 C 4346.19 1.85842 -2.51856 0
M  V30 47498 C 4346.67 2.52413 -3.82167 0
M  V30 47499 N 4348.16 2.59898 -3.83415 0
M  V30 47500 C 4348.89 3.12174 -4.80973 0
M  V30 47501 N 4348.39 3.64893 -5.88918 0
M  V30 47502 N 4350.18 3.10722 -4.6841 0
M  V30 47503 H 4342.33 0.200854 -2.11448 0
M  V30 47504 H 4344.59 0.151694 -0.935785 0
M  V30 47505 H 4344.3 1.13868 -3.32757 0
M  V30 47506 H 4344.17 2.73125 -2.60159 0
M  V30 47507 H 4346.56 2.44537 -1.65184 0
M  V30 47508 H 4346.64 0.849938 -2.41267 0
M  V30 47509 H 4346.29 1.94368 -4.69237 0
M  V30 47510 H 4346.22 3.53797 -3.90045 0
M  V30 47511 H 4348.71 2.22548 -3.05419 0
M  V30 47512 H 4349.02 4.0308 -6.59353 0
M  V30 47513 H 4347.37 3.63093 -5.92611 0
M  V30 47514 H 4350.56 2.68813 -3.83219 0
M  V30 47515 H 4350.73 3.51156 -5.44604 0
M  V30 47516 N 4344.14 1.19348 1.02926 0
M  V30 47517 C 4345.08 0.927479 2.13309 0
M  V30 47518 C 4346.08 -0.116545 1.68999 0
M  V30 47519 O 4347.28 0.0326628 1.7997 0
M  V30 47520 H 4343.66 0.282523 0.696911 0
M  V30 47521 H 4345.63 1.86504 2.32936 0
M  V30 47522 C 4344.38 0.482254 3.44339 0
M  V30 47523 H 4343.7 1.27715 3.78852 0
M  V30 47524 H 4345.14 0.335233 4.22673 0
M  V30 47525 C 4343.6 -0.803611 3.27175 0
M  V30 47526 O 4344.13 -1.86512 3.55775 0
M  V30 47527 N 4342.34 -0.760696 2.80467 0
M  V30 47528 H 4341.88 0.103391 2.57392 0
M  V30 47529 H 4341.84 -1.62144 2.69364 0
M  V30 47530 N 4345.61 -1.22028 0.997341 0
M  V30 47531 C 4346.84 -1.95444 0.694005 0
M  V30 47532 C 4347.26 -1.7312 -0.735608 0
M  V30 47533 O 4346.62 -1.0132 -1.50346 0
M  V30 47534 C 4346.67 -3.46135 1.0111 0
M  V30 47535 O 4345.77 -4.12247 0.112173 0
M  V30 47536 H 4345.11 -0.611273 0.25931 0
M  V30 47537 H 4347.64 -1.55 1.33552 0
M  V30 47538 H 4347.65 -3.96671 0.954773 0
M  V30 47539 H 4346.33 -3.61708 2.05281 0
M  V30 47540 H 4344.91 -3.72224 0.224363 0
M  V30 47541 N 4347.09 -0.771099 -1.37448 0
M  V30 47542 C 4348.02 -0.115147 -2.28911 0
M  V30 47543 C 4349.04 0.664934 -1.48602 0
M  V30 47544 O 4350.23 0.503134 -1.71262 0
M  V30 47545 C 4347.33 0.860566 -3.27792 0
M  V30 47546 C 4346.5 0.134437 -4.37193 0
M  V30 47547 C 4345.56 1.02342 -5.16152 0
M  V30 47548 O 4344.58 0.487436 -5.67109 0
M  V30 47549 N 4345.79 2.34976 -5.30817 0
M  V30 47550 H 4348.55 -0.900721 -2.85845 0
M  V30 47551 H 4346.11 -0.623392 -1.49417 0
M  V30 47552 H 4348.1 1.4587 -3.77497 0
M  V30 47553 H 4346.67 1.54711 -2.71631 0
M  V30 47554 H 4345.89 -0.644604 -3.88894 0
M  V30 47555 H 4347.18 -0.367337 -5.07472 0
M  V30 47556 H 4346.58 2.80958 -4.90998 0
M  V30 47557 H 4345.14 2.89798 -5.83833 0
M  V30 47558 N 4348.57 1.48719 -0.521586 0
M  V30 47559 C 4349.48 2.33266 0.249806 0
M  V30 47560 C 4350.5 1.45955 0.947271 0
M  V30 47561 O 4351.67 1.78948 0.924094 0
M  V30 47562 C 4348.74 3.2188 1.28818 0
M  V30 47563 C 4347.8 4.25059 0.601966 0
M  V30 47564 C 4347.03 5.09438 1.59087 0
M  V30 47565 O 4347.25 4.95659 2.82273 0
M  V30 47566 O 4346.19 5.91104 1.13487 0
M  V30 47567 H 4350.01 3.00455 -0.442778 0
M  V30 47568 H 4347.6 1.46703 -0.282619 0
M  V30 47569 H 4349.48 3.76716 1.88846 0
M  V30 47570 H 4348.16 2.57362 1.96333 0
M  V30 47571 H 4347.06 3.7408 -0.0385913 0
M  V30 47572 H 4348.4 4.9219 -0.031087 0
M  V30 47573 N 4350.05 0.256331 1.55501 0
M  V30 47574 C 4351.28 -0.369654 2.03571 0
M  V30 47575 C 4351.69 -1.50851 1.13532 0
M  V30 47576 O 4351.05 -1.81869 0.151608 0
M  V30 47577 C 4351.1 -0.868519 3.50912 0
M  V30 47578 O 4350.82 0.224963 4.37522 0
M  V30 47579 C 4352.32 -1.56424 4.14785 0
M  V30 47580 H 4349.54 -0.0867368 0.66537 0
M  V30 47581 H 4352.09 0.382947 2.00882 0
M  V30 47582 H 4350.24 -1.57127 3.54104 0
M  V30 47583 H 4350.65 -0.155375 5.2427 0
M  V30 47584 H 4352.13 -1.86491 5.19543 0
M  V30 47585 H 4352.61 -2.48943 3.61835 0
M  V30 47586 H 4353.21 -0.90582 4.15542 0
M  V30 47587 N 4351.53 -1.57591 -0.0166602 0
M  V30 47588 C 4352.46 -2.10399 -1.01264 0
M  V30 47589 C 4353.44 -1.0093 -1.3692 0
M  V30 47590 O 4354.62 -1.28523 -1.45587 0
M  V30 47591 C 4351.75 -2.59361 -2.30975 0
M  V30 47592 C 4350.71 -3.73206 -2.09527 0
M  V30 47593 C 4350.03 -4.08419 -3.45105 0
M  V30 47594 C 4351.33 -5.01147 -1.47135 0
M  V30 47595 H 4353.03 -2.93866 -0.573002 0
M  V30 47596 H 4350.57 -1.41366 -0.274179 0
M  V30 47597 H 4352.53 -2.94928 -3.00991 0
M  V30 47598 H 4351.25 -1.72994 -2.77021 0
M  V30 47599 H 4349.91 -3.38007 -1.4194 0
M  V30 47600 H 4349.56 -3.191 -3.88824 0
M  V30 47601 H 4349.26 -4.85109 -3.31576 0
M  V30 47602 H 4350.78 -4.46531 -4.16464 0
M  V30 47603 H 4352.19 -5.34592 -2.07085 0
M  V30 47604 H 4350.59 -5.82531 -1.44144 0
M  V30 47605 H 4351.66 -4.82912 -0.43858 0
M  V30 47606 N 4353 0.289148 -1.54925 0
M  V30 47607 C 4353.93 1.36149 -1.89699 0
M  V30 47608 C 4354.92 1.52322 -0.757108 0
M  V30 47609 O 4356.1 1.65633 -1.01387 0
M  V30 47610 C 4353.23 2.72376 -2.15473 0
M  V30 47611 C 4352.18 2.70955 -3.31312 0
M  V30 47612 C 4351.51 4.10582 -3.4253 0
M  V30 47613 C 4352.81 2.31647 -4.68121 0
M  V30 47614 H 4354.5 1.07294 -2.79514 0
M  V30 47615 H 4352.05 0.5147 -1.34487 0
M  V30 47616 H 4354 3.47491 -2.38386 0
M  V30 47617 H 4352.73 3.0278 -1.2244 0
M  V30 47618 H 4351.39 1.98296 -3.08341 0
M  V30 47619 H 4351.03 4.38182 -2.46992 0
M  V30 47620 H 4350.73 4.10529 -4.20404 0
M  V30 47621 H 4352.26 4.8746 -3.67717 0
M  V30 47622 H 4353.67 2.96481 -4.90685 0
M  V30 47623 H 4352.07 2.42786 -5.48794 0
M  V30 47624 H 4353.14 1.26773 -4.68035 0
M  V30 47625 N 4354.48 1.47583 0.55291 0
M  V30 47626 C 4355.71 1.58051 1.33519 0
M  V30 47627 C 4356.13 0.232271 1.87366 0
M  V30 47628 O 4355.48 -0.77513 1.65221 0
M  V30 47629 C 4355.53 2.60915 2.50211 0
M  V30 47630 O 4355.25 3.90505 1.98589 0
M  V30 47631 C 4356.76 2.81608 3.42362 0
M  V30 47632 H 4353.98 0.533579 0.406859 0
M  V30 47633 H 4356.52 1.93235 0.669355 0
M  V30 47634 H 4354.67 2.28653 3.12724 0
M  V30 47635 H 4355.09 4.46749 2.74801 0
M  V30 47636 H 4356.56 3.57436 4.20646 0
M  V30 47637 H 4357.04 1.89587 3.96173 0
M  V30 47638 H 4357.65 3.15084 2.85661 0
M  V30 47639 N 4355.96 -0.799985 1.35787 0
M  V30 47640 C 4357.21 -1.55253 1.28762 0
M  V30 47641 C 4357.52 -1.9514 -0.134088 0
M  V30 47642 O 4358.73 -2.69528 -0.326652 0
M  V30 47643 C 4357.18 -2.80212 2.25853 0
M  V30 47644 C 4356.79 -2.47536 3.73403 0
M  V30 47645 C 4358.54 -3.58211 2.27784 0
M  V30 47646 C 4356.44 -3.68826 4.623 0
M  V30 47647 H 4355.37 -0.582768 0.478432 0
M  V30 47648 H 4358.02 -0.878783 1.61089 0
M  V30 47649 H 4356.41 -3.4933 1.86505 0
M  V30 47650 H 4357.58 -1.86381 4.21425 0
M  V30 47651 H 4355.9 -1.82769 3.74145 0
M  V30 47652 H 4358.49 -4.4831 2.91414 0
M  V30 47653 H 4358.84 -3.96023 1.28341 0
M  V30 47654 H 4359.37 -2.9606 2.65694 0
M  V30 47655 H 4356.11 -3.36117 5.62766 0
M  V30 47656 H 4355.63 -4.29183 4.19001 0
M  V30 47657 H 4357.31 -4.35979 4.7805 0
M  V30 47658 N 4357.44 -1.19892 -1.02292 0
M  V30 47659 C 4358.68 -1.00671 -1.76049 0
M  V30 47660 C 4359.02 0.460769 -1.88655 0
M  V30 47661 O 4358.29 1.34214 -1.40773 0
M  V30 47662 C 4358.58 -1.68343 -3.18328 0
M  V30 47663 C 4358.43 -3.22494 -3.13556 0
M  V30 47664 C 4359.75 -1.41132 -4.16857 0
M  V30 47665 H 4356.87 -0.367128 -0.639051 0
M  V30 47666 H 4359.51 -1.47817 -1.19374 0
M  V30 47667 H 4357.66 -1.28259 -3.66718 0
M  V30 47668 H 4359.33 -3.71832 -2.73018 0
M  V30 47669 H 4357.57 -3.53728 -2.51115 0
M  V30 47670 H 4358.24 -3.64996 -4.14104 0
M  V30 47671 H 4360.72 -1.75896 -3.77094 0
M  V30 47672 H 4359.6 -1.91024 -5.14588 0
M  V30 47673 H 4359.86 -0.337657 -4.40809 0
M  V30 47674 N 4358.92 1.21498 -1.0038 0
M  V30 47675 C 4359.83 2.27508 -0.572465 0
M  V30 47676 C 4360.84 1.69711 0.383952 0
M  V30 47677 O 4362.02 1.99866 0.248084 0
M  V30 47678 C 4359.08 3.46569 0.0953077 0
M  V30 47679 C 4358.14 4.19643 -0.90544 0
M  V30 47680 C 4357.38 5.33019 -0.269439 0
M  V30 47681 O 4357.6 5.627 0.934045 0
M  V30 47682 O 4356.53 5.93872 -0.979767 0
M  V30 47683 H 4360.36 2.66594 -1.4547 0
M  V30 47684 H 4357.95 1.27872 -0.772608 0
M  V30 47685 H 4359.83 4.18784 0.46886 0
M  V30 47686 H 4358.5 3.09386 0.951939 0
M  V30 47687 H 4357.41 3.49655 -1.33013 0
M  V30 47688 H 4358.74 4.60734 -1.73162 0
M  V30 47689 N 4360.39 0.778378 1.37037 0
M  V30 47690 C 4361.64 0.346225 1.99823 0
M  V30 47691 C 4361.97 -1.07631 1.61645 0
M  V30 47692 O 4361.25 -1.74165 0.865847 0
M  V30 47693 C 4361.53 0.49737 3.56649 0
M  V30 47694 C 4361.38 1.9628 4.04715 0
M  V30 47695 C 4362.7 -0.0943374 4.39999 0
M  V30 47696 H 4359.82 0.127275 0.725927 0
M  V30 47697 H 4362.46 0.982658 1.62616 0
M  V30 47698 H 4360.61 -0.0444321 3.88475 0
M  V30 47699 H 4362.29 2.56482 3.83425 0
M  V30 47700 H 4360.53 2.4693 3.56662 0
M  V30 47701 H 4361.2 2.01958 5.13729 0
M  V30 47702 H 4363.68 0.368029 4.14469 0
M  V30 47703 H 4362.55 0.0415124 5.48884 0
M  V30 47704 H 4362.81 -1.18534 4.25913 0
M  V30 47705 N 4361.87 -1.4844 0.529465 0
M  V30 47706 C 4362.8 -2.32439 -0.222377 0
M  V30 47707 C 4363.78 -1.4206 -0.935573 0
M  V30 47708 O 4364.97 -1.70947 -0.921453 0
M  V30 47709 C 4362.1 -3.23244 -1.27006 0
M  V30 47710 C 4361.05 -4.22643 -0.675039 0
M  V30 47711 C 4360.38 -5.02579 -1.82534 0
M  V30 47712 C 4361.68 -5.21106 0.352906 0
M  V30 47713 H 4363.37 -2.95546 0.478829 0
M  V30 47714 H 4360.92 -1.42123 0.23172 0
M  V30 47715 H 4362.87 -3.80834 -1.80398 0
M  V30 47716 H 4361.6 -2.58135 -2.00084 0
M  V30 47717 H 4360.26 -3.66239 -0.162646 0
M  V30 47718 H 4359.9 -4.33895 -2.54449 0
M  V30 47719 H 4359.6 -5.69855 -1.43313 0
M  V30 47720 H 4361.13 -5.63021 -2.36305 0
M  V30 47721 H 4362.54 -5.73223 -0.0939067 0
M  V30 47722 H 4360.94 -5.96432 0.662473 0
M  V30 47723 H 4362.01 -4.68274 1.25885 0
M  V30 47724 N 4363.35 -0.264574 -1.55363 0
M  V30 47725 C 4364.28 0.621297 -2.25083 0
M  V30 47726 C 4365.26 1.16732 -1.23724 0
M  V30 47727 O 4366.45 1.2034 -1.5242 0
M  V30 47728 C 4363.58 1.81033 -2.96386 0
M  V30 47729 C 4362.53 1.39631 -4.04583 0
M  V30 47730 C 4361.86 2.6676 -4.63404 0
M  V30 47731 C 4363.16 0.554287 -5.19351 0
M  V30 47732 H 4364.85 0.0398922 -2.99373 0
M  V30 47733 H 4362.4 0.0177467 -1.43989 0
M  V30 47734 H 4364.35 2.43586 -3.43866 0
M  V30 47735 H 4363.07 2.4174 -2.19612 0
M  V30 47736 H 4361.73 0.794034 -3.57898 0
M  V30 47737 H 4361.38 3.25702 -3.83311 0
M  V30 47738 H 4361.08 2.39774 -5.36453 0
M  V30 47739 H 4362.61 3.3018 -5.13628 0
M  V30 47740 H 4364.02 1.08455 -5.62948 0
M  V30 47741 H 4362.42 0.379756 -5.98897 0
M  V30 47742 H 4363.49 -0.429424 -4.82995 0
M  V30 47743 N 4364.83 1.57598 0.00830251 0
M  V30 47744 C 4366.06 1.94197 0.705065 0
M  V30 47745 C 4366.47 0.86449 1.68295 0
M  V30 47746 O 4365.81 -0.16597 1.82949 0
M  V30 47747 C 4365.87 3.26733 1.49953 0
M  V30 47748 C 4365.54 4.5185 0.684144 0
M  V30 47749 C 4366.53 5.19894 -0.024601 0
M  V30 47750 C 4364.22 4.98301 0.632561 0
M  V30 47751 C 4366.21 6.32683 -0.774004 0
M  V30 47752 C 4363.9 6.10981 -0.120574 0
M  V30 47753 C 4364.9 6.78028 -0.822597 0
M  V30 47754 O 4364.59 7.8855 -1.56346 0
M  V30 47755 H 4364.32 0.645151 0.201881 0
M  V30 47756 H 4366.87 2.05368 -0.0364194 0
M  V30 47757 H 4365.1 3.11947 2.2853 0
M  V30 47758 H 4366.79 3.48505 2.08085 0
M  V30 47759 H 4367.56 4.85 0.00615035 0
M  V30 47760 H 4363.44 4.45945 1.16851 0
M  V30 47761 H 4366.98 6.8495 -1.32249 0
M  V30 47762 H 4362.88 6.45318 -0.153175 0
M  V30 47763 H 4363.64 8.05021 -1.4793 0
M  V30 47764 N 4366.31 -0.280928 1.55076 0
M  V30 47765 C 4367.58 -1.03438 1.66012 0
M  V30 47766 C 4367.96 -2.04559 0.52142 0
M  V30 47767 O 4367.31 -2.23412 -0.479494 0
M  V30 47768 C 4367.52 -1.69829 3.04892 0
M  V30 47769 C 4368.87 -2.21285 3.62378 0
M  V30 47770 O 4369.89 -1.79829 3.07474 0
M  V30 47771 O 4368.75 -2.97303 4.58556 0
M  V30 47772 H 4365.85 -0.479312 0.673936 0
M  V30 47773 H 4368.39 -0.277417 1.67417 0
M  V30 47774 H 4367.17 -0.965103 3.79212 0
M  V30 47775 H 4366.79 -2.52231 3.07352 0
M  V30 47776 N 4367.79 -1.47874 -0.545076 0
M  V30 47777 C 4369.2 -1.48837 -1.12714 0
M  V30 47778 C 4369.55 -0.249752 -1.94604 0
M  V30 47779 O 4368.67 0.644381 -2.06583 0
M  V30 47780 C 4369.27 -2.69681 -2.05079 0
M  V30 47781 C 4367.83 -2.73565 -2.58533 0
M  V30 47782 C 4366.97 -2.42126 -1.35167 0
M  V30 47783 H 4369.92 -1.55208 -0.331067 0
M  V30 47784 H 4369.95 -2.47341 -2.89141 0
M  V30 47785 H 4369.46 -3.59813 -1.45451 0
M  V30 47786 H 4367.56 -1.87603 -3.21925 0
M  V30 47787 H 4367.67 -3.74588 -2.98698 0
M  V30 47788 H 4366.04 -1.92963 -1.66245 0
M  V30 47789 H 4366.82 -3.34481 -0.773136 0
M  V30 47790 N 4369.26 0.792773 -1.36209 0
M  V30 47791 C 4370.19 1.91962 -1.3294 0
M  V30 47792 C 4371.17 1.68903 -0.20143 0
M  V30 47793 O 4372.36 1.90066 -0.398554 0
M  V30 47794 C 4369.49 3.2893 -1.11454 0
M  V30 47795 C 4368.44 3.66504 -2.2104 0
M  V30 47796 C 4367.77 5.01786 -1.84702 0
M  V30 47797 C 4369.07 3.75438 -3.63103 0
M  V30 47798 H 4370.76 1.94954 -2.27229 0
M  V30 47799 H 4368.31 0.936563 -1.09382 0
M  V30 47800 H 4370.26 4.07378 -1.07803 0
M  V30 47801 H 4368.99 3.26316 -0.136144 0
M  V30 47802 H 4367.65 2.90352 -2.23811 0
M  V30 47803 H 4367.29 4.9569 -0.854443 0
M  V30 47804 H 4366.99 5.27896 -2.58068 0
M  V30 47805 H 4368.52 5.82657 -1.826 0
M  V30 47806 H 4369.93 4.44084 -3.62577 0
M  V30 47807 H 4368.33 4.1303 -4.35346 0
M  V30 47808 H 4369.4 2.76629 -3.98251 0
M  V30 47809 N 4370.74 1.20433 1.01654 0
M  V30 47810 C 4371.99 1.01452 1.75253 0
M  V30 47811 C 4372.32 -0.453346 1.89143 0
M  V30 47812 O 4371.57 -1.35282 1.41412 0
M  V30 47813 C 4371.87 1.64327 3.17382 0
M  V30 47814 C 4371.54 3.14131 3.23469 0
M  V30 47815 C 4370.2 3.55013 3.24838 0
M  V30 47816 C 4372.55 4.10127 3.21629 0
M  V30 47817 C 4369.88 4.90417 3.22037 0
M  V30 47818 C 4372.23 5.45478 3.20369 0
M  V30 47819 C 4370.89 5.85773 3.20042 0
M  V30 47820 H 4370.16 0.371241 0.641297 0
M  V30 47821 H 4372.81 1.49859 1.19225 0
M  V30 47822 H 4371.12 1.08183 3.76568 0
M  V30 47823 H 4372.81 1.47156 3.73023 0
M  V30 47824 H 4369.4 2.81565 3.2314 0
M  V30 47825 H 4373.59 3.79577 3.19741 0
M  V30 47826 H 4368.84 5.209 3.20114 0
M  V30 47827 H 4373.02 6.19608 3.17898 0
M  V30 47828 H 4370.64 6.90665 3.17626 0
M  V30 47829 N 4372.22 -1.20963 1.01023 0
M  V30 47830 C 4373.5 -1.85805 0.611224 0
M  V30 47831 C 4373.88 -1.90433 -0.910964 0
M  V30 47832 O 4373.22 -1.40747 -1.80007 0
M  V30 47833 C 4373.43 -3.25783 1.25165 0
M  V30 47834 C 4374.78 -4.02126 1.36307 0
M  V30 47835 O 4375.81 -3.35113 1.20737 0
M  V30 47836 O 4374.67 -5.22122 1.61403 0
M  V30 47837 H 4371.76 -0.799879 0.210055 0
M  V30 47838 H 4374.31 -1.28604 1.1072 0
M  V30 47839 H 4373.08 -3.17144 2.29205 0
M  V30 47840 H 4372.7 -3.90608 0.74235 0
M  V30 47841 N 4373.7 -0.785634 -1.36622 0
M  V30 47842 C 4374.94 -0.365879 -2.00082 0
M  V30 47843 C 4375.3 1.04978 -1.61237 0
M  V30 47844 O 4374.59 1.71457 -0.855173 0
M  V30 47845 C 4374.79 -0.462838 -3.5439 0
M  V30 47846 C 4374.61 -1.88638 -4.08223 0
M  V30 47847 C 4373.38 -2.51015 -4.38543 0
M  V30 47848 C 4375.58 -2.84796 -4.28247 0
M  V30 47849 N 4373.56 -3.84997 -4.78174 0
M  V30 47850 C 4374.94 -4.03604 -4.70642 0
M  V30 47851 C 4376.99 -2.81902 -4.10409 0
M  V30 47852 C 4375.69 -5.1992 -4.97067 0
M  V30 47853 C 4377.72 -3.97403 -4.37978 0
M  V30 47854 C 4377.08 -5.14955 -4.80626 0
M  V30 47855 H 4373.18 -0.181221 -0.760712 0
M  V30 47856 H 4375.76 -1.02243 -1.65694 0
M  V30 47857 H 4373.94 0.163599 -3.88055 0
M  V30 47858 H 4375.67 -0.0196933 -4.04695 0
M  V30 47859 H 4372.42 -2.02524 -4.28113 0
M  V30 47860 H 4372.85 -4.5392 -5.0228 0
M  V30 47861 H 4377.49 -1.92183 -3.76597 0
M  V30 47862 H 4375.21 -6.10228 -5.29762 0
M  V30 47863 H 4378.79 -3.9652 -4.2575 0
M  V30 47864 H 4377.67 -6.02845 -5.01546 0
M  V30 47865 N 4375.18 1.48157 -0.53733 0
M  V30 47866 C 4376.4 2.06897 -0.0101846 0
M  V30 47867 C 4376.82 1.39286 1.27456 0
M  V30 47868 O 4376.18 0.482771 1.75999 0
M  V30 47869 C 4376.23 3.60891 0.209832 0
M  V30 47870 O 4375.95 4.25964 -1.02402 0
M  V30 47871 C 4377.45 4.36446 0.776525 0
M  V30 47872 H 4374.67 0.669988 -0.0368345 0
M  V30 47873 H 4377.21 1.90444 -0.745072 0
M  V30 47874 H 4375.37 3.76925 0.894789 0
M  V30 47875 H 4375.78 5.18218 -0.809322 0
M  V30 47876 H 4377.26 5.44943 0.879859 0
M  V30 47877 H 4377.73 4.01372 1.78317 0
M  V30 47878 H 4378.34 4.25108 0.1279 0
M  V30 47879 N 4376.65 0.272809 1.55221 0
M  V30 47880 C 4377.59 -0.656961 2.18539 0
M  V30 47881 C 4378.57 -1.15391 1.14558 0
M  V30 47882 O 4379.75 -1.22731 1.43071 0
M  V30 47883 C 4376.88 -1.8957 2.8068 0
M  V30 47884 C 4375.92 -1.53442 3.97942 0
M  V30 47885 S 4376.76 -0.614581 5.31962 0
M  V30 47886 C 4377.91 -1.86174 5.9757 0
M  V30 47887 H 4378.14 -0.118951 2.97062 0
M  V30 47888 H 4375.68 0.0570823 1.54294 0
M  V30 47889 H 4377.64 -2.60672 3.17113 0
M  V30 47890 H 4376.3 -2.40485 2.02054 0
M  V30 47891 H 4375.49 -2.45611 4.40104 0
M  V30 47892 H 4375.09 -0.903609 3.6292 0
M  V30 47893 H 4377.38 -2.80594 6.16663 0
M  V30 47894 H 4378.33 -1.48318 6.92393 0
M  V30 47895 H 4378.73 -2.02563 5.26905 0
M  V30 47896 N 4378.13 -1.576 5.54043e-05 0
M  V30 47897 C 4379.08 -2.09549 -1.00956 0
M  V30 47898 C 4380.07 -1.01549 -1.35588 0
M  V30 47899 O 4381.28 -1.20014 -1.34152 0
M  V30 47900 H 4377.66 -0.669104 -0.343226 0
M  V30 47901 H 4379.63 -2.93365 -0.54586 0
M  V30 47902 C 4378.38 -2.61411 -2.29259 0
M  V30 47903 H 4377.7 -3.44146 -2.03478 0
M  V30 47904 H 4379.14 -3.01438 -2.9818 0
M  V30 47905 C 4377.6 -1.52827 -3.00242 0
M  V30 47906 O 4378.13 -0.911215 -3.91229 0
M  V30 47907 N 4376.33 -1.25571 -2.62069 0
M  V30 47908 H 4375.88 -1.75935 -1.88161 0
M  V30 47909 H 4375.84 -0.531387 -3.09877 0
M  V30 47910 N 4379.61 0.2727 -1.55223 0
M  V30 47911 C 4381.02 0.843721 -1.66548 0
M  V30 47912 C 4381.37 1.87033 -0.592707 0
M  V30 47913 O 4380.5 2.14762 0.265742 0
M  V30 47914 C 4381.09 1.53712 -3.01924 0
M  V30 47915 C 4379.65 2.05617 -3.15275 0
M  V30 47916 C 4378.8 0.898331 -2.62346 0
M  V30 47917 H 4381.75 0.049044 -1.58624 0
M  V30 47918 H 4381.77 2.4041 -2.94929 0
M  V30 47919 H 4381.28 0.789697 -3.79981 0
M  V30 47920 H 4379.38 2.8332 -2.41993 0
M  V30 47921 H 4379.5 2.27127 -4.21841 0
M  V30 47922 H 4377.86 1.29179 -2.19511 0
M  V30 47923 H 4378.64 0.164407 -3.42906 0
M  V30 47924 N 4381.09 1.48161 0.537226 0
M  V30 47925 C 4382.02 1.65034 1.65184 0
M  V30 47926 C 4383 0.499338 1.62606 0
M  V30 47927 O 4384.18 0.731035 1.79915 0
M  V30 47928 C 4381.31 1.68313 3.03789 0
M  V30 47929 C 4380.27 2.82842 3.21224 0
M  V30 47930 C 4379.59 2.71205 4.60817 0
M  V30 47931 C 4380.89 4.24221 3.04686 0
M  V30 47932 H 4382.59 2.58347 1.51318 0
M  V30 47933 H 4380.13 1.24328 0.726541 0
M  V30 47934 H 4382.09 1.78707 3.81631 0
M  V30 47935 H 4380.81 0.715747 3.18661 0
M  V30 47936 H 4379.47 2.71991 2.45797 0
M  V30 47937 H 4379.12 1.72451 4.72514 0
M  V30 47938 H 4378.82 3.48051 4.73428 0
M  V30 47939 H 4380.34 2.83556 5.40767 0
M  V30 47940 H 4381.76 4.35943 3.72326 0
M  V30 47941 H 4380.15 5.0201 3.28795 0
M  V30 47942 H 4381.22 4.41191 2.01194 0
M  V30 47943 N 4382.57 -0.785538 1.36627 0
M  V30 47944 C 4383.51 -1.89833 1.3127 0
M  V30 47945 C 4384.48 -1.65114 0.180691 0
M  V30 47946 O 4385.67 -1.87221 0.367835 0
M  V30 47947 C 4382.81 -3.26702 1.11174 0
M  V30 47948 C 4381.92 -3.63468 2.33485 0
M  V30 47949 C 4381.06 -4.89474 2.0637 0
M  V30 47950 C 4380.1 -5.1893 3.24621 0
M  V30 47951 N 4379.23 -6.3612 2.97145 0
M  V30 47952 H 4384.07 -1.93748 2.26419 0
M  V30 47953 H 4381.61 -0.947415 1.12528 0
M  V30 47954 H 4383.57 -4.05636 0.97548 0
M  V30 47955 H 4382.2 -3.222 0.196787 0
M  V30 47956 H 4381.25 -2.79627 2.57901 0
M  V30 47957 H 4382.56 -3.81182 3.21717 0
M  V30 47958 H 4381.72 -5.76282 1.89696 0
M  V30 47959 H 4380.45 -4.73837 1.15454 0
M  V30 47960 H 4379.46 -4.30603 3.41849 0
M  V30 47961 H 4380.68 -5.36484 4.16368 0
M  V30 47962 H 4378.63 -6.21868 2.08845 0
M  V30 47963 H 4378.55 -6.54185 3.78917 0
M  V30 47964 H 4379.82 -7.259 2.84059 0
M  V30 47965 N 4384.04 -1.20971 -1.01014 0
M  V30 47966 C 4385.01 -0.965991 -2.07849 0
M  V30 47967 C 4386.01 0.060998 -1.60684 0
M  V30 47968 O 4387.2 -0.175741 -1.73311 0
M  V30 47969 C 4384.33 -0.455632 -3.37841 0
M  V30 47970 H 4385.52 -1.91373 -2.30904 0
M  V30 47971 H 4383.08 -1.02598 -1.17913 0
M  V30 47972 H 4383.81 0.497268 -3.20465 0
M  V30 47973 H 4383.6 -1.19635 -3.73403 0
M  V30 47974 H 4385.09 -0.304814 -4.16486 0
M  V30 47975 N 4385.52 1.20426 -1.01663 0
M  V30 47976 C 4386.45 2.25464 -0.607305 0
M  V30 47977 C 4387.43 1.65855 0.377658 0
M  V30 47978 O 4388.62 1.9241 0.263081 0
M  V30 47979 C 4385.75 3.47256 0.0551728 0
M  V30 47980 C 4384.7 4.19459 -0.850779 0
M  V30 47981 C 4384.03 5.34673 -0.0540739 0
M  V30 47982 C 4385.33 4.75596 -2.15885 0
M  V30 47983 H 4387.02 2.59957 -1.48535 0
M  V30 47984 H 4384.57 1.24958 -0.715649 0
M  V30 47985 H 4386.52 4.19918 0.353085 0
M  V30 47986 H 4385.25 3.11927 0.967936 0
M  V30 47987 H 4383.9 3.48663 -1.1327 0
M  V30 47988 H 4383.55 4.95588 0.86034 0
M  V30 47989 H 4383.25 5.83911 -0.657397 0
M  V30 47990 H 4384.78 6.10138 0.237383 0
M  V30 47991 H 4386.19 5.40076 -1.9233 0
M  V30 47992 H 4384.59 5.35271 -2.71302 0
M  V30 47993 H 4385.66 3.94336 -2.82183 0
M  V30 47994 N 4387 0.792868 1.36203 0
M  V30 47995 C 4388.23 0.378347 2.03106 0
M  V30 47996 C 4388.64 -1.01114 1.59915 0
M  V30 47997 O 4387.98 -1.66049 0.785716 0
M  V30 47998 C 4388.04 0.36666 3.57625 0
M  V30 47999 C 4387.71 1.70431 4.24031 0
M  V30 48000 C 4388.7 2.66036 4.46678 0
M  V30 48001 C 4386.39 1.98455 4.61433 0
M  V30 48002 C 4388.38 3.87858 5.05811 0
M  V30 48003 C 4386.07 3.20544 5.20284 0
M  V30 48004 C 4387.07 4.15064 5.42412 0
M  V30 48005 O 4386.76 5.34999 6.00026 0
M  V30 48006 H 4386.49 0.153566 0.658326 0
M  V30 48007 H 4389.04 1.0739 1.7509 0
M  V30 48008 H 4387.27 -0.385404 3.84775 0
M  V30 48009 H 4388.96 -0.0236661 4.05893 0
M  V30 48010 H 4389.73 2.45673 4.18174 0
M  V30 48011 H 4385.61 1.25702 4.43531 0
M  V30 48012 H 4389.15 4.61647 5.22999 0
M  V30 48013 H 4385.05 3.40783 5.48213 0
M  V30 48014 H 4385.82 5.36109 6.18489 0
M  V30 48015 N 4388.48 -1.4787 0.54518 0
M  V30 48016 C 4389.41 -2.32661 -0.197711 0
M  V30 48017 C 4390.39 -1.43044 -0.920453 0
M  V30 48018 O 4391.57 -1.71915 -0.90327 0
M  V30 48019 C 4388.7 -3.24573 -1.23571 0
M  V30 48020 C 4387.66 -4.23335 -0.630174 0
M  V30 48021 C 4386.98 -5.04487 -1.77193 0
M  V30 48022 C 4388.28 -5.20703 0.408157 0
M  V30 48023 H 4389.98 -2.95022 0.510149 0
M  V30 48024 H 4387.52 -1.4187 0.246781 0
M  V30 48025 H 4389.48 -3.82726 -1.76349 0
M  V30 48026 H 4388.2 -2.60243 -1.97335 0
M  V30 48027 H 4386.86 -3.66391 -0.123793 0
M  V30 48028 H 4386.51 -4.36569 -2.49832 0
M  V30 48029 H 4386.21 -5.71343 -1.37261 0
M  V30 48030 H 4387.73 -5.65495 -2.3032 0
M  V30 48031 H 4389.15 -5.7329 -0.0331035 0
M  V30 48032 H 4387.54 -5.95696 0.725695 0
M  V30 48033 H 4388.61 -4.66913 1.30845 0
M  V30 48034 N 4389.96 -0.281037 -1.55074 0
M  V30 48035 C 4390.89 0.63719 -2.20165 0
M  V30 48036 C 4391.9 1.11294 -1.18817 0
M  V30 48037 O 4393.09 1.03383 -1.45514 0
M  V30 48038 C 4390.19 1.8819 -2.81847 0
M  V30 48039 C 4389.36 1.55197 -4.08941 0
M  V30 48040 C 4388.42 2.64975 -4.54615 0
M  V30 48041 O 4387.45 2.30911 -5.20259 0
M  V30 48042 N 4388.65 3.95146 -4.25252 0
M  V30 48043 H 4391.42 0.080064 -2.99593 0
M  V30 48044 H 4388.98 -0.102385 -1.61576 0
M  V30 48045 H 4390.97 2.60937 -3.09344 0
M  V30 48046 H 4389.54 2.34792 -2.06377 0
M  V30 48047 H 4388.76 0.658049 -3.88669 0
M  V30 48048 H 4390.05 1.30664 -4.91736 0
M  V30 48049 H 4389.44 4.2564 -3.72622 0
M  V30 48050 H 4388 4.64253 -4.57506 0
M  V30 48051 N 4391.44 1.57598 -0.00841331 0
M  V30 48052 C 4392.37 2.05815 1.00861 0
M  V30 48053 C 4393.38 0.977625 1.30178 0
M  V30 48054 O 4394.57 1.25426 1.27007 0
M  V30 48055 C 4391.67 2.45025 2.34128 0
M  V30 48056 C 4390.84 3.7591 2.23629 0
M  V30 48057 C 4389.9 4.01896 3.39656 0
M  V30 48058 O 4388.93 4.72445 3.17466 0
M  V30 48059 N 4390.13 3.50448 4.62781 0
M  V30 48060 H 4392.89 2.93686 0.597355 0
M  V30 48061 H 4390.46 1.6091 0.178796 0
M  V30 48062 H 4392.45 2.59517 3.10537 0
M  V30 48063 H 4391.02 1.62628 2.66966 0
M  V30 48064 H 4390.24 3.71415 1.32078 0
M  V30 48065 H 4391.53 4.61702 2.13796 0
M  V30 48066 H 4390.92 2.93334 4.83706 0
M  V30 48067 H 4389.48 3.70255 5.36427 0
M  V30 48068 N 4392.91 -0.264465 1.55365 0
M  V30 48069 C 4394.33 -0.612099 1.47396 0
M  V30 48070 C 4394.53 -1.89132 0.695085 0
M  V30 48071 O 4393.59 -2.51563 0.217363 0
M  V30 48072 C 4394.9 -0.731132 2.91676 0
M  V30 48073 C 4396.45 -0.824624 3.01942 0
M  V30 48074 C 4396.92 -0.975365 4.47494 0
M  V30 48075 N 4398.41 -1.04068 4.51358 0
M  V30 48076 C 4399.15 -1.17626 5.61205 0
M  V30 48077 N 4398.64 -1.2785 6.80901 0
M  V30 48078 N 4400.44 -1.20804 5.48965 0
M  V30 48079 H 4392.59 0.575528 2.04454 0
M  V30 48080 H 4394.85 0.196131 0.927489 0
M  V30 48081 H 4394.56 0.138516 3.51427 0
M  V30 48082 H 4394.43 -1.60871 3.41175 0
M  V30 48083 H 4396.82 -1.68473 2.42282 0
M  V30 48084 H 4396.9 0.0777378 2.55682 0
M  V30 48085 H 4396.54 -0.11988 5.07759 0
M  V30 48086 H 4396.47 -1.8925 4.91418 0
M  V30 48087 H 4398.96 -0.973718 3.6514 0
M  V30 48088 H 4399.28 -1.38054 7.60369 0
M  V30 48089 H 4397.62 -1.24839 6.83696 0
M  V30 48090 H 4400.81 -1.12453 4.54392 0
M  V30 48091 H 4400.99 -1.31027 6.34615 0
M  V30 48092 N 4394.39 -1.48444 -0.529361 0
M  V30 48093 C 4395.8 -1.50024 -1.11129 0
M  V30 48094 C 4396.15 -0.270378 -1.94328 0
M  V30 48095 O 4395.28 0.622434 -2.07255 0
M  V30 48096 C 4395.87 -2.71841 -2.02207 0
M  V30 48097 C 4394.43 -2.76291 -2.55617 0
M  V30 48098 C 4393.58 -2.43546 -1.32591 0
M  V30 48099 H 4396.53 -1.55551 -0.314587 0
M  V30 48100 H 4396.55 -2.50394 -2.86501 0
M  V30 48101 H 4396.06 -3.61336 -1.41626 0
M  V30 48102 H 4394.16 -1.91007 -3.19918 0
M  V30 48103 H 4394.28 -3.77735 -2.94708 0
M  V30 48104 H 4392.64 -1.94715 -1.64189 0
M  V30 48105 H 4393.42 -3.35282 -0.737616 0
M  V30 48106 N 4395.87 0.778281 -1.37042 0
M  V30 48107 C 4396.78 1.92249 -1.34453 0
M  V30 48108 C 4397.8 1.72266 -0.245051 0
M  V30 48109 O 4398.97 1.95613 -0.479327 0
M  V30 48110 C 4396.04 3.27278 -1.14411 0
M  V30 48111 C 4395.1 3.59961 -2.33938 0
M  V30 48112 C 4394.33 4.88547 -2.14842 0
M  V30 48113 O 4394.55 5.59109 -1.12932 0
M  V30 48114 O 4393.49 5.20142 -3.02879 0
M  V30 48115 H 4397.31 1.97384 -2.3081 0
M  V30 48116 H 4394.9 0.920113 -1.17704 0
M  V30 48117 H 4396.78 4.08058 -1.05196 0
M  V30 48118 H 4395.46 3.2301 -0.211238 0
M  V30 48119 H 4394.36 2.79441 -2.48723 0
M  V30 48120 H 4395.7 3.68965 -3.2577 0
M  V30 48121 N 4397.35 1.21505 1.00371 0
M  V30 48122 C 4398.62 0.941805 1.71433 0
M  V30 48123 C 4399 -0.546042 2.03916 0
M  V30 48124 O 4398.35 -1.51122 1.71389 0
M  V30 48125 C 4398.56 1.82822 2.97283 0
M  V30 48126 C 4399.91 2.07784 3.70285 0
M  V30 48127 O 4400.93 1.80182 3.07267 0
M  V30 48128 O 4399.79 2.54473 4.83638 0
M  V30 48129 H 4396.89 0.353269 0.74775 0
M  V30 48130 H 4399.43 1.3244 1.06103 0
M  V30 48131 H 4398.21 2.83511 2.69699 0
M  V30 48132 H 4397.83 1.44653 3.70353 0
M  V30 48133 N 4398.83 -1.19885 1.023 0
M  V30 48134 C 4399.74 -2.26569 0.608588 0
M  V30 48135 C 4400.75 -1.703 -0.356904 0
M  V30 48136 O 4401.93 -2.00236 -0.216256 0
M  V30 48137 C 4398.99 -3.46677 -0.0401595 0
M  V30 48138 C 4398.05 -4.18149 0.972087 0
M  V30 48139 C 4397.29 -5.32523 0.354204 0
M  V30 48140 O 4397.51 -5.64115 -0.844406 0
M  V30 48141 O 4396.44 -5.92238 1.07412 0
M  V30 48142 H 4400.27 -2.64246 1.49693 0
M  V30 48143 H 4397.85 -1.26626 0.792853 0
M  V30 48144 H 4399.74 -4.19476 -0.402176 0
M  V30 48145 H 4398.41 -3.10861 -0.902598 0
M  V30 48146 H 4397.32 -3.47494 1.38559 0
M  V30 48147 H 4398.65 -4.57921 1.8047 0
M  V30 48148 N 4400.3 -0.80008 -1.35781 0
M  V30 48149 C 4401.53 -0.389678 -2.03197 0
M  V30 48150 C 4401.95 0.997318 -1.60309 0
M  V30 48151 O 4401.3 1.64151 -0.797539 0
M  V30 48152 C 4401.35 -0.455981 -3.58613 0
M  V30 48153 O 4401.08 -1.78829 -3.9994 0
M  V30 48154 C 4402.58 -0.0375591 -4.43284 0
M  V30 48155 H 4399.8 -0.159155 -0.651852 0
M  V30 48156 H 4402.34 -1.08189 -1.73538 0
M  V30 48157 H 4400.5 0.187921 -3.86944 0
M  V30 48158 H 4400.91 -1.74653 -4.94567 0
M  V30 48159 H 4402.38 -0.135076 -5.51835 0
M  V30 48160 H 4402.86 1.01635 -4.27278 0
M  V30 48161 H 4403.47 -0.654363 -4.20236 0
M  V30 48162 N 4401.78 1.47579 -0.553014 0
M  V30 48163 C 4402.69 2.33744 0.200271 0
M  V30 48164 C 4403.71 1.47931 0.916099 0
M  V30 48165 O 4404.88 1.80868 0.885929 0
M  V30 48166 C 4401.95 3.2454 1.21962 0
M  V30 48167 C 4401.01 4.2624 0.51167 0
M  V30 48168 C 4400.24 5.12698 1.48245 0
M  V30 48169 O 4400.47 5.01535 2.71696 0
M  V30 48170 O 4399.4 5.93378 1.00924 0
M  V30 48171 H 4403.23 2.99448 -0.506409 0
M  V30 48172 H 4400.81 1.4607 -0.313673 0
M  V30 48173 H 4402.69 3.80637 1.80813 0
M  V30 48174 H 4401.37 2.61469 1.90829 0
M  V30 48175 H 4400.27 3.73914 -0.117931 0
M  V30 48176 H 4401.61 4.92014 -0.135481 0
M  V30 48177 N 4403.26 0.289257 1.54923 0
M  V30 48178 C 4404.19 -0.58541 2.26042 0
M  V30 48179 C 4405.17 -1.14748 1.25566 0
M  V30 48180 O 4406.36 -1.179 1.54315 0
M  V30 48181 C 4403.49 -1.76295 2.99228 0
M  V30 48182 C 4402.44 -1.33177 4.06753 0
M  V30 48183 C 4401.77 -2.59354 4.67589 0
M  V30 48184 C 4403.07 -0.471593 5.20167 0
M  V30 48185 H 4404.76 0.00774057 2.99399 0
M  V30 48186 H 4402.31 0.00516291 1.43999 0
M  V30 48187 H 4404.26 -2.38085 3.47698 0
M  V30 48188 H 4402.98 -2.38215 2.2343 0
M  V30 48189 H 4401.64 -0.736995 3.59115 0
M  V30 48190 H 4401.29 -3.19563 3.88444 0
M  V30 48191 H 4400.99 -2.31209 5.402 0
M  V30 48192 H 4402.51 -3.21967 5.18816 0
M  V30 48193 H 4403.93 -0.994857 5.64602 0
M  V30 48194 H 4402.32 -0.284429 5.99426 0
M  V30 48195 H 4403.39 0.50621 4.8225 0
M  V30 48196 N 4404.74 -1.57591 0.016771 0
M  V30 48197 C 4405.69 -2.05956 -0.978064 0
M  V30 48198 C 4406.67 -0.957578 -1.29303 0
M  V30 48199 O 4407.86 -1.22123 -1.2812 0
M  V30 48200 C 4404.99 -2.58014 -2.26459 0
M  V30 48201 C 4404.08 -3.7512 -1.97853 0
M  V30 48202 N 4404.47 -4.86191 -1.39469 0
M  V30 48203 C 4402.77 -3.83371 -2.2791 0
M  V30 48204 C 4403.47 -5.67507 -1.27715 0
M  V30 48205 N 4402.44 -5.14029 -1.76848 0
M  V30 48206 H 4406.25 -2.89238 -0.52142 0
M  V30 48207 H 4403.76 -1.61302 -0.18854 0
M  V30 48208 H 4405.76 -2.90948 -2.98589 0
M  V30 48209 H 4404.42 -1.76157 -2.72761 0
M  V30 48210 H 4405.43 -5.06699 -1.0713 0
M  V30 48211 H 4402.11 -3.12399 -2.76971 0
M  V30 48212 H 4403.5 -6.66794 -0.826744 0
M  V30 48213 N 4406.22 0.256222 -1.55503 0
M  V30 48214 C 4407.63 0.826009 -1.67434 0
M  V30 48215 C 4407.98 1.86394 -0.612511 0
M  V30 48216 O 4407.1 2.15032 0.242949 0
M  V30 48217 C 4407.7 1.50501 -3.03537 0
M  V30 48218 C 4406.26 2.02262 -3.17438 0
M  V30 48219 C 4405.4 0.870456 -2.63284 0
M  V30 48220 H 4408.36 0.032217 -1.58667 0
M  V30 48221 H 4408.38 2.37269 -2.97462 0
M  V30 48222 H 4407.89 0.74935 -3.80797 0
M  V30 48223 H 4405.99 2.80738 -2.44984 0
M  V30 48224 H 4406.1 2.2264 -4.24226 0
M  V30 48225 H 4404.47 1.26843 -2.20869 0
M  V30 48226 H 4405.25 0.128028 -3.43061 0
M  V30 48227 N 4407.69 1.48722 0.521481 0
M  V30 48228 C 4408.92 1.60848 1.30137 0
M  V30 48229 C 4409.34 0.271962 1.86831 0
M  V30 48230 O 4408.69 -0.73991 1.66828 0
M  V30 48231 C 4408.75 2.66164 2.4462 0
M  V30 48232 O 4408.47 3.9463 1.90261 0
M  V30 48233 C 4409.97 2.88807 3.36312 0
M  V30 48234 H 4407.19 0.542089 0.395449 0
M  V30 48235 H 4409.73 1.94612 0.628217 0
M  V30 48236 H 4407.89 2.35235 3.07804 0
M  V30 48237 H 4408.3 4.52477 2.65263 0
M  V30 48238 H 4409.77 3.66278 4.1297 0
M  V30 48239 H 4410.25 1.97948 3.92063 0
M  V30 48240 H 4410.86 3.21073 2.78913 0
M  V30 48241 N 4409.17 -0.771003 1.37453 0
M  V30 48242 C 4410.1 -1.89822 1.35977 0
M  V30 48243 C 4411.08 -1.68561 0.228276 0
M  V30 48244 O 4412.27 -1.89408 0.428741 0
M  V30 48245 C 4409.4 -3.27116 1.16673 0
M  V30 48246 C 4408.35 -3.62942 2.26842 0
M  V30 48247 C 4407.68 -4.98784 1.92661 0
M  V30 48248 C 4408.98 -3.69614 3.6903 0
M  V30 48249 H 4410.67 -1.91315 2.30302 0
M  V30 48250 H 4408.22 -0.919043 1.10858 0
M  V30 48251 H 4410.17 -4.05611 1.1427 0
M  V30 48252 H 4408.9 -3.26058 0.18804 0
M  V30 48253 H 4407.55 -2.86755 2.28402 0
M  V30 48254 H 4407.2 -4.94268 0.933195 0
M  V30 48255 H 4406.9 -5.23724 2.66434 0
M  V30 48256 H 4408.43 -5.79679 1.91847 0
M  V30 48257 H 4409.84 -4.3826 3.69596 0
M  V30 48258 H 4408.24 -4.06051 4.41862 0
M  V30 48259 H 4409.31 -2.70258 4.02602 0
M  V30 48260 N 4410.65 -1.22035 -0.997255 0
M  V30 48261 C 4411.6 -0.983708 -2.10775 0
M  V30 48262 C 4412.59 0.0716969 -1.69248 0
M  V30 48263 O 4413.8 -0.0803673 -1.7982 0
M  V30 48264 H 4410.17 -0.300901 -0.689175 0
M  V30 48265 H 4412.14 -1.92614 -2.27909 0
M  V30 48266 C 4410.89 -0.57338 -3.4294 0
M  V30 48267 H 4410.22 -1.37715 -3.75333 0
M  V30 48268 H 4411.66 -0.447179 -4.21635 0
M  V30 48269 C 4410.12 0.716584 -3.29191 0
M  V30 48270 O 4410.65 1.77014 -3.60595 0
M  V30 48271 N 4408.85 0.686068 -2.82385 0
M  V30 48272 H 4408.4 -0.171598 -2.57028 0
M  V30 48273 H 4408.36 1.54945 -2.73568 0
M  V30 48274 N 4412.13 1.19341 -1.02934 0
M  V30 48275 C 4413.09 2.20791 -0.615146 0
M  V30 48276 C 4414.09 1.57554 0.321478 0
M  V30 48277 O 4415.28 1.73862 0.108422 0
M  V30 48278 C 4412.41 3.40754 0.0998024 0
M  V30 48279 H 4413.61 2.5895 -1.51278 0
M  V30 48280 H 4411.16 1.33027 -0.820581 0
M  V30 48281 H 4411.89 3.08113 1.01176 0
M  V30 48282 H 4411.68 3.87887 -0.573226 0
M  V30 48283 H 4413.17 4.15899 0.376499 0
M  V30 48284 N 4413.61 0.80727 1.35355 0
M  V30 48285 C 4414.88 0.311194 1.93109 0
M  V30 48286 C 4415.26 -1.19931 1.73723 0
M  V30 48287 O 4414.61 -1.99914 1.10664 0
M  V30 48288 C 4414.82 0.723347 3.41422 0
M  V30 48289 C 4416.17 0.713225 4.18567 0
M  V30 48290 O 4417.19 0.664934 3.49939 0
M  V30 48291 O 4416.05 0.772213 5.41017 0
M  V30 48292 H 4413.15 0.081555 0.822969 0
M  V30 48293 H 4415.69 0.891013 1.44427 0
M  V30 48294 H 4414.46 1.76438 3.49264 0
M  V30 48295 H 4414.09 0.118372 3.97424 0
M  V30 48296 N 4415.08 -1.47283 0.560833 0
M  V30 48297 C 4416.36 -1.9558 -0.0277111 0
M  V30 48298 C 4416.74 -1.50346 -1.48187 0
M  V30 48299 O 4416.09 -0.743958 -2.1605 0
M  V30 48300 C 4416.3 -3.48788 0.12154 0
M  V30 48301 C 4417.65 -4.24594 -0.0219419 0
M  V30 48302 O 4418.67 -3.56166 0.0492691 0
M  V30 48303 O 4417.53 -5.46217 -0.175766 0
M  V30 48304 H 4414.62 -0.824665 -0.0621052 0
M  V30 48305 H 4417.17 -1.57668 0.627611 0
M  V30 48306 H 4415.94 -3.74529 1.13329 0
M  V30 48307 H 4415.57 -3.93475 -0.571227 0
M  V30 48308 N 4416.56 -0.297469 -1.54767 0
M  V30 48309 C 4417.49 0.613803 -2.20828 0
M  V30 48310 C 4418.51 1.10028 -1.19991 0
M  V30 48311 O 4419.7 1.01834 -1.46602 0
M  V30 48312 C 4416.8 1.8519 -2.83827 0
M  V30 48313 C 4415.97 1.50851 -4.10564 0
M  V30 48314 C 4415.03 2.60138 -4.574 0
M  V30 48315 O 4414.05 2.2538 -5.22678 0
M  V30 48316 N 4415.26 3.90614 -4.29419 0
M  V30 48317 H 4418.02 0.0482837 -2.99661 0
M  V30 48318 H 4415.58 -0.119517 -1.61458 0
M  V30 48319 H 4417.57 2.57641 -3.12095 0
M  V30 48320 H 4416.14 2.3259 -2.08856 0
M  V30 48321 H 4415.36 0.616788 -3.89345 0
M  V30 48322 H 4416.65 1.25441 -4.93094 0
M  V30 48323 H 4416.05 4.21664 -3.77115 0
M  V30 48324 H 4414.61 4.59375 -4.62405 0
M  V30 48325 N 4418.04 1.5758 -0.0251282 0
M  V30 48326 C 4418.95 2.13433 0.97383 0
M  V30 48327 C 4419.97 1.08561 1.3598 0
M  V30 48328 O 4421.14 1.40597 1.44202 0
M  V30 48329 C 4418.21 2.64711 2.23895 0
M  V30 48330 C 4417.27 3.84283 1.91377 0
M  V30 48331 C 4416.5 4.33106 3.11857 0
M  V30 48332 O 4416.72 3.81122 4.24384 0
M  V30 48333 O 4415.66 5.24995 2.94388 0
M  V30 48334 H 4419.48 2.99059 0.528931 0
M  V30 48335 H 4417.07 1.48119 0.195236 0
M  V30 48336 H 4418.95 2.97779 2.9817 0
M  V30 48337 H 4417.63 1.82171 2.67573 0
M  V30 48338 H 4416.53 3.56147 1.14498 0
M  V30 48339 H 4417.87 4.67974 1.52517 0
M  V30 48340 N 4419.52 -0.247971 1.55637 0
M  V30 48341 C 4420.76 -0.983529 1.79182 0
M  V30 48342 C 4421.12 -1.82565 0.594478 0
M  V30 48343 O 4422.32 -2.5929 0.708674 0
M  V30 48344 C 4420.59 -1.82217 3.0746 0
M  V30 48345 S 4422.15 -2.61697 3.52222 0
M  V30 48346 H 4418.97 -0.330844 0.629335 0
M  V30 48347 H 4421.57 -0.251494 1.93876 0
M  V30 48348 H 4420.28 -1.19319 3.92672 0
M  V30 48349 H 4419.81 -2.59697 2.95501 0
M  V30 48350 H 4421.82 -3.84644 3.1347 0
M  V30 48351 N 4421 -1.48997 -0.513587 0
M  V30 48352 C 4421.94 -1.64736 -1.6165 0
M  V30 48353 C 4422.91 -0.48904 -1.58738 0
M  V30 48354 O 4424.1 -0.71454 -1.76915 0
M  V30 48355 C 4421.24 -1.7083 -2.99852 0
M  V30 48356 C 4420.35 -2.97881 -3.12875 0
M  V30 48357 C 4419.49 -2.95033 -4.41734 0
M  V30 48358 C 4418.53 -4.16718 -4.48345 0
M  V30 48359 N 4417.66 -4.11852 -5.68615 0
M  V30 48360 H 4422.5 -2.58914 -1.47538 0
M  V30 48361 H 4420.04 -1.28385 -0.718035 0
M  V30 48362 H 4422 -1.72345 -3.79938 0
M  V30 48363 H 4420.63 -0.801291 -3.12697 0
M  V30 48364 H 4419.68 -3.06036 -2.25933 0
M  V30 48365 H 4420.99 -3.87871 -3.1362 0
M  V30 48366 H 4420.15 -2.9504 -5.30128 0
M  V30 48367 H 4418.89 -2.028 -4.43535 0
M  V30 48368 H 4417.89 -4.16968 -3.58354 0
M  V30 48369 H 4419.12 -5.10129 -4.48269 0
M  V30 48370 H 4417.06 -3.22448 -5.71282 0
M  V30 48371 H 4416.98 -4.95563 -5.70923 0
M  V30 48372 H 4418.25 -4.15943 -6.59251 0
M  V30 48373 N 4422.48 0.763702 -1.3786 0
M  V30 48374 C 4423.89 1.06538 -1.18835 0
M  V30 48375 C 4424.09 2.01478 -0.0300431 0
M  V30 48376 O 4423.15 2.44582 0.627361 0
M  V30 48377 C 4424.46 1.65516 -2.51048 0
M  V30 48378 C 4426.01 1.77736 -2.57641 0
M  V30 48379 C 4426.48 2.40127 -3.90004 0
M  V30 48380 N 4427.97 2.47569 -3.91489 0
M  V30 48381 C 4428.71 2.96715 -4.90661 0
M  V30 48382 N 4428.21 3.45972 -6.00229 0
M  V30 48383 N 4430 2.95662 -4.78059 0
M  V30 48384 H 4422.15 0.133482 -2.1198 0
M  V30 48385 H 4424.41 0.121846 -0.940137 0
M  V30 48386 H 4424.12 1.03224 -3.36211 0
M  V30 48387 H 4423.99 2.6471 -2.68717 0
M  V30 48388 H 4426.38 2.39158 -1.7288 0
M  V30 48389 H 4426.46 0.77275 -2.43849 0
M  V30 48390 H 4426.1 1.79341 -4.75183 0
M  V30 48391 H 4426.03 3.41209 -4.01104 0
M  V30 48392 H 4428.53 2.12719 -3.12345 0
M  V30 48393 H 4428.84 3.81899 -6.71843 0
M  V30 48394 H 4427.18 3.44056 -6.03863 0
M  V30 48395 H 4430.37 2.56485 -3.91577 0
M  V30 48396 H 4430.55 3.33652 -5.555 0
M  V30 48397 N 4423.95 1.22562 0.990769 0
M  V30 48398 C 4424.9 0.994872 2.1025 0
M  V30 48399 C 4425.9 -0.0627203 1.69284 0
M  V30 48400 O 4427.1 0.0899024 1.79775 0
M  V30 48401 H 4423.48 0.304552 0.68757 0
M  V30 48402 H 4425.45 1.9382 2.26884 0
M  V30 48403 C 4424.2 0.591559 3.42631 0
M  V30 48404 H 4423.52 1.39704 3.74597 0
M  V30 48405 H 4424.96 0.469533 4.21392 0
M  V30 48406 C 4423.42 -0.699116 3.29566 0
M  V30 48407 O 4423.95 -1.75099 3.61529 0
M  V30 48408 N 4422.15 -0.671083 2.82745 0
M  V30 48409 H 4421.7 0.185226 2.56933 0
M  V30 48410 H 4421.66 -1.53492 2.74386 0
M  V30 48411 N 4425.43 -1.18793 1.03566 0
M  V30 48412 C 4426.36 -2.24469 0.643098 0
M  V30 48413 C 4427.34 -1.66434 -0.351224 0
M  V30 48414 O 4428.53 -1.92804 -0.232437 0
M  V30 48415 C 4425.66 -3.473 7.95998e-05 0
M  V30 48416 C 4424.61 -4.18052 0.917404 0
M  V30 48417 C 4423.94 -5.34519 0.139129 0
M  V30 48418 C 4425.24 -4.72101 2.23424 0
M  V30 48419 H 4426.93 -2.57561 1.52652 0
M  V30 48420 H 4424.48 -1.23804 0.735438 0
M  V30 48421 H 4426.43 -4.20427 -0.286235 0
M  V30 48422 H 4425.15 -3.13428 -0.918188 0
M  V30 48423 H 4423.81 -3.46816 1.18802 0
M  V30 48424 H 4423.46 -4.96894 -0.781387 0
M  V30 48425 H 4423.16 -5.82791 0.750209 0
M  V30 48426 H 4424.69 -6.10439 -0.140286 0
M  V30 48427 H 4426.1 -5.36948 2.00898 0
M  V30 48428 H 4424.5 -5.30887 2.79784 0
M  V30 48429 H 4425.57 -3.89797 2.88421 0
M  V30 48430 N 4426.91 -0.814437 -1.34925 0
M  V30 48431 C 4428.13 -0.410168 -2.03304 0
M  V30 48432 C 4428.56 0.973408 -1.60955 0
M  V30 48433 O 4427.92 1.63182 -0.790022 0
M  V30 48434 C 4427.97 -0.510616 -3.56966 0
M  V30 48435 O 4427.07 0.472891 -4.0968 0
M  V30 48436 H 4426.41 -0.170111 -0.64184 0
M  V30 48437 H 4428.94 -1.1025 -1.72355 0
M  V30 48438 H 4428.95 -0.383277 -4.06196 0
M  V30 48439 H 4427.63 -1.51976 -3.87138 0
M  V30 48440 H 4426.2 0.305141 -3.71649 0
M  V30 48441 N 4428.39 1.46984 -0.568636 0
M  V30 48442 C 4429.66 1.95592 0.0173386 0
M  V30 48443 C 4430.04 1.51129 1.47388 0
M  V30 48444 O 4429.39 0.755405 2.15652 0
M  V30 48445 C 4429.6 3.48719 -0.140036 0
M  V30 48446 C 4430.95 4.246 -0.000575644 0
M  V30 48447 O 4431.97 3.56135 -0.0681568 0
M  V30 48448 O 4430.83 5.46303 0.146796 0
M  V30 48449 H 4427.93 0.824983 0.0577309 0
M  V30 48450 H 4430.47 1.57333 -0.635964 0
M  V30 48451 H 4429.25 3.73923 -1.15314 0
M  V30 48452 H 4428.87 3.93773 0.550352 0
M  V30 48453 N 4429.87 0.305673 1.54607 0
M  V30 48454 C 4431.11 -0.303028 1.99411 0
M  V30 48455 C 4431.43 -1.54644 1.19769 0
M  V30 48456 O 4432.63 -2.23002 1.54863 0
M  V30 48457 C 4431.09 -0.590463 3.55023 0
M  V30 48458 C 4430.7 0.634875 4.43479 0
M  V30 48459 C 4432.44 -1.1601 4.0834 0
M  V30 48460 C 4430.35 0.320334 5.90532 0
M  V30 48461 H 4429.28 -0.117005 0.744866 0
M  V30 48462 H 4431.93 0.415108 1.78743 0
M  V30 48463 H 4430.31 -1.36832 3.71609 0
M  V30 48464 H 4431.49 1.41094 4.38667 0
M  V30 48465 H 4429.8 1.12347 4.00958 0
M  V30 48466 H 4432.4 -1.40976 5.15781 0
M  V30 48467 H 4432.74 -2.10385 3.59227 0
M  V30 48468 H 4433.27 -0.443847 3.95316 0
M  V30 48469 H 4430.01 1.23277 6.43804 0
M  V30 48470 H 4429.53 -0.418369 5.98339 0
M  V30 48471 H 4431.21 -0.0763966 6.46955 0
M  V30 48472 N 4431.34 -1.57564 0.0334847 0
M  V30 48473 C 4432.62 -1.83284 -0.683099 0
M  V30 48474 C 4433 -0.918297 -1.9008 0
M  V30 48475 O 4432.35 0.0250327 -2.28486 0
M  V30 48476 C 4432.56 -3.32603 -1.05718 0
M  V30 48477 C 4433.91 -3.99184 -1.44697 0
M  V30 48478 O 4434.93 -3.37124 -1.15003 0
M  V30 48479 O 4433.79 -5.08572 -2.00042 0
M  V30 48480 H 4430.88 -0.755881 -0.335519 0
M  V30 48481 H 4433.43 -1.69589 0.0614998 0
M  V30 48482 H 4432.2 -3.90835 -0.19069 0
M  V30 48483 H 4431.82 -3.51422 -1.8598 0
M  V30 48484 N 4432.82 0.239714 -1.55766 0
M  V30 48485 C 4433.75 1.31995 -1.87377 0
M  V30 48486 C 4434.77 1.43941 -0.760572 0
M  V30 48487 O 4435.96 1.45163 -1.03875 0
M  V30 48488 C 4433.06 2.69772 -2.05125 0
M  V30 48489 C 4432.23 2.80002 -3.36032 0
M  V30 48490 C 4431.29 3.98672 -3.43434 0
M  V30 48491 O 4430.31 3.87862 -4.16595 0
M  V30 48492 N 4431.52 5.12167 -2.7325 0
M  V30 48493 H 4434.28 1.05211 -2.80626 0
M  V30 48494 H 4431.84 0.429802 -1.56091 0
M  V30 48495 H 4433.83 3.47509 -2.07411 0
M  V30 48496 H 4432.4 2.89233 -1.18587 0
M  V30 48497 H 4431.62 1.88884 -3.46001 0
M  V30 48498 H 4432.91 2.83793 -4.22302 0
M  V30 48499 H 4432.31 5.23842 -2.13555 0
M  V30 48500 H 4430.87 5.88012 -2.8122 0
M  V30 48501 N 4434.3 1.49267 0.505678 0
M  V30 48502 C 4435.52 1.62482 1.28896 0
M  V30 48503 C 4435.95 0.294397 1.85782 0
M  V30 48504 O 4435.31 -0.737354 1.65628 0
M  V30 48505 C 4435.36 2.69277 2.39838 0
M  V30 48506 O 4434.46 2.28125 3.43559 0
M  V30 48507 H 4433.8 0.544003 0.380732 0
M  V30 48508 H 4436.33 1.95423 0.605883 0
M  V30 48509 H 4436.34 2.91301 2.8567 0
M  V30 48510 H 4435.02 3.65853 1.978 0
M  V30 48511 H 4433.59 2.16412 3.03678 0
M  V30 48512 N 4435.78 -0.756381 1.38263 0
M  V30 48513 C 4437.03 -1.51542 1.34317 0
M  V30 48514 C 4437.35 -1.94382 -0.067646 0
M  V30 48515 O 4436.61 -1.65518 -1.04415 0
M  V30 48516 C 4436.91 -2.78306 2.24234 0
M  V30 48517 C 4436.57 -2.54442 3.7225 0
M  V30 48518 C 4435.24 -2.47643 4.12585 0
M  V30 48519 C 4437.59 -2.33524 4.65957 0
M  V30 48520 C 4434.92 -2.17937 5.44721 0
M  V30 48521 C 4437.27 -2.05338 5.98347 0
M  V30 48522 C 4435.93 -1.96994 6.37769 0
M  V30 48523 H 4435.2 -0.554533 0.491502 0
M  V30 48524 H 4437.85 -0.869979 1.70598 0
M  V30 48525 H 4436.15 -3.47486 1.80999 0
M  V30 48526 H 4437.85 -3.36251 2.18486 0
M  V30 48527 H 4434.44 -2.60604 3.4027 0
M  V30 48528 H 4438.62 -2.37757 4.35643 0
M  V30 48529 H 4433.88 -2.09982 5.7421 0
M  V30 48530 H 4438.05 -1.88155 6.705 0
M  V30 48531 H 4435.68 -1.7374 7.4008 0
M  V30 48532 N 4437.26 -1.23086 -0.984255 0
M  V30 48533 C 4438.2 -1.00601 -2.09719 0
M  V30 48534 C 4439.2 0.0537418 -1.69315 0
M  V30 48535 O 4440.4 -0.0994351 -1.79725 0
M  V30 48536 H 4436.78 -0.308194 -0.685945 0
M  V30 48537 H 4438.75 -1.9502 -2.25853 0
M  V30 48538 C 4437.5 -0.609721 -3.42312 0
M  V30 48539 H 4436.82 -1.41688 -3.73851 0
M  V30 48540 H 4438.26 -0.491874 -4.21137 0
M  V30 48541 C 4436.72 0.681629 -3.29932 0
M  V30 48542 O 4437.25 1.7318 -3.62452 0
M  V30 48543 N 4435.46 0.656078 -2.83097 0
M  V30 48544 H 4435 -0.198849 -2.56831 0
M  V30 48545 H 4434.96 1.52035 -2.75196 0
M  V30 48546 N 4438.73 1.18243 -1.04194 0
M  V30 48547 C 4439.68 2.21918 -0.634115 0
M  V30 48548 C 4440.65 1.6218 0.358708 0
M  V30 48549 O 4441.84 1.89123 0.2524 0
M  V30 48550 C 4438.98 3.451 -0.00457667 0
M  V30 48551 C 4438.09 4.1917 -1.04502 0
M  V30 48552 C 4437.22 5.29811 -0.383862 0
M  V30 48553 C 4436.26 5.95655 -1.40931 0
M  V30 48554 N 4435.4 6.97831 -0.77303 0
M  V30 48555 H 4440.24 2.56158 -1.52272 0
M  V30 48556 H 4437.78 1.25841 -0.761745 0
M  V30 48557 H 4439.74 4.15486 0.377773 0
M  V30 48558 H 4438.37 3.11475 0.847542 0
M  V30 48559 H 4437.42 3.47598 -1.5453 0
M  V30 48560 H 4438.73 4.6426 -1.82384 0
M  V30 48561 H 4437.88 6.06677 0.0526234 0
M  V30 48562 H 4436.62 4.85827 0.427038 0
M  V30 48563 H 4435.63 5.17528 -1.85592 0
M  V30 48564 H 4436.85 6.41722 -2.22193 0
M  V30 48565 H 4434.8 6.55998 0.0175402 0
M  V30 48566 H 4434.72 7.41181 -1.48954 0
M  V30 48567 H 4435.98 7.78664 -0.360983 0
M  V30 48568 N 4440.21 0.821581 1.34491 0
M  V30 48569 C 4441.46 0.409622 1.9862 0
M  V30 48570 C 4441.79 -1.02434 1.64987 0
M  V30 48571 O 4441.07 -1.71322 0.920818 0
M  V30 48572 C 4441.35 0.610583 3.54886 0
M  V30 48573 C 4441.2 2.09057 3.98265 0
M  V30 48574 C 4442.52 0.0456926 4.40076 0
M  V30 48575 H 4439.64 0.150305 0.721511 0
M  V30 48576 H 4442.28 1.0339 1.59407 0
M  V30 48577 H 4440.43 0.0791806 3.88419 0
M  V30 48578 H 4442.1 2.6855 3.75071 0
M  V30 48579 H 4440.35 2.58152 3.48626 0
M  V30 48580 H 4441.02 2.182 5.07043 0
M  V30 48581 H 4443.49 0.499703 4.13089 0
M  V30 48582 H 4442.37 0.216115 5.48474 0
M  V30 48583 H 4442.63 -1.04924 4.29469 0
M  V30 48584 N 4441.69 -1.4668 0.576422 0
M  V30 48585 C 4442.65 -2.28708 -0.150159 0
M  V30 48586 C 4443.65 -1.38038 -0.824745 0
M  V30 48587 O 4444.84 -1.60479 -0.677663 0
M  V30 48588 C 4441.98 -3.18252 -1.22181 0
M  V30 48589 H 4443.17 -2.94421 0.570625 0
M  V30 48590 H 4440.72 -1.52687 0.334132 0
M  V30 48591 H 4441.46 -2.57272 -1.97437 0
M  V30 48592 H 4441.24 -3.85002 -0.742676 0
M  V30 48593 H 4442.73 -3.80008 -1.73159 0
M  V30 48594 N 4443.17 -0.313868 -1.54443 0
M  V30 48595 C 4444.08 0.565634 -2.27679 0
M  V30 48596 C 4445.09 1.13749 -1.3167 0
M  V30 48597 O 4446.27 1.15953 -1.64672 0
M  V30 48598 C 4443.34 1.71517 -3.01302 0
M  V30 48599 C 4442.4 1.1761 -4.12876 0
M  V30 48600 C 4441.63 2.27085 -4.82978 0
M  V30 48601 O 4441.85 3.4724 -4.52527 0
M  V30 48602 O 4440.79 1.9305 -5.70101 0
M  V30 48603 H 4444.61 -0.0288364 -3.03686 0
M  V30 48604 H 4442.2 -0.0798837 -1.49186 0
M  V30 48605 H 4444.08 2.38463 -3.47438 0
M  V30 48606 H 4442.75 2.296 -2.28178 0
M  V30 48607 H 4441.66 0.471993 -3.71111 0
M  V30 48608 H 4442.99 0.640523 -4.88014 0
M  V30 48609 N 4444.65 1.57544 -0.0418402 0
M  V30 48610 C 4446.06 1.56468 0.314649 0
M  V30 48611 C 4446.26 1.04866 1.72062 0
M  V30 48612 O 4445.32 0.701068 2.42572 0
M  V30 48613 C 4446.63 3.00317 0.151634 0
M  V30 48614 C 4448.18 3.12201 0.223444 0
M  V30 48615 C 4448.65 4.57913 0.0890685 0
M  V30 48616 N 4450.15 4.62971 0.145645 0
M  V30 48617 C 4450.88 5.73362 0.0656443 0
M  V30 48618 N 4450.38 6.92768 -0.0661717 0
M  V30 48619 N 4452.17 5.61971 0.120553 0
M  V30 48620 H 4444.32 1.89412 -0.961081 0
M  V30 48621 H 4446.58 0.871849 -0.372267 0
M  V30 48622 H 4446.29 3.4207 -0.817375 0
M  V30 48623 H 4446.16 3.65895 0.916564 0
M  V30 48624 H 4448.55 2.70354 1.18292 0
M  V30 48625 H 4448.63 2.49321 -0.572081 0
M  V30 48626 H 4448.28 5.00445 -0.867043 0
M  V30 48627 H 4448.21 5.18789 0.90362 0
M  V30 48628 H 4450.7 3.77091 0.247153 0
M  V30 48629 H 4451.01 7.72707 -0.120177 0
M  V30 48630 H 4449.35 6.94926 -0.101129 0
M  V30 48631 H 4452.55 4.67573 0.222023 0
M  V30 48632 H 4452.72 6.47977 0.0547457 0
M  V30 48633 N 4446.12 -0.23145 1.55891 0
M  V30 48634 C 4447.37 -0.958707 1.78708 0
M  V30 48635 C 4447.7 -1.84378 0.60979 0
M  V30 48636 O 4446.98 -1.90522 -0.391359 0
M  V30 48637 C 4447.26 -1.80609 3.11532 0
M  V30 48638 C 4447.11 -0.948174 4.39693 0
M  V30 48639 C 4448.43 -2.78573 3.40713 0
M  V30 48640 H 4445.55 -0.347106 0.650143 0
M  V30 48641 H 4448.19 -0.228193 1.88625 0
M  V30 48642 H 4446.34 -2.42892 3.03209 0
M  V30 48643 H 4448.02 -0.342855 4.60024 0
M  V30 48644 H 4446.26 -0.253161 4.33061 0
M  V30 48645 H 4446.93 -1.57524 5.29046 0
M  V30 48646 H 4449.41 -2.26427 3.49099 0
M  V30 48647 H 4448.28 -3.34973 4.34838 0
M  V30 48648 H 4448.54 -3.55816 2.62388 0
M  V30 48649 N 4447.6 -1.49533 -0.497755 0
M  V30 48650 C 4448.53 -1.69356 -1.60751 0
M  V30 48651 C 4449.51 -0.542274 -1.61225 0
M  V30 48652 O 4450.7 -0.778479 -1.77914 0
M  V30 48653 C 4447.83 -1.76308 -2.9922 0
M  V30 48654 C 4446.78 -2.91259 -3.13612 0
M  V30 48655 C 4446.11 -2.83327 -4.53464 0
M  V30 48656 C 4447.41 -4.3215 -2.93331 0
M  V30 48657 H 4449.1 -2.62268 -1.44416 0
M  V30 48658 H 4446.65 -1.2621 -0.693323 0
M  V30 48659 H 4448.6 -1.88762 -3.76758 0
M  V30 48660 H 4447.33 -0.799982 -3.16651 0
M  V30 48661 H 4445.98 -2.78413 -2.38499 0
M  V30 48662 H 4445.63 -1.84918 -4.67776 0
M  V30 48663 H 4445.33 -3.60481 -4.64033 0
M  V30 48664 H 4446.86 -2.97793 -5.33059 0
M  V30 48665 H 4448.27 -4.45661 -3.60637 0
M  V30 48666 H 4446.67 -5.10551 -3.15369 0
M  V30 48667 H 4447.74 -4.4637 -1.89425 0
M  V30 48668 N 4449.08 0.749038 -1.38662 0
M  V30 48669 C 4450.01 1.87107 -1.30638 0
M  V30 48670 C 4450.99 1.61572 -0.182567 0
M  V30 48671 O 4452.18 1.85018 -0.360657 0
M  V30 48672 C 4449.3 3.22811 -1.02522 0
M  V30 48673 C 4448.35 3.67227 -2.16903 0
M  V30 48674 S 4449.18 3.78232 -3.79079 0
M  V30 48675 C 4450.34 5.16748 -3.5316 0
M  V30 48676 H 4450.57 1.93628 -2.25601 0
M  V30 48677 H 4448.1 0.912481 -1.24552 0
M  V30 48678 H 4450.06 4.01178 -0.869842 0
M  V30 48679 H 4448.72 3.13963 -0.0926988 0
M  V30 48680 H 4447.92 4.6567 -1.92788 0
M  V30 48681 H 4447.52 2.96026 -2.28571 0
M  V30 48682 H 4449.81 6.02645 -3.09556 0
M  V30 48683 H 4450.75 5.45886 -4.51014 0
M  V30 48684 H 4451.16 4.85761 -2.87571 0
M  V30 48685 N 4450.56 1.23606 0.977714 0
M  V30 48686 C 4451.98 0.999295 1.24444 0
M  V30 48687 C 4452.18 -0.297983 1.99284 0
M  V30 48688 O 4451.23 -1.01673 2.31125 0
M  V30 48689 C 4452.54 2.20791 2.04136 0
M  V30 48690 C 4454.09 2.2531 2.17266 0
M  V30 48691 C 4454.57 3.45766 3.0035 0
M  V30 48692 N 4456.06 3.46021 3.07934 0
M  V30 48693 C 4456.79 4.35881 3.72553 0
M  V30 48694 N 4456.29 5.35981 4.38972 0
M  V30 48695 N 4458.08 4.23618 3.69465 0
M  V30 48696 H 4450.23 2.06988 0.47641 0
M  V30 48697 H 4452.5 0.90781 0.273102 0
M  V30 48698 H 4452.2 3.1495 1.56522 0
M  V30 48699 H 4452.08 2.22095 3.04883 0
M  V30 48700 H 4454.46 1.31689 2.64087 0
M  V30 48701 H 4454.54 2.28037 1.15899 0
M  V30 48702 H 4454.19 4.39696 2.54225 0
M  V30 48703 H 4454.12 3.4028 4.01892 0
M  V30 48704 H 4456.61 2.73597 2.60678 0
M  V30 48705 H 4456.92 6.008 4.86065 0
M  V30 48706 H 4455.27 5.39878 4.37672 0
M  V30 48707 H 4458.46 3.44658 3.16747 0
M  V30 48708 H 4458.63 4.9385 4.19542 0
M  V30 48709 N 4452.04 -1.17688 1.0482 0
M  V30 48710 C 4452.97 -2.23775 0.666869 0
M  V30 48711 C 4453.95 -1.66798 -0.333552 0
M  V30 48712 O 4455.13 -1.9304 -0.211974 0
M  V30 48713 C 4452.26 -3.4728 0.0369154 0
M  V30 48714 C 4451.22 -4.17056 0.961692 0
M  V30 48715 C 4450.54 -5.34341 0.195814 0
M  V30 48716 C 4451.84 -4.69705 2.28418 0
M  V30 48717 H 4453.54 -2.55927 1.55376 0
M  V30 48718 H 4451.08 -1.23017 0.748528 0
M  V30 48719 H 4453.04 -4.20707 -0.241627 0
M  V30 48720 H 4451.76 -3.14384 -0.884894 0
M  V30 48721 H 4450.42 -3.45537 1.22474 0
M  V30 48722 H 4450.07 -4.97695 -0.728641 0
M  V30 48723 H 4449.77 -5.81963 0.81198 0
M  V30 48724 H 4451.29 -6.10553 -0.0755326 0
M  V30 48725 H 4452.71 -5.34787 2.06581 0
M  V30 48726 H 4451.1 -5.2789 2.85399 0
M  V30 48727 H 4452.17 -3.86716 2.92539 0
M  V30 48728 N 4453.52 -0.828702 -1.34053 0
M  V30 48729 C 4454.45 -0.212132 -2.28216 0
M  V30 48730 C 4455.46 0.601309 -1.51288 0
M  V30 48731 O 4456.65 0.430043 -1.73242 0
M  V30 48732 C 4453.75 0.720764 -3.31147 0
M  V30 48733 C 4452.92 -0.0511124 -4.3737 0
M  V30 48734 C 4451.98 0.803583 -5.20028 0
M  V30 48735 O 4451.01 0.246467 -5.68666 0
M  V30 48736 N 4452.21 2.12251 -5.40305 0
M  V30 48737 H 4454.97 -1.02115 -2.81767 0
M  V30 48738 H 4452.54 -0.686204 -1.46638 0
M  V30 48739 H 4454.53 1.29728 -3.83344 0
M  V30 48740 H 4453.1 1.43051 -2.77948 0
M  V30 48741 H 4452.32 -0.808967 -3.8581 0
M  V30 48742 H 4453.61 -0.582243 -5.05458 0
M  V30 48743 H 4453 2.5988 -5.02473 0
M  V30 48744 H 4451.56 2.64775 -5.95599 0
M  V30 48745 N 4454.99 1.46373 -0.584193 0
M  V30 48746 C 4455.9 2.34116 0.150645 0
M  V30 48747 C 4456.92 1.49841 0.884514 0
M  V30 48748 O 4458.1 1.82707 0.847365 0
M  V30 48749 C 4455.16 3.27054 1.1505 0
M  V30 48750 C 4454.22 4.27229 0.421143 0
M  V30 48751 C 4453.45 5.15727 1.37337 0
M  V30 48752 O 4453.68 5.07185 2.60997 0
M  V30 48753 O 4452.61 5.95386 0.883145 0
M  V30 48754 H 4456.44 2.98307 -0.569813 0
M  V30 48755 H 4454.02 1.45372 -0.344586 0
M  V30 48756 H 4455.9 3.84387 1.72699 0
M  V30 48757 H 4454.58 2.65458 1.8524 0
M  V30 48758 H 4453.49 3.7358 -0.197217 0
M  V30 48759 H 4454.82 4.91615 -0.239814 0
M  V30 48760 N 4456.47 0.322054 1.54274 0
M  V30 48761 C 4457.42 -0.544585 2.24283 0
M  V30 48762 C 4458.39 -1.11286 1.23307 0
M  V30 48763 O 4459.57 -1.15348 1.51985 0
M  V30 48764 C 4456.71 -1.70034 3.00304 0
M  V30 48765 C 4455.83 -1.16144 4.16094 0
M  V30 48766 C 4454.96 -2.28276 4.79649 0
M  V30 48767 C 4454 -1.71627 5.87546 0
M  V30 48768 N 4453.14 -2.77416 6.44969 0
M  V30 48769 H 4457.98 0.0589955 2.97942 0
M  V30 48770 H 4455.51 0.0408862 1.47043 0
M  V30 48771 H 4457.47 -2.38042 3.42625 0
M  V30 48772 H 4456.1 -2.27523 2.28983 0
M  V30 48773 H 4455.15 -0.372959 3.78567 0
M  V30 48774 H 4456.47 -0.706913 4.93765 0
M  V30 48775 H 4455.62 -3.04192 5.24931 0
M  V30 48776 H 4454.36 -2.77065 4.01356 0
M  V30 48777 H 4453.36 -0.942092 5.41668 0
M  V30 48778 H 4454.59 -1.23717 6.67736 0
M  V30 48779 H 4452.54 -3.25499 5.69549 0
M  V30 48780 H 4452.45 -2.36521 7.18049 0
M  V30 48781 H 4453.72 -3.53165 6.94906 0
M  V30 48782 N 4457.95 -1.5752 0.0501946 0
M  V30 48783 C 4458.88 -2.14505 -0.922491 0
M  V30 48784 C 4459.86 -1.06647 -1.32516 0
M  V30 48785 O 4461.05 -1.34582 -1.40005 0
M  V30 48786 C 4458.18 -2.68924 -2.19766 0
M  V30 48787 C 4457.13 -3.81757 -1.93509 0
M  V30 48788 C 4456.46 -4.22689 -3.27472 0
M  V30 48789 C 4457.76 -5.06937 -1.25747 0
M  V30 48790 H 4459.45 -2.96032 -0.447848 0
M  V30 48791 H 4457 -1.42401 -0.213974 0
M  V30 48792 H 4458.95 -3.07429 -2.88211 0
M  V30 48793 H 4457.67 -1.84588 -2.69434 0
M  V30 48794 H 4456.33 -3.43723 -1.27477 0
M  V30 48795 H 4455.98 -3.35305 -3.7494 0
M  V30 48796 H 4455.68 -4.98736 -3.10703 0
M  V30 48797 H 4457.2 -4.63793 -3.9715 0
M  V30 48798 H 4458.62 -5.42894 -1.84225 0
M  V30 48799 H 4457.01 -5.88121 -1.19307 0
M  V30 48800 H 4458.08 -4.84338 -0.233366 0
M  V30 48801 N 4459.43 0.223179 -1.56012 0
M  V30 48802 C 4460.37 1.27657 -1.92282 0
M  V30 48803 C 4461.34 1.46656 -0.779815 0
M  V30 48804 O 4462.53 1.60252 -1.03557 0
M  V30 48805 C 4459.67 2.62226 -2.24347 0
M  V30 48806 C 4458.78 2.51038 -3.51573 0
M  V30 48807 C 4457.92 3.7812 -3.73094 0
M  V30 48808 C 4456.96 3.61648 -4.93839 0
M  V30 48809 N 4456.09 4.80675 -5.11758 0
M  V30 48810 H 4460.93 0.960259 -2.82105 0
M  V30 48811 H 4458.47 0.462852 -1.39628 0
M  V30 48812 H 4460.43 3.40588 -2.40948 0
M  V30 48813 H 4459.06 2.91956 -1.377 0
M  V30 48814 H 4458.11 1.6412 -3.43175 0
M  V30 48815 H 4459.42 2.34787 -4.40087 0
M  V30 48816 H 4458.58 4.64925 -3.89782 0
M  V30 48817 H 4457.32 3.97294 -2.82858 0
M  V30 48818 H 4456.32 2.73227 -4.77103 0
M  V30 48819 H 4457.55 3.43946 -5.85558 0
M  V30 48820 H 4455.49 5.00166 -4.24464 0
M  V30 48821 H 4455.41 4.67144 -5.94401 0
M  V30 48822 H 4456.68 5.68911 -5.3288 0
M  V30 48823 N 4460.91 1.49795 0.489818 0
M  V30 48824 C 4462.15 1.59529 1.24076 0
M  V30 48825 C 4462.47 0.289021 1.92846 0
M  V30 48826 O 4461.74 -0.692371 1.83257 0
M  V30 48827 H 4460.32 0.587812 0.460962 0
M  V30 48828 H 4462.99 1.86479 0.566713 0
M  V30 48829 H 4462.08 2.39703 1.99872 0
M  V30 48830 N 4462.38 -0.741673 1.39057 0
M  V30 48831 C 4463.63 -1.50332 1.36118 0
M  V30 48832 C 4463.96 -1.94148 -0.0450114 0
M  V30 48833 O 4463.24 -1.66304 -1.00862 0
M  V30 48834 C 4463.52 -2.74764 2.32759 0
M  V30 48835 C 4463.37 -2.3701 3.82291 0
M  V30 48836 C 4464.69 -3.76838 2.27335 0
M  V30 48837 H 4461.81 -0.545333 0.495763 0
M  V30 48838 H 4464.45 -0.848565 1.69998 0
M  V30 48839 H 4462.6 -3.30632 2.03997 0
M  V30 48840 H 4464.28 -1.86825 4.21775 0
M  V30 48841 H 4462.52 -1.6932 3.99391 0
M  V30 48842 H 4463.19 -3.26089 4.45388 0
M  V30 48843 H 4465.67 -3.30539 2.52751 0
M  V30 48844 H 4464.54 -4.6158 2.97045 0
M  V30 48845 H 4464.8 -4.23281 1.27614 0
M  V30 48846 N 4463.86 -1.24123 -0.971145 0
M  V30 48847 C 4464.77 -1.04754 -2.09913 0
M  V30 48848 C 4465.79 0.010655 -1.73997 0
M  V30 48849 O 4466.96 -0.186784 -2.00532 0
M  V30 48850 C 4464.03 -0.650948 -3.40534 0
M  V30 48851 C 4463.09 -1.78524 -3.9042 0
M  V30 48852 C 4462.32 -1.40747 -5.14807 0
M  V30 48853 O 4462.55 -0.29577 -5.69633 0
M  V30 48854 O 4461.48 -2.23188 -5.58991 0
M  V30 48855 H 4465.31 -1.99312 -2.29147 0
M  V30 48856 H 4462.89 -1.02911 -1.08303 0
M  V30 48857 H 4464.77 -0.441139 -4.19085 0
M  V30 48858 H 4463.45 0.265535 -3.22609 0
M  V30 48859 H 4462.35 -2.04977 -3.12946 0
M  V30 48860 H 4463.69 -2.68037 -4.12816 0
M  V30 48861 N 4465.34 1.17131 -1.05443 0
M  V30 48862 C 4466.25 2.24875 -0.668444 0
M  V30 48863 C 4467.27 1.71187 0.311627 0
M  V30 48864 O 4468.44 2.00739 0.163091 0
M  V30 48865 C 4465.51 3.46661 -0.0517698 0
M  V30 48866 C 4464.57 4.15425 -1.08261 0
M  V30 48867 C 4463.8 5.31397 -0.495268 0
M  V30 48868 O 4464.02 5.66156 0.694544 0
M  V30 48869 O 4462.96 5.89182 -1.23077 0
M  V30 48870 H 4466.78 2.60184 -1.56646 0
M  V30 48871 H 4464.37 1.2448 -0.826147 0
M  V30 48872 H 4466.25 4.20395 0.290818 0
M  V30 48873 H 4464.93 3.13145 0.819861 0
M  V30 48874 H 4463.83 3.43699 -1.47723 0
M  V30 48875 H 4465.17 4.52975 -1.92548 0
M  V30 48876 N 4466.82 0.835799 1.33612 0
M  V30 48877 C 4468.07 0.429179 1.9749 0
M  V30 48878 C 4468.39 -1.01427 1.66546 0
M  V30 48879 O 4467.66 -1.70607 0.962804 0
M  V30 48880 H 4466.24 0.155712 0.730591 0
M  V30 48881 H 4468.9 1.06808 1.63028 0
M  V30 48882 H 4468 0.558718 3.07058 0
M  V30 48883 N 4468.3 -1.46061 0.591947 0
M  V30 48884 C 4469.52 -2.06717 0.0869663 0
M  V30 48885 C 4469.94 -1.4392 -1.22198 0
M  V30 48886 O 4469.3 -0.547759 -1.74086 0
M  V30 48887 C 4469.35 -3.61421 -0.0757454 0
M  V30 48888 O 4469.07 -4.2187 1.1814 0
M  V30 48889 C 4470.57 -4.39027 -0.614005 0
M  V30 48890 H 4467.79 -0.66816 0.0616753 0
M  V30 48891 H 4470.33 -1.87548 0.815241 0
M  V30 48892 H 4468.49 -3.79986 -0.754279 0
M  V30 48893 H 4468.9 -5.14858 1.0011 0
M  V30 48894 H 4470.38 -5.47833 -0.677001 0
M  V30 48895 H 4470.85 -4.07714 -1.63298 0
M  V30 48896 H 4471.46 -4.25289 0.0299637 0
M  V30 48897 N 4469.77 -0.330231 -1.54101 0
M  V30 48898 C 4471.02 0.270735 -2.00985 0
M  V30 48899 C 4471.35 1.51261 -1.21794 0
M  V30 48900 O 4470.63 1.92141 -0.301995 0
M  V30 48901 C 4470.91 0.598214 -3.55096 0
M  V30 48902 C 4470.76 -0.65483 -4.45008 0
M  V30 48903 C 4472.08 1.41319 -4.16794 0
M  V30 48904 H 4469.2 0.0969274 -0.730598 0
M  V30 48905 H 4471.84 -0.448131 -1.8464 0
M  V30 48906 H 4469.99 1.21065 -3.69155 0
M  V30 48907 H 4471.67 -1.293 -4.42808 0
M  V30 48908 H 4469.91 -1.28239 -4.14412 0
M  V30 48909 H 4470.58 -0.381138 -5.50683 0
M  V30 48910 H 4473.06 0.895454 -4.06351 0
M  V30 48911 H 4471.93 1.61109 -5.24724 0
M  V30 48912 H 4472.19 2.41133 -3.7055 0
M  V30 48913 N 4471.25 1.57491 -0.0585476 0
M  V30 48914 C 4472.18 2.14991 0.911102 0
M  V30 48915 C 4473.16 1.07348 1.31949 0
M  V30 48916 O 4474.35 1.35322 1.39289 0
M  V30 48917 C 4471.48 2.70086 2.18337 0
M  V30 48918 C 4470.43 3.82778 1.91482 0
M  V30 48919 C 4469.76 4.2442 3.25226 0
M  V30 48920 C 4471.06 5.07597 1.23057 0
M  V30 48921 H 4472.75 2.96265 0.432142 0
M  V30 48922 H 4470.3 1.42513 0.206419 0
M  V30 48923 H 4472.25 3.08953 2.86577 0
M  V30 48924 H 4470.98 1.86014 2.68452 0
M  V30 48925 H 4469.63 3.44394 1.25652 0
M  V30 48926 H 4469.28 3.37288 3.73156 0
M  V30 48927 H 4468.98 5.00377 3.08053 0
M  V30 48928 H 4470.51 4.65893 3.94685 0
M  V30 48929 H 4471.92 5.43864 1.81343 0
M  V30 48930 H 4470.32 5.88745 1.16186 0
M  V30 48931 H 4471.39 4.84455 0.207677 0
M  V30 48932 N 4472.73 -0.214903 1.56128 0
M  V30 48933 C 4473.96 -0.959175 1.83887 0
M  V30 48934 C 4474.38 -1.76888 0.639706 0
M  V30 48935 O 4473.74 -1.76567 -0.411539 0
M  V30 48936 C 4473.79 -1.84712 3.097 0
M  V30 48937 O 4472.89 -2.94335 2.88861 0
M  V30 48938 H 4472.23 -0.271229 0.606078 0
M  V30 48939 H 4474.76 -0.226204 2.03346 0
M  V30 48940 H 4474.77 -2.25565 3.39977 0
M  V30 48941 H 4473.45 -1.25204 3.96607 0
M  V30 48942 H 4472.02 -2.57381 2.69832 0
M  V30 48943 N 4474.21 -1.50053 -0.481867 0
M  V30 48944 C 4475.45 -1.6074 -1.23655 0
M  V30 48945 C 4475.79 -0.301853 -1.9184 0
M  V30 48946 O 4475.06 0.695961 -1.81622 0
M  V30 48947 C 4475.35 -2.78017 -2.28864 0
M  V30 48948 C 4475.2 -4.18422 -1.65055 0
M  V30 48949 C 4476.52 -2.90878 -3.30269 0
M  V30 48950 H 4473.64 -0.585046 -0.448207 0
M  V30 48951 H 4476.28 -1.82403 -0.531882 0
M  V30 48952 H 4474.43 -2.59677 -2.88964 0
M  V30 48953 H 4476.1 -4.48326 -1.08634 0
M  V30 48954 H 4474.34 -4.2318 -0.954 0
M  V30 48955 H 4475.01 -4.9639 -2.41457 0
M  V30 48956 H 4477.49 -3.07633 -2.80181 0
M  V30 48957 H 4476.37 -3.7458 -4.01225 0
M  V30 48958 H 4476.63 -2.01035 -3.93748 0
M  V30 48959 N 4475.69 0.734288 -1.39449 0
M  V30 48960 C 4476.93 1.49091 -1.36441 0
M  V30 48961 C 4477.26 1.94961 0.0387569 0
M  V30 48962 O 4476.53 1.69036 0.990131 0
M  V30 48963 H 4475.11 0.553083 -0.502104 0
M  V30 48964 H 4477.77 0.871664 -1.74322 0
M  V30 48965 H 4476.86 2.37269 -2.02756 0
M  V30 48966 N 4477.16 1.24636 0.964549 0
M  V30 48967 C 4478.41 1.08579 1.70455 0
M  V30 48968 C 4478.73 -0.375588 1.91349 0
M  V30 48969 O 4478 -1.26774 1.49349 0
M  V30 48970 H 4476.58 0.398806 0.631635 0
M  V30 48971 H 4479.25 1.56605 1.1602 0
M  V30 48972 H 4478.34 1.58632 2.68779 0
M  V30 48973 N 4478.64 -1.1657 1.06062 0
M  V30 48974 C 4479.57 -2.20448 0.627316 0
M  V30 48975 C 4480.59 -1.59753 -0.313478 0
M  V30 48976 O 4481.78 -1.78192 -0.104833 0
M  V30 48977 C 4478.88 -3.3875 -0.100855 0
M  V30 48978 C 4478.05 -4.29005 0.852838 0
M  V30 48979 C 4477.11 -5.25943 0.164337 0
M  V30 48980 O 4476.13 -5.63532 0.801245 0
M  V30 48981 N 4477.34 -5.70079 -1.09498 0
M  V30 48982 H 4480.1 -2.58244 1.52086 0
M  V30 48983 H 4477.66 -1.31556 0.94364 0
M  V30 48984 H 4479.65 -4.0064 -0.571799 0
M  V30 48985 H 4478.22 -2.99479 -0.896175 0
M  V30 48986 H 4477.44 -3.64414 1.50321 0
M  V30 48987 H 4478.73 -4.8619 1.49989 0
M  V30 48988 H 4478.13 -5.41629 -1.63261 0
M  V30 48989 H 4476.69 -6.34072 -1.50983 0
M  V30 48990 N 4480.12 -0.842873 -1.33167 0
M  V30 48991 C 4481.37 -0.441169 -1.97943 0
M  V30 48992 C 4481.7 0.997965 -1.66596 0
M  V30 48993 O 4480.98 1.69835 -0.947957 0
M  V30 48994 C 4481.26 -0.666965 -3.53869 0
M  V30 48995 C 4481.11 -2.15366 -3.94889 0
M  V30 48996 C 4482.43 -0.115699 -4.39948 0
M  V30 48997 H 4479.55 -0.161765 -0.719028 0
M  V30 48998 H 4482.19 -1.05913 -1.57742 0
M  V30 48999 H 4480.34 -0.140965 -3.88244 0
M  V30 49000 H 4482.01 -2.74483 -3.70751 0
M  V30 49001 H 4480.26 -2.63665 -3.44475 0
M  V30 49002 H 4480.93 -2.26239 -5.03508 0
M  V30 49003 H 4483.4 -0.565358 -4.12241 0
M  V30 49004 H 4482.28 -0.303345 -5.48061 0
M  V30 49005 H 4482.54 0.980783 -4.31084 0
M  V30 49006 N 4481.6 1.45745 -0.599685 0
M  V30 49007 C 4482.55 2.322 0.136345 0
M  V30 49008 C 4483.54 1.455 0.867531 0
M  V30 49009 O 4484.75 1.62029 0.783994 0
M  V30 49010 H 4481.12 0.74937 0.0628325 0
M  V30 49011 H 4483.09 2.9207 -0.611384 0
M  V30 49012 C 4481.84 3.28978 1.12555 0
M  V30 49013 H 4481.17 3.95682 0.572345 0
M  V30 49014 H 4482.61 3.92218 1.61063 0
M  V30 49015 C 4481.06 2.55569 2.19514 0
M  V30 49016 O 4481.59 2.33122 3.27134 0
M  V30 49017 N 4479.8 2.15839 1.94582 0
M  V30 49018 H 4479.35 2.34294 1.0707 0
M  V30 49019 H 4479.31 1.67044 2.66353 0
M  V30 49020 N 4483.08 0.338398 1.53924 0
M  V30 49021 C 4484.01 -0.5132 2.2779 0
M  V30 49022 C 4484.99 -1.10696 1.29153 0
M  V30 49023 O 4486.17 -1.12931 1.57988 0
M  V30 49024 C 4483.3 -1.66686 3.04685 0
M  V30 49025 C 4482.26 -1.20169 4.10784 0
M  V30 49026 C 4481.58 -2.44346 4.75604 0
M  V30 49027 C 4482.88 -0.305867 5.21404 0
M  V30 49028 H 4484.58 0.102988 2.99223 0
M  V30 49029 H 4482.12 0.0509725 1.4391 0
M  V30 49030 H 4484.08 -2.26902 3.55096 0
M  V30 49031 H 4482.8 -2.30987 2.30896 0
M  V30 49032 H 4481.46 -0.622372 3.61278 0
M  V30 49033 H 4481.11 -3.07043 3.98414 0
M  V30 49034 H 4480.81 -2.13906 5.47282 0
M  V30 49035 H 4482.33 -3.05298 5.28796 0
M  V30 49036 H 4483.75 -0.81473 5.67481 0
M  V30 49037 H 4482.14 -0.093582 6.00027 0
M  V30 49038 H 4483.21 0.659378 4.80396 0
M  V30 49039 N 4484.56 -1.57458 0.0668989 0
M  V30 49040 C 4485.49 -2.15471 -0.899688 0
M  V30 49041 C 4486.47 -1.08046 -1.31377 0
M  V30 49042 O 4487.65 -1.36059 -1.3857 0
M  V30 49043 C 4484.78 -2.7124 -2.16902 0
M  V30 49044 C 4483.74 -3.83788 -1.89449 0
M  V30 49045 C 4483.06 -4.26138 -3.22971 0
M  V30 49046 C 4484.36 -5.08242 -1.20363 0
M  V30 49047 H 4486.06 -2.9649 -0.416424 0
M  V30 49048 H 4483.6 -1.4262 -0.198858 0
M  V30 49049 H 4485.55 -3.10468 -2.84934 0
M  V30 49050 H 4484.28 -1.87435 -2.67462 0
M  V30 49051 H 4482.94 -3.45055 -1.23824 0
M  V30 49052 H 4482.59 -3.39263 -3.71362 0
M  V30 49053 H 4482.29 -5.02003 -3.05395 0
M  V30 49054 H 4483.81 -4.67979 -3.92209 0
M  V30 49055 H 4485.22 -5.44818 -1.78456 0
M  V30 49056 H 4483.62 -5.89353 -1.13062 0
M  V30 49057 H 4484.69 -4.84558 -0.181982 0
M  V30 49058 N 4486.03 0.20662 -1.5624 0
M  V30 49059 C 4487.28 0.926901 -1.79141 0
M  V30 49060 C 4487.6 1.84899 -0.638108 0
M  V30 49061 O 4488.8 2.60903 -0.751125 0
M  V30 49062 C 4487.26 1.69849 -3.173 0
M  V30 49063 C 4486.87 0.821801 -4.40398 0
M  V30 49064 C 4488.61 2.40909 -3.49518 0
M  V30 49065 C 4486.52 1.59159 -5.69581 0
M  V30 49066 H 4485.45 0.349841 -0.667928 0
M  V30 49067 H 4488.1 0.180423 -1.82611 0
M  V30 49068 H 4486.48 2.48843 -3.08048 0
M  V30 49069 H 4487.65 0.0713399 -4.60745 0
M  V30 49070 H 4485.97 0.222594 -4.15805 0
M  V30 49071 H 4488.57 2.99032 -4.43265 0
M  V30 49072 H 4488.91 3.14532 -2.72718 0
M  V30 49073 H 4489.44 1.68892 -3.60167 0
M  V30 49074 H 4486.18 0.898361 -6.49315 0
M  V30 49075 H 4485.7 2.31628 -5.53271 0
M  V30 49076 H 4487.38 2.1484 -6.10289 0
M  V30 49077 N 4487.51 1.50306 0.473902 0
M  V30 49078 C 4488.44 1.65114 1.58965 0
M  V30 49079 C 4489.46 0.53273 1.53837 0
M  V30 49080 O 4490.65 0.805807 1.59276 0
M  V30 49081 C 4487.75 1.61695 2.97839 0
M  V30 49082 C 4486.92 2.89521 3.27866 0
M  V30 49083 C 4485.98 2.78783 4.46281 0
M  V30 49084 O 4485 3.52738 4.46727 0
M  V30 49085 N 4486.21 1.92149 5.47776 0
M  V30 49086 H 4488.97 2.61353 1.4668 0
M  V30 49087 H 4486.53 1.47735 0.662272 0
M  V30 49088 H 4488.52 1.52128 3.75019 0
M  V30 49089 H 4487.09 0.732032 3.03908 0
M  V30 49090 H 4486.31 3.13237 2.39325 0
M  V30 49091 H 4487.6 3.74211 3.44737 0
M  V30 49092 H 4487 1.31373 5.50234 0
M  V30 49093 H 4485.56 1.88488 6.23952 0
M  V30 49094 N 4488.99 -0.726883 1.39836 0
M  V30 49095 C 4489.92 -1.85142 1.35111 0
M  V30 49096 C 4490.93 -1.60735 0.258448 0
M  V30 49097 O 4492.12 -1.70819 0.517991 0
M  V30 49098 C 4489.22 -3.21329 1.07708 0
M  V30 49099 C 4488.4 -3.73025 2.2841 0
M  V30 49100 C 4487.46 -4.87795 1.9734 0
M  V30 49101 O 4486.48 -5.01033 2.70101 0
M  V30 49102 N 4487.68 -5.72765 0.944474 0
M  V30 49103 H 4490.45 -1.89698 2.32023 0
M  V30 49104 H 4488.01 -0.907959 1.34044 0
M  V30 49105 H 4490 -3.95688 0.849283 0
M  V30 49106 H 4488.57 -3.11991 0.195019 0
M  V30 49107 H 4487.79 -2.89925 2.6709 0
M  V30 49108 H 4489.08 -4.04299 3.08901 0
M  V30 49109 H 4488.48 -5.64668 0.341625 0
M  V30 49110 H 4487.03 -6.47157 0.776574 0
M  V30 49111 N 4490.47 -1.25146 -0.957926 0
M  V30 49112 C 4491.43 -1.05328 -2.03565 0
M  V30 49113 C 4492.43 -0.00720853 -1.60798 0
M  V30 49114 O 4493.62 -0.249091 -1.7241 0
M  V30 49115 C 4490.75 -0.598512 -3.35605 0
M  V30 49116 H 4491.95 -2.00994 -2.22579 0
M  V30 49117 H 4489.5 -1.07506 -1.13455 0
M  V30 49118 H 4490.23 0.360901 -3.22286 0
M  V30 49119 H 4490.02 -1.35364 -3.67993 0
M  V30 49120 H 4491.51 -0.481186 -4.14818 0
M  V30 49121 N 4491.95 1.16006 -1.06679 0
M  V30 49122 C 4493.19 1.85971 -0.780883 0
M  V30 49123 C 4493.51 1.82822 0.69538 0
M  V30 49124 O 4494.71 2.48404 1.09581 0
M  V30 49125 C 4493.17 3.33752 -1.34676 0
M  V30 49126 C 4492.78 3.45364 -2.85355 0
M  V30 49127 C 4494.52 4.08946 -1.13857 0
M  V30 49128 C 4492.43 4.87254 -3.35168 0
M  V30 49129 H 4491.36 0.696651 -0.288432 0
M  V30 49130 H 4494.01 1.30898 -1.286 0
M  V30 49131 H 4492.39 3.88453 -0.76941 0
M  V30 49132 H 4493.57 3.00804 -3.49075 0
M  V30 49133 H 4491.88 2.83608 -3.04886 0
M  V30 49134 H 4494.48 5.13648 -1.48558 0
M  V30 49135 H 4494.82 4.16228 -0.0771745 0
M  V30 49136 H 4495.35 3.60494 -1.68192 0
M  V30 49137 H 4492.09 4.85152 -4.40803 0
M  V30 49138 H 4491.61 5.32424 -2.76198 0
M  V30 49139 H 4493.29 5.56085 -3.30724 0
M  V30 49140 N 4493.42 0.849923 1.32718 0
M  V30 49141 C 4494.7 0.372472 1.92021 0
M  V30 49142 C 4495.08 -1.14343 1.77451 0
M  V30 49143 O 4494.43 -1.96292 1.16969 0
M  V30 49144 C 4494.64 0.831601 3.38947 0
M  V30 49145 C 4495.99 0.846028 4.16086 0
M  V30 49146 O 4497.01 0.775928 3.47646 0
M  V30 49147 O 4495.87 0.943942 5.38286 0
M  V30 49148 H 4492.96 0.107696 0.819958 0
M  V30 49149 H 4495.51 0.93651 1.41519 0
M  V30 49150 H 4494.28 1.8746 3.43474 0
M  V30 49151 H 4493.9 0.244749 3.96846 0
M  V30 49152 N 4494.9 -1.45425 0.607406 0
M  V30 49153 C 4496.31 -1.85755 0.1876 0
M  V30 49154 C 4496.66 -1.50774 -1.25545 0
M  V30 49155 O 4495.79 -0.934339 -1.9519 0
M  V30 49156 C 4496.38 -3.37153 0.333691 0
M  V30 49157 C 4494.94 -3.76387 -0.0314218 0
M  V30 49158 C 4494.09 -2.69375 0.658212 0
M  V30 49159 H 4497.04 -1.36228 0.814098 0
M  V30 49160 H 4497.06 -3.78015 -0.434147 0
M  V30 49161 H 4496.57 -3.62582 1.38406 0
M  V30 49162 H 4494.68 -3.56575 -1.08097 0
M  V30 49163 H 4494.79 -4.7773 0.362103 0
M  V30 49164 H 4493.15 -2.54519 0.0958768 0
M  V30 49165 H 4493.94 -2.9764 1.71071 0
M  V30 49166 N 4496.38 -0.346557 -1.53742 0
M  V30 49167 C 4497.33 0.508835 -2.25121 0
M  V30 49168 C 4498.3 1.0931 -1.25062 0
M  V30 49169 O 4499.48 1.12916 -1.53801 0
M  V30 49170 C 4496.62 1.65235 -3.02971 0
M  V30 49171 C 4495.74 1.0951 -4.17889 0
M  V30 49172 C 4494.87 2.20617 -4.8322 0
M  V30 49173 C 4493.91 1.62258 -5.90202 0
M  V30 49174 N 4493.05 2.6712 -6.49301 0
M  V30 49175 H 4497.89 -0.106388 -2.9781 0
M  V30 49176 H 4495.42 -0.0642744 -1.4696 0
M  V30 49177 H 4497.38 2.32561 -3.46368 0
M  V30 49178 H 4496.01 2.23852 -2.32573 0
M  V30 49179 H 4495.06 0.312685 -3.79113 0
M  V30 49180 H 4496.38 0.62827 -4.94827 0
M  V30 49181 H 4495.53 2.95802 -5.29704 0
M  V30 49182 H 4494.27 2.70645 -4.05713 0
M  V30 49183 H 4493.27 0.855798 -5.43099 0
M  V30 49184 H 4494.5 1.13079 -6.69619 0
M  V30 49185 H 4492.44 3.16396 -5.74656 0
M  V30 49186 H 4492.36 2.25068 -7.2172 0
M  V30 49187 H 4493.63 3.42065 -7.00437 0
M  V30 49188 N 4497.86 1.5742 -0.0752483 0
M  V30 49189 C 4498.81 2.14127 0.908433 0
M  V30 49190 C 4499.8 1.07903 1.30589 0
M  V30 49191 O 4501.01 1.26278 1.28273 0
M  V30 49192 H 4497.38 0.684718 0.310911 0
M  V30 49193 H 4499.35 2.95635 0.40527 0
M  V30 49194 C 4498.1 2.72051 2.16526 0
M  V30 49195 H 4497.42 3.53463 1.86827 0
M  V30 49196 H 4498.86 3.15321 2.83458 0
M  V30 49197 C 4497.32 1.66978 2.92609 0
M  V30 49198 O 4497.85 1.09684 3.86435 0
M  V30 49199 N 4496.06 1.37932 2.55779 0
M  V30 49200 H 4495.61 1.84712 1.79553 0
M  V30 49201 H 4495.56 0.678628 3.06989 0
M  V30 49202 N 4499.34 -0.198331 1.56347 0
M  V30 49203 C 4500.27 -1.24858 1.97314 0
M  V30 49204 C 4501.25 -1.47648 0.844628 0
M  V30 49205 O 4502.43 -1.5944 1.10871 0
M  V30 49206 C 4499.56 -2.5935 2.30987 0
M  V30 49207 C 4498.52 -2.51177 3.46546 0
M  V30 49208 C 4497.84 -3.89913 3.65885 0
M  V30 49209 C 4499.14 -2.0396 4.8083 0
M  V30 49210 H 4500.84 -0.908152 2.85295 0
M  V30 49211 H 4498.38 -0.435414 1.37259 0
M  V30 49212 H 4500.34 -3.33002 2.5824 0
M  V30 49213 H 4499.06 -2.95127 1.39885 0
M  V30 49214 H 4497.72 -1.79982 3.19378 0
M  V30 49215 H 4497.37 -4.23037 2.72119 0
M  V30 49216 H 4497.07 -3.8532 4.43624 0
M  V30 49217 H 4498.59 -4.65191 3.95511 0
M  V30 49218 H 4500 -2.67368 5.07136 0
M  V30 49219 H 4498.4 -2.10377 5.62016 0
M  V30 49220 H 4499.47 -0.992694 4.7463 0
M  V30 49221 N 4500.81 -1.50555 -0.465925 0
M  V30 49222 C 4502.04 -1.65843 -1.24543 0
M  V30 49223 C 4502.46 -0.343551 -1.84936 0
M  V30 49224 O 4501.82 0.693181 -1.67525 0
M  V30 49225 C 4501.87 -2.75541 -2.32614 0
M  V30 49226 O 4500.97 -2.37153 -3.3739 0
M  V30 49227 H 4500.32 -0.553906 -0.366175 0
M  V30 49228 H 4502.85 -1.96961 -0.553857 0
M  V30 49229 H 4502.86 -2.98773 -2.77847 0
M  V30 49230 H 4501.53 -3.70968 -1.8803 0
M  V30 49231 H 4500.11 -2.24388 -2.97833 0
M  V30 49232 N 4502.29 0.719457 -1.4022 0
M  V30 49233 C 4503.71 1.02703 -1.22165 0
M  V30 49234 C 4503.91 2.0128 -0.0941264 0
M  V30 49235 O 4502.96 2.46454 0.549231 0
M  V30 49236 C 4504.28 1.57445 -2.56186 0
M  V30 49237 C 4505.83 1.69449 -2.63165 0
M  V30 49238 C 4506.3 2.27598 -3.97446 0
M  V30 49239 N 4507.79 2.34988 -3.99167 0
M  V30 49240 C 4508.53 2.80954 -4.99852 0
M  V30 49241 N 4508.02 3.26701 -6.10932 0
M  V30 49242 N 4509.82 2.80304 -4.87223 0
M  V30 49243 H 4501.97 0.0659745 -2.12298 0
M  V30 49244 H 4504.23 0.0918746 -0.943538 0
M  V30 49245 H 4503.94 0.924754 -3.39325 0
M  V30 49246 H 4503.81 2.56027 -2.77002 0
M  V30 49247 H 4506.2 2.33537 -1.80401 0
M  V30 49248 H 4506.28 0.694781 -2.46184 0
M  V30 49249 H 4505.92 1.64133 -4.80648 0
M  V30 49250 H 4505.85 3.28275 -4.11756 0
M  V30 49251 H 4508.34 2.02674 -3.18954 0
M  V30 49252 H 4508.66 3.60331 -6.83653 0
M  V30 49253 H 4507 3.2467 -6.14503 0
M  V30 49254 H 4510.19 2.43898 -3.99539 0
M  V30 49255 H 4510.36 3.15811 -5.65834 0
M  V30 49256 N 4503.77 1.25652 0.951275 0
M  V30 49257 C 4504.7 1.08815 2.06595 0
M  V30 49258 C 4505.68 -0.00376567 1.701 0
M  V30 49259 O 4506.87 0.166393 1.93486 0
M  V30 49260 C 4504 0.709662 3.39972 0
M  V30 49261 C 4502.95 1.75219 3.9049 0
M  V30 49262 C 4502.28 1.22829 5.20401 0
M  V30 49263 C 4503.58 3.15168 4.16493 0
M  V30 49264 H 4505.27 2.02056 2.20939 0
M  V30 49265 H 4502.82 0.972872 1.06166 0
M  V30 49266 H 4504.77 0.578796 4.17406 0
M  V30 49267 H 4503.49 -0.258442 3.25576 0
M  V30 49268 H 4502.15 1.87156 3.15227 0
M  V30 49269 H 4501.8 0.250321 5.02377 0
M  V30 49270 H 4501.5 1.92511 5.5517 0
M  V30 49271 H 4503.02 1.10989 6.00428 0
M  V30 49272 H 4504.44 3.06366 4.84575 0
M  V30 49273 H 4502.84 3.8235 4.62524 0
M  V30 49274 H 4503.91 3.61978 3.22645 0
M  V30 49275 N 4505.25 -1.15438 1.07293 0
M  V30 49276 C 4506.5 -1.8621 0.795733 0
M  V30 49277 C 4506.82 -1.82294 -0.678174 0
M  V30 49278 O 4506.08 -1.24062 -1.51351 0
M  V30 49279 C 4506.38 -3.34885 1.24846 0
M  V30 49280 C 4506.04 -3.58997 2.72822 0
M  V30 49281 C 4504.71 -3.65287 3.1324 0
M  V30 49282 C 4507.06 -3.68749 3.68339 0
M  V30 49283 C 4504.39 -3.78839 4.47994 0
M  V30 49284 C 4506.74 -3.83824 5.02854 0
M  V30 49285 C 4505.4 -3.88359 5.42894 0
M  V30 49286 H 4504.67 -0.681392 0.291179 0
M  V30 49287 H 4507.32 -1.3643 1.34384 0
M  V30 49288 H 4505.62 -3.86868 0.619731 0
M  V30 49289 H 4507.32 -3.88049 1.01089 0
M  V30 49290 H 4503.91 -3.54742 2.40533 0
M  V30 49291 H 4508.09 -3.6319 3.3824 0
M  V30 49292 H 4503.35 -3.80606 4.78486 0
M  V30 49293 H 4507.52 -3.90312 5.76741 0
M  V30 49294 H 4505.15 -3.98612 6.47312 0
M  V30 49295 N 4506.73 -0.85695 -1.32265 0
M  V30 49296 C 4508.14 -0.515775 -1.79434 0
M  V30 49297 C 4508.49 0.966526 -1.70742 0
M  V30 49298 O 4507.61 1.75404 -1.26737 0
M  V30 49299 C 4508.21 -0.929449 -3.25802 0
M  V30 49300 C 4506.77 -0.640137 -3.70917 0
M  V30 49301 C 4505.91 -1.12793 -2.53324 0
M  V30 49302 H 4508.87 -1.04393 -1.19531 0
M  V30 49303 H 4508.89 -0.246767 -3.79699 0
M  V30 49304 H 4508.4 -2.00832 -3.32096 0
M  V30 49305 H 4506.5 0.427921 -3.70135 0
M  V30 49306 H 4506.61 -1.20804 -4.6362 0
M  V30 49307 H 4504.98 -0.54812 -2.48732 0
M  V30 49308 H 4505.76 -2.21396 -2.62371 0
M  V30 49309 N 4508.2 1.45101 -0.61511 0
M  V30 49310 C 4509.45 2.01784 -0.113026 0
M  V30 49311 C 4509.77 1.48509 1.26373 0
M  V30 49312 O 4509.04 0.68231 1.83634 0
M  V30 49313 H 4507.62 0.745992 -0.0387931 0
M  V30 49314 H 4510.29 1.77805 -0.798203 0
M  V30 49315 H 4509.38 3.12025 -0.0685166 0
M  V30 49316 N 4509.68 0.354705 1.53557 0
M  V30 49317 C 4510.93 -0.231351 2.0208 0
M  V30 49318 C 4511.28 -1.47303 1.23772 0
M  V30 49319 O 4510.58 -1.88909 0.320013 0
M  V30 49320 C 4510.77 -0.586997 3.52547 0
M  V30 49321 C 4510.6 0.618669 4.45424 0
M  V30 49322 C 4509.37 1.12741 4.92562 0
M  V30 49323 C 4511.57 1.48056 4.92528 0
M  V30 49324 N 4509.55 2.29424 5.69419 0
M  V30 49325 C 4510.92 2.49417 5.67619 0
M  V30 49326 C 4512.98 1.50471 4.74619 0
M  V30 49327 C 4511.68 3.53035 6.26705 0
M  V30 49328 C 4513.71 2.52976 5.34562 0
M  V30 49329 C 4513.07 3.53061 6.0953 0
M  V30 49330 H 4509.17 -0.0476634 0.780546 0
M  V30 49331 H 4511.75 0.496793 1.88255 0
M  V30 49332 H 4509.92 -1.28423 3.66554 0
M  V30 49333 H 4511.65 -1.1572 3.87803 0
M  V30 49334 H 4508.41 0.693741 4.68491 0
M  V30 49335 H 4508.83 2.88368 6.12514 0
M  V30 49336 H 4513.47 0.744502 4.16193 0
M  V30 49337 H 4511.19 4.29944 6.84232 0
M  V30 49338 H 4514.78 2.55685 5.22605 0
M  V30 49339 H 4513.66 4.31079 6.55088 0
M  V30 49340 N 4511.16 -1.57378 0.0835957 0
M  V30 49341 C 4512.11 -2.13387 -0.879464 0
M  V30 49342 C 4513.08 -1.04941 -1.2875 0
M  V30 49343 O 4514.26 -1.32667 -1.37128 0
M  V30 49344 C 4511.4 -2.70939 -2.13742 0
M  V30 49345 C 4510.52 -3.93581 -1.78096 0
M  V30 49346 C 4509.65 -4.39336 -2.98592 0
M  V30 49347 C 4508.69 -5.54596 -2.59017 0
M  V30 49348 N 4507.83 -5.95256 -3.7231 0
M  V30 49349 H 4512.67 -2.95371 -0.394972 0
M  V30 49350 H 4510.2 -1.45954 -0.183298 0
M  V30 49351 H 4512.16 -3.02421 -2.87398 0
M  V30 49352 H 4510.79 -1.91702 -2.59712 0
M  V30 49353 H 4509.84 -3.68486 -0.94456 0
M  V30 49354 H 4511.16 -4.77263 -1.44989 0
M  V30 49355 H 4510.31 -4.72541 -3.80512 0
M  V30 49356 H 4509.05 -3.54532 -3.34901 0
M  V30 49357 H 4508.05 -5.2103 -1.75521 0
M  V30 49358 H 4509.28 -6.41141 -2.23865 0
M  V30 49359 H 4507.23 -5.13399 -4.0836 0
M  V30 49360 H 4507.14 -6.73706 -3.4301 0
M  V30 49361 H 4508.41 -6.33088 -4.54775 0
M  V30 49362 N 4512.64 0.190037 -1.5645 0
M  V30 49363 C 4513.6 1.21918 -1.94084 0
M  V30 49364 C 4514.6 1.38173 -0.82248 0
M  V30 49365 O 4515.79 1.35899 -1.08982 0
M  V30 49366 C 4512.92 2.58765 -2.21931 0
M  V30 49367 H 4514.12 0.897363 -2.8616 0
M  V30 49368 H 4511.67 0.431757 -1.50218 0
M  V30 49369 H 4512.41 2.95993 -1.32509 0
M  V30 49370 H 4512.19 2.48337 -3.03432 0
M  V30 49371 H 4513.68 3.32969 -2.52034 0
M  V30 49372 N 4514.12 1.508 0.457934 0
M  V30 49373 C 4515.36 1.63653 1.20786 0
M  V30 49374 C 4515.72 0.338729 1.89395 0
M  V30 49375 O 4515.01 -0.664228 1.79718 0
M  V30 49376 C 4515.21 2.76365 2.26621 0
M  V30 49377 C 4515.03 4.1698 1.68397 0
M  V30 49378 C 4513.8 4.83204 1.4779 0
M  V30 49379 C 4516 5.00778 1.17158 0
M  V30 49380 N 4513.98 6.07994 0.849478 0
M  V30 49381 C 4515.36 6.164 0.667187 0
M  V30 49382 C 4517.41 4.86456 1.06138 0
M  V30 49383 C 4516.11 7.19272 0.0634379 0
M  V30 49384 C 4518.14 5.89517 0.471551 0
M  V30 49385 C 4517.5 7.04396 -0.0224033 0
M  V30 49386 H 4513.6 0.652903 0.430397 0
M  V30 49387 H 4516.18 1.87964 0.507719 0
M  V30 49388 H 4514.36 2.53754 2.94047 0
M  V30 49389 H 4516.09 2.78506 2.93626 0
M  V30 49390 H 4512.84 4.4072 1.73387 0
M  V30 49391 H 4513.27 6.74735 0.5533 0
M  V30 49392 H 4517.91 3.97913 1.42918 0
M  V30 49393 H 4515.63 8.0748 -0.316537 0
M  V30 49394 H 4519.21 5.80502 0.388467 0
M  V30 49395 H 4518.09 7.8278 -0.471651 0
M  V30 49396 N 4515.6 -0.71201 1.40599 0
M  V30 49397 C 4516.84 -1.47411 1.39277 0
M  V30 49398 C 4517.17 -1.942 -0.00381964 0
M  V30 49399 O 4516.45 -1.68406 -0.97312 0
M  V30 49400 C 4516.73 -2.69765 2.38534 0
M  V30 49401 C 4516.59 -2.28848 3.87232 0
M  V30 49402 C 4517.9 -3.71931 2.35277 0
M  V30 49403 H 4515.02 -0.534695 0.507218 0
M  V30 49404 H 4517.67 -0.812315 1.7176 0
M  V30 49405 H 4515.82 -3.2623 2.10964 0
M  V30 49406 H 4517.49 -1.77837 4.25643 0
M  V30 49407 H 4515.73 -1.6081 4.02893 0
M  V30 49408 H 4516.4 -3.16568 4.52204 0
M  V30 49409 H 4518.88 -3.25103 2.59706 0
M  V30 49410 H 4517.75 -4.55175 3.06769 0
M  V30 49411 H 4518.01 -4.20479 1.36563 0
M  V30 49412 O 4517.11 -1.37091 -0.853711 0
M  V30 49413 H 4517.8 -1.23272 -1.49411 0
M  V30 END ATOM
M  V30 BEGIN BOND
M  V30 END BOND
M  V30 END CTAB
M  END
$$$$
