drugbank_target|Q13332 Receptor-type tyrosine-protein phosphatase S (DB00630; DB01077)
 OpenBabel12092120343D

  0  0  0     0  0            999 V3000
M  V30 BEGIN CTAB
M  V30 COUNTS 30372 30759 0 0 0
M  V30 BEGIN ATOM
M  V30 1 H -0.908 1.98254 -0.117106 0
M  V30 2 N 0 1.576 0 0
M  V30 3 C 0.933 2.03868 1.02534 0
M  V30 4 C 1.911 0.928543 1.3348 0
M  V30 5 O 3.095 1.19667 1.45644 0
M  V30 6 C 0.222 2.43627 2.35294 0
M  V30 7 C -0.732 3.65373 2.2001 0
M  V30 8 S 0.101 5.13292 1.52614 0
M  V30 9 C 1.257 5.56322 2.86805 0
M  V30 10 H 1.49 2.90518 0.631377 0
M  V30 11 H -0.977 1.52953 0.210867 0
M  V30 12 H 0.981 2.67203 3.11629 0
M  V30 13 H -0.358 1.57376 2.7183 0
M  V30 14 H -1.165 3.90944 3.18086 0
M  V30 15 H -1.563 3.418 1.51819 0
M  V30 16 H 0.729 5.58782 3.83104 0
M  V30 17 H 1.672 6.56266 2.65933 0
M  V30 18 H 2.08 4.83886 2.90714 0
M  V30 19 N 1.4781 -0.272755 1.55222 0
M  V30 20 C 2.4411 -1.32041 1.87344 0
M  V30 21 C 3.4411 -1.42342 0.74803 0
M  V30 22 O 4.6311 -1.41488 1.0162 0
M  V30 23 C 1.7631 -2.70173 2.07893 0
M  V30 24 H 2.9561 -1.04789 2.80997 0
M  V30 25 H 0.5091 -0.51083 1.47717 0
M  V30 26 H 1.2441 -3.02605 1.16622 0
M  V30 27 H 1.0291 -2.64082 2.89833 0
M  V30 28 H 2.5191 -3.45869 2.34017 0
M  V30 29 N 2.9562 -1.48159 -0.537278 0
M  V30 30 C 4.3672 -1.49429 -1.11928 0
M  V30 31 C 4.7182 -0.26 -1.9447 0
M  V30 32 O 3.8432 0.633489 -2.0692 0
M  V30 33 C 4.4382 -2.70758 -2.03656 0
M  V30 34 C 2.9972 -2.74923 -2.57088 0
M  V30 35 C 2.1442 -2.42835 -1.3389 0
M  V30 36 H 5.0952 -1.55381 -0.322886 0
M  V30 37 H 5.1162 -2.48861 -2.87834 0
M  V30 38 H 4.6282 -3.60575 -1.43553 0
M  V30 39 H 2.7292 -1.89296 -3.20933 0
M  V30 40 H 2.8422 -3.76157 -2.9672 0
M  V30 41 H 1.2062 -1.93836 -1.65226 0
M  V30 42 H 1.9892 -3.34884 -0.755504 0
M  V30 43 N 4.4343 0.785586 -1.36625 0
M  V30 44 C 5.6623 1.57448 -1.3423 0
M  V30 45 C 6.0773 1.88649 0.0755653 0
M  V30 46 O 5.4343 1.50414 1.03354 0
M  V30 47 C 5.4853 2.89316 -2.16745 0
M  V30 48 O 5.2063 2.59459 -3.53005 0
M  V30 49 C 6.7073 3.83606 -2.22174 0
M  V30 50 H 3.9273 0.488226 -0.4603 0
M  V30 51 H 6.4713 0.974733 -1.79775 0
M  V30 52 H 4.6263 3.4575 -1.74745 0
M  V30 53 H 5.0403 3.43804 -3.96105 0
M  V30 54 H 6.5143 4.73181 -2.8426 0
M  V30 55 H 6.9913 4.21734 -1.22627 0
M  V30 56 H 7.5973 3.33104 -2.64427 0
M  V30 57 N 5.9124 1.20967 1.01018 0
M  V30 58 C 7.1584 1.0353 1.7508 0
M  V30 59 C 7.5134 -0.42734 1.87594 0
M  V30 60 O 6.8064 -1.31298 1.3954 0
M  V30 61 C 7.0004 1.65997 3.16512 0
M  V30 62 C 6.8294 3.18184 3.17788 0
M  V30 63 C 5.5994 3.87198 3.24662 0
M  V30 64 C 7.7974 4.15334 3.03319 0
M  V30 65 N 5.7794 5.26618 3.15509 0
M  V30 66 C 7.1504 5.41472 3.02007 0
M  V30 67 C 9.2054 4.06449 2.87583 0
M  V30 68 C 7.9084 6.5975 2.86571 0
M  V30 69 C 9.9344 5.24357 2.73503 0
M  V30 70 C 9.2964 6.49404 2.72862 0
M  V30 71 H 5.3954 0.433137 0.651089 0
M  V30 72 H 7.9794 1.5324 1.20107 0
M  V30 73 H 6.1504 1.18863 3.69765 0
M  V30 74 H 7.8824 1.41816 3.79039 0
M  V30 75 H 4.6374 3.38093 3.31648 0
M  V30 76 H 5.0614 5.99626 3.14289 0
M  V30 77 H 9.7034 3.10573 2.86887 0
M  V30 78 H 7.4214 7.55792 2.86015 0
M  V30 79 H 11.0074 5.19299 2.62334 0
M  V30 80 H 9.8874 7.39105 2.62093 0
M  V30 81 N 7.3905 -1.2043 1.01659 0
M  V30 82 C 8.6385 -1.89423 0.704522 0
M  V30 83 C 8.9595 -1.79231 -0.768197 0
M  V30 84 O 8.2295 -1.1947 -1.55254 0
M  V30 85 H 6.8095 -0.701178 0.257602 0
M  V30 86 H 9.4715 -1.4626 1.28818 0
M  V30 87 H 8.5675 -2.96052 0.987916 0
M  V30 88 N 8.8686 -0.792821 -1.36206 0
M  V30 89 C 10.2796 -0.429513 -1.81692 0
M  V30 90 C 10.6306 1.04695 -1.65932 0
M  V30 91 O 9.7556 1.81256 -1.18218 0
M  V30 92 C 10.3506 -0.772831 -3.29868 0
M  V30 93 C 8.9096 -0.462307 -3.7355 0
M  V30 94 C 8.0566 -1.00569 -2.5842 0
M  V30 95 H 11.0076 -0.985672 -1.24379 0
M  V30 96 H 11.0286 -0.0651928 -3.80444 0
M  V30 97 H 10.5406 -1.84747 -3.41307 0
M  V30 98 H 8.6416 0.604158 -3.67669 0
M  V30 99 H 8.7546 -0.985299 -4.68859 0
M  V30 100 H 7.1186 -0.428734 -2.51066 0
M  V30 101 H 7.9016 -2.08616 -2.72643 0
M  V30 102 N 10.3467 1.47872 -0.545128 0
M  V30 103 C 11.5947 2.02093 -0.016553 0
M  V30 104 C 11.9157 1.42305 1.3332 0
M  V30 105 O 11.1857 0.593853 1.86682 0
M  V30 106 H 9.7657 0.746993 -0.00313038 0
M  V30 107 H 12.4277 1.81414 -0.712397 0
M  V30 108 H 11.5237 3.11996 0.0805422 0
M  V30 109 N 11.8248 0.280983 1.55075 0
M  V30 110 C 12.7578 -0.645439 2.18882 0
M  V30 111 C 13.7358 -1.14786 1.15165 0
M  V30 112 O 14.9198 -1.21975 1.43716 0
M  V30 113 C 12.0468 -1.88088 2.81674 0
M  V30 114 C 11.0928 -1.51343 3.98745 0
M  V30 115 S 11.9258 -0.586548 5.32278 0
M  V30 116 C 13.0818 -1.83024 5.98543 0
M  V30 117 H 13.3148 -0.1033 2.9712 0
M  V30 118 H 10.8478 0.0652099 1.54262 0
M  V30 119 H 12.8058 -2.58997 3.18482 0
M  V30 120 H 11.4668 -2.39417 2.03318 0
M  V30 121 H 10.6598 -2.43289 4.41392 0
M  V30 122 H 10.2618 -0.884477 3.63391 0
M  V30 123 H 12.5538 -2.77342 6.18133 0
M  V30 124 H 13.4968 -1.44668 6.93164 0
M  V30 125 H 13.9048 -1.99785 5.27964 0
M  V30 126 N 13.3029 -1.57598 0.00835791 0
M  V30 127 C 14.5489 -1.91211 -0.675732 0
M  V30 128 C 14.8819 -0.883139 -1.72958 0
M  V30 129 O 14.1569 0.097016 -1.94258 0
M  V30 130 C 14.4399 -3.35379 -1.31123 0
M  V30 131 C 14.2929 -4.48999 -0.268356 0
M  V30 132 C 15.6119 -3.7912 -2.23508 0
M  V30 133 H 12.7309 -0.695374 -0.244179 0
M  V30 134 H 15.3729 -1.89901 0.0613655 0
M  V30 135 H 13.5229 -3.36626 -1.93946 0
M  V30 136 H 15.1949 -4.59887 0.360844 0
M  V30 137 H 13.4379 -4.31873 0.408482 0
M  V30 138 H 14.1089 -5.46851 -0.752218 0
M  V30 139 H 16.5849 -3.79477 -1.70693 0
M  V30 140 H 15.4609 -4.80729 -2.64936 0
M  V30 141 H 15.7219 -3.13455 -3.11766 0
M  V30 142 N 14.781 0.264519 -1.55364 0
M  V30 143 C 16.006 1.01726 -1.80739 0
M  V30 144 C 16.431 1.78836 -0.583044 0
M  V30 145 O 15.789 1.75167 0.467566 0
M  V30 146 C 15.837 1.94482 -3.03659 0
M  V30 147 O 14.941 3.03386 -2.7934 0
M  V30 148 H 14.282 0.290395 -0.597132 0
M  V30 149 H 16.812 0.290854 -2.02522 0
M  V30 150 H 16.822 2.36278 -3.32621 0
M  V30 151 H 15.497 1.37772 -3.92418 0
M  V30 152 H 14.074 2.65844 -2.61498 0
M  V30 153 N 16.2591 1.48442 0.529413 0
M  V30 154 C 17.5051 1.5672 1.28711 0
M  V30 155 C 17.8381 0.2406 1.92704 0
M  V30 156 O 17.1131 -0.753454 1.79313 0
M  V30 157 C 17.3961 2.70587 2.37603 0
M  V30 158 C 17.2491 4.12953 1.78297 0
M  V30 159 C 18.5681 2.80212 3.39366 0
M  V30 160 H 15.6871 0.570474 0.466613 0
M  V30 161 H 18.3291 1.80617 0.589706 0
M  V30 162 H 16.4791 2.50342 2.97088 0
M  V30 163 H 18.1511 4.44639 1.22858 0
M  V30 164 H 16.3941 4.19927 1.0883 0
M  V30 165 H 17.0651 4.88448 2.57144 0
M  V30 166 H 19.5411 2.98553 2.89836 0
M  V30 167 H 18.4171 3.61611 4.12951 0
M  V30 168 H 18.6781 1.88393 3.99951 0
M  V30 169 N 17.7372 -0.778329 1.37039 0
M  V30 170 C 18.9832 -1.53892 1.32079 0
M  V30 171 C 19.3162 -1.9396 -0.0965386 0
M  V30 172 O 18.5912 -1.63568 -1.05242 0
M  V30 173 C 18.8742 -2.80847 2.25382 0
M  V30 174 C 18.7272 -2.47076 3.75864 0
M  V30 175 C 20.0462 -3.82741 2.1725 0
M  V30 176 H 17.1652 -0.558303 0.48111 0
M  V30 177 H 19.8072 -0.893397 1.67685 0
M  V30 178 H 17.9572 -3.35931 1.95148 0
M  V30 179 H 19.6292 -1.97957 4.16666 0
M  V30 180 H 17.8722 -1.79863 3.94755 0
M  V30 181 H 18.5432 -3.37798 4.36574 0
M  V30 182 H 21.0192 -3.37133 2.43887 0
M  V30 183 H 19.8952 -4.69303 2.84686 0
M  V30 184 H 20.1562 -4.2652 1.16331 0
M  V30 185 N 19.2153 -1.21501 -1.00376 0
M  V30 186 C 20.4633 -1.03095 -1.73827 0
M  V30 187 C 20.7843 0.436341 -1.90055 0
M  V30 188 O 20.0543 1.31466 -1.45236 0
M  V30 189 H 18.6343 -0.378487 -0.644016 0
M  V30 190 H 21.2963 -1.52831 -1.20949 0
M  V30 191 H 20.3923 -1.49991 -2.73695 0
M  V30 192 N 20.6934 1.19889 -1.02296 0
M  V30 193 C 22.1044 1.71124 -0.746568 0
M  V30 194 C 22.4554 1.81939 0.734335 0
M  V30 195 O 21.5804 1.48639 1.57275 0
M  V30 196 C 22.1754 3.10804 -1.34857 0
M  V30 197 C 20.7344 3.59323 -1.1209 0
M  V30 198 C 19.8814 2.3635 -1.45031 0
M  V30 199 H 22.8324 1.04813 -1.19163 0
M  V30 200 H 22.8534 3.73186 -0.742437 0
M  V30 201 H 22.3654 3.029 -2.42638 0
M  V30 202 H 20.4664 3.7255 -0.0610337 0
M  V30 203 H 20.5794 4.4378 -1.80544 0
M  V30 204 H 18.9434 2.39399 -0.869487 0
M  V30 205 H 19.7264 2.31081 -2.53883 0
M  V30 206 N 22.1715 0.800033 1.35784 0
M  V30 207 C 23.1045 0.151499 2.27697 0
M  V30 208 C 24.0825 -0.678663 1.4776 0
M  V30 209 O 25.2665 -0.647358 1.77035 0
M  V30 210 C 22.3935 -0.790492 3.29346 0
M  V30 211 C 21.4395 -0.0407832 4.26481 0
M  V30 212 S 22.2725 1.29077 5.19711 0
M  V30 213 C 23.4285 0.353055 6.24903 0
M  V30 214 H 23.6615 0.930796 2.82353 0
M  V30 215 H 21.1945 0.594767 1.42485 0
M  V30 216 H 23.1525 -1.3285 3.88409 0
M  V30 217 H 21.8135 -1.54312 2.73581 0
M  V30 218 H 21.0065 -0.755971 4.98298 0
M  V30 219 H 20.6085 0.427063 3.71554 0
M  V30 220 H 22.9005 -0.464147 6.75908 0
M  V30 221 H 23.8435 1.04023 7.00418 0
M  V30 222 H 24.2515 -0.0483344 5.64479 0
M  V30 223 N 23.6496 -1.47581 0.552962 0
M  V30 224 C 24.8976 -2.02082 0.0272703 0
M  V30 225 C 25.2186 -1.4301 -1.32563 0
M  V30 226 O 24.4886 -0.603745 -1.86365 0
M  V30 227 H 23.0686 -0.746966 0.00709182 0
M  V30 228 H 25.7306 -1.81033 0.722008 0
M  V30 229 H 24.8266 -3.12034 -0.0639951 0
M  V30 230 N 25.1277 -0.289203 -1.54924 0
M  V30 231 C 26.0577 0.58549 -2.2604 0
M  V30 232 C 27.0387 1.14753 -1.25562 0
M  V30 233 O 28.2237 1.17906 -1.54311 0
M  V30 234 C 25.3537 1.76305 -2.99222 0
M  V30 235 C 24.3077 1.33191 -4.06748 0
M  V30 236 C 23.6337 2.5937 -4.6758 0
M  V30 237 C 24.9337 0.471775 -5.20165 0
M  V30 238 H 26.6277 -0.00763532 -2.99399 0
M  V30 239 H 24.1737 -0.00511229 -1.43999 0
M  V30 240 H 26.1267 2.38097 -3.47689 0
M  V30 241 H 24.8507 2.38223 -2.23422 0
M  V30 242 H 23.5097 0.737121 -3.59113 0
M  V30 243 H 23.1577 3.19576 -3.88433 0
M  V30 244 H 22.8577 2.31228 -5.40192 0
M  V30 245 H 24.3817 3.21985 -5.18804 0
M  V30 246 H 25.7957 0.995056 -5.64599 0
M  V30 247 H 24.1927 0.284639 -5.99425 0
M  V30 248 H 25.2627 -0.506041 -4.82252 0
M  V30 249 N 26.6058 1.57591 -0.0167156 0
M  V30 250 C 27.5358 2.12496 0.967858 0
M  V30 251 C 28.5168 1.03807 1.34752 0
M  V30 252 O 29.7018 1.31577 1.42833 0
M  V30 253 C 26.8318 2.64194 2.25431 0
M  V30 254 C 25.7858 3.77559 2.01576 0
M  V30 255 C 25.1118 4.15636 3.36379 0
M  V30 256 C 26.4118 5.04151 1.36489 0
M  V30 257 H 28.1058 2.95013 0.510643 0
M  V30 258 H 25.6518 1.41915 0.244181 0
M  V30 259 H 27.6048 3.01236 2.94678 0
M  V30 260 H 26.3288 1.78821 2.73296 0
M  V30 261 H 24.9878 3.40937 1.34751 0
M  V30 262 H 24.6358 3.27263 3.81979 0
M  V30 263 H 24.3358 4.92022 3.21229 0
M  V30 264 H 25.8598 4.5525 4.06915 0
M  V30 265 H 27.2738 5.38857 1.95718 0
M  V30 266 H 25.6708 5.85453 1.31776 0
M  V30 267 H 26.7408 4.83733 0.336219 0
M  V30 268 N 28.0839 -0.256276 1.55502 0
M  V30 269 C 29.3299 -0.987079 1.77157 0
M  V30 270 C 29.6629 -1.85327 0.580315 0
M  V30 271 O 28.9379 -1.89874 -0.421686 0
M  V30 272 C 29.2209 -1.85553 3.08613 0
M  V30 273 C 29.0739 -1.01816 4.38125 0
M  V30 274 C 30.3929 -2.8397 3.36228 0
M  V30 275 H 27.5119 -0.357428 0.644526 0
M  V30 276 H 30.1539 -0.258239 1.88237 0
M  V30 277 H 28.3039 -2.47695 2.99298 0
M  V30 278 H 29.9759 -0.416159 4.59419 0
M  V30 279 H 28.2189 -0.322178 4.32602 0
M  V30 280 H 28.8899 -1.65939 5.26468 0
M  V30 281 H 31.3659 -2.31964 3.45445 0
M  V30 282 H 30.2419 -3.41864 4.29442 0
M  V30 283 H 30.5029 -3.59955 2.56681 0
M  V30 284 N 29.562 -1.4872 -0.521534 0
M  V30 285 C 30.808 -1.574 -1.27879 0
M  V30 286 C 31.141 -0.250817 -1.92573 0
M  V30 287 O 30.416 0.743934 -1.79711 0
M  V30 288 C 30.699 -2.71843 -2.36164 0
M  V30 289 C 30.552 -4.13893 -1.76105 0
M  V30 290 C 31.871 -2.82008 -3.37875 0
M  V30 291 H 28.99 -0.572941 -0.463581 0
M  V30 292 H 31.632 -1.80927 -0.580119 0
M  V30 293 H 29.782 -2.51914 -2.95756 0
M  V30 294 H 31.454 -4.45284 -1.20499 0
M  V30 295 H 29.697 -4.20498 -1.06601 0
M  V30 296 H 30.368 -4.89804 -2.5455 0
M  V30 297 H 32.844 -3.00086 -2.88249 0
M  V30 298 H 31.72 -3.63796 -4.11028 0
M  V30 299 H 31.981 -1.90511 -3.98946 0
M  V30 300 N 31.0401 0.771051 -1.3745 0
M  V30 301 C 31.9701 1.89827 -1.3597 0
M  V30 302 C 32.9511 1.68562 -0.228216 0
M  V30 303 O 34.1361 1.8941 -0.428675 0
M  V30 304 C 31.2661 3.2712 -1.16662 0
M  V30 305 C 30.2201 3.6295 -2.2683 0
M  V30 306 C 29.5461 4.98791 -1.92644 0
M  V30 307 C 30.8461 3.69627 -3.69017 0
M  V30 308 H 32.5401 1.91323 -2.30295 0
M  V30 309 H 30.0861 0.919082 -1.10855 0
M  V30 310 H 32.0391 4.05615 -1.14256 0
M  V30 311 H 30.7631 3.26059 -0.187926 0
M  V30 312 H 29.4221 2.86763 -2.28392 0
M  V30 313 H 29.0701 4.94271 -0.933021 0
M  V30 314 H 28.7701 5.23733 -2.66416 0
M  V30 315 H 30.2941 5.79685 -1.91826 0
M  V30 316 H 31.7081 4.38273 -3.69581 0
M  V30 317 H 30.1051 4.06067 -4.41848 0
M  V30 318 H 31.1751 2.70273 -4.02592 0
M  V30 319 N 32.5182 1.22032 0.997298 0
M  V30 320 C 33.4482 1.01065 2.10495 0
M  V30 321 C 34.4292 -0.0669542 1.69968 0
M  V30 322 O 35.6142 0.0943987 1.9397 0
M  V30 323 C 32.7442 0.582874 3.42374 0
M  V30 324 C 31.6982 1.60592 3.96729 0
M  V30 325 C 31.0242 1.03412 5.24605 0
M  V30 326 C 32.3242 2.99478 4.27914 0
M  V30 327 H 34.0182 1.93708 2.28292 0
M  V30 328 H 31.5642 0.932761 1.09707 0
M  V30 329 H 33.5172 0.423332 4.19268 0
M  V30 330 H 32.2412 -0.379213 3.24391 0
M  V30 331 H 30.9002 1.75316 3.21963 0
M  V30 332 H 30.5482 0.063518 5.0296 0
M  V30 333 H 30.2482 1.71754 5.61938 0
M  V30 334 H 31.7722 0.886066 6.04137 0
M  V30 335 H 33.1862 2.88153 4.95622 0
M  V30 336 H 31.5832 3.64903 4.76409 0
M  V30 337 H 32.6532 3.49742 3.3587 0
M  V30 338 N 33.9963 -1.19345 1.0293 0
M  V30 339 C 35.2423 -1.89318 0.727083 0
M  V30 340 C 35.5753 -1.79446 -0.742483 0
M  V30 341 O 34.8503 -1.1871 -1.54072 0
M  V30 342 C 35.1333 -3.40238 1.17942 0
M  V30 343 C 34.9863 -3.58979 2.71024 0
M  V30 344 C 36.3053 -4.33479 0.760548 0
M  V30 345 H 33.4243 -0.687475 0.265606 0
M  V30 346 H 36.0663 -1.40477 1.2793 0
M  V30 347 H 34.2163 -3.81964 0.709608 0
M  V30 348 H 35.8883 -3.26421 3.25955 0
M  V30 349 H 34.1313 -3.02018 3.11396 0
M  V30 350 H 34.8023 -4.64823 2.9773 0
M  V30 351 H 37.2783 -3.99469 1.16464 0
M  V30 352 H 36.1543 -5.37664 1.10493 0
M  V30 353 H 36.4153 -4.40813 -0.337063 0
M  V30 354 N 35.4744 -0.807222 -1.35358 0
M  V30 355 C 36.7224 -0.387122 -1.98358 0
M  V30 356 C 37.0434 1.04942 -1.64354 0
M  V30 357 O 36.3134 1.72615 -0.926339 0
M  V30 358 H 34.8934 -0.140154 -0.733734 0
M  V30 359 H 37.5554 -1.0332 -1.6526 0
M  V30 360 H 36.6514 -0.493352 -3.08176 0
M  V30 361 N 36.9525 1.47285 -0.560781 0
M  V30 362 C 38.2005 2.02064 -0.0379868 0
M  V30 363 C 38.5215 1.43711 1.31803 0
M  V30 364 O 37.7915 0.61362 1.86042 0
M  V30 365 H 36.3715 0.746918 -0.0110531 0
M  V30 366 H 39.0335 1.80648 -0.731598 0
M  V30 367 H 38.1295 3.12064 0.0474463 0
M  V30 368 N 38.4306 0.297415 1.54768 0
M  V30 369 C 39.6706 -0.313829 2.01976 0
M  V30 370 C 40.0346 -1.51366 1.1812 0
M  V30 371 O 41.2356 -2.19603 1.5501 0
M  V30 372 C 39.5066 -0.664964 3.51159 0
M  V30 373 S 41.0656 -1.25958 4.20333 0
M  V30 374 H 37.8836 -0.0965014 0.704421 0
M  V30 375 H 40.4856 0.424451 1.90837 0
M  V30 376 H 39.1896 0.21681 4.09827 0
M  V30 377 H 38.7206 -1.43413 3.66328 0
M  V30 378 H 40.7356 -2.54751 4.25813 0
M  V30 379 N 39.9087 -1.5758 0.0250728 0
M  V30 380 C 40.8717 -2.08896 -0.943139 0
M  V30 381 C 41.8717 -1.00321 -1.25668 0
M  V30 382 O 43.0617 -1.26495 -1.19769 0
M  V30 383 C 40.1937 -2.55143 -2.26086 0
M  V30 384 H 41.3867 -2.95723 -0.498775 0
M  V30 385 H 38.9397 -1.54703 -0.222888 0
M  V30 386 H 39.6747 -1.71633 -2.75159 0
M  V30 387 H 39.4597 -3.34461 -2.04641 0
M  V30 388 H 40.9497 -2.95083 -2.95492 0
M  V30 389 N 41.3868 0.248026 -1.55636 0
M  V30 390 C 42.3498 1.29044 -1.89421 0
M  V30 391 C 43.3498 1.41134 -0.770581 0
M  V30 392 O 44.5398 1.39854 -1.03858 0
M  V30 393 C 41.6718 2.66831 -2.12165 0
M  V30 394 H 42.8648 1.00305 -2.82629 0
M  V30 395 H 40.4178 0.487265 -1.48511 0
M  V30 396 H 41.1528 3.00711 -1.21422 0
M  V30 397 H 40.9378 2.59438 -2.93997 0
M  V30 398 H 42.4278 3.42103 -2.3949 0
M  V30 399 N 42.8649 1.48995 0.513639 0
M  V30 400 C 43.7749 1.67443 1.64317 0
M  V30 401 C 44.7909 0.556947 1.64846 0
M  V30 402 O 45.9669 0.830082 1.83498 0
M  V30 403 C 43.0319 1.72515 3.00732 0
M  V30 404 C 42.0929 2.96009 3.1093 0
M  V30 405 C 41.3259 3.00829 4.40837 0
M  V30 406 O 41.5489 2.13594 5.28898 0
M  V30 407 O 40.4829 3.93168 4.55744 0
M  V30 408 H 44.3089 2.63106 1.51687 0
M  V30 409 H 41.8939 1.32588 0.688543 0
M  V30 410 H 43.7759 1.78277 3.81831 0
M  V30 411 H 42.4509 0.800278 3.13651 0
M  V30 412 H 41.3579 2.9577 2.29065 0
M  V30 413 H 42.6909 3.87934 3.02933 0
M  V30 414 N 44.343 -0.763751 1.37857 0
M  V30 415 C 45.253 -1.90817 1.36478 0
M  V30 416 C 46.269 -1.71997 0.263248 0
M  V30 417 O 47.445 -1.95095 0.499979 0
M  V30 418 C 44.51 -3.2605 1.17864 0
M  V30 419 C 43.571 -3.57467 2.3773 0
M  V30 420 C 42.804 -4.86249 2.19995 0
M  V30 421 O 43.027 -5.57884 1.18836 0
M  V30 422 O 41.961 -5.16911 3.08361 0
M  V30 423 H 45.787 -1.94933 2.32884 0
M  V30 424 H 43.372 -0.907619 1.1867 0
M  V30 425 H 45.254 -4.06924 1.09504 0
M  V30 426 H 43.929 -3.22769 0.245372 0
M  V30 427 H 42.836 -2.76796 2.51664 0
M  V30 428 H 44.169 -3.655 3.29652 0
M  V30 429 N 45.8211 -1.22559 -0.990812 0
M  V30 430 C 47.2321 -1.04791 -1.54518 0
M  V30 431 C 47.5831 0.387998 -1.92325 0
M  V30 432 O 46.7081 1.27328 -1.74976 0
M  V30 433 C 47.3031 -1.896 -2.80779 0
M  V30 434 C 45.8621 -1.76124 -3.32652 0
M  V30 435 C 45.0091 -1.8594 -2.05722 0
M  V30 436 H 47.9601 -1.36374 -0.811662 0
M  V30 437 H 47.9811 -1.41464 -3.53225 0
M  V30 438 H 47.4931 -2.94101 -2.53231 0
M  V30 439 H 45.5941 -0.743643 -3.65104 0
M  V30 440 H 45.7071 -2.58913 -4.03114 0
M  V30 441 H 44.0711 -1.29403 -2.19379 0
M  V30 442 H 44.8541 -2.91976 -1.80568 0
M  V30 443 N 47.2992 1.18797 -1.03562 0
M  V30 444 C 48.7102 1.70322 -0.764676 0
M  V30 445 C 49.0612 1.82708 0.714996 0
M  V30 446 O 48.1862 1.50299 1.55689 0
M  V30 447 C 48.7812 3.09356 -1.38145 0
M  V30 448 C 47.3402 3.58114 -1.15895 0
M  V30 449 C 46.4872 2.34798 -1.4753 0
M  V30 450 H 49.4382 1.03543 -1.20268 0
M  V30 451 H 49.4592 3.72378 -0.781977 0
M  V30 452 H 48.9712 3.00309 -2.45837 0
M  V30 453 H 47.0722 3.72464 -0.100544 0
M  V30 454 H 47.1852 4.4184 -1.8524 0
M  V30 455 H 45.5492 2.38464 -0.894829 0
M  V30 456 H 46.3322 2.28375 -2.56319 0
M  V30 457 N 48.7773 0.814389 1.34928 0
M  V30 458 C 50.1933 0.499084 1.51596 0
M  V30 459 C 50.3933 -0.978319 1.76157 0
M  V30 460 O 49.4493 -1.76309 1.80752 0
M  V30 461 C 50.7623 1.35121 2.68631 0
M  V30 462 C 52.3103 1.34746 2.82511 0
M  V30 463 C 52.7853 2.18388 4.0258 0
M  V30 464 N 54.2763 2.15966 4.09772 0
M  V30 465 C 55.0113 2.77437 5.01813 0
M  V30 466 N 54.5073 3.47866 5.99134 0
M  V30 467 N 56.3003 2.67037 4.94619 0
M  V30 468 H 48.4513 1.7711 1.17243 0
M  V30 469 H 50.7143 0.754256 0.574284 0
M  V30 470 H 50.4203 2.40001 2.57085 0
M  V30 471 H 50.2943 1.00991 3.63429 0
M  V30 472 H 52.6813 0.30648 2.93504 0
M  V30 473 H 52.7623 1.72869 1.88547 0
M  V30 474 H 52.4063 3.2253 3.92347 0
M  V30 475 H 52.3363 1.77621 4.9574 0
M  V30 476 H 54.8273 1.64729 3.40107 0
M  V30 477 H 55.1403 3.92038 6.65977 0
M  V30 478 H 53.4853 3.51972 5.99284 0
M  V30 479 H 56.6763 2.11597 4.17546 0
M  V30 480 H 56.8493 3.15232 5.66156 0
M  V30 481 N 50.2554 -1.46986 0.568584 0
M  V30 482 C 51.5024 -2.02441 0.0487986 0
M  V30 483 C 51.8304 -1.44169 -1.30559 0
M  V30 484 O 51.0854 -0.591213 -1.86556 0
M  V30 485 C 51.3844 -3.57306 -0.081836 0
M  V30 486 C 51.0504 -4.34552 1.20313 0
M  V30 487 C 49.7124 -4.55376 1.5552 0
M  V30 488 C 52.0644 -4.79016 2.05411 0
M  V30 489 C 49.3924 -5.17913 2.7565 0
M  V30 490 C 51.7444 -5.42879 3.24754 0
M  V30 491 C 50.4084 -5.61933 3.60261 0
M  V30 492 H 49.6784 -0.740785 0.0178567 0
M  V30 493 H 52.3254 -1.76525 0.742384 0
M  V30 494 H 50.6304 -3.8228 -0.858463 0
M  V30 495 H 52.3274 -3.97876 -0.499546 0
M  V30 496 H 48.9174 -4.18631 0.919014 0
M  V30 497 H 53.1014 -4.62696 1.79516 0
M  V30 498 H 48.3574 -5.30858 3.03315 0
M  V30 499 H 52.5314 -5.76293 3.90973 0
M  V30 500 H 50.1584 -6.10161 4.53439 0
M  V30 501 N 51.7335 -0.305618 -1.54608 0
M  V30 502 C 52.9825 0.303098 -1.9941 0
M  V30 503 C 53.2955 1.54648 -1.19764 0
M  V30 504 O 54.5015 2.23007 -1.54855 0
M  V30 505 C 52.9575 0.590588 -3.55021 0
M  V30 506 C 52.5655 -0.634719 -4.43481 0
M  V30 507 C 54.3095 1.16025 -4.08336 0
M  V30 508 C 52.2165 -0.320126 -5.90533 0
M  V30 509 H 51.1465 0.117031 -0.744862 0
M  V30 510 H 53.7975 -0.415045 -1.78745 0
M  V30 511 H 52.1795 1.36845 -3.71604 0
M  V30 512 H 53.3535 -1.41079 -4.38672 0
M  V30 513 H 51.6685 -1.12333 -4.00962 0
M  V30 514 H 54.2655 1.40994 -5.15776 0
M  V30 515 H 54.6085 2.10397 -3.5922 0
M  V30 516 H 55.1415 0.443985 -3.95315 0
M  V30 517 H 51.8805 -1.23254 -6.43808 0
M  V30 518 H 51.4005 0.418579 -5.98338 0
M  V30 519 H 53.0795 0.0766241 -6.46955 0
M  V30 520 N 53.2116 1.57565 -0.0334293 0
M  V30 521 C 54.1586 2.10478 0.946981 0
M  V30 522 C 55.1286 1.00787 1.32027 0
M  V30 523 O 56.3136 1.28232 1.41284 0
M  V30 524 C 53.4536 2.63994 2.22263 0
M  V30 525 C 52.5666 3.87709 1.90541 0
M  V30 526 C 51.7016 4.29604 3.12433 0
M  V30 527 C 50.7406 5.46065 2.76549 0
M  V30 528 N 49.8776 5.83096 3.9108 0
M  V30 529 H 54.7176 2.93963 0.488846 0
M  V30 530 H 52.2546 1.45296 0.22969 0
M  V30 531 H 54.2126 2.93114 2.96884 0
M  V30 532 H 52.8426 1.83333 2.65685 0
M  V30 533 H 51.8946 3.65291 1.06144 0
M  V30 534 H 53.2066 4.72403 1.60116 0
M  V30 535 H 52.3606 4.60182 3.9537 0
M  V30 536 H 51.0996 3.43685 3.46023 0
M  V30 537 H 50.1046 5.15176 1.92026 0
M  V30 538 H 51.3296 6.33685 2.44171 0
M  V30 539 H 49.2756 5.00132 4.24504 0
M  V30 540 H 49.1926 6.6244 3.64293 0
M  V30 541 H 50.4606 6.18282 4.74708 0
M  V30 542 N 54.6897 -0.239769 1.55765 0
M  V30 543 C 55.5997 -1.31831 1.94056 0
M  V30 544 C 56.6157 -1.52275 0.841925 0
M  V30 545 O 57.7917 -1.65759 1.14394 0
M  V30 546 C 54.8567 -2.65156 2.23368 0
M  V30 547 C 53.9177 -2.53173 3.46701 0
M  V30 548 C 53.1507 -3.8014 3.74606 0
M  V30 549 O 53.3737 -4.82343 3.04469 0
M  V30 550 O 52.3077 -3.78344 4.68123 0
M  V30 551 H 56.1337 -1.02347 2.85935 0
M  V30 552 H 53.7187 -0.441123 1.42739 0
M  V30 553 H 55.6007 -3.43929 2.43497 0
M  V30 554 H 54.2757 -2.94358 1.34666 0
M  V30 555 H 53.1827 -1.72662 3.31871 0
M  V30 556 H 54.5157 -2.28915 4.35728 0
M  V30 557 N 56.1678 -1.49265 -0.50573 0
M  V30 558 C 57.5788 -1.51769 -1.08734 0
M  V30 559 C 57.9298 -0.301192 -1.93874 0
M  V30 560 O 57.0548 0.589456 -2.08217 0
M  V30 561 C 57.6498 -2.75017 -1.97867 0
M  V30 562 C 56.2088 -2.80314 -2.51199 0
M  V30 563 C 55.3558 -2.4562 -1.28709 0
M  V30 564 H 58.3068 -1.56031 -0.289855 0
M  V30 565 H 58.3278 -2.5491 -2.82491 0
M  V30 566 H 57.8398 -3.63539 -1.35873 0
M  V30 567 H 55.9408 -1.96061 -3.16845 0
M  V30 568 H 56.0538 -3.82366 -2.88675 0
M  V30 569 H 54.4178 -1.97297 -1.61078 0
M  V30 570 H 55.2008 -3.36411 -0.6843 0
M  V30 571 N 57.6459 0.756429 -1.3826 0
M  V30 572 C 58.5929 1.87011 -1.35261 0
M  V30 573 C 59.5629 1.64695 -0.215616 0
M  V30 574 O 60.7479 1.864 -0.407399 0
M  V30 575 C 57.8879 3.24275 -1.18068 0
M  V30 576 C 57.0009 3.58442 -2.41129 0
M  V30 577 C 56.1359 4.84994 -2.16689 0
M  V30 578 C 55.1749 5.11939 -3.35537 0
M  V30 579 N 54.3119 6.29685 -3.10549 0
M  V30 580 H 59.1519 1.8891 -2.30472 0
M  V30 581 H 56.6889 0.923373 -1.14509 0
M  V30 582 H 58.6469 4.03479 -1.06116 0
M  V30 583 H 57.2769 3.21711 -0.264973 0
M  V30 584 H 56.3289 2.74103 -2.63764 0
M  V30 585 H 57.6409 3.74283 -3.29717 0
M  V30 586 H 56.7949 5.72135 -2.01857 0
M  V30 587 H 55.5339 4.71286 -1.25462 0
M  V30 588 H 54.5389 4.23268 -3.50891 0
M  V30 589 H 55.7639 5.27546 -4.27635 0
M  V30 590 H 53.7099 6.17306 -2.21967 0
M  V30 591 H 53.6269 6.46014 -3.92686 0
M  V30 592 H 54.8949 7.19722 -2.99367 0
M  V30 593 N 59.124 1.23083 0.984299 0
M  V30 594 C 60.401 0.9689 1.69917 0
M  V30 595 C 60.781 -0.513604 2.04757 0
M  V30 596 O 60.129 -1.48383 1.73767 0
M  V30 597 C 60.339 1.87518 2.94343 0
M  V30 598 C 61.687 2.13636 3.6694 0
M  V30 599 O 62.711 1.85036 3.04368 0
M  V30 600 O 61.57 2.62119 4.79537 0
M  V30 601 H 58.664 0.365095 0.742048 0
M  V30 602 H 61.21 1.34107 1.03987 0
M  V30 603 H 59.982 2.87756 2.65164 0
M  V30 604 H 59.605 1.50514 3.6801 0
M  V30 605 N 60.6021 -1.18246 1.0419 0
M  V30 606 C 61.5341 -2.2142 0.592088 0
M  V30 607 C 62.5471 -1.59233 -0.338909 0
M  V30 608 O 63.7361 -1.78002 -0.133231 0
M  V30 609 C 60.8361 -3.38546 -0.154854 0
M  V30 610 C 60.0091 -4.3031 0.784328 0
M  V30 611 C 59.0681 -5.26138 0.0804583 0
M  V30 612 O 58.0941 -5.64738 0.711292 0
M  V30 613 N 59.2961 -5.68261 -1.18574 0
M  V30 614 H 62.0611 -2.60636 1.47949 0
M  V30 615 H 59.6221 -1.33044 0.922544 0
M  V30 616 H 61.6141 -3.99678 -0.635606 0
M  V30 617 H 60.1841 -2.98012 -0.943811 0
M  V30 618 H 59.4041 -3.66764 1.44491 0
M  V30 619 H 60.6921 -4.8852 1.42218 0
M  V30 620 H 60.0901 -5.38957 -1.71876 0
M  V30 621 H 58.6471 -6.31584 -1.61074 0
M  V30 622 N 62.0802 -0.821533 -1.34494 0
M  V30 623 C 63.3292 -0.405355 -1.97585 0
M  V30 624 C 63.6422 1.03677 -1.65863 0
M  V30 625 O 64.8482 1.55679 -2.22433 0
M  V30 626 C 63.3042 -0.673861 -3.53535 0
M  V30 627 C 62.9122 -2.12951 -3.94152 0
M  V30 628 C 64.6562 -0.32378 -4.23263 0
M  V30 629 C 62.5632 -2.34298 -5.43009 0
M  V30 630 H 61.4932 -0.147836 -0.739365 0
M  V30 631 H 64.1442 -1.00769 -1.53355 0
M  V30 632 H 62.5262 -0.00137554 -3.96 0
M  V30 633 H 63.7002 -2.84104 -3.62797 0
M  V30 634 H 62.0152 -2.44089 -3.37356 0
M  V30 635 H 64.6122 -0.461126 -5.32708 0
M  V30 636 H 64.9552 0.731586 -4.09821 0
M  V30 637 H 65.4882 -0.950786 -3.8627 0
M  V30 638 H 62.2272 -3.38335 -5.61435 0
M  V30 639 H 61.7472 -1.67687 -5.75883 0
M  V30 640 H 63.4262 -2.16588 -6.09671 0
M  V30 641 N 63.5583 1.46682 -0.576371 0
M  V30 642 C 64.8063 2.02013 -0.0594163 0
M  V30 643 C 65.1273 1.45101 1.30271 0
M  V30 644 O 64.3973 0.633317 1.8538 0
M  V30 645 H 62.9773 0.746759 -0.0189745 0
M  V30 646 H 65.6393 1.79862 -0.750717 0
M  V30 647 H 64.7353 3.12097 0.014345 0
M  V30 648 N 65.0364 0.313813 1.54444 0
M  V30 649 C 66.2824 -0.292108 2.00685 0
M  V30 650 C 66.6154 -1.52548 1.20177 0
M  V30 651 O 65.8904 -1.92452 0.281531 0
M  V30 652 C 66.1734 -0.635968 3.5444 0
M  V30 653 C 66.0264 0.607437 4.4568 0
M  V30 654 C 67.3454 -1.45747 4.15266 0
M  V30 655 H 64.4644 -0.104697 0.729526 0
M  V30 656 H 67.1064 0.428457 1.85106 0
M  V30 657 H 65.2564 -1.24986 3.67846 0
M  V30 658 H 66.9284 1.24581 4.44159 0
M  V30 659 H 65.1714 1.23822 4.15753 0
M  V30 660 H 65.8424 0.322515 5.51057 0
M  V30 661 H 68.3184 -0.938645 4.05375 0
M  V30 662 H 67.1944 -1.66683 5.2298 0
M  V30 663 H 67.4554 -2.45063 3.67963 0
M  V30 664 N 66.5145 -1.57545 0.0417849 0
M  V30 665 C 67.7395 -1.97035 -0.647455 0
M  V30 666 C 68.1645 -0.918775 -1.64135 0
M  V30 667 O 67.5225 0.119006 -1.80909 0
M  V30 668 C 67.5705 -3.35609 -1.31905 0
M  V30 669 O 66.6745 -3.3287 -2.43457 0
M  V30 670 H 66.0155 -0.64211 -0.169086 0
M  V30 671 H 68.5455 -2.04318 0.107399 0
M  V30 672 H 68.5555 -3.72126 -1.67291 0
M  V30 673 H 67.2305 -4.11685 -0.590586 0
M  V30 674 H 65.8075 -3.08087 -2.10088 0
M  V30 675 N 67.9926 0.231505 -1.5589 0
M  V30 676 C 69.2406 0.955461 -1.78088 0
M  V30 677 C 69.5616 1.85262 -0.608533 0
M  V30 678 O 68.8316 1.92277 0.375035 0
M  V30 679 H 67.4116 0.355787 -0.656829 0
M  V30 680 H 70.0736 0.245751 -1.93344 0
M  V30 681 H 69.1696 1.56814 -2.69844 0
M  V30 682 N 69.4707 1.49531 0.497807 0
M  V30 683 C 70.7187 1.58865 1.24926 0
M  V30 684 C 71.0397 0.278721 1.92998 0
M  V30 685 O 70.3097 -0.702144 1.82885 0
M  V30 686 H 68.8897 0.585343 0.464094 0
M  V30 687 H 71.5517 1.86174 0.57666 0
M  V30 688 H 70.6477 2.38633 2.01149 0
M  V30 689 N 70.9488 -0.749086 1.3866 0
M  V30 690 C 72.1948 -1.51056 1.35314 0
M  V30 691 C 72.5278 -1.94121 -0.0553751 0
M  V30 692 O 71.8028 -1.65763 -1.01749 0
M  V30 693 C 72.0858 -2.76003 2.31288 0
M  V30 694 C 71.9388 -2.39047 3.8102 0
M  V30 695 C 73.2578 -3.78046 2.2532 0
M  V30 696 H 70.3768 -0.547972 0.492844 0
M  V30 697 H 73.0188 -0.857628 1.69543 0
M  V30 698 H 71.1688 -3.31716 2.02229 0
M  V30 699 H 72.8408 -1.89074 4.20771 0
M  V30 700 H 71.0838 -1.71449 3.98482 0
M  V30 701 H 71.7548 -3.28462 4.4364 0
M  V30 702 H 74.2308 -3.31884 2.50983 0
M  V30 703 H 73.1068 -4.63159 2.94576 0
M  V30 704 H 73.3678 -4.23957 1.25352 0
M  V30 705 N 72.4269 -1.23603 -0.977757 0
M  V30 706 C 73.3899 -1.02069 -2.05218 0
M  V30 707 C 74.3899 0.0184305 -1.60789 0
M  V30 708 O 75.5799 -0.221569 -1.72785 0
M  V30 709 C 72.7119 -0.544926 -3.36517 0
M  V30 710 H 73.9049 -1.9742 -2.25755 0
M  V30 711 H 71.4579 -1.05684 -1.15155 0
M  V30 712 H 72.1929 0.412241 -3.21669 0
M  V30 713 H 71.9779 -1.2948 -3.70105 0
M  V30 714 H 73.4679 -0.414985 -4.15533 0
M  V30 715 N 73.905 1.17692 -1.04816 0
M  V30 716 C 75.13 1.92327 -0.776207 0
M  V30 717 C 75.555 1.76082 0.661581 0
M  V30 718 O 74.913 1.076 1.45917 0
M  V30 719 C 74.961 3.41539 -1.15687 0
M  V30 720 O 74.065 4.11402 -0.286775 0
M  V30 721 H 73.406 0.599735 -0.284981 0
M  V30 722 H 75.936 1.49201 -1.4 0
M  V30 723 H 75.946 3.92269 -1.12202 0
M  V30 724 H 74.621 3.52684 -2.20425 0
M  V30 725 H 73.198 3.70939 -0.381903 0
M  V30 726 N 75.3831 0.828654 1.34056 0
M  V30 727 C 76.6301 0.419458 1.98108 0
M  V30 728 C 76.9581 -1.01886 1.65679 0
M  V30 729 O 76.2131 -1.72539 0.923512 0
M  V30 730 C 76.5121 0.575226 3.52741 0
M  V30 731 C 76.1781 1.98012 4.05095 0
M  V30 732 C 74.8401 2.36442 4.19104 0
M  V30 733 C 77.1921 2.89824 4.33188 0
M  V30 734 C 74.5201 3.66009 4.58535 0
M  V30 735 C 76.8721 4.1886 4.74066 0
M  V30 736 C 75.5361 4.5726 4.86281 0
M  V30 737 H 74.8061 0.153491 0.724929 0
M  V30 738 H 77.4531 1.05371 1.59904 0
M  V30 739 H 75.7581 -0.142385 3.91541 0
M  V30 740 H 77.4551 0.239057 4.00287 0
M  V30 741 H 74.0451 1.67162 3.94658 0
M  V30 742 H 78.2291 2.61375 4.21897 0
M  V30 743 H 73.4851 3.95579 4.66184 0
M  V30 744 H 77.6591 4.90086 4.94761 0
M  V30 745 H 75.2861 5.57707 5.16592 0
M  V30 746 N 76.8612 -1.46375 0.584142 0
M  V30 747 C 78.1072 -2.02678 0.0703716 0
M  V30 748 C 78.4402 -1.4545 -1.28678 0
M  V30 749 O 77.7152 -0.62014 -1.84349 0
M  V30 750 C 77.9982 -3.60099 0.00614674 0
M  V30 751 C 77.8512 -4.27709 1.3923 0
M  V30 752 C 79.1702 -4.34598 -0.693742 0
M  V30 753 H 76.2892 -0.736504 0.027047 0
M  V30 754 H 78.9312 -1.74501 0.751615 0
M  V30 755 H 77.0812 -3.84236 -0.574009 0
M  V30 756 H 78.7532 -4.14832 2.01773 0
M  V30 757 H 76.9962 -3.87016 1.95962 0
M  V30 758 H 77.6672 -5.36478 1.29982 0
M  V30 759 H 80.1432 -4.15615 -0.200869 0
M  V30 760 H 79.0192 -5.44318 -0.707714 0
M  V30 761 H 79.2802 -4.05759 -1.75533 0
M  V30 762 N 78.3393 -0.321999 -1.54275 0
M  V30 763 C 79.5793 0.281657 -2.0245 0
M  V30 764 C 79.9433 1.49468 -1.20513 0
M  V30 765 O 81.1443 2.17109 -1.58484 0
M  V30 766 C 79.4153 0.609014 -3.52173 0
M  V30 767 S 80.9743 1.19255 -4.22284 0
M  V30 768 H 77.7923 0.0852825 -0.705867 0
M  V30 769 H 80.3943 -0.454758 -1.90137 0
M  V30 770 H 79.0983 -0.281982 -4.0943 0
M  V30 771 H 78.6293 1.37567 -3.68563 0
M  V30 772 H 80.6443 2.47944 -4.29812 0
M  V30 773 N 79.8174 1.5752 -0.0501392 0
M  V30 774 C 80.7494 2.08413 0.95376 0
M  V30 775 C 81.7624 1.01175 1.27544 0
M  V30 776 O 82.9514 1.28744 1.23641 0
M  V30 777 C 80.0514 2.51138 2.27559 0
M  V30 778 C 79.2244 3.817 2.13598 0
M  V30 779 C 78.2834 4.10749 3.28895 0
M  V30 780 O 77.3094 4.80685 3.04845 0
M  V30 781 N 78.5114 3.62579 4.5334 0
M  V30 782 H 81.2764 2.95165 0.519383 0
M  V30 783 H 78.8374 1.61327 0.136127 0
M  V30 784 H 80.8294 2.67648 3.03557 0
M  V30 785 H 79.3994 1.6964 2.62567 0
M  V30 786 H 78.6194 3.74782 1.22197 0
M  V30 787 H 79.9074 4.67201 2.01496 0
M  V30 788 H 79.3054 3.06039 4.75769 0
M  V30 789 H 77.8624 3.84329 5.26436 0
M  V30 790 N 81.2955 -0.223234 1.56011 0
M  V30 791 C 82.2585 -1.26014 1.9145 0
M  V30 792 C 83.2585 -1.3989 0.792937 0
M  V30 793 O 84.4485 -1.38184 1.0607 0
M  V30 794 C 81.5805 -2.63422 2.16383 0
M  V30 795 H 82.7735 -0.95796 2.84189 0
M  V30 796 H 80.3265 -0.463576 1.49267 0
M  V30 797 H 81.0615 -2.98741 1.2619 0
M  V30 798 H 80.8465 -2.54728 2.98088 0
M  V30 799 H 82.3365 -3.38249 2.44903 0
M  V30 800 N 82.7736 -1.49793 -0.48987 0
M  V30 801 C 84.0016 -1.63568 -1.26701 0
M  V30 802 C 84.4166 -0.311465 -1.86213 0
M  V30 803 O 83.7736 0.704416 -1.68357 0
M  V30 804 C 83.8246 -2.71284 -2.38929 0
M  V30 805 O 83.5456 -3.9857 -1.81861 0
M  V30 806 C 85.0466 -2.95864 -3.3012 0
M  V30 807 H 82.2666 -0.550342 -0.383881 0
M  V30 808 H 84.8106 -1.95898 -0.586864 0
M  V30 809 H 82.9656 -2.417 -3.02753 0
M  V30 810 H 83.3796 -4.57993 -2.55622 0
M  V30 811 H 84.8536 -3.74941 -4.05121 0
M  V30 812 H 85.3306 -2.06206 -3.87783 0
M  V30 813 H 85.9366 -3.26907 -2.72051 0
M  V30 814 N 84.2517 0.741722 -1.39055 0
M  V30 815 C 85.4997 1.49818 -1.35643 0
M  V30 816 C 85.8207 1.94938 0.0491642 0
M  V30 817 O 85.0907 1.68505 0.999141 0
M  V30 818 H 83.6707 0.555755 -0.499144 0
M  V30 819 H 86.3327 0.880957 -1.73854 0
M  V30 820 H 85.4287 2.38348 -2.01486 0
M  V30 821 N 85.7298 1.2412 0.971189 0
M  V30 822 C 87.0068 0.986867 1.6888 0
M  V30 823 C 87.3868 -0.491857 2.0529 0
M  V30 824 O 86.7348 -1.46531 1.75331 0
M  V30 825 C 86.9448 1.9063 2.92338 0
M  V30 826 C 88.2928 2.17515 3.64654 0
M  V30 827 O 89.3168 1.88254 3.02388 0
M  V30 828 O 88.1758 2.6719 4.7673 0
M  V30 829 H 85.2698 0.372944 0.738134 0
M  V30 830 H 87.8158 1.35203 1.02559 0
M  V30 831 H 86.5878 2.90552 2.62097 0
M  V30 832 H 86.2108 1.54408 3.66393 0
M  V30 833 N 87.2079 -1.17134 1.05439 0
M  V30 834 C 88.6189 -1.69084 0.791676 0
M  V30 835 C 88.9699 -1.83822 -0.685839 0
M  V30 836 O 88.0949 -1.52757 -1.53278 0
M  V30 837 C 88.6899 -3.07119 1.4305 0
M  V30 838 C 87.2489 -3.56225 1.21577 0
M  V30 839 C 86.3959 -2.32421 1.51247 0
M  V30 840 H 89.3469 -1.01617 1.219 0
M  V30 841 H 89.3679 -3.71087 0.84112 0
M  V30 842 H 88.8799 -2.9636 2.50584 0
M  V30 843 H 86.9809 -3.72257 0.159787 0
M  V30 844 H 87.0939 -4.38837 1.92246 0
M  V30 845 H 85.4579 -2.3701 0.932653 0
M  V30 846 H 86.2409 -2.24268 2.5992 0
M  V30 847 N 88.686 -0.835752 -1.33615 0
M  V30 848 C 89.633 -0.26473 -2.29277 0
M  V30 849 C 90.603 0.617712 -1.54187 0
M  V30 850 O 91.788 0.556641 -1.825 0
M  V30 851 C 88.928 0.556777 -3.40579 0
M  V30 852 C 88.041 -0.349339 -4.30585 0
M  V30 853 C 87.176 0.482969 -5.29 0
M  V30 854 C 86.215 -0.421732 -6.10645 0
M  V30 855 N 85.352 0.372262 -7.01112 0
M  V30 856 H 90.192 -1.08582 -2.77514 0
M  V30 857 H 87.729 -0.546927 -1.36554 0
M  V30 858 H 89.687 1.04852 -4.03809 0
M  V30 859 H 88.317 1.34286 -2.93542 0
M  V30 860 H 87.369 -0.959372 -3.68104 0
M  V30 861 H 88.681 -1.04445 -4.87742 0
M  V30 862 H 87.835 1.03866 -5.97743 0
M  V30 863 H 86.574 1.21153 -4.72412 0
M  V30 864 H 85.579 -0.989464 -5.40823 0
M  V30 865 H 86.804 -1.14861 -6.69316 0
M  V30 866 H 84.75 1.08426 -6.46977 0
M  V30 867 H 84.667 -0.264198 -7.55538 0
M  V30 868 H 85.935 0.910293 -7.74167 0
M  V30 869 N 90.1641 1.46063 -0.591896 0
M  V30 870 C 91.5751 1.85944 -0.167822 0
M  V30 871 C 91.9261 1.49429 1.27143 0
M  V30 872 O 91.0511 0.913515 1.96173 0
M  V30 873 C 91.6461 3.37489 -0.297794 0
M  V30 874 C 90.2051 3.76332 0.0714732 0
M  V30 875 C 89.3521 2.7006 -0.629509 0
M  V30 876 H 92.3031 1.37087 -0.799555 0
M  V30 877 H 92.3241 3.77532 0.474349 0
M  V30 878 H 91.8361 3.64034 -1.3454 0
M  V30 879 H 89.9371 3.55405 1.11886 0
M  V30 880 H 90.0501 4.78088 -0.311245 0
M  V30 881 H 88.4141 2.54607 -0.0687867 0
M  V30 882 H 89.1971 2.99444 -1.67894 0
M  V30 883 N 91.6422 0.330177 1.54103 0
M  V30 884 C 93.0582 -0.0222371 1.59585 0
M  V30 885 C 93.2582 -1.49902 1.34654 0
M  V30 886 O 92.3142 -2.25592 1.13421 0
M  V30 887 C 93.6272 0.401932 2.98002 0
M  V30 888 C 95.1752 0.353145 3.11001 0
M  V30 889 C 95.6502 0.752576 4.51775 0
M  V30 890 N 97.1412 0.706239 4.57784 0
M  V30 891 C 97.8762 0.987417 5.64834 0
M  V30 892 N 97.3722 1.33607 6.79795 0
M  V30 893 N 99.1652 0.91254 5.54643 0
M  V30 894 H 91.3162 1.29228 1.68564 0
M  V30 895 H 93.5792 0.525906 0.78875 0
M  V30 896 H 93.2852 1.4311 3.21267 0
M  V30 897 H 93.1592 -0.229699 3.765 0
M  V30 898 H 95.5462 -0.666822 2.87467 0
M  V30 899 H 95.6272 1.0198 2.34593 0
M  V30 900 H 95.2712 1.77049 4.76042 0
M  V30 901 H 95.2012 0.0635409 5.26562 0
M  V30 902 H 97.6922 0.44889 3.75224 0
M  V30 903 H 98.0052 1.53582 7.57385 0
M  V30 904 H 96.3502 1.37439 6.81275 0
M  V30 905 H 99.5412 0.639601 4.6371 0
M  V30 906 H 99.7142 1.13503 6.37982 0
M  V30 907 N 93.1203 -1.57491 0.0584922 0
M  V30 908 C 94.3663 -1.93264 -0.614558 0
M  V30 909 C 94.6993 -0.937717 -1.7006 0
M  V30 910 O 93.9743 0.0351652 -1.94468 0
M  V30 911 C 94.2573 -3.3938 -1.20386 0
M  V30 912 C 94.1103 -4.49625 -0.125375 0
M  V30 913 C 95.4293 -3.86039 -2.11334 0
M  V30 914 H 92.5483 -0.702791 -0.221933 0
M  V30 915 H 95.1903 -1.8961 0.12175 0
M  V30 916 H 93.3403 -3.42626 -1.83139 0
M  V30 917 H 95.0123 -4.58506 0.506971 0
M  V30 918 H 93.2553 -4.30354 0.545672 0
M  V30 919 H 93.9263 -5.48967 -0.577861 0
M  V30 920 H 96.4023 -3.84716 -1.58534 0
M  V30 921 H 95.2783 -4.88914 -2.49507 0
M  V30 922 H 95.5393 -3.23215 -3.01636 0
M  V30 923 N 94.5984 0.214957 -1.56127 0
M  V30 924 C 95.8264 0.955092 -1.83536 0
M  V30 925 C 96.2414 1.77677 -0.638472 0
M  V30 926 O 95.5984 1.78219 0.392968 0
M  V30 927 C 95.6494 1.86734 -3.09536 0
M  V30 928 O 95.3704 1.07887 -4.24608 0
M  V30 929 C 96.8714 2.72082 -3.4998 0
M  V30 930 H 94.0914 0.279611 -0.609966 0
M  V30 931 H 96.6354 0.228197 -2.03223 0
M  V30 932 H 94.7904 2.5481 -2.91806 0
M  V30 933 H 95.2044 1.69872 -4.9623 0
M  V30 934 H 96.6784 3.31782 -4.41163 0
M  V30 935 H 97.1554 3.44806 -2.7204 0
M  V30 936 H 97.7614 2.09409 -3.70173 0
M  V30 937 N 96.0765 1.50051 0.48192 0
M  V30 938 C 97.3225 1.61706 1.2338 0
M  V30 939 C 97.6775 0.308488 1.89911 0
M  V30 940 O 96.9705 -0.692798 1.78636 0
M  V30 941 C 97.1645 2.72717 2.30998 0
M  V30 942 C 96.9935 4.14242 1.75024 0
M  V30 943 C 95.7635 4.80786 1.55476 0
M  V30 944 C 97.9615 4.98846 1.25128 0
M  V30 945 N 95.9435 6.06563 0.946311 0
M  V30 946 C 97.3145 6.15258 0.765382 0
M  V30 947 C 99.3695 4.84702 1.13881 0
M  V30 948 C 98.0725 7.19079 0.178113 0
M  V30 949 C 100.098 5.8869 0.565486 0
M  V30 950 C 99.4605 7.04343 0.0899105 0
M  V30 951 H 95.5595 0.645958 0.440753 0
M  V30 952 H 98.1435 1.8713 0.537624 0
M  V30 953 H 96.3145 2.49033 2.98055 0
M  V30 954 H 98.0465 2.73789 2.9803 0
M  V30 955 H 94.8015 4.37899 1.80392 0
M  V30 956 H 95.2255 6.73767 0.660812 0
M  V30 957 H 99.8675 3.95583 1.49244 0
M  V30 958 H 97.5855 8.07882 -0.187749 0
M  V30 959 H 101.171 5.79808 0.480974 0
M  V30 960 H 100.051 7.83433 -0.346782 0
M  V30 961 N 97.5546 -0.734337 1.39446 0
M  V30 962 C 98.5026 -1.86971 1.38364 0
M  V30 963 C 99.4966 -1.67288 0.266687 0
M  V30 964 O 100.703 -1.74621 0.436755 0
M  V30 965 H 97.0776 -0.615474 0.432082 0
M  V30 966 H 99.0486 -1.85 2.34132 0
M  V30 967 C 97.7976 -3.2466 1.24465 0
M  V30 968 H 97.1206 -3.40402 2.09682 0
M  V30 969 H 98.5606 -4.04292 1.27764 0
M  V30 970 C 97.0196 -3.36867 -0.0468674 0
M  V30 971 O 97.5496 -3.88618 -1.01681 0
M  V30 972 N 95.7556 -2.90391 -0.110145 0
M  V30 973 H 95.3026 -2.48466 0.679868 0
M  V30 974 H 95.2606 -2.98939 -0.973799 0
M  V30 975 N 99.0327 -1.24633 -0.964593 0
M  V30 976 C 99.9797 -1.04144 -2.05968 0
M  V30 977 C 100.95 0.046262 -1.66036 0
M  V30 978 O 102.135 -0.108972 -1.90489 0
M  V30 979 C 99.2747 -0.65563 -3.38815 0
M  V30 980 C 98.3877 -1.81714 -3.91923 0
M  V30 981 C 97.5227 -1.37662 -5.13052 0
M  V30 982 C 96.5617 -2.50788 -5.58365 0
M  V30 983 N 95.6987 -2.07582 -6.70712 0
M  V30 984 H 100.539 -1.9787 -2.22827 0
M  V30 985 H 98.0757 -0.9855 -1.09208 0
M  V30 986 H 100.034 -0.412954 -4.15151 0
M  V30 987 H 98.6637 0.244627 -3.21872 0
M  V30 988 H 97.7157 -2.1734 -3.12198 0
M  V30 989 H 99.0277 -2.66705 -4.21509 0
M  V30 990 H 98.1817 -1.093 -5.96773 0
M  V30 991 H 96.9207 -0.497293 -4.85158 0
M  V30 992 H 95.9257 -2.79906 -4.73215 0
M  V30 993 H 97.1507 -3.39283 -5.88272 0
M  V30 994 H 95.0967 -1.22051 -6.44546 0
M  V30 995 H 95.0137 -2.86125 -6.99763 0
M  V30 996 H 96.2817 -1.82369 -7.57867 0
M  V30 997 N 100.511 1.16574 -1.06058 0
M  V30 998 C 101.458 2.20883 -0.669263 0
M  V30 999 C 102.428 1.62729 0.332918 0
M  V30 1000 O 103.613 1.895 0.222346 0
M  V30 1001 C 100.753 3.45049 -0.0593572 0
M  V30 1002 C 99.8658 4.17458 -1.11143 0
M  V30 1003 C 99.0008 5.29135 -0.467916 0
M  V30 1004 C 98.0398 5.93343 -1.50369 0
M  V30 1005 N 97.1768 6.96516 -0.883706 0
M  V30 1006 H 102.017 2.53709 -1.5632 0
M  V30 1007 H 99.5538 1.24616 -0.781625 0
M  V30 1008 H 101.512 4.16033 0.311771 0
M  V30 1009 H 100.142 3.12781 0.797992 0
M  V30 1010 H 99.1938 3.45101 -1.60029 0
M  V30 1011 H 100.506 4.61307 -1.89731 0
M  V30 1012 H 99.6598 6.06684 -0.0436871 0
M  V30 1013 H 98.3988 4.86443 0.349864 0
M  V30 1014 H 97.4038 5.14517 -1.93784 0
M  V30 1015 H 98.6288 6.38114 -2.32352 0
M  V30 1016 H 96.5748 6.55943 -0.086595 0
M  V30 1017 H 96.4918 7.38723 -1.607 0
M  V30 1018 H 97.7598 7.77993 -0.484543 0
M  V30 1019 N 101.989 0.842826 1.3317 0
M  V30 1020 C 103.237 0.439577 1.97262 0
M  V30 1021 C 103.558 -1.00548 1.67078 0
M  V30 1022 O 102.828 -1.70098 0.971779 0
M  V30 1023 H 101.408 0.159558 0.72976 0
M  V30 1024 H 104.07 1.07665 1.62463 0
M  V30 1025 H 103.166 0.574886 3.0676 0
M  V30 1026 N 103.467 -1.45747 0.599634 0
M  V30 1027 C 104.414 -2.30467 -0.123849 0
M  V30 1028 C 105.384 -1.41632 -0.86774 0
M  V30 1029 O 106.569 -1.70568 -0.855056 0
M  V30 1030 C 103.709 -3.26402 -1.12051 0
M  V30 1031 C 102.822 -4.3034 -0.37832 0
M  V30 1032 C 101.957 -5.13389 -1.364 0
M  V30 1033 C 100.996 -6.09061 -0.609171 0
M  V30 1034 N 100.133 -6.84918 -1.54374 0
M  V30 1035 H 104.973 -2.91802 0.604627 0
M  V30 1036 H 102.51 -1.43797 0.309972 0
M  V30 1037 H 104.468 -3.80482 -1.7114 0
M  V30 1038 H 103.098 -2.66839 -1.8165 0
M  V30 1039 H 102.15 -3.78984 0.327929 0
M  V30 1040 H 103.462 -4.98354 0.210997 0
M  V30 1041 H 102.616 -5.7183 -2.02719 0
M  V30 1042 H 101.355 -4.45376 -1.98725 0
M  V30 1043 H 100.36 -5.49758 0.0676979 0
M  V30 1044 H 101.585 -6.79099 0.00891991 0
M  V30 1045 H 99.531 -6.19601 -2.15478 0
M  V30 1046 H 99.448 -7.49254 -1.00766 0
M  V30 1047 H 100.716 -7.47906 -2.19676 0
M  V30 1048 N 104.945 -0.338344 -1.53925 0
M  V30 1049 C 105.892 0.520845 -2.24846 0
M  V30 1050 C 106.862 1.09976 -1.24477 0
M  V30 1051 O 108.047 1.13735 -1.53196 0
M  V30 1052 C 105.187 1.6685 -3.02084 0
M  V30 1053 C 104.3 1.11739 -4.17299 0
M  V30 1054 C 103.435 2.23193 -4.82036 0
M  V30 1055 C 102.474 1.65407 -5.89328 0
M  V30 1056 N 101.611 2.70582 -6.47866 0
M  V30 1057 H 106.451 -0.0904881 -2.97863 0
M  V30 1058 H 103.988 -0.0564282 -1.46992 0
M  V30 1059 H 105.946 2.34407 -3.45122 0
M  V30 1060 H 104.576 2.2509 -2.31375 0
M  V30 1061 H 103.628 0.332919 -3.7894 0
M  V30 1062 H 104.94 0.654677 -4.94485 0
M  V30 1063 H 104.094 2.98626 -5.28117 0
M  V30 1064 H 102.833 2.72807 -4.04262 0
M  V30 1065 H 101.838 0.884779 -5.42634 0
M  V30 1066 H 103.063 1.16652 -6.69006 0
M  V30 1067 H 101.009 3.1946 -5.72959 0
M  V30 1068 H 100.926 2.28917 -7.20509 0
M  V30 1069 H 102.194 3.45799 -6.98601 0
M  V30 1070 N 106.423 1.57458 -0.0668435 0
M  V30 1071 C 107.669 1.93587 0.6043 0
M  V30 1072 C 108.002 0.946722 1.69561 0
M  V30 1073 O 107.277 -0.0248516 1.94484 0
M  V30 1074 C 107.56 3.40014 1.18585 0
M  V30 1075 C 107.413 4.49685 0.101529 0
M  V30 1076 C 108.732 3.87154 2.09284 0
M  V30 1077 H 105.851 0.703958 0.218202 0
M  V30 1078 H 108.493 1.89542 -0.131804 0
M  V30 1079 H 106.643 3.43592 1.81319 0
M  V30 1080 H 108.315 4.5823 -0.531279 0
M  V30 1081 H 106.558 4.30059 -0.568487 0
M  V30 1082 H 107.229 5.49266 0.54874 0
M  V30 1083 H 109.705 3.85551 1.56491 0
M  V30 1084 H 108.581 4.90231 2.46911 0
M  V30 1085 H 108.842 3.2481 2.99918 0
M  V30 1086 N 107.901 -0.206675 1.56239 0
M  V30 1087 C 108.849 -1.27571 1.94495 0
M  V30 1088 C 109.843 -1.47737 0.828862 0
M  V30 1089 O 111.049 -1.48735 1.0138 0
M  V30 1090 H 107.424 -0.428029 0.6183 0
M  V30 1091 H 109.395 -0.925961 2.8367 0
M  V30 1092 C 108.144 -2.61568 2.29079 0
M  V30 1093 H 107.467 -2.46863 3.14482 0
M  V30 1094 H 108.907 -3.35144 2.5972 0
M  V30 1095 C 107.366 -3.17695 1.12123 0
M  V30 1096 O 107.896 -3.99801 0.390153 0
M  V30 1097 N 106.102 -2.76276 0.901097 0
M  V30 1098 H 105.649 -2.09613 1.49733 0
M  V30 1099 H 105.607 -3.1417 0.120319 0
M  V30 1100 N 109.379 -1.50304 -0.473955 0
M  V30 1101 C 110.604 -1.65175 -1.25427 0
M  V30 1102 C 111.029 -0.333673 -1.85117 0
M  V30 1103 O 110.387 0.702114 -1.67153 0
M  V30 1104 C 110.435 -2.74295 -2.34082 0
M  V30 1105 O 109.539 -2.35349 -3.38651 0
M  V30 1106 H 108.88 -0.551944 -0.369126 0
M  V30 1107 H 111.41 -1.96662 -0.564364 0
M  V30 1108 H 111.42 -2.97285 -2.79438 0
M  V30 1109 H 110.095 -3.69959 -1.90008 0
M  V30 1110 H 108.672 -2.22794 -2.99027 0
M  V30 1111 N 110.857 0.726932 -1.39834 0
M  V30 1112 C 111.789 1.85147 -1.35104 0
M  V30 1113 C 112.802 1.60736 -0.258392 0
M  V30 1114 O 113.991 1.70821 -0.517931 0
M  V30 1115 C 111.091 3.21332 -1.07697 0
M  V30 1116 C 110.264 3.73033 -2.28396 0
M  V30 1117 C 109.323 4.87802 -1.97322 0
M  V30 1118 O 108.349 5.01043 -2.70083 0
M  V30 1119 N 109.551 5.72768 -0.944273 0
M  V30 1120 H 112.316 1.89706 -2.32017 0
M  V30 1121 H 109.877 0.908006 -1.3404 0
M  V30 1122 H 111.869 3.95691 -0.849144 0
M  V30 1123 H 110.439 3.11992 -0.194909 0
M  V30 1124 H 109.659 2.89934 -2.6708 0
M  V30 1125 H 110.947 4.0431 -3.08887 0
M  V30 1126 H 110.345 5.64669 -0.341427 0
M  V30 1127 H 108.902 6.4716 -0.776346 0
M  V30 1128 N 112.336 1.25143 0.95797 0
M  V30 1129 C 113.752 1.01892 1.22842 0
M  V30 1130 C 113.952 -0.266311 1.99732 0
M  V30 1131 O 113.008 -0.979913 2.3271 0
M  V30 1132 C 114.321 2.24004 2.00606 0
M  V30 1133 C 115.869 2.28731 2.13662 0
M  V30 1134 C 116.344 3.5049 2.94823 0
M  V30 1135 N 117.835 3.50866 3.02403 0
M  V30 1136 C 118.57 4.4174 3.65586 0
M  V30 1137 N 118.066 5.42882 4.30408 0
M  V30 1138 N 119.859 4.29429 3.62694 0
M  V30 1139 H 112.01 2.07718 0.443493 0
M  V30 1140 H 114.273 0.912031 0.258657 0
M  V30 1141 H 113.979 3.17395 1.51503 0
M  V30 1142 H 113.853 2.26907 3.01319 0
M  V30 1143 H 116.24 1.35865 2.61963 0
M  V30 1144 H 116.321 2.29848 1.12265 0
M  V30 1145 H 115.965 4.43676 2.47213 0
M  V30 1146 H 115.895 3.46617 3.96439 0
M  V30 1147 H 118.386 2.777 2.56302 0
M  V30 1148 H 118.699 6.0844 4.76467 0
M  V30 1149 H 117.044 5.46758 4.29047 0
M  V30 1150 H 120.235 3.49643 3.11236 0
M  V30 1151 H 120.408 5.00448 4.1165 0
M  V30 1152 N 113.814 -1.1601 1.06675 0
M  V30 1153 C 115.061 -1.86633 0.785781 0
M  V30 1154 C 115.389 -1.81929 -0.687896 0
M  V30 1155 O 114.644 -1.23253 -1.52011 0
M  V30 1156 C 114.943 -3.35547 1.23057 0
M  V30 1157 C 114.609 -3.60448 2.70902 0
M  V30 1158 C 113.271 -3.66954 3.11285 0
M  V30 1159 C 115.623 -3.7071 3.66365 0
M  V30 1160 C 112.951 -3.81225 4.45965 0
M  V30 1161 C 115.303 -3.86503 5.00797 0
M  V30 1162 C 113.967 -3.91252 5.40813 0
M  V30 1163 H 113.237 -0.682937 0.287538 0
M  V30 1164 H 115.884 -1.37146 1.33654 0
M  V30 1165 H 114.189 -3.87193 0.59907 0
M  V30 1166 H 115.886 -3.88583 0.990163 0
M  V30 1167 H 112.476 -3.56021 2.38636 0
M  V30 1168 H 116.66 -3.64991 3.36296 0
M  V30 1169 H 111.916 -3.83155 4.76447 0
M  V30 1170 H 116.09 -3.93385 5.74649 0
M  V30 1171 H 113.717 -4.02062 6.45174 0
M  V30 1172 N 115.292 -0.849877 -1.32721 0
M  V30 1173 C 116.202 -0.293791 -2.32753 0
M  V30 1174 C 117.218 0.585906 -1.63839 0
M  V30 1175 O 118.394 0.487413 -1.95413 0
M  V30 1176 C 115.459 0.512752 -3.42887 0
M  V30 1177 C 114.52 -0.39252 -4.27502 0
M  V30 1178 C 113.753 0.375625 -5.32377 0
M  V30 1179 O 113.976 1.60613 -5.4732 0
M  V30 1180 O 112.91 -0.256094 -6.01355 0
M  V30 1181 H 116.736 -1.12242 -2.82197 0
M  V30 1182 H 114.321 -0.612685 -1.36259 0
M  V30 1183 H 116.203 0.970704 -4.10067 0
M  V30 1184 H 114.878 1.31826 -2.95641 0
M  V30 1185 H 113.785 -0.898547 -3.63149 0
M  V30 1186 H 115.118 -1.16309 -4.7826 0
M  V30 1187 N 116.77 1.45427 -0.607355 0
M  V30 1188 C 117.998 2.06614 -0.108814 0
M  V30 1189 C 118.413 1.45204 1.2067 0
M  V30 1190 O 117.77 0.566132 1.73497 0
M  V30 1191 C 117.821 3.61481 0.0375347 0
M  V30 1192 O 117.542 4.20598 -1.22593 0
M  V30 1193 C 119.043 4.39652 0.567561 0
M  V30 1194 H 116.263 0.66747 -0.0687351 0
M  V30 1195 H 118.807 1.86675 -0.835022 0
M  V30 1196 H 116.962 3.80762 0.714068 0
M  V30 1197 H 117.376 5.1377 -1.05547 0
M  V30 1198 H 118.85 5.48518 0.61905 0
M  V30 1199 H 119.327 4.09417 1.58978 0
M  V30 1200 H 119.933 4.25234 -0.0749202 0
M  V30 1201 N 118.248 0.346503 1.53744 0
M  V30 1202 C 119.497 -0.250122 2.00143 0
M  V30 1203 C 119.81 -1.51418 1.23822 0
M  V30 1204 O 121.016 -2.18823 1.60713 0
M  V30 1205 C 119.472 -0.496252 3.56462 0
M  V30 1206 C 119.08 0.752077 4.41642 0
M  V30 1207 C 120.824 -1.05157 4.11269 0
M  V30 1208 C 118.731 0.476583 5.89477 0
M  V30 1209 H 117.661 -0.0972409 0.747703 0
M  V30 1210 H 120.312 0.46229 1.77581 0
M  V30 1211 H 118.694 -1.26944 3.75102 0
M  V30 1212 H 119.868 1.5266 4.34778 0
M  V30 1213 H 118.183 1.22925 3.97842 0
M  V30 1214 H 120.78 -1.27269 5.19333 0
M  V30 1215 H 121.123 -2.00799 3.64672 0
M  V30 1216 H 121.656 -0.339019 3.96353 0
M  V30 1217 H 118.395 1.4028 6.40314 0
M  V30 1218 H 117.915 -0.259794 5.99237 0
M  V30 1219 H 119.594 0.0949315 6.4693 0
M  V30 1220 N 119.726 -1.57421 0.075193 0
M  V30 1221 C 120.636 -2.1642 -0.905511 0
M  V30 1222 C 121.652 -1.12828 -1.32461 0
M  V30 1223 O 122.828 -1.45109 -1.39661 0
M  V30 1224 C 119.893 -2.71693 -2.15369 0
M  V30 1225 C 118.954 -3.90171 -1.79068 0
M  V30 1226 C 118.187 -4.42798 -2.97936 0
M  V30 1227 O 118.41 -3.94416 -4.12058 0
M  V30 1228 O 117.344 -5.34085 -2.77555 0
M  V30 1229 H 121.17 -3.00588 -0.433626 0
M  V30 1230 H 118.755 -1.48664 -0.148067 0
M  V30 1231 H 120.637 -3.07104 -2.88557 0
M  V30 1232 H 119.312 -1.90582 -2.61649 0
M  V30 1233 H 118.219 -3.59606 -1.03122 0
M  V30 1234 H 119.552 -4.72584 -1.37569 0
M  V30 1235 N 121.204 0.198386 -1.56346 0
M  V30 1236 C 122.451 0.919286 -1.80431 0
M  V30 1237 C 122.779 1.83393 -0.647866 0
M  V30 1238 O 122.034 1.92236 0.366556 0
M  V30 1239 C 122.333 1.77031 -3.10475 0
M  V30 1240 C 121.999 1.00693 -4.39513 0
M  V30 1241 C 120.661 0.796145 -4.74568 0
M  V30 1242 C 123.013 0.469559 -5.19081 0
M  V30 1243 C 120.341 0.0364588 -5.86689 0
M  V30 1244 C 122.693 -0.2769 -6.31994 0
M  V30 1245 C 121.357 -0.49873 -6.65634 0
M  V30 1246 H 120.627 0.336391 -0.660244 0
M  V30 1247 H 123.274 0.185872 -1.90596 0
M  V30 1248 H 121.579 2.5723 -2.95533 0
M  V30 1249 H 123.276 2.33065 -3.26315 0
M  V30 1250 H 119.866 1.18122 -4.12001 0
M  V30 1251 H 124.05 0.619816 -4.92414 0
M  V30 1252 H 119.306 -0.145412 -6.11227 0
M  V30 1253 H 123.48 -0.700684 -6.92866 0
M  V30 1254 H 121.107 -1.0893 -7.52355 0
M  V30 1255 N 122.682 1.50554 0.465978 0
M  V30 1256 C 123.959 1.5232 1.22712 0
M  V30 1257 C 124.339 0.270807 2.09356 0
M  V30 1258 O 123.687 -0.745541 2.15995 0
M  V30 1259 C 123.897 2.82175 2.05374 0
M  V30 1260 C 125.245 3.33033 2.6339 0
M  V30 1261 O 126.269 2.83531 2.15612 0
M  V30 1262 O 125.128 4.19336 3.50456 0
M  V30 1263 H 122.222 0.611183 0.557122 0
M  V30 1264 H 124.768 1.62847 0.477381 0
M  V30 1265 H 123.54 3.64797 1.41558 0
M  V30 1266 H 123.163 2.74675 2.87471 0
M  V30 1267 N 124.16 -0.719506 1.40217 0
M  V30 1268 C 125.07 -1.86378 1.42479 0
M  V30 1269 C 126.086 -1.71073 0.317834 0
M  V30 1270 O 127.262 -1.93406 0.561794 0
M  V30 1271 C 124.327 -3.22136 1.28178 0
M  V30 1272 C 123.388 -3.49723 2.48982 0
M  V30 1273 C 122.621 -4.79004 2.35353 0
M  V30 1274 O 122.844 -5.53821 1.36524 0
M  V30 1275 O 121.778 -5.06839 3.2465 0
M  V30 1276 H 125.604 -1.87425 2.38968 0
M  V30 1277 H 123.189 -0.869405 1.21498 0
M  V30 1278 H 125.071 -4.03234 1.22395 0
M  V30 1279 H 123.746 -3.21825 0.347934 0
M  V30 1280 H 122.653 -2.6865 2.60342 0
M  V30 1281 H 123.986 -3.54828 3.41113 0
M  V30 1282 N 125.638 -1.25649 -0.95132 0
M  V30 1283 C 126.863 -1.13443 -1.73624 0
M  V30 1284 C 127.288 0.307565 -1.85568 0
M  V30 1285 O 126.646 1.22282 -1.33854 0
M  V30 1286 C 126.694 -1.79723 -3.12621 0
M  V30 1287 O 125.798 -1.07912 -3.98031 0
M  V30 1288 H 125.139 -0.395872 -0.533086 0
M  V30 1289 H 127.669 -1.66276 -1.1922 0
M  V30 1290 H 127.679 -1.86141 -3.63064 0
M  V30 1291 H 126.354 -2.84633 -3.03244 0
M  V30 1292 H 124.931 -1.09398 -3.56492 0
M  V30 1293 N 127.117 1.15442 -1.07289 0
M  V30 1294 C 128.08 2.18358 -0.696591 0
M  V30 1295 C 129.08 1.58637 0.262837 0
M  V30 1296 O 130.27 1.74145 0.0438809 0
M  V30 1297 C 127.402 3.4089 -0.0266151 0
M  V30 1298 H 128.595 2.53162 -1.60776 0
M  V30 1299 H 126.148 1.29893 -0.869342 0
M  V30 1300 H 126.883 3.11653 0.896822 0
M  V30 1301 H 126.668 3.85495 -0.716657 0
M  V30 1302 H 128.158 4.17009 0.222028 0
M  V30 1303 N 128.595 0.856903 1.32268 0
M  V30 1304 C 129.843 0.460474 1.96784 0
M  V30 1305 C 130.164 -0.987701 1.68135 0
M  V30 1306 O 129.434 -1.69058 0.989765 0
M  V30 1307 H 128.014 0.167289 0.728027 0
M  V30 1308 H 130.676 1.09383 1.61312 0
M  V30 1309 H 129.772 0.60739 3.06133 0
M  V30 1310 N 130.073 -1.45103 0.615059 0
M  V30 1311 C 131.036 -2.29025 -0.0895485 0
M  V30 1312 C 132.036 -1.40174 -0.787906 0
M  V30 1313 O 133.226 -1.62217 -0.634933 0
M  V30 1314 C 130.358 -3.21376 -1.13711 0
M  V30 1315 H 131.551 -2.92807 0.648382 0
M  V30 1316 H 129.104 -1.51749 0.374444 0
M  V30 1317 H 129.839 -2.6241 -1.90556 0
M  V30 1318 H 129.624 -3.86834 -0.640475 0
M  V30 1319 H 131.114 -3.84459 -1.63036 0
M  V30 1320 N 131.551 -0.354651 -1.53558 0
M  V30 1321 C 132.797 0.238797 -2.01389 0
M  V30 1322 C 133.13 1.49309 -1.2418 0
M  V30 1323 O 132.405 1.91638 -0.332457 0
M  V30 1324 C 132.688 0.541771 -3.56001 0
M  V30 1325 C 132.541 -0.725388 -4.43912 0
M  V30 1326 C 133.86 1.34685 -4.18984 0
M  V30 1327 H 130.979 0.0853177 -0.732045 0
M  V30 1328 H 133.621 -0.477384 -1.83905 0
M  V30 1329 H 131.771 1.15189 -3.71031 0
M  V30 1330 H 133.443 -1.36313 -4.407 0
M  V30 1331 H 131.686 -1.34801 -4.12324 0
M  V30 1332 H 132.357 -0.468505 -5.50008 0
M  V30 1333 H 134.833 0.830837 -4.07721 0
M  V30 1334 H 133.709 1.52759 -5.27215 0
M  V30 1335 H 133.97 2.35221 -3.74331 0
M  V30 1336 N 133.029 1.57378 -0.0835403 0
M  V30 1337 C 133.959 2.1641 0.87686 0
M  V30 1338 C 134.94 1.09429 1.30228 0
M  V30 1339 O 136.125 1.37516 1.37124 0
M  V30 1340 C 133.255 2.73517 2.14022 0
M  V30 1341 C 132.209 3.85769 1.85381 0
M  V30 1342 C 131.535 4.29529 3.18448 0
M  V30 1343 C 132.835 5.09486 1.14984 0
M  V30 1344 H 134.529 2.96914 0.385059 0
M  V30 1345 H 132.075 1.42823 0.18377 0
M  V30 1346 H 134.028 3.13463 2.81636 0
M  V30 1347 H 132.752 1.90252 2.65465 0
M  V30 1348 H 131.411 3.46345 1.20169 0
M  V30 1349 H 131.059 3.43169 3.67755 0
M  V30 1350 H 130.759 5.05204 3.00071 0
M  V30 1351 H 132.283 4.72099 3.8724 0
M  V30 1352 H 133.697 5.46674 1.72687 0
M  V30 1353 H 132.094 5.90515 1.06826 0
M  V30 1354 H 133.164 4.84724 0.130749 0
M  V30 1355 N 134.507 -0.190092 1.56449 0
M  V30 1356 C 135.923 -0.54113 1.50146 0
M  V30 1357 C 136.123 -1.85603 0.784465 0
M  V30 1358 O 135.179 -2.5024 0.337051 0
M  V30 1359 C 136.492 -0.591241 2.9483 0
M  V30 1360 C 138.04 -0.679732 3.0553 0
M  V30 1361 C 138.515 -0.760908 4.51635 0
M  V30 1362 N 140.006 -0.824302 4.55806 0
M  V30 1363 C 140.741 -0.907365 5.66175 0
M  V30 1364 N 140.237 -0.952422 6.86222 0
M  V30 1365 N 142.03 -0.94494 5.541 0
M  V30 1366 H 134.181 0.67235 2.01478 0
M  V30 1367 H 136.444 0.240127 0.917084 0
M  V30 1368 H 136.15 0.305905 3.50367 0
M  V30 1369 H 136.024 -1.44422 3.48457 0
M  V30 1370 H 138.411 -1.56731 2.50039 0
M  V30 1371 H 138.492 0.199549 2.5502 0
M  V30 1372 H 138.136 0.122336 5.07753 0
M  V30 1373 H 138.066 -1.65606 4.99882 0
M  V30 1374 H 140.557 -0.798526 3.69367 0
M  V30 1375 H 140.87 -1.01645 7.66086 0
M  V30 1376 H 139.215 -0.921014 6.8887 0
M  V30 1377 H 142.406 -0.906612 4.59236 0
M  V30 1378 H 142.579 -1.00622 6.4014 0
M  V30 1379 N 135.985 -1.50799 -0.457987 0
M  V30 1380 C 137.234 -1.6168 -1.20593 0
M  V30 1381 C 137.547 -0.32888 -1.92815 0
M  V30 1382 O 138.753 -0.316773 -2.69646 0
M  V30 1383 C 137.209 -2.8545 -2.19195 0
M  V30 1384 C 136.817 -4.21168 -1.52715 0
M  V30 1385 C 138.561 -3.05681 -2.94549 0
M  V30 1386 C 136.468 -5.3611 -2.4968 0
M  V30 1387 H 135.398 -0.602134 -0.453818 0
M  V30 1388 H 138.049 -1.77245 -0.475031 0
M  V30 1389 H 136.431 -2.63472 -2.95632 0
M  V30 1390 H 137.605 -4.53449 -0.819775 0
M  V30 1391 H 135.92 -4.06648 -0.895922 0
M  V30 1392 H 138.517 -3.88727 -3.67145 0
M  V30 1393 H 138.86 -2.17929 -3.54701 0
M  V30 1394 H 139.393 -3.27901 -2.25223 0
M  V30 1395 H 136.132 -6.26057 -1.94249 0
M  V30 1396 H 135.652 -5.0823 -3.18532 0
M  V30 1397 H 137.331 -5.6722 -3.11241 0
M  V30 1398 N 137.463 0.71206 -1.40597 0
M  V30 1399 C 138.395 1.83704 -1.37061 0
M  V30 1400 C 139.408 1.60453 -0.275426 0
M  V30 1401 O 140.597 1.70262 -0.53602 0
M  V30 1402 C 137.697 3.20172 -1.11099 0
M  V30 1403 C 136.87 3.7059 -2.3234 0
M  V30 1404 C 135.929 4.85681 -2.02485 0
M  V30 1405 O 134.955 4.9815 -2.75382 0
M  V30 1406 N 136.157 5.71735 -1.00497 0
M  V30 1407 H 138.922 1.87235 -2.34016 0
M  V30 1408 H 136.483 0.893739 -1.34996 0
M  V30 1409 H 138.475 3.94768 -0.891064 0
M  V30 1410 H 137.045 3.11767 -0.227989 0
M  V30 1411 H 136.265 2.87085 -2.7014 0
M  V30 1412 H 137.553 4.01011 -3.13157 0
M  V30 1413 H 136.951 5.64275 -0.401298 0
M  V30 1414 H 135.508 6.463 -0.844942 0
M  V30 1415 N 138.941 1.26152 0.944643 0
M  V30 1416 C 140.352 1.10454 1.50522 0
M  V30 1417 C 140.703 -0.31635 1.93633 0
M  V30 1418 O 139.828 -1.20746 1.79581 0
M  V30 1419 C 140.423 1.99891 2.73549 0
M  V30 1420 C 138.982 1.88348 3.25886 0
M  V30 1421 C 138.129 1.93447 1.9868 0
M  V30 1422 H 141.08 1.39292 0.760489 0
M  V30 1423 H 141.101 1.54477 3.47732 0
M  V30 1424 H 140.613 3.03297 2.42141 0
M  V30 1425 H 138.714 0.878636 3.62092 0
M  V30 1426 H 138.827 2.73696 3.93227 0
M  V30 1427 H 137.191 1.37456 2.14425 0
M  V30 1428 H 137.974 2.98476 1.69607 0
M  V30 1429 N 140.419 -1.14872 1.07899 0
M  V30 1430 C 141.349 -2.2193 0.725887 0
M  V30 1431 C 142.33 -1.67622 -0.28927 0
M  V30 1432 O 143.515 -1.93533 -0.160787 0
M  V30 1433 C 140.645 -3.47061 0.128856 0
M  V30 1434 C 139.599 -4.14363 1.07178 0
M  V30 1435 C 138.925 -5.33636 0.337229 0
M  V30 1436 C 140.225 -4.63492 2.40775 0
M  V30 1437 H 141.919 -2.51724 1.62097 0
M  V30 1438 H 139.465 -1.20991 0.780838 0
M  V30 1439 H 141.418 -4.21199 -0.130147 0
M  V30 1440 H 140.142 -3.16617 -0.80134 0
M  V30 1441 H 138.801 -3.42173 1.3158 0
M  V30 1442 H 138.449 -4.99449 -0.596606 0
M  V30 1443 H 138.149 -5.79609 0.965788 0
M  V30 1444 H 139.673 -6.10539 0.0861567 0
M  V30 1445 H 141.087 -5.2913 2.20669 0
M  V30 1446 H 139.484 -5.20148 2.99276 0
M  V30 1447 H 140.554 -3.78834 3.02676 0
M  V30 1448 N 141.898 -0.863906 -1.31812 0
M  V30 1449 C 143.314 -0.555004 -1.49639 0
M  V30 1450 C 143.514 0.912266 -1.79666 0
M  V30 1451 O 142.57 1.69479 -1.87171 0
M  V30 1452 C 143.883 -1.44998 -2.63431 0
M  V30 1453 C 145.431 -1.45138 -2.77316 0
M  V30 1454 C 145.906 -2.33179 -3.94197 0
M  V30 1455 N 147.397 -2.31025 -4.01474 0
M  V30 1456 C 148.132 -2.95871 -4.9117 0
M  V30 1457 N 147.628 -3.69863 -5.8581 0
M  V30 1458 N 149.421 -2.85211 -4.84367 0
M  V30 1459 H 141.572 -1.81339 -1.10589 0
M  V30 1460 H 143.835 -0.77505 -0.545895 0
M  V30 1461 H 143.541 -2.49377 -2.48 0
M  V30 1462 H 143.415 -1.14409 -3.59431 0
M  V30 1463 H 145.802 -0.415201 -2.92164 0
M  V30 1464 H 145.883 -1.79747 -1.82001 0
M  V30 1465 H 145.527 -3.3687 -3.80107 0
M  V30 1466 H 145.457 -1.95897 -4.88807 0
M  V30 1467 H 147.948 -1.77238 -3.33759 0
M  V30 1468 H 148.261 -4.16486 -6.50968 0
M  V30 1469 H 146.606 -3.73971 -5.85808 0
M  V30 1470 H 149.797 -2.26948 -4.09405 0
M  V30 1471 H 149.97 -3.36027 -5.54066 0
M  V30 1472 N 143.376 1.44774 -0.622745 0
M  V30 1473 C 144.604 2.06487 -0.130722 0
M  V30 1474 C 145.019 1.46476 1.19123 0
M  V30 1475 O 144.376 0.584502 1.72887 0
M  V30 1476 C 144.427 3.615 -0.000807207 0
M  V30 1477 O 144.148 4.19274 -1.27048 0
M  V30 1478 C 145.649 4.40229 0.520898 0
M  V30 1479 H 142.869 0.666704 -0.0758106 0
M  V30 1480 H 145.413 1.85779 -0.854774 0
M  V30 1481 H 143.568 3.81498 0.673643 0
M  V30 1482 H 143.982 5.12622 -1.1099 0
M  V30 1483 H 145.456 5.49144 0.560838 0
M  V30 1484 H 145.933 4.1108 1.54627 0
M  V30 1485 H 146.539 4.25131 -0.120018 0
M  V30 1486 N 144.854 0.36279 1.53368 0
M  V30 1487 C 146.265 -0.117022 1.86333 0
M  V30 1488 C 146.616 -1.48397 1.28347 0
M  V30 1489 O 145.741 -2.07787 0.604428 0
M  V30 1490 C 146.336 -0.21912 3.38091 0
M  V30 1491 C 144.895 -0.643184 3.70864 0
M  V30 1492 C 144.042 0.211318 2.76494 0
M  V30 1493 H 146.993 0.581687 1.47655 0
M  V30 1494 H 147.014 -1.04319 3.6592 0
M  V30 1495 H 146.526 0.775902 3.80265 0
M  V30 1496 H 144.627 -1.64654 3.34245 0
M  V30 1497 H 144.74 -0.41973 4.77258 0
M  V30 1498 H 143.104 -0.319367 2.5269 0
M  V30 1499 H 143.887 1.20383 3.21501 0
M  V30 1500 N 146.332 -1.57332 0.0918853 0
M  V30 1501 C 147.748 -1.57389 -0.264766 0
M  V30 1502 C 147.948 -1.10281 -1.68643 0
M  V30 1503 O 147.004 -0.777801 -2.40222 0
M  V30 1504 C 148.317 -3.00648 -0.0561195 0
M  V30 1505 C 149.865 -3.12754 -0.124116 0
M  V30 1506 C 150.34 -4.57965 0.0564972 0
M  V30 1507 N 151.831 -4.632 0.00155611 0
M  V30 1508 C 152.566 -5.73281 0.116598 0
M  V30 1509 N 152.062 -6.92208 0.286294 0
M  V30 1510 N 153.855 -5.6207 0.0580973 0
M  V30 1511 H 146.006 -1.86262 1.02079 0
M  V30 1512 H 148.269 -0.859579 0.399786 0
M  V30 1513 H 147.975 -3.393 0.925669 0
M  V30 1514 H 147.849 -3.68623 -0.799823 0
M  V30 1515 H 150.236 -2.73976 -1.09641 0
M  V30 1516 H 150.317 -2.47377 0.651024 0
M  V30 1517 H 149.961 -4.97436 1.02564 0
M  V30 1518 H 149.891 -5.21399 -0.738297 0
M  V30 1519 H 152.382 -3.77686 -0.127192 0
M  V30 1520 H 152.695 -7.71934 0.365676 0
M  V30 1521 H 151.04 -6.94254 0.32192 0
M  V30 1522 H 154.231 -4.68043 -0.0733204 0
M  V30 1523 H 154.404 -6.47824 0.151203 0
M  V30 1524 N 147.81 0.181792 -1.56548 0
M  V30 1525 C 149.087 0.926765 -1.72251 0
M  V30 1526 C 149.467 2.00831 -0.650386 0
M  V30 1527 O 148.815 2.26008 0.336521 0
M  V30 1528 C 149.025 1.50106 -3.1507 0
M  V30 1529 C 150.373 1.97805 -3.75711 0
M  V30 1530 O 151.397 1.59922 -3.18282 0
M  V30 1531 O 150.256 2.67555 -4.76525 0
M  V30 1532 H 147.35 0.435506 -0.703039 0
M  V30 1533 H 149.896 0.170443 -1.68842 0
M  V30 1534 H 148.668 0.72212 -3.84579 0
M  V30 1535 H 148.291 2.32186 -3.22763 0
M  V30 1536 N 149.288 1.51039 0.449983 0
M  V30 1537 C 150.198 1.74261 1.57067 0
M  V30 1538 C 151.214 0.626363 1.62335 0
M  V30 1539 O 152.39 0.907162 1.79812 0
M  V30 1540 C 149.455 1.85114 2.93144 0
M  V30 1541 C 148.516 3.0893 2.98095 0
M  V30 1542 C 147.749 3.19256 4.27681 0
M  V30 1543 O 147.972 2.35835 5.19363 0
M  V30 1544 O 146.906 4.12144 4.38658 0
M  V30 1545 H 150.732 2.69303 1.40391 0
M  V30 1546 H 148.317 1.35389 0.631688 0
M  V30 1547 H 150.199 1.94311 3.73926 0
M  V30 1548 H 148.874 0.932588 3.09975 0
M  V30 1549 H 147.781 3.0522 2.16314 0
M  V30 1550 H 149.114 4.00433 2.86206 0
M  V30 1551 N 150.766 -0.704594 1.40972 0
M  V30 1552 C 151.714 -1.83994 1.42299 0
M  V30 1553 C 152.708 -1.66684 0.302111 0
M  V30 1554 O 153.914 -1.73655 0.473697 0
M  V30 1555 H 150.289 -0.606171 0.44504 0
M  V30 1556 H 152.26 -1.79992 2.38003 0
M  V30 1557 C 151.009 -3.21946 1.31323 0
M  V30 1558 H 150.332 -3.35878 2.16855 0
M  V30 1559 H 151.772 -4.01491 1.36311 0
M  V30 1560 C 150.231 -3.36891 0.0245977 0
M  V30 1561 O 150.761 -3.90687 -0.934153 0
M  V30 1562 N 148.967 -2.90559 -0.0485243 0
M  V30 1563 H 148.514 -2.46968 0.732419 0
M  V30 1564 H 148.472 -3.00937 -0.910171 0
M  V30 1565 N 152.244 -1.26651 -0.937939 0
M  V30 1566 C 153.49 -1.12553 -1.687 0
M  V30 1567 C 153.823 0.329782 -1.91379 0
M  V30 1568 O 153.098 1.24202 -1.4968 0
M  V30 1569 C 153.381 -1.89862 -3.05981 0
M  V30 1570 C 153.234 -3.43318 -2.90607 0
M  V30 1571 C 154.553 -1.69499 -4.0615 0
M  V30 1572 H 151.672 -0.410257 -0.612257 0
M  V30 1573 H 154.314 -1.55685 -1.08913 0
M  V30 1574 H 152.464 -1.53204 -3.57017 0
M  V30 1575 H 154.136 -3.89747 -2.46769 0
M  V30 1576 H 152.379 -3.70179 -2.26164 0
M  V30 1577 H 153.05 -3.92642 -3.8799 0
M  V30 1578 H 155.526 -2.01442 -3.64088 0
M  V30 1579 H 154.402 -2.26002 -5.00214 0
M  V30 1580 H 154.663 -0.640365 -4.37438 0
M  V30 1581 N 153.722 1.14298 -1.08507 0
M  V30 1582 C 154.952 1.88945 -0.835663 0
M  V30 1583 C 155.36 1.78894 0.615928 0
M  V30 1584 O 154.703 1.1468 1.43506 0
M  V30 1585 C 154.765 3.39585 -1.17994 0
M  V30 1586 C 154.429 3.7342 -2.63451 0
M  V30 1587 C 155.426 3.73454 -3.61702 0
M  V30 1588 C 153.111 4.03368 -2.99332 0
M  V30 1589 C 155.105 4.02961 -4.93864 0
M  V30 1590 C 152.792 4.32538 -4.31687 0
M  V30 1591 C 153.79 4.32318 -5.28763 0
M  V30 1592 O 153.478 4.6078 -6.58739 0
M  V30 1593 H 153.21 0.605307 -0.300965 0
M  V30 1594 H 155.764 1.45673 -1.44806 0
M  V30 1595 H 153.994 3.83315 -0.51055 0
M  V30 1596 H 155.683 3.9554 -0.911182 0
M  V30 1597 H 156.449 3.50403 -3.35325 0
M  V30 1598 H 152.328 4.02692 -2.24411 0
M  V30 1599 H 155.872 4.02704 -5.69627 0
M  V30 1600 H 151.769 4.55059 -4.57812 0
M  V30 1601 H 152.537 4.78492 -6.64069 0
M  V30 1602 N 155.201 0.870884 1.31352 0
M  V30 1603 C 156.111 0.330783 2.32256 0
M  V30 1604 C 157.127 -0.559767 1.6475 0
M  V30 1605 O 158.303 -0.456263 1.96164 0
M  V30 1606 C 155.368 -0.458137 3.4366 0
M  V30 1607 C 154.429 0.460482 4.26823 0
M  V30 1608 C 153.662 -0.290881 5.32907 0
M  V30 1609 O 153.885 -1.51885 5.49806 0
M  V30 1610 O 152.819 0.351732 6.00871 0
M  V30 1611 H 156.645 1.16718 2.80376 0
M  V30 1612 H 154.23 0.634285 1.35267 0
M  V30 1613 H 156.112 -0.905343 4.1156 0
M  V30 1614 H 154.787 -1.27106 2.97701 0
M  V30 1615 H 153.694 0.956207 3.61673 0
M  V30 1616 H 155.027 1.23903 4.7635 0
M  V30 1617 N 156.679 -1.44442 0.630414 0
M  V30 1618 C 157.919 -2.03934 0.137919 0
M  V30 1619 C 158.283 -1.48509 -1.21692 0
M  V30 1620 O 159.484 -1.99499 -1.80149 0
M  V30 1621 C 157.755 -3.57187 0.123373 0
M  V30 1622 S 159.314 -4.37741 -0.304604 0
M  V30 1623 H 156.132 -0.708401 0.0607353 0
M  V30 1624 H 158.734 -1.76835 0.833643 0
M  V30 1625 H 157.438 -3.95032 1.11256 0
M  V30 1626 H 156.969 -3.88895 -0.59362 0
M  V30 1627 H 158.984 -4.71403 -1.54897 0
M  V30 1628 N 158.157 -0.370918 -1.53173 0
M  V30 1629 C 159.403 0.217423 -2.01631 0
M  V30 1630 C 159.736 1.47983 -1.25756 0
M  V30 1631 O 159.011 1.91274 -0.352764 0
M  V30 1632 C 159.294 0.503982 -3.56556 0
M  V30 1633 C 159.147 -0.77243 -4.43118 0
M  V30 1634 C 160.466 1.30234 -4.20389 0
M  V30 1635 H 157.585 0.0775486 -0.732909 0
M  V30 1636 H 160.227 -0.496863 -1.83388 0
M  V30 1637 H 158.377 1.11248 -3.72231 0
M  V30 1638 H 160.049 -1.4098 -4.39229 0
M  V30 1639 H 158.292 -1.39167 -4.10871 0
M  V30 1640 H 158.963 -0.526815 -5.4948 0
M  V30 1641 H 161.439 0.787546 -4.08579 0
M  V30 1642 H 160.315 1.47158 -5.28806 0
M  V30 1643 H 160.576 2.31237 -3.76805 0
M  V30 1644 N 159.635 1.57281 -0.100228 0
M  V30 1645 C 160.598 2.13158 0.842398 0
M  V30 1646 C 161.598 1.06202 1.20738 0
M  V30 1647 O 162.788 1.32066 1.13597 0
M  V30 1648 C 159.92 2.65639 2.13655 0
M  V30 1649 H 161.113 2.97766 0.357114 0
M  V30 1650 H 158.666 1.5559 0.148823 0
M  V30 1651 H 159.401 1.84566 2.66657 0
M  V30 1652 H 159.186 3.43844 1.88451 0
M  V30 1653 H 160.676 3.08846 2.81077 0
M  V30 1654 N 161.113 -0.173488 1.56642 0
M  V30 1655 C 162.045 -1.23935 1.92802 0
M  V30 1656 C 163.058 -1.40589 0.820889 0
M  V30 1657 O 164.247 -1.40631 1.09933 0
M  V30 1658 C 161.347 -2.60837 2.16373 0
M  V30 1659 C 160.52 -2.6551 3.47596 0
M  V30 1660 C 159.579 -3.8376 3.60021 0
M  V30 1661 O 158.605 -3.69859 4.32658 0
M  V30 1662 N 159.807 -5.00127 2.94709 0
M  V30 1663 H 162.572 -0.932236 2.84832 0
M  V30 1664 H 160.133 -0.363268 1.57772 0
M  V30 1665 H 162.125 -3.38407 2.21952 0
M  V30 1666 H 160.695 -2.83948 1.30738 0
M  V30 1667 H 159.915 -1.74052 3.53694 0
M  V30 1668 H 161.203 -2.65641 4.33949 0
M  V30 1669 H 160.601 -5.14322 2.35563 0
M  V30 1670 H 159.158 -5.75567 3.05886 0
M  V30 1671 N 162.591 -1.51276 -0.441967 0
M  V30 1672 C 163.539 -1.72823 -1.55676 0
M  V30 1673 C 164.533 -0.59445 -1.58627 0
M  V30 1674 O 165.739 -0.775715 -1.62427 0
M  V30 1675 H 162.114 -0.545983 -0.517113 0
M  V30 1676 H 164.085 -2.6628 -1.34675 0
M  V30 1677 C 162.834 -1.86619 -2.93375 0
M  V30 1678 H 162.157 -2.73264 -2.91834 0
M  V30 1679 H 163.597 -2.05709 -3.70756 0
M  V30 1680 C 162.056 -0.624842 -3.31055 0
M  V30 1681 O 162.586 0.222636 -4.01083 0
M  V30 1682 N 160.792 -0.470288 -2.86769 0
M  V30 1683 H 160.339 -1.161 -2.29953 0
M  V30 1684 H 160.297 0.359051 -3.12343 0
M  V30 1685 N 164.069 0.697108 -1.41344 0
M  V30 1686 C 165.294 1.49096 -1.44171 0
M  V30 1687 C 165.719 1.88038 -0.0481568 0
M  V30 1688 O 165.077 1.54525 0.948243 0
M  V30 1689 C 165.125 2.73088 -2.3549 0
M  V30 1690 O 164.229 3.70514 -1.81088 0
M  V30 1691 H 163.57 0.448801 -0.489361 0
M  V30 1692 H 166.1 0.856992 -1.85787 0
M  V30 1693 H 166.11 3.21413 -2.51312 0
M  V30 1694 H 164.785 2.44081 -3.36745 0
M  V30 1695 H 163.362 3.29441 -1.74708 0
M  V30 1696 N 165.547 1.27147 0.931209 0
M  V30 1697 C 166.793 1.13446 1.68101 0
M  V30 1698 C 167.126 -0.319628 1.91552 0
M  V30 1699 O 166.401 -1.23407 1.50336 0
M  V30 1700 C 166.684 1.91482 3.0497 0
M  V30 1701 C 166.537 3.44855 2.88782 0
M  V30 1702 C 167.856 1.71651 4.05246 0
M  V30 1703 H 164.975 0.413498 0.610072 0
M  V30 1704 H 167.617 1.56261 1.08086 0
M  V30 1705 H 165.767 1.55095 3.56199 0
M  V30 1706 H 167.439 3.9105 2.44698 0
M  V30 1707 H 165.682 3.71373 2.24198 0
M  V30 1708 H 166.353 3.94694 3.85902 0
M  V30 1709 H 168.829 2.0337 3.63015 0
M  V30 1710 H 167.705 2.28651 4.99009 0
M  V30 1711 H 167.966 0.663555 4.37092 0
M  V30 1712 N 167.025 -1.13721 1.09112 0
M  V30 1713 C 168.273 -1.84559 0.823562 0
M  V30 1714 C 168.594 -1.83754 -0.652658 0
M  V30 1715 O 167.864 -1.29102 -1.47342 0
M  V30 1716 H 166.444 -0.683376 0.301673 0
M  V30 1717 H 169.106 -1.37771 1.37859 0
M  V30 1718 H 168.202 -2.8917 1.17419 0
M  V30 1719 N 168.503 -0.877838 -1.30888 0
M  V30 1720 C 169.413 -0.343096 -2.32078 0
M  V30 1721 C 170.429 0.551022 -1.65045 0
M  V30 1722 O 171.605 0.445854 -1.96403 0
M  V30 1723 C 168.67 0.439905 -3.43898 0
M  V30 1724 C 167.731 -0.483111 -4.26573 0
M  V30 1725 C 166.964 0.262616 -5.33053 0
M  V30 1726 O 167.187 1.48967 -5.50604 0
M  V30 1727 O 166.121 -0.383593 -6.00676 0
M  V30 1728 H 169.947 -1.18203 -2.79753 0
M  V30 1729 H 167.532 -0.64145 -1.34929 0
M  V30 1730 H 169.414 0.883504 -4.12034 0
M  V30 1731 H 168.089 1.25526 -2.98371 0
M  V30 1732 H 166.996 -0.975374 -3.61161 0
M  V30 1733 H 168.329 -1.26427 -4.75686 0
M  V30 1734 N 169.982 1.44106 -0.638065 0
M  V30 1735 C 171.231 2.01194 -0.142744 0
M  V30 1736 C 171.544 1.50835 1.24532 0
M  V30 1737 O 172.75 2.00096 1.83504 0
M  V30 1738 C 171.206 3.59319 -0.20442 0
M  V30 1739 C 170.814 4.18674 -1.59423 0
M  V30 1740 C 172.558 4.23854 0.234079 0
M  V30 1741 C 170.465 5.69045 -1.61065 0
M  V30 1742 H 169.395 0.752367 -0.0495998 0
M  V30 1743 H 172.046 1.65246 -0.797881 0
M  V30 1744 H 170.428 3.92598 0.517946 0
M  V30 1745 H 171.602 3.96921 -2.34074 0
M  V30 1746 H 169.917 3.66453 -1.97741 0
M  V30 1747 H 172.514 5.34155 0.241443 0
M  V30 1748 H 172.857 3.96688 1.2627 0
M  V30 1749 H 173.39 3.95403 -0.436025 0
M  V30 1750 H 170.129 6.00956 -2.61787 0
M  V30 1751 H 169.649 5.929 -0.90718 0
M  V30 1752 H 171.328 6.32809 -1.34766 0
M  V30 1753 N 171.46 0.379036 1.52974 0
M  V30 1754 C 172.688 -0.20679 2.05864 0
M  V30 1755 C 173.103 -1.41356 1.25155 0
M  V30 1756 O 172.46 -1.8009 0.295588 0
M  V30 1757 C 172.511 -0.587045 3.56702 0
M  V30 1758 O 172.232 0.571776 4.34353 0
M  V30 1759 C 173.733 -1.22983 4.25899 0
M  V30 1760 H 170.953 -0.0336123 0.670158 0
M  V30 1761 H 173.497 0.541298 1.97206 0
M  V30 1762 H 171.652 -1.28504 3.65466 0
M  V30 1763 H 172.066 0.261544 5.23847 0
M  V30 1764 H 173.54 -1.44635 5.32715 0
M  V30 1765 H 174.017 -2.19416 3.80465 0
M  V30 1766 H 174.623 -0.572892 4.21424 0
M  V30 1767 N 172.938 -1.57226 0.108567 0
M  V30 1768 C 174.184 -1.95121 -0.552761 0
M  V30 1769 C 174.517 -0.991345 -1.66991 0
M  V30 1770 O 173.792 -0.0267211 -1.94482 0
M  V30 1771 C 174.075 -3.43039 -1.09528 0
M  V30 1772 C 173.928 -4.49797 0.0177332 0
M  V30 1773 C 175.247 -3.92567 -1.98945 0
M  V30 1774 H 172.366 -0.709496 -0.199461 0
M  V30 1775 H 175.008 -1.89126 0.182011 0
M  V30 1776 H 173.158 -3.48279 -1.72146 0
M  V30 1777 H 174.83 -4.56661 0.652584 0
M  V30 1778 H 173.073 -4.284 0.682309 0
M  V30 1779 H 173.744 -5.50528 -0.402919 0
M  V30 1780 H 176.22 -3.89565 -1.46214 0
M  V30 1781 H 175.096 -4.96605 -2.33827 0
M  V30 1782 H 175.357 -3.32648 -2.91201 0
M  V30 1783 N 174.416 0.165178 -1.56732 0
M  V30 1784 C 175.366 1.20917 -1.93295 0
M  V30 1785 C 176.35 1.39488 -0.801985 0
M  V30 1786 O 177.542 1.41356 -1.06525 0
M  V30 1787 C 174.671 2.54718 -2.3016 0
M  V30 1788 C 173.757 2.39815 -3.49785 0
M  V30 1789 N 174.148 1.94637 -4.66851 0
M  V30 1790 C 172.446 2.70623 -3.54513 0
M  V30 1791 C 173.147 1.92344 -5.4898 0
M  V30 1792 N 172.123 2.34978 -4.9019 0
M  V30 1793 H 175.925 0.851675 -2.81289 0
M  V30 1794 H 173.439 0.373399 -1.58049 0
M  V30 1795 H 175.436 3.30165 -2.54552 0
M  V30 1796 H 174.096 2.91265 -1.43508 0
M  V30 1797 H 175.107 1.6488 -4.90953 0
M  V30 1798 H 171.784 3.11167 -2.78354 0
M  V30 1799 H 173.174 1.5906 -6.52801 0
M  V30 1800 N 175.894 1.51508 0.433938 0
M  V30 1801 C 176.857 1.72473 1.50949 0
M  V30 1802 C 177.857 0.594725 1.49398 0
M  V30 1803 O 179.047 0.862315 1.5136 0
M  V30 1804 C 176.179 1.78431 2.90474 0
M  V30 1805 H 177.372 2.68467 1.33662 0
M  V30 1806 H 174.925 1.41549 0.662836 0
M  V30 1807 H 175.66 0.842645 3.13161 0
M  V30 1808 H 175.445 2.60558 2.93005 0
M  V30 1809 H 176.935 1.96479 3.68491 0
M  V30 1810 N 177.372 -0.689602 1.41712 0
M  V30 1811 C 178.319 -1.80345 1.44029 0
M  V30 1812 C 179.289 -1.63478 0.293948 0
M  V30 1813 O 180.474 -1.84244 0.495869 0
M  V30 1814 C 177.614 -3.18272 1.33405 0
M  V30 1815 C 176.727 -3.46529 2.57956 0
M  V30 1816 C 175.862 -4.74103 2.39582 0
M  V30 1817 C 174.901 -4.95347 3.5958 0
M  V30 1818 N 174.038 -6.14151 3.40239 0
M  V30 1819 H 178.878 -1.77698 2.39222 0
M  V30 1820 H 176.415 -0.867688 1.18784 0
M  V30 1821 H 178.373 -3.97956 1.25246 0
M  V30 1822 H 177.003 -3.2008 0.418164 0
M  V30 1823 H 176.055 -2.61207 2.76542 0
M  V30 1824 H 177.367 -3.58126 3.47199 0
M  V30 1825 H 176.521 -5.61853 2.28924 0
M  V30 1826 H 175.26 -4.64763 1.47805 0
M  V30 1827 H 174.265 -4.06044 3.70686 0
M  V30 1828 H 175.49 -5.06542 4.52318 0
M  V30 1829 H 173.436 -6.06013 2.51167 0
M  V30 1830 H 173.353 -6.26543 4.23061 0
M  V30 1831 H 174.621 -7.04619 3.33365 0
M  V30 1832 N 178.85 -1.27639 -0.924453 0
M  V30 1833 C 179.78 -1.13166 -2.04244 0
M  V30 1834 C 180.761 -0.032256 -1.70069 0
M  V30 1835 O 181.946 -0.207328 -1.9309 0
M  V30 1836 C 179.076 -0.781496 -3.38393 0
M  V30 1837 C 178.03 -1.83449 -3.86692 0
M  V30 1838 C 177.356 -1.33822 -5.17683 0
M  V30 1839 C 178.656 -3.23917 -4.09726 0
M  V30 1840 H 180.35 -2.06689 -2.1661 0
M  V30 1841 H 177.896 -0.995136 -1.04082 0
M  V30 1842 H 179.849 -0.667057 -4.16087 0
M  V30 1843 H 178.573 0.189439 -3.2605 0
M  V30 1844 H 177.232 -1.93789 -3.11193 0
M  V30 1845 H 176.88 -0.35665 -5.01734 0
M  V30 1846 H 176.58 -2.04224 -5.50968 0
M  V30 1847 H 178.104 -1.23679 -5.97943 0
M  V30 1848 H 179.518 -3.16559 -4.77978 0
M  V30 1849 H 177.915 -3.92059 -4.54324 0
M  V30 1850 H 178.985 -3.68729 -3.14908 0
M  V30 1851 N 180.328 1.1314 -1.09713 0
M  V30 1852 C 181.556 1.88321 -0.856898 0
M  V30 1853 C 181.971 1.79276 0.592073 0
M  V30 1854 O 181.328 1.16142 1.40774 0
M  V30 1855 C 181.379 3.37812 -1.28706 0
M  V30 1856 O 181.1 3.46627 -2.67921 0
M  V30 1857 C 182.601 4.29952 -1.07964 0
M  V30 1858 H 179.821 0.596094 -0.308079 0
M  V30 1859 H 182.365 1.43205 -1.45988 0
M  V30 1860 H 180.52 3.805 -0.727912 0
M  V30 1861 H 180.934 4.39579 -2.8613 0
M  V30 1862 H 182.408 5.33159 -1.42986 0
M  V30 1863 H 182.885 4.39196 -0.0176577 0
M  V30 1864 H 183.491 3.93036 -1.62489 0
M  V30 1865 N 181.806 0.884767 1.30421 0
M  V30 1866 C 183.052 0.503851 1.96441 0
M  V30 1867 C 183.385 -0.944518 1.69684 0
M  V30 1868 O 182.66 -1.66737 1.00145 0
M  V30 1869 C 182.943 0.779085 3.51571 0
M  V30 1870 C 182.796 2.27807 3.87846 0
M  V30 1871 C 184.115 0.255452 4.39358 0
M  V30 1872 H 181.234 0.184533 0.713524 0
M  V30 1873 H 183.876 1.10872 1.54297 0
M  V30 1874 H 182.026 0.264274 3.876 0
M  V30 1875 H 183.698 2.86127 3.61841 0
M  V30 1876 H 181.941 2.74479 3.35922 0
M  V30 1877 H 182.612 2.42125 4.96064 0
M  V30 1878 H 185.088 0.696079 4.10236 0
M  V30 1879 H 183.964 0.477361 5.4682 0
M  V30 1880 H 184.225 -0.843293 4.33983 0
M  V30 1881 N 183.284 -1.43765 0.645699 0
M  V30 1882 C 184.214 -2.33471 -0.0370477 0
M  V30 1883 C 185.195 -1.49042 -0.819779 0
M  V30 1884 O 186.38 -1.77726 -0.782758 0
M  V30 1885 C 183.51 -3.32311 -1.0093 0
M  V30 1886 C 182.464 -4.2667 -0.337201 0
M  V30 1887 C 181.79 -5.1549 -1.42037 0
M  V30 1888 C 183.09 -5.16657 0.765706 0
M  V30 1889 H 184.784 -2.90809 0.712069 0
M  V30 1890 H 182.33 -1.39834 0.343876 0
M  V30 1891 H 184.283 -3.9396 -1.49578 0
M  V30 1892 H 183.007 -2.73213 -1.78948 0
M  V30 1893 H 181.666 -3.66374 0.128771 0
M  V30 1894 H 181.314 -4.52735 -2.1918 0
M  V30 1895 H 181.014 -5.79438 -0.975966 0
M  V30 1896 H 182.538 -5.80012 -1.90838 0
M  V30 1897 H 183.952 -5.72158 0.361702 0
M  V30 1898 H 182.349 -5.89286 1.13413 0
M  V30 1899 H 183.419 -4.56796 1.62683 0
M  V30 1900 N 184.763 -0.387143 -1.52771 0
M  V30 1901 C 186.179 -0.037007 -1.59557 0
M  V30 1902 C 186.379 1.44801 -1.40124 0
M  V30 1903 O 185.435 2.21227 -1.21716 0
M  V30 1904 C 186.748 -0.512256 -2.96305 0
M  V30 1905 C 188.296 -0.468328 -3.09476 0
M  V30 1906 C 188.771 -0.919731 -4.4867 0
M  V30 1907 N 190.262 -0.875656 -4.54848 0
M  V30 1908 C 190.997 -1.19637 -5.6078 0
M  V30 1909 N 190.493 -1.58745 -6.74368 0
M  V30 1910 N 192.286 -1.11776 -5.50874 0
M  V30 1911 H 184.437 -1.35395 -1.63652 0
M  V30 1912 H 186.7 -0.554818 -0.768688 0
M  V30 1913 H 186.406 -1.54935 -3.15734 0
M  V30 1914 H 186.28 0.089805 -3.77093 0
M  V30 1915 H 188.667 0.559671 -2.89744 0
M  V30 1916 H 188.748 -1.10616 -2.30646 0
M  V30 1917 H 188.392 -1.94595 -4.69143 0
M  V30 1918 H 188.322 -0.258927 -5.25963 0
M  V30 1919 H 190.813 -0.587843 -3.733 0
M  V30 1920 H 191.126 -1.81586 -7.51163 0
M  V30 1921 H 189.471 -1.6263 -6.75705 0
M  V30 1922 H 192.662 -0.811264 -4.61016 0
M  V30 1923 H 192.835 -1.37103 -6.3333 0
M  V30 1924 N 186.241 1.57166 -0.116904 0
M  V30 1925 C 187.151 2.18745 0.847812 0
M  V30 1926 C 188.167 1.163 1.29423 0
M  V30 1927 O 189.343 1.48761 1.35765 0
M  V30 1928 C 186.408 2.77307 2.0809 0
M  V30 1929 C 185.469 3.94781 1.68661 0
M  V30 1930 C 184.702 4.50541 2.86091 0
M  V30 1931 O 184.925 4.05202 4.01456 0
M  V30 1932 O 183.859 5.41256 2.63298 0
M  V30 1933 H 187.685 3.01632 0.353778 0
M  V30 1934 H 185.27 1.49005 0.108599 0
M  V30 1935 H 187.152 3.14647 2.80313 0
M  V30 1936 H 185.827 1.97452 2.56504 0
M  V30 1937 H 184.734 3.62214 0.935518 0
M  V30 1938 H 186.067 4.76065 1.24991 0
M  V30 1939 N 187.719 -0.156864 1.56817 0
M  V30 1940 C 188.996 -0.899244 1.73704 0
M  V30 1941 C 189.376 -1.99771 0.682254 0
M  V30 1942 O 188.724 -2.26515 -0.300522 0
M  V30 1943 C 188.934 -1.45075 3.17418 0
M  V30 1944 C 190.282 -1.91802 3.7881 0
M  V30 1945 O 191.306 -1.54838 3.20786 0
M  V30 1946 O 190.165 -2.5994 4.80722 0
M  V30 1947 H 187.259 -0.424267 0.709878 0
M  V30 1948 H 189.805 -0.143561 1.69092 0
M  V30 1949 H 188.577 -0.660846 3.85679 0
M  V30 1950 H 188.2 -2.27021 3.26416 0
M  V30 1951 N 189.197 -1.51736 -0.425897 0
M  V30 1952 C 190.129 -1.70083 -1.53638 0
M  V30 1953 C 191.142 -0.581349 -1.52066 0
M  V30 1954 O 192.331 -0.856017 -1.56635 0
M  V30 1955 C 189.431 -1.71078 -2.9255 0
M  V30 1956 C 188.604 -2.99795 -3.185 0
M  V30 1957 C 187.663 -2.92825 -4.37196 0
M  V30 1958 O 186.689 -3.66756 -4.35291 0
M  V30 1959 N 187.891 -2.0946 -5.41393 0
M  V30 1960 H 190.656 -2.65882 -1.383 0
M  V30 1961 H 188.217 -1.49765 -0.614988 0
M  V30 1962 H 190.209 -1.63969 -3.69995 0
M  V30 1963 H 188.779 -0.828242 -3.01428 0
M  V30 1964 H 187.999 -3.20684 -2.2925 0
M  V30 1965 H 189.287 -3.84977 -3.32671 0
M  V30 1966 H 188.685 -1.48792 -5.45781 0
M  V30 1967 H 187.242 -2.08221 -6.17647 0
M  V30 1968 N 190.675 0.682077 -1.42076 0
M  V30 1969 C 191.605 1.80796 -1.47767 0
M  V30 1970 C 192.586 1.6677 -0.334954 0
M  V30 1971 O 193.771 1.863 -0.548264 0
M  V30 1972 C 190.901 3.19038 -1.37229 0
M  V30 1973 C 189.855 3.47789 -2.49453 0
M  V30 1974 C 189.181 4.8553 -2.23975 0
M  V30 1975 C 190.481 3.45411 -3.91776 0
M  V30 1976 H 192.175 1.7629 -2.41997 0
M  V30 1977 H 189.721 0.846721 -1.16476 0
M  V30 1978 H 191.674 3.97528 -1.39821 0
M  V30 1979 H 190.398 3.24204 -0.394907 0
M  V30 1980 H 189.057 2.71657 -2.46166 0
M  V30 1981 H 188.705 4.87337 -1.24547 0
M  V30 1982 H 188.405 5.0573 -2.99184 0
M  V30 1983 H 189.929 5.66312 -2.28304 0
M  V30 1984 H 191.343 4.13882 -3.96705 0
M  V30 1985 H 189.74 3.77145 -4.66778 0
M  V30 1986 H 190.81 2.44122 -4.18966 0
M  V30 1987 N 192.153 1.28127 0.917671 0
M  V30 1988 C 193.564 1.13622 1.48145 0
M  V30 1989 C 193.915 -0.275207 1.9426 0
M  V30 1990 O 193.04 -1.1691 1.82102 0
M  V30 1991 C 193.635 2.05648 2.69248 0
M  V30 1992 C 192.194 1.95219 3.21818 0
M  V30 1993 C 191.341 1.97618 1.94532 0
M  V30 1994 H 194.292 1.40874 0.730772 0
M  V30 1995 H 194.313 1.61818 3.44377 0
M  V30 1996 H 193.825 3.08365 2.35653 0
M  V30 1997 H 191.926 0.955244 3.60147 0
M  V30 1998 H 192.039 2.81976 3.87333 0
M  V30 1999 H 190.403 1.41973 2.11461 0
M  V30 2000 H 191.186 3.02007 1.63238 0
M  V30 2001 N 193.631 -1.12557 1.10312 0
M  V30 2002 C 194.856 -1.88405 0.867085 0
M  V30 2003 C 195.281 -1.79038 -0.576817 0
M  V30 2004 O 194.639 -1.14439 -1.40618 0
M  V30 2005 C 194.687 -3.3563 1.31851 0
M  V30 2006 O 193.791 -4.09565 0.482734 0
M  V30 2007 H 193.132 -0.585455 0.313271 0
M  V30 2008 H 195.662 -1.42352 1.4696 0
M  V30 2009 H 195.672 -3.86469 1.3079 0
M  V30 2010 H 194.347 -3.41765 2.37001 0
M  V30 2011 H 192.924 -3.68695 0.558448 0
M  V30 2012 N 195.109 -0.891671 -1.2995 0
M  V30 2013 C 196.357 -0.512486 -1.95494 0
M  V30 2014 C 196.678 0.942776 -1.70695 0
M  V30 2015 O 195.948 1.66374 -1.03424 0
M  V30 2016 H 194.528 -0.186533 -0.723336 0
M  V30 2017 H 197.19 -1.13621 -1.58355 0
M  V30 2018 H 196.286 -0.688342 -3.04415 0
M  V30 2019 N 196.587 1.43421 -0.653314 0
M  V30 2020 C 197.834 2.01812 -0.166745 0
M  V30 2021 C 198.162 1.51535 1.21931 0
M  V30 2022 O 197.417 0.698975 1.82792 0
M  V30 2023 C 197.716 3.57176 -0.126623 0
M  V30 2024 C 197.382 4.26798 -1.45444 0
M  V30 2025 C 196.044 4.45534 -1.81805 0
M  V30 2026 C 198.396 4.66225 -2.32989 0
M  V30 2027 C 195.724 5.00961 -3.05377 0
M  V30 2028 C 198.076 5.23021 -3.55853 0
M  V30 2029 C 196.74 5.39973 -3.9241 0
M  V30 2030 H 196.01 0.738484 -0.0610162 0
M  V30 2031 H 198.657 1.71896 -0.84404 0
M  V30 2032 H 196.962 3.86634 0.634123 0
M  V30 2033 H 198.659 4.00112 0.266723 0
M  V30 2034 H 195.249 4.12561 -1.16153 0
M  V30 2035 H 199.433 4.51443 -2.06187 0
M  V30 2036 H 194.689 5.12271 -3.3375 0
M  V30 2037 H 198.863 5.52518 -4.23907 0
M  V30 2038 H 196.49 5.82687 -4.88242 0
M  V30 2039 N 198.065 0.39524 1.52563 0
M  V30 2040 C 199.476 -0.0774719 1.86539 0
M  V30 2041 C 199.827 -1.45641 1.31466 0
M  V30 2042 O 198.952 -2.06459 0.648367 0
M  V30 2043 C 199.547 -0.147356 3.38479 0
M  V30 2044 C 198.106 -0.564373 3.72145 0
M  V30 2045 C 197.253 0.269919 2.75983 0
M  V30 2046 H 200.204 0.612876 1.46388 0
M  V30 2047 H 200.225 -0.965343 3.68051 0
M  V30 2048 H 199.737 0.856387 3.78534 0
M  V30 2049 H 197.838 -1.57527 3.37663 0
M  V30 2050 H 197.951 -0.318402 4.78041 0
M  V30 2051 H 196.315 -0.265696 2.5331 0
M  V30 2052 H 197.098 1.27175 3.18875 0
M  V30 2053 N 199.544 -1.57102 0.125237 0
M  V30 2054 C 200.492 -2.16905 -0.839927 0
M  V30 2055 C 201.486 -1.11998 -1.27094 0
M  V30 2056 O 202.692 -1.3029 -1.24195 0
M  V30 2057 H 199.067 -0.694252 -0.288995 0
M  V30 2058 H 201.038 -2.96774 -0.311115 0
M  V30 2059 C 199.787 -2.78795 -2.07771 0
M  V30 2060 H 199.11 -3.59221 -1.755 0
M  V30 2061 H 200.55 -3.2417 -2.73295 0
M  V30 2062 C 199.009 -1.76193 -2.87155 0
M  V30 2063 O 199.539 -1.21909 -3.82755 0
M  V30 2064 N 197.745 -1.45991 -2.51267 0
M  V30 2065 H 197.292 -1.90325 -1.73592 0
M  V30 2066 H 197.25 -0.775844 -3.04677 0
M  V30 2067 N 201.022 0.148545 -1.56898 0
M  V30 2068 C 202.271 0.85984 -1.82454 0
M  V30 2069 C 202.584 1.82406 -0.706229 0
M  V30 2070 O 203.79 2.57938 -0.847349 0
M  V30 2071 C 202.246 1.57967 -3.2338 0
M  V30 2072 C 201.854 0.65794 -4.43142 0
M  V30 2073 C 203.598 2.27784 -3.58211 0
M  V30 2074 C 201.505 1.3793 -5.75091 0
M  V30 2075 H 200.435 0.324834 -0.68044 0
M  V30 2076 H 203.086 0.112588 -1.83154 0
M  V30 2077 H 201.468 2.37249 -3.17063 0
M  V30 2078 H 202.642 -0.0995497 -4.60692 0
M  V30 2079 H 200.957 0.0682643 -4.16344 0
M  V30 2080 H 203.554 2.8239 -4.54048 0
M  V30 2081 H 203.897 3.04204 -2.84193 0
M  V30 2082 H 204.43 1.55421 -3.66182 0
M  V30 2083 H 201.169 0.656982 -6.52199 0
M  V30 2084 H 200.689 2.10954 -5.61479 0
M  V30 2085 H 202.368 1.92063 -6.17835 0
M  V30 2086 N 202.5 1.5196 0.417844 0
M  V30 2087 C 203.777 1.56146 1.17803 0
M  V30 2088 C 204.157 0.337275 2.08388 0
M  V30 2089 O 203.505 -0.676447 2.18258 0
M  V30 2090 C 203.715 2.88566 1.96293 0
M  V30 2091 C 205.063 3.41244 2.52662 0
M  V30 2092 O 206.087 2.90247 2.06483 0
M  V30 2093 O 204.946 4.30273 3.36938 0
M  V30 2094 H 202.04 0.628598 0.537395 0
M  V30 2095 H 204.586 1.64283 0.425331 0
M  V30 2096 H 203.358 3.69116 1.2988 0
M  V30 2097 H 202.981 2.83681 2.78587 0
M  V30 2098 N 203.978 -0.674533 1.42435 0
M  V30 2099 C 204.911 -1.79924 1.40366 0
M  V30 2100 C 205.889 -1.60378 0.267899 0
M  V30 2101 O 207.073 -1.82847 0.458159 0
M  V30 2102 C 204.2 -3.16927 1.19478 0
M  V30 2103 C 203.246 -3.55221 2.36051 0
M  V30 2104 S 204.079 -3.5762 3.98583 0
M  V30 2105 C 205.235 -4.97315 3.80038 0
M  V30 2106 H 205.468 -1.81405 2.35541 0
M  V30 2107 H 203.001 -0.845221 1.29211 0
M  V30 2108 H 204.959 -3.96007 1.08114 0
M  V30 2109 H 203.62 -3.13031 0.258883 0
M  V30 2110 H 202.813 -4.54804 2.17185 0
M  V30 2111 H 202.415 -2.83502 2.43932 0
M  V30 2112 H 204.707 -5.85401 3.41045 0
M  V30 2113 H 205.65 -5.21228 4.79298 0
M  V30 2114 H 206.058 -4.69845 3.12899 0
M  V30 2115 N 205.456 -1.28612 -0.910864 0
M  V30 2116 C 206.704 -1.15705 -1.65701 0
M  V30 2117 C 207.025 0.29416 -1.92769 0
M  V30 2118 O 206.295 1.20331 -1.54588 0
M  V30 2119 H 204.875 -0.425216 -0.614167 0
M  V30 2120 H 207.537 -1.61381 -1.0928 0
M  V30 2121 H 206.633 -1.6988 -2.61815 0
M  V30 2122 N 206.934 1.1197 -1.10907 0
M  V30 2123 C 208.345 1.65114 -0.871446 0
M  V30 2124 C 208.696 1.86885 0.597353 0
M  V30 2125 O 207.821 1.59896 1.45816 0
M  V30 2126 C 208.416 2.99944 -1.5754 0
M  V30 2127 C 206.975 3.50018 -1.38435 0
M  V30 2128 C 206.122 2.24941 -1.62164 0
M  V30 2129 H 209.073 0.956851 -1.2661 0
M  V30 2130 H 209.094 3.66651 -1.01721 0
M  V30 2131 H 208.606 2.84067 -2.64438 0
M  V30 2132 H 206.707 3.71071 -0.337214 0
M  V30 2133 H 206.82 4.29165 -2.12965 0
M  V30 2134 H 205.184 2.3229 -1.04467 0
M  V30 2135 H 205.967 2.11612 -2.70324 0
M  V30 2136 N 208.412 0.89855 1.29475 0
M  V30 2137 C 209.344 0.332726 2.26772 0
M  V30 2138 C 210.357 -0.520323 1.54261 0
M  V30 2139 O 211.546 -0.337668 1.75277 0
M  V30 2140 C 208.646 -0.544334 3.345 0
M  V30 2141 C 207.819 0.282728 4.36485 0
M  V30 2142 C 206.878 -0.526982 5.23555 0
M  V30 2143 O 205.904 0.0551165 5.69173 0
M  V30 2144 N 207.106 -1.83331 5.5079 0
M  V30 2145 H 209.871 1.16897 2.75962 0
M  V30 2146 H 207.432 0.762919 1.42798 0
M  V30 2147 H 209.424 -1.09239 3.89678 0
M  V30 2148 H 207.994 -1.28127 2.85136 0
M  V30 2149 H 207.214 1.01221 3.80983 0
M  V30 2150 H 208.502 0.84918 5.01664 0
M  V30 2151 H 207.9 -2.32898 5.15534 0
M  V30 2152 H 206.457 -2.32852 6.08788 0
M  V30 2153 N 209.89 -1.43072 0.660911 0
M  V30 2154 C 210.82 -2.33497 -0.0122829 0
M  V30 2155 C 211.801 -1.49903 -0.803925 0
M  V30 2156 O 212.986 -1.78546 -0.763864 0
M  V30 2157 C 210.116 -3.33363 -0.973994 0
M  V30 2158 C 209.07 -4.27003 -0.291928 0
M  V30 2159 C 208.396 -5.16967 -1.36562 0
M  V30 2160 C 209.696 -5.15816 0.820462 0
M  V30 2161 H 211.39 -2.90038 0.742873 0
M  V30 2162 H 208.936 -1.39461 0.358688 0
M  V30 2163 H 210.889 -3.95524 -1.45392 0
M  V30 2164 H 209.613 -2.75095 -1.7604 0
M  V30 2165 H 208.272 -3.66217 0.167623 0
M  V30 2166 H 207.92 -4.55034 -2.14366 0
M  V30 2167 H 207.62 -5.80441 -0.914454 0
M  V30 2168 H 209.144 -5.82003 -1.84675 0
M  V30 2169 H 210.558 -5.71742 0.422366 0
M  V30 2170 H 208.955 -5.8805 1.19656 0
M  V30 2171 H 210.025 -4.55045 1.67518 0
M  V30 2172 N 211.368 -0.403325 -1.52352 0
M  V30 2173 C 212.315 0.425011 -2.26853 0
M  V30 2174 C 213.285 1.04598 -1.29029 0
M  V30 2175 O 214.47 1.07135 -1.57882 0
M  V30 2176 C 211.61 1.53888 -3.08889 0
M  V30 2177 C 210.723 0.939396 -4.21663 0
M  V30 2178 C 209.858 2.02547 -4.91068 0
M  V30 2179 C 208.897 1.40263 -5.95813 0
M  V30 2180 N 208.034 2.4286 -6.58759 0
M  V30 2181 H 212.874 -0.21674 -2.97211 0
M  V30 2182 H 210.411 -0.118722 -1.4662 0
M  V30 2183 H 212.369 2.19558 -3.54753 0
M  V30 2184 H 210.999 2.15074 -2.40714 0
M  V30 2185 H 210.051 0.171898 -3.80011 0
M  V30 2186 H 211.363 0.44436 -4.96817 0
M  V30 2187 H 210.517 2.75958 -5.40308 0
M  V30 2188 H 209.256 2.55415 -4.15469 0
M  V30 2189 H 208.261 0.653833 -5.45898 0
M  V30 2190 H 209.486 0.881719 -6.73352 0
M  V30 2191 H 207.432 2.94871 -5.85992 0
M  V30 2192 H 207.349 1.98152 -7.2957 0
M  V30 2193 H 208.617 3.15858 -7.12639 0
M  V30 2194 N 212.846 1.57033 -0.133567 0
M  V30 2195 C 214.092 1.95976 0.521649 0
M  V30 2196 C 214.425 1.01779 1.65393 0
M  V30 2197 O 213.7 0.0576581 1.94415 0
M  V30 2198 C 213.983 3.44738 1.04057 0
M  V30 2199 C 213.836 4.49711 -0.0892897 0
M  V30 2200 C 215.155 3.95682 1.92675 0
M  V30 2201 H 212.274 0.712579 0.188149 0
M  V30 2202 H 214.916 1.88813 -0.212076 0
M  V30 2203 H 213.066 3.50973 1.66583 0
M  V30 2204 H 214.738 4.55565 -0.725152 0
M  V30 2205 H 212.981 4.27261 -0.750378 0
M  V30 2206 H 213.652 5.51099 0.315284 0
M  V30 2207 H 216.128 3.91841 1.39998 0
M  V30 2208 H 215.004 5.00262 2.25897 0
M  V30 2209 H 215.265 3.37239 2.85872 0
M  V30 2210 N 214.325 -0.140222 1.56975 0
M  V30 2211 C 215.571 -0.852949 1.83991 0
M  V30 2212 C 215.904 -1.80512 0.716187 0
M  V30 2213 O 215.179 -1.92479 -0.279681 0
M  V30 2214 C 215.462 -1.6215 3.21527 0
M  V30 2215 C 215.315 -0.690363 4.4447 0
M  V30 2216 C 216.634 -2.58247 3.56366 0
M  V30 2217 H 213.753 -0.308634 0.669264 0
M  V30 2218 H 216.395 -0.117898 1.89634 0
M  V30 2219 H 214.545 -2.24812 3.16847 0
M  V30 2220 H 216.217 -0.0742264 4.6124 0
M  V30 2221 H 214.46 -0.000396433 4.338 0
M  V30 2222 H 215.131 -1.2643 5.37326 0
M  V30 2223 H 217.607 -2.05701 3.61699 0
M  V30 2224 H 216.483 -3.09067 4.53617 0
M  V30 2225 H 216.744 -3.39923 2.82674 0
M  V30 2226 N 215.803 -1.52179 -0.40978 0
M  V30 2227 C 216.713 -1.78364 -1.52392 0
M  V30 2228 C 217.729 -0.669183 -1.60617 0
M  V30 2229 O 218.905 -0.954518 -1.77344 0
M  V30 2230 C 215.97 -1.92822 -2.88133 0
M  V30 2231 C 215.031 -3.16725 -2.898 0
M  V30 2232 C 214.264 -3.30483 -4.19067 0
M  V30 2233 O 214.487 -2.49522 -5.12928 0
M  V30 2234 O 213.421 -4.2363 -4.27576 0
M  V30 2235 H 217.247 -2.72931 -1.33201 0
M  V30 2236 H 214.832 -1.37016 -0.59557 0
M  V30 2237 H 216.714 -2.04157 -3.68643 0
M  V30 2238 H 215.389 -1.01444 -3.07393 0
M  V30 2239 H 214.296 -3.10848 -2.08146 0
M  V30 2240 H 215.629 -4.07881 -2.75489 0
M  V30 2241 N 217.281 0.66697 -1.42791 0
M  V30 2242 C 218.697 0.981027 -1.25889 0
M  V30 2243 C 218.897 2.00793 -0.168695 0
M  V30 2244 O 217.953 2.48321 0.45747 0
M  V30 2245 C 219.266 1.47838 -2.61848 0
M  V30 2246 C 220.814 1.59575 -2.69267 0
M  V30 2247 C 221.289 2.12704 -4.05612 0
M  V30 2248 N 222.78 2.20026 -4.07606 0
M  V30 2249 C 223.515 2.62227 -5.09926 0
M  V30 2250 N 223.011 3.03824 -6.22626 0
M  V30 2251 N 224.804 2.62045 -4.97281 0
M  V30 2252 H 216.955 -0.0127891 -2.12396 0
M  V30 2253 H 219.218 0.0568258 -0.946295 0
M  V30 2254 H 218.924 0.798299 -3.4252 0
M  V30 2255 H 218.798 2.45579 -2.86305 0
M  V30 2256 H 221.185 2.26687 -1.88936 0
M  V30 2257 H 221.266 0.60302 -2.48591 0
M  V30 2258 H 220.91 1.46198 -4.86404 0
M  V30 2259 H 220.84 3.12782 -4.23645 0
M  V30 2260 H 223.331 1.90708 -3.2625 0
M  V30 2261 H 223.644 3.34734 -6.96544 0
M  V30 2262 H 221.989 3.01662 -6.26119 0
M  V30 2263 H 225.18 2.28916 -4.08308 0
M  V30 2264 H 225.353 2.94613 -5.77154 0
M  V30 2265 N 218.759 1.29093 0.90403 0
M  V30 2266 C 219.987 1.19689 1.68766 0
M  V30 2267 C 220.402 -0.243113 1.87228 0
M  V30 2268 O 219.759 -1.16326 1.40621 0
M  V30 2269 C 219.81 1.90144 3.07453 0
M  V30 2270 O 219.531 3.2852 2.89838 0
M  V30 2271 C 221.032 1.87162 4.01852 0
M  V30 2272 H 218.252 0.415035 0.527244 0
M  V30 2273 H 220.796 1.7039 1.13082 0
M  V30 2274 H 218.951 1.43289 3.59926 0
M  V30 2275 H 219.365 3.63944 3.77684 0
M  V30 2276 H 220.839 2.41032 4.96596 0
M  V30 2277 H 221.316 0.84617 4.30972 0
M  V30 2278 H 221.922 2.33741 3.5531 0
M  V30 2279 N 220.237 -1.11381 1.11499 0
M  V30 2280 C 221.653 -1.35143 0.849031 0
M  V30 2281 C 221.853 -1.94515 -0.525938 0
M  V30 2282 O 220.909 -2.1785 -1.27662 0
M  V30 2283 C 222.222 -2.28249 1.95762 0
M  V30 2284 C 223.77 -2.41812 1.98736 0
M  V30 2285 C 224.245 -3.3824 3.088 0
M  V30 2286 N 225.736 -3.45803 3.08179 0
M  V30 2287 C 226.471 -4.20358 3.89982 0
M  V30 2288 N 225.967 -4.97884 4.8175 0
M  V30 2289 N 227.76 -4.15877 3.78157 0
M  V30 2290 H 219.911 -0.712062 2.00109 0
M  V30 2291 H 222.174 -0.376025 0.870235 0
M  V30 2292 H 221.88 -1.91817 2.94787 0
M  V30 2293 H 221.754 -3.28473 1.85433 0
M  V30 2294 H 224.141 -2.77518 1.00338 0
M  V30 2295 H 224.222 -1.41437 2.13141 0
M  V30 2296 H 223.866 -3.03261 4.07425 0
M  V30 2297 H 223.796 -4.38471 2.91635 0
M  V30 2298 H 226.287 -2.90506 2.41691 0
M  V30 2299 H 226.6 -5.52142 5.40702 0
M  V30 2300 H 224.945 -4.97043 4.85771 0
M  V30 2301 H 228.136 -3.544 3.05808 0
M  V30 2302 H 228.309 -4.73723 4.42143 0
M  V30 2303 N 221.715 -0.905404 -1.28997 0
M  V30 2304 C 222.943 -0.549846 -1.9946 0
M  V30 2305 C 223.358 0.866834 -1.67724 0
M  V30 2306 O 222.715 1.57298 -0.925404 0
M  V30 2307 C 222.766 -0.739387 -3.53858 0
M  V30 2308 O 222.487 -2.10031 -3.84472 0
M  V30 2309 C 223.988 -0.389541 -4.41585 0
M  V30 2310 H 221.208 -0.210429 -0.637151 0
M  V30 2311 H 223.752 -1.21632 -1.64396 0
M  V30 2312 H 221.907 -0.120023 -3.87214 0
M  V30 2313 H 222.321 -2.13385 -4.79132 0
M  V30 2314 H 223.795 -0.572972 -5.49018 0
M  V30 2315 H 224.272 0.673756 -4.34001 0
M  V30 2316 H 224.878 -0.986089 -4.1371 0
M  V30 2317 N 223.193 1.4272 -0.668489 0
M  V30 2318 C 224.156 2.292 0.00448567 0
M  V30 2319 C 225.156 1.43001 0.735339 0
M  V30 2320 O 226.346 1.64461 0.57429 0
M  V30 2321 C 223.478 3.25375 1.01705 0
M  V30 2322 H 224.671 2.90199 -0.756608 0
M  V30 2323 H 222.224 1.50254 -0.430506 0
M  V30 2324 H 222.959 2.69301 1.80686 0
M  V30 2325 H 222.744 3.88944 0.496463 0
M  V30 2326 H 224.234 3.90245 1.48655 0
M  V30 2327 N 224.671 0.411399 1.52136 0
M  V30 2328 C 225.899 -0.163076 2.06256 0
M  V30 2329 C 226.314 -1.3867 1.28125 0
M  V30 2330 O 225.671 -1.79423 0.333721 0
M  V30 2331 C 225.722 -0.511252 3.57867 0
M  V30 2332 O 225.443 0.66378 4.33042 0
M  V30 2333 C 226.944 -1.13921 4.28412 0
M  V30 2334 H 224.164 -0.0193897 0.67072 0
M  V30 2335 H 226.708 0.583007 1.96013 0
M  V30 2336 H 224.863 -1.20723 3.6811 0
M  V30 2337 H 225.277 0.372601 5.23175 0
M  V30 2338 H 226.751 -1.33302 5.35663 0
M  V30 2339 H 227.228 -2.11296 3.85033 0
M  V30 2340 H 227.834 -0.483373 4.22544 0
M  V30 2341 N 226.149 -1.5696 0.141893 0
M  V30 2342 C 227.082 -2.12271 -0.837627 0
M  V30 2343 C 228.06 -1.04495 -1.24578 0
M  V30 2344 O 229.244 -1.32293 -1.34278 0
M  V30 2345 C 226.371 -2.63822 -2.12404 0
M  V30 2346 C 225.417 -3.83698 -1.86221 0
M  V30 2347 S 226.25 -5.24948 -1.05781 0
M  V30 2348 C 227.406 -5.79884 -2.35552 0
M  V30 2349 H 227.639 -2.95023 -0.367249 0
M  V30 2350 H 225.172 -1.54231 -0.0723014 0
M  V30 2351 H 227.13 -2.94175 -2.86307 0
M  V30 2352 H 225.791 -1.8121 -2.56557 0
M  V30 2353 H 224.984 -4.17995 -2.81596 0
M  V30 2354 H 224.586 -3.5408 -1.20429 0
M  V30 2355 H 226.878 -5.91005 -3.31239 0
M  V30 2356 H 227.821 -6.77544 -2.05767 0
M  V30 2357 H 228.229 -5.08095 -2.45967 0
M  V30 2358 N 227.627 0.131896 -1.57047 0
M  V30 2359 C 228.557 1.16384 -2.02428 0
M  V30 2360 C 229.538 1.43936 -0.90644 0
M  V30 2361 O 230.723 1.54599 -1.17528 0
M  V30 2362 C 227.853 2.49328 -2.4177 0
M  V30 2363 C 226.807 2.36266 -3.56879 0
M  V30 2364 C 226.133 3.74057 -3.8208 0
M  V30 2365 C 227.433 1.834 -4.89042 0
M  V30 2366 H 229.127 0.786433 -2.88887 0
M  V30 2367 H 226.673 0.376855 -1.38981 0
M  V30 2368 H 228.626 3.21759 -2.7212 0
M  V30 2369 H 227.35 2.88934 -1.52266 0
M  V30 2370 H 226.009 1.66286 -3.26718 0
M  V30 2371 H 225.657 4.11125 -2.89803 0
M  V30 2372 H 225.357 3.66174 -4.59554 0
M  V30 2373 H 226.881 4.48012 -4.1487 0
M  V30 2374 H 228.295 2.45636 -5.18011 0
M  V30 2375 H 226.692 1.8637 -5.70426 0
M  V30 2376 H 227.762 0.790662 -4.7841 0
M  V30 2377 N 229.106 1.52395 0.401703 0
M  V30 2378 C 230.346 1.68498 1.15705 0
M  V30 2379 C 230.71 0.409748 1.87577 0
M  V30 2380 O 231.911 0.446983 2.65058 0
M  V30 2381 C 230.182 2.87789 2.11924 0
M  V30 2382 S 231.741 3.24415 2.95466 0
M  V30 2383 H 228.559 0.593267 0.391862 0
M  V30 2384 H 231.161 1.90408 0.443282 0
M  V30 2385 H 229.865 3.7884 1.57824 0
M  V30 2386 H 229.396 2.68175 2.87829 0
M  V30 2387 H 231.411 2.73614 4.13944 0
M  V30 2388 N 230.584 -0.659388 1.43143 0
M  V30 2389 C 231.547 -1.75432 1.47501 0
M  V30 2390 C 232.547 -1.56707 0.360512 0
M  V30 2391 O 233.737 -1.62717 0.622002 0
M  V30 2392 C 230.869 -3.14239 1.32162 0
M  V30 2393 H 232.062 -1.7295 2.45006 0
M  V30 2394 H 229.615 -0.870469 1.29817 0
M  V30 2395 H 230.35 -3.22336 0.356401 0
M  V30 2396 H 230.135 -3.29235 2.12948 0
M  V30 2397 H 231.625 -3.94094 1.3813 0
M  V30 2398 N 232.062 -1.29571 -0.897171 0
M  V30 2399 C 233.025 -1.14913 -1.98312 0
M  V30 2400 C 234.025 -0.0838629 -1.60581 0
M  V30 2401 O 235.215 -0.331006 -1.71026 0
M  V30 2402 C 232.347 -0.757835 -3.3237 0
M  V30 2403 H 233.54 -2.11377 -2.12743 0
M  V30 2404 H 231.093 -1.12793 -1.08201 0
M  V30 2405 H 231.828 0.206837 -3.2364 0
M  V30 2406 H 231.613 -1.52755 -3.61121 0
M  V30 2407 H 233.103 -0.678408 -4.12053 0
M  V30 2408 N 233.54 1.10788 -1.12088 0
M  V30 2409 C 234.765 1.87002 -0.896949 0
M  V30 2410 C 235.19 1.79933 0.548261 0
M  V30 2411 O 234.548 1.16662 1.38779 0
M  V30 2412 C 234.596 3.3349 -1.37174 0
M  V30 2413 O 233.7 4.08745 -0.547831 0
M  V30 2414 H 233.041 0.580397 -0.322545 0
M  V30 2415 H 235.571 1.39996 -1.49206 0
M  V30 2416 H 235.581 3.84339 -1.36922 0
M  V30 2417 H 234.256 3.37951 -2.42408 0
M  V30 2418 H 232.833 3.6776 -0.617034 0
M  V30 2419 N 235.018 0.912232 1.28515 0
M  V30 2420 C 236.266 0.543523 1.94654 0
M  V30 2421 C 236.587 -0.9155 1.72173 0
M  V30 2422 O 235.857 -1.64708 1.06058 0
M  V30 2423 H 234.437 0.198017 0.720277 0
M  V30 2424 H 237.099 1.16126 1.56527 0
M  V30 2425 H 236.195 0.736684 3.03281 0
M  V30 2426 N 236.496 -1.42363 0.676048 0
M  V30 2427 C 237.444 -2.32596 -0.0131507 0
M  V30 2428 C 238.438 -1.49891 -0.789238 0
M  V30 2429 O 239.644 -1.65955 -0.697061 0
M  V30 2430 H 236.019 -0.751647 -0.0230481 0
M  V30 2431 H 237.99 -2.88421 0.765243 0
M  V30 2432 C 236.739 -3.34479 -0.949702 0
M  V30 2433 H 236.062 -3.98158 -0.361938 0
M  V30 2434 H 237.502 -4.00199 -1.4006 0
M  V30 2435 C 235.961 -2.66838 -2.05667 0
M  V30 2436 O 236.491 -2.50124 -3.14326 0
M  V30 2437 N 234.697 -2.25843 -1.82875 0
M  V30 2438 H 234.244 -2.39637 -0.945085 0
M  V30 2439 H 234.202 -1.80918 -2.5713 0
M  V30 2440 N 237.974 -0.419461 -1.51915 0
M  V30 2441 C 239.385 0.0477853 -1.86639 0
M  V30 2442 C 239.736 1.43531 -1.33766 0
M  V30 2443 O 238.861 2.05401 -0.68113 0
M  V30 2444 C 239.456 0.0934885 -3.38671 0
M  V30 2445 C 238.015 0.505097 -3.72996 0
M  V30 2446 C 237.162 -0.313792 -2.75519 0
M  V30 2447 H 240.113 -0.636088 -1.45395 0
M  V30 2448 H 240.134 0.906667 -3.6954 0
M  V30 2449 H 239.646 -0.916501 -3.77123 0
M  V30 2450 H 237.747 1.52135 -3.40126 0
M  V30 2451 H 237.86 0.242309 -4.78487 0
M  V30 2452 H 236.224 0.225363 -2.53701 0
M  V30 2453 H 237.007 -1.32232 -3.16812 0
M  V30 2454 N 239.452 1.56882 -0.150215 0
M  V30 2455 C 240.729 1.87844 0.545327 0
M  V30 2456 C 241.109 1.0567 1.82749 0
M  V30 2457 O 240.457 0.144442 2.28043 0
M  V30 2458 C 240.667 3.39526 0.80767 0
M  V30 2459 C 242.015 4.08814 1.14703 0
M  V30 2460 O 243.039 3.44723 0.896917 0
M  V30 2461 O 241.898 5.22004 1.61784 0
M  V30 2462 H 238.992 0.778677 0.278553 0
M  V30 2463 H 241.538 1.68666 -0.187068 0
M  V30 2464 H 240.31 3.91173 -0.0996096 0
M  V30 2465 H 239.933 3.64243 1.59413 0
M  V30 2466 N 240.93 -0.123565 1.57115 0
M  V30 2467 C 242.341 -0.681198 1.73829 0
M  V30 2468 C 242.692 -1.80535 0.768214 0
M  V30 2469 O 241.817 -2.16317 -0.0599103 0
M  V30 2470 C 242.412 -1.24246 3.15196 0
M  V30 2471 C 240.971 -1.74643 3.33432 0
M  V30 2472 C 240.118 -0.644284 2.69711 0
M  V30 2473 H 243.069 0.102315 1.5837 0
M  V30 2474 H 243.09 -2.11216 3.16493 0
M  V30 2475 H 242.602 -0.424062 3.85776 0
M  V30 2476 H 240.703 -2.58974 2.67886 0
M  V30 2477 H 240.816 -1.85902 4.41562 0
M  V30 2478 H 239.18 -1.07676 2.3082 0
M  V30 2479 H 239.963 0.163058 3.42913 0
M  V30 2480 N 242.408 -1.52605 -0.393616 0
M  V30 2481 C 243.318 -1.79971 -1.50492 0
M  V30 2482 C 244.334 -0.686181 -1.59899 0
M  V30 2483 O 245.51 -0.973274 -1.76322 0
M  V30 2484 C 242.575 -1.95867 -2.86072 0
M  V30 2485 C 241.636 -3.19781 -2.86424 0
M  V30 2486 C 240.869 -3.34909 -4.15538 0
M  V30 2487 O 241.092 -2.54948 -5.10253 0
M  V30 2488 O 240.026 -4.28141 -4.23059 0
M  V30 2489 H 243.852 -2.74328 -1.30299 0
M  V30 2490 H 241.437 -1.3764 -0.581005 0
M  V30 2491 H 243.319 -2.08056 -3.66457 0
M  V30 2492 H 241.994 -1.04699 -3.063 0
M  V30 2493 H 240.901 -3.13038 -2.04837 0
M  V30 2494 H 242.234 -4.1078 -2.71147 0
M  V30 2495 N 243.887 0.651787 -1.4349 0
M  V30 2496 C 245.136 1.40754 -1.44469 0
M  V30 2497 C 245.449 1.95463 -0.0731845 0
M  V30 2498 O 246.655 2.71471 0.0395721 0
M  V30 2499 C 245.111 2.54735 -2.5424 0
M  V30 2500 C 244.719 2.06628 -3.97504 0
M  V30 2501 C 246.463 3.32092 -2.64414 0
M  V30 2502 C 244.37 3.17829 -4.98737 0
M  V30 2503 H 243.3 0.528862 -0.53742 0
M  V30 2504 H 245.951 0.703365 -1.69485 0
M  V30 2505 H 244.333 3.2763 -2.22428 0
M  V30 2506 H 245.507 1.40734 -4.38783 0
M  V30 2507 H 243.822 1.42146 -3.91387 0
M  V30 2508 H 246.419 4.14952 -3.37223 0
M  V30 2509 H 246.762 3.80217 -1.69532 0
M  V30 2510 H 247.295 2.66279 -2.95534 0
M  V30 2511 H 244.034 2.74671 -5.95177 0
M  V30 2512 H 243.554 3.82429 -4.62069 0
M  V30 2513 H 245.233 3.82937 -5.21505 0
M  V30 2514 N 245.365 1.30045 0.890287 0
M  V30 2515 C 246.593 1.21472 1.67487 0
M  V30 2516 C 247.008 -0.223241 1.87476 0
M  V30 2517 O 246.365 -1.14828 1.41847 0
M  V30 2518 C 246.416 1.93394 3.05419 0
M  V30 2519 O 246.137 3.31576 2.86337 0
M  V30 2520 C 247.638 1.91414 3.99844 0
M  V30 2521 H 244.858 0.420604 0.522813 0
M  V30 2522 H 247.402 1.7158 1.11268 0
M  V30 2523 H 245.557 1.47099 3.58386 0
M  V30 2524 H 245.971 3.67929 3.73802 0
M  V30 2525 H 247.445 2.46285 4.94012 0
M  V30 2526 H 247.922 0.891833 4.3005 0
M  V30 2527 H 248.528 2.37496 3.52811 0
M  V30 2528 N 246.843 -1.10192 1.12674 0
M  V30 2529 C 248.089 -1.82658 0.894847 0
M  V30 2530 C 248.444 -1.83666 -0.573107 0
M  V30 2531 O 247.737 -1.28816 -1.41835 0
M  V30 2532 C 247.931 -3.28552 1.4067 0
M  V30 2533 C 247.76 -3.41756 2.92289 0
M  V30 2534 C 246.53 -3.54021 3.60551 0
M  V30 2535 C 248.728 -3.34949 3.90274 0
M  V30 2536 N 246.71 -3.55827 5.0026 0
M  V30 2537 C 248.081 -3.43531 5.16127 0
M  V30 2538 C 250.136 -3.18565 3.8265 0
M  V30 2539 C 248.839 -3.37416 6.3525 0
M  V30 2540 C 250.865 -3.13772 5.01299 0
M  V30 2541 C 250.227 -3.22938 6.26012 0
M  V30 2542 H 246.326 -0.683044 0.380756 0
M  V30 2543 H 248.91 -1.31752 1.43351 0
M  V30 2544 H 247.081 -3.77946 0.895055 0
M  V30 2545 H 248.813 -3.88991 1.11661 0
M  V30 2546 H 245.568 -3.57135 3.1105 0
M  V30 2547 H 245.992 -3.60335 5.73138 0
M  V30 2548 H 250.634 -3.10354 2.87124 0
M  V30 2549 H 248.352 -3.44391 7.3104 0
M  V30 2550 H 251.938 -3.02242 4.97133 0
M  V30 2551 H 250.818 -3.19235 7.16281 0
M  V30 2552 N 248.321 -0.919034 -1.28029 0
M  V30 2553 C 249.568 -0.554934 -1.94748 0
M  V30 2554 C 249.896 0.90231 -1.72304 0
M  V30 2555 O 249.151 1.65767 -1.04018 0
M  V30 2556 C 249.45 -0.816855 -3.4794 0
M  V30 2557 C 249.116 -2.25448 -3.90492 0
M  V30 2558 C 247.778 -2.64752 -4.01821 0
M  V30 2559 C 250.13 -3.18977 -4.12193 0
M  V30 2560 C 247.458 -3.96727 -4.32232 0
M  V30 2561 C 249.81 -4.50523 -4.44086 0
M  V30 2562 C 248.474 -4.89673 -4.53626 0
M  V30 2563 H 247.744 -0.203065 -0.712633 0
M  V30 2564 H 250.391 -1.16136 -1.52265 0
M  V30 2565 H 248.696 -0.127677 -3.91592 0
M  V30 2566 H 250.393 -0.514238 -3.97689 0
M  V30 2567 H 246.983 -1.93952 -3.82205 0
M  V30 2568 H 251.167 -2.89817 -4.02889 0
M  V30 2569 H 246.423 -4.26754 -4.37825 0
M  V30 2570 H 250.597 -5.23005 -4.59825 0
M  V30 2571 H 248.224 -5.91969 -4.76946 0
M  V30 2572 N 249.799 1.42003 -0.683588 0
M  V30 2573 C 250.746 2.30798 -0.0107309 0
M  V30 2574 C 251.716 1.4645 0.783688 0
M  V30 2575 O 252.901 1.75263 0.754156 0
M  V30 2576 C 250.041 3.3238 0.928306 0
M  V30 2577 C 249.154 4.31814 0.126776 0
M  V30 2578 C 248.289 5.20468 1.06236 0
M  V30 2579 C 247.328 6.11577 0.253035 0
M  V30 2580 N 246.465 6.92754 1.14179 0
M  V30 2581 H 251.305 2.8778 -0.773727 0
M  V30 2582 H 248.842 1.41745 -0.393283 0
M  V30 2583 H 250.8 3.89813 1.48666 0
M  V30 2584 H 249.43 2.76976 1.65783 0
M  V30 2585 H 248.482 3.76427 -0.54833 0
M  V30 2586 H 249.794 4.96276 -0.501192 0
M  V30 2587 H 248.948 5.82677 1.69035 0
M  V30 2588 H 247.687 4.56204 1.7242 0
M  V30 2589 H 246.692 5.48428 -0.388108 0
M  V30 2590 H 247.917 6.77892 -0.404839 0
M  V30 2591 H 245.863 6.3111 1.78987 0
M  V30 2592 H 245.78 7.53855 0.569111 0
M  V30 2593 H 247.048 7.59441 1.75697 0
M  V30 2594 N 251.277 0.427512 1.51691 0
M  V30 2595 C 252.554 -0.201684 1.94557 0
M  V30 2596 C 252.934 -1.60981 1.36559 0
M  V30 2597 O 252.282 -2.21814 0.548702 0
M  V30 2598 C 252.492 -0.189394 3.48486 0
M  V30 2599 C 253.84 -0.39978 4.22714 0
M  V30 2600 O 254.864 -0.267945 3.55191 0
M  V30 2601 O 253.723 -0.661249 5.42485 0
M  V30 2602 H 250.817 -0.135261 0.815864 0
M  V30 2603 H 253.363 0.484782 1.62628 0
M  V30 2604 H 252.135 0.795431 3.8313 0
M  V30 2605 H 251.758 -0.919187 3.86829 0
M  V30 2606 N 252.755 -1.56801 0.158532 0
M  V30 2607 C 254.002 -1.9649 -0.489679 0
M  V30 2608 C 254.33 -1.04394 -1.6411 0
M  V30 2609 O 253.585 -0.0754401 -1.95555 0
M  V30 2610 C 253.884 -3.4235 -1.02623 0
M  V30 2611 C 253.55 -4.50899 0.00794526 0
M  V30 2612 C 252.212 -4.80312 0.292207 0
M  V30 2613 C 254.564 -5.16333 0.710584 0
M  V30 2614 C 251.892 -5.72461 1.28472 0
M  V30 2615 C 254.244 -6.09553 1.69199 0
M  V30 2616 C 252.908 -6.37339 1.98383 0
M  V30 2617 H 252.178 -0.719009 -0.179186 0
M  V30 2618 H 254.825 -1.8989 0.247798 0
M  V30 2619 H 253.13 -3.45838 -1.84128 0
M  V30 2620 H 254.827 -3.70393 -1.53656 0
M  V30 2621 H 251.417 -4.28015 -0.22379 0
M  V30 2622 H 255.601 -4.93732 0.504174 0
M  V30 2623 H 250.857 -5.92278 1.51714 0
M  V30 2624 H 255.031 -6.59327 2.24189 0
M  V30 2625 H 252.658 -7.08546 2.7544 0
M  V30 2626 N 254.233 0.115231 -1.57178 0
M  V30 2627 C 255.163 1.1423 -2.03651 0
M  V30 2628 C 256.144 1.42967 -0.921655 0
M  V30 2629 O 257.329 1.53343 -1.19162 0
M  V30 2630 C 254.459 2.4675 -2.44401 0
M  V30 2631 C 253.413 2.32467 -3.59365 0
M  V30 2632 C 252.739 3.69984 -3.86026 0
M  V30 2633 C 254.039 1.78203 -4.90959 0
M  V30 2634 H 255.733 0.755749 -2.89705 0
M  V30 2635 H 253.279 0.362093 -1.39373 0
M  V30 2636 H 255.232 3.18854 -2.75517 0
M  V30 2637 H 253.956 2.87302 -1.55322 0
M  V30 2638 H 252.615 1.62811 -3.28463 0
M  V30 2639 H 252.263 4.08028 -2.94147 0
M  V30 2640 H 251.963 3.61279 -4.63412 0
M  V30 2641 H 253.487 4.43587 -4.19599 0
M  V30 2642 H 254.901 2.40128 -5.20587 0
M  V30 2643 H 253.298 1.8031 -5.72371 0
M  V30 2644 H 254.368 0.739876 -4.79222 0
M  V30 2645 N 255.711 1.52812 0.385517 0
M  V30 2646 C 257.122 1.5993 0.963293 0
M  V30 2647 C 257.473 0.454302 1.90868 0
M  V30 2648 O 256.598 -0.422132 2.12243 0
M  V30 2649 C 257.193 2.89871 1.75387 0
M  V30 2650 C 255.752 2.99389 2.28129 0
M  V30 2651 C 254.899 2.55071 1.08783 0
M  V30 2652 H 257.85 1.5784 0.164948 0
M  V30 2653 H 257.871 2.76553 2.61341 0
M  V30 2654 H 257.383 3.73186 1.06554 0
M  V30 2655 H 255.484 2.20619 3.00263 0
M  V30 2656 H 255.597 4.04096 2.57377 0
M  V30 2657 H 253.961 2.09473 1.4489 0
M  V30 2658 H 254.744 3.40785 0.414807 0
M  V30 2659 N 257.189 -0.644168 1.43834 0
M  V30 2660 C 258.435 -1.40603 1.46146 0
M  V30 2661 C 258.768 -1.93997 0.0887717 0
M  V30 2662 O 258.043 -1.72854 -0.891724 0
M  V30 2663 C 258.326 -2.58086 2.51124 0
M  V30 2664 C 258.179 -2.10126 3.97702 0
M  V30 2665 C 259.498 -3.60291 2.52742 0
M  V30 2666 H 256.617 -0.509905 0.532134 0
M  V30 2667 H 259.259 -0.729502 1.75437 0
M  V30 2668 H 257.409 -3.15801 2.26278 0
M  V30 2669 H 259.081 -1.57342 4.33637 0
M  V30 2670 H 257.324 -1.41419 4.10101 0
M  V30 2671 H 257.995 -2.94649 4.66783 0
M  V30 2672 H 260.471 -3.12352 2.7491 0
M  V30 2673 H 259.347 -4.40032 3.28121 0
M  V30 2674 H 259.608 -4.1349 1.56455 0
M  V30 2675 N 258.668 -1.30515 -0.883378 0
M  V30 2676 C 259.945 -1.10086 -1.6168 0
M  V30 2677 C 260.325 0.349269 -2.08191 0
M  V30 2678 O 259.673 1.34105 -1.85008 0
M  V30 2679 C 259.883 -2.10315 -2.78511 0
M  V30 2680 C 261.231 -2.42119 -3.48803 0
M  V30 2681 O 262.255 -2.08638 -2.88702 0
M  V30 2682 O 261.114 -2.99396 -4.57192 0
M  V30 2683 H 258.208 -0.422907 -0.710689 0
M  V30 2684 H 260.754 -1.41947 -0.930015 0
M  V30 2685 H 259.526 -3.07917 -2.41459 0
M  V30 2686 H 259.149 -1.79282 -3.54886 0
M  V30 2687 N 260.146 1.09593 -1.13257 0
M  V30 2688 C 261.557 1.63229 -0.906274 0
M  V30 2689 C 261.908 1.8811 0.557578 0
M  V30 2690 O 261.033 1.62953 1.42391 0
M  V30 2691 C 261.628 2.96535 -1.63867 0
M  V30 2692 C 260.187 3.47003 -1.45828 0
M  V30 2693 C 259.334 2.2145 -1.66898 0
M  V30 2694 H 262.285 0.92978 -1.28611 0
M  V30 2695 H 262.306 3.64411 -1.09476 0
M  V30 2696 H 261.818 2.78394 -2.70404 0
M  V30 2697 H 259.919 3.70272 -0.415848 0
M  V30 2698 H 260.032 4.24551 -2.2202 0
M  V30 2699 H 258.396 2.30022 -1.09371 0
M  V30 2700 H 259.179 2.0583 -2.74752 0
M  V30 2701 N 261.624 0.925811 1.2754 0
M  V30 2702 C 262.849 0.580924 1.99098 0
M  V30 2703 C 263.274 -0.833555 1.68622 0
M  V30 2704 O 262.632 -1.55903 0.925422 0
M  V30 2705 C 262.68 0.811186 3.51358 0
M  V30 2706 O 261.784 -0.124129 4.12213 0
M  V30 2707 H 261.125 0.223873 0.625122 0
M  V30 2708 H 263.655 1.24455 1.62395 0
M  V30 2709 H 263.665 0.72601 4.01489 0
M  V30 2710 H 262.34 1.84227 3.72872 0
M  V30 2711 H 260.917 0.0108006 3.72898 0
M  V30 2712 N 263.102 -1.41638 0.69111 0
M  V30 2713 C 264.065 -2.29178 0.0319786 0
M  V30 2714 C 265.065 -1.44153 -0.712496 0
M  V30 2715 O 266.255 -1.65354 -0.548053 0
M  V30 2716 C 263.387 -3.26952 -0.965161 0
M  V30 2717 H 264.58 -2.88959 0.802681 0
M  V30 2718 H 262.133 -1.4955 0.454356 0
M  V30 2719 H 262.868 -2.72142 -1.76378 0
M  V30 2720 H 262.653 -3.89685 -0.434522 0
M  V30 2721 H 264.143 -3.92561 -1.42428 0
M  V30 2722 N 264.58 -0.43555 -1.51462 0
M  V30 2723 C 265.805 0.132627 -2.06976 0
M  V30 2724 C 266.23 1.35848 -1.30104 0
M  V30 2725 O 265.588 1.78112 -0.338493 0
M  V30 2726 C 265.636 0.43523 -3.57964 0
M  V30 2727 O 264.74 1.52198 -3.83288 0
M  V30 2728 H 264.081 0.00265 -0.663995 0
M  V30 2729 H 266.611 -0.616369 -1.95095 0
M  V30 2730 H 266.621 0.686206 -4.02188 0
M  V30 2731 H 265.296 -0.460739 -4.1334 0
M  V30 2732 H 263.873 1.2611 -3.50928 0
M  V30 2733 N 266.058 1.56714 -0.166846 0
M  V30 2734 C 267.006 2.19056 0.782123 0
M  V30 2735 C 268 1.15328 1.24079 0
M  V30 2736 O 269.206 1.33537 1.20697 0
M  V30 2737 H 265.581 0.70167 0.270486 0
M  V30 2738 H 267.552 2.97494 0.232322 0
M  V30 2739 C 266.301 2.84206 2.00306 0
M  V30 2740 H 265.624 3.63748 1.65914 0
M  V30 2741 H 267.064 3.31302 2.64604 0
M  V30 2742 C 265.523 1.83744 2.82382 0
M  V30 2743 O 266.053 1.32014 3.79388 0
M  V30 2744 N 264.259 1.52601 2.47308 0
M  V30 2745 H 263.806 1.9486 1.68485 0
M  V30 2746 H 263.764 0.856351 3.02513 0
M  V30 2747 N 267.536 -0.106894 1.57237 0
M  V30 2748 C 268.784 -0.810921 1.85117 0
M  V30 2749 C 269.105 -1.7984 0.753827 0
M  V30 2750 O 268.375 -1.94649 -0.221056 0
M  V30 2751 H 266.955 -0.302466 0.683025 0
M  V30 2752 H 269.617 -0.0913324 1.94686 0
M  V30 2753 H 268.713 -1.34875 2.81452 0
M  V30 2754 N 269.014 -1.53014 -0.377408 0
M  V30 2755 C 270.43 -1.42523 -0.718281 0
M  V30 2756 C 270.63 -0.55487 -1.9371 0
M  V30 2757 O 269.686 -0.0327593 -2.52479 0
M  V30 2758 C 270.999 -2.85546 -0.942539 0
M  V30 2759 C 272.547 -2.95101 -1.04329 0
M  V30 2760 C 273.022 -4.3916 -1.3001 0
M  V30 2761 N 274.513 -4.42536 -1.36806 0
M  V30 2762 C 275.248 -5.51097 -1.58364 0
M  V30 2763 N 274.744 -6.69724 -1.77317 0
M  V30 2764 N 276.537 -5.38657 -1.60638 0
M  V30 2765 H 268.688 -2.08116 0.424426 0
M  V30 2766 H 270.951 -0.939352 0.127759 0
M  V30 2767 H 270.657 -3.51499 -0.118929 0
M  V30 2768 H 270.531 -3.28493 -1.85397 0
M  V30 2769 H 272.918 -2.29309 -1.85745 0
M  V30 2770 H 272.999 -2.55566 -0.109505 0
M  V30 2771 H 272.643 -5.05521 -0.490991 0
M  V30 2772 H 272.573 -4.76258 -2.24691 0
M  V30 2773 H 275.064 -3.57039 -1.23821 0
M  V30 2774 H 275.377 -7.48233 -1.93306 0
M  V30 2775 H 273.722 -6.72732 -1.74518 0
M  V30 2776 H 276.913 -4.44948 -1.45391 0
M  V30 2777 H 277.086 -6.2333 -1.77098 0
M  V30 2778 N 270.492 0.636531 -1.44174 0
M  V30 2779 C 271.741 1.39213 -1.45954 0
M  V30 2780 C 272.054 1.95374 -0.0939119 0
M  V30 2781 O 273.26 2.71498 0.0107767 0
M  V30 2782 C 271.716 2.52025 -2.56927 0
M  V30 2783 C 271.324 2.024 -3.99673 0
M  V30 2784 C 273.068 3.29269 -2.67922 0
M  V30 2785 C 270.975 3.12521 -5.0208 0
M  V30 2786 H 269.905 0.523132 -0.542999 0
M  V30 2787 H 272.556 0.685349 -1.70221 0
M  V30 2788 H 270.938 3.25253 -2.25891 0
M  V30 2789 H 272.112 1.36073 -4.40251 0
M  V30 2790 H 270.427 1.37987 -3.92872 0
M  V30 2791 H 273.024 4.11352 -3.41605 0
M  V30 2792 H 273.367 3.78397 -1.73555 0
M  V30 2793 H 273.9 2.63129 -2.98342 0
M  V30 2794 H 270.639 2.68343 -5.98057 0
M  V30 2795 H 270.159 3.77507 -4.66099 0
M  V30 2796 H 271.838 3.77385 -5.25538 0
M  V30 2797 N 271.97 1.30982 0.876444 0
M  V30 2798 C 272.917 1.18085 1.98304 0
M  V30 2799 C 273.887 0.0682263 1.6596 0
M  V30 2800 O 275.072 0.239937 1.89285 0
M  V30 2801 C 272.212 0.887475 3.33493 0
M  V30 2802 C 271.325 2.08281 3.78475 0
M  V30 2803 C 270.46 1.72678 5.0235 0
M  V30 2804 C 269.499 2.88657 5.39762 0
M  V30 2805 N 268.636 2.53292 6.54819 0
M  V30 2806 H 273.476 2.1275 2.08666 0
M  V30 2807 H 271.013 1.05839 1.02159 0
M  V30 2808 H 272.971 0.697961 4.1132 0
M  V30 2809 H 271.601 -0.022315 3.22792 0
M  V30 2810 H 270.653 2.3833 2.96484 0
M  V30 2811 H 271.965 2.95108 4.02135 0
M  V30 2812 H 271.119 1.50151 5.87826 0
M  V30 2813 H 269.858 0.830327 4.8058 0
M  V30 2814 H 268.863 3.1184 4.52809 0
M  V30 2815 H 270.088 3.79002 5.63502 0
M  V30 2816 H 268.034 1.66163 6.34607 0
M  V30 2817 H 267.951 3.3365 6.7839 0
M  V30 2818 H 269.219 2.34143 7.43503 0
M  V30 2819 N 273.449 -1.08991 1.13837 0
M  V30 2820 C 274.381 -2.15606 0.777612 0
M  V30 2821 C 275.394 -1.61533 -0.202739 0
M  V30 2822 O 276.583 -1.78491 0.0181055 0
M  V30 2823 C 273.683 -3.3864 0.132623 0
M  V30 2824 C 272.856 -4.22115 1.1462 0
M  V30 2825 C 271.915 -5.23564 0.526074 0
M  V30 2826 O 270.941 -5.56678 1.18735 0
M  V30 2827 N 272.143 -5.76266 -0.699866 0
M  V30 2828 H 274.908 -2.47159 1.69506 0
M  V30 2829 H 272.469 -1.24747 1.03198 0
M  V30 2830 H 274.461 -4.03626 -0.29459 0
M  V30 2831 H 273.031 -3.04938 -0.687849 0
M  V30 2832 H 272.251 -3.53199 1.75055 0
M  V30 2833 H 273.539 -4.74709 1.83109 0
M  V30 2834 H 272.937 -5.51585 -1.25581 0
M  V30 2835 H 271.494 -6.42963 -1.06968 0
M  V30 2836 N 274.927 -0.932562 -1.27047 0
M  V30 2837 C 275.857 -0.452902 -2.29066 0
M  V30 2838 C 276.838 0.489338 -1.62909 0
M  V30 2839 O 278.023 0.393046 -1.90181 0
M  V30 2840 C 275.153 0.290698 -3.46081 0
M  V30 2841 C 274.107 -0.564168 -4.24265 0
M  V30 2842 C 273.433 0.308886 -5.33807 0
M  V30 2843 C 274.733 -1.83112 -4.89149 0
M  V30 2844 H 276.427 -1.30552 -2.69437 0
M  V30 2845 H 273.973 -0.629201 -1.29526 0
M  V30 2846 H 275.926 0.637233 -4.16554 0
M  V30 2847 H 274.65 1.17738 -3.0464 0
M  V30 2848 H 273.309 -0.893477 -3.55545 0
M  V30 2849 H 272.957 1.19467 -4.88607 0
M  V30 2850 H 272.657 -0.259633 -5.87026 0
M  V30 2851 H 274.181 0.650884 -6.07121 0
M  V30 2852 H 275.595 -1.55236 -5.51883 0
M  V30 2853 H 273.992 -2.34353 -5.52448 0
M  V30 2854 H 275.062 -2.54772 -4.12576 0
M  V30 2855 N 276.405 1.4127 -0.698611 0
M  V30 2856 C 277.821 1.55241 -0.370462 0
M  V30 2857 C 278.021 1.67351 1.12231 0
M  V30 2858 O 277.077 1.65363 1.90818 0
M  V30 2859 C 278.39 2.78997 -1.12165 0
M  V30 2860 C 279.938 2.92797 -1.1063 0
M  V30 2861 C 280.413 4.19445 -1.8393 0
M  V30 2862 N 281.904 4.26409 -1.80914 0
M  V30 2863 C 282.639 5.23271 -2.34467 0
M  V30 2864 N 282.135 6.26145 -2.96504 0
M  V30 2865 N 283.928 5.15232 -2.24706 0
M  V30 2866 H 276.079 1.31654 -1.66676 0
M  V30 2867 H 278.342 0.635393 -0.703548 0
M  V30 2868 H 278.048 2.76268 -2.17644 0
M  V30 2869 H 277.922 3.70606 -0.702209 0
M  V30 2870 H 280.309 2.95039 -0.0597713 0
M  V30 2871 H 280.39 2.02353 -1.56483 0
M  V30 2872 H 280.034 4.17964 -2.88563 0
M  V30 2873 H 279.964 5.08866 -1.35509 0
M  V30 2874 H 282.455 3.527 -1.35687 0
M  V30 2875 H 282.768 6.96451 -3.34927 0
M  V30 2876 H 281.113 6.26638 -3.00583 0
M  V30 2877 H 284.304 4.33789 -1.7591 0
M  V30 2878 H 284.477 5.90552 -2.66745 0
M  V30 2879 N 277.883 0.443576 1.51229 0
M  V30 2880 C 279.108 -0.121648 2.07043 0
M  V30 2881 C 279.533 -1.35156 1.30823 0
M  V30 2882 O 278.891 -1.7793 0.347934 0
M  V30 2883 C 278.939 -0.41624 3.5819 0
M  V30 2884 O 278.043 -1.50163 3.8409 0
M  V30 2885 H 277.384 0.000871367 0.663999 0
M  V30 2886 H 279.914 0.626706 1.94765 0
M  V30 2887 H 279.924 -0.664867 4.02546 0
M  V30 2888 H 278.599 0.482653 4.1309 0
M  V30 2889 H 277.176 -1.24248 3.51592 0
M  V30 2890 N 279.361 -1.56624 0.175154 0
M  V30 2891 C 280.271 -2.21741 -0.766042 0
M  V30 2892 C 281.287 -1.21023 -1.25018 0
M  V30 2893 O 282.463 -1.53697 -1.3015 0
M  V30 2894 C 279.528 -2.84839 -1.97655 0
M  V30 2895 C 278.589 -4.00769 -1.53892 0
M  V30 2896 C 277.822 -4.60849 -2.69173 0
M  V30 2897 O 278.045 -4.19823 -3.86141 0
M  V30 2898 O 276.979 -5.50655 -2.43028 0
M  V30 2899 H 280.805 -3.02738 -0.241585 0
M  V30 2900 H 278.39 -1.49305 -0.053222 0
M  V30 2901 H 280.272 -3.24834 -2.68442 0
M  V30 2902 H 278.947 -2.06836 -2.48999 0
M  V30 2903 H 277.854 -3.65436 -0.80044 0
M  V30 2904 H 279.187 -4.80376 -1.07236 0
M  V30 2905 N 280.839 0.0985539 -1.57292 0
M  V30 2906 C 282.067 0.816318 -1.90115 0
M  V30 2907 C 282.482 1.72451 -0.768509 0
M  V30 2908 O 281.839 1.80643 0.259687 0
M  V30 2909 C 281.89 1.63259 -3.22535 0
M  V30 2910 O 281.611 0.760934 -4.31441 0
M  V30 2911 C 283.112 2.45372 -3.69199 0
M  V30 2912 H 280.332 0.233595 -0.629027 0
M  V30 2913 H 282.876 0.0768229 -2.04356 0
M  V30 2914 H 281.031 2.32463 -3.09903 0
M  V30 2915 H 281.445 1.32595 -5.07463 0
M  V30 2916 H 282.919 2.98144 -4.64558 0
M  V30 2917 H 283.396 3.23677 -2.96867 0
M  V30 2918 H 284.002 1.81373 -3.84687 0
M  V30 2919 N 282.317 1.53212 0.369288 0
M  V30 2920 C 283.564 1.69215 1.11232 0
M  V30 2921 C 283.892 0.442048 1.8941 0
M  V30 2922 O 283.147 -0.575944 1.87033 0
M  V30 2923 C 283.446 2.89101 2.10132 0
M  V30 2924 C 283.112 4.25758 1.48463 0
M  V30 2925 C 281.774 4.6292 1.31372 0
M  V30 2926 C 284.126 5.10757 1.03811 0
M  V30 2927 C 281.454 5.82722 0.68207 0
M  V30 2928 C 283.806 6.31201 0.420487 0
M  V30 2929 C 282.47 6.67079 0.237038 0
M  V30 2930 H 281.74 0.619201 0.407027 0
M  V30 2931 H 284.387 1.87391 0.394552 0
M  V30 2932 H 282.692 2.65421 2.88199 0
M  V30 2933 H 284.389 2.98676 2.6757 0
M  V30 2934 H 280.979 3.96494 1.62758 0
M  V30 2935 H 285.163 4.82599 1.1581 0
M  V30 2936 H 280.419 6.09113 0.528316 0
M  V30 2937 H 284.593 6.96368 0.0662874 0
M  V30 2938 H 282.22 7.59774 -0.254477 0
M  V30 2939 N 283.795 -0.628877 1.44509 0
M  V30 2940 C 284.705 -1.7694 1.54044 0
M  V30 2941 C 285.721 -1.68705 0.425987 0
M  V30 2942 O 286.897 -1.89442 0.683656 0
M  V30 2943 C 283.962 -3.13332 1.48405 0
M  V30 2944 C 283.023 -3.33181 2.70719 0
M  V30 2945 C 282.256 -4.63067 2.6534 0
M  V30 2946 O 282.479 -5.44017 1.71469 0
M  V30 2947 O 281.413 -4.85167 3.56226 0
M  V30 2948 H 285.239 -1.71848 2.50403 0
M  V30 2949 H 282.824 -0.790378 1.26781 0
M  V30 2950 H 284.706 -3.94634 1.47791 0
M  V30 2951 H 283.381 -3.1896 0.551898 0
M  V30 2952 H 282.288 -2.51549 2.769 0
M  V30 2953 H 283.621 -3.32416 3.62988 0
M  V30 2954 N 285.273 -1.31445 -0.869486 0
M  V30 2955 C 286.498 -1.24256 -1.66058 0
M  V30 2956 C 286.923 0.188928 -1.87149 0
M  V30 2957 O 286.281 1.13522 -1.4136 0
M  V30 2958 C 286.329 -1.9924 -3.00559 0
M  V30 2959 O 285.433 -1.33007 -3.90362 0
M  V30 2960 H 284.774 -0.428973 -0.506831 0
M  V30 2961 H 287.304 -1.73521 -1.08404 0
M  V30 2962 H 287.314 -2.08854 -3.50491 0
M  V30 2963 H 285.989 -3.03342 -2.84528 0
M  V30 2964 H 284.566 -1.31848 -3.48813 0
M  V30 2965 N 286.751 1.08385 -1.14413 0
M  V30 2966 C 287.979 1.84517 -0.936001 0
M  V30 2967 C 288.394 1.81626 0.515503 0
M  V30 2968 O 287.751 1.22008 1.35721 0
M  V30 2969 C 287.802 3.32049 -1.42918 0
M  V30 2970 O 287.523 3.34951 -2.82381 0
M  V30 2971 C 289.024 4.24986 -1.26103 0
M  V30 2972 H 286.244 0.582491 -0.333084 0
M  V30 2973 H 288.788 1.36885 -1.5193 0
M  V30 2974 H 286.943 3.7707 -0.888641 0
M  V30 2975 H 287.357 4.27048 -3.04517 0
M  V30 2976 H 288.831 5.26615 -1.6547 0
M  V30 2977 H 289.308 4.38726 -0.20392 0
M  V30 2978 H 289.914 3.85791 -1.79012 0
M  V30 2979 N 288.23 0.939286 1.26551 0
M  V30 2980 C 289.641 0.628782 1.75793 0
M  V30 2981 C 289.992 -0.856046 1.7654 0
M  V30 2982 O 289.117 -1.66994 1.3763 0
M  V30 2983 C 289.712 1.13465 3.19235 0
M  V30 2984 C 288.271 0.874601 3.66098 0
M  V30 2985 C 287.418 1.28667 2.45642 0
M  V30 2986 H 290.369 1.1178 1.12654 0
M  V30 2987 H 290.39 0.487609 3.77363 0
M  V30 2988 H 289.902 2.21535 3.1866 0
M  V30 2989 H 288.003 -0.191793 3.72106 0
M  V30 2990 H 288.116 1.50028 4.55004 0
M  V30 2991 H 286.48 0.705109 2.44745 0
M  V30 2992 H 287.263 2.37625 2.47769 0
M  V30 2993 N 289.708 -1.40897 0.706093 0
M  V30 2994 C 290.957 -2.00284 0.238574 0
M  V30 2995 C 291.27 -1.56604 -1.17194 0
M  V30 2996 O 292.476 -2.08624 -1.73748 0
M  V30 2997 C 290.932 -3.57934 0.375623 0
M  V30 2998 C 290.54 -4.10591 1.79217 0
M  V30 2999 C 292.284 -4.24488 -0.0315857 0
M  V30 3000 C 290.191 -5.60712 1.88032 0
M  V30 3001 H 289.121 -0.749144 0.0854398 0
M  V30 3002 H 291.772 -1.61251 0.875813 0
M  V30 3003 H 290.154 -3.94622 -0.330042 0
M  V30 3004 H 291.328 -3.85301 2.52745 0
M  V30 3005 H 289.643 -3.56601 2.15 0
M  V30 3006 H 292.24 -5.34698 0.0136842 0
M  V30 3007 H 292.583 -4.02261 -1.072 0
M  V30 3008 H 293.116 -3.92873 0.624181 0
M  V30 3009 H 289.855 -5.87781 2.90161 0
M  V30 3010 H 289.375 -5.87896 1.18903 0
M  V30 3011 H 291.054 -6.25658 1.64805 0
M  V30 3012 N 291.186 -0.45159 -1.50991 0
M  V30 3013 C 292.602 -0.104647 -1.59257 0
M  V30 3014 C 292.802 1.38728 -1.4614 0
M  V30 3015 O 291.858 2.15866 -1.30989 0
M  V30 3016 C 293.171 -0.637468 -2.93865 0
M  V30 3017 C 294.719 -0.599166 -3.07212 0
M  V30 3018 C 295.194 -1.1092 -4.44366 0
M  V30 3019 N 296.685 -1.06778 -4.50725 0
M  V30 3020 C 297.42 -1.43314 -5.55201 0
M  V30 3021 N 296.916 -1.87204 -6.67028 0
M  V30 3022 N 298.709 -1.3504 -5.45638 0
M  V30 3023 H 290.86 -1.42214 -1.57762 0
M  V30 3024 H 293.123 -0.586921 -0.744465 0
M  V30 3025 H 292.829 -1.68187 -3.08879 0
M  V30 3026 H 292.703 -0.0702139 -3.77135 0
M  V30 3027 H 295.09 0.436277 -2.91857 0
M  V30 3028 H 295.171 -1.20299 -2.25747 0
M  V30 3029 H 294.815 -2.14318 -4.60467 0
M  V30 3030 H 294.745 -0.481773 -5.24392 0
M  V30 3031 H 297.236 -0.745643 -3.70471 0
M  V30 3032 H 297.549 -2.13282 -7.42786 0
M  V30 3033 H 295.894 -1.91142 -6.68199 0
M  V30 3034 H 299.085 -1.00607 -4.57161 0
M  V30 3035 H 299.258 -1.63841 -6.26945 0
M  V30 3036 N 292.664 1.56529 -0.183458 0
M  V30 3037 C 293.912 1.96855 0.457452 0
M  V30 3038 C 294.233 1.07104 1.62953 0
M  V30 3039 O 293.503 0.139887 1.954 0
M  V30 3040 H 292.083 0.72693 0.171992 0
M  V30 3041 H 294.745 1.93056 -0.267476 0
M  V30 3042 H 293.841 3.01423 0.809368 0
M  V30 3043 N 294.142 -0.090211 1.57342 0
M  V30 3044 C 295.105 -1.09335 2.01441 0
M  V30 3045 C 296.105 -1.32666 0.908641 0
M  V30 3046 O 297.295 -1.28697 1.174 0
M  V30 3047 C 294.427 -2.44136 2.3793 0
M  V30 3048 H 295.62 -0.713662 2.91285 0
M  V30 3049 H 293.173 -0.335404 1.52659 0
M  V30 3050 H 293.908 -2.86972 1.51055 0
M  V30 3051 H 293.693 -2.28548 3.18603 0
M  V30 3052 H 295.183 -3.16277 2.72688 0
M  V30 3053 N 295.62 -1.53406 -0.361157 0
M  V30 3054 C 296.55 -1.83136 -1.44857 0
M  V30 3055 C 297.531 -0.685174 -1.5569 0
M  V30 3056 O 298.716 -0.93544 -1.70186 0
M  V30 3057 C 295.846 -2.02522 -2.82138 0
M  V30 3058 C 294.8 -3.18302 -2.86126 0
M  V30 3059 C 294.126 -3.22989 -4.26125 0
M  V30 3060 C 295.426 -4.56796 -2.53248 0
M  V30 3061 H 297.12 -2.74201 -1.20226 0
M  V30 3062 H 294.666 -1.31938 -0.576922 0
M  V30 3063 H 296.619 -2.21904 -3.58241 0
M  V30 3064 H 295.343 -1.08172 -3.08166 0
M  V30 3065 H 294.002 -2.98747 -2.12475 0
M  V30 3066 H 293.65 -2.26267 -4.49235 0
M  V30 3067 H 293.35 -4.00781 -4.29708 0
M  V30 3068 H 294.874 -3.44559 -5.04094 0
M  V30 3069 H 296.288 -4.7631 -3.19064 0
M  V30 3070 H 294.685 -5.36862 -2.68141 0
M  V30 3071 H 295.755 -4.61606 -1.48484 0
M  V30 3072 N 297.098 0.621204 -1.44841 0
M  V30 3073 C 298.03 1.74615 -1.48466 0
M  V30 3074 C 299.043 1.58377 -0.37691 0
M  V30 3075 O 300.232 1.66508 -0.643215 0
M  V30 3076 C 297.332 3.12459 -1.31236 0
M  V30 3077 C 296.505 3.55064 -2.55438 0
M  V30 3078 C 295.564 4.71821 -2.32963 0
M  V30 3079 O 294.59 4.79628 -3.06505 0
M  V30 3080 N 295.792 5.64186 -1.36654 0
M  V30 3081 H 298.557 1.71973 -2.45449 0
M  V30 3082 H 296.118 0.806077 -1.40407 0
M  V30 3083 H 298.11 3.88302 -1.14032 0
M  V30 3084 H 296.68 3.09686 -0.4258 0
M  V30 3085 H 295.9 2.69324 -2.87851 0
M  V30 3086 H 297.188 3.80284 -3.38026 0
M  V30 3087 H 296.586 5.6058 -0.759344 0
M  V30 3088 H 295.143 6.39618 -1.25425 0
M  V30 3089 N 298.576 1.31904 0.862503 0
M  V30 3090 C 299.825 1.21373 1.61094 0
M  V30 3091 C 300.138 -0.22504 1.94301 0
M  V30 3092 O 301.344 -0.452121 2.67709 0
M  V30 3093 C 299.8 2.12525 2.9045 0
M  V30 3094 C 299.408 3.61441 2.64697 0
M  V30 3095 C 301.152 2.10813 3.68454 0
M  V30 3096 C 299.059 4.44578 3.90006 0
M  V30 3097 H 297.989 0.450705 0.604468 0
M  V30 3098 H 300.64 1.56811 0.953027 0
M  V30 3099 H 299.022 1.69994 3.57656 0
M  V30 3100 H 300.196 4.12264 2.05851 0
M  V30 3101 H 298.511 3.65205 2.00036 0
M  V30 3102 H 301.108 2.70167 4.61426 0
M  V30 3103 H 301.451 1.09713 4.01583 0
M  V30 3104 H 301.984 2.51583 3.08141 0
M  V30 3105 H 298.723 5.46461 3.62023 0
M  V30 3106 H 298.243 3.98508 4.48276 0
M  V30 3107 H 299.922 4.57176 4.5782 0
M  V30 3108 N 300.054 -1.07777 1.14986 0
M  V30 3109 C 300.964 -2.18404 0.856546 0
M  V30 3110 C 301.98 -1.73211 -0.165485 0
M  V30 3111 O 303.156 -2.01399 0.00755219 0
M  V30 3112 C 300.221 -3.44977 0.34526 0
M  V30 3113 C 299.282 -4.0476 1.43065 0
M  V30 3114 C 298.515 -5.25291 0.943663 0
M  V30 3115 O 298.738 -5.70004 -0.212426 0
M  V30 3116 O 297.672 -5.76638 1.72547 0
M  V30 3117 H 301.498 -2.45978 1.78125 0
M  V30 3118 H 299.083 -1.17033 0.928631 0
M  V30 3119 H 300.965 -4.21348 0.0663671 0
M  V30 3120 H 299.64 -3.18965 -0.551631 0
M  V30 3121 H 298.547 -3.29949 1.76309 0
M  V30 3122 H 299.88 -4.35035 2.30229 0
M  V30 3123 N 301.532 -0.945985 -1.26051 0
M  V30 3124 C 302.757 -0.612525 -1.98149 0
M  V30 3125 C 303.182 0.806623 -1.69927 0
M  V30 3126 O 302.54 1.54411 -0.950108 0
M  V30 3127 C 302.588 -0.866981 -3.50023 0
M  V30 3128 O 301.692 0.0585333 -4.12358 0
M  V30 3129 H 301.033 -0.23379 -0.621481 0
M  V30 3130 H 303.563 -1.27023 -1.60395 0
M  V30 3131 H 303.573 -0.789792 -4.00283 0
M  V30 3132 H 302.248 -1.90135 -3.69894 0
M  V30 3133 H 300.825 -0.0701241 -3.72834 0
M  V30 3134 N 303.011 1.40521 -0.713556 0
M  V30 3135 C 304.236 2.05759 -0.26035 0
M  V30 3136 C 304.661 1.53403 1.08854 0
M  V30 3137 O 304.019 0.668535 1.68524 0
M  V30 3138 C 304.067 3.59745 -0.248122 0
M  V30 3139 O 303.171 4.05123 0.77131 0
M  V30 3140 H 302.512 0.652564 -0.122703 0
M  V30 3141 H 305.042 1.79958 -0.973467 0
M  V30 3142 H 305.052 4.07911 -0.0851129 0
M  V30 3143 H 303.727 3.97218 -1.2325 0
M  V30 3144 H 302.304 3.68422 0.57619 0
M  V30 3145 N 304.489 0.459591 1.5075 0
M  V30 3146 C 305.399 -0.34613 2.32033 0
M  V30 3147 C 306.415 -1.00686 1.41909 0
M  V30 3148 O 307.591 -0.997361 1.7497 0
M  V30 3149 C 304.656 -1.42029 3.16273 0
M  V30 3150 C 303.717 -0.777362 4.22203 0
M  V30 3151 C 302.95 -1.80034 5.02418 0
M  V30 3152 O 303.173 -3.02544 4.83553 0
M  V30 3153 O 302.107 -1.37853 5.85901 0
M  V30 3154 H 305.933 0.318054 3.0203 0
M  V30 3155 H 303.518 0.221663 1.47746 0
M  V30 3156 H 305.4 -2.04275 3.68578 0
M  V30 3157 H 304.075 -2.06815 2.49016 0
M  V30 3158 H 302.982 -0.116256 3.73919 0
M  V30 3159 H 304.315 -0.172634 4.91897 0
M  V30 3160 N 305.967 -1.56429 0.191757 0
M  V30 3161 C 306.877 -2.22541 -0.742481 0
M  V30 3162 C 307.893 -1.22342 -1.23727 0
M  V30 3163 O 309.069 -1.55069 -1.28513 0
M  V30 3164 C 306.134 -2.8692 -1.94623 0
M  V30 3165 C 305.195 -4.02378 -1.49633 0
M  V30 3166 C 304.428 -4.63678 -2.6427 0
M  V30 3167 O 304.651 -4.23895 -3.81666 0
M  V30 3168 O 303.585 -5.53202 -2.37174 0
M  V30 3169 H 307.411 -3.02977 -0.209462 0
M  V30 3170 H 304.996 -1.49353 -0.0373832 0
M  V30 3171 H 306.878 -3.27663 -2.64982 0
M  V30 3172 H 305.553 -2.09466 -2.46791 0
M  V30 3173 H 304.46 -3.66265 -0.761636 0
M  V30 3174 H 305.793 -4.81487 -1.02134 0
M  V30 3175 N 307.445 0.0818655 -1.57387 0
M  V30 3176 C 308.673 0.796108 -1.9097 0
M  V30 3177 C 309.088 1.71626 -0.786757 0
M  V30 3178 O 308.445 1.80908 0.240513 0
M  V30 3179 C 308.496 1.59829 -3.24248 0
M  V30 3180 O 308.217 0.715131 -4.32224 0
M  V30 3181 C 309.718 2.41442 -3.7178 0
M  V30 3182 H 306.938 0.22691 -0.631469 0
M  V30 3183 H 309.482 0.0551439 -2.04426 0
M  V30 3184 H 307.637 2.29163 -3.12351 0
M  V30 3185 H 308.051 1.27205 -5.08841 0
M  V30 3186 H 309.525 2.932 -4.67694 0
M  V30 3187 H 310.002 3.2051 -3.00283 0
M  V30 3188 H 310.608 1.77283 -3.86589 0
M  V30 3189 N 308.923 1.53595 0.353017 0
M  V30 3190 C 310.2 1.61002 1.11075 0
M  V30 3191 C 310.58 0.425356 2.0677 0
M  V30 3192 O 309.928 -0.583267 2.2093 0
M  V30 3193 C 310.138 2.96631 1.83877 0
M  V30 3194 C 311.486 3.51653 2.37961 0
M  V30 3195 O 312.51 2.98743 1.93987 0
M  V30 3196 O 311.369 4.44177 3.18386 0
M  V30 3197 H 308.463 0.650825 0.510251 0
M  V30 3198 H 311.009 1.6594 0.35527 0
M  V30 3199 H 309.781 3.74293 1.14108 0
M  V30 3200 H 309.404 2.95242 2.66304 0
M  V30 3201 N 310.401 -0.613514 1.45168 0
M  V30 3202 C 311.333 -1.73825 1.4939 0
M  V30 3203 C 312.346 -1.58175 0.385304 0
M  V30 3204 O 313.535 -1.66165 0.652036 0
M  V30 3205 C 310.635 -3.11758 1.32891 0
M  V30 3206 C 309.808 -3.53704 2.57317 0
M  V30 3207 C 308.867 -4.70579 2.35462 0
M  V30 3208 O 307.893 -4.77996 3.09044 0
M  V30 3209 N 309.095 -5.63454 1.39644 0
M  V30 3210 H 311.86 -1.70669 2.46358 0
M  V30 3211 H 309.421 -0.79862 1.40832 0
M  V30 3212 H 311.413 -3.87692 1.1609 0
M  V30 3213 H 309.983 -3.09456 0.442218 0
M  V30 3214 H 309.203 -2.67794 2.89275 0
M  V30 3215 H 310.491 -3.78486 3.40038 0
M  V30 3216 H 309.889 -5.6017 0.789062 0
M  V30 3217 H 308.446 -6.38944 1.28816 0
M  V30 3218 N 311.879 -1.3236 -0.855495 0
M  V30 3219 C 313.127 -1.22629 -1.60644 0
M  V30 3220 C 313.448 0.212136 -1.93843 0
M  V30 3221 O 312.718 1.13666 -1.59552 0
M  V30 3222 H 311.298 -0.450882 -0.595579 0
M  V30 3223 H 313.96 -1.65871 -1.02337 0
M  V30 3224 H 313.056 -1.80832 -2.54374 0
M  V30 3225 N 313.357 1.07166 -1.15556 0
M  V30 3226 C 314.304 2.14417 -0.854055 0
M  V30 3227 C 315.274 1.64965 0.193806 0
M  V30 3228 O 316.459 1.90703 0.0609443 0
M  V30 3229 C 313.599 3.43304 -0.351574 0
M  V30 3230 C 312.712 4.06537 -1.46123 0
M  V30 3231 C 311.847 5.23266 -0.914677 0
M  V30 3232 C 310.886 5.78464 -2.00114 0
M  V30 3233 N 310.023 6.86521 -1.47083 0
M  V30 3234 H 314.863 2.39548 -1.77259 0
M  V30 3235 H 312.4 1.17543 -0.884425 0
M  V30 3236 H 314.358 4.17179 -0.0419409 0
M  V30 3237 H 312.988 3.18419 0.530037 0
M  V30 3238 H 312.04 3.30297 -1.88701 0
M  V30 3239 H 313.352 4.43567 -2.28144 0
M  V30 3240 H 312.506 6.04131 -0.557698 0
M  V30 3241 H 311.245 4.87658 -0.0636583 0
M  V30 3242 H 310.25 4.96243 -2.36692 0
M  V30 3243 H 311.475 6.16126 -2.85597 0
M  V30 3244 H 309.421 6.52849 -0.642198 0
M  V30 3245 H 309.338 7.22446 -2.22729 0
M  V30 3246 H 310.606 7.71087 -1.14215 0
M  V30 3247 N 314.835 0.952656 1.25548 0
M  V30 3248 C 316.065 0.622592 1.96996 0
M  V30 3249 C 316.473 -0.809112 1.71026 0
M  V30 3250 O 315.816 -1.55258 0.981861 0
M  V30 3251 C 315.878 0.798946 3.5051 0
M  V30 3252 C 315.542 2.20744 4.00151 0
M  V30 3253 C 316.539 3.18394 4.11001 0
M  V30 3254 C 314.224 2.5311 4.33867 0
M  V30 3255 C 316.218 4.46504 4.54877 0
M  V30 3256 C 313.905 3.8145 4.7743 0
M  V30 3257 C 314.903 4.77959 4.87897 0
M  V30 3258 O 314.591 6.04012 5.30494 0
M  V30 3259 H 314.323 0.232503 0.634758 0
M  V30 3260 H 316.877 1.2789 1.60728 0
M  V30 3261 H 315.107 0.0854903 3.86605 0
M  V30 3262 H 316.796 0.47023 4.03167 0
M  V30 3263 H 317.562 2.94715 3.85186 0
M  V30 3264 H 313.441 1.78719 4.24948 0
M  V30 3265 H 316.985 5.21835 4.62962 0
M  V30 3266 H 312.882 4.04936 5.0269 0
M  V30 3267 H 313.65 6.0736 5.48685 0
M  V30 3268 N 316.313 -1.40141 0.720998 0
M  V30 3269 C 317.223 -2.34486 0.0731031 0
M  V30 3270 C 318.239 -1.57587 -0.737723 0
M  V30 3271 O 319.415 -1.89949 -0.669429 0
M  V30 3272 C 316.48 -3.36528 -0.833656 0
M  V30 3273 C 315.541 -4.29298 -0.0121673 0
M  V30 3274 C 314.774 -5.26466 -0.875742 0
M  V30 3275 O 314.997 -5.29745 -2.11485 0
M  V30 3276 O 313.931 -6.01092 -0.31185 0
M  V30 3277 H 317.757 -2.9152 0.851444 0
M  V30 3278 H 315.342 -1.41427 0.481527 0
M  V30 3279 H 317.224 -3.99093 -1.35289 0
M  V30 3280 H 315.899 -2.81899 -1.59105 0
M  V30 3281 H 314.806 -3.70001 0.552262 0
M  V30 3282 H 316.139 -4.87094 0.707129 0
M  V30 3283 N 317.792 -0.46758 -1.50504 0
M  V30 3284 C 319.032 0.0874114 -2.04213 0
M  V30 3285 C 319.396 1.37301 -1.34211 0
M  V30 3286 O 320.597 2.01015 -1.78456 0
M  V30 3287 C 318.868 0.270571 -3.56374 0
M  V30 3288 S 320.427 0.784623 -4.31728 0
M  V30 3289 H 317.245 0.0176153 -0.710782 0
M  V30 3290 H 319.847 -0.633915 -1.84937 0
M  V30 3291 H 318.551 -0.670942 -4.04878 0
M  V30 3292 H 318.082 1.01811 -3.79997 0
M  V30 3293 H 320.097 2.05849 -4.51487 0
M  V30 3294 N 319.27 1.56325 -0.20005 0
M  V30 3295 C 320.516 1.98012 0.438059 0
M  V30 3296 C 320.849 1.08702 1.60927 0
M  V30 3297 O 320.124 0.140064 1.93995 0
M  V30 3298 C 320.407 3.48841 0.893419 0
M  V30 3299 C 320.26 4.48928 -0.279947 0
M  V30 3300 C 321.579 4.03498 1.75719 0
M  V30 3301 H 318.698 0.719918 0.157757 0
M  V30 3302 H 321.34 1.87743 -0.291968 0
M  V30 3303 H 319.49 3.57723 1.51547 0
M  V30 3304 H 321.162 4.52079 -0.91772 0
M  V30 3305 H 319.405 4.23694 -0.930919 0
M  V30 3306 H 320.076 5.5194 0.0812601 0
M  V30 3307 H 322.552 3.97427 1.23253 0
M  V30 3308 H 321.428 5.09393 2.04476 0
M  V30 3309 H 321.689 3.4906 2.71311 0
M  V30 3310 N 320.748 -0.0735177 1.57428 0
M  V30 3311 C 321.711 -1.07192 2.02589 0
M  V30 3312 C 322.711 -1.31695 0.922661 0
M  V30 3313 O 323.901 -1.27445 1.18758 0
M  V30 3314 C 321.033 -2.41599 2.40506 0
M  V30 3315 H 322.226 -0.682727 2.92025 0
M  V30 3316 H 319.779 -0.319193 1.53006 0
M  V30 3317 H 320.514 -2.85354 1.5409 0
M  V30 3318 H 320.299 -2.25156 3.21009 0
M  V30 3319 H 321.789 -3.13367 2.76027 0
M  V30 3320 N 322.226 -1.5378 -0.344866 0
M  V30 3321 C 323.454 -1.74899 -1.10534 0
M  V30 3322 C 323.869 -0.487534 -1.82397 0
M  V30 3323 O 323.226 0.540741 -1.74305 0
M  V30 3324 C 323.277 -2.92822 -2.11984 0
M  V30 3325 O 322.998 -4.14089 -1.43044 0
M  V30 3326 C 324.499 -3.25982 -3.00417 0
M  V30 3327 H 321.719 -0.584426 -0.329678 0
M  V30 3328 H 324.263 -2.006 -0.397474 0
M  V30 3329 H 322.418 -2.69457 -2.78338 0
M  V30 3330 H 322.832 -4.80272 -2.10805 0
M  V30 3331 H 324.306 -4.11848 -3.67539 0
M  V30 3332 H 324.783 -2.42228 -3.66363 0
M  V30 3333 H 325.389 -3.51349 -2.39654 0
M  V30 3334 N 323.704 0.605807 -1.45491 0
M  V30 3335 C 324.652 1.73754 -1.54636 0
M  V30 3336 C 325.646 1.64207 -0.416219 0
M  V30 3337 O 326.852 1.69979 -0.592199 0
M  V30 3338 H 323.227 0.574073 -0.485741 0
M  V30 3339 H 325.198 1.63169 -2.49837 0
M  V30 3340 C 323.947 3.12135 -1.53189 0
M  V30 3341 H 323.27 3.20141 -2.39478 0
M  V30 3342 H 324.71 3.91147 -1.63645 0
M  V30 3343 C 323.169 3.35921 -0.256616 0
M  V30 3344 O 323.699 3.96194 0.662798 0
M  V30 3345 N 321.905 2.90204 -0.151751 0
M  V30 3346 H 321.452 2.41336 -0.90081 0
M  V30 3347 H 321.41 3.06492 0.700699 0
M  V30 3348 N 325.182 1.32811 0.848464 0
M  V30 3349 C 326.407 1.26882 1.6406 0
M  V30 3350 C 326.832 -0.15913 1.87426 0
M  V30 3351 O 326.19 -1.11258 1.43148 0
M  V30 3352 C 326.238 2.03997 2.97351 0
M  V30 3353 O 325.342 1.39201 3.88197 0
M  V30 3354 H 324.683 0.436982 0.499943 0
M  V30 3355 H 327.213 1.75224 1.0563 0
M  V30 3356 H 327.223 2.14403 3.47124 0
M  V30 3357 H 325.898 3.0783 2.79666 0
M  V30 3358 H 324.475 1.37381 3.46671 0
M  V30 3359 N 326.66 -1.06551 1.16123 0
M  V30 3360 C 327.623 -2.12132 0.867906 0
M  V30 3361 C 328.623 -1.60224 -0.135944 0
M  V30 3362 O 329.813 -1.73943 0.0946422 0
M  V30 3363 C 326.945 -3.396 0.297419 0
M  V30 3364 H 328.138 -2.39586 1.80385 0
M  V30 3365 H 325.691 -1.22574 0.969812 0
M  V30 3366 H 326.426 -3.17794 -0.64633 0
M  V30 3367 H 326.211 -3.78581 1.02073 0
M  V30 3368 H 327.701 -4.17455 0.110052 0
M  V30 3369 N 328.138 -0.959301 -1.25041 0
M  V30 3370 C 329.386 -0.615393 -1.92503 0
M  V30 3371 C 329.707 0.850969 -1.75452 0
M  V30 3372 O 328.977 1.60658 -1.12098 0
M  V30 3373 H 327.557 -0.224613 -0.712431 0
M  V30 3374 H 330.219 -1.21855 -1.5211 0
M  V30 3375 H 329.315 -0.848738 -3.00338 0
M  V30 3376 N 329.616 1.39756 -0.72842 0
M  V30 3377 C 330.862 2.00942 -0.273892 0
M  V30 3378 C 331.195 1.57656 1.13394 0
M  V30 3379 O 330.47 0.802434 1.77176 0
M  V30 3380 C 330.753 3.58211 -0.368346 0
M  V30 3381 C 330.606 4.11534 -1.81548 0
M  V30 3382 C 331.925 4.39372 0.253054 0
M  V30 3383 H 329.044 0.730047 -0.100996 0
M  V30 3384 H 331.686 1.66056 -0.923337 0
M  V30 3385 H 329.836 3.88061 0.184588 0
M  V30 3386 H 331.508 3.92431 -2.42478 0
M  V30 3387 H 329.751 3.65341 -2.33898 0
M  V30 3388 H 330.422 5.20682 -1.83288 0
M  V30 3389 H 332.898 4.15527 -0.218224 0
M  V30 3390 H 331.774 5.48677 0.156585 0
M  V30 3391 H 332.035 4.21358 1.33826 0
M  V30 3392 N 331.094 0.475555 1.50254 0
M  V30 3393 C 332.51 0.12997 1.5907 0
M  V30 3394 C 332.71 -1.36385 1.48328 0
M  V30 3395 O 331.766 -2.13754 1.34407 0
M  V30 3396 C 333.079 0.684139 2.92814 0
M  V30 3397 C 334.627 0.647965 3.0622 0
M  V30 3398 C 335.102 1.17975 4.42545 0
M  V30 3399 N 336.593 1.13936 4.48969 0
M  V30 3400 C 337.328 1.52129 5.52851 0
M  V30 3401 N 336.824 1.97793 6.63965 0
M  V30 3402 N 338.617 1.43704 5.4342 0
M  V30 3403 H 330.768 1.44706 1.55479 0
M  V30 3404 H 333.031 0.598691 0.735033 0
M  V30 3405 H 332.737 1.73079 3.06164 0
M  V30 3406 H 332.611 0.130204 3.76975 0
M  V30 3407 H 334.998 -0.38979 2.92514 0
M  V30 3408 H 335.079 1.23876 2.23805 0
M  V30 3409 H 334.723 2.21616 4.57 0
M  V30 3410 H 334.653 0.565138 5.23559 0
M  V30 3411 H 337.144 0.804488 3.69238 0
M  V30 3412 H 337.457 2.25072 7.39299 0
M  V30 3413 H 335.802 2.01749 6.65073 0
M  V30 3414 H 338.993 1.07867 4.55502 0
M  V30 3415 H 339.166 1.73794 6.24259 0
M  V30 3416 N 332.573 -1.56217 0.208337 0
M  V30 3417 C 333.803 -2.02043 -0.431523 0
M  V30 3418 C 334.211 -1.08755 -1.54819 0
M  V30 3419 O 333.554 -0.0870009 -1.83494 0
M  V30 3420 C 333.616 -3.44239 -1.03633 0
M  V30 3421 C 333.28 -4.56965 -0.0567502 0
M  V30 3422 C 334.277 -5.14624 0.738773 0
M  V30 3423 C 331.962 -5.02266 0.0581736 0
M  V30 3424 C 333.956 -6.16045 1.63605 0
M  V30 3425 C 331.643 -6.03528 0.959001 0
M  V30 3426 C 332.641 -6.60293 1.7465 0
M  V30 3427 O 332.329 -7.59586 2.6322 0
M  V30 3428 H 332.061 -0.666772 -0.111313 0
M  V30 3429 H 334.615 -2.02919 0.318277 0
M  V30 3430 H 332.845 -3.40391 -1.83497 0
M  V30 3431 H 334.534 -3.73793 -1.58221 0
M  V30 3432 H 335.3 -4.80483 0.660364 0
M  V30 3433 H 331.179 -4.57771 -0.544633 0
M  V30 3434 H 334.723 -6.60279 2.25116 0
M  V30 3435 H 330.62 -6.37092 1.03848 0
M  V30 3436 H 331.388 -7.77057 2.57148 0
M  V30 3437 N 334.051 0.0651679 -1.57465 0
M  V30 3438 C 335.276 0.779605 -1.9219 0
M  V30 3439 C 335.701 1.69988 -0.805333 0
M  V30 3440 O 335.059 1.79685 0.241435 0
M  V30 3441 C 335.107 1.54364 -3.2589 0
M  V30 3442 O 334.211 2.65474 -3.1559 0
M  V30 3443 H 333.552 0.212249 -0.629163 0
M  V30 3444 H 336.082 0.0314294 -2.04576 0
M  V30 3445 H 336.092 1.92146 -3.59922 0
M  V30 3446 H 334.767 0.868457 -4.06732 0
M  V30 3447 H 333.344 2.30501 -2.93128 0
M  V30 3448 N 335.529 1.53961 0.336706 0
M  V30 3449 C 336.754 1.75797 1.10046 0
M  V30 3450 C 337.179 0.498985 1.81361 0
M  V30 3451 O 336.537 -0.548769 1.72795 0
M  V30 3452 C 336.585 2.94257 2.08436 0
M  V30 3453 O 335.689 2.64883 3.16087 0
M  V30 3454 H 335.03 0.582936 0.317934 0
M  V30 3455 H 337.56 2.00945 0.38501 0
M  V30 3456 H 337.57 3.21237 2.51537 0
M  V30 3457 H 336.245 3.85564 1.55927 0
M  V30 3458 H 334.822 2.48812 2.77753 0
M  V30 3459 N 337.007 -0.598083 1.45811 0
M  V30 3460 C 338.418 -1.18011 1.44673 0
M  V30 3461 C 338.769 -1.95378 0.179364 0
M  V30 3462 O 337.894 -2.04124 -0.718509 0
M  V30 3463 C 338.489 -2.14677 2.62105 0
M  V30 3464 C 337.048 -2.68236 2.64057 0
M  V30 3465 C 336.195 -1.43816 2.37091 0
M  V30 3466 H 339.146 -0.38686 1.53913 0
M  V30 3467 H 339.167 -2.97878 2.36746 0
M  V30 3468 H 338.679 -1.5834 3.5433 0
M  V30 3469 H 336.78 -3.28486 1.75864 0
M  V30 3470 H 336.893 -3.12021 3.63566 0
M  V30 3471 H 335.257 -1.731 1.86838 0
M  V30 3472 H 336.04 -0.893333 3.31473 0
M  V30 3473 N 338.485 -1.33259 -0.841409 0
M  V30 3474 C 339.448 -1.23221 -1.9326 0
M  V30 3475 C 340.448 -0.151895 -1.60081 0
M  V30 3476 O 341.638 -0.403246 -1.69468 0
M  V30 3477 C 338.77 -0.898123 -3.28856 0
M  V30 3478 H 339.963 -2.2021 -2.03587 0
M  V30 3479 H 337.516 -1.17281 -1.03319 0
M  V30 3480 H 338.251 0.0693841 -3.24226 0
M  V30 3481 H 338.036 -1.67934 -3.54317 0
M  V30 3482 H 339.526 -0.852563 -4.08805 0
M  V30 3483 N 339.963 1.05934 -1.16686 0
M  V30 3484 C 340.911 2.15603 -0.872817 0
M  V30 3485 C 341.905 1.68647 0.159576 0
M  V30 3486 O 343.111 1.79995 0.0132125 0
M  V30 3487 H 339.486 0.703885 -0.264671 0
M  V30 3488 H 341.457 2.37613 -1.80507 0
M  V30 3489 C 340.206 3.45457 -0.394344 0
M  V30 3490 H 339.529 3.81984 -1.18019 0
M  V30 3491 H 340.969 4.2339 -0.227408 0
M  V30 3492 C 339.428 3.25021 0.88673 0
M  V30 3493 O 339.958 3.50906 1.95519 0
M  V30 3494 N 338.164 2.78437 0.831925 0
M  V30 3495 H 337.711 2.57572 -0.0377619 0
M  V30 3496 H 337.669 2.65144 1.68956 0
M  V30 3497 N 341.441 0.965919 1.2453 0
M  V30 3498 C 342.371 0.513476 2.27784 0
M  V30 3499 C 343.352 -0.445974 1.6415 0
M  V30 3500 O 344.537 -0.342485 1.91156 0
M  V30 3501 C 341.667 -0.198839 3.4673 0
M  V30 3502 C 340.621 0.676456 4.2262 0
M  V30 3503 C 339.947 -0.167248 5.34438 0
M  V30 3504 C 341.247 1.96017 4.84123 0
M  V30 3505 H 342.941 1.3765 2.65881 0
M  V30 3506 H 340.487 0.663321 1.27813 0
M  V30 3507 H 342.44 -0.526567 4.18097 0
M  V30 3508 H 341.164 -1.0962 3.07654 0
M  V30 3509 H 339.823 0.98743 3.53052 0
M  V30 3510 H 339.471 -1.0647 4.91603 0
M  V30 3511 H 339.171 0.415181 5.86131 0
M  V30 3512 H 340.695 -0.489688 6.08633 0
M  V30 3513 H 342.109 1.69814 5.47573 0
M  V30 3514 H 340.506 2.48918 5.4604 0
M  V30 3515 H 341.576 2.65622 4.05676 0
M  V30 3516 N 342.919 -1.39368 0.735821 0
M  V30 3517 C 344.149 -2.04498 0.293967 0
M  V30 3518 C 344.557 -1.55593 -1.07645 0
M  V30 3519 O 343.9 -0.716324 -1.69158 0
M  V30 3520 C 343.962 -3.58836 0.218342 0
M  V30 3521 C 343.626 -4.30721 1.52736 0
M  V30 3522 C 344.623 -4.57305 2.47322 0
M  V30 3523 C 342.308 -4.69251 1.79189 0
M  V30 3524 C 344.302 -5.21429 3.66593 0
M  V30 3525 C 341.989 -5.33104 2.98737 0
M  V30 3526 C 342.987 -5.59125 3.9226 0
M  V30 3527 O 342.675 -6.21653 5.09708 0
M  V30 3528 H 342.407 -0.664118 0.126189 0
M  V30 3529 H 344.961 -1.79385 1.00051 0
M  V30 3530 H 343.191 -3.8285 -0.544314 0
M  V30 3531 H 344.88 -4.05447 -0.191626 0
M  V30 3532 H 345.646 -4.27983 2.28156 0
M  V30 3533 H 341.525 -4.48354 1.07239 0
M  V30 3534 H 345.069 -5.41656 4.39607 0
M  V30 3535 H 340.966 -5.61846 3.17803 0
M  V30 3536 H 341.734 -6.40146 5.10054 0
M  V30 3537 N 344.397 -0.483516 -1.5 0
M  V30 3538 C 345.643 0.0672592 -2.02688 0
M  V30 3539 C 345.976 1.38247 -1.36387 0
M  V30 3540 O 345.251 1.88131 -0.493675 0
M  V30 3541 C 345.534 0.238109 -3.59312 0
M  V30 3542 C 345.387 -1.099 -4.36168 0
M  V30 3543 C 346.706 0.986916 -4.28892 0
M  V30 3544 H 343.825 0.0229696 -0.736642 0
M  V30 3545 H 346.467 -0.631527 -1.79197 0
M  V30 3546 H 344.617 0.8333 -3.79458 0
M  V30 3547 H 346.289 -1.73172 -4.27562 0
M  V30 3548 H 344.532 -1.69261 -3.99416 0
M  V30 3549 H 345.203 -0.932954 -5.44059 0
M  V30 3550 H 347.679 0.482302 -4.13295 0
M  V30 3551 H 346.555 1.07527 -5.38265 0
M  V30 3552 H 346.816 2.0265 -3.92919 0
M  V30 3553 N 345.875 1.56104 -0.216619 0
M  V30 3554 C 347.291 1.58995 0.13886 0
M  V30 3555 C 347.491 1.23333 1.59346 0
M  V30 3556 O 346.547 0.966234 2.33281 0
M  V30 3557 C 347.86 3.00143 -0.182968 0
M  V30 3558 C 349.408 3.12751 -0.124807 0
M  V30 3559 C 349.883 4.56068 -0.420241 0
M  V30 3560 N 351.374 4.61723 -0.369634 0
M  V30 3561 C 352.109 5.70542 -0.571789 0
M  V30 3562 N 351.605 6.87744 -0.835453 0
M  V30 3563 N 353.398 5.59831 -0.504563 0
M  V30 3564 H 345.549 1.77562 -1.16557 0
M  V30 3565 H 347.812 0.825091 -0.466828 0
M  V30 3566 H 347.518 3.30871 -1.19237 0
M  V30 3567 H 347.392 3.73813 0.504367 0
M  V30 3568 H 349.779 2.81822 0.875223 0
M  V30 3569 H 349.86 2.41421 -0.845544 0
M  V30 3570 H 349.504 4.87713 -1.41769 0
M  V30 3571 H 349.434 5.25617 0.321631 0
M  V30 3572 H 351.925 3.77502 -0.173338 0
M  V30 3573 H 352.238 7.66587 -0.977938 0
M  V30 3574 H 350.583 6.895 -0.872592 0
M  V30 3575 H 353.774 4.67145 -0.298842 0
M  V30 3576 H 353.947 6.44573 -0.665519 0
M  V30 3577 N 347.353 -0.0568162 1.57498 0
M  V30 3578 C 348.263 -1.08346 2.08083 0
M  V30 3579 C 349.279 -1.41439 1.01346 0
M  V30 3580 O 350.455 -1.51316 1.32912 0
M  V30 3581 C 347.52 -2.37352 2.52715 0
M  V30 3582 C 346.581 -2.11093 3.73816 0
M  V30 3583 C 345.814 -3.33949 4.1631 0
M  V30 3584 O 346.037 -4.43622 3.58547 0
M  V30 3585 O 344.971 -3.21279 5.08983 0
M  V30 3586 H 348.797 -0.683667 2.95905 0
M  V30 3587 H 346.382 -0.271965 1.46904 0
M  V30 3588 H 348.264 -3.13246 2.81877 0
M  V30 3589 H 346.939 -2.76681 1.68016 0
M  V30 3590 H 345.846 -1.32856 3.49714 0
M  V30 3591 H 347.179 -1.76637 4.59413 0
M  V30 3592 N 348.832 -1.54138 -0.328536 0
M  V30 3593 C 349.762 -1.86167 -1.40939 0
M  V30 3594 C 350.743 -0.718044 -1.54202 0
M  V30 3595 O 351.928 -0.971328 -1.68163 0
M  V30 3596 C 349.058 -2.08461 -2.77779 0
M  V30 3597 C 348.012 -3.24299 -2.7931 0
M  V30 3598 C 347.338 -3.31955 -4.19178 0
M  V30 3599 C 348.638 -4.62065 -2.43502 0
M  V30 3600 H 350.332 -2.76689 -1.14383 0
M  V30 3601 H 347.878 -1.33132 -0.548806 0
M  V30 3602 H 349.831 -2.29453 -3.53454 0
M  V30 3603 H 348.555 -1.14684 -3.05802 0
M  V30 3604 H 347.214 -3.03187 -2.0609 0
M  V30 3605 H 346.862 -2.35745 -4.44335 0
M  V30 3606 H 346.562 -4.09805 -4.2111 0
M  V30 3607 H 348.086 -3.55175 -4.96672 0
M  V30 3608 H 349.5 -4.8297 -3.08889 0
M  V30 3609 H 347.897 -5.42429 -2.56693 0
M  V30 3610 H 348.967 -4.64652 -1.38659 0
M  V30 3611 N 350.31 0.590341 -1.46126 0
M  V30 3612 C 351.726 0.912917 -1.30912 0
M  V30 3613 C 351.926 1.99616 -0.274893 0
M  V30 3614 O 350.982 2.50397 0.325197 0
M  V30 3615 C 352.295 1.3375 -2.69317 0
M  V30 3616 C 353.843 1.45077 -2.77348 0
M  V30 3617 C 354.318 1.90904 -4.16317 0
M  V30 3618 N 355.809 1.9811 -4.18696 0
M  V30 3619 C 356.544 2.34828 -5.23109 0
M  V30 3620 N 356.04 2.70393 -6.37856 0
M  V30 3621 N 357.833 2.35317 -5.10473 0
M  V30 3622 H 349.984 -0.125358 -2.1203 0
M  V30 3623 H 352.247 0.00658481 -0.947977 0
M  V30 3624 H 351.953 0.615614 -3.4627 0
M  V30 3625 H 351.827 2.30058 -2.9892 0
M  V30 3626 H 354.214 2.16353 -2.00687 0
M  V30 3627 H 354.295 0.4704 -2.51438 0
M  V30 3628 H 353.939 1.20209 -4.9347 0
M  V30 3629 H 353.869 2.89886 -4.39629 0
M  V30 3630 H 356.36 1.73146 -3.359 0
M  V30 3631 H 356.673 2.97341 -7.13308 0
M  V30 3632 H 355.018 2.68048 -6.41229 0
M  V30 3633 H 358.209 2.0695 -4.19868 0
M  V30 3634 H 358.382 2.63605 -5.9196 0
M  V30 3635 N 351.788 1.33704 0.83433 0
M  V30 3636 C 352.698 1.26382 1.97648 0
M  V30 3637 C 353.714 0.173548 1.73132 0
M  V30 3638 O 354.89 0.397962 1.97429 0
M  V30 3639 C 351.955 1.00769 3.31733 0
M  V30 3640 C 351.016 2.1884 3.69334 0
M  V30 3641 C 350.249 1.9444 4.9702 0
M  V30 3642 O 350.472 0.896961 5.63303 0
M  V30 3643 O 349.406 2.81093 5.32231 0
M  V30 3644 H 353.232 2.22444 2.06767 0
M  V30 3645 H 350.817 1.13795 0.968037 0
M  V30 3646 H 352.699 0.882186 4.12062 0
M  V30 3647 H 351.374 0.0773783 3.23608 0
M  V30 3648 H 350.281 2.36946 2.89495 0
M  V30 3649 H 351.614 3.10221 3.82131 0
M  V30 3650 N 353.266 -1.05314 1.17247 0
M  V30 3651 C 354.512 -1.78557 0.961513 0
M  V30 3652 C 354.845 -1.87419 -0.508697 0
M  V30 3653 O 354.12 -1.37307 -1.37757 0
M  V30 3654 C 354.403 -3.22514 1.60176 0
M  V30 3655 C 354.256 -3.21673 3.14399 0
M  V30 3656 C 355.575 -4.20318 1.30463 0
M  V30 3657 H 352.694 -0.6482 0.350723 0
M  V30 3658 H 355.336 -1.23102 1.44727 0
M  V30 3659 H 353.486 -3.69867 1.18871 0
M  V30 3660 H 355.158 -2.82405 3.64753 0
M  V30 3661 H 353.401 -2.60048 3.47214 0
M  V30 3662 H 354.072 -4.23271 3.54324 0
M  V30 3663 H 356.548 -3.81454 1.66229 0
M  V30 3664 H 355.424 -5.19289 1.77848 0
M  V30 3665 H 355.685 -4.41526 0.22521 0
M  V30 3666 N 354.744 -0.972509 -1.24016 0
M  V30 3667 C 356.16 -0.679827 -1.44397 0
M  V30 3668 C 356.36 0.756716 -1.86751 0
M  V30 3669 O 355.416 1.53007 -2.00861 0
M  V30 3670 C 356.729 -1.66803 -2.50195 0
M  V30 3671 C 358.277 -1.68119 -2.64017 0
M  V30 3672 C 358.752 -2.65748 -3.73017 0
M  V30 3673 N 360.243 -2.64219 -3.8045 0
M  V30 3674 C 360.978 -3.36433 -4.64328 0
M  V30 3675 N 360.474 -4.1818 -5.52356 0
M  V30 3676 N 362.267 -3.25235 -4.58453 0
M  V30 3677 H 354.418 -1.90059 -0.948228 0
M  V30 3678 H 356.681 -0.818527 -0.478245 0
M  V30 3679 H 356.387 -2.69498 -2.25973 0
M  V30 3680 H 356.261 -1.4446 -3.48441 0
M  V30 3681 H 358.648 -0.661319 -2.87594 0
M  V30 3682 H 358.729 -1.94525 -1.66113 0
M  V30 3683 H 358.373 -3.67872 -3.50189 0
M  V30 3684 H 358.303 -2.36619 -4.70446 0
M  V30 3685 H 360.794 -2.04887 -3.17537 0
M  V30 3686 H 361.107 -4.70157 -6.13329 0
M  V30 3687 H 359.452 -4.22273 -5.52006 0
M  V30 3688 H 362.643 -2.60829 -3.88698 0
M  V30 3689 H 362.816 -3.81776 -5.23594 0
M  V30 3690 N 356.222 1.38976 -0.743202 0
M  V30 3691 C 357.638 1.53984 -0.419664 0
M  V30 3692 C 357.838 1.70837 1.0685 0
M  V30 3693 O 356.894 1.7135 1.8546 0
M  V30 3694 C 358.207 2.75287 -1.20985 0
M  V30 3695 C 359.755 2.89129 -1.19889 0
M  V30 3696 C 360.23 4.13381 -1.97181 0
M  V30 3697 N 361.721 4.20437 -1.94389 0
M  V30 3698 C 362.456 5.15547 -2.50996 0
M  V30 3699 N 361.952 6.16395 -3.16274 0
M  V30 3700 N 363.745 5.07822 -2.40984 0
M  V30 3701 H 355.896 1.26285 -1.7078 0
M  V30 3702 H 358.159 0.612689 -0.723406 0
M  V30 3703 H 357.865 2.69204 -2.26323 0
M  V30 3704 H 357.739 3.68184 -0.819759 0
M  V30 3705 H 360.126 2.947 -0.153606 0
M  V30 3706 H 360.207 1.97272 -1.62841 0
M  V30 3707 H 359.851 4.08572 -3.01714 0
M  V30 3708 H 359.781 5.04298 -1.51629 0
M  V30 3709 H 362.272 3.48205 -1.46839 0
M  V30 3710 H 362.585 6.85443 -3.56915 0
M  V30 3711 H 360.93 6.16758 -3.20367 0
M  V30 3712 H 364.121 4.27973 -1.89622 0
M  V30 3713 H 364.294 5.81767 -2.85397 0
M  V30 3714 N 357.7 0.491464 1.49741 0
M  V30 3715 C 358.946 -0.0565092 2.02721 0
M  V30 3716 C 359.279 -1.37522 1.37118 0
M  V30 3717 O 358.554 -1.87866 0.503645 0
M  V30 3718 C 358.837 -0.219051 3.59433 0
M  V30 3719 C 358.69 1.12211 4.35579 0
M  V30 3720 C 360.009 -0.964157 4.29409 0
M  V30 3721 H 357.128 -0.0190627 0.736753 0
M  V30 3722 H 359.77 0.641021 1.7886 0
M  V30 3723 H 357.92 -0.813165 3.79895 0
M  V30 3724 H 359.592 1.75437 4.26637 0
M  V30 3725 H 357.835 1.71377 3.98513 0
M  V30 3726 H 358.506 0.961794 5.43556 0
M  V30 3727 H 360.982 -0.460378 4.13545 0
M  V30 3728 H 359.858 -1.04671 5.38828 0
M  V30 3729 H 360.119 -2.00563 3.93988 0
M  V30 3730 N 359.178 -1.55987 0.224894 0
M  V30 3731 C 360.141 -2.19178 -0.670348 0
M  V30 3732 C 361.141 -1.15461 -1.11917 0
M  V30 3733 O 362.331 -1.40675 -1.02743 0
M  V30 3734 C 359.463 -2.81777 -1.9187 0
M  V30 3735 H 360.656 -2.99662 -0.119364 0
M  V30 3736 H 358.209 -1.5628 -0.0247128 0
M  V30 3737 H 358.944 -2.05172 -2.51147 0
M  V30 3738 H 358.729 -3.57732 -1.60531 0
M  V30 3739 H 360.219 -3.30205 -2.55645 0
M  V30 3740 N 360.656 0.0484629 -1.57525 0
M  V30 3741 C 362.067 0.597486 -1.76881 0
M  V30 3742 C 362.418 1.76664 -0.853475 0
M  V30 3743 O 361.543 2.16357 -0.0433656 0
M  V30 3744 C 362.138 1.09066 -3.20765 0
M  V30 3745 C 360.697 1.58535 -3.41385 0
M  V30 3746 C 359.844 0.514868 -2.72478 0
M  V30 3747 H 362.795 -0.177758 -1.57701 0
M  V30 3748 H 362.816 1.95875 -3.2621 0
M  V30 3749 H 362.328 0.239521 -3.8736 0
M  V30 3750 H 360.429 2.45898 -2.79937 0
M  V30 3751 H 360.542 1.64622 -4.49929 0
M  V30 3752 H 358.906 0.965407 -2.35695 0
M  V30 3753 H 359.689 -0.32648 -3.41744 0
M  V30 3754 N 362.134 1.5431 0.320358 0
M  V30 3755 C 363.55 1.45091 0.664889 0
M  V30 3756 C 363.75 0.626382 1.91517 0
M  V30 3757 O 362.806 0.126443 2.52183 0
M  V30 3758 C 364.119 2.88848 0.83591 0
M  V30 3759 C 365.667 2.9877 0.933046 0
M  V30 3760 C 366.142 4.43683 1.13621 0
M  V30 3761 N 367.633 4.47309 1.20287 0
M  V30 3762 C 368.368 5.56595 1.37801 0
M  V30 3763 N 367.864 6.75844 1.52338 0
M  V30 3764 N 369.657 5.44248 1.40535 0
M  V30 3765 H 361.808 2.06398 -0.501374 0
M  V30 3766 H 364.071 0.933963 -0.162534 0
M  V30 3767 H 363.777 3.51698 -0.0116092 0
M  V30 3768 H 363.651 3.35148 1.73078 0
M  V30 3769 H 366.038 2.36045 1.77107 0
M  V30 3770 H 366.119 2.55796 0.0145782 0
M  V30 3771 H 365.763 5.06995 0.303032 0
M  V30 3772 H 365.693 4.84269 2.0686 0
M  V30 3773 H 368.184 3.61388 1.10485 0
M  V30 3774 H 368.497 7.54892 1.65403 0
M  V30 3775 H 366.842 6.78746 1.4943 0
M  V30 3776 H 370.033 4.50038 1.28777 0
M  V30 3777 H 370.206 6.29473 1.53842 0
M  V30 3778 N 363.613 -0.582584 1.46437 0
M  V30 3779 C 364.86 -1.34079 1.51753 0
M  V30 3780 C 365.188 -1.93762 0.169299 0
M  V30 3781 O 364.443 -1.76989 -0.835062 0
M  V30 3782 C 364.742 -2.48964 2.56421 0
M  V30 3783 C 364.408 -2.07273 4.00436 0
M  V30 3784 C 363.07 -1.95618 4.39644 0
M  V30 3785 C 365.422 -1.75111 4.90903 0
M  V30 3786 C 362.75 -1.5006 5.67185 0
M  V30 3787 C 365.102 -1.31032 6.18881 0
M  V30 3788 C 363.766 -1.17954 6.56996 0
M  V30 3789 H 363.036 -0.49063 0.555304 0
M  V30 3790 H 365.683 -0.656007 1.79913 0
M  V30 3791 H 363.988 -3.22889 2.21923 0
M  V30 3792 H 365.685 -3.07178 2.57765 0
M  V30 3793 H 362.275 -2.17279 3.69443 0
M  V30 3794 H 366.459 -1.83001 4.61329 0
M  V30 3795 H 361.715 -1.38577 5.95488 0
M  V30 3796 H 365.889 -1.052 6.88408 0
M  V30 3797 H 363.516 -0.824279 7.55718 0
M  V30 3798 N 365.091 -1.34144 -0.827227 0
M  V30 3799 C 366.316 -1.29476 -1.62021 0
M  V30 3800 C 366.741 0.129292 -1.87655 0
M  V30 3801 O 366.099 1.08967 -1.449 0
M  V30 3802 C 366.147 -2.08702 -2.94068 0
M  V30 3803 O 365.251 -1.45359 -3.85933 0
M  V30 3804 H 364.592 -0.444881 -0.492927 0
M  V30 3805 H 367.122 -1.76882 -1.02829 0
M  V30 3806 H 367.132 -2.19898 -3.43669 0
M  V30 3807 H 365.807 -3.12241 -2.74734 0
M  V30 3808 H 364.384 -1.42879 -3.44442 0
M  V30 3809 N 366.569 1.04691 -1.17803 0
M  V30 3810 C 367.818 1.77176 -0.963931 0
M  V30 3811 C 368.131 1.88888 0.508015 0
M  V30 3812 O 369.337 2.58164 0.840465 0
M  V30 3813 C 367.793 3.18518 -1.67555 0
M  V30 3814 C 367.401 3.14919 -3.18637 0
M  V30 3815 C 369.145 3.95424 -1.54402 0
M  V30 3816 C 367.052 4.51081 -3.82466 0
M  V30 3817 H 365.982 0.664116 -0.357023 0
M  V30 3818 H 368.633 1.17303 -1.4111 0
M  V30 3819 H 367.015 3.78748 -1.15613 0
M  V30 3820 H 368.189 2.64178 -3.77554 0
M  V30 3821 H 366.504 2.51512 -3.31859 0
M  V30 3822 H 369.101 4.96106 -1.99456 0
M  V30 3823 H 369.444 4.13343 -0.495329 0
M  V30 3824 H 369.977 3.41754 -2.0359 0
M  V30 3825 H 366.716 4.38368 -4.87354 0
M  V30 3826 H 366.236 5.01951 -3.28337 0
M  V30 3827 H 367.915 5.2001 -3.84965 0
M  V30 3828 N 368.047 0.979072 1.23499 0
M  V30 3829 C 368.977 0.537606 2.27227 0
M  V30 3830 C 369.958 -0.428539 1.64613 0
M  V30 3831 O 371.143 -0.322191 1.91509 0
M  V30 3832 C 368.273 -0.162052 3.46922 0
M  V30 3833 C 367.227 0.721242 4.21879 0
M  V30 3834 C 366.553 -0.110555 5.34586 0
M  V30 3835 C 367.853 2.01141 4.82016 0
M  V30 3836 H 369.547 1.40462 2.64406 0
M  V30 3837 H 367.093 0.67684 1.27102 0
M  V30 3838 H 369.046 -0.482192 4.18632 0
M  V30 3839 H 367.77 -1.06351 3.08799 0
M  V30 3840 H 366.429 1.02482 3.51984 0
M  V30 3841 H 366.077 -1.0125 4.92704 0
M  V30 3842 H 365.777 0.477325 5.85658 0
M  V30 3843 H 367.301 -0.425107 6.09118 0
M  V30 3844 H 368.715 1.75612 5.45741 0
M  V30 3845 H 367.112 2.54695 5.43369 0
M  V30 3846 H 368.182 2.69909 4.02836 0
M  V30 3847 N 369.525 -1.3858 0.750561 0
M  V30 3848 C 370.936 -1.82927 0.373438 0
M  V30 3849 C 371.287 -1.62634 -1.09748 0
M  V30 3850 O 370.412 -1.12588 -1.84805 0
M  V30 3851 C 371.007 -3.32088 0.671029 0
M  V30 3852 C 369.566 -3.74795 0.34722 0
M  V30 3853 C 368.713 -2.61391 0.92575 0
M  V30 3854 H 371.664 -1.27351 0.946958 0
M  V30 3855 H 371.685 -3.80465 -0.0518269 0
M  V30 3856 H 371.197 -3.46826 1.74164 0
M  V30 3857 H 369.298 -3.65638 -0.716933 0
M  V30 3858 H 369.411 -4.71667 0.840656 0
M  V30 3859 H 367.775 -2.52265 0.351327 0
M  V30 3860 H 368.558 -2.78929 2.00133 0
M  V30 3861 N 371.003 -0.499398 -1.49478 0
M  V30 3862 C 371.936 0.326491 -2.25852 0
M  V30 3863 C 372.914 0.971776 -1.30366 0
M  V30 3864 O 374.098 1.00219 -1.59651 0
M  V30 3865 C 371.225 1.45969 -3.05632 0
M  V30 3866 C 370.271 0.928938 -4.16261 0
M  V30 3867 S 371.104 -0.179012 -5.35201 0
M  V30 3868 C 372.26 0.957389 -6.18534 0
M  V30 3869 H 372.493 -0.321746 -2.95554 0
M  V30 3870 H 370.026 -0.284674 -1.51753 0
M  V30 3871 H 371.984 2.109 -3.52181 0
M  V30 3872 H 370.645 2.07953 -2.35402 0
M  V30 3873 H 369.838 1.77813 -4.71592 0
M  V30 3874 H 369.44 0.356869 -3.72293 0
M  V30 3875 H 371.732 1.86296 -6.51383 0
M  V30 3876 H 372.675 0.442733 -7.06715 0
M  V30 3877 H 373.083 1.224 -5.5107 0
M  V30 3878 N 372.481 1.55866 -0.233164 0
M  V30 3879 C 373.706 2.03449 0.402906 0
M  V30 3880 C 374.131 1.11166 1.51736 0
M  V30 3881 O 373.489 0.101996 1.81013 0
M  V30 3882 C 373.537 3.49165 0.9009 0
M  V30 3883 O 372.641 3.60019 2.01147 0
M  V30 3884 H 371.982 0.657913 0.0897025 0
M  V30 3885 H 374.512 2.01493 -0.355201 0
M  V30 3886 H 374.522 3.89716 1.2077 0
M  V30 3887 H 373.197 4.15813 0.0852889 0
M  V30 3888 H 371.774 3.3136 1.71042 0
M  V30 3889 N 373.959 -0.0401083 1.57549 0
M  V30 3890 C 374.909 -1.05175 2.02292 0
M  V30 3891 C 375.893 -1.32674 0.910294 0
M  V30 3892 O 377.085 -1.32444 1.17421 0
M  V30 3893 C 374.214 -2.35622 2.49674 0
M  V30 3894 C 373.3 -2.11261 3.67736 0
M  V30 3895 N 373.691 -1.56923 4.80842 0
M  V30 3896 C 371.989 -2.41596 3.74897 0
M  V30 3897 C 372.69 -1.48111 5.62528 0
M  V30 3898 N 371.666 -1.95282 5.07312 0
M  V30 3899 H 375.468 -0.625455 2.87168 0
M  V30 3900 H 372.982 -0.246624 1.60516 0
M  V30 3901 H 374.979 -3.08893 2.79983 0
M  V30 3902 H 373.639 -2.7894 1.662 0
M  V30 3903 H 374.65 -1.25345 5.02503 0
M  V30 3904 H 371.327 -2.88064 3.02201 0
M  V30 3905 H 372.717 -1.06683 6.63377 0
M  V30 3906 N 375.437 -1.54477 -0.31217 0
M  V30 3907 C 376.347 -1.87695 -1.4074 0
M  V30 3908 C 377.363 -0.769975 -1.56036 0
M  V30 3909 O 378.539 -1.06537 -1.70915 0
M  V30 3910 C 375.604 -2.10755 -2.75287 0
M  V30 3911 C 374.665 -3.34514 -2.69071 0
M  V30 3912 C 373.898 -3.56465 -3.97201 0
M  V30 3913 O 374.121 -2.81637 -4.96021 0
M  V30 3914 O 373.055 -4.49964 -3.9977 0
M  V30 3915 H 376.881 -2.80849 -1.15574 0
M  V30 3916 H 374.466 -1.40526 -0.507228 0
M  V30 3917 H 376.348 -2.27188 -3.54913 0
M  V30 3918 H 375.023 -1.20788 -3.0032 0
M  V30 3919 H 373.93 -3.23456 -1.87955 0
M  V30 3920 H 375.263 -4.24575 -2.48992 0
M  V30 3921 N 376.915 0.57481 -1.46744 0
M  V30 3922 C 378.164 1.32898 -1.51727 0
M  V30 3923 C 378.477 1.948 -0.176692 0
M  V30 3924 O 379.683 2.71299 -0.104385 0
M  V30 3925 C 378.139 2.40901 -2.67385 0
M  V30 3926 C 377.747 1.85266 -4.07898 0
M  V30 3927 C 379.491 3.17609 -2.81646 0
M  V30 3928 C 377.398 2.90945 -5.14883 0
M  V30 3929 H 376.328 0.499631 -0.564699 0
M  V30 3930 H 378.979 0.612536 -1.72975 0
M  V30 3931 H 377.361 3.15379 -2.39483 0
M  V30 3932 H 378.535 1.17278 -4.45626 0
M  V30 3933 H 376.85 1.21199 -3.98371 0
M  V30 3934 H 379.447 3.96493 -3.58744 0
M  V30 3935 H 379.79 3.70696 -1.89448 0
M  V30 3936 H 380.323 2.50239 -3.09233 0
M  V30 3937 H 377.062 2.42736 -6.089 0
M  V30 3938 H 376.582 3.57398 -4.81691 0
M  V30 3939 H 378.261 3.54755 -5.41071 0
M  V30 3940 N 378.394 1.34581 0.820102 0
M  V30 3941 C 379.327 1.20735 1.93644 0
M  V30 3942 C 380.305 0.0983343 1.62302 0
M  V30 3943 O 381.489 0.263997 1.86642 0
M  V30 3944 C 378.616 0.856037 3.27704 0
M  V30 3945 C 377.662 1.97521 3.78005 0
M  V30 3946 S 378.495 3.58906 3.97425 0
M  V30 3947 C 379.651 3.25822 5.34407 0
M  V30 3948 H 379.884 2.15231 2.05093 0
M  V30 3949 H 377.417 1.1964 0.97599 0
M  V30 3950 H 379.375 0.660133 4.05157 0
M  V30 3951 H 378.036 -0.0706253 3.14021 0
M  V30 3952 H 377.229 1.68321 4.75062 0
M  V30 3953 H 376.831 2.12875 3.07507 0
M  V30 3954 H 379.123 2.77812 6.17922 0
M  V30 3955 H 380.066 4.22029 5.68592 0
M  V30 3956 H 380.474 2.61932 5.00052 0
M  V30 3957 N 379.872 -1.04064 1.18357 0
M  V30 3958 C 381.283 -1.58719 0.98312 0
M  V30 3959 C 381.634 -1.90556 -0.467193 0
M  V30 3960 O 380.759 -1.69561 -1.34454 0
M  V30 3961 C 381.354 -2.88379 1.77828 0
M  V30 3962 C 379.913 -3.3965 1.62218 0
M  V30 3963 C 379.06 -2.13235 1.77274 0
M  V30 3964 H 382.011 -0.867359 1.32901 0
M  V30 3965 H 382.032 -3.58773 1.26737 0
M  V30 3966 H 381.544 -2.65176 2.83379 0
M  V30 3967 H 379.645 -3.67866 0.592036 0
M  V30 3968 H 379.758 -4.13475 2.42023 0
M  V30 3969 H 378.122 -2.24542 1.20221 0
M  V30 3970 H 378.905 -1.92487 2.8426 0
M  V30 3971 N 381.35 -0.985608 -1.22978 0
M  V30 3972 C 382.598 -0.656087 -1.91154 0
M  V30 3973 C 382.919 0.813561 -1.77218 0
M  V30 3974 O 382.189 1.58244 -1.1548 0
M  V30 3975 H 380.769 -0.239674 -0.707506 0
M  V30 3976 H 383.431 -1.25054 -1.49491 0
M  V30 3977 H 382.527 -0.912253 -2.9847 0
M  V30 3978 N 382.828 1.3818 -0.7579 0
M  V30 3979 C 384.076 1.99624 -0.315361 0
M  V30 3980 C 384.397 1.60464 1.10799 0
M  V30 3981 O 383.667 0.863507 1.75842 0
M  V30 3982 H 382.247 0.73831 -0.113611 0
M  V30 3983 H 384.909 1.68878 -0.972952 0
M  V30 3984 H 384.005 3.09754 -0.381931 0
M  V30 3985 N 384.306 0.507319 1.49211 0
M  V30 3986 C 385.254 -0.281364 2.30892 0
M  V30 3987 C 386.248 -0.95687 1.39787 0
M  V30 3988 O 387.454 -0.883838 1.56807 0
M  V30 3989 H 383.829 -0.109597 0.743971 0
M  V30 3990 H 385.8 0.42744 2.95323 0
M  V30 3991 C 384.549 -1.32918 3.21291 0
M  V30 3992 H 383.872 -0.818799 3.91326 0
M  V30 3993 H 385.312 -1.85288 3.81372 0
M  V30 3994 C 383.771 -2.35074 2.41333 0
M  V30 3995 O 384.301 -3.4108 2.12197 0
M  V30 3996 N 382.507 -2.07705 2.03241 0
M  V30 3997 H 382.054 -1.2152 2.27136 0
M  V30 3998 H 382.012 -2.76283 1.50051 0
M  V30 3999 N 385.784 -1.5574 0.241426 0
M  V30 4000 C 387.03 -1.99104 -0.385406 0
M  V30 4001 C 387.363 -1.1293 -1.57988 0
M  V30 4002 O 386.638 -0.191449 -1.93555 0
M  V30 4003 C 386.921 -3.51087 -0.800616 0
M  V30 4004 C 386.774 -4.48028 0.398874 0
M  V30 4005 C 388.093 -4.08015 -1.64959 0
M  V30 4006 H 385.212 -0.723848 -0.138614 0
M  V30 4007 H 387.854 -1.86903 0.341642 0
M  V30 4008 H 386.004 -3.61615 -1.4201 0
M  V30 4009 H 387.676 -4.49487 1.03726 0
M  V30 4010 H 385.919 -4.21077 1.04293 0
M  V30 4011 H 386.59 -5.51962 0.0651056 0
M  V30 4012 H 389.066 -4.00555 -1.12672 0
M  V30 4013 H 387.942 -5.14635 -1.90898 0
M  V30 4014 H 388.203 -3.56131 -2.61961 0
M  V30 4015 N 387.262 0.0317525 -1.57568 0
M  V30 4016 C 388.21 1.05165 -2.07468 0
M  V30 4017 C 389.204 1.3761 -0.98792 0
M  V30 4018 O 390.41 1.36546 -1.17282 0
M  V30 4019 H 386.785 0.35666 -0.66204 0
M  V30 4020 H 388.756 0.604958 -2.92203 0
M  V30 4021 C 387.505 2.34488 -2.56731 0
M  V30 4022 H 386.828 2.10383 -3.39969 0
M  V30 4023 H 388.268 3.04203 -2.95358 0
M  V30 4024 C 386.727 3.03266 -1.46736 0
M  V30 4025 O 387.257 3.92988 -0.832069 0
M  V30 4026 N 385.463 2.6455 -1.20256 0
M  V30 4027 H 385.01 1.91674 -1.72102 0
M  V30 4028 H 384.968 3.10886 -0.468737 0
M  V30 4029 N 388.74 1.54641 0.303973 0
M  V30 4030 C 389.989 1.7299 1.03717 0
M  V30 4031 C 390.302 0.521168 1.88529 0
M  V30 4032 O 391.508 0.586408 2.65092 0
M  V30 4033 C 389.964 3.06051 1.89369 0
M  V30 4034 C 389.572 4.34393 1.09574 0
M  V30 4035 C 391.316 3.3376 2.62306 0
M  V30 4036 C 389.223 5.58506 1.94486 0
M  V30 4037 H 388.153 0.64473 0.390947 0
M  V30 4038 H 390.804 1.81124 0.294328 0
M  V30 4039 H 389.186 2.91874 2.67629 0
M  V30 4040 H 390.36 4.59396 0.359485 0
M  V30 4041 H 388.675 4.13597 0.482324 0
M  V30 4042 H 391.272 4.23687 3.26181 0
M  V30 4043 H 391.615 2.52503 3.3098 0
M  V30 4044 H 392.148 3.48894 1.91097 0
M  V30 4045 H 388.887 6.42422 1.30287 0
M  V30 4046 H 388.407 5.37694 2.65792 0
M  V30 4047 H 390.086 5.95651 2.52605 0
M  V30 4048 N 390.218 -0.567019 1.47046 0
M  V30 4049 C 391.446 -1.35027 1.56765 0
M  V30 4050 C 391.861 -1.8758 0.214316 0
M  V30 4051 O 391.218 -1.64471 -0.790919 0
M  V30 4052 C 391.269 -2.52698 2.58507 0
M  V30 4053 O 390.99 -2.0232 3.88585 0
M  V30 4054 C 392.491 -3.45043 2.78316 0
M  V30 4055 H 389.711 -0.41195 0.529658 0
M  V30 4056 H 392.255 -0.687832 1.92585 0
M  V30 4057 H 390.41 -3.149 2.25648 0
M  V30 4058 H 390.824 -2.79068 4.44096 0
M  V30 4059 H 392.298 -4.2405 3.53391 0
M  V30 4060 H 392.775 -3.97971 1.85784 0
M  V30 4061 H 393.381 -2.88665 3.12334 0
M  V30 4062 N 391.696 -1.35014 -0.812953 0
M  V30 4063 C 392.936 -1.29289 -1.58315 0
M  V30 4064 C 393.3 0.132727 -1.91541 0
M  V30 4065 O 394.501 0.314269 -2.66957 0
M  V30 4066 C 392.772 -2.1681 -2.84127 0
M  V30 4067 S 394.331 -2.28538 -3.74588 0
M  V30 4068 H 391.149 -0.459569 -0.542511 0
M  V30 4069 H 393.751 -1.70336 -0.959467 0
M  V30 4070 H 392.455 -3.19379 -2.57731 0
M  V30 4071 H 391.986 -1.76697 -3.51485 0
M  V30 4072 H 394.001 -1.4655 -4.74065 0
M  V30 4073 N 393.175 1.03435 -1.18907 0
M  V30 4074 C 394.421 1.77005 -0.989798 0
M  V30 4075 C 394.754 1.88205 0.478816 0
M  V30 4076 O 394.029 1.39481 1.35556 0
M  V30 4077 C 394.312 3.19925 -1.65287 0
M  V30 4078 C 394.165 3.1663 -3.19477 0
M  V30 4079 C 395.484 4.18189 -1.37134 0
M  V30 4080 H 392.603 0.642538 -0.360991 0
M  V30 4081 H 395.245 1.20784 -1.46667 0
M  V30 4082 H 393.395 3.67929 -1.24741 0
M  V30 4083 H 395.067 2.76567 -3.692 0
M  V30 4084 H 393.31 2.54491 -3.51307 0
M  V30 4085 H 393.981 4.1758 -3.61013 0
M  V30 4086 H 396.457 3.78761 -1.72276 0
M  V30 4087 H 395.333 5.16394 -1.86087 0
M  V30 4088 H 395.594 4.41112 -0.295424 0
M  V30 4089 N 394.653 0.992116 1.22453 0
M  V30 4090 C 395.616 0.546883 2.2258 0
M  V30 4091 C 396.616 -0.369829 1.56489 0
M  V30 4092 O 397.806 -0.161896 1.73446 0
M  V30 4093 C 394.938 -0.204659 3.40285 0
M  V30 4094 H 396.131 1.43234 2.63484 0
M  V30 4095 H 393.684 0.779239 1.3549 0
M  V30 4096 H 394.419 -1.10614 3.04853 0
M  V30 4097 H 394.204 0.45354 3.89468 0
M  V30 4098 H 395.694 -0.504358 4.14543 0
M  V30 4099 N 396.131 -1.37776 0.765217 0
M  V30 4100 C 397.377 -2.00145 0.327072 0
M  V30 4101 C 397.71 -1.60607 -1.09175 0
M  V30 4102 O 396.985 -0.849127 -1.74986 0
M  V30 4103 C 397.268 -3.57109 0.46319 0
M  V30 4104 C 397.121 -4.06576 1.92395 0
M  V30 4105 C 398.44 -4.39888 -0.136473 0
M  V30 4106 H 395.559 -0.727113 0.120316 0
M  V30 4107 H 398.201 -1.63549 0.967039 0
M  V30 4108 H 396.351 -3.88414 -0.0816358 0
M  V30 4109 H 398.023 -3.85864 2.52798 0
M  V30 4110 H 396.266 -3.59011 2.43503 0
M  V30 4111 H 396.937 -5.15639 1.97028 0
M  V30 4112 H 399.413 -4.14803 0.328317 0
M  V30 4113 H 398.289 -5.48899 -0.0110582 0
M  V30 4114 H 398.55 -4.24758 -1.22608 0
M  V30 4115 N 397.609 -0.515225 -1.4894 0
M  V30 4116 C 398.857 0.0241671 -2.02086 0
M  V30 4117 C 399.178 1.3616 -1.3959 0
M  V30 4118 O 398.448 1.87841 -0.556121 0
M  V30 4119 H 397.028 0.0119203 -0.746905 0
M  V30 4120 H 399.69 -0.675702 -1.82812 0
M  V30 4121 H 398.786 0.143385 -3.1177 0
M  V30 4122 N 399.087 1.5561 -0.249682 0
M  V30 4123 C 400.312 2.03865 0.381305 0
M  V30 4124 C 400.737 1.12769 1.50548 0
M  V30 4125 O 400.095 0.121189 1.80895 0
M  V30 4126 C 400.143 3.50101 0.863816 0
M  V30 4127 O 399.247 3.62132 1.97318 0
M  V30 4128 H 398.588 0.658827 0.0827194 0
M  V30 4129 H 401.118 2.01105 -0.376552 0
M  V30 4130 H 401.128 3.90975 1.1663 0
M  V30 4131 H 399.803 4.1588 0.0411816 0
M  V30 4132 H 398.38 3.33155 1.67517 0
M  V30 4133 N 400.565 -0.0233959 1.57583 0
M  V30 4134 C 401.976 -0.56927 1.77809 0
M  V30 4135 C 402.327 -1.75284 0.881472 0
M  V30 4136 O 401.452 -2.1626 0.0777805 0
M  V30 4137 C 402.047 -1.03949 3.22459 0
M  V30 4138 C 400.606 -1.53084 3.43864 0
M  V30 4139 C 399.753 -0.471454 2.73263 0
M  V30 4140 H 402.704 0.202825 1.57399 0
M  V30 4141 H 402.725 -1.90661 3.29285 0
M  V30 4142 H 402.237 -0.177865 3.87692 0
M  V30 4143 H 400.338 -2.41414 2.83814 0
M  V30 4144 H 400.451 -1.57443 4.52491 0
M  V30 4145 H 398.815 -0.927788 2.37201 0
M  V30 4146 H 399.598 0.380808 3.41181 0
M  V30 4147 N 402.043 -1.548 -0.295768 0
M  V30 4148 C 402.976 -1.81003 -1.38972 0
M  V30 4149 C 403.954 -0.661544 -1.48534 0
M  V30 4150 O 405.138 -0.902074 -1.65514 0
M  V30 4151 C 402.265 -1.95141 -2.76835 0
M  V30 4152 C 401.311 -3.17592 -2.84671 0
M  V30 4153 S 402.144 -4.75531 -2.46232 0
M  V30 4154 C 403.3 -4.92613 -3.86114 0
M  V30 4155 H 403.533 -2.73507 -1.16537 0
M  V30 4156 H 401.066 -1.46278 -0.494168 0
M  V30 4157 H 403.024 -2.03972 -3.56238 0
M  V30 4158 H 401.685 -1.03565 -2.96535 0
M  V30 4159 H 400.878 -3.24303 -3.85803 0
M  V30 4160 H 400.48 -3.07235 -2.13267 0
M  V30 4161 H 402.772 -4.76957 -4.81164 0
M  V30 4162 H 403.715 -5.94698 -3.8437 0
M  V30 4163 H 404.123 -4.2073 -3.76359 0
M  V30 4164 N 403.521 0.559213 -1.47345 0
M  V30 4165 C 404.932 1.14134 -1.47751 0
M  V30 4166 C 405.283 1.94834 -0.231103 0
M  V30 4167 O 404.408 2.05957 0.664137 0
M  V30 4168 C 405.003 2.07653 -2.67705 0
M  V30 4169 C 403.562 2.61141 -2.71076 0
M  V30 4170 C 402.709 1.3748 -2.40821 0
M  V30 4171 H 405.66 0.345917 -1.54884 0
M  V30 4172 H 405.681 2.91497 -2.44561 0
M  V30 4173 H 405.193 1.4889 -3.58404 0
M  V30 4174 H 403.294 3.23707 -1.84511 0
M  V30 4175 H 403.407 3.02272 -3.7171 0
M  V30 4176 H 401.771 1.68086 -1.91362 0
M  V30 4177 H 402.554 0.805135 -3.33725 0
M  V30 4178 N 404.999 1.35443 0.805782 0
M  V30 4179 C 406.229 1.31687 1.59192 0
M  V30 4180 C 406.637 -0.10756 1.88894 0
M  V30 4181 O 405.98 -1.07017 1.49309 0
M  V30 4182 C 406.042 2.05686 2.94845 0
M  V30 4183 C 405.706 3.54868 2.87954 0
M  V30 4184 C 406.703 4.49444 2.61335 0
M  V30 4185 C 404.388 3.97528 3.07046 0
M  V30 4186 C 406.382 5.84655 2.53885 0
M  V30 4187 C 404.069 5.32833 2.99219 0
M  V30 4188 C 405.067 6.26209 2.72674 0
M  V30 4189 O 404.755 7.59032 2.64811 0
M  V30 4190 H 404.487 0.453878 0.50097 0
M  V30 4191 H 407.041 1.78892 1.0093 0
M  V30 4192 H 405.271 1.5312 3.55093 0
M  V30 4193 H 406.96 1.94998 3.55993 0
M  V30 4194 H 407.726 4.17804 2.46303 0
M  V30 4195 H 403.605 3.25233 3.26718 0
M  V30 4196 H 407.149 6.57508 2.33086 0
M  V30 4197 H 403.046 5.64087 3.13809 0
M  V30 4198 H 403.814 7.68967 2.80413 0
M  V30 4199 N 406.477 -1.02803 1.19454 0
M  V30 4200 C 407.723 -1.76478 0.999171 0
M  V30 4201 C 408.056 -1.88456 -0.468828 0
M  V30 4202 O 407.331 -1.40198 -1.34814 0
M  V30 4203 C 407.614 -3.19044 1.66981 0
M  V30 4204 C 407.467 -3.14932 3.21151 0
M  V30 4205 C 408.786 -4.17456 1.39349 0
M  V30 4206 H 405.905 -0.640614 0.364393 0
M  V30 4207 H 408.547 -1.20005 1.47305 0
M  V30 4208 H 406.697 -3.67263 1.2669 0
M  V30 4209 H 408.369 -2.74605 3.70661 0
M  V30 4210 H 406.612 -2.52625 3.52652 0
M  V30 4211 H 407.283 -4.1566 3.63223 0
M  V30 4212 H 409.759 -3.77842 1.74283 0
M  V30 4213 H 408.635 -5.154 1.88823 0
M  V30 4214 H 408.896 -4.40949 0.318813 0
M  V30 4215 N 407.956 -0.998596 -1.21925 0
M  V30 4216 C 408.903 -0.553621 -2.24062 0
M  V30 4217 C 409.873 0.416999 -1.6078 0
M  V30 4218 O 411.058 0.320482 -1.88089 0
M  V30 4219 C 408.198 0.119959 -3.44891 0
M  V30 4220 C 407.311 -0.893077 -4.22668 0
M  V30 4221 C 406.446 -0.192424 -5.30851 0
M  V30 4222 C 405.485 -1.19344 -6.00353 0
M  V30 4223 N 404.622 -0.520707 -7.00166 0
M  V30 4224 H 409.462 -1.4293 -2.61486 0
M  V30 4225 H 406.999 -0.715838 -1.28507 0
M  V30 4226 H 408.957 0.527459 -4.13852 0
M  V30 4227 H 407.587 0.959389 -3.08214 0
M  V30 4228 H 406.639 -1.41886 -3.52948 0
M  V30 4229 H 407.951 -1.65512 -4.70539 0
M  V30 4230 H 407.105 0.271515 -6.06092 0
M  V30 4231 H 405.844 0.602075 -4.83969 0
M  V30 4232 H 404.849 -1.66795 -5.23889 0
M  V30 4233 H 406.074 -1.98891 -6.49322 0
M  V30 4234 H 404.02 0.254252 -6.55507 0
M  V30 4235 H 403.937 -1.2211 -7.46073 0
M  V30 4236 H 405.205 -0.0797596 -7.79459 0
M  V30 4237 N 409.434 1.37368 -0.772513 0
M  V30 4238 C 410.68 2.00423 -0.3467 0
M  V30 4239 C 411.035 1.60224 1.06518 0
M  V30 4240 O 410.328 0.838712 1.72268 0
M  V30 4241 C 410.522 3.54817 -0.428876 0
M  V30 4242 C 410.351 4.10011 -1.84719 0
M  V30 4243 C 409.121 4.40927 -2.46803 0
M  V30 4244 C 411.319 4.30955 -2.80681 0
M  V30 4245 N 409.301 4.8184 -3.80399 0
M  V30 4246 C 410.672 4.74486 -3.99078 0
M  V30 4247 C 412.727 4.1309 -2.77958 0
M  V30 4248 C 411.43 5.02023 -5.15136 0
M  V30 4249 C 413.456 4.41764 -3.9319 0
M  V30 4250 C 412.818 4.85535 -5.10328 0
M  V30 4251 H 408.917 0.762413 -0.173927 0
M  V30 4252 H 411.501 1.66666 -1.00651 0
M  V30 4253 H 409.672 3.87881 0.200757 0
M  V30 4254 H 411.404 4.04696 0.0190668 0
M  V30 4255 H 408.159 4.30033 -1.98415 0
M  V30 4256 H 408.583 5.06604 -4.49089 0
M  V30 4257 H 413.225 3.7842 -1.88568 0
M  V30 4258 H 410.943 5.35582 -6.05126 0
M  V30 4259 H 414.529 4.29528 -3.92425 0
M  V30 4260 H 413.409 5.07296 -5.98013 0
M  V30 4261 N 410.912 0.523116 1.48665 0
M  V30 4262 C 411.845 -0.290518 2.26343 0
M  V30 4263 C 412.823 -0.950913 1.31895 0
M  V30 4264 O 414.007 -0.976662 1.61225 0
M  V30 4265 C 411.134 -1.41088 3.07915 0
M  V30 4266 C 410.18 -0.862597 4.17686 0
M  V30 4267 S 411.013 0.264135 5.34848 0
M  V30 4268 C 412.169 -0.858864 6.19979 0
M  V30 4269 H 412.402 0.368726 2.95005 0
M  V30 4270 H 409.935 0.30878 1.51281 0
M  V30 4271 H 411.893 -2.0527 3.55492 0
M  V30 4272 H 410.554 -2.04182 2.38681 0
M  V30 4273 H 409.747 -1.70287 4.74361 0
M  V30 4274 H 409.349 -0.297595 3.72814 0
M  V30 4275 H 411.641 -1.7591 6.54264 0
M  V30 4276 H 412.584 -0.330244 7.07329 0
M  V30 4277 H 412.992 -1.13617 5.52948 0
M  V30 4278 N 412.39 -1.55475 0.257931 0
M  V30 4279 C 413.322 -2.19192 -0.669881 0
M  V30 4280 C 414.335 -1.17148 -1.1305 0
M  V30 4281 O 415.524 -1.43959 -1.05537 0
M  V30 4282 C 412.624 -2.79016 -1.92363 0
M  V30 4283 C 411.797 -4.06586 -1.61265 0
M  V30 4284 C 410.856 -4.50622 -2.7171 0
M  V30 4285 O 409.882 -5.16765 -2.38627 0
M  V30 4286 N 411.084 -4.19325 -4.01431 0
M  V30 4287 H 413.849 -2.99441 -0.124635 0
M  V30 4288 H 411.41 -1.6171 0.0783311 0
M  V30 4289 H 413.402 -3.05427 -2.65511 0
M  V30 4290 H 411.972 -2.0286 -2.37837 0
M  V30 4291 H 411.192 -3.87646 -0.715811 0
M  V30 4292 H 412.48 -4.89737 -1.37967 0
M  V30 4293 H 411.878 -3.66247 -4.31138 0
M  V30 4294 H 410.435 -4.50547 -4.7101 0
M  V30 4295 N 413.868 0.0150385 -1.57593 0
M  V30 4296 C 415.116 0.701613 -1.8953 0
M  V30 4297 C 415.437 1.75139 -0.857396 0
M  V30 4298 O 414.707 1.95607 0.107194 0
M  V30 4299 H 413.287 0.26213 -0.699498 0
M  V30 4300 H 415.949 -0.0223304 -1.94887 0
M  V30 4301 H 415.045 1.18236 -2.88837 0
M  V30 4302 N 415.346 1.54954 0.287554 0
M  V30 4303 C 416.309 1.86076 1.33823 0
M  V30 4304 C 417.309 0.734414 1.43049 0
M  V30 4305 O 418.499 1.00266 1.42452 0
M  V30 4306 C 415.631 2.05305 2.72144 0
M  V30 4307 H 416.824 2.79984 1.07465 0
M  V30 4308 H 414.377 1.47223 0.524902 0
M  V30 4309 H 415.112 1.1373 3.03704 0
M  V30 4310 H 414.897 2.873 2.66836 0
M  V30 4311 H 416.387 2.30706 3.48087 0
M  V30 4312 N 416.824 -0.551391 1.4764 0
M  V30 4313 C 417.734 -1.68525 1.63207 0
M  V30 4314 C 418.75 -1.6621 0.514815 0
M  V30 4315 O 419.926 -1.85551 0.783113 0
M  V30 4316 C 416.991 -3.05025 1.64805 0
M  V30 4317 C 416.052 -3.18362 2.88 0
M  V30 4318 C 415.285 -4.4835 2.89513 0
M  V30 4319 O 415.508 -5.34163 2.00065 0
M  V30 4320 O 414.442 -4.65602 3.81443 0
M  V30 4321 H 418.268 -1.58333 2.59161 0
M  V30 4322 H 415.853 -0.722063 1.30792 0
M  V30 4323 H 417.735 -3.86245 1.68502 0
M  V30 4324 H 416.41 -3.15587 0.720197 0
M  V30 4325 H 415.317 -2.36518 2.89845 0
M  V30 4326 H 416.65 -3.12707 3.80099 0
M  V30 4327 N 418.302 -1.35869 -0.798587 0
M  V30 4328 C 419.579 -1.20145 -1.54352 0
M  V30 4329 C 419.959 0.216161 -2.0999 0
M  V30 4330 O 419.307 1.22068 -1.93162 0
M  V30 4331 C 419.517 -2.27602 -2.64572 0
M  V30 4332 C 420.865 -2.63811 -3.32699 0
M  V30 4333 O 421.889 -2.26576 -2.74849 0
M  V30 4334 O 420.748 -3.27866 -4.37226 0
M  V30 4335 H 417.842 -0.467248 -0.682355 0
M  V30 4336 H 420.388 -1.47574 -0.837859 0
M  V30 4337 H 419.16 -3.2265 -2.21388 0
M  V30 4338 H 418.783 -2.01488 -3.42766 0
M  V30 4339 N 419.78 1.02168 -1.19998 0
M  V30 4340 C 420.71 2.12488 -0.96804 0
M  V30 4341 C 421.691 1.69799 0.101185 0
M  V30 4342 O 422.876 1.94121 -0.0552993 0
M  V30 4343 C 420.006 3.43479 -0.513776 0
M  V30 4344 C 418.96 3.99884 -1.52566 0
M  V30 4345 C 418.286 5.26582 -0.928214 0
M  V30 4346 C 419.586 4.33861 -2.90795 0
M  V30 4347 H 421.28 2.32149 -1.89069 0
M  V30 4348 H 418.826 1.11564 -0.910468 0
M  V30 4349 H 420.779 4.20036 -0.338774 0
M  V30 4350 H 419.503 3.23561 0.444493 0
M  V30 4351 H 418.162 3.25429 -1.68794 0
M  V30 4352 H 417.81 5.02986 0.0378289 0
M  V30 4353 H 417.51 5.65284 -1.60397 0
M  V30 4354 H 419.034 6.05799 -0.764167 0
M  V30 4355 H 420.448 5.01327 -2.78109 0
M  V30 4356 H 418.845 4.83664 -3.55231 0
M  V30 4357 H 419.915 3.42848 -3.42904 0
M  V30 4358 N 421.258 1.00505 1.21394 0
M  V30 4359 C 422.486 0.706609 1.9446 0
M  V30 4360 C 422.901 -0.73081 1.74082 0
M  V30 4361 O 422.258 -1.49446 1.04747 0
M  V30 4362 C 422.309 1.01824 3.46863 0
M  V30 4363 O 422.03 2.39919 3.66566 0
M  V30 4364 C 423.531 0.739216 4.37093 0
M  V30 4365 H 420.751 0.260394 0.618414 0
M  V30 4366 H 423.295 1.34311 1.54211 0
M  V30 4367 H 421.45 0.427343 3.85036 0
M  V30 4368 H 421.864 2.50784 4.6066 0
M  V30 4369 H 423.338 1.00744 5.42729 0
M  V30 4370 H 423.815 -0.326746 4.37983 0
M  V30 4371 H 424.421 1.31173 4.04566 0
M  V30 4372 N 422.737 -1.36956 0.779787 0
M  V30 4373 C 424.148 -1.82094 0.412156 0
M  V30 4374 C 424.499 -1.64926 -1.06273 0
M  V30 4375 O 423.624 -1.16483 -1.82375 0
M  V30 4376 C 424.219 -3.3059 0.741319 0
M  V30 4377 C 422.778 -3.73974 0.426641 0
M  V30 4378 C 421.925 -2.59368 0.980987 0
M  V30 4379 H 424.876 -1.25314 0.973758 0
M  V30 4380 H 424.897 -3.80489 0.028887 0
M  V30 4381 H 424.409 -3.43054 1.81482 0
M  V30 4382 H 422.51 -3.67076 -0.639215 0
M  V30 4383 H 422.623 -4.69778 0.940515 0
M  V30 4384 H 420.987 -2.51463 0.404757 0
M  V30 4385 H 421.77 -2.74621 2.06005 0
M  V30 4386 N 424.215 -0.530993 -1.48385 0
M  V30 4387 C 425.125 0.23503 -2.3342 0
M  V30 4388 C 426.141 0.93801 -1.46552 0
M  V30 4389 O 427.317 0.912745 -1.7953 0
M  V30 4390 C 424.382 1.26778 -3.22689 0
M  V30 4391 C 423.443 0.575038 -4.25431 0
M  V30 4392 C 422.676 1.55858 -5.10435 0
M  V30 4393 O 422.899 2.79129 -4.97437 0
M  V30 4394 O 421.833 1.09742 -5.91811 0
M  V30 4395 H 425.659 -0.461794 -3.00169 0
M  V30 4396 H 423.244 -0.291903 -1.46521 0
M  V30 4397 H 425.126 1.86457 -3.77904 0
M  V30 4398 H 423.801 1.94699 -2.586 0
M  V30 4399 H 422.708 -0.0622782 -3.74048 0
M  V30 4400 H 424.041 -0.062253 -4.92161 0
M  V30 4401 N 425.693 1.55336 -0.266172 0
M  V30 4402 C 426.97 1.91372 0.404486 0
M  V30 4403 C 427.35 1.18935 1.74407 0
M  V30 4404 O 426.698 0.3132 2.26343 0
M  V30 4405 C 426.908 3.44581 0.553593 0
M  V30 4406 C 428.256 4.16196 0.840618 0
M  V30 4407 O 429.28 3.50426 0.638739 0
M  V30 4408 O 428.139 5.32567 1.22618 0
M  V30 4409 H 425.233 0.797194 0.220025 0
M  V30 4410 H 427.779 1.66813 -0.311664 0
M  V30 4411 H 426.551 3.89357 -0.389498 0
M  V30 4412 H 426.174 3.75065 1.31955 0
M  V30 4413 N 427.171 -0.0066808 1.57599 0
M  V30 4414 C 428.448 -0.729586 1.81484 0
M  V30 4415 C 428.828 -1.92359 0.869558 0
M  V30 4416 O 428.176 -2.28348 -0.0832533 0
M  V30 4417 C 428.386 -1.1416 3.29801 0
M  V30 4418 C 429.734 -1.54823 3.95367 0
M  V30 4419 O 430.758 -1.23558 3.34084 0
M  V30 4420 O 429.617 -2.12937 5.03309 0
M  V30 4421 H 426.711 -0.354674 0.747085 0
M  V30 4422 H 429.257 0.0182609 1.6969 0
M  V30 4423 H 428.029 -0.290231 3.90222 0
M  V30 4424 H 427.652 -1.94876 3.46568 0
M  V30 4425 N 428.649 -1.55105 -0.279332 0
M  V30 4426 C 429.582 -1.82467 -1.37044 0
M  V30 4427 C 430.56 -0.677261 -1.47824 0
M  V30 4428 O 431.744 -0.919578 -1.64548 0
M  V30 4429 C 428.871 -1.98066 -2.7475 0
M  V30 4430 C 427.917 -3.20594 -2.81286 0
M  V30 4431 S 428.75 -4.78116 -2.41175 0
M  V30 4432 C 429.906 -4.9668 -3.80867 0
M  V30 4433 H 430.139 -2.74728 -1.1363 0
M  V30 4434 H 427.672 -1.46794 -0.478625 0
M  V30 4435 H 429.63 -2.07739 -3.54055 0
M  V30 4436 H 428.291 -1.06704 -2.9542 0
M  V30 4437 H 427.484 -3.28376 -3.82341 0
M  V30 4438 H 427.086 -3.09479 -2.09996 0
M  V30 4439 H 429.378 -4.82033 -4.76078 0
M  V30 4440 H 430.321 -5.98741 -3.78041 0
M  V30 4441 H 430.729 -4.24698 -3.71876 0
M  V30 4442 N 430.127 0.543554 -1.4793 0
M  V30 4443 C 431.538 1.12561 -1.48953 0
M  V30 4444 C 431.889 1.94578 -0.251754 0
M  V30 4445 O 431.014 2.0665 0.642255 0
M  V30 4446 C 431.609 2.04801 -2.69892 0
M  V30 4447 C 430.168 2.58251 -2.73831 0
M  V30 4448 C 429.315 1.34918 -2.42265 0
M  V30 4449 H 432.266 0.32947 -1.55242 0
M  V30 4450 H 432.287 2.88886 -2.47639 0
M  V30 4451 H 431.799 1.4508 -3.59963 0
M  V30 4452 H 429.9 3.21732 -1.87934 0
M  V30 4453 H 430.013 2.98312 -3.74895 0
M  V30 4454 H 428.377 1.66046 -1.93134 0
M  V30 4455 H 429.16 0.769693 -3.3456 0
M  V30 4456 N 431.605 1.3629 0.791371 0
M  V30 4457 C 432.851 1.30605 1.55146 0
M  V30 4458 C 433.184 -0.115042 1.93859 0
M  V30 4459 O 432.459 -1.06798 1.62556 0
M  V30 4460 C 432.742 2.22692 2.82985 0
M  V30 4461 C 432.595 3.73489 2.50651 0
M  V30 4462 C 433.914 2.13588 3.84796 0
M  V30 4463 H 431.033 0.475761 0.562868 0
M  V30 4464 H 433.675 1.66825 0.909358 0
M  V30 4465 H 431.825 1.91933 3.37778 0
M  V30 4466 H 433.497 4.14758 2.01924 0
M  V30 4467 H 431.74 3.93021 1.83622 0
M  V30 4468 H 432.411 4.3333 3.41949 0
M  V30 4469 H 434.887 2.40659 3.39445 0
M  V30 4470 H 433.763 2.80195 4.71998 0
M  V30 4471 H 434.024 1.12256 4.27611 0
M  V30 4472 N 433.083 -1.0153 1.20538 0
M  V30 4473 C 434.331 -1.74803 1.01432 0
M  V30 4474 C 434.652 -1.8963 -0.454456 0
M  V30 4475 O 433.922 -1.43975 -1.32846 0
M  V30 4476 H 432.502 -0.647598 0.372324 0
M  V30 4477 H 435.164 -1.22402 1.5167 0
M  V30 4478 H 434.26 -2.75114 1.47373 0
M  V30 4479 N 434.561 -1.01147 -1.20859 0
M  V30 4480 C 435.977 -0.725422 -1.42161 0
M  V30 4481 C 436.177 0.696919 -1.89064 0
M  V30 4482 O 435.233 1.46539 -2.05627 0
M  V30 4483 C 436.546 -1.74678 -2.44761 0
M  V30 4484 C 438.094 -1.76433 -2.58535 0
M  V30 4485 C 438.569 -2.77481 -3.64374 0
M  V30 4486 N 440.06 -2.76189 -3.71852 0
M  V30 4487 C 440.795 -3.51035 -4.53389 0
M  V30 4488 N 440.291 -4.35541 -5.38773 0
M  V30 4489 N 442.084 -3.39655 -4.47873 0
M  V30 4490 H 434.235 -1.92979 -0.887282 0
M  V30 4491 H 436.498 -0.833327 -0.451962 0
M  V30 4492 H 436.204 -2.76551 -2.17285 0
M  V30 4493 H 436.078 -1.55472 -3.43669 0
M  V30 4494 H 438.465 -0.75248 -2.85345 0
M  V30 4495 H 438.546 -1.99712 -1.5984 0
M  V30 4496 H 438.19 -3.78827 -3.38308 0
M  V30 4497 H 438.12 -2.51466 -4.6268 0
M  V30 4498 H 440.611 -2.14885 -3.10858 0
M  V30 4499 H 440.924 -4.89432 -5.98061 0
M  V30 4500 H 439.269 -4.39621 -5.38292 0
M  V30 4501 H 442.46 -2.73063 -3.80203 0
M  V30 4502 H 442.633 -3.9824 -5.11184 0
M  V30 4503 N 436.039 1.36541 -0.78704 0
M  V30 4504 C 436.987 2.31965 -0.171724 0
M  V30 4505 C 437.981 1.55689 0.667631 0
M  V30 4506 O 439.187 1.70969 0.562981 0
M  V30 4507 H 435.562 0.751101 -0.0367545 0
M  V30 4508 H 437.533 2.81428 -0.992017 0
M  V30 4509 C 436.282 3.40968 0.680904 0
M  V30 4510 H 435.605 3.99775 0.0443961 0
M  V30 4511 H 437.045 4.10063 1.07815 0
M  V30 4512 C 435.504 2.82338 1.83813 0
M  V30 4513 O 436.034 2.74311 2.93456 0
M  V30 4514 N 434.24 2.39661 1.6435 0
M  V30 4515 H 433.787 2.46389 0.751668 0
M  V30 4516 H 433.745 2.00779 2.4194 0
M  V30 4517 N 437.518 0.538854 1.48102 0
M  V30 4518 C 438.764 0.00801365 2.02798 0
M  V30 4519 C 439.097 -1.3309 1.41424 0
M  V30 4520 O 438.372 -1.86169 0.563158 0
M  V30 4521 C 438.655 -0.104589 3.59948 0
M  V30 4522 C 438.508 1.26012 4.31788 0
M  V30 4523 C 439.827 -0.827055 4.32259 0
M  V30 4524 H 436.946 0.00438624 0.736987 0
M  V30 4525 H 439.588 0.6976 1.7673 0
M  V30 4526 H 437.738 -0.691893 3.82289 0
M  V30 4527 H 439.41 1.88922 4.2084 0
M  V30 4528 H 437.653 1.83968 3.92859 0
M  V30 4529 H 438.324 1.13424 5.40221 0
M  V30 4530 H 440.8 -0.328578 4.14801 0
M  V30 4531 H 439.676 -0.87476 5.41885 0
M  V30 4532 H 439.937 -1.87927 4.0017 0
M  V30 4533 N 438.996 -1.55193 0.274407 0
M  V30 4534 C 439.926 -2.25471 -0.607032 0
M  V30 4535 C 440.907 -1.24461 -1.15946 0
M  V30 4536 O 442.092 -1.53179 -1.19373 0
M  V30 4537 C 439.222 -2.97526 -1.79153 0
M  V30 4538 C 438.176 -4.05459 -1.37067 0
M  V30 4539 C 437.502 -4.65084 -2.6382 0
M  V30 4540 C 438.802 -5.19691 -0.521389 0
M  V30 4541 H 440.496 -2.99393 -0.0209343 0
M  V30 4542 H 438.042 -1.43997 -0.00862866 0
M  V30 4543 H 439.995 -3.45402 -2.41404 0
M  V30 4544 H 438.719 -2.21138 -2.40344 0
M  V30 4545 H 437.378 -3.58393 -0.771355 0
M  V30 4546 H 437.026 -3.85365 -3.23268 0
M  V30 4547 H 436.726 -5.37961 -2.36372 0
M  V30 4548 H 438.25 -5.15708 -3.26921 0
M  V30 4549 H 439.664 -5.63623 -1.04889 0
M  V30 4550 H 438.061 -5.99126 -0.341825 0
M  V30 4551 H 439.131 -4.82713 0.46 0
M  V30 4552 N 440.474 -0.00167713 -1.576 0
M  V30 4553 C 441.384 1.00548 -2.1196 0
M  V30 4554 C 442.4 1.3758 -1.06526 0
M  V30 4555 O 443.576 1.46278 -1.38436 0
M  V30 4556 C 440.641 2.27809 -2.6135 0
M  V30 4557 C 439.702 1.97074 -3.81393 0
M  V30 4558 C 438.935 3.18267 -4.28417 0
M  V30 4559 O 439.158 4.30009 -3.74765 0
M  V30 4560 O 438.092 3.02167 -5.20556 0
M  V30 4561 H 441.918 0.573373 -2.98238 0
M  V30 4562 H 439.503 0.217255 -1.47812 0
M  V30 4563 H 441.385 3.02568 -2.93309 0
M  V30 4564 H 440.06 2.70254 -1.78169 0
M  V30 4565 H 438.967 1.19785 -3.54404 0
M  V30 4566 H 440.3 1.59464 -4.65652 0
M  V30 4567 N 441.952 1.55251 0.271103 0
M  V30 4568 C 442.882 1.9127 1.33933 0
M  V30 4569 C 443.863 0.77478 1.5143 0
M  V30 4570 O 445.048 1.03307 1.64442 0
M  V30 4571 C 442.178 2.18627 2.69851 0
M  V30 4572 C 441.132 3.34442 2.67081 0
M  V30 4573 C 440.458 3.47284 4.06569 0
M  V30 4574 C 441.758 4.70784 2.26185 0
M  V30 4575 H 443.452 2.80744 1.04035 0
M  V30 4576 H 440.998 1.35077 0.499017 0
M  V30 4577 H 442.951 2.42413 3.44694 0
M  V30 4578 H 441.675 1.25955 3.01335 0
M  V30 4579 H 440.334 3.10627 1.94695 0
M  V30 4580 H 439.982 2.52074 4.35279 0
M  V30 4581 H 439.682 4.25152 4.0561 0
M  V30 4582 H 441.206 3.73363 4.83148 0
M  V30 4583 H 442.62 4.94102 2.90751 0
M  V30 4584 H 441.017 5.51582 2.36384 0
M  V30 4585 H 442.087 4.69478 1.21319 0
M  V30 4586 N 443.43 -0.535701 1.48216 0
M  V30 4587 C 444.658 -1.31671 1.59594 0
M  V30 4588 C 445.073 -1.87083 0.254056 0
M  V30 4589 O 444.43 -1.66112 -0.755854 0
M  V30 4590 C 444.481 -2.47158 2.63809 0
M  V30 4591 O 444.202 -1.94032 3.92789 0
M  V30 4592 C 445.703 -3.39062 2.85573 0
M  V30 4593 H 442.923 -0.400623 0.538277 0
M  V30 4594 H 445.467 -0.646827 1.94001 0
M  V30 4595 H 443.622 -3.10043 2.32276 0
M  V30 4596 H 444.036 -2.69585 4.49916 0
M  V30 4597 H 445.51 -4.16459 3.62306 0
M  V30 4598 H 445.987 -3.93941 1.94184 0
M  V30 4599 H 446.593 -2.81975 3.18387 0
M  V30 4600 N 444.908 -1.36708 -0.784132 0
M  V30 4601 C 446.185 -1.21776 -1.53069 0
M  V30 4602 C 446.565 0.193876 -2.10208 0
M  V30 4603 O 445.913 1.20012 -1.94446 0
M  V30 4604 C 446.123 -2.30395 -2.62143 0
M  V30 4605 C 447.471 -2.67325 -3.29882 0
M  V30 4606 O 448.495 -2.29478 -2.7243 0
M  V30 4607 O 447.354 -3.32485 -4.33724 0
M  V30 4608 H 444.448 -0.474459 -0.677361 0
M  V30 4609 H 446.994 -1.48454 -0.82216 0
M  V30 4610 H 445.766 -3.2498 -2.17953 0
M  V30 4611 H 445.389 -2.05112 -3.40609 0
M  V30 4612 N 446.386 1.0089 -1.21074 0
M  V30 4613 C 447.632 1.74866 -1.02712 0
M  V30 4614 C 447.965 1.89178 0.438787 0
M  V30 4615 O 447.24 1.42325 1.32567 0
M  V30 4616 C 447.523 3.16347 -1.72036 0
M  V30 4617 C 447.376 3.09782 -3.26121 0
M  V30 4618 C 448.695 4.15187 -1.45973 0
M  V30 4619 H 445.814 0.634736 -0.374539 0
M  V30 4620 H 448.456 1.17646 -1.49196 0
M  V30 4621 H 446.606 3.65201 -1.32517 0
M  V30 4622 H 448.278 2.68673 -3.74983 0
M  V30 4623 H 446.521 2.46982 -3.56626 0
M  V30 4624 H 447.192 4.09829 -3.6979 0
M  V30 4625 H 449.668 3.75022 -1.80272 0
M  V30 4626 H 448.544 5.12331 -1.96999 0
M  V30 4627 H 448.805 4.40386 -0.388924 0
M  V30 4628 N 447.864 1.01787 1.20321 0
M  V30 4629 C 448.811 0.589197 2.23153 0
M  V30 4630 C 449.781 -0.391367 1.61423 0
M  V30 4631 O 450.966 -0.290518 1.88575 0
M  V30 4632 C 448.106 -0.0650747 3.45039 0
M  V30 4633 C 447.219 0.960207 4.21194 0
M  V30 4634 C 446.354 0.276854 5.30478 0
M  V30 4635 C 445.393 1.2888 5.98378 0
M  V30 4636 N 444.53 0.632031 6.99249 0
M  V30 4637 H 449.37 1.47071 2.59179 0
M  V30 4638 H 446.907 0.736192 1.27352 0
M  V30 4639 H 448.865 -0.461552 4.14639 0
M  V30 4640 H 447.495 -0.910233 3.09701 0
M  V30 4641 H 446.547 1.47484 3.50646 0
M  V30 4642 H 447.859 1.72977 4.67847 0
M  V30 4643 H 447.013 -0.175056 6.06447 0
M  V30 4644 H 445.752 -0.525004 4.84866 0
M  V30 4645 H 444.757 1.75109 5.21169 0
M  V30 4646 H 445.982 2.09196 6.46076 0
M  V30 4647 H 443.928 -0.149935 6.55829 0
M  V30 4648 H 443.845 1.33964 7.44036 0
M  V30 4649 H 445.113 0.203755 7.79234 0
M  V30 4650 N 449.342 -1.36122 0.79427 0
M  V30 4651 C 450.619 -1.93398 0.292685 0
M  V30 4652 C 450.999 -1.72567 -1.21589 0
M  V30 4653 O 450.347 -1.08745 -2.00965 0
M  V30 4654 C 450.557 -3.42099 0.690614 0
M  V30 4655 C 451.905 -4.19231 0.673105 0
M  V30 4656 O 452.929 -3.50559 0.631389 0
M  V30 4657 O 451.788 -5.41732 0.720362 0
M  V30 4658 H 448.882 -0.823712 0.0736693 0
M  V30 4659 H 451.428 -1.45273 0.87714 0
M  V30 4660 H 450.2 -3.50938 1.73085 0
M  V30 4661 H 449.823 -3.97519 0.0803036 0
M  V30 4662 N 450.82 -0.546701 -1.47814 0
M  V30 4663 C 452.045 -0.021268 -2.07389 0
M  V30 4664 C 452.47 1.25822 -1.39822 0
M  V30 4665 O 451.828 1.75111 -0.46968 0
M  V30 4666 C 451.876 0.168502 -3.60206 0
M  V30 4667 O 450.98 1.23347 -3.93522 0
M  V30 4668 H 450.321 -0.0466108 -0.662362 0
M  V30 4669 H 452.851 -0.759387 -1.89985 0
M  V30 4670 H 452.861 0.385982 -4.0617 0
M  V30 4671 H 451.536 -0.766075 -4.08784 0
M  V30 4672 H 450.113 0.997319 -3.59316 0
M  V30 4673 N 452.299 1.55045 -0.282633 0
M  V30 4674 C 453.262 2.21515 0.588539 0
M  V30 4675 C 454.262 1.19535 1.07554 0
M  V30 4676 O 455.452 1.44391 0.974514 0
M  V30 4677 C 452.584 2.88704 1.8128 0
M  V30 4678 H 453.777 2.99899 0.00806397 0
M  V30 4679 H 451.33 1.56265 -0.0333067 0
M  V30 4680 H 452.065 2.14352 2.43359 0
M  V30 4681 H 451.85 3.63443 1.47144 0
M  V30 4682 H 453.34 3.39465 2.43214 0
M  V30 4683 N 453.777 0.010035 1.57597 0
M  V30 4684 C 454.725 -0.996272 2.10184 0
M  V30 4685 C 455.719 -1.34942 1.02406 0
M  V30 4686 O 456.925 -1.33389 1.20861 0
M  V30 4687 H 453.3 -0.338982 0.671264 0
M  V30 4688 H 455.271 -0.527272 2.93705 0
M  V30 4689 C 454.02 -2.27599 2.62857 0
M  V30 4690 H 453.343 -2.01295 3.45428 0
M  V30 4691 H 454.783 -2.96265 3.0332 0
M  V30 4692 C 453.242 -2.99269 1.54725 0
M  V30 4693 O 453.772 -3.90644 0.93597 0
M  V30 4694 N 451.978 -2.61269 1.27228 0
M  V30 4695 H 451.525 -1.87043 1.77123 0
M  V30 4696 H 451.483 -3.09534 0.550999 0
M  V30 4697 N 455.255 -1.55392 -0.262866 0
M  V30 4698 C 456.485 -1.80251 -1.00961 0
M  V30 4699 C 456.893 -0.58117 -1.80053 0
M  V30 4700 O 456.236 0.459427 -1.77862 0
M  V30 4701 C 456.298 -2.98207 -2.00781 0
M  V30 4702 C 455.962 -4.34856 -1.40533 0
M  V30 4703 C 456.959 -5.13459 -0.815853 0
M  V30 4704 C 454.644 -4.8153 -1.42948 0
M  V30 4705 C 456.638 -6.36875 -0.258562 0
M  V30 4706 C 454.325 -6.04899 -0.868334 0
M  V30 4707 C 455.323 -6.8241 -0.283884 0
M  V30 4708 O 455.011 -8.03451 0.268644 0
M  V30 4709 H 454.743 -0.604049 -0.303482 0
M  V30 4710 H 457.297 -2.03257 -0.295926 0
M  V30 4711 H 455.527 -2.70917 -2.75936 0
M  V30 4712 H 457.216 -3.10299 -2.61667 0
M  V30 4713 H 457.982 -4.78526 -0.789812 0
M  V30 4714 H 453.861 -4.21201 -1.87378 0
M  V30 4715 H 457.405 -6.97318 0.198257 0
M  V30 4716 H 453.302 -6.39312 -0.891649 0
M  V30 4717 H 454.07 -8.18346 0.158974 0
M  V30 4718 N 456.733 0.527833 -1.48498 0
M  V30 4719 C 457.961 1.30823 -1.6029 0
M  V30 4720 C 458.376 1.86945 -0.263974 0
M  V30 4721 O 457.733 1.6651 0.747034 0
M  V30 4722 C 457.784 2.45756 -2.65116 0
M  V30 4723 O 457.505 1.91946 -3.93813 0
M  V30 4724 C 459.006 3.37543 -2.87367 0
M  V30 4725 H 456.226 0.397763 -0.540394 0
M  V30 4726 H 458.77 0.636529 -1.94341 0
M  V30 4727 H 456.925 3.08806 -2.33917 0
M  V30 4728 H 457.339 2.67195 -4.51339 0
M  V30 4729 H 458.813 4.14532 -3.6451 0
M  V30 4730 H 459.29 3.92905 -1.9627 0
M  V30 4731 H 459.896 2.80283 -3.19878 0
M  V30 4732 N 458.211 1.37122 0.776871 0
M  V30 4733 C 459.451 1.33441 1.54831 0
M  V30 4734 C 459.815 -0.0818963 1.91825 0
M  V30 4735 O 461.016 -0.24338 2.67696 0
M  V30 4736 C 459.287 2.24267 2.78279 0
M  V30 4737 S 460.846 2.38389 3.68397 0
M  V30 4738 H 457.664 0.473791 0.530135 0
M  V30 4739 H 460.266 1.7282 0.913968 0
M  V30 4740 H 458.97 3.261 2.49173 0
M  V30 4741 H 458.501 1.85953 3.46677 0
M  V30 4742 H 460.516 1.59068 4.70013 0
M  V30 4743 N 459.689 -1.00246 1.21608 0
M  V30 4744 C 460.935 -1.74319 1.03638 0
M  V30 4745 C 461.268 -1.89408 -0.428749 0
M  V30 4746 O 460.543 -1.43026 -1.3181 0
M  V30 4747 C 460.826 -3.15431 1.73711 0
M  V30 4748 C 460.679 -3.08049 3.27759 0
M  V30 4749 C 461.998 -4.14407 1.48173 0
M  V30 4750 H 459.117 -0.632741 0.377899 0
M  V30 4751 H 461.759 -1.16853 1.49818 0
M  V30 4752 H 459.909 -3.64493 1.34452 0
M  V30 4753 H 461.581 -2.66681 3.76403 0
M  V30 4754 H 459.824 -2.45088 3.57931 0
M  V30 4755 H 460.495 -4.07862 3.71958 0
M  V30 4756 H 462.971 -3.74061 1.82258 0
M  V30 4757 H 461.847 -5.11279 1.99713 0
M  V30 4758 H 462.108 -4.40174 0.412273 0
M  V30 4759 N 461.167 -1.02423 -1.1978 0
M  V30 4760 C 462.13 -0.605703 -2.21052 0
M  V30 4761 C 463.13 0.328209 -1.57415 0
M  V30 4762 O 464.32 0.115853 -1.73814 0
M  V30 4763 C 461.452 0.114366 -3.40708 0
M  V30 4764 H 462.645 -1.5017 -2.59594 0
M  V30 4765 H 460.198 -0.814888 -1.33376 0
M  V30 4766 H 460.933 1.02492 -3.07678 0
M  V30 4767 H 460.718 -0.556641 -3.88129 0
M  V30 4768 H 462.208 0.394272 -4.15735 0
M  V30 4769 N 462.645 1.35699 -0.801477 0
M  V30 4770 C 463.578 2.2768 -0.153922 0
M  V30 4771 C 464.556 1.47832 0.67709 0
M  V30 4772 O 465.74 1.77104 0.645474 0
M  V30 4773 C 462.867 3.2943 0.786986 0
M  V30 4774 C 461.913 4.26485 0.0362447 0
M  V30 4775 S 462.746 5.19573 -1.2963 0
M  V30 4776 C 463.902 6.24866 -0.359705 0
M  V30 4777 H 464.135 2.82254 -0.9338 0
M  V30 4778 H 461.668 1.42421 -0.596283 0
M  V30 4779 H 463.626 3.8855 1.32436 0
M  V30 4780 H 462.287 2.73745 1.54021 0
M  V30 4781 H 461.48 4.98378 0.750668 0
M  V30 4782 H 461.082 3.71508 -0.431017 0
M  V30 4783 H 463.374 6.75957 0.456954 0
M  V30 4784 H 464.317 7.00307 -1.04768 0
M  V30 4785 H 464.725 5.64484 0.0423274 0
M  V30 4786 N 464.123 0.554532 1.47522 0
M  V30 4787 C 465.348 0.0322661 2.07375 0
M  V30 4788 C 465.773 -1.25079 1.40488 0
M  V30 4789 O 465.131 -1.74859 0.47896 0
M  V30 4790 C 465.179 -0.149397 3.6029 0
M  V30 4791 O 464.283 -1.21259 3.9417 0
M  V30 4792 H 463.624 0.0501228 0.662106 0
M  V30 4793 H 466.154 0.769452 1.8958 0
M  V30 4794 H 466.164 -0.364437 4.06369 0
M  V30 4795 H 464.839 0.787743 4.08372 0
M  V30 4796 H 463.416 -0.97825 3.5984 0
M  V30 4797 N 465.601 -1.54893 0.290851 0
M  V30 4798 C 466.826 -2.04804 -0.32712 0
M  V30 4799 C 467.251 -1.16721 -1.47506 0
M  V30 4800 O 466.609 -0.169107 -1.8051 0
M  V30 4801 C 466.657 -3.52268 -0.770689 0
M  V30 4802 O 465.761 -3.67236 -1.87647 0
M  V30 4803 H 465.102 -0.660789 -0.0652227 0
M  V30 4804 H 467.632 -2.00036 0.429739 0
M  V30 4805 H 467.642 -3.9393 -1.06223 0
M  V30 4806 H 466.317 -4.15843 0.069096 0
M  V30 4807 H 464.894 -3.37479 -1.58626 0
M  V30 4808 N 467.08 -0.0183926 -1.57589 0
M  V30 4809 C 468.01 0.965596 -2.12599 0
M  V30 4810 C 468.991 1.34641 -1.0395 0
M  V30 4811 O 470.176 1.42693 -1.31729 0
M  V30 4812 C 467.306 2.25149 -2.64434 0
M  V30 4813 C 466.26 2.01175 -3.77773 0
M  V30 4814 C 465.586 3.35937 -4.15994 0
M  V30 4815 C 466.886 1.35953 -5.04296 0
M  V30 4816 H 468.58 0.507504 -2.95067 0
M  V30 4817 H 466.126 0.242671 -1.41941 0
M  V30 4818 H 468.079 2.94357 -3.01549 0
M  V30 4819 H 466.803 2.73105 -1.79112 0
M  V30 4820 H 465.462 1.34388 -3.4108 0
M  V30 4821 H 465.11 3.81631 -3.27669 0
M  V30 4822 H 464.81 3.20705 -4.92364 0
M  V30 4823 H 466.334 4.0643 -4.55683 0
M  V30 4824 H 467.748 1.95144 -5.39065 0
M  V30 4825 H 466.145 1.31152 -5.85593 0
M  V30 4826 H 467.215 0.331071 -4.83768 0
M  V30 4827 N 468.558 1.5553 0.254621 0
M  V30 4828 C 469.806 1.7665 0.981793 0
M  V30 4829 C 470.127 0.580963 1.86145 0
M  V30 4830 O 469.397 -0.403537 1.91699 0
M  V30 4831 H 467.977 0.651475 0.365498 0
M  V30 4832 H 470.639 1.92958 0.274426 0
M  V30 4833 H 469.735 2.67486 1.60802 0
M  V30 4834 N 470.036 -0.519951 1.48776 0
M  V30 4835 C 471.282 -1.27711 1.57536 0
M  V30 4836 C 471.615 -1.92547 0.252866 0
M  V30 4837 O 470.89 -1.7979 -0.742021 0
M  V30 4838 C 471.173 -2.35875 2.72094 0
M  V30 4839 C 471.026 -1.75664 4.1408 0
M  V30 4840 C 472.345 -3.37575 2.82367 0
M  V30 4841 H 469.464 -0.462971 0.573434 0
M  V30 4842 H 472.106 -0.578194 1.80989 0
M  V30 4843 H 470.256 -2.95488 2.52228 0
M  V30 4844 H 471.928 -1.20025 4.45412 0
M  V30 4845 H 470.171 -1.06154 4.20611 0
M  V30 4846 H 470.842 -2.54029 4.90075 0
M  V30 4847 H 473.318 -2.87929 3.00393 0
M  V30 4848 H 472.194 -4.1064 3.64233 0
M  V30 4849 H 472.455 -3.98743 1.90936 0
M  V30 4850 N 471.514 -1.37532 -0.769588 0
M  V30 4851 C 472.763 -1.32183 -1.5235 0
M  V30 4852 C 473.076 0.0906555 -1.9539 0
M  V30 4853 O 474.282 0.266628 -2.70188 0
M  V30 4854 C 472.738 -2.32029 -2.75119 0
M  V30 4855 C 472.346 -3.78816 -2.3917 0
M  V30 4856 C 474.09 -2.35694 -3.53056 0
M  V30 4857 C 471.997 -4.70388 -3.58453 0
M  V30 4858 H 470.927 -0.491275 -0.571984 0
M  V30 4859 H 473.578 -1.63004 -0.842739 0
M  V30 4860 H 471.96 -1.94229 -3.45096 0
M  V30 4861 H 473.134 -4.25466 -1.76962 0
M  V30 4862 H 471.449 -3.78117 -1.74402 0
M  V30 4863 H 474.046 -3.01312 -4.41718 0
M  V30 4864 H 474.389 -1.37117 -3.93071 0
M  V30 4865 H 474.922 -2.72212 -2.90078 0
M  V30 4866 H 471.661 -5.70102 -3.23518 0
M  V30 4867 H 471.181 -4.28442 -4.19758 0
M  V30 4868 H 472.86 -4.87628 -4.25239 0
M  V30 4869 N 472.992 0.995999 -1.22138 0
M  V30 4870 C 473.902 2.11985 -1.00496 0
M  V30 4871 C 474.918 1.7394 0.0457701 0
M  V30 4872 O 476.094 2.00868 -0.146273 0
M  V30 4873 C 473.159 3.41779 -0.582086 0
M  V30 4874 C 472.22 3.93943 -1.70608 0
M  V30 4875 C 471.453 5.17542 -1.30328 0
M  V30 4876 O 471.676 5.70114 -0.180743 0
M  V30 4877 O 470.61 5.63382 -2.11861 0
M  V30 4878 H 474.436 2.33123 -1.94647 0
M  V30 4879 H 472.021 1.10358 -1.00705 0
M  V30 4880 H 473.903 4.1989 -0.356467 0
M  V30 4881 H 472.578 3.22007 0.330592 0
M  V30 4882 H 471.485 3.17019 -1.98619 0
M  V30 4883 H 472.818 4.18141 -2.59651 0
M  V30 4884 N 474.47 1.03057 1.19235 0
M  V30 4885 C 475.433 0.617418 2.20727 0
M  V30 4886 C 476.433 -0.319856 1.57587 0
M  V30 4887 O 477.623 -0.106633 1.73873 0
M  V30 4888 C 474.755 -0.096296 3.40764 0
M  V30 4889 H 475.948 1.51544 2.58794 0
M  V30 4890 H 473.501 0.821949 1.32942 0
M  V30 4891 H 474.236 -1.00859 3.08217 0
M  V30 4892 H 474.021 0.577217 3.87828 0
M  V30 4893 H 475.511 -0.372219 4.15938 0
M  V30 4894 N 475.948 -1.35272 0.808662 0
M  V30 4895 C 477.194 -1.99003 0.390581 0
M  V30 4896 C 477.527 -1.63999 -1.0401 0
M  V30 4897 O 476.802 -0.904368 -1.72196 0
M  V30 4898 C 477.085 -3.55454 0.576566 0
M  V30 4899 C 476.938 -4.00249 2.05233 0
M  V30 4900 C 478.257 -4.401 0.00354277 0
M  V30 4901 H 475.376 -0.722917 0.143388 0
M  V30 4902 H 478.018 -1.6039 1.01858 0
M  V30 4903 H 476.168 -3.88477 0.0419766 0
M  V30 4904 H 477.84 -3.77626 2.64946 0
M  V30 4905 H 476.083 -3.51082 2.54801 0
M  V30 4906 H 476.754 -5.0911 2.13333 0
M  V30 4907 H 479.23 -4.13548 0.460117 0
M  V30 4908 H 478.106 -5.48656 0.163575 0
M  V30 4909 H 478.367 -4.28444 -1.09032 0
M  V30 4910 N 477.426 -0.562348 -1.47226 0
M  V30 4911 C 478.389 0.172056 -2.28553 0
M  V30 4912 C 479.389 0.837928 -1.37242 0
M  V30 4913 O 480.579 0.693001 -1.59822 0
M  V30 4914 C 477.711 1.25223 -3.17068 0
M  V30 4915 H 478.904 -0.542401 -2.94954 0
M  V30 4916 H 476.457 -0.319493 -1.53 0
M  V30 4917 H 477.192 1.99892 -2.55369 0
M  V30 4918 H 476.977 0.779515 -3.84273 0
M  V30 4919 H 478.467 1.76791 -3.78332 0
M  V30 4920 N 478.904 1.54736 -0.299062 0
M  V30 4921 C 479.836 2.20891 0.61153 0
M  V30 4922 C 480.849 1.20104 1.09904 0
M  V30 4923 O 482.038 1.46707 1.01683 0
M  V30 4924 C 479.138 2.84018 1.84897 0
M  V30 4925 C 478.311 4.10719 1.50428 0
M  V30 4926 C 477.37 4.57667 2.59667 0
M  V30 4927 O 476.396 5.2291 2.24842 0
M  V30 4928 N 477.598 4.29821 3.90172 0
M  V30 4929 H 480.363 2.99666 0.0452001 0
M  V30 4930 H 477.924 1.61446 -0.121178 0
M  V30 4931 H 479.916 3.1236 2.5732 0
M  V30 4932 H 478.486 2.09095 2.32375 0
M  V30 4933 H 477.706 3.89408 0.612781 0
M  V30 4934 H 478.994 4.93223 1.24934 0
M  V30 4935 H 478.392 3.77549 4.21276 0
M  V30 4936 H 476.949 4.62877 4.58899 0
M  V30 4937 N 480.382 0.0267497 1.57577 0
M  V30 4938 C 481.631 -0.651736 1.9088 0
M  V30 4939 C 481.944 -1.73427 0.904576 0
M  V30 4940 O 483.15 -2.46923 1.12877 0
M  V30 4941 C 481.606 -1.21048 3.38933 0
M  V30 4942 C 481.214 -0.161362 4.47709 0
M  V30 4943 C 482.958 -1.86562 3.81307 0
M  V30 4944 C 480.865 -0.731611 5.86857 0
M  V30 4945 H 479.795 -0.247198 0.712326 0
M  V30 4946 H 482.446 0.0916641 1.83271 0
M  V30 4947 H 480.828 -2.00542 3.41466 0
M  V30 4948 H 482.002 0.61094 4.56732 0
M  V30 4949 H 480.317 0.394877 4.14523 0
M  V30 4950 H 482.914 -2.30178 4.8262 0
M  V30 4951 H 483.257 -2.70735 3.16241 0
M  V30 4952 H 483.79 -1.13762 3.81186 0
M  V30 4953 H 480.529 0.0719329 6.55461 0
M  V30 4954 H 480.049 -1.47245 5.81445 0
M  V30 4955 H 481.728 -1.22208 6.35354 0
M  V30 4956 N 481.861 -1.55662 -0.24637 0
M  V30 4957 C 483.089 -1.81575 -0.991876 0
M  V30 4958 C 483.504 -0.602545 -1.78927 0
M  V30 4959 O 482.861 0.428795 -1.77391 0
M  V30 4960 C 482.912 -3.05711 -1.92933 0
M  V30 4961 O 482.633 -4.22348 -1.1642 0
M  V30 4962 C 484.134 -3.44428 -2.79078 0
M  V30 4963 H 481.354 -0.604209 -0.291844 0
M  V30 4964 H 483.898 -2.02722 -0.269095 0
M  V30 4965 H 482.053 -2.86612 -2.60638 0
M  V30 4966 H 482.467 -4.92706 -1.79835 0
M  V30 4967 H 483.941 -4.34388 -3.40603 0
M  V30 4968 H 484.418 -2.65037 -3.50217 0
M  V30 4969 H 485.024 -3.65879 -2.16824 0
M  V30 4970 N 483.339 0.512053 -1.4905 0
M  V30 4971 C 484.585 1.26874 -1.58212 0
M  V30 4972 C 484.918 1.9241 -0.263073 0
M  V30 4973 O 484.193 1.80181 0.732476 0
M  V30 4974 C 484.476 2.34428 -2.73341 0
M  V30 4975 C 484.329 1.73466 -4.15006 0
M  V30 4976 C 485.648 3.36073 -2.84154 0
M  V30 4977 H 482.767 0.459924 -0.575881 0
M  V30 4978 H 485.409 0.568587 -1.81293 0
M  V30 4979 H 483.559 2.94146 -2.53792 0
M  V30 4980 H 485.231 1.17661 -4.46042 0
M  V30 4981 H 483.474 1.03921 -4.21168 0
M  V30 4982 H 484.145 2.51426 -4.91415 0
M  V30 4983 H 486.621 2.86332 -3.01916 0
M  V30 4984 H 485.497 4.08703 -3.66406 0
M  V30 4985 H 485.758 3.97725 -1.93048 0
M  V30 4986 N 484.817 1.37938 0.762283 0
M  V30 4987 C 485.764 1.34467 1.87583 0
M  V30 4988 C 486.734 0.208633 1.64785 0
M  V30 4989 O 487.919 0.399494 1.86571 0
M  V30 4990 C 485.059 1.16692 3.24772 0
M  V30 4991 C 484.172 2.39608 3.59461 0
M  V30 4992 C 483.307 2.14631 4.85908 0
M  V30 4993 C 482.346 3.33364 5.13357 0
M  V30 4994 N 481.483 3.07877 6.30996 0
M  V30 4995 H 486.323 2.29669 1.89885 0
M  V30 4996 H 483.86 1.14116 0.928219 0
M  V30 4997 H 485.818 1.04405 4.03925 0
M  V30 4998 H 484.448 0.251333 3.2182 0
M  V30 4999 H 483.5 2.626 2.75219 0
M  V30 5000 H 484.812 3.28128 3.75678 0
M  V30 5001 H 483.966 1.99429 5.72986 0
M  V30 5002 H 482.705 1.23463 4.71814 0
M  V30 5003 H 481.71 3.49094 4.24751 0
M  V30 5004 H 482.935 4.25395 5.29354 0
M  V30 5005 H 480.881 2.19348 6.18241 0
M  V30 5006 H 480.798 3.89944 6.47673 0
M  V30 5007 H 482.066 2.96313 7.20985 0
M  V30 5008 N 486.295 -0.989507 1.22664 0
M  V30 5009 C 487.52 -1.77031 1.08051 0
M  V30 5010 C 487.945 -1.84535 -0.364483 0
M  V30 5011 O 487.303 -1.3003 -1.2634 0
M  V30 5012 C 487.351 -3.18 1.70024 0
M  V30 5013 O 486.455 -4.01161 0.956216 0
M  V30 5014 H 485.796 -0.545008 0.379292 0
M  V30 5015 H 488.326 -1.24277 1.62531 0
M  V30 5016 H 488.336 -3.68616 1.74888 0
M  V30 5017 H 487.011 -3.11853 2.75174 0
M  V30 5018 H 485.588 -3.59687 0.98384 0
M  V30 5019 N 487.773 -1.03688 -1.18687 0
M  V30 5020 C 488.703 -0.645407 -2.24403 0
M  V30 5021 C 489.684 0.349511 -1.66471 0
M  V30 5022 O 490.869 0.230453 -1.92828 0
M  V30 5023 C 487.999 -0.00365337 -3.473 0
M  V30 5024 C 486.953 -0.921705 -4.17958 0
M  V30 5025 C 486.279 -0.144629 -5.34504 0
M  V30 5026 C 487.579 -2.23909 -4.71871 0
M  V30 5027 H 489.273 -1.52917 -2.57404 0
M  V30 5028 H 486.819 -0.736711 -1.23728 0
M  V30 5029 H 488.772 0.281908 -4.20456 0
M  V30 5030 H 487.496 0.914963 -3.13522 0
M  V30 5031 H 486.155 -1.19159 -3.46694 0
M  V30 5032 H 485.803 0.776274 -4.96974 0
M  V30 5033 H 485.503 -0.756206 -5.82714 0
M  V30 5034 H 487.027 0.134004 -6.10453 0
M  V30 5035 H 488.441 -2.0145 -5.36741 0
M  V30 5036 H 486.838 -2.8033 -5.30599 0
M  V30 5037 H 487.908 -2.88822 -3.895 0
M  V30 5038 N 489.251 1.34841 -0.815825 0
M  V30 5039 C 490.662 1.80937 -0.46029 0
M  V30 5040 C 491.013 1.67685 1.01863 0
M  V30 5041 O 490.138 1.21277 1.79223 0
M  V30 5042 C 490.733 3.28509 -0.828708 0
M  V30 5043 C 489.292 3.72712 -0.525644 0
M  V30 5044 C 488.439 2.56676 -1.04941 0
M  V30 5045 H 491.39 1.22688 -1.00664 0
M  V30 5046 H 491.411 3.80279 -0.129757 0
M  V30 5047 H 490.923 3.38122 -1.90513 0
M  V30 5048 H 489.024 3.68642 0.541666 0
M  V30 5049 H 489.137 4.67119 -1.06474 0
M  V30 5050 H 487.501 2.50302 -0.471286 0
M  V30 5051 H 488.284 2.69063 -2.13214 0
M  V30 5052 N 490.729 0.570148 1.46925 0
M  V30 5053 C 491.676 -0.170257 2.30171 0
M  V30 5054 C 492.646 -0.896099 1.39855 0
M  V30 5055 O 493.831 -0.889248 1.68811 0
M  V30 5056 C 490.971 -1.18605 3.24079 0
M  V30 5057 C 490.084 -0.464947 4.29491 0
M  V30 5058 C 489.219 -1.46716 5.10537 0
M  V30 5059 C 488.258 -0.731758 6.0771 0
M  V30 5060 N 487.395 -1.68142 6.81669 0
M  V30 5061 H 492.235 0.545713 2.92961 0
M  V30 5062 H 489.772 0.280938 1.44392 0
M  V30 5063 H 491.73 -1.78771 3.76957 0
M  V30 5064 H 490.36 -1.86989 2.63125 0
M  V30 5065 H 489.412 0.251506 3.79568 0
M  V30 5066 H 490.724 0.110548 4.98677 0
M  V30 5067 H 489.878 -2.14199 5.6763 0
M  V30 5068 H 488.617 -2.07658 4.41282 0
M  V30 5069 H 487.622 -0.0430787 5.49783 0
M  V30 5070 H 488.847 -0.127904 6.7898 0
M  V30 5071 H 486.793 -2.27918 6.15134 0
M  V30 5072 H 486.71 -1.15841 7.47072 0
M  V30 5073 H 487.978 -2.347 7.43328 0
M  V30 5074 N 492.207 -1.54576 0.307264 0
M  V30 5075 C 493.17 -2.22423 -0.553224 0
M  V30 5076 C 494.17 -1.21231 -1.05639 0
M  V30 5077 O 495.36 -1.45923 -0.951419 0
M  V30 5078 C 492.492 -2.91552 -1.76664 0
M  V30 5079 H 493.685 -2.99874 0.0396484 0
M  V30 5080 H 491.238 -1.56192 0.0581629 0
M  V30 5081 H 491.973 -2.18196 -2.39918 0
M  V30 5082 H 491.758 -3.65738 -1.41343 0
M  V30 5083 H 493.248 -3.43292 -2.37783 0
M  V30 5084 N 493.685 -0.035106 -1.57561 0
M  V30 5085 C 495.096 0.502885 -1.798 0
M  V30 5086 C 495.447 1.71892 -0.945921 0
M  V30 5087 O 494.572 2.15822 -0.157991 0
M  V30 5088 C 495.167 0.919097 -3.26095 0
M  V30 5089 C 493.726 1.40216 -3.49308 0
M  V30 5090 C 492.873 0.369709 -2.74824 0
M  V30 5091 H 495.824 -0.261102 -1.56537 0
M  V30 5092 H 495.845 1.78308 -3.36135 0
M  V30 5093 H 495.357 0.0338526 -3.88085 0
M  V30 5094 H 493.458 2.30714 -2.92578 0
M  V30 5095 H 493.571 1.40541 -4.58023 0
M  V30 5096 H 491.935 0.839113 -2.40481 0
M  V30 5097 H 492.718 -0.507173 -3.39533 0
M  V30 5098 N 495.163 1.55791 0.238111 0
M  V30 5099 C 496.411 1.77681 0.963001 0
M  V30 5100 C 496.732 0.600674 1.85518 0
M  V30 5101 O 496.002 -0.383182 1.92116 0
M  V30 5102 H 494.582 0.655315 0.358568 0
M  V30 5103 H 497.244 1.93239 0.253945 0
M  V30 5104 H 496.34 2.69177 1.57956 0
M  V30 5105 N 496.642 -0.504142 1.49319 0
M  V30 5106 C 497.87 -1.28256 1.62351 0
M  V30 5107 C 498.285 -1.86502 0.293682 0
M  V30 5108 O 497.642 -1.67678 -0.720449 0
M  V30 5109 C 497.693 -2.41507 2.68992 0
M  V30 5110 O 497.414 -1.85656 3.96817 0
M  V30 5111 C 498.915 -3.32929 2.927 0
M  V30 5112 H 496.135 -0.389115 0.546654 0
M  V30 5113 H 498.679 -0.605531 1.95329 0
M  V30 5114 H 496.834 -3.05046 2.38801 0
M  V30 5115 H 497.248 -2.59981 4.55533 0
M  V30 5116 H 498.722 -4.0868 3.71058 0
M  V30 5117 H 499.199 -3.89733 2.02496 0
M  V30 5118 H 499.805 -2.75158 3.24296 0
M  V30 5119 N 498.12 -1.38341 -0.754957 0
M  V30 5120 C 499.531 -1.30803 -1.3322 0
M  V30 5121 C 499.882 0.0368 -1.96165 0
M  V30 5122 O 499.007 0.938844 -1.94974 0
M  V30 5123 C 499.602 -2.3688 -2.42225 0
M  V30 5124 C 498.161 -2.32925 -2.95674 0
M  V30 5125 C 497.308 -2.19819 -1.69042 0
M  V30 5126 H 500.259 -1.48719 -0.553937 0
M  V30 5127 H 500.28 -2.02517 -3.22129 0
M  V30 5128 H 499.792 -3.34747 -1.96383 0
M  V30 5129 H 497.893 -1.38635 -3.45848 0
M  V30 5130 H 498.006 -3.27008 -3.50146 0
M  V30 5131 H 496.37 -1.66648 -1.92615 0
M  V30 5132 H 497.153 -3.19625 -1.25279 0
M  V30 5133 N 499.598 0.982988 -1.23187 0
M  V30 5134 C 500.531 2.07302 -0.953993 0
M  V30 5135 C 501.509 1.62249 0.106753 0
M  V30 5136 O 502.693 1.88481 -0.0269525 0
M  V30 5137 C 499.82 3.35873 -0.436716 0
M  V30 5138 C 498.866 3.99862 -1.48367 0
M  V30 5139 S 499.699 4.39443 -3.06023 0
M  V30 5140 C 500.855 5.7117 -2.55959 0
M  V30 5141 H 501.088 2.30554 -1.87702 0
M  V30 5142 H 498.621 1.11883 -1.06403 0
M  V30 5143 H 500.579 4.10244 -0.144872 0
M  V30 5144 H 499.24 3.10634 0.465351 0
M  V30 5145 H 498.433 4.92471 -1.07182 0
M  V30 5146 H 498.035 3.31857 -1.72473 0
M  V30 5147 H 500.327 6.47977 -1.97818 0
M  V30 5148 H 501.27 6.17194 -3.47098 0
M  V30 5149 H 501.678 5.29046 -1.96902 0
M  V30 5150 N 501.076 1.04316 1.18135 0
M  V30 5151 C 502.322 0.749128 1.88457 0
M  V30 5152 C 502.655 -0.72149 1.803 0
M  V30 5153 O 501.93 -1.52676 1.205 0
M  V30 5154 C 502.213 1.21905 3.38838 0
M  V30 5155 C 502.066 2.75195 3.55792 0
M  V30 5156 C 503.385 0.811085 4.32561 0
M  V30 5157 H 500.504 0.273611 0.684329 0
M  V30 5158 H 503.146 1.29561 1.38975 0
M  V30 5159 H 501.296 0.754137 3.8111 0
M  V30 5160 H 502.968 3.29743 3.22595 0
M  V30 5161 H 501.211 3.14899 2.98364 0
M  V30 5162 H 501.882 3.03135 4.61317 0
M  V30 5163 H 504.358 1.21118 3.98082 0
M  V30 5164 H 503.234 1.16761 5.36338 0
M  V30 5165 H 503.495 -0.285596 4.41177 0
M  V30 5166 N 502.554 -1.34406 0.822964 0
M  V30 5167 C 503.782 -2.02508 0.424039 0
M  V30 5168 C 504.197 -1.61975 -0.970022 0
M  V30 5169 O 503.554 -0.825228 -1.62777 0
M  V30 5170 C 503.605 -3.57789 0.516657 0
M  V30 5171 O 503.326 -3.96853 1.85577 0
M  V30 5172 C 504.827 -4.43157 0.112637 0
M  V30 5173 H 502.047 -0.649063 0.170173 0
M  V30 5174 H 504.591 -1.7168 1.11113 0
M  V30 5175 H 502.746 -3.87207 -0.122353 0
M  V30 5176 H 503.16 -4.91538 1.83005 0
M  V30 5177 H 504.634 -5.51527 0.228526 0
M  V30 5178 H 505.111 -4.28939 -0.943837 0
M  V30 5179 H 505.717 -4.19067 0.725449 0
M  V30 5180 N 504.032 -0.577932 -1.46621 0
M  V30 5181 C 504.942 0.160651 -2.34049 0
M  V30 5182 C 505.958 0.890911 -1.49462 0
M  V30 5183 O 507.134 0.855166 -1.82343 0
M  V30 5184 C 504.199 1.16447 -3.26559 0
M  V30 5185 C 503.26 0.4394 -4.27045 0
M  V30 5186 C 502.493 1.3954 -5.15135 0
M  V30 5187 O 502.716 2.63162 -5.06065 0
M  V30 5188 O 501.65 0.908585 -5.95003 0
M  V30 5189 H 505.476 -0.557057 -2.98547 0
M  V30 5190 H 503.061 -0.338369 -1.45518 0
M  V30 5191 H 504.943 1.7434 -3.83645 0
M  V30 5192 H 503.618 1.86373 -2.64663 0
M  V30 5193 H 502.525 -0.181247 -3.73661 0
M  V30 5194 H 503.858 -0.218799 -4.91713 0
M  V30 5195 N 505.51 1.54411 -0.315457 0
M  V30 5196 C 506.458 2.25514 0.569771 0
M  V30 5197 C 507.452 1.2663 1.12522 0
M  V30 5198 O 508.658 1.44434 1.07419 0
M  V30 5199 H 505.033 0.724257 0.202376 0
M  V30 5200 H 507.004 2.98354 -0.0522895 0
M  V30 5201 C 505.753 3.02004 1.72305 0
M  V30 5202 H 505.076 3.77906 1.30488 0
M  V30 5203 H 506.516 3.55014 2.31821 0
M  V30 5204 C 504.975 2.09822 2.63583 0
M  V30 5205 O 505.505 1.67574 3.65078 0
M  V30 5206 N 503.711 1.75478 2.31637 0
M  V30 5207 H 503.258 2.10032 1.49145 0
M  V30 5208 H 503.216 1.14079 2.92973 0
M  V30 5209 N 506.988 0.0434614 1.5754 0
M  V30 5210 C 508.216 -0.641835 1.96693 0
M  V30 5211 C 508.631 -1.64832 0.920652 0
M  V30 5212 O 507.988 -1.82247 -0.095993 0
M  V30 5213 C 508.039 -1.33557 3.35924 0
M  V30 5214 O 507.76 -0.369403 4.3654 0
M  V30 5215 C 509.261 -2.11135 3.89791 0
M  V30 5216 H 506.481 -0.176013 0.647503 0
M  V30 5217 H 509.025 0.107478 2.04217 0
M  V30 5218 H 507.18 -2.03617 3.29574 0
M  V30 5219 H 507.594 -0.863674 5.1734 0
M  V30 5220 H 509.068 -2.55107 4.89514 0
M  V30 5221 H 509.545 -2.95634 3.24803 0
M  V30 5222 H 510.151 -1.46002 3.99454 0
M  V30 5223 N 508.466 -1.55915 -0.229846 0
M  V30 5224 C 509.429 -1.90914 -1.26824 0
M  V30 5225 C 510.429 -0.786999 -1.40225 0
M  V30 5226 O 511.619 -1.05484 -1.38632 0
M  V30 5227 C 508.751 -2.15264 -2.64337 0
M  V30 5228 H 509.944 -2.8378 -0.969998 0
M  V30 5229 H 507.497 -1.49069 -0.4699 0
M  V30 5230 H 508.232 -1.24923 -2.99274 0
M  V30 5231 H 508.017 -2.97005 -2.55989 0
M  V30 5232 H 509.507 -2.43467 -3.39284 0
M  V30 5233 N 509.944 0.496216 -1.49584 0
M  V30 5234 C 511.172 1.27394 -1.63029 0
M  V30 5235 C 511.587 1.86344 -0.303569 0
M  V30 5236 O 510.944 1.68057 0.711547 0
M  V30 5237 C 510.995 2.40077 -2.70269 0
M  V30 5238 O 510.716 1.83549 -3.97796 0
M  V30 5239 C 512.217 3.31372 -2.94462 0
M  V30 5240 H 509.437 0.386211 -0.54871 0
M  V30 5241 H 511.981 0.595163 -1.95648 0
M  V30 5242 H 510.136 3.03775 -2.40415 0
M  V30 5243 H 510.55 2.57561 -4.56905 0
M  V30 5244 H 512.024 4.06707 -3.73221 0
M  V30 5245 H 512.501 3.88654 -2.0456 0
M  V30 5246 H 513.107 2.73435 -3.25751 0
M  V30 5247 N 511.423 1.38739 0.74761 0
M  V30 5248 C 512.648 1.38702 1.54197 0
M  V30 5249 C 513.073 -0.019664 1.8809 0
M  V30 5250 O 512.431 -1.00333 1.51006 0
M  V30 5251 C 512.479 2.25492 2.814 0
M  V30 5252 O 511.583 1.67613 3.76802 0
M  V30 5253 H 510.924 0.472863 0.466151 0
M  V30 5254 H 513.454 1.82577 0.923413 0
M  V30 5255 H 513.464 2.39561 3.30264 0
M  V30 5256 H 512.139 3.27727 2.56062 0
M  V30 5257 H 510.716 1.62718 3.35526 0
M  V30 5258 N 512.901 -0.976442 1.23707 0
M  V30 5259 C 514.15 -1.71254 1.06559 0
M  V30 5260 C 514.463 -1.91528 -0.397024 0
M  V30 5261 O 515.669 -2.62625 -0.688518 0
M  V30 5262 C 514.125 -3.08207 1.8584 0
M  V30 5263 C 513.733 -2.95806 3.36456 0
M  V30 5264 C 515.477 -3.85749 1.77194 0
M  V30 5265 C 513.384 -4.28015 4.08114 0
M  V30 5266 H 512.314 -0.642171 0.395136 0
M  V30 5267 H 514.965 -1.08877 1.4771 0
M  V30 5268 H 513.347 -3.71363 1.37498 0
M  V30 5269 H 514.521 -2.41716 3.92314 0
M  V30 5270 H 512.836 -2.31736 3.45959 0
M  V30 5271 H 515.433 -4.83633 2.28041 0
M  V30 5272 H 515.776 -4.09752 0.735477 0
M  V30 5273 H 516.309 -3.29303 2.23169 0
M  V30 5274 H 513.048 -4.09208 5.12083 0
M  V30 5275 H 512.568 -4.81955 3.57043 0
M  V30 5276 H 514.247 -4.96681 4.14629 0
M  V30 5277 N 514.379 -1.04941 -1.1758 0
M  V30 5278 C 515.607 -0.778294 -1.91703 0
M  V30 5279 C 516.022 0.665697 -1.76675 0
M  V30 5280 O 515.379 1.45456 -1.10222 0
M  V30 5281 C 515.43 -1.14628 -3.42845 0
M  V30 5282 O 515.151 -2.53359 -3.57409 0
M  V30 5283 C 516.652 -0.900931 -4.34049 0
M  V30 5284 H 513.872 -0.283167 -0.608323 0
M  V30 5285 H 516.416 -1.39942 -1.49119 0
M  V30 5286 H 514.571 -0.569953 -3.83184 0
M  V30 5287 H 514.985 -2.67709 -4.51035 0
M  V30 5288 H 516.459 -1.20817 -5.38616 0
M  V30 5289 H 516.936 0.163966 -4.38894 0
M  V30 5290 H 517.542 -1.46097 -3.99419 0
M  V30 5291 N 515.857 1.33968 -0.830081 0
M  V30 5292 C 517.106 1.97323 -0.417928 0
M  V30 5293 C 517.419 1.6652 1.02618 0
M  V30 5294 O 518.625 2.2342 1.54259 0
M  V30 5295 C 517.081 3.53099 -0.696359 0
M  V30 5296 C 516.689 3.92788 -2.15457 0
M  V30 5297 C 518.433 4.23049 -0.350724 0
M  V30 5298 C 516.34 5.41506 -2.37751 0
M  V30 5299 H 515.27 0.738409 -0.152541 0
M  V30 5300 H 517.921 1.52711 -1.01744 0
M  V30 5301 H 516.303 3.95991 -0.0265904 0
M  V30 5302 H 517.477 3.6098 -2.86408 0
M  V30 5303 H 515.792 3.35795 -2.46232 0
M  V30 5304 H 518.389 5.32403 -0.495036 0
M  V30 5305 H 518.732 4.10279 0.705476 0
M  V30 5306 H 519.265 3.85657 -0.975362 0
M  V30 5307 H 516.004 5.5927 -3.41903 0
M  V30 5308 H 515.524 5.74804 -1.7135 0
M  V30 5309 H 517.203 6.0828 -2.20465 0
M  V30 5310 N 517.335 0.585699 1.46312 0
M  V30 5311 C 518.563 0.0781299 2.06752 0
M  V30 5312 C 518.978 -1.22812 1.43396 0
M  V30 5313 O 518.335 -1.74318 0.540314 0
M  V30 5314 C 518.386 -0.0911927 3.61385 0
M  V30 5315 O 518.107 1.16336 4.22371 0
M  V30 5316 C 519.608 -0.632765 4.38761 0
M  V30 5317 H 516.828 0.0588188 0.668417 0
M  V30 5318 H 519.372 0.807218 1.87894 0
M  V30 5319 H 517.527 -0.770514 3.7966 0
M  V30 5320 H 517.941 0.979082 5.15281 0
M  V30 5321 H 519.415 -0.70041 5.47538 0
M  V30 5322 H 519.892 -1.65039 4.07012 0
M  V30 5323 H 520.498 0.0117856 4.25298 0
M  V30 5324 N 518.813 -1.54241 0.323641 0
M  V30 5325 C 520.059 -2.01572 -0.272089 0
M  V30 5326 C 520.414 -1.20774 -1.49771 0
M  V30 5327 O 519.707 -0.281821 -1.89516 0
M  V30 5328 C 519.901 -3.5129 -0.658031 0
M  V30 5329 C 519.73 -4.46582 0.528645 0
M  V30 5330 C 518.5 -4.94737 1.02777 0
M  V30 5331 C 520.698 -4.95416 1.38086 0
M  V30 5332 N 518.68 -5.73933 2.17885 0
M  V30 5333 C 520.051 -5.72537 2.3791 0
M  V30 5334 C 522.106 -4.77559 1.40861 0
M  V30 5335 C 520.809 -6.33702 3.40314 0
M  V30 5336 C 522.835 -5.39559 2.42136 0
M  V30 5337 C 522.197 -6.16532 3.40688 0
M  V30 5338 H 518.296 -0.779425 -0.0634072 0
M  V30 5339 H 520.88 -1.8922 0.458697 0
M  V30 5340 H 519.051 -3.63888 -1.35795 0
M  V30 5341 H 520.783 -3.85388 -1.23524 0
M  V30 5342 H 517.538 -4.69796 0.599046 0
M  V30 5343 H 517.962 -6.18209 2.75947 0
M  V30 5344 H 522.604 -4.17611 0.660352 0
M  V30 5345 H 520.322 -6.9277 4.16047 0
M  V30 5346 H 523.908 -5.27659 2.45086 0
M  V30 5347 H 522.788 -6.63655 4.1777 0
M  V30 5348 N 520.291 -0.0518155 -1.57515 0
M  V30 5349 C 521.568 0.661727 -1.84067 0
M  V30 5350 C 521.948 1.88999 -0.940351 0
M  V30 5351 O 521.296 2.285 -0.00155404 0
M  V30 5352 C 521.506 1.01841 -3.3381 0
M  V30 5353 C 522.854 1.40043 -4.00841 0
M  V30 5354 O 523.878 1.11073 -3.38439 0
M  V30 5355 O 522.737 1.94111 -5.10865 0
M  V30 5356 H 519.831 0.326702 -0.759733 0
M  V30 5357 H 522.377 -0.0812277 -1.69505 0
M  V30 5358 H 521.149 0.145202 -3.91031 0
M  V30 5359 H 520.772 1.81879 -3.53562 0
M  V30 5360 N 521.769 1.56035 0.221574 0
M  V30 5361 C 522.994 1.83476 0.967026 0
M  V30 5362 C 523.419 0.632139 1.7716 0
M  V30 5363 O 522.777 -0.419082 1.7639 0
M  V30 5364 C 522.825 3.08907 1.86034 0
M  V30 5365 O 521.929 2.876 2.95567 0
M  V30 5366 H 521.27 0.604913 0.273817 0
M  V30 5367 H 523.8 2.03247 0.234893 0
M  V30 5368 H 523.81 3.3901 2.27016 0
M  V30 5369 H 522.485 3.96068 1.26898 0
M  V30 5370 H 521.062 2.6873 2.58532 0
M  V30 5371 N 523.247 -0.488276 1.49845 0
M  V30 5372 C 524.495 -1.23911 1.59657 0
M  V30 5373 C 524.816 -1.92816 0.291005 0
M  V30 5374 O 524.086 -1.83328 -0.690485 0
M  V30 5375 H 522.666 -0.460357 0.588286 0
M  V30 5376 H 525.328 -0.564794 1.86537 0
M  V30 5377 H 524.424 -1.99625 2.39909 0
M  V30 5378 N 524.725 -1.39134 -0.740242 0
M  V30 5379 C 525.673 -1.3757 -1.87556 0
M  V30 5380 C 526.667 -0.259593 -1.67399 0
M  V30 5381 O 527.873 -0.429349 -1.74804 0
M  V30 5382 H 524.248 -0.42947 -0.6173 0
M  V30 5383 H 526.219 -2.33345 -1.85991 0
M  V30 5384 C 524.968 -1.23087 -3.25184 0
M  V30 5385 H 524.291 -2.08237 -3.41288 0
M  V30 5386 H 525.731 -1.26049 -4.0483 0
M  V30 5387 C 524.19 0.0611471 -3.36845 0
M  V30 5388 O 524.72 1.03328 -3.88183 0
M  V30 5389 N 522.926 0.122454 -2.90342 0
M  V30 5390 H 522.473 -0.669329 -2.48752 0
M  V30 5391 H 522.431 0.986463 -2.98523 0
M  V30 5392 N 526.204 0.969867 -1.24223 0
M  V30 5393 C 527.615 1.52717 -1.07399 0
M  V30 5394 C 527.966 1.92956 0.355298 0
M  V30 5395 O 527.091 1.77112 1.2434 0
M  V30 5396 C 527.686 2.77521 -1.94339 0
M  V30 5397 C 526.245 3.29615 -1.81744 0
M  V30 5398 C 525.392 2.02537 -1.89405 0
M  V30 5399 H 528.343 0.788399 -1.37732 0
M  V30 5400 H 528.364 3.50773 -1.47439 0
M  V30 5401 H 527.876 2.48203 -2.98357 0
M  V30 5402 H 525.977 3.63789 -0.805505 0
M  V30 5403 H 526.09 3.98661 -2.65718 0
M  V30 5404 H 524.454 2.17151 -1.33108 0
M  V30 5405 H 525.237 1.75587 -2.94999 0
M  V30 5406 N 527.682 1.05563 1.17022 0
M  V30 5407 C 528.959 0.68165 1.83338 0
M  V30 5408 C 529.339 -0.837665 1.93769 0
M  V30 5409 O 528.687 -1.74507 1.47511 0
M  V30 5410 C 528.897 1.375 3.20772 0
M  V30 5411 C 530.245 1.51545 3.96635 0
M  V30 5412 O 531.269 1.33431 3.30264 0
M  V30 5413 O 530.128 1.812 5.15586 0
M  V30 5414 H 527.222 0.240412 0.791285 0
M  V30 5415 H 529.768 1.15545 1.24288 0
M  V30 5416 H 528.54 2.41135 3.08171 0
M  V30 5417 H 528.163 0.890798 3.87493 0
M  V30 5418 N 529.16 -1.33526 0.837174 0
M  V30 5419 C 530.571 -1.80182 0.489017 0
M  V30 5420 C 530.922 -1.69285 -0.991826 0
M  V30 5421 O 530.047 -1.24113 -1.77271 0
M  V30 5422 C 530.642 -3.27149 0.880866 0
M  V30 5423 C 529.201 -3.71828 0.584872 0
M  V30 5424 C 528.348 -2.54974 1.09011 0
M  V30 5425 H 531.299 -1.21071 1.02603 0
M  V30 5426 H 531.32 -3.80024 0.190239 0
M  V30 5427 H 530.832 -3.35048 1.95869 0
M  V30 5428 H 528.933 -3.69457 -0.48295 0
M  V30 5429 H 529.046 -4.65366 1.13892 0
M  V30 5430 H 527.41 -2.4952 0.511047 0
M  V30 5431 H 528.193 -2.65637 2.17467 0
M  V30 5432 N 530.638 -0.59345 -1.46 0
M  V30 5433 C 531.884 -0.0832754 -2.02629 0
M  V30 5434 C 532.217 1.27749 -1.46266 0
M  V30 5435 O 531.492 1.8395 -0.631866 0
M  V30 5436 C 531.775 -0.0290756 -3.60088 0
M  V30 5437 C 531.628 -1.41951 -4.26814 0
M  V30 5438 C 532.947 0.666055 -4.35031 0
M  V30 5439 H 530.066 -0.031736 -0.736316 0
M  V30 5440 H 532.708 -0.762711 -1.74019 0
M  V30 5441 H 530.858 0.549532 -3.84594 0
M  V30 5442 H 532.53 -2.04411 -4.13538 0
M  V30 5443 H 530.773 -1.98422 -3.8576 0
M  V30 5444 H 531.444 -1.33395 -5.3564 0
M  V30 5445 H 533.92 0.174401 -4.15734 0
M  V30 5446 H 532.796 0.673041 -5.44758 0
M  V30 5447 H 533.057 1.72946 -4.06869 0
M  V30 5448 N 532.116 1.54067 -0.331816 0
M  V30 5449 C 533.341 2.05599 0.272705 0
M  V30 5450 C 533.766 1.2059 1.44359 0
M  V30 5451 O 533.124 0.216907 1.79998 0
M  V30 5452 C 533.172 3.54188 0.677021 0
M  V30 5453 O 532.276 3.72082 1.77844 0
M  V30 5454 H 531.617 0.662286 0.0476801 0
M  V30 5455 H 534.147 1.98826 -0.482624 0
M  V30 5456 H 534.157 3.96608 0.957415 0
M  V30 5457 H 532.832 4.15513 -0.179325 0
M  V30 5458 H 531.409 3.41566 1.49622 0
M  V30 5459 N 533.594 0.0601682 1.57485 0
M  V30 5460 C 534.824 -0.620037 1.97076 0
M  V30 5461 C 535.232 -1.64381 0.936784 0
M  V30 5462 O 534.575 -1.83497 -0.0863377 0
M  V30 5463 C 534.637 -1.35617 3.32939 0
M  V30 5464 C 534.301 -0.487208 4.54396 0
M  V30 5465 C 535.298 0.250428 5.19297 0
M  V30 5466 C 532.983 -0.415494 5.00579 0
M  V30 5467 C 534.977 1.04812 6.28723 0
M  V30 5468 C 532.664 0.385879 6.0988 0
M  V30 5469 C 533.662 1.11637 6.73815 0
M  V30 5470 O 533.35 1.90454 7.81014 0
M  V30 5471 H 533.082 -0.173664 0.653312 0
M  V30 5472 H 535.636 0.1256 2.05016 0
M  V30 5473 H 533.866 -2.14763 3.2158 0
M  V30 5474 H 535.555 -1.92749 3.57215 0
M  V30 5475 H 536.321 0.204546 4.84568 0
M  V30 5476 H 532.2 -0.973679 4.506 0
M  V30 5477 H 535.744 1.6188 6.78558 0
M  V30 5478 H 531.641 0.433366 6.44044 0
M  V30 5479 H 532.409 1.82762 7.97835 0
M  V30 5480 N 535.072 -1.5615 -0.213296 0
M  V30 5481 C 536.302 -1.83372 -0.951757 0
M  V30 5482 C 536.71 -0.638158 -1.78113 0
M  V30 5483 O 536.053 0.402609 -1.79234 0
M  V30 5484 C 536.115 -3.04444 -1.91192 0
M  V30 5485 C 535.779 -4.39107 -1.26627 0
M  V30 5486 C 536.776 -5.15794 -0.652087 0
M  V30 5487 C 534.461 -4.85834 -1.27556 0
M  V30 5488 C 536.455 -6.37376 -0.055814 0
M  V30 5489 C 534.142 -6.07356 -0.675451 0
M  V30 5490 C 535.14 -6.82967 -0.0666367 0
M  V30 5491 O 534.828 -8.0219 0.524119 0
M  V30 5492 H 534.56 -0.613398 -0.284111 0
M  V30 5493 H 537.114 -2.04096 -0.231112 0
M  V30 5494 H 535.344 -2.79559 -2.67178 0
M  V30 5495 H 537.033 -3.18466 -2.51662 0
M  V30 5496 H 537.799 -4.80796 -0.637172 0
M  V30 5497 H 533.678 -4.26949 -1.73883 0
M  V30 5498 H 537.222 -6.96334 0.420004 0
M  V30 5499 H 533.119 -6.41825 -0.687806 0
M  V30 5500 H 533.887 -8.17426 0.419243 0
M  V30 5501 N 536.55 0.480323 -1.50102 0
M  V30 5502 C 537.796 1.23489 -1.60867 0
M  V30 5503 C 538.129 1.91809 -0.303827 0
M  V30 5504 O 537.404 1.81694 0.694092 0
M  V30 5505 C 537.687 2.28578 -2.78252 0
M  V30 5506 C 537.54 1.64624 -4.18592 0
M  V30 5507 C 538.859 3.2997 -2.91218 0
M  V30 5508 H 535.978 0.447605 -0.585507 0
M  V30 5509 H 538.62 0.530005 -1.82458 0
M  V30 5510 H 536.77 2.88697 -2.59974 0
M  V30 5511 H 538.442 1.08173 -4.48438 0
M  V30 5512 H 536.685 0.949645 -4.23278 0
M  V30 5513 H 537.356 2.40946 -4.96638 0
M  V30 5514 H 539.832 2.79864 -3.07921 0
M  V30 5515 H 538.708 4.00839 -3.74993 0
M  V30 5516 H 538.969 3.93541 -2.0144 0
M  V30 5517 N 538.028 1.39524 0.732853 0
M  V30 5518 C 539.277 1.36175 1.48792 0
M  V30 5519 C 539.59 -0.0388195 1.95561 0
M  V30 5520 O 540.796 -0.194899 2.708 0
M  V30 5521 C 539.252 2.39242 2.68871 0
M  V30 5522 C 538.86 3.85024 2.29042 0
M  V30 5523 C 540.604 2.44972 3.46683 0
M  V30 5524 C 538.511 4.79727 3.45856 0
M  V30 5525 H 537.441 0.506267 0.558757 0
M  V30 5526 H 540.092 1.65181 0.799226 0
M  V30 5527 H 538.474 2.0331 3.39825 0
M  V30 5528 H 539.648 4.30008 1.6562 0
M  V30 5529 H 537.963 3.82609 1.64316 0
M  V30 5530 H 540.56 3.12918 4.33574 0
M  V30 5531 H 540.903 1.4749 3.89297 0
M  V30 5532 H 541.436 2.79808 2.82759 0
M  V30 5533 H 538.175 5.78479 3.08289 0
M  V30 5534 H 537.695 4.39421 4.08251 0
M  V30 5535 H 539.374 4.98731 4.12161 0
M  V30 5536 N 539.506 -0.963266 1.24736 0
M  V30 5537 C 540.416 -2.09246 1.06082 0
M  V30 5538 C 541.432 -1.74 0.000363101 0
M  V30 5539 O 542.608 -2.0041 0.199479 0
M  V30 5540 C 539.673 -3.40115 0.672498 0
M  V30 5541 C 538.734 -3.89282 1.80993 0
M  V30 5542 C 537.967 -5.13905 1.44004 0
M  V30 5543 O 538.19 -5.69434 0.331835 0
M  V30 5544 O 537.124 -5.57566 2.26723 0
M  V30 5545 H 540.95 -2.27881 2.00759 0
M  V30 5546 H 538.535 -1.07649 1.03595 0
M  V30 5547 H 540.417 -4.18797 0.467668 0
M  V30 5548 H 539.092 -3.22771 -0.245102 0
M  V30 5549 H 537.999 -3.11642 2.06955 0
M  V30 5550 H 539.332 -4.1111 2.70646 0
M  V30 5551 N 540.985 -1.06182 -1.16461 0
M  V30 5552 C 542.215 -0.797425 -1.9059 0
M  V30 5553 C 542.623 0.651845 -1.77616 0
M  V30 5554 O 541.966 1.45788 -1.11766 0
M  V30 5555 C 542.028 -1.11128 -3.41893 0
M  V30 5556 C 541.692 -2.55874 -3.78652 0
M  V30 5557 C 542.689 -3.54104 -3.80665 0
M  V30 5558 C 540.374 -2.91144 -4.09317 0
M  V30 5559 C 542.368 -4.85645 -4.12829 0
M  V30 5560 C 540.055 -4.22885 -4.41148 0
M  V30 5561 C 541.053 -5.19945 -4.42883 0
M  V30 5562 O 540.741 -6.49322 -4.73959 0
M  V30 5563 H 540.473 -0.288709 -0.611247 0
M  V30 5564 H 543.027 -1.41841 -1.4856 0
M  V30 5565 H 541.257 -0.433217 -3.84266 0
M  V30 5566 H 542.946 -0.831306 -3.97296 0
M  V30 5567 H 543.712 -3.28197 -3.57088 0
M  V30 5568 H 539.591 -2.16252 -4.07131 0
M  V30 5569 H 543.135 -5.61398 -4.14099 0
M  V30 5570 H 539.032 -4.48551 -4.6419 0
M  V30 5571 H 539.8 -6.54294 -4.91774 0
M  V30 5572 N 542.463 1.3308 -0.844243 0
M  V30 5573 C 543.41 2.29104 -0.279323 0
M  V30 5574 C 544.38 1.54577 0.607882 0
M  V30 5575 O 545.565 1.8285 0.545009 0
M  V30 5576 C 542.705 3.40927 0.53508 0
M  V30 5577 C 541.818 4.30354 -0.376749 0
M  V30 5578 C 540.953 5.29297 0.449276 0
M  V30 5579 C 539.992 6.10365 -0.460606 0
M  V30 5580 N 539.129 7.01335 0.327612 0
M  V30 5581 H 543.969 2.76817 -1.10346 0
M  V30 5582 H 541.506 1.36203 -0.555611 0
M  V30 5583 H 543.464 4.04469 1.02278 0
M  V30 5584 H 542.094 2.94391 1.32414 0
M  V30 5585 H 541.146 3.67485 -0.982791 0
M  V30 5586 H 542.458 4.87067 -1.07549 0
M  V30 5587 H 541.612 5.98392 1.00058 0
M  V30 5588 H 540.351 4.73174 1.18143 0
M  V30 5589 H 539.356 5.40182 -1.02388 0
M  V30 5590 H 540.581 6.68571 -1.1912 0
M  V30 5591 H 538.527 6.47655 1.04305 0
M  V30 5592 H 538.444 7.55355 -0.3123 0
M  V30 5593 H 539.712 7.74731 0.86098 0
M  V30 5594 N 543.941 0.601185 1.45683 0
M  V30 5595 C 545.166 0.0982245 2.07167 0
M  V30 5596 C 545.591 -1.20546 1.44396 0
M  V30 5597 O 544.949 -1.73247 0.534347 0
M  V30 5598 C 544.997 -0.0346976 3.60583 0
M  V30 5599 O 544.101 -1.08657 3.97828 0
M  V30 5600 H 543.442 0.0711618 0.660176 0
M  V30 5601 H 545.972 0.829376 1.87036 0
M  V30 5602 H 545.982 -0.234969 4.07323 0
M  V30 5603 H 544.657 0.917265 4.05659 0
M  V30 5604 H 543.234 -0.863275 3.6277 0
M  V30 5605 N 545.419 -1.53889 0.339982 0
M  V30 5606 C 546.366 -2.24902 -0.518452 0
M  V30 5607 C 547.336 -1.24593 -1.09844 0
M  V30 5608 O 548.521 -1.53317 -1.13572 0
M  V30 5609 C 545.661 -3.02262 -1.66529 0
M  V30 5610 C 544.774 -4.17418 -1.11295 0
M  V30 5611 C 543.909 -4.82273 -2.2268 0
M  V30 5612 C 542.948 -5.89503 -1.6478 0
M  V30 5613 N 542.085 -6.48153 -2.69893 0
M  V30 5614 H 546.925 -2.97853 0.0936579 0
M  V30 5615 H 544.462 -1.46986 0.0579924 0
M  V30 5616 H 546.42 -3.45371 -2.3404 0
M  V30 5617 H 545.05 -2.31614 -2.24844 0
M  V30 5618 H 544.102 -3.78976 -0.328886 0
M  V30 5619 H 545.414 -4.94554 -0.649414 0
M  V30 5620 H 544.568 -5.28435 -2.98063 0
M  V30 5621 H 543.307 -4.04552 -2.72376 0
M  V30 5622 H 542.312 -5.42728 -0.879004 0
M  V30 5623 H 543.537 -6.6913 -1.1594 0
M  V30 5624 H 541.483 -5.73298 -3.1885 0
M  V30 5625 H 541.4 -7.20752 -2.28151 0
M  V30 5626 H 542.668 -6.98968 -3.45056 0
M  V30 5627 N 546.897 -0.0685191 -1.57451 0
M  V30 5628 C 548.122 0.613919 -1.98106 0
M  V30 5629 C 548.547 1.62551 -0.946501 0
M  V30 5630 O 547.905 1.81085 0.0882824 0
M  V30 5631 C 547.953 1.26189 -3.378 0
M  V30 5632 O 547.057 2.37773 -3.36954 0
M  V30 5633 H 546.398 0.158163 -0.644888 0
M  V30 5634 H 548.928 -0.142063 -2.04106 0
M  V30 5635 H 548.938 1.60951 -3.74912 0
M  V30 5636 H 547.613 0.520625 -4.12629 0
M  V30 5637 H 546.19 2.04829 -3.11608 0
M  V30 5638 N 548.375 1.56261 0.205012 0
M  V30 5639 C 549.307 1.90266 1.27795 0
M  V30 5640 C 550.32 0.792397 1.42214 0
M  V30 5641 O 551.509 1.07077 1.42817 0
M  V30 5642 C 548.609 2.11074 2.65143 0
M  V30 5643 C 547.782 3.42176 2.7246 0
M  V30 5644 C 546.841 3.52216 3.90936 0
M  V30 5645 O 545.867 4.25119 3.78501 0
M  V30 5646 N 547.069 2.84573 5.05963 0
M  V30 5647 H 549.834 2.82896 0.989434 0
M  V30 5648 H 547.395 1.57008 0.394981 0
M  V30 5649 H 549.387 2.15089 3.4281 0
M  V30 5650 H 547.957 1.2499 2.86524 0
M  V30 5651 H 547.177 3.50116 1.81142 0
M  V30 5652 H 548.465 4.28509 2.74331 0
M  V30 5653 H 547.863 2.25152 5.18963 0
M  V30 5654 H 546.42 2.94228 5.81613 0
M  V30 5655 N 549.853 -0.472356 1.50355 0
M  V30 5656 C 551.13 -1.23356 1.51798 0
M  V30 5657 C 551.51 -2.09469 0.26193 0
M  V30 5658 O 550.858 -2.15677 -0.754691 0
M  V30 5659 C 551.068 -2.06568 2.81302 0
M  V30 5660 C 552.416 -2.648 3.31913 0
M  V30 5661 O 553.44 -2.16812 2.82614 0
M  V30 5662 O 552.299 -3.52231 4.17846 0
M  V30 5663 H 549.393 -0.559707 0.608816 0
M  V30 5664 H 551.939 -0.48428 1.62643 0
M  V30 5665 H 550.711 -1.43103 3.64194 0
M  V30 5666 H 550.334 -2.88633 2.73454 0
M  V30 5667 N 551.331 -1.39911 -0.725443 0
M  V30 5668 C 552.579 -1.37382 -1.48224 0
M  V30 5669 C 552.9 0.0264107 -1.94982 0
M  V30 5670 O 552.17 0.979408 -1.6966 0
M  V30 5671 H 550.75 -0.505596 -0.549892 0
M  V30 5672 H 553.412 -1.7487 -0.860608 0
M  V30 5673 H 552.508 -2.04254 -2.3598 0
M  V30 5674 N 552.809 0.956637 -1.25245 0
M  V30 5675 C 554.22 1.51569 -1.09012 0
M  V30 5676 C 554.571 1.93322 0.334813 0
M  V30 5677 O 553.696 1.78421 1.22454 0
M  V30 5678 C 554.291 2.75444 -1.97271 0
M  V30 5679 C 552.85 3.27669 -1.8523 0
M  V30 5680 C 551.997 2.00517 -1.91542 0
M  V30 5681 H 554.948 0.773746 -1.3856 0
M  V30 5682 H 554.969 3.4919 -1.51151 0
M  V30 5683 H 554.481 2.45024 -3.00973 0
M  V30 5684 H 552.582 3.62914 -0.844045 0
M  V30 5685 H 552.695 3.9582 -2.69932 0
M  V30 5686 H 551.059 2.15727 -1.35404 0
M  V30 5687 H 551.842 1.72448 -2.96844 0
M  V30 5688 N 554.287 1.06798 1.15896 0
M  V30 5689 C 555.517 0.807522 1.90165 0
M  V30 5690 C 555.925 -0.642417 1.7796 0
M  V30 5691 O 555.268 -1.45193 1.12537 0
M  V30 5692 C 555.33 1.12939 3.41299 0
M  V30 5693 C 554.994 2.57879 3.7729 0
M  V30 5694 C 555.991 3.56118 3.78782 0
M  V30 5695 C 553.676 2.93311 4.07767 0
M  V30 5696 C 555.67 4.87827 4.10248 0
M  V30 5697 C 553.357 4.25219 4.38899 0
M  V30 5698 C 554.355 5.22287 4.4012 0
M  V30 5699 O 554.043 6.51826 4.70508 0
M  V30 5700 H 553.775 0.291946 0.609708 0
M  V30 5701 H 556.329 1.42627 1.47806 0
M  V30 5702 H 554.559 0.45359 3.84031 0
M  V30 5703 H 556.248 0.852363 3.9685 0
M  V30 5704 H 557.014 3.30086 3.55342 0
M  V30 5705 H 552.893 2.18409 4.05979 0
M  V30 5706 H 556.437 5.63586 4.11116 0
M  V30 5707 H 552.334 4.51006 4.61805 0
M  V30 5708 H 553.102 6.56893 4.88298 0
M  V30 5709 N 555.766 -1.3263 0.851289 0
M  V30 5710 C 556.698 -2.27824 0.250757 0
M  V30 5711 C 557.711 -1.52285 -0.575598 0
M  V30 5712 O 558.9 -1.73946 -0.400638 0
M  V30 5713 C 556 -3.3232 -0.664571 0
M  V30 5714 C 555.173 -4.37221 0.125187 0
M  V30 5715 C 554.232 -5.21314 -0.715385 0
M  V30 5716 O 553.258 -5.69002 -0.150111 0
M  V30 5717 N 554.46 -5.43823 -2.03069 0
M  V30 5718 H 557.225 -2.79997 1.06873 0
M  V30 5719 H 554.786 -1.45455 0.710943 0
M  V30 5720 H 556.778 -3.85486 -1.23216 0
M  V30 5721 H 555.348 -2.80331 -1.38323 0
M  V30 5722 H 554.568 -3.84384 0.874199 0
M  V30 5723 H 555.856 -5.04399 0.667774 0
M  V30 5724 H 555.254 -5.06803 -2.51332 0
M  V30 5725 H 553.811 -5.99998 -2.54648 0
M  V30 5726 N 557.244 -0.608902 -1.45362 0
M  V30 5727 C 558.493 -0.10218 -2.01441 0
M  V30 5728 C 558.806 1.27546 -1.48295 0
M  V30 5729 O 560.012 1.87498 -1.96359 0
M  V30 5730 C 558.468 -0.131985 -3.59658 0
M  V30 5731 C 558.076 -1.50956 -4.21801 0
M  V30 5732 C 559.82 0.319427 -4.23296 0
M  V30 5733 C 557.727 -1.49568 -5.72174 0
M  V30 5734 H 556.657 -0.0344314 -0.753213 0
M  V30 5735 H 559.308 -0.764426 -1.6682 0
M  V30 5736 H 557.69 0.596939 -3.91475 0
M  V30 5737 H 558.864 -2.26029 -4.01556 0
M  V30 5738 H 557.179 -1.90318 -3.70362 0
M  V30 5739 H 559.776 0.349013 -5.3356 0
M  V30 5740 H 560.119 1.34237 -3.94064 0
M  V30 5741 H 560.652 -0.356273 -3.96201 0
M  V30 5742 H 557.391 -2.49626 -6.06108 0
M  V30 5743 H 556.911 -0.787542 -5.94607 0
M  V30 5744 H 558.59 -1.21989 -6.35396 0
M  V30 5745 N 558.722 1.53707 -0.348139 0
M  V30 5746 C 559.669 2.25173 0.506518 0
M  V30 5747 C 560.639 1.25174 1.09182 0
M  V30 5748 O 561.824 1.53917 1.12757 0
M  V30 5749 C 558.964 3.03141 1.64923 0
M  V30 5750 C 558.077 4.18002 1.0908 0
M  V30 5751 C 557.212 4.83447 2.20119 0
M  V30 5752 C 556.251 5.90369 1.61651 0
M  V30 5753 N 555.388 6.49575 2.66451 0
M  V30 5754 H 560.228 2.97799 -0.109452 0
M  V30 5755 H 557.765 1.46953 -0.0657866 0
M  V30 5756 H 559.723 3.46607 2.32205 0
M  V30 5757 H 558.353 2.32803 2.23612 0
M  V30 5758 H 557.405 3.79145 0.308783 0
M  V30 5759 H 558.717 4.94892 0.623178 0
M  V30 5760 H 557.871 5.30008 2.95257 0
M  V30 5761 H 556.61 4.05991 2.70227 0
M  V30 5762 H 555.615 5.43186 0.850209 0
M  V30 5763 H 556.84 6.69735 1.1239 0
M  V30 5764 H 554.786 5.74981 3.15805 0
M  V30 5765 H 554.703 7.21952 2.24325 0
M  V30 5766 H 555.971 7.00789 3.41344 0
M  V30 5767 N 560.2 0.0768682 1.57412 0
M  V30 5768 C 561.11 -0.903207 2.16516 0
M  V30 5769 C 562.126 -1.32341 1.12968 0
M  V30 5770 O 563.302 -1.39507 1.45258 0
M  V30 5771 C 560.367 -2.1508 2.71922 0
M  V30 5772 C 559.428 -1.78653 3.90361 0
M  V30 5773 C 558.661 -2.97465 4.43114 0
M  V30 5774 O 558.884 -4.11638 3.94854 0
M  V30 5775 O 557.818 -2.76987 5.3438 0
M  V30 5776 H 561.644 -0.430427 3.00634 0
M  V30 5777 H 559.229 -0.146485 1.4868 0
M  V30 5778 H 561.111 -2.8823 3.07411 0
M  V30 5779 H 559.786 -2.61446 1.9086 0
M  V30 5780 H 558.693 -1.0274 3.59716 0
M  V30 5781 H 560.026 -1.37066 4.7273 0
M  V30 5782 N 561.678 -1.56367 -0.196722 0
M  V30 5783 C 562.955 -1.71359 -0.943159 0
M  V30 5784 C 563.335 -0.631192 -2.01443 0
M  V30 5785 O 562.683 0.358071 -2.25677 0
M  V30 5786 C 562.893 -3.13623 -1.53106 0
M  V30 5787 C 564.241 -3.73806 -2.01381 0
M  V30 5788 O 565.265 -3.16742 -1.62951 0
M  V30 5789 O 564.124 -4.73951 -2.7209 0
M  V30 5790 H 561.218 -0.698851 -0.442195 0
M  V30 5791 H 563.764 -1.68672 -0.186547 0
M  V30 5792 H 562.536 -3.83873 -0.758785 0
M  V30 5793 H 562.159 -3.20532 -2.35255 0
M  V30 5794 N 563.156 0.464375 -1.50603 0
M  V30 5795 C 564.405 1.21277 -1.61167 0
M  V30 5796 C 564.718 1.92953 -0.320704 0
M  V30 5797 O 565.924 2.69778 -0.30534 0
M  V30 5798 C 564.38 2.20403 -2.84518 0
M  V30 5799 C 563.988 1.54499 -4.20516 0
M  V30 5800 C 565.732 2.95843 -3.0443 0
M  V30 5801 C 563.639 2.51951 -5.35047 0
M  V30 5802 H 562.569 0.456367 -0.600204 0
M  V30 5803 H 565.22 0.48254 -1.77042 0
M  V30 5804 H 563.602 2.96746 -2.62217 0
M  V30 5805 H 564.776 0.83899 -4.53098 0
M  V30 5806 H 563.091 0.913152 -4.06264 0
M  V30 5807 H 565.688 3.6879 -3.87167 0
M  V30 5808 H 566.031 3.55622 -2.16423 0
M  V30 5809 H 566.564 2.26611 -3.26944 0
M  V30 5810 H 563.303 1.96901 -6.25228 0
M  V30 5811 H 562.823 3.20683 -5.06875 0
M  V30 5812 H 564.502 3.13643 -5.65895 0
M  V30 5813 N 564.634 1.40294 0.718013 0
M  V30 5814 C 565.862 1.4175 1.50714 0
M  V30 5815 C 566.277 0.0165366 1.88793 0
M  V30 5816 O 565.634 -0.958942 1.55276 0
M  V30 5817 C 565.685 2.30598 2.784 0
M  V30 5818 O 565.406 3.6524 2.41932 0
M  V30 5819 C 566.907 2.4062 3.72313 0
M  V30 5820 H 564.127 0.483565 0.465194 0
M  V30 5821 H 566.671 1.84316 0.885889 0
M  V30 5822 H 564.826 1.91401 3.36815 0
M  V30 5823 H 565.24 4.12402 3.24076 0
M  V30 5824 H 566.714 3.07001 4.58753 0
M  V30 5825 H 567.191 1.4305 4.15251 0
M  V30 5826 H 567.797 2.80359 3.19811 0
M  V30 5827 N 566.112 -0.949982 1.2575 0
M  V30 5828 C 567.34 -1.72972 1.13527 0
M  V30 5829 C 567.755 -1.8623 -0.310453 0
M  V30 5830 O 567.112 -1.36336 -1.2132 0
M  V30 5831 C 567.163 -3.14108 1.78936 0
M  V30 5832 O 566.884 -3.01493 3.17858 0
M  V30 5833 C 568.385 -4.08338 1.72554 0
M  V30 5834 H 565.605 -0.541864 0.395758 0
M  V30 5835 H 568.149 -1.19151 1.66202 0
M  V30 5836 H 566.304 -3.64858 1.30221 0
M  V30 5837 H 566.718 -3.90559 3.50092 0
M  V30 5838 H 568.192 -5.04963 2.22973 0
M  V30 5839 H 568.669 -4.33742 0.690251 0
M  V30 5840 H 569.275 -3.63506 2.2078 0
M  V30 5841 N 567.59 -1.07411 -1.15328 0
M  V30 5842 C 568.818 -0.818782 -1.90009 0
M  V30 5843 C 569.233 0.628072 -1.78047 0
M  V30 5844 O 568.59 1.43085 -1.13282 0
M  V30 5845 C 568.641 -1.21874 -3.40337 0
M  V30 5846 O 568.362 -2.60883 -3.51954 0
M  V30 5847 C 569.863 -0.992796 -4.3204 0
M  V30 5848 H 567.083 -0.296007 -0.60218 0
M  V30 5849 H 569.627 -1.43073 -1.46117 0
M  V30 5850 H 567.782 -0.651103 -3.81889 0
M  V30 5851 H 568.196 -2.77216 -4.45255 0
M  V30 5852 H 569.67 -1.32215 -5.35932 0
M  V30 5853 H 570.147 0.0708331 -4.39143 0
M  V30 5854 H 570.753 -1.54537 -3.9623 0
M  V30 5855 N 569.068 1.32177 -0.85831 0
M  V30 5856 C 570.484 1.49873 -0.548656 0
M  V30 5857 C 570.684 1.79278 0.919874 0
M  V30 5858 O 569.74 1.86451 1.70271 0
M  V30 5859 C 571.053 2.64043 -1.4388 0
M  V30 5860 C 572.601 2.77928 -1.43961 0
M  V30 5861 C 573.076 3.95182 -2.31506 0
M  V30 5862 N 574.567 4.0245 -2.29321 0
M  V30 5863 C 575.302 4.9242 -2.93786 0
M  V30 5864 N 574.798 5.87373 -3.67376 0
M  V30 5865 N 576.591 4.85572 -2.83155 0
M  V30 5866 H 568.742 1.11357 -1.80868 0
M  V30 5867 H 571.005 0.549175 -0.772729 0
M  V30 5868 H 570.711 2.49055 -2.48324 0
M  V30 5869 H 570.585 3.59912 -1.12885 0
M  V30 5870 H 572.972 2.92338 -0.402813 0
M  V30 5871 H 573.053 1.82762 -1.78974 0
M  V30 5872 H 572.697 3.81531 -3.35256 0
M  V30 5873 H 572.627 4.89633 -1.93823 0
M  V30 5874 H 575.118 3.34507 -1.75822 0
M  V30 5875 H 575.431 6.52728 -4.13722 0
M  V30 5876 H 573.776 5.87388 -3.71484 0
M  V30 5877 H 576.967 4.10363 -2.25211 0
M  V30 5878 H 577.14 5.55486 -3.33676 0
M  V30 5879 N 570.547 0.616602 1.45037 0
M  V30 5880 C 571.777 0.121791 2.06241 0
M  V30 5881 C 572.185 -1.20289 1.46038 0
M  V30 5882 O 571.528 -1.7456 0.572242 0
M  V30 5883 C 571.59 -0.0827345 3.59405 0
M  V30 5884 C 571.254 1.16153 4.41993 0
M  V30 5885 C 572.251 2.08183 4.76399 0
M  V30 5886 C 569.936 1.39288 4.82601 0
M  V30 5887 C 571.93 3.21668 5.5028 0
M  V30 5888 C 569.617 2.53073 5.56235 0
M  V30 5889 C 570.615 3.44091 5.89992 0
M  V30 5890 O 570.303 4.55894 6.6213 0
M  V30 5891 H 570.035 0.0701667 0.672349 0
M  V30 5892 H 572.589 0.846877 1.87129 0
M  V30 5893 H 570.819 -0.862812 3.76952 0
M  V30 5894 H 572.508 -0.530273 4.02421 0
M  V30 5895 H 573.274 1.91538 4.45576 0
M  V30 5896 H 569.153 0.693396 4.55755 0
M  V30 5897 H 572.697 3.92733 5.76547 0
M  V30 5898 H 568.594 2.69667 5.86472 0
M  V30 5899 H 569.362 4.5469 6.80587 0
M  V30 5900 N 572.025 -1.5352 0.356285 0
M  V30 5901 C 573.25 -2.06007 -0.239961 0
M  V30 5902 C 573.675 -1.22872 -1.42422 0
M  V30 5903 O 573.033 -0.245516 -1.7963 0
M  V30 5904 C 573.081 -3.5522 -0.620587 0
M  V30 5905 O 572.185 -3.74864 -1.71902 0
M  V30 5906 H 571.526 -0.662961 -0.0371377 0
M  V30 5907 H 574.056 -1.98033 0.514194 0
M  V30 5908 H 574.066 -3.98081 -0.894197 0
M  V30 5909 H 572.741 -4.15175 0.245407 0
M  V30 5910 H 571.318 -3.43904 -1.44169 0
M  V30 5911 N 573.503 -0.0852151 -1.57369 0
M  V30 5912 C 574.752 0.580443 -1.93168 0
M  V30 5913 C 575.065 1.6995 -0.968319 0
M  V30 5914 O 576.271 2.42564 -1.21963 0
M  V30 5915 C 574.727 1.08386 -3.43192 0
M  V30 5916 C 574.335 -0.00491388 -4.48 0
M  V30 5917 C 576.079 1.72281 -3.87968 0
M  V30 5918 C 573.986 0.513299 -5.89168 0
M  V30 5919 H 572.916 0.22059 -0.72101 0
M  V30 5920 H 575.567 -0.159621 -1.82804 0
M  V30 5921 H 573.949 1.8773 -3.48674 0
M  V30 5922 H 575.123 -0.780032 -4.5415 0
M  V30 5923 H 573.438 -0.548453 -4.12772 0
M  V30 5924 H 576.035 2.12108 -4.9083 0
M  V30 5925 H 576.378 2.58811 -3.26071 0
M  V30 5926 H 576.911 0.995359 -3.85146 0
M  V30 5927 H 573.65 -0.315153 -6.54742 0
M  V30 5928 H 573.17 1.25564 -5.8651 0
M  V30 5929 H 574.849 0.985433 -6.39451 0
M  V30 5930 N 574.981 1.5647 0.188427 0
M  V30 5931 C 576.229 1.80655 0.905986 0
M  V30 5932 C 576.55 0.659391 1.83513 0
M  V30 5933 O 575.82 -0.321868 1.93238 0
M  V30 5934 H 574.4 0.666391 0.337538 0
M  V30 5935 H 577.062 1.93949 0.192339 0
M  V30 5936 H 576.158 2.74066 1.49313 0
M  V30 5937 N 576.459 -0.456382 1.50847 0
M  V30 5938 C 577.707 -1.20497 1.62249 0
M  V30 5939 C 578.028 -1.92156 0.331839 0
M  V30 5940 O 577.298 -1.84751 -0.651443 0
M  V30 5941 H 575.878 -0.447775 0.597918 0
M  V30 5942 H 578.54 -0.525099 1.87693 0
M  V30 5943 H 577.636 -1.94492 2.44089 0
M  V30 5944 N 577.937 -1.40673 -0.710563 0
M  V30 5945 C 578.867 -1.44095 -1.83736 0
M  V30 5946 C 579.848 -0.301286 -1.67411 0
M  V30 5947 O 581.033 -0.510618 -1.87367 0
M  V30 5948 C 578.163 -1.30773 -3.21738 0
M  V30 5949 C 577.117 -2.42395 -3.52745 0
M  V30 5950 C 576.443 -2.14147 -4.89944 0
M  V30 5951 C 577.743 -3.84738 -3.53234 0
M  V30 5952 H 579.437 -2.38396 -1.81129 0
M  V30 5953 H 576.983 -1.14746 -0.870017 0
M  V30 5954 H 578.936 -1.31783 -4.00264 0
M  V30 5955 H 577.66 -0.329507 -3.24934 0
M  V30 5956 H 576.319 -2.40643 -2.76562 0
M  V30 5957 H 575.967 -1.14703 -4.89747 0
M  V30 5958 H 575.667 -2.88934 -5.11655 0
M  V30 5959 H 577.191 -2.16848 -5.70797 0
M  V30 5960 H 578.605 -3.88286 -4.2179 0
M  V30 5961 H 577.002 -4.59085 -3.86473 0
M  V30 5962 H 578.072 -4.13962 -2.52514 0
M  V30 5963 N 579.415 0.9433 -1.26252 0
M  V30 5964 C 580.64 1.72898 -1.14547 0
M  V30 5965 C 581.065 1.85761 0.295743 0
M  V30 5966 O 580.423 1.3463 1.21427 0
M  V30 5967 C 580.471 3.11471 -1.8171 0
M  V30 5968 O 579.575 3.97336 -1.10445 0
M  V30 5969 H 578.916 0.530555 -0.399259 0
M  V30 5970 H 581.446 1.18159 -1.67032 0
M  V30 5971 H 581.456 3.61872 -1.88449 0
M  V30 5972 H 580.131 3.01425 -2.86558 0
M  V30 5973 H 578.708 3.55788 -1.11666 0
M  V30 5974 N 580.893 1.08022 1.14757 0
M  V30 5975 C 582.304 0.829144 1.67279 0
M  V30 5976 C 582.655 -0.644721 1.85305 0
M  V30 5977 O 581.78 -1.49838 1.56133 0
M  V30 5978 C 582.375 1.49855 3.03857 0
M  V30 5979 C 580.934 1.29482 3.53428 0
M  V30 5980 C 580.081 1.56386 2.28995 0
M  V30 5981 H 583.032 1.24134 0.988762 0
M  V30 5982 H 583.053 0.923572 3.69121 0
M  V30 5983 H 582.565 2.57123 2.90705 0
M  V30 5984 H 580.666 0.242669 3.71809 0
M  V30 5985 H 580.779 2.01974 4.34446 0
M  V30 5986 H 579.143 0.985217 2.34874 0
M  V30 5987 H 579.926 2.64851 2.18423 0
M  V30 5988 N 582.371 -1.3172 0.865308 0
M  V30 5989 C 583.319 -2.30569 0.306674 0
M  V30 5990 C 584.313 -1.59317 -0.575724 0
M  V30 5991 O 585.519 -1.73961 -0.462343 0
M  V30 5992 H 581.894 -0.747681 0.0804834 0
M  V30 5993 H 583.865 -2.75165 1.15441 0
M  V30 5994 C 582.614 -3.44358 -0.480952 0
M  V30 5995 H 581.937 -3.99354 0.18876 0
M  V30 5996 H 583.377 -4.15652 -0.837241 0
M  V30 5997 C 581.836 -2.92574 -1.67039 0
M  V30 5998 O 582.366 -2.90954 -2.76964 0
M  V30 5999 N 580.572 -2.48835 -1.50097 0
M  V30 6000 H 580.119 -2.50353 -0.606738 0
M  V30 6001 H 580.077 -2.14543 -2.29823 0
M  V30 6002 N 583.85 -0.624285 -1.44708 0
M  V30 6003 C 585.075 -0.131171 -2.06985 0
M  V30 6004 C 585.5 1.18234 -1.46295 0
M  V30 6005 O 584.858 1.72375 -0.561842 0
M  V30 6006 C 584.906 -0.0226724 -3.60593 0
M  V30 6007 O 584.01 1.02314 -3.99507 0
M  V30 6008 H 583.351 -0.0816556 -0.65896 0
M  V30 6009 H 585.88 -0.859027 -1.85693 0
M  V30 6010 H 585.891 0.170138 -4.07645 0
M  V30 6011 H 584.566 -0.981685 -4.04148 0
M  V30 6012 H 583.143 0.805452 -3.64097 0
M  V30 6013 N 585.328 1.53329 -0.364422 0
M  V30 6014 C 586.238 2.29414 0.490552 0
M  V30 6015 C 587.254 1.35335 1.09363 0
M  V30 6016 O 588.43 1.68391 1.10483 0
M  V30 6017 C 585.495 3.06772 1.61529 0
M  V30 6018 C 584.556 4.16516 1.03986 0
M  V30 6019 C 583.789 4.90176 2.111 0
M  V30 6020 O 584.012 4.63687 3.32191 0
M  V30 6021 O 582.946 5.76134 1.74222 0
M  V30 6022 H 586.772 3.03428 -0.12856 0
M  V30 6023 H 584.357 1.48843 -0.128837 0
M  V30 6024 H 586.239 3.55082 2.26924 0
M  V30 6025 H 584.914 2.35596 2.21983 0
M  V30 6026 H 583.821 3.7246 0.349856 0
M  V30 6027 H 585.154 4.89855 0.4799 0
M  V30 6028 N 586.806 0.0935595 1.57322 0
M  V30 6029 C 588.036 -0.578095 1.98347 0
M  V30 6030 C 588.444 -1.62357 0.971441 0
M  V30 6031 O 587.787 -1.83639 -0.0473959 0
M  V30 6032 C 587.849 -1.28525 3.3574 0
M  V30 6033 C 587.513 -0.390714 4.55327 0
M  V30 6034 C 588.51 0.360522 5.18648 0
M  V30 6035 C 586.195 -0.309221 5.01347 0
M  V30 6036 C 588.189 1.18125 6.26359 0
M  V30 6037 C 585.876 0.515157 6.08925 0
M  V30 6038 C 586.874 1.25904 6.71295 0
M  V30 6039 O 586.562 2.06978 7.76798 0
M  V30 6040 H 586.294 -0.159767 0.656849 0
M  V30 6041 H 588.848 0.169058 2.04703 0
M  V30 6042 H 587.078 -2.07894 3.26063 0
M  V30 6043 H 588.767 -1.85128 3.61223 0
M  V30 6044 H 589.533 0.307285 4.84026 0
M  V30 6045 H 585.412 -0.877881 4.52564 0
M  V30 6046 H 588.956 1.76236 6.74971 0
M  V30 6047 H 584.853 0.56988 6.42979 0
M  V30 6048 H 585.621 1.99644 7.93779 0
M  V30 6049 N 588.284 -1.56567 -0.180126 0
M  V30 6050 C 589.194 -1.98947 -1.24327 0
M  V30 6051 C 590.21 -0.899446 -1.4895 0
M  V30 6052 O 591.386 -1.20639 -1.61271 0
M  V30 6053 C 588.451 -2.33328 -2.56435 0
M  V30 6054 C 587.512 -3.56114 -2.39752 0
M  V30 6055 C 586.745 -3.88845 -3.65561 0
M  V30 6056 O 586.968 -3.22662 -4.70368 0
M  V30 6057 O 585.902 -4.82226 -3.60197 0
M  V30 6058 H 589.728 -2.89634 -0.913565 0
M  V30 6059 H 587.313 -1.44319 -0.386306 0
M  V30 6060 H 589.195 -2.5645 -3.34382 0
M  V30 6061 H 587.87 -1.45806 -2.89002 0
M  V30 6062 H 586.777 -3.38221 -1.59866 0
M  V30 6063 H 588.11 -4.4415 -2.12113 0
M  V30 6064 N 589.762 0.448376 -1.51087 0
M  V30 6065 C 591.011 1.19561 -1.62444 0
M  V30 6066 C 591.324 1.92602 -0.341151 0
M  V30 6067 O 592.53 2.69439 -0.333936 0
M  V30 6068 C 590.986 2.17373 -2.8684 0
M  V30 6069 C 590.594 1.5003 -4.22131 0
M  V30 6070 C 592.338 2.92597 -3.0755 0
M  V30 6071 C 590.245 2.46262 -5.37689 0
M  V30 6072 H 589.175 0.449975 -0.605011 0
M  V30 6073 H 591.826 0.463735 -1.77544 0
M  V30 6074 H 590.208 2.93948 -2.65349 0
M  V30 6075 H 591.382 0.790886 -4.53962 0
M  V30 6076 H 589.697 0.870011 -4.0721 0
M  V30 6077 H 592.294 3.64663 -3.91056 0
M  V30 6078 H 592.637 3.53306 -2.20183 0
M  V30 6079 H 593.17 2.23131 -3.29329 0
M  V30 6080 H 589.909 1.90258 -6.27281 0
M  V30 6081 H 589.429 3.15289 -5.10248 0
M  V30 6082 H 591.108 3.07623 -5.6919 0
M  V30 6083 N 591.24 1.41047 0.703093 0
M  V30 6084 C 592.486 1.41209 1.46396 0
M  V30 6085 C 592.841 0.0180188 1.92392 0
M  V30 6086 O 592.134 -0.954739 1.66118 0
M  V30 6087 C 592.328 2.34686 2.6955 0
M  V30 6088 C 592.157 3.83044 2.35601 0
M  V30 6089 C 590.927 4.51777 2.26331 0
M  V30 6090 C 593.125 4.74215 1.9906 0
M  V30 6091 N 591.107 5.85302 1.85188 0
M  V30 6092 C 592.478 5.96631 1.68616 0
M  V30 6093 C 594.533 4.61932 1.85805 0
M  V30 6094 C 593.236 7.08134 1.26249 0
M  V30 6095 C 595.262 5.73389 1.44842 0
M  V30 6096 C 594.624 6.94899 1.15304 0
M  V30 6097 H 590.723 0.571951 0.533288 0
M  V30 6098 H 593.307 1.76859 0.814179 0
M  V30 6099 H 591.478 2.01143 3.32259 0
M  V30 6100 H 593.21 2.25618 3.35974 0
M  V30 6101 H 589.965 4.05618 2.44482 0
M  V30 6102 H 590.389 6.56049 1.67119 0
M  V30 6103 H 595.031 3.68494 2.07298 0
M  V30 6104 H 592.749 8.01445 1.035 0
M  V30 6105 H 596.335 5.65886 1.35146 0
M  V30 6106 H 595.215 7.79679 0.840854 0
M  V30 6107 N 592.718 -0.936591 1.26751 0
M  V30 6108 C 593.964 -1.6858 1.12733 0
M  V30 6109 C 594.297 -1.91414 -0.327745 0
M  V30 6110 O 593.572 -1.49812 -1.24043 0
M  V30 6111 C 593.855 -3.05779 1.90187 0
M  V30 6112 C 593.708 -2.90242 3.43627 0
M  V30 6113 C 595.027 -4.0597 1.69931 0
M  V30 6114 H 592.146 -0.61182 0.410908 0
M  V30 6115 H 594.788 -1.08747 1.55801 0
M  V30 6116 H 592.938 -3.56853 1.53584 0
M  V30 6117 H 594.61 -2.46354 3.9001 0
M  V30 6118 H 592.853 -2.2577 3.70419 0
M  V30 6119 H 593.524 -3.87572 3.93055 0
M  V30 6120 H 596 -3.63874 2.0183 0
M  V30 6121 H 594.876 -4.99974 2.26534 0
M  V30 6122 H 595.137 -4.37369 0.64502 0
M  V30 6123 N 594.196 -1.08629 -1.14182 0
M  V30 6124 C 595.421 -0.83902 -1.89671 0
M  V30 6125 C 595.846 0.603332 -1.78161 0
M  V30 6126 O 595.204 1.42301 -1.12339 0
M  V30 6127 C 595.252 -1.26854 -3.37551 0
M  V30 6128 O 594.356 -0.42188 -4.10236 0
M  V30 6129 H 593.697 -0.304545 -0.590041 0
M  V30 6130 H 596.227 -1.4483 -1.44518 0
M  V30 6131 H 596.237 -1.25038 -3.88368 0
M  V30 6132 H 594.912 -2.31901 -3.45246 0
M  V30 6133 H 593.489 -0.503654 -3.69483 0
M  V30 6134 N 595.674 1.31259 -0.872281 0
M  V30 6135 C 596.637 2.26744 -0.334656 0
M  V30 6136 C 597.637 1.52307 0.515681 0
M  V30 6137 O 598.827 1.71148 0.324656 0
M  V30 6138 C 595.959 3.36841 0.524482 0
M  V30 6139 H 597.152 2.75812 -1.17762 0
M  V30 6140 H 594.705 1.42232 -0.648064 0
M  V30 6141 H 595.44 2.93069 1.38855 0
M  V30 6142 H 595.225 3.92009 -0.0844299 0
M  V30 6143 H 596.715 4.07944 0.892838 0
M  V30 6144 N 597.152 0.631951 1.44375 0
M  V30 6145 C 598.398 0.13697 2.02337 0
M  V30 6146 C 598.731 -1.23826 1.49602 0
M  V30 6147 O 598.006 -1.8221 0.680415 0
M  V30 6148 C 598.289 0.124536 3.59885 0
M  V30 6149 C 598.142 1.53217 4.229 0
M  V30 6150 C 599.461 -0.550481 4.36644 0
M  V30 6151 H 596.58 0.051247 0.735216 0
M  V30 6152 H 599.222 0.808581 1.71936 0
M  V30 6153 H 597.372 -0.44737 3.85916 0
M  V30 6154 H 599.044 2.15303 4.07973 0
M  V30 6155 H 597.287 2.0858 3.80364 0
M  V30 6156 H 597.958 1.4755 5.31914 0
M  V30 6157 H 600.434 -0.0641154 4.16051 0
M  V30 6158 H 599.31 -0.528371 5.46351 0
M  V30 6159 H 599.571 -1.62097 4.11311 0
M  V30 6160 N 598.631 -1.53133 0.372548 0
M  V30 6161 C 599.579 -2.27473 -0.485681 0
M  V30 6162 C 600.573 -1.30719 -1.07745 0
M  V30 6163 O 601.779 -1.48321 -1.01985 0
M  V30 6164 H 598.154 -0.731269 -0.175356 0
M  V30 6165 H 600.125 -2.97955 0.162986 0
M  V30 6166 C 598.874 -3.08191 -1.60978 0
M  V30 6167 H 598.197 -3.82488 -1.16373 0
M  V30 6168 H 599.637 -3.63373 -2.18485 0
M  V30 6169 C 598.096 -2.19461 -2.55614 0
M  V30 6170 O 598.626 -1.81008 -3.58607 0
M  V30 6171 N 596.832 -1.83955 -2.24965 0
M  V30 6172 H 596.379 -2.15423 -1.41247 0
M  V30 6173 H 596.337 -1.24874 -2.88538 0
M  V30 6174 N 600.109 -0.101901 -1.5727 0
M  V30 6175 C 601.334 0.571759 -1.99363 0
M  V30 6176 C 601.759 1.60507 -0.980768 0
M  V30 6177 O 601.117 1.81231 0.0498517 0
M  V30 6178 C 601.165 1.18996 -3.404 0
M  V30 6179 O 600.269 2.30572 -3.41922 0
M  V30 6180 H 599.61 0.144449 -0.648098 0
M  V30 6181 H 602.14 -0.185325 -2.03759 0
M  V30 6182 H 602.15 1.52962 -3.78241 0
M  V30 6183 H 600.825 0.432984 -4.1364 0
M  V30 6184 H 599.402 1.98173 -3.15883 0
M  V30 6185 N 601.587 1.56661 0.17182 0
M  V30 6186 C 602.836 1.81158 0.886831 0
M  V30 6187 C 603.149 0.679072 1.83434 0
M  V30 6188 O 604.355 0.808964 2.59168 0
M  V30 6189 C 602.811 3.20999 1.6275 0
M  V30 6190 C 602.419 4.42117 0.723652 0
M  V30 6191 C 604.163 3.5479 2.33076 0
M  V30 6192 C 602.07 5.7298 1.46452 0
M  V30 6193 H 601 0.675543 0.334899 0
M  V30 6194 H 603.651 1.82967 0.139765 0
M  V30 6195 H 602.033 3.13506 2.4193 0
M  V30 6196 H 603.207 4.60789 -0.0311485 0
M  V30 6197 H 601.522 4.16197 0.130063 0
M  V30 6198 H 604.119 4.49806 2.89099 0
M  V30 6199 H 604.462 2.79646 3.08389 0
M  V30 6200 H 604.995 3.63834 1.6084 0
M  V30 6201 H 601.734 6.51152 0.753729 0
M  V30 6202 H 601.254 5.58285 2.19266 0
M  V30 6203 H 602.933 6.14916 2.01214 0
M  V30 6204 N 603.065 -0.440357 1.51323 0
M  V30 6205 C 604.313 -1.18769 1.63518 0
M  V30 6206 C 604.634 -1.91793 0.352201 0
M  V30 6207 O 603.904 -1.85432 -0.631811 0
M  V30 6208 H 602.484 -0.441408 0.602634 0
M  V30 6209 H 605.146 -0.505162 1.8824 0
M  V30 6210 H 604.242 -1.91892 2.46138 0
M  V30 6211 N 604.543 -1.41418 -0.695603 0
M  V30 6212 C 605.475 -1.39195 -1.82092 0
M  V30 6213 C 606.488 -0.294132 -1.60121 0
M  V30 6214 O 607.677 -0.555854 -1.69625 0
M  V30 6215 C 604.777 -1.14828 -3.18854 0
M  V30 6216 C 603.95 -2.36649 -3.67853 0
M  V30 6217 C 603.009 -2.08139 -4.83285 0
M  V30 6218 O 602.035 -2.81177 -4.94902 0
M  V30 6219 N 603.237 -1.07162 -5.70523 0
M  V30 6220 H 606.002 -2.36185 -1.84491 0
M  V30 6221 H 603.563 -1.3603 -0.877923 0
M  V30 6222 H 605.555 -0.937075 -3.93702 0
M  V30 6223 H 604.125 -0.264358 -3.1148 0
M  V30 6224 H 603.345 -2.73472 -2.83913 0
M  V30 6225 H 604.633 -3.17816 -3.97329 0
M  V30 6226 H 604.031 -0.467124 -5.63768 0
M  V30 6227 H 602.588 -0.920311 -6.4527 0
M  V30 6228 N 606.021 0.929856 -1.27246 0
M  V30 6229 C 607.269 1.674 -1.13233 0
M  V30 6230 C 607.59 1.92311 0.322744 0
M  V30 6231 O 606.86 1.52784 1.22612 0
M  V30 6232 H 605.44 0.620411 -0.416052 0
M  V30 6233 H 608.102 1.11663 -1.59741 0
M  V30 6234 H 607.198 2.64308 -1.65975 0
M  V30 6235 N 607.499 1.09233 1.13605 0
M  V30 6236 C 608.91 0.846839 1.6639 0
M  V30 6237 C 609.261 -0.625031 1.85978 0
M  V30 6238 O 608.386 -1.48173 1.57714 0
M  V30 6239 C 608.981 1.5307 3.0225 0
M  V30 6240 C 607.54 1.33223 3.52035 0
M  V30 6241 C 606.687 1.58806 2.27323 0
M  V30 6242 H 609.638 1.25175 0.975541 0
M  V30 6243 H 609.659 0.96267 3.68121 0
M  V30 6244 H 609.171 2.60192 2.87961 0
M  V30 6245 H 607.272 0.282091 3.71531 0
M  V30 6246 H 607.385 2.0657 4.32279 0
M  V30 6247 H 605.749 1.01007 2.33815 0
M  V30 6248 H 606.532 2.67153 2.15602 0
M  V30 6249 N 608.977 -1.30795 0.87923 0
M  V30 6250 C 610.388 -1.78535 0.546093 0
M  V30 6251 C 610.739 -1.72354 -0.937467 0
M  V30 6252 O 609.864 -1.2969 -1.73233 0
M  V30 6253 C 610.459 -3.24181 0.9845 0
M  V30 6254 C 609.018 -3.69779 0.702871 0
M  V30 6255 C 608.165 -2.51377 1.17068 0
M  V30 6256 H 611.116 -1.17746 1.06403 0
M  V30 6257 H 611.137 -3.79227 0.311045 0
M  V30 6258 H 610.649 -3.28647 2.06429 0
M  V30 6259 H 608.75 -3.70806 -0.365166 0
M  V30 6260 H 608.863 -4.61507 1.28639 0
M  V30 6261 H 607.227 -2.47768 0.590172 0
M  V30 6262 H 608.01 -2.58584 2.25808 0
M  V30 6263 N 610.455 -0.639598 -1.44038 0
M  V30 6264 C 611.68 -0.153117 -2.06834 0
M  V30 6265 C 612.105 1.16676 -1.47541 0
M  V30 6266 O 611.463 1.71769 -0.580093 0
M  V30 6267 C 611.511 -0.0609169 -3.60549 0
M  V30 6268 O 610.615 0.98071 -4.00569 0
M  V30 6269 H 609.956 -0.0886402 -0.658057 0
M  V30 6270 H 612.486 -0.878674 -1.84771 0
M  V30 6271 H 612.496 0.126892 -4.07803 0
M  V30 6272 H 611.171 -1.0245 -4.03084 0
M  V30 6273 H 609.748 0.766789 -3.64931 0
M  V30 6274 N 611.933 1.52934 -0.380664 0
M  V30 6275 C 612.843 2.29921 0.466192 0
M  V30 6276 C 613.859 1.36488 1.07922 0
M  V30 6277 O 615.035 1.69553 1.0869 0
M  V30 6278 C 612.1 3.08468 1.58266 0
M  V30 6279 C 611.161 4.17595 0.995627 0
M  V30 6280 C 610.394 4.92387 2.05889 0
M  V30 6281 O 610.617 4.67184 3.27254 0
M  V30 6282 O 609.551 5.77949 1.68102 0
M  V30 6283 H 613.377 3.03274 -0.160735 0
M  V30 6284 H 610.962 1.48698 -0.144617 0
M  V30 6285 H 612.844 3.57469 2.23145 0
M  V30 6286 H 611.519 2.37937 2.19471 0
M  V30 6287 H 610.426 3.72811 0.310332 0
M  V30 6288 H 611.759 4.90336 0.427918 0
M  V30 6289 N 613.412 0.11024 1.57214 0
M  V30 6290 C 614.637 -0.561179 1.99664 0
M  V30 6291 C 615.062 -1.59985 0.989266 0
M  V30 6292 O 614.42 -1.81255 -0.0402399 0
M  V30 6293 C 614.468 -1.17189 3.41027 0
M  V30 6294 O 613.572 -2.28755 3.4314 0
M  V30 6295 H 612.913 -0.14101 0.648855 0
M  V30 6296 H 615.443 0.196128 2.03658 0
M  V30 6297 H 615.453 -1.50954 3.79047 0
M  V30 6298 H 614.128 -0.411041 4.13864 0
M  V30 6299 H 612.705 -1.96495 3.16929 0
M  V30 6300 N 614.89 -1.56749 -0.16351 0
M  V30 6301 C 616.136 -1.82704 -0.880168 0
M  V30 6302 C 616.469 -0.689311 -1.81555 0
M  V30 6303 O 615.744 0.308224 -1.92042 0
M  V30 6304 C 616.027 -3.19084 -1.66905 0
M  V30 6305 C 615.88 -4.43397 -0.756269 0
M  V30 6306 C 617.199 -3.52493 -2.63509 0
M  V30 6307 H 614.318 -0.664608 -0.318535 0
M  V30 6308 H 616.96 -1.89438 -0.146036 0
M  V30 6309 H 615.11 -3.13475 -2.2949 0
M  V30 6310 H 616.782 -4.61079 -0.14269 0
M  V30 6311 H 615.025 -4.33752 -0.0647944 0
M  V30 6312 H 615.696 -5.3539 -1.34393 0
M  V30 6313 H 618.172 -3.58606 -2.11047 0
M  V30 6314 H 617.048 -4.48979 -3.15767 0
M  V30 6315 H 617.309 -2.77597 -3.44082 0
M  V30 6316 N 616.368 0.432326 -1.51554 0
M  V30 6317 C 617.614 1.18309 -1.64714 0
M  V30 6318 C 617.947 1.90745 -0.364696 0
M  V30 6319 O 617.222 1.8381 0.635936 0
M  V30 6320 C 617.505 2.1961 -2.85383 0
M  V30 6321 C 617.358 1.51223 -4.23617 0
M  V30 6322 C 618.677 3.20538 -3.01569 0
M  V30 6323 H 615.796 0.428751 -0.599451 0
M  V30 6324 H 618.438 0.471689 -1.84052 0
M  V30 6325 H 616.588 2.8028 -2.69027 0
M  V30 6326 H 618.26 0.938516 -4.51652 0
M  V30 6327 H 616.503 0.814501 -4.26085 0
M  V30 6328 H 617.174 2.25024 -5.04052 0
M  V30 6329 H 619.65 2.69926 -3.16669 0
M  V30 6330 H 618.526 3.88706 -3.87555 0
M  V30 6331 H 618.787 3.86933 -2.13859 0
M  V30 6332 N 617.846 1.41785 0.688094 0
M  V30 6333 C 619.074 1.44915 1.47673 0
M  V30 6334 C 619.489 0.0565786 1.88715 0
M  V30 6335 O 618.846 -0.92579 1.57275 0
M  V30 6336 C 618.897 2.36452 2.73446 0
M  V30 6337 O 618.618 3.7029 2.34131 0
M  V30 6338 C 620.119 2.48463 3.67125 0
M  V30 6339 H 617.339 0.493324 0.454832 0
M  V30 6340 H 619.883 1.86153 0.846594 0
M  V30 6341 H 618.038 1.98502 3.3268 0
M  V30 6342 H 618.452 4.19183 3.15255 0
M  V30 6343 H 619.926 3.16662 4.52138 0
M  V30 6344 H 620.403 1.51826 4.12123 0
M  V30 6345 H 621.009 2.8708 3.13792 0
M  V30 6346 N 619.324 -0.923095 1.27737 0
M  V30 6347 C 620.74 -1.19985 1.05241 0
M  V30 6348 C 620.94 -2.00391 -0.21113 0
M  V30 6349 O 619.996 -2.35324 -0.915366 0
M  V30 6350 C 621.309 -1.94352 2.29451 0
M  V30 6351 C 622.857 -2.07273 2.34536 0
M  V30 6352 C 623.332 -2.85046 3.58487 0
M  V30 6353 N 624.823 -2.92612 3.59072 0
M  V30 6354 C 625.558 -3.53266 4.51654 0
M  V30 6355 N 625.054 -4.15274 5.54545 0
M  V30 6356 N 626.847 -3.50714 4.39268 0
M  V30 6357 H 618.998 -0.386042 2.08862 0
M  V30 6358 H 621.261 -0.233407 0.918817 0
M  V30 6359 H 620.967 -1.42692 3.21453 0
M  V30 6360 H 620.841 -2.94947 2.3513 0
M  V30 6361 H 623.228 -2.58117 1.43037 0
M  V30 6362 H 623.309 -1.05884 2.32857 0
M  V30 6363 H 622.953 -2.34884 4.50324 0
M  V30 6364 H 622.883 -3.8673 3.57418 0
M  V30 6365 H 625.374 -2.48547 2.84663 0
M  V30 6366 H 625.687 -4.59507 6.21348 0
M  V30 6367 H 624.032 -4.13806 5.58382 0
M  V30 6368 H 627.223 -3.01475 3.58093 0
M  V30 6369 H 627.396 -3.97693 5.1161 0
M  V30 6370 N 620.802 -1.09834 -1.13024 0
M  V30 6371 C 622.03 -0.858902 -1.8823 0
M  V30 6372 C 622.445 0.590164 -1.79339 0
M  V30 6373 O 621.802 1.4065 -1.16292 0
M  V30 6374 C 621.853 -1.29066 -3.37675 0
M  V30 6375 O 621.574 -2.6829 -3.46341 0
M  V30 6376 C 623.075 -1.08421 -4.29837 0
M  V30 6377 H 620.295 -0.308713 -0.595766 0
M  V30 6378 H 622.839 -1.4614 -1.4305 0
M  V30 6379 H 620.994 -0.731961 -3.80422 0
M  V30 6380 H 621.408 -2.86598 -4.39274 0
M  V30 6381 H 622.882 -1.43553 -5.33007 0
M  V30 6382 H 623.359 -0.0223315 -4.39194 0
M  V30 6383 H 623.965 -1.62907 -3.92863 0
M  V30 6384 N 622.28 1.30327 -0.886154 0
M  V30 6385 C 623.528 1.9571 -0.504195 0
M  V30 6386 C 623.849 1.70294 0.950003 0
M  V30 6387 O 623.119 1.02718 1.66811 0
M  V30 6388 H 621.699 0.72412 -0.183465 0
M  V30 6389 H 624.361 1.58835 -1.12949 0
M  V30 6390 H 623.457 3.04704 -0.675431 0
M  V30 6391 N 623.758 0.647228 1.43697 0
M  V30 6392 C 624.668 -0.0487997 2.34549 0
M  V30 6393 C 625.684 -0.818586 1.53542 0
M  V30 6394 O 626.86 -0.767195 1.86215 0
M  V30 6395 C 623.925 -1.00734 3.31743 0
M  V30 6396 C 622.986 -0.23515 4.28655 0
M  V30 6397 C 622.219 -1.14803 5.21206 0
M  V30 6398 O 622.442 -2.38717 5.18045 0
M  V30 6399 O 621.376 -0.623667 5.9866 0
M  V30 6400 H 625.202 0.698863 2.9555 0
M  V30 6401 H 622.787 0.407412 1.43738 0
M  V30 6402 H 624.669 -1.55837 3.91526 0
M  V30 6403 H 623.344 -1.73534 2.73254 0
M  V30 6404 H 622.251 0.359319 3.7237 0
M  V30 6405 H 623.584 0.453152 4.9011 0
M  V30 6406 N 625.236 -1.5273 0.388769 0
M  V30 6407 C 626.168 -2.24081 -0.481704 0
M  V30 6408 C 627.181 -1.26307 -1.02715 0
M  V30 6409 O 628.37 -1.52386 -0.929565 0
M  V30 6410 C 625.47 -2.94315 -1.68024 0
M  V30 6411 C 624.643 -4.18791 -1.26226 0
M  V30 6412 C 623.702 -4.72028 -2.32542 0
M  V30 6413 O 622.728 -5.35129 -1.93972 0
M  V30 6414 N 623.93 -4.51838 -3.64448 0
M  V30 6415 H 626.695 -2.9942 0.129591 0
M  V30 6416 H 624.256 -1.60465 0.2151 0
M  V30 6417 H 626.248 -3.26831 -2.38671 0
M  V30 6418 H 624.818 -2.22287 -2.19789 0
M  V30 6419 H 624.038 -3.92318 -0.384703 0
M  V30 6420 H 625.326 -4.99668 -0.959647 0
M  V30 6421 H 624.724 -4.01468 -3.98547 0
M  V30 6422 H 623.281 -4.88845 -4.31131 0
M  V30 6423 N 626.714 -0.118576 -1.57153 0
M  V30 6424 C 627.677 0.817464 -2.14127 0
M  V30 6425 C 628.677 1.1949 -1.07604 0
M  V30 6426 O 629.867 1.12048 -1.33382 0
M  V30 6427 C 626.999 2.10541 -2.68115 0
M  V30 6428 H 628.192 0.322339 -2.98163 0
M  V30 6429 H 625.745 0.130655 -1.55753 0
M  V30 6430 H 626.48 2.64485 -1.87665 0
M  V30 6431 H 626.265 1.84425 -3.4602 0
M  V30 6432 H 627.755 2.77453 -3.12105 0
M  V30 6433 N 628.193 1.56834 0.155195 0
M  V30 6434 C 629.604 1.72421 0.716082 0
M  V30 6435 C 629.955 0.731685 1.82046 0
M  V30 6436 O 629.08 -0.103481 2.16152 0
M  V30 6437 C 629.675 3.12629 1.30571 0
M  V30 6438 C 628.234 3.29846 1.81325 0
M  V30 6439 C 627.381 2.68359 0.698494 0
M  V30 6440 H 630.332 1.58544 -0.0703861 0
M  V30 6441 H 630.353 3.12174 2.1755 0
M  V30 6442 H 629.865 3.84844 0.501701 0
M  V30 6443 H 627.966 2.62614 2.64319 0
M  V30 6444 H 628.079 4.37727 1.9476 0
M  V30 6445 H 626.443 2.28604 1.12305 0
M  V30 6446 H 627.226 3.43171 -0.0939366 0
M  V30 6447 N 629.671 -0.424282 1.51781 0
M  V30 6448 C 630.634 -1.49848 1.73431 0
M  V30 6449 C 631.634 -1.49016 0.604225 0
M  V30 6450 O 632.824 -1.50808 0.871935 0
M  V30 6451 C 629.956 -2.89332 1.80277 0
M  V30 6452 H 631.149 -1.3195 2.69312 0
M  V30 6453 H 628.702 -0.653809 1.41968 0
M  V30 6454 H 629.437 -3.12618 0.862568 0
M  V30 6455 H 629.222 -2.9134 2.62419 0
M  V30 6456 H 630.712 -3.67233 1.98821 0
M  V30 6457 N 631.149 -1.42148 -0.680565 0
M  V30 6458 C 632.374 -1.45901 -1.47403 0
M  V30 6459 C 632.799 -0.0700985 -1.87969 0
M  V30 6460 O 632.157 0.930145 -1.55621 0
M  V30 6461 C 632.205 -2.38661 -2.70321 0
M  V30 6462 O 631.309 -1.85399 -3.68376 0
M  V30 6463 H 630.65 -0.494565 -0.443059 0
M  V30 6464 H 633.18 -1.86774 -0.835251 0
M  V30 6465 H 633.19 -2.55046 -3.18458 0
M  V30 6466 H 631.865 -3.39571 -2.40134 0
M  V30 6467 H 630.442 -1.78541 -3.2738 0
M  V30 6468 N 632.627 0.916307 -1.28225 0
M  V30 6469 C 633.59 1.99996 -1.11957 0
M  V30 6470 C 634.59 1.60688 -0.0600152 0
M  V30 6471 O 635.78 1.71499 -0.30558 0
M  V30 6472 C 632.912 3.33458 -0.708411 0
M  V30 6473 H 634.105 2.15858 -2.08196 0
M  V30 6474 H 631.658 1.09863 -1.11175 0
M  V30 6475 H 632.393 3.23297 0.254859 0
M  V30 6476 H 632.178 3.63349 -1.47377 0
M  V30 6477 H 633.668 4.13014 -0.617164 0
M  V30 6478 N 634.105 1.10431 1.1244 0
M  V30 6479 C 635.516 0.864439 1.65482 0
M  V30 6480 C 635.867 -0.60527 1.8663 0
M  V30 6481 O 634.992 -1.46492 1.59276 0
M  V30 6482 C 635.587 1.56267 3.0061 0
M  V30 6483 C 634.146 1.3695 3.50602 0
M  V30 6484 C 633.293 1.61209 2.25626 0
M  V30 6485 H 636.244 1.26203 0.962209 0
M  V30 6486 H 636.265 1.00166 3.67079 0
M  V30 6487 H 635.777 2.63231 2.85186 0
M  V30 6488 H 633.878 0.321481 3.71211 0
M  V30 6489 H 633.991 2.11143 4.30064 0
M  V30 6490 H 632.355 1.03482 2.32731 0
M  V30 6491 H 633.138 2.69425 2.12756 0
M  V30 6492 N 635.583 -1.29855 0.893053 0
M  V30 6493 C 636.999 -1.48366 0.588199 0
M  V30 6494 C 637.199 -1.81654 -0.872018 0
M  V30 6495 O 636.255 -1.909 -1.65268 0
M  V30 6496 C 637.568 -2.60136 1.5083 0
M  V30 6497 C 639.116 -2.74014 1.51279 0
M  V30 6498 C 639.591 -3.88905 2.41902 0
M  V30 6499 N 641.082 -3.96228 2.39911 0
M  V30 6500 C 641.817 -4.84458 3.06738 0
M  V30 6501 N 641.313 -5.77426 3.8282 0
M  V30 6502 N 643.106 -4.77894 2.95929 0
M  V30 6503 H 635.257 -1.06522 1.83757 0
M  V30 6504 H 637.52 -0.528495 0.787018 0
M  V30 6505 H 637.226 -2.42383 2.54839 0
M  V30 6506 H 637.1 -3.56793 1.22388 0
M  V30 6507 H 639.487 -2.91167 0.480179 0
M  V30 6508 H 639.568 -1.77952 1.83757 0
M  V30 6509 H 639.212 -3.72508 3.45253 0
M  V30 6510 H 639.142 -4.84322 2.06737 0
M  V30 6511 H 641.633 -3.29728 1.84629 0
M  V30 6512 H 641.946 -6.41529 4.30883 0
M  V30 6513 H 640.291 -5.77332 3.86927 0
M  V30 6514 H 643.482 -4.04248 2.36012 0
M  V30 6515 H 643.655 -5.46444 3.48286 0
M  V30 6516 N 637.061 -0.65484 -1.43351 0
M  V30 6517 C 638.009 0.0476784 -2.32551 0
M  V30 6518 C 639.003 0.811403 -1.48703 0
M  V30 6519 O 640.209 0.721621 -1.64902 0
M  V30 6520 H 636.584 0.0342038 -0.751222 0
M  V30 6521 H 638.555 -0.722342 -2.89525 0
M  V30 6522 C 637.304 0.999251 -3.33032 0
M  V30 6523 H 636.627 0.421005 -3.97577 0
M  V30 6524 H 638.067 1.45986 -3.98076 0
M  V30 6525 C 636.526 2.09606 -2.63756 0
M  V30 6526 O 637.056 3.18004 -2.4543 0
M  V30 6527 N 635.262 1.86207 -2.23103 0
M  V30 6528 H 634.809 0.980555 -2.38208 0
M  V30 6529 H 634.767 2.59787 -1.77081 0
M  V30 6530 N 638.539 1.52521 -0.396863 0
M  V30 6531 C 639.785 2.01971 0.183169 0
M  V30 6532 C 640.118 1.2825 1.45827 0
M  V30 6533 O 639.393 0.385179 1.90648 0
M  V30 6534 C 639.676 3.5736 0.443391 0
M  V30 6535 C 639.529 4.41743 -0.84753 0
M  V30 6536 C 640.848 4.22539 1.2308 0
M  V30 6537 H 637.967 0.734119 0.0650976 0
M  V30 6538 H 640.609 1.82519 -0.527918 0
M  V30 6539 H 638.759 3.74066 1.04914 0
M  V30 6540 H 640.431 4.36773 -1.48414 0
M  V30 6541 H 638.674 4.0845 -1.4612 0
M  V30 6542 H 639.345 5.48507 -0.620003 0
M  V30 6543 H 641.821 4.09857 0.718084 0
M  V30 6544 H 640.697 5.31227 1.38162 0
M  V30 6545 H 640.958 3.80675 2.24808 0
M  V30 6546 N 640.017 0.126909 1.57088 0
M  V30 6547 C 640.949 -0.850973 2.12817 0
M  V30 6548 C 641.962 -1.22457 1.07276 0
M  V30 6549 O 643.151 -1.17215 1.34622 0
M  V30 6550 C 640.251 -2.15039 2.61938 0
M  V30 6551 C 639.424 -1.94726 3.91664 0
M  V30 6552 C 638.483 -3.0847 4.26301 0
M  V30 6553 O 637.509 -2.81038 4.94981 0
M  V30 6554 N 638.711 -4.35116 3.84259 0
M  V30 6555 H 641.476 -0.3748 2.97347 0
M  V30 6556 H 639.037 -0.0572793 1.61799 0
M  V30 6557 H 641.029 -2.90141 2.82135 0
M  V30 6558 H 639.599 -2.5398 1.82244 0
M  V30 6559 H 638.819 -1.03772 3.80296 0
M  V30 6560 H 640.107 -1.78469 4.76473 0
M  V30 6561 H 639.505 -4.60276 3.2888 0
M  V30 6562 H 638.062 -5.07064 4.09548 0
M  V30 6563 N 641.495 -1.56914 -0.146875 0
M  V30 6564 C 642.458 -1.97368 -1.16526 0
M  V30 6565 C 643.458 -0.860223 -1.35856 0
M  V30 6566 O 644.648 -1.12684 -1.32846 0
M  V30 6567 C 641.78 -2.28974 -2.52555 0
M  V30 6568 H 642.973 -2.88523 -0.818209 0
M  V30 6569 H 640.526 -1.5135 -0.390221 0
M  V30 6570 H 641.261 -1.40611 -2.92231 0
M  V30 6571 H 641.046 -3.10157 -2.39886 0
M  V30 6572 H 642.536 -2.61109 -3.25902 0
M  V30 6573 N 642.974 0.416227 -1.52004 0
M  V30 6574 C 644.39 0.754319 -1.40649 0
M  V30 6575 C 644.59 1.95059 -0.505392 0
M  V30 6576 O 643.646 2.5248 0.0315057 0
M  V30 6577 C 644.959 1.0149 -2.83055 0
M  V30 6578 C 646.507 1.11805 -2.9235 0
M  V30 6579 C 646.982 1.41144 -4.35709 0
M  V30 6580 N 648.473 1.48024 -4.38911 0
M  V30 6581 C 649.208 1.72338 -5.46889 0
M  V30 6582 N 648.704 1.94303 -6.64995 0
M  V30 6583 N 650.497 1.74294 -5.34395 0
M  V30 6584 H 642.648 -0.371324 -2.09129 0
M  V30 6585 H 644.911 -0.103811 -0.942299 0
M  V30 6586 H 644.617 0.208345 -3.51082 0
M  V30 6587 H 644.491 1.93697 -3.23668 0
M  V30 6588 H 646.878 1.91521 -2.24508 0
M  V30 6589 H 646.959 0.17451 -2.55204 0
M  V30 6590 H 646.603 0.619484 -5.04108 0
M  V30 6591 H 646.533 2.36739 -4.70385 0
M  V30 6592 H 649.024 1.32868 -3.53772 0
M  V30 6593 H 649.337 2.12286 -7.43071 0
M  V30 6594 H 647.682 1.91582 -6.68073 0
M  V30 6595 H 650.873 1.56667 -4.41104 0
M  V30 6596 H 651.046 1.92904 -6.18621 0
M  V30 6597 N 644.452 1.42507 0.673017 0
M  V30 6598 C 645.385 1.40557 1.79774 0
M  V30 6599 C 646.363 0.269606 1.60349 0
M  V30 6600 O 647.547 0.460105 1.82798 0
M  V30 6601 C 644.674 1.19815 3.168 0
M  V30 6602 C 643.72 2.36429 3.5497 0
M  V30 6603 S 644.553 3.98963 3.57196 0
M  V30 6604 C 645.709 3.80567 4.9691 0
M  V30 6605 H 645.942 2.35734 1.81154 0
M  V30 6606 H 643.475 1.293 0.843846 0
M  V30 6607 H 645.433 1.08535 3.95892 0
M  V30 6608 H 644.094 0.262215 3.13004 0
M  V30 6609 H 643.287 2.17669 4.54573 0
M  V30 6610 H 642.889 2.44233 2.83242 0
M  V30 6611 H 645.181 3.41668 5.85038 0
M  V30 6612 H 646.124 4.79852 5.20718 0
M  V30 6613 H 646.532 3.13399 4.69512 0
M  V30 6614 N 645.93 -0.909495 1.28709 0
M  V30 6615 C 646.86 -2.0291 1.15542 0
M  V30 6616 C 647.841 -1.7002 0.0521017 0
M  V30 6617 O 649.026 -1.92835 0.229849 0
M  V30 6618 C 646.156 -3.37458 0.820935 0
M  V30 6619 C 645.11 -3.84524 1.87949 0
M  V30 6620 C 644.436 -5.16086 1.39854 0
M  V30 6621 C 645.736 -4.05918 3.28676 0
M  V30 6622 H 647.43 -2.14183 2.09203 0
M  V30 6623 H 644.976 -1.02913 1.00722 0
M  V30 6624 H 646.929 -4.1528 0.715571 0
M  V30 6625 H 645.653 -3.26249 -0.151374 0
M  V30 6626 H 644.312 -3.08911 1.97408 0
M  V30 6627 H 643.96 -5.01284 0.41518 0
M  V30 6628 H 643.66 -5.48547 2.1064 0
M  V30 6629 H 645.184 -5.96459 1.30649 0
M  V30 6630 H 646.598 -4.74252 3.22115 0
M  V30 6631 H 644.995 -4.49717 3.97334 0
M  V30 6632 H 646.065 -3.10583 3.72379 0
M  V30 6633 N 647.408 -1.11026 -1.11852 0
M  V30 6634 C 648.633 -0.879064 -1.87849 0
M  V30 6635 C 649.058 0.565406 -1.79401 0
M  V30 6636 O 648.416 1.39886 -1.15333 0
M  V30 6637 C 648.464 -1.33985 -3.34784 0
M  V30 6638 O 647.568 -0.508803 -4.09249 0
M  V30 6639 H 646.909 -0.316992 -0.583448 0
M  V30 6640 H 649.439 -1.47863 -1.41413 0
M  V30 6641 H 649.449 -1.33248 -3.85628 0
M  V30 6642 H 648.124 -2.39172 -3.40249 0
M  V30 6643 H 646.701 -0.581913 -3.68332 0
M  V30 6644 N 648.886 1.2938 -0.899927 0
M  V30 6645 C 649.849 2.25983 -0.382677 0
M  V30 6646 C 650.849 1.53366 0.483259 0
M  V30 6647 O 652.039 1.71798 0.28828 0
M  V30 6648 C 649.171 3.37878 0.452915 0
M  V30 6649 H 650.364 2.73252 -1.23586 0
M  V30 6650 H 647.917 1.40825 -0.678088 0
M  V30 6651 H 648.652 2.95949 1.32608 0
M  V30 6652 H 648.437 3.91742 -0.167562 0
M  V30 6653 H 649.927 4.09746 0.806107 0
M  V30 6654 N 650.364 0.662433 1.43002 0
M  V30 6655 C 651.592 0.187615 2.06048 0
M  V30 6656 C 652.007 -1.15039 1.49705 0
M  V30 6657 O 651.364 -1.71209 0.631956 0
M  V30 6658 C 651.415 0.100498 3.6136 0
M  V30 6659 O 651.136 1.38562 4.15611 0
M  V30 6660 C 652.637 -0.399298 4.41498 0
M  V30 6661 H 649.857 0.0941675 0.664359 0
M  V30 6662 H 652.401 0.905681 1.83351 0
M  V30 6663 H 650.556 -0.568181 3.83211 0
M  V30 6664 H 650.97 1.25084 5.09366 0
M  V30 6665 H 652.444 -0.409187 5.50481 0
M  V30 6666 H 652.921 -1.43232 4.15188 0
M  V30 6667 H 653.527 0.23721 4.24638 0
M  V30 6668 N 651.842 -1.52309 0.404946 0
M  V30 6669 C 653.07 -2.06185 -0.171818 0
M  V30 6670 C 653.485 -1.27536 -1.39212 0
M  V30 6671 O 652.842 -0.326112 -1.79563 0
M  V30 6672 C 652.893 -3.57647 -0.526417 0
M  V30 6673 O 652.614 -4.3332 0.645417 0
M  V30 6674 C 654.115 -4.27925 -1.15736 0
M  V30 6675 H 651.335 -0.670632 -0.0222328 0
M  V30 6676 H 653.879 -1.96259 0.574692 0
M  V30 6677 H 652.034 -3.67595 -1.22282 0
M  V30 6678 H 652.448 -5.23328 0.35042 0
M  V30 6679 H 653.922 -5.35093 -1.35572 0
M  V30 6680 H 654.399 -3.84134 -2.12926 0
M  V30 6681 H 655.005 -4.22335 -0.501281 0
M  V30 6682 N 653.32 -0.135238 -1.57019 0
M  V30 6683 C 654.253 0.846618 -2.11914 0
M  V30 6684 C 655.231 1.25019 -1.03966 0
M  V30 6685 O 656.415 1.34838 -1.31723 0
M  V30 6686 C 653.542 2.1352 -2.6292 0
M  V30 6687 C 652.588 1.87846 -3.82905 0
M  V30 6688 S 653.421 1.08005 -5.24495 0
M  V30 6689 C 654.577 2.38008 -5.78881 0
M  V30 6690 H 654.81 0.379752 -2.94865 0
M  V30 6691 H 652.343 0.0788387 -1.54199 0
M  V30 6692 H 654.301 2.87551 -2.92958 0
M  V30 6693 H 652.962 2.57323 -1.80121 0
M  V30 6694 H 652.155 2.83365 -4.16797 0
M  V30 6695 H 651.757 1.21929 -3.53567 0
M  V30 6696 H 654.049 3.33742 -5.89595 0
M  V30 6697 H 654.992 2.08638 -6.76665 0
M  V30 6698 H 655.4 2.48119 -5.07048 0
M  V30 6699 N 654.798 1.5699 0.138552 0
M  V30 6700 C 656.047 1.82998 0.848205 0
M  V30 6701 C 656.36 0.717829 1.81952 0
M  V30 6702 O 657.566 0.863756 2.57394 0
M  V30 6703 C 656.022 3.24379 1.55904 0
M  V30 6704 C 655.63 4.43552 0.62971 0
M  V30 6705 C 657.374 3.59654 2.25498 0
M  V30 6706 C 655.281 5.75957 1.34266 0
M  V30 6707 H 654.211 0.682495 0.320495 0
M  V30 6708 H 656.862 1.83222 0.100924 0
M  V30 6709 H 655.244 3.18567 2.35226 0
M  V30 6710 H 656.418 4.6062 -0.128882 0
M  V30 6711 H 654.733 4.16379 0.0417526 0
M  V30 6712 H 657.33 4.55837 2.79493 0
M  V30 6713 H 657.673 2.86124 3.02388 0
M  V30 6714 H 658.206 3.67164 1.53087 0
M  V30 6715 H 654.945 6.52604 0.615441 0
M  V30 6716 H 654.465 5.62811 2.07375 0
M  V30 6717 H 656.144 6.19046 1.88126 0
M  V30 6718 N 656.276 -0.40816 1.52223 0
M  V30 6719 C 657.522 -1.15673 1.66576 0
M  V30 6720 C 657.855 -1.90141 0.394996 0
M  V30 6721 O 657.13 -1.84798 -0.606613 0
M  V30 6722 C 657.413 -2.15042 2.88841 0
M  V30 6723 C 657.266 -1.44465 4.25969 0
M  V30 6724 C 658.585 -3.15699 3.0663 0
M  V30 6725 H 655.704 -0.41916 0.606196 0
M  V30 6726 H 658.346 -0.442348 1.84779 0
M  V30 6727 H 656.496 -2.75964 2.73452 0
M  V30 6728 H 658.168 -0.866544 4.53088 0
M  V30 6729 H 656.411 -0.746612 4.27327 0
M  V30 6730 H 657.082 -2.16976 5.07568 0
M  V30 6731 H 659.558 -2.64854 3.20923 0
M  V30 6732 H 658.434 -3.82491 3.9369 0
M  V30 6733 H 658.695 -3.83481 2.19987 0
M  V30 6734 N 657.755 -1.42862 -0.66545 0
M  V30 6735 C 658.687 -1.43026 -1.79098 0
M  V30 6736 C 659.7 -0.32803 -1.59461 0
M  V30 6737 O 660.889 -0.591709 -1.68407 0
M  V30 6738 C 657.989 -1.21566 -3.16346 0
M  V30 6739 C 657.162 -2.44399 -3.62751 0
M  V30 6740 C 656.221 -2.18344 -4.78761 0
M  V30 6741 O 655.247 -2.91611 -4.88827 0
M  V30 6742 N 656.449 -1.1924 -5.68122 0
M  V30 6743 H 659.214 -2.40045 -1.79439 0
M  V30 6744 H 656.775 -1.37861 -0.848872 0
M  V30 6745 H 658.767 -1.02037 -3.91625 0
M  V30 6746 H 657.337 -0.330368 -3.10849 0
M  V30 6747 H 656.557 -2.79433 -2.78048 0
M  V30 6748 H 657.845 -3.26173 -3.90498 0
M  V30 6749 H 657.243 -0.586603 -5.6265 0
M  V30 6750 H 655.8 -1.05698 -6.43173 0
M  V30 6751 N 659.233 0.902656 -1.29189 0
M  V30 6752 C 660.479 1.6555 -1.18172 0
M  V30 6753 C 660.834 1.90569 0.264788 0
M  V30 6754 O 660.127 1.50292 1.1884 0
M  V30 6755 C 660.321 3.011 -1.92545 0
M  V30 6756 C 660.15 2.89312 -3.4428 0
M  V30 6757 C 658.92 2.90239 -4.1363 0
M  V30 6758 C 661.118 2.6656 -4.3983 0
M  V30 6759 N 659.1 2.69156 -5.5175 0
M  V30 6760 C 660.471 2.54429 -5.6539 0
M  V30 6761 C 662.526 2.51644 -4.29627 0
M  V30 6762 C 661.229 2.289 -6.81907 0
M  V30 6763 C 663.255 2.27498 -5.45892 0
M  V30 6764 C 662.617 2.16129 -6.70423 0
M  V30 6765 H 658.716 0.611519 -0.48741 0
M  V30 6766 H 661.3 1.06514 -1.62981 0
M  V30 6767 H 659.471 3.58202 -1.50154 0
M  V30 6768 H 661.203 3.65471 -1.73818 0
M  V30 6769 H 657.958 3.01412 -3.65305 0
M  V30 6770 H 658.382 2.61676 -6.24383 0
M  V30 6771 H 663.024 2.59178 -3.34045 0
M  V30 6772 H 660.742 2.20104 -7.77547 0
M  V30 6773 H 664.328 2.16805 -5.39895 0
M  V30 6774 H 663.208 1.97703 -7.5887 0
M  V30 6775 N 660.711 1.11618 1.11262 0
M  V30 6776 C 661.621 0.78898 2.20935 0
M  V30 6777 C 662.637 -0.21867 1.7262 0
M  V30 6778 O 663.813 -0.0543826 2.01327 0
M  V30 6779 C 660.878 0.239014 3.45875 0
M  V30 6780 C 659.939 1.3055 4.08968 0
M  V30 6781 C 659.172 0.781687 5.27944 0
M  V30 6782 O 659.395 -0.387605 5.69082 0
M  V30 6783 O 658.329 1.54734 5.81671 0
M  V30 6784 H 662.155 1.70477 2.51339 0
M  V30 6785 H 659.74 0.892203 1.19834 0
M  V30 6786 H 661.622 -0.0632312 4.21353 0
M  V30 6787 H 660.297 -0.649454 3.17118 0
M  V30 6788 H 659.204 1.66079 3.35214 0
M  V30 6789 H 660.537 2.16743 4.41909 0
M  V30 6790 N 662.189 -1.289 0.906776 0
M  V30 6791 C 663.099 -2.31256 0.394707 0
M  V30 6792 C 664.115 -1.66231 -0.514121 0
M  V30 6793 O 665.291 -1.97347 -0.401994 0
M  V30 6794 C 662.356 -3.44792 -0.363191 0
M  V30 6795 C 661.417 -4.25391 0.578012 0
M  V30 6796 C 660.65 -5.33506 -0.143811 0
M  V30 6797 O 660.873 -5.53786 -1.36665 0
M  V30 6798 O 659.807 -5.99673 0.5173 0
M  V30 6799 H 663.633 -2.77051 1.24405 0
M  V30 6800 H 661.218 -1.33466 0.671346 0
M  V30 6801 H 663.1 -4.139 -0.791503 0
M  V30 6802 H 661.775 -3.01093 -1.18848 0
M  V30 6803 H 660.682 -3.58899 1.05558 0
M  V30 6804 H 662.015 -4.72752 1.36992 0
M  V30 6805 N 663.667 -0.670007 -1.42649 0
M  V30 6806 C 665.078 -0.268118 -1.84765 0
M  V30 6807 C 665.429 1.18877 -1.56086 0
M  V30 6808 O 664.554 1.90947 -1.01825 0
M  V30 6809 C 665.149 -0.47984 -3.35385 0
M  V30 6810 C 663.708 -0.132116 -3.76168 0
M  V30 6811 C 662.855 -0.774611 -2.66261 0
M  V30 6812 H 665.806 -0.872509 -1.32563 0
M  V30 6813 H 665.827 0.269522 -3.79544 0
M  V30 6814 H 665.339 -1.54026 -3.56227 0
M  V30 6815 H 663.44 0.92505 -3.60934 0
M  V30 6816 H 663.553 -0.569294 -4.75706 0
M  V30 6817 H 661.917 -0.206353 -2.53863 0
M  V30 6818 H 662.7 -1.83839 -2.89928 0
M  V30 6819 N 665.145 1.52092 -0.413018 0
M  V30 6820 C 666.391 2.02154 0.161737 0
M  V30 6821 C 666.724 1.29789 1.44459 0
M  V30 6822 O 665.999 0.405378 1.90229 0
M  V30 6823 C 666.282 3.5781 0.405463 0
M  V30 6824 C 666.135 4.40819 -0.894335 0
M  V30 6825 C 667.454 4.23821 1.18591 0
M  V30 6826 H 664.573 0.734769 0.0573077 0
M  V30 6827 H 667.215 1.81948 -0.547247 0
M  V30 6828 H 665.365 3.75158 1.0094 0
M  V30 6829 H 667.037 4.35175 -1.53039 0
M  V30 6830 H 665.28 4.06877 -1.50444 0
M  V30 6831 H 665.951 5.47819 -0.678144 0
M  V30 6832 H 668.427 4.10596 0.674573 0
M  V30 6833 H 667.303 5.32663 1.3252 0
M  V30 6834 H 667.564 3.83038 2.20758 0
M  V30 6835 N 666.623 0.143563 1.56945 0
M  V30 6836 C 667.533 -0.810562 2.20152 0
M  V30 6837 C 668.549 -1.27431 1.1848 0
M  V30 6838 O 669.725 -1.33221 1.51044 0
M  V30 6839 C 666.79 -2.03353 2.80799 0
M  V30 6840 C 665.851 -1.61936 3.97587 0
M  V30 6841 C 665.084 -2.78403 4.55332 0
M  V30 6842 O 665.307 -3.94521 4.11958 0
M  V30 6843 O 664.241 -2.54073 5.45647 0
M  V30 6844 H 668.067 -0.30253 3.02189 0
M  V30 6845 H 665.652 -0.0832925 1.49168 0
M  V30 6846 H 667.534 -2.74932 3.19359 0
M  V30 6847 H 666.209 -2.53116 2.01777 0
M  V30 6848 H 665.116 -0.873904 3.6375 0
M  V30 6849 H 666.449 -1.16892 4.78118 0
M  V30 6850 N 668.101 -1.57061 -0.130224 0
M  V30 6851 C 669.512 -1.73539 -0.68856 0
M  V30 6852 C 669.863 -0.760554 -1.80859 0
M  V30 6853 O 668.988 0.0690796 -2.1629 0
M  V30 6854 C 669.583 -3.14666 -1.25581 0
M  V30 6855 C 668.142 -3.32689 -1.76055 0
M  V30 6856 C 667.289 -2.69436 -0.655712 0
M  V30 6857 H 670.24 -1.58412 0.0956002 0
M  V30 6858 H 670.261 -3.15595 -2.12556 0
M  V30 6859 H 669.773 -3.85593 -0.440412 0
M  V30 6860 H 667.874 -2.66786 -2.60108 0
M  V30 6861 H 667.987 -4.4077 -1.87772 0
M  V30 6862 H 666.351 -2.30362 -1.08654 0
M  V30 6863 H 667.134 -3.42979 0.14852 0
M  V30 6864 N 669.579 0.400081 -1.52437 0
M  V30 6865 C 670.527 1.50851 -1.7705 0
M  V30 6866 C 671.521 1.56928 -0.637969 0
M  V30 6867 O 672.727 1.60226 -0.820212 0
M  V30 6868 H 669.102 0.50186 -0.560036 0
M  V30 6869 H 671.073 1.27281 -2.69893 0
M  V30 6870 C 669.822 2.88117 -1.94638 0
M  V30 6871 H 669.145 2.84187 -2.81208 0
M  V30 6872 H 670.585 3.64942 -2.15855 0
M  V30 6873 C 669.044 3.29206 -0.715899 0
M  V30 6874 O 669.574 4.01544 0.111944 0
M  V30 6875 N 667.78 2.85363 -0.549191 0
M  V30 6876 H 667.327 2.26664 -1.22397 0
M  V30 6877 H 667.285 3.13214 0.27278 0
M  V30 6878 N 671.057 1.43213 0.657864 0
M  V30 6879 C 672.305 1.44298 1.41501 0
M  V30 6880 C 672.626 0.0666478 1.94886 0
M  V30 6881 O 671.896 -0.897345 1.74139 0
M  V30 6882 H 670.476 0.531257 0.525143 0
M  V30 6883 H 673.138 1.78777 0.776195 0
M  V30 6884 H 672.234 2.1528 2.25966 0
M  V30 6885 N 672.536 -0.895792 1.29666 0
M  V30 6886 C 673.466 -2.01673 1.17688 0
M  V30 6887 C 674.447 -1.69955 0.0701317 0
M  V30 6888 O 675.632 -1.9258 0.250289 0
M  V30 6889 C 672.762 -3.36568 0.856681 0
M  V30 6890 C 671.716 -3.82509 1.92017 0
M  V30 6891 C 671.042 -5.14574 1.4532 0
M  V30 6892 C 672.342 -4.02409 3.32963 0
M  V30 6893 H 674.036 -2.11953 2.11463 0
M  V30 6894 H 671.582 -1.01839 1.01807 0
M  V30 6895 H 673.535 -4.14498 0.759577 0
M  V30 6896 H 672.259 -3.26391 -0.116763 0
M  V30 6897 H 670.918 -3.068 2.00673 0
M  V30 6898 H 670.566 -5.00815 0.468325 0
M  V30 6899 H 670.266 -5.46283 2.16447 0
M  V30 6900 H 671.79 -5.9504 1.36968 0
M  V30 6901 H 673.204 -4.70808 3.27127 0
M  V30 6902 H 671.601 -4.45478 4.02082 0
M  V30 6903 H 672.671 -3.06616 3.75652 0
M  V30 6904 N 674.014 -1.12206 -1.10668 0
M  V30 6905 C 675.263 -0.870595 -1.81944 0
M  V30 6906 C 675.576 0.605447 -1.85994 0
M  V30 6907 O 676.782 0.973433 -2.53449 0
M  V30 6908 C 675.238 -1.50783 -3.26791 0
M  V30 6909 C 674.846 -3.01849 -3.31046 0
M  V30 6910 C 676.59 -1.33653 -4.02911 0
M  V30 6911 C 674.497 -3.58518 -4.70339 0
M  V30 6912 H 673.427 -0.322043 -0.681765 0
M  V30 6913 H 676.078 -1.34827 -1.24475 0
M  V30 6914 H 674.46 -0.957825 -3.84242 0
M  V30 6915 H 675.634 -3.63321 -2.83433 0
M  V30 6916 H 673.949 -3.18346 -2.68411 0
M  V30 6917 H 676.546 -1.73416 -5.05797 0
M  V30 6918 H 676.889 -0.279949 -4.15358 0
M  V30 6919 H 677.422 -1.85562 -3.51868 0
M  V30 6920 H 674.161 -4.63925 -4.63091 0
M  V30 6921 H 673.681 -3.01819 -5.18329 0
M  V30 6922 H 675.36 -3.57434 -5.39305 0
M  V30 6923 N 675.492 1.28418 -0.913599 0
M  V30 6924 C 676.908 1.47411 -0.611728 0
M  V30 6925 C 677.108 1.83018 0.843008 0
M  V30 6926 O 676.164 1.93505 1.6221 0
M  V30 6927 C 677.477 2.57703 -1.5495 0
M  V30 6928 C 679.025 2.71572 -1.5562 0
M  V30 6929 C 679.5 3.85008 -2.48058 0
M  V30 6930 N 680.991 3.92361 -2.46184 0
M  V30 6931 C 681.726 4.79516 -3.14407 0
M  V30 6932 N 681.222 5.71262 -3.91958 0
M  V30 6933 N 683.015 4.73125 -3.03495 0
M  V30 6934 H 675.166 1.03585 -1.85429 0
M  V30 6935 H 677.429 0.515907 -0.795326 0
M  V30 6936 H 677.135 2.38298 -2.58663 0
M  V30 6937 H 677.009 3.54801 -1.28048 0
M  V30 6938 H 679.396 2.90366 -0.526441 0
M  V30 6939 H 679.477 1.75006 -1.86565 0
M  V30 6940 H 679.121 3.66969 -3.51136 0
M  V30 6941 H 679.051 4.80971 -2.14416 0
M  V30 6942 H 681.542 3.26749 -1.89851 0
M  V30 6943 H 681.855 6.34593 -4.41034 0
M  V30 6944 H 680.2 5.71103 -3.96063 0
M  V30 6945 H 683.391 4.00442 -2.42413 0
M  V30 6946 H 683.564 5.40834 -3.56935 0
M  V30 6947 N 676.97 0.677563 1.42291 0
M  V30 6948 C 678.218 0.200578 2.01102 0
M  V30 6949 C 678.539 -1.19803 1.53858 0
M  V30 6950 O 677.809 -1.80496 0.761439 0
M  V30 6951 H 676.389 0.0711634 0.743603 0
M  V30 6952 H 679.051 0.874691 1.7417 0
M  V30 6953 H 678.147 0.204 3.11433 0
M  V30 6954 N 678.448 -1.51871 0.421078 0
M  V30 6955 C 679.678 -2.06057 -0.149723 0
M  V30 6956 C 680.086 -1.29002 -1.38402 0
M  V30 6957 O 679.429 -0.338385 -1.80556 0
M  V30 6958 C 679.491 -3.55216 -0.553339 0
M  V30 6959 C 679.155 -4.53408 0.571879 0
M  V30 6960 C 680.152 -4.99586 1.4391 0
M  V30 6961 C 677.837 -4.967 0.747979 0
M  V30 6962 C 679.831 -5.87711 2.46727 0
M  V30 6963 C 677.518 -5.84619 1.77944 0
M  V30 6964 C 678.516 -6.30021 2.63748 0
M  V30 6965 O 678.204 -7.16197 3.65126 0
M  V30 6966 H 677.936 -0.675744 -0.0186102 0
M  V30 6967 H 680.49 -1.96618 0.594166 0
M  V30 6968 H 678.72 -3.62381 -1.34969 0
M  V30 6969 H 680.409 -3.91992 -1.05342 0
M  V30 6970 H 681.175 -4.66846 1.31451 0
M  V30 6971 H 677.054 -4.60913 0.0897357 0
M  V30 6972 H 680.598 -6.2307 3.13734 0
M  V30 6973 H 676.495 -6.16771 1.90429 0
M  V30 6974 H 677.263 -7.34337 3.61512 0
M  V30 6975 N 679.926 -0.151884 -1.56866 0
M  V30 6976 C 681.342 0.204486 -1.58285 0
M  V30 6977 C 681.542 1.6431 -1.16639 0
M  V30 6978 O 680.598 2.37077 -0.868946 0
M  V30 6979 C 681.911 -0.0587019 -3.00643 0
M  V30 6980 C 683.459 0.00462303 -3.13 0
M  V30 6981 C 683.934 -0.231297 -4.57416 0
M  V30 6982 N 685.425 -0.178394 -4.62856 0
M  V30 6983 C 686.16 -0.335379 -5.72418 0
M  V30 6984 N 685.656 -0.550355 -6.90611 0
M  V30 6985 N 687.449 -0.272641 -5.61438 0
M  V30 6986 H 679.6 -1.09116 -1.82229 0
M  V30 6987 H 681.863 -0.432311 -0.843689 0
M  V30 6988 H 681.569 -1.05453 -3.35518 0
M  V30 6989 H 681.443 0.658508 -3.71407 0
M  V30 6990 H 683.83 0.991009 -2.77962 0
M  V30 6991 H 683.911 -0.744992 -2.44711 0
M  V30 6992 H 683.555 -1.2148 -4.93158 0
M  V30 6993 H 683.485 0.5387 -5.23837 0
M  V30 6994 H 685.976 -0.0170923 -3.77896 0
M  V30 6995 H 686.289 -0.660116 -7.69976 0
M  V30 6996 H 684.634 -0.586736 -6.92519 0
M  V30 6997 H 687.825 -0.105421 -4.67981 0
M  V30 6998 H 687.998 -0.398418 -6.46774 0
M  V30 6999 N 681.404 1.57128 0.121893 0
M  V30 7000 C 682.65 1.84974 0.831418 0
M  V30 7001 C 682.983 0.737204 1.79663 0
M  V30 7002 O 682.258 -0.257199 1.92792 0
M  V30 7003 C 682.541 3.23397 1.58386 0
M  V30 7004 C 682.394 4.45246 0.638445 0
M  V30 7005 C 683.713 3.59355 2.54071 0
M  V30 7006 H 680.832 0.67282 0.300803 0
M  V30 7007 H 683.474 1.89759 0.0957587 0
M  V30 7008 H 681.624 3.19449 2.21098 0
M  V30 7009 H 683.296 4.61295 0.0203925 0
M  V30 7010 H 681.539 4.33771 -0.05023 0
M  V30 7011 H 682.21 5.38765 1.20151 0
M  V30 7012 H 684.686 3.64075 2.01465 0
M  V30 7013 H 683.562 4.57193 3.03752 0
M  V30 7014 H 683.823 2.86622 3.36601 0
M  V30 7015 N 682.882 -0.391992 1.52647 0
M  V30 7016 C 684.112 -1.15692 1.71169 0
M  V30 7017 C 684.52 -1.84285 0.428444 0
M  V30 7018 O 683.863 -1.73393 -0.606669 0
M  V30 7019 C 683.925 -2.25033 2.80357 0
M  V30 7020 C 683.589 -1.76433 4.21569 0
M  V30 7021 C 684.586 -1.2427 5.0483 0
M  V30 7022 C 682.271 -1.82746 4.67877 0
M  V30 7023 C 684.265 -0.790657 6.32477 0
M  V30 7024 C 681.952 -1.37153 5.9551 0
M  V30 7025 C 682.95 -0.853997 6.7764 0
M  V30 7026 O 682.638 -0.404708 8.02881 0
M  V30 7027 H 682.37 -0.35297 0.576531 0
M  V30 7028 H 684.924 -0.464994 2.00067 0
M  V30 7029 H 683.154 -2.97641 2.46874 0
M  V30 7030 H 684.843 -2.86718 2.87311 0
M  V30 7031 H 685.609 -1.18752 4.70237 0
M  V30 7032 H 681.488 -2.21971 4.04042 0
M  V30 7033 H 685.032 -0.386024 6.96531 0
M  V30 7034 H 680.929 -1.42356 6.29607 0
M  V30 7035 H 681.697 -0.526459 8.16805 0
M  V30 7036 N 684.36 -1.4356 -0.65026 0
M  V30 7037 C 685.59 -1.48563 -1.4357 0
M  V30 7038 C 685.998 -0.103041 -1.88919 0
M  V30 7039 O 685.341 0.897602 -1.60277 0
M  V30 7040 C 685.403 -2.37181 -2.70158 0
M  V30 7041 C 685.067 -3.84673 -2.4673 0
M  V30 7042 C 686.064 -4.75704 -2.09765 0
M  V30 7043 C 683.749 -4.29189 -2.60963 0
M  V30 7044 C 685.743 -6.09249 -1.87334 0
M  V30 7045 C 683.43 -5.62787 -2.38147 0
M  V30 7046 C 684.428 -6.52634 -2.01389 0
M  V30 7047 O 684.116 -7.83761 -1.78813 0
M  V30 7048 H 683.848 -0.506743 -0.447423 0
M  V30 7049 H 686.402 -1.89001 -0.80423 0
M  V30 7050 H 684.632 -1.91636 -3.35876 0
M  V30 7051 H 686.321 -2.33354 -3.32116 0
M  V30 7052 H 687.087 -4.42589 -1.98343 0
M  V30 7053 H 682.966 -3.59529 -2.88548 0
M  V30 7054 H 686.51 -6.7934 -1.58567 0
M  V30 7055 H 682.407 -5.95469 -2.49173 0
M  V30 7056 H 683.175 -7.95368 -1.93214 0
M  V30 7057 N 685.838 0.888903 -1.30139 0
M  V30 7058 C 687.066 1.67358 -1.21651 0
M  V30 7059 C 687.481 1.87499 0.221246 0
M  V30 7060 O 686.838 1.41969 1.14677 0
M  V30 7061 C 686.889 3.05213 -1.93719 0
M  V30 7062 O 686.61 2.85984 -3.31881 0
M  V30 7063 C 688.111 3.9964 -1.9184 0
M  V30 7064 H 685.331 0.522365 -0.42116 0
M  V30 7065 H 687.875 1.11086 -1.71698 0
M  V30 7066 H 686.03 3.5823 -1.4748 0
M  V30 7067 H 686.444 3.73411 -3.68327 0
M  V30 7068 H 687.918 4.93749 -2.46811 0
M  V30 7069 H 688.395 4.29955 -0.896409 0
M  V30 7070 H 689.001 3.52558 -2.37872 0
M  V30 7071 N 687.317 1.12792 1.10072 0
M  V30 7072 C 688.25 0.742921 2.15768 0
M  V30 7073 C 689.228 -0.267714 1.60381 0
M  V30 7074 O 690.412 -0.160782 1.87813 0
M  V30 7075 C 687.539 0.100244 3.38552 0
M  V30 7076 C 686.585 1.07831 4.12644 0
M  V30 7077 S 687.418 2.60765 4.6772 0
M  V30 7078 C 688.574 1.97838 5.9381 0
M  V30 7079 H 688.807 1.63822 2.48092 0
M  V30 7080 H 686.34 0.947385 1.21918 0
M  V30 7081 H 688.298 -0.264175 4.09649 0
M  V30 7082 H 686.959 -0.772223 3.04459 0
M  V30 7083 H 686.152 0.576325 5.00694 0
M  V30 7084 H 685.754 1.38586 3.47376 0
M  V30 7085 H 688.046 1.32341 6.64449 0
M  V30 7086 H 688.989 2.83943 6.48677 0
M  V30 7087 H 689.397 1.43267 5.46017 0
M  V30 7088 N 688.795 -1.27931 0.920396 0
M  V30 7089 C 689.705 -2.30824 0.419212 0
M  V30 7090 C 690.721 -1.66767 -0.496461 0
M  V30 7091 O 691.897 -1.97763 -0.38104 0
M  V30 7092 C 688.962 -3.45158 -0.326601 0
M  V30 7093 C 688.023 -4.24754 0.623098 0
M  V30 7094 C 687.256 -5.33629 -0.0872172 0
M  V30 7095 O 687.479 -5.55204 -1.30784 0
M  V30 7096 O 686.413 -5.99091 0.580875 0
M  V30 7097 H 690.239 -2.75716 1.27337 0
M  V30 7098 H 687.824 -1.32747 0.685465 0
M  V30 7099 H 689.706 -4.14716 -0.747559 0
M  V30 7100 H 688.381 -3.02336 -1.15648 0
M  V30 7101 H 687.288 -3.57759 1.09359 0
M  V30 7102 H 688.621 -4.71272 1.41998 0
M  V30 7103 N 690.273 -0.685099 -1.4193 0
M  V30 7104 C 691.684 -0.287699 -1.8447 0
M  V30 7105 C 692.035 1.17215 -1.57338 0
M  V30 7106 O 691.16 1.89856 -1.03845 0
M  V30 7107 C 691.755 -0.515385 -3.34857 0
M  V30 7108 C 690.314 -0.172006 -3.76007 0
M  V30 7109 C 689.461 -0.802808 -2.65425 0
M  V30 7110 H 692.412 -0.88652 -1.3163 0
M  V30 7111 H 692.433 0.229251 -3.79809 0
M  V30 7112 H 691.945 -1.57796 -3.54573 0
M  V30 7113 H 690.046 0.886716 -3.61895 0
M  V30 7114 H 690.159 -0.619717 -4.75075 0
M  V30 7115 H 688.523 -0.233267 -2.5363 0
M  V30 7116 H 689.306 -1.86904 -2.87961 0
M  V30 7117 N 691.751 1.51645 -0.429126 0
M  V30 7118 C 692.661 2.31288 0.392809 0
M  V30 7119 C 693.677 1.39852 1.03525 0
M  V30 7120 O 694.853 1.72926 1.03241 0
M  V30 7121 C 691.918 3.13347 1.48372 0
M  V30 7122 C 690.979 4.20551 0.862268 0
M  V30 7123 C 690.212 4.98688 1.9012 0
M  V30 7124 O 690.435 4.77359 3.12225 0
M  V30 7125 O 689.369 5.83005 1.4963 0
M  V30 7126 H 693.195 3.02609 -0.257138 0
M  V30 7127 H 690.78 1.48163 -0.191851 0
M  V30 7128 H 692.662 3.64387 2.1166 0
M  V30 7129 H 691.337 2.44799 2.1179 0
M  V30 7130 H 690.244 3.73609 0.191568 0
M  V30 7131 H 691.577 4.91449 0.271704 0
M  V30 7132 N 693.229 0.160201 1.56784 0
M  V30 7133 C 694.179 -0.786461 2.14007 0
M  V30 7134 C 695.163 -1.20046 1.07134 0
M  V30 7135 O 696.355 -1.16468 1.33283 0
M  V30 7136 C 693.484 -2.02024 2.77563 0
M  V30 7137 C 692.57 -1.62874 3.91578 0
M  V30 7138 N 692.961 -0.946176 4.96871 0
M  V30 7139 C 691.259 -1.92054 4.02531 0
M  V30 7140 C 691.96 -0.755084 5.76778 0
M  V30 7141 N 690.936 -1.29307 5.27997 0
M  V30 7142 H 694.738 -0.255879 2.92784 0
M  V30 7143 H 692.252 -0.0408778 1.62349 0
M  V30 7144 H 694.249 -2.70855 3.16928 0
M  V30 7145 H 692.909 -2.55587 2.00263 0
M  V30 7146 H 693.92 -0.605455 5.14349 0
M  V30 7147 H 690.597 -2.47374 3.36322 0
M  V30 7148 H 691.987 -0.216138 6.71552 0
M  V30 7149 N 694.707 -1.5719 -0.113559 0
M  V30 7150 C 696.118 -1.74259 -0.670116 0
M  V30 7151 C 696.469 -0.779694 -1.80042 0
M  V30 7152 O 695.594 0.0461353 -2.16351 0
M  V30 7153 C 696.189 -3.15981 -1.22236 0
M  V30 7154 C 694.748 -3.34537 -1.72516 0
M  V30 7155 C 693.895 -2.70116 -0.627098 0
M  V30 7156 H 696.846 -1.58301 0.112396 0
M  V30 7157 H 696.867 -3.17832 -2.09197 0
M  V30 7158 H 696.379 -3.86038 -0.39949 0
M  V30 7159 H 694.48 -2.6953 -2.57263 0
M  V30 7160 H 694.593 -4.42737 -1.83086 0
M  V30 7161 H 692.957 -2.31501 -1.06204 0
M  V30 7162 H 693.74 -3.42802 0.184889 0
M  V30 7163 N 696.185 0.383891 -1.52853 0
M  V30 7164 C 697.431 1.13009 -1.68395 0
M  V30 7165 C 697.764 1.89488 -0.425195 0
M  V30 7166 O 697.039 1.8574 0.577136 0
M  V30 7167 C 697.322 2.10419 -2.92226 0
M  V30 7168 C 697.175 1.3767 -4.28214 0
M  V30 7169 C 698.494 3.10781 -3.11614 0
M  V30 7170 H 695.613 0.409463 -0.612788 0
M  V30 7171 H 698.255 0.412895 -1.85459 0
M  V30 7172 H 696.405 2.71579 -2.77808 0
M  V30 7173 H 698.077 0.794352 -4.54409 0
M  V30 7174 H 696.32 0.678533 -4.2846 0
M  V30 7175 H 696.991 2.08874 -5.10956 0
M  V30 7176 H 699.467 2.59715 -3.25096 0
M  V30 7177 H 698.343 3.76179 -3.99725 0
M  V30 7178 H 698.604 3.79933 -2.2606 0
M  V30 7179 N 697.663 1.43903 0.642637 0
M  V30 7180 C 698.911 1.45791 1.39962 0
M  V30 7181 C 699.232 0.0873144 1.94804 0
M  V30 7182 O 698.502 -0.878825 1.75081 0
M  V30 7183 H 697.082 0.536797 0.519479 0
M  V30 7184 H 699.744 1.7959 0.757189 0
M  V30 7185 H 698.84 2.17665 2.2367 0
M  V30 7186 N 699.141 -0.881989 1.30609 0
M  V30 7187 C 700.089 -2.00942 1.17155 0
M  V30 7188 C 701.083 -1.69198 0.0827154 0
M  V30 7189 O 702.289 -1.78342 0.243775 0
M  V30 7190 H 698.664 -0.658913 0.362406 0
M  V30 7191 H 700.635 -2.09423 2.12567 0
M  V30 7192 C 699.384 -3.36294 0.883273 0
M  V30 7193 H 698.707 -3.61233 1.7132 0
M  V30 7194 H 700.147 -4.15812 0.829255 0
M  V30 7195 C 698.606 -3.34348 -0.413851 0
M  V30 7196 O 699.136 -3.75216 -1.43444 0
M  V30 7197 N 697.342 -2.87459 -0.426082 0
M  V30 7198 H 696.889 -2.54397 0.40493 0
M  V30 7199 H 696.847 -2.8654 -1.29391 0
M  V30 7200 N 700.619 -1.13374 -1.09472 0
M  V30 7201 C 701.865 -0.906459 -1.82085 0
M  V30 7202 C 702.22 0.5614 -1.84027 0
M  V30 7203 O 701.513 1.41012 -1.29716 0
M  V30 7204 C 701.707 -1.42759 -3.2765 0
M  V30 7205 C 701.536 -2.94459 -3.39888 0
M  V30 7206 C 700.306 -3.62798 -3.51718 0
M  V30 7207 C 702.504 -3.92398 -3.32457 0
M  V30 7208 N 700.486 -5.02516 -3.52635 0
M  V30 7209 C 701.857 -5.18304 -3.40237 0
M  V30 7210 C 703.912 -3.84671 -3.16122 0
M  V30 7211 C 702.615 -6.37386 -3.33364 0
M  V30 7212 C 704.641 -5.03287 -3.10574 0
M  V30 7213 C 704.003 -6.28055 -3.18945 0
M  V30 7214 H 700.102 -0.385097 -0.680606 0
M  V30 7215 H 702.686 -1.44187 -1.30836 0
M  V30 7216 H 700.857 -0.919102 -3.77369 0
M  V30 7217 H 702.589 -1.14136 -3.88272 0
M  V30 7218 H 699.344 -3.13317 -3.55147 0
M  V30 7219 H 699.768 -5.75421 -3.56679 0
M  V30 7220 H 704.41 -2.89094 -3.0852 0
M  V30 7221 H 702.128 -7.33219 -3.3973 0
M  V30 7222 H 705.714 -4.99047 -2.9907 0
M  V30 7223 H 704.594 -7.18299 -3.14668 0
M  V30 7224 N 702.098 1.27442 -0.927168 0
M  V30 7225 C 703.03 2.25975 -0.383158 0
M  V30 7226 C 704.043 1.55382 0.485832 0
M  V30 7227 O 705.232 1.75986 0.298541 0
M  V30 7228 C 702.332 3.35629 0.469688 0
M  V30 7229 C 701.505 4.35747 -0.379886 0
M  V30 7230 C 700.564 5.24598 0.410227 0
M  V30 7231 O 699.59 5.68909 -0.181888 0
M  V30 7232 N 700.792 5.54737 1.71017 0
M  V30 7233 H 703.557 2.7329 -1.23015 0
M  V30 7234 H 701.118 1.41063 -0.794539 0
M  V30 7235 H 703.11 3.92015 1.00532 0
M  V30 7236 H 701.68 2.87919 1.21744 0
M  V30 7237 H 700.9 3.78634 -1.09682 0
M  V30 7238 H 702.188 4.99648 -0.960717 0
M  V30 7239 H 701.586 5.20594 2.21356 0
M  V30 7240 H 700.143 6.13824 2.19234 0
M  V30 7241 N 703.576 0.692616 1.41565 0
M  V30 7242 C 704.523 0.0254264 2.30786 0
M  V30 7243 C 705.493 -0.774347 1.46946 0
M  V30 7244 O 706.678 -0.742981 1.7574 0
M  V30 7245 C 703.818 -0.907123 3.32964 0
M  V30 7246 C 702.931 -0.0992784 4.31886 0
M  V30 7247 C 702.066 -1.0292 5.21134 0
M  V30 7248 C 701.105 -0.214088 6.11725 0
M  V30 7249 N 700.242 -1.09766 6.93467 0
M  V30 7250 H 705.082 0.792036 2.87282 0
M  V30 7251 H 702.619 0.4023 1.41492 0
M  V30 7252 H 704.577 -1.46181 3.90752 0
M  V30 7253 H 703.207 -1.64016 2.78026 0
M  V30 7254 H 702.259 0.572287 3.76071 0
M  V30 7255 H 703.571 0.532782 4.95946 0
M  V30 7256 H 702.725 -1.65321 5.83741 0
M  V30 7257 H 701.464 -1.69512 4.57293 0
M  V30 7258 H 700.469 0.42302 5.4817 0
M  V30 7259 H 701.694 0.447995 6.77621 0
M  V30 7260 H 699.64 -1.74965 6.32237 0
M  V30 7261 H 699.557 -0.521099 7.54202 0
M  V30 7262 H 700.825 -1.70858 7.60544 0
M  V30 7263 N 705.054 -1.51416 0.437162 0
M  V30 7264 C 706.004 -2.24599 -0.392311 0
M  V30 7265 C 706.988 -1.2682 -0.990221 0
M  V30 7266 O 708.18 -1.51912 -0.908391 0
M  V30 7267 C 705.309 -3.09134 -1.49301 0
M  V30 7268 C 704.395 -4.14342 -0.904503 0
M  V30 7269 N 704.786 -5.0578 -0.0451511 0
M  V30 7270 C 703.084 -4.30323 -1.1721 0
M  V30 7271 C 703.785 -5.81 0.285344 0
M  V30 7272 N 702.761 -5.42591 -0.330993 0
M  V30 7273 H 706.563 -2.92655 0.270221 0
M  V30 7274 H 704.077 -1.60476 0.249226 0
M  V30 7275 H 706.074 -3.6014 -2.10011 0
M  V30 7276 H 704.734 -2.42622 -2.15788 0
M  V30 7277 H 705.745 -5.16903 0.321271 0
M  V30 7278 H 702.422 -3.75037 -1.83448 0
M  V30 7279 H 703.812 -6.64646 0.984626 0
M  V30 7280 N 706.532 -0.168513 -1.56696 0
M  V30 7281 C 707.48 0.779791 -2.19139 0
M  V30 7282 C 708.474 1.23957 -1.1546 0
M  V30 7283 O 709.68 1.20555 -1.33666 0
M  V30 7284 H 706.055 0.269739 -0.701958 0
M  V30 7285 H 708.026 0.229156 -2.97519 0
M  V30 7286 C 706.775 2.00003 -2.84419 0
M  V30 7287 H 706.098 1.65527 -3.63924 0
M  V30 7288 H 707.538 2.64251 -3.31583 0
M  V30 7289 C 705.997 2.82187 -1.84044 0
M  V30 7290 O 706.527 3.79247 -1.32418 0
M  V30 7291 N 704.733 2.47145 -1.52864 0
M  V30 7292 H 704.28 1.68277 -1.9504 0
M  V30 7293 H 704.238 3.02422 -0.859569 0
M  V30 7294 N 708.01 1.57248 0.105221 0
M  V30 7295 C 709.256 1.85845 0.811753 0
M  V30 7296 C 709.589 0.756219 1.78871 0
M  V30 7297 O 708.864 -0.236736 1.93054 0
M  V30 7298 C 709.147 3.25059 1.54947 0
M  V30 7299 C 709 4.45898 0.591185 0
M  V30 7300 C 710.319 3.6203 2.50245 0
M  V30 7301 H 707.438 0.675973 0.293649 0
M  V30 7302 H 710.08 1.89849 0.0756269 0
M  V30 7303 H 708.23 3.21776 2.17698 0
M  V30 7304 H 709.902 4.61291 -0.0285352 0
M  V30 7305 H 708.145 4.33693 -0.0962343 0
M  V30 7306 H 708.816 5.40009 1.1443 0
M  V30 7307 H 711.292 3.66192 1.97593 0
M  V30 7308 H 710.168 4.60389 2.98886 0
M  V30 7309 H 710.429 2.90176 3.33542 0
M  V30 7310 N 709.488 -0.375779 1.53054 0
M  V30 7311 C 710.765 -1.13453 1.59336 0
M  V30 7312 C 711.145 -2.07379 0.394614 0
M  V30 7313 O 710.493 -2.2004 -0.616 0
M  V30 7314 C 710.703 -1.8826 2.93869 0
M  V30 7315 C 712.051 -2.43155 3.48081 0
M  V30 7316 O 713.075 -1.984 2.95831 0
M  V30 7317 O 711.934 -3.24944 4.39401 0
M  V30 7318 H 709.028 -0.519856 0.643179 0
M  V30 7319 H 711.574 -0.379865 1.65394 0
M  V30 7320 H 710.346 -1.19652 3.72558 0
M  V30 7321 H 709.969 -2.70658 2.91256 0
M  V30 7322 N 710.966 -1.44241 -0.634997 0
M  V30 7323 C 712.243 -1.37296 -1.39317 0
M  V30 7324 C 712.623 -0.0297532 -2.11079 0
M  V30 7325 O 711.971 0.987524 -2.06059 0
M  V30 7326 C 712.181 -2.56853 -2.36279 0
M  V30 7327 C 713.529 -3.00747 -2.99728 0
M  V30 7328 O 714.553 -2.5703 -2.46605 0
M  V30 7329 O 713.412 -3.76533 -3.96087 0
M  V30 7330 H 710.506 -0.543503 -0.623325 0
M  V30 7331 H 713.052 -1.56324 -0.660376 0
M  V30 7332 H 711.824 -3.46228 -1.82324 0
M  V30 7333 H 711.447 -2.40019 -3.16981 0
M  V30 7334 N 712.444 0.87505 -1.31075 0
M  V30 7335 C 713.669 1.66583 -1.23551 0
M  V30 7336 C 714.094 1.87067 0.19686 0
M  V30 7337 O 713.452 1.40877 1.1412 0
M  V30 7338 C 713.5 3.01401 -1.97965 0
M  V30 7339 O 712.604 3.90923 -1.31351 0
M  V30 7340 H 711.945 0.508645 -0.426821 0
M  V30 7341 H 714.475 1.09139 -1.7306 0
M  V30 7342 H 714.485 3.51374 -2.07366 0
M  V30 7343 H 713.16 2.85812 -3.02133 0
M  V30 7344 H 711.737 3.49369 -1.30368 0
M  V30 7345 N 713.922 1.13953 1.08869 0
M  V30 7346 C 714.852 0.844824 2.17681 0
M  V30 7347 C 715.833 -0.198213 1.68941 0
M  V30 7348 O 717.018 -0.0559073 1.9412 0
M  V30 7349 C 714.148 0.316325 3.45856 0
M  V30 7350 C 713.102 1.29426 4.07962 0
M  V30 7351 C 712.428 0.625275 5.31031 0
M  V30 7352 C 713.728 2.65484 4.49795 0
M  V30 7353 H 715.422 1.75471 2.42591 0
M  V30 7354 H 712.968 0.845116 1.16592 0
M  V30 7355 H 714.921 0.0977876 4.21287 0
M  V30 7356 H 713.645 -0.628972 3.20486 0
M  V30 7357 H 712.304 1.49889 3.34558 0
M  V30 7358 H 711.952 -0.325678 5.01945 0
M  V30 7359 H 711.652 1.27777 5.73539 0
M  V30 7360 H 713.176 0.416152 6.0918 0
M  V30 7361 H 714.59 2.48957 5.16424 0
M  V30 7362 H 712.987 3.26963 5.03205 0
M  V30 7363 H 714.057 3.22717 3.61914 0
M  V30 7364 N 715.4 -1.26948 0.933913 0
M  V30 7365 C 716.33 -2.29017 0.45534 0
M  V30 7366 C 717.311 -1.62961 -0.487605 0
M  V30 7367 O 718.496 -1.90223 -0.391022 0
M  V30 7368 C 715.626 -3.46112 -0.287015 0
M  V30 7369 C 714.58 -4.24205 0.568682 0
M  V30 7370 C 713.906 -5.3384 -0.303206 0
M  V30 7371 C 715.206 -4.88954 1.83633 0
M  V30 7372 H 716.9 -2.69298 1.30839 0
M  V30 7373 H 714.446 -1.29459 0.630579 0
M  V30 7374 H 716.399 -4.16622 -0.6328 0
M  V30 7375 H 715.123 -3.04765 -1.17414 0
M  V30 7376 H 713.782 -3.5545 0.897261 0
M  V30 7377 H 713.43 -4.88734 -1.18947 0
M  V30 7378 H 713.13 -5.86998 0.265879 0
M  V30 7379 H 714.654 -6.0719 -0.644423 0
M  V30 7380 H 716.068 -5.51717 1.55823 0
M  V30 7381 H 714.465 -5.52198 2.34941 0
M  V30 7382 H 715.535 -4.12305 2.55211 0
M  V30 7383 N 716.879 -0.700114 -1.41195 0
M  V30 7384 C 718.107 -0.242179 -2.05478 0
M  V30 7385 C 718.522 1.11029 -1.52702 0
M  V30 7386 O 717.879 1.69473 -0.677127 0
M  V30 7387 C 717.93 -0.196271 -3.60967 0
M  V30 7388 O 717.651 -1.49532 -4.11791 0
M  V30 7389 C 719.152 0.282102 -4.42401 0
M  V30 7390 H 716.372 -0.111749 -0.661629 0
M  V30 7391 H 718.916 -0.953975 -1.80885 0
M  V30 7392 H 717.071 0.46638 -3.84582 0
M  V30 7393 H 717.485 -1.38545 -5.05871 0
M  V30 7394 H 718.959 0.263093 -5.51373 0
M  V30 7395 H 719.436 1.32174 -4.1884 0
M  V30 7396 H 720.042 -0.349712 -4.2386 0
M  V30 7397 N 718.357 1.51182 -0.445186 0
M  V30 7398 C 719.585 2.06568 0.117091 0
M  V30 7399 C 720 1.31182 1.35781 0
M  V30 7400 O 719.357 0.373605 1.78635 0
M  V30 7401 C 719.408 3.58917 0.431408 0
M  V30 7402 O 719.129 4.31456 -0.760078 0
M  V30 7403 C 720.63 4.30843 1.0435 0
M  V30 7404 H 717.85 0.670985 0.00444436 0
M  V30 7405 H 720.394 1.94666 -0.626525 0
M  V30 7406 H 718.549 3.70708 1.12493 0
M  V30 7407 H 718.963 5.22215 -0.489048 0
M  V30 7408 H 720.437 5.38499 1.21337 0
M  V30 7409 H 720.914 3.89644 2.02667 0
M  V30 7410 H 721.52 4.23516 0.38913 0
M  V30 7411 N 719.835 0.176821 1.56605 0
M  V30 7412 C 721.081 -0.467406 1.9734 0
M  V30 7413 C 721.414 -1.62523 1.06301 0
M  V30 7414 O 720.689 -1.94182 0.11125 0
M  V30 7415 C 720.972 -0.945106 3.47476 0
M  V30 7416 C 720.825 0.213273 4.49294 0
M  V30 7417 C 722.144 -1.8169 4.00845 0
M  V30 7418 H 719.263 -0.168426 0.717497 0
M  V30 7419 H 721.905 0.264065 1.88156 0
M  V30 7420 H 720.055 -1.56841 3.55434 0
M  V30 7421 H 721.727 0.850508 4.53392 0
M  V30 7422 H 719.97 0.867918 4.25029 0
M  V30 7423 H 720.641 -0.163187 5.51759 0
M  V30 7424 H 723.117 -1.29139 3.95553 0
M  V30 7425 H 721.993 -2.12015 5.06301 0
M  V30 7426 H 722.254 -2.76463 3.44994 0
M  V30 7427 N 721.313 -1.57302 -0.09688 0
M  V30 7428 C 722.561 -1.8563 -0.799117 0
M  V30 7429 C 722.882 -0.765263 -1.79356 0
M  V30 7430 O 722.152 0.208657 -1.94786 0
M  V30 7431 H 720.732 -0.684937 -0.298111 0
M  V30 7432 H 723.394 -1.9474 -0.0789341 0
M  V30 7433 H 722.49 -2.82305 -1.3308 0
M  V30 7434 N 722.791 0.367657 -1.53252 0
M  V30 7435 C 724.016 1.13566 -1.73544 0
M  V30 7436 C 724.441 1.82329 -0.462344 0
M  V30 7437 O 723.799 1.71655 0.583472 0
M  V30 7438 C 723.847 2.14322 -2.89997 0
M  V30 7439 O 722.951 3.21359 -2.58461 0
M  V30 7440 H 722.292 0.329614 -0.576412 0
M  V30 7441 H 724.822 0.425417 -2.00128 0
M  V30 7442 H 724.832 2.57958 -3.16104 0
M  V30 7443 H 723.507 1.63664 -3.82344 0
M  V30 7444 H 722.084 2.8271 -2.43165 0
M  V30 7445 N 724.269 1.44576 0.627338 0
M  V30 7446 C 725.199 1.54562 1.75022 0
M  V30 7447 C 726.18 0.398378 1.65369 0
M  V30 7448 O 727.365 0.61899 1.84071 0
M  V30 7449 C 724.495 1.49309 3.13567 0
M  V30 7450 C 723.449 2.62549 3.38012 0
M  V30 7451 C 722.775 2.42348 4.76625 0
M  V30 7452 C 724.075 4.04678 3.30202 0
M  V30 7453 H 725.769 2.4855 1.66922 0
M  V30 7454 H 723.315 1.19624 0.801636 0
M  V30 7455 H 725.268 1.54895 3.919 0
M  V30 7456 H 723.992 0.518392 3.2246 0
M  V30 7457 H 722.651 2.56358 2.62061 0
M  V30 7458 H 722.299 1.43062 4.82226 0
M  V30 7459 H 721.999 3.18273 4.93939 0
M  V30 7460 H 723.523 2.49758 5.57183 0
M  V30 7461 H 724.937 4.12217 3.98435 0
M  V30 7462 H 723.334 4.80836 3.5905 0
M  V30 7463 H 724.404 4.2798 2.27949 0
M  V30 7464 N 725.747 -0.868086 1.31537 0
M  V30 7465 C 726.677 -1.99131 1.21939 0
M  V30 7466 C 727.658 -1.69768 0.106166 0
M  V30 7467 O 728.843 -1.92006 0.291081 0
M  V30 7468 C 725.973 -3.34676 0.927879 0
M  V30 7469 C 724.927 -3.7835 2.00088 0
M  V30 7470 C 724.253 -5.11375 1.56203 0
M  V30 7471 C 725.553 -3.95256 3.41424 0
M  V30 7472 H 727.247 -2.07419 2.15911 0
M  V30 7473 H 724.793 -0.996569 1.03945 0
M  V30 7474 H 726.746 -4.12793 0.847327 0
M  V30 7475 H 725.47 -3.26565 -0.0475042 0
M  V30 7476 H 724.129 -3.02474 2.07135 0
M  V30 7477 H 723.777 -4.99709 0.57445 0
M  V30 7478 H 723.477 -5.41568 2.27985 0
M  V30 7479 H 725.001 -5.92001 1.49558 0
M  V30 7480 H 726.415 -4.63764 3.3704 0
M  V30 7481 H 724.812 -4.36849 4.1144 0
M  V30 7482 H 725.882 -2.98579 3.82072 0
M  V30 7483 N 727.225 -1.14528 -1.08264 0
M  V30 7484 C 728.135 -0.84728 -2.18765 0
M  V30 7485 C 729.151 0.172826 -1.7314 0
M  V30 7486 O 730.327 0.000985336 -2.014 0
M  V30 7487 C 727.392 -0.330633 -3.4512 0
M  V30 7488 C 726.453 -1.41348 -4.05363 0
M  V30 7489 C 725.686 -0.921387 -5.25686 0
M  V30 7490 O 725.909 0.236587 -5.69909 0
M  V30 7491 O 724.843 -1.70101 -5.77364 0
M  V30 7492 H 728.669 -1.7708 -2.46731 0
M  V30 7493 H 726.254 -0.923661 -1.17426 0
M  V30 7494 H 728.136 -0.0485053 -4.21372 0
M  V30 7495 H 726.811 0.565147 -3.18728 0
M  V30 7496 H 725.718 -1.74908 -3.30693 0
M  V30 7497 H 727.051 -2.28383 -4.36007 0
M  V30 7498 N 728.703 1.26451 -0.940633 0
M  V30 7499 C 729.98 1.88947 -0.505811 0
M  V30 7500 C 730.36 1.85011 1.01657 0
M  V30 7501 O 729.708 1.30406 1.87634 0
M  V30 7502 C 729.918 3.32304 -1.06654 0
M  V30 7503 C 731.266 4.09153 -1.13486 0
M  V30 7504 O 732.29 3.41371 -1.01708 0
M  V30 7505 O 731.149 5.30369 -1.31797 0
M  V30 7506 H 728.243 0.810422 -0.164759 0
M  V30 7507 H 730.789 1.34625 -1.03316 0
M  V30 7508 H 729.561 3.29527 -2.11015 0
M  V30 7509 H 729.184 3.94164 -0.521603 0
M  V30 7510 N 730.181 0.707592 1.40822 0
M  V30 7511 C 731.091 0.0507246 2.34545 0
M  V30 7512 C 732.107 -0.752727 1.56876 0
M  V30 7513 O 733.283 -0.687524 1.89302 0
M  V30 7514 C 730.348 -0.865731 3.35717 0
M  V30 7515 C 729.409 -0.0531313 4.29267 0
M  V30 7516 C 728.642 -0.925939 5.25606 0
M  V30 7517 O 728.865 -2.16531 5.27703 0
M  V30 7518 O 727.799 -0.369194 6.00767 0
M  V30 7519 H 731.625 0.823587 2.9232 0
M  V30 7520 H 729.21 0.46801 1.4188 0
M  V30 7521 H 731.092 -1.39091 3.97783 0
M  V30 7522 H 729.767 -1.61788 2.80368 0
M  V30 7523 H 728.674 0.516931 3.70511 0
M  V30 7524 H 730.007 0.660617 4.87747 0
M  V30 7525 N 731.66 -1.50943 0.453197 0
M  V30 7526 C 732.888 -2.06628 -0.106135 0
M  V30 7527 C 733.303 -1.31901 -1.35084 0
M  V30 7528 O 732.66 -0.383074 -1.78434 0
M  V30 7529 C 732.711 -3.5914 -0.412368 0
M  V30 7530 O 732.432 -4.31047 0.782948 0
M  V30 7531 C 733.933 -4.31391 -1.02064 0
M  V30 7532 H 731.153 -0.670999 -0.000885896 0
M  V30 7533 H 733.697 -1.94331 0.63684 0
M  V30 7534 H 731.852 -3.71299 -1.10526 0
M  V30 7535 H 732.266 -5.21948 0.516736 0
M  V30 7536 H 733.74 -5.39135 -1.1848 0
M  V30 7537 H 734.217 -3.90714 -2.00598 0
M  V30 7538 H 734.823 -4.23716 -0.366664 0
M  V30 7539 N 733.138 -0.185124 -1.56509 0
M  V30 7540 C 734.368 0.461469 -2.0138 0
M  V30 7541 C 734.776 1.56417 -1.06445 0
M  V30 7542 O 734.119 1.83603 -0.0597515 0
M  V30 7543 C 734.181 1.08731 -3.42663 0
M  V30 7544 C 733.845 0.124581 -4.5683 0
M  V30 7545 C 734.842 -0.662295 -5.15664 0
M  V30 7546 C 732.527 0.0163947 -5.02297 0
M  V30 7547 C 734.521 -1.54442 -6.18406 0
M  V30 7548 C 732.208 -0.869301 -6.04885 0
M  V30 7549 C 733.206 -1.64828 -6.62813 0
M  V30 7550 O 732.894 -2.51915 -7.63409 0
M  V30 7551 H 732.626 0.1212 -0.665046 0
M  V30 7552 H 735.18 -0.288119 -2.03369 0
M  V30 7553 H 733.41 1.8853 -3.37629 0
M  V30 7554 H 735.099 1.63753 -3.71403 0
M  V30 7555 H 735.865 -0.588963 -4.81411 0
M  V30 7556 H 731.744 0.61253 -4.56913 0
M  V30 7557 H 735.288 -2.15289 -6.63548 0
M  V30 7558 H 731.185 -0.943786 -6.38563 0
M  V30 7559 H 731.953 -2.45584 -7.80789 0
M  V30 7560 N 734.616 1.57351 0.0885366 0
M  V30 7561 C 735.844 1.90631 0.804196 0
M  V30 7562 C 736.259 0.779474 1.71958 0
M  V30 7563 O 735.616 -0.248179 1.80805 0
M  V30 7564 C 735.667 3.23568 1.61202 0
M  V30 7565 O 735.388 4.31917 0.733447 0
M  V30 7566 C 736.889 3.70753 2.43016 0
M  V30 7567 H 734.109 0.630501 0.229585 0
M  V30 7568 H 736.653 2.044 0.0638092 0
M  V30 7569 H 734.808 3.11377 2.30485 0
M  V30 7570 H 735.222 5.08297 1.29361 0
M  V30 7571 H 736.696 4.66447 2.9518 0
M  V30 7572 H 737.173 2.98922 3.2178 0
M  V30 7573 H 737.779 3.85834 1.7892 0
M  V30 7574 N 736.094 -0.359525 1.53444 0
M  V30 7575 C 737.34 -1.10315 1.70172 0
M  V30 7576 C 737.673 -1.88788 0.455287 0
M  V30 7577 O 736.948 -1.86635 -0.547514 0
M  V30 7578 C 737.231 -2.05744 2.95536 0
M  V30 7579 C 737.084 -1.3084 4.3035 0
M  V30 7580 C 738.403 -3.05784 3.16518 0
M  V30 7581 H 735.522 -0.399662 0.619225 0
M  V30 7582 H 738.164 -0.383338 1.86093 0
M  V30 7583 H 736.314 -2.67125 2.82093 0
M  V30 7584 H 737.986 -0.721959 4.55615 0
M  V30 7585 H 736.229 -0.610283 4.29486 0
M  V30 7586 H 736.9 -2.00718 5.14214 0
M  V30 7587 H 739.376 -2.5451 3.29187 0
M  V30 7588 H 738.252 -3.69772 4.05659 0
M  V30 7589 H 738.513 -3.76289 2.32076 0
M  V30 7590 N 737.572 -1.44907 -0.619662 0
M  V30 7591 C 738.988 -1.29046 -0.939107 0
M  V30 7592 C 739.188 -0.23462 -2.00129 0
M  V30 7593 O 738.244 0.37558 -2.49691 0
M  V30 7594 C 739.557 -2.66567 -1.39149 0
M  V30 7595 C 741.105 -2.74368 -1.50635 0
M  V30 7596 C 741.58 -4.12386 -1.99253 0
M  V30 7597 N 743.071 -4.1462 -2.06506 0
M  V30 7598 C 743.806 -5.18272 -2.4532 0
M  V30 7599 N 743.302 -6.32278 -2.83189 0
M  V30 7600 N 745.095 -5.05628 -2.45554 0
M  V30 7601 H 737.246 -2.12239 0.0826135 0
M  V30 7602 H 739.509 -0.947652 -0.0256829 0
M  V30 7603 H 739.215 -3.4496 -0.685254 0
M  V30 7604 H 739.089 -2.94224 -2.36034 0
M  V30 7605 H 741.476 -1.96287 -2.20353 0
M  V30 7606 H 741.557 -2.50439 -0.520963 0
M  V30 7607 H 741.201 -4.90947 -1.30127 0
M  V30 7608 H 741.131 -4.33699 -2.98684 0
M  V30 7609 H 743.622 -3.32343 -1.79878 0
M  V30 7610 H 743.935 -7.07172 -3.11652 0
M  V30 7611 H 742.28 -6.35699 -2.80913 0
M  V30 7612 H 745.471 -4.15613 -2.15367 0
M  V30 7613 H 745.644 -5.86529 -2.75478 0
M  V30 7614 N 739.05 0.861098 -1.31996 0
M  V30 7615 C 740.296 1.61721 -1.22369 0
M  V30 7616 C 740.629 1.93 0.215587 0
M  V30 7617 O 739.904 1.56789 1.15098 0
M  V30 7618 C 740.187 2.9417 -2.07691 0
M  V30 7619 C 740.04 2.69714 -3.59965 0
M  V30 7620 C 741.359 3.95372 -1.93312 0
M  V30 7621 H 738.478 0.586822 -0.44588 0
M  V30 7622 H 741.12 0.994788 -1.61876 0
M  V30 7623 H 739.27 3.47292 -1.74128 0
M  V30 7624 H 740.942 2.23196 -4.03709 0
M  V30 7625 H 739.185 2.03789 -3.82952 0
M  V30 7626 H 739.856 3.63996 -4.14983 0
M  V30 7627 H 742.332 3.51487 -2.22701 0
M  V30 7628 H 741.208 4.85916 -2.55298 0
M  V30 7629 H 741.469 4.32865 -0.898922 0
M  V30 7630 N 740.528 1.15101 1.07655 0
M  V30 7631 C 741.458 0.867864 2.16773 0
M  V30 7632 C 742.439 -0.180283 1.69142 0
M  V30 7633 O 743.624 -0.0353152 1.94168 0
M  V30 7634 C 740.754 0.35299 3.45501 0
M  V30 7635 C 739.708 1.33746 4.06566 0
M  V30 7636 C 739.034 0.681562 5.30338 0
M  V30 7637 C 740.334 2.7024 4.46954 0
M  V30 7638 H 742.028 1.78034 2.40716 0
M  V30 7639 H 739.574 0.857435 1.15689 0
M  V30 7640 H 741.527 0.142465 4.21159 0
M  V30 7641 H 740.251 -0.594945 3.21135 0
M  V30 7642 H 738.91 1.53429 3.32949 0
M  V30 7643 H 738.558 -0.272422 5.02262 0
M  V30 7644 H 738.258 1.33853 5.72151 0
M  V30 7645 H 739.782 0.48074 6.08705 0
M  V30 7646 H 741.196 2.5442 5.13754 0
M  V30 7647 H 739.593 3.32282 4.99709 0
M  V30 7648 H 740.663 3.26537 3.58471 0
M  V30 7649 N 742.006 -1.2595 0.947325 0
M  V30 7650 C 742.969 -2.24407 0.466285 0
M  V30 7651 C 743.969 -1.55054 -0.426005 0
M  V30 7652 O 745.159 -1.7275 -0.224319 0
M  V30 7653 C 742.291 -3.39326 -0.327201 0
M  V30 7654 H 743.484 -2.68477 1.33642 0
M  V30 7655 H 741.037 -1.38211 0.729887 0
M  V30 7656 H 741.772 -3.00667 -1.21532 0
M  V30 7657 H 741.557 -3.9085 0.312839 0
M  V30 7658 H 743.047 -4.12455 -0.653477 0
M  V30 7659 N 743.484 -0.715051 -1.40445 0
M  V30 7660 C 744.731 -0.254328 -2.00897 0
M  V30 7661 C 745.059 1.15228 -1.56693 0
M  V30 7662 O 744.314 1.7958 -0.777786 0
M  V30 7663 C 744.613 -0.281791 -3.56287 0
M  V30 7664 C 744.279 -1.63862 -4.20071 0
M  V30 7665 C 742.941 -2.01003 -4.37208 0
M  V30 7666 C 745.293 -2.53039 -4.55654 0
M  V30 7667 C 742.621 -3.26869 -4.8721 0
M  V30 7668 C 744.973 -3.78256 -5.07055 0
M  V30 7669 C 743.637 -4.15515 -5.22401 0
M  V30 7670 H 742.907 -0.0930652 -0.735133 0
M  V30 7671 H 745.554 -0.917977 -1.68064 0
M  V30 7672 H 743.859 0.465428 -3.89026 0
M  V30 7673 H 745.556 0.0925158 -4.00893 0
M  V30 7674 H 742.146 -1.33979 -4.07121 0
M  V30 7675 H 746.33 -2.2562 -4.42051 0
M  V30 7676 H 741.586 -3.55706 -4.97276 0
M  V30 7677 H 745.76 -4.47528 -5.33565 0
M  V30 7678 H 743.387 -5.13114 -5.60909 0
M  V30 7679 N 744.962 1.50701 -0.461195 0
M  V30 7680 C 746.19 2.06681 0.0951756 0
M  V30 7681 C 746.605 1.32615 1.34382 0
M  V30 7682 O 745.962 0.392531 1.78229 0
M  V30 7683 C 746.013 3.59354 0.393316 0
M  V30 7684 O 745.734 4.30626 -0.805797 0
M  V30 7685 C 747.235 4.31926 0.997744 0
M  V30 7686 H 744.455 0.670995 -0.00267259 0
M  V30 7687 H 746.999 1.93991 -0.647137 0
M  V30 7688 H 745.154 3.7188 1.08555 0
M  V30 7689 H 745.568 5.21667 -0.544409 0
M  V30 7690 H 747.042 5.39756 1.15619 0
M  V30 7691 H 747.519 3.91772 1.98523 0
M  V30 7692 H 748.125 4.23905 0.344188 0
M  V30 7693 N 746.441 0.193421 1.56409 0
M  V30 7694 C 747.666 -0.454552 2.02358 0
M  V30 7695 C 748.091 -1.54516 1.07268 0
M  V30 7696 O 747.449 -1.81214 0.0558962 0
M  V30 7697 C 747.497 -0.989469 3.46759 0
M  V30 7698 O 746.601 -2.10244 3.54783 0
M  V30 7699 H 745.942 -0.106417 0.655417 0
M  V30 7700 H 748.472 0.303807 2.02332 0
M  V30 7701 H 748.482 -1.30649 3.86516 0
M  V30 7702 H 747.157 -0.191083 4.15461 0
M  V30 7703 H 745.734 -1.79419 3.26899 0
M  V30 7704 N 747.919 -1.57396 -0.0801906 0
M  V30 7705 C 749.165 -1.87113 -0.782083 0
M  V30 7706 C 749.498 -0.78458 -1.77646 0
M  V30 7707 O 748.773 0.205993 -1.93406 0
M  V30 7708 C 749.056 -3.27483 -1.49756 0
M  V30 7709 C 748.909 -4.46782 -0.520171 0
M  V30 7710 C 750.228 -3.65965 -2.44454 0
M  V30 7711 H 747.347 -0.680559 -0.282858 0
M  V30 7712 H 749.989 -1.89946 -0.0454139 0
M  V30 7713 H 748.139 -3.25199 -2.12551 0
M  V30 7714 H 749.811 -4.61187 0.101919 0
M  V30 7715 H 748.054 -4.33485 0.165219 0
M  V30 7716 H 748.725 -5.41761 -1.05824 0
M  V30 7717 H 751.201 -3.69289 -1.91742 0
M  V30 7718 H 750.077 -4.65086 -2.91524 0
M  V30 7719 H 750.338 -2.95446 -3.28883 0
M  V30 7720 N 749.397 0.351382 -1.53633 0
M  V30 7721 C 750.645 1.09034 -1.70165 0
M  V30 7722 C 750.966 1.89413 -0.463422 0
M  V30 7723 O 750.236 1.888 0.522624 0
M  V30 7724 H 748.816 0.405522 -0.627344 0
M  V30 7725 H 751.478 0.394554 -1.90865 0
M  V30 7726 H 750.574 1.77215 -2.56907 0
M  V30 7727 N 750.875 1.45233 0.611969 0
M  V30 7728 C 752.152 1.39495 1.37115 0
M  V30 7729 C 752.532 0.0633303 2.11005 0
M  V30 7730 O 751.88 -0.954617 2.07604 0
M  V30 7731 C 752.09 2.60579 2.32163 0
M  V30 7732 C 753.438 3.05477 2.94905 0
M  V30 7733 O 754.462 2.60921 2.42485 0
M  V30 7734 O 753.321 3.82787 3.90047 0
M  V30 7735 H 750.415 0.55335 0.614599 0
M  V30 7736 H 752.961 1.57355 0.635423 0
M  V30 7737 H 751.733 3.49085 1.76793 0
M  V30 7738 H 751.356 2.45031 3.13122 0
M  V30 7739 N 752.353 -0.854086 1.3245 0
M  V30 7740 C 753.601 -1.60513 1.228 0
M  V30 7741 C 753.922 -1.93865 -0.210073 0
M  V30 7742 O 753.192 -1.59673 -1.13496 0
M  V30 7743 H 751.772 -0.595099 0.451516 0
M  V30 7744 H 754.434 -1.0216 1.6598 0
M  V30 7745 H 753.53 -2.54182 1.81102 0
M  V30 7746 N 753.831 -1.1567 -1.07043 0
M  V30 7747 C 755.242 -0.942408 -1.61169 0
M  V30 7748 C 755.593 0.515537 -1.89306 0
M  V30 7749 O 754.718 1.38726 -1.66084 0
M  V30 7750 C 755.313 -1.70431 -2.92812 0
M  V30 7751 C 753.872 -1.53521 -3.43669 0
M  V30 7752 C 753.019 -1.7179 -2.17678 0
M  V30 7753 H 755.97 -1.3065 -0.9009 0
M  V30 7754 H 755.991 -1.17566 -3.61882 0
M  V30 7755 H 755.503 -2.76538 -2.72302 0
M  V30 7756 H 753.604 -0.498224 -3.69254 0
M  V30 7757 H 753.717 -2.31422 -4.19501 0
M  V30 7758 H 752.081 -1.14468 -2.27529 0
M  V30 7759 H 752.864 -2.79269 -1.99659 0
M  V30 7760 N 755.309 1.25446 -0.953992 0
M  V30 7761 C 756.239 2.28264 -0.491717 0
M  V30 7762 C 757.22 1.63717 0.461617 0
M  V30 7763 O 758.405 1.90821 0.36071 0
M  V30 7764 C 755.535 3.46525 0.231915 0
M  V30 7765 C 754.489 4.23247 -0.636098 0
M  V30 7766 C 753.815 5.34254 0.218238 0
M  V30 7767 C 755.115 4.85971 -1.91389 0
M  V30 7768 H 756.809 2.67183 -1.35106 0
M  V30 7769 H 754.355 1.2844 -0.651095 0
M  V30 7770 H 756.308 4.17576 0.566439 0
M  V30 7771 H 755.032 3.06594 1.12551 0
M  V30 7772 H 753.691 3.53978 -0.953696 0
M  V30 7773 H 753.339 4.90564 1.11156 0
M  V30 7774 H 753.039 5.86501 -0.359232 0
M  V30 7775 H 754.563 6.08138 0.547743 0
M  V30 7776 H 755.977 5.49168 -1.64581 0
M  V30 7777 H 754.374 5.48391 -2.43696 0
M  V30 7778 H 755.444 4.08192 -2.61738 0
M  V30 7779 N 756.787 0.722489 1.40064 0
M  V30 7780 C 758.012 0.273446 2.05589 0
M  V30 7781 C 758.437 -1.07875 1.54093 0
M  V30 7782 O 757.795 -1.68095 0.679252 0
M  V30 7783 C 757.843 0.271023 3.5958 0
M  V30 7784 O 756.947 -0.745499 4.05606 0
M  V30 7785 H 756.288 0.126856 0.65177 0
M  V30 7786 H 758.818 0.984906 1.79334 0
M  V30 7787 H 758.828 0.111084 4.07849 0
M  V30 7788 H 757.503 1.25776 3.96425 0
M  V30 7789 H 756.08 -0.552719 3.68781 0
M  V30 7790 N 758.265 -1.50454 0.469181 0
M  V30 7791 C 759.542 -1.9504 -0.147955 0
M  V30 7792 C 759.922 -1.40946 -1.57154 0
M  V30 7793 O 759.27 -0.609663 -2.20217 0
M  V30 7794 C 759.48 -3.48875 -0.0932198 0
M  V30 7795 C 760.828 -4.23655 -0.283056 0
M  V30 7796 O 761.852 -3.55795 -0.169892 0
M  V30 7797 O 760.711 -5.44102 -0.511396 0
M  V30 7798 H 757.805 -0.819283 -0.11271 0
M  V30 7799 H 760.351 -1.6123 0.529446 0
M  V30 7800 H 759.123 -3.80791 0.900784 0
M  V30 7801 H 758.746 -3.89217 -0.812161 0
M  V30 7802 N 759.743 -0.201713 -1.56304 0
M  V30 7803 C 761.154 0.309711 -1.84113 0
M  V30 7804 C 761.505 1.60912 -1.12258 0
M  V30 7805 O 760.63 2.12937 -0.385587 0
M  V30 7806 C 761.225 0.568706 -3.33993 0
M  V30 7807 C 759.784 1.02448 -3.6219 0
M  V30 7808 C 758.931 0.0766842 -2.77194 0
M  V30 7809 H 761.882 -0.425356 -1.52893 0
M  V30 7810 H 761.903 1.41721 -3.53122 0
M  V30 7811 H 761.415 -0.37719 -3.86263 0
M  V30 7812 H 759.516 1.98443 -3.15359 0
M  V30 7813 H 759.629 0.912619 -4.70328 0
M  V30 7814 H 757.993 0.579809 -2.48013 0
M  V30 7815 H 758.776 -0.863774 -3.32256 0
M  V30 7816 N 761.222 1.57436 0.0718424 0
M  V30 7817 C 762.471 1.86431 0.769826 0
M  V30 7818 C 762.784 0.794355 1.78744 0
M  V30 7819 O 763.99 0.972148 2.53499 0
M  V30 7820 C 762.446 3.307 1.42006 0
M  V30 7821 C 762.054 4.45824 0.441017 0
M  V30 7822 C 763.798 3.68894 2.10041 0
M  V30 7823 C 761.705 5.81134 1.09717 0
M  V30 7824 H 760.635 0.695474 0.291259 0
M  V30 7825 H 763.286 1.83485 0.0231224 0
M  V30 7826 H 761.668 3.28257 2.21502 0
M  V30 7827 H 762.842 4.59659 -0.32413 0
M  V30 7828 H 761.157 4.16181 -0.134886 0
M  V30 7829 H 763.754 4.67281 2.59908 0
M  V30 7830 H 764.097 2.98692 2.89981 0
M  V30 7831 H 764.63 3.73326 1.37376 0
M  V30 7832 H 761.369 6.54628 0.338095 0
M  V30 7833 H 760.889 5.711 1.83317 0
M  V30 7834 H 762.568 6.26468 1.617 0
M  V30 7835 N 762.7 -0.34323 1.53817 0
M  V30 7836 C 763.632 -1.44216 1.78141 0
M  V30 7837 C 764.645 -1.48701 0.662721 0
M  V30 7838 O 765.834 -1.51778 0.939458 0
M  V30 7839 C 762.934 -2.82872 1.86646 0
M  V30 7840 C 762.107 -3.01824 3.16577 0
M  V30 7841 C 761.166 -4.20723 3.16036 0
M  V30 7842 O 760.192 -4.14824 3.89756 0
M  V30 7843 N 761.394 -5.29276 2.38427 0
M  V30 7844 H 764.159 -1.23721 2.72971 0
M  V30 7845 H 761.72 -0.53311 1.52871 0
M  V30 7846 H 763.712 -3.60588 1.83735 0
M  V30 7847 H 762.282 -2.96509 0.990014 0
M  V30 7848 H 761.502 -2.11575 3.3261 0
M  V30 7849 H 762.79 -3.11369 4.02402 0
M  V30 7850 H 762.188 -5.36938 1.78085 0
M  V30 7851 H 760.745 -6.05484 2.41313 0
M  V30 7852 N 764.178 -1.45556 -0.604258 0
M  V30 7853 C 765.424 -1.49968 -1.36519 0
M  V30 7854 C 765.757 -0.142236 -1.93678 0
M  V30 7855 O 765.032 0.843717 -1.75247 0
M  V30 7856 C 765.315 -2.58146 -2.51063 0
M  V30 7857 C 765.168 -4.03346 -1.99078 0
M  V30 7858 C 766.487 -2.62581 -3.53184 0
M  V30 7859 H 763.606 -0.545993 -0.495036 0
M  V30 7860 H 766.248 -1.77382 -0.680845 0
M  V30 7861 H 764.398 -2.34901 -3.09441 0
M  V30 7862 H 766.07 -4.37811 -1.45323 0
M  V30 7863 H 764.313 -4.13845 -1.30055 0
M  V30 7864 H 764.984 -4.74731 -2.81664 0
M  V30 7865 H 767.46 -2.83419 -3.04652 0
M  V30 7866 H 766.336 -3.40131 -4.30816 0
M  V30 7867 H 766.597 -1.67798 -4.09019 0
M  V30 7868 N 765.656 0.84705 -1.32902 0
M  V30 7869 C 766.603 1.95624 -1.22473 0
M  V30 7870 C 767.573 1.65767 -0.105178 0
M  V30 7871 O 768.758 1.88704 -0.282042 0
M  V30 7872 C 765.898 3.31434 -0.961542 0
M  V30 7873 C 765.011 3.73741 -2.1666 0
M  V30 7874 C 764.146 4.98379 -1.83825 0
M  V30 7875 C 763.185 5.33199 -3.00609 0
M  V30 7876 N 762.322 6.49014 -2.67816 0
M  V30 7877 H 767.162 2.03875 -2.17345 0
M  V30 7878 H 764.699 0.997764 -1.08088 0
M  V30 7879 H 766.657 4.09663 -0.789411 0
M  V30 7880 H 765.287 3.22762 -0.0495938 0
M  V30 7881 H 764.339 2.91102 -2.44875 0
M  V30 7882 H 765.651 3.95462 -3.03993 0
M  V30 7883 H 764.805 5.84336 -1.63208 0
M  V30 7884 H 763.544 4.78611 -0.937172 0
M  V30 7885 H 762.549 4.4575 -3.21849 0
M  V30 7886 H 763.774 5.5492 -3.9146 0
M  V30 7887 H 761.72 6.30748 -1.80258 0
M  V30 7888 H 761.637 6.7079 -3.48679 0
M  V30 7889 H 762.905 7.38103 -2.50647 0
M  V30 7890 N 767.134 1.16236 1.06428 0
M  V30 7891 C 768.362 0.967184 1.82902 0
M  V30 7892 C 768.777 -0.484601 1.82475 0
M  V30 7893 O 768.134 -1.33631 1.24294 0
M  V30 7894 C 768.185 1.48534 3.29576 0
M  V30 7895 O 767.906 2.88026 3.3011 0
M  V30 7896 C 769.407 1.33298 4.22784 0
M  V30 7897 H 766.627 0.342923 0.576754 0
M  V30 7898 H 769.171 1.54232 1.34286 0
M  V30 7899 H 767.326 0.952513 3.75508 0
M  V30 7900 H 767.74 3.11721 4.21818 0
M  V30 7901 H 769.214 1.74385 5.23731 0
M  V30 7902 H 769.691 0.278356 4.38317 0
M  V30 7903 H 770.297 1.85535 3.82697 0
M  V30 7904 N 768.612 -1.24939 0.960631 0
M  V30 7905 C 769.544 -2.24879 0.442937 0
M  V30 7906 C 770.557 -1.56615 -0.444464 0
M  V30 7907 O 771.746 -1.76715 -0.251776 0
M  V30 7908 C 768.846 -3.36757 -0.380537 0
M  V30 7909 C 768.019 -4.34587 0.495283 0
M  V30 7910 C 767.078 -5.25502 -0.270995 0
M  V30 7911 O 766.104 -5.68227 0.332661 0
M  V30 7912 N 767.306 -5.59077 -1.56249 0
M  V30 7913 H 770.071 -2.69932 1.30218 0
M  V30 7914 H 767.632 -1.38907 0.83166 0
M  V30 7915 H 769.624 -3.94542 -0.90103 0
M  V30 7916 H 768.194 -2.91045 -1.14067 0
M  V30 7917 H 767.414 -3.75593 1.19682 0
M  V30 7918 H 768.702 -4.96925 1.09285 0
M  V30 7919 H 768.1 -5.2628 -2.07476 0
M  V30 7920 H 766.657 -6.19421 -2.02882 0
M  V30 7921 N 770.09 -0.729906 -1.39679 0
M  V30 7922 C 771.022 -0.0470588 -2.29152 0
M  V30 7923 C 772.035 0.708808 -1.4656 0
M  V30 7924 O 773.224 0.553815 -1.69691 0
M  V30 7925 C 770.324 0.957612 -3.25089 0
M  V30 7926 C 769.497 0.264321 -4.36601 0
M  V30 7927 C 768.556 1.17638 -5.12882 0
M  V30 7928 O 767.582 0.655777 -5.6541 0
M  V30 7929 N 768.784 2.50649 -5.23598 0
M  V30 7930 H 771.549 -0.815364 -2.88395 0
M  V30 7931 H 769.11 -0.578707 -1.51204 0
M  V30 7932 H 771.102 1.57026 -3.72995 0
M  V30 7933 H 769.672 1.62716 -2.66912 0
M  V30 7934 H 768.892 -0.528732 -3.90638 0
M  V30 7935 H 770.18 -0.216344 -5.0834 0
M  V30 7936 H 769.578 2.95427 -4.82431 0
M  V30 7937 H 768.135 3.07022 -5.74961 0
M  V30 7938 N 771.568 1.50203 -0.477153 0
M  V30 7939 C 772.816 2.01959 0.0755889 0
M  V30 7940 C 773.137 1.3608 1.39668 0
M  V30 7941 O 772.407 0.508136 1.89195 0
M  V30 7942 H 770.987 0.74636 0.0309248 0
M  V30 7943 H 773.649 1.84473 -0.628959 0
M  V30 7944 H 772.745 3.11305 0.222683 0
M  V30 7945 N 773.046 0.209999 1.56195 0
M  V30 7946 C 774.292 -0.425442 1.98287 0
M  V30 7947 C 774.625 -1.60232 1.09724 0
M  V30 7948 O 773.9 -1.93902 0.152414 0
M  V30 7949 C 774.183 -0.871189 3.49403 0
M  V30 7950 C 774.036 0.308527 4.48741 0
M  V30 7951 C 775.355 -1.73146 4.04609 0
M  V30 7952 H 772.474 -0.153169 0.720908 0
M  V30 7953 H 775.116 0.303916 1.87554 0
M  V30 7954 H 773.266 -1.49266 3.58681 0
M  V30 7955 H 774.938 0.946487 4.51486 0
M  V30 7956 H 773.181 0.957878 4.23092 0
M  V30 7957 H 773.852 -0.0461143 5.51981 0
M  V30 7958 H 776.328 -1.2072 3.98203 0
M  V30 7959 H 775.204 -2.01228 5.10684 0
M  V30 7960 H 775.465 -2.69083 3.5078 0
M  V30 7961 N 774.524 -1.57472 -0.0634922 0
M  V30 7962 C 775.935 -1.76303 -0.614337 0
M  V30 7963 C 776.286 -0.836578 -1.77471 0
M  V30 7964 O 775.411 -0.0227184 -2.16388 0
M  V30 7965 C 776.006 -3.19709 -1.12122 0
M  V30 7966 C 774.565 -3.39856 -1.61786 0
M  V30 7967 C 773.712 -2.71975 -0.540845 0
M  V30 7968 H 776.663 -1.57864 0.162702 0
M  V30 7969 H 776.684 -3.24326 -1.98979 0
M  V30 7970 H 776.196 -3.87114 -0.276472 0
M  V30 7971 H 774.297 -2.77578 -2.48558 0
M  V30 7972 H 774.41 -4.48338 -1.68908 0
M  V30 7973 H 772.774 -2.34763 -0.987854 0
M  V30 7974 H 773.557 -3.4204 0.293856 0
M  V30 7975 N 776.003 0.335068 -1.53997 0
M  V30 7976 C 777.251 1.07223 -1.71312 0
M  V30 7977 C 777.572 1.88911 -0.483486 0
M  V30 7978 O 776.842 1.89344 0.50257 0
M  V30 7979 H 775.422 0.398846 -0.63161 0
M  V30 7980 H 778.084 0.374288 -1.91272 0
M  V30 7981 H 777.18 1.7448 -2.58772 0
M  V30 7982 N 777.481 1.45874 0.596531 0
M  V30 7983 C 778.413 1.51408 1.7207 0
M  V30 7984 C 779.426 0.403738 1.57714 0
M  V30 7985 O 780.615 0.671384 1.65393 0
M  V30 7986 C 777.715 1.3652 3.10186 0
M  V30 7987 C 776.888 2.61428 3.50677 0
M  V30 7988 C 775.947 2.40937 4.67799 0
M  V30 7989 O 774.973 3.14602 4.74357 0
M  V30 7990 N 776.175 1.4621 5.61785 0
M  V30 7991 H 778.94 2.48333 1.67782 0
M  V30 7992 H 776.501 1.41755 0.782129 0
M  V30 7993 H 778.493 1.20606 3.86311 0
M  V30 7994 H 777.063 0.478302 3.08919 0
M  V30 7995 H 776.283 2.92381 2.644 0
M  V30 7996 H 777.571 3.44432 3.74491 0
M  V30 7997 H 776.969 0.854382 5.59211 0
M  V30 7998 H 775.526 1.36264 6.37397 0
M  V30 7999 N 778.959 -0.83999 1.33349 0
M  V30 8000 C 780.37 -1.41139 1.22216 0
M  V30 8001 C 780.721 -1.95551 -0.159398 0
M  V30 8002 O 779.846 -1.88721 -1.05893 0
M  V30 8003 C 780.441 -2.56564 2.21269 0
M  V30 8004 C 779 -3.09661 2.13979 0
M  V30 8005 C 778.147 -1.82457 2.08818 0
M  V30 8006 H 781.098 -0.645853 1.44964 0
M  V30 8007 H 781.119 -3.34163 1.81976 0
M  V30 8008 H 780.631 -2.16932 3.21811 0
M  V30 8009 H 778.732 -3.53841 1.16736 0
M  V30 8010 H 778.845 -3.6991 3.04472 0
M  V30 8011 H 777.209 -2.0266 1.54276 0
M  V30 8012 H 777.992 -1.45022 3.11165 0
M  V30 8013 N 780.437 -1.16799 -1.0581 0
M  V30 8014 C 781.37 -0.822491 -2.12862 0
M  V30 8015 C 782.348 0.208006 -1.61264 0
M  V30 8016 O 783.532 0.0909652 -1.8828 0
M  V30 8017 C 780.659 -0.225826 -3.37946 0
M  V30 8018 C 779.705 -1.23071 -4.08357 0
M  V30 8019 S 780.538 -2.77944 -4.5772 0
M  V30 8020 C 781.694 -2.19741 -5.86059 0
M  V30 8021 H 781.927 -1.72917 -2.41841 0
M  V30 8022 H 779.46 -0.991982 -1.18318 0
M  V30 8023 H 781.418 0.111955 -4.10347 0
M  V30 8024 H 780.079 0.658692 -3.07116 0
M  V30 8025 H 779.272 -0.761758 -4.9821 0
M  V30 8026 H 778.874 -1.51383 -3.41993 0
M  V30 8027 H 781.166 -1.5691 -6.59079 0
M  V30 8028 H 782.109 -3.07823 -6.37692 0
M  V30 8029 H 782.517 -1.63433 -5.40324 0
M  V30 8030 N 781.915 1.24427 -0.967243 0
M  V30 8031 C 782.863 2.27403 -0.488927 0
M  V30 8032 C 783.857 1.63388 0.447302 0
M  V30 8033 O 785.063 1.77085 0.322643 0
M  V30 8034 H 781.438 0.738921 -0.139643 0
M  V30 8035 H 783.409 2.65122 -1.36942 0
M  V30 8036 C 782.158 3.4709 0.205787 0
M  V30 8037 H 781.481 3.96591 -0.50551 0
M  V30 8038 H 782.921 4.2099 0.504296 0
M  V30 8039 C 781.38 3.04923 1.43261 0
M  V30 8040 O 781.91 3.12043 2.52967 0
M  V30 8041 N 780.116 2.59976 1.29849 0
M  V30 8042 H 779.663 2.54382 0.405876 0
M  V30 8043 H 779.621 2.32128 2.12047 0
M  V30 8044 N 783.393 0.737304 1.3929 0
M  V30 8045 C 784.323 0.113988 2.33222 0
M  V30 8046 C 785.304 -0.721695 1.54031 0
M  V30 8047 O 786.489 -0.666206 1.82415 0
M  V30 8048 C 783.619 -0.792319 3.38141 0
M  V30 8049 C 782.573 -0.0606178 4.27957 0
M  V30 8050 C 781.899 -1.08409 5.23595 0
M  V30 8051 C 783.199 1.09817 5.10625 0
M  V30 8052 H 784.893 0.898611 2.85596 0
M  V30 8053 H 782.439 0.433571 1.37318 0
M  V30 8054 H 784.392 -1.23793 4.02807 0
M  V30 8055 H 783.116 -1.60908 2.84211 0
M  V30 8056 H 781.775 0.365393 3.64775 0
M  V30 8057 H 781.423 -1.89449 4.6596 0
M  V30 8058 H 781.123 -0.599269 5.84536 0
M  V30 8059 H 782.647 -1.52936 5.91137 0
M  V30 8060 H 784.061 0.730892 5.68622 0
M  V30 8061 H 782.458 1.51278 5.80719 0
M  V30 8062 H 783.528 1.91878 4.45321 0
M  V30 8063 N 784.871 -1.49948 0.485112 0
M  V30 8064 C 786.287 -1.58984 0.140096 0
M  V30 8065 C 786.487 -1.49194 -1.35438 0
M  V30 8066 O 785.543 -1.35765 -2.12894 0
M  V30 8067 C 786.856 -2.92372 0.702769 0
M  V30 8068 C 788.404 -3.05801 0.66745 0
M  V30 8069 C 788.879 -4.41785 1.20791 0
M  V30 8070 N 790.37 -4.48234 1.16792 0
M  V30 8071 C 791.105 -5.51871 1.55646 0
M  V30 8072 N 790.601 -6.62692 2.02016 0
M  V30 8073 N 792.394 -5.42494 1.47161 0
M  V30 8074 H 784.545 -1.54555 1.45693 0
M  V30 8075 H 786.808 -0.731206 0.603359 0
M  V30 8076 H 786.514 -3.05056 1.75025 0
M  V30 8077 H 786.388 -3.76885 0.154205 0
M  V30 8078 H 788.775 -2.92757 -0.371157 0
M  V30 8079 H 788.856 -2.23011 1.25298 0
M  V30 8080 H 788.5 -4.55579 2.24522 0
M  V30 8081 H 788.43 -5.23188 0.598464 0
M  V30 8082 H 790.921 -3.68718 0.827982 0
M  V30 8083 H 791.234 -7.3785 2.29775 0
M  V30 8084 H 789.579 -6.63775 2.05979 0
M  V30 8085 H 792.77 -4.54806 1.10765 0
M  V30 8086 H 792.943 -6.2314 1.77766 0
M  V30 8087 N 786.349 -0.21828 -1.56081 0
M  V30 8088 C 787.312 0.679633 -2.18892 0
M  V30 8089 C 788.312 1.12405 -1.14986 0
M  V30 8090 O 789.502 1.03339 -1.40238 0
M  V30 8091 C 786.634 1.93063 -2.80962 0
M  V30 8092 H 787.827 0.132066 -2.99609 0
M  V30 8093 H 785.38 0.0313374 -1.56269 0
M  V30 8094 H 786.115 2.52015 -2.04106 0
M  V30 8095 H 785.9 1.62046 -3.57048 0
M  V30 8096 H 787.39 2.57043 -3.29118 0
M  V30 8097 N 787.827 1.57504 0.0551401 0
M  V30 8098 C 788.737 2.08198 1.08124 0
M  V30 8099 C 789.753 1.01496 1.41331 0
M  V30 8100 O 790.929 1.33073 1.51174 0
M  V30 8101 C 787.994 2.52968 2.37083 0
M  V30 8102 C 787.055 3.7404 2.10696 0
M  V30 8103 C 786.288 4.16665 3.33505 0
M  V30 8104 O 786.511 3.59019 4.4324 0
M  V30 8105 O 785.445 5.09324 3.20737 0
M  V30 8106 H 789.271 2.95977 0.680518 0
M  V30 8107 H 786.856 1.46933 0.270401 0
M  V30 8108 H 788.738 2.82211 3.12946 0
M  V30 8109 H 787.413 1.6831 2.76502 0
M  V30 8110 H 786.32 3.49855 1.32484 0
M  V30 8111 H 787.653 4.59601 1.76148 0
M  V30 8112 N 789.305 -0.326896 1.54172 0
M  V30 8113 C 790.268 -1.38515 1.8261 0
M  V30 8114 C 791.268 -1.44872 0.697771 0
M  V30 8115 O 792.458 -1.44957 0.966078 0
M  V30 8116 C 789.59 -2.77281 1.98313 0
M  V30 8117 H 790.783 -1.14556 2.77159 0
M  V30 8118 H 788.336 -0.562199 1.45839 0
M  V30 8119 H 789.071 -3.065 1.05964 0
M  V30 8120 H 788.856 -2.74061 2.80416 0
M  V30 8121 H 790.346 -3.53845 2.21773 0
M  V30 8122 N 790.784 -1.46188 -0.588786 0
M  V30 8123 C 792.2 -1.31009 -0.911524 0
M  V30 8124 C 792.4 -0.277017 -1.99587 0
M  V30 8125 O 791.456 0.322532 -2.50432 0
M  V30 8126 C 792.769 -2.69459 -1.33463 0
M  V30 8127 C 794.317 -2.77502 -1.44782 0
M  V30 8128 C 794.792 -4.1652 -1.90461 0
M  V30 8129 N 796.283 -4.18907 -1.97665 0
M  V30 8130 C 797.018 -5.23359 -2.34271 0
M  V30 8131 N 796.514 -6.38143 -2.69714 0
M  V30 8132 N 798.307 -5.10723 -2.34774 0
M  V30 8133 H 790.458 -2.12016 0.127614 0
M  V30 8134 H 792.721 -0.947984 -0.00557599 0
M  V30 8135 H 792.427 -3.46336 -0.611929 0
M  V30 8136 H 792.301 -2.99165 -2.2974 0
M  V30 8137 H 794.688 -2.00917 -2.1614 0
M  V30 8138 H 794.769 -2.51488 -0.467724 0
M  V30 8139 H 794.413 -4.93597 -1.19684 0
M  V30 8140 H 794.343 -4.39937 -2.89418 0
M  V30 8141 H 796.834 -3.36084 -1.72789 0
M  V30 8142 H 797.147 -7.13624 -2.96582 0
M  V30 8143 H 795.492 -6.41514 -2.67366 0
M  V30 8144 H 798.683 -4.20088 -2.06503 0
M  V30 8145 H 798.856 -5.9224 -2.62975 0
M  V30 8146 N 792.262 0.832906 -1.33792 0
M  V30 8147 C 793.487 1.62568 -1.28788 0
M  V30 8148 C 793.912 1.87599 0.137246 0
M  V30 8149 O 793.27 1.44436 1.0958 0
M  V30 8150 C 793.318 2.9495 -2.07453 0
M  V30 8151 O 792.422 3.86546 -1.43722 0
M  V30 8152 H 791.763 0.494809 -0.442787 0
M  V30 8153 H 794.293 1.03578 -1.76445 0
M  V30 8154 H 794.303 3.44599 -2.1844 0
M  V30 8155 H 792.978 2.76055 -3.11073 0
M  V30 8156 H 791.555 3.45044 -1.41417 0
M  V30 8157 N 793.74 1.17359 1.05189 0
M  V30 8158 C 794.65 0.904984 2.16442 0
M  V30 8159 C 795.666 -0.12686 1.73537 0
M  V30 8160 O 796.842 0.0524127 2.01332 0
M  V30 8161 C 793.907 0.422019 3.44122 0
M  V30 8162 C 792.968 1.52045 4.01473 0
M  V30 8163 C 792.201 1.06044 5.23059 0
M  V30 8164 O 792.424 -0.0854023 5.70336 0
M  V30 8165 O 791.358 1.85349 5.72651 0
M  V30 8166 H 795.184 1.8356 2.41949 0
M  V30 8167 H 792.769 0.95447 1.14936 0
M  V30 8168 H 794.651 0.160208 4.21095 0
M  V30 8169 H 793.326 -0.480444 3.20115 0
M  V30 8170 H 792.233 1.83615 3.25939 0
M  V30 8171 H 793.566 2.39863 4.29798 0
M  V30 8172 N 795.218 -1.23913 0.973828 0
M  V30 8173 C 796.446 -1.96195 0.656891 0
M  V30 8174 C 796.861 -1.72166 -0.774876 0
M  V30 8175 O 796.218 -1.0091 -1.52064 0
M  V30 8176 C 796.269 -3.49342 0.929638 0
M  V30 8177 O 795.99 -3.72553 2.30512 0
M  V30 8178 C 797.491 -4.38833 0.627739 0
M  V30 8179 H 794.711 -0.624841 0.244572 0
M  V30 8180 H 797.255 -1.57579 1.30343 0
M  V30 8181 H 795.41 -3.85999 0.329216 0
M  V30 8182 H 795.824 -4.66893 2.3898 0
M  V30 8183 H 797.298 -5.45117 0.868991 0
M  V30 8184 H 797.775 -4.37009 -0.438104 0
M  V30 8185 H 798.381 -4.07773 1.20834 0
M  V30 8186 N 796.696 -0.74468 -1.38897 0
M  V30 8187 C 797.921 -0.306119 -2.05128 0
M  V30 8188 C 798.346 1.0541 -1.55789 0
M  V30 8189 O 797.704 1.66993 -0.705909 0
M  V30 8190 C 797.752 -0.328195 -3.59103 0
M  V30 8191 O 796.856 0.680876 -4.06741 0
M  V30 8192 H 796.197 -0.137209 -0.649669 0
M  V30 8193 H 798.727 -1.01331 -1.77745 0
M  V30 8194 H 798.737 -0.175956 -4.0762 0
M  V30 8195 H 797.412 -1.32067 -3.94374 0
M  V30 8196 H 795.989 0.49398 -3.69614 0
M  V30 8197 N 798.174 1.49689 -0.493057 0
M  V30 8198 C 799.423 2.01622 0.0560733 0
M  V30 8199 C 799.736 1.37838 1.3878 0
M  V30 8200 O 800.942 1.81054 2.02316 0
M  V30 8201 C 799.398 3.59586 0.150409 0
M  V30 8202 C 799.006 4.32338 -1.1742 0
M  V30 8203 C 800.75 4.19489 0.650327 0
M  V30 8204 C 798.657 5.8214 -1.04246 0
M  V30 8205 H 797.587 0.753594 0.0247297 0
M  V30 8206 H 800.238 1.723 -0.631279 0
M  V30 8207 H 798.62 3.8559 0.902035 0
M  V30 8208 H 799.794 4.18042 -1.9385 0
M  V30 8209 H 798.109 3.84144 -1.60694 0
M  V30 8210 H 800.706 5.29181 0.766272 0
M  V30 8211 H 801.049 3.82326 1.6472 0
M  V30 8212 H 801.582 3.97775 -0.0445371 0
M  V30 8213 H 798.321 6.23814 -2.01336 0
M  V30 8214 H 797.841 5.98952 -0.31892 0
M  V30 8215 H 799.52 6.43004 -0.717957 0
M  V30 8216 N 799.652 0.226554 1.55963 0
M  V30 8217 C 800.88 -0.408507 2.02827 0
M  V30 8218 C 801.295 -1.52994 1.10627 0
M  V30 8219 O 800.652 -1.82126 0.116809 0
M  V30 8220 C 800.703 -0.93545 3.49187 0
M  V30 8221 O 800.424 0.141273 4.37872 0
M  V30 8222 C 801.925 -1.64325 4.11719 0
M  V30 8223 H 799.145 -0.099442 0.66359 0
M  V30 8224 H 801.689 0.344471 2.01578 0
M  V30 8225 H 799.844 -1.63868 3.51036 0
M  V30 8226 H 800.258 -0.25558 5.23877 0
M  V30 8227 H 801.732 -1.9639 5.15883 0
M  V30 8228 H 802.209 -2.55815 3.57009 0
M  V30 8229 H 802.815 -0.9851 4.13734 0
M  V30 8230 N 801.13 -1.57531 -0.0467866 0
M  V30 8231 C 802.06 -2.08425 -1.05268 0
M  V30 8232 C 803.041 -0.982941 -1.38825 0
M  V30 8233 O 804.226 -1.25716 -1.48018 0
M  V30 8234 C 801.356 -2.54897 -2.35891 0
M  V30 8235 C 800.31 -3.69132 -2.16623 0
M  V30 8236 C 799.636 -4.01747 -3.52851 0
M  V30 8237 C 800.936 -4.98243 -1.56689 0
M  V30 8238 H 802.63 -2.92716 -0.62908 0
M  V30 8239 H 800.176 -1.40816 -0.301156 0
M  V30 8240 H 802.129 -2.8912 -3.06574 0
M  V30 8241 H 800.853 -1.67666 -2.80278 0
M  V30 8242 H 799.512 -3.35231 -1.48377 0
M  V30 8243 H 799.16 -3.11608 -3.94853 0
M  V30 8244 H 798.86 -4.78681 -3.4079 0
M  V30 8245 H 800.384 -4.38487 -4.24925 0
M  V30 8246 H 801.798 -5.30535 -2.17268 0
M  V30 8247 H 800.195 -5.79669 -1.55255 0
M  V30 8248 H 801.265 -4.81986 -0.530827 0
M  V30 8249 N 802.608 0.318715 -1.54344 0
M  V30 8250 C 803.833 1.07987 -1.77069 0
M  V30 8251 C 804.258 1.80766 -0.520117 0
M  V30 8252 O 803.616 1.73424 0.528566 0
M  V30 8253 C 803.664 2.04987 -2.96669 0
M  V30 8254 O 802.768 3.12974 -2.68554 0
M  V30 8255 H 802.109 0.311109 -0.586606 0
M  V30 8256 H 804.639 0.361533 -2.0138 0
M  V30 8257 H 804.649 2.47771 -3.2415 0
M  V30 8258 H 803.324 1.51417 -3.87357 0
M  V30 8259 H 801.901 2.74831 -2.52037 0
M  V30 8260 N 804.086 1.46499 0.581025 0
M  V30 8261 C 805.332 1.53108 1.33901 0
M  V30 8262 C 805.687 0.181007 1.91547 0
M  V30 8263 O 804.98 -0.810518 1.73612 0
M  V30 8264 C 805.174 2.56686 2.48691 0
M  V30 8265 C 805.003 4.01633 2.0229 0
M  V30 8266 C 803.773 4.69333 1.87228 0
M  V30 8267 C 805.971 4.89379 1.58154 0
M  V30 8268 N 803.953 5.98891 1.34917 0
M  V30 8269 C 805.324 6.08775 1.17445 0
M  V30 8270 C 807.379 4.76017 1.45987 0
M  V30 8271 C 806.082 7.16286 0.657805 0
M  V30 8272 C 808.108 5.83601 0.95726 0
M  V30 8273 C 807.47 7.02171 0.55996 0
M  V30 8274 H 803.569 0.61509 0.482896 0
M  V30 8275 H 806.153 1.83123 0.661361 0
M  V30 8276 H 804.324 2.28578 3.14017 0
M  V30 8277 H 806.056 2.5328 3.15644 0
M  V30 8278 H 802.811 4.24878 2.09226 0
M  V30 8279 H 803.235 6.67852 1.10917 0
M  V30 8280 H 807.877 3.84736 1.75322 0
M  V30 8281 H 805.595 8.07333 0.352047 0
M  V30 8282 H 809.181 5.75304 0.867007 0
M  V30 8283 H 808.061 7.84 0.177046 0
M  V30 8284 N 805.565 -0.825799 1.34232 0
M  V30 8285 C 806.79 -1.61883 1.29648 0
M  V30 8286 C 807.215 -1.87669 -0.127295 0
M  V30 8287 O 806.573 -1.45016 -1.08813 0
M  V30 8288 C 806.621 -2.93846 2.09014 0
M  V30 8289 O 805.725 -3.85778 1.4577 0
M  V30 8290 H 805.066 -0.492454 0.445405 0
M  V30 8291 H 807.596 -1.02641 1.76992 0
M  V30 8292 H 807.606 -3.43435 2.20264 0
M  V30 8293 H 806.281 -2.74401 3.12533 0
M  V30 8294 H 804.858 -3.4429 1.43245 0
M  V30 8295 N 807.043 -1.17915 -1.04565 0
M  V30 8296 C 808.454 -0.976383 -1.59134 0
M  V30 8297 C 808.805 0.475267 -1.90357 0
M  V30 8298 O 807.93 1.35172 -1.6899 0
M  V30 8299 C 808.525 -1.76604 -2.89131 0
M  V30 8300 C 807.084 -1.60777 -3.40335 0
M  V30 8301 C 806.231 -1.76369 -2.13985 0
M  V30 8302 H 809.182 -1.32532 -0.872985 0
M  V30 8303 H 809.203 -1.25215 -3.59307 0
M  V30 8304 H 808.715 -2.82252 -2.66375 0
M  V30 8305 H 806.816 -0.576436 -3.68114 0
M  V30 8306 H 806.929 -2.40268 -4.14497 0
M  V30 8307 H 805.293 -1.19268 -2.25049 0
M  V30 8308 H 806.076 -2.83441 -1.9369 0
M  V30 8309 N 808.521 1.23394 -0.980386 0
M  V30 8310 C 809.932 1.73631 -0.686239 0
M  V30 8311 C 810.283 1.79259 0.797541 0
M  V30 8312 O 809.408 1.43046 1.62379 0
M  V30 8313 C 810.003 3.15332 -1.239 0
M  V30 8314 C 808.562 3.63024 -0.994494 0
M  V30 8315 C 807.709 2.41279 -1.36673 0
M  V30 8316 H 810.66 1.08918 -1.15423 0
M  V30 8317 H 810.681 3.75556 -0.611414 0
M  V30 8318 H 810.193 3.11204 -2.31892 0
M  V30 8319 H 808.294 3.72535 0.0693492 0
M  V30 8320 H 808.407 4.49825 -1.64906 0
M  V30 8321 H 806.771 2.42295 -0.785195 0
M  V30 8322 H 807.554 2.39822 -2.45642 0
M  V30 8323 N 809.999 0.752036 1.385 0
M  V30 8324 C 811.415 0.42946 1.53713 0
M  V30 8325 C 811.615 -1.0576 1.71514 0
M  V30 8326 O 810.671 -1.84366 1.72527 0
M  V30 8327 C 811.984 1.22735 2.74511 0
M  V30 8328 C 813.532 1.21727 2.8836 0
M  V30 8329 C 814.007 1.99809 4.12117 0
M  V30 8330 N 815.498 1.97062 4.19191 0
M  V30 8331 C 816.233 2.54274 5.13938 0
M  V30 8332 N 815.729 3.20193 6.14368 0
M  V30 8333 N 817.522 2.44212 5.06277 0
M  V30 8334 H 809.673 1.71581 1.25195 0
M  V30 8335 H 811.936 0.727293 0.60807 0
M  V30 8336 H 811.642 2.28032 2.67758 0
M  V30 8337 H 811.516 0.843186 3.67655 0
M  V30 8338 H 813.903 0.172367 2.94596 0
M  V30 8339 H 813.984 1.64094 1.96232 0
M  V30 8340 H 813.628 3.0431 4.06642 0
M  V30 8341 H 813.558 1.54837 5.03322 0
M  V30 8342 H 816.049 1.49054 3.47263 0
M  V30 8343 H 816.362 3.61272 6.83156 0
M  V30 8344 H 814.707 3.24287 6.14705 0
M  V30 8345 H 817.898 1.92343 4.26757 0
M  V30 8346 H 818.071 2.89096 5.79937 0
M  V30 8347 N 811.477 -1.49425 0.500989 0
M  V30 8348 C 812.409 -2.27037 -0.314159 0
M  V30 8349 C 813.422 -1.33578 -0.930626 0
M  V30 8350 O 814.611 -1.58861 -0.813968 0
M  V30 8351 C 811.711 -3.05968 -1.45729 0
M  V30 8352 C 810.884 -4.27 -0.948135 0
M  V30 8353 C 809.943 -4.87977 -1.96888 0
M  V30 8354 O 808.969 -5.48044 -1.53743 0
M  V30 8355 N 810.171 -4.77627 -3.29928 0
M  V30 8356 H 812.936 -2.97634 0.351336 0
M  V30 8357 H 810.497 -1.58427 0.333536 0
M  V30 8358 H 812.489 -3.43634 -2.1377 0
M  V30 8359 H 811.059 -2.37978 -2.02695 0
M  V30 8360 H 810.279 -3.94091 -0.0926311 0
M  V30 8361 H 811.567 -5.0541 -0.586362 0
M  V30 8362 H 810.965 -4.29926 -3.67669 0
M  V30 8363 H 809.522 -5.19478 -3.93682 0
M  V30 8364 N 812.955 -0.234822 -1.55841 0
M  V30 8365 C 813.865 0.680828 -2.24504 0
M  V30 8366 C 814.881 1.20306 -1.25708 0
M  V30 8367 O 816.057 1.24188 -1.58554 0
M  V30 8368 C 813.122 1.86636 -2.92178 0
M  V30 8369 C 812.183 1.3848 -4.06352 0
M  V30 8370 C 811.416 2.51382 -4.70789 0
M  V30 8371 O 811.639 3.69831 -4.34259 0
M  V30 8372 O 810.573 2.21828 -5.59532 0
M  V30 8373 H 814.399 0.12583 -3.03439 0
M  V30 8374 H 811.984 -0.00381817 -1.494 0
M  V30 8375 H 813.866 2.55845 -3.34845 0
M  V30 8376 H 812.541 2.40921 -2.16192 0
M  V30 8377 H 811.448 0.660341 -3.68226 0
M  V30 8378 H 812.781 0.888177 -4.8412 0
M  V30 8379 N 814.433 1.57553 0.0384317 0
M  V30 8380 C 815.658 1.93485 0.746872 0
M  V30 8381 C 816.083 0.834069 1.68597 0
M  V30 8382 O 815.441 -0.210902 1.80069 0
M  V30 8383 C 815.489 3.28463 1.4881 0
M  V30 8384 O 814.593 3.20051 2.60079 0
M  V30 8385 H 813.934 0.632675 0.201539 0
M  V30 8386 H 816.464 2.046 -0.00329815 0
M  V30 8387 H 816.474 3.63132 1.86009 0
M  V30 8388 H 815.149 4.08147 0.799297 0
M  V30 8389 H 813.726 2.96998 2.25492 0
M  V30 8390 N 815.911 -0.310526 1.54511 0
M  V30 8391 C 817.16 -1.0445 1.72549 0
M  V30 8392 C 817.473 -1.88748 0.513172 0
M  V30 8393 O 818.679 -2.65338 0.575165 0
M  V30 8394 C 817.135 -1.90665 3.05246 0
M  V30 8395 C 816.743 -1.11415 4.33925 0
M  V30 8396 C 818.487 -2.63719 3.32645 0
M  V30 8397 C 816.394 -1.96852 5.57677 0
M  V30 8398 H 815.324 -0.393676 0.643067 0
M  V30 8399 H 817.975 -0.302003 1.80998 0
M  V30 8400 H 816.357 -2.68864 2.90737 0
M  V30 8401 H 817.531 -0.378956 4.59239 0
M  V30 8402 H 815.846 -0.499853 4.13389 0
M  V30 8403 H 818.443 -3.27974 4.223 0
M  V30 8404 H 818.786 -3.32047 2.51098 0
M  V30 8405 H 819.319 -1.92574 3.48081 0
M  V30 8406 H 816.058 -1.33009 6.41864 0
M  V30 8407 H 815.578 -2.68069 5.36562 0
M  V30 8408 H 817.257 -2.55127 5.94575 0
M  V30 8409 N 817.389 -1.46805 -0.573248 0
M  V30 8410 C 818.638 -1.51868 -1.32736 0
M  V30 8411 C 818.951 -0.178765 -1.94781 0
M  V30 8412 O 820.157 -0.107272 -2.71288 0
M  V30 8413 C 818.613 -2.67641 -2.40616 0
M  V30 8414 C 818.221 -4.08094 -1.84832 0
M  V30 8415 C 819.965 -2.81984 -3.17309 0
M  V30 8416 C 817.872 -5.15193 -2.90397 0
M  V30 8417 H 816.802 -0.56523 -0.49903 0
M  V30 8418 H 819.453 -1.7304 -0.610695 0
M  V30 8419 H 817.835 -2.39818 -3.15124 0
M  V30 8420 H 819.009 -4.45751 -1.16803 0
M  V30 8421 H 817.324 -3.985 -1.20775 0
M  V30 8422 H 819.921 -3.59166 -3.96111 0
M  V30 8423 H 820.264 -1.89842 -3.70494 0
M  V30 8424 H 820.797 -3.095 -2.4991 0
M  V30 8425 H 817.536 -6.09158 -2.42088 0
M  V30 8426 H 817.056 -4.82071 -3.56886 0
M  V30 8427 H 818.735 -5.41448 -3.54179 0
M  V30 8428 N 818.867 0.818669 -1.34668 0
M  V30 8429 C 819.814 1.92983 -1.26595 0
M  V30 8430 C 820.784 1.65506 -0.140315 0
M  V30 8431 O 821.969 1.88063 -0.322005 0
M  V30 8432 C 819.109 3.2932 -1.03163 0
M  V30 8433 C 818.222 3.69061 -2.24539 0
M  V30 8434 C 817.357 4.94368 -1.94355 0
M  V30 8435 C 816.396 5.26702 -3.11851 0
M  V30 8436 N 815.533 6.43187 -2.81522 0
M  V30 8437 H 820.373 1.99219 -2.2162 0
M  V30 8438 H 817.91 0.974612 -1.1018 0
M  V30 8439 H 819.868 4.07897 -0.87613 0
M  V30 8440 H 818.498 3.22584 -0.118045 0
M  V30 8441 H 817.55 2.85842 -2.50995 0
M  V30 8442 H 818.862 3.88924 -3.12313 0
M  V30 8443 H 818.016 5.80742 -1.75566 0
M  V30 8444 H 816.755 4.76515 -1.03848 0
M  V30 8445 H 815.76 4.38823 -3.31231 0
M  V30 8446 H 816.985 5.46492 -4.03142 0
M  V30 8447 H 814.931 6.26783 -1.93596 0
M  V30 8448 H 814.848 6.63243 -3.62829 0
M  V30 8449 H 816.116 7.32621 -2.66247 0
M  V30 8450 N 820.346 1.18468 1.03938 0
M  V30 8451 C 821.576 1.0043 1.80547 0
M  V30 8452 C 821.984 -0.450407 1.83761 0
M  V30 8453 O 821.327 -1.32463 1.27276 0
M  V30 8454 C 821.389 1.48437 3.27424 0
M  V30 8455 C 821.053 2.96372 3.47869 0
M  V30 8456 C 822.05 3.94217 3.38953 0
M  V30 8457 C 819.735 3.34831 3.74424 0
M  V30 8458 C 821.729 5.28517 3.56298 0
M  V30 8459 C 819.416 4.69294 3.91416 0
M  V30 8460 C 820.414 5.65946 3.82354 0
M  V30 8461 O 820.102 6.97974 3.98858 0
M  V30 8462 H 819.834 0.354853 0.575374 0
M  V30 8463 H 822.388 1.57473 1.31876 0
M  V30 8464 H 820.618 0.857601 3.7707 0
M  V30 8465 H 822.307 1.2677 3.85596 0
M  V30 8466 H 823.073 3.6585 3.184 0
M  V30 8467 H 818.952 2.60161 3.80575 0
M  V30 8468 H 822.496 6.03943 3.49141 0
M  V30 8469 H 818.393 4.97361 4.11463 0
M  V30 8470 H 819.161 7.04895 4.1601 0
M  V30 8471 N 821.824 -1.22873 0.986916 0
M  V30 8472 C 822.734 -2.28277 0.540978 0
M  V30 8473 C 823.75 -1.69164 -0.407363 0
M  V30 8474 O 824.926 -1.99504 -0.275674 0
M  V30 8475 C 821.991 -3.46404 -0.143181 0
M  V30 8476 C 821.052 -4.20854 0.847375 0
M  V30 8477 C 820.285 -5.33341 0.19577 0
M  V30 8478 O 820.508 -5.61356 -1.0117 0
M  V30 8479 O 819.442 -5.95169 0.897623 0
M  V30 8480 H 823.268 -2.68578 1.41773 0
M  V30 8481 H 820.853 -1.28927 0.754867 0
M  V30 8482 H 822.735 -4.18096 -0.526676 0
M  V30 8483 H 821.41 -3.08041 -0.994593 0
M  V30 8484 H 820.317 -3.51459 1.28169 0
M  V30 8485 H 821.65 -4.63082 1.6678 0
M  V30 8486 N 823.302 -0.75937 -1.38099 0
M  V30 8487 C 824.232 -0.151077 -2.33011 0
M  V30 8488 C 825.213 0.697099 -1.5516 0
M  V30 8489 O 826.398 0.637101 -1.83452 0
M  V30 8490 C 823.528 0.738423 -3.39359 0
M  V30 8491 C 822.482 -0.0074741 -4.27999 0
M  V30 8492 C 821.808 1.00066 -5.25253 0
M  V30 8493 C 823.108 -1.17926 -5.08813 0
M  V30 8494 H 824.802 -0.943933 -2.84131 0
M  V30 8495 H 822.348 -0.455362 -1.36611 0
M  V30 8496 H 824.301 1.17369 -4.04725 0
M  V30 8497 H 823.025 1.56366 -2.86735 0
M  V30 8498 H 821.684 -0.423379 -3.64147 0
M  V30 8499 H 821.332 1.82012 -4.68914 0
M  V30 8500 H 821.032 0.506199 -5.85416 0
M  V30 8501 H 822.556 1.43512 -5.93495 0
M  V30 8502 H 823.97 -0.821262 -5.67387 0
M  V30 8503 H 822.367 -1.60497 -5.78239 0
M  V30 8504 H 823.437 -1.98938 -4.42212 0
M  V30 8505 N 824.78 1.49157 -0.508906 0
M  V30 8506 C 825.71 2.32109 0.254469 0
M  V30 8507 C 826.691 1.40754 0.955111 0
M  V30 8508 O 827.876 1.69658 0.944983 0
M  V30 8509 C 825.006 3.21458 1.3146 0
M  V30 8510 C 823.96 4.2167 0.733368 0
M  V30 8511 C 823.286 5.00009 1.8946 0
M  V30 8512 C 824.586 5.21544 -0.280875 0
M  V30 8513 H 826.28 2.9618 -0.43795 0
M  V30 8514 H 823.826 1.4243 -0.212062 0
M  V30 8515 H 825.779 3.78305 1.85643 0
M  V30 8516 H 824.503 2.55346 2.03632 0
M  V30 8517 H 823.162 3.65979 0.213231 0
M  V30 8518 H 822.81 4.30338 2.60419 0
M  V30 8519 H 822.51 5.67821 1.51173 0
M  V30 8520 H 824.034 5.59702 2.44061 0
M  V30 8521 H 825.448 5.73039 0.173095 0
M  V30 8522 H 823.845 5.97291 -0.580006 0
M  V30 8523 H 824.915 4.69969 -1.19404 0
M  V30 8524 N 826.258 0.243083 1.55714 0
M  V30 8525 C 827.505 -0.38272 1.9885 0
M  V30 8526 C 827.833 -1.58225 1.13115 0
M  V30 8527 O 827.088 -1.94861 0.181067 0
M  V30 8528 C 827.387 -0.839621 3.47398 0
M  V30 8529 C 827.053 0.251737 4.50197 0
M  V30 8530 C 825.715 0.551487 4.78029 0
M  V30 8531 C 828.067 0.988728 5.11736 0
M  V30 8532 C 825.395 1.59237 5.64677 0
M  V30 8533 C 827.747 2.0191 5.99512 0
M  V30 8534 C 826.411 2.32554 6.2568 0
M  V30 8535 H 825.681 -0.140047 0.727645 0
M  V30 8536 H 828.328 0.35011 1.88272 0
M  V30 8537 H 826.633 -1.65159 3.55288 0
M  V30 8538 H 828.33 -1.33404 3.78159 0
M  V30 8539 H 824.92 0.00796741 4.28599 0
M  V30 8540 H 829.104 0.7704 4.90284 0
M  V30 8541 H 824.36 1.83517 5.83208 0
M  V30 8542 H 828.534 2.59511 6.46241 0
M  V30 8543 H 826.161 3.13349 6.92616 0
M  V30 8544 N 827.736 -1.57571 -0.0300757 0
M  V30 8545 C 829.152 -1.54869 -0.385703 0
M  V30 8546 C 829.352 -0.969068 -1.76667 0
M  V30 8547 O 828.408 -0.589676 -2.45518 0
M  V30 8548 C 829.721 -2.99313 -0.288482 0
M  V30 8549 C 831.269 -3.10857 -0.365638 0
M  V30 8550 C 831.744 -4.5703 -0.297878 0
M  V30 8551 N 833.235 -4.61825 -0.356703 0
M  V30 8552 C 833.97 -5.72466 -0.327146 0
M  V30 8553 N 833.466 -6.92349 -0.249941 0
M  V30 8554 N 835.259 -5.60836 -0.376801 0
M  V30 8555 H 827.41 -1.936 0.87367 0
M  V30 8556 H 829.673 -0.887924 0.332106 0
M  V30 8557 H 829.379 -3.45443 0.66047 0
M  V30 8558 H 829.253 -3.61332 -1.08253 0
M  V30 8559 H 831.64 -2.64676 -1.30502 0
M  V30 8560 H 831.721 -2.51671 0.457744 0
M  V30 8561 H 831.365 -5.03879 0.637835 0
M  V30 8562 H 831.295 -5.14127 -1.13935 0
M  V30 8563 H 833.786 -3.75571 -0.418926 0
M  V30 8564 H 834.099 -7.7245 -0.23246 0
M  V30 8565 H 832.444 -6.94664 -0.216004 0
M  V30 8566 H 835.635 -4.66073 -0.435101 0
M  V30 8567 H 835.808 -6.47052 -0.350298 0
M  V30 8568 N 829.214 0.302327 -1.54673 0
M  V30 8569 C 830.124 1.39542 -1.88587 0
M  V30 8570 C 831.14 1.55543 -0.779895 0
M  V30 8571 O 832.316 1.70233 -1.07623 0
M  V30 8572 C 829.381 2.7394 -2.12504 0
M  V30 8573 C 828.442 2.66935 -3.3622 0
M  V30 8574 C 827.675 3.94923 -3.58987 0
M  V30 8575 O 827.898 4.94218 -2.84789 0
M  V30 8576 O 826.832 3.96896 -4.52501 0
M  V30 8577 H 830.658 1.13784 -2.81579 0
M  V30 8578 H 828.243 0.49827 -1.40846 0
M  V30 8579 H 830.125 3.5346 -2.29443 0
M  V30 8580 H 828.8 2.99544 -1.22698 0
M  V30 8581 H 827.707 1.85892 -3.24646 0
M  V30 8582 H 829.04 2.46283 -4.26152 0
M  V30 8583 N 830.692 1.47107 0.565454 0
M  V30 8584 C 831.94 1.53005 1.32038 0
M  V30 8585 C 832.261 0.190453 1.94068 0
M  V30 8586 O 831.531 -0.784783 1.79494 0
M  V30 8587 H 830.111 0.563578 0.490294 0
M  V30 8588 H 832.773 1.83351 0.660928 0
M  V30 8589 H 831.869 2.29215 2.11818 0
M  V30 8590 N 832.17 -0.811516 1.35101 0
M  V30 8591 C 833.447 -1.55491 1.18667 0
M  V30 8592 C 833.827 -2.09775 -0.236189 0
M  V30 8593 O 833.175 -1.91989 -1.23905 0
M  V30 8594 C 833.385 -2.66732 2.25067 0
M  V30 8595 C 834.733 -3.35201 2.60625 0
M  V30 8596 O 835.757 -2.76998 2.23943 0
M  V30 8597 O 834.616 -4.40334 3.23679 0
M  V30 8598 H 831.71 -0.686783 0.460716 0
M  V30 8599 H 834.256 -0.851903 1.46768 0
M  V30 8600 H 833.028 -2.24457 3.20523 0
M  V30 8601 H 832.651 -3.44673 1.98208 0
M  V30 8602 N 833.648 -1.19017 -1.03309 0
M  V30 8603 C 834.598 -0.89194 -2.0983 0
M  V30 8604 C 835.582 0.14151 -1.60277 0
M  V30 8605 O 836.774 -0.0635946 -1.76886 0
M  V30 8606 C 833.903 -0.427793 -3.40624 0
M  V30 8607 C 832.989 -1.49374 -3.96923 0
M  V30 8608 N 833.38 -2.71213 -4.26939 0
M  V30 8609 C 831.678 -1.35605 -4.24885 0
M  V30 8610 C 832.379 -3.39849 -4.72099 0
M  V30 8611 N 831.355 -2.67239 -4.73375 0
M  V30 8612 H 835.157 -1.81801 -2.30923 0
M  V30 8613 H 832.671 -1.08171 -1.21131 0
M  V30 8614 H 834.668 -0.195608 -4.16441 0
M  V30 8615 H 833.328 0.491848 -3.20953 0
M  V30 8616 H 834.339 -3.08014 -4.16351 0
M  V30 8617 H 831.016 -0.499537 -4.14501 0
M  V30 8618 H 832.406 -4.44018 -5.04279 0
M  V30 8619 N 835.127 1.22348 -0.993418 0
M  V30 8620 C 836.375 1.90733 -0.668246 0
M  V30 8621 C 836.696 1.77732 0.802261 0
M  V30 8622 O 835.966 1.16486 1.57505 0
M  V30 8623 H 834.546 0.705966 -0.244174 0
M  V30 8624 H 837.208 1.48691 -1.26004 0
M  V30 8625 H 836.304 2.97883 -0.931239 0
M  V30 8626 N 836.605 0.766683 1.37694 0
M  V30 8627 C 838.021 0.445739 1.53249 0
M  V30 8628 C 838.221 -1.03935 1.72626 0
M  V30 8629 O 837.277 -1.82525 1.74473 0
M  V30 8630 C 838.59 1.2564 2.73194 0
M  V30 8631 C 840.138 1.24779 2.87053 0
M  V30 8632 C 840.613 2.04169 4.09974 0
M  V30 8633 N 842.104 2.01497 4.17077 0
M  V30 8634 C 842.839 2.5971 5.11212 0
M  V30 8635 N 842.335 3.26691 6.10938 0
M  V30 8636 N 844.128 2.49568 5.03659 0
M  V30 8637 H 836.279 1.72899 1.23368 0
M  V30 8638 H 838.542 0.733701 0.600322 0
M  V30 8639 H 838.248 2.30859 2.65324 0
M  V30 8640 H 838.122 0.882133 3.6674 0
M  V30 8641 H 840.509 0.203603 2.94397 0
M  V30 8642 H 840.59 1.66166 1.9448 0
M  V30 8643 H 840.234 3.08606 4.03392 0
M  V30 8644 H 840.164 1.60167 5.01651 0
M  V30 8645 H 842.655 1.52728 3.45662 0
M  V30 8646 H 842.968 3.68497 6.79286 0
M  V30 8647 H 841.313 3.30789 6.11231 0
M  V30 8648 H 844.504 1.96859 4.24693 0
M  V30 8649 H 844.677 2.95231 5.76839 0
M  V30 8650 N 838.083 -1.48885 0.516809 0
M  V30 8651 C 838.993 -2.33185 -0.257293 0
M  V30 8652 C 840.009 -1.4565 -0.951952 0
M  V30 8653 O 841.185 -1.78651 -0.929834 0
M  V30 8654 C 838.25 -3.21465 -1.29851 0
M  V30 8655 C 837.311 -4.24863 -0.615608 0
M  V30 8656 C 836.544 -5.08925 -1.60722 0
M  V30 8657 O 836.767 -4.9475 -2.83863 0
M  V30 8658 O 835.701 -5.90737 -1.15384 0
M  V30 8659 H 839.527 -3.00596 0.433131 0
M  V30 8660 H 837.112 -1.46792 0.277908 0
M  V30 8661 H 838.994 -3.76108 -1.90055 0
M  V30 8662 H 837.669 -2.5673 -1.97158 0
M  V30 8663 H 836.576 -3.74091 0.0265829 0
M  V30 8664 H 837.909 -4.92198 0.0152871 0
M  V30 8665 N 839.561 -0.251338 -1.55583 0
M  V30 8666 C 840.807 0.37272 -1.99346 0
M  V30 8667 C 841.14 1.57266 -1.13934 0
M  V30 8668 O 840.415 1.9343 -0.20377 0
M  V30 8669 C 840.698 0.778245 -3.5159 0
M  V30 8670 C 840.551 -0.427394 -4.47765 0
M  V30 8671 C 841.87 1.62358 -4.09057 0
M  V30 8672 H 838.989 0.134002 -0.724715 0
M  V30 8673 H 841.631 -0.353536 -1.86682 0
M  V30 8674 H 839.781 1.39704 -3.62512 0
M  V30 8675 H 841.453 -1.06586 -4.48818 0
M  V30 8676 H 839.696 -1.06972 -4.20404 0
M  V30 8677 H 840.367 -0.10025 -5.51909 0
M  V30 8678 H 842.843 1.1012 -4.01264 0
M  V30 8679 H 841.719 1.87617 -5.1584 0
M  V30 8680 H 841.98 2.59688 -3.57791 0
M  V30 8681 N 841.039 1.57585 0.0217189 0
M  V30 8682 C 842.287 1.89231 0.709641 0
M  V30 8683 C 842.608 0.849964 1.75501 0
M  V30 8684 O 841.878 -0.115485 1.95559 0
M  V30 8685 H 840.458 0.69838 0.265092 0
M  V30 8686 H 843.12 1.94895 -0.0140688 0
M  V30 8687 H 842.216 2.88333 1.19459 0
M  V30 8688 N 842.517 -0.29412 1.54831 0
M  V30 8689 C 843.933 -0.640167 1.46199 0
M  V30 8690 C 844.133 -1.90426 0.658798 0
M  V30 8691 O 843.189 -2.51932 0.169228 0
M  V30 8692 C 844.502 -0.786763 2.90225 0
M  V30 8693 C 846.05 -0.882201 3.0031 0
M  V30 8694 C 846.525 -1.06074 4.45547 0
M  V30 8695 N 848.016 -1.12678 4.49286 0
M  V30 8696 C 848.751 -1.28334 5.58854 0
M  V30 8697 N 848.247 -1.40845 6.78332 0
M  V30 8698 N 850.04 -1.31277 5.46555 0
M  V30 8699 H 842.191 0.536334 2.05517 0
M  V30 8700 H 844.454 0.178363 0.93107 0
M  V30 8701 H 844.16 0.0713018 3.51628 0
M  V30 8702 H 844.034 -1.67364 3.38037 0
M  V30 8703 H 846.421 -1.73075 2.39017 0
M  V30 8704 H 846.502 0.0288405 2.55784 0
M  V30 8705 H 846.146 -0.216935 5.07437 0
M  V30 8706 H 846.076 -1.98611 4.8771 0
M  V30 8707 H 848.567 -1.04335 3.63212 0
M  V30 8708 H 848.88 -1.52566 7.57591 0
M  V30 8709 H 847.225 -1.37888 6.81184 0
M  V30 8710 H 850.416 -1.2112 4.52159 0
M  V30 8711 H 850.589 -1.43136 6.31994 0
M  V30 8712 N 843.995 -1.47404 -0.557645 0
M  V30 8713 C 845.223 -1.57622 -1.34026 0
M  V30 8714 C 845.638 -0.226256 -1.87439 0
M  V30 8715 O 844.995 0.78043 -1.64971 0
M  V30 8716 C 845.046 -2.60111 -2.51047 0
M  V30 8717 O 844.767 -3.89866 -1.99841 0
M  V30 8718 C 846.268 -2.80508 -3.43264 0
M  V30 8719 H 843.488 -0.532271 -0.40857 0
M  V30 8720 H 846.032 -1.93019 -0.675555 0
M  V30 8721 H 844.187 -2.27648 -3.13457 0
M  V30 8722 H 844.601 -4.45864 -2.76234 0
M  V30 8723 H 846.075 -3.56084 -4.21792 0
M  V30 8724 H 846.552 -1.88314 -3.9678 0
M  V30 8725 H 847.158 -3.14166 -2.86671 0
M  V30 8726 N 845.473 0.80434 -1.35529 0
M  V30 8727 C 846.72 1.56154 -1.28927 0
M  V30 8728 C 847.048 1.94026 0.135682 0
M  V30 8729 O 846.303 1.61759 1.10148 0
M  V30 8730 C 846.602 2.85988 -2.14349 0
M  V30 8731 C 846.268 2.67323 -3.6311 0
M  V30 8732 C 844.93 2.61941 -4.03659 0
M  V30 8733 C 847.282 2.49699 -4.57493 0
M  V30 8734 C 844.61 2.3688 -5.36754 0
M  V30 8735 C 846.962 2.26168 -5.90788 0
M  V30 8736 C 845.626 2.19209 -6.30479 0
M  V30 8737 H 844.896 0.571407 -0.471779 0
M  V30 8738 H 847.543 0.929193 -1.67446 0
M  V30 8739 H 845.848 3.53612 -1.68718 0
M  V30 8740 H 847.545 3.43697 -2.06576 0
M  V30 8741 H 844.135 2.72361 -3.30934 0
M  V30 8742 H 848.319 2.52869 -4.27049 0
M  V30 8743 H 843.575 2.29964 -5.66504 0
M  V30 8744 H 847.749 2.11522 -6.63499 0
M  V30 8745 H 845.376 1.99553 -7.33541 0
M  V30 8746 N 846.951 1.19563 1.02676 0
M  V30 8747 C 848.228 0.908857 1.73203 0
M  V30 8748 C 848.608 -0.584928 2.02834 0
M  V30 8749 O 847.956 -1.54372 1.68469 0
M  V30 8750 C 848.166 1.77105 3.00724 0
M  V30 8751 C 849.514 2.00667 3.7419 0
M  V30 8752 O 850.538 1.74274 3.10656 0
M  V30 8753 O 849.397 2.4518 4.88415 0
M  V30 8754 H 846.491 0.338909 0.754367 0
M  V30 8755 H 849.037 1.30387 1.08616 0
M  V30 8756 H 847.809 2.78303 2.7507 0
M  V30 8757 H 847.432 1.37546 3.73051 0
M  V30 8758 N 848.429 -1.21819 0.999893 0
M  V30 8759 C 849.84 -1.72517 0.713775 0
M  V30 8760 C 850.191 -1.80505 -0.768922 0
M  V30 8761 O 849.316 -1.45611 -1.60083 0
M  V30 8762 C 849.911 -3.13321 1.28901 0
M  V30 8763 C 848.47 -3.61396 1.05212 0
M  V30 8764 C 847.617 -2.39074 1.40494 0
M  V30 8765 H 850.568 -1.07068 1.17141 0
M  V30 8766 H 850.589 -3.74535 0.671084 0
M  V30 8767 H 850.101 -3.07475 2.36814 0
M  V30 8768 H 848.202 -3.72599 -0.0100732 0
M  V30 8769 H 848.315 -4.47145 1.72042 0
M  V30 8770 H 846.679 -2.41015 0.823642 0
M  V30 8771 H 847.462 -2.35884 2.49427 0
M  V30 8772 N 849.908 -0.773975 -1.37286 0
M  V30 8773 C 851.136 -0.350758 -2.03905 0
M  V30 8774 C 851.551 1.02779 -1.58373 0
M  V30 8775 O 850.908 1.65646 -0.766009 0
M  V30 8776 C 850.959 -0.387335 -3.59419 0
M  V30 8777 O 850.68 -1.7115 -4.03286 0
M  V30 8778 C 852.181 0.047198 -4.43275 0
M  V30 8779 H 849.401 -0.146663 -0.654775 0
M  V30 8780 H 851.945 -1.04852 -1.75574 0
M  V30 8781 H 850.1 0.261865 -3.86514 0
M  V30 8782 H 850.514 -1.65166 -4.97816 0
M  V30 8783 H 851.988 -0.0295474 -5.51992 0
M  V30 8784 H 852.465 1.09786 -4.25257 0
M  V30 8785 H 853.071 -0.573899 -4.2141 0
M  V30 8786 N 851.386 1.48609 -0.524698 0
M  V30 8787 C 852.614 2.06899 0.00742946 0
M  V30 8788 C 853.029 1.38196 1.28637 0
M  V30 8789 O 852.386 0.467771 1.76403 0
M  V30 8790 C 852.437 3.60699 0.240548 0
M  V30 8791 O 852.158 4.26821 -0.987715 0
M  V30 8792 C 853.659 4.35769 0.813652 0
M  V30 8793 H 850.879 0.670278 -0.0311294 0
M  V30 8794 H 853.423 1.91071 -0.728832 0
M  V30 8795 H 851.578 3.76149 0.926845 0
M  V30 8796 H 851.992 5.18889 -0.765175 0
M  V30 8797 H 853.466 5.44174 0.926219 0
M  V30 8798 H 853.943 3.9984 1.81728 0
M  V30 8799 H 854.549 4.24983 0.164086 0
M  V30 8800 N 852.864 0.259585 1.55447 0
M  V30 8801 C 854.089 -0.368317 2.04103 0
M  V30 8802 C 854.514 -1.49827 1.13725 0
M  V30 8803 O 853.872 -1.80814 0.132705 0
M  V30 8804 C 853.92 -0.841506 3.50644 0
M  V30 8805 O 853.024 -1.95008 3.63381 0
M  V30 8806 H 852.365 -0.0785227 0.659341 0
M  V30 8807 H 854.895 0.389349 2.00861 0
M  V30 8808 H 854.905 -1.14138 3.9171 0
M  V30 8809 H 853.58 -0.0147001 4.15897 0
M  V30 8810 H 852.157 -1.65393 3.34215 0
M  V30 8811 N 854.342 -1.57594 -0.0133615 0
M  V30 8812 C 855.572 -1.93969 -0.711295 0
M  V30 8813 C 855.98 -0.859084 -1.68572 0
M  V30 8814 O 855.323 0.171842 -1.82894 0
M  V30 8815 C 855.385 -3.2625 -1.51001 0
M  V30 8816 C 855.049 -4.51628 -0.698645 0
M  V30 8817 C 856.046 -5.19899 0.00791185 0
M  V30 8818 C 853.731 -4.98095 -0.648553 0
M  V30 8819 C 855.725 -6.32928 0.753691 0
M  V30 8820 C 853.412 -6.11017 0.10096 0
M  V30 8821 C 854.41 -6.78289 0.800828 0
M  V30 8822 O 854.098 -7.89048 1.53814 0
M  V30 8823 H 853.83 -0.6445 -0.203951 0
M  V30 8824 H 856.384 -2.05378 0.0298267 0
M  V30 8825 H 854.614 -3.11211 -2.29531 0
M  V30 8826 H 856.303 -3.47835 -2.09202 0
M  V30 8827 H 857.069 -4.84995 -0.0217192 0
M  V30 8828 H 852.948 -4.45568 -1.18282 0
M  V30 8829 H 856.492 -6.85371 1.3005 0
M  V30 8830 H 852.389 -6.45364 0.132459 0
M  V30 8831 H 853.157 -8.05492 1.45345 0
M  V30 8832 N 855.82 0.285905 -1.54985 0
M  V30 8833 C 857.066 1.02071 -1.75241 0
M  V30 8834 C 857.399 1.864 -0.544842 0
M  V30 8835 O 856.674 1.89034 0.457844 0
M  V30 8836 C 856.957 1.91409 -3.05016 0
M  V30 8837 C 856.81 1.10158 -4.36102 0
M  V30 8838 C 858.129 2.90335 -3.30747 0
M  V30 8839 H 855.248 0.369663 -0.637588 0
M  V30 8840 H 857.89 0.294114 -1.8771 0
M  V30 8841 H 856.04 2.53362 -2.94517 0
M  V30 8842 H 857.712 0.503756 -4.58541 0
M  V30 8843 H 855.955 0.404675 -4.31908 0
M  V30 8844 H 856.626 1.75956 -5.23205 0
M  V30 8845 H 859.102 2.38514 -3.40955 0
M  V30 8846 H 857.978 3.49997 -4.2284 0
M  V30 8847 H 858.239 3.64787 -2.49765 0
M  V30 8848 N 857.298 1.47698 0.54982 0
M  V30 8849 C 858.544 1.54931 1.30859 0
M  V30 8850 C 858.877 0.214021 1.93017 0
M  V30 8851 O 858.152 -0.778093 1.78258 0
M  V30 8852 C 858.435 2.67286 2.41309 0
M  V30 8853 C 858.288 4.10457 1.83971 0
M  V30 8854 C 859.607 2.75509 3.43195 0
M  V30 8855 H 856.726 0.56399 0.474431 0
M  V30 8856 H 859.368 1.79787 0.614541 0
M  V30 8857 H 857.518 2.46224 3.0051 0
M  V30 8858 H 859.19 4.42903 1.28974 0
M  V30 8859 H 857.433 4.18387 1.14606 0
M  V30 8860 H 858.104 4.84857 2.63851 0
M  V30 8861 H 860.58 2.94531 2.93923 0
M  V30 8862 H 859.456 3.55886 4.17895 0
M  V30 8863 H 859.717 1.82863 4.02509 0
M  V30 8864 N 858.776 -0.797141 1.35954 0
M  V30 8865 C 859.686 -1.94088 1.31784 0
M  V30 8866 C 860.702 -1.72588 0.221227 0
M  V30 8867 O 861.878 -1.96256 0.452255 0
M  V30 8868 C 858.943 -3.28828 1.09878 0
M  V30 8869 C 858.004 -3.63158 2.28942 0
M  V30 8870 C 857.237 -4.91469 2.08072 0
M  V30 8871 O 857.46 -5.60616 1.05196 0
M  V30 8872 O 856.394 -5.24277 2.95664 0
M  V30 8873 H 860.22 -2.00554 2.28061 0
M  V30 8874 H 857.805 -0.936288 1.16422 0
M  V30 8875 H 859.687 -4.09473 0.995485 0
M  V30 8876 H 858.362 -3.23271 0.16659 0
M  V30 8877 H 857.269 -2.82851 2.44839 0
M  V30 8878 H 858.602 -3.7343 3.20641 0
M  V30 8879 N 860.254 -1.20106 -1.0204 0
M  V30 8880 C 861.531 -0.918029 -1.72718 0
M  V30 8881 C 861.911 0.574163 -2.03142 0
M  V30 8882 O 861.259 1.53476 -1.69285 0
M  V30 8883 C 861.469 -1.78698 -2.9978 0
M  V30 8884 C 862.817 -2.02648 -3.7312 0
M  V30 8885 O 863.841 -1.75919 -3.09727 0
M  V30 8886 O 862.7 -2.47767 -4.87107 0
M  V30 8887 H 859.794 -0.342904 -0.752559 0
M  V30 8888 H 862.34 -1.30961 -1.07923 0
M  V30 8889 H 861.112 -2.79757 -2.7359 0
M  V30 8890 H 860.735 -1.39522 -3.72316 0
M  V30 8891 N 861.732 1.21287 -1.00634 0
M  V30 8892 C 862.662 2.25973 -0.588089 0
M  V30 8893 C 863.643 1.65527 0.391764 0
M  V30 8894 O 864.828 1.92179 0.279452 0
M  V30 8895 C 861.958 3.47197 0.0847336 0
M  V30 8896 C 860.912 4.20168 -0.815039 0
M  V30 8897 C 860.238 5.34699 -0.00855393 0
M  V30 8898 C 861.538 4.77416 -2.11828 0
M  V30 8899 H 863.232 2.61212 -1.46317 0
M  V30 8900 H 860.778 1.25563 -0.704985 0
M  V30 8901 H 862.731 4.19602 0.388821 0
M  V30 8902 H 861.455 3.11092 0.994456 0
M  V30 8903 H 860.114 3.49614 -1.10297 0
M  V30 8904 H 859.762 4.94837 0.902499 0
M  V30 8905 H 859.462 5.84449 -0.607664 0
M  V30 8906 H 860.986 6.09914 0.289317 0
M  V30 8907 H 862.4 5.41694 -1.87725 0
M  V30 8908 H 860.797 5.37561 -2.66736 0
M  V30 8909 H 861.867 3.96724 -2.78816 0
M  V30 8910 N 863.21 0.781244 1.36873 0
M  V30 8911 C 864.157 0.172146 2.30157 0
M  V30 8912 C 865.127 -0.679328 1.51573 0
M  V30 8913 O 866.312 -0.629713 1.80109 0
M  V30 8914 C 863.452 -0.693534 3.38059 0
M  V30 8915 C 862.565 0.175586 4.31643 0
M  V30 8916 C 861.7 -0.695695 5.26625 0
M  V30 8917 C 860.739 0.17538 6.11849 0
M  V30 8918 N 859.876 -0.654416 6.99043 0
M  V30 8919 H 864.716 0.973133 2.81663 0
M  V30 8920 H 862.253 0.491469 1.38647 0
M  V30 8921 H 864.211 -1.21035 3.99257 0
M  V30 8922 H 862.841 -1.46003 2.87894 0
M  V30 8923 H 861.893 0.810295 3.7167 0
M  V30 8924 H 863.205 0.847107 4.91554 0
M  V30 8925 H 862.359 -1.27863 5.93073 0
M  V30 8926 H 861.098 -1.40087 4.67148 0
M  V30 8927 H 860.103 0.77078 5.4437 0
M  V30 8928 H 861.328 0.87803 6.734 0
M  V30 8929 H 859.274 -1.34403 6.42084 0
M  V30 8930 H 859.191 -0.0403998 7.55989 0
M  V30 8931 H 860.459 -1.22144 7.69871 0
M  V30 8932 N 864.689 -1.48329 0.532571 0
M  V30 8933 C 866.1 -1.86469 0.0927749 0
M  V30 8934 C 866.451 -1.44186 -1.3306 0
M  V30 8935 O 865.576 -0.833741 -1.99694 0
M  V30 8936 C 866.171 -3.38414 0.161588 0
M  V30 8937 C 864.73 -3.75739 -0.223028 0
M  V30 8938 C 863.877 -2.72377 0.520199 0
M  V30 8939 H 866.828 -1.40197 0.743678 0
M  V30 8940 H 866.849 -3.75314 -0.626059 0
M  V30 8941 H 866.361 -3.69159 1.19765 0
M  V30 8942 H 864.462 -3.50608 -1.26113 0
M  V30 8943 H 864.575 -4.78954 0.118385 0
M  V30 8944 H 862.939 -2.54678 -0.0338425 0
M  V30 8945 H 863.722 -3.05965 1.55694 0
M  V30 8946 N 866.167 -0.267825 -1.55308 0
M  V30 8947 C 867.115 0.638848 -2.23655 0
M  V30 8948 C 868.109 1.16363 -1.2311 0
M  V30 8949 O 869.315 1.1181 -1.41062 0
M  V30 8950 H 865.69 0.224551 -0.717691 0
M  V30 8951 H 867.661 0.0394809 -2.98374 0
M  V30 8952 C 866.41 1.8151 -2.96562 0
M  V30 8953 H 865.733 1.42048 -3.73715 0
M  V30 8954 H 867.173 2.42629 -3.47717 0
M  V30 8955 C 865.632 2.69911 -2.01618 0
M  V30 8956 O 866.162 3.70058 -1.56268 0
M  V30 8957 N 864.368 2.36924 -1.68272 0
M  V30 8958 H 863.915 1.55533 -2.05347 0
M  V30 8959 H 863.873 2.96343 -1.05016 0
M  V30 8960 N 867.645 1.57599 0.00500368 0
M  V30 8961 C 868.873 1.94626 0.702016 0
M  V30 8962 C 869.288 0.86953 1.67585 0
M  V30 8963 O 868.645 -0.15199 1.81866 0
M  V30 8964 C 868.696 3.31658 1.43824 0
M  V30 8965 O 868.417 4.35197 0.503467 0
M  V30 8966 C 869.918 3.83114 2.23021 0
M  V30 8967 H 867.138 0.641785 0.195841 0
M  V30 8968 H 869.682 2.04451 -0.0446287 0
M  V30 8969 H 867.837 3.23156 2.13655 0
M  V30 8970 H 868.251 5.1444 1.02235 0
M  V30 8971 H 869.725 4.81438 2.7004 0
M  V30 8972 H 870.202 3.15559 3.05482 0
M  V30 8973 H 870.808 3.94775 1.58216 0
M  V30 8974 N 869.123 -0.277682 1.55134 0
M  V30 8975 C 870.033 -1.36524 1.90783 0
M  V30 8976 C 871.049 -1.54283 0.804542 0
M  V30 8977 O 872.225 -1.68499 1.10318 0
M  V30 8978 C 869.29 -2.70524 2.16835 0
M  V30 8979 C 868.351 -2.61552 3.40424 0
M  V30 8980 C 867.584 -3.89162 3.65224 0
M  V30 8981 O 867.807 -4.89624 2.92616 0
M  V30 8982 O 866.741 -3.89647 4.58758 0
M  V30 8983 H 870.567 -1.0929 2.83354 0
M  V30 8984 H 868.152 -0.475799 1.41621 0
M  V30 8985 H 870.034 -3.49765 2.35038 0
M  V30 8986 H 868.709 -2.97555 1.27448 0
M  V30 8987 H 867.616 -1.80704 3.27562 0
M  V30 8988 H 868.949 -2.39472 4.30016 0
M  V30 8989 N 870.601 -1.47988 -0.541979 0
M  V30 8990 C 871.831 -1.58804 -1.32155 0
M  V30 8991 C 872.239 -0.242893 -1.87634 0
M  V30 8992 O 871.582 0.776239 -1.66494 0
M  V30 8993 C 871.644 -2.56567 -2.51821 0
M  V30 8994 C 871.308 -4.01915 -2.17517 0
M  V30 8995 C 872.305 -4.89954 -1.73901 0
M  V30 8996 C 869.99 -4.47365 -2.28408 0
M  V30 8997 C 871.984 -6.21467 -1.41625 0
M  V30 8998 C 869.671 -5.78902 -1.95745 0
M  V30 8999 C 870.669 -6.65775 -1.52423 0
M  V30 9000 O 870.357 -7.94866 -1.20183 0
M  V30 9001 H 870.089 -0.538536 -0.408601 0
M  V30 9002 H 872.643 -1.94446 -0.661818 0
M  V30 9003 H 870.873 -2.16023 -3.20735 0
M  V30 9004 H 872.562 -2.57347 -3.13891 0
M  V30 9005 H 873.328 -4.56082 -1.64966 0
M  V30 9006 H 869.207 -3.79942 -2.61084 0
M  V30 9007 H 872.751 -6.8923 -1.07738 0
M  V30 9008 H 868.648 -6.12311 -2.04316 0
M  V30 9009 H 869.416 -8.07509 -1.33683 0
M  V30 9010 N 872.079 0.78992 -1.36375 0
M  V30 9011 C 873.042 1.88414 -1.30509 0
M  V30 9012 C 874.042 1.59384 -0.2129 0
M  V30 9013 O 875.232 1.67805 -0.467651 0
M  V30 9014 C 872.364 3.25188 -1.02302 0
M  V30 9015 H 873.557 1.95031 -2.27822 0
M  V30 9016 H 871.11 0.987664 -1.2114 0
M  V30 9017 H 871.845 3.24254 -0.0544486 0
M  V30 9018 H 871.63 3.47647 -1.81338 0
M  V30 9019 H 873.12 4.05252 -1.00801 0
M  V30 9020 N 873.557 1.20646 1.01402 0
M  V30 9021 C 874.804 1.01819 1.7504 0
M  V30 9022 C 875.132 -0.449386 1.89237 0
M  V30 9023 O 874.387 -1.34985 1.41695 0
M  V30 9024 C 874.686 1.64991 3.17037 0
M  V30 9025 C 874.352 3.14808 3.22811 0
M  V30 9026 C 873.014 3.55692 3.24094 0
M  V30 9027 C 875.366 4.108 3.2077 0
M  V30 9028 C 872.694 4.9109 3.2101 0
M  V30 9029 C 875.046 5.46147 3.19227 0
M  V30 9030 C 873.71 5.86441 3.18815 0
M  V30 9031 H 872.98 0.372582 0.640518 0
M  V30 9032 H 875.627 1.50108 1.18911 0
M  V30 9033 H 873.932 1.08971 3.76341 0
M  V30 9034 H 875.629 1.47937 3.72714 0
M  V30 9035 H 872.219 2.8224 3.2255 0
M  V30 9036 H 876.403 3.80246 3.18946 0
M  V30 9037 H 871.659 5.21569 3.19023 0
M  V30 9038 H 875.833 6.20272 3.166 0
M  V30 9039 H 873.46 6.91328 3.16179 0
M  V30 9040 N 875.035 -1.20752 1.01276 0
M  V30 9041 C 876.451 -1.42084 0.726934 0
M  V30 9042 C 876.651 -1.89138 -0.694907 0
M  V30 9043 O 875.707 -2.05783 -1.4632 0
M  V30 9044 C 877.02 -2.44575 1.74938 0
M  V30 9045 C 878.568 -2.58347 1.76708 0
M  V30 9046 C 879.043 -3.64078 2.77869 0
M  V30 9047 N 880.534 -3.71558 2.76585 0
M  V30 9048 C 881.269 -4.53016 3.51517 0
M  V30 9049 N 880.765 -5.38309 4.36114 0
M  V30 9050 N 882.558 -4.47512 3.40132 0
M  V30 9051 H 874.709 -0.885228 1.93074 0
M  V30 9052 H 876.972 -0.451075 0.833808 0
M  V30 9053 H 876.678 -2.1699 2.76782 0
M  V30 9054 H 876.552 -3.43503 1.55838 0
M  V30 9055 H 878.939 -2.85265 0.755516 0
M  V30 9056 H 879.02 -1.59628 1.99882 0
M  V30 9057 H 878.664 -3.37905 3.79187 0
M  V30 9058 H 878.594 -4.62412 2.51958 0
M  V30 9059 H 881.085 -3.10629 2.15216 0
M  V30 9060 H 881.398 -5.9754 4.90068 0
M  V30 9061 H 879.743 -5.37824 4.40194 0
M  V30 9062 H 882.934 -3.79912 2.73467 0
M  V30 9063 H 883.107 -5.10759 3.98784 0
M  V30 9064 N 876.513 -0.788492 -1.36457 0
M  V30 9065 C 877.443 -0.200468 -2.32638 0
M  V30 9066 C 878.424 0.664031 -1.56603 0
M  V30 9067 O 879.609 0.598045 -1.84762 0
M  V30 9068 C 876.739 0.666274 -3.40849 0
M  V30 9069 C 875.693 -0.0982574 -4.27887 0
M  V30 9070 C 875.019 0.889018 -5.27258 0
M  V30 9071 C 876.319 -1.28692 -5.06197 0
M  V30 9072 H 878.013 -1.00399 -2.82065 0
M  V30 9073 H 875.559 -0.484237 -1.35614 0
M  V30 9074 H 877.512 1.08757 -4.07124 0
M  V30 9075 H 876.236 1.50249 -2.89987 0
M  V30 9076 H 874.895 -0.500525 -3.63167 0
M  V30 9077 H 874.543 1.72024 -4.7267 0
M  V30 9078 H 874.243 0.381909 -5.86358 0
M  V30 9079 H 875.767 1.30891 -5.96406 0
M  V30 9080 H 877.181 -0.941429 -5.65517 0
M  V30 9081 H 875.578 -1.72726 -5.74705 0
M  V30 9082 H 876.648 -2.08273 -4.37893 0
M  V30 9083 N 877.991 1.48044 -0.54043 0
M  V30 9084 C 878.954 2.28273 0.205966 0
M  V30 9085 C 879.954 1.35983 0.858209 0
M  V30 9086 O 881.144 1.58776 0.716651 0
M  V30 9087 C 878.276 3.15174 1.29917 0
M  V30 9088 H 879.469 2.95727 -0.498555 0
M  V30 9089 H 877.022 1.53457 -0.296745 0
M  V30 9090 H 877.757 2.52374 2.03661 0
M  V30 9091 H 877.542 3.83074 0.836475 0
M  V30 9092 H 879.032 3.75666 1.82387 0
M  V30 9093 N 879.47 0.276058 1.55163 0
M  V30 9094 C 880.433 -0.597924 2.21263 0
M  V30 9095 C 881.433 -1.0806 1.19078 0
M  V30 9096 O 882.623 -0.980626 1.43977 0
M  V30 9097 C 879.755 -1.82503 2.87933 0
M  V30 9098 H 880.948 -0.0207769 2.99893 0
M  V30 9099 H 878.501 0.0266823 1.56277 0
M  V30 9100 H 879.236 -2.44266 2.13318 0
M  V30 9101 H 879.021 -1.48683 3.62816 0
M  V30 9102 H 880.511 -2.44651 3.38431 0
M  V30 9103 N 880.948 -1.576 0.00335426 0
M  V30 9104 C 882.364 -1.55653 -0.352766 0
M  V30 9105 C 882.564 -1.00632 -1.74572 0
M  V30 9106 O 881.62 -0.641621 -2.44212 0
M  V30 9107 C 882.933 -2.99858 -0.224929 0
M  V30 9108 C 884.481 -3.11563 -0.299619 0
M  V30 9109 C 884.956 -4.57559 -0.200868 0
M  V30 9110 N 886.447 -4.62477 -0.258663 0
M  V30 9111 C 887.182 -5.73031 -0.205644 0
M  V30 9112 N 886.678 -6.92723 -0.103027 0
M  V30 9113 N 888.471 -5.61509 -0.257754 0
M  V30 9114 H 880.622 -1.91703 0.914539 0
M  V30 9115 H 882.885 -0.88068 0.350865 0
M  V30 9116 H 882.591 -3.43964 0.733595 0
M  V30 9117 H 882.465 -3.63547 -1.00564 0
M  V30 9118 H 884.852 -2.67384 -1.24859 0
M  V30 9119 H 884.933 -2.50644 0.511025 0
M  V30 9120 H 884.577 -5.02413 0.744572 0
M  V30 9121 H 884.507 -5.16428 -1.03004 0
M  V30 9122 H 886.998 -3.76375 -0.339168 0
M  V30 9123 H 887.311 -7.7277 -0.0685593 0
M  V30 9124 H 885.656 -6.94966 -0.0686069 0
M  V30 9125 H 888.847 -4.66892 -0.336142 0
M  V30 9126 H 889.02 -6.4765 -0.21297 0
M  V30 9127 N 882.426 0.269451 -1.5528 0
M  V30 9128 C 883.651 1.02299 -1.80415 0
M  V30 9129 C 884.076 1.7902 -0.577363 0
M  V30 9130 O 883.434 1.75018 0.473125 0
M  V30 9131 C 883.482 1.95445 -3.0304 0
M  V30 9132 O 882.586 3.04271 -2.78375 0
M  V30 9133 H 881.927 0.292289 -0.596207 0
M  V30 9134 H 884.457 0.297282 -2.02429 0
M  V30 9135 H 884.467 2.37333 -3.31869 0
M  V30 9136 H 883.142 1.39017 -3.91978 0
M  V30 9137 H 881.719 2.66673 -2.60653 0
M  V30 9138 N 883.904 1.48273 0.534124 0
M  V30 9139 C 885.315 1.49667 1.1161 0
M  V30 9140 C 885.666 0.264139 1.94414 0
M  V30 9141 O 884.791 -0.629084 2.07054 0
M  V30 9142 C 885.386 2.71191 2.03079 0
M  V30 9143 C 883.945 2.7547 2.56502 0
M  V30 9144 C 883.092 2.43119 1.33373 0
M  V30 9145 H 886.043 1.55449 0.319578 0
M  V30 9146 H 886.064 2.49473 2.87304 0
M  V30 9147 H 885.576 3.60879 1.42785 0
M  V30 9148 H 883.677 1.89979 3.20529 0
M  V30 9149 H 883.79 3.76787 2.95919 0
M  V30 9150 H 882.154 1.94187 1.64813 0
M  V30 9151 H 882.937 3.35044 0.748375 0
M  V30 9152 N 885.382 -0.782676 1.36792 0
M  V30 9153 C 886.314 -1.9044 1.27536 0
M  V30 9154 C 887.327 -1.61647 0.193426 0
M  V30 9155 O 888.516 -1.72769 0.448692 0
M  V30 9156 C 885.616 -3.2541 0.946641 0
M  V30 9157 C 884.789 -3.81932 2.13183 0
M  V30 9158 C 883.848 -4.95355 1.7751 0
M  V30 9159 O 882.874 -5.11517 2.49678 0
M  V30 9160 N 884.076 -5.76108 0.712755 0
M  V30 9161 H 886.841 -1.98899 2.24186 0
M  V30 9162 H 884.402 -0.96127 1.30274 0
M  V30 9163 H 886.394 -3.98791 0.689043 0
M  V30 9164 H 884.964 -3.12524 0.0690591 0
M  V30 9165 H 884.184 -3.00459 2.55183 0
M  V30 9166 H 885.472 -4.16426 2.92347 0
M  V30 9167 H 884.87 -5.65586 0.113662 0
M  V30 9168 H 883.427 -6.49762 0.514995 0
M  V30 9169 N 886.86 -1.21182 -1.00761 0
M  V30 9170 C 888.108 -1.02543 -1.74153 0
M  V30 9171 C 888.429 0.442372 -1.89916 0
M  V30 9172 O 887.699 1.31927 -1.44818 0
M  V30 9173 H 886.279 -0.37644 -0.645214 0
M  V30 9174 H 888.941 -1.52446 -1.21434 0
M  V30 9175 H 888.037 -1.49122 -2.7417 0
M  V30 9176 N 888.338 1.20213 -1.01915 0
M  V30 9177 C 889.268 2.25336 -0.612023 0
M  V30 9178 C 890.249 1.65933 0.374186 0
M  V30 9179 O 891.434 1.92464 0.259053 0
M  V30 9180 C 888.564 3.47267 0.047904 0
M  V30 9181 C 887.518 4.1928 -0.859557 0
M  V30 9182 C 886.844 5.3466 -0.0652655 0
M  V30 9183 C 888.144 4.75143 -2.1688 0
M  V30 9184 H 889.838 2.59645 -1.49079 0
M  V30 9185 H 887.384 1.24808 -0.718263 0
M  V30 9186 H 889.337 4.19991 0.344294 0
M  V30 9187 H 888.061 3.12129 0.961404 0
M  V30 9188 H 886.72 3.48425 -1.13999 0
M  V30 9189 H 886.368 4.95767 0.849964 0
M  V30 9190 H 886.068 5.83772 -0.669618 0
M  V30 9191 H 887.592 6.10187 0.224612 0
M  V30 9192 H 889.006 5.39672 -1.9346 0
M  V30 9193 H 887.403 5.34702 -2.72422 0
M  V30 9194 H 888.473 3.93744 -2.83008 0
M  V30 9195 N 889.816 0.795718 1.36037 0
M  V30 9196 C 891.064 0.370291 1.98679 0
M  V30 9197 C 891.385 -1.06332 1.63458 0
M  V30 9198 O 890.655 -1.73394 0.911671 0
M  V30 9199 H 889.235 0.133928 0.734896 0
M  V30 9200 H 891.897 1.01915 1.6613 0
M  V30 9201 H 890.993 0.467207 3.08583 0
M  V30 9202 N 891.294 -1.47756 0.548274 0
M  V30 9203 C 892.257 -2.28379 -0.193857 0
M  V30 9204 C 893.257 -1.36436 -0.850986 0
M  V30 9205 O 894.447 -1.59154 -0.70822 0
M  V30 9206 C 891.579 -3.15858 -1.28243 0
M  V30 9207 H 892.772 -2.95458 0.514231 0
M  V30 9208 H 890.325 -1.53298 0.304879 0
M  V30 9209 H 891.06 -2.5345 -2.0232 0
M  V30 9210 H 890.845 -3.83512 -0.816148 0
M  V30 9211 H 892.335 -3.76627 -1.80393 0
M  V30 9212 N 892.772 -0.284283 -1.55015 0
M  V30 9213 C 894.019 0.329864 -1.99795 0
M  V30 9214 C 894.347 1.55171 -1.1727 0
M  V30 9215 O 893.602 1.94312 -0.232667 0
M  V30 9216 C 893.901 0.747219 -3.49502 0
M  V30 9217 C 893.567 -0.37101 -4.49371 0
M  V30 9218 C 892.229 -0.678034 -4.76399 0
M  V30 9219 C 894.581 -1.12406 -5.08935 0
M  V30 9220 C 891.909 -1.74152 -5.60257 0
M  V30 9221 C 894.261 -2.17734 -5.93948 0
M  V30 9222 C 892.925 -2.49061 -6.19294 0
M  V30 9223 H 892.195 0.120706 -0.731103 0
M  V30 9224 H 894.842 -0.399904 -1.87278 0
M  V30 9225 H 893.147 1.55681 -3.59542 0
M  V30 9226 H 894.844 1.2333 -3.81563 0
M  V30 9227 H 891.434 -0.1216 -4.28427 0
M  V30 9228 H 895.618 -0.900119 -4.88069 0
M  V30 9229 H 890.874 -1.98915 -5.78137 0
M  V30 9230 H 895.048 -2.76553 -6.39133 0
M  V30 9231 H 892.675 -3.31602 -6.84064 0
M  V30 9232 N 894.251 1.57596 -0.0117121 0
M  V30 9233 C 895.479 1.9536 0.681334 0
M  V30 9234 C 895.894 0.887255 1.66653 0
M  V30 9235 O 895.251 -0.132692 1.82017 0
M  V30 9236 C 895.302 3.33165 1.40298 0
M  V30 9237 O 895.023 4.35707 0.45728 0
M  V30 9238 C 896.524 3.85458 2.18946 0
M  V30 9239 H 893.744 0.643826 0.189023 0
M  V30 9240 H 896.288 2.04392 -0.066311 0
M  V30 9241 H 894.443 3.25404 2.10216 0
M  V30 9242 H 894.857 5.15495 0.96773 0
M  V30 9243 H 896.331 4.84275 2.64918 0
M  V30 9244 H 896.808 3.18781 3.02118 0
M  V30 9245 H 897.414 3.96431 1.5402 0
M  V30 9246 N 895.729 -0.261212 1.5542 0
M  V30 9247 C 897.14 -0.83138 1.67167 0
M  V30 9248 C 897.491 -1.8659 0.606525 0
M  V30 9249 O 896.616 -2.14953 -0.24985 0
M  V30 9250 C 897.211 -1.51475 3.03052 0
M  V30 9251 C 895.77 -2.0328 3.16787 0
M  V30 9252 C 894.917 -0.878903 2.63003 0
M  V30 9253 H 897.868 -0.0373102 1.58656 0
M  V30 9254 H 897.889 -2.38222 2.96699 0
M  V30 9255 H 897.401 -0.76157 3.80554 0
M  V30 9256 H 895.502 -2.81523 2.44082 0
M  V30 9257 H 895.615 -2.24001 4.2351 0
M  V30 9258 H 893.979 -1.27551 2.2046 0
M  V30 9259 H 894.762 -0.13904 3.43018 0
M  V30 9260 N 897.207 -1.48554 -0.526253 0
M  V30 9261 C 898.453 -1.56994 -1.28378 0
M  V30 9262 C 898.786 -0.244701 -1.92652 0
M  V30 9263 O 898.061 0.749636 -1.79473 0
M  V30 9264 C 898.344 -2.71092 -2.37026 0
M  V30 9265 C 898.197 -4.13331 -1.77418 0
M  V30 9266 C 899.516 -2.80934 -3.38769 0
M  V30 9267 H 896.635 -0.571466 -0.465398 0
M  V30 9268 H 899.277 -1.80742 -0.585861 0
M  V30 9269 H 897.427 -2.50973 -2.96555 0
M  V30 9270 H 899.099 -4.44899 -1.21912 0
M  V30 9271 H 897.342 -4.20158 -1.07936 0
M  V30 9272 H 898.013 -4.88994 -2.56104 0
M  V30 9273 H 900.489 -2.9917 -2.892 0
M  V30 9274 H 899.365 -3.62489 -4.12181 0
M  V30 9275 H 899.626 -1.89244 -3.99549 0
M  V30 9276 N 898.685 0.775411 -1.37205 0
M  V30 9277 C 899.931 1.53611 -1.32407 0
M  V30 9278 C 900.264 1.9398 0.0924103 0
M  V30 9279 O 899.539 1.63791 1.04893 0
M  V30 9280 C 899.822 2.80367 -2.25979 0
M  V30 9281 C 899.675 2.46275 -3.76389 0
M  V30 9282 C 900.994 3.82277 -2.18064 0
M  V30 9283 H 898.113 0.557278 -0.482297 0
M  V30 9284 H 900.755 0.889826 -1.67875 0
M  V30 9285 H 898.905 3.35515 -1.95862 0
M  V30 9286 H 900.577 1.9707 -4.17087 0
M  V30 9287 H 898.82 1.79023 -3.95137 0
M  V30 9288 H 899.491 3.36868 -4.37291 0
M  V30 9289 H 901.967 3.36613 -2.44604 0
M  V30 9290 H 900.843 4.68696 -2.85684 0
M  V30 9291 H 901.104 4.26272 -1.17239 0
M  V30 9292 N 900.163 1.21714 1.00117 0
M  V30 9293 C 901.579 0.97532 1.26332 0
M  V30 9294 C 901.779 -0.336029 1.98678 0
M  V30 9295 O 900.835 -1.06073 2.29139 0
M  V30 9296 C 902.148 2.16848 2.0832 0
M  V30 9297 C 903.696 2.21115 2.21533 0
M  V30 9298 C 904.171 3.3996 3.06906 0
M  V30 9299 N 905.662 3.40071 3.14494 0
M  V30 9300 C 906.397 4.28678 3.80818 0
M  V30 9301 N 905.893 5.2749 4.49139 0
M  V30 9302 N 907.686 4.16476 3.77497 0
M  V30 9303 H 899.837 2.06039 0.515897 0
M  V30 9304 H 902.1 0.902423 0.290408 0
M  V30 9305 H 901.806 3.119 1.62515 0
M  V30 9306 H 901.68 2.16226 3.09073 0
M  V30 9307 H 904.067 1.26616 2.66557 0
M  V30 9308 H 904.148 2.2578 1.20238 0
M  V30 9309 H 903.792 4.34755 2.62585 0
M  V30 9310 H 903.722 3.32534 4.08324 0
M  V30 9311 H 906.213 2.68563 2.65861 0
M  V30 9312 H 906.526 5.91397 4.97463 0
M  V30 9313 H 904.871 5.31412 4.47914 0
M  V30 9314 H 908.062 3.38539 3.23278 0
M  V30 9315 H 908.235 4.85739 4.28908 0
M  V30 9316 N 901.641 -1.19671 1.02551 0
M  V30 9317 C 902.573 -2.22215 0.561517 0
M  V30 9318 C 903.586 -1.58751 -0.360821 0
M  V30 9319 O 904.775 -1.77802 -0.157749 0
M  V30 9320 C 901.875 -3.383 -0.201494 0
M  V30 9321 C 901.048 -4.3135 0.724952 0
M  V30 9322 C 900.107 -5.26199 0.00794334 0
M  V30 9323 O 899.133 -5.65665 0.633398 0
M  V30 9324 N 900.335 -5.66573 -1.26394 0
M  V30 9325 H 903.1 -2.6265 1.44343 0
M  V30 9326 H 900.661 -1.34303 0.904122 0
M  V30 9327 H 902.653 -3.98764 -0.690625 0
M  V30 9328 H 901.223 -2.96683 -0.98479 0
M  V30 9329 H 900.443 -3.6872 1.39423 0
M  V30 9330 H 901.731 -4.90433 1.35472 0
M  V30 9331 H 901.129 -5.36538 -1.79287 0
M  V30 9332 H 899.686 -6.29304 -1.69763 0
M  V30 9333 N 903.119 -0.802921 -1.35613 0
M  V30 9334 C 904.535 -0.486214 -1.52014 0
M  V30 9335 C 904.735 0.993219 -1.75321 0
M  V30 9336 O 903.791 1.77835 -1.79251 0
M  V30 9337 C 905.104 -1.32839 -2.69767 0
M  V30 9338 C 906.652 -1.32346 -2.83643 0
M  V30 9339 C 907.127 -2.14967 -4.04417 0
M  V30 9340 N 908.618 -2.12484 -4.11588 0
M  V30 9341 C 909.353 -2.73173 -5.04147 0
M  V30 9342 N 908.849 -3.42774 -6.02061 0
M  V30 9343 N 910.642 -2.62834 -4.96865 0
M  V30 9344 H 902.793 -1.76109 -1.18741 0
M  V30 9345 H 905.056 -0.74936 -0.580658 0
M  V30 9346 H 904.762 -2.37813 -2.5911 0
M  V30 9347 H 904.636 -0.979058 -3.64272 0
M  V30 9348 H 907.023 -0.281586 -2.93753 0
M  V30 9349 H 907.104 -1.71264 -1.90006 0
M  V30 9350 H 906.748 -3.19193 -3.95068 0
M  V30 9351 H 906.678 -1.73411 -4.97228 0
M  V30 9352 H 909.169 -1.61839 -3.41492 0
M  V30 9353 H 909.482 -3.86378 -6.69277 0
M  V30 9354 H 907.827 -3.46878 -6.02246 0
M  V30 9355 H 911.018 -2.08049 -4.19325 0
M  V30 9356 H 911.191 -3.10421 -5.68808 0
M  V30 9357 N 904.597 1.47463 -0.556102 0
M  V30 9358 C 905.825 2.06868 -0.0364585 0
M  V30 9359 C 906.24 1.40893 1.25677 0
M  V30 9360 O 905.597 0.505083 1.75371 0
M  V30 9361 C 905.648 3.61128 0.163984 0
M  V30 9362 O 905.369 4.24629 -1.07803 0
M  V30 9363 C 906.87 4.37397 0.721036 0
M  V30 9364 H 904.09 0.669466 -0.0453399 0
M  V30 9365 H 906.634 1.89482 -0.769198 0
M  V30 9366 H 904.789 3.78031 0.84685 0
M  V30 9367 H 905.203 5.17149 -0.875067 0
M  V30 9368 H 906.677 5.46016 0.810584 0
M  V30 9369 H 907.154 4.03604 1.73206 0
M  V30 9370 H 907.76 4.25236 0.073904 0
M  V30 9371 N 906.075 0.2925 1.54862 0
M  V30 9372 C 907.005 -0.580677 2.26165 0
M  V30 9373 C 907.986 -1.14485 1.25806 0
M  V30 9374 O 909.171 -1.17577 1.54562 0
M  V30 9375 C 906.301 -1.75668 2.99596 0
M  V30 9376 C 905.255 -1.32325 4.07031 0
M  V30 9377 C 904.581 -2.58374 4.68131 0
M  V30 9378 C 905.881 -0.460703 5.20264 0
M  V30 9379 H 907.575 0.0140075 2.99397 0
M  V30 9380 H 905.121 0.00817706 1.43998 0
M  V30 9381 H 907.074 -2.37356 3.48195 0
M  V30 9382 H 905.798 -2.37747 2.23928 0
M  V30 9383 H 904.457 -0.729477 3.59269 0
M  V30 9384 H 904.105 -3.18749 3.89112 0
M  V30 9385 H 903.805 -2.30078 5.40683 0
M  V30 9386 H 905.329 -3.2088 5.19489 0
M  V30 9387 H 906.743 -0.983037 5.64809 0
M  V30 9388 H 905.14 -0.271881 5.99484 0
M  V30 9389 H 906.21 0.516304 4.82143 0
M  V30 9390 N 907.553 -1.57587 0.0200696 0
M  V30 9391 C 908.485 -2.06555 -0.993359 0
M  V30 9392 C 909.498 -0.987227 -1.29451 0
M  V30 9393 O 910.687 -1.26361 -1.26075 0
M  V30 9394 C 907.787 -2.4675 -2.3231 0
M  V30 9395 C 906.96 -3.77554 -2.20843 0
M  V30 9396 C 906.019 -4.04397 -3.36674 0
M  V30 9397 O 905.045 -4.7478 -3.13963 0
M  V30 9398 N 906.247 -3.53861 -4.60176 0
M  V30 9399 H 909.012 -2.9412 -0.575617 0
M  V30 9400 H 906.573 -1.61038 -0.166889 0
M  V30 9401 H 908.565 -2.61806 -3.08609 0
M  V30 9402 H 907.135 -1.64598 -2.65756 0
M  V30 9403 H 906.355 -3.72382 -1.29327 0
M  V30 9404 H 907.643 -4.63271 -2.10375 0
M  V30 9405 H 907.041 -2.96904 -4.81523 0
M  V30 9406 H 905.598 -3.74213 -5.33674 0
M  V30 9407 N 909.032 0.252966 -1.55557 0
M  V30 9408 C 910.257 1.0038 -1.8149 0
M  V30 9409 C 910.682 1.78397 -0.596318 0
M  V30 9410 O 910.04 1.7551 0.454535 0
M  V30 9411 C 910.088 1.9222 -3.05096 0
M  V30 9412 O 909.192 3.01302 -2.81587 0
M  V30 9413 H 908.533 0.285949 -0.599274 0
M  V30 9414 H 911.063 0.275795 -2.02733 0
M  V30 9415 H 911.073 2.338 -3.34368 0
M  V30 9416 H 909.748 1.34852 -3.93431 0
M  V30 9417 H 908.325 2.63894 -2.63466 0
M  V30 9418 N 910.51 1.48831 0.518367 0
M  V30 9419 C 911.457 1.64216 1.62178 0
M  V30 9420 C 912.427 0.483942 1.58894 0
M  V30 9421 O 913.612 0.708857 1.77144 0
M  V30 9422 C 910.752 1.69867 3.00399 0
M  V30 9423 C 909.865 2.96875 3.1383 0
M  V30 9424 C 909 2.93613 4.42679 0
M  V30 9425 C 908.039 4.15276 4.4968 0
M  V30 9426 N 907.176 4.10024 5.69934 0
M  V30 9427 H 912.016 2.58439 1.48368 0
M  V30 9428 H 909.553 1.28154 0.722152 0
M  V30 9429 H 911.511 1.71124 3.8049 0
M  V30 9430 H 910.141 0.791249 3.12952 0
M  V30 9431 H 909.193 3.0531 2.26914 0
M  V30 9432 H 910.505 3.86863 3.14863 0
M  V30 9433 H 909.659 2.93337 5.31073 0
M  V30 9434 H 908.398 2.01375 4.44184 0
M  V30 9435 H 907.403 4.15816 3.59691 0
M  V30 9436 H 908.628 5.08687 4.49904 0
M  V30 9437 H 906.574 3.20613 5.72314 0
M  V30 9438 H 906.491 4.93728 5.72511 0
M  V30 9439 H 907.759 4.13824 6.60583 0
M  V30 9440 N 911.988 -0.768124 1.37614 0
M  V30 9441 C 913.399 -1.34462 1.29525 0
M  V30 9442 C 913.75 -1.96121 -0.0555168 0
M  V30 9443 O 912.875 -1.94069 -0.957406 0
M  V30 9444 C 913.47 -2.44475 2.34558 0
M  V30 9445 C 912.029 -2.97883 2.30093 0
M  V30 9446 C 911.176 -1.71131 2.18196 0
M  V30 9447 H 914.127 -0.568103 1.48183 0
M  V30 9448 H 914.148 -3.24047 1.99434 0
M  V30 9449 H 913.66 -1.99568 3.32858 0
M  V30 9450 H 911.761 -3.47156 1.35328 0
M  V30 9451 H 911.874 -3.53251 3.23652 0
M  V30 9452 H 910.238 -1.94197 1.64802 0
M  V30 9453 H 911.021 -1.28323 3.18415 0
M  V30 9454 N 913.466 -1.22244 -0.994698 0
M  V30 9455 C 914.691 -1.07299 -1.77487 0
M  V30 9456 C 915.116 0.372302 -1.84379 0
M  V30 9457 O 914.474 1.2689 -1.29494 0
M  V30 9458 C 914.522 -1.68675 -3.18718 0
M  V30 9459 O 913.626 -0.939202 -4.01563 0
M  V30 9460 H 912.967 -0.376979 -0.546611 0
M  V30 9461 H 915.497 -1.62003 -1.24965 0
M  V30 9462 H 915.507 -1.73324 -3.69354 0
M  V30 9463 H 914.182 -2.73849 -3.13017 0
M  V30 9464 H 912.759 -0.968583 -3.60101 0
M  V30 9465 N 914.944 1.19125 -1.03184 0
M  V30 9466 C 915.907 2.20662 -0.619766 0
M  V30 9467 C 916.907 1.57621 0.318179 0
M  V30 9468 O 918.097 1.73885 0.104783 0
M  V30 9469 C 915.229 3.40774 0.0926696 0
M  V30 9470 H 916.422 2.58633 -1.5182 0
M  V30 9471 H 913.975 1.32855 -0.823364 0
M  V30 9472 H 914.71 3.08324 1.00531 0
M  V30 9473 H 914.495 3.87766 -0.581344 0
M  V30 9474 H 915.985 4.15977 0.367792 0
M  V30 9475 N 916.422 0.810101 1.35185 0
M  V30 9476 C 917.833 0.452616 1.81131 0
M  V30 9477 C 918.184 -1.02573 1.67252 0
M  V30 9478 O 917.309 -1.79735 1.20516 0
M  V30 9479 C 917.904 0.814775 3.28857 0
M  V30 9480 C 916.463 0.509839 3.72931 0
M  V30 9481 C 915.61 1.03852 2.57119 0
M  V30 9482 H 918.561 1.00143 1.23114 0
M  V30 9483 H 918.582 0.113635 3.8033 0
M  V30 9484 H 918.094 1.89078 3.38926 0
M  V30 9485 H 916.195 -0.557289 3.68409 0
M  V30 9486 H 916.308 1.04493 4.67566 0
M  V30 9487 H 914.672 0.460671 2.50499 0
M  V30 9488 H 915.455 2.12071 2.69964 0
M  V30 9489 N 917.9 -1.47166 0.563914 0
M  V30 9490 C 919.311 -1.86231 0.132307 0
M  V30 9491 C 919.662 -1.46976 -1.29971 0
M  V30 9492 O 918.787 -0.875911 -1.97881 0
M  V30 9493 C 919.382 -3.37996 0.233335 0
M  V30 9494 C 917.941 -3.76127 -0.143278 0
M  V30 9495 C 917.088 -2.71212 0.577857 0
M  V30 9496 H 920.039 -1.38588 0.773249 0
M  V30 9497 H 920.06 -3.76558 -0.546309 0
M  V30 9498 H 919.572 -3.66535 1.27568 0
M  V30 9499 H 917.673 -3.53205 -1.18648 0
M  V30 9500 H 917.786 -4.78595 0.219952 0
M  V30 9501 H 916.15 -2.54692 0.020186 0
M  V30 9502 H 916.933 -3.02593 1.62149 0
M  V30 9503 N 919.378 -0.300708 -1.54705 0
M  V30 9504 C 920.31 0.609179 -2.20956 0
M  V30 9505 C 921.323 1.09776 -1.20221 0
M  V30 9506 O 922.512 1.01527 -1.46815 0
M  V30 9507 C 919.612 1.84595 -2.84214 0
M  V30 9508 C 918.785 1.49991 -4.10879 0
M  V30 9509 C 917.844 2.5918 -4.57943 0
M  V30 9510 O 916.87 2.24285 -5.23149 0
M  V30 9511 N 918.072 3.89714 -4.30236 0
M  V30 9512 H 920.837 0.0420111 -2.99671 0
M  V30 9513 H 918.398 -0.122896 -1.61433 0
M  V30 9514 H 920.39 2.56988 -3.12633 0
M  V30 9515 H 918.96 2.32152 -2.09342 0
M  V30 9516 H 918.18 0.608637 -3.89473 0
M  V30 9517 H 919.468 1.24409 -4.93356 0
M  V30 9518 H 918.866 4.20874 -3.77997 0
M  V30 9519 H 917.423 4.58406 -4.63365 0
M  V30 9520 N 920.856 1.57574 -0.0284266 0
M  V30 9521 C 922.133 1.83064 0.688979 0
M  V30 9522 C 922.513 0.91219 1.90374 0
M  V30 9523 O 921.861 -0.0323672 2.28477 0
M  V30 9524 C 922.071 3.32262 1.06785 0
M  V30 9525 C 923.419 3.98717 1.45978 0
M  V30 9526 O 924.443 3.36753 1.16085 0
M  V30 9527 O 923.302 5.07927 2.01673 0
M  V30 9528 H 920.396 0.7548 0.337944 0
M  V30 9529 H 922.942 1.69607 -0.0560555 0
M  V30 9530 H 921.714 3.90772 0.203235 0
M  V30 9531 H 921.337 3.50823 1.87107 0
M  V30 9532 N 922.334 -0.244713 1.55689 0
M  V30 9533 C 923.58 -0.973886 1.77886 0
M  V30 9534 C 923.913 -1.8489 0.594071 0
M  V30 9535 O 923.188 -1.90182 -0.407564 0
M  V30 9536 C 923.471 -1.83255 3.09983 0
M  V30 9537 C 923.324 -0.985571 4.3887 0
M  V30 9538 C 924.643 -2.81464 3.38329 0
M  V30 9539 H 921.762 -0.352629 0.647165 0
M  V30 9540 H 924.404 -0.244243 1.88424 0
M  V30 9541 H 922.554 -2.45464 3.01131 0
M  V30 9542 H 924.226 -0.382005 4.59716 0
M  V30 9543 H 922.469 -0.29002 4.32829 0
M  V30 9544 H 923.14 -1.62022 5.27686 0
M  V30 9545 H 925.616 -2.2939 3.47159 0
M  V30 9546 H 924.492 -3.38663 4.31971 0
M  V30 9547 H 924.753 -3.58037 2.59349 0
M  V30 9548 N 923.813 -1.49104 -0.510467 0
M  V30 9549 C 924.76 -1.65074 -1.61305 0
M  V30 9550 C 925.73 -0.492362 -1.58635 0
M  V30 9551 O 926.915 -0.718241 -1.76765 0
M  V30 9552 C 924.055 -1.71457 -2.99493 0
M  V30 9553 C 923.168 -2.98536 -3.12251 0
M  V30 9554 C 922.303 -2.95957 -4.41116 0
M  V30 9555 C 921.342 -4.17655 -4.47471 0
M  V30 9556 N 920.479 -4.13041 -5.67751 0
M  V30 9557 H 925.319 -2.59222 -1.46996 0
M  V30 9558 H 922.856 -1.28535 -0.715346 0
M  V30 9559 H 924.814 -1.7314 -3.79577 0
M  V30 9560 H 923.444 -0.807834 -3.12528 0
M  V30 9561 H 922.496 -3.06509 -2.25292 0
M  V30 9562 H 923.808 -3.88527 -3.12807 0
M  V30 9563 H 922.962 -2.96149 -5.2951 0
M  V30 9564 H 921.701 -2.03728 -4.4311 0
M  V30 9565 H 920.706 -4.17717 -3.57481 0
M  V30 9566 H 921.931 -5.11066 -4.472 0
M  V30 9567 H 919.877 -3.23643 -5.70606 0
M  V30 9568 H 919.794 -4.96757 -5.69884 0
M  V30 9569 H 921.062 -4.17322 -6.58379 0
M  V30 9570 N 925.291 0.760815 -1.38019 0
M  V30 9571 C 926.531 1.53264 -1.35239 0
M  V30 9572 C 926.895 1.91908 0.0595038 0
M  V30 9573 O 928.096 2.67962 0.212122 0
M  V30 9574 C 926.367 2.75643 -2.27499 0
M  V30 9575 S 927.926 3.6559 -2.42672 0
M  V30 9576 H 924.744 0.52457 -0.479945 0
M  V30 9577 H 927.346 0.893737 -1.73875 0
M  V30 9578 H 926.05 2.4535 -3.28986 0
M  V30 9579 H 925.581 3.44483 -1.89987 0
M  V30 9580 H 927.596 4.68124 -1.64542 0
M  V30 9581 N 926.769 1.22769 0.988202 0
M  V30 9582 C 928.015 1.05665 1.73097 0
M  V30 9583 C 928.348 -0.406615 1.89895 0
M  V30 9584 O 927.623 -1.30132 1.44554 0
M  V30 9585 C 927.906 1.77381 3.13382 0
M  V30 9586 C 927.759 3.31332 3.04203 0
M  V30 9587 C 929.078 1.52999 4.12649 0
M  V30 9588 H 926.197 0.385258 0.628288 0
M  V30 9589 H 928.839 1.51171 1.15097 0
M  V30 9590 H 926.989 1.38696 3.62899 0
M  V30 9591 H 928.661 3.79489 2.6227 0
M  V30 9592 H 926.904 3.60767 2.40894 0
M  V30 9593 H 927.575 3.76692 4.03493 0
M  V30 9594 H 930.051 1.86611 3.71908 0
M  V30 9595 H 928.927 2.05666 5.08913 0
M  V30 9596 H 929.188 0.463615 4.39662 0
M  V30 9597 N 928.247 -1.18576 1.03814 0
M  V30 9598 C 929.472 -1.92978 0.759873 0
M  V30 9599 C 929.897 -1.75514 -0.676486 0
M  V30 9600 O 929.255 -1.06359 -1.46824 0
M  V30 9601 C 929.303 -3.42507 1.12788 0
M  V30 9602 O 928.407 -4.1163 0.251886 0
M  V30 9603 H 927.748 -0.602129 0.279886 0
M  V30 9604 H 930.278 -1.50383 1.3873 0
M  V30 9605 H 930.288 -3.93206 1.08872 0
M  V30 9606 H 928.963 -3.5454 2.17427 0
M  V30 9607 H 927.54 -3.7125 0.350441 0
M  V30 9608 N 929.725 -0.817259 -1.34754 0
M  V30 9609 C 930.971 -0.403244 -1.98751 0
M  V30 9610 C 931.304 1.02963 -1.64658 0
M  V30 9611 O 930.579 1.71617 -0.915314 0
M  V30 9612 C 930.862 -0.599188 -3.5508 0
M  V30 9613 C 930.715 -2.07777 -3.98934 0
M  V30 9614 C 932.034 -0.0315656 -4.40089 0
M  V30 9615 H 929.153 -0.147988 -0.721989 0
M  V30 9616 H 931.795 -1.02877 -1.59738 0
M  V30 9617 H 929.945 -0.0667116 -3.88443 0
M  V30 9618 H 931.617 -2.67345 -3.75931 0
M  V30 9619 H 929.86 -2.57031 -3.49453 0
M  V30 9620 H 930.531 -2.16571 -5.07741 0
M  V30 9621 H 933.007 -0.48644 -4.13247 0
M  V30 9622 H 931.883 -0.198507 -5.48541 0
M  V30 9623 H 932.144 1.06302 -4.2913 0
M  V30 9624 N 931.203 1.46865 -0.571711 0
M  V30 9625 C 932.619 1.57897 -0.23255 0
M  V30 9626 C 932.819 1.56836 1.26509 0
M  V30 9627 O 931.875 1.47947 2.04617 0
M  V30 9628 C 933.188 2.87778 -0.872036 0
M  V30 9629 C 934.736 3.01389 -0.844605 0
M  V30 9630 C 935.211 4.33991 -1.46343 0
M  V30 9631 N 936.702 4.40662 -1.42727 0
M  V30 9632 C 937.437 5.41858 -1.87557 0
M  V30 9633 N 936.933 6.49787 -2.4031 0
M  V30 9634 N 938.726 5.32992 -1.7854 0
M  V30 9635 H 930.877 1.45798 -1.54457 0
M  V30 9636 H 933.14 0.694785 -0.644964 0
M  V30 9637 H 932.846 2.94332 -1.92513 0
M  V30 9638 H 932.72 3.75345 -0.373677 0
M  V30 9639 H 935.107 2.94423 0.19984 0
M  V30 9640 H 935.188 2.15327 -1.38087 0
M  V30 9641 H 934.832 4.41714 -2.50701 0
M  V30 9642 H 934.762 5.18809 -0.902479 0
M  V30 9643 H 937.253 3.63263 -1.04155 0
M  V30 9644 H 937.566 7.23199 -2.72403 0
M  V30 9645 H 935.911 6.50637 -2.44329 0
M  V30 9646 H 939.102 4.47575 -1.37093 0
M  V30 9647 H 939.275 6.11716 -2.13794 0
M  V30 9648 N 932.681 0.308908 1.54543 0
M  V30 9649 C 933.906 -0.303196 2.05172 0
M  V30 9650 C 934.331 -1.46133 1.18434 0
M  V30 9651 O 933.689 -1.803 0.190162 0
M  V30 9652 C 933.737 -0.729526 3.53143 0
M  V30 9653 O 932.841 -1.83348 3.69401 0
M  V30 9654 H 932.182 -0.0575066 0.661505 0
M  V30 9655 H 934.712 0.453055 1.99521 0
M  V30 9656 H 934.722 -1.01619 3.95143 0
M  V30 9657 H 933.397 0.117622 4.15734 0
M  V30 9658 H 931.974 -1.54676 3.39308 0
M  V30 9659 N 934.159 -1.57557 0.0367827 0
M  V30 9660 C 935.387 -1.96419 -0.650168 0
M  V30 9661 C 935.802 -0.913656 -1.6522 0
M  V30 9662 O 935.159 0.103718 -1.82205 0
M  V30 9663 C 935.21 -3.35355 -1.3498 0
M  V30 9664 O 934.931 -4.36379 -0.387905 0
M  V30 9665 C 936.432 -3.88892 -2.12786 0
M  V30 9666 H 933.652 -0.646751 -0.178756 0
M  V30 9667 H 936.196 -2.04261 0.0988197 0
M  V30 9668 H 934.351 -3.28708 -2.05012 0
M  V30 9669 H 934.765 -5.16969 -0.885596 0
M  V30 9670 H 936.239 -4.88428 -2.5718 0
M  V30 9671 H 936.716 -3.23547 -2.97008 0
M  V30 9672 H 937.322 -3.98831 -1.47694 0
M  V30 9673 N 935.637 0.236453 -1.55816 0
M  V30 9674 C 936.6 1.27633 -1.90375 0
M  V30 9675 C 937.6 1.40557 -0.781048 0
M  V30 9676 O 938.79 1.39078 -1.04895 0
M  V30 9677 C 935.922 2.65247 -2.14142 0
M  V30 9678 H 937.115 0.982019 -2.83366 0
M  V30 9679 H 934.668 0.476215 -1.48869 0
M  V30 9680 H 935.403 2.99801 -1.23653 0
M  V30 9681 H 935.188 2.57246 -2.95917 0
M  V30 9682 H 936.678 3.40313 -2.42026 0
M  V30 9683 N 937.115 1.49373 0.502552 0
M  V30 9684 C 938.364 1.58028 1.25339 0
M  V30 9685 C 938.677 0.271494 1.93707 0
M  V30 9686 O 939.883 0.236584 2.70467 0
M  V30 9687 C 938.339 2.78817 2.27572 0
M  V30 9688 C 937.947 4.16448 1.65151 0
M  V30 9689 C 939.691 2.96802 3.03494 0
M  V30 9690 C 937.598 5.28461 2.65486 0
M  V30 9691 H 936.528 0.588396 0.471494 0
M  V30 9692 H 939.179 1.75756 0.52744 0
M  V30 9693 H 937.561 2.5458 3.03323 0
M  V30 9694 H 938.735 4.50816 0.954029 0
M  V30 9695 H 937.05 4.03809 1.01625 0
M  V30 9696 H 939.647 3.77656 3.78524 0
M  V30 9697 H 939.99 2.07303 3.61014 0
M  V30 9698 H 940.523 3.21071 2.34858 0
M  V30 9699 H 937.262 6.20015 2.12749 0
M  V30 9700 H 936.782 4.9855 3.33479 0
M  V30 9701 H 938.461 5.5773 3.27943 0
M  V30 9702 N 938.594 -0.753485 1.38421 0
M  V30 9703 C 939.524 -1.8808 1.38377 0
M  V30 9704 C 940.505 -1.68258 0.249664 0
M  V30 9705 O 941.69 -1.88848 0.45276 0
M  V30 9706 C 938.82 -3.25608 1.20818 0
M  V30 9707 C 937.774 -3.60032 2.31433 0
M  V30 9708 C 937.1 -4.96297 1.9898 0
M  V30 9709 C 938.4 -3.64898 3.73694 0
M  V30 9710 H 940.094 -1.88375 2.32713 0
M  V30 9711 H 937.64 -0.90489 1.12017 0
M  V30 9712 H 939.593 -4.04127 1.19412 0
M  V30 9713 H 938.317 -3.25793 0.229433 0
M  V30 9714 H 936.976 -2.83831 2.32025 0
M  V30 9715 H 936.624 -4.93043 0.995889 0
M  V30 9716 H 936.324 -5.20298 2.73063 0
M  V30 9717 H 937.848 -5.77196 1.99193 0
M  V30 9718 H 939.262 -4.33531 3.75132 0
M  V30 9719 H 937.659 -4.00407 4.46983 0
M  V30 9720 H 938.729 -2.65124 4.06002 0
M  V30 9721 N 940.072 -1.23292 -0.981677 0
M  V30 9722 C 941.318 -1.06582 -1.72535 0
M  V30 9723 C 941.651 0.396538 -1.90108 0
M  V30 9724 O 940.926 1.29363 -1.45243 0
M  V30 9725 C 941.209 -1.7904 -3.12437 0
M  V30 9726 C 941.062 -3.32941 -3.02441 0
M  V30 9727 C 942.381 -1.55185 -4.11832 0
M  V30 9728 H 939.5 -0.388585 -0.626236 0
M  V30 9729 H 942.142 -1.51779 -1.14293 0
M  V30 9730 H 940.292 -1.40619 -3.62158 0
M  V30 9731 H 941.964 -3.80875 -2.60254 0
M  V30 9732 H 940.207 -3.62039 -2.38977 0
M  V30 9733 H 940.878 -3.78827 -4.0149 0
M  V30 9734 H 943.354 -1.88581 -3.70913 0
M  V30 9735 H 942.23 -2.08362 -5.07815 0
M  V30 9736 H 942.491 -0.486925 -4.3941 0
M  V30 9737 N 941.55 1.18024 -1.04442 0
M  V30 9738 C 942.775 1.92573 -0.770097 0
M  V30 9739 C 943.2 1.75871 0.667169 0
M  V30 9740 O 942.558 1.07136 1.46258 0
M  V30 9741 C 942.606 3.41904 -1.14602 0
M  V30 9742 O 941.71 4.11491 -0.273712 0
M  V30 9743 H 941.051 0.600636 -0.283076 0
M  V30 9744 H 943.581 1.49645 -1.39526 0
M  V30 9745 H 943.591 3.92623 -1.10956 0
M  V30 9746 H 942.266 3.53382 -2.19304 0
M  V30 9747 H 940.843 3.71059 -0.370124 0
M  V30 9748 N 943.028 0.824394 1.34319 0
M  V30 9749 C 944.274 0.422964 1.98954 0
M  V30 9750 C 944.629 -1.00323 1.64174 0
M  V30 9751 O 943.922 -1.6894 0.903869 0
M  V30 9752 C 944.116 0.564024 3.52921 0
M  V30 9753 C 943.945 2.00238 4.0266 0
M  V30 9754 C 942.715 2.63457 4.31183 0
M  V30 9755 C 944.913 2.9693 4.19925 0
M  V30 9756 N 942.895 3.98518 4.66966 0
M  V30 9757 C 944.266 4.16901 4.58904 0
M  V30 9758 C 946.321 2.93527 4.02177 0
M  V30 9759 C 945.024 5.33926 4.81991 0
M  V30 9760 C 947.05 4.09769 4.26431 0
M  V30 9761 C 946.412 5.28493 4.65698 0
M  V30 9762 H 942.511 0.202907 0.755217 0
M  V30 9763 H 945.095 1.0694 1.62702 0
M  V30 9764 H 943.266 -0.0525268 3.88364 0
M  V30 9765 H 944.998 0.135451 4.04473 0
M  V30 9766 H 941.753 2.14688 4.22145 0
M  V30 9767 H 942.177 4.68103 4.8909 0
M  V30 9768 H 946.819 2.02878 3.70945 0
M  V30 9769 H 944.537 6.25132 5.12089 0
M  V30 9770 H 948.123 4.08537 4.14233 0
M  V30 9771 H 947.003 6.16945 4.84096 0
M  V30 9772 N 944.506 -1.46559 0.579492 0
M  V30 9773 C 945.922 -1.57771 0.240921 0
M  V30 9774 C 946.122 -1.57505 -1.25676 0
M  V30 9775 O 945.178 -1.4903 -2.03829 0
M  V30 9776 C 946.491 -2.87311 0.887285 0
M  V30 9777 C 948.039 -3.00937 0.860576 0
M  V30 9778 C 948.514 -4.33208 1.48642 0
M  V30 9779 N 950.005 -4.39899 1.45062 0
M  V30 9780 C 950.74 -5.40856 1.90428 0
M  V30 9781 N 950.236 -6.48503 2.43752 0
M  V30 9782 N 952.029 -5.32037 1.81364 0
M  V30 9783 H 944.18 -1.44976 1.55228 0
M  V30 9784 H 946.443 -0.691354 0.648639 0
M  V30 9785 H 946.149 -2.93307 1.94071 0
M  V30 9786 H 946.023 -3.75141 0.393577 0
M  V30 9787 H 948.41 -2.94524 -0.184223 0
M  V30 9788 H 948.491 -2.14591 1.39227 0
M  V30 9789 H 948.135 -4.40378 2.5304 0
M  V30 9790 H 948.065 -5.18323 0.92998 0
M  V30 9791 H 950.556 -3.62706 1.0608 0
M  V30 9792 H 950.869 -7.21744 2.76234 0
M  V30 9793 H 949.214 -6.49332 2.47776 0
M  V30 9794 H 952.405 -4.46841 1.39465 0
M  V30 9795 H 952.578 -6.10573 2.17035 0
M  V30 9796 N 945.984 -0.3171 -1.54377 0
M  V30 9797 C 947.395 0.172287 -1.85903 0
M  V30 9798 C 947.746 1.52141 -1.23885 0
M  V30 9799 O 946.871 2.0949 -0.542476 0
M  V30 9800 C 947.466 0.319392 -3.37291 0
M  V30 9801 C 946.025 0.752998 -3.68791 0
M  V30 9802 C 945.172 -0.129143 -2.76999 0
M  V30 9803 H 948.123 -0.537597 -1.49317 0
M  V30 9804 H 948.144 1.15137 -3.62662 0
M  V30 9805 H 947.656 -0.662671 -3.82401 0
M  V30 9806 H 945.757 1.74504 -3.2921 0
M  V30 9807 H 945.87 0.561228 -4.75801 0
M  V30 9808 H 944.234 0.394242 -2.5163 0
M  V30 9809 H 945.017 -1.10785 -3.24933 0
M  V30 9810 N 947.462 1.57535 -0.0451378 0
M  V30 9811 C 948.873 1.80116 0.491426 0
M  V30 9812 C 949.224 0.956846 1.71286 0
M  V30 9813 O 948.349 0.17173 2.15718 0
M  V30 9814 C 948.944 3.26674 0.898315 0
M  V30 9815 C 947.503 3.50194 1.37989 0
M  V30 9816 C 946.65 2.75054 0.352202 0
M  V30 9817 H 949.601 1.56368 -0.271065 0
M  V30 9818 H 949.622 3.37263 1.76164 0
M  V30 9819 H 949.134 3.88099 0.009141 0
M  V30 9820 H 947.235 2.94041 2.28846 0
M  V30 9821 H 947.348 4.58909 1.37622 0
M  V30 9822 H 945.712 2.4101 0.823784 0
M  V30 9823 H 946.495 3.39203 -0.528782 0
M  V30 9824 N 948.94 -0.228186 1.55939 0
M  V30 9825 C 950.351 -0.795734 1.68893 0
M  V30 9826 C 950.702 -1.85261 0.645967 0
M  V30 9827 O 949.827 -2.15434 -0.2042 0
M  V30 9828 C 950.422 -1.45013 3.06197 0
M  V30 9829 C 948.981 -1.96514 3.21028 0
M  V30 9830 C 948.128 -0.822918 2.64808 0
M  V30 9831 H 951.079 -0.0036485 1.587 0
M  V30 9832 H 951.1 -2.31875 3.01685 0
M  V30 9833 H 950.612 -0.680678 3.82084 0
M  V30 9834 H 948.713 -2.76282 2.49998 0
M  V30 9835 H 948.826 -2.14967 4.28166 0
M  V30 9836 H 947.19 -1.22846 2.23116 0
M  V30 9837 H 947.973 -0.0662493 3.43236 0
M  V30 9838 N 950.418 -1.49637 -0.494624 0
M  V30 9839 C 951.829 -1.52573 -1.07603 0
M  V30 9840 C 952.18 -0.315591 -1.93645 0
M  V30 9841 O 951.305 0.573966 -2.08649 0
M  V30 9842 C 951.9 -2.7648 -1.95817 0
M  V30 9843 C 950.459 -2.82173 -2.49109 0
M  V30 9844 C 949.606 -2.4657 -1.2688 0
M  V30 9845 H 952.557 -1.56242 -0.278251 0
M  V30 9846 H 952.578 -2.57003 -2.80588 0
M  V30 9847 H 952.09 -3.64538 -1.33167 0
M  V30 9848 H 950.191 -1.9841 -3.15379 0
M  V30 9849 H 950.304 -3.84501 -2.85825 0
M  V30 9850 H 948.668 -1.98489 -1.59607 0
M  V30 9851 H 949.451 -3.3691 -0.659281 0
M  V30 9852 N 951.896 0.746133 -1.38819 0
M  V30 9853 C 952.806 1.89063 -1.38897 0
M  V30 9854 C 953.822 1.71648 -0.28513 0
M  V30 9855 O 954.998 1.94443 -0.524783 0
M  V30 9856 C 952.063 3.24523 -1.22007 0
M  V30 9857 C 951.124 3.54411 -2.42263 0
M  V30 9858 C 950.357 4.83408 -2.26169 0
M  V30 9859 O 950.58 5.56325 -1.25931 0
M  V30 9860 O 949.514 5.12943 -3.14918 0
M  V30 9861 H 953.34 1.91951 -2.35347 0
M  V30 9862 H 950.925 0.892433 -1.19816 0
M  V30 9863 H 952.807 4.05496 -1.14677 0
M  V30 9864 H 951.482 3.2243 -0.286455 0
M  V30 9865 H 950.389 2.73569 -2.55168 0
M  V30 9866 H 951.722 3.61273 -3.3428 0
M  V30 9867 N 953.375 1.23811 0.975125 0
M  V30 9868 C 954.603 1.10019 1.75224 0
M  V30 9869 C 955.018 -0.34791 1.85567 0
M  V30 9870 O 954.375 -1.24043 1.33864 0
M  V30 9871 C 954.426 1.72572 3.1765 0
M  V30 9872 O 954.147 3.11719 3.07836 0
M  V30 9873 C 955.648 1.64292 4.11732 0
M  V30 9874 H 952.868 0.38476 0.549728 0
M  V30 9875 H 955.412 1.63768 1.22476 0
M  V30 9876 H 953.567 1.22843 3.67408 0
M  V30 9877 H 953.981 3.42152 3.97533 0
M  V30 9878 H 955.455 2.12754 5.09352 0
M  V30 9879 H 955.932 0.602722 4.35045 0
M  V30 9880 H 956.538 2.13411 3.6788 0
M  V30 9881 N 954.853 -1.17469 1.05066 0
M  V30 9882 C 955.803 -2.19388 0.620713 0
M  V30 9883 C 956.787 -1.5722 -0.34214 0
M  V30 9884 O 957.979 -1.76279 -0.159574 0
M  V30 9885 C 955.108 -3.433 -0.00438518 0
M  V30 9886 C 954.194 -4.12569 0.982218 0
M  V30 9887 N 954.585 -4.57683 2.15313 0
M  V30 9888 C 952.883 -4.38575 0.810416 0
M  V30 9889 C 953.584 -5.11124 2.77719 0
M  V30 9890 N 952.56 -5.0325 2.05525 0
M  V30 9891 H 956.362 -2.51971 1.51287 0
M  V30 9892 H 953.876 -1.33784 0.920625 0
M  V30 9893 H 955.873 -4.15591 -0.330161 0
M  V30 9894 H 954.533 -3.12209 -0.89195 0
M  V30 9895 H 955.544 -4.51812 2.53154 0
M  V30 9896 H 952.221 -4.17492 -0.0262078 0
M  V30 9897 H 953.611 -5.56161 3.77008 0
M  V30 9898 N 956.331 -0.831506 -1.3388 0
M  V30 9899 C 957.279 -0.247896 -2.31275 0
M  V30 9900 C 958.273 0.616083 -1.578 0
M  V30 9901 O 959.479 0.506465 -1.72728 0
M  V30 9902 H 955.854 -0.0614293 -0.749487 0
M  V30 9903 H 957.825 -1.08401 -2.78014 0
M  V30 9904 C 956.574 0.568434 -3.43022 0
M  V30 9905 H 955.897 -0.0870654 -3.99705 0
M  V30 9906 H 957.337 0.942751 -4.13386 0
M  V30 9907 C 955.796 1.74431 -2.88228 0
M  V30 9908 O 956.326 2.84278 -2.83811 0
M  V30 9909 N 954.532 1.56382 -2.44935 0
M  V30 9910 H 954.079 0.670255 -2.48727 0
M  V30 9911 H 954.037 2.35208 -2.08625 0
M  V30 9912 N 957.809 1.4625 -0.587256 0
M  V30 9913 C 959.057 2.01963 -0.0744273 0
M  V30 9914 C 959.378 1.46065 1.29189 0
M  V30 9915 O 958.648 0.647077 1.84905 0
M  V30 9916 H 957.228 0.746597 -0.0245236 0
M  V30 9917 H 959.89 1.79299 -0.764063 0
M  V30 9918 H 958.986 3.12099 -0.00884894 0
M  V30 9919 N 959.287 0.325282 1.54207 0
M  V30 9920 C 960.25 -0.527228 2.23054 0
M  V30 9921 C 961.25 -1.04217 1.22456 0
M  V30 9922 O 962.44 -0.934325 1.47024 0
M  V30 9923 C 959.572 -1.7325 2.93594 0
M  V30 9924 H 960.765 0.0746423 2.99807 0
M  V30 9925 H 958.318 0.0763872 1.56113 0
M  V30 9926 H 959.053 -2.37356 2.20981 0
M  V30 9927 H 958.838 -1.37065 3.67363 0
M  V30 9928 H 960.328 -2.3376 3.46043 0
M  V30 9929 N 960.765 -1.57509 0.0534917 0
M  V30 9930 C 961.695 -2.14698 -0.917999 0
M  V30 9931 C 962.676 -1.06924 -1.32292 0
M  V30 9932 O 963.861 -1.34875 -1.39723 0
M  V30 9933 C 960.991 -2.69383 -2.19203 0
M  V30 9934 C 959.945 -3.82161 -1.9271 0
M  V30 9935 C 959.271 -4.23373 -3.26587 0
M  V30 9936 C 960.571 -5.07199 -1.24686 0
M  V30 9937 H 962.265 -2.96125 -0.44165 0
M  V30 9938 H 959.811 -1.42446 -0.210993 0
M  V30 9939 H 961.764 -3.08031 -2.87567 0
M  V30 9940 H 960.488 -1.85151 -2.69048 0
M  V30 9941 H 959.147 -3.43989 -1.26757 0
M  V30 9942 H 958.795 -3.36089 -3.74237 0
M  V30 9943 H 958.495 -4.99385 -3.09658 0
M  V30 9944 H 960.019 -4.64623 -3.96178 0
M  V30 9945 H 961.433 -5.43279 -1.83088 0
M  V30 9946 H 959.83 -5.88369 -1.18076 0
M  V30 9947 H 960.9 -4.84386 -0.223227 0
M  V30 9948 N 962.243 0.219913 -1.56058 0
M  V30 9949 C 963.489 0.945463 -1.79412 0
M  V30 9950 C 963.822 1.83922 -0.62341 0
M  V30 9951 O 963.097 1.90806 0.377256 0
M  V30 9952 C 963.38 1.783 -3.1286 0
M  V30 9953 C 963.233 0.915626 -4.40382 0
M  V30 9954 C 964.552 2.76045 -3.42764 0
M  V30 9955 H 961.671 0.342288 -0.652693 0
M  V30 9956 H 964.313 0.214235 -1.88788 0
M  V30 9957 H 962.463 2.40642 -3.04998 0
M  V30 9958 H 964.135 0.30882 -4.60265 0
M  V30 9959 H 962.378 0.221124 -4.33236 0
M  V30 9960 H 963.049 1.53607 -5.30197 0
M  V30 9961 H 965.525 2.23838 -3.50764 0
M  V30 9962 H 964.401 3.31748 -4.37304 0
M  V30 9963 H 964.662 3.53866 -2.65012 0
M  V30 9964 N 963.721 1.49897 0.486681 0
M  V30 9965 C 964.969 1.59789 1.23742 0
M  V30 9966 C 965.29 0.293056 1.92785 0
M  V30 9967 O 964.56 -0.688534 1.83401 0
M  V30 9968 H 963.14 0.588775 0.459731 0
M  V30 9969 H 965.802 1.86597 0.562808 0
M  V30 9970 H 964.898 2.40121 1.9937 0
M  V30 9971 N 965.199 -0.738761 1.39212 0
M  V30 9972 C 966.429 -1.5258 1.39295 0
M  V30 9973 C 966.837 -1.89194 -0.0153 0
M  V30 9974 O 966.18 -1.5435 -0.996073 0
M  V30 9975 C 966.242 -2.84462 2.19822 0
M  V30 9976 C 965.906 -2.70303 3.68491 0
M  V30 9977 C 966.903 -2.39102 4.61656 0
M  V30 9978 C 964.588 -2.87291 4.1203 0
M  V30 9979 C 966.582 -2.25066 5.96342 0
M  V30 9980 C 964.269 -2.72874 5.46793 0
M  V30 9981 C 965.267 -2.41807 6.38763 0
M  V30 9982 O 964.955 -2.27475 7.71045 0
M  V30 9983 H 964.687 -0.478236 0.477772 0
M  V30 9984 H 967.241 -0.920846 1.83602 0
M  V30 9985 H 965.471 -3.47202 1.70257 0
M  V30 9986 H 967.16 -3.46058 2.12129 0
M  V30 9987 H 967.926 -2.25632 4.2932 0
M  V30 9988 H 963.805 -3.10466 3.40781 0
M  V30 9989 H 967.349 -2.00739 6.68094 0
M  V30 9990 H 963.246 -2.85922 5.78722 0
M  V30 9991 H 964.014 -2.42574 7.81729 0
M  V30 9992 N 966.677 -1.24326 -0.968545 0
M  V30 9993 C 967.902 -1.1104 -1.75171 0
M  V30 9994 C 968.327 0.333109 -1.85127 0
M  V30 9995 O 967.685 1.24115 -1.32156 0
M  V30 9996 C 967.733 -1.75397 -3.15068 0
M  V30 9997 O 966.837 -1.02417 -3.9948 0
M  V30 9998 H 966.178 -0.388488 -0.538491 0
M  V30 9999 H 968.708 -1.64617 -1.215 0
M  V30 10000 H 968.718 -1.8112 -3.65595 0
M  V30 10001 H 967.393 -2.80427 -3.07138 0
M  V30 10002 H 965.97 -1.04475 -3.57966 0
M  V30 10003 N 968.156 1.1691 -1.05688 0
M  V30 10004 C 969.402 1.8757 -0.771071 0
M  V30 10005 C 969.735 1.8113 0.700399 0
M  V30 10006 O 969.01 1.22273 1.5126 0
M  V30 10007 C 969.293 3.37392 -1.25851 0
M  V30 10008 C 969.146 3.52556 -2.79329 0
M  V30 10009 C 970.465 4.31585 -0.861512 0
M  V30 10010 H 967.584 0.681089 -0.281579 0
M  V30 10011 H 970.226 1.37453 -1.31174 0
M  V30 10012 H 968.376 3.80204 -0.798563 0
M  V30 10013 H 970.048 3.18725 -3.33485 0
M  V30 10014 H 968.291 2.94668 -3.1836 0
M  V30 10015 H 968.962 4.57748 -3.08498 0
M  V30 10016 H 971.438 3.96642 -1.25756 0
M  V30 10017 H 970.314 5.34939 -1.23012 0
M  V30 10018 H 970.575 4.4148 0.234089 0
M  V30 10019 N 969.634 0.838594 1.33437 0
M  V30 10020 C 971.05 0.526347 1.50671 0
M  V30 10021 C 971.25 -0.946387 1.77893 0
M  V30 10022 O 970.306 -1.7302 1.83903 0
M  V30 10023 C 971.619 1.39945 2.6615 0
M  V30 10024 C 973.167 1.3982 2.80035 0
M  V30 10025 C 973.642 2.25614 3.98576 0
M  V30 10026 N 975.133 2.23322 4.0581 0
M  V30 10027 C 975.868 2.86443 4.96727 0
M  V30 10028 N 975.364 3.58616 5.92762 0
M  V30 10029 N 977.157 2.75915 4.89722 0
M  V30 10030 H 969.308 1.79195 1.1403 0
M  V30 10031 H 971.571 0.764491 0.560586 0
M  V30 10032 H 971.277 2.44599 2.52714 0
M  V30 10033 H 971.151 1.07529 3.61548 0
M  V30 10034 H 973.538 0.35937 2.92904 0
M  V30 10035 H 973.619 1.76241 1.85399 0
M  V30 10036 H 973.263 3.29555 3.86466 0
M  V30 10037 H 973.193 1.86533 4.92456 0
M  V30 10038 H 975.684 1.70836 3.37081 0
M  V30 10039 H 975.997 4.03987 6.58798 0
M  V30 10040 H 974.342 3.62724 5.92838 0
M  V30 10041 H 977.533 2.19094 4.13661 0
M  V30 10042 H 977.706 3.25393 5.60378 0
M  V30 10043 N 971.112 -1.45937 0.595003 0
M  V30 10044 C 972.342 -2.06399 0.0911607 0
M  V30 10045 C 972.75 -1.44236 -1.22444 0
M  V30 10046 O 972.093 -0.546265 -1.7539 0
M  V30 10047 C 972.155 -3.59242 -0.136079 0
M  V30 10048 C 971.819 -4.43668 1.09579 0
M  V30 10049 C 972.816 -4.79437 2.01088 0
M  V30 10050 C 970.501 -4.84616 1.32109 0
M  V30 10051 C 972.495 -5.54995 3.13464 0
M  V30 10052 C 970.182 -5.5993 2.44788 0
M  V30 10053 C 971.18 -5.95035 3.35294 0
M  V30 10054 O 970.868 -6.68825 4.46014 0
M  V30 10055 H 970.6 -0.673316 0.0601779 0
M  V30 10056 H 973.154 -1.88365 0.819005 0
M  V30 10057 H 971.384 -3.75629 -0.918676 0
M  V30 10058 H 973.073 -4.0159 -0.589954 0
M  V30 10059 H 973.839 -4.48371 1.84902 0
M  V30 10060 H 969.718 -4.56735 0.625662 0
M  V30 10061 H 973.262 -5.82314 3.84131 0
M  V30 10062 H 969.159 -5.90411 2.60931 0
M  V30 10063 H 969.927 -6.87262 4.44537 0
M  V30 10064 N 972.59 -0.333456 -1.54032 0
M  V30 10065 C 974.006 0.0188405 -1.59589 0
M  V30 10066 C 974.206 1.49615 -1.34972 0
M  V30 10067 O 973.262 2.2535 -1.13901 0
M  V30 10068 C 974.575 -0.408273 -2.97915 0
M  V30 10069 C 976.123 -0.359763 -3.10926 0
M  V30 10070 C 976.598 -0.76219 -4.51613 0
M  V30 10071 N 978.089 -0.715981 -4.57633 0
M  V30 10072 C 978.824 -0.999436 -5.64623 0
M  V30 10073 N 978.32 -1.35053 -6.79509 0
M  V30 10074 N 980.113 -0.924343 -5.54448 0
M  V30 10075 H 972.264 -1.29587 -1.68289 0
M  V30 10076 H 974.527 -0.527584 -0.787629 0
M  V30 10077 H 974.233 -1.43793 -3.20962 0
M  V30 10078 H 974.107 0.221685 -3.76548 0
M  V30 10079 H 976.494 0.660703 -2.87609 0
M  V30 10080 H 976.575 -1.02479 -2.34375 0
M  V30 10081 H 976.219 -1.78062 -4.75664 0
M  V30 10082 H 976.149 -0.0747478 -5.26547 0
M  V30 10083 H 978.64 -0.456875 -3.75128 0
M  V30 10084 H 978.953 -1.55194 -7.57057 0
M  V30 10085 H 977.298 -1.38889 -6.80981 0
M  V30 10086 H 980.489 -0.649469 -4.63573 0
M  V30 10087 H 980.662 -1.1486 -6.37739 0
M  V30 10088 N 974.068 1.57479 -0.061844 0
M  V30 10089 C 975.479 1.80627 0.472295 0
M  V30 10090 C 975.83 0.97496 1.70261 0
M  V30 10091 O 974.955 0.1946 2.15523 0
M  V30 10092 C 975.55 3.27608 0.863616 0
M  V30 10093 C 974.109 3.51638 1.34267 0
M  V30 10094 C 973.256 2.75412 0.323009 0
M  V30 10095 H 976.207 1.56072 -0.287634 0
M  V30 10096 H 976.228 3.39113 1.72577 0
M  V30 10097 H 975.74 3.88087 -0.0320226 0
M  V30 10098 H 973.841 2.96452 2.25714 0
M  V30 10099 H 973.954 4.60342 1.32747 0
M  V30 10100 H 972.318 2.4187 0.798175 0
M  V30 10101 H 973.101 3.38623 -0.564729 0
M  V30 10102 N 975.546 -0.211634 1.56173 0
M  V30 10103 C 976.476 -1.26533 1.96244 0
M  V30 10104 C 977.457 -1.48362 0.832028 0
M  V30 10105 O 978.642 -1.60378 1.0951 0
M  V30 10106 C 975.772 -2.61307 2.2877 0
M  V30 10107 C 974.726 -2.54119 3.44395 0
M  V30 10108 C 974.052 -3.93014 3.62552 0
M  V30 10109 C 975.352 -2.08046 4.79076 0
M  V30 10110 H 977.046 -0.932407 2.84511 0
M  V30 10111 H 974.592 -0.447084 1.36884 0
M  V30 10112 H 976.545 -3.35188 2.55396 0
M  V30 10113 H 975.269 -2.96307 1.37367 0
M  V30 10114 H 973.928 -1.82694 3.17834 0
M  V30 10115 H 973.576 -4.25338 2.68508 0
M  V30 10116 H 973.276 -3.89083 4.40327 0
M  V30 10117 H 974.8 -4.68542 3.91537 0
M  V30 10118 H 976.214 -2.71676 5.04842 0
M  V30 10119 H 974.611 -2.15154 5.60204 0
M  V30 10120 H 975.681 -1.03306 4.73768 0
M  V30 10121 N 977.024 -1.50153 -0.478725 0
M  V30 10122 C 978.272 -1.60443 -1.22892 0
M  V30 10123 C 978.593 -0.303276 -1.92627 0
M  V30 10124 O 977.863 0.678798 -1.83764 0
M  V30 10125 H 976.443 -0.591205 -0.456602 0
M  V30 10126 H 979.105 -1.86893 -0.552905 0
M  V30 10127 H 978.201 -2.41175 -1.98094 0
M  V30 10128 N 978.502 0.731368 -1.39602 0
M  V30 10129 C 979.727 1.52567 -1.40492 0
M  V30 10130 C 980.152 1.881 -0.00228828 0
M  V30 10131 O 979.51 1.52167 0.985643 0
M  V30 10132 C 979.558 2.78749 -2.2876 0
M  V30 10133 O 978.662 3.7482 -1.71999 0
M  V30 10134 H 978.003 0.460601 -0.478271 0
M  V30 10135 H 980.533 0.902042 -1.83642 0
M  V30 10136 H 980.543 3.27446 -2.43399 0
M  V30 10137 H 979.218 2.5222 -3.30693 0
M  V30 10138 H 977.795 3.33604 -1.66622 0
M  V30 10139 N 979.98 1.24838 0.961938 0
M  V30 10140 C 980.89 1.06304 2.09133 0
M  V30 10141 C 981.906 0.00221475 1.74 0
M  V30 10142 O 983.082 0.201611 2.00388 0
M  V30 10143 C 980.147 0.676117 3.40043 0
M  V30 10144 C 979.208 1.81407 3.89089 0
M  V30 10145 C 978.441 1.44551 5.13752 0
M  V30 10146 O 978.664 0.337894 5.69398 0
M  V30 10147 O 977.598 2.27316 5.57325 0
M  V30 10148 H 981.424 2.01001 2.27667 0
M  V30 10149 H 979.009 1.0371 1.07539 0
M  V30 10150 H 980.891 0.472124 4.18747 0
M  V30 10151 H 979.566 -0.241667 3.22797 0
M  V30 10152 H 978.473 2.07286 3.11421 0
M  V30 10153 H 979.806 2.71083 4.10822 0
M  V30 10154 N 981.458 -1.16348 1.06306 0
M  V30 10155 C 982.735 -1.829 0.69331 0
M  V30 10156 C 983.115 -1.94298 -0.82531 0
M  V30 10157 O 982.463 -1.48619 -1.73565 0
M  V30 10158 C 982.673 -3.1989 1.3954 0
M  V30 10159 C 984.021 -3.95662 1.54068 0
M  V30 10160 O 985.045 -3.29408 1.35532 0
M  V30 10161 O 983.904 -5.14422 1.84479 0
M  V30 10162 H 980.998 -0.789738 0.245445 0
M  V30 10163 H 983.544 -1.23549 1.16334 0
M  V30 10164 H 982.316 -3.06629 2.43093 0
M  V30 10165 H 981.939 -3.86918 0.915453 0
M  V30 10166 N 982.937 -0.845659 -1.3299 0
M  V30 10167 C 984.348 -0.50048 -1.79867 0
M  V30 10168 C 984.699 0.981027 -1.69913 0
M  V30 10169 O 983.824 1.76477 -1.25239 0
M  V30 10170 C 984.419 -0.901679 -3.26581 0
M  V30 10171 C 982.978 -0.608536 -3.71448 0
M  V30 10172 C 982.125 -1.10632 -2.54275 0
M  V30 10173 H 985.076 -1.03372 -1.20416 0
M  V30 10174 H 985.097 -0.214433 -3.79895 0
M  V30 10175 H 984.609 -1.97998 -3.33794 0
M  V30 10176 H 982.71 0.459416 -3.69757 0
M  V30 10177 H 982.823 -1.16853 -4.64631 0
M  V30 10178 H 981.187 -0.526925 -2.4919 0
M  V30 10179 H 981.97 -2.19154 -2.64247 0
M  V30 10180 N 984.415 1.45619 -0.602734 0
M  V30 10181 C 985.325 2.34288 0.120902 0
M  V30 10182 C 986.341 1.50952 0.865414 0
M  V30 10183 O 987.517 1.83768 0.824094 0
M  V30 10184 C 984.582 3.28489 1.10888 0
M  V30 10185 C 983.643 4.2773 0.366853 0
M  V30 10186 C 982.876 5.17429 1.30776 0
M  V30 10187 O 983.099 5.10459 2.54535 0
M  V30 10188 O 982.033 5.96459 0.807464 0
M  V30 10189 H 985.859 2.97559 -0.60765 0
M  V30 10190 H 983.444 1.44922 -0.363019 0
M  V30 10191 H 985.326 3.86549 1.67803 0
M  V30 10192 H 984.001 2.67789 1.81854 0
M  V30 10193 H 982.908 3.73299 -0.244643 0
M  V30 10194 H 984.241 4.91271 -0.302226 0
M  V30 10195 N 985.893 0.34162 1.53853 0
M  V30 10196 C 987.304 -0.14269 1.86154 0
M  V30 10197 C 987.655 -1.50151 1.2629 0
M  V30 10198 O 986.78 -2.08601 0.575735 0
M  V30 10199 C 987.375 -0.265691 3.37757 0
M  V30 10200 C 985.934 -0.694231 3.69942 0
M  V30 10201 C 985.081 0.173195 2.76759 0
M  V30 10202 H 988.032 0.561284 1.48443 0
M  V30 10203 H 988.053 -1.09352 3.64448 0
M  V30 10204 H 987.565 0.723424 3.81298 0
M  V30 10205 H 985.666 -1.69244 3.31945 0
M  V30 10206 H 985.779 -0.485461 4.76634 0
M  V30 10207 H 984.143 -0.35416 2.52226 0
M  V30 10208 H 984.926 1.15941 3.23129 0
M  V30 10209 N 987.371 -1.57444 0.0701946 0
M  V30 10210 C 988.318 -2.12631 -0.897599 0
M  V30 10211 C 989.288 -1.03841 -1.29639 0
M  V30 10212 O 990.473 -1.31495 -1.38253 0
M  V30 10213 C 987.613 -2.6911 -2.16041 0
M  V30 10214 C 986.726 -3.9205 -1.8144 0
M  V30 10215 C 985.861 -4.36778 -3.02321 0
M  V30 10216 C 984.9 -5.52371 -2.63729 0
M  V30 10217 N 984.037 -5.92065 -3.77364 0
M  V30 10218 H 988.877 -2.95024 -0.420104 0
M  V30 10219 H 986.414 -1.45792 -0.195716 0
M  V30 10220 H 988.372 -2.99963 -2.89962 0
M  V30 10221 H 987.002 -1.89484 -2.61334 0
M  V30 10222 H 986.054 -3.67669 -0.975896 0
M  V30 10223 H 987.366 -4.76011 -1.49046 0
M  V30 10224 H 986.52 -4.69285 -3.84521 0
M  V30 10225 H 985.259 -3.51668 -3.37907 0
M  V30 10226 H 984.264 -5.19517 -1.7995 0
M  V30 10227 H 985.489 -6.39212 -2.29315 0
M  V30 10228 H 983.435 -5.09904 -4.12715 0
M  V30 10229 H 983.352 -6.70762 -3.48733 0
M  V30 10230 H 984.62 -6.29193 -4.60148 0
M  V30 10231 N 988.849 0.203349 -1.56283 0
M  V30 10232 C 989.759 1.27266 -1.9708 0
M  V30 10233 C 990.775 1.50268 -0.877236 0
M  V30 10234 O 991.951 1.63044 -1.18231 0
M  V30 10235 C 989.016 2.59871 -2.29495 0
M  V30 10236 C 988.077 2.45012 -3.52516 0
M  V30 10237 C 987.31 3.71293 -3.83376 0
M  V30 10238 O 987.533 4.75106 -3.15643 0
M  V30 10239 O 986.467 3.67316 -4.76826 0
M  V30 10240 H 990.293 0.956461 -2.88246 0
M  V30 10241 H 987.878 0.407688 -1.4373 0
M  V30 10242 H 989.76 3.38152 -2.51458 0
M  V30 10243 H 988.435 2.91135 -1.415 0
M  V30 10244 H 987.342 1.6487 -3.35811 0
M  V30 10245 H 988.675 2.18683 -4.40952 0
M  V30 10246 N 990.327 1.50405 0.470755 0
M  V30 10247 C 991.573 1.6165 1.22462 0
M  V30 10248 C 991.906 0.316034 1.91611 0
M  V30 10249 O 991.181 -0.682509 1.82132 0
M  V30 10250 C 991.464 2.79702 2.26801 0
M  V30 10251 C 991.317 4.19631 1.61955 0
M  V30 10252 C 992.636 2.93313 3.28109 0
M  V30 10253 H 989.755 0.588345 0.443868 0
M  V30 10254 H 992.397 1.82792 0.518376 0
M  V30 10255 H 990.547 2.61807 2.87036 0
M  V30 10256 H 992.219 4.49117 1.05316 0
M  V30 10257 H 990.462 4.23874 0.922674 0
M  V30 10258 H 991.133 4.98162 2.37779 0
M  V30 10259 H 993.609 3.09697 2.77897 0
M  V30 10260 H 992.485 3.77537 3.98443 0
M  V30 10261 H 992.746 2.03942 3.9225 0
M  V30 10262 N 991.805 -0.723954 1.39988 0
M  V30 10263 C 992.753 -1.85938 1.39749 0
M  V30 10264 C 993.747 -1.67085 0.279112 0
M  V30 10265 O 994.953 -1.74291 0.44972 0
M  V30 10266 H 991.328 -0.612246 0.436644 0
M  V30 10267 H 993.299 -1.83255 2.355 0
M  V30 10268 C 992.048 -3.23726 1.26874 0
M  V30 10269 H 991.371 -3.38835 2.12206 0
M  V30 10270 H 992.811 -4.03332 1.30765 0
M  V30 10271 C 991.27 -3.36893 -0.0218317 0
M  V30 10272 O 991.8 -3.89363 -0.987905 0
M  V30 10273 N 990.006 -2.90465 -0.0885618 0
M  V30 10274 H 989.553 -2.47954 0.698314 0
M  V30 10275 H 989.511 -2.99654 -0.951557 0
M  V30 10276 N 993.283 -1.25346 -0.955304 0
M  V30 10277 C 994.531 -1.09837 -1.69647 0
M  V30 10278 C 994.852 0.361425 -1.91621 0
M  V30 10279 O 994.122 1.25666 -1.50283 0
M  V30 10280 H 992.702 -0.403467 -0.628668 0
M  V30 10281 H 995.364 -1.57459 -1.14859 0
M  V30 10282 H 994.46 -1.60616 -2.67598 0
M  V30 10283 N 994.761 1.15782 -1.06922 0
M  V30 10284 C 996.01 1.85807 -0.784774 0
M  V30 10285 C 996.323 1.82967 0.691551 0
M  V30 10286 O 997.529 2.48632 1.0906 0
M  V30 10287 C 995.985 3.33469 -1.35375 0
M  V30 10288 C 995.593 3.44766 -2.86077 0
M  V30 10289 C 997.337 4.08707 -1.14713 0
M  V30 10290 C 995.244 4.86551 -3.36187 0
M  V30 10291 H 994.174 0.696046 -0.28989 0
M  V30 10292 H 996.825 1.30629 -1.28873 0
M  V30 10293 H 995.207 3.88292 -0.77754 0
M  V30 10294 H 996.381 3.00073 -3.49704 0
M  V30 10295 H 994.696 2.82969 -3.05479 0
M  V30 10296 H 997.293 5.13336 -1.49633 0
M  V30 10297 H 997.636 4.16211 -0.0858868 0
M  V30 10298 H 998.169 3.60142 -1.68946 0
M  V30 10299 H 994.908 4.84229 -4.41818 0
M  V30 10300 H 994.428 5.31844 -2.77312 0
M  V30 10301 H 996.107 5.55392 -3.31887 0
M  V30 10302 N 996.239 0.8527 1.3254 0
M  V30 10303 C 997.65 0.510012 1.79599 0
M  V30 10304 C 998.001 -0.972002 1.70431 0
M  V30 10305 O 997.126 -1.7581 1.26173 0
M  V30 10306 C 997.721 0.918986 3.26098 0
M  V30 10307 C 996.28 0.628227 3.7112 0
M  V30 10308 C 995.427 1.11979 2.53685 0
M  V30 10309 H 998.378 1.04009 1.19866 0
M  V30 10310 H 998.399 0.234577 3.79776 0
M  V30 10311 H 997.911 1.99765 3.32739 0
M  V30 10312 H 996.012 -0.4398 3.69995 0
M  V30 10313 H 996.125 1.19315 4.64005 0
M  V30 10314 H 994.489 0.540133 2.48907 0
M  V30 10315 H 995.272 2.20552 2.63081 0
M  V30 10316 N 997.718 -1.45297 0.610449 0
M  V30 10317 C 999.129 -1.85715 0.191488 0
M  V30 10318 C 999.48 -1.51036 -1.25229 0
M  V30 10319 O 998.605 -0.938422 -1.94994 0
M  V30 10320 C 999.2 -3.37082 0.340747 0
M  V30 10321 C 997.759 -3.76393 -0.0235433 0
M  V30 10322 C 996.906 -2.69237 0.663849 0
M  V30 10323 H 999.857 -1.36058 0.816948 0
M  V30 10324 H 999.878 -3.78105 -0.426233 0
M  V30 10325 H 999.39 -3.62291 1.39164 0
M  V30 10326 H 997.491 -3.56801 -1.07351 0
M  V30 10327 H 997.604 -4.77653 0.372102 0
M  V30 10328 H 995.968 -2.54499 0.101204 0
M  V30 10329 H 996.751 -2.97281 1.71694 0
M  V30 10330 N 999.196 -0.349774 -1.5367 0
M  V30 10331 C 1000.42 0.246038 -2.05432 0
M  V30 10332 C 1000.84 1.43719 -1.22435 0
M  V30 10333 O 1000.2 1.80622 -0.261166 0
M  V30 10334 C 1000.25 0.65501 -3.55516 0
M  V30 10335 O 999.968 -0.488782 -4.35365 0
M  V30 10336 C 1001.47 1.31088 -4.23475 0
M  V30 10337 H 998.689 0.0463952 -0.669394 0
M  V30 10338 H 1001.23 -0.503566 -1.98203 0
M  V30 10339 H 999.388 1.35455 -3.62947 0
M  V30 10340 H 999.802 -0.161528 -5.24251 0
M  V30 10341 H 1001.28 1.54774 -5.29857 0
M  V30 10342 H 1001.75 2.26636 -3.76208 0
M  V30 10343 H 1002.36 0.653211 -4.20254 0
M  V30 10344 N 1000.67 1.57404 -0.0785433 0
M  V30 10345 C 1001.9 1.98074 0.597862 0
M  V30 10346 C 1002.32 0.95714 1.6274 0
M  V30 10347 O 1001.67 -0.0553728 1.82416 0
M  V30 10348 C 1001.72 3.38815 1.26041 0
M  V30 10349 O 1001.45 4.37254 0.27207 0
M  V30 10350 C 1002.95 3.94397 2.024 0
M  V30 10351 H 1000.17 0.651263 0.161546 0
M  V30 10352 H 1002.71 2.03927 -0.152941 0
M  V30 10353 H 1000.87 3.34028 1.96225 0
M  V30 10354 H 1001.28 5.19136 0.74822 0
M  V30 10355 H 1002.75 4.95075 2.4414 0
M  V30 10356 H 1003.23 3.31308 2.88326 0
M  V30 10357 H 1003.84 4.02607 1.37068 0
M  V30 10358 N 1002.15 -0.195058 1.56388 0
M  V30 10359 C 1003.38 -0.931642 1.84738 0
M  V30 10360 C 1003.79 -1.76849 0.661046 0
M  V30 10361 O 1003.15 -1.78705 -0.370241 0
M  V30 10362 C 1003.2 -1.82777 3.11889 0
M  V30 10363 O 1002.92 -1.02471 4.25948 0
M  V30 10364 C 1004.42 -2.67603 3.53417 0
M  V30 10365 H 1001.64 -0.271821 0.613477 0
M  V30 10366 H 1004.19 -0.202299 2.03497 0
M  V30 10367 H 1002.34 -2.51074 2.95027 0
M  V30 10368 H 1002.76 -1.63539 4.98353 0
M  V30 10369 H 1004.23 -3.26138 4.45352 0
M  V30 10370 H 1004.71 -3.41314 2.76408 0
M  V30 10371 H 1005.31 -2.04678 3.7281 0
M  V30 10372 N 1003.63 -1.50653 -0.462772 0
M  V30 10373 C 1004.56 -1.66286 -1.5774 0
M  V30 10374 C 1005.57 -0.544094 -1.53439 0
M  V30 10375 O 1006.76 -0.817566 -1.58676 0
M  V30 10376 C 1003.86 -1.63893 -2.96635 0
M  V30 10377 C 1003.04 -2.91939 -3.25716 0
M  V30 10378 C 1002.1 -2.82076 -4.44206 0
M  V30 10379 O 1001.12 -3.56032 -4.44106 0
M  V30 10380 N 1002.32 -1.96196 -5.4634 0
M  V30 10381 H 1005.09 -2.6243 -1.44742 0
M  V30 10382 H 1002.65 -1.48221 -0.651326 0
M  V30 10383 H 1004.64 -1.54897 -3.73884 0
M  V30 10384 H 1003.21 -0.75449 -3.03358 0
M  V30 10385 H 1002.43 -3.14998 -2.37002 0
M  V30 10386 H 1003.72 -3.7675 -3.4196 0
M  V30 10387 H 1003.12 -1.35439 -5.49247 0
M  V30 10388 H 1001.67 -1.93097 -6.2254 0
M  V30 10389 N 1005.11 0.71652 -1.4037 0
M  V30 10390 C 1006.36 1.47193 -1.37903 0
M  V30 10391 C 1006.67 1.95593 0.0159939 0
M  V30 10392 O 1007.88 2.71009 0.163282 0
M  V30 10393 C 1006.33 2.6606 -2.42363 0
M  V30 10394 C 1005.94 2.24533 -3.87671 0
M  V30 10395 C 1007.68 3.438 -2.49001 0
M  V30 10396 C 1005.59 3.40234 -4.8373 0
M  V30 10397 H 1004.52 0.552811 -0.512753 0
M  V30 10398 H 1007.17 0.779894 -1.66102 0
M  V30 10399 H 1005.55 3.37429 -2.07262 0
M  V30 10400 H 1006.73 1.6059 -4.31911 0
M  V30 10401 H 1005.04 1.59839 -3.845 0
M  V30 10402 H 1007.64 4.29893 -3.17956 0
M  V30 10403 H 1007.98 3.8755 -1.52023 0
M  V30 10404 H 1008.52 2.79474 -2.83088 0
M  V30 10405 H 1005.26 3.01517 -5.82037 0
M  V30 10406 H 1004.78 4.03095 -4.44156 0
M  V30 10407 H 1006.45 4.06312 -5.03507 0
M  V30 10408 N 1006.59 1.25851 0.948643 0
M  V30 10409 C 1007.52 1.09248 2.06367 0
M  V30 10410 C 1008.5 -0.000205168 1.701 0
M  V30 10411 O 1009.68 0.170442 1.93451 0
M  V30 10412 C 1006.81 0.716777 3.39823 0
M  V30 10413 C 1005.77 1.76036 3.90122 0
M  V30 10414 C 1005.09 1.23918 5.20143 0
M  V30 10415 C 1006.39 3.16039 4.15833 0
M  V30 10416 H 1008.09 2.02518 2.20515 0
M  V30 10417 H 1005.63 0.975093 1.05962 0
M  V30 10418 H 1007.59 0.587531 4.17284 0
M  V30 10419 H 1006.31 -0.251626 3.25629 0
M  V30 10420 H 1004.97 1.87815 3.14835 0
M  V30 10421 H 1004.62 0.260836 5.02323 0
M  V30 10422 H 1004.32 1.93673 5.54765 0
M  V30 10423 H 1005.84 1.12245 6.00194 0
M  V30 10424 H 1007.25 3.0738 4.83933 0
M  V30 10425 H 1005.65 3.83317 4.61723 0
M  V30 10426 H 1006.72 3.62652 3.21887 0
M  V30 10427 N 1008.06 -1.15214 1.07534 0
M  V30 10428 C 1008.99 -2.2216 0.718837 0
M  V30 10429 C 1009.98 -1.6753 -0.29459 0
M  V30 10430 O 1011.16 -1.93481 -0.166931 0
M  V30 10431 C 1008.29 -3.471 0.117836 0
M  V30 10432 C 1007.24 -4.14701 1.05862 0
M  V30 10433 C 1006.57 -5.3374 0.320284 0
M  V30 10434 C 1007.87 -4.64254 2.39302 0
M  V30 10435 H 1009.56 -2.52237 1.61297 0
M  V30 10436 H 1007.11 -1.21239 0.776992 0
M  V30 10437 H 1009.06 -4.21156 -0.143519 0
M  V30 10438 H 1007.79 -3.16361 -0.811389 0
M  V30 10439 H 1006.45 -3.42589 1.30493 0
M  V30 10440 H 1006.09 -4.99257 -0.61246 0
M  V30 10441 H 1005.79 -5.79912 0.947381 0
M  V30 10442 H 1007.32 -6.10563 0.0667721 0
M  V30 10443 H 1008.73 -5.29827 2.18988 0
M  V30 10444 H 1007.13 -5.21095 2.97623 0
M  V30 10445 H 1008.2 -3.79793 3.01472 0
M  V30 10446 N 1009.54 -0.859717 -1.32086 0
M  V30 10447 C 1010.45 -0.31108 -2.32528 0
M  V30 10448 C 1011.47 0.573714 -1.6427 0
M  V30 10449 O 1012.64 0.472878 -1.9577 0
M  V30 10450 C 1009.71 0.487256 -3.43259 0
M  V30 10451 C 1008.77 -0.424279 -4.27198 0
M  V30 10452 C 1008 0.336051 -5.32641 0
M  V30 10453 O 1008.23 1.56541 -5.48499 0
M  V30 10454 O 1007.16 -0.300777 -6.01148 0
M  V30 10455 H 1010.99 -1.14336 -2.81355 0
M  V30 10456 H 1008.57 -0.622794 -1.358 0
M  V30 10457 H 1010.45 0.940203 -4.10777 0
M  V30 10458 H 1009.13 1.29626 -2.96612 0
M  V30 10459 H 1008.04 -0.925509 -3.62471 0
M  V30 10460 H 1009.37 -1.1986 -4.77383 0
M  V30 10461 N 1011.02 1.44971 -0.618145 0
M  V30 10462 C 1011.98 2.29044 0.0846739 0
M  V30 10463 C 1012.98 1.40341 0.784921 0
M  V30 10464 O 1014.17 1.62351 0.631479 0
M  V30 10465 C 1011.31 3.21617 1.13027 0
M  V30 10466 H 1012.5 2.92668 -0.654612 0
M  V30 10467 H 1010.05 1.51668 -0.377672 0
M  V30 10468 H 1010.79 2.62815 1.89997 0
M  V30 10469 H 1010.57 3.86969 0.63224 0
M  V30 10470 H 1012.06 3.84805 1.62218 0
M  V30 10471 N 1012.5 0.357919 1.53482 0
M  V30 10472 C 1013.43 -0.484231 2.28424 0
M  V30 10473 C 1014.41 -1.09046 1.30548 0
M  V30 10474 O 1015.59 -1.10916 1.59409 0
M  V30 10475 C 1012.72 -1.62803 3.06778 0
M  V30 10476 C 1011.68 -1.14943 4.12277 0
M  V30 10477 C 1011 -2.38287 4.78669 0
M  V30 10478 C 1012.3 -0.239627 5.2175 0
M  V30 10479 H 1014 0.140979 2.99068 0
M  V30 10480 H 1011.54 0.069244 1.43833 0
M  V30 10481 H 1013.5 -2.22374 3.57949 0
M  V30 10482 H 1012.22 -2.28036 2.3381 0
M  V30 10483 H 1010.88 -0.576442 3.6204 0
M  V30 10484 H 1010.53 -3.01959 4.02281 0
M  V30 10485 H 1010.23 -2.06939 5.49955 0
M  V30 10486 H 1011.75 -2.98558 5.32631 0
M  V30 10487 H 1013.17 -0.742597 5.6847 0
M  V30 10488 H 1011.56 -0.0173747 6.00097 0
M  V30 10489 H 1012.63 0.720333 4.7952 0
M  V30 10490 N 1013.98 -1.5736 0.0868897 0
M  V30 10491 C 1014.89 -2.17087 -0.889402 0
M  V30 10492 C 1015.9 -1.13809 -1.31619 0
M  V30 10493 O 1017.08 -1.46143 -1.38579 0
M  V30 10494 C 1014.14 -2.73286 -2.13344 0
M  V30 10495 C 1013.2 -3.91491 -1.76164 0
M  V30 10496 C 1012.44 -4.45 -2.94637 0
M  V30 10497 O 1012.66 -3.97467 -4.09116 0
M  V30 10498 O 1011.59 -5.36133 -2.73579 0
M  V30 10499 H 1015.42 -3.00902 -0.411275 0
M  V30 10500 H 1013.01 -1.4877 -0.137015 0
M  V30 10501 H 1014.89 -3.0924 -2.86266 0
M  V30 10502 H 1013.56 -1.92521 -2.60225 0
M  V30 10503 H 1012.47 -3.60363 -1.00447 0
M  V30 10504 H 1013.8 -4.73593 -1.34053 0
M  V30 10505 N 1015.45 0.186762 -1.56489 0
M  V30 10506 C 1016.4 1.23141 -1.95205 0
M  V30 10507 C 1017.37 1.44799 -0.81378 0
M  V30 10508 O 1018.56 1.57795 -1.07263 0
M  V30 10509 C 1015.7 2.56926 -2.30397 0
M  V30 10510 C 1014.81 2.42777 -3.57328 0
M  V30 10511 C 1013.94 3.69323 -3.81804 0
M  V30 10512 C 1012.98 3.50041 -5.02133 0
M  V30 10513 N 1012.12 4.68619 -5.2282 0
M  V30 10514 H 1016.96 0.894256 -2.84266 0
M  V30 10515 H 1014.5 0.430187 -1.40669 0
M  V30 10516 H 1016.46 3.3488 -2.4882 0
M  V30 10517 H 1015.09 2.88668 -1.44466 0
M  V30 10518 H 1014.14 1.56078 -3.46906 0
M  V30 10519 H 1015.45 2.24468 -4.45439 0
M  V30 10520 H 1014.6 4.55715 -4.00511 0
M  V30 10521 H 1013.34 3.90595 -2.92039 0
M  V30 10522 H 1012.35 2.62034 -4.8334 0
M  V30 10523 H 1013.57 3.30206 -5.93414 0
M  V30 10524 H 1011.52 4.90139 -4.36005 0
M  V30 10525 H 1011.44 4.53165 -6.05126 0
M  V30 10526 H 1012.7 5.56338 -5.45993 0
M  V30 10527 N 1016.93 1.50896 0.454776 0
M  V30 10528 C 1018.18 1.63905 1.20444 0
M  V30 10529 C 1018.53 0.342692 1.89323 0
M  V30 10530 O 1017.83 -0.660465 1.79857 0
M  V30 10531 C 1018.02 2.76839 2.26042 0
M  V30 10532 C 1017.85 4.17332 1.67524 0
M  V30 10533 C 1016.62 4.83512 1.46779 0
M  V30 10534 C 1018.82 5.01022 1.1611 0
M  V30 10535 N 1016.8 6.08171 0.83675 0
M  V30 10536 C 1018.17 6.16538 0.654283 0
M  V30 10537 C 1020.23 4.86677 1.05119 0
M  V30 10538 C 1018.93 7.19284 0.0483821 0
M  V30 10539 C 1020.95 5.89614 0.459211 0
M  V30 10540 C 1020.32 7.0439 -0.0371476 0
M  V30 10541 H 1016.42 0.653802 0.42903 0
M  V30 10542 H 1019 1.88069 0.503783 0
M  V30 10543 H 1017.17 2.54369 2.93515 0
M  V30 10544 H 1018.9 2.7912 2.93043 0
M  V30 10545 H 1015.66 4.41082 1.72464 0
M  V30 10546 H 1016.08 6.7485 0.539176 0
M  V30 10547 H 1020.72 3.98211 1.42085 0
M  V30 10548 H 1018.44 8.07412 -0.333438 0
M  V30 10549 H 1022.03 5.80582 0.376315 0
M  V30 10550 H 1020.91 7.8268 -0.488035 0
M  V30 10551 N 1018.41 -0.709066 1.40748 0
M  V30 10552 C 1019.64 -1.49808 1.42707 0
M  V30 10553 C 1020.05 -1.88778 0.0285574 0
M  V30 10554 O 1019.41 -1.55883 -0.949035 0
M  V30 10555 C 1019.46 -2.76926 2.32366 0
M  V30 10556 O 1019.18 -2.39602 3.66773 0
M  V30 10557 C 1020.68 -3.70773 2.42986 0
M  V30 10558 H 1017.9 -0.462106 0.486517 0
M  V30 10559 H 1020.45 -0.874135 1.84876 0
M  V30 10560 H 1018.6 -3.3559 1.93541 0
M  V30 10561 H 1019.02 -3.21443 4.14457 0
M  V30 10562 H 1020.49 -4.56789 3.09916 0
M  V30 10563 H 1020.97 -4.14332 1.45691 0
M  V30 10564 H 1021.57 -3.18019 2.8239 0
M  V30 10565 N 1019.89 -1.26353 -0.941956 0
M  V30 10566 C 1020.82 -1.03634 -2.04432 0
M  V30 10567 C 1021.83 0.00295864 -1.628 0
M  V30 10568 O 1023.02 -0.237029 -1.76919 0
M  V30 10569 C 1020.12 -0.547231 -3.34453 0
M  V30 10570 C 1019.3 -1.65559 -4.04857 0
M  V30 10571 C 1018.36 -1.16466 -5.13149 0
M  V30 10572 O 1017.38 -1.86158 -5.37898 0
M  V30 10573 N 1018.58 -0.0126703 -5.80499 0
M  V30 10574 H 1021.35 -1.98558 -2.24488 0
M  V30 10575 H 1018.91 -1.17728 -1.11138 0
M  V30 10576 H 1020.9 -0.203004 -4.04191 0
M  V30 10577 H 1019.47 0.308401 -3.11075 0
M  V30 10578 H 1018.69 -2.17079 -3.29044 0
M  V30 10579 H 1019.98 -2.39985 -4.48647 0
M  V30 10580 H 1019.38 0.569358 -5.62828 0
M  V30 10581 H 1017.93 0.272486 -6.5123 0
M  V30 10582 N 1021.37 1.14642 -1.08144 0
M  V30 10583 C 1022.6 1.89209 -0.82966 0
M  V30 10584 C 1023.01 1.78697 0.621604 0
M  V30 10585 O 1022.35 1.14224 1.4387 0
M  V30 10586 C 1022.41 3.39958 -1.16915 0
M  V30 10587 C 1022.07 3.74254 -2.62264 0
M  V30 10588 C 1023.07 3.746 -3.60514 0
M  V30 10589 C 1020.76 4.04316 -2.9805 0
M  V30 10590 C 1022.75 4.04527 -4.92582 0
M  V30 10591 C 1020.44 4.33906 -4.30312 0
M  V30 10592 C 1021.44 4.33995 -5.27388 0
M  V30 10593 O 1021.12 4.62869 -6.57273 0
M  V30 10594 H 1020.86 0.606259 -0.299042 0
M  V30 10595 H 1023.41 1.46132 -1.44342 0
M  V30 10596 H 1021.64 3.83475 -0.498377 0
M  V30 10597 H 1023.33 3.95828 -0.89862 0
M  V30 10598 H 1024.09 3.51466 -3.34211 0
M  V30 10599 H 1019.97 4.03402 -2.23132 0
M  V30 10600 H 1023.52 4.04511 -5.68346 0
M  V30 10601 H 1019.41 4.5651 -4.56365 0
M  V30 10602 H 1020.18 4.80598 -6.62546 0
M  V30 10603 N 1022.85 0.866709 1.31628 0
M  V30 10604 C 1024.26 0.558188 1.49521 0
M  V30 10605 C 1024.46 -0.90844 1.7986 0
M  V30 10606 O 1023.52 -1.6908 1.87531 0
M  V30 10607 C 1024.83 1.45559 2.63122 0
M  V30 10608 C 1026.38 1.45728 2.77006 0
M  V30 10609 C 1026.85 2.34017 3.937 0
M  V30 10610 N 1028.34 2.31879 4.00982 0
M  V30 10611 C 1029.08 2.96915 4.90539 0
M  V30 10612 N 1028.58 3.71109 5.85021 0
M  V30 10613 N 1030.37 2.86241 4.83759 0
M  V30 10614 H 1022.52 1.81574 1.10203 0
M  V30 10615 H 1024.78 0.77621 0.544244 0
M  V30 10616 H 1024.49 2.49904 2.47469 0
M  V30 10617 H 1024.36 1.15174 3.59186 0
M  V30 10618 H 1026.75 0.421419 2.92075 0
M  V30 10619 H 1026.83 1.80134 1.81619 0
M  V30 10620 H 1026.47 3.37678 3.79389 0
M  V30 10621 H 1026.4 1.96937 4.88388 0
M  V30 10622 H 1028.9 1.77948 3.33381 0
M  V30 10623 H 1029.21 4.1787 6.5008 0
M  V30 10624 H 1027.55 3.75217 5.8501 0
M  V30 10625 H 1030.74 2.27819 4.08921 0
M  V30 10626 H 1030.92 3.37206 5.5335 0
M  V30 10627 N 1024.32 -1.44642 0.625825 0
M  V30 10628 C 1025.57 -2.01308 0.125682 0
M  V30 10629 C 1025.89 -1.49773 -1.25807 0
M  V30 10630 O 1027.09 -1.98533 -1.85194 0
M  V30 10631 C 1025.55 -3.59479 0.17395 0
M  V30 10632 C 1025.16 -4.20011 1.55868 0
M  V30 10633 C 1026.9 -4.2364 -0.270005 0
M  V30 10634 C 1024.81 -5.7039 1.56235 0
M  V30 10635 H 1023.74 -0.75276 0.0432194 0
M  V30 10636 H 1026.39 -1.65916 0.783842 0
M  V30 10637 H 1024.77 -3.92145 -0.551212 0
M  V30 10638 H 1025.94 -3.98891 2.307 0
M  V30 10639 H 1024.26 -3.68116 1.94627 0
M  V30 10640 H 1026.86 -5.33931 -0.28672 0
M  V30 10641 H 1027.2 -3.95603 -1.29629 0
M  V30 10642 H 1027.73 -3.95759 0.402487 0
M  V30 10643 H 1024.47 -6.03154 2.56683 0
M  V30 10644 H 1023.99 -5.93648 0.856881 0
M  V30 10645 H 1025.67 -6.33929 1.29396 0
M  V30 10646 N 1025.8 -0.366053 -1.5329 0
M  V30 10647 C 1027.03 0.224236 -2.05681 0
M  V30 10648 C 1027.44 1.42412 -1.23952 0
M  V30 10649 O 1026.8 1.80334 -0.280309 0
M  V30 10650 C 1026.85 0.617266 -3.56191 0
M  V30 10651 O 1026.57 -0.534931 -4.34822 0
M  V30 10652 C 1028.07 1.26589 -4.24841 0
M  V30 10653 H 1025.29 0.0392928 -0.669849 0
M  V30 10654 H 1027.84 -0.52456 -1.97658 0
M  V30 10655 H 1025.99 1.31598 -3.64364 0
M  V30 10656 H 1026.41 -0.217123 -5.2405 0
M  V30 10657 H 1027.88 1.49146 -5.31469 0
M  V30 10658 H 1028.36 2.22633 -3.78591 0
M  V30 10659 H 1028.96 0.6086 -4.20923 0
M  V30 10660 N 1027.28 1.57312 -0.0952337 0
M  V30 10661 C 1028.51 1.98697 0.57682 0
M  V30 10662 C 1028.92 0.974347 1.61716 0
M  V30 10663 O 1028.28 -0.036022 1.82464 0
M  V30 10664 C 1028.33 3.40133 1.2244 0
M  V30 10665 O 1028.05 4.37518 0.225678 0
M  V30 10666 C 1029.55 3.96522 1.98205 0
M  V30 10667 H 1026.77 0.65294 0.154629 0
M  V30 10668 H 1029.32 2.03754 -0.174562 0
M  V30 10669 H 1027.47 3.3609 1.92671 0
M  V30 10670 H 1027.89 5.199 0.693116 0
M  V30 10671 H 1029.36 4.97637 2.38875 0
M  V30 10672 H 1029.84 3.34347 2.84796 0
M  V30 10673 H 1030.44 4.04038 1.3279 0
M  V30 10674 N 1028.76 -0.17846 1.56586 0
M  V30 10675 C 1030 -0.897562 1.81856 0
M  V30 10676 C 1030.34 -1.82204 0.671955 0
M  V30 10677 O 1029.61 -1.91739 -0.326535 0
M  V30 10678 C 1029.89 -1.69942 3.17477 0
M  V30 10679 C 1029.75 -0.798545 4.42655 0
M  V30 10680 C 1031.07 -2.66861 3.49962 0
M  V30 10681 H 1028.19 -0.324863 0.661539 0
M  V30 10682 H 1030.83 -0.164106 1.8929 0
M  V30 10683 H 1028.98 -2.32471 3.11271 0
M  V30 10684 H 1030.65 -0.18668 4.60922 0
M  V30 10685 H 1028.89 -0.106181 4.3367 0
M  V30 10686 H 1029.56 -1.39496 5.34083 0
M  V30 10687 H 1032.04 -2.1446 3.56576 0
M  V30 10688 H 1030.92 -3.20037 4.45946 0
M  V30 10689 H 1031.18 -3.46715 2.74301 0
M  V30 10690 N 1030.24 -1.51135 -0.446768 0
M  V30 10691 C 1031.2 -1.71187 -1.52406 0
M  V30 10692 C 1032.2 -0.582037 -1.49897 0
M  V30 10693 O 1033.39 -0.849452 -1.52085 0
M  V30 10694 C 1030.52 -1.75962 -2.91976 0
M  V30 10695 H 1031.71 -2.67324 -1.35934 0
M  V30 10696 H 1029.27 -1.40982 -0.674813 0
M  V30 10697 H 1030 -0.816065 -3.13864 0
M  V30 10698 H 1029.79 -2.58065 -2.95203 0
M  V30 10699 H 1031.28 -1.93347 -3.70144 0
M  V30 10700 N 1031.71 0.701592 -1.41122 0
M  V30 10701 C 1032.66 1.80755 -1.38966 0
M  V30 10702 C 1033.65 1.58703 -0.264964 0
M  V30 10703 O 1034.84 1.69638 -0.505168 0
M  V30 10704 C 1031.97 3.1901 -1.26836 0
M  V30 10705 C 1031.05 3.46777 -2.44144 0
M  V30 10706 N 1031.45 3.45278 -3.69617 0
M  V30 10707 C 1029.74 3.77299 -2.37826 0
M  V30 10708 C 1030.44 3.71782 -4.47385 0
M  V30 10709 N 1029.42 3.91228 -3.77415 0
M  V30 10710 H 1033.22 1.7795 -2.33904 0
M  V30 10711 H 1030.74 0.901325 -1.35092 0
M  V30 10712 H 1032.73 3.98227 -1.23373 0
M  V30 10713 H 1031.39 3.23031 -0.328777 0
M  V30 10714 H 1032.4 3.258 -4.02585 0
M  V30 10715 H 1029.08 3.88727 -1.52309 0
M  V30 10716 H 1030.47 3.7681 -5.56295 0
M  V30 10717 N 1033.19 1.2685 0.935242 0
M  V30 10718 C 1034.42 1.15538 1.71635 0
M  V30 10719 C 1034.83 -0.288698 1.8658 0
M  V30 10720 O 1034.19 -1.19721 1.37743 0
M  V30 10721 C 1034.24 1.8259 3.11999 0
M  V30 10722 O 1033.96 3.21355 2.97763 0
M  V30 10723 C 1035.46 1.77307 4.06297 0
M  V30 10724 H 1032.68 0.402055 0.537208 0
M  V30 10725 H 1035.23 1.67582 1.17203 0
M  V30 10726 H 1033.38 1.3447 3.63313 0
M  V30 10727 H 1033.8 3.54626 3.86446 0
M  V30 10728 H 1035.27 2.28851 5.02326 0
M  V30 10729 H 1035.75 0.740823 4.32907 0
M  V30 10730 H 1036.35 2.25007 3.60904 0
M  V30 10731 N 1034.67 -1.14067 1.0875 0
M  V30 10732 C 1035.58 -2.22871 0.732498 0
M  V30 10733 C 1036.6 -1.72008 -0.26253 0
M  V30 10734 O 1037.77 -2.01123 -0.105601 0
M  V30 10735 C 1034.84 -3.46371 0.150913 0
M  V30 10736 C 1033.9 -4.12158 1.201 0
M  V30 10737 C 1033.13 -5.29763 0.647075 0
M  V30 10738 O 1033.35 -5.67911 -0.532307 0
M  V30 10739 O 1032.29 -5.8542 1.3988 0
M  V30 10740 H 1036.11 -2.55596 1.64025 0
M  V30 10741 H 1033.7 -1.22065 0.861417 0
M  V30 10742 H 1035.58 -4.21055 -0.170442 0
M  V30 10743 H 1034.26 -3.15362 -0.729948 0
M  V30 10744 H 1033.16 -3.39332 1.57494 0
M  V30 10745 H 1034.5 -4.47282 2.05426 0
M  V30 10746 N 1036.15 -0.873678 -1.31166 0
M  V30 10747 C 1037.39 -0.487178 -1.96861 0
M  V30 10748 C 1037.73 0.95887 -1.68877 0
M  V30 10749 O 1037 1.6758 -0.987279 0
M  V30 10750 C 1037.29 -0.74925 -3.52219 0
M  V30 10751 C 1037.14 -2.2451 -3.89763 0
M  V30 10752 C 1038.46 -0.218194 -4.39559 0
M  V30 10753 H 1035.58 -0.178477 -0.715063 0
M  V30 10754 H 1038.22 -1.0956 -1.55231 0
M  V30 10755 H 1036.37 -0.231403 -3.8781 0
M  V30 10756 H 1038.04 -2.83049 -3.64254 0
M  V30 10757 H 1036.28 -2.71621 -3.38237 0
M  V30 10758 H 1036.95 -2.37911 -4.98099 0
M  V30 10759 H 1039.43 -0.661274 -4.10812 0
M  V30 10760 H 1038.31 -0.430983 -5.47205 0
M  V30 10761 H 1038.57 0.880056 -4.33252 0
M  V30 10762 N 1037.63 1.44308 -0.633487 0
M  V30 10763 C 1038.87 2.01624 -0.138643 0
M  V30 10764 C 1039.2 1.50101 1.24477 0
M  V30 10765 O 1038.47 0.705575 1.82752 0
M  V30 10766 H 1037.05 0.745439 -0.0482636 0
M  V30 10767 H 1039.71 1.76777 -0.820719 0
M  V30 10768 H 1038.8 3.11913 -0.108136 0
M  V30 10769 N 1039.1 0.374177 1.53094 0
M  V30 10770 C 1040.52 -0.103172 1.86415 0
M  V30 10771 C 1040.87 -1.47439 1.29446 0
M  V30 10772 O 1039.99 -2.07333 0.619853 0
M  V30 10773 C 1040.59 -0.193988 3.38244 0
M  V30 10774 C 1039.15 -0.615605 3.71332 0
M  V30 10775 C 1038.29 0.23186 2.76329 0
M  V30 10776 H 1041.24 0.592644 1.47219 0
M  V30 10777 H 1041.26 -1.01597 3.66686 0
M  V30 10778 H 1040.78 0.80414 3.79678 0
M  V30 10779 H 1038.88 -1.62165 3.3546 0
M  V30 10780 H 1038.99 -0.38425 4.77557 0
M  V30 10781 H 1037.35 -0.300579 2.5292 0
M  V30 10782 H 1038.14 1.22769 3.20597 0
M  V30 10783 N 1040.58 -1.57259 0.103575 0
M  V30 10784 C 1041.83 -1.94272 -0.557024 0
M  V30 10785 C 1042.15 -0.986739 -1.68192 0
M  V30 10786 O 1041.42 -0.0402818 -1.95859 0
M  V30 10787 H 1040 -0.717237 -0.208757 0
M  V30 10788 H 1042.66 -1.94167 0.168898 0
M  V30 10789 H 1041.76 -2.96914 -0.961691 0
M  V30 10790 N 1042.06 0.170153 -1.56679 0
M  V30 10791 C 1043.47 0.732502 -1.7173 0
M  V30 10792 C 1043.82 1.82736 -0.71428 0
M  V30 10793 O 1042.95 2.16044 0.124102 0
M  V30 10794 C 1043.54 1.33548 -3.11368 0
M  V30 10795 C 1042.1 1.84464 -3.281 0
M  V30 10796 C 1041.25 0.724069 -2.6768 0
M  V30 10797 H 1044.2 -0.0552543 -1.58604 0
M  V30 10798 H 1044.22 2.20519 -3.10083 0
M  V30 10799 H 1043.73 0.5384 -3.84347 0
M  V30 10800 H 1041.83 2.66813 -2.6008 0
M  V30 10801 H 1041.95 1.98928 -4.35849 0
M  V30 10802 H 1040.31 1.14481 -2.27522 0
M  V30 10803 H 1041.09 -0.0611861 -3.43245 0
M  V30 10804 N 1043.54 1.5137 0.438746 0
M  V30 10805 C 1044.45 1.75424 1.55768 0
M  V30 10806 C 1045.46 0.638409 1.61865 0
M  V30 10807 O 1046.64 0.9205 1.79133 0
M  V30 10808 C 1043.71 1.87288 2.9176 0
M  V30 10809 C 1042.77 3.11137 2.95791 0
M  V30 10810 C 1042 3.22425 4.25297 0
M  V30 10811 O 1042.22 2.39688 5.17596 0
M  V30 10812 O 1041.16 4.15393 4.35583 0
M  V30 10813 H 1044.98 2.70339 1.38386 0
M  V30 10814 H 1042.57 1.35854 0.621609 0
M  V30 10815 H 1044.45 1.97085 3.72472 0
M  V30 10816 H 1043.12 0.955599 3.09273 0
M  V30 10817 H 1042.03 3.06819 2.1404 0
M  V30 10818 H 1043.36 4.02549 2.83223 0
M  V30 10819 N 1045.02 -0.694098 1.41492 0
M  V30 10820 C 1046.24 -1.48789 1.44488 0
M  V30 10821 C 1046.67 -1.88028 0.0521588 0
M  V30 10822 O 1046.02 -1.54727 -0.944952 0
M  V30 10823 C 1046.07 -2.72586 2.3607 0
M  V30 10824 O 1045.18 -3.70128 1.81876 0
M  V30 10825 H 1044.52 -0.447758 0.490315 0
M  V30 10826 H 1047.05 -0.853036 1.85969 0
M  V30 10827 H 1047.06 -3.20877 2.51995 0
M  V30 10828 H 1045.73 -2.43363 3.37264 0
M  V30 10829 H 1044.31 -3.29069 1.75408 0
M  V30 10830 N 1046.49 -1.27344 -0.928501 0
M  V30 10831 C 1047.72 -1.16557 -1.7155 0
M  V30 10832 C 1048.14 0.274044 -1.86093 0
M  V30 10833 O 1047.5 1.19847 -1.36038 0
M  V30 10834 C 1047.55 -1.85332 -3.09329 0
M  V30 10835 O 1046.65 -1.15074 -3.9602 0
M  V30 10836 H 1046 -0.405423 -0.525859 0
M  V30 10837 H 1048.53 -1.68399 -1.16202 0
M  V30 10838 H 1048.54 -1.92659 -3.59648 0
M  V30 10839 H 1047.21 -2.90056 -2.98061 0
M  V30 10840 H 1045.79 -1.1581 -3.54461 0
M  V30 10841 N 1047.97 1.13488 -1.09353 0
M  V30 10842 C 1049.38 1.66299 -0.848609 0
M  V30 10843 C 1049.73 1.86044 0.623051 0
M  V30 10844 O 1048.86 1.57871 1.48005 0
M  V30 10845 C 1049.45 3.02087 -1.53391 0
M  V30 10846 C 1048.01 3.51893 -1.33598 0
M  V30 10847 C 1047.16 2.27154 -1.59048 0
M  V30 10848 H 1050.11 0.974208 -1.25279 0
M  V30 10849 H 1050.13 3.68018 -0.966587 0
M  V30 10850 H 1049.64 2.87684 -2.60498 0
M  V30 10851 H 1047.75 3.715 -0.286045 0
M  V30 10852 H 1047.86 4.32059 -2.0703 0
M  V30 10853 H 1046.22 2.33708 -1.01256 0
M  V30 10854 H 1047.01 2.15317 -2.67383 0
M  V30 10855 N 1049.45 0.880621 1.30701 0
M  V30 10856 C 1050.7 0.497611 1.966 0
M  V30 10857 C 1051.03 -0.949901 1.69383 0
M  V30 10858 O 1050.31 -1.67054 0.996152 0
M  V30 10859 C 1050.59 0.767919 3.51817 0
M  V30 10860 C 1050.44 2.26574 3.88567 0
M  V30 10861 C 1051.76 0.241502 4.39437 0
M  V30 10862 H 1048.88 0.182267 0.714106 0
M  V30 10863 H 1051.52 1.10382 1.54648 0
M  V30 10864 H 1049.67 0.251967 3.87682 0
M  V30 10865 H 1051.34 2.84977 3.62748 0
M  V30 10866 H 1049.59 2.73411 3.36792 0
M  V30 10867 H 1050.26 2.40549 4.9683 0
M  V30 10868 H 1052.73 0.683051 4.10455 0
M  V30 10869 H 1051.61 0.459997 5.46969 0
M  V30 10870 H 1051.87 -0.857068 4.33713 0
M  V30 10871 N 1050.93 -1.4397 0.641131 0
M  V30 10872 C 1052.18 -2.02246 0.14985 0
M  V30 10873 C 1052.51 -1.50387 -1.22871 0
M  V30 10874 O 1051.78 -0.692003 -1.81773 0
M  V30 10875 C 1052.07 -3.59798 0.147449 0
M  V30 10876 C 1051.92 -4.21916 1.55907 0
M  V30 10877 C 1053.24 -4.36985 -0.522667 0
M  V30 10878 H 1050.36 -0.734875 0.0559274 0
M  V30 10879 H 1053 -1.71418 0.819513 0
M  V30 10880 H 1051.15 -3.86193 -0.422789 0
M  V30 10881 H 1052.82 -4.06594 2.17896 0
M  V30 10882 H 1051.06 -3.79028 2.10998 0
M  V30 10883 H 1051.74 -5.30964 1.50934 0
M  V30 10884 H 1054.21 -4.16083 -0.0376226 0
M  V30 10885 H 1053.09 -5.46676 -0.493572 0
M  V30 10886 H 1053.35 -4.12335 -1.59475 0
M  V30 10887 N 1052.41 -0.382291 -1.52893 0
M  V30 10888 C 1053.65 0.202433 -2.01787 0
M  V30 10889 C 1053.99 1.47044 -1.26853 0
M  V30 10890 O 1053.26 1.91007 -0.366969 0
M  V30 10891 C 1053.54 0.477471 -3.5692 0
M  V30 10892 C 1053.4 -0.805339 -4.42532 0
M  V30 10893 C 1054.72 1.27106 -4.21346 0
M  V30 10894 H 1051.84 0.0720998 -0.733465 0
M  V30 10895 H 1054.48 -0.510478 -1.83014 0
M  V30 10896 H 1052.63 1.08478 -3.73048 0
M  V30 10897 H 1054.3 -1.4424 -4.3817 0
M  V30 10898 H 1052.54 -1.42216 -4.09826 0
M  V30 10899 H 1053.21 -0.567635 -5.49074 0
M  V30 10900 H 1055.69 0.757161 -4.09153 0
M  V30 10901 H 1054.57 1.43225 -5.29885 0
M  V30 10902 H 1054.83 2.28431 -3.78513 0
M  V30 10903 N 1053.89 1.57202 -0.111913 0
M  V30 10904 C 1055.3 1.57713 0.244702 0
M  V30 10905 C 1055.5 1.12419 1.67225 0
M  V30 10906 O 1054.56 0.808329 2.39212 0
M  V30 10907 C 1055.87 3.00695 0.0178289 0
M  V30 10908 C 1057.42 3.12887 0.0842781 0
M  V30 10909 C 1057.89 4.57856 -0.114812 0
M  V30 10910 N 1059.38 4.6316 -0.0605423 0
M  V30 10911 C 1060.12 5.73086 -0.189594 0
M  V30 10912 N 1059.62 6.91787 -0.37442 0
M  V30 10913 N 1061.41 5.6195 -0.12967 0
M  V30 10914 H 1053.56 1.84947 -1.04443 0
M  V30 10915 H 1055.82 0.854418 -0.4107 0
M  V30 10916 H 1055.53 3.38093 -0.968802 0
M  V30 10917 H 1055.4 3.69611 0.752815 0
M  V30 10918 H 1057.79 2.7535 1.06143 0
M  V30 10919 H 1057.87 2.46528 -0.682474 0
M  V30 10920 H 1057.51 4.9609 -1.0889 0
M  V30 10921 H 1057.44 5.22297 0.671839 0
M  V30 10922 H 1059.94 3.77817 0.0790856 0
M  V30 10923 H 1060.25 7.71406 -0.463948 0
M  V30 10924 H 1058.59 6.93788 -0.410303 0
M  V30 10925 H 1061.78 4.68098 0.0137115 0
M  V30 10926 H 1061.96 6.47578 -0.233688 0
M  V30 10927 N 1055.36 -0.161842 1.56767 0
M  V30 10928 C 1056.59 -0.892247 1.86672 0
M  V30 10929 C 1057.01 -1.75407 0.69841 0
M  V30 10930 O 1056.36 -1.7945 -0.332251 0
M  V30 10931 C 1056.41 -1.7612 3.15696 0
M  V30 10932 O 1056.14 -0.934131 4.28025 0
M  V30 10933 C 1057.64 -2.60046 3.59014 0
M  V30 10934 H 1054.86 -0.258747 0.619105 0
M  V30 10935 H 1057.4 -0.159089 2.0388 0
M  V30 10936 H 1055.56 -2.44759 3.00286 0
M  V30 10937 H 1055.97 -1.52931 5.01709 0
M  V30 10938 H 1057.44 -3.16618 4.5217 0
M  V30 10939 H 1057.92 -3.35374 2.83586 0
M  V30 10940 H 1058.53 -1.96724 3.77067 0
M  V30 10941 N 1056.84 -1.516 -0.430713 0
M  V30 10942 C 1058.12 -1.55142 -1.19123 0
M  V30 10943 C 1058.5 -0.319596 -2.08667 0
M  V30 10944 O 1057.85 0.694927 -2.17676 0
M  V30 10945 C 1058.06 -2.86891 -1.98732 0
M  V30 10946 C 1059.4 -3.39089 -2.55546 0
M  V30 10947 O 1060.43 -2.88486 -2.08936 0
M  V30 10948 O 1059.29 -4.27401 -3.40574 0
M  V30 10949 H 1056.38 -0.624019 -0.542705 0
M  V30 10950 H 1058.93 -1.63917 -0.439244 0
M  V30 10951 H 1057.7 -3.68002 -1.33005 0
M  V30 10952 H 1057.32 -2.81309 -2.80982 0
M  V30 10953 N 1058.32 0.686584 -1.41858 0
M  V30 10954 C 1059.23 1.83002 -1.46791 0
M  V30 10955 C 1060.25 1.70284 -0.357675 0
M  V30 10956 O 1061.42 1.92042 -0.606781 0
M  V30 10957 C 1058.49 3.19056 -1.35661 0
M  V30 10958 C 1057.55 3.43817 -2.57077 0
M  V30 10959 C 1056.78 4.7338 -2.46469 0
M  V30 10960 O 1057 5.50483 -1.49413 0
M  V30 10961 O 1055.94 4.99124 -3.36391 0
M  V30 10962 H 1059.76 1.81797 -2.43277 0
M  V30 10963 H 1057.35 0.840812 -1.23494 0
M  V30 10964 H 1059.23 4.00267 -1.31773 0
M  V30 10965 H 1057.91 3.20925 -0.422951 0
M  V30 10966 H 1056.81 2.625 -2.66541 0
M  V30 10967 H 1058.15 3.4677 -3.49302 0
M  V30 10968 N 1059.8 1.27835 0.921735 0
M  V30 10969 C 1061.07 1.05238 1.64877 0
M  V30 10970 C 1061.45 -0.410921 2.07062 0
M  V30 10971 O 1060.8 -1.39538 1.80946 0
M  V30 10972 C 1061.01 2.01955 2.84632 0
M  V30 10973 C 1062.36 2.31657 3.55837 0
M  V30 10974 O 1063.38 1.99975 2.94768 0
M  V30 10975 O 1062.24 2.85692 4.65878 0
M  V30 10976 H 1059.34 0.401622 0.72293 0
M  V30 10977 H 1061.88 1.39123 0.971744 0
M  V30 10978 H 1060.66 3.00614 2.50494 0
M  V30 10979 H 1060.28 1.68667 3.60052 0
M  V30 10980 N 1061.28 -1.12907 1.09954 0
M  V30 10981 C 1062.52 -1.84579 0.840155 0
M  V30 10982 C 1062.85 -1.83605 -0.632692 0
M  V30 10983 O 1062.13 -1.27803 -1.46617 0
M  V30 10984 C 1062.41 -3.32489 1.38286 0
M  V30 10985 C 1062.27 -3.41946 2.92221 0
M  V30 10986 C 1063.58 -4.28091 1.0211 0
M  V30 10987 H 1060.7 -0.670169 0.306663 0
M  V30 10988 H 1063.35 -1.3249 1.36185 0
M  V30 10989 H 1061.5 -3.76978 0.939123 0
M  V30 10990 H 1063.17 -3.06128 3.45085 0
M  V30 10991 H 1061.41 -2.8265 3.29077 0
M  V30 10992 H 1062.08 -4.45983 3.25274 0
M  V30 10993 H 1064.56 -3.91701 1.4039 0
M  V30 10994 H 1063.43 -5.30005 1.42781 0
M  V30 10995 H 1063.69 -4.42044 -0.0700753 0
M  V30 10996 N 1062.75 -0.88754 -1.30232 0
M  V30 10997 C 1064.16 -0.55745 -1.78184 0
M  V30 10998 C 1064.52 0.926474 -1.72948 0
M  V30 10999 O 1063.64 1.72403 -1.3079 0
M  V30 11000 C 1064.24 -1.00512 -3.23547 0
M  V30 11001 C 1062.79 -0.726402 -3.69324 0
M  V30 11002 C 1061.94 -1.18666 -2.50627 0
M  V30 11003 H 1064.89 -1.07151 -1.17066 0
M  V30 11004 H 1064.91 -0.335185 -3.79021 0
M  V30 11005 H 1064.43 -2.08517 -3.27326 0
M  V30 11006 H 1062.53 0.341548 -3.71031 0
M  V30 11007 H 1062.64 -1.31575 -4.60679 0
M  V30 11008 H 1061 -0.605936 -2.47387 0
M  V30 11009 H 1061.79 -2.2745 -2.57141 0
M  V30 11010 N 1064.23 1.43628 -0.648757 0
M  V30 11011 C 1065.46 2.06732 -0.166284 0
M  V30 11012 C 1065.88 1.48281 1.15734 0
M  V30 11013 O 1065.24 0.591018 1.71396 0
M  V30 11014 C 1065.29 3.60502 -0.0838732 0
M  V30 11015 O 1064.39 4.01186 0.955185 0
M  V30 11016 H 1063.73 0.657479 -0.0928285 0
M  V30 11017 H 1066.26 1.84208 -0.890421 0
M  V30 11018 H 1066.27 4.07875 0.100923 0
M  V30 11019 H 1064.95 4.02424 -1.05014 0
M  V30 11020 H 1063.53 3.65412 0.743537 0
M  V30 11021 N 1065.71 0.390394 1.52688 0
M  V30 11022 C 1066.67 -0.432149 2.25089 0
M  V30 11023 C 1067.67 -0.989296 1.26766 0
M  V30 11024 O 1068.86 -0.871126 1.50854 0
M  V30 11025 C 1066 -1.60642 3.00678 0
M  V30 11026 H 1067.19 0.201734 2.99221 0
M  V30 11027 H 1064.74 0.142531 1.55649 0
M  V30 11028 H 1065.48 -2.2777 2.3085 0
M  V30 11029 H 1065.26 -1.21361 3.72846 0
M  V30 11030 H 1066.75 -2.18873 3.55647 0
M  V30 11031 N 1067.19 -1.57141 0.120249 0
M  V30 11032 C 1068.6 -1.82256 -0.404931 0
M  V30 11033 C 1068.95 -1.03748 -1.66526 0
M  V30 11034 O 1068.08 -0.274456 -2.14653 0
M  V30 11035 C 1068.67 -3.30588 -0.741431 0
M  V30 11036 C 1067.23 -3.56379 -1.21124 0
M  V30 11037 C 1066.38 -2.76421 -0.220569 0
M  V30 11038 H 1069.33 -1.54897 0.345361 0
M  V30 11039 H 1069.35 -3.45284 -1.59872 0
M  V30 11040 H 1068.86 -3.87701 0.176036 0
M  V30 11041 H 1066.96 -3.04625 -2.14556 0
M  V30 11042 H 1067.07 -4.64952 -1.1557 0
M  V30 11043 H 1065.44 -2.44666 -0.707857 0
M  V30 11044 H 1066.22 -3.36294 0.690018 0
M  V30 11045 N 1068.67 0.153526 -1.5685 0
M  V30 11046 C 1070.08 0.714247 -1.72498 0
M  V30 11047 C 1070.43 1.81968 -0.733621 0
M  V30 11048 O 1069.55 2.16163 0.10118 0
M  V30 11049 C 1070.15 1.30238 -3.12767 0
M  V30 11050 C 1068.71 1.80974 -3.30038 0
M  V30 11051 C 1067.85 0.695638 -2.68433 0
M  V30 11052 H 1070.81 -0.0720733 -1.58536 0
M  V30 11053 H 1070.83 2.17217 -3.12405 0
M  V30 11054 H 1070.34 0.497605 -3.84897 0
M  V30 11055 H 1068.44 2.64039 -2.62895 0
M  V30 11056 H 1068.55 1.94294 -4.37934 0
M  V30 11057 H 1066.92 1.12061 -2.28723 0
M  V30 11058 H 1067.7 -0.0975885 -3.43161 0
M  V30 11059 N 1070.14 1.51827 0.422667 0
M  V30 11060 C 1071.56 1.40328 0.760275 0
M  V30 11061 C 1071.76 0.497119 1.95272 0
M  V30 11062 O 1070.82 -0.0422083 2.52465 0
M  V30 11063 C 1072.13 2.82622 1.02689 0
M  V30 11064 C 1073.68 2.91874 1.13044 0
M  V30 11065 C 1074.15 4.35107 1.4299 0
M  V30 11066 N 1075.64 4.3828 1.49883 0
M  V30 11067 C 1076.38 5.46153 1.74655 0
M  V30 11068 N 1075.87 6.64165 1.9712 0
M  V30 11069 N 1077.67 5.33651 1.76558 0
M  V30 11070 H 1069.82 2.09285 -0.362455 0
M  V30 11071 H 1072.08 0.94273 -0.0998161 0
M  V30 11072 H 1071.79 3.50991 0.223226 0
M  V30 11073 H 1071.66 3.22844 1.95068 0
M  V30 11074 H 1074.05 2.23694 1.92471 0
M  V30 11075 H 1074.13 2.55128 0.185326 0
M  V30 11076 H 1073.77 5.03841 0.640848 0
M  V30 11077 H 1073.7 4.69377 2.38731 0
M  V30 11078 H 1076.19 3.53206 1.34366 0
M  V30 11079 H 1076.51 7.42165 2.15434 0
M  V30 11080 H 1074.85 6.67255 1.94413 0
M  V30 11081 H 1078.04 4.40436 1.58536 0
M  V30 11082 H 1078.22 6.17798 1.95525 0
M  V30 11083 N 1071.62 -0.679052 1.4222 0
M  V30 11084 C 1072.57 -1.79269 1.45366 0
M  V30 11085 C 1073.54 -1.63255 0.306089 0
M  V30 11086 O 1074.72 -1.8387 0.509548 0
M  V30 11087 C 1071.86 -3.17272 1.35766 0
M  V30 11088 C 1070.98 -3.44603 2.60525 0
M  V30 11089 C 1070.11 -4.7231 2.43098 0
M  V30 11090 C 1069.15 -4.92661 3.63251 0
M  V30 11091 N 1068.29 -6.11606 3.44794 0
M  V30 11092 H 1073.13 -1.75916 2.40536 0
M  V30 11093 H 1070.67 -0.858836 1.19425 0
M  V30 11094 H 1072.62 -3.97015 1.282 0
M  V30 11095 H 1071.25 -3.1976 0.441939 0
M  V30 11096 H 1070.31 -2.59144 2.78475 0
M  V30 11097 H 1071.62 -3.55536 3.49851 0
M  V30 11098 H 1070.77 -5.60136 2.33093 0
M  V30 11099 H 1069.51 -4.63652 1.51255 0
M  V30 11100 H 1068.52 -4.03278 3.73693 0
M  V30 11101 H 1069.74 -5.03167 4.5607 0
M  V30 11102 H 1067.69 -6.04129 2.55663 0
M  V30 11103 H 1067.6 -6.23381 4.27705 0
M  V30 11104 H 1068.87 -7.02122 3.38592 0
M  V30 11105 N 1073.1 -1.28322 -0.914942 0
M  V30 11106 C 1074.35 -1.15578 -1.66642 0
M  V30 11107 C 1074.68 0.295209 -1.91943 0
M  V30 11108 O 1073.95 1.21482 -1.51896 0
M  V30 11109 C 1074.24 -1.9535 -3.02507 0
M  V30 11110 C 1074.09 -3.48504 -2.84367 0
M  V30 11111 C 1075.41 -1.76798 -4.03027 0
M  V30 11112 H 1072.53 -0.421234 -0.604757 0
M  V30 11113 H 1075.17 -1.57625 -1.06087 0
M  V30 11114 H 1073.32 -1.59619 -3.54195 0
M  V30 11115 H 1074.99 -3.94135 -2.39699 0
M  V30 11116 H 1073.24 -3.74198 -2.1945 0
M  V30 11117 H 1073.91 -3.99576 -3.80845 0
M  V30 11118 H 1076.38 -2.07977 -3.60395 0
M  V30 11119 H 1075.26 -2.34987 -4.96057 0
M  V30 11120 H 1075.52 -0.719162 -4.36211 0
M  V30 11121 N 1074.58 1.12322 -1.10551 0
M  V30 11122 C 1075.49 2.21678 -0.767862 0
M  V30 11123 C 1076.5 1.72404 0.235132 0
M  V30 11124 O 1077.68 2.01266 0.0735912 0
M  V30 11125 C 1074.75 3.46087 -0.205999 0
M  V30 11126 C 1073.81 4.10195 -1.26642 0
M  V30 11127 C 1073.04 5.28666 -0.731274 0
M  V30 11128 O 1073.26 5.68686 0.44189 0
M  V30 11129 O 1072.2 5.83121 -1.49176 0
M  V30 11130 H 1076.02 2.52955 -1.6807 0
M  V30 11131 H 1073.61 1.2068 -0.880728 0
M  V30 11132 H 1075.49 4.21273 0.103435 0
M  V30 11133 H 1074.16 3.16484 0.679685 0
M  V30 11134 H 1073.07 3.36784 -1.62873 0
M  V30 11135 H 1074.4 4.43957 -2.12516 0
M  V30 11136 N 1076.06 0.894434 1.2976 0
M  V30 11137 C 1077.02 0.373094 2.26143 0
M  V30 11138 C 1078.02 -0.489756 1.5316 0
M  V30 11139 O 1079.21 -0.29556 1.71674 0
M  V30 11140 C 1076.34 -0.467234 3.37683 0
M  V30 11141 H 1077.53 1.22427 2.73773 0
M  V30 11142 H 1075.09 0.672112 1.41111 0
M  V30 11143 H 1075.82 -1.33861 2.95384 0
M  V30 11144 H 1075.61 0.150954 3.91809 0
M  V30 11145 H 1077.1 -0.823469 4.094 0
M  V30 11146 N 1077.53 -1.43282 0.656365 0
M  V30 11147 C 1078.44 -2.34576 -0.033864 0
M  V30 11148 C 1079.46 -1.5406 -0.808793 0
M  V30 11149 O 1080.64 -1.867 -0.755322 0
M  V30 11150 C 1077.7 -3.32378 -0.986197 0
M  V30 11151 C 1076.76 -4.28797 -0.207851 0
M  V30 11152 C 1076 -5.21927 -1.11482 0
M  V30 11153 O 1076.22 -5.19554 -2.35414 0
M  V30 11154 O 1075.15 -5.99045 -0.585536 0
M  V30 11155 H 1078.98 -2.95099 0.717668 0
M  V30 11156 H 1076.56 -1.43475 0.416556 0
M  V30 11157 H 1078.45 -3.9251 -1.53341 0
M  V30 11158 H 1077.12 -2.74354 -1.7179 0
M  V30 11159 H 1076.03 -3.72134 0.383022 0
M  V30 11160 H 1077.36 -4.89811 0.48435 0
M  V30 11161 N 1079.01 -0.398486 -1.52479 0
M  V30 11162 C 1079.98 0.420206 -2.25315 0
M  V30 11163 C 1080.98 0.982559 -1.27289 0
M  V30 11164 O 1082.17 0.863113 -1.51314 0
M  V30 11165 C 1079.3 1.59045 -3.01525 0
M  V30 11166 H 1080.49 -0.217599 -2.9911 0
M  V30 11167 H 1078.04 -0.150784 -1.55571 0
M  V30 11168 H 1078.78 2.26542 -2.32054 0
M  V30 11169 H 1078.56 1.19382 -3.73484 0
M  V30 11170 H 1080.05 2.16984 -3.56802 0
M  V30 11171 N 1080.49 1.57075 -0.12858 0
M  V30 11172 C 1081.42 2.18833 0.814519 0
M  V30 11173 C 1082.4 1.13114 1.2704 0
M  V30 11174 O 1083.59 1.41387 1.33129 0
M  V30 11175 C 1080.72 2.79535 2.06101 0
M  V30 11176 C 1079.67 3.9092 1.74257 0
M  V30 11177 C 1079 4.38473 3.06015 0
M  V30 11178 C 1080.3 5.1257 1.00345 0
M  V30 11179 H 1081.99 2.97895 0.299862 0
M  V30 11180 H 1079.54 1.4329 0.14279 0
M  V30 11181 H 1081.49 3.21401 2.72543 0
M  V30 11182 H 1080.21 1.97777 2.59907 0
M  V30 11183 H 1078.87 3.49645 1.102 0
M  V30 11184 H 1078.52 3.53561 3.57776 0
M  V30 11185 H 1078.22 5.13591 2.85479 0
M  V30 11186 H 1079.75 4.82997 3.7356 0
M  V30 11187 H 1081.16 5.51395 1.56959 0
M  V30 11188 H 1079.56 5.93333 0.898693 0
M  V30 11189 H 1080.63 4.84899 -0.0081335 0
M  V30 11190 N 1081.97 -0.145205 1.5693 0
M  V30 11191 C 1082.92 -1.19841 1.99351 0
M  V30 11192 C 1083.91 -1.44371 0.886197 0
M  V30 11193 O 1085.12 -1.44642 1.07138 0
M  V30 11194 H 1081.49 -0.403437 0.63462 0
M  V30 11195 H 1083.46 -0.813932 2.87085 0
M  V30 11196 C 1082.21 -2.52377 2.39167 0
M  V30 11197 H 1081.54 -2.34332 3.23927 0
M  V30 11198 H 1082.98 -3.24694 2.72671 0
M  V30 11199 C 1081.43 -3.1305 1.24503 0
M  V30 11200 O 1081.96 -3.97962 0.546739 0
M  V30 11201 N 1080.17 -2.72528 1.00882 0
M  V30 11202 H 1079.72 -2.03576 1.57843 0
M  V30 11203 H 1079.68 -3.13456 0.24351 0
M  V30 11204 N 1083.45 -1.52049 -0.414609 0
M  V30 11205 C 1084.41 -1.74382 -1.4874 0
M  V30 11206 C 1085.41 -0.613701 -1.48628 0
M  V30 11207 O 1086.6 -0.88152 -1.50249 0
M  V30 11208 C 1083.73 -1.82116 -2.88178 0
M  V30 11209 H 1084.93 -2.70147 -1.30233 0
M  V30 11210 H 1082.48 -1.42382 -0.644756 0
M  V30 11211 H 1083.21 -0.882457 -3.12063 0
M  V30 11212 H 1083 -2.64268 -2.89663 0
M  V30 11213 H 1084.49 -2.01155 -3.65959 0
M  V30 11214 N 1084.93 0.6715 -1.42579 0
M  V30 11215 C 1086.15 1.45972 -1.46628 0
M  V30 11216 C 1086.57 1.88636 -0.0785986 0
M  V30 11217 O 1085.93 1.58345 0.907372 0
M  V30 11218 C 1085.98 2.70668 -2.39627 0
M  V30 11219 O 1085.7 2.29793 -3.72997 0
M  V30 11220 C 1087.2 3.64201 -2.52731 0
M  V30 11221 H 1084.42 0.449044 -0.498598 0
M  V30 11222 H 1086.96 0.824811 -1.87129 0
M  V30 11223 H 1085.12 3.3034 -2.02371 0
M  V30 11224 H 1085.53 3.10341 -4.22834 0
M  V30 11225 H 1087.01 4.48412 -3.21918 0
M  V30 11226 H 1087.48 4.10323 -1.56626 0
M  V30 11227 H 1088.09 3.1042 -2.90722 0
M  V30 11228 N 1086.4 1.28806 0.908124 0
M  V30 11229 C 1087.37 1.13228 1.99279 0
M  V30 11230 C 1088.37 0.0702456 1.60646 0
M  V30 11231 O 1089.56 0.316494 1.71301 0
M  V30 11232 C 1086.69 0.729629 3.33 0
M  V30 11233 H 1087.88 2.09566 2.14528 0
M  V30 11234 H 1085.43 1.11872 1.09153 0
M  V30 11235 H 1086.17 -0.234268 3.23453 0
M  V30 11236 H 1085.95 1.49688 3.62403 0
M  V30 11237 H 1087.44 0.643449 4.12613 0
M  V30 11238 N 1087.88 -1.11734 1.11145 0
M  V30 11239 C 1089.13 -1.82766 0.853194 0
M  V30 11240 C 1089.44 -1.85408 -0.623168 0
M  V30 11241 O 1090.65 -2.52509 -0.997574 0
M  V30 11242 C 1089.11 -3.28215 1.47658 0
M  V30 11243 C 1088.71 -3.33911 2.98676 0
M  V30 11244 C 1090.46 -4.04168 1.29803 0
M  V30 11245 C 1088.36 -4.73739 3.54013 0
M  V30 11246 H 1087.29 -0.684807 0.315523 0
M  V30 11247 H 1089.95 -1.25756 1.33633 0
M  V30 11248 H 1088.33 -3.85138 0.921116 0
M  V30 11249 H 1089.5 -2.86887 3.606 0
M  V30 11250 H 1087.82 -2.71437 3.15771 0
M  V30 11251 H 1090.41 -5.07429 1.68582 0
M  V30 11252 H 1090.76 -4.15606 0.240302 0
M  V30 11253 H 1091.29 -3.53623 1.82196 0
M  V30 11254 H 1088.03 -4.67497 4.59485 0
M  V30 11255 H 1087.55 -5.21186 2.9686 0
M  V30 11256 H 1089.23 -5.42691 3.52271 0
M  V30 11257 N 1089.36 -0.901303 -1.29284 0
M  V30 11258 C 1090.78 -0.597634 -1.47988 0
M  V30 11259 C 1090.98 0.860434 -1.82205 0
M  V30 11260 O 1090.03 1.64049 -1.91948 0
M  V30 11261 C 1091.34 -1.52484 -2.5917 0
M  V30 11262 C 1092.89 -1.53021 -2.73045 0
M  V30 11263 C 1093.37 -2.44373 -3.87357 0
M  V30 11264 N 1094.86 -2.42429 -3.94693 0
M  V30 11265 C 1095.59 -3.09817 -4.82495 0
M  V30 11266 N 1095.09 -3.86489 -5.74976 0
M  V30 11267 N 1096.88 -2.98966 -4.76 0
M  V30 11268 H 1089.03 -1.84432 -1.0535 0
M  V30 11269 H 1091.3 -0.790367 -0.523473 0
M  V30 11270 H 1091 -2.56378 -2.40756 0
M  V30 11271 H 1090.88 -1.24657 -3.56006 0
M  V30 11272 H 1093.26 -0.498709 -2.90855 0
M  V30 11273 H 1093.34 -1.84886 -1.76779 0
M  V30 11274 H 1092.99 -3.47618 -3.70302 0
M  V30 11275 H 1092.92 -2.09817 -4.82995 0
M  V30 11276 H 1095.41 -1.86724 -3.28546 0
M  V30 11277 H 1095.72 -4.34959 -6.38773 0
M  V30 11278 H 1094.07 -3.90596 -5.74857 0
M  V30 11279 H 1097.26 -2.38581 -4.02737 0
M  V30 11280 H 1097.43 -3.51758 -5.44215 0
M  V30 11281 N 1090.84 1.42931 -0.663954 0
M  V30 11282 C 1092.08 2.01982 -0.182007 0
M  V30 11283 C 1092.42 1.52323 1.20463 0
M  V30 11284 O 1091.69 0.720834 1.80649 0
M  V30 11285 C 1091.97 3.59518 -0.204671 0
M  V30 11286 C 1091.83 4.19382 -1.62599 0
M  V30 11287 C 1093.15 4.37762 0.45308 0
M  V30 11288 H 1090.27 0.733892 -0.0676115 0
M  V30 11289 H 1092.91 1.70092 -0.84668 0
M  V30 11290 H 1091.06 3.86816 0.361295 0
M  V30 11291 H 1092.73 4.03076 -2.24337 0
M  V30 11292 H 1090.97 3.75623 -2.17001 0
M  V30 11293 H 1091.64 5.28496 -1.59362 0
M  V30 11294 H 1094.12 4.1609 -0.0285774 0
M  V30 11295 H 1093 5.47392 0.406538 0
M  V30 11296 H 1093.26 4.1482 1.52895 0
M  V30 11297 N 1092.32 0.406567 1.52266 0
M  V30 11298 C 1093.25 -0.411314 2.29849 0
M  V30 11299 C 1094.23 -1.04838 1.33952 0
M  V30 11300 O 1095.41 -1.05788 1.62857 0
M  V30 11301 C 1092.54 -1.52961 3.11802 0
M  V30 11302 C 1091.5 -1.01768 4.15725 0
M  V30 11303 C 1090.82 -2.22938 4.86007 0
M  V30 11304 C 1092.12 -0.073515 5.22248 0
M  V30 11305 H 1093.82 0.236054 2.98468 0
M  V30 11306 H 1091.36 0.114968 1.4354 0
M  V30 11307 H 1093.31 -2.10874 3.64843 0
M  V30 11308 H 1092.04 -2.20482 2.40947 0
M  V30 11309 H 1090.7 -0.46097 3.6369 0
M  V30 11310 H 1090.35 -2.89007 4.11684 0
M  V30 11311 H 1090.05 -1.89338 5.5626 0
M  V30 11312 H 1091.57 -2.81462 5.41859 0
M  V30 11313 H 1092.98 -0.561367 5.70545 0
M  V30 11314 H 1091.38 0.173551 5.99849 0
M  V30 11315 H 1092.45 0.872524 4.76985 0
M  V30 11316 N 1093.79 -1.57004 0.136909 0
M  V30 11317 C 1095.04 -1.96873 -0.511137 0
M  V30 11318 C 1095.4 -1.02001 -1.63137 0
M  V30 11319 O 1094.69 -0.0532138 -1.91526 0
M  V30 11320 C 1094.88 -3.40903 -1.07331 0
M  V30 11321 C 1094.71 -4.49699 -0.00908112 0
M  V30 11322 C 1093.48 -5.03477 0.42889 0
M  V30 11323 C 1095.68 -5.08372 0.778631 0
M  V30 11324 N 1093.66 -5.95867 1.47702 0
M  V30 11325 C 1095.03 -5.96875 1.67751 0
M  V30 11326 C 1097.09 -4.90975 0.827538 0
M  V30 11327 C 1095.79 -6.69845 2.62108 0
M  V30 11328 C 1097.82 -5.64639 1.75889 0
M  V30 11329 C 1097.18 -6.52842 2.64531 0
M  V30 11330 H 1093.28 -0.766253 -0.156141 0
M  V30 11331 H 1095.86 -1.93347 0.229176 0
M  V30 11332 H 1094.03 -3.45042 -1.78327 0
M  V30 11333 H 1095.76 -3.67855 -1.68715 0
M  V30 11334 H 1092.52 -4.73588 0.03306 0
M  V30 11335 H 1092.94 -6.46767 2.00055 0
M  V30 11336 H 1097.59 -4.22511 0.156318 0
M  V30 11337 H 1095.3 -7.37544 3.30235 0
M  V30 11338 H 1098.89 -5.53177 1.80241 0
M  V30 11339 H 1097.77 -7.08843 3.35426 0
M  V30 11340 N 1095.27 0.136881 -1.57004 0
M  V30 11341 C 1096.69 0.489856 -1.51897 0
M  V30 11342 C 1096.89 1.82833 -0.847009 0
M  V30 11343 O 1095.94 2.48952 -0.421792 0
M  V30 11344 C 1097.26 0.490831 -2.96667 0
M  V30 11345 C 1098.81 0.575639 -3.07661 0
M  V30 11346 C 1099.28 0.607178 -4.53957 0
M  V30 11347 N 1100.77 0.66912 -4.58342 0
M  V30 11348 C 1101.51 0.714675 -5.68929 0
M  V30 11349 N 1101 0.718959 -6.89059 0
M  V30 11350 N 1102.8 0.756326 -5.56988 0
M  V30 11351 H 1094.95 -0.740347 -1.99079 0
M  V30 11352 H 1097.21 -0.271116 -0.908405 0
M  V30 11353 H 1096.92 -0.424648 -3.49127 0
M  V30 11354 H 1096.79 1.32512 -3.53158 0
M  V30 11355 H 1099.18 1.48154 -2.55215 0
M  V30 11356 H 1099.26 -0.285991 -2.54196 0
M  V30 11357 H 1098.9 -0.294604 -5.07045 0
M  V30 11358 H 1098.83 1.48544 -5.05215 0
M  V30 11359 H 1101.32 0.672697 -3.71864 0
M  V30 11360 H 1101.64 0.755848 -7.69095 0
M  V30 11361 H 1099.98 0.686671 -6.91599 0
M  V30 11362 H 1103.17 0.750219 -4.62049 0
M  V30 11363 H 1103.34 0.788363 -6.43186 0
M  V30 11364 N 1096.75 1.52266 0.40654 0
M  V30 11365 C 1097.98 1.70598 1.17945 0
M  V30 11366 C 1098.4 0.415793 1.83447 0
M  V30 11367 O 1097.76 -0.626968 1.70114 0
M  V30 11368 C 1097.81 2.84449 2.21633 0
M  V30 11369 O 1096.91 2.50199 3.27833 0
M  V30 11370 H 1096.25 0.567837 0.344177 0
M  V30 11371 H 1098.78 1.98981 0.476211 0
M  V30 11372 H 1098.79 3.09436 2.65919 0
M  V30 11373 H 1097.47 3.78055 1.73341 0
M  V30 11374 H 1096.04 2.35892 2.88807 0
M  V30 11375 N 1098.23 -0.663929 1.42933 0
M  V30 11376 C 1099.64 -1.24484 1.39143 0
M  V30 11377 C 1099.99 -1.95993 0.0901142 0
M  V30 11378 O 1099.12 -2.00636 -0.810812 0
M  V30 11379 C 1099.71 -2.26402 2.52047 0
M  V30 11380 C 1098.27 -2.79995 2.51555 0
M  V30 11381 C 1097.42 -1.54475 2.30289 0
M  V30 11382 H 1100.37 -0.456619 1.51989 0
M  V30 11383 H 1100.39 -3.08361 2.22921 0
M  V30 11384 H 1099.9 -1.74328 3.46744 0
M  V30 11385 H 1098 -3.36161 1.60707 0
M  V30 11386 H 1098.11 -3.2827 3.48964 0
M  V30 11387 H 1096.48 -1.81437 1.78753 0
M  V30 11388 H 1097.26 -1.04351 3.27056 0
M  V30 11389 N 1099.71 -1.29285 -0.901281 0
M  V30 11390 C 1100.67 -1.14283 -1.98676 0
M  V30 11391 C 1101.67 -0.0787641 -1.60607 0
M  V30 11392 O 1102.86 -0.325574 -1.71131 0
M  V30 11393 C 1099.99 -0.747279 -3.32609 0
M  V30 11394 H 1101.18 -2.10701 -2.13413 0
M  V30 11395 H 1098.74 -1.12449 -1.08558 0
M  V30 11396 H 1099.47 0.217111 -3.23572 0
M  V30 11397 H 1099.26 -1.51608 -3.61604 0
M  V30 11398 H 1100.75 -0.665322 -4.12266 0
M  V30 11399 N 1101.18 1.11143 -1.11736 0
M  V30 11400 C 1102.6 1.64462 -0.883693 0
M  V30 11401 C 1102.95 1.87324 0.583448 0
M  V30 11402 O 1102.07 1.60975 1.44623 0
M  V30 11403 C 1102.67 2.98765 -1.59764 0
M  V30 11404 C 1101.23 3.4898 -1.41032 0
M  V30 11405 C 1100.37 2.23729 -1.63831 0
M  V30 11406 H 1103.32 0.947415 -1.27317 0
M  V30 11407 H 1103.34 3.65885 -1.04443 0
M  V30 11408 H 1102.86 2.82094 -2.66542 0
M  V30 11409 H 1100.96 3.7081 -0.364781 0
M  V30 11410 H 1101.07 4.27571 -2.16148 0
M  V30 11411 H 1099.43 2.31507 -1.06191 0
M  V30 11412 H 1100.22 2.09597 -2.7189 0
M  V30 11413 N 1102.66 0.908147 1.28804 0
M  V30 11414 C 1103.91 0.53734 1.94826 0
M  V30 11415 C 1104.23 -0.920962 1.71882 0
M  V30 11416 O 1103.5 -1.65043 1.05534 0
M  V30 11417 H 1102.08 0.195729 0.720902 0
M  V30 11418 H 1104.74 1.15628 1.56895 0
M  V30 11419 H 1103.84 0.727052 3.03513 0
M  V30 11420 N 1104.14 -1.42577 0.671525 0
M  V30 11421 C 1105.56 -1.5592 0.340769 0
M  V30 11422 C 1105.76 -1.65179 -1.15405 0
M  V30 11423 O 1104.81 -1.61691 -1.93939 0
M  V30 11424 C 1106.13 -2.81087 1.06821 0
M  V30 11425 C 1107.67 -2.94855 1.05022 0
M  V30 11426 C 1108.15 -4.22878 1.75892 0
M  V30 11427 N 1109.64 -4.29783 1.72744 0
M  V30 11428 C 1110.37 -5.2765 2.24439 0
M  V30 11429 N 1109.87 -6.31689 2.84501 0
M  V30 11430 N 1111.66 -5.19426 2.14832 0
M  V30 11431 H 1103.81 -1.34811 1.64133 0
M  V30 11432 H 1106.08 -0.648704 0.691294 0
M  V30 11433 H 1105.78 -2.80371 2.12332 0
M  V30 11434 H 1105.66 -3.71879 0.631356 0
M  V30 11435 H 1108.04 -2.951 0.00345633 0
M  V30 11436 H 1108.13 -2.05303 1.52592 0
M  V30 11437 H 1107.77 -4.23394 2.80535 0
M  V30 11438 H 1107.7 -5.1136 1.25773 0
M  V30 11439 H 1110.19 -3.55225 1.28932 0
M  V30 11440 H 1110.5 -7.02715 3.21575 0
M  V30 11441 H 1108.85 -6.3226 2.88569 0
M  V30 11442 H 1112.04 -4.37067 1.676 0
M  V30 11443 H 1112.21 -5.95535 2.55426 0
M  V30 11444 N 1105.62 -0.414636 -1.52048 0
M  V30 11445 C 1106.55 0.443601 -2.24866 0
M  V30 11446 C 1107.56 1.00556 -1.28032 0
M  V30 11447 O 1108.75 0.903566 -1.53941 0
M  V30 11448 C 1105.85 1.63004 -2.97124 0
M  V30 11449 C 1105.03 1.191 -4.20873 0
M  V30 11450 C 1104.08 2.24497 -4.75907 0
M  V30 11451 O 1103.11 1.84861 -5.38345 0
M  V30 11452 N 1104.31 3.56727 -4.57959 0
M  V30 11453 H 1107.08 -0.180393 -2.99157 0
M  V30 11454 H 1104.64 -0.242305 -1.60077 0
M  V30 11455 H 1106.63 2.33089 -3.30835 0
M  V30 11456 H 1105.2 2.15984 -2.25986 0
M  V30 11457 H 1104.42 0.318059 -3.92915 0
M  V30 11458 H 1105.71 0.874699 -5.01225 0
M  V30 11459 H 1105.11 3.91675 -4.08175 0
M  V30 11460 H 1103.66 4.22772 -4.96092 0
M  V30 11461 N 1107.1 1.56929 -0.145233 0
M  V30 11462 C 1108.05 2.13246 0.806846 0
M  V30 11463 C 1109.03 1.05984 1.21063 0
M  V30 11464 O 1110.22 1.32165 1.17734 0
M  V30 11465 C 1107.35 2.75622 2.04663 0
M  V30 11466 C 1106.44 3.90006 1.66603 0
M  V30 11467 N 1106.83 4.95946 0.993545 0
M  V30 11468 C 1105.13 4.0068 1.95886 0
M  V30 11469 C 1105.83 5.76032 0.810087 0
M  V30 11470 N 1104.8 5.26739 1.34339 0
M  V30 11471 H 1108.61 2.92527 0.283806 0
M  V30 11472 H 1106.12 1.62302 0.0563676 0
M  V30 11473 H 1108.12 3.14329 2.73867 0
M  V30 11474 H 1106.78 1.97815 2.57487 0
M  V30 11475 H 1107.79 5.13748 0.654508 0
M  V30 11476 H 1104.46 3.33946 2.50572 0
M  V30 11477 H 1105.85 6.71315 0.280209 0
M  V30 11478 N 1108.58 -0.128553 1.57075 0
M  V30 11479 C 1109.82 -0.836355 1.83982 0
M  V30 11480 C 1110.14 -1.80862 0.728971 0
M  V30 11481 O 1109.41 -1.94326 -0.247859 0
M  V30 11482 H 1107.99 -0.31185 0.678792 0
M  V30 11483 H 1110.66 -0.118153 1.94542 0
M  V30 11484 H 1109.75 -1.38741 2.79567 0
M  V30 11485 N 1110.05 -1.5248 -0.398459 0
M  V30 11486 C 1110.99 -1.72826 -1.50545 0
M  V30 11487 C 1112 -0.608683 -1.50993 0
M  V30 11488 O 1113.19 -0.88413 -1.55066 0
M  V30 11489 C 1110.29 -1.76327 -2.89417 0
M  V30 11490 C 1109.46 -3.05491 -3.1304 0
M  V30 11491 C 1108.52 -3.00663 -4.31843 0
M  V30 11492 O 1107.55 -3.74548 -4.28605 0
M  V30 11493 N 1108.75 -2.19191 -5.37527 0
M  V30 11494 H 1111.51 -2.68333 -1.33482 0
M  V30 11495 H 1109.07 -1.5085 -0.587875 0
M  V30 11496 H 1111.07 -1.70616 -3.66977 0
M  V30 11497 H 1109.64 -0.882476 -2.99885 0
M  V30 11498 H 1108.86 -3.24767 -2.23428 0
M  V30 11499 H 1110.14 -3.90915 -3.25673 0
M  V30 11500 H 1109.54 -1.58613 -5.43009 0
M  V30 11501 H 1108.1 -2.19328 -6.1379 0
M  V30 11502 N 1111.53 0.65634 -1.43283 0
M  V30 11503 C 1112.78 1.41212 -1.44021 0
M  V30 11504 C 1113.09 1.95485 -0.0669783 0
M  V30 11505 O 1114.3 2.71457 0.0481909 0
M  V30 11506 C 1112.76 2.55541 -2.5343 0
M  V30 11507 C 1112.36 2.07889 -3.96845 0
M  V30 11508 C 1114.11 3.3293 -2.63359 0
M  V30 11509 C 1112.01 3.19411 -4.97726 0
M  V30 11510 H 1110.94 0.530566 -0.535739 0
M  V30 11511 H 1113.6 0.708743 -1.6926 0
M  V30 11512 H 1111.98 3.28335 -2.21387 0
M  V30 11513 H 1113.15 1.42127 -4.38334 0
M  V30 11514 H 1111.47 1.43388 -3.90933 0
M  V30 11515 H 1114.06 4.1602 -3.35903 0
M  V30 11516 H 1114.41 3.80753 -1.68324 0
M  V30 11517 H 1114.94 2.67216 -2.94687 0
M  V30 11518 H 1111.68 2.7656 -5.94302 0
M  V30 11519 H 1111.2 3.83895 -4.60853 0
M  V30 11520 H 1112.88 3.84591 -5.20287 0
M  V30 11521 N 1113.01 1.29761 0.894412 0
M  V30 11522 C 1114.43 1.07888 1.17611 0
M  V30 11523 C 1114.63 -0.16644 2.00811 0
M  V30 11524 O 1113.68 -0.86272 2.37304 0
M  V30 11525 C 1114.99 2.33723 1.89193 0
M  V30 11526 C 1116.54 2.39095 2.01997 0
M  V30 11527 C 1117.02 3.64747 2.7699 0
M  V30 11528 N 1118.51 3.65501 2.84541 0
M  V30 11529 C 1119.24 4.59411 3.43117 0
M  V30 11530 N 1118.74 5.63657 4.02818 0
M  V30 11531 N 1120.53 4.46971 3.40842 0
M  V30 11532 H 1112.68 2.0967 0.339421 0
M  V30 11533 H 1114.95 0.923788 0.212882 0
M  V30 11534 H 1114.65 3.24551 1.35496 0
M  V30 11535 H 1114.53 2.41642 2.89636 0
M  V30 11536 H 1116.91 1.48751 2.54867 0
M  V30 11537 H 1116.99 2.35158 1.0067 0
M  V30 11538 H 1116.64 4.55445 2.24794 0
M  V30 11539 H 1116.57 3.65944 3.78672 0
M  V30 11540 H 1119.06 2.90129 2.42144 0
M  V30 11541 H 1119.37 6.31429 4.45552 0
M  V30 11542 H 1117.72 5.67461 4.01265 0
M  V30 11543 H 1120.91 3.64719 2.93424 0
M  V30 11544 H 1121.08 5.20341 3.86198 0
M  V30 11545 N 1114.49 -1.10549 1.12324 0
M  V30 11546 C 1115.74 -1.82124 0.876083 0
M  V30 11547 C 1116.06 -1.85547 -0.599761 0
M  V30 11548 O 1115.33 -1.33269 -1.43584 0
M  V30 11549 H 1113.91 -0.674455 0.321122 0
M  V30 11550 H 1116.57 -1.33766 1.41748 0
M  V30 11551 H 1115.66 -2.85688 1.25653 0
M  V30 11552 N 1115.97 -0.914965 -1.28321 0
M  V30 11553 C 1117.2 -0.563835 -1.98757 0
M  V30 11554 C 1117.6 0.859528 -1.68549 0
M  V30 11555 O 1116.95 1.58105 -0.935336 0
M  V30 11556 C 1117.01 -0.694539 -3.52727 0
M  V30 11557 C 1116.67 -2.08767 -4.06528 0
M  V30 11558 C 1117.67 -3.06052 -4.20272 0
M  V30 11559 C 1115.35 -2.40118 -4.4119 0
M  V30 11560 C 1117.35 -4.32803 -4.67932 0
M  V30 11561 C 1115.04 -3.67108 -4.88544 0
M  V30 11562 C 1116.03 -4.63265 -5.01871 0
M  V30 11563 O 1115.72 -5.87997 -5.48192 0
M  V30 11564 H 1115.45 -0.213557 -0.641381 0
M  V30 11565 H 1118.01 -1.23062 -1.64453 0
M  V30 11566 H 1116.24 0.0293186 -3.86689 0
M  V30 11567 H 1117.93 -0.350335 -4.04385 0
M  V30 11568 H 1118.69 -2.8315 -3.93765 0
M  V30 11569 H 1114.57 -1.66025 -4.30066 0
M  V30 11570 H 1118.12 -5.07861 -4.78249 0
M  V30 11571 H 1114.01 -3.89834 -5.14489 0
M  V30 11572 H 1114.78 -5.90804 -5.66474 0
M  V30 11573 N 1117.44 1.42219 -0.679077 0
M  V30 11574 C 1118.38 2.29172 0.035583 0
M  V30 11575 C 1119.39 1.43909 0.761183 0
M  V30 11576 O 1120.58 1.67584 0.61463 0
M  V30 11577 C 1117.68 3.21426 1.07419 0
M  V30 11578 C 1116.85 4.35364 0.421547 0
M  V30 11579 C 1115.91 5.08307 1.36051 0
M  V30 11580 O 1114.94 5.62678 0.859186 0
M  V30 11581 N 1116.14 5.14222 2.69362 0
M  V30 11582 H 1118.9 2.91147 -0.710865 0
M  V30 11583 H 1116.46 1.53192 -0.523821 0
M  V30 11584 H 1118.46 3.67091 1.70371 0
M  V30 11585 H 1117.03 2.60873 1.72233 0
M  V30 11586 H 1116.25 3.9229 -0.387559 0
M  V30 11587 H 1117.53 5.08789 -0.0329421 0
M  V30 11588 H 1116.93 4.71467 3.12627 0
M  V30 11589 H 1115.49 5.63519 3.27551 0
M  V30 11590 N 1118.92 0.422693 1.51826 0
M  V30 11591 C 1120.17 -0.148861 2.02253 0
M  V30 11592 C 1120.5 -1.43629 1.30707 0
M  V30 11593 O 1119.78 -1.89967 0.417482 0
M  V30 11594 C 1120.06 -0.382672 3.58061 0
M  V30 11595 C 1119.91 0.922386 4.40241 0
M  V30 11596 C 1121.23 -1.1589 4.24567 0
M  V30 11597 H 1118.35 -0.0526279 0.735119 0
M  V30 11598 H 1120.99 0.558821 1.81596 0
M  V30 11599 H 1119.14 -0.985495 3.75793 0
M  V30 11600 H 1120.81 1.55806 4.34191 0
M  V30 11601 H 1119.06 1.53032 4.05911 0
M  V30 11602 H 1119.73 0.713012 5.47376 0
M  V30 11603 H 1122.2 -0.648415 4.11017 0
M  V30 11604 H 1121.08 -1.29125 5.33496 0
M  V30 11605 H 1121.34 -2.18315 3.84436 0
M  V30 11606 N 1120.4 -1.5685 0.153553 0
M  V30 11607 C 1121.35 -2.13671 -0.795526 0
M  V30 11608 C 1122.33 -1.06624 -1.20499 0
M  V30 11609 O 1123.53 -1.32788 -1.17032 0
M  V30 11610 C 1120.65 -2.76704 -2.03199 0
M  V30 11611 C 1119.74 -3.90884 -1.64532 0
M  V30 11612 N 1120.13 -4.96466 -0.96723 0
M  V30 11613 C 1118.43 -4.01713 -1.93759 0
M  V30 11614 C 1119.13 -5.76453 -0.779527 0
M  V30 11615 N 1118.11 -5.27444 -1.31544 0
M  V30 11616 H 1121.91 -2.92673 -0.268288 0
M  V30 11617 H 1119.42 -1.6233 -0.0477596 0
M  V30 11618 H 1121.42 -3.15777 -2.72196 0
M  V30 11619 H 1120.08 -1.99177 -2.56434 0
M  V30 11620 H 1121.09 -5.14087 -0.627253 0
M  V30 11621 H 1117.77 -3.3527 -2.48797 0
M  V30 11622 H 1119.16 -6.71455 -0.244604 0
M  V30 11623 N 1121.88 0.120221 -1.57141 0
M  V30 11624 C 1123.11 0.841219 -1.88698 0
M  V30 11625 C 1123.52 1.7401 -0.74277 0
M  V30 11626 O 1122.86 1.81308 0.295497 0
M  V30 11627 C 1122.92 1.72781 -3.15257 0
M  V30 11628 C 1122.58 1.00336 -4.45849 0
M  V30 11629 C 1123.58 0.344734 -5.18756 0
M  V30 11630 C 1121.27 0.984899 -4.9255 0
M  V30 11631 C 1123.26 -0.322664 -6.36583 0
M  V30 11632 C 1120.95 0.313702 -6.10294 0
M  V30 11633 C 1121.95 -0.338926 -6.82159 0
M  V30 11634 O 1121.63 -0.999416 -7.97663 0
M  V30 11635 H 1121.37 0.247195 -0.629182 0
M  V30 11636 H 1123.92 0.109542 -2.05108 0
M  V30 11637 H 1122.15 2.5011 -2.94927 0
M  V30 11638 H 1123.84 2.32313 -3.32845 0
M  V30 11639 H 1124.6 0.350623 -4.83731 0
M  V30 11640 H 1120.48 1.4823 -4.36519 0
M  V30 11641 H 1124.03 -0.832643 -6.92613 0
M  V30 11642 H 1119.92 0.305572 -6.44776 0
M  V30 11643 H 1120.69 -0.90377 -8.13495 0
M  V30 11644 N 1123.36 1.52689 0.390367 0
M  V30 11645 C 1124.6 1.67914 1.13722 0
M  V30 11646 C 1124.94 0.417159 1.89667 0
M  V30 11647 O 1124.21 -0.585005 1.85494 0
M  V30 11648 C 1124.49 2.91331 2.11656 0
M  V30 11649 C 1124.35 4.27626 1.39484 0
M  V30 11650 C 1125.67 3.10293 3.12099 0
M  V30 11651 H 1122.78 0.611047 0.412057 0
M  V30 11652 H 1125.43 1.85283 0.420753 0
M  V30 11653 H 1123.58 2.76654 2.72754 0
M  V30 11654 H 1125.25 4.54068 0.813607 0
M  V30 11655 H 1123.49 4.28169 0.69669 0
M  V30 11656 H 1124.16 5.10066 2.11038 0
M  V30 11657 H 1126.64 3.23992 2.6109 0
M  V30 11658 H 1125.51 3.98127 3.7787 0
M  V30 11659 H 1125.78 2.24448 3.80888 0
M  V30 11660 N 1124.83 -0.648732 1.43629 0
M  V30 11661 C 1126.25 -0.964917 1.27128 0
M  V30 11662 C 1126.45 -2.00561 0.194251 0
M  V30 11663 O 1125.51 -2.48884 -0.42581 0
M  V30 11664 C 1126.82 -1.44491 2.6371 0
M  V30 11665 C 1128.37 -1.56133 2.71278 0
M  V30 11666 C 1128.84 -2.07521 4.08288 0
M  V30 11667 N 1130.33 -2.14817 4.10375 0
M  V30 11668 C 1131.07 -2.55712 5.13224 0
M  V30 11669 N 1130.56 -2.9587 6.26444 0
M  V30 11670 N 1132.36 -2.55691 5.00578 0
M  V30 11671 H 1124.51 0.0398357 2.12363 0
M  V30 11672 H 1126.77 -0.0447705 0.946942 0
M  V30 11673 H 1126.48 -0.754616 3.43509 0
M  V30 11674 H 1126.35 -2.41914 2.89409 0
M  V30 11675 H 1128.74 -2.24263 1.91808 0
M  V30 11676 H 1128.82 -0.571314 2.49338 0
M  V30 11677 H 1128.46 -1.39992 4.88226 0
M  V30 11678 H 1128.39 -3.07362 4.27594 0
M  V30 11679 H 1130.88 -1.86538 3.28652 0
M  V30 11680 H 1131.2 -3.25837 7.0075 0
M  V30 11681 H 1129.54 -2.93664 6.2991 0
M  V30 11682 H 1132.73 -2.23697 4.1119 0
M  V30 11683 H 1132.91 -2.87239 5.80859 0
M  V30 11684 N 1126.31 -1.30234 -0.887518 0
M  V30 11685 C 1127.25 -1.10726 -1.99537 0
M  V30 11686 C 1128.22 -0.0156237 -1.62592 0
M  V30 11687 O 1129.41 -0.168687 -1.87744 0
M  V30 11688 C 1126.53 -0.688185 -3.31635 0
M  V30 11689 C 1125.58 -1.78031 -3.87566 0
M  V30 11690 S 1126.41 -3.38219 -4.15172 0
M  V30 11691 C 1127.57 -2.98208 -5.50293 0
M  V30 11692 H 1127.8 -2.04516 -2.15778 0
M  V30 11693 H 1125.34 -1.14519 -1.0356 0
M  V30 11694 H 1127.29 -0.453124 -4.07991 0
M  V30 11695 H 1125.95 0.230315 -3.13254 0
M  V30 11696 H 1125.15 -1.43931 -4.83011 0
M  V30 11697 H 1124.75 -1.96952 -3.1794 0
M  V30 11698 H 1127.04 -2.4601 -6.31257 0
M  V30 11699 H 1127.98 -3.92551 -5.89329 0
M  V30 11700 H 1128.39 -2.36149 -5.12732 0
M  V30 11701 N 1127.79 1.09952 -1.12909 0
M  V30 11702 C 1128.7 2.19999 -0.81471 0
M  V30 11703 C 1129.72 1.72864 0.19851 0
M  V30 11704 O 1130.89 2.01376 0.0308832 0
M  V30 11705 C 1127.96 3.45573 -0.279363 0
M  V30 11706 C 1127.02 4.07417 -1.35314 0
M  V30 11707 C 1126.25 5.26996 -0.843247 0
M  V30 11708 O 1126.47 5.69495 0.321164 0
M  V30 11709 O 1125.41 5.79826 -1.61511 0
M  V30 11710 H 1129.23 2.49333 -1.73398 0
M  V30 11711 H 1126.82 1.18784 -0.906128 0
M  V30 11712 H 1128.7 4.21398 0.0140531 0
M  V30 11713 H 1127.38 3.17854 0.612401 0
M  V30 11714 H 1126.28 3.33253 -1.6998 0
M  V30 11715 H 1127.62 4.39349 -2.21885 0
M  V30 11716 N 1129.27 0.921757 1.27833 0
M  V30 11717 C 1130.52 0.557974 1.94245 0
M  V30 11718 C 1130.84 -0.90268 1.72849 0
M  V30 11719 O 1130.11 -1.63915 1.07279 0
M  V30 11720 H 1128.69 0.203364 0.718785 0
M  V30 11721 H 1131.35 1.17286 1.5566 0
M  V30 11722 H 1130.45 0.759202 3.02725 0
M  V30 11723 N 1130.75 -1.41857 0.686609 0
M  V30 11724 C 1131.71 -2.29187 0.0247022 0
M  V30 11725 C 1132.71 -1.43926 -0.717069 0
M  V30 11726 O 1133.9 -1.65179 -0.5533 0
M  V30 11727 C 1131.03 -3.26644 -0.975537 0
M  V30 11728 H 1132.22 -2.89212 0.793503 0
M  V30 11729 H 1129.78 -1.49694 0.449605 0
M  V30 11730 H 1130.51 -2.7158 -1.77242 0
M  V30 11731 H 1130.3 -3.89545 -0.446892 0
M  V30 11732 H 1131.79 -3.92107 -1.43673 0
M  V30 11733 N 1132.22 -0.430739 -1.51599 0
M  V30 11734 C 1133.13 0.390347 -2.3133 0
M  V30 11735 C 1134.15 1.03376 -1.39962 0
M  V30 11736 O 1135.33 1.03057 -1.73035 0
M  V30 11737 C 1132.39 1.48039 -3.13505 0
M  V30 11738 C 1131.45 0.857792 -4.20643 0
M  V30 11739 C 1130.69 1.89589 -4.9889 0
M  V30 11740 O 1130.91 3.11717 -4.77691 0
M  V30 11741 O 1129.84 1.49009 -5.83164 0
M  V30 11742 H 1133.67 -0.260358 -3.02582 0
M  V30 11743 H 1131.25 -0.193428 -1.48143 0
M  V30 11744 H 1133.14 2.11272 -3.64612 0
M  V30 11745 H 1131.81 2.1153 -2.45024 0
M  V30 11746 H 1130.72 0.187592 -3.73629 0
M  V30 11747 H 1132.05 0.266474 -4.91478 0
M  V30 11748 N 1133.7 1.56767 -0.161869 0
M  V30 11749 C 1134.67 2.16299 0.758104 0
M  V30 11750 C 1135.67 1.10859 1.16478 0
M  V30 11751 O 1136.86 1.36422 1.08327 0
M  V30 11752 C 1133.99 2.73819 2.03067 0
M  V30 11753 H 1135.18 2.98938 0.239992 0
M  V30 11754 H 1132.73 1.56054 0.0876532 0
M  V30 11755 H 1133.47 1.94887 2.59209 0
M  V30 11756 H 1133.25 3.50974 1.74813 0
M  V30 11757 H 1134.74 3.19638 2.68741 0
M  V30 11758 N 1135.18 -0.111886 1.57202 0
M  V30 11759 C 1136.6 -0.465629 1.52657 0
M  V30 11760 C 1136.8 -1.81463 0.875989 0
M  V30 11761 O 1135.85 -2.4825 0.461345 0
M  V30 11762 C 1137.17 -0.443571 2.9741 0
M  V30 11763 C 1138.71 -0.52662 3.08538 0
M  V30 11764 C 1139.19 -0.53488 4.54866 0
M  V30 11765 N 1140.68 -0.596117 4.59348 0
M  V30 11766 C 1141.41 -0.624073 5.69994 0
M  V30 11767 N 1140.91 -0.609245 6.90116 0
M  V30 11768 N 1142.7 -0.667619 5.58121 0
M  V30 11769 H 1134.85 0.771925 1.97876 0
M  V30 11770 H 1137.12 0.285534 0.903977 0
M  V30 11771 H 1136.82 0.480138 3.48407 0
M  V30 11772 H 1136.7 -1.26876 3.55221 0
M  V30 11773 H 1139.08 -1.44075 2.57539 0
M  V30 11774 H 1139.17 0.326396 2.53709 0
M  V30 11775 H 1138.81 0.375233 5.06512 0
M  V30 11776 H 1138.74 -1.40488 5.07514 0
M  V30 11777 H 1141.23 -0.613452 3.72888 0
M  V30 11778 H 1141.54 -0.633396 7.702 0
M  V30 11779 H 1139.89 -0.576557 6.92604 0
M  V30 11780 H 1143.08 -0.676616 4.63184 0
M  V30 11781 H 1143.25 -0.685938 6.44359 0
M  V30 11782 N 1136.66 -1.52894 -0.382264 0
M  V30 11783 C 1137.91 -1.67933 -1.1244 0
M  V30 11784 C 1138.23 -0.425166 -1.90309 0
M  V30 11785 O 1137.5 0.560557 -1.87709 0
M  V30 11786 H 1136.08 -0.619047 -0.418079 0
M  V30 11787 H 1138.74 -1.90031 -0.432928 0
M  V30 11788 H 1137.84 -2.53285 -1.82355 0
M  V30 11789 N 1138.14 0.641106 -1.43971 0
M  V30 11790 C 1139.55 1.22254 -1.41106 0
M  V30 11791 C 1139.9 1.95825 -0.121284 0
M  V30 11792 O 1139.02 2.01901 0.77879 0
M  V30 11793 C 1139.62 2.22364 -2.55617 0
M  V30 11794 C 1138.18 2.75957 -2.55978 0
M  V30 11795 C 1137.33 1.50792 -2.32717 0
M  V30 11796 H 1140.28 0.432381 -1.52696 0
M  V30 11797 H 1140.3 3.04775 -2.27799 0
M  V30 11798 H 1139.81 1.68789 -3.49474 0
M  V30 11799 H 1137.91 3.33562 -1.66034 0
M  V30 11800 H 1138.02 3.22676 -3.54142 0
M  V30 11801 H 1136.39 1.7857 -1.81617 0
M  V30 11802 H 1137.17 0.991343 -3.28675 0
M  V30 11803 N 1139.62 1.30703 0.880598 0
M  V30 11804 C 1141.03 1.17818 1.4483 0
M  V30 11805 C 1141.38 -0.219456 1.94969 0
M  V30 11806 O 1140.5 -1.11646 1.85375 0
M  V30 11807 C 1141.1 2.13275 2.63247 0
M  V30 11808 C 1139.66 2.04356 3.16094 0
M  V30 11809 C 1138.8 2.03108 1.88792 0
M  V30 11810 H 1141.75 1.42909 0.690125 0
M  V30 11811 H 1141.78 1.71615 3.39601 0
M  V30 11812 H 1141.29 3.14988 2.26725 0
M  V30 11813 H 1139.39 1.058 3.57263 0
M  V30 11814 H 1139.5 2.92953 3.79098 0
M  V30 11815 H 1137.87 1.47971 2.07308 0
M  V30 11816 H 1138.65 3.06558 1.54521 0
M  V30 11817 N 1141.09 -1.09351 1.1349 0
M  V30 11818 C 1142.51 -1.3359 0.873269 0
M  V30 11819 C 1142.71 -1.95432 -0.490767 0
M  V30 11820 O 1141.77 -2.20117 -1.23712 0
M  V30 11821 C 1143.08 -2.24681 1.99847 0
M  V30 11822 C 1144.63 -2.38188 2.03065 0
M  V30 11823 C 1145.1 -3.32615 3.14851 0
M  V30 11824 N 1146.59 -3.40188 3.14366 0
M  V30 11825 C 1147.33 -4.13256 3.97501 0
M  V30 11826 N 1146.82 -4.89114 4.90652 0
M  V30 11827 N 1148.62 -4.08988 3.85597 0
M  V30 11828 H 1140.77 -0.675852 2.0136 0
M  V30 11829 H 1143.03 -0.360268 0.876876 0
M  V30 11830 H 1142.74 -1.86469 2.98198 0
M  V30 11831 H 1142.61 -3.25075 1.91327 0
M  V30 11832 H 1145 -2.75663 1.05327 0
M  V30 11833 H 1145.08 -1.3757 2.15658 0
M  V30 11834 H 1144.72 -2.95863 4.12829 0
M  V30 11835 H 1144.65 -4.33139 2.99496 0
M  V30 11836 H 1147.14 -2.861 2.46892 0
M  V30 11837 H 1147.46 -5.423 5.50573 0
M  V30 11838 H 1145.8 -4.882 4.94657 0
M  V30 11839 H 1148.99 -3.48826 3.12151 0
M  V30 11840 H 1149.17 -4.65671 4.50615 0
M  V30 11841 N 1142.57 -0.928524 -1.27343 0
M  V30 11842 C 1143.82 -0.565207 -1.93619 0
M  V30 11843 C 1144.13 0.897988 -1.73769 0
M  V30 11844 O 1145.34 1.37012 -2.34393 0
M  V30 11845 C 1143.8 -0.960052 -3.46859 0
M  V30 11846 C 1143.4 -2.44399 -3.75464 0
M  V30 11847 C 1145.15 -0.668026 -4.19211 0
M  V30 11848 C 1143.05 -2.77819 -5.22083 0
M  V30 11849 H 1141.98 -0.207665 -0.724839 0
M  V30 11850 H 1144.64 -1.12945 -1.44623 0
M  V30 11851 H 1143.02 -0.324454 -3.94669 0
M  V30 11852 H 1144.19 -3.12756 -3.38408 0
M  V30 11853 H 1142.51 -2.70799 -3.16317 0
M  V30 11854 H 1145.1 -0.894207 -5.2717 0
M  V30 11855 H 1145.45 0.394788 -4.14424 0
M  V30 11856 H 1145.98 -1.26276 -3.77226 0
M  V30 11857 H 1142.72 -3.83013 -5.3196 0
M  V30 11858 H 1142.24 -2.14112 -5.60282 0
M  V30 11859 H 1143.92 -2.65607 -5.89968 0
M  V30 11860 N 1144.05 1.41491 -0.694123 0
M  V30 11861 C 1145 2.30783 -0.0278824 0
M  V30 11862 C 1145.97 1.47028 0.772783 0
M  V30 11863 O 1147.15 1.75819 0.74111 0
M  V30 11864 C 1144.29 3.33061 0.903579 0
M  V30 11865 C 1143.4 4.31896 0.0946823 0
M  V30 11866 C 1142.54 5.21243 1.02365 0
M  V30 11867 C 1141.58 6.11748 0.207578 0
M  V30 11868 N 1140.72 6.93583 1.09028 0
M  V30 11869 H 1145.56 2.87197 -0.795092 0
M  V30 11870 H 1143.09 1.41449 -0.403806 0
M  V30 11871 H 1145.05 3.90907 1.45765 0
M  V30 11872 H 1143.68 2.782 1.6372 0
M  V30 11873 H 1142.73 3.76009 -0.576289 0
M  V30 11874 H 1144.04 4.95889 -0.538059 0
M  V30 11875 H 1143.2 5.83917 1.647 0
M  V30 11876 H 1141.94 4.57473 1.69025 0
M  V30 11877 H 1140.94 5.48125 -0.428854 0
M  V30 11878 H 1142.17 6.77573 -0.455206 0
M  V30 11879 H 1140.11 6.32422 1.74292 0
M  V30 11880 H 1140.03 7.54257 0.513073 0
M  V30 11881 H 1141.3 7.60726 1.70048 0
M  V30 11882 N 1145.53 0.438773 1.51369 0
M  V30 11883 C 1146.8 -0.18722 1.94702 0
M  V30 11884 C 1147.18 -1.59962 1.37752 0
M  V30 11885 O 1146.53 -2.214 0.565171 0
M  V30 11886 C 1146.74 -0.163491 3.48617 0
M  V30 11887 C 1148.09 -0.368355 4.22999 0
M  V30 11888 O 1149.11 -0.241541 3.5538 0
M  V30 11889 O 1147.97 -0.620916 5.42961 0
M  V30 11890 H 1145.07 -0.129194 0.816846 0
M  V30 11891 H 1147.61 0.496855 1.62263 0
M  V30 11892 H 1146.39 0.823882 3.82528 0
M  V30 11893 H 1146.01 -0.890414 3.87501 0
M  V30 11894 N 1147.01 -1.56678 0.170181 0
M  V30 11895 C 1148.25 -1.9714 -0.475767 0
M  V30 11896 C 1148.58 -1.05611 -1.62972 0
M  V30 11897 O 1147.86 -0.103017 -1.94227 0
M  V30 11898 C 1148.14 -3.47072 -0.959828 0
M  V30 11899 C 1148 -4.4938 0.194225 0
M  V30 11900 C 1149.31 -4.00071 -1.83387 0
M  V30 11901 H 1146.43 -0.716776 -0.171466 0
M  V30 11902 H 1149.08 -1.88266 0.256086 0
M  V30 11903 H 1147.23 -3.54766 -1.58346 0
M  V30 11904 H 1148.9 -4.53748 0.83128 0
M  V30 11905 H 1147.14 -4.25393 0.849893 0
M  V30 11906 H 1147.81 -5.51685 -0.186575 0
M  V30 11907 H 1150.29 -3.95002 -1.30815 0
M  V30 11908 H 1149.16 -5.05398 -2.14159 0
M  V30 11909 H 1149.42 -3.43819 -2.77923 0
M  V30 11910 N 1148.48 0.103547 -1.57259 0
M  V30 11911 C 1149.42 1.15707 -1.9669 0
M  V30 11912 C 1150.39 1.39292 -0.838837 0
M  V30 11913 O 1151.58 1.53192 -1.09839 0
M  V30 11914 C 1148.71 2.50793 -2.27642 0
M  V30 11915 C 1147.75 2.43541 -3.50129 0
M  V30 11916 S 1148.58 1.86009 -5.02156 0
M  V30 11917 C 1149.74 3.22737 -5.36276 0
M  V30 11918 H 1149.97 0.820891 -2.85742 0
M  V30 11919 H 1147.51 0.310906 -1.51237 0
M  V30 11920 H 1149.46 3.28512 -2.46151 0
M  V30 11921 H 1148.13 2.81583 -1.39176 0
M  V30 11922 H 1147.32 3.43085 -3.692 0
M  V30 11923 H 1146.92 1.73948 -3.31086 0
M  V30 11924 H 1149.21 4.1899 -5.32404 0
M  V30 11925 H 1150.16 3.08477 -6.37375 0
M  V30 11926 H 1150.56 3.21878 -4.6374 0
M  V30 11927 N 1149.96 1.53094 0.37415 0
M  V30 11928 C 1150.89 1.81901 1.46404 0
M  V30 11929 C 1151.87 0.671949 1.56265 0
M  V30 11930 O 1153.06 0.920978 1.70973 0
M  V30 11931 C 1150.19 2.00123 2.83845 0
M  V30 11932 C 1149.14 3.15864 2.88814 0
M  V30 11933 C 1148.47 3.19364 4.28848 0
M  V30 11934 C 1149.77 4.54633 2.57112 0
M  V30 11935 H 1151.46 2.73172 1.22546 0
M  V30 11936 H 1149.01 1.31444 0.588087 0
M  V30 11937 H 1150.96 2.18859 3.6011 0
M  V30 11938 H 1149.68 1.05555 3.09072 0
M  V30 11939 H 1148.34 2.96935 2.15 0
M  V30 11940 H 1147.99 2.2245 4.51137 0
M  V30 11941 H 1147.69 3.97123 4.3309 0
M  V30 11942 H 1149.22 3.40273 5.06997 0
M  V30 11943 H 1150.63 4.73587 3.23091 0
M  V30 11944 H 1149.03 5.34569 2.72683 0
M  V30 11945 H 1150.1 4.60331 1.52392 0
M  V30 11946 N 1151.44 -0.633461 1.44309 0
M  V30 11947 C 1152.4 -1.72743 1.50641 0
M  V30 11948 C 1153.4 -1.56031 0.388718 0
M  V30 11949 O 1154.59 -1.61568 0.651251 0
M  V30 11950 C 1151.72 -3.11804 1.37809 0
M  V30 11951 H 1152.92 -1.68503 2.48086 0
M  V30 11952 H 1150.47 -0.846912 1.31366 0
M  V30 11953 H 1151.21 -3.2164 0.414483 0
M  V30 11954 H 1150.99 -3.2534 2.18852 0
M  V30 11955 H 1152.48 -3.91538 1.45216 0
M  V30 11956 N 1152.92 -1.31168 -0.873655 0
M  V30 11957 C 1154.2 -1.11285 -1.60857 0
M  V30 11958 C 1154.58 0.333788 -2.08444 0
M  V30 11959 O 1153.92 1.32726 -1.86 0
M  V30 11960 C 1154.13 -2.12379 -2.7694 0
M  V30 11961 C 1155.48 -2.44704 -3.46994 0
M  V30 11962 O 1156.51 -2.10778 -2.87143 0
M  V30 11963 O 1155.36 -3.02786 -4.54954 0
M  V30 11964 H 1152.46 -0.428177 -0.707526 0
M  V30 11965 H 1155 -1.42634 -0.91944 0
M  V30 11966 H 1153.78 -3.09703 -2.39164 0
M  V30 11967 H 1153.4 -1.81914 -3.53544 0
M  V30 11968 N 1154.4 1.08748 -1.14068 0
M  V30 11969 C 1155.36 2.1375 -0.827266 0
M  V30 11970 C 1156.36 1.59936 0.166496 0
M  V30 11971 O 1157.55 1.74092 -0.0614305 0
M  V30 11972 C 1154.68 3.40106 -0.232557 0
M  V30 11973 H 1155.87 2.42985 -1.7578 0
M  V30 11974 H 1153.43 1.24402 -0.946244 0
M  V30 11975 H 1154.16 3.16503 0.706859 0
M  V30 11976 H 1153.95 3.8046 -0.948293 0
M  V30 11977 H 1155.44 4.17589 -0.0303662 0
M  V30 11978 N 1155.87 0.935264 1.26849 0
M  V30 11979 C 1156.81 0.397539 2.25726 0
M  V30 11980 C 1157.82 -0.475928 1.55688 0
M  V30 11981 O 1159.01 -0.287329 1.76172 0
M  V30 11982 C 1156.11 -0.448308 3.35922 0
M  V30 11983 C 1155.28 0.407624 4.35496 0
M  V30 11984 C 1154.34 -0.376815 5.24849 0
M  V30 11985 O 1153.37 0.218109 5.68782 0
M  V30 11986 N 1154.57 -1.67481 5.55815 0
M  V30 11987 H 1157.33 1.24753 2.72501 0
M  V30 11988 H 1154.89 0.803505 1.40554 0
M  V30 11989 H 1156.89 -0.980338 3.92647 0
M  V30 11990 H 1155.46 -1.19908 2.88688 0
M  V30 11991 H 1154.68 1.12091 3.77928 0
M  V30 11992 H 1155.96 0.992512 4.99026 0
M  V30 11993 H 1155.36 -2.18037 5.21993 0
M  V30 11994 H 1153.92 -2.15321 6.15207 0
M  V30 11995 N 1157.35 -1.41121 0.701616 0
M  V30 11996 C 1158.6 -2.01928 0.244271 0
M  V30 11997 C 1158.95 -1.54597 -1.14532 0
M  V30 11998 O 1158.25 -0.749972 -1.76312 0
M  V30 11999 C 1158.44 -3.5654 0.247781 0
M  V30 12000 C 1158.27 -4.18879 1.63618 0
M  V30 12001 C 1157.04 -4.52913 2.24048 0
M  V30 12002 C 1159.24 -4.44679 2.5839 0
M  V30 12003 N 1157.22 -5.00571 3.55389 0
M  V30 12004 C 1158.59 -4.94178 3.74418 0
M  V30 12005 C 1160.65 -4.26698 2.56579 0
M  V30 12006 C 1159.35 -5.27584 4.88924 0
M  V30 12007 C 1161.37 -4.61198 3.70203 0
M  V30 12008 C 1160.74 -5.10873 4.84962 0
M  V30 12009 H 1156.84 -0.770275 0.134908 0
M  V30 12010 H 1159.42 -1.71571 0.920402 0
M  V30 12011 H 1157.59 -3.86357 -0.39786 0
M  V30 12012 H 1159.32 -4.04074 -0.224961 0
M  V30 12013 H 1156.08 -4.39572 1.76277 0
M  V30 12014 H 1156.5 -5.28799 4.2273 0
M  V30 12015 H 1161.14 -3.87525 1.69069 0
M  V30 12016 H 1158.86 -5.65678 5.77091 0
M  V30 12017 H 1162.45 -4.48939 3.70061 0
M  V30 12018 H 1161.33 -5.37067 5.71426 0
M  V30 12019 N 1158.83 -0.446794 -1.51134 0
M  V30 12020 C 1159.74 0.36579 -2.31731 0
M  V30 12021 C 1160.76 1.01886 -1.41051 0
M  V30 12022 O 1161.93 1.01216 -1.74119 0
M  V30 12023 C 1159 1.44705 -3.15058 0
M  V30 12024 C 1158.06 0.813129 -4.21529 0
M  V30 12025 C 1157.29 1.84287 -5.00873 0
M  V30 12026 O 1157.51 3.06633 -4.8097 0
M  V30 12027 O 1156.45 1.42816 -5.84711 0
M  V30 12028 H 1160.27 -0.292436 -3.02289 0
M  V30 12029 H 1157.86 -0.209129 -1.47929 0
M  V30 12030 H 1159.74 2.07393 -3.66833 0
M  V30 12031 H 1158.42 2.08919 -2.47254 0
M  V30 12032 H 1157.32 0.147953 -3.73807 0
M  V30 12033 H 1158.66 0.214331 -4.91733 0
M  V30 12034 N 1160.31 1.56586 -0.178487 0
M  V30 12035 C 1161.54 2.01475 0.470684 0
M  V30 12036 C 1161.95 1.0587 1.56323 0
M  V30 12037 O 1161.31 0.060749 1.82399 0
M  V30 12038 C 1161.36 3.46145 1.04238 0
M  V30 12039 O 1161.08 4.381 -0.0065582 0
M  V30 12040 C 1162.58 4.06471 1.76908 0
M  V30 12041 H 1159.8 0.660219 0.119801 0
M  V30 12042 H 1162.35 2.02542 -0.282322 0
M  V30 12043 H 1160.5 3.45831 1.74585 0
M  V30 12044 H 1160.91 5.22843 0.416554 0
M  V30 12045 H 1162.39 5.096 2.12161 0
M  V30 12046 H 1162.87 3.48974 2.66672 0
M  V30 12047 H 1163.47 4.10509 1.11186 0
M  V30 12048 N 1161.79 -0.095206 1.57312 0
M  V30 12049 C 1163.06 -0.830388 1.77099 0
M  V30 12050 C 1163.44 -1.9694 0.760121 0
M  V30 12051 O 1162.79 -2.2752 -0.211403 0
M  V30 12052 C 1163 -1.32507 3.22867 0
M  V30 12053 C 1164.35 -1.7679 3.86045 0
M  V30 12054 O 1165.37 -1.42131 3.26615 0
M  V30 12055 O 1164.23 -2.40876 4.90552 0
M  V30 12056 H 1161.33 -0.396083 0.72598 0
M  V30 12057 H 1163.87 -0.0770965 1.69525 0
M  V30 12058 H 1162.64 -0.508992 3.87975 0
M  V30 12059 H 1162.27 -2.14037 3.35073 0
M  V30 12060 N 1163.26 -1.53291 -0.366026 0
M  V30 12061 C 1164.54 -1.60055 -1.12436 0
M  V30 12062 C 1164.92 -0.407811 -2.07123 0
M  V30 12063 O 1164.27 0.601977 -2.20428 0
M  V30 12064 C 1164.48 -2.95062 -1.86385 0
M  V30 12065 C 1165.83 -3.49623 -2.40934 0
M  V30 12066 O 1166.85 -2.97088 -1.96512 0
M  V30 12067 O 1165.71 -4.41461 -3.2214 0
M  V30 12068 H 1162.8 -0.646476 -0.51575 0
M  V30 12069 H 1165.35 -1.65632 -0.369326 0
M  V30 12070 H 1164.12 -3.73312 -1.17277 0
M  V30 12071 H 1163.75 -2.92973 -2.68798 0
M  V30 12072 N 1164.74 0.6258 -1.44643 0
M  V30 12073 C 1165.97 1.41233 -1.51198 0
M  V30 12074 C 1166.39 1.88291 -0.138572 0
M  V30 12075 O 1165.74 1.61151 0.856537 0
M  V30 12076 C 1165.79 2.62908 -2.48117 0
M  V30 12077 O 1165.51 2.1781 -3.80119 0
M  V30 12078 C 1167.02 3.55976 -2.6419 0
M  V30 12079 H 1164.24 0.432954 -0.512632 0
M  V30 12080 H 1166.78 0.76486 -1.89658 0
M  V30 12081 H 1164.93 3.23735 -2.12778 0
M  V30 12082 H 1165.35 2.96732 -4.32493 0
M  V30 12083 H 1166.82 4.37943 -3.3602 0
M  V30 12084 H 1167.3 4.05133 -1.696 0
M  V30 12085 H 1167.91 3.01014 -3.00451 0
M  V30 12086 N 1166.22 1.31629 0.866686 0
M  V30 12087 C 1167.18 1.1951 1.95576 0
M  V30 12088 C 1168.18 0.121319 1.60342 0
M  V30 12089 O 1169.37 0.370832 1.70207 0
M  V30 12090 C 1166.51 0.835201 3.30511 0
M  V30 12091 H 1167.7 2.16285 2.07752 0
M  V30 12092 H 1165.25 1.15288 1.05539 0
M  V30 12093 H 1165.99 -0.131245 3.24034 0
M  V30 12094 H 1165.77 1.61142 3.57457 0
M  V30 12095 H 1167.26 0.774393 4.10357 0
M  V30 12096 N 1167.7 -1.08142 1.14644 0
M  V30 12097 C 1168.61 -2.18675 0.849607 0
M  V30 12098 C 1169.63 -1.73158 -0.170983 0
M  V30 12099 O 1170.8 -2.014 0.0011579 0
M  V30 12100 C 1167.87 -3.45084 0.334305 0
M  V30 12101 C 1166.93 -4.05213 1.41779 0
M  V30 12102 C 1166.16 -5.25588 0.926981 0
M  V30 12103 O 1166.38 -5.69934 -0.230522 0
M  V30 12104 O 1165.32 -5.77183 1.70715 0
M  V30 12105 H 1169.14 -2.46542 1.77343 0
M  V30 12106 H 1166.73 -1.17328 0.924911 0
M  V30 12107 H 1168.61 -4.21367 0.0529893 0
M  V30 12108 H 1167.29 -3.18788 -0.561755 0
M  V30 12109 H 1166.19 -3.30507 1.7526 0
M  V30 12110 H 1167.53 -4.35764 2.28847 0
M  V30 12111 N 1169.18 -0.941978 -1.26351 0
M  V30 12112 C 1170.41 -0.605868 -1.97517 0
M  V30 12113 C 1170.82 0.823583 -1.70334 0
M  V30 12114 O 1170.16 1.56085 -0.968662 0
M  V30 12115 C 1170.22 -0.769201 -3.51175 0
M  V30 12116 C 1169.88 -2.17343 -4.02009 0
M  V30 12117 C 1170.88 -3.14898 -4.13685 0
M  V30 12118 C 1168.57 -2.49422 -4.35998 0
M  V30 12119 C 1170.56 -4.42631 -4.58646 0
M  V30 12120 C 1168.25 -3.77388 -4.80647 0
M  V30 12121 C 1169.25 -4.73806 -4.91932 0
M  V30 12122 O 1168.93 -5.99493 -5.35596 0
M  V30 12123 H 1168.67 -0.227113 -0.636707 0
M  V30 12124 H 1171.22 -1.26523 -1.61806 0
M  V30 12125 H 1169.45 -0.0527104 -3.86664 0
M  V30 12126 H 1171.14 -0.436032 -4.03551 0
M  V30 12127 H 1171.9 -2.91438 -3.87671 0
M  V30 12128 H 1167.78 -1.7511 -4.26448 0
M  V30 12129 H 1171.33 -5.17892 -4.67369 0
M  V30 12130 H 1167.22 -4.0066 -5.06105 0
M  V30 12131 H 1167.99 -6.02687 -5.53815 0
M  V30 12132 N 1170.66 1.40747 -0.709091 0
M  V30 12133 C 1171.57 2.3454 -0.0532205 0
M  V30 12134 C 1172.58 1.56956 0.751057 0
M  V30 12135 O 1173.76 1.89375 0.685509 0
M  V30 12136 C 1170.82 3.35809 0.862157 0
M  V30 12137 C 1169.88 4.29273 0.0485632 0
M  V30 12138 C 1169.12 5.25705 0.920345 0
M  V30 12139 O 1169.34 5.27933 2.15969 0
M  V30 12140 O 1168.27 6.00806 0.3628 0
M  V30 12141 H 1172.1 2.92232 -0.826698 0
M  V30 12142 H 1169.68 1.4183 -0.469519 0
M  V30 12143 H 1171.57 3.97931 1.38668 0
M  V30 12144 H 1170.24 2.8054 1.61489 0
M  V30 12145 H 1169.15 3.70456 -0.520873 0
M  V30 12146 H 1170.48 4.87676 -0.665807 0
M  V30 12147 N 1172.13 0.454803 1.50895 0
M  V30 12148 C 1173.07 -0.393395 2.24784 0
M  V30 12149 C 1174.04 -1.01005 1.27424 0
M  V30 12150 O 1175.23 -1.04914 1.56605 0
M  V30 12151 C 1172.36 -1.54978 3.01164 0
M  V30 12152 C 1171.4 -1.0521 4.1332 0
M  V30 12153 S 1172.23 0.0200486 5.35496 0
M  V30 12154 C 1173.39 -1.14059 6.1542 0
M  V30 12155 H 1173.62 0.233864 2.96379 0
M  V30 12156 H 1171.16 0.239498 1.52531 0
M  V30 12157 H 1173.11 -2.21262 3.45765 0
M  V30 12158 H 1171.78 -2.1485 2.29125 0
M  V30 12159 H 1170.97 -1.91734 4.66105 0
M  V30 12160 H 1170.57 -0.467234 3.7107 0
M  V30 12161 H 1172.86 -2.05552 6.45565 0
M  V30 12162 H 1173.81 -0.652339 7.05089 0
M  V30 12163 H 1174.21 -1.38705 5.47194 0
M  V30 12164 N 1173.61 -1.56489 0.186789 0
M  V30 12165 C 1174.86 -1.97634 -0.454831 0
M  V30 12166 C 1175.19 -1.07334 -1.61843 0
M  V30 12167 O 1174.47 -0.123612 -1.94107 0
M  V30 12168 C 1174.75 -3.48071 -0.922962 0
M  V30 12169 C 1174.6 -4.49149 0.241877 0
M  V30 12170 C 1175.92 -4.01994 -1.79134 0
M  V30 12171 H 1173.04 -0.718555 -0.163854 0
M  V30 12172 H 1175.68 -1.87984 0.27604 0
M  V30 12173 H 1173.83 -3.56425 -1.54575 0
M  V30 12174 H 1175.5 -4.52841 0.87936 0
M  V30 12175 H 1173.75 -4.24468 0.894964 0
M  V30 12176 H 1174.42 -5.51851 -0.128051 0
M  V30 12177 H 1176.89 -3.96367 -1.26618 0
M  V30 12178 H 1175.77 -5.07641 -2.08787 0
M  V30 12179 H 1176.03 -3.46747 -2.74261 0
M  V30 12180 N 1175.09 0.086862 -1.5736 0
M  V30 12181 C 1176.34 0.787581 -1.85688 0
M  V30 12182 C 1176.65 1.79494 -0.777263 0
M  V30 12183 O 1177.86 2.54415 -0.947914 0
M  V30 12184 C 1176.31 1.45155 -3.2933 0
M  V30 12185 C 1175.92 0.483539 -4.45383 0
M  V30 12186 C 1177.67 2.13552 -3.66873 0
M  V30 12187 C 1175.57 1.15257 -5.8006 0
M  V30 12188 H 1174.5 0.297882 -0.692663 0
M  V30 12189 H 1177.15 0.0406299 -1.83455 0
M  V30 12190 H 1175.54 2.24625 -3.26128 0
M  V30 12191 H 1176.71 -0.280254 -4.59947 0
M  V30 12192 H 1175.02 -0.0951664 -4.16291 0
M  V30 12193 H 1177.62 2.64355 -4.6478 0
M  V30 12194 H 1177.96 2.92818 -2.95911 0
M  V30 12195 H 1178.5 1.40932 -3.71999 0
M  V30 12196 H 1175.24 0.400546 -6.54275 0
M  V30 12197 H 1174.76 1.88759 -5.69324 0
M  V30 12198 H 1176.44 1.67671 -6.24896 0
M  V30 12199 N 1176.57 1.53483 0.357892 0
M  V30 12200 C 1177.8 1.73956 1.12013 0
M  V30 12201 C 1178.21 0.472053 1.82803 0
M  V30 12202 O 1177.57 -0.555499 1.7384 0
M  V30 12203 C 1177.62 2.91015 2.14459 0
M  V30 12204 O 1177.34 4.12862 1.4655 0
M  V30 12205 C 1178.84 3.23423 3.0317 0
M  V30 12206 H 1176.06 0.58161 0.334621 0
M  V30 12207 H 1178.6 2.00256 0.414467 0
M  V30 12208 H 1176.76 2.67087 2.80612 0
M  V30 12209 H 1177.17 4.78468 2.14869 0
M  V30 12210 H 1178.65 4.08717 3.71018 0
M  V30 12211 H 1179.12 2.39114 3.68404 0
M  V30 12212 H 1179.73 3.49305 2.42624 0
M  V30 12213 N 1178.05 -0.61812 1.44973 0
M  V30 12214 C 1178.99 -1.75059 1.53157 0
M  V30 12215 C 1179.99 -1.64554 0.402282 0
M  V30 12216 O 1181.19 -1.70475 0.577767 0
M  V30 12217 H 1177.57 -0.57817 0.480856 0
M  V30 12218 H 1179.54 -1.65281 2.48445 0
M  V30 12219 C 1178.29 -3.13423 1.50538 0
M  V30 12220 H 1177.61 -3.2216 2.36755 0
M  V30 12221 H 1179.05 -3.92521 1.60323 0
M  V30 12222 C 1177.51 -3.36127 0.228127 0
M  V30 12223 O 1178.04 -3.95618 -0.696364 0
M  V30 12224 N 1176.25 -2.90322 0.127142 0
M  V30 12225 H 1175.79 -2.42091 0.880317 0
M  V30 12226 H 1175.75 -3.05887 -0.726659 0
M  V30 12227 N 1179.52 -1.32087 -0.859693 0
M  V30 12228 C 1180.45 -1.23204 -1.98351 0
M  V30 12229 C 1181.43 -0.116974 -1.69697 0
M  V30 12230 O 1182.62 -0.303301 -1.91817 0
M  V30 12231 C 1179.75 -0.949171 -3.34078 0
M  V30 12232 C 1178.7 -2.02493 -3.77069 0
M  V30 12233 C 1178.03 -1.59455 -5.1037 0
M  V30 12234 C 1179.33 -3.43934 -3.93074 0
M  V30 12235 H 1181.02 -2.17227 -2.0604 0
M  V30 12236 H 1178.57 -1.04577 -0.989931 0
M  V30 12237 H 1180.52 -0.873594 -4.12245 0
M  V30 12238 H 1179.25 0.0267095 -3.26589 0
M  V30 12239 H 1177.91 -2.09057 -3.01149 0
M  V30 12240 H 1177.55 -0.606256 -4.99333 0
M  V30 12241 H 1177.25 -2.31429 -5.40106 0
M  V30 12242 H 1178.78 -1.53325 -5.91036 0
M  V30 12243 H 1180.19 -3.39986 -4.61608 0
M  V30 12244 H 1178.59 -4.14214 -4.3422 0
M  V30 12245 H 1179.66 -3.83965 -2.9614 0
M  V30 12246 N 1181 1.07532 -1.15215 0
M  V30 12247 C 1181.93 2.14598 -0.805006 0
M  V30 12248 C 1182.95 1.61778 0.182152 0
M  V30 12249 O 1184.14 1.78453 -0.040834 0
M  V30 12250 C 1181.24 3.38444 -0.175736 0
M  V30 12251 C 1180.41 4.20621 -1.19986 0
M  V30 12252 C 1179.47 5.22851 -0.592705 0
M  V30 12253 O 1178.49 5.55121 -1.25815 0
M  V30 12254 N 1179.7 5.7711 0.626425 0
M  V30 12255 H 1182.46 2.44981 -1.7264 0
M  V30 12256 H 1180.02 1.23423 -1.04778 0
M  V30 12257 H 1182.01 4.03969 0.243166 0
M  V30 12258 H 1180.58 3.0579 0.64896 0
M  V30 12259 H 1179.8 3.50941 -1.79539 0
M  V30 12260 H 1181.09 4.72339 -1.89139 0
M  V30 12261 H 1180.49 5.53139 1.18546 0
M  V30 12262 H 1179.05 6.44273 0.98771 0
M  V30 12263 N 1182.48 0.948665 1.2585 0
M  V30 12264 C 1183.89 0.641829 1.75321 0
M  V30 12265 C 1184.24 -0.842903 1.77171 0
M  V30 12266 O 1183.37 -1.65967 1.38867 0
M  V30 12267 C 1183.96 1.15835 3.18383 0
M  V30 12268 C 1182.52 0.901784 3.65438 0
M  V30 12269 C 1181.67 1.30489 2.44679 0
M  V30 12270 H 1184.62 1.12614 1.1182 0
M  V30 12271 H 1184.64 0.515639 3.7699 0
M  V30 12272 H 1184.15 2.23897 3.17004 0
M  V30 12273 H 1182.25 -0.164135 3.72238 0
M  V30 12274 H 1182.37 1.53405 4.53876 0
M  V30 12275 H 1180.73 0.723278 2.44215 0
M  V30 12276 H 1181.51 2.3946 2.45996 0
M  V30 12277 N 1183.96 -1.40369 0.716545 0
M  V30 12278 C 1184.87 -2.34508 0.065658 0
M  V30 12279 C 1185.88 -1.57352 -0.742723 0
M  V30 12280 O 1187.06 -1.89735 -0.675456 0
M  V30 12281 C 1184.13 -3.36262 -0.844337 0
M  V30 12282 C 1183.19 -4.29292 -0.0257971 0
M  V30 12283 C 1182.42 -5.26185 -0.892452 0
M  V30 12284 O 1182.64 -5.29071 -2.13166 0
M  V30 12285 O 1181.58 -6.0099 -0.330933 0
M  V30 12286 H 1185.4 -2.91789 0.842184 0
M  V30 12287 H 1182.99 -1.41579 0.477034 0
M  V30 12288 H 1184.87 -3.98661 -1.36555 0
M  V30 12289 H 1183.54 -2.81393 -1.59999 0
M  V30 12290 H 1182.45 -3.70175 0.540512 0
M  V30 12291 H 1183.78 -4.87316 0.69166 0
M  V30 12292 N 1185.44 -0.462799 -1.50652 0
M  V30 12293 C 1186.66 0.0929761 -2.06691 0
M  V30 12294 C 1187.08 1.34241 -1.32758 0
M  V30 12295 O 1186.44 1.78187 -0.394427 0
M  V30 12296 C 1186.49 0.389492 -3.59396 0
M  V30 12297 O 1186.21 -0.810379 -4.3054 0
M  V30 12298 C 1187.71 0.993147 -4.32032 0
M  V30 12299 H 1184.93 -0.00338664 -0.670991 0
M  V30 12300 H 1187.47 -0.649201 -1.93922 0
M  V30 12301 H 1185.63 1.08159 -3.71995 0
M  V30 12302 H 1186.04 -0.54996 -5.21609 0
M  V30 12303 H 1187.52 1.15044 -5.39878 0
M  V30 12304 H 1187.99 1.98106 -3.91983 0
M  V30 12305 H 1188.6 0.339677 -4.23941 0
M  V30 12306 N 1186.91 1.56388 -0.195085 0
M  V30 12307 C 1187.88 2.17859 0.712053 0
M  V30 12308 C 1188.88 1.13304 1.141 0
M  V30 12309 O 1190.07 1.38689 1.05409 0
M  V30 12310 C 1187.2 2.78065 1.97213 0
M  V30 12311 H 1188.39 2.9938 0.176529 0
M  V30 12312 H 1185.95 1.56205 0.0545322 0
M  V30 12313 H 1186.68 2.00342 2.55017 0
M  V30 12314 H 1186.47 3.54603 1.67329 0
M  V30 12315 H 1187.96 3.25266 2.619 0
M  V30 12316 N 1188.39 -0.0785156 1.57404 0
M  V30 12317 C 1189.62 -0.790893 1.90862 0
M  V30 12318 C 1190.03 -1.7198 0.788644 0
M  V30 12319 O 1189.37 -1.82027 -0.247322 0
M  V30 12320 C 1189.44 -1.64362 3.19727 0
M  V30 12321 C 1189.1 -0.884796 4.48353 0
M  V30 12322 C 1190.1 -0.207074 5.19487 0
M  V30 12323 C 1187.78 -0.853962 4.94988 0
M  V30 12324 C 1189.78 0.491329 6.35504 0
M  V30 12325 C 1187.46 -0.151783 6.10911 0
M  V30 12326 C 1188.46 0.519669 6.8102 0
M  V30 12327 O 1188.15 1.21055 7.94733 0
M  V30 12328 H 1187.88 -0.230427 0.635515 0
M  V30 12329 H 1190.43 -0.0551231 2.05326 0
M  V30 12330 H 1188.66 -2.42203 3.01454 0
M  V30 12331 H 1190.35 -2.23406 3.38887 0
M  V30 12332 H 1191.12 -0.222247 4.84491 0
M  V30 12333 H 1187 -1.36605 4.40296 0
M  V30 12334 H 1190.54 1.01598 6.90162 0
M  V30 12335 H 1186.44 -0.134514 6.4536 0
M  V30 12336 H 1187.21 1.11914 8.10813 0
M  V30 12337 N 1189.87 -1.5367 -0.349747 0
M  V30 12338 C 1191.1 -1.74858 -1.11532 0
M  V30 12339 C 1191.52 -0.483591 -1.81777 0
M  V30 12340 O 1190.88 0.563399 -1.72324 0
M  V30 12341 C 1190.93 -2.92479 -2.10923 0
M  V30 12342 O 1190.03 -2.62194 -3.18321 0
M  V30 12343 H 1189.37 -0.580219 -0.322865 0
M  V30 12344 H 1191.9 -2.00611 -0.402033 0
M  V30 12345 H 1191.91 -3.19093 -2.54252 0
M  V30 12346 H 1190.59 -3.84228 -1.59191 0
M  V30 12347 H 1189.16 -2.46448 -2.79853 0
M  V30 12348 N 1191.35 0.610423 -1.45298 0
M  V30 12349 C 1192.6 1.36558 -1.48441 0
M  V30 12350 C 1192.91 1.95173 -0.129137 0
M  V30 12351 O 1194.12 2.71473 -0.0381956 0
M  V30 12352 C 1192.57 2.47349 -2.61431 0
M  V30 12353 C 1192.18 1.95158 -4.03258 0
M  V30 12354 C 1193.92 3.24383 -2.73817 0
M  V30 12355 C 1191.83 3.03414 -5.07635 0
M  V30 12356 H 1190.76 0.513253 -0.552347 0
M  V30 12357 H 1193.41 0.654535 -1.7143 0
M  V30 12358 H 1191.79 3.21125 -2.31721 0
M  V30 12359 H 1192.97 1.2811 -4.42634 0
M  V30 12360 H 1191.28 1.30878 -3.95297 0
M  V30 12361 H 1193.88 4.05123 -3.48969 0
M  V30 12362 H 1194.22 3.75205 -1.80352 0
M  V30 12363 H 1194.76 2.57705 -3.03039 0
M  V30 12364 H 1191.5 2.57512 -6.028 0
M  V30 12365 H 1191.02 3.69039 -4.72833 0
M  V30 12366 H 1192.69 3.67844 -5.32259 0
M  V30 12367 N 1192.83 1.32541 0.852676 0
M  V30 12368 C 1194.05 1.2622 1.6394 0
M  V30 12369 C 1194.47 -0.169455 1.88038 0
M  V30 12370 O 1193.83 -1.10719 1.45078 0
M  V30 12371 C 1193.88 2.02062 2.99755 0
M  V30 12372 O 1193.6 3.39641 2.76723 0
M  V30 12373 C 1195.1 2.02787 3.94198 0
M  V30 12374 H 1192.32 0.435405 0.510552 0
M  V30 12375 H 1194.86 1.74696 1.06309 0
M  V30 12376 H 1193.02 1.57303 3.54026 0
M  V30 12377 H 1193.43 3.78484 3.63111 0
M  V30 12378 H 1194.91 2.60333 4.86755 0
M  V30 12379 H 1195.38 1.01464 4.27319 0
M  V30 12380 H 1195.99 2.47504 3.45864 0
M  V30 12381 N 1194.3 -1.0692 1.15784 0
M  V30 12382 C 1195.55 -1.79866 0.936815 0
M  V30 12383 C 1195.88 -1.867 -0.534477 0
M  V30 12384 O 1195.16 -1.35395 -1.39637 0
M  V30 12385 C 1195.44 -3.24691 1.55717 0
M  V30 12386 C 1195.29 -3.25975 3.09936 0
M  V30 12387 C 1196.61 -4.22076 1.24658 0
M  V30 12388 H 1193.73 -0.652971 0.341756 0
M  V30 12389 H 1196.37 -1.25085 1.43016 0
M  V30 12390 H 1194.52 -3.7147 1.13763 0
M  V30 12391 H 1196.2 -2.87405 3.60827 0
M  V30 12392 H 1194.44 -2.64808 3.43597 0
M  V30 12393 H 1195.11 -4.28114 3.48458 0
M  V30 12394 H 1197.59 -3.83709 1.60956 0
M  V30 12395 H 1196.46 -5.21691 1.70675 0
M  V30 12396 H 1196.72 -4.41794 0.164341 0
M  V30 12397 N 1195.78 -0.955326 -1.25345 0
M  V30 12398 C 1196.75 -0.480564 -2.24105 0
M  V30 12399 C 1197.75 0.416123 -1.55322 0
M  V30 12400 O 1198.94 0.213315 -1.72889 0
M  V30 12401 C 1196.07 0.305589 -3.39528 0
M  V30 12402 H 1197.26 -1.35349 -2.6762 0
M  V30 12403 H 1194.81 -0.738673 -1.37744 0
M  V30 12404 H 1195.55 1.19615 -3.01434 0
M  V30 12405 H 1195.33 -0.337719 -3.90643 0
M  V30 12406 H 1196.82 0.627201 -4.12863 0
M  V30 12407 N 1197.26 1.39987 -0.723979 0
M  V30 12408 C 1198.22 2.29041 -0.0854583 0
M  V30 12409 C 1199.22 1.45777 0.678657 0
M  V30 12410 O 1200.41 1.66588 0.509311 0
M  V30 12411 C 1197.55 3.29115 0.88859 0
M  V30 12412 H 1198.74 2.87006 -0.869903 0
M  V30 12413 H 1196.29 1.48449 -0.489136 0
M  V30 12414 H 1197.03 2.76184 1.69979 0
M  V30 12415 H 1196.81 3.90593 0.343454 0
M  V30 12416 H 1198.3 3.95778 1.33227 0
M  V30 12417 N 1198.74 0.470782 1.50404 0
M  V30 12418 C 1199.97 -0.0818945 2.06438 0
M  V30 12419 C 1200.38 -1.34085 1.33483 0
M  V30 12420 O 1199.72 -1.79346 0.397565 0
M  V30 12421 C 1199.78 -0.436252 3.56843 0
M  V30 12422 C 1199.45 0.720641 4.51282 0
M  V30 12423 C 1200.44 1.60258 4.94584 0
M  V30 12424 C 1198.13 0.910879 4.93972 0
M  V30 12425 C 1200.12 2.65916 5.79282 0
M  V30 12426 C 1197.81 1.97069 5.78452 0
M  V30 12427 C 1198.81 2.84319 6.21008 0
M  V30 12428 O 1198.5 3.88476 7.03805 0
M  V30 12429 H 1198.23 0.00361688 0.67599 0
M  V30 12430 H 1200.78 0.658488 1.94559 0
M  V30 12431 H 1199.01 -1.22982 3.66623 0
M  V30 12432 H 1200.7 -0.923976 3.95244 0
M  V30 12433 H 1201.47 1.46729 4.62272 0
M  V30 12434 H 1197.35 0.241225 4.60368 0
M  V30 12435 H 1200.89 3.3405 6.12419 0
M  V30 12436 H 1196.79 2.10605 6.10177 0
M  V30 12437 H 1197.55 3.8546 7.22054 0
M  V30 12438 N 1200.22 -1.56282 0.203376 0
M  V30 12439 C 1201.45 -2.02198 -0.438572 0
M  V30 12440 C 1201.86 -1.08343 -1.54619 0
M  V30 12441 O 1201.22 -0.0897594 -1.82279 0
M  V30 12442 C 1201.27 -3.4776 -0.987184 0
M  V30 12443 O 1200.99 -4.38034 0.0762552 0
M  V30 12444 C 1202.49 -4.09234 -1.70419 0
M  V30 12445 H 1199.71 -0.662041 -0.109282 0
M  V30 12446 H 1202.25 -2.02067 0.314509 0
M  V30 12447 H 1200.41 -3.48564 -1.69061 0
M  V30 12448 H 1200.82 -5.2344 -0.333322 0
M  V30 12449 H 1202.3 -5.1291 -2.04027 0
M  V30 12450 H 1202.77 -3.53172 -2.61087 0
M  V30 12451 H 1203.38 -4.12226 -1.04641 0
M  V30 12452 N 1201.7 0.070167 -1.57444 0
M  V30 12453 C 1202.63 1.11509 -1.991 0
M  V30 12454 C 1203.61 1.37481 -0.868194 0
M  V30 12455 O 1204.79 1.50827 -1.13064 0
M  V30 12456 C 1201.92 2.45908 -2.3291 0
M  V30 12457 C 1200.96 2.36059 -3.55216 0
M  V30 12458 S 1201.8 1.75316 -5.05989 0
M  V30 12459 C 1202.95 3.11289 -5.43001 0
M  V30 12460 H 1203.19 0.760096 -2.87419 0
M  V30 12461 H 1200.72 0.278756 -1.51863 0
M  V30 12462 H 1202.68 3.23217 -2.53063 0
M  V30 12463 H 1201.34 2.78567 -1.45117 0
M  V30 12464 H 1200.53 3.35176 -3.76395 0
M  V30 12465 H 1200.13 1.66886 -3.34701 0
M  V30 12466 H 1202.42 4.07603 -5.41171 0
M  V30 12467 H 1203.37 2.94888 -6.43775 0
M  V30 12468 H 1203.78 3.11969 -4.70463 0
M  V30 12469 N 1203.17 1.53854 0.341593 0
M  V30 12470 C 1204.12 1.81979 1.41959 0
M  V30 12471 C 1205.09 0.665616 1.5218 0
M  V30 12472 O 1206.28 0.910246 1.67688 0
M  V30 12473 C 1203.42 2.03681 2.78583 0
M  V30 12474 C 1202.53 3.31389 2.77137 0
M  V30 12475 C 1201.66 3.43148 4.05491 0
M  V30 12476 C 1200.7 4.64799 3.98282 0
M  V30 12477 N 1199.84 4.73581 5.18329 0
M  V30 12478 H 1204.68 2.73953 1.17275 0
M  V30 12479 H 1202.22 1.35689 0.568062 0
M  V30 12480 H 1204.17 2.14253 3.57983 0
M  V30 12481 H 1202.8 1.15017 3.01614 0
M  V30 12482 H 1201.86 3.29649 1.89832 0
M  V30 12483 H 1203.17 4.20885 2.67689 0
M  V30 12484 H 1202.32 3.53163 4.93316 0
M  V30 12485 H 1201.06 2.51712 4.17723 0
M  V30 12486 H 1200.07 4.54859 3.08842 0
M  V30 12487 H 1201.29 5.57601 3.87631 0
M  V30 12488 H 1199.24 3.85055 5.31102 0
M  V30 12489 H 1199.15 5.57016 5.11145 0
M  V30 12490 H 1200.42 4.87908 6.0792 0
M  V30 12491 N 1204.65 -0.602709 1.4562 0
M  V30 12492 C 1205.9 -1.35889 1.49595 0
M  V30 12493 C 1206.22 -1.9449 0.141002 0
M  V30 12494 O 1205.49 -1.77438 -0.830209 0
M  V30 12495 H 1204.07 -0.504478 0.550918 0
M  V30 12496 H 1206.73 -0.707376 1.8161 0
M  V30 12497 H 1205.83 -2.17583 2.2375 0
M  V30 12498 N 1206.13 -1.32992 -0.845635 0
M  V30 12499 C 1207.41 -1.14671 -1.58461 0
M  V30 12500 C 1207.79 0.289498 -2.09106 0
M  V30 12501 O 1207.13 1.28751 -1.88773 0
M  V30 12502 C 1207.34 -2.18206 -2.72373 0
M  V30 12503 C 1208.69 -2.5201 -3.41726 0
M  V30 12504 O 1209.72 -2.16821 -2.82608 0
M  V30 12505 O 1208.58 -3.12368 -4.48429 0
M  V30 12506 H 1205.67 -0.443088 -0.698285 0
M  V30 12507 H 1208.22 -1.44552 -0.888978 0
M  V30 12508 H 1206.99 -3.14707 -2.32541 0
M  V30 12509 H 1206.61 -1.89372 -3.49605 0
M  V30 12510 N 1207.61 1.06304 -1.1635 0
M  V30 12511 C 1208.86 1.78747 -0.943074 0
M  V30 12512 C 1209.18 1.87646 0.530483 0
M  V30 12513 O 1208.45 1.38506 1.38538 0
M  V30 12514 H 1207.03 0.662072 -0.345932 0
M  V30 12515 H 1209.69 1.28413 -1.46615 0
M  V30 12516 H 1208.78 2.80828 -1.3617 0
M  V30 12517 N 1209.09 0.96196 1.24836 0
M  V30 12518 C 1210.05 0.492443 2.23847 0
M  V30 12519 C 1211.05 -0.40788 1.55541 0
M  V30 12520 O 1212.24 -0.204143 1.73 0
M  V30 12521 C 1209.37 -0.287578 3.39685 0
M  V30 12522 H 1210.56 1.36767 2.66899 0
M  V30 12523 H 1208.12 0.745967 1.3735 0
M  V30 12524 H 1208.85 -1.18015 3.02064 0
M  V30 12525 H 1208.64 0.358431 3.90458 0
M  V30 12526 H 1210.13 -0.605297 4.1319 0
M  V30 12527 N 1210.56 -1.39601 0.731392 0
M  V30 12528 C 1211.98 -1.54334 0.406594 0
M  V30 12529 C 1212.18 -1.69925 -1.08295 0
M  V30 12530 O 1211.24 -1.69771 -1.86906 0
M  V30 12531 C 1212.55 -2.76303 1.18647 0
M  V30 12532 C 1214.1 -2.90135 1.17433 0
M  V30 12533 C 1214.57 -4.15038 1.93669 0
M  V30 12534 N 1216.06 -4.2207 1.90817 0
M  V30 12535 C 1216.8 -5.17656 2.46616 0
M  V30 12536 N 1216.29 -6.19054 3.11037 0
M  V30 12537 N 1218.09 -5.09847 2.3667 0
M  V30 12538 H 1210.24 -1.27728 1.69703 0
M  V30 12539 H 1212.5 -0.6188 0.718186 0
M  V30 12540 H 1212.21 -2.71113 2.24032 0
M  V30 12541 H 1212.08 -3.68866 0.788514 0
M  V30 12542 H 1214.47 -2.9482 0.128615 0
M  V30 12543 H 1214.55 -1.98646 1.61163 0
M  V30 12544 H 1214.19 -4.11115 2.9824 0
M  V30 12545 H 1214.12 -5.05565 1.47349 0
M  V30 12546 H 1216.61 -3.49437 1.43882 0
M  V30 12547 H 1216.93 -6.88444 3.51091 0
M  V30 12548 H 1215.27 -6.19452 3.15126 0
M  V30 12549 H 1218.46 -4.29566 1.85987 0
M  V30 12550 H 1218.64 -5.84165 2.80455 0
M  V30 12551 N 1212.04 -0.478751 -1.50152 0
M  V30 12552 C 1213.27 0.0732929 -2.0727 0
M  V30 12553 C 1213.69 1.32066 -1.33941 0
M  V30 12554 O 1213.05 1.7707 -0.389367 0
M  V30 12555 C 1213.1 0.332528 -3.59064 0
M  V30 12556 O 1212.2 1.41158 -3.8749 0
M  V30 12557 H 1211.54 -0.0163684 -0.663798 0
M  V30 12558 H 1214.07 -0.671993 -1.9325 0
M  V30 12559 H 1214.08 0.570735 -4.03988 0
M  V30 12560 H 1212.76 -0.578934 -4.11851 0
M  V30 12561 H 1211.34 1.16008 -3.54396 0
M  V30 12562 N 1213.52 1.56172 -0.211661 0
M  V30 12563 C 1214.47 2.19849 0.702515 0
M  V30 12564 C 1215.44 1.15091 1.19763 0
M  V30 12565 O 1216.62 1.43408 1.25852 0
M  V30 12566 C 1213.76 2.87468 1.90935 0
M  V30 12567 C 1212.88 4.06794 1.45406 0
M  V30 12568 C 1212.01 4.62224 2.61769 0
M  V30 12569 C 1211.05 5.73872 2.12926 0
M  V30 12570 N 1210.19 6.23635 3.22526 0
M  V30 12571 H 1215.03 2.97608 0.152777 0
M  V30 12572 H 1212.56 1.46962 0.0636596 0
M  V30 12573 H 1214.52 3.24851 2.61777 0
M  V30 12574 H 1213.15 2.12244 2.43213 0
M  V30 12575 H 1212.2 3.74962 0.640907 0
M  V30 12576 H 1213.52 4.87497 1.05584 0
M  V30 12577 H 1212.67 5.01999 3.40709 0
M  V30 12578 H 1211.41 3.80662 3.04873 0
M  V30 12579 H 1210.41 5.33609 1.32445 0
M  V30 12580 H 1211.64 6.57262 1.70833 0
M  V30 12581 H 1209.58 5.44991 3.65131 0
M  V30 12582 H 1209.5 6.99435 2.86926 0
M  V30 12583 H 1210.77 6.68066 4.01631 0
M  V30 12584 N 1215 -0.0618163 1.57479 0
M  V30 12585 C 1216.41 -0.612461 1.76368 0
M  V30 12586 C 1216.76 -1.77381 0.838466 0
M  V30 12587 O 1215.89 -2.16386 0.0250211 0
M  V30 12588 C 1216.48 -1.11782 3.19829 0
M  V30 12589 C 1215.04 -1.61424 3.40028 0
M  V30 12590 C 1214.19 -0.53795 2.72032 0
M  V30 12591 H 1217.14 0.164382 1.57846 0
M  V30 12592 H 1217.16 -1.98634 3.24538 0
M  V30 12593 H 1216.67 -0.272353 3.87143 0
M  V30 12594 H 1214.77 -2.48263 2.77842 0
M  V30 12595 H 1214.88 -1.68431 4.48517 0
M  V30 12596 H 1213.25 -0.985355 2.34868 0
M  V30 12597 H 1214.03 0.297495 3.42009 0
M  V30 12598 N 1216.48 -1.54033 -0.333429 0
M  V30 12599 C 1217.42 -1.82729 -1.40992 0
M  V30 12600 C 1218.39 -0.673677 -1.51825 0
M  V30 12601 O 1219.58 -0.919126 -1.67203 0
M  V30 12602 C 1216.72 -2.05155 -2.77498 0
M  V30 12603 C 1215.83 -3.32854 -2.75376 0
M  V30 12604 C 1214.97 -3.45294 -4.03665 0
M  V30 12605 C 1214.01 -4.66905 -3.95811 0
M  V30 12606 N 1213.14 -4.76323 -5.1581 0
M  V30 12607 H 1217.98 -2.74572 -1.15821 0
M  V30 12608 H 1215.52 -1.35988 -0.560859 0
M  V30 12609 H 1217.48 -2.16148 -3.56841 0
M  V30 12610 H 1216.11 -1.16615 -3.01 0
M  V30 12611 H 1215.16 -3.30651 -1.88081 0
M  V30 12612 H 1216.47 -4.22299 -2.65453 0
M  V30 12613 H 1215.63 -3.55775 -4.91436 0
M  V30 12614 H 1214.36 -2.53924 -4.16382 0
M  V30 12615 H 1213.37 -4.56491 -3.06425 0
M  V30 12616 H 1214.59 -5.59649 -3.84668 0
M  V30 12617 H 1212.54 -3.87866 -5.29052 0
M  V30 12618 H 1212.46 -5.59719 -5.08184 0
M  V30 12619 H 1213.73 -4.91125 -6.05324 0
M  V30 12620 N 1217.95 0.594978 -1.45938 0
M  V30 12621 C 1219.2 1.35561 -1.50834 0
M  V30 12622 C 1219.53 1.93584 -0.154566 0
M  V30 12623 O 1218.81 1.75781 0.832541 0
M  V30 12624 C 1219.09 2.49414 -2.5974 0
M  V30 12625 C 1218.94 1.96506 -4.04605 0
M  V30 12626 C 1220.26 3.51505 -2.64825 0
M  V30 12627 H 1217.38 0.491549 -0.549134 0
M  V30 12628 H 1220.02 0.669536 -1.77812 0
M  V30 12629 H 1218.17 3.07939 -2.36866 0
M  V30 12630 H 1219.85 1.42533 -4.38728 0
M  V30 12631 H 1218.09 1.27418 -4.14665 0
M  V30 12632 H 1218.76 2.78636 -4.76515 0
M  V30 12633 H 1221.24 3.02841 -2.85353 0
M  V30 12634 H 1220.11 4.28641 -3.42867 0
M  V30 12635 H 1220.37 4.07942 -1.70399 0
M  V30 12636 N 1219.43 1.33438 0.838571 0
M  V30 12637 C 1220.68 1.25097 1.5962 0
M  V30 12638 C 1221.01 -0.182798 1.93338 0
M  V30 12639 O 1220.29 -1.1242 1.5872 0
M  V30 12640 C 1220.57 2.12655 2.90603 0
M  V30 12641 C 1220.42 3.64491 2.63565 0
M  V30 12642 C 1221.74 1.99994 3.92033 0
M  V30 12643 H 1218.86 0.455776 0.579169 0
M  V30 12644 H 1221.5 1.63542 0.967169 0
M  V30 12645 H 1219.65 1.79998 3.44286 0
M  V30 12646 H 1221.32 4.0744 2.16312 0
M  V30 12647 H 1219.57 3.86356 1.9726 0
M  V30 12648 H 1220.24 4.21101 3.569 0
M  V30 12649 H 1222.71 2.28635 3.47657 0
M  V30 12650 H 1221.59 2.63509 4.81512 0
M  V30 12651 H 1221.85 0.972263 4.31277 0
M  V30 12652 N 1220.91 -1.05686 1.16912 0
M  V30 12653 C 1222.16 -1.78862 0.955839 0
M  V30 12654 C 1222.49 -1.87257 -0.514645 0
M  V30 12655 O 1221.76 -1.36869 -1.38193 0
M  V30 12656 C 1222.05 -3.23021 1.59152 0
M  V30 12657 C 1221.9 -3.22669 3.13376 0
M  V30 12658 C 1223.22 -4.2073 1.29128 0
M  V30 12659 H 1220.34 -0.64931 0.348663 0
M  V30 12660 H 1222.98 -1.23561 1.44335 0
M  V30 12661 H 1221.13 -3.70243 1.17697 0
M  V30 12662 H 1222.8 -2.83562 3.63855 0
M  V30 12663 H 1221.05 -2.61149 3.46386 0
M  V30 12664 H 1221.72 -4.24394 3.52979 0
M  V30 12665 H 1224.19 -3.8198 1.65017 0
M  V30 12666 H 1223.07 -5.19851 1.76198 0
M  V30 12667 H 1223.33 -4.41595 0.21119 0
M  V30 12668 N 1222.39 -0.968567 -1.24324 0
M  V30 12669 C 1223.62 -0.648568 -1.96472 0
M  V30 12670 C 1224.03 0.782168 -1.71836 0
M  V30 12671 O 1223.39 1.5249 -1.00265 0
M  V30 12672 C 1223.44 -0.91482 -3.49733 0
M  V30 12673 O 1223.16 -2.28931 -3.73527 0
M  V30 12674 C 1224.66 -0.609131 -4.39095 0
M  V30 12675 H 1221.88 -0.241921 -0.625872 0
M  V30 12676 H 1224.43 -1.29673 -1.5813 0
M  V30 12677 H 1222.58 -0.31285 -3.86135 0
M  V30 12678 H 1222.99 -2.36998 -4.67902 0
M  V30 12679 H 1224.47 -0.845875 -5.4548 0
M  V30 12680 H 1224.95 0.456625 -4.3682 0
M  V30 12681 H 1225.55 -1.19105 -4.08282 0
M  V30 12682 N 1223.87 1.39211 -0.738786 0
M  V30 12683 C 1224.81 2.30578 -0.10129 0
M  V30 12684 C 1225.78 1.49412 0.725616 0
M  V30 12685 O 1226.97 1.78087 0.684799 0
M  V30 12686 C 1224.11 3.35767 0.797161 0
M  V30 12687 C 1223.22 4.31979 -0.0427701 0
M  V30 12688 C 1222.36 5.24236 0.857306 0
M  V30 12689 C 1221.4 6.12099 0.0128501 0
M  V30 12690 N 1220.53 6.96701 0.869067 0
M  V30 12691 H 1225.37 2.84522 -0.88606 0
M  V30 12692 H 1222.91 1.40093 -0.448602 0
M  V30 12693 H 1224.87 3.95347 1.33255 0
M  V30 12694 H 1223.5 2.83268 1.54787 0
M  V30 12695 H 1222.55 3.73986 -0.695622 0
M  V30 12696 H 1223.86 4.93927 -0.69555 0
M  V30 12697 H 1223.02 5.88861 1.4604 0
M  V30 12698 H 1221.75 4.62619 1.54386 0
M  V30 12699 H 1220.76 5.46483 -0.603018 0
M  V30 12700 H 1221.98 6.75781 -0.67054 0
M  V30 12701 H 1219.93 6.37647 1.54084 0
M  V30 12702 H 1219.85 7.55507 0.272852 0
M  V30 12703 H 1221.12 7.65751 1.4576 0
M  V30 12704 N 1225.34 0.486708 1.49896 0
M  V30 12705 C 1226.59 -0.0627279 2.02003 0
M  V30 12706 C 1226.91 -1.38799 1.36967 0
M  V30 12707 O 1226.18 -1.88868 0.520173 0
M  V30 12708 H 1224.76 -0.0261718 0.746541 0
M  V30 12709 H 1227.43 0.640692 1.84068 0
M  V30 12710 H 1226.52 -0.202856 3.1144 0
M  V30 12711 N 1226.82 -1.56058 0.219941 0
M  V30 12712 C 1227.79 -2.18964 -0.677303 0
M  V30 12713 C 1228.79 -1.15105 -1.12283 0
M  V30 12714 O 1229.98 -1.40348 -1.03189 0
M  V30 12715 C 1227.11 -2.81167 -1.92764 0
M  V30 12716 H 1228.3 -2.99623 -0.128877 0
M  V30 12717 H 1225.85 -1.56272 -0.0296744 0
M  V30 12718 H 1226.59 -2.04374 -2.51797 0
M  V30 12719 H 1226.37 -3.5722 -1.61666 0
M  V30 12720 H 1227.86 -3.29391 -2.56693 0
M  V30 12721 N 1228.3 0.053464 -1.57509 0
M  V30 12722 C 1229.55 0.750212 -1.88414 0
M  V30 12723 C 1229.88 1.76288 -0.814619 0
M  V30 12724 O 1229.16 1.93728 0.173136 0
M  V30 12725 C 1229.44 1.44176 -3.29978 0
M  V30 12726 C 1229.29 0.444263 -4.47601 0
M  V30 12727 C 1230.61 2.38207 -3.70061 0
M  V30 12728 H 1227.73 0.271266 -0.685262 0
M  V30 12729 H 1230.37 0.0131676 -1.89995 0
M  V30 12730 H 1228.52 2.07001 -3.2876 0
M  V30 12731 H 1230.19 -0.180182 -4.60948 0
M  V30 12732 H 1228.44 -0.238771 -4.33142 0
M  V30 12733 H 1229.11 0.966134 -5.43479 0
M  V30 12734 H 1231.58 1.85446 -3.7249 0
M  V30 12735 H 1230.46 2.83588 -4.69967 0
M  V30 12736 H 1230.72 3.23821 -3.00985 0
M  V30 12737 N 1229.78 1.54207 0.325255 0
M  V30 12738 C 1230.71 1.86467 1.40543 0
M  V30 12739 C 1231.69 0.721324 1.54048 0
M  V30 12740 O 1232.88 0.974905 1.67956 0
M  V30 12741 C 1230.01 2.09052 2.77335 0
M  V30 12742 C 1228.96 3.24893 2.78619 0
M  V30 12743 C 1228.29 3.32846 4.1847 0
M  V30 12744 C 1229.59 4.62582 2.42518 0
M  V30 12745 H 1231.28 2.76932 1.13794 0
M  V30 12746 H 1228.83 1.33248 0.545971 0
M  V30 12747 H 1230.78 2.30204 3.52964 0
M  V30 12748 H 1229.5 1.15335 3.05558 0
M  V30 12749 H 1228.16 3.03625 2.05444 0
M  V30 12750 H 1227.81 2.3669 4.43832 0
M  V30 12751 H 1227.51 4.10701 4.20237 0
M  V30 12752 H 1229.03 3.56231 4.95915 0
M  V30 12753 H 1230.45 4.83627 3.07861 0
M  V30 12754 H 1228.84 5.42974 2.55538 0
M  V30 12755 H 1229.91 4.64946 1.3767 0
M  V30 12756 N 1231.26 -0.58723 1.46251 0
M  V30 12757 C 1232.51 -1.34294 1.51028 0
M  V30 12758 C 1232.83 -1.94329 0.161623 0
M  V30 12759 O 1232.1 -1.78309 -0.811342 0
M  V30 12760 H 1230.68 -0.498607 0.556238 0
M  V30 12761 H 1233.34 -0.688074 1.8235 0
M  V30 12762 H 1232.43 -2.15197 2.26045 0
M  V30 12763 N 1232.74 -1.33881 -0.831482 0
M  V30 12764 C 1234.15 -1.13376 -1.1233 0
M  V30 12765 C 1234.35 0.0704402 -2.01377 0
M  V30 12766 O 1233.41 0.748516 -2.4115 0
M  V30 12767 C 1234.72 -2.42484 -1.77826 0
M  V30 12768 C 1236.27 -2.4846 -1.90359 0
M  V30 12769 C 1236.74 -3.77548 -2.59272 0
M  V30 12770 N 1238.23 -3.7866 -2.66778 0
M  V30 12771 C 1238.97 -4.75258 -3.20807 0
M  V30 12772 N 1238.47 -5.82234 -3.75466 0
M  V30 12773 N 1240.26 -4.62724 -3.19128 0
M  V30 12774 H 1232.41 -2.11051 -0.238998 0
M  V30 12775 H 1234.67 -0.932893 -0.168565 0
M  V30 12776 H 1234.38 -3.30647 -1.19857 0
M  V30 12777 H 1234.25 -2.55186 -2.77777 0
M  V30 12778 H 1236.64 -1.60742 -2.47479 0
M  V30 12779 H 1236.72 -2.39693 -0.893359 0
M  V30 12780 H 1236.36 -4.65651 -2.02808 0
M  V30 12781 H 1236.29 -3.83594 -3.60781 0
M  V30 12782 H 1238.79 -3.01351 -2.28026 0
M  V30 12783 H 1239.1 -6.51968 -4.14918 0
M  V30 12784 H 1237.44 -5.85959 -3.73733 0
M  V30 12785 H 1240.63 -3.78303 -2.75688 0
M  V30 12786 H 1240.81 -5.38175 -3.60932 0
M  V30 12787 N 1234.21 1.05064 -1.1747 0
M  V30 12788 C 1235.62 1.59547 -0.969628 0
M  V30 12789 C 1235.98 1.90153 0.483332 0
M  V30 12790 O 1235.1 1.68415 1.35887 0
M  V30 12791 C 1235.7 2.89877 -1.75377 0
M  V30 12792 C 1234.25 3.41013 -1.59332 0
M  V30 12793 C 1233.4 2.1473 -1.7546 0
M  V30 12794 H 1236.35 0.878595 -1.3216 0
M  V30 12795 H 1236.37 3.59834 -1.23691 0
M  V30 12796 H 1235.89 2.67569 -2.8112 0
M  V30 12797 H 1233.99 3.68355 -0.560827 0
M  V30 12798 H 1234.1 4.15512 -2.38509 0
M  V30 12799 H 1232.46 2.25553 -1.18313 0
M  V30 12800 H 1233.25 1.9489 -2.82618 0
M  V30 12801 N 1235.69 0.975146 1.23809 0
M  V30 12802 C 1236.92 0.658978 1.96125 0
M  V30 12803 C 1237.33 -0.773044 1.72248 0
M  V30 12804 O 1236.69 -1.51956 1.01072 0
M  V30 12805 C 1236.74 0.933355 3.49243 0
M  V30 12806 O 1236.46 2.30909 3.72307 0
M  V30 12807 C 1237.96 0.632408 4.38766 0
M  V30 12808 H 1235.18 0.245237 0.62458 0
M  V30 12809 H 1237.73 1.3051 1.5744 0
M  V30 12810 H 1235.88 0.333323 3.85963 0
M  V30 12811 H 1236.3 2.39476 4.66638 0
M  V30 12812 H 1237.77 0.874791 5.45024 0
M  V30 12813 H 1238.25 -0.433453 4.37056 0
M  V30 12814 H 1238.85 1.21268 4.07645 0
M  V30 12815 N 1237.17 -1.38817 0.746158 0
M  V30 12816 C 1238.1 -2.33144 0.128836 0
M  V30 12817 C 1239.08 -1.54487 -0.711873 0
M  V30 12818 O 1240.27 -1.82836 -0.654577 0
M  V30 12819 C 1237.4 -3.38639 -0.770772 0
M  V30 12820 C 1236.35 -4.27987 -0.0333669 0
M  V30 12821 C 1235.68 -5.24274 -1.05073 0
M  V30 12822 C 1236.98 -5.09915 1.13066 0
M  V30 12823 H 1238.67 -2.85019 0.916778 0
M  V30 12824 H 1236.22 -1.37039 0.442306 0
M  V30 12825 H 1238.17 -4.03587 -1.21225 0
M  V30 12826 H 1236.89 -2.8523 -1.59095 0
M  V30 12827 H 1235.55 -3.64534 0.388612 0
M  V30 12828 H 1235.2 -4.67156 -1.86478 0
M  V30 12829 H 1234.9 -5.84906 -0.562037 0
M  V30 12830 H 1236.42 -5.92099 -1.49169 0
M  V30 12831 H 1237.84 -5.68145 0.767084 0
M  V30 12832 H 1236.23 -5.79744 1.54972 0
M  V30 12833 H 1237.3 -4.4409 1.94709 0
M  V30 12834 N 1238.65 -0.49465 -1.49636 0
M  V30 12835 C 1239.87 0.051305 -2.07337 0
M  V30 12836 C 1240.3 1.30637 -1.35335 0
M  V30 12837 O 1239.66 1.76647 -0.408126 0
M  V30 12838 C 1239.7 0.294425 -3.59396 0
M  V30 12839 O 1238.81 1.3704 -3.88965 0
M  V30 12840 H 1238.15 -0.023408 -0.663587 0
M  V30 12841 H 1240.68 -0.692451 -1.92526 0
M  V30 12842 H 1240.69 0.527854 -4.04571 0
M  V30 12843 H 1239.36 -0.622583 -4.11214 0
M  V30 12844 H 1237.94 1.12242 -3.55607 0
M  V30 12845 N 1240.13 1.55939 -0.228214 0
M  V30 12846 C 1241.37 1.9877 0.402272 0
M  V30 12847 C 1241.7 1.11587 1.5894 0
M  V30 12848 O 1240.98 0.175032 1.93711 0
M  V30 12849 C 1241.26 3.50396 0.830353 0
M  V30 12850 C 1241.12 4.4835 -0.360876 0
M  V30 12851 C 1242.43 4.06602 1.68413 0
M  V30 12852 H 1239.55 0.722646 0.144746 0
M  V30 12853 H 1242.2 1.87186 -0.325784 0
M  V30 12854 H 1240.35 3.60398 1.4507 0
M  V30 12855 H 1242.02 4.5035 -0.999113 0
M  V30 12856 H 1240.26 4.21946 -1.00719 0
M  V30 12857 H 1240.93 5.51997 -0.0183074 0
M  V30 12858 H 1243.41 3.99585 1.16064 0
M  V30 12859 H 1242.28 5.12998 1.95254 0
M  V30 12860 H 1242.54 3.53897 2.64971 0
M  V30 12861 N 1241.6 -0.0451101 1.57535 0
M  V30 12862 C 1242.54 -1.07792 2.02271 0
M  V30 12863 C 1243.55 -1.33423 0.932854 0
M  V30 12864 O 1244.74 -1.31193 1.2104 0
M  V30 12865 C 1241.84 -2.42314 2.36933 0
M  V30 12866 C 1241.01 -2.36266 3.68099 0
M  V30 12867 C 1240.07 -3.53108 3.9013 0
M  V30 12868 O 1239.1 -3.33327 4.61391 0
M  V30 12869 N 1240.3 -4.74415 3.3453 0
M  V30 12870 H 1243.06 -0.696744 2.91489 0
M  V30 12871 H 1240.62 -0.233336 1.6021 0
M  V30 12872 H 1242.62 -3.19171 2.48821 0
M  V30 12873 H 1241.19 -2.72335 1.53468 0
M  V30 12874 H 1240.41 -1.44615 3.66715 0
M  V30 12875 H 1241.69 -2.29351 4.54175 0
M  V30 12876 H 1241.09 -4.93388 2.76739 0
M  V30 12877 H 1239.65 -5.48692 3.51825 0
M  V30 12878 N 1243.08 -1.54377 -0.317073 0
M  V30 12879 C 1244.01 -1.80563 -1.41172 0
M  V30 12880 C 1245.03 -0.687865 -1.47554 0
M  V30 12881 O 1246.22 -0.965084 -1.50161 0
M  V30 12882 C 1243.32 -1.9142 -2.79663 0
M  V30 12883 C 1242.49 -3.21655 -2.96407 0
M  V30 12884 C 1241.55 -3.23131 -4.15298 0
M  V30 12885 O 1240.57 -3.96741 -4.08149 0
M  V30 12886 N 1241.78 -2.47376 -5.25153 0
M  V30 12887 H 1244.54 -2.75032 -1.1907 0
M  V30 12888 H 1242.1 -1.53754 -0.507086 0
M  V30 12889 H 1244.09 -1.89828 -3.57418 0
M  V30 12890 H 1242.66 -1.0402 -2.94786 0
M  V30 12891 H 1241.88 -3.36154 -2.05899 0
M  V30 12892 H 1243.17 -4.07629 -3.04494 0
M  V30 12893 H 1242.57 -1.87173 -5.33838 0
M  V30 12894 H 1241.13 -2.51555 -6.01301 0
M  V30 12895 N 1244.56 0.579466 -1.4656 0
M  V30 12896 C 1245.79 1.36351 -1.55615 0
M  V30 12897 C 1246.2 1.87755 -0.198405 0
M  V30 12898 O 1245.56 1.63795 0.804834 0
M  V30 12899 C 1245.61 2.54881 -2.56355 0
M  V30 12900 O 1245.33 2.05607 -3.86856 0
M  V30 12901 C 1246.83 3.47391 -2.75381 0
M  V30 12902 H 1244.05 0.416426 -0.526147 0
M  V30 12903 H 1246.6 0.704134 -1.91995 0
M  V30 12904 H 1244.75 3.16802 -2.2297 0
M  V30 12905 H 1245.17 2.82823 -4.41714 0
M  V30 12906 H 1246.64 4.27031 -3.49783 0
M  V30 12907 H 1247.12 3.99532 -1.82403 0
M  V30 12908 H 1247.72 2.91303 -3.09875 0
M  V30 12909 N 1246.04 1.3432 0.824371 0
M  V30 12910 C 1247.45 1.23855 1.39703 0
M  V30 12911 C 1247.8 -0.136566 1.95724 0
M  V30 12912 O 1246.93 -1.03683 1.89944 0
M  V30 12913 C 1247.52 2.24249 2.53965 0
M  V30 12914 C 1246.08 2.17578 3.07143 0
M  V30 12915 C 1245.23 2.10933 1.80008 0
M  V30 12916 H 1248.18 1.45707 0.628891 0
M  V30 12917 H 1248.2 1.85864 3.32016 0
M  V30 12918 H 1247.71 3.24321 2.13161 0
M  V30 12919 H 1245.81 1.20858 3.52455 0
M  V30 12920 H 1245.92 3.08769 3.66331 0
M  V30 12921 H 1244.29 1.56631 2.00845 0
M  V30 12922 H 1245.07 3.12836 1.4138 0
M  V30 12923 N 1247.52 -1.0444 1.18026 0
M  V30 12924 C 1248.43 -2.15862 0.918747 0
M  V30 12925 C 1249.44 -1.73614 -0.115808 0
M  V30 12926 O 1250.62 -2.01294 0.0652312 0
M  V30 12927 C 1247.68 -3.43846 0.443922 0
M  V30 12928 C 1246.74 -4.00497 1.54599 0
M  V30 12929 C 1245.98 -5.22373 1.09372 0
M  V30 12930 O 1246.2 -5.70379 -0.049085 0
M  V30 12931 O 1245.13 -5.71459 1.88992 0
M  V30 12932 H 1248.96 -2.40776 1.85097 0
M  V30 12933 H 1246.55 -1.14326 0.961769 0
M  V30 12934 H 1248.43 -4.20985 0.187017 0
M  V30 12935 H 1247.1 -3.20414 -0.460051 0
M  V30 12936 H 1246.01 -3.24764 1.85686 0
M  V30 12937 H 1247.34 -4.28262 2.42595 0
M  V30 12938 N 1248.99 -0.981699 -1.2329 0
M  V30 12939 C 1250.24 -0.650015 -1.91361 0
M  V30 12940 C 1250.56 0.819184 -1.76959 0
M  V30 12941 O 1249.83 1.5861 -1.14977 0
M  V30 12942 H 1248.41 -0.237427 -0.708264 0
M  V30 12943 H 1251.08 -1.24579 -1.49887 0
M  V30 12944 H 1250.17 -0.902772 -2.98758 0
M  V30 12945 N 1250.47 1.3842 -0.753509 0
M  V30 12946 C 1251.7 2.04929 -0.319174 0
M  V30 12947 C 1252.12 1.56457 1.04416 0
M  V30 12948 O 1251.48 0.716527 1.6654 0
M  V30 12949 C 1251.53 3.58887 -0.351054 0
M  V30 12950 O 1250.63 4.07166 0.654963 0
M  V30 12951 H 1249.97 0.648782 -0.141343 0
M  V30 12952 H 1252.5 1.77096 -1.02461 0
M  V30 12953 H 1252.51 4.075 -0.201907 0
M  V30 12954 H 1251.19 3.93525 -1.34576 0
M  V30 12955 H 1249.77 3.69921 0.470435 0
M  V30 12956 N 1251.95 0.502579 1.49372 0
M  V30 12957 C 1252.88 -0.264307 2.31999 0
M  V30 12958 C 1253.86 -0.96107 1.40348 0
M  V30 12959 O 1255.05 -0.952167 1.69255 0
M  V30 12960 C 1252.18 -1.32822 3.20898 0
M  V30 12961 C 1251.13 -0.751236 4.21355 0
M  V30 12962 C 1250.46 -1.91578 4.99201 0
M  V30 12963 C 1251.76 0.258764 5.21659 0
M  V30 12964 H 1253.45 0.425391 2.96363 0
M  V30 12965 H 1251 0.206022 1.42519 0
M  V30 12966 H 1252.95 -1.87245 3.77515 0
M  V30 12967 H 1251.67 -2.04712 2.54481 0
M  V30 12968 H 1250.33 -0.228743 3.65886 0
M  V30 12969 H 1249.98 -2.62241 4.2923 0
M  V30 12970 H 1249.68 -1.53578 5.67175 0
M  V30 12971 H 1251.2 -2.46432 5.58663 0
M  V30 12972 H 1252.62 -0.197385 5.7296 0
M  V30 12973 H 1251.02 0.554681 5.97531 0
M  V30 12974 H 1252.09 1.1741 4.70471 0
M  V30 12975 N 1253.43 -1.55816 0.23648 0
M  V30 12976 C 1254.36 -2.23924 -0.661834 0
M  V30 12977 C 1255.34 -1.21597 -1.18946 0
M  V30 12978 O 1256.52 -1.50222 -1.23073 0
M  V30 12979 C 1253.65 -2.93069 -1.86355 0
M  V30 12980 C 1252.61 -4.01996 -1.46913 0
M  V30 12981 C 1251.93 -4.58512 -2.75083 0
M  V30 12982 C 1253.23 -5.18265 -0.647964 0
M  V30 12983 H 1254.93 -2.99253 -0.0939368 0
M  V30 12984 H 1252.47 -1.43934 -0.0437407 0
M  V30 12985 H 1254.43 -3.39412 -2.49755 0
M  V30 12986 H 1253.15 -2.15212 -2.45665 0
M  V30 12987 H 1251.81 -3.56406 -0.858522 0
M  V30 12988 H 1251.46 -3.77368 -3.3257 0
M  V30 12989 H 1251.16 -5.32037 -2.49421 0
M  V30 12990 H 1252.68 -5.07583 -3.39399 0
M  V30 12991 H 1254.1 -5.60898 -1.18602 0
M  V30 12992 H 1252.49 -5.98114 -0.487823 0
M  V30 12993 H 1253.56 -4.83691 0.342151 0
M  V30 12994 N 1254.91 0.036755 -1.57557 0
M  V30 12995 C 1255.87 1.02435 -2.05036 0
M  V30 12996 C 1256.87 1.29506 -0.953146 0
M  V30 12997 O 1258.06 1.24638 -1.217 0
M  V30 12998 C 1255.19 2.3592 -2.46079 0
M  V30 12999 H 1256.38 0.614384 -2.93539 0
M  V30 13000 H 1253.94 0.283396 -1.53709 0
M  V30 13001 H 1254.67 2.8168 -1.60708 0
M  V30 13002 H 1254.46 2.17603 -3.26177 0
M  V30 13003 H 1255.95 3.06839 -2.83266 0
M  V30 13004 N 1256.39 1.54543 0.308881 0
M  V30 13005 C 1257.8 1.45581 0.654088 0
M  V30 13006 C 1258 0.640597 1.91046 0
M  V30 13007 O 1257.06 0.14518 2.52082 0
M  V30 13008 C 1258.37 2.89461 0.814422 0
M  V30 13009 C 1259.92 2.99455 0.910817 0
M  V30 13010 C 1260.39 4.44515 1.10321 0
M  V30 13011 N 1261.88 4.4819 1.1696 0
M  V30 13012 C 1262.62 5.57604 1.33661 0
M  V30 13013 N 1262.12 6.76957 1.47311 0
M  V30 13014 N 1263.91 5.45278 1.36487 0
M  V30 13015 H 1256.06 2.06019 -0.516699 0
M  V30 13016 H 1258.32 0.932729 -0.169471 0
M  V30 13017 H 1258.03 3.5168 -0.0377455 0
M  V30 13018 H 1257.9 3.36425 1.70582 0
M  V30 13019 H 1260.29 2.37355 1.75348 0
M  V30 13020 H 1260.37 2.558 -0.00443172 0
M  V30 13021 H 1260.01 5.07206 0.265346 0
M  V30 13022 H 1259.94 4.85793 2.03256 0
M  V30 13023 H 1262.44 3.62199 1.07796 0
M  V30 13024 H 1262.75 7.561 1.59788 0
M  V30 13025 H 1261.09 6.79837 1.44382 0
M  V30 13026 H 1264.28 4.50983 1.25429 0
M  V30 13027 H 1264.46 6.30599 1.4916 0
M  V30 13028 N 1257.86 -0.571685 1.46866 0
M  V30 13029 C 1259.11 -1.32924 1.53957 0
M  V30 13030 C 1259.46 -1.91428 0.1932 0
M  V30 13031 O 1258.76 -1.74125 -0.799447 0
M  V30 13032 C 1258.95 -2.47051 2.58264 0
M  V30 13033 C 1258.78 -1.99729 4.02913 0
M  V30 13034 C 1257.55 -1.84236 4.70516 0
M  V30 13035 C 1259.75 -1.55035 4.90376 0
M  V30 13036 N 1257.73 -1.31101 5.99738 0
M  V30 13037 C 1259.1 -1.13566 6.0951 0
M  V30 13038 C 1261.16 -1.42953 4.76937 0
M  V30 13039 C 1259.86 -0.612183 7.1669 0
M  V30 13040 C 1261.89 -0.92008 5.84199 0
M  V30 13041 C 1261.25 -0.515239 7.02513 0
M  V30 13042 H 1257.35 -0.47897 0.618152 0
M  V30 13043 H 1259.93 -0.649687 1.83541 0
M  V30 13044 H 1258.1 -3.12555 2.30573 0
M  V30 13045 H 1259.83 -3.14025 2.55285 0
M  V30 13046 H 1256.59 -2.06516 4.26202 0
M  V30 13047 H 1257.01 -1.06663 6.68545 0
M  V30 13048 H 1261.65 -1.72869 3.85845 0
M  V30 13049 H 1259.37 -0.300634 8.07541 0
M  V30 13050 H 1262.96 -0.830357 5.75844 0
M  V30 13051 H 1261.84 -0.127122 7.84097 0
M  V30 13052 N 1259.34 -1.34755 -0.817236 0
M  V30 13053 C 1260.25 -1.28888 -1.96023 0
M  V30 13054 C 1261.27 -0.195582 -1.72897 0
M  V30 13055 O 1262.44 -0.423071 -1.96906 0
M  V30 13056 C 1259.51 -1.04985 -3.30423 0
M  V30 13057 C 1258.57 -2.23526 -3.66517 0
M  V30 13058 C 1257.8 -2.00753 -4.94504 0
M  V30 13059 O 1258.03 -0.968622 -5.62116 0
M  V30 13060 O 1256.96 -2.87848 -5.28608 0
M  V30 13061 H 1260.79 -2.25059 -2.03917 0
M  V30 13062 H 1258.37 -1.15019 -0.953467 0
M  V30 13063 H 1260.25 -0.934589 -4.10906 0
M  V30 13064 H 1258.93 -0.118582 -3.23483 0
M  V30 13065 H 1257.83 -2.40613 -2.86455 0
M  V30 13066 H 1259.17 -3.15062 -3.78149 0
M  V30 13067 N 1260.82 1.03812 -1.18578 0
M  V30 13068 C 1262.23 1.58509 -0.986496 0
M  V30 13069 C 1262.58 1.90655 0.463136 0
M  V30 13070 O 1261.71 1.69847 1.34093 0
M  V30 13071 C 1262.3 2.88 -1.78441 0
M  V30 13072 C 1260.86 3.39304 -1.6294 0
M  V30 13073 C 1260.01 2.12857 -1.77727 0
M  V30 13074 H 1262.96 0.864528 -1.33085 0
M  V30 13075 H 1262.98 3.58502 -1.27501 0
M  V30 13076 H 1262.49 2.64572 -2.83942 0
M  V30 13077 H 1260.59 3.6774 -0.599864 0
M  V30 13078 H 1260.71 4.12959 -2.42902 0
M  V30 13079 H 1259.07 2.24285 -1.20699 0
M  V30 13080 H 1259.85 1.91882 -2.84669 0
M  V30 13081 N 1262.3 0.988223 1.22768 0
M  V30 13082 C 1263.71 0.697281 1.7319 0
M  V30 13083 C 1264.06 -0.786111 1.79763 0
M  V30 13084 O 1263.18 -1.61465 1.44077 0
M  V30 13085 C 1263.78 1.25905 3.14537 0
M  V30 13086 C 1262.34 1.01759 3.62384 0
M  V30 13087 C 1261.49 1.38207 2.40404 0
M  V30 13088 H 1264.44 1.16114 1.08181 0
M  V30 13089 H 1264.46 0.635315 3.75159 0
M  V30 13090 H 1263.97 2.33869 3.09721 0
M  V30 13091 H 1262.07 -0.045627 3.72572 0
M  V30 13092 H 1262.18 1.67767 4.48766 0
M  V30 13093 H 1260.55 0.800607 2.4179 0
M  V30 13094 H 1261.33 2.47165 2.38253 0
M  V30 13095 N 1263.78 -1.38018 0.760839 0
M  V30 13096 C 1264.74 -2.28734 0.146154 0
M  V30 13097 C 1265.74 -1.47525 -0.639768 0
M  V30 13098 O 1266.93 -1.6788 -0.464964 0
M  V30 13099 C 1264.06 -3.31356 -0.801019 0
M  V30 13100 H 1265.25 -2.84599 0.945692 0
M  V30 13101 H 1262.81 -1.471 0.528323 0
M  V30 13102 H 1263.54 -2.80594 -1.62597 0
M  V30 13103 H 1263.33 -3.91366 -0.239775 0
M  V30 13104 H 1264.82 -3.99171 -1.22687 0
M  V30 13105 N 1265.25 -0.510493 -1.49103 0
M  V30 13106 C 1266.5 0.0305831 -2.02077 0
M  V30 13107 C 1266.82 1.36602 -1.39157 0
M  V30 13108 O 1266.09 1.88016 -0.550154 0
M  V30 13109 H 1264.67 0.0142916 -0.746863 0
M  V30 13110 H 1267.33 -0.669895 -1.83026 0
M  V30 13111 H 1266.43 0.153283 -3.11723 0
M  V30 13112 N 1266.73 1.55688 -0.24474 0
M  V30 13113 C 1267.96 2.0329 0.384808 0
M  V30 13114 C 1268.37 1.12405 1.51692 0
M  V30 13115 O 1267.73 0.138056 1.81977 0
M  V30 13116 C 1267.78 3.50255 0.894635 0
M  V30 13117 O 1267.5 4.37677 -0.192365 0
M  V30 13118 C 1269 4.13608 1.59509 0
M  V30 13119 H 1266.22 0.664706 0.0916908 0
M  V30 13120 H 1268.77 2.01162 -0.367973 0
M  V30 13121 H 1266.92 3.52924 1.5976 0
M  V30 13122 H 1267.34 5.2414 0.194424 0
M  V30 13123 H 1268.81 5.1814 1.90356 0
M  V30 13124 H 1269.29 3.5997 2.51631 0
M  V30 13125 H 1269.89 4.14856 0.936749 0
M  V30 13126 N 1268.21 -0.0283989 1.57574 0
M  V30 13127 C 1269.17 -1.01346 2.05576 0
M  V30 13128 C 1270.17 -1.28999 0.960001 0
M  V30 13129 O 1271.36 -1.23991 1.2236 0
M  V30 13130 C 1268.49 -2.34611 2.47327 0
M  V30 13131 H 1269.69 -0.598809 2.93861 0
M  V30 13132 H 1267.24 -0.27524 1.53857 0
M  V30 13133 H 1267.98 -2.80823 1.622 0
M  V30 13134 H 1267.76 -2.1587 3.27326 0
M  V30 13135 H 1269.25 -3.05332 2.84889 0
M  V30 13136 N 1269.69 -1.54705 -0.300681 0
M  V30 13137 C 1270.6 -1.88736 -1.39341 0
M  V30 13138 C 1271.61 -0.78155 -1.5546 0
M  V30 13139 O 1272.79 -1.07804 -1.70118 0
M  V30 13140 C 1269.85 -2.12795 -2.73713 0
M  V30 13141 C 1268.92 -3.36504 -2.66577 0
M  V30 13142 C 1268.15 -3.59407 -3.94541 0
M  V30 13143 O 1268.37 -2.85315 -4.93914 0
M  V30 13144 O 1267.31 -4.52923 -3.96415 0
M  V30 13145 H 1271.13 -2.817 -1.13484 0
M  V30 13146 H 1268.72 -1.40899 -0.496771 0
M  V30 13147 H 1270.6 -2.29819 -3.53215 0
M  V30 13148 H 1269.27 -1.23017 -2.99414 0
M  V30 13149 H 1268.18 -3.24844 -1.85546 0
M  V30 13150 H 1269.51 -4.26414 -2.45829 0
M  V30 13151 N 1271.17 0.563888 -1.47167 0
M  V30 13152 C 1272.44 1.32454 -1.43928 0
M  V30 13153 C 1272.82 2.10683 -0.13267 0
M  V30 13154 O 1272.17 2.1063 0.885845 0
M  V30 13155 C 1272.38 2.2347 -2.68071 0
M  V30 13156 C 1273.73 2.84702 -3.15008 0
M  V30 13157 O 1274.75 2.33775 -2.68752 0
M  V30 13158 O 1273.61 3.77251 -3.95404 0
M  V30 13159 H 1270.71 0.596074 -0.573258 0
M  V30 13160 H 1273.25 0.583345 -1.59359 0
M  V30 13161 H 1272.02 1.6522 -3.54708 0
M  V30 13162 H 1271.65 3.04897 -2.55193 0
M  V30 13163 N 1272.64 1.35187 0.810078 0
M  V30 13164 C 1273.58 1.23673 1.92971 0
M  V30 13165 C 1274.59 0.160819 1.62004 0
M  V30 13166 O 1275.78 0.413793 1.73638 0
M  V30 13167 C 1272.88 0.880887 3.27252 0
M  V30 13168 C 1272.05 2.05444 3.86149 0
M  V30 13169 C 1271.11 1.67494 4.98831 0
M  V30 13170 O 1270.14 2.39322 5.16443 0
M  V30 13171 N 1271.34 0.596539 5.77427 0
M  V30 13172 H 1274.1 2.20133 2.03376 0
M  V30 13173 H 1271.66 1.2831 0.987322 0
M  V30 13174 H 1273.66 0.608556 4.00098 0
M  V30 13175 H 1272.23 0.00607926 3.12599 0
M  V30 13176 H 1271.45 2.49077 3.05539 0
M  V30 13177 H 1272.73 2.83898 4.22231 0
M  V30 13178 H 1272.13 -0.000312591 5.657 0
M  V30 13179 H 1270.69 0.383979 6.50668 0
M  V30 13180 N 1274.12 -1.03182 1.19127 0
M  V30 13181 C 1275.37 -1.76794 0.993563 0
M  V30 13182 C 1275.7 -1.88306 -0.474809 0
M  V30 13183 O 1274.98 -1.39769 -1.35258 0
M  V30 13184 C 1275.26 -3.19573 1.65968 0
M  V30 13185 C 1275.11 -3.1595 3.2015 0
M  V30 13186 C 1276.43 -4.17897 1.38023 0
M  V30 13187 H 1273.55 -0.641768 0.362357 0
M  V30 13188 H 1276.19 -1.20472 1.46924 0
M  V30 13189 H 1274.34 -3.67663 1.25524 0
M  V30 13190 H 1276.01 -2.7578 3.69788 0
M  V30 13191 H 1274.26 -2.53743 3.51848 0
M  V30 13192 H 1274.93 -4.16811 3.61901 0
M  V30 13193 H 1277.4 -3.78394 1.73082 0
M  V30 13194 H 1276.28 -5.15997 1.87186 0
M  V30 13195 H 1276.54 -4.41048 0.304812 0
M  V30 13196 N 1275.6 -0.99472 -1.22242 0
M  V30 13197 C 1276.53 -0.566499 -2.26524 0
M  V30 13198 C 1277.51 0.407541 -1.65146 0
M  V30 13199 O 1278.7 0.297777 -1.91903 0
M  V30 13200 C 1275.83 0.11786 -3.471 0
M  V30 13201 C 1274.78 -0.774908 -4.20927 0
M  V30 13202 C 1274.11 0.0424687 -5.34683 0
M  V30 13203 C 1275.41 -2.07263 -4.79416 0
M  V30 13204 H 1277.1 -1.43818 -2.62596 0
M  V30 13205 H 1274.65 -0.692971 -1.2623 0
M  V30 13206 H 1276.6 0.428842 -4.19212 0
M  V30 13207 H 1275.32 1.0241 -3.10129 0
M  V30 13208 H 1273.98 -1.06956 -3.50651 0
M  V30 13209 H 1273.63 0.949677 -4.93954 0
M  V30 13210 H 1273.33 -0.551867 -5.85003 0
M  V30 13211 H 1274.85 0.347504 -6.0961 0
M  V30 13212 H 1276.27 -1.82548 -5.4346 0
M  V30 13213 H 1274.67 -2.61594 -5.40082 0
M  V30 13214 H 1275.74 -2.75017 -3.99366 0
M  V30 13215 N 1277.08 1.37613 -0.768148 0
M  V30 13216 C 1278.33 1.99384 -0.330187 0
M  V30 13217 C 1278.65 1.61283 1.09604 0
M  V30 13218 O 1277.92 0.876551 1.75195 0
M  V30 13219 H 1276.5 0.737445 -0.119095 0
M  V30 13220 H 1279.16 1.6815 -0.985476 0
M  V30 13221 H 1278.26 3.09462 -0.40494 0
M  V30 13222 N 1278.56 0.518393 1.4883 0
M  V30 13223 C 1279.79 -0.0161765 2.06594 0
M  V30 13224 C 1280.19 -1.29771 1.37681 0
M  V30 13225 O 1279.54 -1.77991 0.454421 0
M  V30 13226 C 1279.6 -0.322505 3.5805 0
M  V30 13227 C 1279.26 0.863848 4.48761 0
M  V30 13228 C 1280.26 1.75912 4.89235 0
M  V30 13229 C 1277.95 1.06757 4.90824 0
M  V30 13230 C 1279.94 2.84211 5.70528 0
M  V30 13231 C 1277.63 2.15372 5.7189 0
M  V30 13232 C 1278.62 3.03932 6.11649 0
M  V30 13233 O 1278.31 4.1067 6.9109 0
M  V30 13234 H 1278.04 0.0251212 0.675533 0
M  V30 13235 H 1280.6 0.720052 1.92365 0
M  V30 13236 H 1278.83 -1.11256 3.7035 0
M  V30 13237 H 1280.52 -0.797764 3.97983 0
M  V30 13238 H 1281.28 1.61362 4.5737 0
M  V30 13239 H 1277.16 0.387566 4.59368 0
M  V30 13240 H 1280.71 3.53364 6.01481 0
M  V30 13241 H 1276.6 2.2991 6.03168 0
M  V30 13242 H 1277.37 4.08237 7.09426 0
M  V30 13243 N 1280.03 -1.55556 0.252993 0
M  V30 13244 C 1281.45 -1.59276 -0.101714 0
M  V30 13245 C 1281.65 -1.27018 -1.56424 0
M  V30 13246 O 1280.71 -1.02042 -2.30963 0
M  V30 13247 C 1282.02 -2.99634 0.252969 0
M  V30 13248 C 1283.57 -3.12375 0.197767 0
M  V30 13249 C 1284.04 -4.54963 0.52657 0
M  V30 13250 N 1285.53 -4.60734 0.477296 0
M  V30 13251 C 1286.27 -5.69052 0.704793 0
M  V30 13252 N 1285.76 -6.85607 0.99574 0
M  V30 13253 N 1287.56 -5.58501 0.635086 0
M  V30 13254 H 1279.71 -1.74793 1.2067 0
M  V30 13255 H 1281.97 -0.813971 0.485958 0
M  V30 13256 H 1281.68 -3.27998 1.26926 0
M  V30 13257 H 1281.55 -3.74888 -0.416984 0
M  V30 13258 H 1283.94 -2.83788 -0.809209 0
M  V30 13259 H 1284.02 -2.39382 0.901659 0
M  V30 13260 H 1283.66 -4.84271 1.53113 0
M  V30 13261 H 1283.59 -5.26224 -0.198869 0
M  V30 13262 H 1286.08 -3.76995 0.261398 0
M  V30 13263 H 1286.4 -7.64096 1.15659 0
M  V30 13264 H 1284.74 -6.87276 1.03328 0
M  V30 13265 H 1287.93 -4.6632 0.407789 0
M  V30 13266 H 1288.11 -6.42845 0.815777 0
M  V30 13267 N 1281.51 0.0200419 -1.57587 0
M  V30 13268 C 1282.44 1.01715 -2.10181 0
M  V30 13269 C 1283.42 1.37136 -1.00636 0
M  V30 13270 O 1284.61 1.45862 -1.2821 0
M  V30 13271 C 1281.74 2.31531 -2.58865 0
M  V30 13272 C 1280.69 2.10327 -3.72755 0
M  V30 13273 C 1280.02 3.45981 -4.07678 0
M  V30 13274 C 1281.32 1.4821 -5.0083 0
M  V30 13275 H 1283.01 0.579307 -2.93742 0
M  V30 13276 H 1280.56 0.277211 -1.41307 0
M  V30 13277 H 1282.51 3.01623 -2.94281 0
M  V30 13278 H 1281.24 2.77392 -1.72399 0
M  V30 13279 H 1279.89 1.42665 -3.37701 0
M  V30 13280 H 1279.54 3.89508 -3.18265 0
M  V30 13281 H 1279.24 3.32616 -4.84397 0
M  V30 13282 H 1280.77 4.17421 -4.45637 0
M  V30 13283 H 1282.18 2.08232 -5.34146 0
M  V30 13284 H 1280.58 1.45393 -5.82221 0
M  V30 13285 H 1281.65 0.448942 -4.82817 0
M  V30 13286 N 1282.99 1.54862 0.292472 0
M  V30 13287 C 1283.92 1.82786 1.38282 0
M  V30 13288 C 1284.94 0.711253 1.46441 0
M  V30 13289 O 1286.12 0.988851 1.48607 0
M  V30 13290 C 1283.22 1.95845 2.76582 0
M  V30 13291 C 1282.4 3.2633 2.91252 0
M  V30 13292 C 1281.46 3.29697 4.10105 0
M  V30 13293 O 1280.48 4.03184 4.01785 0
M  V30 13294 N 1281.68 2.557 5.21151 0
M  V30 13295 H 1284.45 2.76891 1.1468 0
M  V30 13296 H 1282.01 1.54541 0.482561 0
M  V30 13297 H 1284 1.95491 3.54352 0
M  V30 13298 H 1282.57 1.08696 2.93094 0
M  V30 13299 H 1281.79 3.39387 2.00525 0
M  V30 13300 H 1283.08 4.12421 2.9797 0
M  V30 13301 H 1282.48 1.95642 5.30792 0
M  V30 13302 H 1281.04 2.61089 5.97223 0
M  V30 13303 N 1284.47 -0.556076 1.47464 0
M  V30 13304 C 1285.72 -1.3132 1.54147 0
M  V30 13305 C 1286.04 -1.93425 0.204221 0
M  V30 13306 O 1285.3 -1.78467 -0.803002 0
M  V30 13307 C 1285.6 -2.44298 2.6087 0
M  V30 13308 C 1285.26 -2.00016 4.04109 0
M  V30 13309 C 1283.93 -1.87656 4.43101 0
M  V30 13310 C 1286.28 -1.66228 4.93981 0
M  V30 13311 C 1283.61 -1.39805 5.698 0
M  V30 13312 C 1285.96 -1.19848 6.21144 0
M  V30 13313 C 1284.62 -1.06084 6.59016 0
M  V30 13314 H 1283.89 -0.480534 0.564064 0
M  V30 13315 H 1286.54 -0.623449 1.81067 0
M  V30 13316 H 1284.84 -3.18834 2.27711 0
M  V30 13317 H 1286.54 -3.02479 2.63263 0
M  V30 13318 H 1283.13 -2.1058 3.73302 0
M  V30 13319 H 1287.31 -1.7465 4.64555 0
M  V30 13320 H 1282.57 -1.27814 5.97891 0
M  V30 13321 H 1286.74 -0.927657 6.90194 0
M  V30 13322 H 1284.37 -0.687834 7.57082 0
M  V30 13323 N 1285.95 -1.35615 -0.802897 0
M  V30 13324 C 1287.2 -1.28839 -1.55708 0
M  V30 13325 C 1287.52 0.135906 -1.94526 0
M  V30 13326 O 1286.79 1.07317 -1.6389 0
M  V30 13327 H 1285.37 -0.473906 -0.577427 0
M  V30 13328 H 1288.03 -1.69759 -0.957487 0
M  V30 13329 H 1287.12 -1.90675 -2.47082 0
M  V30 13330 N 1287.43 1.02549 -1.19673 0
M  V30 13331 C 1288.84 1.28271 -0.94967 0
M  V30 13332 C 1289.04 1.97961 0.37599 0
M  V30 13333 O 1288.1 2.26955 1.10668 0
M  V30 13334 C 1289.41 2.12647 -2.12607 0
M  V30 13335 C 1290.96 2.25943 -2.16607 0
M  V30 13336 C 1291.43 3.13693 -3.33708 0
M  V30 13337 N 1292.92 3.21281 -3.33665 0
M  V30 13338 C 1293.66 3.89377 -4.20919 0
M  V30 13339 N 1293.16 4.59675 -5.18334 0
M  V30 13340 N 1294.95 3.85811 -4.08786 0
M  V30 13341 H 1287.1 0.557304 -2.04958 0
M  V30 13342 H 1289.36 0.308531 -0.896389 0
M  V30 13343 H 1289.07 1.68766 -3.08563 0
M  V30 13344 H 1288.94 3.13367 -2.09955 0
M  V30 13345 H 1291.33 2.69053 -1.2122 0
M  V30 13346 H 1291.41 1.24762 -2.23311 0
M  V30 13347 H 1291.05 2.7129 -4.29376 0
M  V30 13348 H 1290.98 4.14941 -3.2424 0
M  V30 13349 H 1293.48 2.71218 -2.63152 0
M  V30 13350 H 1293.79 5.09277 -5.81254 0
M  V30 13351 H 1292.13 4.58529 -5.22279 0
M  V30 13352 H 1295.32 3.30033 -3.31957 0
M  V30 13353 H 1295.5 4.38607 -4.76999 0
M  V30 13354 N 1288.9 1.00119 1.21713 0
M  V30 13355 C 1289.81 0.567582 2.27631 0
M  V30 13356 C 1290.83 -0.387593 1.69628 0
M  V30 13357 O 1292.01 -0.252372 1.99813 0
M  V30 13358 C 1289.07 -0.102745 3.46548 0
M  V30 13359 C 1288.13 0.896433 4.19836 0
M  V30 13360 C 1287.36 0.258 5.33076 0
M  V30 13361 O 1287.59 -0.946118 5.62499 0
M  V30 13362 O 1286.52 0.967021 5.94081 0
M  V30 13363 H 1290.35 1.44898 2.66905 0
M  V30 13364 H 1287.93 0.769862 1.28037 0
M  V30 13365 H 1289.81 -0.477846 4.18682 0
M  V30 13366 H 1288.49 -0.958576 3.09181 0
M  V30 13367 H 1287.4 1.32262 3.49939 0
M  V30 13368 H 1288.73 1.72173 4.61104 0
M  V30 13369 N 1290.38 -1.37203 0.775435 0
M  V30 13370 C 1291.66 -1.93783 0.266005 0
M  V30 13371 C 1292.04 -1.70875 -1.23956 0
M  V30 13372 O 1291.39 -1.05965 -2.02444 0
M  V30 13373 C 1291.6 -3.43018 0.643404 0
M  V30 13374 C 1292.94 -4.20119 0.615267 0
M  V30 13375 O 1293.97 -3.51396 0.583018 0
M  V30 13376 O 1292.83 -5.42673 0.645637 0
M  V30 13377 H 1289.92 -0.824649 0.0623107 0
M  V30 13378 H 1292.47 -1.46468 0.857036 0
M  V30 13379 H 1291.24 -3.5329 1.68232 0
M  V30 13380 H 1290.86 -3.97592 0.0255138 0
M  V30 13381 N 1291.86 -0.526279 -1.48553 0
M  V30 13382 C 1293.08 0.00731432 -2.07399 0
M  V30 13383 C 1293.51 1.27737 -1.38075 0
M  V30 13384 O 1292.87 1.75741 -0.445503 0
M  V30 13385 C 1292.92 0.218126 -3.5994 0
M  V30 13386 O 1292.02 1.28759 -3.91784 0
M  V30 13387 H 1291.36 -0.0374784 -0.662941 0
M  V30 13388 H 1293.89 -0.733133 -1.91014 0
M  V30 13389 H 1293.9 0.44192 -4.056 0
M  V30 13390 H 1292.58 -0.709668 -4.09801 0
M  V30 13391 H 1291.15 1.04674 -3.57907 0
M  V30 13392 N 1293.34 1.5542 -0.261239 0
M  V30 13393 C 1294.57 2.03687 0.363225 0
M  V30 13394 C 1294.98 1.14007 1.50492 0
M  V30 13395 O 1294.34 0.157349 1.8182 0
M  V30 13396 C 1294.39 3.51184 0.857435 0
M  V30 13397 O 1294.11 4.37449 -0.238776 0
M  V30 13398 C 1295.61 4.15277 1.55113 0
M  V30 13399 H 1292.83 0.665641 0.0846356 0
M  V30 13400 H 1295.37 2.00761 -0.389288 0
M  V30 13401 H 1293.53 3.54599 1.56008 0
M  V30 13402 H 1293.94 5.24316 0.138821 0
M  V30 13403 H 1295.42 5.20129 1.8485 0
M  V30 13404 H 1295.89 3.62619 2.47799 0
M  V30 13405 H 1296.5 4.15826 0.892695 0
M  V30 13406 N 1294.82 -0.0116844 1.57596 0
M  V30 13407 C 1296.23 -0.55604 1.78228 0
M  V30 13408 C 1296.58 -1.74624 0.894474 0
M  V30 13409 O 1295.7 -2.16196 0.0938498 0
M  V30 13410 C 1296.3 -1.0155 3.23223 0
M  V30 13411 C 1294.86 -1.50525 3.44992 0
M  V30 13412 C 1294 -0.451133 2.73606 0
M  V30 13413 H 1296.95 0.214516 1.57243 0
M  V30 13414 H 1296.98 -1.88208 3.30693 0
M  V30 13415 H 1296.49 -0.149048 3.87814 0
M  V30 13416 H 1294.59 -2.39298 2.856 0
M  V30 13417 H 1294.7 -1.54076 4.53649 0
M  V30 13418 H 1293.07 -0.910135 2.37884 0
M  V30 13419 H 1293.85 0.406152 3.40889 0
M  V30 13420 N 1296.29 -1.55015 -0.284256 0
M  V30 13421 C 1297.22 -1.90128 -1.3555 0
M  V30 13422 C 1298.2 -0.761914 -1.52082 0
M  V30 13423 O 1299.39 -1.01909 -1.65312 0
M  V30 13424 C 1296.52 -2.16332 -2.71695 0
M  V30 13425 C 1295.47 -3.32166 -2.69907 0
M  V30 13426 C 1294.8 -3.43824 -4.09498 0
M  V30 13427 C 1296.1 -4.6885 -2.30168 0
M  V30 13428 H 1297.79 -2.79852 -1.06411 0
M  V30 13429 H 1295.34 -1.34649 -0.510451 0
M  V30 13430 H 1297.29 -2.39482 -3.46737 0
M  V30 13431 H 1296.02 -1.23395 -3.02392 0
M  V30 13432 H 1294.68 -3.08965 -1.97322 0
M  V30 13433 H 1294.32 -2.48375 -4.374 0
M  V30 13434 H 1294.02 -4.21698 -4.092 0
M  V30 13435 H 1295.55 -3.69254 -4.86296 0
M  V30 13436 H 1296.96 -4.91619 -2.9493 0
M  V30 13437 H 1295.36 -5.49558 -2.41052 0
M  V30 13438 H 1296.43 -4.68433 -1.25294 0
M  V30 13439 N 1297.77 0.548248 -1.47757 0
M  V30 13440 C 1298.73 1.63666 -1.60456 0
M  V30 13441 C 1299.73 1.53499 -0.479028 0
M  V30 13442 O 1300.92 1.57497 -0.744342 0
M  V30 13443 C 1298.06 3.03239 -1.55754 0
M  V30 13444 H 1299.25 1.53752 -2.57488 0
M  V30 13445 H 1296.8 0.768881 -1.36081 0
M  V30 13446 H 1297.54 3.18677 -0.601303 0
M  V30 13447 H 1297.32 3.12027 -2.37448 0
M  V30 13448 H 1298.81 3.82406 -1.67797 0
M  V30 13449 N 1299.25 1.36039 0.795694 0
M  V30 13450 C 1300.48 1.33059 1.58439 0
M  V30 13451 C 1300.89 -0.0895496 1.88588 0
M  V30 13452 O 1300.25 -1.04466 1.49643 0
M  V30 13453 C 1300.3 2.14594 2.90915 0
M  V30 13454 O 1300.02 3.51072 2.62069 0
M  V30 13455 C 1301.52 2.19324 3.85242 0
M  V30 13456 H 1298.74 0.456668 0.491625 0
M  V30 13457 H 1301.29 1.79048 0.988035 0
M  V30 13458 H 1299.44 1.72177 3.47036 0
M  V30 13459 H 1299.86 3.93545 3.46732 0
M  V30 13460 H 1301.33 2.80744 4.75276 0
M  V30 13461 H 1301.81 1.19496 4.22631 0
M  V30 13462 H 1302.41 2.6195 3.35056 0
M  V30 13463 N 1300.73 -1.01913 1.20215 0
M  V30 13464 C 1301.66 -2.12282 0.97256 0
M  V30 13465 C 1302.64 -1.6982 -0.0975709 0
M  V30 13466 O 1303.82 -1.94109 0.0594307 0
M  V30 13467 C 1300.95 -3.43369 0.521085 0
M  V30 13468 C 1299.91 -3.99559 1.53417 0
M  V30 13469 C 1299.23 -5.26383 0.93942 0
M  V30 13470 C 1300.53 -4.33241 2.91718 0
M  V30 13471 H 1302.23 -2.31746 1.89563 0
M  V30 13472 H 1299.77 -1.1137 0.912841 0
M  V30 13473 H 1301.73 -4.19963 0.347713 0
M  V30 13474 H 1300.45 -3.23655 -0.437605 0
M  V30 13475 H 1299.11 -3.25069 1.69486 0
M  V30 13476 H 1298.76 -5.02993 -0.0271236 0
M  V30 13477 H 1298.46 -5.64942 1.616 0
M  V30 13478 H 1299.98 -6.05635 0.777059 0
M  V30 13479 H 1301.4 -5.00734 2.79175 0
M  V30 13480 H 1299.79 -4.82907 3.56259 0
M  V30 13481 H 1300.86 -3.42118 3.43633 0
M  V30 13482 N 1302.21 -1.00763 -1.2118 0
M  V30 13483 C 1303.12 -0.579646 -2.27326 0
M  V30 13484 C 1304.13 0.378592 -1.69831 0
M  V30 13485 O 1305.31 0.241772 -1.99944 0
M  V30 13486 C 1302.37 0.0843648 -3.46597 0
M  V30 13487 C 1301.43 -0.918685 -4.19355 0
M  V30 13488 C 1300.67 -0.286267 -5.32932 0
M  V30 13489 O 1300.89 0.916274 -5.62993 0
M  V30 13490 O 1299.82 -0.998513 -5.9356 0
M  V30 13491 H 1303.65 -1.46311 -2.66133 0
M  V30 13492 H 1301.24 -0.776641 -1.27627 0
M  V30 13493 H 1303.12 0.455636 -4.18929 0
M  V30 13494 H 1301.79 0.942166 -3.09685 0
M  V30 13495 H 1300.7 -1.34116 -3.49233 0
M  V30 13496 H 1302.03 -1.74616 -4.60185 0
M  V30 13497 N 1303.68 1.3679 -0.7827 0
M  V30 13498 C 1304.93 1.99417 -0.352011 0
M  V30 13499 C 1305.26 1.62127 1.07448 0
M  V30 13500 O 1304.51 0.864449 1.75573 0
M  V30 13501 C 1304.81 3.54489 -0.455232 0
M  V30 13502 C 1304.48 4.11579 -1.84156 0
M  V30 13503 C 1303.14 4.26884 -2.22089 0
M  V30 13504 C 1305.49 4.4277 -2.74962 0
M  V30 13505 C 1302.82 4.70688 -3.50243 0
M  V30 13506 C 1305.17 4.88003 -4.02537 0
M  V30 13507 C 1303.84 5.01513 -4.40501 0
M  V30 13508 H 1303.11 0.729718 -0.12881 0
M  V30 13509 H 1305.75 1.63386 -0.998856 0
M  V30 13510 H 1304.06 3.90833 0.275129 0
M  V30 13511 H 1305.76 4.00867 -0.103127 0
M  V30 13512 H 1302.35 4.00102 -1.53677 0
M  V30 13513 H 1306.53 4.30521 -2.46912 0
M  V30 13514 H 1301.79 4.79335 -3.79537 0
M  V30 13515 H 1305.96 5.11102 -4.73019 0
M  V30 13516 H 1303.59 5.35214 -5.39861 0
M  V30 13517 N 1305.16 0.53415 1.48272 0
M  V30 13518 C 1306.57 0.0947592 1.86459 0
M  V30 13519 C 1306.92 -1.32906 1.44328 0
M  V30 13520 O 1306.05 -1.99605 0.835866 0
M  V30 13521 C 1306.64 0.16519 3.38397 0
M  V30 13522 C 1305.2 -0.219029 3.75762 0
M  V30 13523 C 1304.35 0.523097 2.72321 0
M  V30 13524 H 1307.3 0.74517 1.40117 0
M  V30 13525 H 1307.32 -0.622065 3.75381 0
M  V30 13526 H 1306.83 1.20157 3.69031 0
M  V30 13527 H 1304.94 -1.2574 3.50742 0
M  V30 13528 H 1305.05 0.123482 4.78941 0
M  V30 13529 H 1303.41 -0.0311323 2.54681 0
M  V30 13530 H 1304.2 1.56019 3.05799 0
M  V30 13531 N 1306.64 -1.55279 0.269478 0
M  V30 13532 C 1308.05 -1.85286 -0.229372 0
M  V30 13533 C 1308.4 -1.19148 -1.55879 0
M  V30 13534 O 1307.53 -0.4778 -2.11059 0
M  V30 13535 C 1308.12 -3.3615 -0.42296 0
M  V30 13536 C 1306.68 -3.66301 -0.866047 0
M  V30 13537 C 1305.83 -2.77265 0.0439028 0
M  V30 13538 H 1308.78 -1.509 0.491427 0
M  V30 13539 H 1308.8 -3.5895 -1.26234 0
M  V30 13540 H 1308.31 -3.84258 0.544768 0
M  V30 13541 H 1306.41 -3.23688 -1.84545 0
M  V30 13542 H 1306.53 -4.73851 -0.707274 0
M  V30 13543 H 1304.89 -2.50299 -0.471433 0
M  V30 13544 H 1305.67 -3.28186 1.00741 0
M  V30 13545 N 1308.12 0.00332656 -1.576 0
M  V30 13546 C 1309.34 0.703587 -1.95101 0
M  V30 13547 C 1309.77 1.66697 -0.871418 0
M  V30 13548 O 1309.13 1.80494 0.170739 0
M  V30 13549 C 1309.17 1.41457 -3.31696 0
M  V30 13550 O 1308.28 2.52885 -3.25765 0
M  V30 13551 H 1307.62 0.187396 -0.637008 0
M  V30 13552 H 1310.15 -0.0488727 -2.04542 0
M  V30 13553 H 1310.16 1.77874 -3.67185 0
M  V30 13554 H 1308.83 0.708182 -4.09826 0
M  V30 13555 H 1307.41 2.18821 -3.01947 0
M  V30 13556 N 1309.6 1.55164 0.276031 0
M  V30 13557 C 1310.51 1.90928 1.36321 0
M  V30 13558 C 1311.52 0.806183 1.54197 0
M  V30 13559 O 1312.7 1.10497 1.68382 0
M  V30 13560 C 1309.76 2.17123 2.70293 0
M  V30 13561 C 1308.82 3.40703 2.6119 0
M  V30 13562 C 1308.06 3.65638 3.88773 0
M  V30 13563 O 1308.28 2.93137 4.89313 0
M  V30 13564 O 1307.21 4.59172 3.89159 0
M  V30 13565 H 1311.04 2.8347 1.08988 0
M  V30 13566 H 1308.63 1.41672 0.474292 0
M  V30 13567 H 1310.51 2.3541 3.49514 0
M  V30 13568 H 1309.18 1.27765 2.97419 0
M  V30 13569 H 1308.09 3.27754 1.80355 0
M  V30 13570 H 1309.42 4.30271 2.39014 0
M  V30 13571 N 1311.07 -0.540404 1.48045 0
M  V30 13572 C 1312.35 -1.30148 1.46017 0
M  V30 13573 C 1312.73 -2.10445 0.166171 0
M  V30 13574 O 1312.08 -2.12013 -0.852223 0
M  V30 13575 C 1312.29 -2.19177 2.71593 0
M  V30 13576 C 1313.64 -2.79655 3.19497 0
M  V30 13577 O 1314.66 -2.2947 2.72437 0
M  V30 13578 O 1313.52 -3.70912 4.01356 0
M  V30 13579 H 1310.61 -0.586879 0.582668 0
M  V30 13580 H 1313.16 -0.557918 1.60267 0
M  V30 13581 H 1311.93 -1.59556 3.57292 0
M  V30 13582 H 1311.56 -3.00798 2.60012 0
M  V30 13583 N 1312.55 -1.36459 -0.788468 0
M  V30 13584 C 1313.97 -1.16893 -1.08666 0
M  V30 13585 C 1314.17 0.00633808 -2.01499 0
M  V30 13586 O 1313.22 0.671417 -2.4341 0
M  V30 13587 C 1314.54 -2.48018 -1.70022 0
M  V30 13588 C 1316.09 -2.5439 -1.82358 0
M  V30 13589 C 1316.56 -3.85605 -2.47129 0
M  V30 13590 N 1318.05 -3.86956 -2.54597 0
M  V30 13591 C 1318.79 -4.85224 -3.05525 0
M  V30 13592 N 1318.28 -5.93885 -3.56753 0
M  V30 13593 N 1320.08 -4.72643 -3.04246 0
M  V30 13594 H 1312.23 -2.11705 -0.171733 0
M  V30 13595 H 1314.49 -0.937784 -0.1388 0
M  V30 13596 H 1314.2 -3.34292 -1.09277 0
M  V30 13597 H 1314.07 -2.63894 -2.69518 0
M  V30 13598 H 1316.46 -1.68534 -2.4224 0
M  V30 13599 H 1316.54 -2.42414 -0.816651 0
M  V30 13600 H 1316.18 -4.71868 -1.87891 0
M  V30 13601 H 1316.11 -3.94878 -3.48395 0
M  V30 13602 H 1318.6 -3.08453 -2.18323 0
M  V30 13603 H 1318.92 -6.64839 -3.93966 0
M  V30 13604 H 1317.26 -5.97553 -3.54902 0
M  V30 13605 H 1320.45 -3.86883 -2.63513 0
M  V30 13606 H 1320.62 -5.49385 -3.43627 0
M  V30 13607 N 1314.03 1.01274 -1.20754 0
M  V30 13608 C 1315.26 1.78265 -1.04427 0
M  V30 13609 C 1315.67 1.84718 0.409361 0
M  V30 13610 O 1315.01 1.30195 1.29595 0
M  V30 13611 C 1315.07 3.24037 -1.55693 0
M  V30 13612 C 1314.74 3.41181 -3.04047 0
M  V30 13613 C 1315.73 3.30087 -4.0167 0
M  V30 13614 C 1313.42 3.66872 -3.43089 0
M  V30 13615 C 1315.41 3.44436 -5.36323 0
M  V30 13616 C 1313.1 3.80865 -4.77896 0
M  V30 13617 C 1314.1 3.69652 -5.74322 0
M  V30 13618 O 1313.79 3.83211 -7.06686 0
M  V30 13619 H 1313.52 0.567327 -0.367582 0
M  V30 13620 H 1316.07 1.28336 -1.60372 0
M  V30 13621 H 1314.3 3.75067 -0.941382 0
M  V30 13622 H 1315.99 3.82676 -1.35328 0
M  V30 13623 H 1316.76 3.10172 -3.72852 0
M  V30 13624 H 1312.64 3.74685 -2.68574 0
M  V30 13625 H 1316.18 3.35601 -6.1157 0
M  V30 13626 H 1312.08 4.00282 -5.06403 0
M  V30 13627 H 1312.85 4.00205 -7.13987 0
M  V30 13628 N 1315.51 1.01404 1.20644 0
M  V30 13629 C 1316.74 0.72104 1.93929 0
M  V30 13630 C 1317.15 -0.717853 1.7462 0
M  V30 13631 O 1316.51 -1.48664 1.05855 0
M  V30 13632 C 1316.56 1.04399 3.46097 0
M  V30 13633 O 1316.28 2.42637 3.64773 0
M  V30 13634 C 1317.78 0.771678 4.36532 0
M  V30 13635 H 1315 0.264983 0.616462 0
M  V30 13636 H 1317.55 1.35453 1.53208 0
M  V30 13637 H 1315.7 0.455946 3.84708 0
M  V30 13638 H 1316.12 2.54201 4.58783 0
M  V30 13639 H 1317.59 1.04774 5.41965 0
M  V30 13640 H 1318.07 -0.294188 4.38214 0
M  V30 13641 H 1318.67 1.34176 4.0358 0
M  V30 13642 N 1316.99 -1.36373 0.789944 0
M  V30 13643 C 1317.95 -2.28372 0.194639 0
M  V30 13644 C 1318.95 -1.48849 -0.608332 0
M  V30 13645 O 1320.14 -1.68829 -0.42925 0
M  V30 13646 C 1317.27 -3.3298 -0.730553 0
M  V30 13647 H 1318.47 -2.82529 1.00585 0
M  V30 13648 H 1316.02 -1.45946 0.559406 0
M  V30 13649 H 1316.75 -2.8398 -1.56608 0
M  V30 13650 H 1316.54 -3.91787 -0.156706 0
M  V30 13651 H 1318.03 -4.01684 -1.14192 0
M  V30 13652 N 1318.47 -0.542005 -1.47987 0
M  V30 13653 C 1319.69 -0.0146835 -2.07395 0
M  V30 13654 C 1320.12 1.26266 -1.39422 0
M  V30 13655 O 1319.47 1.75259 -0.464118 0
M  V30 13656 C 1319.52 0.179937 -3.60151 0
M  V30 13657 O 1318.63 1.24596 -3.93128 0
M  V30 13658 H 1317.97 -0.0445076 -0.662507 0
M  V30 13659 H 1320.5 -0.753352 -1.90226 0
M  V30 13660 H 1320.51 0.398876 -4.06046 0
M  V30 13661 H 1319.18 -0.753093 -4.09025 0
M  V30 13662 H 1317.76 1.00872 -3.58997 0
M  V30 13663 N 1319.94 1.55134 -0.277709 0
M  V30 13664 C 1321.19 1.99259 0.337662 0
M  V30 13665 C 1321.51 1.16755 1.56183 0
M  V30 13666 O 1320.78 0.257707 1.94198 0
M  V30 13667 H 1319.36 0.735995 0.127751 0
M  V30 13668 H 1322.02 1.91087 -0.383646 0
M  V30 13669 H 1321.12 3.05763 0.625747 0
M  V30 13670 N 1321.42 0.00503138 1.57599 0
M  V30 13671 C 1322.67 -0.679766 1.91068 0
M  V30 13672 C 1323 -1.73144 0.879486 0
M  V30 13673 O 1322.28 -1.94237 -0.101116 0
M  V30 13674 C 1322.56 -1.3183 3.35101 0
M  V30 13675 C 1322.41 -0.277833 4.48941 0
M  V30 13676 C 1323.73 -2.24308 3.78647 0
M  V30 13677 H 1320.85 -0.245646 0.694857 0
M  V30 13678 H 1323.49 0.057357 1.89913 0
M  V30 13679 H 1321.64 -1.94657 3.36216 0
M  V30 13680 H 1323.31 0.351136 4.59962 0
M  V30 13681 H 1321.56 0.399365 4.31958 0
M  V30 13682 H 1322.23 -0.763759 5.46691 0
M  V30 13683 H 1324.7 -1.71494 3.79116 0
M  V30 13684 H 1323.58 -2.6595 4.80169 0
M  V30 13685 H 1323.84 -3.12427 3.12797 0
M  V30 13686 N 1322.9 -1.55308 -0.267798 0
M  V30 13687 C 1323.85 -1.84933 -1.33356 0
M  V30 13688 C 1324.83 -0.708605 -1.44456 0
M  V30 13689 O 1326.03 -0.970069 -1.4805 0
M  V30 13690 C 1323.15 -2.12927 -2.69289 0
M  V30 13691 C 1322.24 -3.33273 -2.62279 0
M  V30 13692 N 1322.63 -4.53055 -2.24889 0
M  V30 13693 C 1320.93 -3.35966 -2.93331 0
M  V30 13694 C 1321.63 -5.35156 -2.27998 0
M  V30 13695 N 1320.61 -4.73692 -2.66677 0
M  V30 13696 H 1324.41 -2.75086 -1.03465 0
M  V30 13697 H 1321.92 -1.55254 -0.476435 0
M  V30 13698 H 1323.92 -2.32309 -3.46177 0
M  V30 13699 H 1322.58 -1.24061 -3.00065 0
M  V30 13700 H 1323.59 -4.79059 -1.9678 0
M  V30 13701 H 1320.27 -2.57308 -3.28784 0
M  V30 13702 H 1321.66 -6.4094 -2.01608 0
M  V30 13703 N 1324.38 0.532545 -1.4833 0
M  V30 13704 C 1325.32 1.63737 -1.62661 0
M  V30 13705 C 1326.29 1.59348 -0.468758 0
M  V30 13706 O 1327.48 1.77812 -0.691921 0
M  V30 13707 C 1324.62 3.02006 -1.66993 0
M  V30 13708 C 1323.73 3.16648 -2.93867 0
M  V30 13709 C 1322.87 4.4546 -2.89376 0
M  V30 13710 C 1321.91 4.53622 -4.10966 0
M  V30 13711 N 1321.04 5.7382 -4.04567 0
M  V30 13712 H 1325.88 1.50828 -2.57012 0
M  V30 13713 H 1323.42 0.734348 -1.27459 0
M  V30 13714 H 1325.38 3.82105 -1.67486 0
M  V30 13715 H 1324.01 3.13693 -0.76135 0
M  V30 13716 H 1323.06 2.29817 -3.0313 0
M  V30 13717 H 1324.37 3.1854 -3.8384 0
M  V30 13718 H 1323.53 5.33848 -2.88256 0
M  V30 13719 H 1322.27 4.46085 -1.97127 0
M  V30 13720 H 1321.27 3.63642 -4.12364 0
M  V30 13721 H 1322.5 4.54738 -5.04371 0
M  V30 13722 H 1320.44 5.75347 -3.15137 0
M  V30 13723 H 1320.36 5.77196 -4.88243 0
M  V30 13724 H 1321.63 6.64502 -4.07502 0
M  V30 13725 N 1325.86 1.36875 0.78122 0
M  V30 13726 C 1327.1 1.31299 1.53639 0
M  V30 13727 C 1327.42 -0.104942 1.94717 0
M  V30 13728 O 1326.69 -1.04696 1.65576 0
M  V30 13729 H 1325.27 0.483032 0.569815 0
M  V30 13730 H 1327.94 1.71261 0.930359 0
M  V30 13731 H 1327.03 1.94581 2.44018 0
M  V30 13732 N 1327.33 -1.00632 1.21289 0
M  V30 13733 C 1328.3 -2.07543 0.972548 0
M  V30 13734 C 1329.3 -1.60703 -0.0559244 0
M  V30 13735 O 1330.49 -1.73255 0.181213 0
M  V30 13736 C 1327.62 -3.37696 0.466297 0
M  V30 13737 H 1328.81 -2.30298 1.92101 0
M  V30 13738 H 1326.36 -1.17588 1.02969 0
M  V30 13739 H 1327.1 -3.2062 -0.487148 0
M  V30 13740 H 1326.88 -3.73024 1.20813 0
M  V30 13741 H 1328.37 -4.16388 0.317962 0
M  V30 13742 N 1328.81 -1.02043 -1.20104 0
M  V30 13743 C 1330.04 -0.731315 -1.93544 0
M  V30 13744 C 1330.45 0.708582 -1.74999 0
M  V30 13745 O 1329.81 1.481 -1.06642 0
M  V30 13746 C 1329.86 -1.06233 -3.45538 0
M  V30 13747 O 1329.58 -2.44568 -3.63481 0
M  V30 13748 C 1331.08 -0.794818 -4.36116 0
M  V30 13749 H 1328.3 -0.268248 -0.615048 0
M  V30 13750 H 1330.85 -1.36264 -1.52488 0
M  V30 13751 H 1329 -0.476341 -3.8446 0
M  V30 13752 H 1329.42 -2.5663 -4.57429 0
M  V30 13753 H 1330.89 -1.07647 -5.41402 0
M  V30 13754 H 1331.37 0.270944 -4.38363 0
M  V30 13755 H 1331.97 -1.36314 -4.02863 0
M  V30 13756 N 1330.29 1.35952 -0.797165 0
M  V30 13757 C 1331.52 2.02986 -0.384758 0
M  V30 13758 C 1331.93 1.60233 1.00608 0
M  V30 13759 O 1331.27 0.790955 1.658 0
M  V30 13760 C 1331.33 3.57508 -0.37795 0
M  V30 13761 C 1331 4.23491 -1.71769 0
M  V30 13762 C 1331.99 4.45835 -2.67445 0
M  V30 13763 C 1329.68 4.60804 -1.99911 0
M  V30 13764 C 1331.67 5.04584 -3.89453 0
M  V30 13765 C 1329.36 5.19269 -3.22185 0
M  V30 13766 C 1330.36 5.41099 -4.16774 0
M  V30 13767 O 1330.05 5.98334 -5.36891 0
M  V30 13768 H 1329.78 0.657838 -0.155644 0
M  V30 13769 H 1332.33 1.7475 -1.07942 0
M  V30 13770 H 1330.56 3.84894 0.373253 0
M  V30 13771 H 1332.25 4.05899 0.0108505 0
M  V30 13772 H 1333.02 4.17397 -2.46992 0
M  V30 13773 H 1328.9 4.43132 -1.27102 0
M  V30 13774 H 1332.44 5.21539 -4.63296 0
M  V30 13775 H 1328.34 5.47134 -3.42512 0
M  V30 13776 H 1329.11 6.16794 -5.38059 0
M  V30 13777 N 1331.77 0.549846 1.47697 0
M  V30 13778 C 1333.01 0.0230845 2.02787 0
M  V30 13779 C 1333.35 -1.32035 1.42409 0
M  V30 13780 O 1332.62 -1.85745 0.576978 0
M  V30 13781 C 1332.91 -0.0778363 3.60016 0
M  V30 13782 C 1332.76 1.29217 4.3084 0
M  V30 13783 C 1334.08 -0.794909 4.32862 0
M  V30 13784 H 1331.2 0.00986307 0.736934 0
M  V30 13785 H 1333.84 0.710714 1.76207 0
M  V30 13786 H 1331.99 -0.663464 3.82793 0
M  V30 13787 H 1333.66 1.92044 4.19424 0
M  V30 13788 H 1331.9 1.86883 3.91481 0
M  V30 13789 H 1332.57 1.17435 5.39364 0
M  V30 13790 H 1335.05 -0.297743 4.15033 0
M  V30 13791 H 1333.93 -0.834466 5.4252 0
M  V30 13792 H 1334.19 -1.84948 4.01555 0
M  V30 13793 N 1333.25 -1.54984 0.285932 0
M  V30 13794 C 1334.49 -1.9983 -0.327737 0
M  V30 13795 C 1334.82 -1.17435 -1.55046 0
M  V30 13796 O 1334.08 -0.234735 -1.94287 0
M  V30 13797 C 1334.38 -3.49581 -0.7435 0
M  V30 13798 C 1334.04 -4.49331 0.375792 0
M  V30 13799 C 1332.7 -4.76327 0.683103 0
M  V30 13800 C 1335.06 -5.08815 1.12947 0
M  V30 13801 C 1332.38 -5.60071 1.74748 0
M  V30 13802 C 1334.74 -5.93716 2.18366 0
M  V30 13803 C 1333.4 -6.19028 2.4972 0
M  V30 13804 H 1332.67 -0.731231 -0.119928 0
M  V30 13805 H 1335.32 -1.87235 0.401896 0
M  V30 13806 H 1333.62 -3.59708 -1.55298 0
M  V30 13807 H 1335.32 -3.81694 -1.22924 0
M  V30 13808 H 1331.91 -4.28414 0.126159 0
M  V30 13809 H 1336.09 -4.87973 0.905313 0
M  V30 13810 H 1331.35 -5.77925 1.9953 0
M  V30 13811 H 1335.52 -6.38838 2.77233 0
M  V30 13812 H 1333.15 -6.83711 3.3233 0
M  V30 13813 N 1334.72 -0.0133892 -1.57594 0
M  V30 13814 C 1336.14 0.342848 -1.55874 0
M  V30 13815 C 1336.34 1.73928 -1.01742 0
M  V30 13816 O 1335.4 2.43798 -0.657158 0
M  V30 13817 C 1336.71 0.205831 -2.99995 0
M  V30 13818 C 1338.26 0.279774 -3.11747 0
M  V30 13819 C 1338.73 0.171729 -4.57678 0
M  V30 13820 N 1340.22 0.22921 -4.62633 0
M  V30 13821 C 1340.96 0.169153 -5.7315 0
M  V30 13822 N 1340.45 0.0589166 -6.92775 0
M  V30 13823 N 1342.25 0.221995 -5.61661 0
M  V30 13824 H 1334.4 -0.926727 -1.91117 0
M  V30 13825 H 1336.66 -0.356466 -0.878428 0
M  V30 13826 H 1336.37 -0.755482 -3.4349 0
M  V30 13827 H 1336.24 0.982476 -3.6418 0
M  V30 13828 H 1338.63 1.23154 -2.68174 0
M  V30 13829 H 1338.71 -0.526974 -2.50313 0
M  V30 13830 H 1338.35 -0.776547 -5.01928 0
M  V30 13831 H 1338.28 0.997138 -5.17073 0
M  V30 13832 H 1340.77 0.315196 -3.76583 0
M  V30 13833 H 1341.09 0.0193526 -7.72798 0
M  V30 13834 H 1339.43 0.0243543 -6.94996 0
M  V30 13835 H 1342.62 0.306406 -4.67096 0
M  V30 13836 H 1342.8 0.171727 -6.47772 0
M  V30 13837 N 1336.2 1.55448 0.259558 0
M  V30 13838 C 1337.13 1.9226 1.32508 0
M  V30 13839 C 1338.11 0.786012 1.5085 0
M  V30 13840 O 1339.3 1.04526 1.6367 0
M  V30 13841 C 1336.43 2.20627 2.68218 0
M  V30 13842 C 1335.38 3.36418 2.64589 0
M  V30 13843 C 1334.71 3.50295 4.03977 0
M  V30 13844 C 1336.01 4.72452 2.2268 0
M  V30 13845 H 1337.7 2.81509 1.01945 0
M  V30 13846 H 1335.25 1.35444 0.488965 0
M  V30 13847 H 1337.2 2.44968 3.42883 0
M  V30 13848 H 1335.93 1.28191 3.00391 0
M  V30 13849 H 1334.58 3.12065 1.92382 0
M  V30 13850 H 1334.23 2.55302 4.33394 0
M  V30 13851 H 1333.93 4.28155 4.02439 0
M  V30 13852 H 1335.46 3.76944 4.8036 0
M  V30 13853 H 1336.87 4.96249 2.87071 0
M  V30 13854 H 1335.27 5.53323 2.32279 0
M  V30 13855 H 1336.34 4.70367 1.17826 0
M  V30 13856 N 1337.68 -0.524672 1.4861 0
M  V30 13857 C 1338.64 -1.61092 1.63039 0
M  V30 13858 C 1339.64 -1.52718 0.503387 0
M  V30 13859 O 1340.83 -1.56293 0.769304 0
M  V30 13860 C 1337.97 -3.00722 1.60558 0
M  V30 13861 H 1339.16 -1.49636 2.59902 0
M  V30 13862 H 1336.71 -0.747135 1.37287 0
M  V30 13863 H 1337.45 -3.1768 0.651926 0
M  V30 13864 H 1337.23 -3.0821 2.42382 0
M  V30 13865 H 1338.72 -3.79688 1.73859 0
M  V30 13866 N 1339.16 -1.37287 -0.77395 0
M  V30 13867 C 1340.12 -1.32699 -1.86878 0
M  V30 13868 C 1341.12 -0.231486 -1.59125 0
M  V30 13869 O 1342.31 -0.487203 -1.67248 0
M  V30 13870 C 1339.44 -1.0609 -3.23972 0
M  V30 13871 H 1340.64 -2.30083 -1.92359 0
M  V30 13872 H 1338.19 -1.22284 -0.973459 0
M  V30 13873 H 1338.92 -0.0922868 -3.24169 0
M  V30 13874 H 1338.71 -1.85383 -3.45508 0
M  V30 13875 H 1340.2 -1.05524 -4.04048 0
M  V30 13876 N 1340.64 0.999871 -1.21821 0
M  V30 13877 C 1342.05 1.26228 -0.976664 0
M  V30 13878 C 1342.25 1.98714 0.333915 0
M  V30 13879 O 1341.31 2.29252 1.05829 0
M  V30 13880 C 1342.62 2.08089 -2.1707 0
M  V30 13881 C 1344.17 2.21298 -2.21351 0
M  V30 13882 C 1344.64 3.06544 -3.40287 0
M  V30 13883 N 1346.14 3.14131 -3.40405 0
M  V30 13884 C 1346.87 3.80362 -4.29083 0
M  V30 13885 N 1346.37 4.48577 -5.27968 0
M  V30 13886 N 1348.16 3.77053 -4.16878 0
M  V30 13887 H 1340.31 0.513704 -2.06094 0
M  V30 13888 H 1342.57 0.289447 -0.902732 0
M  V30 13889 H 1342.28 1.62183 -3.12073 0
M  V30 13890 H 1342.15 3.08843 -2.16554 0
M  V30 13891 H 1344.54 2.66422 -1.269 0
M  V30 13892 H 1344.62 1.19997 -2.25908 0
M  V30 13893 H 1344.27 2.62122 -4.35034 0
M  V30 13894 H 1344.2 4.0797 -3.32969 0
M  V30 13895 H 1346.69 2.65576 -2.68846 0
M  V30 13896 H 1347 4.96833 -5.91926 0
M  V30 13897 H 1345.34 4.47348 -5.31888 0
M  V30 13898 H 1348.54 3.22918 -3.38883 0
M  V30 13899 H 1348.71 4.2839 -4.86195 0
M  V30 13900 N 1342.11 1.02678 1.19562 0
M  V30 13901 C 1343.34 0.741424 1.93695 0
M  V30 13902 C 1343.76 -0.693203 1.74861 0
M  V30 13903 O 1343.12 -1.47833 1.04953 0
M  V30 13904 C 1343.17 1.09514 3.43568 0
M  V30 13905 O 1342.27 0.212596 4.11852 0
M  V30 13906 H 1341.62 0.274128 0.604773 0
M  V30 13907 H 1344.15 1.37289 1.517 0
M  V30 13908 H 1344.16 1.05115 3.94227 0
M  V30 13909 H 1342.83 2.14034 3.56598 0
M  V30 13910 H 1341.41 0.315 3.71567 0
M  V30 13911 N 1343.59 -1.35528 0.804364 0
M  V30 13912 C 1345.01 -1.51962 0.487831 0
M  V30 13913 C 1345.21 -1.75426 -0.991353 0
M  V30 13914 O 1344.26 -1.7944 -1.77644 0
M  V30 13915 C 1345.58 -2.69626 1.33126 0
M  V30 13916 C 1347.13 -2.83502 1.32648 0
M  V30 13917 C 1347.6 -4.04188 2.15397 0
M  V30 13918 N 1349.09 -4.11362 2.12922 0
M  V30 13919 C 1349.83 -5.03856 2.73709 0
M  V30 13920 N 1349.32 -6.01696 3.43415 0
M  V30 13921 N 1351.12 -4.96585 2.63363 0
M  V30 13922 H 1343.27 -1.18553 1.76235 0
M  V30 13923 H 1345.53 -0.57986 0.749977 0
M  V30 13924 H 1345.24 -2.58857 2.38088 0
M  V30 13925 H 1345.11 -3.64168 0.982934 0
M  V30 13926 H 1347.5 -2.93723 0.284712 0
M  V30 13927 H 1347.58 -1.89824 1.71466 0
M  V30 13928 H 1347.22 -3.94728 3.19613 0
M  V30 13929 H 1347.15 -4.97044 1.7394 0
M  V30 13930 H 1349.64 -3.41319 1.62203 0
M  V30 13931 H 1349.96 -6.68866 3.8709 0
M  V30 13932 H 1348.3 -6.01877 3.47519 0
M  V30 13933 H 1351.49 -4.19103 2.08496 0
M  V30 13934 H 1351.66 -5.68478 3.11026 0
M  V30 13935 N 1345.07 -0.557671 -1.47404 0
M  V30 13936 C 1346.32 -0.0337216 -2.02072 0
M  V30 13937 C 1346.64 1.32106 -1.43433 0
M  V30 13938 O 1345.91 1.86171 -0.609692 0
M  V30 13939 H 1344.49 -0.00947648 -0.74694 0
M  V30 13940 H 1347.15 -0.727784 -1.80802 0
M  V30 13941 H 1346.25 0.0540331 -3.12053 0
M  V30 13942 N 1346.55 1.54831 -0.294147 0
M  V30 13943 C 1347.8 1.99606 0.316509 0
M  V30 13944 C 1348.12 1.18405 1.54936 0
M  V30 13945 O 1347.39 0.278289 1.93913 0
M  V30 13946 H 1345.97 0.737309 0.119938 0
M  V30 13947 H 1348.63 1.90669 -0.403891 0
M  V30 13948 H 1347.73 3.06409 0.593282 0
M  V30 13949 N 1348.03 0.0217466 1.57585 0
M  V30 13950 C 1348.96 -0.961069 2.12804 0
M  V30 13951 C 1349.94 -1.3442 1.04237 0
M  V30 13952 O 1351.12 -1.42412 1.32032 0
M  V30 13953 C 1348.25 -2.24586 2.64912 0
M  V30 13954 C 1347.21 -2.0037 3.78201 0
M  V30 13955 C 1346.53 -3.35051 4.16708 0
M  V30 13956 C 1347.83 -1.34879 5.04584 0
M  V30 13957 H 1349.53 -0.501222 2.95175 0
M  V30 13958 H 1347.07 -0.239649 1.41992 0
M  V30 13959 H 1349.03 -2.93715 3.02175 0
M  V30 13960 H 1347.75 -2.72723 1.79693 0
M  V30 13961 H 1346.41 -1.33662 3.41365 0
M  V30 13962 H 1346.06 -3.80932 3.28481 0
M  V30 13963 H 1345.76 -3.19656 4.93045 0
M  V30 13964 H 1347.28 -4.05459 4.56547 0
M  V30 13965 H 1348.7 -1.93997 5.3948 0
M  V30 13966 H 1347.09 -1.29906 5.85871 0
M  V30 13967 H 1348.16 -0.320774 4.83838 0
M  V30 13968 N 1349.51 -1.55583 -0.251311 0
M  V30 13969 C 1350.75 -1.76859 -0.978031 0
M  V30 13970 C 1351.07 -0.584924 -1.86021 0
M  V30 13971 O 1350.34 0.399456 -1.91784 0
M  V30 13972 H 1348.92 -0.652252 -0.364111 0
M  V30 13973 H 1351.59 -1.93016 -0.270319 0
M  V30 13974 H 1350.68 -2.67828 -1.60233 0
M  V30 13975 N 1350.98 0.516783 -1.48886 0
M  V30 13976 C 1351.89 1.6467 -1.67095 0
M  V30 13977 C 1352.91 1.64963 -0.553466 0
M  V30 13978 O 1354.09 1.83673 -0.826206 0
M  V30 13979 C 1351.15 3.01095 -1.71879 0
M  V30 13980 C 1350.21 3.11554 -2.95352 0
M  V30 13981 C 1349.44 4.41471 -2.99898 0
M  V30 13982 O 1349.67 5.29348 -2.12477 0
M  V30 13983 O 1348.6 4.56573 -3.92205 0
M  V30 13984 H 1352.43 1.52242 -2.62785 0
M  V30 13985 H 1350.01 0.69134 -1.32442 0
M  V30 13986 H 1351.89 3.82207 -1.77471 0
M  V30 13987 H 1350.57 3.1382 -0.793656 0
M  V30 13988 H 1349.48 2.29689 -2.95286 0
M  V30 13989 H 1350.81 3.03751 -3.87294 0
M  V30 13990 N 1352.46 1.37696 0.766659 0
M  V30 13991 C 1353.37 1.36075 1.91104 0
M  V30 13992 C 1354.39 0.259617 1.72052 0
M  V30 13993 O 1355.56 0.49586 1.952 0
M  V30 13994 C 1352.63 1.17176 3.26298 0
M  V30 13995 C 1351.69 2.36975 3.57968 0
M  V30 13996 C 1350.92 2.18968 4.86712 0
M  V30 13997 O 1351.15 1.17658 5.58133 0
M  V30 13998 O 1350.08 3.07269 5.17561 0
M  V30 13999 H 1353.91 2.32472 1.95424 0
M  V30 14000 H 1351.49 1.18478 0.910122 0
M  V30 14001 H 1353.37 1.08645 4.07154 0
M  V30 14002 H 1352.05 0.238559 3.2282 0
M  V30 14003 H 1350.95 2.51079 2.77327 0
M  V30 14004 H 1352.29 3.2888 3.66195 0
M  V30 14005 N 1353.94 -0.993397 1.22349 0
M  V30 14006 C 1354.9 -2.065 0.994506 0
M  V30 14007 C 1355.9 -1.60753 -0.0388766 0
M  V30 14008 O 1357.09 -1.73053 0.199578 0
M  V30 14009 C 1354.22 -3.37182 0.502088 0
M  V30 14010 H 1355.42 -2.28248 1.94533 0
M  V30 14011 H 1352.97 -1.16489 1.04211 0
M  V30 14012 H 1353.71 -3.21119 -0.453114 0
M  V30 14013 H 1353.49 -3.71721 1.24763 0
M  V30 14014 H 1354.98 -4.16027 0.362108 0
M  V30 14015 N 1355.42 -1.03311 -1.19015 0
M  V30 14016 C 1356.38 -0.622114 -2.20596 0
M  V30 14017 C 1357.38 0.316502 -1.57654 0
M  V30 14018 O 1358.57 0.102932 -1.73896 0
M  V30 14019 C 1355.7 0.0890432 -3.40784 0
M  V30 14020 H 1356.9 -1.52095 -2.58471 0
M  V30 14021 H 1354.45 -0.824777 -1.32767 0
M  V30 14022 H 1355.18 1.00203 -3.08431 0
M  V30 14023 H 1354.97 -0.58547 -3.87704 0
M  V30 14024 H 1356.46 0.363366 -4.16016 0
M  V30 14025 N 1356.9 1.35099 -0.81154 0
M  V30 14026 C 1357.81 2.33499 -0.22705 0
M  V30 14027 C 1358.82 1.62095 0.632562 0
M  V30 14028 O 1360 1.93938 0.543147 0
M  V30 14029 C 1357.06 3.41279 0.610687 0
M  V30 14030 C 1356.12 4.2845 -0.269994 0
M  V30 14031 C 1355.36 5.31083 0.527854 0
M  V30 14032 O 1355.58 5.42499 1.76213 0
M  V30 14033 O 1354.51 6.01842 -0.083862 0
M  V30 14034 H 1358.34 2.85294 -1.04119 0
M  V30 14035 H 1355.92 1.37957 -0.573432 0
M  V30 14036 H 1357.81 4.07121 1.08768 0
M  V30 14037 H 1356.48 2.91746 1.40235 0
M  V30 14038 H 1355.39 3.65572 -0.794234 0
M  V30 14039 H 1356.72 4.81394 -1.02572 0
M  V30 14040 N 1358.37 0.56548 1.47106 0
M  V30 14041 C 1359.62 0.0445914 2.02751 0
M  V30 14042 C 1359.95 -1.30517 1.43801 0
M  V30 14043 O 1359.23 -1.85123 0.596646 0
M  V30 14044 C 1359.51 -0.0396474 3.60078 0
M  V30 14045 C 1359.36 1.3378 4.29445 0
M  V30 14046 C 1360.68 -0.748954 4.3368 0
M  V30 14047 H 1357.8 0.0176787 0.736788 0
M  V30 14048 H 1360.44 0.729363 1.75443 0
M  V30 14049 H 1358.59 -0.622826 3.83475 0
M  V30 14050 H 1360.27 1.96482 4.17364 0
M  V30 14051 H 1358.51 1.91024 3.89477 0
M  V30 14052 H 1359.18 1.23149 5.38088 0
M  V30 14053 H 1361.66 -0.253707 4.15326 0
M  V30 14054 H 1360.53 -0.776877 5.43374 0
M  V30 14055 H 1360.79 -1.80679 4.03494 0
M  V30 14056 N 1359.85 -1.54672 0.302354 0
M  V30 14057 C 1360.78 -2.2653 -0.566265 0
M  V30 14058 C 1361.76 -1.26532 -1.13682 0
M  V30 14059 O 1362.95 -1.55307 -1.1659 0
M  V30 14060 C 1360.08 -3.00709 -1.73757 0
M  V30 14061 C 1359.03 -4.07865 -1.29731 0
M  V30 14062 C 1358.36 -4.69767 -2.55388 0
M  V30 14063 C 1359.66 -5.20547 -0.427567 0
M  V30 14064 H 1361.35 -2.99382 0.033071 0
M  V30 14065 H 1358.9 -1.4399 0.0173458 0
M  V30 14066 H 1360.85 -3.497 -2.35134 0
M  V30 14067 H 1359.58 -2.25437 -2.36317 0
M  V30 14068 H 1358.23 -3.59726 -0.706586 0
M  V30 14069 H 1357.88 -3.91134 -3.16265 0
M  V30 14070 H 1357.58 -5.42137 -2.26631 0
M  V30 14071 H 1359.11 -5.21521 -3.17566 0
M  V30 14072 H 1360.52 -5.65424 -0.947053 0
M  V30 14073 H 1358.92 -5.99645 -0.233704 0
M  V30 14074 H 1359.99 -4.81805 0.546993 0
M  V30 14075 N 1361.33 -0.0301034 -1.57571 0
M  V30 14076 C 1362.56 0.662045 -1.9655 0
M  V30 14077 C 1362.98 1.64811 -0.906581 0
M  V30 14078 O 1362.34 1.80816 0.132415 0
M  V30 14079 C 1362.39 1.34389 -3.34622 0
M  V30 14080 O 1361.49 2.45919 -3.31056 0
M  V30 14081 H 1360.83 0.173842 -0.640839 0
M  V30 14082 H 1363.36 -0.092248 -2.04392 0
M  V30 14083 H 1363.37 1.70045 -3.70875 0
M  V30 14084 H 1362.05 0.621092 -4.11236 0
M  V30 14085 H 1360.62 2.12367 -3.06521 0
M  V30 14086 N 1362.81 1.55714 0.243056 0
M  V30 14087 C 1364.06 1.76927 0.96849 0
M  V30 14088 C 1364.37 0.594748 1.86339 0
M  V30 14089 O 1365.58 0.689981 2.62586 0
M  V30 14090 C 1364.03 3.13246 1.77214 0
M  V30 14091 C 1363.64 4.38358 0.92444 0
M  V30 14092 C 1365.38 3.43796 2.49007 0
M  V30 14093 C 1363.29 5.65708 1.7242 0
M  V30 14094 H 1362.22 0.659574 0.365346 0
M  V30 14095 H 1364.87 1.8214 0.223026 0
M  V30 14096 H 1363.25 3.02151 2.5597 0
M  V30 14097 H 1364.43 4.60452 0.178936 0
M  V30 14098 H 1362.74 4.15171 0.319653 0
M  V30 14099 H 1365.34 4.3616 3.09303 0
M  V30 14100 H 1365.68 2.65297 3.20817 0
M  V30 14101 H 1366.22 3.56124 1.77259 0
M  V30 14102 H 1362.96 6.47039 1.04978 0
M  V30 14103 H 1362.48 5.4771 2.44488 0
M  V30 14104 H 1364.15 6.05105 2.29036 0
M  V30 14105 N 1364.29 -0.50888 1.49158 0
M  V30 14106 C 1365.7 -1.09054 1.51539 0
M  V30 14107 C 1366.05 -1.93938 0.297099 0
M  V30 14108 O 1365.17 -2.08092 -0.593849 0
M  V30 14109 C 1365.77 -1.98447 2.74599 0
M  V30 14110 C 1364.33 -2.5179 2.79783 0
M  V30 14111 C 1363.47 -1.29227 2.45348 0
M  V30 14112 H 1366.43 -0.293148 1.55969 0
M  V30 14113 H 1366.45 -2.83028 2.54314 0
M  V30 14114 H 1365.96 -1.3664 3.63251 0
M  V30 14115 H 1364.06 -3.17258 1.95392 0
M  V30 14116 H 1364.17 -2.89481 3.81756 0
M  V30 14117 H 1362.54 -1.61494 1.96957 0
M  V30 14118 H 1363.32 -0.6914 3.36266 0
M  V30 14119 N 1365.76 -1.381 -0.759346 0
M  V30 14120 C 1366.67 -1.37086 -1.9038 0
M  V30 14121 C 1367.69 -0.268738 -1.71912 0
M  V30 14122 O 1368.87 -0.506205 -1.94935 0
M  V30 14123 C 1365.93 -1.18905 -3.25672 0
M  V30 14124 C 1364.99 -2.3887 -3.56707 0
M  V30 14125 C 1364.23 -2.21546 -4.85544 0
M  V30 14126 O 1364.45 -1.20616 -5.57501 0
M  V30 14127 O 1363.38 -3.10009 -5.15924 0
M  V30 14128 H 1367.21 -2.33505 -1.94188 0
M  V30 14129 H 1364.79 -1.18959 -0.903826 0
M  V30 14130 H 1366.68 -1.10803 -4.06572 0
M  V30 14131 H 1365.35 -0.255675 -3.22689 0
M  V30 14132 H 1364.26 -2.52546 -2.75992 0
M  V30 14133 H 1365.59 -3.30817 -3.64446 0
M  V30 14134 N 1367.24 0.986894 -1.22875 0
M  V30 14135 C 1368.52 1.70121 -0.965311 0
M  V30 14136 C 1368.9 2.04648 0.517924 0
M  V30 14137 O 1368.25 1.73453 1.48749 0
M  V30 14138 C 1368.46 2.94738 -1.86897 0
M  V30 14139 C 1369.81 3.6739 -2.12861 0
M  V30 14140 O 1370.83 3.04758 -1.84394 0
M  V30 14141 O 1369.69 4.8009 -2.61106 0
M  V30 14142 H 1366.78 0.742817 -0.363527 0
M  V30 14143 H 1369.33 1.0427 -1.33887 0
M  V30 14144 H 1368.1 2.65771 -2.87196 0
M  V30 14145 H 1367.72 3.68327 -1.49736 0
M  V30 14146 N 1368.72 1.0394 1.18466 0
M  V30 14147 C 1369.95 0.762014 1.92356 0
M  V30 14148 C 1370.36 -0.680652 1.76104 0
M  V30 14149 O 1369.72 -1.46385 1.08985 0
M  V30 14150 C 1369.77 1.11717 3.43805 0
M  V30 14151 O 1369.49 2.50319 3.59544 0
M  V30 14152 C 1370.99 0.864099 4.34797 0
M  V30 14153 H 1368.21 0.277999 0.610702 0
M  V30 14154 H 1370.76 1.38672 1.503 0
M  V30 14155 H 1368.91 0.537445 3.83654 0
M  V30 14156 H 1369.33 2.63875 4.53288 0
M  V30 14157 H 1370.8 1.16247 5.39621 0
M  V30 14158 H 1371.28 -0.20117 4.38739 0
M  V30 14159 H 1371.88 1.42706 4.00643 0
M  V30 14160 N 1370.2 -1.34667 0.818693 0
M  V30 14161 C 1371.61 -1.80839 0.46414 0
M  V30 14162 C 1371.96 -1.67902 -1.01506 0
M  V30 14163 O 1371.09 -1.21658 -1.78964 0
M  V30 14164 C 1371.68 -3.28331 0.835698 0
M  V30 14165 C 1370.24 -3.72599 0.533575 0
M  V30 14166 C 1369.39 -2.56452 1.05487 0
M  V30 14167 H 1372.34 -1.22474 1.00925 0
M  V30 14168 H 1372.36 -3.8025 0.13785 0
M  V30 14169 H 1371.87 -3.37715 1.91233 0
M  V30 14170 H 1369.97 -3.68756 -0.533819 0
M  V30 14171 H 1370.08 -4.66891 1.07468 0
M  V30 14172 H 1368.45 -2.50201 0.476612 0
M  V30 14173 H 1369.23 -2.68608 2.13786 0
M  V30 14174 N 1371.68 -0.573274 -1.46804 0
M  V30 14175 C 1373.09 -0.23423 -1.57872 0
M  V30 14176 C 1373.29 1.26342 -1.56971 0
M  V30 14177 O 1372.35 2.04459 -1.48165 0
M  V30 14178 C 1373.66 -0.875097 -2.87685 0
M  V30 14179 C 1375.21 -0.847812 -3.01299 0
M  V30 14180 C 1375.68 -1.46804 -4.33835 0
M  V30 14181 N 1377.18 -1.43196 -4.4051 0
M  V30 14182 C 1377.91 -1.88133 -5.41658 0
M  V30 14183 N 1377.41 -2.41001 -6.49531 0
M  V30 14184 N 1379.2 -1.79107 -5.32801 0
M  V30 14185 H 1371.35 -1.54612 -1.45633 0
M  V30 14186 H 1373.61 -0.645703 -0.694098 0
M  V30 14187 H 1373.32 -1.92826 -2.94127 0
M  V30 14188 H 1373.19 -0.377671 -3.75305 0
M  V30 14189 H 1375.58 0.196707 -2.94444 0
M  V30 14190 H 1375.66 -1.38316 -2.1518 0
M  V30 14191 H 1375.31 -2.51171 -4.41447 0
M  V30 14192 H 1375.24 -0.908 -5.18713 0
M  V30 14193 H 1377.73 -1.04541 -3.63152 0
M  V30 14194 H 1378.04 -2.73172 -7.22908 0
M  V30 14195 H 1376.38 -2.45021 -6.50377 0
M  V30 14196 H 1379.58 -1.37569 -4.47429 0
M  V30 14197 H 1379.75 -2.14445 -6.11488 0
M  V30 14198 N 1373.15 1.5451 -0.310553 0
M  V30 14199 C 1374.4 1.99931 0.29532 0
M  V30 14200 C 1374.72 1.20042 1.53672 0
M  V30 14201 O 1373.99 0.298841 1.93607 0
M  V30 14202 H 1372.57 0.738539 0.112111 0
M  V30 14203 H 1375.24 1.9023 -0.424092 0
M  V30 14204 H 1374.33 3.07021 0.560749 0
M  V30 14205 N 1374.63 0.0384594 1.57553 0
M  V30 14206 C 1375.58 -0.949625 2.07283 0
M  V30 14207 C 1376.57 -1.27973 0.975284 0
M  V30 14208 O 1377.76 -1.26428 1.23875 0
M  V30 14209 C 1374.89 -2.22887 2.61106 0
M  V30 14210 C 1373.97 -1.92672 3.77807 0
M  V30 14211 N 1374.37 -1.32764 4.88065 0
M  V30 14212 C 1372.66 -2.22612 3.86471 0
M  V30 14213 C 1373.36 -1.19892 5.69211 0
M  V30 14214 N 1372.34 -1.69757 5.16414 0
M  V30 14215 H 1376.14 -0.481562 2.89928 0
M  V30 14216 H 1373.66 -0.166321 1.61546 0
M  V30 14217 H 1375.65 -2.94556 2.9503 0
M  V30 14218 H 1374.31 -2.70311 1.79895 0
M  V30 14219 H 1375.32 -1.00146 5.08125 0
M  V30 14220 H 1372 -2.72645 3.16182 0
M  V30 14221 H 1373.39 -0.734892 6.67869 0
M  V30 14222 N 1376.11 -1.55841 -0.234795 0
M  V30 14223 C 1377.52 -1.68555 -0.802886 0
M  V30 14224 C 1377.87 -0.638107 -1.85533 0
M  V30 14225 O 1377 0.21333 -2.15346 0
M  V30 14226 C 1377.59 -3.0558 -1.46309 0
M  V30 14227 C 1376.15 -3.20192 -1.97874 0
M  V30 14228 C 1375.3 -2.64457 -0.834136 0
M  V30 14229 H 1378.25 -1.58697 -0.0103759 0
M  V30 14230 H 1378.27 -3.007 -2.33152 0
M  V30 14231 H 1377.78 -3.81792 -0.696868 0
M  V30 14232 H 1375.88 -2.48825 -2.77339 0
M  V30 14233 H 1376 -4.27251 -2.1678 0
M  V30 14234 H 1374.36 -2.22593 -1.23791 0
M  V30 14235 H 1375.14 -3.43205 -0.0807988 0
M  V30 14236 N 1377.59 0.500963 -1.49426 0
M  V30 14237 C 1378.52 1.6192 -1.62217 0
M  V30 14238 C 1379.53 1.54774 -0.504868 0
M  V30 14239 O 1380.72 1.60705 -0.776919 0
M  V30 14240 C 1377.82 3.0071 -1.56291 0
M  V30 14241 C 1377 3.3304 -2.83555 0
M  V30 14242 C 1376.06 4.51241 -2.7068 0
M  V30 14243 O 1375.08 4.53023 -3.44615 0
M  V30 14244 N 1376.28 5.51156 -1.82228 0
M  V30 14245 H 1379.05 1.51374 -2.58662 0
M  V30 14246 H 1376.61 0.688837 -1.46515 0
M  V30 14247 H 1378.6 3.77705 -1.45332 0
M  V30 14248 H 1377.17 3.0518 -0.677043 0
M  V30 14249 H 1376.39 2.44942 -3.08865 0
M  V30 14250 H 1377.68 3.51437 -3.67926 0
M  V30 14251 H 1377.08 5.52516 -1.21417 0
M  V30 14252 H 1375.63 6.27253 -1.77192 0
M  V30 14253 N 1379.07 1.38501 0.752011 0
M  V30 14254 C 1380.32 1.34112 1.50655 0
M  V30 14255 C 1380.63 -0.0657661 1.95489 0
M  V30 14256 O 1381.84 -0.232199 2.70505 0
M  V30 14257 C 1380.29 2.35514 2.72142 0
M  V30 14258 C 1379.9 3.81831 2.34326 0
M  V30 14259 C 1381.64 2.40171 3.50026 0
M  V30 14260 C 1379.55 4.74915 3.52434 0
M  V30 14261 H 1378.48 0.498519 0.565681 0
M  V30 14262 H 1381.13 1.64064 0.821913 0
M  V30 14263 H 1379.51 1.98607 3.42595 0
M  V30 14264 H 1380.69 4.27685 1.7153 0
M  V30 14265 H 1379 3.80308 1.69573 0
M  V30 14266 H 1381.6 3.06913 4.37845 0
M  V30 14267 H 1381.94 1.42111 3.91293 0
M  V30 14268 H 1382.48 2.75884 2.86588 0
M  V30 14269 H 1379.21 5.74176 3.16232 0
M  V30 14270 H 1378.73 4.33753 4.14268 0
M  V30 14271 H 1380.41 4.93003 4.18995 0
M  V30 14272 N 1380.55 -0.980364 1.23396 0
M  V30 14273 C 1381.48 -2.0908 1.0396 0
M  V30 14274 C 1382.46 -1.70044 -0.0434946 0
M  V30 14275 O 1383.64 -1.93822 0.121155 0
M  V30 14276 C 1380.77 -3.41537 0.630061 0
M  V30 14277 C 1379.73 -3.94476 1.66051 0
M  V30 14278 C 1379.05 -5.23128 1.10641 0
M  V30 14279 C 1380.35 -4.23741 3.05354 0
M  V30 14280 H 1382.05 -2.25598 1.9684 0
M  V30 14281 H 1379.59 -1.08409 0.94781 0
M  V30 14282 H 1381.54 -4.18644 0.481145 0
M  V30 14283 H 1380.27 -3.24883 -0.334416 0
M  V30 14284 H 1378.93 -3.19513 1.79742 0
M  V30 14285 H 1378.58 -5.02824 0.132913 0
M  V30 14286 H 1378.28 -5.59515 1.79492 0
M  V30 14287 H 1379.8 -6.02857 0.969344 0
M  V30 14288 H 1381.21 -4.91598 2.94964 0
M  V30 14289 H 1379.61 -4.71329 3.71442 0
M  V30 14290 H 1380.68 -3.31012 3.54343 0
M  V30 14291 N 1382.02 -1.04567 -1.17913 0
M  V30 14292 C 1382.93 -0.651674 -2.25367 0
M  V30 14293 C 1383.95 0.32437 -1.7095 0
M  V30 14294 O 1385.13 0.178039 -2.00612 0
M  V30 14295 C 1382.19 -0.0259452 -3.4669 0
M  V30 14296 C 1381.25 -1.05163 -4.1622 0
M  V30 14297 C 1380.48 -0.45567 -5.31751 0
M  V30 14298 O 1380.71 0.736698 -5.65623 0
M  V30 14299 O 1379.64 -1.18684 -5.90083 0
M  V30 14300 H 1383.47 -1.54704 -2.61344 0
M  V30 14301 H 1381.05 -0.816852 -1.25092 0
M  V30 14302 H 1382.93 0.322126 -4.20167 0
M  V30 14303 H 1381.61 0.843165 -3.12526 0
M  V30 14304 H 1380.52 -1.45159 -3.44789 0
M  V30 14305 H 1381.85 -1.89168 -4.54397 0
M  V30 14306 N 1383.5 1.34231 -0.825823 0
M  V30 14307 C 1384.46 2.27776 -0.25512 0
M  V30 14308 C 1385.46 1.50409 0.568654 0
M  V30 14309 O 1386.65 1.69907 0.384337 0
M  V30 14310 C 1383.79 3.348 0.642013 0
M  V30 14311 H 1384.98 2.79763 -1.0804 0
M  V30 14312 H 1382.53 1.44412 -0.597904 0
M  V30 14313 H 1383.27 2.88032 1.49024 0
M  V30 14314 H 1383.05 3.92064 0.0527756 0
M  V30 14315 H 1384.54 4.0457 1.03502 0
M  V30 14316 N 1384.98 0.581051 1.46498 0
M  V30 14317 C 1385.94 -0.142937 2.28754 0
M  V30 14318 C 1386.94 -0.820383 1.38298 0
M  V30 14319 O 1388.13 -0.672592 1.60692 0
M  V30 14320 C 1385.26 -1.21176 3.18637 0
M  V30 14321 H 1386.46 0.579918 2.9424 0
M  V30 14322 H 1384.01 0.338951 1.52581 0
M  V30 14323 H 1384.75 -1.96624 2.57894 0
M  V30 14324 H 1384.53 -0.730517 3.85235 0
M  V30 14325 H 1386.02 -1.71958 3.80552 0
M  V30 14326 N 1386.46 -1.54343 0.318742 0
M  V30 14327 C 1387.71 -2.00084 -0.284713 0
M  V30 14328 C 1388.03 -1.20855 -1.53033 0
M  V30 14329 O 1387.3 -0.309104 -1.93446 0
M  V30 14330 H 1385.88 -0.739123 -0.108193 0
M  V30 14331 H 1388.54 -1.90002 0.434174 0
M  V30 14332 H 1387.63 -3.07314 -0.544459 0
M  V30 14333 N 1387.94 -0.0468143 -1.5753 0
M  V30 14334 C 1388.88 0.946945 -2.12452 0
M  V30 14335 C 1389.88 1.32515 -1.05527 0
M  V30 14336 O 1391.08 1.30532 -1.23941 0
M  V30 14337 H 1387.46 0.323223 -0.678993 0
M  V30 14338 H 1389.43 0.45858 -2.94855 0
M  V30 14339 C 1388.18 2.21402 -2.68098 0
M  V30 14340 H 1387.5 1.93178 -3.50032 0
M  V30 14341 H 1388.94 2.89105 -3.10152 0
M  V30 14342 C 1387.4 2.95576 -1.61668 0
M  V30 14343 O 1387.93 3.88353 -1.02689 0
M  V30 14344 N 1386.14 2.58228 -1.33291 0
M  V30 14345 H 1385.68 1.82858 -1.8144 0
M  V30 14346 H 1385.64 3.08164 -0.623092 0
M  V30 14347 N 1389.41 1.55964 0.226527 0
M  V30 14348 C 1390.38 1.91184 1.26418 0
M  V30 14349 C 1391.38 0.789982 1.40057 0
M  V30 14350 O 1392.57 1.05778 1.38407 0
M  V30 14351 C 1389.7 2.15826 2.63878 0
M  V30 14352 H 1390.89 2.83986 0.963956 0
M  V30 14353 H 1388.45 1.49169 0.466726 0
M  V30 14354 H 1389.18 1.2556 2.99007 0
M  V30 14355 H 1388.97 2.97549 2.55356 0
M  V30 14356 H 1390.46 2.44188 3.38765 0
M  V30 14357 N 1390.89 -0.493031 1.4969 0
M  V30 14358 C 1392.12 -1.27517 1.63567 0
M  V30 14359 C 1392.54 -1.85526 0.310105 0
M  V30 14360 O 1391.9 -1.66246 -0.723314 0
M  V30 14361 C 1391.95 -2.37551 2.71296 0
M  V30 14362 O 1391.05 -3.41617 2.31023 0
M  V30 14363 H 1390.39 -0.376116 0.547205 0
M  V30 14364 H 1392.92 -0.589328 1.95929 0
M  V30 14365 H 1392.93 -2.83196 2.93708 0
M  V30 14366 H 1391.61 -1.94697 3.67513 0
M  V30 14367 H 1390.19 -3.01836 2.18974 0
M  V30 14368 N 1392.37 -1.38898 -0.744656 0
M  V30 14369 C 1393.33 -1.36633 -1.84022 0
M  V30 14370 C 1394.33 -0.265187 -1.58598 0
M  V30 14371 O 1395.52 -0.522569 -1.66177 0
M  V30 14372 C 1392.66 -1.12938 -3.21649 0
M  V30 14373 H 1393.85 -2.34111 -1.87435 0
M  V30 14374 H 1391.4 -1.24322 -0.947302 0
M  V30 14375 H 1392.14 -0.161027 -3.239 0
M  V30 14376 H 1391.92 -1.9267 -3.41498 0
M  V30 14377 H 1393.41 -1.14071 -4.01718 0
M  V30 14378 N 1393.85 0.973806 -1.23914 0
M  V30 14379 C 1395.1 1.71259 -1.07307 0
M  V30 14380 C 1395.42 1.91064 0.389831 0
M  V30 14381 O 1394.69 1.48401 1.27883 0
M  V30 14382 H 1393.27 0.634588 -0.39409 0
M  V30 14383 H 1395.93 1.17184 -1.55737 0
M  V30 14384 H 1395.03 2.69953 -1.56626 0
M  V30 14385 N 1395.33 1.05191 1.17357 0
M  V30 14386 C 1396.55 0.782373 1.91537 0
M  V30 14387 C 1396.97 -0.661935 1.76816 0
M  V30 14388 O 1396.33 -1.45221 1.10531 0
M  V30 14389 C 1396.38 1.15357 3.426 0
M  V30 14390 O 1396.1 2.54119 3.56869 0
M  V30 14391 C 1397.6 0.910167 4.33856 0
M  V30 14392 H 1394.82 0.284461 0.607719 0
M  V30 14393 H 1397.36 1.40259 1.48821 0
M  V30 14394 H 1395.52 0.578107 3.83062 0
M  V30 14395 H 1395.93 2.68668 4.50464 0
M  V30 14396 H 1397.41 1.21964 5.38358 0
M  V30 14397 H 1397.88 -0.154624 4.38928 0
M  V30 14398 H 1398.49 1.46947 3.99107 0
M  V30 14399 N 1396.8 -1.33791 0.83293 0
M  V30 14400 C 1398.05 -1.98266 0.426412 0
M  V30 14401 C 1398.38 -1.65848 -1.01035 0
M  V30 14402 O 1397.66 -0.93528 -1.70537 0
M  V30 14403 C 1397.94 -3.54356 0.640586 0
M  V30 14404 C 1397.79 -3.96482 2.12419 0
M  V30 14405 C 1399.11 -4.40022 0.0829237 0
M  V30 14406 H 1396.23 -0.720213 0.156404 0
M  V30 14407 H 1398.87 -1.58527 1.04735 0
M  V30 14408 H 1397.02 -3.88338 0.11204 0
M  V30 14409 H 1398.7 -3.72786 2.71714 0
M  V30 14410 H 1396.94 -3.46429 2.61092 0
M  V30 14411 H 1397.61 -5.05179 2.22482 0
M  V30 14412 H 1400.09 -4.12651 0.534634 0
M  V30 14413 H 1398.96 -5.48272 0.262511 0
M  V30 14414 H 1399.22 -4.30341 -1.01287 0
M  V30 14415 N 1398.28 -0.588812 -1.46187 0
M  V30 14416 C 1399.21 0.128595 -2.33146 0
M  V30 14417 C 1400.19 0.877608 -1.45712 0
M  V30 14418 O 1401.38 0.851866 -1.74519 0
M  V30 14419 C 1398.51 1.13886 -3.28096 0
M  V30 14420 C 1397.46 0.504296 -4.25019 0
M  V30 14421 C 1396.79 1.62147 -5.09522 0
M  V30 14422 C 1398.09 -0.562466 -5.19263 0
M  V30 14423 H 1399.78 -0.597455 -2.93378 0
M  V30 14424 H 1397.33 -0.288764 -1.41075 0
M  V30 14425 H 1399.28 1.64916 -3.8779 0
M  V30 14426 H 1398.01 1.89527 -2.65983 0
M  V30 14427 H 1396.66 0.0150325 -3.66597 0
M  V30 14428 H 1396.31 2.36769 -4.4379 0
M  V30 14429 H 1396.01 1.20249 -5.75164 0
M  V30 14430 H 1397.54 2.13441 -5.7208 0
M  V30 14431 H 1398.95 -0.137003 -5.73136 0
M  V30 14432 H 1397.35 -0.902115 -5.93281 0
M  V30 14433 H 1398.42 -1.4464 -4.62825 0
M  V30 14434 N 1399.76 1.54172 -0.326923 0
M  V30 14435 C 1400.69 2.27402 0.530154 0
M  V30 14436 C 1401.67 1.28325 1.11655 0
M  V30 14437 O 1402.86 1.57142 1.14105 0
M  V30 14438 C 1399.99 3.03435 1.68951 0
M  V30 14439 C 1398.94 4.09877 1.23226 0
M  V30 14440 C 1398.27 4.7377 2.47882 0
M  V30 14441 C 1399.57 5.21161 0.344698 0
M  V30 14442 H 1401.26 2.99291 -0.0806959 0
M  V30 14443 H 1398.81 1.43944 -0.0402511 0
M  V30 14444 H 1400.76 3.53396 2.29541 0
M  V30 14445 H 1399.48 2.29169 2.327 0
M  V30 14446 H 1398.14 3.60805 0.649267 0
M  V30 14447 H 1397.79 3.96116 3.10002 0
M  V30 14448 H 1397.49 5.45674 2.17977 0
M  V30 14449 H 1399.01 5.26507 3.09229 0
M  V30 14450 H 1400.43 5.66859 0.856979 0
M  V30 14451 H 1398.83 5.99941 0.138276 0
M  V30 14452 H 1399.9 4.80874 -0.623575 0
M  V30 14453 N 1401.24 0.0551678 1.57503 0
M  V30 14454 C 1402.65 -0.3014 1.56728 0
M  V30 14455 C 1402.85 -1.71169 1.06317 0
M  V30 14456 O 1401.91 -2.4197 0.721566 0
M  V30 14457 C 1403.22 -0.12622 3.00435 0
M  V30 14458 C 1404.77 -0.197022 3.12379 0
M  V30 14459 C 1405.25 -0.0503235 4.57972 0
M  V30 14460 N 1406.74 -0.106471 4.63078 0
M  V30 14461 C 1407.47 -0.0171325 5.73397 0
M  V30 14462 N 1406.97 0.124781 6.92688 0
M  V30 14463 N 1408.76 -0.0730028 5.62053 0
M  V30 14464 H 1400.91 0.977072 1.88592 0
M  V30 14465 H 1403.18 0.37963 0.868668 0
M  V30 14466 H 1402.88 0.846286 3.41366 0
M  V30 14467 H 1402.76 -0.885574 3.66657 0
M  V30 14468 H 1405.14 -1.16 2.71345 0
M  V30 14469 H 1405.22 0.593155 2.48828 0
M  V30 14470 H 1404.87 0.909352 4.99693 0
M  V30 14471 H 1404.8 -0.859695 5.19535 0
M  V30 14472 H 1407.29 -0.215241 3.77287 0
M  V30 14473 H 1407.6 0.185548 7.72577 0
M  V30 14474 H 1405.95 0.15992 6.94816 0
M  V30 14475 H 1409.14 -0.182456 4.67744 0
M  V30 14476 H 1409.31 7.85052e-05 6.48 0
M  V30 14477 N 1402.72 -1.56081 -0.218252 0
M  V30 14478 C 1403.96 -1.80421 -0.939135 0
M  V30 14479 C 1404.32 -0.628671 -1.81839 0
M  V30 14480 O 1403.61 0.377148 -1.87851 0
M  V30 14481 C 1403.8 -3.08199 -1.80965 0
M  V30 14482 C 1403.63 -4.38069 -1.01616 0
M  V30 14483 C 1402.4 -5.0029 -0.709772 0
M  V30 14484 C 1404.6 -5.12895 -0.379884 0
M  V30 14485 N 1402.58 -6.13811 0.104778 0
M  V30 14486 C 1403.95 -6.19284 0.29791 0
M  V30 14487 C 1406.01 -4.97036 -0.29325 0
M  V30 14488 C 1404.71 -7.11535 1.05405 0
M  V30 14489 C 1406.74 -5.8969 0.449435 0
M  V30 14490 C 1406.1 -6.95507 1.11576 0
M  V30 14491 H 1402.2 -0.711808 -0.32381 0
M  V30 14492 H 1404.78 -1.93567 -0.209735 0
M  V30 14493 H 1402.95 -2.9633 -2.51084 0
M  V30 14494 H 1404.69 -3.20717 -2.46826 0
M  V30 14495 H 1401.44 -4.62295 -1.0286 0
M  V30 14496 H 1401.87 -6.75144 0.500985 0
M  V30 14497 H 1406.51 -4.15276 -0.794059 0
M  V30 14498 H 1404.23 -7.92774 1.56637 0
M  V30 14499 H 1407.81 -5.79494 0.517515 0
M  V30 14500 H 1406.69 -7.65966 1.68126 0
M  V30 14501 N 1404.2 0.485086 -1.49949 0
M  V30 14502 C 1405.13 1.59312 -1.7071 0
M  V30 14503 C 1406.11 1.6076 -0.555896 0
M  V30 14504 O 1407.29 1.77249 -0.793504 0
M  V30 14505 C 1404.42 2.97718 -1.78834 0
M  V30 14506 C 1403.38 3.11136 -2.93902 0
M  V30 14507 C 1402.7 4.51051 -2.87154 0
M  V30 14508 C 1404 2.89665 -4.34617 0
M  V30 14509 H 1405.7 1.42192 -2.6348 0
M  V30 14510 H 1403.24 0.68262 -1.26792 0
M  V30 14511 H 1405.19 3.75148 -1.91943 0
M  V30 14512 H 1403.92 3.15963 -0.826744 0
M  V30 14513 H 1402.58 2.36135 -2.80421 0
M  V30 14514 H 1402.23 4.66195 -1.88869 0
M  V30 14515 H 1401.93 4.60967 -3.64394 0
M  V30 14516 H 1403.45 5.3052 -3.02293 0
M  V30 14517 H 1404.86 3.56853 -4.48697 0
M  V30 14518 H 1403.26 3.11039 -5.13201 0
M  V30 14519 H 1404.33 1.85642 -4.47956 0
M  V30 14520 N 1405.67 1.39291 0.737279 0
M  V30 14521 C 1407.08 1.32489 1.31543 0
M  V30 14522 C 1407.44 -0.0118162 1.96196 0
M  V30 14523 O 1406.56 -0.913938 1.96153 0
M  V30 14524 C 1407.16 2.39946 2.39189 0
M  V30 14525 C 1405.71 2.36671 2.92684 0
M  V30 14526 C 1404.86 2.21953 1.66229 0
M  V30 14527 H 1407.81 1.49412 0.534954 0
M  V30 14528 H 1407.83 2.06603 3.19524 0
M  V30 14529 H 1407.35 3.3722 1.92104 0
M  V30 14530 H 1405.45 1.43028 3.44055 0
M  V30 14531 H 1405.56 3.31441 3.45953 0
M  V30 14532 H 1403.92 1.69087 1.90478 0
M  V30 14533 H 1404.71 3.21194 1.21199 0
M  V30 14534 N 1407.15 -0.967221 1.24429 0
M  V30 14535 C 1408.56 -1.52488 1.07723 0
M  V30 14536 C 1408.91 -1.93031 -0.351191 0
M  V30 14537 O 1408.04 -1.77376 -1.23963 0
M  V30 14538 C 1408.63 -2.77107 1.94929 0
M  V30 14539 C 1407.19 -3.29227 1.82446 0
M  V30 14540 C 1406.34 -2.02133 1.89835 0
M  V30 14541 H 1409.29 -0.785465 1.37899 0
M  V30 14542 H 1409.31 -3.50459 1.48186 0
M  V30 14543 H 1408.82 -2.47567 2.98885 0
M  V30 14544 H 1406.92 -3.63617 0.813246 0
M  V30 14545 H 1407.04 -3.98095 2.66566 0
M  V30 14546 H 1405.4 -2.16867 1.3357 0
M  V30 14547 H 1406.18 -1.74958 2.95372 0
M  V30 14548 N 1408.63 -1.05812 -1.16797 0
M  V30 14549 C 1409.88 -0.773066 -1.87487 0
M  V30 14550 C 1410.21 0.698471 -1.81204 0
M  V30 14551 O 1409.48 1.51129 -1.22434 0
M  V30 14552 C 1409.77 -1.2621 -3.37258 0
M  V30 14553 C 1409.62 -2.79704 -3.52258 0
M  V30 14554 C 1410.94 -0.866104 -4.31494 0
M  V30 14555 H 1408.06 -0.282304 -0.680789 0
M  V30 14556 H 1410.7 -1.3132 -1.37314 0
M  V30 14557 H 1408.85 -0.802608 -3.80119 0
M  V30 14558 H 1410.52 -3.33824 -3.1837 0
M  V30 14559 H 1408.76 -3.18673 -2.94329 0
M  V30 14560 H 1409.44 -3.08985 -4.57419 0
M  V30 14561 H 1411.91 -1.26178 -3.96508 0
M  V30 14562 H 1410.79 -1.23581 -5.34807 0
M  V30 14563 H 1411.05 0.229391 -4.41504 0
M  V30 14564 N 1410.11 1.33347 -0.840014 0
M  V30 14565 C 1411.52 1.80077 -0.492851 0
M  V30 14566 C 1411.87 1.69495 0.988221 0
M  V30 14567 O 1410.99 1.2449 1.77006 0
M  V30 14568 C 1411.59 3.2696 -0.887827 0
M  V30 14569 C 1410.15 3.71703 -0.592785 0
M  V30 14570 C 1409.3 2.54742 -1.09554 0
M  V30 14571 H 1412.25 1.20853 -1.02861 0
M  V30 14572 H 1412.27 3.79983 -0.198327 0
M  V30 14573 H 1411.78 3.3463 -1.96581 0
M  V30 14574 H 1409.88 3.69559 0.475086 0
M  V30 14575 H 1409.99 4.65123 -1.14882 0
M  V30 14576 H 1408.36 2.49411 -0.516357 0
M  V30 14577 H 1409.14 2.65173 -2.18032 0
M  V30 14578 N 1411.59 0.596556 1.45873 0
M  V30 14579 C 1412.55 -0.118666 2.28893 0
M  V30 14580 C 1413.55 -0.805668 1.3916 0
M  V30 14581 O 1414.74 -0.655511 1.61396 0
M  V30 14582 C 1411.87 -1.17789 3.19904 0
M  V30 14583 H 1413.06 0.611093 2.93608 0
M  V30 14584 H 1410.62 0.355115 1.52212 0
M  V30 14585 H 1411.35 -1.93878 2.59965 0
M  V30 14586 H 1411.14 -0.689616 3.85988 0
M  V30 14587 H 1412.63 -1.67912 3.82355 0
M  V30 14588 N 1413.06 -1.53996 0.335095 0
M  V30 14589 C 1413.97 -2.28436 -0.534244 0
M  V30 14590 C 1414.99 -1.33224 -1.11926 0
M  V30 14591 O 1416.17 -1.66252 -1.13676 0
M  V30 14592 C 1413.23 -3.03634 -1.67354 0
M  V30 14593 C 1412.29 -4.14455 -1.11916 0
M  V30 14594 C 1411.52 -4.86058 -2.20416 0
M  V30 14595 O 1411.75 -4.57263 -3.40979 0
M  V30 14596 O 1410.68 -5.72704 -1.85185 0
M  V30 14597 H 1414.51 -3.03618 0.0706314 0
M  V30 14598 H 1412.09 -1.49062 0.100409 0
M  V30 14599 H 1413.97 -3.50687 -2.33659 0
M  V30 14600 H 1412.65 -2.31317 -2.26438 0
M  V30 14601 H 1411.56 -3.71725 -0.420871 0
M  V30 14602 H 1412.89 -4.8885 -0.573295 0
M  V30 14603 N 1414.54 -0.0635198 -1.57472 0
M  V30 14604 C 1415.96 0.293084 -1.56886 0
M  V30 14605 C 1416.16 1.70603 -1.07224 0
M  V30 14606 O 1415.21 2.41584 -0.734388 0
M  V30 14607 C 1416.53 0.110286 -3.00498 0
M  V30 14608 C 1418.07 0.180453 -3.12479 0
M  V30 14609 C 1418.55 0.0260354 -4.57993 0
M  V30 14610 N 1420.04 0.0819109 -4.63128 0
M  V30 14611 C 1420.78 -0.0132764 -5.73398 0
M  V30 14612 N 1420.27 -0.161514 -6.92612 0
M  V30 14613 N 1422.06 0.0431948 -5.62083 0
M  V30 14614 H 1414.22 -0.98706 -1.88072 0
M  V30 14615 H 1416.48 -0.384232 -0.866643 0
M  V30 14616 H 1416.18 -0.864378 -3.40913 0
M  V30 14617 H 1416.06 0.866117 -3.67122 0
M  V30 14618 H 1418.45 1.1456 -2.71956 0
M  V30 14619 H 1418.53 -0.606342 -2.4851 0
M  V30 14620 H 1418.17 -0.935839 -4.99204 0
M  V30 14621 H 1418.1 0.832131 -5.19984 0
M  V30 14622 H 1420.59 0.195229 -3.77395 0
M  V30 14623 H 1420.9 -0.226517 -7.72468 0
M  V30 14624 H 1419.25 -0.196766 -6.94721 0
M  V30 14625 H 1422.44 0.157648 -4.67834 0
M  V30 14626 H 1422.61 -0.0344435 -6.47991 0
M  V30 14627 N 1416.02 1.56195 0.209972 0
M  V30 14628 C 1416.97 1.94226 1.27981 0
M  V30 14629 C 1417.96 0.825742 1.47912 0
M  V30 14630 O 1419.17 1.01066 1.48949 0
M  V30 14631 H 1415.54 0.617395 0.429333 0
M  V30 14632 H 1417.51 2.83474 0.931946 0
M  V30 14633 C 1416.26 2.28527 2.62051 0
M  V30 14634 H 1415.59 3.1396 2.47526 0
M  V30 14635 H 1417.03 2.59012 3.35692 0
M  V30 14636 C 1415.48 1.11452 3.17931 0
M  V30 14637 O 1416.01 0.381713 3.99882 0
M  V30 14638 N 1414.22 0.895263 2.76466 0
M  V30 14639 H 1413.77 1.4929 2.09929 0
M  V30 14640 H 1413.73 0.113688 3.14194 0
M  V30 14641 N 1417.5 -0.477127 1.50204 0
M  V30 14642 C 1418.75 -1.22722 1.60573 0
M  V30 14643 C 1419.07 -1.92595 0.305326 0
M  V30 14644 O 1418.34 -1.83836 -0.676842 0
M  V30 14645 H 1416.92 -0.455973 0.591691 0
M  V30 14646 H 1419.58 -0.550915 1.86952 0
M  V30 14647 H 1418.67 -1.97837 2.41385 0
M  V30 14648 N 1418.98 -1.3968 -0.729882 0
M  V30 14649 C 1419.94 -1.38577 -1.82562 0
M  V30 14650 C 1420.94 -0.281994 -1.58308 0
M  V30 14651 O 1422.13 -0.540165 -1.65614 0
M  V30 14652 C 1419.26 -1.16343 -3.20433 0
M  V30 14653 H 1420.45 -2.36086 -1.84942 0
M  V30 14654 H 1418.01 -1.25319 -0.934063 0
M  V30 14655 H 1418.74 -0.195372 -3.23711 0
M  V30 14656 H 1418.53 -1.96282 -3.39435 0
M  V30 14657 H 1420.02 -1.18325 -4.00486 0
M  V30 14658 N 1420.45 0.960609 -1.2494 0
M  V30 14659 C 1421.7 1.69884 -1.08731 0
M  V30 14660 C 1422.02 1.92018 0.372602 0
M  V30 14661 O 1423.22 2.6348 0.655018 0
M  V30 14662 C 1421.68 3.05815 -1.8975 0
M  V30 14663 C 1421.29 2.91498 -3.40196 0
M  V30 14664 C 1423.03 3.83462 -1.82092 0
M  V30 14665 C 1420.94 4.22783 -4.13532 0
M  V30 14666 H 1419.87 0.637087 -0.403281 0
M  V30 14667 H 1422.52 1.06987 -1.49084 0
M  V30 14668 H 1420.9 3.69582 -1.42216 0
M  V30 14669 H 1422.07 2.367 -3.9536 0
M  V30 14670 H 1420.39 2.27312 -3.48882 0
M  V30 14671 H 1422.99 4.8069 -2.34181 0
M  V30 14672 H 1423.33 4.08782 -0.787597 0
M  V30 14673 H 1423.86 3.26435 -2.27344 0
M  V30 14674 H 1420.6 4.02653 -5.17253 0
M  V30 14675 H 1420.12 4.77369 -3.63152 0
M  V30 14676 H 1421.8 4.91361 -4.2092 0
M  V30 14677 N 1421.93 1.0643 1.16234 0
M  V30 14678 C 1423.18 0.782998 1.87075 0
M  V30 14679 C 1423.51 -0.688852 1.81572 0
M  V30 14680 O 1422.79 -1.50478 1.23234 0
M  V30 14681 C 1423.07 1.27997 3.36584 0
M  V30 14682 C 1422.92 2.81568 3.5077 0
M  V30 14683 C 1424.24 0.888975 4.31028 0
M  V30 14684 H 1421.36 0.28591 0.679282 0
M  V30 14685 H 1424 1.32046 1.36615 0
M  V30 14686 H 1422.15 0.822756 3.79688 0
M  V30 14687 H 1423.82 3.35508 3.16595 0
M  V30 14688 H 1422.07 3.2023 2.92635 0
M  V30 14689 H 1422.74 3.11406 4.55774 0
M  V30 14690 H 1425.21 1.28279 3.95833 0
M  V30 14691 H 1424.09 1.26416 5.34144 0
M  V30 14692 H 1424.35 -0.205973 4.4162 0
M  V30 14693 N 1423.41 -1.329 0.847073 0
M  V30 14694 C 1424.36 -2.29044 0.284199 0
M  V30 14695 C 1425.33 -1.54706 -0.604591 0
M  V30 14696 O 1426.51 -1.82966 -0.541116 0
M  V30 14697 C 1423.65 -3.4104 -0.527822 0
M  V30 14698 C 1422.77 -4.30273 0.385907 0
M  V30 14699 C 1421.9 -5.29391 -0.438009 0
M  V30 14700 C 1420.94 -6.10265 0.473596 0
M  V30 14701 N 1420.08 -7.01403 -0.312684 0
M  V30 14702 H 1424.92 -2.76582 1.10935 0
M  V30 14703 H 1422.45 -1.36085 0.558508 0
M  V30 14704 H 1424.41 -4.04686 -1.01417 0
M  V30 14705 H 1423.04 -2.94673 -1.31787 0
M  V30 14706 H 1422.09 -3.67275 0.99061 0
M  V30 14707 H 1423.41 -4.86837 1.08585 0
M  V30 14708 H 1422.56 -5.98604 -0.987842 0
M  V30 14709 H 1421.3 -4.73424 -1.17135 0
M  V30 14710 H 1420.3 -5.39963 1.03537 0
M  V30 14711 H 1421.53 -6.68316 1.20543 0
M  V30 14712 H 1419.47 -6.47875 -1.02926 0
M  V30 14713 H 1419.39 -7.55286 0.328376 0
M  V30 14714 H 1420.66 -7.74912 -0.844489 0
M  V30 14715 N 1424.89 -0.604284 -1.45555 0
M  V30 14716 C 1426.12 -0.104301 -2.06337 0
M  V30 14717 C 1426.53 1.21523 -1.45013 0
M  V30 14718 O 1425.87 1.75039 -0.557422 0
M  V30 14719 C 1425.93 0.113202 -3.59322 0
M  V30 14720 C 1425.6 -1.12402 -4.42961 0
M  V30 14721 C 1426.59 -2.04136 -4.78147 0
M  V30 14722 C 1424.28 -1.35192 -4.83765 0
M  V30 14723 C 1426.27 -3.16991 -5.52988 0
M  V30 14724 C 1423.96 -2.48348 -5.5836 0
M  V30 14725 C 1424.96 -3.39076 -5.92888 0
M  V30 14726 O 1424.64 -4.50264 -6.65971 0
M  V30 14727 H 1424.38 -0.0644639 -0.672919 0
M  V30 14728 H 1426.93 -0.830982 -1.8784 0
M  V30 14729 H 1425.16 0.894739 -3.76206 0
M  V30 14730 H 1426.85 0.564372 -4.01957 0
M  V30 14731 H 1427.62 -1.87753 -4.47184 0
M  V30 14732 H 1423.49 -0.654731 -4.56327 0
M  V30 14733 H 1427.04 -3.87831 -5.79856 0
M  V30 14734 H 1422.94 -2.64686 -5.88737 0
M  V30 14735 H 1423.7 -4.48904 -6.84418 0
M  V30 14736 N 1426.37 1.53816 -0.343257 0
M  V30 14737 C 1427.59 2.05326 0.254744 0
M  V30 14738 C 1428.01 1.21824 1.44237 0
M  V30 14739 O 1427.37 0.253507 1.80731 0
M  V30 14740 C 1427.42 3.55235 0.670075 0
M  V30 14741 O 1427.14 4.35568 -0.470322 0
M  V30 14742 C 1428.64 4.22915 1.32882 0
M  V30 14743 H 1425.86 0.669191 0.0492324 0
M  V30 14744 H 1428.4 1.98415 -0.495159 0
M  V30 14745 H 1426.56 3.6237 1.36992 0
M  V30 14746 H 1426.97 5.24315 -0.139303 0
M  V30 14747 H 1428.45 5.29197 1.57019 0
M  V30 14748 H 1428.92 3.75244 2.28229 0
M  V30 14749 H 1429.53 4.19973 0.67102 0
M  V30 14750 N 1427.84 0.0718701 1.57436 0
M  V30 14751 C 1429.09 -0.598116 1.93779 0
M  V30 14752 C 1429.42 -1.69258 0.952131 0
M  V30 14753 O 1428.7 -1.94491 -0.0186426 0
M  V30 14754 C 1428.98 -1.17499 3.40391 0
M  V30 14755 C 1428.83 -0.0871719 4.49716 0
M  V30 14756 C 1430.15 -2.08047 3.8782 0
M  V30 14757 H 1427.27 -0.215954 0.704651 0
M  V30 14758 H 1429.91 0.137854 1.89499 0
M  V30 14759 H 1428.06 -1.80221 3.44169 0
M  V30 14760 H 1429.74 0.545906 4.58058 0
M  V30 14761 H 1427.98 0.582213 4.29875 0
M  V30 14762 H 1428.65 -0.531202 5.49438 0
M  V30 14763 H 1431.13 -1.5526 3.86049 0
M  V30 14764 H 1430 -2.45345 4.91016 0
M  V30 14765 H 1430.26 -2.98879 3.25766 0
M  V30 14766 N 1429.32 -1.56304 -0.201686 0
M  V30 14767 C 1430.29 -1.93171 -1.2336 0
M  V30 14768 C 1431.29 -0.812164 -1.38782 0
M  V30 14769 O 1432.48 -1.07967 -1.36707 0
M  V30 14770 C 1429.61 -2.19997 -2.60411 0
M  V30 14771 H 1430.8 -2.85483 -0.918654 0
M  V30 14772 H 1428.35 -1.49893 -0.442935 0
M  V30 14773 H 1429.09 -1.30301 -2.96972 0
M  V30 14774 H 1428.87 -3.01574 -2.5059 0
M  V30 14775 H 1430.36 -2.49547 -3.34838 0
M  V30 14776 N 1430.8 0.469154 -1.50455 0
M  V30 14777 C 1432.05 1.2229 -1.6178 0
M  V30 14778 C 1432.38 1.91577 -0.318073 0
M  V30 14779 O 1431.65 1.82205 0.68057 0
M  V30 14780 C 1431.94 2.26504 -2.79943 0
M  V30 14781 C 1431.79 1.61509 -4.19804 0
M  V30 14782 C 1433.11 3.27796 -2.93662 0
M  V30 14783 H 1430.23 0.443241 -0.588817 0
M  V30 14784 H 1432.87 0.516431 -1.82847 0
M  V30 14785 H 1431.02 2.86757 -2.62112 0
M  V30 14786 H 1432.69 1.04838 -4.49229 0
M  V30 14787 H 1430.94 0.918162 -4.23972 0
M  V30 14788 H 1431.61 2.37248 -4.98415 0
M  V30 14789 H 1434.08 2.77568 -3.09992 0
M  V30 14790 H 1432.96 3.98041 -3.77961 0
M  V30 14791 H 1433.22 3.92033 -2.04359 0
M  V30 14792 N 1432.28 1.40065 0.722464 0
M  V30 14793 C 1433.69 1.21944 1.02965 0
M  V30 14794 C 1433.89 0.0898069 2.013 0
M  V30 14795 O 1432.95 -0.554519 2.46336 0
M  V30 14796 C 1434.26 2.55848 1.57995 0
M  V30 14797 C 1435.81 2.62801 1.70013 0
M  V30 14798 C 1436.29 3.96957 2.2845 0
M  V30 14799 N 1437.78 3.98662 2.35844 0
M  V30 14800 C 1438.51 4.99248 2.82026 0
M  V30 14801 N 1438.01 6.1023 3.28012 0
M  V30 14802 N 1439.8 4.8662 2.81349 0
M  V30 14803 H 1431.95 2.12283 0.0705301 0
M  V30 14804 H 1434.22 0.943338 0.0938991 0
M  V30 14805 H 1433.92 3.39125 0.932034 0
M  V30 14806 H 1433.8 2.76452 2.5662 0
M  V30 14807 H 1436.18 1.799 2.33923 0
M  V30 14808 H 1436.26 2.46034 0.700062 0
M  V30 14809 H 1435.91 4.80295 1.65164 0
M  V30 14810 H 1435.84 4.1105 3.29158 0
M  V30 14811 H 1438.33 3.18518 2.03358 0
M  V30 14812 H 1438.64 6.82878 3.61797 0
M  V30 14813 H 1436.99 6.13805 3.25988 0
M  V30 14814 H 1440.18 3.99015 2.44755 0
M  V30 14815 H 1440.35 5.65155 3.17024 0
M  V30 14816 N 1433.76 -0.95397 1.25448 0
M  V30 14817 C 1434.67 -2.08452 1.07634 0
M  V30 14818 C 1435.68 -1.73995 0.013294 0
M  V30 14819 O 1436.86 -2.00256 0.214367 0
M  V30 14820 C 1433.92 -3.39606 0.697756 0
M  V30 14821 C 1432.99 -3.87926 1.83881 0
M  V30 14822 C 1432.22 -5.12821 1.47819 0
M  V30 14823 O 1432.44 -5.69172 0.374143 0
M  V30 14824 O 1431.38 -5.55866 2.3086 0
M  V30 14825 H 1435.2 -2.26382 2.02447 0
M  V30 14826 H 1432.79 -1.06877 1.04392 0
M  V30 14827 H 1434.67 -4.18438 0.498778 0
M  V30 14828 H 1433.34 -3.22944 -0.221108 0
M  V30 14829 H 1432.25 -3.10095 2.09265 0
M  V30 14830 H 1433.58 -4.09087 2.73694 0
M  V30 14831 N 1435.24 -1.07045 -1.15668 0
M  V30 14832 C 1436.2 -0.69198 -2.18505 0
M  V30 14833 C 1437.2 0.266185 -1.58582 0
M  V30 14834 O 1438.39 0.0475566 -1.74135 0
M  V30 14835 C 1435.52 -0.0194196 -3.40894 0
M  V30 14836 H 1436.71 -1.60241 -2.53501 0
M  V30 14837 H 1434.27 -0.866598 -1.30076 0
M  V30 14838 H 1435 0.903398 -3.11463 0
M  V30 14839 H 1434.79 -0.708519 -3.85645 0
M  V30 14840 H 1436.28 0.230829 -4.16962 0
M  V30 14841 N 1436.71 1.32449 -0.85411 0
M  V30 14842 C 1437.96 1.96881 -0.45632 0
M  V30 14843 C 1438.28 1.67926 0.991248 0
M  V30 14844 O 1437.55 0.986195 1.69266 0
M  V30 14845 H 1436.13 0.728378 -0.165752 0
M  V30 14846 H 1438.79 1.61542 -1.09042 0
M  V30 14847 H 1437.89 3.0626 -0.600927 0
M  V30 14848 N 1438.19 0.611994 1.45232 0
M  V30 14849 C 1439.15 -0.0943825 2.29006 0
M  V30 14850 C 1440.15 -0.790863 1.40007 0
M  V30 14851 O 1441.34 -0.638356 1.62082 0
M  V30 14852 C 1438.48 -1.1439 3.21135 0
M  V30 14853 H 1439.67 0.6422 2.92943 0
M  V30 14854 H 1437.22 0.37124 1.51827 0
M  V30 14855 H 1437.96 -1.9111 2.62007 0
M  V30 14856 H 1437.74 -0.648638 3.86698 0
M  V30 14857 H 1439.23 -1.63848 3.84114 0
M  V30 14858 N 1439.67 -1.53632 0.351409 0
M  V30 14859 C 1440.6 -2.28217 -0.49391 0
M  V30 14860 C 1441.58 -1.30085 -1.09599 0
M  V30 14861 O 1442.77 -1.58938 -1.1159 0
M  V30 14862 C 1439.9 -3.06085 -1.64102 0
M  V30 14863 C 1438.85 -4.11786 -1.16689 0
M  V30 14864 C 1438.18 -4.77654 -2.40314 0
M  V30 14865 C 1439.48 -5.21644 -0.261742 0
M  V30 14866 H 1441.17 -2.99125 0.1283 0
M  V30 14867 H 1438.72 -1.43861 0.0631462 0
M  V30 14868 H 1440.67 -3.57003 -2.2389 0
M  V30 14869 H 1439.39 -2.32842 -2.29025 0
M  V30 14870 H 1438.05 -3.61792 -0.591784 0
M  V30 14871 H 1437.7 -4.00997 -3.03661 0
M  V30 14872 H 1437.4 -5.49072 -2.09268 0
M  V30 14873 H 1438.92 -5.3136 -3.00813 0
M  V30 14874 H 1440.34 -5.6815 -0.766689 0
M  V30 14875 H 1438.73 -6.00085 -0.0428132 0
M  V30 14876 H 1439.8 -4.79821 0.699999 0
M  V30 14877 N 1441.15 -0.0802183 -1.57396 0
M  V30 14878 C 1442.4 0.585802 -1.93424 0
M  V30 14879 C 1442.72 1.69638 -0.961662 0
M  V30 14880 O 1441.99 1.95897 -0.011202 0
M  V30 14881 H 1440.57 0.219382 -0.714059 0
M  V30 14882 H 1443.23 -0.140055 -1.94396 0
M  V30 14883 H 1442.32 1.00566 -2.95454 0
M  V30 14884 N 1442.63 1.56409 0.193394 0
M  V30 14885 C 1444.04 1.70624 0.757915 0
M  V30 14886 C 1444.39 0.687074 1.83776 0
M  V30 14887 O 1443.51 -0.15616 2.15836 0
M  V30 14888 C 1444.11 3.09352 1.38156 0
M  V30 14889 C 1442.67 3.25326 1.89315 0
M  V30 14890 C 1441.81 2.66576 0.763727 0
M  V30 14891 H 1444.76 1.58668 -0.0317034 0
M  V30 14892 H 1444.79 3.06776 2.25098 0
M  V30 14893 H 1444.3 3.83506 0.595398 0
M  V30 14894 H 1442.4 2.5609 2.70644 0
M  V30 14895 H 1442.51 4.32848 2.05376 0
M  V30 14896 H 1440.88 2.25797 1.17846 0
M  V30 14897 H 1441.66 3.43298 -0.0102243 0
M  V30 14898 N 1444.1 -0.461169 1.50702 0
M  V30 14899 C 1445.07 -1.54032 1.69725 0
M  V30 14900 C 1446.07 -1.50445 0.567707 0
M  V30 14901 O 1447.26 -1.52889 0.834901 0
M  V30 14902 C 1444.39 -2.93642 1.73168 0
M  V30 14903 H 1445.58 -1.38478 2.66015 0
M  V30 14904 H 1443.13 -0.688235 1.40332 0
M  V30 14905 H 1443.87 -3.14629 0.786078 0
M  V30 14906 H 1443.65 -2.97652 2.55236 0
M  V30 14907 H 1445.14 -3.71972 1.89807 0
M  V30 14908 N 1445.58 -1.40446 -0.715026 0
M  V30 14909 C 1447 -1.22488 -1.02317 0
M  V30 14910 C 1447.2 -0.100481 -2.01249 0
M  V30 14911 O 1446.25 0.541447 -2.46626 0
M  V30 14912 C 1447.57 -2.56682 -1.56636 0
M  V30 14913 C 1449.11 -2.63699 -1.68617 0
M  V30 14914 C 1449.59 -3.98163 -2.26342 0
M  V30 14915 N 1451.08 -3.99907 -2.33727 0
M  V30 14916 C 1451.82 -5.00737 -2.79375 0
M  V30 14917 N 1451.31 -6.11961 -3.24771 0
M  V30 14918 N 1453.1 -4.88106 -2.78764 0
M  V30 14919 H 1445.26 -2.12317 -0.0592712 0
M  V30 14920 H 1447.52 -0.943823 -0.088895 0
M  V30 14921 H 1447.22 -3.39615 -0.914036 0
M  V30 14922 H 1447.1 -2.77809 -2.55151 0
M  V30 14923 H 1449.49 -1.81138 -2.32966 0
M  V30 14924 H 1449.57 -2.46402 -0.687004 0
M  V30 14925 H 1449.21 -4.81164 -1.62614 0
M  V30 14926 H 1449.14 -4.1279 -3.26974 0
M  V30 14927 H 1451.63 -3.19592 -2.01666 0
M  V30 14928 H 1451.94 -6.84787 -3.58171 0
M  V30 14929 H 1450.29 -6.15525 -3.22729 0
M  V30 14930 H 1453.48 -4.00307 -2.42635 0
M  V30 14931 H 1453.65 -5.66828 -3.14023 0
M  V30 14932 N 1447.06 0.947303 -1.25952 0
M  V30 14933 C 1447.97 2.07878 -1.08738 0
M  V30 14934 C 1448.99 1.73985 -0.0225212 0
M  V30 14935 O 1450.16 2.00139 -0.224984 0
M  V30 14936 C 1447.23 3.39231 -0.715756 0
M  V30 14937 C 1446.29 3.86945 -1.85935 0
M  V30 14938 C 1445.52 5.1203 -1.50537 0
M  V30 14939 O 1445.74 5.68965 -0.404323 0
M  V30 14940 O 1444.68 5.54634 -2.33805 0
M  V30 14941 H 1448.5 2.25305 -2.03645 0
M  V30 14942 H 1446.09 1.06321 -1.04958 0
M  V30 14943 H 1447.97 4.18167 -0.520962 0
M  V30 14944 H 1446.65 3.23057 0.203978 0
M  V30 14945 H 1445.55 3.08981 -2.10906 0
M  V30 14946 H 1446.89 4.0763 -2.75859 0
M  V30 14947 N 1448.54 1.07657 1.15099 0
M  V30 14948 C 1449.77 0.822825 1.89835 0
M  V30 14949 C 1450.18 -0.624281 1.7818 0
M  V30 14950 O 1449.54 -1.42844 1.13587 0
M  V30 14951 C 1449.59 1.22598 3.40076 0
M  V30 14952 O 1449.31 2.61631 3.51398 0
M  V30 14953 C 1450.81 1.00199 4.31828 0
M  V30 14954 H 1448.03 0.297288 0.601549 0
M  V30 14955 H 1450.58 1.43384 1.45813 0
M  V30 14956 H 1448.73 0.65923 3.8175 0
M  V30 14957 H 1449.14 2.78163 4.44664 0
M  V30 14958 H 1450.62 1.33355 5.35649 0
M  V30 14959 H 1451.1 -0.0614865 4.39157 0
M  V30 14960 H 1451.7 1.5538 3.959 0
M  V30 14961 N 1450.02 -1.31994 0.861122 0
M  V30 14962 C 1450.93 -2.32495 0.313555 0
M  V30 14963 C 1451.94 -1.64331 -0.571966 0
M  V30 14964 O 1453.12 -1.9582 -0.470794 0
M  V30 14965 C 1450.18 -3.43311 -0.483603 0
M  V30 14966 C 1449.24 -4.27153 0.428825 0
M  V30 14967 C 1448.48 -5.32676 -0.330383 0
M  V30 14968 O 1448.7 -5.48665 -1.55957 0
M  V30 14969 O 1447.63 -6.01116 0.307174 0
M  V30 14970 H 1451.46 -2.81234 1.14636 0
M  V30 14971 H 1449.05 -1.35734 0.624239 0
M  V30 14972 H 1450.93 -4.10877 -0.935831 0
M  V30 14973 H 1449.6 -2.9675 -1.2931 0
M  V30 14974 H 1448.51 -3.62372 0.929366 0
M  V30 14975 H 1449.84 -4.77255 1.20368 0
M  V30 14976 N 1451.49 -0.619688 -1.44906 0
M  V30 14977 C 1452.42 0.0791121 -2.33366 0
M  V30 14978 C 1453.41 0.846503 -1.47541 0
M  V30 14979 O 1454.59 0.814657 -1.76287 0
M  V30 14980 C 1451.72 1.06901 -3.30438 0
M  V30 14981 C 1450.67 0.41403 -4.25993 0
M  V30 14982 C 1450 1.51303 -5.12846 0
M  V30 14983 C 1451.3 -0.672483 -5.17953 0
M  V30 14984 H 1452.99 -0.659551 -2.92045 0
M  V30 14985 H 1450.54 -0.318623 -1.40431 0
M  V30 14986 H 1452.49 1.56653 -3.912 0
M  V30 14987 H 1451.22 1.83842 -2.69944 0
M  V30 14988 H 1449.88 -0.0627315 -3.66546 0
M  V30 14989 H 1449.52 2.27303 -4.48712 0
M  V30 14990 H 1449.22 1.08022 -5.77586 0
M  V30 14991 H 1450.75 2.01258 -5.76479 0
M  V30 14992 H 1452.16 -0.258542 -5.72717 0
M  V30 14993 H 1450.56 -1.02776 -5.91234 0
M  V30 14994 H 1451.63 -1.54425 -4.59653 0
M  V30 14995 N 1452.97 1.53444 -0.359552 0
M  V30 14996 C 1454.38 1.86308 0.120955 0
M  V30 14997 C 1454.73 1.28033 1.48667 0
M  V30 14998 O 1453.86 0.600041 2.07915 0
M  V30 14999 C 1454.45 3.38044 0.226255 0
M  V30 15000 C 1453.01 3.70727 0.65101 0
M  V30 15001 C 1452.16 2.76538 -0.205482 0
M  V30 15002 H 1455.11 1.47778 -0.578569 0
M  V30 15003 H 1455.13 3.65699 1.05092 0
M  V30 15004 H 1454.64 3.80428 -0.767874 0
M  V30 15005 H 1452.75 3.33897 1.65359 0
M  V30 15006 H 1452.86 4.77168 0.429802 0
M  V30 15007 H 1451.22 2.52622 0.3247 0
M  V30 15008 H 1452.01 3.21754 -1.19704 0
M  V30 15009 N 1454.45 0.0885642 1.57351 0
M  V30 15010 C 1455.41 -0.858178 2.12528 0
M  V30 15011 C 1456.41 -1.21522 1.05304 0
M  V30 15012 O 1457.6 -1.14573 1.3122 0
M  V30 15013 C 1454.74 -2.15619 2.64048 0
M  V30 15014 H 1455.93 -0.37918 2.97493 0
M  V30 15015 H 1453.48 -0.160354 1.55475 0
M  V30 15016 H 1454.22 -2.68018 1.82584 0
M  V30 15017 H 1454 -1.90995 3.42437 0
M  V30 15018 H 1455.49 -2.83359 3.06753 0
M  V30 15019 N 1455.93 -1.56509 -0.185096 0
M  V30 15020 C 1456.89 -1.94468 -1.21305 0
M  V30 15021 C 1457.89 -0.826838 -1.37913 0
M  V30 15022 O 1459.08 -1.09411 -1.35554 0
M  V30 15023 C 1456.21 -2.22747 -2.58063 0
M  V30 15024 H 1457.41 -2.86442 -0.888323 0
M  V30 15025 H 1454.96 -1.50354 -0.427012 0
M  V30 15026 H 1455.69 -1.33443 -2.95573 0
M  V30 15027 H 1455.48 -3.04215 -2.47378 0
M  V30 15028 H 1456.97 -2.53084 -3.32172 0
M  V30 15029 N 1457.41 0.45317 -1.50944 0
M  V30 15030 C 1458.37 1.5313 -1.7054 0
M  V30 15031 C 1459.37 1.50142 -0.575678 0
M  V30 15032 O 1460.56 1.52444 -0.842997 0
M  V30 15033 C 1457.69 2.92719 -1.74723 0
M  V30 15034 H 1458.88 1.37066 -2.66745 0
M  V30 15035 H 1456.44 0.680783 -1.40695 0
M  V30 15036 H 1457.17 3.14208 -0.802753 0
M  V30 15037 H 1456.96 2.96295 -2.56811 0
M  V30 15038 H 1458.45 3.7096 -1.91777 0
M  V30 15039 N 1458.88 1.40823 0.707568 0
M  V30 15040 C 1459.79 1.44058 1.85161 0
M  V30 15041 C 1460.81 0.332357 1.70796 0
M  V30 15042 O 1461.99 0.578205 1.92922 0
M  V30 15043 C 1459.05 1.3091 3.21035 0
M  V30 15044 C 1458.11 2.51944 3.47595 0
M  V30 15045 C 1457.35 2.39414 4.76987 0
M  V30 15046 O 1457.57 1.41224 5.52641 0
M  V30 15047 O 1456.5 3.28944 5.04063 0
M  V30 15048 H 1460.33 2.40551 1.85388 0
M  V30 15049 H 1457.91 1.22232 0.859052 0
M  V30 15050 H 1459.8 1.25816 4.02179 0
M  V30 15051 H 1458.47 0.375263 3.21517 0
M  V30 15052 H 1457.38 2.62615 2.66428 0
M  V30 15053 H 1458.71 3.44115 3.51917 0
M  V30 15054 N 1460.36 -0.94061 1.26453 0
M  V30 15055 C 1461.77 -1.50169 1.10934 0
M  V30 15056 C 1462.12 -1.93733 -0.310167 0
M  V30 15057 O 1461.25 -1.79966 -1.20172 0
M  V30 15058 C 1461.84 -2.7291 2.00763 0
M  V30 15059 C 1460.4 -3.25283 1.89388 0
M  V30 15060 C 1459.55 -1.98061 1.9408 0
M  V30 15061 H 1462.5 -0.756038 1.39534 0
M  V30 15062 H 1462.52 -3.47237 1.55586 0
M  V30 15063 H 1462.03 -2.41172 3.04069 0
M  V30 15064 H 1460.14 -3.6181 0.890192 0
M  V30 15065 H 1460.25 -3.92351 2.7495 0
M  V30 15066 H 1458.61 -2.13985 1.3814 0
M  V30 15067 H 1459.4 -1.68654 2.99016 0
M  V30 15068 N 1461.84 -1.08266 -1.14527 0
M  V30 15069 C 1463.09 -0.809856 -1.85164 0
M  V30 15070 C 1463.41 0.666263 -1.83265 0
M  V30 15071 O 1462.68 1.48295 -1.28006 0
M  V30 15072 H 1461.26 -0.296598 -0.685594 0
M  V30 15073 H 1463.92 -1.36834 -1.38789 0
M  V30 15074 H 1463.02 -1.15272 -2.90032 0
M  V30 15075 N 1463.32 1.31536 -0.86811 0
M  V30 15076 C 1464.28 2.26849 -0.327456 0
M  V30 15077 C 1465.28 1.52142 0.520514 0
M  V30 15078 O 1466.47 1.71044 0.330088 0
M  V30 15079 C 1463.6 3.36673 0.535174 0
M  V30 15080 H 1464.8 2.76184 -1.16886 0
M  V30 15081 H 1462.35 1.42437 -0.643545 0
M  V30 15082 H 1463.09 2.92627 1.39785 0
M  V30 15083 H 1462.87 3.92034 -0.0719835 0
M  V30 15084 H 1464.36 4.07658 0.905786 0
M  V30 15085 N 1464.8 0.627364 1.44575 0
M  V30 15086 C 1465.71 -0.0811184 2.3446 0
M  V30 15087 C 1466.72 -0.839668 1.52399 0
M  V30 15088 O 1467.9 -0.792784 1.8514 0
M  V30 15089 C 1464.96 -1.05296 3.30323 0
M  V30 15090 C 1464.03 -0.294201 4.28291 0
M  V30 15091 C 1463.26 -1.21975 5.19575 0
M  V30 15092 O 1463.48 -2.45834 5.14706 0
M  V30 15093 O 1462.42 -0.70611 5.97744 0
M  V30 15094 H 1466.24 0.658067 2.96485 0
M  V30 15095 H 1463.83 0.387565 1.44285 0
M  V30 15096 H 1465.71 -1.61218 3.89341 0
M  V30 15097 H 1464.38 -1.77283 2.70837 0
M  V30 15098 H 1463.29 0.307969 3.7283 0
M  V30 15099 H 1464.62 0.385567 4.90687 0
M  V30 15100 N 1466.28 -1.53251 0.367684 0
M  V30 15101 C 1467.22 -2.27318 -0.4929 0
M  V30 15102 C 1468.22 -1.30376 -1.08159 0
M  V30 15103 O 1469.42 -1.47996 -1.02455 0
M  V30 15104 H 1465.8 -0.730709 -0.177677 0
M  V30 15105 H 1467.77 -2.98005 0.153525 0
M  V30 15106 C 1466.52 -3.07678 -1.61955 0
M  V30 15107 H 1465.84 -3.82117 -1.17587 0
M  V30 15108 H 1467.28 -3.62678 -2.19638 0
M  V30 15109 C 1465.74 -2.18648 -2.5631 0
M  V30 15110 O 1466.27 -1.79869 -3.5918 0
M  V30 15111 N 1464.48 -1.83239 -2.25548 0
M  V30 15112 H 1464.02 -2.14973 -1.4193 0
M  V30 15113 H 1463.98 -1.23957 -2.88933 0
M  V30 15114 N 1467.75 -0.0969077 -1.57302 0
M  V30 15115 C 1468.72 0.846895 -2.1298 0
M  V30 15116 C 1469.72 1.20962 -1.05947 0
M  V30 15117 O 1470.91 1.13876 -1.31826 0
M  V30 15118 C 1468.04 2.14215 -2.65188 0
M  V30 15119 H 1469.23 0.363398 -2.9769 0
M  V30 15120 H 1466.78 0.152107 -1.55558 0
M  V30 15121 H 1467.52 2.67046 -1.84002 0
M  V30 15122 H 1467.3 1.89176 -3.43445 0
M  V30 15123 H 1468.79 2.81728 -3.08252 0
M  V30 15124 N 1469.23 1.56605 0.176793 0
M  V30 15125 C 1470.16 1.99014 1.2213 0
M  V30 15126 C 1471.14 0.86487 1.46472 0
M  V30 15127 O 1472.33 1.13055 1.57899 0
M  V30 15128 C 1469.46 2.34534 2.56146 0
M  V30 15129 C 1468.41 3.4997 2.46384 0
M  V30 15130 C 1467.74 3.71217 3.8484 0
M  V30 15131 C 1469.04 4.83592 1.97323 0
M  V30 15132 H 1470.73 2.86517 0.8688 0
M  V30 15133 H 1468.28 1.37846 0.416481 0
M  V30 15134 H 1470.23 2.62799 3.29416 0
M  V30 15135 H 1468.95 1.43933 2.93174 0
M  V30 15136 H 1467.61 3.21824 1.75569 0
M  V30 15137 H 1467.26 2.77916 4.19251 0
M  V30 15138 H 1466.96 4.48885 3.79178 0
M  V30 15139 H 1468.49 4.01877 4.59704 0
M  V30 15140 H 1469.9 5.10768 2.60363 0
M  V30 15141 H 1468.3 5.64858 2.02622 0
M  V30 15142 H 1469.37 4.75951 0.927275 0
M  V30 15143 N 1470.71 -0.445159 1.51182 0
M  V30 15144 C 1471.94 -1.21787 1.67259 0
M  V30 15145 C 1472.35 -1.85206 0.366641 0
M  V30 15146 O 1471.71 -1.70376 -0.654095 0
M  V30 15147 C 1471.76 -2.30765 2.78262 0
M  V30 15148 O 1471.48 -1.69942 4.03796 0
M  V30 15149 C 1472.98 -3.21186 3.05539 0
M  V30 15150 H 1470.2 -0.367364 0.561502 0
M  V30 15151 H 1472.75 -0.528415 1.97555 0
M  V30 15152 H 1470.9 -2.9544 2.50587 0
M  V30 15153 H 1471.32 -2.41905 4.65384 0
M  V30 15154 H 1472.79 -3.93805 3.8681 0
M  V30 15155 H 1473.27 -3.81487 2.17634 0
M  V30 15156 H 1473.87 -2.62221 3.34844 0
M  V30 15157 N 1472.19 -1.41197 -0.700089 0
M  V30 15158 C 1473.12 -1.45456 -1.8266 0
M  V30 15159 C 1474.1 -0.313719 -1.67182 0
M  V30 15160 O 1475.28 -0.524528 -1.86982 0
M  V30 15161 C 1472.41 -1.33161 -3.20758 0
M  V30 15162 C 1471.37 -2.4501 -3.50933 0
M  V30 15163 C 1470.69 -2.17782 -4.88339 0
M  V30 15164 C 1471.99 -3.87352 -3.50365 0
M  V30 15165 H 1473.69 -2.39735 -1.79353 0
M  V30 15166 H 1471.23 -1.1539 -0.861465 0
M  V30 15167 H 1473.19 -1.34754 -3.99274 0
M  V30 15168 H 1471.91 -0.353646 -3.2468 0
M  V30 15169 H 1470.57 -2.42692 -2.74766 0
M  V30 15170 H 1470.22 -1.1834 -4.88881 0
M  V30 15171 H 1469.92 -2.92728 -5.09494 0
M  V30 15172 H 1471.44 -2.21083 -5.6917 0
M  V30 15173 H 1472.86 -3.9141 -4.18893 0
M  V30 15174 H 1471.25 -4.61944 -3.83051 0
M  V30 15175 H 1472.32 -4.15827 -2.4943 0
M  V30 15176 N 1473.67 0.933891 -1.2695 0
M  V30 15177 C 1474.6 2.03768 -1.04934 0
M  V30 15178 C 1475.61 1.62798 -0.00740752 0
M  V30 15179 O 1476.8 1.76765 -0.248289 0
M  V30 15180 C 1473.9 3.34097 -0.568515 0
M  V30 15181 C 1473.07 4.03794 -1.68133 0
M  V30 15182 C 1472.13 5.12397 -1.19731 0
M  V30 15183 O 1471.16 5.36701 -1.89579 0
M  V30 15184 N 1472.36 5.80479 -0.0496327 0
M  V30 15185 H 1475.12 2.23219 -1.99984 0
M  V30 15186 H 1472.69 1.10386 -1.18433 0
M  V30 15187 H 1474.68 4.04053 -0.228736 0
M  V30 15188 H 1473.25 3.11265 0.288587 0
M  V30 15189 H 1472.47 3.27655 -2.1917 0
M  V30 15190 H 1473.76 4.4711 -2.42837 0
M  V30 15191 H 1473.15 5.63179 0.533509 0
M  V30 15192 H 1471.71 6.5139 0.231014 0
M  V30 15193 N 1475.14 1.08871 1.13951 0
M  V30 15194 C 1476.39 0.819665 1.84732 0
M  V30 15195 C 1476.71 -0.656535 1.83615 0
M  V30 15196 O 1475.98 -1.47614 1.28791 0
M  V30 15197 H 1474.56 0.30023 0.684011 0
M  V30 15198 H 1477.22 1.37568 1.38062 0
M  V30 15199 H 1476.32 1.16809 2.89417 0
M  V30 15200 N 1476.62 -1.31073 0.875073 0
M  V30 15201 C 1477.55 -2.30855 0.350468 0
M  V30 15202 C 1478.53 -1.60569 -0.561384 0
M  V30 15203 O 1479.72 -1.88242 -0.477329 0
M  V30 15204 C 1476.85 -3.44444 -0.444493 0
M  V30 15205 C 1475.8 -4.26357 0.374716 0
M  V30 15206 C 1475.13 -5.31903 -0.546243 0
M  V30 15207 C 1476.43 -4.96817 1.61153 0
M  V30 15208 H 1478.12 -2.74983 1.18427 0
M  V30 15209 H 1475.67 -1.32199 0.570909 0
M  V30 15210 H 1477.62 -4.13304 -0.82206 0
M  V30 15211 H 1476.34 -2.99096 -1.31185 0
M  V30 15212 H 1475 -3.59171 0.734295 0
M  V30 15213 H 1474.65 -4.82803 -1.41102 0
M  V30 15214 H 1474.35 -5.876 -0.00198173 0
M  V30 15215 H 1475.88 -6.03621 -0.920542 0
M  V30 15216 H 1477.29 -5.58247 1.30511 0
M  V30 15217 H 1475.69 -5.62334 2.09524 0
M  V30 15218 H 1476.76 -4.2351 2.36151 0
M  V30 15219 N 1478.1 -0.635022 -1.4424 0
M  V30 15220 C 1479.05 0.0675707 -2.30701 0
M  V30 15221 C 1480.02 0.832919 -1.43707 0
M  V30 15222 O 1481.2 0.813177 -1.72604 0
M  V30 15223 C 1478.34 1.04053 -3.2904 0
M  V30 15224 C 1477.46 0.273191 -4.31135 0
M  V30 15225 C 1476.59 1.23831 -5.16565 0
M  V30 15226 C 1475.63 0.460359 -6.10366 0
M  V30 15227 N 1474.77 1.37614 -6.88481 0
M  V30 15228 H 1479.61 -0.675656 -2.90239 0
M  V30 15229 H 1477.14 -0.344971 -1.42998 0
M  V30 15230 H 1479.1 1.61805 -3.84545 0
M  V30 15231 H 1477.73 1.75084 -2.71193 0
M  V30 15232 H 1476.78 -0.420315 -3.78071 0
M  V30 15233 H 1478.1 -0.332548 -4.9769 0
M  V30 15234 H 1477.25 1.88704 -5.76607 0
M  V30 15235 H 1475.99 1.87797 -4.50093 0
M  V30 15236 H 1474.99 -0.201836 -5.49429 0
M  V30 15237 H 1476.22 -0.174639 -6.78875 0
M  V30 15238 H 1474.16 2.00294 -6.24675 0
M  V30 15239 H 1474.08 0.82452 -7.5149 0
M  V30 15240 H 1475.35 2.01359 -7.53044 0
M  V30 15241 N 1479.58 1.53054 -0.375806 0
M  V30 15242 C 1480.99 1.86426 0.101188 0
M  V30 15243 C 1481.34 1.29603 1.47301 0
M  V30 15244 O 1480.47 0.622059 2.07266 0
M  V30 15245 C 1481.06 3.38265 0.190389 0
M  V30 15246 C 1479.62 3.71397 0.611653 0
M  V30 15247 C 1478.77 2.76304 -0.234801 0
M  V30 15248 H 1481.72 1.47156 -0.594211 0
M  V30 15249 H 1481.74 3.66793 1.01207 0
M  V30 15250 H 1481.25 3.79592 -0.80818 0
M  V30 15251 H 1479.35 3.35632 1.61808 0
M  V30 15252 H 1479.46 4.77597 0.379168 0
M  V30 15253 H 1477.83 2.52952 0.297888 0
M  V30 15254 H 1478.61 3.20467 -1.2311 0
M  V30 15255 N 1481.06 0.105248 1.57248 0
M  V30 15256 C 1482.33 -0.598871 1.86207 0
M  V30 15257 C 1482.71 -1.85698 1.00396 0
M  V30 15258 O 1482.06 -2.28363 0.0791093 0
M  V30 15259 C 1482.27 -0.904522 3.37075 0
M  V30 15260 C 1483.62 -1.26357 4.05363 0
M  V30 15261 O 1484.64 -0.99522 3.42014 0
M  V30 15262 O 1483.5 -1.76659 5.17159 0
M  V30 15263 H 1480.6 -0.300727 0.770384 0
M  V30 15264 H 1483.14 0.138713 1.69132 0
M  V30 15265 H 1481.91 -0.0123974 3.91298 0
M  V30 15266 H 1481.54 -1.69774 3.59531 0
M  V30 15267 N 1482.53 -1.56697 -0.168486 0
M  V30 15268 C 1483.76 -1.86292 -0.900152 0
M  V30 15269 C 1484.18 -0.690968 -1.75702 0
M  V30 15270 O 1483.53 0.339855 -1.79308 0
M  V30 15271 C 1483.59 -3.14946 -1.77457 0
M  V30 15272 O 1483.31 -4.27625 -0.952267 0
M  V30 15273 C 1484.81 -3.57908 -2.61566 0
M  V30 15274 H 1482.03 -0.618003 -0.261369 0
M  V30 15275 H 1484.57 -2.03811 -0.16773 0
M  V30 15276 H 1482.73 -2.99246 -2.4603 0
M  V30 15277 H 1483.14 -5.01057 -1.55056 0
M  V30 15278 H 1484.61 -4.50823 -3.18532 0
M  V30 15279 H 1485.09 -2.82162 -3.36573 0
M  V30 15280 H 1485.7 -3.7623 -1.98321 0
M  V30 15281 N 1484.01 0.437135 -1.51416 0
M  V30 15282 C 1484.98 1.51313 -1.72154 0
M  V30 15283 C 1485.98 1.49523 -0.59157 0
M  V30 15284 O 1487.17 1.51541 -0.859118 0
M  V30 15285 C 1484.3 2.9085 -1.77818 0
M  V30 15286 H 1485.49 1.34229 -2.68184 0
M  V30 15287 H 1483.04 0.665822 -1.41409 0
M  V30 15288 H 1483.78 3.13338 -0.836033 0
M  V30 15289 H 1483.56 2.93554 -2.59939 0
M  V30 15290 H 1485.05 3.68905 -1.957 0
M  V30 15291 N 1485.49 1.41566 0.692592 0
M  V30 15292 C 1486.72 1.44236 1.47917 0
M  V30 15293 C 1487.13 0.0469112 1.89142 0
M  V30 15294 O 1486.47 -0.944788 1.57542 0
M  V30 15295 C 1486.53 2.29056 2.7708 0
M  V30 15296 C 1486.2 3.77179 2.58041 0
M  V30 15297 C 1487.19 4.69267 2.23795 0
M  V30 15298 C 1484.88 4.21253 2.73589 0
M  V30 15299 C 1486.87 6.03419 2.05338 0
M  V30 15300 C 1484.56 5.55469 2.54749 0
M  V30 15301 C 1485.56 6.46368 2.20675 0
M  V30 15302 O 1485.25 7.78107 2.02002 0
M  V30 15303 H 1484.98 0.493237 0.462269 0
M  V30 15304 H 1487.53 1.8653 0.859984 0
M  V30 15305 H 1485.76 1.8158 3.41417 0
M  V30 15306 H 1487.45 2.23392 3.38897 0
M  V30 15307 H 1488.22 4.36506 2.11395 0
M  V30 15308 H 1484.1 3.50804 2.99094 0
M  V30 15309 H 1487.64 6.74333 1.78665 0
M  V30 15310 H 1483.54 5.87809 2.66741 0
M  V30 15311 H 1484.31 7.89282 2.16741 0
M  V30 15312 N 1486.97 -0.927146 1.27443 0
M  V30 15313 C 1488.25 -1.65322 1.04538 0
M  V30 15314 C 1488.63 -2.06886 -0.419694 0
M  V30 15315 O 1487.97 -1.80352 -1.40304 0
M  V30 15316 C 1488.18 -2.85486 2.00746 0
M  V30 15317 C 1489.53 -3.56816 2.30147 0
M  V30 15318 O 1490.56 -2.95613 1.98724 0
M  V30 15319 O 1489.41 -4.67085 2.83714 0
M  V30 15320 H 1486.51 -0.724627 0.398554 0
M  V30 15321 H 1489.05 -0.977633 1.3871 0
M  V30 15322 H 1487.83 -2.51766 2.99549 0
M  V30 15323 H 1487.45 -3.60763 1.67139 0
M  V30 15324 N 1488.45 -1.09474 -1.13372 0
M  V30 15325 C 1489.38 -0.756441 -2.20908 0
M  V30 15326 C 1490.36 0.266113 -1.68006 0
M  V30 15327 O 1491.54 0.134067 -1.93737 0
M  V30 15328 C 1488.67 -0.176733 -3.4685 0
M  V30 15329 C 1487.63 -1.12886 -4.12845 0
M  V30 15330 C 1486.95 -0.410831 -5.33119 0
M  V30 15331 C 1488.25 -2.47148 -4.60125 0
M  V30 15332 H 1489.95 -1.65555 -2.49463 0
M  V30 15333 H 1487.49 -0.797458 -1.19902 0
M  V30 15334 H 1489.45 0.0720151 -4.21338 0
M  V30 15335 H 1488.17 0.757576 -3.17692 0
M  V30 15336 H 1486.83 -1.36289 -3.40325 0
M  V30 15337 H 1486.48 0.527632 -5.00225 0
M  V30 15338 H 1486.18 -1.04567 -5.78221 0
M  V30 15339 H 1487.7 -0.170394 -6.10362 0
M  V30 15340 H 1489.11 -2.27949 -5.26034 0
M  V30 15341 H 1487.51 -3.06425 -5.15969 0
M  V30 15342 H 1488.58 -3.07874 -3.74622 0
M  V30 15343 N 1489.92 1.30607 -0.882012 0
M  V30 15344 C 1490.86 2.27177 -0.303861 0
M  V30 15345 C 1491.87 1.53587 0.539898 0
M  V30 15346 O 1493.06 1.74833 0.359931 0
M  V30 15347 C 1490.16 3.33781 0.586828 0
M  V30 15348 C 1489.33 4.3681 -0.227197 0
M  V30 15349 C 1488.39 5.22842 0.593519 0
M  V30 15350 O 1487.42 5.69197 0.0172694 0
M  V30 15351 N 1488.62 5.48414 1.90321 0
M  V30 15352 H 1491.38 2.77426 -1.13378 0
M  V30 15353 H 1488.94 1.43756 -0.744698 0
M  V30 15354 H 1490.94 3.88257 1.14186 0
M  V30 15355 H 1489.51 2.83483 1.31743 0
M  V30 15356 H 1488.73 3.82239 -0.963674 0
M  V30 15357 H 1490.01 5.02703 -0.785315 0
M  V30 15358 H 1489.41 5.1253 2.39435 0
M  V30 15359 H 1487.97 6.05778 2.40575 0
M  V30 15360 N 1491.4 0.642663 1.43901 0
M  V30 15361 C 1492.65 0.152003 2.0223 0
M  V30 15362 C 1492.98 -1.22711 1.50518 0
M  V30 15363 O 1492.26 -1.817 0.693937 0
M  V30 15364 C 1492.54 0.151278 3.59782 0
M  V30 15365 C 1492.39 1.56356 4.2175 0
M  V30 15366 C 1493.71 -0.518016 4.37041 0
M  V30 15367 H 1490.83 0.0567094 0.734815 0
M  V30 15368 H 1493.47 0.821337 1.7133 0
M  V30 15369 H 1491.62 -0.418679 3.86237 0
M  V30 15370 H 1493.29 2.18329 4.06362 0
M  V30 15371 H 1491.54 2.11401 3.78803 0
M  V30 15372 H 1492.21 1.51499 5.30803 0
M  V30 15373 H 1494.68 -0.0331947 4.16087 0
M  V30 15374 H 1493.56 -0.487754 5.46729 0
M  V30 15375 H 1493.82 -1.59036 4.12504 0
M  V30 15376 N 1492.88 -1.52852 0.383918 0
M  V30 15377 C 1494.3 -1.59565 0.0336391 0
M  V30 15378 C 1494.5 -1.39819 -1.45097 0
M  V30 15379 O 1493.55 -1.21249 -2.21484 0
M  V30 15380 C 1494.87 -2.96412 0.506001 0
M  V30 15381 C 1496.41 -3.09575 0.461794 0
M  V30 15382 C 1496.89 -4.48863 0.910259 0
M  V30 15383 N 1498.38 -4.55032 0.866053 0
M  V30 15384 C 1499.12 -5.61032 1.18453 0
M  V30 15385 N 1498.61 -6.74701 1.57321 0
M  V30 15386 N 1500.4 -5.51109 1.10613 0
M  V30 15387 H 1492.56 -1.63937 1.3505 0
M  V30 15388 H 1494.82 -0.769857 0.553194 0
M  V30 15389 H 1494.52 -3.16061 1.54268 0
M  V30 15390 H 1494.4 -3.77073 -0.0977643 0
M  V30 15391 H 1496.79 -2.89625 -0.565786 0
M  V30 15392 H 1496.87 -2.30879 1.10129 0
M  V30 15393 H 1496.51 -4.69553 1.93604 0
M  V30 15394 H 1496.44 -5.26017 0.247825 0
M  V30 15395 H 1498.93 -3.73423 0.579962 0
M  V30 15396 H 1499.24 -7.51545 1.8 0
M  V30 15397 H 1497.59 -6.76046 1.61203 0
M  V30 15398 H 1500.78 -4.61187 0.801531 0
M  V30 15399 H 1500.95 -6.33618 1.35766 0
M  V30 15400 N 1494.36 -0.113586 -1.5719 0
M  V30 15401 C 1495.32 0.824258 -2.13866 0
M  V30 15402 C 1496.32 1.19831 -1.07224 0
M  V30 15403 O 1497.51 1.12471 -1.33026 0
M  V30 15404 C 1494.64 2.11391 -2.67445 0
M  V30 15405 H 1495.84 0.331803 -2.98059 0
M  V30 15406 H 1493.39 0.135599 -1.55711 0
M  V30 15407 H 1494.13 2.65079 -1.86824 0
M  V30 15408 H 1493.91 1.85523 -3.45433 0
M  V30 15409 H 1495.4 2.78443 -3.11222 0
M  V30 15410 N 1495.84 1.56784 0.160173 0
M  V30 15411 C 1496.79 1.9368 1.203 0
M  V30 15412 C 1497.77 0.806435 1.39232 0
M  V30 15413 O 1498.96 1.06975 1.41015 0
M  V30 15414 C 1496.09 2.30972 2.53982 0
M  V30 15415 C 1495.18 3.50549 2.38697 0
M  V30 15416 N 1495.57 4.6747 1.93145 0
M  V30 15417 C 1493.87 3.55375 2.6949 0
M  V30 15418 C 1494.57 5.49591 1.9059 0
M  V30 15419 N 1493.54 4.90938 2.33412 0
M  V30 15420 H 1497.35 2.8156 0.842691 0
M  V30 15421 H 1494.86 1.58167 0.368351 0
M  V30 15422 H 1496.86 2.55604 3.29351 0
M  V30 15423 H 1495.52 1.44437 2.90806 0
M  V30 15424 H 1496.53 4.91477 1.63312 0
M  V30 15425 H 1493.21 2.79346 3.10277 0
M  V30 15426 H 1494.6 6.53306 1.56976 0
M  V30 15427 N 1497.32 -0.429099 1.51646 0
M  V30 15428 C 1498.54 -1.20006 1.68541 0
M  V30 15429 C 1498.96 -1.84806 0.386264 0
M  V30 15430 O 1498.32 -1.7106 -0.635988 0
M  V30 15431 C 1498.37 -2.27801 2.80694 0
M  V30 15432 O 1498.09 -1.65649 4.05576 0
M  V30 15433 C 1499.59 -3.17927 3.08929 0
M  V30 15434 H 1496.81 -0.361388 0.565367 0
M  V30 15435 H 1499.35 -0.507432 1.98104 0
M  V30 15436 H 1497.51 -2.92766 2.53706 0
M  V30 15437 H 1497.92 -2.36955 4.67924 0
M  V30 15438 H 1499.4 -3.8968 3.90965 0
M  V30 15439 H 1499.87 -3.79157 2.21668 0
M  V30 15440 H 1500.48 -2.58654 3.37606 0
M  V30 15441 N 1498.79 -1.41931 -0.685074 0
M  V30 15442 C 1500.21 -1.24631 -0.996957 0
M  V30 15443 C 1500.41 -0.143146 -2.00991 0
M  V30 15444 O 1499.47 0.489012 -2.47719 0
M  V30 15445 C 1500.78 -2.59947 -1.51156 0
M  V30 15446 C 1502.33 -2.67216 -1.62986 0
M  V30 15447 C 1502.8 -4.02874 -2.17845 0
M  V30 15448 N 1504.29 -4.04775 -2.25192 0
M  V30 15449 C 1505.03 -5.0655 -2.68691 0
M  V30 15450 N 1504.52 -6.18712 -3.11717 0
M  V30 15451 N 1506.32 -4.93909 -2.68348 0
M  V30 15452 H 1498.47 -2.12395 -0.0142223 0
M  V30 15453 H 1500.73 -0.945496 -0.0688552 0
M  V30 15454 H 1500.44 -3.41477 -0.841793 0
M  V30 15455 H 1500.31 -2.83159 -2.49201 0
M  V30 15456 H 1502.7 -1.86038 -2.29071 0
M  V30 15457 H 1502.78 -2.47804 -0.634584 0
M  V30 15458 H 1502.42 -4.84505 -1.52372 0
M  V30 15459 H 1502.35 -4.19633 -3.18144 0
M  V30 15460 H 1504.84 -3.23798 -1.94841 0
M  V30 15461 H 1505.16 -6.9223 -3.43565 0
M  V30 15462 H 1503.5 -6.22232 -3.096 0
M  V30 15463 H 1506.69 -4.05364 -2.34089 0
M  V30 15464 H 1506.87 -5.73361 -3.01929 0
M  V30 15465 N 1500.27 0.920374 -1.27933 0
M  V30 15466 C 1501.69 1.19761 -1.05496 0
M  V30 15467 C 1501.89 2.00435 0.206864 0
M  V30 15468 O 1500.94 2.35518 0.910356 0
M  V30 15469 C 1502.26 1.93863 -2.29864 0
M  V30 15470 C 1503.8 2.06773 -2.34976 0
M  V30 15471 C 1504.28 2.84282 -3.59093 0
M  V30 15472 N 1505.77 2.91847 -3.59694 0
M  V30 15473 C 1506.51 3.52303 -4.52404 0
M  V30 15474 N 1506 4.14092 -5.55427 0
M  V30 15475 N 1507.79 3.49778 -4.40013 0
M  V30 15476 H 1499.95 0.381596 -2.08944 0
M  V30 15477 H 1502.21 0.231451 -0.919312 0
M  V30 15478 H 1501.91 1.42008 -3.21756 0
M  V30 15479 H 1501.79 2.94446 -2.35757 0
M  V30 15480 H 1504.18 2.57812 -1.43586 0
M  V30 15481 H 1504.26 1.05388 -2.33082 0
M  V30 15482 H 1503.9 2.33925 -4.50823 0
M  V30 15483 H 1503.83 3.85968 -3.5824 0
M  V30 15484 H 1506.32 2.4794 -2.85191 0
M  V30 15485 H 1506.63 4.58183 -6.22325 0
M  V30 15486 H 1504.98 4.12616 -5.59261 0
M  V30 15487 H 1508.17 3.00712 -3.58733 0
M  V30 15488 H 1508.34 3.96603 -5.12455 0
M  V30 15489 N 1501.75 1.10074 1.1279 0
M  V30 15490 C 1503 0.839212 1.83852 0
M  V30 15491 C 1503.32 -0.637023 1.84301 0
M  V30 15492 O 1502.59 -1.46239 1.30349 0
M  V30 15493 H 1501.17 0.307468 0.680788 0
M  V30 15494 H 1503.83 1.39025 1.36595 0
M  V30 15495 H 1502.93 1.19872 2.88162 0
M  V30 15496 N 1503.23 -1.30138 0.888926 0
M  V30 15497 C 1504.64 -1.78124 0.559346 0
M  V30 15498 C 1504.99 -1.73046 -0.924633 0
M  V30 15499 O 1504.11 -1.30974 -1.72264 0
M  V30 15500 C 1504.71 -3.2344 1.00856 0
M  V30 15501 C 1503.27 -3.69247 0.730332 0
M  V30 15502 C 1502.42 -2.505 1.18933 0
M  V30 15503 H 1505.37 -1.16952 1.07275 0
M  V30 15504 H 1505.39 -3.78985 0.339219 0
M  V30 15505 H 1504.9 -3.27104 2.08865 0
M  V30 15506 H 1503 -3.71067 -0.337599 0
M  V30 15507 H 1503.11 -4.60538 1.32066 0
M  V30 15508 H 1501.48 -2.47323 0.608568 0
M  V30 15509 H 1502.26 -2.56899 2.27724 0
M  V30 15510 N 1504.71 -0.650285 -1.43559 0
M  V30 15511 C 1505.95 -0.162164 -2.01448 0
M  V30 15512 C 1506.27 1.22717 -1.51544 0
M  V30 15513 O 1505.54 1.81917 -0.726855 0
M  V30 15514 H 1504.12 -0.0569599 -0.744825 0
M  V30 15515 H 1506.79 -0.841294 -1.75807 0
M  V30 15516 H 1505.88 -0.144531 -3.11765 0
M  V30 15517 N 1506.18 1.52647 -0.392018 0
M  V30 15518 C 1507.59 1.86522 0.0814091 0
M  V30 15519 C 1507.95 1.31158 1.45918 0
M  V30 15520 O 1507.07 0.644007 2.06595 0
M  V30 15521 C 1507.67 3.38448 0.1545 0
M  V30 15522 C 1506.22 3.72025 0.572227 0
M  V30 15523 C 1505.37 2.7604 -0.264093 0
M  V30 15524 H 1508.32 1.46517 -0.609785 0
M  V30 15525 H 1508.34 3.67846 0.973109 0
M  V30 15526 H 1507.86 3.78713 -0.848396 0
M  V30 15527 H 1505.96 3.37329 1.58239 0
M  V30 15528 H 1506.07 4.77973 0.328491 0
M  V30 15529 H 1504.43 2.53254 0.271042 0
M  V30 15530 H 1505.22 3.19143 -1.26502 0
M  V30 15531 N 1507.66 0.121921 1.57128 0
M  V30 15532 C 1508.91 -0.535371 1.95295 0
M  V30 15533 C 1509.24 -1.665 1.00539 0
M  V30 15534 O 1508.49 -1.95677 0.0298129 0
M  V30 15535 C 1508.79 -1.10579 3.39863 0
M  V30 15536 C 1508.46 -0.0972144 4.50795 0
M  V30 15537 C 1507.12 0.180111 4.80863 0
M  V30 15538 C 1509.47 0.589973 5.1785 0
M  V30 15539 C 1506.8 1.15086 5.75302 0
M  V30 15540 C 1509.15 1.54937 6.13333 0
M  V30 15541 C 1507.82 1.83465 6.41792 0
M  V30 15542 H 1507.09 -0.195906 0.714634 0
M  V30 15543 H 1509.73 0.203445 1.90416 0
M  V30 15544 H 1508.04 -1.92143 3.4145 0
M  V30 15545 H 1509.73 -1.62252 3.66709 0
M  V30 15546 H 1506.32 -0.32355 4.27377 0
M  V30 15547 H 1510.51 0.38889 4.94774 0
M  V30 15548 H 1505.76 1.3786 5.95655 0
M  V30 15549 H 1509.94 2.08751 6.64376 0
M  V30 15550 H 1507.57 2.58841 7.14777 0
M  V30 15551 N 1509.14 -1.56867 -0.151857 0
M  V30 15552 C 1510.37 -1.87601 -0.884347 0
M  V30 15553 C 1510.79 -0.710419 -1.74168 0
M  V30 15554 O 1510.15 0.340103 -1.78081 0
M  V30 15555 C 1510.2 -3.16887 -1.72091 0
M  V30 15556 O 1509.3 -3.00479 -2.82464 0
M  V30 15557 H 1508.64 -0.616509 -0.246603 0
M  V30 15558 H 1511.17 -2.04092 -0.144135 0
M  V30 15559 H 1511.18 -3.48785 -2.11691 0
M  V30 15560 H 1509.86 -4.01327 -1.09131 0
M  V30 15561 H 1508.43 -2.79978 -2.46306 0
M  V30 15562 N 1510.62 0.421051 -1.51871 0
M  V30 15563 C 1512.03 1.00033 -1.5764 0
M  V30 15564 C 1512.38 1.91875 -0.409665 0
M  V30 15565 O 1511.51 2.11201 0.471516 0
M  V30 15566 C 1512.1 1.82099 -2.85701 0
M  V30 15567 C 1510.66 2.35049 -2.93988 0
M  V30 15568 C 1509.81 1.14703 -2.52465 0
M  V30 15569 H 1512.76 0.201715 -1.57413 0
M  V30 15570 H 1512.78 2.67719 -2.70382 0
M  V30 15571 H 1512.29 1.15229 -3.706 0
M  V30 15572 H 1510.39 3.05327 -2.13556 0
M  V30 15573 H 1510.5 2.66731 -3.97984 0
M  V30 15574 H 1508.87 1.49736 -2.06037 0
M  V30 15575 H 1509.65 0.494171 -3.39725 0
M  V30 15576 N 1512.1 1.42293 0.677538 0
M  V30 15577 C 1513.51 1.37948 1.25806 0
M  V30 15578 C 1513.86 0.071408 1.9607 0
M  V30 15579 O 1512.98 -0.829921 1.99853 0
M  V30 15580 C 1513.58 2.49875 2.28797 0
M  V30 15581 C 1512.14 2.48872 2.82382 0
M  V30 15582 C 1511.28 2.28804 1.56665 0
M  V30 15583 H 1514.24 1.51546 0.471102 0
M  V30 15584 H 1514.26 2.19969 3.10474 0
M  V30 15585 H 1513.77 3.45065 1.77629 0
M  V30 15586 H 1511.87 1.57492 3.37679 0
M  V30 15587 H 1511.98 3.45816 3.31585 0
M  V30 15588 H 1510.35 1.77014 1.83135 0
M  V30 15589 H 1511.13 3.26046 1.07467 0
M  V30 15590 N 1513.57 -0.913576 1.28419 0
M  V30 15591 C 1514.82 -1.66519 1.15755 0
M  V30 15592 C 1515.15 -1.91974 -0.293166 0
M  V30 15593 O 1514.43 -1.52025 -1.21321 0
M  V30 15594 C 1514.71 -3.02299 1.95672 0
M  V30 15595 C 1514.56 -2.83996 3.48807 0
M  V30 15596 C 1515.88 -4.02838 1.77226 0
M  V30 15597 H 1513 -0.604309 0.421877 0
M  V30 15598 H 1515.64 -1.05919 1.57737 0
M  V30 15599 H 1513.79 -3.54025 1.59995 0
M  V30 15600 H 1515.47 -2.39279 3.9439 0
M  V30 15601 H 1513.71 -2.19052 3.74431 0
M  V30 15602 H 1514.38 -3.80419 3.99982 0
M  V30 15603 H 1516.86 -3.60174 2.0836 0
M  V30 15604 H 1515.73 -4.95806 2.35515 0
M  V30 15605 H 1515.99 -4.36135 0.723804 0
M  V30 15606 N 1515.05 -1.1067 -1.12204 0
M  V30 15607 C 1516.47 -0.838988 -1.35769 0
M  V30 15608 C 1516.67 0.540345 -1.9412 0
M  V30 15609 O 1515.72 1.29274 -2.16897 0
M  V30 15610 C 1517.04 -1.94065 -2.29694 0
M  V30 15611 C 1518.59 -1.96938 -2.43279 0
M  V30 15612 C 1519.06 -3.06284 -3.4052 0
M  V30 15613 N 1520.55 -3.05607 -3.48079 0
M  V30 15614 C 1521.29 -3.86855 -4.23238 0
M  V30 15615 N 1520.78 -4.78046 -5.01442 0
M  V30 15616 N 1522.58 -3.75064 -4.18669 0
M  V30 15617 H 1514.73 -1.99575 -0.726878 0
M  V30 15618 H 1516.99 -0.867423 -0.382467 0
M  V30 15619 H 1516.7 -2.93356 -1.93997 0
M  V30 15620 H 1516.57 -1.82992 -3.29839 0
M  V30 15621 H 1518.96 -0.982774 -2.78254 0
M  V30 15622 H 1519.04 -2.12087 -1.43014 0
M  V30 15623 H 1518.68 -4.05165 -3.06273 0
M  V30 15624 H 1518.61 -2.88376 -4.40621 0
M  V30 15625 H 1521.1 -2.39531 -2.9229 0
M  V30 15626 H 1521.42 -5.36594 -5.56136 0
M  V30 15627 H 1519.76 -4.82073 -5.0063 0
M  V30 15628 H 1522.95 -3.03172 -3.56657 0
M  V30 15629 H 1523.12 -4.38618 -4.76988 0
M  V30 15630 N 1516.53 1.29665 -0.895815 0
M  V30 15631 C 1517.76 1.99572 -0.534267 0
M  V30 15632 C 1518.17 1.67254 0.884455 0
M  V30 15633 O 1517.51 0.911762 1.59476 0
M  V30 15634 C 1517.57 3.53719 -0.642099 0
M  V30 15635 C 1517.24 4.09583 -2.02709 0
M  V30 15636 C 1518.23 4.24769 -2.99779 0
M  V30 15637 C 1515.92 4.44706 -2.33542 0
M  V30 15638 C 1517.91 4.74305 -4.25809 0
M  V30 15639 C 1515.6 4.93939 -3.59815 0
M  V30 15640 C 1516.6 5.08693 -4.55763 0
M  V30 15641 O 1516.29 5.5686 -5.79795 0
M  V30 15642 H 1516.02 0.644481 -0.204012 0
M  V30 15643 H 1518.57 1.66262 -1.20607 0
M  V30 15644 H 1516.8 3.86603 0.0867197 0
M  V30 15645 H 1518.49 4.04861 -0.290265 0
M  V30 15646 H 1519.26 3.97925 -2.77273 0
M  V30 15647 H 1515.14 4.32483 -1.59622 0
M  V30 15648 H 1518.68 4.85736 -5.00706 0
M  V30 15649 H 1514.58 5.2022 -3.82154 0
M  V30 15650 H 1515.35 5.75182 -5.82329 0
M  V30 15651 N 1518.01 0.657889 1.43212 0
M  V30 15652 C 1519.42 0.325876 1.56238 0
M  V30 15653 C 1519.62 -1.16975 1.6407 0
M  V30 15654 O 1518.68 -1.95473 1.59833 0
M  V30 15655 C 1519.99 1.04134 2.82093 0
M  V30 15656 C 1521.54 1.02204 2.95844 0
M  V30 15657 C 1522.02 1.71849 4.24537 0
M  V30 15658 N 1523.51 1.68635 4.31412 0
M  V30 15659 C 1524.24 2.19393 5.29768 0
M  V30 15660 N 1523.74 2.7846 6.34375 0
M  V30 15661 N 1525.53 2.09866 5.21452 0
M  V30 15662 H 1517.68 1.62839 1.36371 0
M  V30 15663 H 1519.95 0.685072 0.655271 0
M  V30 15664 H 1519.65 2.09647 2.82385 0
M  V30 15665 H 1519.53 0.595842 3.72464 0
M  V30 15666 H 1521.91 -0.0247029 2.9509 0
M  V30 15667 H 1521.99 1.50627 2.06749 0
M  V30 15668 H 1521.64 2.76482 4.26052 0
M  V30 15669 H 1521.57 1.20888 5.12536 0
M  V30 15670 H 1524.06 1.25536 3.56439 0
M  V30 15671 H 1524.37 3.14855 7.05752 0
M  V30 15672 H 1522.72 2.82523 6.34985 0
M  V30 15673 H 1525.91 1.63422 4.38647 0
M  V30 15674 H 1526.08 2.49732 5.97945 0
M  V30 15675 N 1519.49 -1.52437 0.400108 0
M  V30 15676 C 1520.71 -2.0613 -0.178364 0
M  V30 15677 C 1521.13 -1.27094 -1.39616 0
M  V30 15678 O 1520.49 -0.320409 -1.79665 0
M  V30 15679 C 1520.54 -3.57478 -0.53777 0
M  V30 15680 O 1520.26 -4.33522 0.631657 0
M  V30 15681 C 1521.76 -4.27556 -1.17094 0
M  V30 15682 H 1518.98 -0.670558 -0.0243619 0
M  V30 15683 H 1521.52 -1.9644 0.568459 0
M  V30 15684 H 1519.68 -3.67205 -1.23449 0
M  V30 15685 H 1520.09 -5.23437 0.333803 0
M  V30 15686 H 1521.57 -5.3466 -1.3727 0
M  V30 15687 H 1522.04 -3.83456 -2.14145 0
M  V30 15688 H 1522.65 -4.22174 -0.514687 0
M  V30 15689 N 1520.96 -0.130252 -1.57061 0
M  V30 15690 C 1522.21 0.525006 -1.95576 0
M  V30 15691 C 1522.54 1.65964 -1.0142 0
M  V30 15692 O 1521.79 1.95659 -0.0401898 0
M  V30 15693 C 1522.09 1.08776 -3.40445 0
M  V30 15694 C 1521.76 0.0733062 -4.5084 0
M  V30 15695 C 1520.42 -0.20561 -4.80761 0
M  V30 15696 C 1522.77 -0.617428 -5.1753 0
M  V30 15697 C 1520.1 -1.18135 -5.74683 0
M  V30 15698 C 1522.45 -1.58188 -6.12503 0
M  V30 15699 C 1521.12 -1.86866 -6.4081 0
M  V30 15700 H 1520.39 0.192113 -0.715663 0
M  V30 15701 H 1523.03 -0.21354 -1.90306 0
M  V30 15702 H 1521.34 1.9033 -3.42464 0
M  V30 15703 H 1523.04 1.60305 -3.67564 0
M  V30 15704 H 1519.63 0.30088 -4.27543 0
M  V30 15705 H 1523.81 -0.415124 -4.94561 0
M  V30 15706 H 1519.07 -1.41017 -5.94915 0
M  V30 15707 H 1523.24 -2.12271 -6.6326 0
M  V30 15708 H 1520.87 -2.62628 -7.13394 0
M  V30 15709 N 1522.44 1.56945 0.143535 0
M  V30 15710 C 1523.37 2.0156 1.17881 0
M  V30 15711 C 1524.35 0.895744 1.44604 0
M  V30 15712 O 1525.54 1.16379 1.55466 0
M  V30 15713 C 1522.67 2.39915 2.51114 0
M  V30 15714 C 1521.62 3.55117 2.38905 0
M  V30 15715 C 1520.95 3.79296 3.7688 0
M  V30 15716 C 1522.25 4.87668 1.87021 0
M  V30 15717 H 1523.94 2.88296 0.80783 0
M  V30 15718 H 1521.49 1.38698 0.387149 0
M  V30 15719 H 1523.44 2.69727 3.23767 0
M  V30 15720 H 1522.17 1.5012 2.90055 0
M  V30 15721 H 1520.83 3.25476 1.68703 0
M  V30 15722 H 1520.47 2.86747 4.13262 0
M  V30 15723 H 1520.17 4.56827 3.69571 0
M  V30 15724 H 1521.7 4.11537 4.51076 0
M  V30 15725 H 1523.11 5.16176 2.4947 0
M  V30 15726 H 1521.51 5.69029 1.90594 0
M  V30 15727 H 1522.58 4.77811 0.82611 0
M  V30 15728 N 1523.92 -0.412991 1.52093 0
M  V30 15729 C 1525.34 -0.751324 1.40809 0
M  V30 15730 C 1525.54 -1.94951 0.509543 0
M  V30 15731 O 1524.59 -2.52486 -0.026132 0
M  V30 15732 C 1525.91 -1.00888 2.8327 0
M  V30 15733 C 1527.45 -1.11183 2.92587 0
M  V30 15734 C 1527.93 -1.40217 4.36008 0
M  V30 15735 N 1529.42 -1.4709 4.39225 0
M  V30 15736 C 1530.16 -1.71174 5.47254 0
M  V30 15737 N 1529.65 -1.92887 6.65407 0
M  V30 15738 N 1531.44 -1.73157 5.34765 0
M  V30 15739 H 1523.6 0.375774 2.0905 0
M  V30 15740 H 1525.86 0.105817 0.942076 0
M  V30 15741 H 1525.56 -0.200872 3.51126 0
M  V30 15742 H 1525.44 -1.93008 3.2408 0
M  V30 15743 H 1527.83 -1.91043 2.24915 0
M  V30 15744 H 1527.91 -0.169078 2.55241 0
M  V30 15745 H 1527.55 -0.608754 5.04239 0
M  V30 15746 H 1527.48 -2.35737 4.70888 0
M  V30 15747 H 1529.97 -1.32114 3.54054 0
M  V30 15748 H 1530.28 -2.10704 7.43521 0
M  V30 15749 H 1528.63 -1.9016 6.68479 0
M  V30 15750 H 1531.82 -1.55728 4.41437 0
M  V30 15751 H 1531.99 -1.91587 6.1903 0
M  V30 15752 N 1525.4 -1.4265 -0.669982 0
M  V30 15753 C 1526.68 -1.33858 -1.42623 0
M  V30 15754 C 1527.06 0.0217285 -2.11089 0
M  V30 15755 O 1526.4 1.03748 -2.03589 0
M  V30 15756 C 1526.61 -2.51015 -2.42472 0
M  V30 15757 C 1527.96 -2.93348 -3.06972 0
M  V30 15758 O 1528.99 -2.5094 -2.52799 0
M  V30 15759 O 1527.85 -3.66762 -4.05151 0
M  V30 15760 H 1524.94 -0.528141 -0.636393 0
M  V30 15761 H 1527.49 -1.54667 -0.6983 0
M  V30 15762 H 1526.26 -3.41679 -1.90713 0
M  V30 15763 H 1525.88 -2.32218 -3.2274 0
M  V30 15764 N 1526.88 0.906753 -1.28902 0
M  V30 15765 C 1527.81 2.01497 -1.09233 0
M  V30 15766 C 1528.82 1.62746 -0.0419378 0
M  V30 15767 O 1530.01 1.76198 -0.285728 0
M  V30 15768 C 1527.11 3.32816 -0.639255 0
M  V30 15769 C 1526.28 4.00137 -1.76661 0
M  V30 15770 C 1525.34 5.09742 -1.30573 0
M  V30 15771 O 1524.37 5.32559 -2.00921 0
M  V30 15772 N 1525.57 5.80243 -0.17275 0
M  V30 15773 H 1528.34 2.18927 -2.04673 0
M  V30 15774 H 1525.9 1.0785 -1.20748 0
M  V30 15775 H 1527.89 4.03477 -0.31439 0
M  V30 15776 H 1526.46 3.11807 0.222498 0
M  V30 15777 H 1525.68 3.22933 -2.26071 0
M  V30 15778 H 1526.97 4.41859 -2.52266 0
M  V30 15779 H 1526.37 5.64184 0.413931 0
M  V30 15780 H 1524.92 6.51734 0.0927926 0
M  V30 15781 N 1528.36 1.11264 1.11616 0
M  V30 15782 C 1529.6 0.861639 1.83585 0
M  V30 15783 C 1529.93 -0.611221 1.8433 0
M  V30 15784 O 1529.21 -1.45116 1.29505 0
M  V30 15785 C 1529.49 1.42157 3.30852 0
M  V30 15786 C 1529.35 2.96192 3.38512 0
M  V30 15787 C 1530.66 1.07099 4.2687 0
M  V30 15788 H 1527.78 0.314464 0.666545 0
M  V30 15789 H 1530.43 1.37722 1.30892 0
M  V30 15790 H 1528.58 0.983054 3.75857 0
M  V30 15791 H 1530.25 3.48634 3.0208 0
M  V30 15792 H 1528.49 3.32353 2.7879 0
M  V30 15793 H 1529.16 3.30457 4.42156 0
M  V30 15794 H 1531.64 1.44952 3.90036 0
M  V30 15795 H 1530.51 1.48957 5.28302 0
M  V30 15796 H 1530.77 -0.018482 4.42096 0
M  V30 15797 N 1529.83 -1.29188 0.902679 0
M  V30 15798 C 1531.06 -2.00113 0.544953 0
M  V30 15799 C 1531.48 -1.67093 -0.863805 0
M  V30 15800 O 1530.84 -0.897179 -1.57545 0
M  V30 15801 C 1530.89 -3.52762 0.747741 0
M  V30 15802 O 1529.99 -4.11923 -0.198388 0
M  V30 15803 H 1529.33 -0.629054 0.212572 0
M  V30 15804 H 1531.86 -1.64611 1.21508 0
M  V30 15805 H 1531.87 -4.02732 0.653546 0
M  V30 15806 H 1530.55 -3.76131 1.77478 0
M  V30 15807 H 1529.13 -3.72857 -0.0563959 0
M  V30 15808 N 1531.31 -0.665475 -1.42861 0
M  V30 15809 C 1532.72 -0.26225 -1.84849 0
M  V30 15810 C 1533.07 1.19372 -1.55707 0
M  V30 15811 O 1532.2 1.91269 -1.01218 0
M  V30 15812 C 1532.79 -0.469189 -3.35535 0
M  V30 15813 C 1531.35 -0.120172 -3.76208 0
M  V30 15814 C 1530.5 -0.766153 -2.66506 0
M  V30 15815 H 1533.45 -0.868296 -1.32839 0
M  V30 15816 H 1533.47 0.281571 -3.79457 0
M  V30 15817 H 1532.98 -1.52894 -3.56714 0
M  V30 15818 H 1531.08 0.936505 -3.60639 0
M  V30 15819 H 1531.2 -0.554188 -4.75884 0
M  V30 15820 H 1529.56 -0.198292 -2.53927 0
M  V30 15821 H 1530.34 -1.82918 -2.9051 0
M  V30 15822 N 1532.79 1.52222 -0.408187 0
M  V30 15823 C 1533.74 2.26988 0.417767 0
M  V30 15824 C 1534.71 1.29362 1.04185 0
M  V30 15825 O 1535.89 1.58223 1.06631 0
M  V30 15826 C 1533.03 3.09379 1.52901 0
M  V30 15827 C 1532.14 4.2196 0.92593 0
M  V30 15828 C 1531.28 4.91712 2.00979 0
M  V30 15829 C 1530.32 5.96258 1.3836 0
M  V30 15830 N 1529.46 6.59531 2.40756 0
M  V30 15831 H 1534.3 2.9714 -0.226228 0
M  V30 15832 H 1531.83 1.46581 -0.123402 0
M  V30 15833 H 1533.79 3.55452 2.18425 0
M  V30 15834 H 1532.42 2.41399 2.14304 0
M  V30 15835 H 1531.47 3.80064 0.159765 0
M  V30 15836 H 1532.78 4.96956 0.428497 0
M  V30 15837 H 1531.94 5.41186 2.74231 0
M  V30 15838 H 1530.68 4.16282 2.54087 0
M  V30 15839 H 1529.68 5.46104 0.636402 0
M  V30 15840 H 1530.91 6.7363 0.860218 0
M  V30 15841 H 1528.85 5.86931 2.92999 0
M  V30 15842 H 1528.77 7.30198 1.95822 0
M  V30 15843 H 1530.04 7.13643 3.13581 0
M  V30 15844 N 1534.27 0.138579 1.5699 0
M  V30 15845 C 1535.22 -0.821469 2.17611 0
M  V30 15846 C 1536.21 -1.26137 1.13074 0
M  V30 15847 O 1537.42 -1.23084 1.31341 0
M  V30 15848 H 1533.79 -0.283086 0.696682 0
M  V30 15849 H 1535.76 -0.285891 2.97027 0
M  V30 15850 C 1534.51 -2.05395 2.8055 0
M  V30 15851 H 1533.83 -1.72442 3.60699 0
M  V30 15852 H 1535.27 -2.70531 3.2648 0
M  V30 15853 C 1533.73 -2.85647 1.78626 0
M  V30 15854 O 1534.26 -3.81705 1.25156 0
M  V30 15855 N 1532.47 -2.50018 1.4812 0
M  V30 15856 H 1532.02 -1.71969 1.91793 0
M  V30 15857 H 1531.97 -3.04007 0.8017 0
M  V30 15858 N 1535.75 -1.57019 -0.13521 0
M  V30 15859 C 1536.99 -1.8399 -0.845818 0
M  V30 15860 C 1537.32 -0.721255 -1.80633 0
M  V30 15861 O 1536.58 0.288778 -1.93558 0
M  V30 15862 C 1536.87 -3.17358 -1.64373 0
M  V30 15863 C 1536.54 -4.43214 -0.828967 0
M  V30 15864 C 1535.2 -4.77391 -0.604226 0
M  V30 15865 C 1537.55 -5.20551 -0.259965 0
M  V30 15866 C 1534.88 -5.86359 0.200033 0
M  V30 15867 C 1537.23 -6.30364 0.531397 0
M  V30 15868 C 1535.9 -6.63083 0.766605 0
M  V30 15869 H 1535.17 -0.673266 -0.309507 0
M  V30 15870 H 1537.82 -1.9119 -0.108903 0
M  V30 15871 H 1536.12 -3.05661 -2.4511 0
M  V30 15872 H 1537.82 -3.35444 -2.19724 0
M  V30 15873 H 1534.41 -4.16427 -1.01421 0
M  V30 15874 H 1538.59 -4.94512 -0.420847 0
M  V30 15875 H 1533.85 -6.10144 0.391646 0
M  V30 15876 H 1538.02 -6.89479 0.979371 0
M  V30 15877 H 1535.65 -7.47354 1.39164 0
M  V30 15878 N 1537.22 0.404919 -1.52309 0
M  V30 15879 C 1538.17 1.49363 -1.75953 0
M  V30 15880 C 1539.14 1.54802 -0.60212 0
M  V30 15881 O 1540.33 1.71308 -0.840128 0
M  V30 15882 C 1537.47 2.86767 -1.91987 0
M  V30 15883 C 1536.58 2.90603 -3.19646 0
M  V30 15884 C 1535.71 4.19333 -3.26088 0
M  V30 15885 C 1534.75 4.17161 -4.47932 0
M  V30 15886 N 1533.89 5.37469 -4.51743 0
M  V30 15887 H 1538.73 1.28503 -2.6887 0
M  V30 15888 H 1536.27 0.623684 -1.33224 0
M  V30 15889 H 1538.23 3.66536 -1.99267 0
M  V30 15890 H 1536.86 3.06112 -1.02447 0
M  V30 15891 H 1535.91 2.033 -3.21517 0
M  V30 15892 H 1537.22 2.84864 -4.09456 0
M  V30 15893 H 1536.37 5.07497 -3.32463 0
M  V30 15894 H 1535.11 4.27774 -2.34224 0
M  V30 15895 H 1534.12 3.27386 -4.417 0
M  V30 15896 H 1535.34 4.10356 -5.41096 0
M  V30 15897 H 1533.29 5.46569 -3.62764 0
M  V30 15898 H 1533.21 5.3374 -5.35404 0
M  V30 15899 H 1534.47 6.27575 -4.62353 0
M  V30 15900 N 1538.7 1.43003 0.662408 0
M  V30 15901 C 1539.95 1.44346 1.4245 0
M  V30 15902 C 1540.28 0.064094 1.94094 0
M  V30 15903 O 1539.56 -0.913633 1.71706 0
M  V30 15904 C 1539.84 2.47822 2.61259 0
M  V30 15905 C 1539.69 3.94998 2.15166 0
M  V30 15906 C 1541.01 2.48139 3.63476 0
M  V30 15907 H 1538.13 0.525606 0.51663 0
M  V30 15908 H 1540.77 1.74495 0.751754 0
M  V30 15909 H 1538.92 2.22244 3.18653 0
M  V30 15910 H 1540.59 4.31601 1.62843 0
M  V30 15911 H 1538.84 4.0827 1.46622 0
M  V30 15912 H 1539.51 4.62998 3.00561 0
M  V30 15913 H 1541.98 2.70916 3.15823 0
M  V30 15914 H 1540.86 3.22498 4.44169 0
M  V30 15915 H 1541.12 1.51184 4.15447 0
M  V30 15916 N 1540.18 -0.899904 1.29381 0
M  V30 15917 C 1541.13 -2.004 1.14493 0
M  V30 15918 C 1542.1 -1.66056 0.0383099 0
M  V30 15919 O 1543.28 -1.89687 0.20579 0
M  V30 15920 C 1540.42 -3.35039 0.827237 0
M  V30 15921 C 1539.54 -3.82166 2.01427 0
M  V30 15922 C 1538.67 -5.0538 1.63598 0
M  V30 15923 C 1537.71 -5.44876 2.78884 0
M  V30 15924 N 1536.85 -6.59276 2.41452 0
M  V30 15925 H 1541.69 -2.12466 2.08955 0
M  V30 15926 H 1539.22 -1.0405 1.03981 0
M  V30 15927 H 1541.18 -4.12511 0.62373 0
M  V30 15928 H 1539.81 -3.227 -0.0804772 0
M  V30 15929 H 1538.86 -3.00731 2.32949 0
M  V30 15930 H 1540.18 -4.07387 2.87814 0
M  V30 15931 H 1539.33 -5.90436 1.39534 0
M  V30 15932 H 1538.07 -4.81998 0.743593 0
M  V30 15933 H 1537.07 -4.58355 3.0363 0
M  V30 15934 H 1538.3 -5.7024 3.68786 0
M  V30 15935 H 1536.24 -6.37498 1.54701 0
M  V30 15936 H 1536.16 -6.84293 3.21372 0
M  V30 15937 H 1537.43 -7.47602 2.20708 0
M  V30 15938 N 1541.66 -1.11854 -1.11024 0
M  V30 15939 C 1542.59 -0.724602 -2.1639 0
M  V30 15940 C 1543.57 0.281302 -1.60148 0
M  V30 15941 O 1544.75 0.176699 -1.8767 0
M  V30 15942 C 1541.88 -0.0715375 -3.38624 0
M  V30 15943 C 1540.93 -1.04328 -4.13543 0
M  V30 15944 S 1541.76 -2.5679 -4.69914 0
M  V30 15945 C 1542.92 -1.92797 -5.95466 0
M  V30 15946 H 1543.15 -1.61713 -2.49472 0
M  V30 15947 H 1540.68 -0.937015 -1.22717 0
M  V30 15948 H 1542.64 0.298896 -4.0941 0
M  V30 15949 H 1541.3 0.798007 -3.03794 0
M  V30 15950 H 1540.49 -0.533855 -5.01165 0
M  V30 15951 H 1540.1 -1.35636 -3.48538 0
M  V30 15952 H 1542.39 -1.26703 -6.65547 0
M  V30 15953 H 1543.33 -2.78434 -6.51061 0
M  V30 15954 H 1543.74 -1.38633 -5.47212 0
M  V30 15955 N 1543.14 1.28707 -0.909517 0
M  V30 15956 C 1544.39 1.94437 -0.536401 0
M  V30 15957 C 1544.7 1.72416 0.923685 0
M  V30 15958 O 1545.9 2.32333 1.40477 0
M  V30 15959 C 1544.36 3.48246 -0.908455 0
M  V30 15960 C 1543.97 3.79051 -2.38798 0
M  V30 15961 C 1545.71 4.20156 -0.605721 0
M  V30 15962 C 1543.62 5.2615 -2.70038 0
M  V30 15963 H 1542.55 0.727842 -0.196882 0
M  V30 15964 H 1545.2 1.46283 -1.10786 0
M  V30 15965 H 1543.58 3.95107 -0.265829 0
M  V30 15966 H 1544.76 3.43014 -3.07698 0
M  V30 15967 H 1543.07 3.20303 -2.66074 0
M  V30 15968 H 1545.67 5.28439 -0.815849 0
M  V30 15969 H 1546.01 4.13792 0.456266 0
M  V30 15970 H 1546.54 3.79059 -1.20662 0
M  V30 15971 H 1543.28 5.37587 -3.75073 0
M  V30 15972 H 1542.8 5.63399 -2.05771 0
M  V30 15973 H 1544.48 5.93846 -2.56819 0
M  V30 15974 N 1544.61 0.673042 1.42506 0
M  V30 15975 C 1545.55 -0.056507 2.2813 0
M  V30 15976 C 1546.53 -0.810416 1.40965 0
M  V30 15977 O 1547.71 -0.805904 1.70404 0
M  V30 15978 C 1544.84 -1.08716 3.20778 0
M  V30 15979 C 1543.88 -0.429034 4.24337 0
M  V30 15980 S 1544.72 0.812075 5.29307 0
M  V30 15981 C 1545.87 -0.217548 6.25522 0
M  V30 15982 H 1546.1 0.669772 2.89657 0
M  V30 15983 H 1543.64 0.462526 1.47309 0
M  V30 15984 H 1545.6 -1.67672 3.74695 0
M  V30 15985 H 1544.26 -1.78587 2.5839 0
M  V30 15986 H 1543.45 -1.20666 4.89342 0
M  V30 15987 H 1543.05 0.0868926 3.73899 0
M  V30 15988 H 1545.34 -1.07781 6.68872 0
M  V30 15989 H 1546.29 0.397993 7.06981 0
M  V30 15990 H 1546.69 -0.562237 5.61693 0
M  V30 15991 N 1546.09 -1.52004 0.416254 0
M  V30 15992 C 1547.04 -2.27206 -0.405723 0
M  V30 15993 C 1548.01 -1.29913 -1.03498 0
M  V30 15994 O 1549.19 -1.58786 -1.0579 0
M  V30 15995 C 1546.33 -3.10186 -1.51258 0
M  V30 15996 C 1545.45 -4.22445 -0.903539 0
M  V30 15997 C 1544.58 -4.92771 -1.98368 0
M  V30 15998 C 1543.62 -5.96983 -1.35196 0
M  V30 15999 N 1542.76 -6.60798 -2.37255 0
M  V30 16000 H 1547.6 -2.97016 0.241983 0
M  V30 16001 H 1545.14 -1.46514 0.131174 0
M  V30 16002 H 1547.09 -3.56606 -2.16537 0
M  V30 16003 H 1545.72 -2.42532 -2.13021 0
M  V30 16004 H 1544.78 -3.80144 -0.139607 0
M  V30 16005 H 1546.09 -4.97176 -0.402136 0
M  V30 16006 H 1545.24 -5.42633 -2.71357 0
M  V30 16007 H 1543.98 -4.17624 -2.51876 0
M  V30 16008 H 1542.99 -5.46434 -0.607431 0
M  V30 16009 H 1544.21 -6.74076 -0.824482 0
M  V30 16010 H 1542.16 -5.88476 -2.89882 0
M  V30 16011 H 1542.07 -7.31227 -1.91947 0
M  V30 16012 H 1543.34 -7.15296 -3.09792 0
M  V30 16013 N 1547.57 -0.146903 -1.56914 0
M  V30 16014 C 1548.8 0.511181 -2.00486 0
M  V30 16015 C 1549.21 1.58425 -1.02699 0
M  V30 16016 O 1548.57 1.82484 -0.0239878 0
M  V30 16017 C 1548.62 1.11191 -3.43975 0
M  V30 16018 O 1548.34 0.0817094 -4.38024 0
M  V30 16019 C 1549.84 1.85061 -4.02824 0
M  V30 16020 H 1547.06 0.133078 -0.657671 0
M  V30 16021 H 1549.61 -0.241457 -2.0307 0
M  V30 16022 H 1547.76 1.81517 -3.42243 0
M  V30 16023 H 1548.18 0.52181 -5.21898 0
M  V30 16024 H 1549.65 2.22385 -5.05222 0
M  V30 16025 H 1550.13 2.73649 -3.4353 0
M  V30 16026 H 1550.73 1.19434 -4.08186 0
M  V30 16027 N 1549.05 1.57088 0.126881 0
M  V30 16028 C 1550.27 1.88984 0.854389 0
M  V30 16029 C 1550.7 0.738037 1.73016 0
M  V30 16030 O 1550.06 -0.311728 1.786 0
M  V30 16031 C 1550.1 3.19584 1.67028 0
M  V30 16032 O 1549.21 3.04935 2.77648 0
M  V30 16033 H 1548.55 0.620354 0.236763 0
M  V30 16034 H 1551.08 2.04295 0.111647 0
M  V30 16035 H 1551.09 3.52109 2.06115 0
M  V30 16036 H 1549.76 4.03012 1.02732 0
M  V30 16037 H 1548.34 2.83861 2.41821 0
M  V30 16038 N 1550.53 -0.396836 1.52522 0
M  V30 16039 C 1551.77 -1.14432 1.67431 0
M  V30 16040 C 1552.11 -1.89842 0.409115 0
M  V30 16041 O 1551.38 -1.85244 -0.592863 0
M  V30 16042 C 1551.66 -2.12889 2.90431 0
M  V30 16043 C 1551.52 -1.41295 4.27031 0
M  V30 16044 C 1552.84 -3.13412 3.08967 0
M  V30 16045 H 1549.95 -0.414643 0.609295 0
M  V30 16046 H 1552.6 -0.428604 1.85103 0
M  V30 16047 H 1550.75 -2.73924 2.75495 0
M  V30 16048 H 1552.42 -0.832848 4.53719 0
M  V30 16049 H 1550.66 -0.714834 4.2787 0
M  V30 16050 H 1551.33 -2.13198 5.09167 0
M  V30 16051 H 1553.81 -2.62462 3.22883 0
M  V30 16052 H 1552.68 -3.79555 3.96522 0
M  V30 16053 H 1552.95 -3.81836 2.22831 0
M  V30 16054 N 1552.01 -1.43353 -0.654814 0
M  V30 16055 C 1552.94 -1.51194 -1.7794 0
M  V30 16056 C 1553.92 -0.366747 -1.66099 0
M  V30 16057 O 1555.1 -0.58375 -1.85219 0
M  V30 16058 C 1552.23 -1.43298 -3.16359 0
M  V30 16059 C 1551.19 -2.5605 -3.42961 0
M  V30 16060 C 1550.51 -2.33208 -4.81163 0
M  V30 16061 C 1551.81 -3.98303 -3.37864 0
M  V30 16062 H 1553.51 -2.4532 -1.71635 0
M  V30 16063 H 1551.05 -1.18072 -0.824319 0
M  V30 16064 H 1553 -1.47388 -3.94784 0
M  V30 16065 H 1551.73 -0.456761 -3.2339 0
M  V30 16066 H 1550.39 -2.5131 -2.66906 0
M  V30 16067 H 1550.04 -1.33833 -4.84869 0
M  V30 16068 H 1549.74 -3.08789 -4.99923 0
M  V30 16069 H 1551.26 -2.39079 -5.61848 0
M  V30 16070 H 1552.67 -4.04538 -4.06229 0
M  V30 16071 H 1551.07 -4.73897 -3.6816 0
M  V30 16072 H 1552.14 -4.23552 -2.36075 0
M  V30 16073 N 1553.48 0.89303 -1.29857 0
M  V30 16074 C 1554.41 2.01422 -1.18117 0
M  V30 16075 C 1555.39 1.6994 -0.0737487 0
M  V30 16076 O 1556.58 1.92527 -0.254387 0
M  V30 16077 C 1553.71 3.36385 -0.863842 0
M  V30 16078 C 1552.66 3.821 -1.92831 0
M  V30 16079 C 1551.99 5.14263 -1.46415 0
M  V30 16080 C 1553.29 4.01699 -3.33819 0
M  V30 16081 H 1554.98 2.11502 -2.11913 0
M  V30 16082 H 1552.53 1.01622 -1.02024 0
M  V30 16083 H 1554.48 4.14335 -0.768397 0
M  V30 16084 H 1553.21 3.26415 0.109816 0
M  V30 16085 H 1551.87 3.06372 -2.01325 0
M  V30 16086 H 1551.51 5.00714 -0.478983 0
M  V30 16087 H 1551.21 5.45821 -2.17609 0
M  V30 16088 H 1552.74 5.94747 -1.38234 0
M  V30 16089 H 1554.15 4.70111 -3.28129 0
M  V30 16090 H 1552.55 4.44621 -4.03029 0
M  V30 16091 H 1553.62 3.05816 -3.76304 0
M  V30 16092 N 1554.96 1.12442 1.10429 0
M  V30 16093 C 1556.19 0.902914 1.86714 0
M  V30 16094 C 1556.61 -0.542514 1.80107 0
M  V30 16095 O 1555.97 -1.38406 1.17105 0
M  V30 16096 C 1556.02 1.38238 3.33051 0
M  V30 16097 O 1555.12 0.560877 4.08568 0
M  V30 16098 H 1554.46 0.324397 0.579364 0
M  V30 16099 H 1556.99 1.49652 1.39519 0
M  V30 16100 H 1557 1.38148 3.839 0
M  V30 16101 H 1555.68 2.43486 3.37176 0
M  V30 16102 H 1554.25 0.628771 3.67561 0
M  V30 16103 N 1556.44 -1.28223 0.91633 0
M  V30 16104 C 1557.69 -1.95508 0.561095 0
M  V30 16105 C 1558.04 -1.70789 -0.885932 0
M  V30 16106 O 1557.33 -1.01983 -1.62204 0
M  V30 16107 C 1557.53 -3.48112 0.809509 0
M  V30 16108 C 1557.36 -3.87667 2.27913 0
M  V30 16109 C 1556.13 -4.11698 2.92973 0
M  V30 16110 C 1558.32 -3.98127 3.25576 0
M  V30 16111 N 1556.31 -4.37946 4.30205 0
M  V30 16112 C 1557.68 -4.28618 4.4798 0
M  V30 16113 C 1559.73 -3.8066 3.2094 0
M  V30 16114 C 1558.44 -4.43462 5.66334 0
M  V30 16115 C 1560.46 -3.96723 4.38594 0
M  V30 16116 C 1559.82 -4.2759 5.59773 0
M  V30 16117 H 1555.92 -0.739174 0.255237 0
M  V30 16118 H 1558.51 -1.54823 1.18059 0
M  V30 16119 H 1556.68 -3.87781 0.219261 0
M  V30 16120 H 1558.41 -4.02535 0.418046 0
M  V30 16121 H 1555.16 -4.06093 2.43691 0
M  V30 16122 H 1555.59 -4.55148 5.01168 0
M  V30 16123 H 1560.23 -3.55846 2.28328 0
M  V30 16124 H 1557.95 -4.67107 6.59421 0
M  V30 16125 H 1561.53 -3.84641 4.36512 0
M  V30 16126 H 1560.41 -4.39755 6.49296 0
M  V30 16127 N 1557.92 -0.68059 -1.42147 0
M  V30 16128 C 1558.83 -0.00595573 -2.34599 0
M  V30 16129 C 1559.84 0.782528 -1.55411 0
M  V30 16130 O 1561.02 0.723524 -1.87955 0
M  V30 16131 C 1558.08 0.92964 -3.34004 0
M  V30 16132 C 1557.15 0.135041 -4.29088 0
M  V30 16133 C 1556.38 1.02607 -5.23744 0
M  V30 16134 O 1556.6 2.26562 -5.23475 0
M  V30 16135 O 1555.54 0.483774 -5.99953 0
M  V30 16136 H 1559.36 -0.767652 -2.93838 0
M  V30 16137 H 1556.95 -0.440849 -1.42748 0
M  V30 16138 H 1558.83 1.46657 -3.95057 0
M  V30 16139 H 1557.5 1.67109 -2.7723 0
M  V30 16140 H 1556.41 -0.44613 -3.7143 0
M  V30 16141 H 1557.74 -0.567417 -4.88918 0
M  V30 16142 N 1559.4 1.51781 -0.424309 0
M  V30 16143 C 1560.64 2.01969 0.146492 0
M  V30 16144 C 1560.97 1.30918 1.43843 0
M  V30 16145 O 1560.23 0.408705 1.91385 0
M  V30 16146 C 1560.52 3.54855 0.42574 0
M  V30 16147 C 1560.19 4.44123 -0.778814 0
M  V30 16148 C 1558.85 4.68242 -1.10918 0
M  V30 16149 C 1561.2 4.96579 -1.58299 0
M  V30 16150 C 1558.53 5.42063 -2.24464 0
M  V30 16151 C 1560.88 5.71645 -2.70934 0
M  V30 16152 C 1559.55 5.94031 -3.04439 0
M  V30 16153 H 1558.82 0.739059 0.0536052 0
M  V30 16154 H 1561.47 1.82856 -0.568838 0
M  V30 16155 H 1559.77 3.72229 1.22282 0
M  V30 16156 H 1561.47 3.91212 0.880598 0
M  V30 16157 H 1558.06 4.25539 -0.511363 0
M  V30 16158 H 1562.24 4.77841 -1.34098 0
M  V30 16159 H 1557.5 5.57614 -2.50753 0
M  V30 16160 H 1561.67 6.11284 -3.33624 0
M  V30 16161 H 1559.3 6.51014 -3.92537 0
M  V30 16162 N 1560.87 0.155222 1.56834 0
M  V30 16163 C 1562.28 -0.364232 1.83113 0
M  V30 16164 C 1562.64 -1.64173 1.07432 0
M  V30 16165 O 1561.76 -2.13988 0.322202 0
M  V30 16166 C 1562.36 -0.667608 3.32157 0
M  V30 16167 C 1560.91 -1.13156 3.58989 0
M  V30 16168 C 1560.06 -0.158941 2.76844 0
M  V30 16169 H 1563.01 0.379779 1.54089 0
M  V30 16170 H 1563.03 -1.52141 3.4876 0
M  V30 16171 H 1562.55 0.262355 3.87212 0
M  V30 16172 H 1560.65 -2.07717 3.09329 0
M  V30 16173 H 1560.76 -1.05184 4.67411 0
M  V30 16174 H 1559.12 -0.653181 2.46182 0
M  V30 16175 H 1559.91 0.764757 3.34674 0
M  V30 16176 N 1562.35 -1.57153 -0.118549 0
M  V30 16177 C 1563.63 -1.75846 -0.856587 0
M  V30 16178 C 1564.01 -0.730801 -1.98047 0
M  V30 16179 O 1563.36 0.245156 -2.27181 0
M  V30 16180 C 1563.57 -3.20864 -1.37286 0
M  V30 16181 C 1564.91 -3.83378 -1.82501 0
M  V30 16182 O 1565.94 -3.24469 -1.46964 0
M  V30 16183 O 1564.8 -4.86922 -2.48132 0
M  V30 16184 H 1561.89 -0.72002 -0.406817 0
M  V30 16185 H 1564.44 -1.69392 -0.102254 0
M  V30 16186 H 1563.21 -3.87177 -0.566531 0
M  V30 16187 H 1562.83 -3.31858 -2.18988 0
M  V30 16188 N 1563.83 0.388742 -1.5273 0
M  V30 16189 C 1564.78 1.49531 -1.78166 0
M  V30 16190 C 1565.77 1.56449 -0.649613 0
M  V30 16191 O 1566.98 1.59612 -0.832097 0
M  V30 16192 H 1563.35 0.497684 -0.56375 0
M  V30 16193 H 1565.32 1.25271 -2.70831 0
M  V30 16194 C 1564.07 2.86663 -1.96774 0
M  V30 16195 H 1563.4 2.82089 -2.83312 0
M  V30 16196 H 1564.84 3.63328 -2.18561 0
M  V30 16197 C 1563.29 3.28665 -0.740345 0
M  V30 16198 O 1563.82 4.01616 0.0821005 0
M  V30 16199 N 1562.03 2.84947 -0.570383 0
M  V30 16200 H 1561.58 2.25748 -1.24078 0
M  V30 16201 H 1561.54 3.13408 0.249496 0
M  V30 16202 N 1565.31 1.43698 0.647203 0
M  V30 16203 C 1566.54 1.48869 1.43254 0
M  V30 16204 C 1566.95 0.107061 1.88897 0
M  V30 16205 O 1566.29 -0.894189 1.60468 0
M  V30 16206 C 1566.35 2.37755 2.69653 0
M  V30 16207 C 1566.01 3.85197 2.45911 0
M  V30 16208 C 1567.01 4.7615 2.08752 0
M  V30 16209 C 1564.7 4.29744 2.60049 0
M  V30 16210 C 1566.69 6.09647 1.86037 0
M  V30 16211 C 1564.38 5.63293 2.36949 0
M  V30 16212 C 1565.38 6.53061 1.99999 0
M  V30 16213 O 1565.06 7.8414 1.77144 0
M  V30 16214 H 1564.8 0.507694 0.446343 0
M  V30 16215 H 1567.35 1.89172 0.800205 0
M  V30 16216 H 1565.58 1.9235 3.35467 0
M  V30 16217 H 1567.27 2.3406 3.31618 0
M  V30 16218 H 1568.03 4.4301 1.974 0
M  V30 16219 H 1563.91 3.60142 2.87782 0
M  V30 16220 H 1567.46 6.79676 1.57121 0
M  V30 16221 H 1563.35 5.95998 2.47905 0
M  V30 16222 H 1564.12 7.95778 1.91521 0
M  V30 16223 N 1566.79 -0.886131 1.30328 0
M  V30 16224 C 1567.73 -2.01312 1.16516 0
M  V30 16225 C 1568.73 -1.69223 0.0773431 0
M  V30 16226 O 1569.93 -1.78418 0.238111 0
M  V30 16227 H 1566.31 -0.66006 0.360312 0
M  V30 16228 H 1568.28 -2.10097 2.11901 0
M  V30 16229 C 1567.03 -3.36573 0.872592 0
M  V30 16230 H 1566.35 -3.61775 1.70172 0
M  V30 16231 H 1567.79 -4.16073 0.816049 0
M  V30 16232 C 1566.25 -3.34215 -0.424465 0
M  V30 16233 O 1566.78 -3.74758 -1.44634 0
M  V30 16234 N 1564.99 -2.87323 -0.435207 0
M  V30 16235 H 1564.53 -2.54525 0.396851 0
M  V30 16236 H 1564.49 -2.86128 -1.303 0
M  V30 16237 N 1568.26 -1.13026 -1.09832 0
M  V30 16238 C 1569.49 -0.912803 -1.86233 0
M  V30 16239 C 1569.91 0.532955 -1.80392 0
M  V30 16240 O 1569.27 1.37783 -1.17837 0
M  V30 16241 C 1569.32 -1.40002 -3.32313 0
M  V30 16242 O 1568.42 -0.582537 -4.08265 0
M  V30 16243 H 1567.77 -0.327464 -0.577636 0
M  V30 16244 H 1570.3 -1.5039 -1.38723 0
M  V30 16245 H 1570.31 -1.40182 -3.83162 0
M  V30 16246 H 1568.98 -2.4527 -3.3588 0
M  V30 16247 H 1567.56 -0.648255 -3.67222 0
M  V30 16248 N 1569.74 1.27735 -0.923117 0
M  V30 16249 C 1571.15 1.76579 -0.606376 0
M  V30 16250 C 1571.5 1.75437 0.878428 0
M  V30 16251 O 1570.63 1.35495 1.68731 0
M  V30 16252 C 1571.22 3.20652 -1.09396 0
M  V30 16253 C 1569.78 3.67181 -0.827974 0
M  V30 16254 C 1568.93 2.47259 -1.25532 0
M  V30 16255 H 1571.88 1.14067 -1.10338 0
M  V30 16256 H 1571.9 3.77952 -0.439581 0
M  V30 16257 H 1571.41 3.21451 -2.17465 0
M  V30 16258 H 1569.52 3.71832 0.239098 0
M  V30 16259 H 1569.63 4.56875 -1.44229 0
M  V30 16260 H 1567.99 2.45622 -0.673928 0
M  V30 16261 H 1568.78 2.50771 -2.34455 0
M  V30 16262 N 1571.22 0.688118 1.41784 0
M  V30 16263 C 1572.45 0.22475 2.05676 0
M  V30 16264 C 1572.86 -1.1232 1.51755 0
M  V30 16265 O 1572.22 -1.70041 0.662735 0
M  V30 16266 C 1572.27 0.165661 3.6112 0
M  V30 16267 O 1571.99 1.46035 4.13044 0
M  V30 16268 C 1573.49 -0.319599 4.42146 0
M  V30 16269 H 1570.71 0.106135 0.662553 0
M  V30 16270 H 1573.26 0.938605 1.81688 0
M  V30 16271 H 1571.41 -0.498968 3.84173 0
M  V30 16272 H 1571.83 1.34252 5.07027 0
M  V30 16273 H 1573.3 -0.30983 5.5113 0
M  V30 16274 H 1573.78 -1.3572 4.17704 0
M  V30 16275 H 1574.38 0.313764 4.24141 0
M  V30 16276 N 1572.7 -1.51554 0.432352 0
M  V30 16277 C 1574.11 -1.86673 -0.0319274 0
M  V30 16278 C 1574.46 -1.34981 -1.42389 0
M  V30 16279 O 1573.59 -0.698556 -2.04815 0
M  V30 16280 C 1574.18 -3.38738 -0.0647127 0
M  V30 16281 C 1572.74 -3.73411 -0.47339 0
M  V30 16282 C 1571.89 -2.75242 0.337187 0
M  V30 16283 H 1574.84 -1.44849 0.648417 0
M  V30 16284 H 1574.86 -3.70297 -0.875239 0
M  V30 16285 H 1574.37 -3.76331 0.948507 0
M  V30 16286 H 1572.47 -3.41406 -1.4924 0
M  V30 16287 H 1572.58 -4.78675 -0.20165 0
M  V30 16288 H 1570.95 -2.53883 -0.203801 0
M  V30 16289 H 1571.73 -3.15677 1.34919 0
M  V30 16290 N 1574.18 -0.163538 -1.56749 0
M  V30 16291 C 1575.41 0.489178 -2.00725 0
M  V30 16292 C 1575.81 1.57869 -1.04279 0
M  V30 16293 O 1575.16 1.83668 -0.0344434 0
M  V30 16294 C 1575.22 1.13443 -3.41132 0
M  V30 16295 C 1574.88 0.187525 -4.56615 0
M  V30 16296 C 1575.88 -0.591169 -5.16528 0
M  V30 16297 C 1573.57 0.0856149 -5.02227 0
M  V30 16298 C 1575.56 -1.45905 -6.20476 0
M  V30 16299 C 1573.25 -0.785859 -6.06026 0
M  V30 16300 C 1574.24 -1.55678 -6.65021 0
M  V30 16301 O 1573.93 -2.41371 -7.66809 0
M  V30 16302 H 1573.66 0.130353 -0.663313 0
M  V30 16303 H 1576.22 -0.260065 -2.03747 0
M  V30 16304 H 1574.45 1.93165 -3.34999 0
M  V30 16305 H 1576.14 1.68856 -3.69111 0
M  V30 16306 H 1576.9 -0.522563 -4.82177 0
M  V30 16307 H 1572.78 0.675439 -4.56025 0
M  V30 16308 H 1576.33 -2.06125 -6.66452 0
M  V30 16309 H 1572.22 -0.855696 -6.39803 0
M  V30 16310 H 1572.99 -2.34801 -7.84099 0
M  V30 16311 N 1575.65 1.57214 0.110213 0
M  V30 16312 C 1576.6 2.00978 1.13474 0
M  V30 16313 C 1577.57 0.883436 1.40658 0
M  V30 16314 O 1578.76 1.14832 1.52376 0
M  V30 16315 C 1575.9 2.42654 2.45383 0
M  V30 16316 C 1575.01 3.68744 2.2506 0
M  V30 16317 C 1574.14 3.99363 3.50261 0
M  V30 16318 C 1573.18 5.18608 3.25133 0
M  V30 16319 N 1572.32 5.45055 4.42561 0
M  V30 16320 H 1577.16 2.88289 0.754543 0
M  V30 16321 H 1574.7 1.426 0.361064 0
M  V30 16322 H 1576.66 2.64857 3.22345 0
M  V30 16323 H 1575.29 1.58374 2.81278 0
M  V30 16324 H 1574.34 3.54106 1.38972 0
M  V30 16325 H 1575.65 4.55857 2.02475 0
M  V30 16326 H 1574.8 4.22261 4.35638 0
M  V30 16327 H 1573.54 3.10743 3.75886 0
M  V30 16328 H 1572.55 4.95546 2.38148 0
M  V30 16329 H 1573.77 6.08814 3.0087 0
M  V30 16330 H 1571.72 4.59392 4.6829 0
M  V30 16331 H 1571.64 6.26508 4.23111 0
M  V30 16332 H 1572.9 5.72478 5.29046 0
M  V30 16333 N 1577.13 -0.380637 1.52934 0
M  V30 16334 C 1578.38 -1.12207 1.67608 0
M  V30 16335 C 1578.69 -1.90891 0.426597 0
M  V30 16336 O 1579.9 -2.67684 0.453612 0
M  V30 16337 C 1578.36 -2.04381 2.96237 0
M  V30 16338 C 1577.96 -1.3108 4.28395 0
M  V30 16339 C 1579.71 -2.78608 3.20277 0
M  V30 16340 C 1577.62 -2.22069 5.48124 0
M  V30 16341 H 1576.55 -0.422582 0.624452 0
M  V30 16342 H 1579.2 -0.384198 1.79433 0
M  V30 16343 H 1577.58 -2.81838 2.78179 0
M  V30 16344 H 1578.75 -0.587907 4.57034 0
M  V30 16345 H 1577.07 -0.687778 4.10681 0
M  V30 16346 H 1579.66 -3.46883 4.0691 0
M  V30 16347 H 1580.01 -3.43149 2.35701 0
M  V30 16348 H 1580.54 -2.08241 3.3894 0
M  V30 16349 H 1577.28 -1.62131 6.35133 0
M  V30 16350 H 1576.8 -2.9225 5.23784 0
M  V30 16351 H 1578.48 -2.81966 5.82327 0
M  V30 16352 N 1578.61 -1.44039 -0.639573 0
M  V30 16353 C 1579.54 -1.46233 -1.76489 0
M  V30 16354 C 1580.56 -0.356739 -1.58843 0
M  V30 16355 O 1581.74 -0.621988 -1.67313 0
M  V30 16356 C 1578.84 -1.27252 -3.14102 0
M  V30 16357 C 1578.02 -2.50902 -3.58283 0
M  V30 16358 C 1577.08 -2.26944 -4.74745 0
M  V30 16359 O 1576.1 -3.00381 -4.83487 0
M  V30 16360 N 1577.3 -1.29468 -5.65878 0
M  V30 16361 H 1580.07 -2.43243 -1.7508 0
M  V30 16362 H 1577.63 -1.3937 -0.823867 0
M  V30 16363 H 1579.62 -1.09085 -3.89721 0
M  V30 16364 H 1578.19 -0.386383 -3.10203 0
M  V30 16365 H 1577.41 -2.84403 -2.72963 0
M  V30 16366 H 1578.7 -3.33163 -3.84552 0
M  V30 16367 H 1578.1 -0.687994 -5.61501 0
M  V30 16368 H 1576.66 -1.17281 -6.41162 0
M  V30 16369 N 1580.09 0.879207 -1.30796 0
M  V30 16370 C 1581.32 1.66208 -1.22713 0
M  V30 16371 C 1581.73 1.88014 0.211506 0
M  V30 16372 O 1581.07 1.43183 1.15084 0
M  V30 16373 C 1581.13 3.05733 -1.89123 0
M  V30 16374 C 1580.8 3.07075 -3.38458 0
M  V30 16375 C 1581.79 2.85709 -4.34358 0
M  V30 16376 C 1579.48 3.28489 -3.8 0
M  V30 16377 C 1581.47 2.85722 -5.69773 0
M  V30 16378 C 1579.16 3.28131 -5.15532 0
M  V30 16379 C 1580.16 3.06773 -6.10229 0
M  V30 16380 O 1579.84 3.06243 -7.43283 0
M  V30 16381 H 1579.58 0.525224 -0.425577 0
M  V30 16382 H 1582.13 1.10636 -1.73057 0
M  V30 16383 H 1580.36 3.62993 -1.33316 0
M  V30 16384 H 1582.05 3.66199 -1.7508 0
M  V30 16385 H 1582.82 2.68956 -4.03593 0
M  V30 16386 H 1578.69 3.44147 -3.06731 0
M  V30 16387 H 1582.24 2.6897 -6.43662 0
M  V30 16388 H 1578.14 3.44422 -5.45934 0
M  V30 16389 H 1578.9 3.22369 -7.52343 0
M  V30 16390 N 1581.57 1.13606 1.09231 0
M  V30 16391 C 1582.52 0.810747 2.18013 0
M  V30 16392 C 1583.51 -0.207782 1.68121 0
M  V30 16393 O 1584.72 -0.0647274 1.79884 0
M  V30 16394 H 1581.09 0.244415 0.711172 0
M  V30 16395 H 1583.06 1.73632 2.42682 0
M  V30 16396 C 1581.81 0.295302 3.46444 0
M  V30 16397 H 1581.13 1.07037 3.85205 0
M  V30 16398 H 1582.57 0.106127 4.23867 0
M  V30 16399 C 1581.03 -0.979398 3.2235 0
M  V30 16400 O 1581.56 -2.05483 3.45166 0
M  V30 16401 N 1579.77 -0.911282 2.75942 0
M  V30 16402 H 1579.32 -0.035979 2.57575 0
M  V30 16403 H 1579.27 -1.76476 2.60199 0
M  V30 16404 N 1583.05 -1.27244 0.929878 0
M  V30 16405 C 1584.29 -1.93886 0.570331 0
M  V30 16406 C 1584.61 -1.7342 -0.891656 0
M  V30 16407 O 1583.88 -1.0832 -1.63228 0
M  V30 16408 H 1582.46 -0.717476 0.207937 0
M  V30 16409 H 1585.13 -1.5491 1.18275 0
M  V30 16410 H 1584.22 -3.02236 0.778463 0
M  V30 16411 N 1584.52 -0.695628 -1.41417 0
M  V30 16412 C 1585.45 -0.0447013 -2.33457 0
M  V30 16413 C 1586.43 0.767104 -1.51821 0
M  V30 16414 O 1587.62 0.720066 -1.80357 0
M  V30 16415 C 1584.75 0.892353 -3.3564 0
M  V30 16416 C 1583.7 0.187638 -4.27588 0
M  V30 16417 C 1583.03 1.23906 -5.20146 0
M  V30 16418 C 1584.33 -0.946093 -5.1366 0
M  V30 16419 H 1586.02 -0.81343 -2.88138 0
M  V30 16420 H 1583.57 -0.392614 -1.38544 0
M  V30 16421 H 1585.52 1.35696 -3.98954 0
M  V30 16422 H 1584.25 1.69275 -2.79309 0
M  V30 16423 H 1582.91 -0.256942 -3.65698 0
M  V30 16424 H 1582.55 2.03198 -4.6013 0
M  V30 16425 H 1582.25 0.772536 -5.82499 0
M  V30 16426 H 1583.78 1.70417 -5.86336 0
M  V30 16427 H 1585.19 -0.561764 -5.70541 0
M  V30 16428 H 1583.59 -1.33971 -5.84954 0
M  V30 16429 H 1584.66 -1.78573 -4.50821 0
M  V30 16430 N 1586 1.51322 -0.440383 0
M  V30 16431 C 1587.23 2.0653 0.123649 0
M  V30 16432 C 1587.64 1.30751 1.36197 0
M  V30 16433 O 1587 0.367932 1.78753 0
M  V30 16434 C 1587.05 3.58778 0.442802 0
M  V30 16435 O 1586.77 4.31695 -0.746375 0
M  V30 16436 C 1588.27 4.3051 1.05717 0
M  V30 16437 H 1585.49 0.670968 0.00657466 0
M  V30 16438 H 1588.04 1.94864 -0.620341 0
M  V30 16439 H 1586.19 3.70349 1.13669 0
M  V30 16440 H 1586.61 5.22368 -0.472466 0
M  V30 16441 H 1588.08 5.38111 1.23046 0
M  V30 16442 H 1588.56 3.88999 2.03903 0
M  V30 16443 H 1589.16 4.2339 0.402574 0
M  V30 16444 N 1587.48 0.171848 1.5666 0
M  V30 16445 C 1588.41 -0.753861 2.20996 0
M  V30 16446 C 1589.39 -1.23873 1.16574 0
M  V30 16447 O 1590.58 -1.29179 1.45005 0
M  V30 16448 C 1587.71 -1.98314 2.85112 0
M  V30 16449 C 1586.66 -1.6341 3.95577 0
M  V30 16450 C 1585.99 -2.93807 4.46745 0
M  V30 16451 C 1587.29 -0.861713 5.15142 0
M  V30 16452 H 1588.98 -0.217598 2.98608 0
M  V30 16453 H 1586.53 -0.10322 1.4363 0
M  V30 16454 H 1588.48 -2.63576 3.28794 0
M  V30 16455 H 1587.2 -2.54354 2.04869 0
M  V30 16456 H 1585.86 -1.00516 3.52551 0
M  V30 16457 H 1585.51 -3.47889 3.63293 0
M  V30 16458 H 1585.21 -2.71207 5.21268 0
M  V30 16459 H 1586.73 -3.60098 4.93114 0
M  V30 16460 H 1588.15 -1.41693 5.55514 0
M  V30 16461 H 1586.54 -0.734727 5.95585 0
M  V30 16462 H 1587.61 0.141851 4.84692 0
M  V30 16463 N 1588.96 -1.5727 -0.101874 0
M  V30 16464 C 1590.23 -1.76745 -0.837888 0
M  V30 16465 C 1590.61 -0.751766 -1.9726 0
M  V30 16466 O 1589.96 0.221046 -2.27428 0
M  V30 16467 C 1590.17 -3.22302 -1.33875 0
M  V30 16468 C 1591.52 -3.85292 -1.78425 0
M  V30 16469 O 1592.54 -3.2601 -1.43514 0
M  V30 16470 O 1591.4 -4.89526 -2.42953 0
M  V30 16471 H 1588.5 -0.724294 -0.399157 0
M  V30 16472 H 1591.04 -1.69491 -0.0842821 0
M  V30 16473 H 1589.82 -3.87756 -0.525434 0
M  V30 16474 H 1589.44 -3.34162 -2.15456 0
M  V30 16475 N 1590.44 0.372521 -1.53134 0
M  V30 16476 C 1591.68 1.11754 -1.6923 0
M  V30 16477 C 1592.01 1.89167 -0.439265 0
M  V30 16478 O 1591.29 1.86164 0.563317 0
M  V30 16479 C 1591.57 2.08242 -2.93781 0
M  V30 16480 C 1591.43 1.34484 -4.29225 0
M  V30 16481 C 1592.74 3.08457 -3.13914 0
M  V30 16482 H 1589.86 0.404898 -0.615814 0
M  V30 16483 H 1592.51 0.399101 -1.85761 0
M  V30 16484 H 1590.66 2.69507 -2.79818 0
M  V30 16485 H 1592.33 0.76056 -4.54987 0
M  V30 16486 H 1590.57 0.646673 -4.28953 0
M  V30 16487 H 1591.24 2.05071 -5.12494 0
M  V30 16488 H 1593.72 2.57292 -3.27017 0
M  V30 16489 H 1592.59 3.73198 -4.0251 0
M  V30 16490 H 1592.85 3.78243 -2.28878 0
M  V30 16491 N 1591.91 1.44376 0.631925 0
M  V30 16492 C 1593.19 1.37592 1.39024 0
M  V30 16493 C 1593.57 0.0342456 2.11072 0
M  V30 16494 O 1592.92 -0.983136 2.06268 0
M  V30 16495 C 1593.13 2.57355 2.35732 0
M  V30 16496 C 1594.48 3.01384 2.99087 0
M  V30 16497 O 1595.5 2.57554 2.46057 0
M  V30 16498 O 1594.36 3.77375 3.95285 0
M  V30 16499 H 1591.45 0.544828 0.622167 0
M  V30 16500 H 1594 1.56464 0.657048 0
M  V30 16501 H 1592.77 3.46615 1.81587 0
M  V30 16502 H 1592.39 2.40693 3.16469 0
M  V30 16503 N 1593.39 -0.872258 1.31261 0
M  V30 16504 C 1594.64 -1.6219 1.20576 0
M  V30 16505 C 1594.96 -1.93557 -0.236769 0
M  V30 16506 O 1594.23 -1.58094 -1.15686 0
M  V30 16507 H 1592.81 -0.601265 0.443272 0
M  V30 16508 H 1595.47 -1.04438 1.64556 0
M  V30 16509 H 1594.57 -2.56653 1.77582 0
M  V30 16510 N 1594.87 -1.14184 -1.08627 0
M  V30 16511 C 1596.29 -0.881757 -1.33031 0
M  V30 16512 C 1596.49 0.478313 -1.95741 0
M  V30 16513 O 1595.54 1.22308 -2.209 0
M  V30 16514 C 1596.85 -2.01274 -2.23404 0
M  V30 16515 C 1598.4 -2.04578 -2.3689 0
M  V30 16516 C 1598.88 -3.16962 -3.30604 0
M  V30 16517 N 1600.37 -3.16526 -3.3818 0
M  V30 16518 C 1601.1 -4.00124 -4.10716 0
M  V30 16519 N 1600.6 -4.93757 -4.8598 0
M  V30 16520 N 1602.39 -3.88193 -4.06525 0
M  V30 16521 H 1594.54 -2.01787 -0.663017 0
M  V30 16522 H 1596.81 -0.879152 -0.354677 0
M  V30 16523 H 1596.51 -2.9938 -1.84566 0
M  V30 16524 H 1596.39 -1.93393 -3.2385 0
M  V30 16525 H 1598.77 -1.0708 -2.74987 0
M  V30 16526 H 1598.85 -2.16529 -1.36194 0
M  V30 16527 H 1598.5 -4.14704 -2.93228 0
M  V30 16528 H 1598.43 -3.02248 -4.31223 0
M  V30 16529 H 1600.92 -2.48708 -2.84522 0
M  V30 16530 H 1601.23 -5.54015 -5.38783 0
M  V30 16531 H 1599.58 -4.97756 -4.8504 0
M  V30 16532 H 1602.77 -3.14365 -3.46831 0
M  V30 16533 H 1602.94 -4.53571 -4.62793 0
M  V30 16534 N 1596.35 1.26749 -0.936613 0
M  V30 16535 C 1597.58 1.98059 -0.598357 0
M  V30 16536 C 1597.99 1.6979 0.825646 0
M  V30 16537 O 1597.35 0.963514 1.54992 0
M  V30 16538 C 1597.4 3.51948 -0.825519 0
M  V30 16539 O 1597.12 3.79232 -2.19351 0
M  V30 16540 C 1598.62 4.40503 -0.497186 0
M  V30 16541 H 1595.84 0.631826 -0.225914 0
M  V30 16542 H 1598.39 1.61379 -1.25607 0
M  V30 16543 H 1596.54 3.86806 -0.214479 0
M  V30 16544 H 1596.95 4.73782 -2.25014 0
M  V30 16545 H 1598.43 5.47457 -0.706779 0
M  V30 16546 H 1598.91 4.35516 0.567645 0
M  V30 16547 H 1599.51 4.11181 -1.08675 0
M  V30 16548 N 1597.83 0.703118 1.41046 0
M  V30 16549 C 1599.05 0.246552 2.05426 0
M  V30 16550 C 1599.47 -1.10704 1.52938 0
M  V30 16551 O 1598.83 -1.69329 0.680733 0
M  V30 16552 C 1598.88 0.203953 3.60924 0
M  V30 16553 O 1598.6 1.50408 4.11472 0
M  V30 16554 C 1600.1 -0.272686 4.42461 0
M  V30 16555 H 1597.32 0.113157 0.66139 0
M  V30 16556 H 1599.86 0.957823 1.80682 0
M  V30 16557 H 1598.02 -0.458194 3.84681 0
M  V30 16558 H 1598.43 1.39622 5.05575 0
M  V30 16559 H 1599.91 -0.251357 5.51427 0
M  V30 16560 H 1600.38 -1.31282 4.1912 0
M  V30 16561 H 1600.99 0.358733 4.23784 0
M  V30 16562 N 1599.3 -1.51086 0.448402 0
M  V30 16563 C 1600.25 -2.28015 -0.357438 0
M  V30 16564 C 1601.22 -1.32079 -1.00719 0
M  V30 16565 O 1602.41 -1.60995 -1.02398 0
M  V30 16566 C 1599.55 -3.13324 -1.44644 0
M  V30 16567 C 1598.66 -4.24267 -0.813729 0
M  V30 16568 C 1597.79 -4.96868 -1.87871 0
M  V30 16569 C 1596.83 -5.99716 -1.22502 0
M  V30 16570 N 1595.97 -6.65682 -2.23185 0
M  V30 16571 H 1600.81 -2.96436 0.30493 0
M  V30 16572 H 1598.35 -1.46203 0.162222 0
M  V30 16573 H 1600.31 -3.61119 -2.08924 0
M  V30 16574 H 1598.94 -2.46996 -2.07829 0
M  V30 16575 H 1597.99 -3.80354 -0.0589414 0
M  V30 16576 H 1599.3 -4.97917 -0.296587 0
M  V30 16577 H 1598.45 -5.48266 -2.59786 0
M  V30 16578 H 1597.19 -4.22873 -2.42961 0
M  V30 16579 H 1596.2 -5.476 -0.491388 0
M  V30 16580 H 1597.42 -6.75674 -0.681315 0
M  V30 16581 H 1595.37 -5.94493 -2.77334 0
M  V30 16582 H 1595.29 -7.35134 -1.76393 0
M  V30 16583 H 1596.55 -7.21707 -2.9455 0
M  V30 16584 N 1600.78 -0.180154 -1.56567 0
M  V30 16585 C 1601.73 0.746666 -2.18389 0
M  V30 16586 C 1602.7 1.22058 -1.12655 0
M  V30 16587 O 1603.88 1.28716 -1.40843 0
M  V30 16588 C 1601.02 1.96688 -2.83563 0
M  V30 16589 C 1600.14 1.53572 -4.03782 0
M  V30 16590 C 1599.27 2.71028 -4.56856 0
M  V30 16591 C 1598.31 2.24445 -5.69465 0
M  V30 16592 N 1597.45 3.35026 -6.17011 0
M  V30 16593 H 1602.29 0.212707 -2.9724 0
M  V30 16594 H 1599.83 0.093256 -1.46804 0
M  V30 16595 H 1601.78 2.68269 -3.19511 0
M  V30 16596 H 1600.41 2.4744 -2.073 0
M  V30 16597 H 1599.47 0.716323 -3.73595 0
M  V30 16598 H 1600.78 1.15385 -4.85271 0
M  V30 16599 H 1599.93 3.50753 -4.95032 0
M  V30 16600 H 1598.67 3.1248 -3.74443 0
M  V30 16601 H 1597.68 1.43169 -5.30832 0
M  V30 16602 H 1598.9 1.84041 -6.53686 0
M  V30 16603 H 1596.85 3.76037 -5.37524 0
M  V30 16604 H 1596.76 3.0096 -6.93512 0
M  V30 16605 H 1598.03 4.15009 -6.59839 0
M  V30 16606 N 1602.26 1.57322 0.0935319 0
M  V30 16607 C 1603.19 2.05208 1.11409 0
M  V30 16608 C 1604.17 0.941295 1.41681 0
M  V30 16609 O 1605.36 1.21266 1.51684 0
M  V30 16610 C 1602.49 2.47782 2.43354 0
M  V30 16611 C 1601.44 3.62538 2.27486 0
M  V30 16612 C 1600.77 3.91095 3.64622 0
M  V30 16613 C 1602.07 4.93371 1.71412 0
M  V30 16614 H 1603.76 2.9072 0.715702 0
M  V30 16615 H 1601.31 1.3986 0.342827 0
M  V30 16616 H 1603.26 2.79891 3.15022 0
M  V30 16617 H 1601.98 1.59272 2.85132 0
M  V30 16618 H 1600.64 3.30679 1.58263 0
M  V30 16619 H 1600.29 2.99749 4.0393 0
M  V30 16620 H 1599.99 4.68353 3.5485 0
M  V30 16621 H 1601.51 4.25679 4.37755 0
M  V30 16622 H 1602.93 5.23851 2.32922 0
M  V30 16623 H 1601.33 5.74804 1.72395 0
M  V30 16624 H 1602.4 4.80197 0.67368 0
M  V30 16625 N 1603.74 -0.364395 1.53329 0
M  V30 16626 C 1604.99 -1.10423 1.68789 0
M  V30 16627 C 1605.3 -1.90428 0.446819 0
M  V30 16628 O 1606.51 -2.67188 0.481978 0
M  V30 16629 C 1604.96 -2.01228 2.98388 0
M  V30 16630 C 1604.57 -1.26529 4.29761 0
M  V30 16631 C 1606.31 -2.75196 3.23214 0
M  V30 16632 C 1604.22 -2.16243 5.50448 0
M  V30 16633 H 1603.15 -0.415935 0.628899 0
M  V30 16634 H 1605.8 -0.365145 1.7983 0
M  V30 16635 H 1604.18 -2.78872 2.81152 0
M  V30 16636 H 1605.36 -0.5394 4.57632 0
M  V30 16637 H 1603.67 -0.644181 4.11387 0
M  V30 16638 H 1606.27 -3.42548 4.10567 0
M  V30 16639 H 1606.61 -3.40629 2.39327 0
M  V30 16640 H 1607.15 -2.04635 3.4113 0
M  V30 16641 H 1603.89 -1.55385 6.36817 0
M  V30 16642 H 1603.41 -2.86678 5.26855 0
M  V30 16643 H 1605.08 -2.75774 5.85284 0
M  V30 16644 N 1605.22 -1.44709 -0.62426 0
M  V30 16645 C 1606.44 -1.51348 -1.41072 0
M  V30 16646 C 1606.86 -0.140576 -1.88276 0
M  V30 16647 O 1606.22 0.854821 -1.61242 0
M  V30 16648 C 1606.27 -2.48396 -2.62643 0
M  V30 16649 O 1605.99 -3.8035 -2.17406 0
M  V30 16650 C 1607.49 -2.64568 -3.55694 0
M  V30 16651 H 1604.71 -0.513092 -0.432409 0
M  V30 16652 H 1607.25 -1.89739 -0.762841 0
M  V30 16653 H 1605.41 -2.13122 -3.23508 0
M  V30 16654 H 1605.82 -4.32809 -2.96272 0
M  V30 16655 H 1607.3 -3.36486 -4.37585 0
M  V30 16656 H 1607.77 -1.70031 -4.04952 0
M  V30 16657 H 1608.38 -3.00771 -3.00694 0
M  V30 16658 N 1606.69 0.865285 -1.31722 0
M  V30 16659 C 1607.64 1.96073 -1.16358 0
M  V30 16660 C 1608.63 1.60733 -0.0733173 0
M  V30 16661 O 1609.82 1.74461 -0.298725 0
M  V30 16662 C 1606.95 3.31886 -0.877855 0
M  V30 16663 C 1606.04 3.7348 -2.00932 0
M  V30 16664 N 1606.43 3.86993 -3.25684 0
M  V30 16665 C 1604.72 4.03027 -1.91011 0
M  V30 16666 C 1605.43 4.22605 -3.99725 0
M  V30 16667 N 1604.4 4.33545 -3.27932 0
M  V30 16668 H 1608.2 2.04639 -2.1095 0
M  V30 16669 H 1605.72 1.05638 -1.23347 0
M  V30 16670 H 1607.71 4.10121 -0.748764 0
M  V30 16671 H 1606.37 3.24645 0.0597974 0
M  V30 16672 H 1607.39 3.71596 -3.60745 0
M  V30 16673 H 1604.06 4.04148 -1.0474 0
M  V30 16674 H 1605.45 4.40618 -5.07253 0
M  V30 16675 N 1608.17 1.14759 1.0802 0
M  V30 16676 C 1609.1 0.860977 2.17047 0
M  V30 16677 C 1610.08 -0.185652 1.69084 0
M  V30 16678 O 1611.27 -0.0414797 1.94156 0
M  V30 16679 C 1608.4 0.342018 3.45612 0
M  V30 16680 C 1607.35 1.32455 4.06989 0
M  V30 16681 C 1606.68 0.664721 5.30552 0
M  V30 16682 C 1607.98 2.68819 4.4781 0
M  V30 16683 H 1609.67 1.77269 2.4128 0
M  V30 16684 H 1607.22 0.853757 1.15961 0
M  V30 16685 H 1609.17 0.129093 4.21202 0
M  V30 16686 H 1607.9 -0.605138 3.20945 0
M  V30 16687 H 1606.55 1.52371 3.33435 0
M  V30 16688 H 1606.2 -0.288367 5.02173 0
M  V30 16689 H 1605.9 1.32036 5.72573 0
M  V30 16690 H 1607.43 0.461412 6.08854 0
M  V30 16691 H 1608.84 2.52787 5.14559 0
M  V30 16692 H 1607.24 3.30694 5.00761 0
M  V30 16693 H 1608.31 3.25398 3.59506 0
M  V30 16694 N 1609.65 -1.26251 0.943322 0
M  V30 16695 C 1610.6 -2.26304 0.453315 0
M  V30 16696 C 1611.57 -1.58764 -0.488168 0
M  V30 16697 O 1612.75 -1.86476 -0.403906 0
M  V30 16698 C 1609.89 -3.44015 -0.273393 0
M  V30 16699 C 1609.01 -4.26225 0.70401 0
M  V30 16700 C 1608.14 -5.31182 -0.0441134 0
M  V30 16701 C 1607.18 -6.05071 0.924971 0
M  V30 16702 N 1606.32 -7.0179 0.208461 0
M  V30 16703 H 1611.16 -2.67591 1.31146 0
M  V30 16704 H 1608.69 -1.31567 0.657914 0
M  V30 16705 H 1610.65 -4.11094 -0.711192 0
M  V30 16706 H 1609.28 -3.03636 -1.09566 0
M  V30 16707 H 1608.33 -3.58915 1.26032 0
M  V30 16708 H 1609.65 -4.77442 1.44398 0
M  V30 16709 H 1608.8 -6.04282 -0.541091 0
M  V30 16710 H 1607.54 -4.80809 -0.816952 0
M  V30 16711 H 1606.54 -5.30795 1.43305 0
M  V30 16712 H 1607.77 -6.57533 1.69785 0
M  V30 16713 H 1605.71 -6.53725 -0.545846 0
M  V30 16714 H 1605.63 -7.5077 0.887725 0
M  V30 16715 H 1606.9 -7.79041 -0.267352 0
M  V30 16716 N 1611.13 -0.710588 -1.40671 0
M  V30 16717 C 1612.54 -0.320926 -1.83921 0
M  V30 16718 C 1612.89 1.14358 -1.59426 0
M  V30 16719 O 1612.02 1.87952 -1.07252 0
M  V30 16720 C 1612.61 -0.5757 -3.33873 0
M  V30 16721 C 1611.17 -0.239799 -3.75635 0
M  V30 16722 C 1610.32 -0.850552 -2.63934 0
M  V30 16723 H 1613.27 -0.910118 -1.3001 0
M  V30 16724 H 1613.29 0.160707 -3.8016 0
M  V30 16725 H 1612.8 -1.64166 -3.51669 0
M  V30 16726 H 1610.9 0.821297 -3.63436 0
M  V30 16727 H 1611.02 -0.705306 -4.7388 0
M  V30 16728 H 1609.38 -0.278977 -2.53168 0
M  V30 16729 H 1610.16 -1.92068 -2.84543 0
M  V30 16730 N 1612.61 1.50847 -0.456408 0
M  V30 16731 C 1613.56 2.25081 0.363678 0
M  V30 16732 C 1614.54 1.28071 0.973991 0
M  V30 16733 O 1615.73 1.53056 0.888972 0
M  V30 16734 C 1612.86 3.11011 1.45352 0
M  V30 16735 C 1611.95 4.15461 0.851665 0
M  V30 16736 N 1612.34 5.05796 -0.0192612 0
M  V30 16737 C 1610.64 4.31781 1.11721 0
M  V30 16738 C 1611.34 5.80589 -0.359309 0
M  V30 16739 N 1610.31 5.42969 0.26187 0
M  V30 16740 H 1614.12 2.92287 -0.307467 0
M  V30 16741 H 1611.63 1.60146 -0.269642 0
M  V30 16742 H 1613.63 3.62786 2.05407 0
M  V30 16743 H 1612.29 2.45351 2.12681 0
M  V30 16744 H 1613.3 5.16452 -0.38707 0
M  V30 16745 H 1609.98 3.77343 1.78657 0
M  V30 16746 H 1611.37 6.63339 -1.06919 0
M  V30 16747 N 1614.09 0.188454 1.56469 0
M  V30 16748 C 1615.31 -0.457846 2.01771 0
M  V30 16749 C 1615.73 -1.55646 1.06863 0
M  V30 16750 O 1615.09 -1.82356 0.0723619 0
M  V30 16751 C 1615.14 -1.02032 3.46802 0
M  V30 16752 O 1614.86 0.0344536 4.38086 0
M  V30 16753 C 1616.36 -1.74316 4.07589 0
M  V30 16754 H 1613.58 -0.115594 0.660968 0
M  V30 16755 H 1616.12 0.295213 2.02358 0
M  V30 16756 H 1614.28 -1.7238 3.46935 0
M  V30 16757 H 1614.69 -0.383254 5.23098 0
M  V30 16758 H 1616.17 -2.08912 5.1094 0
M  V30 16759 H 1616.64 -2.64445 3.50665 0
M  V30 16760 H 1617.25 -1.0857 4.11209 0
M  V30 16761 N 1615.56 -1.5737 -0.0851874 0
M  V30 16762 C 1616.81 -1.86587 -0.786855 0
M  V30 16763 C 1617.14 -0.778357 -1.78247 0
M  V30 16764 O 1616.39 0.227053 -1.94378 0
M  V30 16765 C 1616.69 -3.22427 -1.54194 0
M  V30 16766 C 1616.36 -4.45627 -0.687542 0
M  V30 16767 C 1615.02 -4.79072 -0.452042 0
M  V30 16768 C 1617.37 -5.21115 -0.094224 0
M  V30 16769 C 1614.7 -5.85426 0.386477 0
M  V30 16770 C 1617.05 -6.28354 0.731673 0
M  V30 16771 C 1615.72 -6.60309 0.977172 0
M  V30 16772 H 1614.99 -0.682772 -0.28793 0
M  V30 16773 H 1617.63 -1.9144 -0.0480218 0
M  V30 16774 H 1615.94 -3.13304 -2.35261 0
M  V30 16775 H 1617.64 -3.42264 -2.08941 0
M  V30 16776 H 1614.23 -4.19443 -0.881212 0
M  V30 16777 H 1618.41 -4.95601 -0.263309 0
M  V30 16778 H 1613.67 -6.08589 0.58556 0
M  V30 16779 H 1617.84 -6.86014 1.19823 0
M  V30 16780 H 1615.47 -7.42548 1.6287 0
M  V30 16781 N 1617.04 0.356258 -1.53521 0
M  V30 16782 C 1618.27 1.11666 -1.73823 0
M  V30 16783 C 1618.68 1.83235 -0.471338 0
M  V30 16784 O 1618.02 1.74762 0.566035 0
M  V30 16785 C 1618.08 2.18429 -2.85533 0
M  V30 16786 C 1617.75 1.66545 -4.25572 0
M  V30 16787 C 1618.75 1.12454 -5.07592 0
M  V30 16788 C 1616.43 1.71776 -4.72015 0
M  V30 16789 C 1618.42 0.642826 -6.3415 0
M  V30 16790 C 1616.11 1.23217 -5.98549 0
M  V30 16791 C 1617.11 0.695609 -6.79449 0
M  V30 16792 O 1616.8 0.217211 -8.03606 0
M  V30 16793 H 1616.53 0.339418 -0.584612 0
M  V30 16794 H 1619.08 0.418173 -2.01098 0
M  V30 16795 H 1617.31 2.91798 -2.53753 0
M  V30 16796 H 1619 2.79934 -2.93925 0
M  V30 16797 H 1619.77 1.07745 -4.72881 0
M  V30 16798 H 1615.65 2.12481 -4.09112 0
M  V30 16799 H 1619.19 0.223354 -6.97242 0
M  V30 16800 H 1615.09 1.27623 -6.32758 0
M  V30 16801 H 1615.86 0.335679 -8.17811 0
M  V30 16802 N 1618.52 1.45038 0.616577 0
M  V30 16803 C 1619.47 1.53343 1.74896 0
M  V30 16804 C 1620.46 0.404033 1.64511 0
M  V30 16805 O 1621.67 0.57958 1.70414 0
M  V30 16806 H 1618.04 0.481471 0.577658 0
M  V30 16807 H 1620.01 2.4862 1.65017 0
M  V30 16808 C 1618.76 1.50871 3.13262 0
M  V30 16809 H 1618.09 2.37098 3.21908 0
M  V30 16810 H 1619.53 1.60741 3.9235 0
M  V30 16811 C 1617.98 0.231704 3.36102 0
M  V30 16812 O 1618.51 -0.692154 3.95692 0
M  V30 16813 N 1616.72 0.130232 2.90308 0
M  V30 16814 H 1616.27 0.882893 2.41997 0
M  V30 16815 H 1616.23 -0.723403 3.05964 0
M  V30 16816 N 1620 -0.858287 1.32179 0
M  V30 16817 C 1621.24 -1.61221 1.22532 0
M  V30 16818 C 1621.57 -1.93322 -0.213739 0
M  V30 16819 O 1620.83 -1.5719 -1.16575 0
M  V30 16820 C 1621.13 -2.94391 2.02654 0
M  V30 16821 C 1620.79 -2.81735 3.52046 0
M  V30 16822 C 1619.45 -2.7799 3.92778 0
M  V30 16823 C 1621.81 -2.67928 4.47062 0
M  V30 16824 C 1619.13 -2.58312 5.26775 0
M  V30 16825 C 1621.49 -2.49785 5.81197 0
M  V30 16826 C 1620.15 -2.44431 6.21136 0
M  V30 16827 H 1619.42 -0.589949 0.448376 0
M  V30 16828 H 1622.07 -0.995897 1.63567 0
M  V30 16829 H 1620.37 -3.60122 1.54336 0
M  V30 16830 H 1622.07 -3.5174 1.92561 0
M  V30 16831 H 1618.66 -2.85472 3.19693 0
M  V30 16832 H 1622.84 -2.69868 4.16515 0
M  V30 16833 H 1618.1 -2.526 5.56779 0
M  V30 16834 H 1622.27 -2.38081 6.54439 0
M  V30 16835 H 1619.9 -2.28943 7.24906 0
M  V30 16836 N 1621.48 -1.1533 -1.07409 0
M  V30 16837 C 1622.72 -0.929181 -1.80261 0
M  V30 16838 C 1623.05 0.542387 -1.86472 0
M  V30 16839 O 1622.33 1.40209 -1.34802 0
M  V30 16840 C 1622.61 -1.54339 -3.25348 0
M  V30 16841 C 1622.47 -3.08551 -3.27286 0
M  V30 16842 C 1623.78 -1.22868 -4.22601 0
M  V30 16843 H 1620.9 -0.338985 -0.654414 0
M  V30 16844 H 1623.55 -1.42485 -1.2569 0
M  V30 16845 H 1621.7 -1.12187 -3.71949 0
M  V30 16846 H 1623.37 -3.59605 -2.88932 0
M  V30 16847 H 1621.61 -3.42471 -2.66263 0
M  V30 16848 H 1622.28 -3.4664 -4.29587 0
M  V30 16849 H 1624.76 -1.59328 -3.84388 0
M  V30 16850 H 1623.63 -1.68462 -5.2241 0
M  V30 16851 H 1623.89 -0.145612 -4.4186 0
M  V30 16852 N 1622.95 1.25748 -0.950004 0
M  V30 16853 C 1623.88 2.28419 -0.484467 0
M  V30 16854 C 1624.86 1.63569 0.466813 0
M  V30 16855 O 1626.05 1.90705 0.366766 0
M  V30 16856 C 1623.18 3.46449 0.242916 0
M  V30 16857 C 1622.13 4.23447 -0.622657 0
M  V30 16858 C 1621.46 5.34182 0.235199 0
M  V30 16859 C 1622.76 4.86576 -1.89845 0
M  V30 16860 H 1624.45 2.6761 -1.34257 0
M  V30 16861 H 1622 1.28646 -0.647014 0
M  V30 16862 H 1623.95 4.17394 0.579693 0
M  V30 16863 H 1622.68 3.06235 1.13523 0
M  V30 16864 H 1621.34 3.54279 -0.942453 0
M  V30 16865 H 1620.98 4.90209 1.12713 0
M  V30 16866 H 1620.68 5.86612 -0.340609 0
M  V30 16867 H 1622.21 6.07961 0.567048 0
M  V30 16868 H 1623.62 5.49688 -1.62837 0
M  V30 16869 H 1622.02 5.49162 -2.41954 0
M  V30 16870 H 1623.09 4.09021 -2.60441 0
M  V30 16871 N 1624.43 0.718038 1.40292 0
M  V30 16872 C 1625.66 0.268326 2.05153 0
M  V30 16873 C 1626.07 -1.09075 1.54104 0
M  V30 16874 O 1625.43 -1.68597 0.698654 0
M  V30 16875 C 1625.48 0.242222 3.60688 0
M  V30 16876 O 1625.2 1.54764 4.09853 0
M  V30 16877 C 1626.7 -0.225741 4.42725 0
M  V30 16878 H 1623.92 0.120165 0.660153 0
M  V30 16879 H 1626.47 0.976933 1.79656 0
M  V30 16880 H 1624.62 -0.417367 3.85145 0
M  V30 16881 H 1625.04 1.44976 5.04066 0
M  V30 16882 H 1626.51 -0.192857 5.51663 0
M  V30 16883 H 1626.99 -1.26829 4.20489 0
M  V30 16884 H 1627.59 0.40366 4.2338 0
M  V30 16885 N 1625.91 -1.50602 0.464402 0
M  V30 16886 C 1626.86 -2.29992 -0.347337 0
M  V30 16887 C 1627.85 -1.36991 -0.996489 0
M  V30 16888 O 1629.06 -1.54213 -0.928359 0
M  V30 16889 H 1625.43 -0.740529 -0.130847 0
M  V30 16890 H 1627.4 -2.96425 0.342734 0
M  V30 16891 C 1626.15 -3.17355 -1.4206 0
M  V30 16892 H 1625.48 -3.88822 -0.930473 0
M  V30 16893 H 1626.92 -3.75912 -1.96129 0
M  V30 16894 C 1625.38 -2.34506 -2.41886 0
M  V30 16895 O 1625.91 -2.02347 -3.47014 0
M  V30 16896 N 1624.11 -1.97212 -2.13438 0
M  V30 16897 H 1623.66 -2.23564 -1.27971 0
M  V30 16898 H 1623.62 -1.42081 -2.80464 0
M  V30 16899 N 1627.39 -0.19675 -1.56367 0
M  V30 16900 C 1628.8 0.159068 -1.58805 0
M  V30 16901 C 1629 1.60902 -1.21297 0
M  V30 16902 O 1628.06 2.34491 -0.93649 0
M  V30 16903 C 1629.37 -0.144784 -3.00351 0
M  V30 16904 C 1630.92 -0.0850243 -3.12884 0
M  V30 16905 C 1631.4 -0.362209 -4.56565 0
M  V30 16906 N 1632.89 -0.310887 -4.62156 0
M  V30 16907 C 1633.62 -0.499187 -5.71223 0
M  V30 16908 N 1633.12 -0.747925 -6.88751 0
M  V30 16909 N 1634.91 -0.433329 -5.60427 0
M  V30 16910 H 1627.06 -1.1429 -1.79029 0
M  V30 16911 H 1629.33 -0.456298 -0.830961 0
M  V30 16912 H 1629.03 -1.15019 -3.3236 0
M  V30 16913 H 1628.91 0.551864 -3.73141 0
M  V30 16914 H 1631.29 0.910992 -2.80687 0
M  V30 16915 H 1631.37 -0.814774 -2.42477 0
M  V30 16916 H 1631.02 -1.35555 -4.89477 0
M  V30 16917 H 1630.95 0.388448 -5.25165 0
M  V30 16918 H 1633.44 -0.125318 -3.77692 0
M  V30 16919 H 1633.75 -0.880372 -7.67769 0
M  V30 16920 H 1632.1 -0.784838 -6.90554 0
M  V30 16921 H 1635.29 -0.239411 -4.67487 0
M  V30 16922 H 1635.46 -0.583495 -6.45368 0
M  V30 16923 N 1628.87 1.57413 0.0768405 0
M  V30 16924 C 1630.11 1.86633 0.775414 0
M  V30 16925 C 1630.44 0.788041 1.78367 0
M  V30 16926 O 1629.71 -0.183835 1.95036 0
M  V30 16927 H 1628.29 0.688678 0.289365 0
M  V30 16928 H 1630.95 1.94825 0.0541285 0
M  V30 16929 H 1630.04 2.83977 1.29474 0
M  V30 16930 N 1630.34 -0.348112 1.53707 0
M  V30 16931 C 1631.57 -1.11346 1.74976 0
M  V30 16932 C 1631.99 -1.81726 0.485525 0
M  V30 16933 O 1631.35 -1.72384 -0.561565 0
M  V30 16934 C 1631.4 -2.10611 2.92703 0
M  V30 16935 O 1630.5 -3.18042 2.62532 0
M  V30 16936 H 1629.85 -0.322247 0.580563 0
M  V30 16937 H 1632.38 -0.399898 2.00654 0
M  V30 16938 H 1632.39 -2.53912 3.19363 0
M  V30 16939 H 1631.06 -1.58782 3.84397 0
M  V30 16940 H 1629.64 -2.79591 2.46746 0
M  V30 16941 N 1631.82 -1.45363 -0.608876 0
M  V30 16942 C 1633.05 -1.53066 -1.39949 0
M  V30 16943 C 1633.47 -0.16369 -1.87386 0
M  V30 16944 O 1632.83 0.851432 -1.60064 0
M  V30 16945 C 1632.88 -2.51836 -2.58091 0
M  V30 16946 O 1631.98 -2.03528 -3.58678 0
M  V30 16947 H 1631.32 -0.516031 -0.417861 0
M  V30 16948 H 1633.85 -1.90705 -0.74113 0
M  V30 16949 H 1633.86 -2.706 -3.05352 0
M  V30 16950 H 1632.54 -3.51117 -2.22912 0
M  V30 16951 H 1631.12 -1.94634 -3.18075 0
M  V30 16952 N 1633.3 0.851265 -1.32632 0
M  V30 16953 C 1634.23 1.97562 -1.24465 0
M  V30 16954 C 1635.21 1.69619 -0.127777 0
M  V30 16955 O 1636.4 1.9162 -0.315509 0
M  V30 16956 C 1633.53 3.33467 -0.970423 0
M  V30 16957 C 1632.48 3.75772 -2.0489 0
M  V30 16958 C 1631.81 5.09345 -1.62702 0
M  V30 16959 C 1633.11 3.90876 -3.4643 0
M  V30 16960 H 1634.8 2.04653 -2.18535 0
M  V30 16961 H 1632.35 0.983252 -1.05205 0
M  V30 16962 H 1634.3 4.11681 -0.899825 0
M  V30 16963 H 1633.02 3.26599 0.00591373 0
M  V30 16964 H 1631.68 2.99812 -2.1097 0
M  V30 16965 H 1631.33 4.98937 -0.638039 0
M  V30 16966 H 1631.03 5.38621 -2.34864 0
M  V30 16967 H 1632.55 5.90048 -1.57085 0
M  V30 16968 H 1633.97 4.59434 -3.42919 0
M  V30 16969 H 1632.37 4.31574 -4.1697 0
M  V30 16970 H 1633.44 2.93689 -3.85843 0
M  V30 16971 N 1634.78 1.15898 1.06796 0
M  V30 16972 C 1636.03 0.935488 1.79145 0
M  V30 16973 C 1636.35 -0.538433 1.87419 0
M  V30 16974 O 1635.62 -1.39124 1.37917 0
M  V30 16975 H 1634.2 0.343123 0.663533 0
M  V30 16976 H 1636.86 1.4607 1.29034 0
M  V30 16977 H 1635.96 1.34978 2.81402 0
M  V30 16978 N 1636.26 -1.25243 0.956659 0
M  V30 16979 C 1637.5 -1.92632 0.611328 0
M  V30 16980 C 1637.83 -1.75272 -0.85467 0
M  V30 16981 O 1637.1 -1.11758 -1.60894 0
M  V30 16982 H 1635.68 -0.712904 0.223109 0
M  V30 16983 H 1638.34 -1.52366 1.21534 0
M  V30 16984 H 1637.43 -3.00516 0.842396 0
M  V30 16985 N 1637.73 -0.725468 -1.3991 0
M  V30 16986 C 1638.66 -0.094211 -2.3331 0
M  V30 16987 C 1639.65 0.734728 -1.53414 0
M  V30 16988 O 1640.83 0.681647 -1.81844 0
M  V30 16989 C 1637.96 0.820958 -3.37457 0
M  V30 16990 C 1636.91 0.0968983 -4.2789 0
M  V30 16991 C 1636.24 1.12845 -5.22657 0
M  V30 16992 C 1637.54 -1.05483 -5.11537 0
M  V30 16993 H 1639.23 -0.874365 -2.86348 0
M  V30 16994 H 1636.78 -0.421913 -1.3768 0
M  V30 16995 H 1638.73 1.27203 -4.01743 0
M  V30 16996 H 1637.46 1.63312 -2.82837 0
M  V30 16997 H 1636.12 -0.334454 -3.65071 0
M  V30 16998 H 1635.76 1.93392 -4.64337 0
M  V30 16999 H 1635.46 0.648805 -5.84007 0
M  V30 17000 H 1636.99 1.57942 -5.89819 0
M  V30 17001 H 1638.4 -0.682657 -5.69221 0
M  V30 17002 H 1636.8 -1.46349 -5.81981 0
M  V30 17003 H 1637.87 -1.88095 -4.46932 0
M  V30 17004 N 1639.21 1.50354 -0.472382 0
M  V30 17005 C 1640.14 2.26396 0.357429 0
M  V30 17006 C 1641.16 1.31778 0.955949 0
M  V30 17007 O 1642.35 1.57279 0.844136 0
M  V30 17008 C 1639.45 3.03131 1.51542 0
M  V30 17009 C 1638.62 4.25113 1.02945 0
M  V30 17010 C 1637.68 4.84131 2.06164 0
M  V30 17011 O 1636.7 5.4501 1.64174 0
M  V30 17012 N 1637.91 4.71244 3.38983 0
M  V30 17013 H 1640.67 2.9825 -0.294473 0
M  V30 17014 H 1638.23 1.59035 -0.303242 0
M  V30 17015 H 1640.22 3.39492 2.20289 0
M  V30 17016 H 1638.79 2.34067 2.07199 0
M  V30 17017 H 1638.01 3.93843 0.167821 0
M  V30 17018 H 1639.3 5.04199 0.682705 0
M  V30 17019 H 1638.7 4.22831 3.75807 0
M  V30 17020 H 1637.26 5.11871 4.03524 0
M  V30 17021 N 1640.69 0.205039 1.56261 0
M  V30 17022 C 1641.62 -0.743854 2.16794 0
M  V30 17023 C 1642.64 -1.16959 1.13245 0
M  V30 17024 O 1643.83 -1.1036 1.40296 0
M  V30 17025 C 1640.93 -2.01717 2.7233 0
M  V30 17026 C 1640.1 -1.74965 4.00882 0
M  V30 17027 C 1639.16 -2.86841 4.41145 0
M  V30 17028 O 1638.18 -2.5602 5.08372 0
M  V30 17029 N 1639.39 -4.15425 4.05466 0
M  V30 17030 H 1642.15 -0.226145 2.98846 0
M  V30 17031 H 1639.71 0.0234276 1.61883 0
M  V30 17032 H 1641.7 -2.7572 2.96244 0
M  V30 17033 H 1640.27 -2.44582 1.94675 0
M  V30 17034 H 1639.49 -0.846903 3.84995 0
M  V30 17035 H 1640.78 -1.54501 4.84775 0
M  V30 17036 H 1640.18 -4.43314 3.5141 0
M  V30 17037 H 1638.74 -4.86023 4.3431 0
M  V30 17038 N 1642.17 -1.57451 -0.0684915 0
M  V30 17039 C 1643.4 -1.9164 -0.779855 0
M  V30 17040 C 1643.81 -0.801309 -1.70952 0
M  V30 17041 O 1643.17 0.225134 -1.81106 0
M  V30 17042 C 1643.22 -3.25594 -1.57068 0
M  V30 17043 O 1642.94 -4.32816 -0.678385 0
M  V30 17044 C 1644.44 -3.73818 -2.38275 0
M  V30 17045 H 1641.66 -0.633374 -0.221537 0
M  V30 17046 H 1644.21 -2.04465 -0.0377746 0
M  V30 17047 H 1642.36 -3.14287 -2.26501 0
M  V30 17048 H 1642.78 -5.09903 -1.22877 0
M  V30 17049 H 1644.25 -4.70168 -2.89216 0
M  V30 17050 H 1644.73 -3.02995 -3.17947 0
M  V30 17051 H 1645.33 -3.88081 -1.73992 0
M  V30 17052 N 1643.65 0.339955 -1.5389 0
M  V30 17053 C 1644.89 1.08139 -1.71563 0
M  V30 17054 C 1645.23 1.88193 -0.479292 0
M  V30 17055 O 1644.5 1.87317 0.523702 0
M  V30 17056 C 1644.78 2.01963 -2.98132 0
M  V30 17057 C 1644.64 1.25349 -4.31981 0
M  V30 17058 C 1645.96 3.01729 -3.20387 0
M  V30 17059 H 1643.08 0.391744 -0.624264 0
M  V30 17060 H 1645.72 0.359609 -1.86566 0
M  V30 17061 H 1643.87 2.63511 -2.85472 0
M  V30 17062 H 1645.54 0.66388 -4.56498 0
M  V30 17063 H 1643.78 0.555541 -4.30228 0
M  V30 17064 H 1644.45 1.94154 -5.16728 0
M  V30 17065 H 1646.93 2.50297 -3.32401 0
M  V30 17066 H 1645.81 3.64577 -4.10335 0
M  V30 17067 H 1646.07 3.73303 -2.36849 0
M  V30 17068 N 1645.13 1.45684 0.601159 0
M  V30 17069 C 1646.35 1.53574 1.38646 0
M  V30 17070 C 1646.77 0.170511 1.88028 0
M  V30 17071 O 1646.13 -0.829061 1.62582 0
M  V30 17072 C 1646.18 2.52543 2.58658 0
M  V30 17073 O 1645.9 3.83761 2.11327 0
M  V30 17074 C 1647.4 2.70194 3.5144 0
M  V30 17075 H 1644.62 0.519907 0.424191 0
M  V30 17076 H 1647.16 1.90929 0.732559 0
M  V30 17077 H 1645.32 2.18242 3.20077 0
M  V30 17078 H 1645.73 4.37467 2.89349 0
M  V30 17079 H 1647.21 3.43405 4.32177 0
M  V30 17080 H 1647.68 1.76452 4.02196 0
M  V30 17081 H 1648.29 3.05517 2.95871 0
M  V30 17082 N 1646.6 -0.84422 1.33082 0
M  V30 17083 C 1647.57 -1.93519 1.22813 0
M  V30 17084 C 1648.57 -1.60113 0.148516 0
M  V30 17085 O 1649.76 -1.69553 0.399668 0
M  V30 17086 C 1646.89 -3.29045 0.891179 0
M  V30 17087 H 1648.08 -2.04051 2.1978 0
M  V30 17088 H 1645.63 -1.03567 1.17063 0
M  V30 17089 H 1646.37 -3.2421 -0.0762276 0
M  V30 17090 H 1646.15 -3.54671 1.67186 0
M  V30 17091 H 1647.64 -4.08984 0.843932 0
M  V30 17092 N 1648.08 -1.16463 -1.0618 0
M  V30 17093 C 1649.33 -0.958238 -1.79414 0
M  V30 17094 C 1649.68 0.508463 -1.8556 0
M  V30 17095 O 1648.98 1.37239 -1.33702 0
M  V30 17096 C 1649.17 -1.52085 -3.23427 0
M  V30 17097 C 1649 -3.04073 -3.31315 0
M  V30 17098 C 1647.77 -3.72723 -3.41183 0
M  V30 17099 C 1649.97 -4.01759 -3.21082 0
M  V30 17100 N 1647.95 -5.12409 -3.38098 0
M  V30 17101 C 1649.32 -5.27836 -3.25253 0
M  V30 17102 C 1651.37 -3.93567 -3.04975 0
M  V30 17103 C 1650.08 -6.46672 -3.14972 0
M  V30 17104 C 1652.1 -5.11976 -2.96032 0
M  V30 17105 C 1651.47 -6.36932 -3.00827 0
M  V30 17106 H 1647.56 -0.404432 -0.669297 0
M  V30 17107 H 1650.15 -1.47875 -1.26653 0
M  V30 17108 H 1648.32 -1.02681 -3.74581 0
M  V30 17109 H 1650.05 -1.25209 -3.84844 0
M  V30 17110 H 1646.81 -3.2336 -3.46027 0
M  V30 17111 H 1647.23 -5.85401 -3.40052 0
M  V30 17112 H 1651.87 -2.97812 -3.00113 0
M  V30 17113 H 1649.59 -7.42648 -3.1859 0
M  V30 17114 H 1653.18 -5.07408 -2.84655 0
M  V30 17115 H 1652.06 -7.27017 -2.93966 0
M  V30 17116 N 1649.56 1.24734 -0.963288 0
M  V30 17117 C 1650.79 1.96745 -0.640234 0
M  V30 17118 C 1651.2 1.71503 0.789445 0
M  V30 17119 O 1650.56 0.996174 1.52914 0
M  V30 17120 C 1650.61 3.50118 -0.899987 0
M  V30 17121 O 1650.33 3.74494 -2.27346 0
M  V30 17122 C 1651.83 4.39349 -0.590511 0
M  V30 17123 H 1649.05 0.626892 -0.239266 0
M  V30 17124 H 1651.6 1.58678 -1.29002 0
M  V30 17125 H 1649.75 3.86264 -0.296478 0
M  V30 17126 H 1650.17 4.68902 -2.35013 0
M  V30 17127 H 1651.64 5.45834 -0.822744 0
M  V30 17128 H 1652.12 4.36622 0.475138 0
M  V30 17129 H 1652.72 4.08783 -1.17373 0
M  V30 17130 N 1651.04 0.732878 1.39523 0
M  V30 17131 C 1652 0.10004 2.28982 0
M  V30 17132 C 1653 -0.669361 1.46206 0
M  V30 17133 O 1654.19 -0.498694 1.66909 0
M  V30 17134 C 1651.32 -0.867616 3.29674 0
M  V30 17135 H 1652.52 0.88816 2.86447 0
M  V30 17136 H 1650.07 0.498578 1.48135 0
M  V30 17137 H 1650.8 -1.68217 2.77261 0
M  V30 17138 H 1650.59 -0.318577 3.90804 0
M  V30 17139 H 1652.08 -1.30704 3.96618 0
M  V30 17140 N 1652.52 -1.50101 0.480349 0
M  V30 17141 C 1653.76 -2.02374 -0.0714315 0
M  V30 17142 C 1654.09 -1.36166 -1.38885 0
M  V30 17143 O 1653.35 -0.479455 -1.89736 0
M  V30 17144 C 1653.64 -3.56191 -0.293745 0
M  V30 17145 C 1653.31 -4.40927 0.943111 0
M  V30 17146 C 1651.97 -4.63803 1.2822 0
M  V30 17147 C 1654.32 -4.90362 1.7662 0
M  V30 17148 C 1651.65 -5.33359 2.44428 0
M  V30 17149 C 1654 -5.61195 2.91963 0
M  V30 17150 C 1652.67 -5.82323 3.26276 0
M  V30 17151 H 1651.94 -0.740539 -0.0261386 0
M  V30 17152 H 1654.59 -1.80619 0.636313 0
M  V30 17153 H 1652.89 -3.76511 -1.08382 0
M  V30 17154 H 1654.59 -3.9421 -0.734796 0
M  V30 17155 H 1651.18 -4.23347 0.668947 0
M  V30 17156 H 1655.36 -4.72534 1.5174 0
M  V30 17157 H 1650.62 -5.47923 2.71275 0
M  V30 17158 H 1654.79 -5.9848 3.56082 0
M  V30 17159 H 1652.42 -6.35996 4.16428 0
M  V30 17160 N 1653.99 -0.213323 -1.5615 0
M  V30 17161 C 1654.94 0.716708 -2.21283 0
M  V30 17162 C 1655.94 1.20599 -1.18963 0
M  V30 17163 O 1657.14 1.16677 -1.37064 0
M  V30 17164 H 1653.52 0.249524 -0.709395 0
M  V30 17165 H 1655.49 0.14385 -2.98053 0
M  V30 17166 C 1654.24 1.91775 -2.9003 0
M  V30 17167 H 1653.56 1.55036 -3.68516 0
M  V30 17168 H 1655 2.54646 -3.39016 0
M  V30 17169 C 1653.46 2.768 -1.92051 0
M  V30 17170 O 1653.99 3.75299 -1.43225 0
M  V30 17171 N 1652.19 2.42666 -1.5988 0
M  V30 17172 H 1651.74 1.62622 -1.99779 0
M  V30 17173 H 1651.7 2.99836 -0.945833 0
M  V30 17174 N 1655.47 1.57485 0.0601405 0
M  V30 17175 C 1656.4 2.07525 1.07031 0
M  V30 17176 C 1657.38 0.971136 1.39653 0
M  V30 17177 O 1658.57 1.24456 1.49078 0
M  V30 17178 C 1655.7 2.52888 2.38044 0
M  V30 17179 C 1654.65 3.67282 2.19745 0
M  V30 17180 C 1653.98 3.98741 3.56244 0
M  V30 17181 C 1655.28 4.96896 1.60908 0
M  V30 17182 H 1656.97 2.92173 0.653875 0
M  V30 17183 H 1654.52 1.40555 0.313083 0
M  V30 17184 H 1656.47 2.8651 3.09014 0
M  V30 17185 H 1655.2 1.65284 2.81689 0
M  V30 17186 H 1653.85 3.33961 1.51213 0
M  V30 17187 H 1653.5 3.08249 3.97481 0
M  V30 17188 H 1653.2 4.75775 3.44836 0
M  V30 17189 H 1654.73 4.34869 4.28627 0
M  V30 17190 H 1656.14 5.28674 2.21758 0
M  V30 17191 H 1654.54 5.78332 1.60164 0
M  V30 17192 H 1655.61 4.81518 0.571671 0
M  V30 17193 N 1656.95 -0.331789 1.54068 0
M  V30 17194 C 1657.88 -1.41332 1.8587 0
M  V30 17195 C 1658.86 -1.54353 0.714787 0
M  V30 17196 O 1660.05 -1.68368 0.967777 0
M  V30 17197 C 1657.18 -2.78218 2.07875 0
M  V30 17198 C 1656.13 -2.79994 3.23709 0
M  V30 17199 C 1655.46 -4.19878 3.31069 0
M  V30 17200 C 1656.76 -2.44476 4.6155 0
M  V30 17201 H 1658.45 -1.14966 2.76447 0
M  V30 17202 H 1656 -0.551615 1.33016 0
M  V30 17203 H 1657.95 -3.53937 2.28706 0
M  V30 17204 H 1656.67 -3.06044 1.14038 0
M  V30 17205 H 1655.33 -2.0673 3.02751 0
M  V30 17206 H 1654.98 -4.44831 2.34807 0
M  V30 17207 H 1654.68 -4.21974 4.08915 0
M  V30 17208 H 1656.2 -4.97421 3.54125 0
M  V30 17209 H 1657.62 -3.09908 4.82317 0
M  V30 17210 H 1656.02 -2.57837 5.41886 0
M  V30 17211 H 1657.09 -1.3964 4.64358 0
M  V30 17212 N 1658.43 -1.46001 -0.593424 0
M  V30 17213 C 1659.38 -1.56106 -1.72434 0
M  V30 17214 C 1660.37 -0.430155 -1.63848 0
M  V30 17215 O 1661.58 -0.606618 -1.6947 0
M  V30 17216 H 1657.95 -0.490601 -0.569925 0
M  V30 17217 H 1659.92 -2.51214 -1.6104 0
M  V30 17218 C 1658.67 -1.55836 -3.10822 0
M  V30 17219 H 1657.99 -2.42189 -3.18095 0
M  V30 17220 H 1659.43 -1.66962 -3.89743 0
M  V30 17221 C 1657.89 -0.285146 -3.35691 0
M  V30 17222 O 1658.42 0.629115 -3.96743 0
M  V30 17223 N 1656.63 -0.176401 -2.90064 0
M  V30 17224 H 1656.18 -0.921281 -2.40562 0
M  V30 17225 H 1656.13 0.674636 -3.07077 0
M  V30 17226 N 1659.91 0.83715 -1.33527 0
M  V30 17227 C 1661.15 1.58937 -1.24834 0
M  V30 17228 C 1661.48 1.94117 0.185368 0
M  V30 17229 O 1660.75 1.61105 1.11453 0
M  V30 17230 H 1659.33 0.589301 -0.459057 0
M  V30 17231 H 1661.99 1.00038 -1.67267 0
M  V30 17232 H 1661.08 2.51855 -1.84325 0
M  V30 17233 N 1661.38 1.17024 1.05561 0
M  V30 17234 C 1662.33 0.88356 2.13218 0
M  V30 17235 C 1663.3 -0.171025 1.65217 0
M  V30 17236 O 1664.49 -0.0346242 1.90769 0
M  V30 17237 C 1661.63 0.398912 3.42787 0
M  V30 17238 C 1660.74 1.51718 4.04482 0
M  V30 17239 C 1659.87 0.986793 5.21954 0
M  V30 17240 C 1658.91 2.08077 5.75648 0
M  V30 17241 N 1658.05 1.56542 6.84426 0
M  V30 17242 H 1662.89 1.80548 2.37079 0
M  V30 17243 H 1660.43 0.90056 1.16311 0
M  V30 17244 H 1662.39 0.0995018 4.17081 0
M  V30 17245 H 1661.02 -0.48605 3.1912 0
M  V30 17246 H 1660.07 1.9324 3.27662 0
M  V30 17247 H 1661.38 2.34243 4.40377 0
M  V30 17248 H 1660.53 0.641006 6.03304 0
M  V30 17249 H 1659.27 0.130942 4.87524 0
M  V30 17250 H 1658.28 2.43517 4.9293 0
M  V30 17251 H 1659.5 2.94071 6.12127 0
M  V30 17252 H 1657.45 0.732221 6.51901 0
M  V30 17253 H 1657.37 2.32677 7.19303 0
M  V30 17254 H 1658.63 1.24844 7.69438 0
M  V30 17255 N 1662.86 -1.24221 0.969889 0
M  V30 17256 C 1664.27 -1.74206 0.671494 0
M  V30 17257 C 1664.62 -1.78576 -0.81271 0
M  V30 17258 O 1663.75 -1.41664 -1.63586 0
M  V30 17259 C 1664.34 -3.16371 1.21222 0
M  V30 17260 C 1662.9 -3.63855 0.96368 0
M  V30 17261 C 1662.05 -2.42429 1.34623 0
M  V30 17262 H 1665 -1.09893 1.14496 0
M  V30 17263 H 1665.02 -3.7606 0.579552 0
M  V30 17264 H 1664.53 -3.13159 2.29245 0
M  V30 17265 H 1662.64 -3.72463 -0.100931 0
M  V30 17266 H 1662.75 -4.51207 1.61087 0
M  V30 17267 H 1661.11 -2.42952 0.764624 0
M  V30 17268 H 1661.9 -2.41896 2.436 0
M  V30 17269 N 1664.34 -0.740267 -1.39132 0
M  V30 17270 C 1665.57 -0.299605 -2.05225 0
M  V30 17271 C 1665.99 1.05904 -1.55454 0
M  V30 17272 O 1665.35 1.67216 -0.700603 0
M  V30 17273 C 1665.4 -0.316792 -3.59206 0
M  V30 17274 O 1664.5 0.693786 -4.06522 0
M  V30 17275 H 1663.84 -0.135146 -0.650101 0
M  V30 17276 H 1666.37 -1.00766 -1.78065 0
M  V30 17277 H 1666.38 -0.163013 -4.07674 0
M  V30 17278 H 1665.06 -1.30814 -3.94792 0
M  V30 17279 H 1663.63 0.505712 -3.69455 0
M  V30 17280 N 1665.82 1.49844 -0.488302 0
M  V30 17281 C 1667.06 2.02709 0.060788 0
M  V30 17282 C 1667.4 1.36828 1.37811 0
M  V30 17283 O 1666.67 0.499679 1.87972 0
M  V30 17284 C 1666.96 3.59386 0.226637 0
M  V30 17285 C 1666.81 4.35814 -1.11292 0
M  V30 17286 C 1668.13 4.29204 0.973218 0
M  V30 17287 H 1665.25 0.736712 0.0206177 0
M  V30 17288 H 1667.89 1.78995 -0.637245 0
M  V30 17289 H 1666.04 3.79722 0.821182 0
M  V30 17290 H 1667.71 4.27007 -1.74536 0
M  V30 17291 H 1665.95 3.98874 -1.70535 0
M  V30 17292 H 1666.62 5.43758 -0.950319 0
M  V30 17293 H 1669.1 4.13447 0.469106 0
M  V30 17294 H 1667.98 5.38605 1.05809 0
M  V30 17295 H 1668.24 3.93564 2.01394 0
M  V30 17296 N 1667.3 0.221601 1.56034 0
M  V30 17297 C 1668.26 -0.674973 2.19036 0
M  V30 17298 C 1669.26 -1.1216 1.15225 0
M  V30 17299 O 1670.45 -1.0304 1.40458 0
M  V30 17300 C 1667.58 -1.92465 2.81372 0
M  V30 17301 H 1668.77 -0.125689 2.99637 0
M  V30 17302 H 1666.33 -0.0280114 1.56275 0
M  V30 17303 H 1667.06 -2.5158 2.04641 0
M  V30 17304 H 1666.85 -1.61286 3.57392 0
M  V30 17305 H 1668.34 -2.56342 3.29664 0
M  V30 17306 N 1668.77 -1.57515 -0.0517878 0
M  V30 17307 C 1670.19 -1.76755 -0.601218 0
M  V30 17308 C 1670.54 -0.849744 -1.76844 0
M  V30 17309 O 1669.66 -0.0387987 -2.16365 0
M  V30 17310 C 1670.26 -3.20534 -1.09743 0
M  V30 17311 C 1668.82 -3.41049 -1.59256 0
M  V30 17312 C 1667.96 -2.72369 -0.520618 0
M  V30 17313 H 1670.91 -1.57739 0.174429 0
M  V30 17314 H 1670.93 -3.25796 -1.96563 0
M  V30 17315 H 1670.45 -3.87309 -0.247696 0
M  V30 17316 H 1668.55 -2.79417 -2.46489 0
M  V30 17317 H 1668.66 -4.49581 -1.65572 0
M  V30 17318 H 1667.02 -2.3549 -0.97038 0
M  V30 17319 H 1667.81 -3.41812 0.319266 0
M  V30 17320 N 1670.25 0.323614 -1.54242 0
M  V30 17321 C 1671.2 1.39826 -1.83623 0
M  V30 17322 C 1672.17 1.51393 -0.683331 0
M  V30 17323 O 1673.36 1.66614 -0.929754 0
M  V30 17324 C 1670.5 2.76187 -2.06918 0
M  V30 17325 C 1669.61 2.73251 -3.34601 0
M  V30 17326 C 1668.74 4.01458 -3.47857 0
M  V30 17327 C 1667.78 3.9283 -4.69415 0
M  V30 17328 N 1666.92 5.12767 -4.79598 0
M  V30 17329 H 1671.76 1.1407 -2.75303 0
M  V30 17330 H 1669.3 0.552188 -1.36343 0
M  V30 17331 H 1671.25 3.55458 -2.18416 0
M  V30 17332 H 1669.88 3.00251 -1.18529 0
M  V30 17333 H 1668.94 1.85971 -3.31842 0
M  V30 17334 H 1670.25 2.62759 -4.2398 0
M  V30 17335 H 1669.4 4.89161 -3.58897 0
M  V30 17336 H 1668.14 4.14757 -2.5657 0
M  V30 17337 H 1667.15 3.03512 -4.58433 0
M  V30 17338 H 1668.37 3.81097 -5.62087 0
M  V30 17339 H 1666.32 5.26572 -3.91227 0
M  V30 17340 H 1666.23 5.0461 -5.62943 0
M  V30 17341 H 1667.5 6.02184 -4.94969 0
M  V30 17342 N 1671.73 1.46313 0.585673 0
M  V30 17343 C 1673.14 1.4567 1.16778 0
M  V30 17344 C 1673.49 0.195957 1.95219 0
M  V30 17345 O 1672.62 -0.701142 2.04727 0
M  V30 17346 C 1673.21 2.6392 2.12443 0
M  V30 17347 C 1671.77 2.66327 2.65983 0
M  V30 17348 C 1670.92 2.38304 1.41797 0
M  V30 17349 H 1673.87 1.54236 0.37377 0
M  V30 17350 H 1673.89 2.39268 2.95856 0
M  V30 17351 H 1673.4 3.55663 1.55324 0
M  V30 17352 H 1671.5 1.78648 3.2698 0
M  V30 17353 H 1671.62 3.66203 3.08921 0
M  V30 17354 H 1669.98 1.88302 1.71507 0
M  V30 17355 H 1670.76 3.3222 0.86514 0
M  V30 17356 N 1673.21 -0.830057 1.33969 0
M  V30 17357 C 1674.49 -1.57112 1.16513 0
M  V30 17358 C 1674.87 -2.09429 -0.265075 0
M  V30 17359 O 1674.21 -1.90263 -1.26539 0
M  V30 17360 C 1674.42 -2.69808 2.2137 0
M  V30 17361 C 1675.77 -3.38761 2.55981 0
M  V30 17362 O 1676.8 -2.80058 2.20104 0
M  V30 17363 O 1675.66 -4.44753 3.1758 0
M  V30 17364 H 1672.75 -0.693066 0.451207 0
M  V30 17365 H 1675.3 -0.872048 1.4558 0
M  V30 17366 H 1674.07 -2.28852 3.17399 0
M  V30 17367 H 1673.69 -3.47372 1.93439 0
M  V30 17368 N 1674.69 -1.17582 -1.04939 0
M  V30 17369 C 1675.65 -0.897095 -2.10914 0
M  V30 17370 C 1676.65 0.113823 -1.60397 0
M  V30 17371 O 1677.84 -0.118635 -1.73796 0
M  V30 17372 C 1674.97 -0.344251 -3.39157 0
M  V30 17373 H 1676.17 -1.83674 -2.37074 0
M  V30 17374 H 1673.72 -0.986634 -1.21224 0
M  V30 17375 H 1674.45 0.602417 -3.18656 0
M  V30 17376 H 1674.24 -1.07287 -3.77137 0
M  V30 17377 H 1675.73 -0.167644 -4.17263 0
M  V30 17378 N 1676.17 1.23705 -0.976463 0
M  V30 17379 C 1677.44 1.87421 -0.559719 0
M  V30 17380 C 1677.82 1.87847 0.963166 0
M  V30 17381 O 1677.17 1.35726 1.83822 0
M  V30 17382 C 1677.38 3.29113 -1.16128 0
M  V30 17383 C 1678.73 4.05735 -1.25158 0
M  V30 17384 O 1679.75 3.38317 -1.11444 0
M  V30 17385 O 1678.61 5.26377 -1.46933 0
M  V30 17386 H 1675.71 0.80537 -0.187903 0
M  V30 17387 H 1678.25 1.31611 -1.07129 0
M  V30 17388 H 1677.02 3.23348 -2.20367 0
M  V30 17389 H 1676.65 3.92508 -0.63428 0
M  V30 17390 N 1677.64 0.747635 1.38738 0
M  V30 17391 C 1678.89 0.300552 1.99853 0
M  V30 17392 C 1679.21 -1.11986 1.59638 0
M  V30 17393 O 1678.48 -1.76477 0.850447 0
M  V30 17394 H 1677.06 0.108134 0.739132 0
M  V30 17395 H 1679.72 0.960405 1.69594 0
M  V30 17396 H 1678.82 0.358956 3.10029 0
M  V30 17397 N 1679.12 -1.49583 0.496242 0
M  V30 17398 C 1680.37 -2.02438 -0.049963 0
M  V30 17399 C 1680.7 -1.37632 -1.37433 0
M  V30 17400 O 1679.95 -0.499552 -1.89217 0
M  V30 17401 C 1680.25 -3.56482 -0.255949 0
M  V30 17402 C 1679.92 -4.39901 0.989824 0
M  V30 17403 C 1678.58 -4.62417 1.33132 0
M  V30 17404 C 1680.93 -4.88461 1.81811 0
M  V30 17405 C 1678.26 -5.30737 2.50071 0
M  V30 17406 C 1680.61 -5.58067 2.97899 0
M  V30 17407 C 1679.27 -5.7883 3.32434 0
M  V30 17408 H 1678.54 -0.740774 -0.0182828 0
M  V30 17409 H 1681.19 -1.79934 0.655434 0
M  V30 17410 H 1679.5 -3.77639 -1.04383 0
M  V30 17411 H 1681.19 -3.94967 -0.692943 0
M  V30 17412 H 1677.78 -4.22614 0.713811 0
M  V30 17413 H 1681.97 -4.70898 1.56743 0
M  V30 17414 H 1677.22 -5.45015 2.77072 0
M  V30 17415 H 1681.4 -5.9467 3.6241 0
M  V30 17416 H 1679.02 -6.31544 4.23151 0
M  V30 17417 N 1680.6 -0.229873 -1.55915 0
M  V30 17418 C 1681.85 0.399963 -1.97695 0
M  V30 17419 C 1682.16 1.60303 -1.12081 0
M  V30 17420 O 1683.37 2.30292 -1.43797 0
M  V30 17421 C 1681.82 0.762982 -3.51719 0
M  V30 17422 C 1681.43 -0.417738 -4.46048 0
M  V30 17423 C 1683.18 1.35796 -4.02194 0
M  V30 17424 C 1681.08 -0.0318216 -5.91391 0
M  V30 17425 H 1680.01 0.153209 -0.73827 0
M  V30 17426 H 1682.66 -0.327401 -1.80556 0
M  V30 17427 H 1681.05 1.548 -3.6449 0
M  V30 17428 H 1682.22 -1.19523 -4.45029 0
M  V30 17429 H 1680.53 -0.926501 -4.05962 0
M  V30 17430 H 1683.13 1.65974 -5.08288 0
M  V30 17431 H 1683.47 2.27661 -3.48534 0
M  V30 17432 H 1684.01 0.6362 -3.9268 0
M  V30 17433 H 1680.75 -0.917176 -6.49052 0
M  V30 17434 H 1680.27 0.709811 -5.95585 0
M  V30 17435 H 1681.95 0.391966 -6.45812 0
M  V30 17436 N 1682.08 1.5754 0.0434337 0
M  V30 17437 C 1683.01 2.00964 1.08114 0
M  V30 17438 C 1683.99 0.891404 1.35988 0
M  V30 17439 O 1685.17 1.15607 1.48887 0
M  V30 17440 C 1682.3 2.3705 2.41919 0
M  V30 17441 C 1681.35 3.59171 2.29996 0
M  V30 17442 S 1682.18 5.08892 1.66702 0
M  V30 17443 C 1683.33 5.48206 3.02028 0
M  V30 17444 H 1683.57 2.88668 0.711202 0
M  V30 17445 H 1681.1 1.52314 0.25294 0
M  V30 17446 H 1683.06 2.58513 3.18875 0
M  V30 17447 H 1681.72 1.49824 2.76064 0
M  V30 17448 H 1680.91 3.82029 3.28739 0
M  V30 17449 H 1680.51 3.37486 1.61181 0
M  V30 17450 H 1682.81 5.48012 3.98358 0
M  V30 17451 H 1683.75 6.48688 2.83919 0
M  V30 17452 H 1684.16 4.7569 3.03939 0
M  V30 17453 N 1683.56 -0.31543 1.54411 0
M  V30 17454 C 1684.8 -1.05396 1.73261 0
M  V30 17455 C 1685.13 -1.87406 0.509171 0
M  V30 17456 O 1684.41 -1.88126 -0.493836 0
M  V30 17457 C 1684.69 -1.97195 3.01308 0
M  V30 17458 C 1684.55 -1.18461 4.33921 0
M  V30 17459 C 1685.86 -2.96594 3.25146 0
M  V30 17460 H 1682.98 -0.381763 0.630417 0
M  V30 17461 H 1685.63 -0.329882 1.87114 0
M  V30 17462 H 1683.78 -2.58936 2.89628 0
M  V30 17463 H 1685.45 -0.591171 4.57496 0
M  V30 17464 H 1683.69 -0.487025 4.31057 0
M  V30 17465 H 1684.36 -1.85909 5.19752 0
M  V30 17466 H 1686.84 -2.44977 3.36341 0
M  V30 17467 H 1685.71 -3.58002 4.16084 0
M  V30 17468 H 1685.97 -3.69487 2.42758 0
M  V30 17469 N 1685.03 -1.46622 -0.577906 0
M  V30 17470 C 1686.26 -1.55534 -1.35988 0
M  V30 17471 C 1686.67 -0.197065 -1.88171 0
M  V30 17472 O 1686.02 0.816609 -1.64551 0
M  V30 17473 C 1686.08 -2.5035 -2.58002 0
M  V30 17474 C 1685.74 -3.96491 -2.27253 0
M  V30 17475 C 1686.74 -4.85567 -1.85797 0
M  V30 17476 C 1684.42 -4.41662 -2.39249 0
M  V30 17477 C 1686.42 -6.17828 -1.56738 0
M  V30 17478 C 1684.1 -5.73956 -2.09803 0
M  V30 17479 C 1685.1 -6.6186 -1.68613 0
M  V30 17480 O 1684.79 -7.91698 -1.3953 0
M  V30 17481 H 1684.52 -0.528412 -0.421612 0
M  V30 17482 H 1687.08 -1.92774 -0.709038 0
M  V30 17483 H 1685.31 -2.08137 -3.25908 0
M  V30 17484 H 1687 -2.49616 -3.20073 0
M  V30 17485 H 1687.76 -4.51924 -1.76039 0
M  V30 17486 H 1683.64 -3.73462 -2.70272 0
M  V30 17487 H 1687.18 -6.86398 -1.24514 0
M  V30 17488 H 1683.08 -6.07147 -2.19187 0
M  V30 17489 H 1683.85 -8.04009 -1.53335 0
M  V30 17490 N 1686.51 0.822941 -1.34408 0
M  V30 17491 C 1687.44 1.94878 -1.28627 0
M  V30 17492 C 1688.42 1.6931 -0.163727 0
M  V30 17493 O 1689.61 1.90908 -0.356083 0
M  V30 17494 C 1686.74 3.31333 -1.04094 0
M  V30 17495 C 1685.69 3.71341 -2.12814 0
M  V30 17496 C 1685.02 5.05779 -1.73469 0
M  V30 17497 C 1686.32 3.83439 -3.54643 0
M  V30 17498 H 1688.01 1.99972 -2.22827 0
M  V30 17499 H 1685.56 0.960715 -1.07267 0
M  V30 17500 H 1687.51 4.0968 -0.986947 0
M  V30 17501 H 1686.24 3.26539 -0.0633642 0
M  V30 17502 H 1684.89 2.95269 -2.17282 0
M  V30 17503 H 1684.54 4.97471 -0.743727 0
M  V30 17504 H 1684.24 5.33518 -2.46236 0
M  V30 17505 H 1685.77 5.86583 -1.69566 0
M  V30 17506 H 1687.18 4.52057 -3.52587 0
M  V30 17507 H 1685.58 4.22632 -4.2603 0
M  V30 17508 H 1686.65 2.85439 -3.91986 0
M  V30 17509 N 1687.99 1.18137 1.04314 0
M  V30 17510 C 1689.4 0.979768 1.58926 0
M  V30 17511 C 1689.75 -0.471214 1.90457 0
M  V30 17512 O 1688.88 -1.34812 1.69277 0
M  V30 17513 C 1689.47 1.77219 2.88754 0
M  V30 17514 C 1688.03 1.61501 3.39992 0
M  V30 17515 C 1687.18 1.76824 2.13609 0
M  V30 17516 H 1690.13 1.32717 0.870162 0
M  V30 17517 H 1690.15 1.2598 3.59039 0
M  V30 17518 H 1689.66 2.82818 2.65773 0
M  V30 17519 H 1687.76 0.58427 3.67991 0
M  V30 17520 H 1687.88 2.4115 4.13985 0
M  V30 17521 H 1686.24 1.19747 2.24795 0
M  V30 17522 H 1687.02 2.83853 1.93087 0
M  V30 17523 N 1689.47 -1.23186 0.98301 0
M  V30 17524 C 1690.75 -1.87121 0.569651 0
M  V30 17525 C 1691.13 -1.88355 -0.95319 0
M  V30 17526 O 1690.47 -1.36699 -1.831 0
M  V30 17527 C 1690.68 -3.28493 1.17871 0
M  V30 17528 C 1692.03 -4.05065 1.27308 0
M  V30 17529 O 1693.06 -3.37722 1.13236 0
M  V30 17530 O 1691.91 -5.2559 1.49723 0
M  V30 17531 H 1689.01 -0.804363 0.192171 0
M  V30 17532 H 1691.55 -1.31041 1.07826 0
M  V30 17533 H 1690.33 -3.22175 2.22078 0
M  V30 17534 H 1689.95 -3.92166 0.655087 0
M  V30 17535 N 1690.95 -0.754982 -1.38339 0
M  V30 17536 C 1692.19 -0.311146 -1.9969 0
M  V30 17537 C 1692.52 1.11138 -1.60229 0
M  V30 17538 O 1691.79 1.76024 -0.859794 0
M  V30 17539 H 1690.37 -0.112052 -0.738548 0
M  V30 17540 H 1693.03 -0.969386 -1.69083 0
M  V30 17541 H 1692.12 -0.375392 -3.09834 0
M  V30 17542 N 1692.42 1.49318 -0.504168 0
M  V30 17543 C 1693.36 2.27103 0.309327 0
M  V30 17544 C 1694.37 1.33776 0.927781 0
M  V30 17545 O 1695.56 1.59034 0.810585 0
M  V30 17546 C 1692.66 3.06277 1.45078 0
M  V30 17547 C 1691.83 4.27201 0.939045 0
M  V30 17548 C 1690.89 4.88395 1.95849 0
M  V30 17549 O 1689.92 5.4837 1.52576 0
M  V30 17550 N 1691.12 4.78328 3.28911 0
M  V30 17551 H 1693.88 2.97558 -0.35767 0
M  V30 17552 H 1691.44 1.58356 -0.336907 0
M  V30 17553 H 1693.44 3.44088 2.13038 0
M  V30 17554 H 1692.01 2.38409 2.02188 0
M  V30 17555 H 1691.23 3.9411 0.0842433 0
M  V30 17556 H 1692.51 5.05534 0.575603 0
M  V30 17557 H 1691.91 4.30707 3.66753 0
M  V30 17558 H 1690.47 5.20315 3.92576 0
M  V30 17559 N 1693.9 0.238138 1.5579 0
M  V30 17560 C 1695.13 -0.396409 2.03576 0
M  V30 17561 C 1695.55 -1.5138 1.11649 0
M  V30 17562 O 1694.91 -1.80979 0.107774 0
M  V30 17563 C 1694.96 -0.889749 3.49451 0
M  V30 17564 O 1694.06 -1.99997 3.60659 0
M  V30 17565 H 1693.4 -0.0876017 0.658196 0
M  V30 17566 H 1695.93 0.361632 2.01379 0
M  V30 17567 H 1695.94 -1.19526 3.901 0
M  V30 17568 H 1694.62 -0.0720136 4.15838 0
M  V30 17569 H 1693.2 -1.69983 3.31904 0
M  V30 17570 N 1695.38 -1.57561 -0.0350783 0
M  V30 17571 C 1696.79 -1.77383 -0.582437 0
M  V30 17572 C 1697.14 -0.868453 -1.75933 0
M  V30 17573 O 1696.27 -0.061745 -2.16312 0
M  V30 17574 C 1696.86 -3.2168 -1.06337 0
M  V30 17575 C 1695.42 -3.42719 -1.55629 0
M  V30 17576 C 1694.57 -2.72906 -0.4917 0
M  V30 17577 H 1697.52 -1.57545 0.19115 0
M  V30 17578 H 1697.54 -3.27863 -1.93097 0
M  V30 17579 H 1697.05 -3.8755 -0.206603 0
M  V30 17580 H 1695.15 -2.82016 -2.43511 0
M  V30 17581 H 1695.27 -4.51312 -1.60794 0
M  V30 17582 H 1693.63 -2.36506 -0.945349 0
M  V30 17583 H 1694.41 -3.41454 0.355502 0
M  V30 17584 N 1696.86 0.307236 -1.54576 0
M  V30 17585 C 1698.1 1.04476 -1.73818 0
M  V30 17586 C 1698.44 1.87134 -0.519102 0
M  V30 17587 O 1697.71 1.88386 0.483852 0
M  V30 17588 C 1698 1.95594 -3.02349 0
M  V30 17589 C 1697.85 1.16158 -4.34543 0
M  V30 17590 C 1699.17 2.94865 -3.26715 0
M  V30 17591 H 1696.29 0.378415 -0.632433 0
M  V30 17592 H 1698.93 0.319955 -1.87287 0
M  V30 17593 H 1697.08 2.57396 -2.90997 0
M  V30 17594 H 1698.75 0.5669 -4.57803 0
M  V30 17595 H 1696.99 0.464158 -4.3131 0
M  V30 17596 H 1697.66 1.8315 -5.2073 0
M  V30 17597 H 1700.14 2.4319 -3.37636 0
M  V30 17598 H 1699.02 3.55791 -4.17976 0
M  V30 17599 H 1699.28 3.68195 -2.44714 0
M  V30 17600 N 1698.34 1.46926 0.570122 0
M  V30 17601 C 1699.75 1.469 1.15227 0
M  V30 17602 C 1700.1 0.216651 1.95 0
M  V30 17603 O 1699.22 -0.679388 2.05459 0
M  V30 17604 C 1699.82 2.66158 2.09632 0
M  V30 17605 C 1698.38 2.69133 2.63144 0
M  V30 17606 C 1697.52 2.39795 1.39262 0
M  V30 17607 H 1700.48 1.54623 0.35739 0
M  V30 17608 H 1700.5 2.42393 2.93302 0
M  V30 17609 H 1700.01 3.5729 1.51543 0
M  V30 17610 H 1698.11 1.82106 3.25066 0
M  V30 17611 H 1698.22 3.69459 3.05019 0
M  V30 17612 H 1696.59 1.9011 1.695 0
M  V30 17613 H 1697.37 3.33119 0.829855 0
M  V30 17614 N 1699.82 -0.815801 1.34842 0
M  V30 17615 C 1701.06 -1.57474 1.27788 0
M  V30 17616 C 1701.39 -1.9362 -0.149956 0
M  V30 17617 O 1700.67 -1.60605 -1.0971 0
M  V30 17618 C 1700.95 -2.86952 2.17556 0
M  V30 17619 C 1700.81 -2.5734 3.68912 0
M  V30 17620 C 1702.12 -3.88582 2.0662 0
M  V30 17621 H 1699.24 -0.57135 0.465541 0
M  V30 17622 H 1701.89 -0.939271 1.6516 0
M  V30 17623 H 1700.04 -3.41182 1.85815 0
M  V30 17624 H 1701.71 -2.09365 4.11052 0
M  V30 17625 H 1699.95 -1.90674 3.89648 0
M  V30 17626 H 1700.62 -3.49702 4.27098 0
M  V30 17627 H 1703.1 -3.43726 2.34503 0
M  V30 17628 H 1701.97 -4.7697 2.71644 0
M  V30 17629 H 1702.23 -4.29564 1.04532 0
M  V30 17630 N 1701.29 -1.18689 -1.03686 0
M  V30 17631 C 1702.23 -0.875126 -2.11835 0
M  V30 17632 C 1703.24 0.128865 -1.62289 0
M  V30 17633 O 1704.43 -0.0994835 -1.78223 0
M  V30 17634 C 1701.53 -0.286914 -3.37683 0
M  V30 17635 C 1700.7 -1.3375 -4.16449 0
M  V30 17636 C 1699.76 -0.764286 -5.2062 0
M  V30 17637 O 1698.79 -1.43998 -5.50684 0
M  V30 17638 N 1699.99 0.436345 -5.78858 0
M  V30 17639 H 1702.75 -1.80601 -2.39172 0
M  V30 17640 H 1700.31 -1.0878 -1.19911 0
M  V30 17641 H 1702.31 0.110219 -4.0455 0
M  V30 17642 H 1700.88 0.548073 -3.07758 0
M  V30 17643 H 1700.1 -1.9098 -3.44848 0
M  V30 17644 H 1701.38 -2.04566 -4.65865 0
M  V30 17645 H 1700.78 1.00296 -5.56738 0
M  V30 17646 H 1699.34 0.775353 -6.47172 0
M  V30 17647 N 1702.77 1.22662 -0.989529 0
M  V30 17648 C 1704 1.95883 -0.681511 0
M  V30 17649 C 1704.42 1.72646 0.746646 0
M  V30 17650 O 1703.78 1.00358 1.5099 0
M  V30 17651 C 1703.83 3.46773 -0.988975 0
M  V30 17652 O 1702.93 4.12311 -0.0858485 0
M  V30 17653 H 1702.27 0.612916 -0.255401 0
M  V30 17654 H 1704.8 1.5585 -1.32559 0
M  V30 17655 H 1704.81 3.97273 -0.929426 0
M  V30 17656 H 1703.49 3.63011 -2.02967 0
M  V30 17657 H 1702.06 3.7236 -0.200592 0
M  V30 17658 N 1704.25 0.762308 1.37937 0
M  V30 17659 C 1705.48 0.332974 2.03899 0
M  V30 17660 C 1705.89 -1.04654 1.57621 0
M  V30 17661 O 1705.23 -1.67759 0.748504 0
M  V30 17662 C 1705.29 0.286844 3.58354 0
M  V30 17663 C 1704.96 1.60936 4.27725 0
M  V30 17664 C 1705.95 2.56012 4.52497 0
M  V30 17665 C 1703.64 1.88119 4.65743 0
M  V30 17666 C 1705.63 3.76486 5.14332 0
M  V30 17667 C 1703.32 3.08865 5.273 0
M  V30 17668 C 1704.32 4.02868 5.51531 0
M  V30 17669 O 1704.01 5.2149 6.11804 0
M  V30 17670 H 1703.74 0.138852 0.661586 0
M  V30 17671 H 1706.29 1.0346 1.77441 0
M  V30 17672 H 1704.52 -0.471086 3.8382 0
M  V30 17673 H 1706.21 -0.114146 4.05739 0
M  V30 17674 H 1706.98 2.36289 4.23547 0
M  V30 17675 H 1702.86 1.15783 4.46223 0
M  V30 17676 H 1706.4 4.49873 5.33161 0
M  V30 17677 H 1702.3 3.28477 5.55673 0
M  V30 17678 H 1703.06 5.22188 6.30287 0
M  V30 17679 N 1705.73 -1.49049 0.51208 0
M  V30 17680 C 1706.97 -2.0248 -0.0284889 0
M  V30 17681 C 1707.3 -1.39082 -1.35965 0
M  V30 17682 O 1706.56 -0.519593 -1.88676 0
M  V30 17683 C 1706.86 -3.56734 -0.218125 0
M  V30 17684 C 1706.52 -4.38827 1.03643 0
M  V30 17685 C 1705.18 -4.60979 1.38029 0
M  V30 17686 C 1707.54 -4.86505 1.86982 0
M  V30 17687 C 1704.86 -5.28055 2.55686 0
M  V30 17688 C 1707.22 -5.54876 3.03801 0
M  V30 17689 C 1705.88 -5.75271 3.38555 0
M  V30 17690 H 1705.15 -0.740927 -0.0104248 0
M  V30 17691 H 1707.8 -1.79229 0.674481 0
M  V30 17692 H 1706.1 -3.78725 -1.00372 0
M  V30 17693 H 1707.8 -3.9568 -0.651013 0
M  V30 17694 H 1704.39 -4.21833 0.758594 0
M  V30 17695 H 1708.57 -4.69209 1.61729 0
M  V30 17696 H 1703.83 -5.42046 2.82837 0
M  V30 17697 H 1708 -5.90793 3.68696 0
M  V30 17698 H 1705.63 -6.2702 4.29825 0
M  V30 17699 N 1707.21 -0.246397 -1.55662 0
M  V30 17700 C 1708.45 0.378973 -1.98108 0
M  V30 17701 C 1708.77 1.59106 -1.13775 0
M  V30 17702 O 1709.97 2.28754 -1.46232 0
M  V30 17703 C 1708.43 0.725634 -3.52509 0
M  V30 17704 C 1708.04 -0.465024 -4.4558 0
M  V30 17705 C 1709.78 1.31522 -4.03611 0
M  V30 17706 C 1707.69 -0.0945447 -5.91324 0
M  V30 17707 H 1706.62 0.14537 -0.739854 0
M  V30 17708 H 1709.27 -0.346533 -1.80198 0
M  V30 17709 H 1707.65 1.50925 -3.66111 0
M  V30 17710 H 1708.83 -1.24236 -4.43736 0
M  V30 17711 H 1707.14 -0.969507 -4.04956 0
M  V30 17712 H 1709.74 1.60573 -5.1002 0
M  V30 17713 H 1710.08 2.23952 -3.50929 0
M  V30 17714 H 1710.61 0.594515 -3.93332 0
M  V30 17715 H 1707.35 -0.985965 -6.48042 0
M  V30 17716 H 1706.87 0.646601 -5.96305 0
M  V30 17717 H 1708.55 0.323447 -6.46191 0
M  V30 17718 N 1708.68 1.57577 0.026722 0
M  V30 17719 C 1709.93 1.8966 0.718124 0
M  V30 17720 C 1710.26 0.844423 1.7488 0
M  V30 17721 O 1709.54 -0.14023 1.93994 0
M  V30 17722 C 1709.82 3.32377 1.38555 0
M  V30 17723 C 1709.67 4.4829 0.368227 0
M  V30 17724 C 1710.99 3.74051 2.31891 0
M  V30 17725 H 1708.11 0.689767 0.259596 0
M  V30 17726 H 1710.75 1.8999 -0.0190825 0
M  V30 17727 H 1708.9 3.32226 2.01391 0
M  V30 17728 H 1710.58 4.60576 -0.258394 0
M  V30 17729 H 1708.82 4.32675 -0.312255 0
M  V30 17730 H 1709.49 5.45041 0.873749 0
M  V30 17731 H 1711.97 3.75584 1.79097 0
M  V30 17732 H 1710.84 4.74713 2.7557 0
M  V30 17733 H 1711.1 3.06438 3.18666 0
M  V30 17734 N 1710.16 -0.299034 1.54737 0
M  V30 17735 C 1711.09 -1.39354 1.80709 0
M  V30 17736 C 1712.07 -1.48673 0.658407 0
M  V30 17737 O 1713.26 -1.65704 0.898578 0
M  V30 17738 C 1710.38 -2.77246 1.94556 0
M  V30 17739 C 1709.43 -2.8534 3.16991 0
M  V30 17740 S 1710.26 -2.47235 4.7501 0
M  V30 17741 C 1711.42 -3.87152 4.91796 0
M  V30 17742 H 1711.65 -1.17114 2.73261 0
M  V30 17743 H 1709.18 -0.497254 1.46174 0
M  V30 17744 H 1711.14 -3.56668 2.03219 0
M  V30 17745 H 1709.8 -2.96753 1.02939 0
M  V30 17746 H 1709 -3.86486 3.23488 0
M  V30 17747 H 1708.6 -2.13915 3.06784 0
M  V30 17748 H 1710.89 -4.8217 4.7594 0
M  V30 17749 H 1711.83 -3.85624 5.93885 0
M  V30 17750 H 1712.24 -3.77246 4.19935 0
M  V30 17751 N 1711.64 -1.47227 -0.562322 0
M  V30 17752 C 1712.89 -1.53816 -1.32168 0
M  V30 17753 C 1713.22 -0.197649 -1.93192 0
M  V30 17754 O 1712.49 0.793178 -1.77592 0
M  V30 17755 C 1712.78 -2.65231 -2.43566 0
M  V30 17756 C 1712.63 -4.08882 -1.87445 0
M  V30 17757 C 1713.95 -2.72589 -3.45519 0
M  V30 17758 H 1711.07 -0.559947 -0.479195 0
M  V30 17759 H 1713.71 -1.7926 -0.629762 0
M  V30 17760 H 1711.86 -2.43667 -3.02587 0
M  V30 17761 H 1713.53 -4.41794 -1.32725 0
M  V30 17762 H 1711.77 -4.17401 -1.18149 0
M  V30 17763 H 1712.45 -4.82603 -2.67952 0
M  V30 17764 H 1714.92 -2.92028 -2.9641 0
M  V30 17765 H 1713.8 -3.5233 -4.20898 0
M  V30 17766 H 1714.06 -1.79444 -4.04045 0
M  V30 17767 N 1713.12 0.808639 -1.35273 0
M  V30 17768 C 1714.53 1.38248 -1.25477 0
M  V30 17769 C 1714.88 1.9587 0.113715 0
M  V30 17770 O 1714 1.91141 1.0146 0
M  V30 17771 C 1714.6 2.5133 -2.27197 0
M  V30 17772 C 1713.16 3.04582 -2.21148 0
M  V30 17773 C 1712.31 1.77534 -2.13019 0
M  V30 17774 H 1715.26 0.611844 -1.46431 0
M  V30 17775 H 1715.28 3.29825 -1.89726 0
M  V30 17776 H 1714.79 2.09362 -3.26786 0
M  V30 17777 H 1712.89 3.5102 -1.24963 0
M  V30 17778 H 1713 3.62703 -3.13023 0
M  V30 17779 H 1711.37 1.99004 -1.58964 0
M  V30 17780 H 1712.15 1.3772 -3.14465 0
M  V30 17781 N 1714.6 1.19237 1.03055 0
M  V30 17782 C 1715.53 0.95226 2.132 0
M  V30 17783 C 1716.51 -0.113771 1.69719 0
M  V30 17784 O 1717.69 0.0409057 1.94157 0
M  V30 17785 C 1714.82 0.488296 3.4385 0
M  V30 17786 C 1713.78 1.49597 4.01005 0
M  V30 17787 C 1713.1 0.889148 5.27255 0
M  V30 17788 C 1714.4 2.87571 4.36005 0
M  V30 17789 H 1716.1 1.87343 2.33544 0
M  V30 17790 H 1713.64 0.902172 1.12236 0
M  V30 17791 H 1715.6 0.307623 4.20276 0
M  V30 17792 H 1714.32 -0.468469 3.23223 0
M  V30 17793 H 1712.98 1.66376 3.26672 0
M  V30 17794 H 1712.63 -0.0751191 5.02944 0
M  V30 17795 H 1712.33 1.56202 5.66458 0
M  V30 17796 H 1713.85 0.719233 6.06349 0
M  V30 17797 H 1715.26 2.74384 5.03375 0
M  V30 17798 H 1713.66 3.51635 4.86285 0
M  V30 17799 H 1714.73 3.40353 3.45381 0
M  V30 17800 N 1716.07 -1.22136 0.99602 0
M  V30 17801 C 1717.49 -1.43072 0.707285 0
M  V30 17802 C 1717.69 -1.88163 -0.720906 0
M  V30 17803 O 1716.75 -2.03747 -1.49142 0
M  V30 17804 C 1718.06 -2.46963 1.71551 0
M  V30 17805 C 1719.61 -2.60758 1.73131 0
M  V30 17806 C 1720.08 -3.67873 2.72825 0
M  V30 17807 N 1721.57 -3.75334 2.71438 0
M  V30 17808 C 1722.31 -4.57817 3.45241 0
M  V30 17809 N 1721.8 -5.44268 4.28654 0
M  V30 17810 N 1723.6 -4.52157 3.33932 0
M  V30 17811 H 1715.75 -0.911751 1.91836 0
M  V30 17812 H 1718.01 -0.462523 0.827512 0
M  V30 17813 H 1717.72 -2.20784 2.73765 0
M  V30 17814 H 1717.59 -3.45618 1.51089 0
M  V30 17815 H 1719.98 -2.86279 0.716132 0
M  V30 17816 H 1720.06 -1.62367 1.97663 0
M  V30 17817 H 1719.7 -3.43098 3.74494 0
M  V30 17818 H 1719.63 -4.6584 2.45562 0
M  V30 17819 H 1722.12 -3.13566 2.10915 0
M  V30 17820 H 1722.44 -6.04236 4.81786 0
M  V30 17821 H 1720.78 -5.43839 4.3274 0
M  V30 17822 H 1723.97 -3.83645 2.68206 0
M  V30 17823 H 1724.15 -5.16207 3.91707 0
M  V30 17824 N 1717.55 -0.769612 -1.37531 0
M  V30 17825 C 1718.5 -0.152627 -2.30295 0
M  V30 17826 C 1719.47 0.692154 -1.50992 0
M  V30 17827 O 1720.65 0.64496 -1.79569 0
M  V30 17828 C 1717.79 0.72217 -3.37459 0
M  V30 17829 C 1716.91 -0.138985 -4.31776 0
M  V30 17830 C 1716.04 0.740317 -5.26016 0
M  V30 17831 C 1715.08 -0.1235 -6.11975 0
M  V30 17832 N 1714.22 0.713658 -6.98464 0
M  V30 17833 H 1719.06 -0.949218 -2.82478 0
M  V30 17834 H 1716.6 -0.479697 -1.39059 0
M  V30 17835 H 1718.55 1.24415 -3.98217 0
M  V30 17836 H 1717.18 1.48438 -2.86646 0
M  V30 17837 H 1716.24 -0.778756 -3.72343 0
M  V30 17838 H 1717.55 -0.805402 -4.92255 0
M  V30 17839 H 1716.7 1.32887 -5.91968 0
M  V30 17840 H 1715.44 1.44042 -4.65943 0
M  V30 17841 H 1714.45 -0.7246 -5.45004 0
M  V30 17842 H 1715.67 -0.820907 -6.7412 0
M  V30 17843 H 1713.62 1.39842 -6.40921 0
M  V30 17844 H 1713.53 0.104492 -7.55928 0
M  V30 17845 H 1714.8 1.28667 -7.68808 0
M  V30 17846 N 1719.03 1.48775 -0.519977 0
M  V30 17847 C 1720.26 2.07394 0.0161061 0
M  V30 17848 C 1720.68 1.37532 1.28322 0
M  V30 17849 O 1720.04 0.438049 1.75928 0
M  V30 17850 C 1720.09 3.59844 0.233382 0
M  V30 17851 O 1719.19 3.91235 1.30418 0
M  V30 17852 H 1718.53 0.663094 -0.0346678 0
M  V30 17853 H 1721.06 1.91323 -0.725029 0
M  V30 17854 H 1721.07 4.05409 0.45911 0
M  V30 17855 H 1719.75 4.10098 -0.69229 0
M  V30 17856 H 1718.32 3.5746 1.0619 0
M  V30 17857 N 1720.51 0.254649 1.55529 0
M  V30 17858 C 1721.92 -0.100019 1.59286 0
M  V30 17859 C 1722.12 -1.56289 1.27185 0
M  V30 17860 O 1721.18 -2.30854 1.02287 0
M  V30 17861 C 1722.49 0.256158 2.99607 0
M  V30 17862 C 1724.04 0.201091 3.12353 0
M  V30 17863 C 1724.52 0.531411 4.54907 0
M  V30 17864 N 1726.01 0.482199 4.60683 0
M  V30 17865 C 1726.74 0.710848 5.68977 0
M  V30 17866 N 1726.24 1.00304 6.85501 0
M  V30 17867 N 1728.03 0.641029 5.58433 0
M  V30 17868 H 1720.18 1.20856 1.74664 0
M  V30 17869 H 1722.45 0.486824 0.813453 0
M  V30 17870 H 1722.15 1.27275 3.27863 0
M  V30 17871 H 1722.03 -0.412994 3.74932 0
M  V30 17872 H 1724.41 -0.806189 2.83874 0
M  V30 17873 H 1724.49 0.904206 2.39286 0
M  V30 17874 H 1724.14 1.53628 4.84108 0
M  V30 17875 H 1724.07 -0.193269 5.26245 0
M  V30 17876 H 1726.56 0.265409 3.76967 0
M  V30 17877 H 1726.87 1.16472 7.63973 0
M  V30 17878 H 1725.22 1.04059 6.87166 0
M  V30 17879 H 1728.41 0.412751 4.66277 0
M  V30 17880 H 1728.58 0.822617 6.42757 0
M  V30 17881 N 1721.99 -1.57589 -0.0183649 0
M  V30 17882 C 1723.23 -1.89382 -0.705612 0
M  V30 17883 C 1723.56 -0.853698 -1.7532 0
M  V30 17884 O 1722.83 0.111322 -1.95583 0
M  V30 17885 H 1721.41 -0.698943 -0.263605 0
M  V30 17886 H 1724.07 -1.94891 0.0182168 0
M  V30 17887 H 1723.16 -2.88587 -1.18845 0
M  V30 17888 N 1723.46 0.290824 -1.54893 0
M  V30 17889 C 1724.71 1.02272 -1.74312 0
M  V30 17890 C 1725.03 1.87449 -0.537393 0
M  V30 17891 O 1724.3 1.90705 0.448135 0
M  V30 17892 H 1722.88 0.380592 -0.642774 0
M  V30 17893 H 1725.55 0.319353 -1.92266 0
M  V30 17894 H 1724.64 1.66997 -2.63663 0
M  V30 17895 N 1724.94 1.47523 0.554506 0
M  V30 17896 C 1725.87 1.56275 1.67663 0
M  V30 17897 C 1726.89 0.448743 1.56493 0
M  V30 17898 O 1728.08 0.718478 1.63402 0
M  V30 17899 C 1725.18 1.45348 3.06149 0
M  V30 17900 C 1724.35 2.71364 3.43046 0
M  V30 17901 C 1723.41 2.54237 4.60706 0
M  V30 17902 O 1722.43 3.28059 4.65152 0
M  V30 17903 N 1723.64 1.6224 5.57367 0
M  V30 17904 H 1726.4 2.53036 1.60601 0
M  V30 17905 H 1723.96 1.43936 0.741209 0
M  V30 17906 H 1725.95 1.31621 3.82698 0
M  V30 17907 H 1724.52 0.566583 3.07423 0
M  V30 17908 H 1723.74 2.99833 2.55917 0
M  V30 17909 H 1725.03 3.55017 3.64473 0
M  V30 17910 H 1724.43 1.01419 5.56534 0
M  V30 17911 H 1722.99 1.54463 6.33233 0
M  V30 17912 N 1726.42 -0.801453 1.357 0
M  V30 17913 C 1727.67 -1.55879 1.2926 0
M  V30 17914 C 1728 -1.94055 -0.131552 0
M  V30 17915 O 1727.25 -1.61993 -1.09803 0
M  V30 17916 C 1727.55 -2.85531 2.14957 0
M  V30 17917 C 1727.22 -2.6655 3.63679 0
M  V30 17918 C 1725.88 -2.61081 4.04216 0
M  V30 17919 C 1728.23 -2.48725 4.58023 0
M  V30 17920 C 1725.56 -2.35737 5.37257 0
M  V30 17921 C 1727.91 -2.2491 5.91268 0
M  V30 17922 C 1726.57 -2.17867 6.30944 0
M  V30 17923 H 1725.84 -0.570401 0.472994 0
M  V30 17924 H 1728.49 -0.925627 1.67644 0
M  V30 17925 H 1726.8 -3.53252 1.69471 0
M  V30 17926 H 1728.49 -3.43256 2.07307 0
M  V30 17927 H 1725.08 -2.71656 3.31513 0
M  V30 17928 H 1729.27 -2.51959 4.27587 0
M  V30 17929 H 1724.52 -2.28758 5.66992 0
M  V30 17930 H 1728.7 -2.1011 6.63948 0
M  V30 17931 H 1726.32 -1.97991 7.33964 0
M  V30 17932 N 1727.9 -1.19782 -1.02421 0
M  V30 17933 C 1728.83 -0.963553 -2.12692 0
M  V30 17934 C 1729.81 0.104769 -1.69777 0
M  V30 17935 O 1730.99 -0.0512017 -1.94132 0
M  V30 17936 C 1728.12 -0.506525 -3.43586 0
M  V30 17937 C 1727.08 -1.51722 -4.00206 0
M  V30 17938 C 1726.4 -0.917097 -5.26776 0
M  V30 17939 C 1727.7 -2.89879 -4.34474 0
M  V30 17940 H 1729.4 -1.88579 -2.32547 0
M  V30 17941 H 1726.94 -0.908111 -1.11756 0
M  V30 17942 H 1728.9 -0.329907 -4.20107 0
M  V30 17943 H 1727.62 0.451322 -3.23467 0
M  V30 17944 H 1726.28 -1.68106 -3.25785 0
M  V30 17945 H 1725.93 0.0484457 -5.02977 0
M  V30 17946 H 1725.63 -1.59204 -5.65622 0
M  V30 17947 H 1727.15 -0.751379 -6.05959 0
M  V30 17948 H 1728.57 -2.7705 -5.01913 0
M  V30 17949 H 1726.96 -3.54209 -4.84413 0
M  V30 17950 H 1728.03 -3.42179 -3.43571 0
M  V30 17951 N 1729.38 1.21606 -1.00248 0
M  V30 17952 C 1730.61 1.94609 -0.702502 0
M  V30 17953 C 1731.02 1.73928 0.734483 0
M  V30 17954 O 1730.38 1.04432 1.49667 0
M  V30 17955 C 1730.43 3.47077 -1.01092 0
M  V30 17956 O 1730.15 3.67071 -2.39145 0
M  V30 17957 C 1731.65 4.37248 -0.729988 0
M  V30 17958 H 1728.87 0.618962 -0.259088 0
M  V30 17959 H 1731.41 1.54494 -1.33985 0
M  V30 17960 H 1729.57 3.85125 -0.419215 0
M  V30 17961 H 1729.98 4.61188 -2.49811 0
M  V30 17962 H 1731.46 5.4294 -0.99598 0
M  V30 17963 H 1731.93 4.37913 0.33599 0
M  V30 17964 H 1732.54 4.04842 -1.30318 0
M  V30 17965 N 1730.86 0.776895 1.37121 0
M  V30 17966 C 1732.27 0.408311 1.8218 0
M  V30 17967 C 1732.62 -1.06621 1.64701 0
M  V30 17968 O 1731.74 -1.82621 1.16097 0
M  V30 17969 C 1732.34 0.734339 3.30746 0
M  V30 17970 C 1730.9 0.418746 3.74063 0
M  V30 17971 C 1730.04 0.97551 2.59575 0
M  V30 17972 H 1732.99 0.971111 1.25519 0
M  V30 17973 H 1733.02 0.0208557 3.80494 0
M  V30 17974 H 1732.53 1.80757 3.43436 0
M  V30 17975 H 1730.63 -0.646961 3.6694 0
M  V30 17976 H 1730.74 0.930597 4.69975 0
M  V30 17977 H 1729.11 0.399449 2.51548 0
M  V30 17978 H 1729.89 2.05425 2.75056 0
M  V30 17979 N 1732.33 -1.48497 0.527859 0
M  V30 17980 C 1733.26 -2.32414 -0.224891 0
M  V30 17981 C 1734.24 -1.41959 -0.93711 0
M  V30 17982 O 1735.43 -1.70847 -0.923302 0
M  V30 17983 C 1732.56 -3.23106 -1.27356 0
M  V30 17984 C 1731.51 -4.2257 -0.679611 0
M  V30 17985 C 1730.84 -5.02381 -1.83077 0
M  V30 17986 C 1732.14 -5.21144 0.347269 0
M  V30 17987 H 1733.83 -2.95598 0.475632 0
M  V30 17988 H 1731.38 -1.42148 0.230182 0
M  V30 17989 H 1733.33 -3.80639 -1.8081 0
M  V30 17990 H 1732.06 -2.57919 -2.00363 0
M  V30 17991 H 1730.72 -3.66221 -0.166608 0
M  V30 17992 H 1730.36 -4.3362 -2.54918 0
M  V30 17993 H 1730.06 -5.697 -1.43929 0
M  V30 17994 H 1731.59 -5.62765 -2.36914 0
M  V30 17995 H 1733 -5.73213 -0.100107 0
M  V30 17996 H 1731.4 -5.96503 0.656021 0
M  V30 17997 H 1732.47 -4.6841 1.25379 0
M  V30 17998 N 1733.81 -0.262893 -1.55392 0
M  V30 17999 C 1735.06 0.35666 -1.98928 0
M  V30 18000 C 1735.38 1.5729 -1.1526 0
M  V30 18001 O 1734.65 1.94435 -0.239164 0
M  V30 18002 H 1733.23 0.134768 -0.734742 0
M  V30 18003 H 1735.89 -0.365394 -1.91444 0
M  V30 18004 H 1734.99 0.654895 -3.05152 0
M  V30 18005 N 1735.29 1.57597 0.0100073 0
M  V30 18006 C 1736.51 1.94801 0.711852 0
M  V30 18007 C 1736.94 0.864343 1.67065 0
M  V30 18008 O 1736.3 -0.178388 1.8042 0
M  V30 18009 C 1736.35 3.31094 1.42862 0
M  V30 18010 O 1735.45 3.2469 2.54264 0
M  V30 18011 H 1734.79 0.636207 0.190095 0
M  V30 18012 H 1737.32 2.04561 -0.0402016 0
M  V30 18013 H 1737.33 3.66428 1.79429 0
M  V30 18014 H 1736.01 4.09522 0.725549 0
M  V30 18015 H 1734.58 3.01017 2.20099 0
M  V30 18016 N 1736.77 -0.282606 1.55045 0
M  V30 18017 C 1738.18 -0.854338 1.66006 0
M  V30 18018 C 1738.53 -1.87408 0.580753 0
M  V30 18019 O 1737.65 -2.14588 -0.279449 0
M  V30 18020 C 1738.25 -1.55637 3.00936 0
M  V30 18021 C 1736.81 -2.07626 3.13956 0
M  V30 18022 C 1735.96 -0.915064 2.61767 0
M  V30 18023 H 1738.91 -0.0591711 1.5859 0
M  V30 18024 H 1738.93 -2.42289 2.93388 0
M  V30 18025 H 1738.44 -0.813942 3.79469 0
M  V30 18026 H 1736.54 -2.84859 2.40179 0
M  V30 18027 H 1736.65 -2.29816 4.20382 0
M  V30 18028 H 1735.02 -1.30577 2.18682 0
M  V30 18029 H 1735.8 -0.186298 3.42794 0
M  V30 18030 N 1738.25 -1.47815 -0.546675 0
M  V30 18031 C 1739.16 -1.63744 -1.68003 0
M  V30 18032 C 1740.17 -0.520118 -1.66044 0
M  V30 18033 O 1741.35 -0.789033 -1.853 0
M  V30 18034 C 1738.41 -1.65778 -3.04497 0
M  V30 18035 C 1737.47 -2.89015 -3.17441 0
M  V30 18036 C 1736.71 -2.90943 -4.47424 0
M  V30 18037 O 1736.93 -2.01769 -5.33522 0
M  V30 18038 O 1735.86 -3.82927 -4.64382 0
M  V30 18039 H 1739.69 -2.59665 -1.57505 0
M  V30 18040 H 1737.27 -1.31022 -0.717883 0
M  V30 18041 H 1739.16 -1.69734 -3.85705 0
M  V30 18042 H 1737.83 -0.730268 -3.15355 0
M  V30 18043 H 1736.74 -2.90599 -2.35591 0
M  V30 18044 H 1738.07 -3.81095 -3.11492 0
M  V30 18045 N 1739.72 0.794246 -1.36123 0
M  V30 18046 C 1741 1.53967 -1.20638 0
M  V30 18047 C 1741.38 2.10058 0.209456 0
M  V30 18048 O 1740.73 1.93551 1.2145 0
M  V30 18049 C 1740.94 2.63844 -2.28445 0
M  V30 18050 C 1742.29 3.31855 -2.64872 0
M  V30 18051 O 1743.31 2.74124 -2.27452 0
M  V30 18052 O 1742.17 4.36177 -3.2926 0
M  V30 18053 H 1739.26 0.68086 -0.469424 0
M  V30 18054 H 1741.81 0.833144 -1.4784 0
M  V30 18055 H 1740.58 2.20357 -3.23355 0
M  V30 18056 H 1740.2 3.42121 -2.02581 0
M  V30 18057 N 1741.2 1.20323 1.01785 0
M  V30 18058 C 1742.13 0.894265 2.09948 0
M  V30 18059 C 1743.11 -0.15315 1.61877 0
M  V30 18060 O 1744.3 -0.0270078 1.88481 0
M  V30 18061 C 1741.42 0.3404 3.36985 0
M  V30 18062 C 1740.47 1.36861 4.03945 0
M  V30 18063 S 1741.3 2.9332 4.48022 0
M  V30 18064 C 1742.46 2.39506 5.78263 0
M  V30 18065 H 1742.69 1.81026 2.35833 0
M  V30 18066 H 1740.22 1.03157 1.14883 0
M  V30 18067 H 1742.18 0.0273874 4.10491 0
M  V30 18068 H 1740.84 -0.554073 3.09174 0
M  V30 18069 H 1740.04 0.930418 4.95337 0
M  V30 18070 H 1739.64 1.62903 3.36658 0
M  V30 18071 H 1741.93 1.7919 6.53374 0
M  V30 18072 H 1742.87 3.2929 6.26876 0
M  V30 18073 H 1743.28 1.81678 5.34465 0
M  V30 18074 N 1742.68 -1.21073 1.00892 0
M  V30 18075 C 1743.96 -1.85871 0.609214 0
M  V30 18076 C 1744.34 -1.90334 -0.913023 0
M  V30 18077 O 1743.68 -1.40552 -1.80159 0
M  V30 18078 C 1743.89 -3.25918 1.24813 0
M  V30 18079 C 1745.24 -4.02274 1.35871 0
M  V30 18080 O 1746.27 -3.35244 1.20375 0
M  V30 18081 O 1745.13 -5.22296 1.60838 0
M  V30 18082 H 1742.22 -0.800105 0.20919 0
M  V30 18083 H 1744.77 -1.28724 1.10581 0
M  V30 18084 H 1743.54 -3.17392 2.28862 0
M  V30 18085 H 1743.16 -3.90688 0.738124 0
M  V30 18086 N 1744.16 -0.784156 -1.36707 0
M  V30 18087 C 1745.09 -0.193081 -2.327 0
M  V30 18088 C 1746.07 0.668999 -1.56392 0
M  V30 18089 O 1747.25 0.603908 -1.84571 0
M  V30 18090 C 1744.38 0.677092 -3.40636 0
M  V30 18091 C 1743.34 -0.0846718 -4.27916 0
M  V30 18092 C 1742.66 0.905754 -5.26973 0
M  V30 18093 C 1743.96 -1.27085 -5.06603 0
M  V30 18094 H 1745.66 -0.995029 -2.82382 0
M  V30 18095 H 1743.2 -0.479929 -1.35767 0
M  V30 18096 H 1745.16 1.1005 -4.06776 0
M  V30 18097 H 1743.88 1.51169 -2.89509 0
M  V30 18098 H 1742.54 -0.488992 -3.63324 0
M  V30 18099 H 1742.19 1.73524 -4.72121 0
M  V30 18100 H 1741.89 0.400524 -5.86233 0
M  V30 18101 H 1743.41 1.32784 -5.95987 0
M  V30 18102 H 1744.83 -0.923469 -5.65814 0
M  V30 18103 H 1743.22 -1.70901 -5.7525 0
M  V30 18104 H 1744.29 -2.06882 -4.38552 0
M  V30 18105 N 1745.64 1.48215 -0.535727 0
M  V30 18106 C 1746.55 2.33494 0.227577 0
M  V30 18107 C 1747.56 1.4685 0.933327 0
M  V30 18108 O 1748.74 1.7982 0.907008 0
M  V30 18109 C 1745.8 3.23092 1.25747 0
M  V30 18110 C 1744.86 4.25613 0.561454 0
M  V30 18111 C 1744.1 5.1093 1.54228 0
M  V30 18112 O 1744.32 4.98325 2.77539 0
M  V30 18113 O 1743.25 5.92158 1.07852 0
M  V30 18114 H 1747.08 3.0002 -0.471375 0
M  V30 18115 H 1744.67 1.46427 -0.296579 0
M  V30 18116 H 1746.55 3.78498 1.8525 0
M  V30 18117 H 1745.22 2.5922 1.93872 0
M  V30 18118 H 1744.13 3.74026 -0.0742194 0
M  V30 18119 H 1745.46 4.92138 -0.0779649 0
M  V30 18120 N 1747.11 0.27113 1.5525 0
M  V30 18121 C 1748.02 -0.628245 2.26031 0
M  V30 18122 C 1749.04 -1.17339 1.28481 0
M  V30 18123 O 1750.22 -1.20453 1.61409 0
M  V30 18124 C 1747.28 -1.79766 2.96454 0
M  V30 18125 C 1746.34 -1.28958 4.09473 0
M  V30 18126 C 1745.58 -2.40326 4.76528 0
M  V30 18127 O 1745.8 -3.59595 4.42772 0
M  V30 18128 O 1744.73 -2.08708 5.64557 0
M  V30 18129 H 1748.56 -0.0549756 3.0365 0
M  V30 18130 H 1746.14 0.0386859 1.4935 0
M  V30 18131 H 1748.03 -2.4796 3.40725 0
M  V30 18132 H 1746.7 -2.35809 2.21756 0
M  V30 18133 H 1745.61 -0.57422 3.69667 0
M  V30 18134 H 1746.94 -0.774945 4.86061 0
M  V30 18135 N 1748.59 -1.576 -0.00164943 0
M  V30 18136 C 1749.52 -2.11354 -0.992554 0
M  V30 18137 C 1750.5 -1.0223 -1.35952 0
M  V30 18138 O 1751.69 -1.29904 -1.44356 0
M  V30 18139 C 1748.82 -2.61549 -2.28494 0
M  V30 18140 C 1747.77 -3.75185 -2.05962 0
M  V30 18141 C 1747.1 -4.11688 -3.412 0
M  V30 18142 C 1748.4 -5.02526 -1.42355 0
M  V30 18143 H 1750.09 -2.94398 -0.544986 0
M  V30 18144 H 1747.64 -1.4162 -0.260702 0
M  V30 18145 H 1749.59 -2.97782 -2.98168 0
M  V30 18146 H 1748.32 -1.75625 -2.75361 0
M  V30 18147 H 1746.97 -3.39343 -1.38714 0
M  V30 18148 H 1746.62 -3.22789 -3.85767 0
M  V30 18149 H 1746.32 -4.88246 -3.2694 0
M  V30 18150 H 1747.85 -4.50478 -4.12192 0
M  V30 18151 H 1749.26 -5.3654 -2.01984 0
M  V30 18152 H 1747.66 -5.83878 -1.38589 0
M  V30 18153 H 1748.73 -4.83308 -0.392565 0
M  V30 18154 N 1750.07 0.274379 -1.55193 0
M  V30 18155 C 1751.32 1.00394 -1.7494 0
M  V30 18156 C 1751.63 1.87499 -0.557084 0
M  V30 18157 O 1752.84 2.63923 -0.636936 0
M  V30 18158 C 1751.29 1.83489 -3.09612 0
M  V30 18159 C 1750.9 1.01257 -4.36407 0
M  V30 18160 C 1752.65 2.55883 -3.38709 0
M  V30 18161 C 1750.55 1.83782 -5.62119 0
M  V30 18162 H 1749.48 0.378561 -0.65208 0
M  V30 18163 H 1752.13 0.259678 -1.81653 0
M  V30 18164 H 1750.52 2.62005 -2.96933 0
M  V30 18165 H 1751.69 0.27167 -4.59998 0
M  V30 18166 H 1750.01 0.403235 -4.14443 0
M  V30 18167 H 1752.6 3.18028 -4.2984 0
M  V30 18168 H 1752.95 3.26096 -2.58779 0
M  V30 18169 H 1753.48 1.84398 -3.5248 0
M  V30 18170 H 1750.22 1.17992 -6.44793 0
M  V30 18171 H 1749.74 2.55473 -5.42673 0
M  V30 18172 H 1751.42 2.41181 -6.00367 0
M  V30 18173 N 1751.55 1.48103 0.538828 0
M  V30 18174 C 1752.48 1.58044 1.65996 0
M  V30 18175 C 1753.49 0.465316 1.56009 0
M  V30 18176 O 1754.68 0.735769 1.62631 0
M  V30 18177 C 1751.78 1.48587 3.0459 0
M  V30 18178 C 1750.96 2.74987 3.40148 0
M  V30 18179 C 1750.01 2.59109 4.57984 0
M  V30 18180 O 1749.04 3.32974 4.61646 0
M  V30 18181 N 1750.24 1.68143 5.55615 0
M  V30 18182 H 1753.01 2.54726 1.57908 0
M  V30 18183 H 1750.57 1.44715 0.725901 0
M  V30 18184 H 1752.56 1.35673 3.81281 0
M  V30 18185 H 1751.13 0.599157 3.06804 0
M  V30 18186 H 1750.35 3.02531 2.52723 0
M  V30 18187 H 1751.64 3.58862 3.60687 0
M  V30 18188 H 1751.04 1.07317 5.55427 0
M  V30 18189 H 1749.59 1.61171 6.31559 0
M  V30 18190 N 1753.03 -0.787016 1.36542 0
M  V30 18191 C 1754.3 -1.53325 1.21452 0
M  V30 18192 C 1754.68 -2.10166 -0.198313 0
M  V30 18193 O 1754.03 -1.94192 -1.20422 0
M  V30 18194 C 1754.24 -2.62629 2.29841 0
M  V30 18195 C 1755.59 -3.30446 2.66628 0
M  V30 18196 O 1756.61 -2.72914 2.28903 0
M  V30 18197 O 1755.47 -4.34424 3.31569 0
M  V30 18198 H 1752.57 -0.678361 0.473028 0
M  V30 18199 H 1755.11 -0.825292 1.4828 0
M  V30 18200 H 1753.88 -2.18639 3.24519 0
M  V30 18201 H 1753.51 -3.41042 2.04393 0
M  V30 18202 N 1754.5 -1.20861 -1.01145 0
M  V30 18203 C 1755.75 -1.01613 -1.74234 0
M  V30 18204 C 1756.07 0.451683 -1.90313 0
M  V30 18205 O 1757.27 0.763408 -2.60546 0
M  V30 18206 C 1755.73 -1.76942 -3.134 0
M  V30 18207 C 1755.34 -3.27851 -3.05316 0
M  V30 18208 C 1757.08 -1.6608 -3.90663 0
M  V30 18209 C 1754.99 -3.95696 -4.39521 0
M  V30 18210 H 1753.92 -0.376593 -0.653218 0
M  V30 18211 H 1756.57 -1.44533 -1.1306 0
M  V30 18212 H 1754.95 -1.26812 -3.75146 0
M  V30 18213 H 1756.12 -3.85234 -2.52846 0
M  V30 18214 H 1754.44 -3.39184 -2.41543 0
M  V30 18215 H 1757.04 -2.14105 -4.89963 0
M  V30 18216 H 1757.38 -0.617892 -4.11689 0
M  V30 18217 H 1757.91 -2.13652 -3.35556 0
M  V30 18218 H 1754.65 -5.00161 -4.23697 0
M  V30 18219 H 1754.17 -3.43102 -4.91977 0
M  V30 18220 H 1755.85 -4.00242 -5.08346 0
M  V30 18221 N 1755.98 1.20536 -1.01532 0
M  V30 18222 C 1757.21 1.94393 -0.722908 0
M  V30 18223 C 1757.63 1.74191 0.709857 0
M  V30 18224 O 1756.99 1.03538 1.48827 0
M  V30 18225 C 1757.04 3.44597 -1.06231 0
M  V30 18226 O 1756.14 4.12036 -0.173286 0
M  V30 18227 H 1755.48 0.607361 -0.268345 0
M  V30 18228 H 1758.01 1.53003 -1.35835 0
M  V30 18229 H 1758.02 3.95212 -1.01348 0
M  V30 18230 H 1756.7 3.58624 -2.10621 0
M  V30 18231 H 1755.28 3.71851 -0.27953 0
M  V30 18232 N 1757.46 0.791395 1.36289 0
M  V30 18233 C 1758.88 0.473308 1.5242 0
M  V30 18234 C 1759.08 -1.00805 1.74473 0
M  V30 18235 O 1758.13 -1.79349 1.77737 0
M  V30 18236 C 1759.45 1.30547 2.70884 0
M  V30 18237 C 1760.99 1.29936 2.84755 0
M  V30 18238 C 1761.47 2.1153 4.06225 0
M  V30 18239 N 1762.96 2.08987 4.13375 0
M  V30 18240 C 1763.69 2.68889 5.06445 0
M  V30 18241 N 1763.19 3.37657 6.04946 0
M  V30 18242 N 1764.98 2.58612 4.99075 0
M  V30 18243 H 1757.13 1.75096 1.20229 0
M  V30 18244 H 1759.4 0.74441 0.586991 0
M  V30 18245 H 1759.1 2.35607 2.61117 0
M  V30 18246 H 1758.98 0.948139 3.65089 0
M  V30 18247 H 1761.36 0.256671 2.93982 0
M  V30 18248 H 1761.45 1.69647 1.91451 0
M  V30 18249 H 1761.09 3.15832 3.9776 0
M  V30 18250 H 1761.02 1.69189 4.98681 0
M  V30 18251 H 1763.51 1.58938 3.42851 0
M  V30 18252 H 1763.82 3.8069 6.72529 0
M  V30 18253 H 1762.17 3.4176 6.05165 0
M  V30 18254 H 1765.36 2.04487 4.21073 0
M  V30 18255 H 1765.53 3.05587 5.7142 0
M  V30 18256 N 1758.94 -1.47929 0.54358 0
M  V30 18257 C 1759.87 -2.3264 -0.200228 0
M  V30 18258 C 1760.85 -1.42945 -0.922 0
M  V30 18259 O 1762.04 -1.71817 -0.905129 0
M  V30 18260 C 1759.17 -3.24439 -1.23922 0
M  V30 18261 C 1758.12 -4.23267 -0.634753 0
M  V30 18262 C 1757.45 -5.04295 -1.77739 0
M  V30 18263 C 1758.75 -5.20747 0.402524 0
M  V30 18264 H 1760.44 -2.95077 0.506957 0
M  V30 18265 H 1757.99 -1.41896 0.245246 0
M  V30 18266 H 1759.94 -3.82535 -1.76763 0
M  V30 18267 H 1758.66 -2.60029 -1.97616 0
M  V30 18268 H 1757.32 -3.66377 -0.127756 0
M  V30 18269 H 1756.97 -4.36299 -2.50304 0
M  V30 18270 H 1756.67 -5.71195 -1.37879 0
M  V30 18271 H 1758.19 -5.65246 -2.30932 0
M  V30 18272 H 1759.61 -5.73287 -0.039305 0
M  V30 18273 H 1758 -5.95774 0.719251 0
M  V30 18274 H 1759.07 -4.67054 1.3034 0
M  V30 18275 N 1760.42 -0.27936 -1.55104 0
M  V30 18276 C 1761.35 0.639572 -2.20096 0
M  V30 18277 C 1762.36 1.11423 -1.18696 0
M  V30 18278 O 1763.55 1.0354 -1.45402 0
M  V30 18279 C 1760.65 1.88494 -2.81644 0
M  V30 18280 C 1759.82 1.55639 -4.08773 0
M  V30 18281 C 1758.88 2.65466 -4.54328 0
M  V30 18282 O 1757.91 2.31473 -5.20008 0
M  V30 18283 N 1759.11 3.95606 -4.24825 0
M  V30 18284 H 1761.88 0.0833048 -2.99584 0
M  V30 18285 H 1759.44 -0.100637 -1.61587 0
M  V30 18286 H 1761.43 2.61272 -3.09062 0
M  V30 18287 H 1760 2.35015 -2.06123 0
M  V30 18288 H 1759.22 0.662253 -3.88597 0
M  V30 18289 H 1760.51 1.31196 -4.91594 0
M  V30 18290 H 1759.91 4.26043 -3.72161 0
M  V30 18291 H 1758.46 4.64748 -4.57004 0
M  V30 18292 N 1761.9 1.57599 -0.0067085 0
M  V30 18293 C 1763.31 1.55727 0.349452 0
M  V30 18294 C 1763.51 1.01004 1.74357 0
M  V30 18295 O 1762.57 0.646817 2.44075 0
M  V30 18296 C 1763.88 2.99905 0.218546 0
M  V30 18297 C 1765.43 3.11626 0.292987 0
M  V30 18298 C 1765.9 4.57601 0.191129 0
M  V30 18299 N 1767.39 4.62531 0.248819 0
M  V30 18300 C 1768.13 5.73074 0.193448 0
M  V30 18301 N 1767.63 6.92744 0.0882834 0
M  V30 18302 N 1769.42 5.61562 0.245803 0
M  V30 18303 H 1761.57 1.91508 -0.918617 0
M  V30 18304 H 1763.83 0.879931 -0.352739 0
M  V30 18305 H 1763.54 3.43807 -0.740914 0
M  V30 18306 H 1763.41 3.63761 0.997905 0
M  V30 18307 H 1765.8 2.67649 1.2429 0
M  V30 18308 H 1765.88 2.50534 -0.516358 0
M  V30 18309 H 1765.52 5.02253 -0.755263 0
M  V30 18310 H 1765.45 5.16646 1.01905 0
M  V30 18311 H 1767.95 3.76446 0.331157 0
M  V30 18312 H 1768.26 7.72782 0.052112 0
M  V30 18313 H 1766.6 6.94979 0.0538156 0
M  V30 18314 H 1769.79 4.66962 0.326204 0
M  V30 18315 H 1769.97 6.47694 0.199185 0
M  V30 18316 N 1763.37 -0.266145 1.55336 0
M  V30 18317 C 1764.79 -0.613693 1.47329 0
M  V30 18318 C 1764.99 -1.89207 0.693038 0
M  V30 18319 O 1764.05 -2.51586 0.214642 0
M  V30 18320 C 1765.36 -0.734287 2.91597 0
M  V30 18321 C 1766.91 -0.82789 3.01853 0
M  V30 18322 C 1767.38 -0.980205 4.47388 0
M  V30 18323 N 1768.87 -1.04556 4.51245 0
M  V30 18324 C 1769.61 -1.18233 5.61078 0
M  V30 18325 N 1769.1 -1.28587 6.80762 0
M  V30 18326 N 1770.9 -1.21398 5.48834 0
M  V30 18327 H 1763.05 0.573316 2.04516 0
M  V30 18328 H 1765.31 0.195128 0.927701 0
M  V30 18329 H 1765.02 0.134714 3.51442 0
M  V30 18330 H 1764.89 -1.6124 3.41001 0
M  V30 18331 H 1767.28 -1.68735 2.421 0
M  V30 18332 H 1767.36 0.0749719 2.5569 0
M  V30 18333 H 1767 -0.125373 5.07745 0
M  V30 18334 H 1766.93 -1.89782 4.91213 0
M  V30 18335 H 1769.42 -0.977667 3.65034 0
M  V30 18336 H 1769.74 -1.38876 7.60219 0
M  V30 18337 H 1768.08 -1.25579 6.8356 0
M  V30 18338 H 1771.27 -1.12944 4.5427 0
M  V30 18339 H 1771.45 -1.31713 6.34473 0
M  V30 18340 N 1764.85 -1.48386 -0.530967 0
M  V30 18341 C 1766.08 -1.60269 -1.31638 0
M  V30 18342 C 1766.5 -0.262789 -1.86255 0
M  V30 18343 O 1765.86 0.765389 -1.64352 0
M  V30 18344 C 1765.91 -2.65163 -2.44379 0
M  V30 18345 O 1765.01 -2.22254 -3.47386 0
M  V30 18346 H 1764.35 -0.537456 -0.38992 0
M  V30 18347 H 1766.88 -1.94366 -0.639 0
M  V30 18348 H 1766.89 -2.86405 -2.90579 0
M  V30 18349 H 1765.57 -3.62439 -2.03987 0
M  V30 18350 H 1764.14 -2.11221 -3.07311 0
M  V30 18351 N 1766.33 0.779763 -1.36958 0
M  V30 18352 C 1767.26 1.90687 -1.34762 0
M  V30 18353 C 1768.24 1.68704 -0.217508 0
M  V30 18354 O 1769.43 1.89678 -0.416639 0
M  V30 18355 C 1766.56 3.27854 -1.14582 0
M  V30 18356 C 1765.51 3.64383 -2.2452 0
M  V30 18357 C 1764.84 5.00004 -1.89473 0
M  V30 18358 C 1766.14 3.71963 -3.66662 0
M  V30 18359 H 1767.83 1.92781 -2.29076 0
M  V30 18360 H 1765.38 0.926102 -1.10269 0
M  V30 18361 H 1767.33 4.06332 -1.11678 0
M  V30 18362 H 1766.05 3.26172 -0.167218 0
M  V30 18363 H 1764.71 2.88207 -2.26566 0
M  V30 18364 H 1764.36 4.94853 -0.901617 0
M  V30 18365 H 1764.06 5.25414 -2.63085 0
M  V30 18366 H 1765.58 5.80892 -1.88141 0
M  V30 18367 H 1767 4.40611 -3.6679 0
M  V30 18368 H 1765.39 4.08864 -4.39261 0
M  V30 18369 H 1766.46 2.72824 -4.00868 0
M  V30 18370 N 1767.81 1.21396 1.00503 0
M  V30 18371 C 1769.22 0.971304 1.26641 0
M  V30 18372 C 1769.42 -0.342336 1.98571 0
M  V30 18373 O 1768.48 -1.068 2.28801 0
M  V30 18374 C 1769.79 2.16186 2.09008 0
M  V30 18375 C 1771.34 2.20411 2.22234 0
M  V30 18376 C 1771.82 3.38984 3.07983 0
M  V30 18377 N 1773.31 3.3907 3.15572 0
M  V30 18378 C 1774.04 4.27467 3.82177 0
M  V30 18379 N 1773.54 5.26062 4.50811 0
M  V30 18380 N 1775.33 4.15276 3.78817 0
M  V30 18381 H 1767.48 2.05875 0.522436 0
M  V30 18382 H 1769.74 0.901496 0.293272 0
M  V30 18383 H 1769.45 3.11383 1.63504 0
M  V30 18384 H 1769.32 2.15243 3.09758 0
M  V30 18385 H 1771.71 1.25769 2.66957 0
M  V30 18386 H 1771.79 2.25397 1.20954 0
M  V30 18387 H 1771.44 4.33919 2.63964 0
M  V30 18388 H 1771.37 3.31236 4.09378 0
M  V30 18389 H 1773.86 2.67718 2.66713 0
M  V30 18390 H 1774.17 5.89815 4.99338 0
M  V30 18391 H 1772.52 5.29987 4.49599 0
M  V30 18392 H 1775.71 3.37511 3.24351 0
M  V30 18393 H 1775.88 4.84375 4.30448 0
M  V30 18394 N 1769.29 -1.19996 1.0217 0
M  V30 18395 C 1770.24 -2.20837 0.567029 0
M  V30 18396 C 1771.22 -1.56339 -0.380377 0
M  V30 18397 O 1772.41 -1.75838 -0.202513 0
M  V30 18398 C 1769.54 -3.43187 -0.0880995 0
M  V30 18399 C 1768.63 -4.14842 0.881318 0
M  V30 18400 N 1769.02 -4.62798 2.04088 0
M  V30 18401 C 1767.32 -4.40421 0.703226 0
M  V30 18402 C 1768.02 -5.17744 2.65172 0
M  V30 18403 N 1766.99 -5.08112 1.93192 0
M  V30 18404 H 1770.79 -2.55586 1.45097 0
M  V30 18405 H 1768.31 -1.3599 0.887727 0
M  V30 18406 H 1770.31 -4.14662 -0.431407 0
M  V30 18407 H 1768.97 -3.09941 -0.967819 0
M  V30 18408 H 1769.98 -4.57851 2.42061 0
M  V30 18409 H 1766.65 -4.17304 -0.128008 0
M  V30 18410 H 1768.04 -5.65189 3.63333 0
M  V30 18411 N 1770.76 -0.798611 -1.35867 0
M  V30 18412 C 1771.99 -0.386378 -2.03769 0
M  V30 18413 C 1772.41 0.992154 -1.59806 0
M  V30 18414 O 1771.77 1.64094 -0.770895 0
M  V30 18415 C 1771.82 -0.468859 -3.57539 0
M  V30 18416 O 1770.92 0.520742 -4.09099 0
M  V30 18417 H 1770.26 -0.162597 -0.643784 0
M  V30 18418 H 1772.79 -1.08228 -1.73631 0
M  V30 18419 H 1772.8 -0.335775 -4.06616 0
M  V30 18420 H 1771.48 -1.47441 -3.88888 0
M  V30 18421 H 1770.06 0.348559 -3.71267 0
M  V30 18422 N 1772.24 1.47639 -0.551417 0
M  V30 18423 C 1773.66 1.58202 -0.210768 0
M  V30 18424 C 1773.86 1.55078 1.28659 0
M  V30 18425 O 1772.91 1.45113 2.06636 0
M  V30 18426 C 1774.23 2.88952 -0.832294 0
M  V30 18427 C 1775.77 3.02524 -0.80299 0
M  V30 18428 C 1776.25 4.35966 -1.40348 0
M  V30 18429 N 1777.74 4.42587 -1.3664 0
M  V30 18430 C 1778.48 5.44391 -1.80072 0
M  V30 18431 N 1777.97 6.53037 -2.31332 0
M  V30 18432 N 1779.76 5.35401 -1.71178 0
M  V30 18433 H 1771.92 1.47912 -1.52433 0
M  V30 18434 H 1774.18 0.703607 -0.635328 0
M  V30 18435 H 1773.88 2.96958 -1.88439 0
M  V30 18436 H 1773.76 3.75824 -0.321915 0
M  V30 18437 H 1776.15 2.94119 0.240395 0
M  V30 18438 H 1776.23 2.17209 -1.35107 0
M  V30 18439 H 1775.87 4.45127 -2.4459 0
M  V30 18440 H 1775.8 5.20004 -0.830897 0
M  V30 18441 H 1778.29 3.64664 -0.991386 0
M  V30 18442 H 1778.6 7.26884 -2.62411 0
M  V30 18443 H 1776.95 6.53942 -2.35339 0
M  V30 18444 H 1780.14 4.49421 -1.30912 0
M  V30 18445 H 1780.31 6.14604 -2.05344 0
M  V30 18446 N 1773.72 0.287581 1.54954 0
M  V30 18447 C 1774.65 -0.62789 2.20432 0
M  V30 18448 C 1775.67 -1.10792 1.19286 0
M  V30 18449 O 1776.85 -1.02768 1.45949 0
M  V30 18450 C 1773.95 -1.86998 2.82639 0
M  V30 18451 C 1773.13 -1.53469 4.09592 0
M  V30 18452 C 1772.19 -2.63053 4.5573 0
M  V30 18453 O 1771.21 -2.28712 5.21229 0
M  V30 18454 N 1772.41 -3.93348 4.26917 0
M  V30 18455 H 1775.18 -0.067416 2.99624 0
M  V30 18456 H 1772.74 0.109205 1.61531 0
M  V30 18457 H 1774.73 -2.59629 3.10443 0
M  V30 18458 H 1773.3 -2.33919 2.07366 0
M  V30 18459 H 1772.52 -0.641635 3.88943 0
M  V30 18460 H 1773.81 -1.28587 4.92283 0
M  V30 18461 H 1773.21 -4.24063 3.74415 0
M  V30 18462 H 1771.77 -4.62318 4.59462 0
M  V30 18463 N 1775.2 -1.57593 0.0150662 0
M  V30 18464 C 1776.13 -2.12395 -0.970081 0
M  V30 18465 C 1777.11 -1.03666 -1.34861 0
M  V30 18466 O 1778.29 -1.31427 -1.4297 0
M  V30 18467 C 1775.42 -2.63958 -2.25707 0
M  V30 18468 C 1774.38 -3.77348 -2.01971 0
M  V30 18469 C 1773.7 -4.15284 -3.36814 0
M  V30 18470 C 1775 -5.04008 -1.37017 0
M  V30 18471 H 1776.7 -2.9496 -0.513731 0
M  V30 18472 H 1774.24 -1.41889 -0.245666 0
M  V30 18473 H 1776.2 -3.00927 -2.94993 0
M  V30 18474 H 1774.92 -1.78535 -2.73483 0
M  V30 18475 H 1773.58 -3.40795 -1.35107 0
M  V30 18476 H 1773.23 -3.26863 -3.82321 0
M  V30 18477 H 1772.93 -4.91686 -3.21744 0
M  V30 18478 H 1774.45 -4.54824 -4.07391 0
M  V30 18479 H 1775.87 -5.38652 -1.96282 0
M  V30 18480 H 1774.26 -5.85315 -1.32388 0
M  V30 18481 H 1775.33 -4.83698 -0.341281 0
M  V30 18482 N 1776.68 0.257904 -1.55475 0
M  V30 18483 C 1777.59 1.34084 -1.92506 0
M  V30 18484 C 1778.6 1.53246 -0.824123 0
M  V30 18485 O 1779.78 1.67081 -1.12455 0
M  V30 18486 C 1776.84 2.67741 -2.20263 0
M  V30 18487 C 1775.9 2.57196 -3.43728 0
M  V30 18488 C 1775.14 3.84479 -3.7015 0
M  V30 18489 O 1775.36 4.85858 -2.98827 0
M  V30 18490 O 1774.29 3.83774 -4.63682 0
M  V30 18491 H 1778.12 1.05672 -2.84723 0
M  V30 18492 H 1775.71 0.457726 -1.42215 0
M  V30 18493 H 1777.59 3.46743 -2.39473 0
M  V30 18494 H 1776.26 2.95907 -1.31227 0
M  V30 18495 H 1775.17 1.76518 -3.29837 0
M  V30 18496 H 1776.5 2.33977 -4.33031 0
M  V30 18497 N 1778.15 1.48666 0.52309 0
M  V30 18498 C 1779.4 1.57267 1.28043 0
M  V30 18499 C 1779.73 0.248801 1.926 0
M  V30 18500 O 1779.01 -0.745814 1.79633 0
M  V30 18501 C 1779.29 2.71595 2.36449 0
M  V30 18502 C 1779.14 4.13708 1.76538 0
M  V30 18503 C 1780.46 2.81654 3.3817 0
M  V30 18504 H 1777.58 0.572455 0.464181 0
M  V30 18505 H 1780.22 1.80866 0.582013 0
M  V30 18506 H 1778.37 2.51604 2.9602 0
M  V30 18507 H 1780.05 4.45158 1.20964 0
M  V30 18508 H 1778.29 4.20386 1.07041 0
M  V30 18509 H 1778.96 4.89538 2.55062 0
M  V30 18510 H 1781.44 2.99784 2.88563 0
M  V30 18511 H 1780.31 3.63366 4.11408 0
M  V30 18512 H 1780.57 1.90093 3.99145 0
M  V30 18513 N 1779.63 -0.772489 1.37369 0
M  V30 18514 C 1781.04 -1.34873 1.29098 0
M  V30 18515 C 1781.39 -1.96103 -0.0617433 0
M  V30 18516 O 1780.52 -1.93764 -0.963562 0
M  V30 18517 C 1781.11 -2.45218 2.33781 0
M  V30 18518 C 1779.67 -2.98612 2.29146 0
M  V30 18519 C 1778.82 -1.71823 2.17651 0
M  V30 18520 H 1781.77 -0.572805 1.48002 0
M  V30 18521 H 1781.79 -3.24679 1.98404 0
M  V30 18522 H 1781.3 -2.00624 3.32222 0
M  V30 18523 H 1779.41 -3.47583 1.34225 0
M  V30 18524 H 1779.52 -3.54276 3.22529 0
M  V30 18525 H 1777.88 -1.94719 1.64185 0
M  V30 18526 H 1778.67 -1.29334 3.18006 0
M  V30 18527 N 1781.11 -1.21927 -0.998575 0
M  V30 18528 C 1782.53 -0.978007 -1.26124 0
M  V30 18529 C 1782.73 0.3318 -1.98749 0
M  V30 18530 O 1781.78 1.05585 -2.29364 0
M  V30 18531 C 1783.1 -2.17291 -2.07858 0
M  V30 18532 C 1784.64 -2.21586 -2.21062 0
M  V30 18533 C 1785.12 -3.40613 -3.06181 0
M  V30 18534 N 1786.61 -3.40739 -3.13769 0
M  V30 18535 C 1787.34 -4.29488 -3.79905 0
M  V30 18536 N 1786.84 -5.28445 -4.48015 0
M  V30 18537 N 1788.63 -4.17279 -3.76609 0
M  V30 18538 H 1780.78 -2.06149 -0.51151 0
M  V30 18539 H 1783.05 -0.903039 -0.288487 0
M  V30 18540 H 1782.75 -3.12246 -1.61851 0
M  V30 18541 H 1782.63 -2.16883 -3.08612 0
M  V30 18542 H 1785.01 -1.27183 -2.66286 0
M  V30 18543 H 1785.1 -2.26035 -1.19757 0
M  V30 18544 H 1784.74 -4.35313 -2.61659 0
M  V30 18545 H 1784.67 -3.33403 -4.07615 0
M  V30 18546 H 1787.16 -2.69128 -2.65289 0
M  V30 18547 H 1787.47 -5.92454 -4.96203 0
M  V30 18548 H 1785.82 -5.32364 -4.46782 0
M  V30 18549 H 1789.01 -3.39226 -3.22557 0
M  V30 18550 H 1789.18 -4.86651 -4.27873 0
M  V30 18551 N 1782.59 1.19452 -1.02805 0
M  V30 18552 C 1784 1.70804 -0.753845 0
M  V30 18553 C 1784.35 1.8225 0.726584 0
M  V30 18554 O 1783.48 1.49307 1.56641 0
M  V30 18555 C 1784.07 3.10227 -1.36178 0
M  V30 18556 C 1782.63 3.58842 -1.13618 0
M  V30 18557 C 1781.78 2.3573 -1.46036 0
M  V30 18558 H 1784.73 1.04305 -1.19608 0
M  V30 18559 H 1784.75 3.72867 -0.758315 0
M  V30 18560 H 1784.26 3.01864 -2.43925 0
M  V30 18561 H 1782.36 3.72521 -0.0768914 0
M  V30 18562 H 1782.47 4.43008 -1.82431 0
M  V30 18563 H 1780.84 2.39027 -0.879669 0
M  V30 18564 H 1781.62 2.29998 -2.54864 0
M  V30 18565 N 1784.07 0.805805 1.35442 0
M  V30 18566 C 1785.3 0.397675 2.02737 0
M  V30 18567 C 1785.7 -0.99586 1.6087 0
M  V30 18568 O 1785.05 -1.65293 0.801496 0
M  V30 18569 C 1785.11 0.400706 3.5726 0
M  V30 18570 C 1784.77 1.74462 4.22388 0
M  V30 18571 C 1785.77 2.70278 4.44123 0
M  V30 18572 C 1783.46 2.02841 4.59522 0
M  V30 18573 C 1785.45 3.92658 5.02094 0
M  V30 18574 C 1783.14 3.25485 5.17207 0
M  V30 18575 C 1784.13 4.20211 5.38435 0
M  V30 18576 O 1783.82 5.4069 5.94903 0
M  V30 18577 H 1783.55 0.159829 0.656834 0
M  V30 18578 H 1786.11 1.09052 1.7406 0
M  V30 18579 H 1784.34 -0.348738 3.85124 0
M  V30 18580 H 1786.03 0.0149949 4.05897 0
M  V30 18581 H 1786.79 2.49645 4.15815 0
M  V30 18582 H 1782.67 1.29921 4.42314 0
M  V30 18583 H 1786.22 4.66607 5.18578 0
M  V30 18584 H 1782.11 3.45989 5.44942 0
M  V30 18585 H 1782.88 5.41976 6.13355 0
M  V30 18586 N 1785.54 -1.47344 0.559239 0
M  V30 18587 C 1786.79 -2.01672 0.0337843 0
M  V30 18588 C 1787.11 -1.43883 -1.32503 0
M  V30 18589 O 1788.31 -1.89885 -1.94051 0
M  V30 18590 C 1786.77 -3.59899 0.00989925 0
M  V30 18591 C 1786.38 -4.2668 1.3656 0
M  V30 18592 C 1788.12 -4.21969 -0.462842 0
M  V30 18593 C 1786.03 -5.76919 1.30071 0
M  V30 18594 H 1784.96 -0.753948 0.00885972 0
M  V30 18595 H 1787.61 -1.69317 0.707394 0
M  V30 18596 H 1785.99 -3.89225 -0.729399 0
M  V30 18597 H 1787.16 -4.08993 2.12277 0
M  V30 18598 H 1785.48 -3.76605 1.77644 0
M  V30 18599 H 1788.08 -5.32069 -0.529816 0
M  V30 18600 H 1788.42 -3.89283 -1.47528 0
M  V30 18601 H 1788.95 -3.97182 0.221661 0
M  V30 18602 H 1785.69 -6.14227 2.28921 0
M  V30 18603 H 1785.21 -5.96937 0.585375 0
M  V30 18604 H 1786.89 -6.39168 1.00364 0
M  V30 18605 N 1787.02 -0.295795 -1.54799 0
M  V30 18606 C 1787.99 0.569699 -2.22007 0
M  V30 18607 C 1788.99 1.06535 -1.20445 0
M  V30 18608 O 1790.18 0.962212 -1.45214 0
M  V30 18609 C 1787.31 1.78821 -2.90234 0
M  V30 18610 H 1788.5 -0.0174148 -2.99895 0
M  V30 18611 H 1786.05 -0.0465813 -1.56231 0
M  V30 18612 H 1786.79 2.4153 -2.16412 0
M  V30 18613 H 1786.57 1.44051 -3.6468 0
M  V30 18614 H 1788.06 2.40321 -3.41519 0
M  V30 18615 N 1788.5 1.57583 -0.0234236 0
M  V30 18616 C 1789.46 2.08797 0.945325 0
M  V30 18617 C 1790.46 1.00189 1.25773 0
M  V30 18618 O 1791.65 1.2637 1.19901 0
M  V30 18619 C 1788.79 2.54906 2.26353 0
M  V30 18620 H 1789.98 2.95671 0.50187 0
M  V30 18621 H 1787.53 1.54679 0.224507 0
M  V30 18622 H 1788.27 1.71345 2.75339 0
M  V30 18623 H 1788.05 3.34247 2.04991 0
M  V30 18624 H 1789.54 2.94774 2.95801 0
M  V30 18625 N 1789.98 -0.249655 1.5561 0
M  V30 18626 C 1791.4 -0.598032 1.47972 0
M  V30 18627 C 1791.6 -1.88461 0.713067 0
M  V30 18628 O 1790.65 -2.51344 0.241314 0
M  V30 18629 C 1791.96 -0.703318 2.92359 0
M  V30 18630 C 1793.51 -0.795828 3.02714 0
M  V30 18631 C 1793.99 -0.932698 4.48402 0
M  V30 18632 N 1795.48 -0.997638 4.52329 0
M  V30 18633 C 1796.21 -1.12276 5.623 0
M  V30 18634 N 1795.71 -1.21359 6.82088 0
M  V30 18635 N 1797.5 -1.1557 5.50091 0
M  V30 18636 H 1789.65 0.594976 2.03897 0
M  V30 18637 H 1791.92 0.204956 0.925579 0
M  V30 18638 H 1791.62 0.171981 3.51279 0
M  V30 18639 H 1791.5 -1.57614 3.42692 0
M  V30 18640 H 1793.88 -1.66158 2.43876 0
M  V30 18641 H 1793.96 0.102087 2.55596 0
M  V30 18642 H 1793.61 -0.0715123 5.0785 0
M  V30 18643 H 1793.54 -1.84561 4.93198 0
M  V30 18644 H 1796.03 -0.938895 3.66051 0
M  V30 18645 H 1796.34 -1.30805 7.61649 0
M  V30 18646 H 1794.69 -1.18322 6.84854 0
M  V30 18647 H 1797.88 -1.0812 4.55442 0
M  V30 18648 H 1798.05 -1.24976 6.35834 0
M  V30 18649 N 1791.46 -1.48941 -0.515198 0
M  V30 18650 C 1792.7 -1.5771 -1.27019 0
M  V30 18651 C 1793.03 -0.257484 -1.92788 0
M  V30 18652 O 1792.29 0.753481 -1.80613 0
M  V30 18653 C 1792.59 -2.67508 -2.37011 0
M  V30 18654 C 1792.25 -4.09471 -1.88796 0
M  V30 18655 C 1790.91 -4.48108 -1.75365 0
M  V30 18656 C 1793.27 -4.98378 -1.52543 0
M  V30 18657 C 1790.59 -5.73438 -1.24038 0
M  V30 18658 C 1792.95 -6.24212 -1.02673 0
M  V30 18659 C 1791.61 -6.61691 -0.878703 0
M  V30 18660 H 1790.88 -0.577101 -0.464796 0
M  V30 18661 H 1793.53 -1.82718 -0.573279 0
M  V30 18662 H 1791.83 -2.36417 -3.12433 0
M  V30 18663 H 1793.53 -2.71505 -2.95104 0
M  V30 18664 H 1790.12 -3.78967 -2.00205 0
M  V30 18665 H 1794.3 -4.69194 -1.61773 0
M  V30 18666 H 1789.56 -6.01188 -1.11277 0
M  V30 18667 H 1793.73 -6.9249 -0.73697 0
M  V30 18668 H 1791.36 -7.58691 -0.478792 0
M  V30 18669 N 1792.94 0.765193 -1.37777 0
M  V30 18670 C 1794.16 1.55948 -1.3673 0
M  V30 18671 C 1794.59 1.8805 0.0435817 0
M  V30 18672 O 1793.94 1.49718 1.02246 0
M  V30 18673 C 1793.99 2.84245 -2.21895 0
M  V30 18674 O 1793.1 3.78903 -1.62807 0
M  V30 18675 H 1792.44 0.472127 -0.466897 0
M  V30 18676 H 1794.97 0.946556 -1.81388 0
M  V30 18677 H 1794.98 3.33284 -2.35342 0
M  V30 18678 H 1793.65 2.60209 -3.24444 0
M  V30 18679 H 1792.23 3.37568 -1.58437 0
M  V30 18680 N 1794.41 1.22455 0.992094 0
M  V30 18681 C 1795.66 1.05115 1.73432 0
M  V30 18682 C 1795.99 -0.412642 1.89765 0
M  V30 18683 O 1795.27 -1.3059 1.44141 0
M  V30 18684 C 1795.55 1.76385 3.13943 0
M  V30 18685 C 1795.4 3.30364 3.05253 0
M  V30 18686 C 1796.72 1.51688 4.13133 0
M  V30 18687 H 1793.84 0.383261 0.629508 0
M  V30 18688 H 1796.48 1.50805 1.15576 0
M  V30 18689 H 1794.63 1.37544 3.63337 0
M  V30 18690 H 1796.31 3.78655 2.63474 0
M  V30 18691 H 1794.55 3.6 2.42038 0
M  V30 18692 H 1795.22 3.75409 4.04687 0
M  V30 18693 H 1797.7 1.85429 3.72499 0
M  V30 18694 H 1796.57 2.04049 5.09564 0
M  V30 18695 H 1796.83 0.449654 4.39807 0
M  V30 18696 N 1795.89 -1.18905 1.03437 0
M  V30 18697 C 1796.82 -2.24539 0.640669 0
M  V30 18698 C 1797.8 -1.66396 -0.353024 0
M  V30 18699 O 1798.99 -1.92779 -0.234522 0
M  V30 18700 C 1796.12 -3.473 -0.00367731 0
M  V30 18701 C 1795.07 -4.18151 0.912881 0
M  V30 18702 C 1794.4 -5.34534 0.133347 0
M  V30 18703 C 1795.7 -4.72342 2.22913 0
M  V30 18704 H 1797.39 -2.57726 1.52374 0
M  V30 18705 H 1794.94 -1.23883 0.734098 0
M  V30 18706 H 1796.89 -4.20396 -0.290783 0
M  V30 18707 H 1795.61 -3.13328 -0.921578 0
M  V30 18708 H 1794.27 -3.46945 1.18427 0
M  V30 18709 H 1793.92 -4.96809 -0.786762 0
M  V30 18710 H 1793.62 -5.82872 0.743905 0
M  V30 18711 H 1795.15 -6.10423 -0.146889 0
M  V30 18712 H 1796.56 -5.37165 2.00317 0
M  V30 18713 H 1794.96 -5.31189 2.79209 0
M  V30 18714 H 1796.03 -3.90108 2.87999 0
M  V30 18715 N 1797.37 -0.812977 -1.35013 0
M  V30 18716 C 1798.78 -0.45647 -1.81034 0
M  V30 18717 C 1799.13 1.02217 -1.6747 0
M  V30 18718 O 1798.26 1.79478 -1.20898 0
M  V30 18719 C 1798.85 -0.821773 -3.28683 0
M  V30 18720 C 1797.41 -0.517776 -3.72822 0
M  V30 18721 C 1796.56 -1.04399 -2.56897 0
M  V30 18722 H 1799.51 -1.00405 -1.22901 0
M  V30 18723 H 1799.53 -0.12173 -3.80305 0
M  V30 18724 H 1799.04 -1.89799 -3.38523 0
M  V30 18725 H 1797.14 0.549446 -3.68527 0
M  V30 18726 H 1797.26 -1.05488 -4.67343 0
M  V30 18727 H 1795.62 -0.466002 -2.50401 0
M  V30 18728 H 1796.4 -2.12645 -2.69512 0
M  V30 18729 N 1798.85 1.47045 -0.567045 0
M  V30 18730 C 1800.26 1.86202 -0.13627 0
M  V30 18731 C 1800.61 1.47252 1.29658 0
M  V30 18732 O 1799.73 0.880121 1.97694 0
M  V30 18733 C 1800.33 3.37945 -0.240528 0
M  V30 18734 C 1798.89 3.76157 0.135272 0
M  V30 18735 C 1798.04 2.71089 -0.583628 0
M  V30 18736 H 1800.99 1.38423 -0.776196 0
M  V30 18737 H 1801.01 3.76673 0.538293 0
M  V30 18738 H 1800.52 3.66263 -1.28348 0
M  V30 18739 H 1798.62 3.53456 1.17896 0
M  V30 18740 H 1798.73 4.78547 -0.230137 0
M  V30 18741 H 1797.1 2.54687 -0.0256067 0
M  V30 18742 H 1797.88 3.02247 -1.62792 0
M  V30 18743 N 1800.33 0.304 1.5464 0
M  V30 18744 C 1801.55 -0.306916 2.04611 0
M  V30 18745 C 1801.97 -1.4729 1.18114 0
M  V30 18746 O 1801.33 -1.81317 0.20743 0
M  V30 18747 C 1801.38 -0.760263 3.53415 0
M  V30 18748 O 1801.1 0.359321 4.36624 0
M  V30 18749 C 1802.6 -1.43602 4.19396 0
M  V30 18750 H 1799.82 -0.066247 0.667722 0
M  V30 18751 H 1802.36 0.444504 1.99611 0
M  V30 18752 H 1800.52 -1.4617 3.58766 0
M  V30 18753 H 1800.93 0.00582275 5.245 0
M  V30 18754 H 1802.41 -1.70436 5.25029 0
M  V30 18755 H 1802.88 -2.37705 3.69314 0
M  V30 18756 H 1803.49 -0.777683 4.18129 0
M  V30 18757 N 1801.8 -1.57568 0.0317802 0
M  V30 18758 C 1803.05 -1.9191 -0.646281 0
M  V30 18759 C 1803.38 -0.908432 -1.71982 0
M  V30 18760 O 1802.63 0.0822426 -1.95527 0
M  V30 18761 C 1802.93 -3.32976 -1.29852 0
M  V30 18762 C 1802.6 -4.495 -0.355092 0
M  V30 18763 C 1801.26 -4.81105 -0.0954326 0
M  V30 18764 C 1803.61 -5.20378 0.292586 0
M  V30 18765 C 1800.94 -5.80946 0.819667 0
M  V30 18766 C 1803.29 -6.21196 1.19576 0
M  V30 18767 C 1801.96 -6.51241 1.46428 0
M  V30 18768 H 1801.23 -0.702249 -0.236491 0
M  V30 18769 H 1803.87 -1.91269 0.0941159 0
M  V30 18770 H 1802.18 -3.29892 -2.11373 0
M  V30 18771 H 1803.88 -3.5682 -1.82977 0
M  V30 18772 H 1800.47 -4.24824 -0.567652 0
M  V30 18773 H 1804.65 -4.96189 0.105041 0
M  V30 18774 H 1799.91 -6.02569 1.03538 0
M  V30 18775 H 1804.08 -6.75236 1.7038 0
M  V30 18776 H 1801.71 -7.28421 2.17502 0
M  V30 18777 N 1803.28 0.241399 -1.5574 0
M  V30 18778 C 1804.23 1.30198 -1.8717 0
M  V30 18779 C 1805.22 1.43233 -0.733022 0
M  V30 18780 O 1806.41 1.46382 -0.995058 0
M  V30 18781 C 1803.54 2.65637 -2.17467 0
M  V30 18782 C 1802.62 2.56584 -3.37676 0
M  V30 18783 N 1803.01 2.17167 -4.56806 0
M  V30 18784 C 1801.31 2.87586 -3.40896 0
M  V30 18785 C 1802.01 2.18882 -5.38949 0
M  V30 18786 N 1800.99 2.58599 -4.7815 0
M  V30 18787 H 1804.79 0.98781 -2.76802 0
M  V30 18788 H 1802.31 0.450014 -1.5604 0
M  V30 18789 H 1804.3 3.42184 -2.38151 0
M  V30 18790 H 1802.96 2.97916 -1.29136 0
M  V30 18791 H 1803.97 1.88621 -4.8233 0
M  V30 18792 H 1800.65 3.24369 -2.62852 0
M  V30 18793 H 1802.04 1.907 -6.4427 0
M  V30 18794 N 1804.76 1.49212 0.507292 0
M  V30 18795 C 1806.17 1.51655 1.08892 0
M  V30 18796 C 1806.52 0.299163 1.93906 0
M  V30 18797 O 1805.65 -0.591635 2.08155 0
M  V30 18798 C 1806.24 2.7481 1.98154 0
M  V30 18799 C 1804.8 2.80051 2.51492 0
M  V30 18800 C 1803.95 2.45486 1.28966 0
M  V30 18801 H 1806.9 1.56 0.291488 0
M  V30 18802 H 1806.92 2.54615 2.82757 0
M  V30 18803 H 1806.43 3.63396 1.36253 0
M  V30 18804 H 1804.53 1.95729 3.1705 0
M  V30 18805 H 1804.65 3.82064 2.89075 0
M  V30 18806 H 1803.01 1.97128 1.61284 0
M  V30 18807 H 1803.79 3.36339 0.687821 0
M  V30 18808 N 1806.24 -0.757876 1.38181 0
M  V30 18809 C 1807.49 -1.51388 1.33888 0
M  V30 18810 C 1807.81 -1.94867 -0.0718767 0
M  V30 18811 O 1807.08 -1.67329 -1.01871 0
M  V30 18812 H 1805.66 -0.561534 0.492634 0
M  V30 18813 H 1808.32 -0.901156 1.72815 0
M  V30 18814 H 1807.42 -2.4068 1.98695 0
M  V30 18815 N 1807.72 -1.22979 -0.985586 0
M  V30 18816 C 1808.99 -0.967121 -1.70018 0
M  V30 18817 C 1809.37 0.515746 -2.04703 0
M  V30 18818 O 1808.72 1.48564 -1.73611 0
M  V30 18819 C 1808.93 -1.8721 -2.94539 0
M  V30 18820 C 1810.28 -2.13251 -3.67163 0
M  V30 18821 O 1811.3 -1.84718 -3.04562 0
M  V30 18822 O 1810.16 -2.61617 -4.79811 0
M  V30 18823 H 1807.26 -0.364318 -0.74243 0
M  V30 18824 H 1809.8 -1.33998 -1.04127 0
M  V30 18825 H 1808.57 -2.87478 -2.65465 0
M  V30 18826 H 1808.2 -1.50128 -3.68167 0
M  V30 18827 N 1809.19 1.18355 -1.04066 0
M  V30 18828 C 1810.13 2.21482 -0.58977 0
M  V30 18829 C 1811.14 1.59198 0.340576 0
M  V30 18830 O 1812.33 1.77988 0.135094 0
M  V30 18831 C 1809.43 3.3853 0.158397 0
M  V30 18832 C 1808.6 4.30392 -0.779824 0
M  V30 18833 C 1807.66 5.26147 -0.0749517 0
M  V30 18834 O 1806.69 5.64812 -0.705381 0
M  V30 18835 N 1807.89 5.68137 1.19168 0
M  V30 18836 H 1810.65 2.60791 -1.47676 0
M  V30 18837 H 1808.21 1.33141 -0.921151 0
M  V30 18838 H 1810.21 3.99611 0.639788 0
M  V30 18839 H 1808.78 2.97913 0.946929 0
M  V30 18840 H 1808 3.66915 -1.44107 0
M  V30 18841 H 1809.28 4.88668 -1.41707 0
M  V30 18842 H 1808.68 5.38777 1.7244 0
M  V30 18843 H 1807.24 6.31415 1.61735 0
M  V30 18844 N 1810.67 0.820125 1.3458 0
M  V30 18845 C 1811.62 0.237994 2.2957 0
M  V30 18846 C 1812.59 -0.635637 1.53456 0
M  V30 18847 O 1813.77 -0.57787 1.81839 0
M  V30 18848 C 1810.91 -0.596426 3.39907 0
M  V30 18849 C 1810.03 0.29914 4.30963 0
M  V30 18850 C 1809.16 -0.54458 5.28401 0
M  V30 18851 C 1808.2 0.350546 6.11095 0
M  V30 18852 N 1807.34 -0.453936 7.00631 0
M  V30 18853 H 1812.18 1.0534 2.7876 0
M  V30 18854 H 1809.72 0.530977 1.37183 0
M  V30 18855 H 1811.67 -1.0955 4.0256 0
M  V30 18856 H 1810.3 -1.37697 2.91958 0
M  V30 18857 H 1809.36 0.916412 3.69196 0
M  V30 18858 H 1810.67 0.987544 4.88926 0
M  V30 18859 H 1809.82 -1.10825 5.96492 0
M  V30 18860 H 1808.56 -1.2665 4.70968 0
M  V30 18861 H 1807.57 0.926375 5.41939 0
M  V30 18862 H 1808.79 1.07054 6.70609 0
M  V30 18863 H 1806.74 -1.15958 6.4567 0
M  V30 18864 H 1806.65 0.176138 7.55795 0
M  V30 18865 H 1807.92 -1.00044 7.73053 0
M  V30 18866 N 1812.15 -1.46743 0.574835 0
M  V30 18867 C 1813.08 -2.2832 -0.20062 0
M  V30 18868 C 1814.1 -1.3805 -0.862898 0
M  V30 18869 O 1815.28 -1.6272 -0.733785 0
M  V30 18870 C 1812.38 -3.1285 -1.303 0
M  V30 18871 C 1811.56 -4.31195 -0.734153 0
M  V30 18872 C 1810.62 -4.97183 -1.72324 0
M  V30 18873 O 1809.64 -5.55025 -1.26239 0
M  V30 18874 N 1810.84 -4.93476 -3.05714 0
M  V30 18875 H 1813.61 -2.95513 0.499231 0
M  V30 18876 H 1811.17 -1.56568 0.412077 0
M  V30 18877 H 1813.16 -3.53861 -1.96378 0
M  V30 18878 H 1811.73 -2.47784 -1.90583 0
M  V30 18879 H 1810.95 -3.94063 0.103888 0
M  V30 18880 H 1812.24 -5.07704 -0.333751 0
M  V30 18881 H 1811.64 -4.47715 -3.45786 0
M  V30 18882 H 1810.2 -5.38453 -3.67304 0
M  V30 18883 N 1813.63 -0.312197 -1.54477 0
M  V30 18884 C 1814.86 0.295632 -2.04474 0
M  V30 18885 C 1815.27 1.47211 -1.18851 0
M  V30 18886 O 1814.61 1.82503 -0.209347 0
M  V30 18887 C 1814.67 0.804123 -3.50391 0
M  V30 18888 C 1814.34 -0.248547 -4.56324 0
M  V30 18889 C 1815.33 -1.0808 -5.08542 0
M  V30 18890 C 1813.02 -0.393467 -5.00757 0
M  V30 18891 C 1815.01 -2.04381 -6.03744 0
M  V30 18892 C 1812.7 -1.35991 -5.95777 0
M  V30 18893 C 1813.7 -2.18355 -6.47155 0
M  V30 18894 O 1813.38 -3.13359 -7.40311 0
M  V30 18895 H 1813.12 0.0665366 -0.672718 0
M  V30 18896 H 1815.67 -0.45308 -2.00341 0
M  V30 18897 H 1813.9 1.60355 -3.51885 0
M  V30 18898 H 1815.59 1.32905 -3.83524 0
M  V30 18899 H 1816.36 -0.979766 -4.75001 0
M  V30 18900 H 1812.23 0.237709 -4.60387 0
M  V30 18901 H 1815.78 -2.68708 -6.43771 0
M  V30 18902 H 1811.68 -1.46162 -6.28734 0
M  V30 18903 H 1812.44 -3.08467 -7.58149 0
M  V30 18904 N 1815.11 1.57549 -0.040136 0
M  V30 18905 C 1816.35 1.9187 0.634838 0
M  V30 18906 C 1816.68 0.918178 1.7203 0
M  V30 18907 O 1815.95 -0.0386563 1.95862 0
M  V30 18908 H 1814.53 0.708245 0.237483 0
M  V30 18909 H 1817.19 1.9469 -0.0905369 0
M  V30 18910 H 1816.28 2.92799 1.08053 0
M  V30 18911 N 1816.58 -0.233136 1.55866 0
M  V30 18912 C 1817.83 -0.957324 1.77988 0
M  V30 18913 C 1818.15 -1.85325 0.606593 0
M  V30 18914 O 1817.42 -1.92237 -0.377047 0
M  V30 18915 H 1816 -0.356474 0.656457 0
M  V30 18916 H 1818.67 -0.247774 1.93319 0
M  V30 18917 H 1817.76 -1.57096 2.6968 0
M  V30 18918 N 1818.06 -1.49479 -0.499372 0
M  V30 18919 C 1819.31 -1.59048 -1.25339 0
M  V30 18920 C 1819.64 -0.277917 -1.92504 0
M  V30 18921 O 1818.89 0.734282 -1.81402 0
M  V30 18922 C 1819.19 -2.70007 -2.3416 0
M  V30 18923 C 1818.86 -4.11451 -1.84443 0
M  V30 18924 C 1817.52 -4.49942 -1.70603 0
M  V30 18925 C 1819.87 -4.99967 -1.47248 0
M  V30 18926 C 1817.2 -5.74722 -1.17949 0
M  V30 18927 C 1819.55 -6.25266 -0.960465 0
M  V30 18928 C 1818.22 -6.62586 -0.808473 0
M  V30 18929 H 1817.49 -0.581998 -0.458649 0
M  V30 18930 H 1820.13 -1.83315 -0.553867 0
M  V30 18931 H 1818.44 -2.39717 -3.09908 0
M  V30 18932 H 1820.14 -2.74619 -2.92208 0
M  V30 18933 H 1816.73 -3.81069 -1.96174 0
M  V30 18934 H 1820.91 -4.70884 -1.56787 0
M  V30 18935 H 1816.17 -6.02335 -1.04895 0
M  V30 18936 H 1820.34 -6.93232 -0.66348 0
M  V30 18937 H 1817.97 -7.59156 -0.398296 0
M  V30 18938 N 1819.54 0.750537 -1.38581 0
M  V30 18939 C 1820.82 1.50051 -1.25475 0
M  V30 18940 C 1821.2 2.10618 0.142521 0
M  V30 18941 O 1820.55 1.97317 1.15231 0
M  V30 18942 C 1820.76 2.56443 -2.36724 0
M  V30 18943 C 1822.1 3.23261 -2.75296 0
M  V30 18944 O 1823.13 2.66749 -2.36058 0
M  V30 18945 O 1821.99 4.25481 -3.4297 0
M  V30 18946 H 1819.08 0.665581 -0.490847 0
M  V30 18947 H 1821.63 0.785688 -1.50416 0
M  V30 18948 H 1820.4 2.09958 -3.30202 0
M  V30 18949 H 1820.02 3.35503 -2.13363 0
M  V30 18950 N 1821.02 1.235 0.979051 0
M  V30 18951 C 1821.97 1.01485 2.09293 0
M  V30 18952 C 1822.96 -0.0465937 1.69336 0
M  V30 18953 O 1824.17 0.107021 1.79682 0
M  V30 18954 H 1820.54 0.311087 0.684638 0
M  V30 18955 H 1822.51 1.95972 2.25028 0
M  V30 18956 C 1821.26 0.624167 3.42052 0
M  V30 18957 H 1820.59 1.43265 3.73249 0
M  V30 18958 H 1822.03 0.509648 4.20926 0
M  V30 18959 C 1820.48 -0.667694 3.30217 0
M  V30 18960 O 1821.01 -1.71648 3.6318 0
M  V30 18961 N 1819.22 -0.644122 2.83372 0
M  V30 18962 H 1818.77 0.20969 2.56745 0
M  V30 18963 H 1818.73 -1.50872 2.75835 0
M  V30 18964 N 1822.5 -1.17802 1.04693 0
M  V30 18965 C 1823.91 -1.39944 0.76733 0
M  V30 18966 C 1824.11 -1.91051 -0.640451 0
M  V30 18967 O 1823.17 -2.09889 -1.40366 0
M  V30 18968 C 1824.48 -2.39465 1.81871 0
M  V30 18969 C 1826.03 -2.5318 1.84035 0
M  V30 18970 C 1826.51 -3.55971 2.88182 0
M  V30 18971 N 1828 -3.63484 2.87113 0
M  V30 18972 C 1828.73 -4.42762 3.64348 0
M  V30 18973 N 1828.23 -5.25597 4.51353 0
M  V30 18974 N 1830.02 -4.37586 3.52809 0
M  V30 18975 H 1822.17 -0.829567 1.9553 0
M  V30 18976 H 1824.43 -0.427009 0.846385 0
M  V30 18977 H 1824.14 -2.08974 2.82883 0
M  V30 18978 H 1824.01 -3.38899 1.65612 0
M  V30 18979 H 1826.4 -2.82984 0.836908 0
M  V30 18980 H 1826.48 -1.53837 2.04371 0
M  V30 18981 H 1826.13 -3.26906 3.88709 0
M  V30 18982 H 1826.06 -4.55006 2.65099 0
M  V30 18983 H 1828.55 -3.04338 2.24024 0
M  V30 18984 H 1828.86 -5.83258 5.06981 0
M  V30 18985 H 1827.21 -5.24996 4.55417 0
M  V30 18986 H 1830.4 -3.71924 2.84236 0
M  V30 18987 H 1830.57 -4.99128 4.13249 0
M  V30 18988 N 1823.98 -0.827251 -1.34143 0
M  V30 18989 C 1825.22 -0.41656 -1.9776 0
M  V30 18990 C 1825.54 1.02488 -1.65895 0
M  V30 18991 O 1824.81 1.71219 -0.951891 0
M  V30 18992 H 1823.39 -0.151044 -0.73157 0
M  V30 18993 H 1826.06 -1.05765 -1.63706 0
M  V30 18994 H 1825.15 -0.539101 -3.07409 0
M  V30 18995 N 1825.45 1.46436 -0.582609 0
M  V30 18996 C 1826.38 2.33089 0.138477 0
M  V30 18997 C 1827.36 1.45339 0.883777 0
M  V30 18998 O 1828.55 1.74156 0.859257 0
M  V30 18999 C 1825.68 3.27611 1.15276 0
M  V30 19000 C 1824.63 4.24801 0.522308 0
M  V30 19001 C 1823.96 5.0883 1.64306 0
M  V30 19002 C 1825.26 5.19496 -0.540449 0
M  V30 19003 H 1826.95 2.93629 -0.585013 0
M  V30 19004 H 1824.5 1.41196 -0.282781 0
M  V30 19005 H 1826.45 3.87087 1.66558 0
M  V30 19006 H 1825.18 2.65177 1.90653 0
M  V30 19007 H 1823.84 3.66587 0.0305728 0
M  V30 19008 H 1823.48 4.42782 2.38649 0
M  V30 19009 H 1823.18 5.74649 1.22686 0
M  V30 19010 H 1824.71 5.7117 2.15864 0
M  V30 19011 H 1826.12 5.73189 -0.112706 0
M  V30 19012 H 1824.52 5.93658 -0.876957 0
M  V30 19013 H 1825.59 4.63434 -1.42677 0
M  V30 19014 N 1826.93 0.320385 1.54309 0
M  V30 19015 C 1827.84 -0.556017 2.27916 0
M  V30 19016 C 1828.86 -1.13192 1.32149 0
M  V30 19017 O 1830.03 -1.15257 1.6516 0
M  V30 19018 C 1827.1 -1.70244 3.02023 0
M  V30 19019 C 1826.16 -1.15866 4.13369 0
M  V30 19020 C 1825.39 -2.25044 4.83933 0
M  V30 19021 O 1825.62 -3.45327 4.53988 0
M  V30 19022 O 1824.55 -1.90642 5.70911 0
M  V30 19023 H 1828.38 0.0416563 3.03671 0
M  V30 19024 H 1825.96 0.0861809 1.49151 0
M  V30 19025 H 1827.84 -2.36995 3.48442 0
M  V30 19026 H 1826.52 -2.28635 2.29146 0
M  V30 19027 H 1825.42 -0.456323 3.71306 0
M  V30 19028 H 1826.76 -0.619916 4.88281 0
M  V30 19029 N 1828.41 -1.57525 0.0484906 0
M  V30 19030 C 1829.82 -1.80221 -0.487592 0
M  V30 19031 C 1830.17 -0.96049 -1.71082 0
M  V30 19032 O 1829.3 -0.17632 -2.1568 0
M  V30 19033 C 1829.89 -3.26864 -0.89136 0
M  V30 19034 C 1828.45 -3.50487 -1.37244 0
M  V30 19035 C 1827.6 -2.75129 -0.346348 0
M  V30 19036 H 1830.55 -1.5631 0.274392 0
M  V30 19037 H 1830.57 -3.37637 -1.75446 0
M  V30 19038 H 1830.08 -3.881 -0.000880924 0
M  V30 19039 H 1828.18 -2.94528 -2.2822 0
M  V30 19040 H 1828.3 -4.592 -1.36645 0
M  V30 19041 H 1826.66 -2.41185 -0.818653 0
M  V30 19042 H 1827.44 -3.3909 0.536 0
M  V30 19043 N 1829.89 0.224867 -1.55988 0
M  V30 19044 C 1831.14 0.947871 -1.78493 0
M  V30 19045 C 1831.46 1.85001 -0.616413 0
M  V30 19046 O 1830.73 1.92435 0.366847 0
M  V30 19047 H 1829.31 0.352987 -0.658338 0
M  V30 19048 H 1831.97 0.237519 -1.93447 0
M  V30 19049 H 1831.06 1.55664 -2.70509 0
M  V30 19050 N 1831.37 1.49742 0.491438 0
M  V30 19051 C 1832.32 1.63507 1.58901 0
M  V30 19052 C 1833.3 0.490352 1.53246 0
M  V30 19053 O 1834.49 0.74378 1.60614 0
M  V30 19054 C 1831.62 1.71377 2.97464 0
M  V30 19055 C 1830.71 2.91458 3.08079 0
M  V30 19056 N 1831.1 4.15412 2.88559 0
M  V30 19057 C 1829.4 2.89594 3.39192 0
M  V30 19058 C 1830.1 4.96183 3.03608 0
M  V30 19059 N 1829.07 4.29735 3.3291 0
M  V30 19060 H 1832.87 2.57055 1.42478 0
M  V30 19061 H 1830.39 1.46646 0.697765 0
M  V30 19062 H 1832.39 1.79338 3.76355 0
M  V30 19063 H 1831.05 0.789729 3.1495 0
M  V30 19064 H 1832.06 4.45239 2.64543 0
M  V30 19065 H 1828.73 2.06607 3.62794 0
M  V30 19066 H 1830.12 6.04684 2.92927 0
M  V30 19067 N 1832.84 -0.743177 1.38977 0
M  V30 19068 C 1834.26 -1.04764 1.20402 0
M  V30 19069 C 1834.46 -2.01411 0.0599139 0
M  V30 19070 O 1833.52 -2.45485 -0.591026 0
M  V30 19071 C 1834.83 -1.61775 2.53474 0
M  V30 19072 C 1836.38 -1.73896 2.60248 0
M  V30 19073 C 1836.85 -2.34318 3.93522 0
M  V30 19074 N 1838.34 -2.41737 3.95117 0
M  V30 19075 C 1839.08 -2.89407 4.95006 0
M  V30 19076 N 1838.57 -3.37034 6.05293 0
M  V30 19077 N 1840.37 -2.88542 4.8239 0
M  V30 19078 H 1832.52 -0.102036 2.12155 0
M  V30 19079 H 1834.78 -0.107893 0.94184 0
M  V30 19080 H 1834.49 -0.982274 3.37704 0
M  V30 19081 H 1834.36 -2.60696 2.72612 0
M  V30 19082 H 1836.75 -2.36568 1.76407 0
M  V30 19083 H 1836.83 -0.736509 2.44968 0
M  V30 19084 H 1836.47 -1.72276 4.7779 0
M  V30 19085 H 1836.4 -3.35224 4.06119 0
M  V30 19086 H 1838.89 -2.08064 3.15464 0
M  V30 19087 H 1839.21 -3.71895 6.77432 0
M  V30 19088 H 1837.55 -3.35064 6.08898 0
M  V30 19089 H 1840.74 -2.50651 3.95337 0
M  V30 19090 H 1840.92 -3.25379 5.60386 0
M  V30 19091 N 1834.32 -1.24018 -0.972487 0
M  V30 19092 C 1835.55 -1.10232 -1.74736 0
M  V30 19093 C 1835.96 0.348409 -1.85964 0
M  V30 19094 O 1835.3 1.25245 -1.34386 0
M  V30 19095 C 1835.37 -1.66263 -3.18743 0
M  V30 19096 C 1835.03 -3.151 -3.31 0
M  V30 19097 C 1836.03 -4.12305 -3.16703 0
M  V30 19098 C 1833.71 -3.54965 -3.55394 0
M  V30 19099 C 1835.71 -5.47357 -3.26617 0
M  V30 19100 C 1833.39 -4.9016 -3.64947 0
M  V30 19101 C 1834.39 -5.86165 -3.5057 0
M  V30 19102 O 1834.08 -7.18903 -3.5977 0
M  V30 19103 H 1833.81 -0.386036 -0.554935 0
M  V30 19104 H 1836.36 -1.64505 -1.22993 0
M  V30 19105 H 1834.59 -1.06419 -3.71769 0
M  V30 19106 H 1836.28 -1.47837 -3.7802 0
M  V30 19107 H 1837.05 -3.82848 -2.97745 0
M  V30 19108 H 1832.93 -2.80747 -3.65653 0
M  V30 19109 H 1836.47 -6.22273 -3.15312 0
M  V30 19110 H 1832.37 -5.1929 -3.83416 0
M  V30 19111 H 1833.14 -7.26759 -3.76515 0
M  V30 19112 N 1835.8 1.17245 -1.05316 0
M  V30 19113 C 1837.05 1.87813 -0.765112 0
M  V30 19114 C 1837.38 1.80907 0.706147 0
M  V30 19115 O 1836.65 1.21793 1.51647 0
M  V30 19116 C 1836.94 3.3779 -1.24779 0
M  V30 19117 C 1836.79 3.53441 -2.78208 0
M  V30 19118 C 1838.11 4.31857 -0.847805 0
M  V30 19119 H 1835.23 0.681979 -0.279415 0
M  V30 19120 H 1837.87 1.37869 -1.30737 0
M  V30 19121 H 1836.02 3.80456 -0.786487 0
M  V30 19122 H 1837.69 3.19782 -3.32472 0
M  V30 19123 H 1835.94 2.95678 -3.17423 0
M  V30 19124 H 1836.61 4.58725 -3.07043 0
M  V30 19125 H 1839.08 3.97039 -1.24496 0
M  V30 19126 H 1837.96 5.35326 -1.21313 0
M  V30 19127 H 1838.22 4.41403 0.248104 0
M  V30 19128 N 1837.28 0.834353 1.33702 0
M  V30 19129 C 1838.21 0.279313 2.31823 0
M  V30 19130 C 1839.19 -0.610495 1.58767 0
M  V30 19131 O 1840.37 -0.534989 1.86686 0
M  V30 19132 C 1837.5 -0.550201 3.42914 0
M  V30 19133 C 1836.46 0.243432 4.27307 0
M  V30 19134 C 1835.78 -0.709548 5.29971 0
M  V30 19135 C 1837.08 1.45799 5.01537 0
M  V30 19136 H 1838.78 1.09915 2.78494 0
M  V30 19137 H 1836.32 0.529987 1.33892 0
M  V30 19138 H 1838.28 -0.948764 4.10581 0
M  V30 19139 H 1837 -1.4032 2.9492 0
M  V30 19140 H 1835.66 0.6235 3.61259 0
M  V30 19141 H 1835.31 -1.55882 4.78236 0
M  V30 19142 H 1835.01 -0.182671 5.87316 0
M  V30 19143 H 1836.53 -1.10572 6.00505 0
M  V30 19144 H 1837.95 1.13283 5.61996 0
M  V30 19145 H 1836.34 1.92133 5.68511 0
M  V30 19146 H 1837.41 2.23016 4.30571 0
M  V30 19147 N 1838.76 -1.46125 0.590367 0
M  V30 19148 C 1840 -2.02346 0.0788814 0
M  V30 19149 C 1840.33 -1.46093 -1.28402 0
M  V30 19150 O 1839.59 -0.618875 -1.85657 0
M  V30 19151 C 1839.89 -3.57388 -0.0287217 0
M  V30 19152 C 1839.55 -4.32716 1.26758 0
M  V30 19153 C 1838.21 -4.53014 1.62271 0
M  V30 19154 C 1840.57 -4.7591 2.12507 0
M  V30 19155 C 1837.89 -5.13759 2.83318 0
M  V30 19156 C 1840.25 -5.37992 3.32787 0
M  V30 19157 C 1838.91 -5.56516 3.68573 0
M  V30 19158 H 1838.18 -0.740438 0.0288647 0
M  V30 19159 H 1840.83 -1.75402 0.768538 0
M  V30 19160 H 1839.13 -3.83513 -0.801551 0
M  V30 19161 H 1840.83 -3.98575 -0.440356 0
M  V30 19162 H 1837.42 -4.17219 0.981133 0
M  V30 19163 H 1841.6 -4.59977 1.86373 0
M  V30 19164 H 1836.86 -5.26291 3.11172 0
M  V30 19165 H 1841.03 -5.70418 3.99495 0
M  V30 19166 H 1838.66 -6.03355 4.62458 0
M  V30 19167 N 1840.23 -0.328564 -1.54137 0
M  V30 19168 C 1841.48 0.272909 -2.00955 0
M  V30 19169 C 1841.81 1.51393 -1.2163 0
M  V30 19170 O 1841.09 1.92174 -0.299916 0
M  V30 19171 C 1841.37 0.602055 -3.55031 0
M  V30 19172 C 1841.22 -0.650016 -4.45078 0
M  V30 19173 C 1842.54 1.4177 -4.1664 0
M  V30 19174 H 1839.66 0.0977177 -0.730493 0
M  V30 19175 H 1842.3 -0.446133 -1.84688 0
M  V30 19176 H 1840.45 1.21464 -3.69024 0
M  V30 19177 H 1842.13 -1.28821 -4.42948 0
M  V30 19178 H 1840.37 -1.2779 -4.1455 0
M  V30 19179 H 1841.04 -0.375181 -5.50724 0
M  V30 19180 H 1843.52 0.899849 -4.06254 0
M  V30 19181 H 1842.39 1.61676 -5.24549 0
M  V30 19182 H 1842.65 2.41534 -3.70289 0
M  V30 19183 N 1841.71 1.57497 -0.0568439 0
M  V30 19184 C 1842.64 2.14892 0.913427 0
M  V30 19185 C 1843.62 1.07205 1.32065 0
M  V30 19186 O 1844.81 1.35172 1.39435 0
M  V30 19187 C 1841.94 2.69849 2.18629 0
M  V30 19188 C 1840.89 3.8257 1.91896 0
M  V30 19189 C 1840.22 4.24068 3.25685 0
M  V30 19190 C 1841.52 5.07463 1.23606 0
M  V30 19191 H 1843.21 2.96218 0.435347 0
M  V30 19192 H 1840.76 1.4249 0.20796 0
M  V30 19193 H 1842.71 3.08643 2.86911 0
M  V30 19194 H 1841.44 1.85723 2.68653 0
M  V30 19195 H 1840.09 3.44258 1.26024 0
M  V30 19196 H 1839.74 3.36884 3.73521 0
M  V30 19197 H 1839.44 5.00043 3.08594 0
M  V30 19198 H 1840.97 4.65466 3.95189 0
M  V30 19199 H 1842.38 5.43667 1.81931 0
M  V30 19200 H 1840.78 5.88619 1.16823 0
M  V30 19201 H 1841.85 4.84432 0.212918 0
M  V30 19202 N 1843.19 -0.216591 1.56105 0
M  V30 19203 C 1844.15 -1.25198 1.91985 0
M  V30 19204 C 1845.15 -1.39551 0.798884 0
M  V30 19205 O 1846.34 -1.37731 1.06657 0
M  V30 19206 C 1843.48 -2.62499 2.17502 0
M  V30 19207 H 1844.67 -0.945854 2.84594 0
M  V30 19208 H 1842.22 -0.457218 1.49463 0
M  V30 19209 H 1842.96 -2.98202 1.27461 0
M  V30 19210 H 1842.74 -2.53457 2.99169 0
M  V30 19211 H 1844.23 -3.37204 2.4634 0
M  V30 19212 N 1844.67 -1.5 -0.48349 0
M  V30 19213 C 1845.91 -1.60606 -1.23829 0
M  V30 19214 C 1846.25 -0.299778 -1.91872 0
M  V30 19215 O 1845.52 0.697925 -1.81547 0
M  V30 19216 C 1845.81 -2.77769 -2.29165 0
M  V30 19217 C 1845.66 -4.18243 -1.65507 0
M  V30 19218 C 1846.98 -2.90521 -3.30584 0
M  V30 19219 H 1844.1 -0.584561 -0.44884 0
M  V30 19220 H 1846.74 -1.82346 -0.533855 0
M  V30 19221 H 1844.89 -2.59364 -2.89245 0
M  V30 19222 H 1846.56 -4.48208 -1.09119 0
M  V30 19223 H 1844.8 -4.23077 -0.958577 0
M  V30 19224 H 1845.47 -4.96128 -2.41994 0
M  V30 19225 H 1847.95 -3.0733 -2.80513 0
M  V30 19226 H 1846.83 -3.74146 -4.0163 0
M  V30 19227 H 1847.09 -2.00609 -3.93965 0
M  V30 19228 N 1846.15 0.735796 -1.39369 0
M  V30 19229 C 1847.08 1.86303 -1.4076 0
M  V30 19230 C 1848.06 1.67926 -0.27107 0
M  V30 19231 O 1849.24 1.88257 -0.476773 0
M  V30 19232 C 1846.37 3.24043 -1.24955 0
M  V30 19233 C 1845.33 3.57055 -2.35999 0
M  V30 19234 C 1844.65 4.93723 -2.05284 0
M  V30 19235 C 1845.95 3.60109 -3.7831 0
M  V30 19236 H 1847.65 1.85396 -2.35093 0
M  V30 19237 H 1845.19 0.890552 -1.1316 0
M  V30 19238 H 1847.15 4.02574 -1.24549 0
M  V30 19239 H 1845.87 3.25475 -0.270902 0
M  V30 19240 H 1844.53 2.80853 -2.35621 0
M  V30 19241 H 1844.18 4.91734 -1.05859 0
M  V30 19242 H 1843.88 5.16779 -2.79667 0
M  V30 19243 H 1845.4 5.74612 -2.06527 0
M  V30 19244 H 1846.81 4.28718 -3.80622 0
M  V30 19245 H 1845.21 3.94683 -4.52046 0
M  V30 19246 H 1846.28 2.59932 -4.09345 0
M  V30 19247 N 1847.63 1.24532 0.965897 0
M  V30 19248 C 1848.56 0.997143 2.06373 0
M  V30 19249 C 1849.57 -0.0340261 1.62764 0
M  V30 19250 O 1850.76 0.203223 1.77339 0
M  V30 19251 C 1847.86 0.483305 3.35436 0
M  V30 19252 C 1847.03 1.57803 4.07942 0
M  V30 19253 C 1846.09 1.06652 5.15278 0
M  V30 19254 O 1845.12 1.75859 5.41352 0
M  V30 19255 N 1846.32 -0.0981119 5.80417 0
M  V30 19256 H 1849.08 1.94238 2.28236 0
M  V30 19257 H 1846.65 1.15586 1.13365 0
M  V30 19258 H 1848.64 0.125833 4.04504 0
M  V30 19259 H 1847.21 -0.367709 3.1043 0
M  V30 19260 H 1846.43 2.1076 3.33127 0
M  V30 19261 H 1847.72 2.3138 4.53146 0
M  V30 19262 H 1847.11 -0.676662 5.61638 0
M  V30 19263 H 1845.67 -0.396714 6.50592 0
M  V30 19264 N 1849.1 -1.16685 1.05936 0
M  V30 19265 C 1850.05 -2.20953 0.66695 0
M  V30 19266 C 1851.02 -1.62694 -0.334621 0
M  V30 19267 O 1852.21 -1.89477 -0.22433 0
M  V30 19268 C 1849.35 -3.45055 0.0557459 0
M  V30 19269 C 1848.46 -4.17574 1.10706 0
M  V30 19270 C 1847.59 -5.29184 0.462377 0
M  V30 19271 C 1846.63 -5.935 1.49748 0
M  V30 19272 N 1845.77 -6.96608 0.876416 0
M  V30 19273 H 1850.61 -2.53872 1.56054 0
M  V30 19274 H 1848.15 -1.24697 0.780321 0
M  V30 19275 H 1850.1 -4.16001 -0.316125 0
M  V30 19276 H 1848.73 -3.12697 -0.801265 0
M  V30 19277 H 1847.79 -3.45269 1.59668 0
M  V30 19278 H 1849.1 -4.61505 1.89248 0
M  V30 19279 H 1848.25 -6.06689 0.0373376 0
M  V30 19280 H 1846.99 -4.86407 -0.354955 0
M  V30 19281 H 1846 -5.1472 1.93245 0
M  V30 19282 H 1847.22 -6.38357 2.31684 0
M  V30 19283 H 1845.17 -6.55952 0.0797299 0
M  V30 19284 H 1845.08 -7.38891 1.59927 0
M  V30 19285 H 1846.35 -7.78043 0.4764 0
M  V30 19286 N 1850.58 -0.841432 -1.33258 0
M  V30 19287 C 1851.81 -0.45101 -2.02437 0
M  V30 19288 C 1852.23 0.940811 -1.62881 0
M  V30 19289 O 1851.59 1.61559 -0.82271 0
M  V30 19290 C 1851.64 -0.58237 -3.55866 0
M  V30 19291 O 1850.74 0.390326 -4.10549 0
M  V30 19292 H 1850.08 -0.182996 -0.638285 0
M  V30 19293 H 1852.61 -1.13697 -1.701 0
M  V30 19294 H 1852.62 -0.464967 -4.05342 0
M  V30 19295 H 1851.3 -1.59739 -3.84 0
M  V30 19296 H 1849.87 0.230266 -3.72188 0
M  V30 19297 N 1852.06 1.4581 -0.598108 0
M  V30 19298 C 1852.97 2.34249 0.12834 0
M  V30 19299 C 1853.99 1.50677 0.870202 0
M  V30 19300 O 1855.16 1.83505 0.829924 0
M  V30 19301 C 1852.23 3.28135 1.1193 0
M  V30 19302 C 1851.29 4.27611 0.380432 0
M  V30 19303 C 1850.52 5.17012 1.32419 0
M  V30 19304 O 1850.74 5.09648 2.56154 0
M  V30 19305 O 1849.68 5.962 0.826397 0
M  V30 19306 H 1853.5 2.9775 -0.598199 0
M  V30 19307 H 1851.09 1.45037 -0.358416 0
M  V30 19308 H 1852.97 3.86014 1.6903 0
M  V30 19309 H 1851.65 2.6721 1.82703 0
M  V30 19310 H 1850.55 3.73375 -0.23279 0
M  V30 19311 H 1851.89 4.91365 -0.286627 0
M  V30 19312 N 1853.54 0.336733 1.53961 0
M  V30 19313 C 1854.95 -0.148599 1.86108 0
M  V30 19314 C 1855.3 -1.50551 1.25812 0
M  V30 19315 O 1854.42 -2.08782 0.569109 0
M  V30 19316 C 1855.02 -0.276413 3.37671 0
M  V30 19317 C 1853.58 -0.705973 3.6972 0
M  V30 19318 C 1852.73 0.164407 2.76812 0
M  V30 19319 H 1855.68 0.556568 1.4862 0
M  V30 19320 H 1855.7 -1.10509 3.64099 0
M  V30 19321 H 1855.21 0.711315 3.81526 0
M  V30 19322 H 1853.31 -1.70297 3.31406 0
M  V30 19323 H 1853.42 -0.500591 4.76478 0
M  V30 19324 H 1851.79 -0.362166 2.52112 0
M  V30 19325 H 1852.57 1.14914 3.23496 0
M  V30 19326 N 1855.02 -1.57465 0.0651956 0
M  V30 19327 C 1856.24 -1.9756 -0.614633 0
M  V30 19328 C 1856.66 -0.943308 -1.63546 0
M  V30 19329 O 1856.02 0.0708362 -1.82362 0
M  V30 19330 C 1856.07 -3.37735 -1.28909 0
M  V30 19331 O 1855.79 -4.37008 -0.309131 0
M  V30 19332 C 1857.29 -3.92667 -2.05736 0
M  V30 19333 H 1854.51 -0.64987 -0.167061 0
M  V30 19334 H 1857.05 -2.0405 0.135647 0
M  V30 19335 H 1855.21 -3.32352 -1.9905 0
M  V30 19336 H 1855.62 -5.18483 -0.792206 0
M  V30 19337 H 1857.1 -4.92988 -2.48329 0
M  V30 19338 H 1857.57 -3.28851 -2.91124 0
M  V30 19339 H 1858.18 -4.01431 -1.40476 0
M  V30 19340 N 1856.49 0.20831 -1.56217 0
M  V30 19341 C 1857.74 0.930725 -1.79844 0
M  V30 19342 C 1858.07 1.83801 -0.636208 0
M  V30 19343 O 1857.32 1.92 0.378755 0
M  V30 19344 C 1857.62 1.78999 -3.09345 0
M  V30 19345 C 1857.29 1.03482 -4.38865 0
M  V30 19346 C 1855.95 0.826263 -4.74053 0
M  V30 19347 C 1858.3 0.50251 -5.18772 0
M  V30 19348 C 1855.63 0.0737118 -5.86654 0
M  V30 19349 C 1857.98 -0.236764 -6.32157 0
M  V30 19350 C 1856.65 -0.456453 -6.65938 0
M  V30 19351 H 1855.92 0.340576 -0.658095 0
M  V30 19352 H 1858.56 0.197971 -1.90474 0
M  V30 19353 H 1856.87 2.59101 -2.93894 0
M  V30 19354 H 1858.57 2.35132 -3.24829 0
M  V30 19355 H 1855.16 1.20736 -4.11243 0
M  V30 19356 H 1859.34 0.651071 -4.92011 0
M  V30 19357 H 1854.6 -0.106598 -6.11307 0
M  V30 19358 H 1858.77 -0.656674 -6.93297 0
M  V30 19359 H 1856.4 -1.0415 -7.53032 0
M  V30 19360 N 1857.97 1.50255 0.475528 0
M  V30 19361 C 1858.93 1.68248 1.55645 0
M  V30 19362 C 1859.93 0.553326 1.5098 0
M  V30 19363 O 1861.12 0.820274 1.53679 0
M  V30 19364 C 1858.26 1.70358 2.95281 0
M  V30 19365 H 1859.45 2.64681 1.4101 0
M  V30 19366 H 1857 1.39669 0.701594 0
M  V30 19367 H 1857.74 0.75602 3.15365 0
M  V30 19368 H 1857.52 2.52384 3.00074 0
M  V30 19369 H 1859.01 1.86249 3.73766 0
M  V30 19370 N 1859.45 -0.728395 1.39758 0
M  V30 19371 C 1860.41 -1.82415 1.38772 0
M  V30 19372 C 1861.41 -1.58278 0.283678 0
M  V30 19373 O 1862.6 -1.65556 0.541927 0
M  V30 19374 C 1859.73 -3.20309 1.16684 0
M  V30 19375 H 1860.93 -1.8469 2.36283 0
M  V30 19376 H 1858.48 -0.932729 1.25419 0
M  V30 19377 H 1859.22 -3.2369 0.198817 0
M  V30 19378 H 1859 -3.39226 1.96643 0
M  V30 19379 H 1860.49 -4.0036 1.18751 0
M  V30 19380 N 1860.93 -1.25042 -0.959279 0
M  V30 19381 C 1862.15 -1.12339 -1.74341 0
M  V30 19382 C 1862.58 0.319342 -1.85369 0
M  V30 19383 O 1861.94 1.23129 -1.33075 0
M  V30 19384 C 1861.98 -1.77734 -3.13756 0
M  V30 19385 O 1861.09 -1.05383 -3.98708 0
M  V30 19386 H 1860.43 -0.392479 -0.535589 0
M  V30 19387 H 1862.96 -1.65516 -1.20274 0
M  V30 19388 H 1862.97 -1.83832 -3.64239 0
M  V30 19389 H 1861.64 -2.82702 -3.05045 0
M  V30 19390 H 1860.22 -1.07132 -3.57179 0
M  V30 19391 N 1862.41 1.16121 -1.06553 0
M  V30 19392 C 1863.82 1.68319 -0.807804 0
M  V30 19393 C 1864.17 1.8447 0.668234 0
M  V30 19394 O 1863.29 1.54215 1.51811 0
M  V30 19395 C 1863.89 3.05738 -1.45979 0
M  V30 19396 C 1862.45 3.55046 -1.24977 0
M  V30 19397 C 1861.59 2.30965 -1.53462 0
M  V30 19398 H 1864.55 1.00447 -1.22866 0
M  V30 19399 H 1864.57 3.70266 -0.876556 0
M  V30 19400 H 1864.08 2.93951 -2.53405 0
M  V30 19401 H 1862.18 3.72087 -0.195367 0
M  V30 19402 H 1862.29 4.36979 -1.96433 0
M  V30 19403 H 1860.66 2.36107 -0.955268 0
M  V30 19404 H 1861.44 2.21773 -2.62052 0
M  V30 19405 N 1863.88 0.848487 1.3281 0
M  V30 19406 C 1865.13 0.448856 1.97463 0
M  V30 19407 C 1865.46 -0.994126 1.67175 0
M  V30 19408 O 1864.71 -1.71147 0.949054 0
M  V30 19409 C 1865.01 0.62759 3.51847 0
M  V30 19410 C 1864.68 2.04011 4.02107 0
M  V30 19411 C 1863.34 2.42645 4.15544 0
M  V30 19412 C 1865.69 2.9623 4.28832 0
M  V30 19413 C 1863.02 3.72783 4.53045 0
M  V30 19414 C 1865.37 4.2586 4.67789 0
M  V30 19415 C 1864.04 4.64437 4.79431 0
M  V30 19416 H 1863.31 0.164248 0.722567 0
M  V30 19417 H 1865.95 1.07736 1.5832 0
M  V30 19418 H 1864.26 -0.0841763 3.9171 0
M  V30 19419 H 1865.96 0.298524 3.99887 0
M  V30 19420 H 1862.55 1.73009 3.9213 0
M  V30 19421 H 1866.73 2.67616 4.17966 0
M  V30 19422 H 1861.99 4.02464 4.60253 0
M  V30 19423 H 1866.16 4.97385 4.87423 0
M  V30 19424 H 1863.79 5.65323 5.08246 0
M  V30 19425 N 1865.36 -1.4549 0.605832 0
M  V30 19426 C 1866.59 -2.07135 0.104838 0
M  V30 19427 C 1867.01 -1.4478 -1.20085 0
M  V30 19428 O 1866.37 -0.539875 -1.73075 0
M  V30 19429 C 1866.42 -3.60593 -0.0231858 0
M  V30 19430 O 1865.52 -3.98173 -1.07386 0
M  V30 19431 H 1864.86 -0.659945 0.0732691 0
M  V30 19432 H 1867.39 -1.8677 0.835343 0
M  V30 19433 H 1867.4 -4.07396 -0.221964 0
M  V30 19434 H 1866.08 -4.05364 0.930211 0
M  V30 19435 H 1864.66 -3.63044 -0.851689 0
M  V30 19436 N 1866.84 -0.344893 -1.5378 0
M  V30 19437 C 1868.12 0.306554 -1.93183 0
M  V30 19438 C 1868.5 1.68127 -1.27658 0
M  V30 19439 O 1867.85 2.24456 -0.428003 0
M  V30 19440 C 1868.06 0.377484 -3.46953 0
M  V30 19441 C 1869.4 0.627685 -4.19935 0
M  V30 19442 O 1870.43 0.459544 -3.53223 0
M  V30 19443 O 1869.29 0.953511 -5.38117 0
M  V30 19444 H 1866.38 0.179163 -0.80736 0
M  V30 19445 H 1868.93 -0.396168 -1.65011 0
M  V30 19446 H 1867.7 -0.587175 -3.86869 0
M  V30 19447 H 1867.32 1.12694 -3.81295 0
M  V30 19448 N 1868.32 1.57428 -0.0735454 0
M  V30 19449 C 1869.73 1.80973 0.458858 0
M  V30 19450 C 1870.08 0.987586 1.69532 0
M  V30 19451 O 1869.21 0.210611 2.15373 0
M  V30 19452 C 1869.8 3.28241 0.839246 0
M  V30 19453 C 1868.36 3.52626 1.3165 0
M  V30 19454 C 1867.51 2.75645 0.302533 0
M  V30 19455 H 1870.46 1.55854 -0.299225 0
M  V30 19456 H 1870.48 3.40386 1.70052 0
M  V30 19457 H 1869.99 3.88052 -0.0608625 0
M  V30 19458 H 1868.09 2.98121 2.23505 0
M  V30 19459 H 1868.2 4.61316 1.29322 0
M  V30 19460 H 1866.57 2.42457 0.780179 0
M  V30 19461 H 1867.35 3.38194 -0.589878 0
M  V30 19462 N 1869.8 -0.200022 1.56326 0
M  V30 19463 C 1871.04 -0.921174 1.80335 0
M  V30 19464 C 1871.37 -1.83461 0.645946 0
M  V30 19465 O 1870.63 -1.92198 -0.368568 0
M  V30 19466 C 1870.93 -1.77356 3.1029 0
M  V30 19467 C 1870.59 -1.01153 4.39407 0
M  V30 19468 C 1869.25 -0.801112 4.74485 0
M  V30 19469 C 1871.61 -0.474992 5.19031 0
M  V30 19470 C 1868.93 -0.0425991 5.86685 0
M  V30 19471 C 1871.29 0.270286 6.32022 0
M  V30 19472 C 1869.95 0.491763 6.65686 0
M  V30 19473 H 1869.22 -0.337082 0.659892 0
M  V30 19474 H 1871.87 -0.187867 1.90576 0
M  V30 19475 H 1870.17 -2.57539 2.95264 0
M  V30 19476 H 1871.87 -2.33406 3.26071 0
M  V30 19477 H 1868.46 -1.18553 4.11877 0
M  V30 19478 H 1872.64 -0.624969 4.92349 0
M  V30 19479 H 1867.9 0.139015 6.11242 0
M  V30 19480 H 1872.07 0.693432 6.92939 0
M  V30 19481 H 1869.7 1.08142 7.52469 0
M  V30 19482 N 1871.27 -1.50505 -0.467553 0
M  V30 19483 C 1872.21 -1.65784 -1.58267 0
M  V30 19484 C 1873.22 -0.539219 -1.53611 0
M  V30 19485 O 1874.41 -0.812524 -1.58935 0
M  V30 19486 C 1871.51 -1.62951 -2.97154 0
M  V30 19487 C 1870.68 -2.90903 -3.26641 0
M  V30 19488 C 1869.74 -2.80665 -4.451 0
M  V30 19489 O 1868.77 -3.5462 -4.45234 0
M  V30 19490 N 1869.97 -1.9446 -5.4696 0
M  V30 19491 H 1872.73 -2.6197 -1.45575 0
M  V30 19492 H 1870.29 -1.48013 -0.656029 0
M  V30 19493 H 1872.29 -1.53709 -3.74373 0
M  V30 19494 H 1870.86 -0.744855 -3.03596 0
M  V30 19495 H 1870.08 -3.14244 -2.38001 0
M  V30 19496 H 1871.36 -3.75663 -3.43155 0
M  V30 19497 H 1870.76 -1.33694 -5.49675 0
M  V30 19498 H 1869.32 -1.9112 -6.2315 0
M  V30 19499 N 1872.75 0.720973 -1.40142 0
M  V30 19500 C 1873.68 1.84799 -1.42729 0
M  V30 19501 C 1874.66 1.67629 -0.288866 0
M  V30 19502 O 1875.85 1.8774 -0.496713 0
M  V30 19503 C 1872.98 3.22699 -1.28385 0
M  V30 19504 C 1871.93 3.54532 -2.39773 0
M  V30 19505 C 1871.26 4.91518 -2.10509 0
M  V30 19506 C 1872.56 3.56077 -3.82108 0
M  V30 19507 H 1874.25 1.82892 -2.37046 0
M  V30 19508 H 1871.8 0.8785 -1.14098 0
M  V30 19509 H 1873.75 4.0123 -1.28812 0
M  V30 19510 H 1872.48 3.25169 -0.305408 0
M  V30 19511 H 1871.13 2.78338 -2.38586 0
M  V30 19512 H 1870.78 4.90584 -1.11069 0
M  V30 19513 H 1870.48 5.13783 -2.85132 0
M  V30 19514 H 1872.01 5.72389 -2.1261 0
M  V30 19515 H 1873.42 4.24657 -3.85148 0
M  V30 19516 H 1871.82 3.89866 -4.56207 0
M  V30 19517 H 1872.89 2.55576 -4.12079 0
M  V30 19518 N 1874.23 1.25549 0.952634 0
M  V30 19519 C 1875.51 1.01186 1.67394 0
M  V30 19520 C 1875.89 -0.461292 2.05998 0
M  V30 19521 O 1875.24 -1.43909 1.77489 0
M  V30 19522 C 1875.45 1.94954 2.89472 0
M  V30 19523 C 1876.79 2.22911 3.6138 0
M  V30 19524 O 1877.82 1.92728 2.99557 0
M  V30 19525 O 1876.68 2.74246 4.72706 0
M  V30 19526 H 1873.77 0.383874 0.732509 0
M  V30 19527 H 1876.32 1.36712 1.00538 0
M  V30 19528 H 1875.09 2.94416 2.5775 0
M  V30 19529 H 1874.71 1.59837 3.64058 0
M  V30 19530 N 1875.71 -1.15554 1.07168 0
M  V30 19531 C 1876.66 -2.22296 0.684626 0
M  V30 19532 C 1877.65 -1.66656 -0.303675 0
M  V30 19533 O 1878.86 -1.79218 -0.167588 0
M  V30 19534 H 1875.23 -0.723996 0.203306 0
M  V30 19535 H 1877.2 -2.52223 1.59456 0
M  V30 19536 C 1875.95 -3.47566 0.0965118 0
M  V30 19537 H 1875.27 -3.90701 0.848122 0
M  V30 19538 H 1876.71 -4.2378 -0.136671 0
M  V30 19539 C 1875.17 -3.16215 -1.16231 0
M  V30 19540 O 1875.7 -3.32838 -2.24903 0
M  V30 19541 N 1873.91 -2.70273 -1.06774 0
M  V30 19542 H 1873.46 -2.56947 -0.183357 0
M  V30 19543 H 1873.41 -2.49671 -1.9108 0
M  V30 19544 N 1877.19 -0.855519 -1.32358 0
M  V30 19545 C 1878.6 -0.513833 -1.7949 0
M  V30 19546 C 1878.95 0.968373 -1.70637 0
M  V30 19547 O 1878.07 1.75541 -1.26547 0
M  V30 19548 C 1878.67 -0.925925 -3.25902 0
M  V30 19549 C 1877.23 -0.636124 -3.70986 0
M  V30 19550 C 1876.38 -1.12519 -2.53446 0
M  V30 19551 H 1879.33 -1.04264 -1.19644 0
M  V30 19552 H 1879.35 -0.242659 -3.79725 0
M  V30 19553 H 1878.86 -2.00473 -3.32313 0
M  V30 19554 H 1876.96 0.431924 -3.70088 0
M  V30 19555 H 1877.07 -1.20302 -4.6375 0
M  V30 19556 H 1875.44 -0.545429 -2.48791 0
M  V30 19557 H 1876.22 -2.21112 -2.62611 0
M  V30 19558 N 1878.67 1.45167 -0.61354 0
M  V30 19559 C 1879.94 1.95553 -0.042781 0
M  V30 19560 C 1880.32 1.55588 1.42673 0
M  V30 19561 O 1879.67 0.821325 2.13229 0
M  V30 19562 C 1879.88 3.48124 -0.247141 0
M  V30 19563 C 1881.23 4.24398 -0.131068 0
M  V30 19564 O 1882.25 3.55757 -0.177576 0
M  V30 19565 O 1881.11 5.46496 -0.0211683 0
M  V30 19566 H 1878.21 0.826367 0.0323494 0
M  V30 19567 H 1880.75 1.55304 -0.684017 0
M  V30 19568 H 1879.52 3.70202 -1.26751 0
M  V30 19569 H 1879.15 3.95278 0.429074 0
M  V30 19570 N 1880.14 0.353044 1.53595 0
M  V30 19571 C 1881.55 -0.128852 1.86255 0
M  V30 19572 C 1881.91 -1.49209 1.27402 0
M  V30 19573 O 1881.03 -2.08167 0.591222 0
M  V30 19574 C 1881.63 -0.240583 3.37945 0
M  V30 19575 C 1880.18 -0.66672 3.70448 0
M  V30 19576 C 1879.33 0.193757 2.76622 0
M  V30 19577 H 1882.28 0.5723 1.48022 0
M  V30 19578 H 1882.3 -1.06641 3.65251 0
M  V30 19579 H 1881.82 0.75174 3.8075 0
M  V30 19580 H 1879.92 -1.66773 3.33193 0
M  V30 19581 H 1880.03 -0.450026 4.76982 0
M  V30 19582 H 1878.39 -0.335406 2.52482 0
M  V30 19583 H 1879.18 1.18339 3.22259 0
M  V30 19584 N 1881.62 -1.57387 0.0818932 0
M  V30 19585 C 1882.55 -2.10294 -0.911539 0
M  V30 19586 C 1883.57 -1.03726 -1.25478 0
M  V30 19587 O 1884.76 -1.31212 -1.2102 0
M  V30 19588 C 1881.86 -2.55676 -2.22448 0
M  V30 19589 C 1881.03 -3.8593 -2.05857 0
M  V30 19590 C 1880.09 -4.17297 -3.20545 0
M  V30 19591 O 1879.11 -4.86734 -2.9509 0
M  V30 19592 N 1880.32 -3.71647 -4.45936 0
M  V30 19593 H 1883.08 -2.96153 -0.459757 0
M  V30 19594 H 1880.64 -1.61568 -0.103568 0
M  V30 19595 H 1882.63 -2.73715 -2.98098 0
M  V30 19596 H 1881.2 -1.749 -2.59092 0
M  V30 19597 H 1880.42 -3.7717 -1.14615 0
M  V30 19598 H 1881.71 -4.71169 -1.92034 0
M  V30 19599 H 1881.11 -3.15571 -4.69501 0
M  V30 19600 H 1879.67 -3.94866 -5.18579 0
M  V30 19601 N 1883.1 0.191729 -1.56429 0
M  V30 19602 C 1884.51 0.756099 -1.70705 0
M  V30 19603 C 1884.86 1.83703 -0.689029 0
M  V30 19604 O 1883.99 2.15852 0.153863 0
M  V30 19605 C 1884.58 1.37827 -3.09498 0
M  V30 19606 C 1883.14 1.88968 -3.25527 0
M  V30 19607 C 1882.29 0.76089 -2.66657 0
M  V30 19608 H 1885.24 -0.0333918 -1.58665 0
M  V30 19609 H 1885.26 2.24771 -3.07015 0
M  V30 19610 H 1884.77 0.591316 -3.83569 0
M  V30 19611 H 1882.87 2.70372 -2.56378 0
M  V30 19612 H 1882.99 2.04916 -4.33066 0
M  V30 19613 H 1881.35 1.17606 -2.25923 0
M  V30 19614 H 1882.13 -0.0138776 -3.43297 0
M  V30 19615 N 1884.58 1.50751 0.459565 0
M  V30 19616 C 1885.83 1.61553 1.20762 0
M  V30 19617 C 1886.14 0.326862 1.9285 0
M  V30 19618 O 1887.35 0.313951 2.69679 0
M  V30 19619 C 1885.8 2.8522 2.19494 0
M  V30 19620 C 1885.41 4.21008 1.53156 0
M  V30 19621 C 1887.15 3.05373 2.94869 0
M  V30 19622 C 1885.06 5.35848 2.50241 0
M  V30 19623 H 1883.99 0.601658 0.454448 0
M  V30 19624 H 1886.64 1.77195 0.476886 0
M  V30 19625 H 1885.02 2.63163 2.95908 0
M  V30 19626 H 1886.2 4.53363 0.824521 0
M  V30 19627 H 1884.51 4.06554 0.900178 0
M  V30 19628 H 1887.11 3.88342 3.67552 0
M  V30 19629 H 1887.45 2.17557 3.54929 0
M  V30 19630 H 1887.99 3.27665 2.25566 0
M  V30 19631 H 1884.72 6.25854 1.94904 0
M  V30 19632 H 1884.24 5.07896 3.19063 0
M  V30 19633 H 1885.92 5.66894 3.11834 0
M  V30 19634 N 1886.06 -0.713531 1.40522 0
M  V30 19635 C 1887.3 -1.47561 1.39117 0
M  V30 19636 C 1887.63 -1.94199 -0.00592038 0
M  V30 19637 O 1886.91 -1.68301 -0.974941 0
M  V30 19638 C 1887.19 -2.70023 2.38242 0
M  V30 19639 C 1887.05 -2.29266 3.86984 0
M  V30 19640 C 1888.36 -3.72185 2.34875 0
M  V30 19641 H 1885.48 -0.535243 0.50664 0
M  V30 19642 H 1888.13 -0.814172 1.71672 0
M  V30 19643 H 1886.28 -3.26458 2.10611 0
M  V30 19644 H 1887.95 -1.78297 4.2545 0
M  V30 19645 H 1886.19 -1.61246 4.02719 0
M  V30 19646 H 1886.86 -3.17057 4.51862 0
M  V30 19647 H 1889.34 -3.25384 2.59354 0
M  V30 19648 H 1888.21 -4.55507 3.06276 0
M  V30 19649 H 1888.47 -4.20627 1.36108 0
M  V30 19650 N 1887.53 -1.26053 -0.945962 0
M  V30 19651 C 1888.81 -1.02072 -1.66855 0
M  V30 19652 C 1889.19 0.45036 -2.0624 0
M  V30 19653 O 1888.54 1.42966 -1.7825 0
M  V30 19654 C 1888.75 -1.96486 -2.88434 0
M  V30 19655 C 1890.1 -2.24825 -3.60193 0
M  V30 19656 O 1891.12 -1.94314 -2.98531 0
M  V30 19657 O 1889.98 -2.76749 -4.71245 0
M  V30 19658 H 1887.07 -0.387753 -0.730463 0
M  V30 19659 H 1889.62 -1.37243 -0.998117 0
M  V30 19660 H 1888.39 -2.95779 -2.56185 0
M  V30 19661 H 1888.01 -1.61765 -3.63205 0
M  V30 19662 N 1889.01 1.14984 -1.07779 0
M  V30 19663 C 1890.26 1.85506 -0.802 0
M  V30 19664 C 1890.58 1.82981 0.674026 0
M  V30 19665 O 1889.85 1.27376 1.48836 0
M  V30 19666 H 1888.43 0.686845 -0.293689 0
M  V30 19667 H 1891.09 1.39368 -1.36244 0
M  V30 19668 H 1890.19 2.90518 -1.14042 0
M  V30 19669 N 1890.49 0.862526 1.31902 0
M  V30 19670 C 1891.4 0.316029 2.32462 0
M  V30 19671 C 1892.42 -0.570217 1.64391 0
M  V30 19672 O 1893.59 -0.46871 1.9587 0
M  V30 19673 C 1890.66 -0.479949 3.43362 0
M  V30 19674 C 1889.72 0.43337 4.27107 0
M  V30 19675 C 1888.95 -0.324714 5.32711 0
M  V30 19676 O 1889.17 -1.55373 5.48831 0
M  V30 19677 O 1888.11 0.313571 6.01083 0
M  V30 19678 H 1891.93 1.14935 2.81111 0
M  V30 19679 H 1889.52 0.625683 1.35667 0
M  V30 19680 H 1891.4 -0.931458 4.10977 0
M  V30 19681 H 1890.08 -1.28994 2.96888 0
M  V30 19682 H 1888.98 0.933222 3.62273 0
M  V30 19683 H 1890.32 1.20876 4.77127 0
M  V30 19684 N 1891.97 -1.4484 0.62123 0
M  V30 19685 C 1892.88 -2.34423 -0.0910566 0
M  V30 19686 C 1893.89 -1.52042 -0.846121 0
M  V30 19687 O 1895.07 -1.84802 -0.800625 0
M  V30 19688 C 1892.14 -3.29874 -1.06696 0
M  V30 19689 C 1891.2 -4.28162 -0.312354 0
M  V30 19690 C 1890.43 -5.19053 -1.24177 0
M  V30 19691 O 1890.65 -5.13659 -2.48014 0
M  V30 19692 O 1889.59 -5.97439 -0.731442 0
M  V30 19693 H 1893.41 -2.96761 0.645493 0
M  V30 19694 H 1891 -1.44448 0.381445 0
M  V30 19695 H 1892.88 -3.88654 -1.62867 0
M  V30 19696 H 1891.55 -2.70083 -1.78429 0
M  V30 19697 H 1890.46 -3.72957 0.292161 0
M  V30 19698 H 1891.79 -4.90847 0.364763 0
M  V30 19699 N 1893.45 -0.361184 -1.53405 0
M  V30 19700 C 1894.69 0.229427 -2.00794 0
M  V30 19701 C 1895.02 1.49642 -1.25029 0
M  V30 19702 O 1894.29 1.9252 -0.362333 0
M  V30 19703 H 1892.87 0.0877687 -0.741826 0
M  V30 19704 H 1895.53 -0.486406 -1.88733 0
M  V30 19705 H 1894.62 0.459504 -3.08699 0
M  V30 19706 N 1894.92 1.57341 -0.0902386 0
M  V30 19707 C 1895.85 2.16782 0.86764 0
M  V30 19708 C 1896.84 1.09982 1.29761 0
M  V30 19709 O 1898.02 1.38099 1.36537 0
M  V30 19710 C 1895.15 2.74426 2.12856 0
M  V30 19711 C 1894.1 3.86555 1.83738 0
M  V30 19712 C 1893.43 4.3088 3.16617 0
M  V30 19713 C 1894.73 5.09971 1.12814 0
M  V30 19714 H 1896.42 2.97075 0.372417 0
M  V30 19715 H 1893.97 1.42899 0.177689 0
M  V30 19716 H 1895.92 3.14659 2.80299 0
M  V30 19717 H 1894.65 1.9138 2.64653 0
M  V30 19718 H 1893.31 3.46853 1.18694 0
M  V30 19719 H 1892.95 3.44732 3.66291 0
M  V30 19720 H 1892.65 5.06477 2.97918 0
M  V30 19721 H 1894.18 4.73743 3.85227 0
M  V30 19722 H 1895.59 5.47404 1.70358 0
M  V30 19723 H 1893.99 5.90965 1.04311 0
M  V30 19724 H 1895.06 4.84775 0.110114 0
M  V30 19725 N 1896.4 -0.183431 1.56529 0
M  V30 19726 C 1897.65 -0.900237 1.80495 0
M  V30 19727 C 1897.96 -1.83932 0.665454 0
M  V30 19728 O 1899.17 -2.59761 0.789728 0
M  V30 19729 C 1897.63 -1.65125 3.19784 0
M  V30 19730 C 1897.23 -0.756411 4.41568 0
M  V30 19731 C 1898.98 -2.357 3.53052 0
M  V30 19732 C 1896.89 -1.50696 5.71878 0
M  V30 19733 H 1895.82 -0.339898 0.673042 0
M  V30 19734 H 1898.47 -0.153327 1.82858 0
M  V30 19735 H 1896.85 -2.44248 3.11703 0
M  V30 19736 H 1898.02 -0.00301509 4.608 0
M  V30 19737 H 1896.34 -0.160916 4.16089 0
M  V30 19738 H 1898.93 -2.92426 4.4765 0
M  V30 19739 H 1899.28 -3.10454 2.77352 0
M  V30 19740 H 1899.81 -1.63533 3.62632 0
M  V30 19741 H 1896.55 -0.801985 6.50575 0
M  V30 19742 H 1896.07 -2.23399 5.56644 0
M  V30 19743 H 1897.75 -2.05768 6.13407 0
M  V30 19744 N 1897.88 -1.50992 -0.451564 0
M  V30 19745 C 1899.13 -1.64161 -1.20095 0
M  V30 19746 C 1899.48 -0.346721 -1.8925 0
M  V30 19747 O 1898.77 0.656635 -1.79997 0
M  V30 19748 C 1898.97 -2.7732 -2.25452 0
M  V30 19749 C 1898.8 -4.17688 -1.66635 0
M  V30 19750 C 1897.57 -4.83824 -1.45749 0
M  V30 19751 C 1899.77 -5.01268 -1.15043 0
M  V30 19752 N 1897.75 -6.08347 -0.823804 0
M  V30 19753 C 1899.12 -6.16676 -0.641159 0
M  V30 19754 C 1901.17 -4.86899 -1.04083 0
M  V30 19755 C 1899.88 -7.19292 -0.0330732 0
M  V30 19756 C 1901.9 -5.89711 -0.446661 0
M  V30 19757 C 1901.26 -7.04381 0.0521393 0
M  V30 19758 H 1897.36 -0.654714 -0.427637 0
M  V30 19759 H 1899.95 -1.88176 -0.499779 0
M  V30 19760 H 1898.12 -2.54993 -2.92973 0
M  V30 19761 H 1899.85 -2.79743 -2.92448 0
M  V30 19762 H 1896.61 -4.41448 -1.71525 0
M  V30 19763 H 1897.03 -6.74963 -0.524811 0
M  V30 19764 H 1901.67 -3.98512 -1.41237 0
M  V30 19765 H 1899.39 -8.07339 0.350622 0
M  V30 19766 H 1902.98 -5.8066 -0.363957 0
M  V30 19767 H 1901.86 -7.82574 0.504692 0
M  V30 19768 N 1899.36 0.706069 -1.40899 0
M  V30 19769 C 1900.6 1.46821 -1.39898 0
M  V30 19770 C 1900.94 1.942 -0.00437855 0
M  V30 19771 O 1900.21 1.68815 0.966002 0
M  V30 19772 C 1900.5 2.68756 -2.39671 0
M  V30 19773 C 1900.35 2.27211 -3.88195 0
M  V30 19774 C 1901.67 3.70935 -2.36845 0
M  V30 19775 H 1898.79 0.532549 -0.509471 0
M  V30 19776 H 1901.43 0.805057 -1.72101 0
M  V30 19777 H 1899.58 3.25337 -2.1234 0
M  V30 19778 H 1901.25 1.76038 -4.2639 0
M  V30 19779 H 1899.49 1.59108 -4.03568 0
M  V30 19780 H 1900.16 3.14656 -4.53537 0
M  V30 19781 H 1902.64 3.24004 -2.61076 0
M  V30 19782 H 1901.52 4.53876 -3.08687 0
M  V30 19783 H 1901.78 4.19899 -1.38337 0
M  V30 19784 N 1900.84 1.26553 0.939264 0
M  V30 19785 C 1902.09 1.11599 1.68014 0
M  V30 19786 C 1902.4 -0.339956 1.92623 0
M  V30 19787 O 1903.6 -0.610203 2.64554 0
M  V30 19788 C 1902.06 1.94913 3.02551 0
M  V30 19789 C 1901.67 3.45094 2.85682 0
M  V30 19790 C 1903.41 1.88574 3.80316 0
M  V30 19791 C 1901.32 4.20648 4.15703 0
M  V30 19792 H 1900.25 0.414037 0.630151 0
M  V30 19793 H 1902.9 1.50878 1.04441 0
M  V30 19794 H 1901.28 1.48469 3.67115 0
M  V30 19795 H 1902.46 3.99321 2.29956 0
M  V30 19796 H 1900.77 3.5269 2.21357 0
M  V30 19797 H 1903.37 2.42307 4.76646 0
M  V30 19798 H 1903.71 0.856867 4.07386 0
M  V30 19799 H 1904.24 2.32852 3.22529 0
M  V30 19800 H 1900.98 5.24013 3.93816 0
M  V30 19801 H 1900.5 3.71202 4.71136 0
M  V30 19802 H 1902.18 4.29199 4.84146 0
M  V30 19803 N 1902.31 -1.14411 1.08387 0
M  V30 19804 C 1903.56 -1.85078 0.811826 0
M  V30 19805 C 1903.88 -1.83335 -0.664312 0
M  V30 19806 O 1903.15 -1.28164 -1.48158 0
M  V30 19807 H 1901.73 -0.685278 0.297328 0
M  V30 19808 H 1904.4 -1.38644 1.36981 0
M  V30 19809 H 1903.49 -2.89909 1.15581 0
M  V30 19810 N 1903.79 -0.869509 -1.31443 0
M  V30 19811 C 1905.2 -0.532842 -1.78935 0
M  V30 19812 C 1905.55 0.95022 -1.71654 0
M  V30 19813 O 1904.68 1.74189 -1.28402 0
M  V30 19814 C 1905.27 -0.960439 -3.24902 0
M  V30 19815 C 1903.83 -0.675436 -3.7029 0
M  V30 19816 C 1902.98 -1.15201 -2.52238 0
M  V30 19817 H 1905.93 -1.05527 -1.18531 0
M  V30 19818 H 1905.95 -0.282921 -3.79447 0
M  V30 19819 H 1905.46 -2.03986 -3.30168 0
M  V30 19820 H 1903.57 0.392647 -3.70525 0
M  V30 19821 H 1903.68 -1.25214 -4.62448 0
M  V30 19822 H 1902.04 -0.571786 -2.48199 0
M  V30 19823 H 1902.83 -2.23885 -2.60251 0
M  V30 19824 N 1905.27 1.44508 -0.628902 0
M  V30 19825 C 1906.52 2.02365 -0.132699 0
M  V30 19826 C 1906.85 1.4934 1.24142 0
M  V30 19827 O 1906.12 0.676567 1.82354 0
M  V30 19828 C 1906.41 3.5991 -0.11694 0
M  V30 19829 C 1906.26 4.23223 -1.52324 0
M  V30 19830 C 1907.58 4.36527 0.559696 0
M  V30 19831 H 1904.7 0.735323 -0.049695 0
M  V30 19832 H 1907.34 1.72106 -0.80495 0
M  V30 19833 H 1905.49 3.8582 0.455515 0
M  V30 19834 H 1907.16 4.08427 -2.14441 0
M  V30 19835 H 1905.41 3.80803 -2.07777 0
M  V30 19836 H 1906.08 5.32225 -1.46427 0
M  V30 19837 H 1908.55 4.16036 0.0728971 0
M  V30 19838 H 1907.43 5.46238 0.539902 0
M  V30 19839 H 1907.69 4.10968 1.62965 0
M  V30 19840 N 1906.75 0.369315 1.53212 0
M  V30 19841 C 1907.68 -0.467242 2.28777 0
M  V30 19842 C 1908.66 -1.08073 1.31355 0
M  V30 19843 O 1909.85 -1.09728 1.60229 0
M  V30 19844 C 1906.98 -1.60519 3.07979 0
M  V30 19845 C 1905.93 -1.11876 4.1312 0
M  V30 19846 C 1905.26 -2.34723 4.80426 0
M  V30 19847 C 1906.56 -0.200846 5.21914 0
M  V30 19848 H 1908.25 0.163201 2.98955 0
M  V30 19849 H 1905.8 0.0799312 1.43778 0
M  V30 19850 H 1907.75 -2.19708 3.59592 0
M  V30 19851 H 1906.47 -2.26292 2.35499 0
M  V30 19852 H 1905.13 -0.549521 3.62458 0
M  V30 19853 H 1904.78 -2.98961 4.04514 0
M  V30 19854 H 1904.48 -2.02846 5.51477 0
M  V30 19855 H 1906 -2.94592 5.34835 0
M  V30 19856 H 1907.42 -0.700331 5.69006 0
M  V30 19857 H 1905.81 0.0272222 6.00094 0
M  V30 19858 H 1906.88 0.755948 4.78971 0
M  V30 19859 N 1908.23 -1.57291 0.0985816 0
M  V30 19860 C 1909.19 -2.1307 -0.844628 0
M  V30 19861 C 1910.19 -1.06076 -1.20849 0
M  V30 19862 O 1911.38 -1.31947 -1.13735 0
M  V30 19863 C 1908.51 -2.65416 -2.13933 0
M  V30 19864 H 1909.71 -2.97729 -0.36023 0
M  V30 19865 H 1907.26 -1.55574 -0.150451 0
M  V30 19866 H 1907.99 -1.84287 -2.6685 0
M  V30 19867 H 1907.78 -3.43647 -1.88811 0
M  V30 19868 H 1909.27 -3.08551 -2.814 0
M  V30 19869 N 1909.71 0.175127 -1.56624 0
M  V30 19870 C 1910.95 0.89369 -1.82047 0
M  V30 19871 C 1911.28 1.82061 -0.675831 0
M  V30 19872 O 1910.56 1.91808 0.322453 0
M  V30 19873 C 1910.84 1.69266 -3.17838 0
M  V30 19874 C 1910.7 0.789122 -4.42824 0
M  V30 19875 C 1912.01 2.66115 -3.50529 0
M  V30 19876 H 1909.13 0.323454 -0.662228 0
M  V30 19877 H 1911.78 0.160077 -1.89324 0
M  V30 19878 H 1909.93 2.31808 -3.11765 0
M  V30 19879 H 1911.6 0.17687 -4.60961 0
M  V30 19880 H 1909.84 0.0969508 -4.33692 0
M  V30 19881 H 1910.51 1.38358 -5.34379 0
M  V30 19882 H 1912.99 2.137 -3.57031 0
M  V30 19883 H 1911.86 3.19087 -4.46626 0
M  V30 19884 H 1912.12 3.4613 -2.75038 0
M  V30 19885 N 1911.18 1.5123 0.44355 0
M  V30 19886 C 1912.43 1.63833 1.19527 0
M  V30 19887 C 1912.76 0.350544 1.9101 0
M  V30 19888 O 1912.04 -0.649546 1.83333 0
M  V30 19889 C 1912.32 2.83747 2.21719 0
M  V30 19890 C 1912.17 4.22484 1.5436 0
M  V30 19891 C 1913.49 2.99184 3.22765 0
M  V30 19892 H 1910.61 0.596256 0.433184 0
M  V30 19893 H 1913.25 1.83697 0.485321 0
M  V30 19894 H 1911.4 2.66942 2.82267 0
M  V30 19895 H 1913.08 4.50944 0.971976 0
M  V30 19896 H 1911.32 4.25469 0.846069 0
M  V30 19897 H 1911.99 5.0237 2.28754 0
M  V30 19898 H 1914.47 3.14659 2.72266 0
M  V30 19899 H 1913.34 3.84663 3.91569 0
M  V30 19900 H 1913.6 2.10984 3.88508 0
M  V30 19901 N 1912.66 -0.698586 1.41271 0
M  V30 19902 C 1913.91 -1.45861 1.40466 0
M  V30 19903 C 1914.24 -1.94496 0.0127551 0
M  V30 19904 O 1913.49 -1.69692 -0.974843 0
M  V30 19905 C 1913.79 -2.688 2.35545 0
M  V30 19906 C 1913.46 -2.38839 3.82449 0
M  V30 19907 C 1912.12 -2.30378 4.22468 0
M  V30 19908 C 1914.47 -2.14065 4.75211 0
M  V30 19909 C 1911.8 -1.95236 5.53263 0
M  V30 19910 C 1914.15 -1.80432 6.06323 0
M  V30 19911 C 1912.81 -1.70465 6.45367 0
M  V30 19912 H 1912.08 -0.533744 0.514002 0
M  V30 19913 H 1914.73 -0.798723 1.74048 0
M  V30 19914 H 1913.04 -3.39708 1.95207 0
M  V30 19915 H 1914.73 -3.26933 2.32197 0
M  V30 19916 H 1911.32 -2.46317 3.50751 0
M  V30 19917 H 1915.51 -2.19548 4.45098 0
M  V30 19918 H 1910.76 -1.86069 5.82399 0
M  V30 19919 H 1914.94 -1.60281 6.77704 0
M  V30 19920 H 1912.56 -1.43002 7.46629 0
M  V30 19921 N 1914.14 -1.27049 -0.93254 0
M  V30 19922 C 1915.39 -1.12488 -1.67419 0
M  V30 19923 C 1915.7 0.329736 -1.92801 0
M  V30 19924 O 1916.91 0.596164 -2.64874 0
M  V30 19925 C 1915.36 -1.96515 -3.01513 0
M  V30 19926 C 1914.97 -3.46604 -2.83847 0
M  V30 19927 C 1916.72 -1.90589 -3.7931 0
M  V30 19928 C 1914.62 -4.22847 -4.13466 0
M  V30 19929 H 1913.55 -0.417373 -0.627946 0
M  V30 19930 H 1916.2 -1.5143 -1.03639 0
M  V30 19931 H 1914.59 -1.50413 -3.66322 0
M  V30 19932 H 1915.76 -4.00535 -2.27835 0
M  V30 19933 H 1914.07 -3.53859 -2.19484 0
M  V30 19934 H 1916.67 -2.44831 -4.75355 0
M  V30 19935 H 1917.01 -0.87846 -4.06926 0
M  V30 19936 H 1917.55 -2.34559 -3.21289 0
M  V30 19937 H 1914.29 -5.26094 -3.91031 0
M  V30 19938 H 1913.81 -3.73695 -4.69161 0
M  V30 19939 H 1915.49 -4.31761 -4.81863 0
M  V30 19940 N 1915.62 1.13835 -1.08993 0
M  V30 19941 C 1916.87 1.84361 -0.818161 0
M  V30 19942 C 1917.18 1.84185 0.658437 0
M  V30 19943 O 1918.39 2.50559 1.04558 0
M  V30 19944 C 1916.84 3.30973 -1.41367 0
M  V30 19945 C 1916.45 3.3955 -2.92249 0
M  V30 19946 C 1918.19 4.06571 -1.22066 0
M  V30 19947 C 1916.1 4.80408 -3.44908 0
M  V30 19948 H 1915.03 0.690704 -0.302397 0
M  V30 19949 H 1917.68 1.28283 -1.31208 0
M  V30 19950 H 1916.06 3.86826 -0.84745 0
M  V30 19951 H 1917.24 2.93716 -3.5506 0
M  V30 19952 H 1915.55 2.77413 -3.10533 0
M  V30 19953 H 1918.15 5.10554 -1.58868 0
M  V30 19954 H 1918.49 4.15989 -0.160946 0
M  V30 19955 H 1919.03 3.57036 -1.75415 0
M  V30 19956 H 1915.76 4.76181 -4.5048 0
M  V30 19957 H 1915.28 5.26756 -2.86859 0
M  V30 19958 H 1916.96 5.49315 -3.4185 0
M  V30 19959 N 1917.1 0.876467 1.3098 0
M  V30 19960 C 1918.34 0.497226 1.9826 0
M  V30 19961 C 1918.7 -0.934405 1.67729 0
M  V30 19962 O 1919.9 -1.41933 2.28273 0
M  V30 19963 C 1918.17 0.754565 3.49344 0
M  V30 19964 S 1919.73 0.476154 4.36209 0
M  V30 19965 H 1916.55 0.185344 0.686417 0
M  V30 19966 H 1919.15 1.1339 1.59258 0
M  V30 19967 H 1917.85 1.79517 3.69055 0
M  V30 19968 H 1917.39 0.105131 3.9326 0
M  V30 19969 H 1919.4 -0.688841 4.91395 0
M  V30 19970 N 1918.57 -1.44173 0.636557 0
M  V30 19971 C 1919.82 -2.01209 0.140639 0
M  V30 19972 C 1920.14 -1.50704 -1.2469 0
M  V30 19973 O 1921.34 -1.99904 -1.83713 0
M  V30 19974 C 1919.8 -3.5934 0.20066 0
M  V30 19975 C 1919.41 -4.18841 1.58985 0
M  V30 19976 C 1921.15 -4.23829 -0.238514 0
M  V30 19977 C 1919.06 -5.69213 1.60469 0
M  V30 19978 H 1917.99 -0.752418 0.0488124 0
M  V30 19979 H 1920.64 -1.65329 0.796151 0
M  V30 19980 H 1919.02 -3.92544 -0.522054 0
M  V30 19981 H 1920.19 -3.97165 2.33658 0
M  V30 19982 H 1918.51 -3.66659 1.97357 0
M  V30 19983 H 1921.11 -5.34129 -0.247033 0
M  V30 19984 H 1921.45 -3.96556 -1.26685 0
M  V30 19985 H 1921.98 -3.95449 0.431887 0
M  V30 19986 H 1918.72 -6.01229 2.61158 0
M  V30 19987 H 1918.24 -5.92995 0.900975 0
M  V30 19988 H 1919.92 -6.3295 1.34104 0
M  V30 19989 N 1920.05 -0.377435 -1.53014 0
M  V30 19990 C 1921.3 0.208838 -2.01722 0
M  V30 19991 C 1921.63 1.47446 -1.26385 0
M  V30 19992 O 1920.91 1.91122 -0.360903 0
M  V30 19993 C 1921.19 0.4888 -3.56767 0
M  V30 19994 C 1921.04 -0.791285 -4.42785 0
M  V30 19995 C 1922.36 1.28443 -4.2094 0
M  V30 19996 H 1919.48 0.0744281 -0.733232 0
M  V30 19997 H 1922.12 -0.504664 -1.83175 0
M  V30 19998 H 1920.27 1.09662 -3.72702 0
M  V30 19999 H 1921.94 -1.42848 -4.38625 0
M  V30 20000 H 1920.19 -1.40914 -4.10275 0
M  V30 20001 H 1920.86 -0.550199 -5.49251 0
M  V30 20002 H 1923.33 0.770147 -4.08911 0
M  V30 20003 H 1922.21 1.44906 -5.29427 0
M  V30 20004 H 1922.47 2.29631 -3.77786 0
M  V30 20005 N 1921.53 1.57237 -0.106922 0
M  V30 20006 C 1922.78 1.9395 0.553733 0
M  V30 20007 C 1923.09 0.991678 1.68597 0
M  V30 20008 O 1924.3 1.25299 2.40858 0
M  V30 20009 C 1922.75 3.44655 1.0364 0
M  V30 20010 C 1922.36 4.4795 -0.0667311 0
M  V30 20011 C 1924.11 3.90309 1.66911 0
M  V30 20012 C 1922.01 5.8982 0.431953 0
M  V30 20013 H 1920.94 0.723986 0.21062 0
M  V30 20014 H 1923.59 1.82567 -0.18483 0
M  V30 20015 H 1921.98 3.51231 1.82901 0
M  V30 20016 H 1923.15 4.5303 -0.842624 0
M  V30 20017 H 1921.47 4.11976 -0.605358 0
M  V30 20018 H 1924.06 4.9371 2.05315 0
M  V30 20019 H 1924.41 3.29612 2.54287 0
M  V30 20020 H 1924.94 3.86483 0.942119 0
M  V30 20021 H 1921.68 6.54245 -0.405469 0
M  V30 20022 H 1921.2 5.88187 1.17459 0
M  V30 20023 H 1922.88 6.4075 0.897104 0
M  V30 20024 N 1923.01 -0.166818 1.56715 0
M  V30 20025 C 1923.97 -1.19027 1.95871 0
M  V30 20026 C 1924.97 -1.36939 0.842877 0
M  V30 20027 O 1926.16 -1.34268 1.10985 0
M  V30 20028 C 1923.29 -2.55446 2.25743 0
M  V30 20029 H 1924.49 -0.854834 2.87459 0
M  V30 20030 H 1922.04 -0.409436 1.50842 0
M  V30 20031 H 1922.77 -2.93996 1.36884 0
M  V30 20032 H 1922.56 -2.4381 3.07081 0
M  V30 20033 H 1924.05 -3.29196 2.56943 0
M  V30 20034 N 1924.49 -1.51463 -0.435524 0
M  V30 20035 C 1925.74 -1.63454 -1.18176 0
M  V30 20036 C 1926.05 -0.357501 -1.92305 0
M  V30 20037 O 1927.25 -0.356815 -2.69145 0
M  V30 20038 C 1925.71 -2.88676 -2.14928 0
M  V30 20039 C 1925.32 -4.23391 -1.46438 0
M  V30 20040 C 1927.06 -3.10025 -2.89974 0
M  V30 20041 C 1924.97 -5.39761 -2.41685 0
M  V30 20042 H 1923.9 -0.608812 -0.444819 0
M  V30 20043 H 1926.55 -1.77931 -0.448635 0
M  V30 20044 H 1924.93 -2.67837 -2.91683 0
M  V30 20045 H 1926.11 -4.54618 -0.75229 0
M  V30 20046 H 1924.42 -4.07934 -0.835385 0
M  V30 20047 H 1927.02 -3.9414 -3.61327 0
M  V30 20048 H 1927.36 -2.23177 -3.51423 0
M  V30 20049 H 1927.89 -3.31213 -2.20325 0
M  V30 20050 H 1924.63 -6.28875 -1.84922 0
M  V30 20051 H 1924.15 -5.12908 -3.10943 0
M  V30 20052 H 1925.83 -5.71783 -3.02776 0
M  V30 20053 N 1925.96 0.691085 -1.4164 0
M  V30 20054 C 1926.89 1.8173 -1.46616 0
M  V30 20055 C 1927.88 1.66979 -0.324357 0
M  V30 20056 O 1929.06 1.86644 -0.536424 0
M  V30 20057 C 1926.19 3.19903 -1.35201 0
M  V30 20058 C 1925.14 3.49366 -2.47239 0
M  V30 20059 C 1924.47 4.86942 -2.20887 0
M  V30 20060 C 1925.77 3.47891 -3.89575 0
M  V30 20061 H 1927.46 1.77823 -2.40872 0
M  V30 20062 H 1925.01 0.8541 -1.15936 0
M  V30 20063 H 1926.96 3.98407 -1.37293 0
M  V30 20064 H 1925.69 3.24448 -0.374312 0
M  V30 20065 H 1924.35 2.73215 -2.44436 0
M  V30 20066 H 1923.99 4.88118 -1.2145 0
M  V30 20067 H 1923.69 5.0762 -2.95966 0
M  V30 20068 H 1925.22 5.67751 -2.24703 0
M  V30 20069 H 1926.63 4.16392 -3.94069 0
M  V30 20070 H 1925.03 3.80101 -4.64374 0
M  V30 20071 H 1926.1 2.46778 -4.17407 0
M  V30 20072 N 1927.44 1.27542 0.925789 0
M  V30 20073 C 1928.37 1.12952 2.04363 0
M  V30 20074 C 1929.35 0.0304761 1.70073 0
M  V30 20075 O 1930.54 0.205307 1.93112 0
M  V30 20076 C 1927.67 0.777954 3.38475 0
M  V30 20077 C 1926.62 1.83044 3.86883 0
M  V30 20078 C 1925.95 1.3328 5.17823 0
M  V30 20079 C 1927.25 3.23488 4.10065 0
M  V30 20080 H 1928.94 2.06462 2.16827 0
M  V30 20081 H 1926.49 0.994046 1.04186 0
M  V30 20082 H 1928.44 0.662702 4.16156 0
M  V30 20083 H 1927.17 -0.192851 3.2603 0
M  V30 20084 H 1925.82 1.93463 3.11396 0
M  V30 20085 H 1925.47 0.351399 5.01771 0
M  V30 20086 H 1925.17 2.03648 5.51182 0
M  V30 20087 H 1926.7 1.23053 5.98072 0
M  V30 20088 H 1928.11 3.16058 4.7831 0
M  V30 20089 H 1926.51 3.91583 4.54734 0
M  V30 20090 H 1927.58 3.68399 3.15293 0
M  V30 20091 N 1928.92 -1.13255 1.09595 0
M  V30 20092 C 1930.15 -1.88138 0.853687 0
M  V30 20093 C 1930.56 -1.79474 -0.598798 0
M  V30 20094 O 1929.9 -1.16047 -1.42404 0
M  V30 20095 C 1929.96 -3.38441 1.21234 0
M  V30 20096 C 1929.63 -3.70884 2.67009 0
M  V30 20097 C 1930.62 -3.69979 3.65256 0
M  V30 20098 C 1928.31 -4.00488 3.03174 0
M  V30 20099 C 1930.3 -3.98221 4.97693 0
M  V30 20100 C 1927.99 -4.28391 4.35803 0
M  V30 20101 C 1928.99 -4.27243 5.32872 0
M  V30 20102 O 1928.68 -4.54462 6.63114 0
M  V30 20103 H 1928.41 -0.602402 0.306738 0
M  V30 20104 H 1930.96 -1.44282 1.46192 0
M  V30 20105 H 1929.19 -3.82809 0.54717 0
M  V30 20106 H 1930.88 -3.94651 0.948953 0
M  V30 20107 H 1931.65 -3.47181 3.3866 0
M  V30 20108 H 1927.53 -4.00528 2.28251 0
M  V30 20109 H 1931.07 -3.9724 5.73451 0
M  V30 20110 H 1926.97 -4.50661 4.62141 0
M  V30 20111 H 1927.74 -4.72122 6.68613 0
M  V30 20112 N 1930.4 -0.883401 -1.30514 0
M  V30 20113 C 1931.35 -0.347254 -2.28173 0
M  V30 20114 C 1932.32 0.561698 -1.56314 0
M  V30 20115 O 1933.5 0.490454 -1.84389 0
M  V30 20116 C 1930.64 0.433573 -3.42366 0
M  V30 20117 C 1929.75 -0.504417 -4.29045 0
M  V30 20118 C 1928.89 0.291853 -5.30398 0
M  V30 20119 C 1927.93 -0.641708 -6.08727 0
M  V30 20120 N 1927.06 0.119139 -7.01999 0
M  V30 20121 H 1931.9 -1.1852 -2.73417 0
M  V30 20122 H 1929.44 -0.595824 -1.34493 0
M  V30 20123 H 1931.4 0.902186 -4.07328 0
M  V30 20124 H 1930.03 1.23611 -2.98195 0
M  V30 20125 H 1929.08 -1.09152 -3.64404 0
M  V30 20126 H 1930.39 -1.21969 -4.83658 0
M  V30 20127 H 1929.55 0.822389 -6.011 0
M  V30 20128 H 1928.29 1.04035 -4.76475 0
M  V30 20129 H 1927.29 -1.18389 -5.36902 0
M  V30 20130 H 1928.52 -1.38927 -6.64738 0
M  V30 20131 H 1926.46 0.850204 -6.50467 0
M  V30 20132 H 1926.38 -0.536537 -7.54094 0
M  V30 20133 H 1927.65 0.63047 -7.76946 0
M  V30 20134 N 1931.88 1.43833 -0.644194 0
M  V30 20135 C 1932.82 2.32509 0.0649184 0
M  V30 20136 C 1933.82 1.48097 0.822405 0
M  V30 20137 O 1935.02 1.64362 0.733827 0
M  V30 20138 H 1931.4 0.750948 0.0397724 0
M  V30 20139 H 1933.37 2.90053 -0.700857 0
M  V30 20140 C 1932.12 3.32282 1.02391 0
M  V30 20141 H 1931.44 3.97254 0.45047 0
M  V30 20142 H 1932.88 3.96982 1.48933 0
M  V30 20143 C 1931.34 2.62194 2.11556 0
M  V30 20144 O 1931.87 2.43066 3.19815 0
M  V30 20145 N 1930.08 2.21717 1.87856 0
M  V30 20146 H 1929.62 2.37474 0.998189 0
M  V30 20147 H 1929.58 1.7515 2.61093 0
M  V30 20148 N 1933.35 0.385544 1.52811 0
M  V30 20149 C 1934.3 -0.451417 2.26342 0
M  V30 20150 C 1935.27 -1.06094 1.27801 0
M  V30 20151 O 1936.46 -1.08968 1.56623 0
M  V30 20152 C 1933.6 -1.57477 3.07075 0
M  V30 20153 C 1932.71 -0.988468 4.20539 0
M  V30 20154 C 1931.84 -2.08256 4.88675 0
M  V30 20155 C 1930.88 -1.47196 5.94138 0
M  V30 20156 N 1930.02 -2.5052 6.55884 0
M  V30 20157 H 1934.86 0.182092 2.97443 0
M  V30 20158 H 1932.4 0.101628 1.46749 0
M  V30 20159 H 1934.36 -2.23677 3.52171 0
M  V30 20160 H 1932.99 -2.17864 2.38191 0
M  V30 20161 H 1932.04 -0.216168 3.79785 0
M  V30 20162 H 1933.35 -0.502223 4.96265 0
M  V30 20163 H 1932.5 -2.82235 5.37055 0
M  V30 20164 H 1931.24 -2.60239 4.12464 0
M  V30 20165 H 1930.25 -0.717401 5.45099 0
M  V30 20166 H 1931.47 -0.960124 6.72279 0
M  V30 20167 H 1929.42 -3.0168 5.82516 0
M  V30 20168 H 1929.34 -2.0664 7.27211 0
M  V30 20169 H 1930.6 -3.24141 7.0891 0
M  V30 20170 N 1934.83 -1.57178 0.115259 0
M  V30 20171 C 1936.24 -1.82126 -0.410715 0
M  V30 20172 C 1936.59 -1.03219 -1.66854 0
M  V30 20173 O 1935.72 -0.267639 -2.14739 0
M  V30 20174 C 1936.31 -3.30351 -0.751923 0
M  V30 20175 C 1934.87 -3.55993 -1.22255 0
M  V30 20176 C 1934.02 -2.7635 -0.229344 0
M  V30 20177 H 1936.97 -1.55005 0.340441 0
M  V30 20178 H 1936.99 -3.44775 -1.60968 0
M  V30 20179 H 1936.5 -3.87754 0.163726 0
M  V30 20180 H 1934.61 -3.03942 -2.15522 0
M  V30 20181 H 1934.72 -4.64583 -1.17046 0
M  V30 20182 H 1933.08 -2.4444 -0.715621 0
M  V30 20183 H 1933.87 -3.36511 0.679337 0
M  V30 20184 N 1936.31 0.158505 -1.56801 0
M  V30 20185 C 1937.59 0.901061 -1.73609 0
M  V30 20186 C 1937.97 1.99842 -0.680163 0
M  V30 20187 O 1937.32 2.26484 0.302892 0
M  V30 20188 C 1937.53 1.45407 -3.17266 0
M  V30 20189 C 1938.87 1.92199 -3.78609 0
M  V30 20190 O 1939.9 1.55173 -3.20624 0
M  V30 20191 O 1938.76 2.60443 -4.80449 0
M  V30 20192 H 1935.85 0.425009 -0.709434 0
M  V30 20193 H 1938.4 0.14533 -1.69077 0
M  V30 20194 H 1937.17 0.664882 -3.8561 0
M  V30 20195 H 1936.79 2.27363 -3.26178 0
M  V30 20196 N 1937.79 1.51692 0.427485 0
M  V30 20197 C 1939.01 1.68956 1.20285 0
M  V30 20198 C 1939.44 0.390472 1.84003 0
M  V30 20199 O 1938.8 -0.650352 1.69234 0
M  V30 20200 C 1938.85 2.81368 2.25532 0
M  V30 20201 O 1937.95 2.45657 3.3125 0
M  V30 20202 H 1937.29 0.56304 0.351969 0
M  V30 20203 H 1939.82 1.98306 0.503588 0
M  V30 20204 H 1939.83 3.05742 2.70158 0
M  V30 20205 H 1938.51 3.7563 1.78535 0
M  V30 20206 H 1937.08 2.31889 2.9203 0
M  V30 20207 N 1939.27 -0.683564 1.42004 0
M  V30 20208 C 1940.21 -1.7973 1.44796 0
M  V30 20209 C 1941.18 -1.63352 0.300905 0
M  V30 20210 O 1942.37 -1.84031 0.503707 0
M  V30 20211 C 1939.51 -3.17701 1.34758 0
M  V30 20212 C 1938.62 -3.45428 2.59429 0
M  V30 20213 C 1937.76 -4.73079 2.41598 0
M  V30 20214 C 1936.8 -4.93812 3.61685 0
M  V30 20215 N 1935.93 -6.12698 3.4285 0
M  V30 20216 H 1940.77 -1.76679 2.39976 0
M  V30 20217 H 1938.31 -0.862624 1.19152 0
M  V30 20218 H 1940.27 -3.9742 1.26938 0
M  V30 20219 H 1938.9 -3.19899 0.431785 0
M  V30 20220 H 1937.95 -2.60027 2.77651 0
M  V30 20221 H 1939.26 -3.56645 3.48721 0
M  V30 20222 H 1938.42 -5.60873 2.31314 0
M  V30 20223 H 1937.16 -4.6413 1.49782 0
M  V30 20224 H 1936.16 -4.04463 3.72411 0
M  V30 20225 H 1937.39 -5.04612 4.5447 0
M  V30 20226 H 1935.33 -6.04938 2.53744 0
M  V30 20227 H 1935.25 -6.24736 4.25724 0
M  V30 20228 H 1936.52 -7.03194 3.36361 0
M  V30 20229 N 1940.75 -1.28031 -0.919012 0
M  V30 20230 C 1942.16 -1.05624 -1.19649 0
M  V30 20231 C 1942.36 0.204731 -2.00457 0
M  V30 20232 O 1941.42 0.907849 -2.35615 0
M  V30 20233 C 1942.73 -2.3007 -1.93619 0
M  V30 20234 C 1944.28 -2.35196 -2.06523 0
M  V30 20235 C 1944.75 -3.59395 -2.839 0
M  V30 20236 N 1946.24 -3.60004 -2.91464 0
M  V30 20237 C 1946.98 -4.52779 -3.51822 0
M  V30 20238 N 1946.48 -5.55868 -4.13501 0
M  V30 20239 N 1948.27 -4.40385 -3.4931 0
M  V30 20240 H 1940.42 -2.08985 -0.379372 0
M  V30 20241 H 1942.68 -0.919558 -0.230473 0
M  V30 20242 H 1942.39 -3.21907 -1.41665 0
M  V30 20243 H 1942.26 -2.36071 -2.94195 0
M  V30 20244 H 1944.65 -1.4386 -2.57659 0
M  V30 20245 H 1944.73 -2.33194 -1.0514 0
M  V30 20246 H 1944.37 -4.51072 -2.33445 0
M  V30 20247 H 1944.3 -3.58651 -3.85587 0
M  V30 20248 H 1946.8 -2.85455 -2.47637 0
M  V30 20249 H 1947.11 -6.22812 -4.57521 0
M  V30 20250 H 1945.45 -5.597 -4.12021 0
M  V30 20251 H 1948.64 -3.59053 -3.0033 0
M  V30 20252 H 1948.82 -5.12877 -3.96057 0
M  V30 20253 N 1942.22 1.12672 -1.10194 0
M  V30 20254 C 1943.17 2.18326 -0.748496 0
M  V30 20255 C 1944.14 1.63824 0.274007 0
M  V30 20256 O 1945.33 1.90179 0.153852 0
M  V30 20257 C 1942.47 3.4461 -0.183772 0
M  V30 20258 C 1941.58 4.13178 -1.26127 0
M  V30 20259 C 1940.71 5.27103 -0.658462 0
M  V30 20260 C 1939.75 5.87533 -1.71672 0
M  V30 20261 N 1938.89 6.92876 -1.13435 0
M  V30 20262 H 1943.73 2.47906 -1.65369 0
M  V30 20263 H 1941.27 1.21715 -0.826064 0
M  V30 20264 H 1943.22 4.16887 0.161511 0
M  V30 20265 H 1941.85 3.15456 0.684657 0
M  V30 20266 H 1940.91 3.39105 -1.72372 0
M  V30 20267 H 1942.22 4.54163 -2.06246 0
M  V30 20268 H 1941.37 6.06132 -0.26248 0
M  V30 20269 H 1940.11 4.87389 0.174183 0
M  V30 20270 H 1939.12 5.07193 -2.12215 0
M  V30 20271 H 1940.34 6.29318 -2.55217 0
M  V30 20272 H 1938.29 6.55204 -0.323127 0
M  V30 20273 H 1938.2 7.32446 -1.8724 0
M  V30 20274 H 1939.47 7.75739 -0.764838 0
M  V30 20275 N 1943.7 0.89031 1.30043 0
M  V30 20276 C 1944.98 0.43131 1.90785 0
M  V30 20277 C 1945.36 -1.08836 1.80881 0
M  V30 20278 O 1944.71 -1.92605 1.22946 0
M  V30 20279 C 1944.92 0.935377 3.36232 0
M  V30 20280 C 1946.26 0.973504 4.13289 0
M  V30 20281 O 1947.29 0.882404 3.45097 0
M  V30 20282 O 1946.15 1.10893 5.35131 0
M  V30 20283 H 1943.24 0.132845 0.816261 0
M  V30 20284 H 1945.79 0.979561 1.38574 0
M  V30 20285 H 1944.56 1.97928 3.3755 0
M  V30 20286 H 1944.18 0.366596 3.95906 0
M  V30 20287 N 1945.18 -1.43489 0.651812 0
M  V30 20288 C 1946.4 -2.06696 0.170683 0
M  V30 20289 C 1946.83 -1.48527 -1.15418 0
M  V30 20290 O 1946.19 -0.594665 -1.7127 0
M  V30 20291 C 1946.24 -3.60484 0.0915457 0
M  V30 20292 O 1945.34 -4.01388 -0.946644 0
M  V30 20293 H 1944.68 -0.65728 0.0942276 0
M  V30 20294 H 1947.21 -1.84018 0.89434 0
M  V30 20295 H 1947.22 -4.07896 -0.0922419 0
M  V30 20296 H 1945.9 -4.02199 1.0587 0
M  V30 20297 H 1944.47 -3.65569 -0.735758 0
M  V30 20298 N 1946.66 -0.393643 -1.52605 0
M  V30 20299 C 1947.57 0.446642 -2.30309 0
M  V30 20300 C 1948.58 1.06758 -1.374 0
M  V30 20301 O 1949.76 1.07246 -1.70471 0
M  V30 20302 C 1946.82 1.5564 -3.09802 0
M  V30 20303 C 1945.89 0.960113 -4.18426 0
M  V30 20304 C 1945.12 2.01698 -4.94119 0
M  V30 20305 O 1945.34 3.23273 -4.69947 0
M  V30 20306 O 1944.28 1.63186 -5.79357 0
M  V30 20307 H 1948.1 -0.186494 -3.03127 0
M  V30 20308 H 1945.69 -0.157245 -1.4857 0
M  V30 20309 H 1947.57 2.201 -3.59352 0
M  V30 20310 H 1946.24 2.17442 -2.39793 0
M  V30 20311 H 1945.15 0.278648 -3.73061 0
M  V30 20312 H 1946.48 0.386245 -4.90682 0
M  V30 20313 N 1948.14 1.57115 -0.123593 0
M  V30 20314 C 1949.55 1.82342 0.401051 0
M  V30 20315 C 1949.9 1.04102 1.66304 0
M  V30 20316 O 1949.02 0.279024 2.14594 0
M  V30 20317 C 1949.62 3.30745 0.734394 0
M  V30 20318 C 1948.18 3.56636 1.20365 0
M  V30 20319 C 1947.32 2.76468 0.214686 0
M  V30 20320 H 1950.27 1.54823 -0.348657 0
M  V30 20321 H 1950.3 3.45624 1.59137 0
M  V30 20322 H 1949.81 3.87662 -0.184288 0
M  V30 20323 H 1947.91 3.05081 2.13908 0
M  V30 20324 H 1948.02 4.65197 1.1458 0
M  V30 20325 H 1946.39 2.44816 0.702648 0
M  V30 20326 H 1947.17 3.36146 -0.697174 0
M  V30 20327 N 1949.61 -0.150187 1.56883 0
M  V30 20328 C 1951.03 -0.502717 1.51476 0
M  V30 20329 C 1951.23 -1.83545 0.831478 0
M  V30 20330 O 1950.29 -2.49301 0.400671 0
M  V30 20331 C 1951.6 -0.515965 2.9624 0
M  V30 20332 C 1953.15 -0.601702 3.07162 0
M  V30 20333 C 1953.62 -0.645643 4.53426 0
M  V30 20334 N 1955.11 -0.707954 4.57758 0
M  V30 20335 C 1955.85 -0.762883 5.68302 0
M  V30 20336 N 1955.34 -0.777353 6.88425 0
M  V30 20337 N 1957.14 -0.803521 5.56327 0
M  V30 20338 H 1949.29 0.723442 1.997 0
M  V30 20339 H 1951.55 0.263405 0.910671 0
M  V30 20340 H 1951.26 0.395034 3.49474 0
M  V30 20341 H 1951.13 -1.35501 3.52022 0
M  V30 20342 H 1953.52 -1.50312 2.53949 0
M  V30 20343 H 1953.6 0.26443 2.5443 0
M  V30 20344 H 1953.24 0.251606 5.07276 0
M  V30 20345 H 1953.17 -1.52822 5.03937 0
M  V30 20346 H 1955.66 -0.7042 3.71281 0
M  V30 20347 H 1955.98 -0.821026 7.68426 0
M  V30 20348 H 1954.32 -0.745281 6.90992 0
M  V30 20349 H 1957.51 -0.789365 4.61396 0
M  V30 20350 H 1957.69 -0.842864 6.42495 0
M  V30 20351 N 1951.09 -1.51916 -0.419434 0
M  V30 20352 C 1952.32 -1.69302 -1.1893 0
M  V30 20353 C 1952.74 -0.398024 -1.84557 0
M  V30 20354 O 1952.09 0.625083 -1.71461 0
M  V30 20355 C 1952.14 -2.82139 -2.26009 0
M  V30 20356 O 1951.86 -4.06623 -1.63064 0
M  V30 20357 C 1953.37 -3.10947 -3.15954 0
M  V30 20358 H 1950.59 -0.567657 -0.357781 0
M  V30 20359 H 1953.13 -1.98424 -0.494807 0
M  V30 20360 H 1951.28 -2.55565 -2.91144 0
M  V30 20361 H 1951.7 -4.69423 -2.33971 0
M  V30 20362 H 1953.17 -3.93438 -3.87183 0
M  V30 20363 H 1953.65 -2.24078 -3.77738 0
M  V30 20364 H 1954.26 -3.39246 -2.56499 0
M  V30 20365 N 1952.57 0.676023 -1.42365 0
M  V30 20366 C 1953.52 1.78959 -1.45747 0
M  V30 20367 C 1954.49 1.6319 -0.309563 0
M  V30 20368 O 1955.67 1.83761 -0.51346 0
M  V30 20369 C 1952.81 3.16982 -1.36441 0
M  V30 20370 C 1951.93 3.44047 -2.61257 0
M  V30 20371 C 1951.06 4.71791 -2.44103 0
M  V30 20372 C 1950.1 4.91887 -3.64299 0
M  V30 20373 N 1949.24 6.10871 -3.46094 0
M  V30 20374 H 1954.08 1.75403 -2.4091 0
M  V30 20375 H 1951.61 0.856293 -1.19608 0
M  V30 20376 H 1953.57 3.96741 -1.29044 0
M  V30 20377 H 1952.2 3.19666 -0.448744 0
M  V30 20378 H 1951.25 2.58551 -2.79026 0
M  V30 20379 H 1952.57 3.5479 -3.50607 0
M  V30 20380 H 1951.72 5.59639 -2.34285 0
M  V30 20381 H 1950.46 4.63329 -1.52241 0
M  V30 20382 H 1949.46 4.02482 -3.74551 0
M  V30 20383 H 1950.69 5.02195 -4.5714 0
M  V30 20384 H 1948.63 6.03584 -2.56949 0
M  V30 20385 H 1948.55 6.2247 -4.29031 0
M  V30 20386 H 1949.82 7.014 -3.40085 0
M  V30 20387 N 1954.05 1.28517 0.912209 0
M  V30 20388 C 1955.29 1.17014 1.67592 0
M  V30 20389 C 1955.65 -0.27643 1.9 0
M  V30 20390 O 1956.85 -0.514187 2.63836 0
M  V30 20391 C 1955.12 1.94823 2.99631 0
M  V30 20392 S 1956.68 1.99713 3.90717 0
M  V30 20393 H 1953.5 0.417458 0.575543 0
M  V30 20394 H 1956.1 1.62637 1.08488 0
M  V30 20395 H 1954.81 2.99087 2.81025 0
M  V30 20396 H 1954.34 1.49757 3.63781 0
M  V30 20397 H 1956.35 1.10475 4.83745 0
M  V30 20398 N 1955.53 -1.12086 1.1079 0
M  V30 20399 C 1956.46 -2.2001 0.78217 0
M  V30 20400 C 1957.44 -1.68305 -0.246488 0
M  V30 20401 O 1958.62 -1.9388 -0.111448 0
M  V30 20402 C 1955.75 -3.4662 0.2172 0
M  V30 20403 C 1954.71 -4.11499 1.17696 0
M  V30 20404 C 1954.03 -5.32604 0.47302 0
M  V30 20405 C 1955.33 -4.5721 2.52501 0
M  V30 20406 H 1957.03 -2.47514 1.68456 0
M  V30 20407 H 1954.57 -1.18964 0.811397 0
M  V30 20408 H 1956.53 -4.21394 -0.0228381 0
M  V30 20409 H 1955.25 -3.18555 -0.720448 0
M  V30 20410 H 1953.91 -3.38711 1.40252 0
M  V30 20411 H 1953.56 -5.00807 -0.469217 0
M  V30 20412 H 1953.26 -5.76961 1.11308 0
M  V30 20413 H 1954.78 -6.10122 0.241615 0
M  V30 20414 H 1956.19 -5.23338 2.34073 0
M  V30 20415 H 1954.59 -5.12357 3.12426 0
M  V30 20416 H 1955.66 -3.71003 3.12226 0
M  V30 20417 N 1957 -0.897194 -1.29569 0
M  V30 20418 C 1957.93 -0.389601 -2.30227 0
M  V30 20419 C 1958.92 0.53405 -1.61499 0
M  V30 20420 O 1960.1 0.44531 -1.89025 0
M  V30 20421 C 1957.23 0.385966 -3.45149 0
M  V30 20422 C 1956.18 -0.447028 -4.25659 0
M  V30 20423 C 1955.51 0.455883 -5.32753 0
M  V30 20424 C 1956.81 -1.69562 -4.9401 0
M  V30 20425 H 1958.5 -1.23077 -2.72933 0
M  V30 20426 H 1956.05 -0.593265 -1.31211 0
M  V30 20427 H 1958 0.751791 -4.1464 0
M  V30 20428 H 1956.73 1.26089 -3.01279 0
M  V30 20429 H 1955.39 -0.795152 -3.57873 0
M  V30 20430 H 1955.03 1.32887 -4.85129 0
M  V30 20431 H 1954.73 -0.0977528 -5.87519 0
M  V30 20432 H 1956.26 0.817956 -6.05097 0
M  V30 20433 H 1957.67 -1.39968 -5.55951 0
M  V30 20434 H 1956.07 -2.19039 -5.58697 0
M  V30 20435 H 1957.14 -2.43305 -4.19441 0
M  V30 20436 N 1958.48 1.43142 -0.659413 0
M  V30 20437 C 1959.43 2.32565 0.040254 0
M  V30 20438 C 1960.42 1.48961 0.806651 0
M  V30 20439 O 1961.63 1.65131 0.716353 0
M  V30 20440 H 1958.01 0.751327 0.0318053 0
M  V30 20441 H 1959.98 2.89293 -0.731581 0
M  V30 20442 C 1958.73 3.33349 0.988614 0
M  V30 20443 H 1958.05 3.9771 0.40831 0
M  V30 20444 H 1959.49 3.9854 1.44714 0
M  V30 20445 C 1957.95 2.64423 2.08763 0
M  V30 20446 O 1958.48 2.46444 3.17219 0
M  V30 20447 N 1956.68 2.23697 1.85494 0
M  V30 20448 H 1956.23 2.38519 0.972945 0
M  V30 20449 H 1956.19 1.7791 2.59221 0
M  V30 20450 N 1959.96 0.40173 1.52394 0
M  V30 20451 C 1960.91 -0.442142 2.28359 0
M  V30 20452 C 1961.9 -1.05228 1.32753 0
M  V30 20453 O 1963.11 -0.991332 1.50242 0
M  V30 20454 H 1959.48 -0.161356 0.734485 0
M  V30 20455 H 1961.45 0.219869 2.97589 0
M  V30 20456 C 1960.2 -1.55062 3.11209 0
M  V30 20457 H 1959.53 -1.09046 3.84642 0
M  V30 20458 H 1960.97 -2.11505 3.6748 0
M  V30 20459 C 1959.43 -2.51376 2.24303 0
M  V30 20460 O 1959.96 -3.55084 1.87825 0
M  V30 20461 N 1958.16 -2.2141 1.88218 0
M  V30 20462 H 1957.71 -1.37106 2.18082 0
M  V30 20463 H 1957.67 -2.861 1.30362 0
M  V30 20464 N 1961.44 -1.57047 0.131923 0
M  V30 20465 C 1962.4 -2.14813 -0.799243 0
M  V30 20466 C 1963.4 -1.08616 -1.18572 0
M  V30 20467 O 1964.59 -1.3433 -1.10911 0
M  V30 20468 C 1961.72 -2.69894 -2.08255 0
M  V30 20469 H 1962.92 -2.98426 -0.296996 0
M  V30 20470 H 1960.47 -1.55858 -0.117418 0
M  V30 20471 H 1961.2 -1.89905 -2.62881 0
M  V30 20472 H 1960.99 -3.47574 -1.81479 0
M  V30 20473 H 1962.48 -3.14451 -2.74792 0
M  V30 20474 N 1962.92 0.141865 -1.5696 0
M  V30 20475 C 1964.19 0.882597 -1.74555 0
M  V30 20476 C 1964.57 1.9911 -0.701321 0
M  V30 20477 O 1963.92 2.26792 0.278854 0
M  V30 20478 C 1964.13 1.42034 -3.18791 0
M  V30 20479 C 1965.48 1.88172 -3.80626 0
M  V30 20480 O 1966.5 1.51764 -3.22252 0
M  V30 20481 O 1965.36 2.55333 -4.83185 0
M  V30 20482 H 1962.46 0.417461 -0.713902 0
M  V30 20483 H 1965 0.127389 -1.69221 0
M  V30 20484 H 1963.77 0.623945 -3.86293 0
M  V30 20485 H 1963.4 2.2389 -3.28571 0
M  V30 20486 N 1964.39 1.52136 0.411372 0
M  V30 20487 C 1965.32 1.78277 1.50796 0
M  V30 20488 C 1966.31 0.633643 1.57857 0
M  V30 20489 O 1967.49 0.879011 1.73168 0
M  V30 20490 C 1964.62 1.93142 2.88641 0
M  V30 20491 C 1963.57 3.08727 2.96431 0
M  V30 20492 C 1962.9 3.08812 4.36508 0
M  V30 20493 C 1964.2 4.48228 2.68122 0
M  V30 20494 H 1965.89 2.70102 1.29171 0
M  V30 20495 H 1963.44 1.29971 0.619965 0
M  V30 20496 H 1965.39 2.10012 3.65339 0
M  V30 20497 H 1964.12 0.979869 3.11554 0
M  V30 20498 H 1962.78 2.91604 2.22177 0
M  V30 20499 H 1962.42 2.11383 4.56428 0
M  V30 20500 H 1962.12 3.86444 4.42645 0
M  V30 20501 H 1963.65 3.27809 5.15144 0
M  V30 20502 H 1965.06 4.65568 3.34544 0
M  V30 20503 H 1963.46 5.27761 2.85638 0
M  V30 20504 H 1964.53 4.56478 1.63572 0
M  V30 20505 N 1965.87 -0.668464 1.42721 0
M  V30 20506 C 1966.84 -1.76365 1.46384 0
M  V30 20507 C 1967.84 -1.56932 0.350554 0
M  V30 20508 O 1969.03 -1.63109 0.611658 0
M  V30 20509 C 1966.16 -3.15071 1.30164 0
M  V30 20510 H 1967.35 -1.74503 2.43903 0
M  V30 20511 H 1964.9 -0.878695 1.29262 0
M  V30 20512 H 1965.64 -3.22555 0.335926 0
M  V30 20513 H 1965.42 -3.3058 2.10853 0
M  V30 20514 H 1966.91 -3.94963 1.35625 0
M  V30 20515 N 1967.35 -1.28999 -0.905381 0
M  V30 20516 C 1968.76 -1.15033 -1.47052 0
M  V30 20517 C 1969.11 0.256623 -1.94514 0
M  V30 20518 O 1968.24 1.15164 -1.83211 0
M  V30 20519 C 1968.83 -2.08213 -2.67269 0
M  V30 20520 C 1967.39 -1.98286 -3.19937 0
M  V30 20521 C 1966.54 -1.99468 -1.92634 0
M  V30 20522 H 1969.49 -1.41566 -0.717271 0
M  V30 20523 H 1969.51 -1.65102 -3.42814 0
M  V30 20524 H 1969.02 -3.10604 -2.32695 0
M  V30 20525 H 1967.12 -0.98963 -3.59217 0
M  V30 20526 H 1967.24 -2.85666 -3.84619 0
M  V30 20527 H 1965.6 -1.43988 -2.10094 0
M  V30 20528 H 1966.38 -3.03554 -1.60344 0
M  V30 20529 N 1968.83 1.11497 -1.11383 0
M  V30 20530 C 1969.78 2.15632 -0.740724 0
M  V30 20531 C 1970.76 1.58867 0.254939 0
M  V30 20532 O 1971.96 1.76891 0.0621432 0
M  V30 20533 C 1969.08 3.42802 -0.184893 0
M  V30 20534 C 1968.17 4.06526 -1.20819 0
M  V30 20535 N 1968.56 4.45116 -2.40219 0
M  V30 20536 C 1966.86 4.3344 -1.05098 0
M  V30 20537 C 1967.56 4.95035 -3.05476 0
M  V30 20538 N 1966.54 4.91153 -2.32958 0
M  V30 20539 H 1970.34 2.43247 -1.64949 0
M  V30 20540 H 1967.85 1.28505 -0.992984 0
M  V30 20541 H 1969.85 4.16779 0.100531 0
M  V30 20542 H 1968.51 3.16652 0.718463 0
M  V30 20543 H 1969.52 4.37167 -2.77678 0
M  V30 20544 H 1966.2 4.17001 -0.204008 0
M  V30 20545 H 1967.59 5.34529 -4.07097 0
M  V30 20546 N 1970.31 0.904053 1.29092 0
M  V30 20547 C 1971.26 0.356356 2.25198 0
M  V30 20548 C 1972.24 -0.526041 1.52058 0
M  V30 20549 O 1973.43 -0.367347 1.73146 0
M  V30 20550 C 1970.56 -0.411177 3.40829 0
M  V30 20551 C 1969.65 0.486388 4.21302 0
M  V30 20552 N 1970.04 1.59559 4.79974 0
M  V30 20553 C 1968.34 0.284978 4.45089 0
M  V30 20554 C 1969.04 2.15192 5.40433 0
M  V30 20555 N 1968.01 1.4444 5.24059 0
M  V30 20556 H 1971.82 1.20361 2.68124 0
M  V30 20557 H 1969.33 0.755599 1.43751 0
M  V30 20558 H 1971.33 -0.820324 4.0875 0
M  V30 20559 H 1969.99 -1.25564 2.99439 0
M  V30 20560 H 1971 1.97828 4.78628 0
M  V30 20561 H 1967.68 -0.520766 4.14239 0
M  V30 20562 H 1969.07 3.08444 5.96919 0
M  V30 20563 N 1971.79 -1.4279 0.666995 0
M  V30 20564 C 1973.2 -1.84821 0.264217 0
M  V30 20565 C 1973.55 -1.55834 -1.19206 0
M  V30 20566 O 1972.67 -1.01422 -1.91161 0
M  V30 20567 C 1973.27 -3.35485 0.47276 0
M  V30 20568 C 1971.83 -3.76195 0.124176 0
M  V30 20569 C 1970.97 -2.66424 0.768989 0
M  V30 20570 H 1973.92 -1.32747 0.869709 0
M  V30 20571 H 1973.95 -3.79487 -0.277532 0
M  V30 20572 H 1973.46 -3.56551 1.53274 0
M  V30 20573 H 1971.56 -3.60738 -0.932667 0
M  V30 20574 H 1971.67 -4.75825 0.559251 0
M  V30 20575 H 1970.04 -2.53906 0.200994 0
M  V30 20576 H 1970.82 -2.90315 1.83227 0
M  V30 20577 N 1973.26 -0.409806 -1.52179 0
M  V30 20578 C 1974.21 0.415351 -2.27032 0
M  V30 20579 C 1975.18 1.04048 -1.29473 0
M  V30 20580 O 1976.37 1.06462 -1.58336 0
M  V30 20581 C 1973.51 1.52571 -3.09542 0
M  V30 20582 C 1972.62 0.921439 -4.22059 0
M  V30 20583 C 1971.75 2.00455 -4.91926 0
M  V30 20584 C 1970.79 1.37725 -5.96404 0
M  V30 20585 N 1969.93 2.40054 -6.59787 0
M  V30 20586 H 1974.77 -0.22939 -2.97116 0
M  V30 20587 H 1972.31 -0.124962 -1.46568 0
M  V30 20588 H 1974.26 2.18046 -3.55685 0
M  V30 20589 H 1972.89 2.14047 -2.41627 0
M  V30 20590 H 1971.95 0.15572 -3.80081 0
M  V30 20591 H 1973.26 0.423208 -4.97001 0
M  V30 20592 H 1972.41 2.73655 -5.41477 0
M  V30 20593 H 1971.15 2.53644 -4.16552 0
M  V30 20594 H 1970.16 0.63059 -5.46172 0
M  V30 20595 H 1971.38 0.853049 -6.73721 0
M  V30 20596 H 1969.33 2.92374 -5.87242 0
M  V30 20597 H 1969.24 1.95045 -7.30406 0
M  V30 20598 H 1970.51 3.12822 -7.13977 0
M  V30 20599 N 1974.74 1.56975 -0.14025 0
M  V30 20600 C 1976.02 1.87494 0.557244 0
M  V30 20601 C 1976.4 1.04507 1.83416 0
M  V30 20602 O 1975.75 0.129958 2.2813 0
M  V30 20603 C 1975.96 3.39006 0.829213 0
M  V30 20604 C 1977.3 4.08077 1.17296 0
M  V30 20605 O 1978.33 3.44146 0.918788 0
M  V30 20606 O 1977.19 5.20966 1.65096 0
M  V30 20607 H 1974.28 0.776892 0.283492 0
M  V30 20608 H 1976.83 1.68781 -0.176354 0
M  V30 20609 H 1975.6 3.91229 -0.0747688 0
M  V30 20610 H 1975.22 3.63224 1.61723 0
M  V30 20611 N 1976.22 -0.133539 1.57033 0
M  V30 20612 C 1977.63 -0.692222 1.73393 0
M  V30 20613 C 1977.98 -1.81019 0.756735 0
M  V30 20614 O 1977.11 -2.16275 -0.0736448 0
M  V30 20615 C 1977.7 -1.26245 3.144 0
M  V30 20616 C 1976.26 -1.76756 3.32316 0
M  V30 20617 C 1975.41 -0.661397 2.69297 0
M  V30 20618 H 1978.36 0.0922563 1.58432 0
M  V30 20619 H 1978.38 -2.13221 3.15146 0
M  V30 20620 H 1977.89 -0.44855 3.85499 0
M  V30 20621 H 1975.99 -2.6067 2.66236 0
M  V30 20622 H 1976.11 -1.88702 4.40373 0
M  V30 20623 H 1974.47 -1.0914 2.30132 0
M  V30 20624 H 1975.25 0.141281 3.43009 0
M  V30 20625 N 1977.7 -1.52352 -0.403298 0
M  V30 20626 C 1978.94 -1.66944 -1.15141 0
M  V30 20627 C 1979.28 -0.401064 -1.90013 0
M  V30 20628 O 1978.55 0.60071 -1.84991 0
M  V30 20629 C 1978.83 -2.89526 -2.14118 0
M  V30 20630 C 1978.69 -4.26428 -1.43104 0
M  V30 20631 C 1980.01 -3.07636 -3.14719 0
M  V30 20632 H 1977.13 -0.607531 -0.417223 0
M  V30 20633 H 1979.77 -1.84919 -0.436447 0
M  V30 20634 H 1977.92 -2.74332 -2.7509 0
M  V30 20635 H 1979.59 -4.53362 -0.852075 0
M  V30 20636 H 1977.83 -4.27563 -0.732965 0
M  V30 20637 H 1978.5 -5.08258 -2.15355 0
M  V30 20638 H 1980.98 -3.21767 -2.63828 0
M  V30 20639 H 1979.86 -3.94909 -3.81232 0
M  V30 20640 H 1980.12 -2.2121 -3.82777 0
M  V30 20641 N 1979.18 0.660885 -1.43074 0
M  V30 20642 C 1980.09 1.80324 -1.50068 0
M  V30 20643 C 1981.1 1.69611 -0.388331 0
M  V30 20644 O 1982.28 1.90916 -0.641321 0
M  V30 20645 C 1979.34 3.16557 -1.41394 0
M  V30 20646 C 1978.4 3.39124 -2.63236 0
M  V30 20647 C 1977.64 4.68858 -2.54967 0
M  V30 20648 O 1977.86 5.47699 -1.59318 0
M  V30 20649 O 1976.79 4.92975 -3.45339 0
M  V30 20650 H 1980.62 1.77379 -2.46516 0
M  V30 20651 H 1978.2 0.8184 -1.2499 0
M  V30 20652 H 1980.09 3.97825 -1.38971 0
M  V30 20653 H 1978.76 3.2011 -0.480768 0
M  V30 20654 H 1977.67 2.5765 -2.71233 0
M  V30 20655 H 1979 3.40413 -3.555 0
M  V30 20656 N 1980.65 1.29477 0.898527 0
M  V30 20657 C 1981.59 1.0903 2.00469 0
M  V30 20658 C 1982.57 0.00183835 1.626 0
M  V30 20659 O 1983.75 0.152763 1.8788 0
M  V30 20660 C 1980.88 0.660044 3.32206 0
M  V30 20661 C 1979.92 1.74739 3.89061 0
M  V30 20662 S 1980.76 3.34687 4.18025 0
M  V30 20663 C 1981.91 2.93532 5.52802 0
M  V30 20664 H 1982.14 2.0268 2.17505 0
M  V30 20665 H 1979.68 1.13637 1.04527 0
M  V30 20666 H 1981.64 0.418518 4.08361 0
M  V30 20667 H 1980.3 -0.256865 3.13048 0
M  V30 20668 H 1979.49 1.39831 4.84214 0
M  V30 20669 H 1979.09 1.9425 3.19598 0
M  V30 20670 H 1981.38 2.4065 6.3332 0
M  V30 20671 H 1982.33 3.87541 5.92636 0
M  V30 20672 H 1982.73 2.31793 5.14716 0
M  V30 20673 N 1982.13 -1.10905 1.11972 0
M  V30 20674 C 1983.55 -1.3478 0.854776 0
M  V30 20675 C 1983.75 -1.94737 -0.517653 0
M  V30 20676 O 1982.8 -2.18391 -1.26734 0
M  V30 20677 C 1984.12 -2.27414 1.96732 0
M  V30 20678 C 1985.67 -2.40964 1.99764 0
M  V30 20679 C 1986.14 -3.36923 3.10237 0
M  V30 20680 N 1987.63 -3.44488 3.09648 0
M  V30 20681 C 1988.37 -4.18695 3.91768 0
M  V30 20682 N 1987.86 -4.95829 4.83865 0
M  V30 20683 N 1989.66 -4.14263 3.79924 0
M  V30 20684 H 1981.81 -0.703538 2.0041 0
M  V30 20685 H 1984.07 -0.372318 0.871828 0
M  V30 20686 H 1983.78 -1.90561 2.956 0
M  V30 20687 H 1983.65 -3.27681 1.86829 0
M  V30 20688 H 1986.04 -2.77089 1.01518 0
M  V30 20689 H 1986.12 -1.40529 2.13741 0
M  V30 20690 H 1985.76 -3.01524 4.08712 0
M  V30 20691 H 1985.69 -4.37225 2.93499 0
M  V30 20692 H 1988.18 -2.89475 2.42925 0
M  V30 20693 H 1988.5 -5.49836 5.43047 0
M  V30 20694 H 1986.84 -4.9497 4.87883 0
M  V30 20695 H 1990.03 -3.53095 3.07314 0
M  V30 20696 H 1990.2 -4.71837 4.44155 0
M  V30 20697 N 1983.61 -0.910886 -1.2861 0
M  V30 20698 C 1985.03 -0.608615 -1.4754 0
M  V30 20699 C 1985.23 0.846869 -1.8284 0
M  V30 20700 O 1984.28 1.62618 -1.93162 0
M  V30 20701 C 1985.6 -1.54405 -2.5803 0
M  V30 20702 C 1987.14 -1.55046 -2.719 0
M  V30 20703 C 1987.62 -2.47245 -3.85531 0
M  V30 20704 N 1989.11 -2.45356 -3.9288 0
M  V30 20705 C 1989.84 -3.13394 -4.80179 0
M  V30 20706 N 1989.34 -3.90751 -5.72088 0
M  V30 20707 N 1991.13 -3.02495 -4.73765 0
M  V30 20708 H 1983.28 -1.8521 -1.03977 0
M  V30 20709 H 1985.55 -0.794235 -0.517585 0
M  V30 20710 H 1985.25 -2.5816 -2.38844 0
M  V30 20711 H 1985.13 -1.27299 -3.5507 0
M  V30 20712 H 1987.51 -0.520311 -2.90477 0
M  V30 20713 H 1987.6 -1.86195 -1.754 0
M  V30 20714 H 1987.24 -3.50361 -3.67709 0
M  V30 20715 H 1987.17 -2.134 -4.81423 0
M  V30 20716 H 1989.66 -1.89161 -3.27149 0
M  V30 20717 H 1989.97 -4.39694 -6.35523 0
M  V30 20718 H 1988.32 -3.94857 -5.71938 0
M  V30 20719 H 1991.51 -2.41567 -4.00953 0
M  V30 20720 H 1991.68 -3.55793 -5.41586 0
M  V30 20721 N 1985.09 1.42434 -0.674558 0
M  V30 20722 C 1986.34 2.00765 -0.193936 0
M  V30 20723 C 1986.65 1.53957 1.20651 0
M  V30 20724 O 1987.86 2.04705 1.78348 0
M  V30 20725 C 1986.31 3.58682 -0.295862 0
M  V30 20726 C 1985.92 4.14478 -1.70034 0
M  V30 20727 C 1987.66 4.24313 0.12606 0
M  V30 20728 C 1985.57 5.64758 -1.75505 0
M  V30 20729 H 1984.5 0.75086 -0.0687443 0
M  V30 20730 H 1987.15 1.6316 -0.839705 0
M  V30 20731 H 1985.53 3.9379 0.417795 0
M  V30 20732 H 1986.71 3.90831 -2.44106 0
M  V30 20733 H 1985.02 3.61298 -2.07009 0
M  V30 20734 H 1987.62 5.34596 0.105331 0
M  V30 20735 H 1987.96 3.99775 1.16127 0
M  V30 20736 H 1988.5 3.94164 -0.536581 0
M  V30 20737 H 1985.24 5.94094 -2.77007 0
M  V30 20738 H 1984.76 5.90397 -1.05788 0
M  V30 20739 H 1986.43 6.29172 -1.50838 0
M  V30 20740 N 1986.57 0.417871 1.51959 0
M  V30 20741 C 1987.51 -0.417897 2.28815 0
M  V30 20742 C 1988.51 -1.03814 1.33862 0
M  V30 20743 O 1989.71 -0.975341 1.51285 0
M  V30 20744 H 1986.09 -0.153557 0.736155 0
M  V30 20745 H 1988.06 0.25142 2.97339 0
M  V30 20746 C 1986.81 -1.51752 3.12836 0
M  V30 20747 H 1986.13 -1.0496 3.85776 0
M  V30 20748 H 1987.57 -2.07595 3.69703 0
M  V30 20749 C 1986.03 -2.48983 2.26957 0
M  V30 20750 O 1986.56 -3.53072 1.91581 0
M  V30 20751 N 1984.77 -2.19401 1.90556 0
M  V30 20752 H 1984.31 -1.34786 2.19524 0
M  V30 20753 H 1984.27 -2.84701 1.3339 0
M  V30 20754 N 1988.04 -1.56898 0.148573 0
M  V30 20755 C 1989.29 -1.96175 -0.502146 0
M  V30 20756 C 1989.62 -1.0335 -1.6477 0
M  V30 20757 O 1988.87 -0.0630213 -1.95599 0
M  V30 20758 C 1989.17 -3.41691 -1.04795 0
M  V30 20759 C 1988.84 -4.50895 -0.0206862 0
M  V30 20760 C 1987.5 -4.80488 0.261702 0
M  V30 20761 C 1989.85 -5.16774 0.677784 0
M  V30 20762 C 1987.18 -5.73266 1.24834 0
M  V30 20763 C 1989.53 -6.10615 1.65325 0
M  V30 20764 C 1988.2 -6.38585 1.94332 0
M  V30 20765 H 1987.47 -0.717856 -0.183748 0
M  V30 20766 H 1990.11 -1.90044 0.235735 0
M  V30 20767 H 1988.42 -3.44662 -1.8632 0
M  V30 20768 H 1990.12 -3.6941 -1.56004 0
M  V30 20769 H 1986.71 -4.27865 -0.250964 0
M  V30 20770 H 1990.89 -4.94043 0.472813 0
M  V30 20771 H 1986.15 -5.93229 1.4795 0
M  V30 20772 H 1990.32 -6.60738 2.19997 0
M  V30 20773 H 1987.95 -7.1028 2.70935 0
M  V30 20774 N 1989.52 0.125209 -1.57102 0
M  V30 20775 C 1990.45 1.17944 -1.96524 0
M  V30 20776 C 1991.47 1.37997 -0.863757 0
M  V30 20777 O 1992.66 1.37182 -1.14208 0
M  V30 20778 C 1989.76 2.54056 -2.24296 0
M  V30 20779 C 1988.93 2.5469 -3.55601 0
M  V30 20780 C 1987.99 3.72501 -3.71658 0
M  V30 20781 O 1987.01 3.56372 -4.43833 0
M  V30 20782 N 1988.22 4.90822 -3.09958 0
M  V30 20783 H 1990.98 0.844157 -2.87566 0
M  V30 20784 H 1988.54 0.314552 -1.58815 0
M  V30 20785 H 1990.53 3.31418 -2.32259 0
M  V30 20786 H 1989.1 2.79791 -1.39412 0
M  V30 20787 H 1988.32 1.63087 -3.58882 0
M  V30 20788 H 1989.61 2.52164 -4.41917 0
M  V30 20789 H 1989.01 5.0683 -2.51276 0
M  V30 20790 H 1987.57 5.65882 -3.23451 0
M  V30 20791 N 1991 1.52564 0.395213 0
M  V30 20792 C 1992.23 1.71173 1.16222 0
M  V30 20793 C 1992.64 0.427335 1.839 0
M  V30 20794 O 1992 -0.597726 1.72434 0
M  V30 20795 C 1992.05 2.85698 2.21492 0
M  V30 20796 O 1991.77 4.09165 1.56574 0
M  V30 20797 C 1993.27 3.15934 3.10967 0
M  V30 20798 H 1990.49 0.573277 0.348705 0
M  V30 20799 H 1993.04 1.99186 0.463177 0
M  V30 20800 H 1991.19 2.60165 2.87042 0
M  V30 20801 H 1991.61 4.73086 2.26473 0
M  V30 20802 H 1993.08 3.99548 3.80874 0
M  V30 20803 H 1993.56 2.30059 3.74125 0
M  V30 20804 H 1994.16 3.43284 2.5107 0
M  V30 20805 N 1992.48 -0.653289 1.43422 0
M  V30 20806 C 1993.89 -1.23446 1.40064 0
M  V30 20807 C 1994.24 -1.95921 0.104677 0
M  V30 20808 O 1993.37 -2.01233 -0.79588 0
M  V30 20809 C 1993.96 -2.24523 2.53722 0
M  V30 20810 C 1992.52 -2.78117 2.53629 0
M  V30 20811 C 1991.67 -1.52759 2.3143 0
M  V30 20812 H 1994.62 -0.445312 1.52324 0
M  V30 20813 H 1994.64 -3.06696 2.25207 0
M  V30 20814 H 1994.15 -1.71746 3.4803 0
M  V30 20815 H 1992.25 -3.34957 1.632 0
M  V30 20816 H 1992.36 -3.25667 3.51394 0
M  V30 20817 H 1990.73 -1.80104 1.80096 0
M  V30 20818 H 1991.51 -1.01917 3.27823 0
M  V30 20819 N 1993.96 -1.29952 -0.891648 0
M  V30 20820 C 1995.23 -1.09057 -1.62376 0
M  V30 20821 C 1995.61 0.362482 -2.07965 0
M  V30 20822 O 1994.96 1.35277 -1.84153 0
M  V30 20823 C 1995.17 -2.08543 -2.79841 0
M  V30 20824 C 1996.52 -2.39899 -3.50333 0
M  V30 20825 O 1997.54 -2.06801 -2.90021 0
M  V30 20826 O 1996.4 -2.96487 -4.59083 0
M  V30 20827 H 1993.5 -0.418386 -0.71336 0
M  V30 20828 H 1996.04 -1.41353 -0.939009 0
M  V30 20829 H 1994.81 -3.06378 -2.43409 0
M  V30 20830 H 1994.44 -1.77024 -3.56017 0
M  V30 20831 N 1995.44 1.1031 -1.12559 0
M  V30 20832 C 1996.66 1.86618 -0.9049 0
M  V30 20833 C 1997.09 1.80164 0.540597 0
M  V30 20834 O 1996.44 1.17252 1.38281 0
M  V30 20835 C 1996.49 3.32903 -1.38592 0
M  V30 20836 O 1995.6 4.08508 -0.565225 0
M  V30 20837 H 1994.94 0.579019 -0.325013 0
M  V30 20838 H 1997.47 1.39359 -1.498 0
M  V30 20839 H 1997.48 3.83753 -1.38556 0
M  V30 20840 H 1996.15 3.36917 -2.43844 0
M  V30 20841 H 1994.73 3.67494 -0.632682 0
M  V30 20842 N 1996.91 0.917694 1.28125 0
M  V30 20843 C 1998.16 0.551804 1.94421 0
M  V30 20844 C 1998.48 -0.908163 1.72561 0
M  V30 20845 O 1997.75 -1.64255 1.06758 0
M  V30 20846 H 1996.33 0.201081 0.719427 0
M  V30 20847 H 1998.99 1.16791 1.56032 0
M  V30 20848 H 1998.09 0.749587 3.02965 0
M  V30 20849 N 1998.39 -1.42074 0.682102 0
M  V30 20850 C 1999.32 -2.33489 0.0224223 0
M  V30 20851 C 2000.3 -1.51082 -0.781557 0
M  V30 20852 O 2001.49 -1.79662 -0.737243 0
M  V30 20853 C 1998.62 -3.34773 -0.92434 0
M  V30 20854 C 1997.57 -4.2739 -0.228431 0
M  V30 20855 C 1996.9 -5.1894 -1.28863 0
M  V30 20856 C 1998.2 -5.14539 0.897035 0
M  V30 20857 H 1999.89 -2.88901 0.785898 0
M  V30 20858 H 1997.44 -1.38913 0.379376 0
M  V30 20859 H 1999.39 -3.97641 -1.39497 0
M  V30 20860 H 1998.11 -2.77681 -1.71932 0
M  V30 20861 H 1996.77 -3.65927 0.222034 0
M  V30 20862 H 1996.42 -4.5817 -2.07579 0
M  V30 20863 H 1996.12 -5.81736 -0.828084 0
M  V30 20864 H 1997.65 -5.84683 -1.76005 0
M  V30 20865 H 1999.06 -5.71051 0.507296 0
M  V30 20866 H 1997.46 -5.86206 1.28383 0
M  V30 20867 H 1998.53 -4.52505 1.74263 0
M  V30 20868 N 1999.87 -0.425924 -1.51735 0
M  V30 20869 C 2001.29 -0.0776294 -1.59411 0
M  V30 20870 C 2001.49 1.41186 -1.43767 0
M  V30 20871 O 2000.54 2.18056 -1.27311 0
M  V30 20872 C 2001.85 -0.58755 -2.94904 0
M  V30 20873 C 2003.4 -0.54699 -3.08183 0
M  V30 20874 C 2003.88 -1.0337 -4.46182 0
M  V30 20875 N 2005.37 -0.991208 -4.5247 0
M  V30 20876 C 2006.1 -1.3388 -5.57552 0
M  V30 20877 N 2005.6 -1.75868 -6.70106 0
M  V30 20878 N 2007.39 -1.25769 -5.47849 0
M  V30 20879 H 1999.54 -1.39519 -1.60151 0
M  V30 20880 H 2001.81 -0.574214 -0.754309 0
M  V30 20881 H 2001.51 -1.62925 -3.11686 0
M  V30 20882 H 2001.39 -0.0062584 -3.77199 0
M  V30 20883 H 2003.77 0.485701 -2.91076 0
M  V30 20884 H 2003.85 -1.16454 -2.27754 0
M  V30 20885 H 2003.5 -2.0648 -4.64035 0
M  V30 20886 H 2003.43 -0.39279 -5.25133 0
M  V30 20887 H 2005.92 -0.682721 -3.71682 0
M  V30 20888 H 2006.23 -2.00657 -7.46295 0
M  V30 20889 H 2004.58 -1.79785 -6.71344 0
M  V30 20890 H 2007.77 -0.928407 -4.58801 0
M  V30 20891 H 2007.94 -1.53187 -6.29633 0
M  V30 20892 N 2001.35 1.56817 -0.156891 0
M  V30 20893 C 2002.57 2.01242 0.501622 0
M  V30 20894 C 2003 1.03635 1.56976 0
M  V30 20895 O 2002.36 0.0136188 1.81295 0
M  V30 20896 C 2002.4 3.44357 1.07007 0
M  V30 20897 O 2001.51 3.49783 2.18461 0
M  V30 20898 H 2000.85 0.652757 0.121673 0
M  V30 20899 H 2003.38 2.02985 -0.256537 0
M  V30 20900 H 2003.39 3.83364 1.39628 0
M  V30 20901 H 2002.06 4.14902 0.287924 0
M  V30 20902 H 2000.64 3.22626 1.86994 0
M  V30 20903 N 2002.83 -0.116876 1.57166 0
M  V30 20904 C 2004.24 -0.673792 1.74118 0
M  V30 20905 C 2004.59 -1.80206 0.775892 0
M  V30 20906 O 2003.71 -2.16341 -0.0507019 0
M  V30 20907 C 2004.31 -1.22903 3.15722 0
M  V30 20908 C 2002.87 -1.73222 3.34172 0
M  V30 20909 C 2002.01 -0.632798 2.69983 0
M  V30 20910 H 2004.96 0.109055 1.58325 0
M  V30 20911 H 2004.99 -2.09867 3.1739 0
M  V30 20912 H 2004.5 -0.407637 3.85953 0
M  V30 20913 H 2002.6 -2.57832 2.68986 0
M  V30 20914 H 2002.71 -1.8402 4.4235 0
M  V30 20915 H 2001.08 -1.06693 2.31276 0
M  V30 20916 H 2001.86 0.177653 3.4284 0
M  V30 20917 N 2004.3 -1.52772 -0.387116 0
M  V30 20918 C 2005.23 -1.80654 -1.47941 0
M  V30 20919 C 2006.21 -0.658677 -1.56829 0
M  V30 20920 O 2007.4 -0.906449 -1.71747 0
M  V30 20921 C 2004.53 -1.97709 -2.85532 0
M  V30 20922 C 2003.48 -3.13404 -2.91482 0
M  V30 20923 C 2002.81 -3.15717 -4.3154 0
M  V30 20924 C 2004.11 -4.52437 -2.60957 0
M  V30 20925 H 2005.8 -2.72123 -1.24858 0
M  V30 20926 H 2003.35 -1.30941 -0.59921 0
M  V30 20927 H 2005.3 -2.15798 -3.61952 0
M  V30 20928 H 2004.03 -1.02931 -3.09956 0
M  V30 20929 H 2002.69 -2.95102 -2.1751 0
M  V30 20930 H 2002.33 -2.18618 -4.53007 0
M  V30 20931 H 2002.03 -3.93437 -4.36441 0
M  V30 20932 H 2003.56 -3.35963 -5.09864 0
M  V30 20933 H 2004.97 -4.70831 -3.27095 0
M  V30 20934 H 2003.37 -5.32238 -2.77205 0
M  V30 20935 H 2004.44 -4.59022 -1.5629 0
M  V30 20936 N 2005.78 0.645673 -1.43767 0
M  V30 20937 C 2007.2 0.962209 -1.27333 0
M  V30 20938 C 2007.4 2.0052 -0.198519 0
M  V30 20939 O 2006.45 2.48974 0.420512 0
M  V30 20940 C 2007.77 1.4393 -2.64016 0
M  V30 20941 C 2009.31 1.55555 -2.71609 0
M  V30 20942 C 2009.79 2.06652 -4.08728 0
M  V30 20943 N 2011.28 2.13944 -4.10831 0
M  V30 20944 C 2012.02 2.54619 -5.13767 0
M  V30 20945 N 2011.51 2.94536 -6.27073 0
M  V30 20946 N 2013.3 2.54625 -5.01121 0
M  V30 20947 H 2005.46 -0.0443554 -2.12354 0
M  V30 20948 H 2007.72 0.042755 -0.947035 0
M  V30 20949 H 2007.42 0.747304 -3.43669 0
M  V30 20950 H 2007.3 2.41297 -2.89923 0
M  V30 20951 H 2009.69 2.23854 -1.92285 0
M  V30 20952 H 2009.77 0.566006 -2.49459 0
M  V30 20953 H 2009.41 1.38952 -4.88523 0
M  V30 20954 H 2009.34 3.06451 -4.28247 0
M  V30 20955 H 2011.83 1.85838 -3.29048 0
M  V30 20956 H 2012.14 3.24345 -7.01442 0
M  V30 20957 H 2010.49 2.92323 -6.30533 0
M  V30 20958 H 2013.68 2.22822 -4.11665 0
M  V30 20959 H 2013.85 2.86002 -5.81469 0
M  V30 20960 N 2007.26 1.30423 0.884744 0
M  V30 20961 C 2008.17 1.18747 2.02327 0
M  V30 20962 C 2009.19 0.107354 1.73669 0
M  V30 20963 O 2010.36 0.322332 1.98804 0
M  V30 20964 C 2007.43 0.880361 3.35336 0
M  V30 20965 C 2006.49 2.04587 3.77416 0
M  V30 20966 C 2005.72 1.75332 5.04078 0
M  V30 20967 O 2005.94 0.68135 5.66316 0
M  V30 20968 O 2004.88 2.60579 5.4257 0
M  V30 20969 H 2008.7 2.14391 2.15105 0
M  V30 20970 H 2006.29 1.10019 1.01076 0
M  V30 20971 H 2008.17 0.7243 4.15129 0
M  V30 20972 H 2006.85 -0.0461673 3.23667 0
M  V30 20973 H 2005.75 2.25726 2.98326 0
M  V30 20974 H 2007.09 2.95413 3.9369 0
M  V30 20975 N 2008.74 -1.09711 1.13142 0
M  V30 20976 C 2010.15 -1.63323 0.904565 0
M  V30 20977 C 2010.5 -1.88052 -0.559546 0
M  V30 20978 O 2009.62 -1.62804 -1.42562 0
M  V30 20979 C 2010.22 -2.96707 1.63556 0
M  V30 20980 C 2008.78 -3.47156 1.45465 0
M  V30 20981 C 2007.93 -2.21625 1.66667 0
M  V30 20982 H 2010.88 -0.931125 1.28514 0
M  V30 20983 H 2010.9 -3.64525 1.09094 0
M  V30 20984 H 2010.41 -2.78677 2.70113 0
M  V30 20985 H 2008.51 -3.70315 0.411972 0
M  V30 20986 H 2008.62 -4.24784 2.21576 0
M  V30 20987 H 2006.99 -2.30136 1.0913 0
M  V30 20988 H 2007.77 -2.06118 2.74537 0
M  V30 20989 N 2010.22 -0.924476 -1.27637 0
M  V30 20990 C 2011.46 -0.562107 -1.94126 0
M  V30 20991 C 2011.79 0.898999 -1.7304 0
M  V30 20992 O 2011.06 1.63686 -1.07627 0
M  V30 20993 H 2009.64 -0.204894 -0.718351 0
M  V30 20994 H 2012.3 -1.17617 -1.5541 0
M  V30 20995 H 2011.39 -0.765644 -3.02563 0
M  V30 20996 N 2011.69 1.41711 -0.689627 0
M  V30 20997 C 2012.94 2.01322 -0.218086 0
M  V30 20998 C 2013.27 1.54591 1.18033 0
M  V30 20999 O 2012.52 0.7453 1.80952 0
M  V30 21000 C 2012.82 3.56737 -0.217544 0
M  V30 21001 C 2012.49 4.22956 -1.56266 0
M  V30 21002 C 2011.15 4.40759 -1.93093 0
M  V30 21003 C 2013.5 4.6014 -2.44787 0
M  V30 21004 C 2010.83 4.93021 -3.18036 0
M  V30 21005 C 2013.18 5.13789 -3.69058 0
M  V30 21006 C 2011.85 5.29804 -4.06034 0
M  V30 21007 H 2011.12 0.73669 -0.0798034 0
M  V30 21008 H 2013.76 1.69691 -0.887543 0
M  V30 21009 H 2012.07 3.88124 0.535453 0
M  V30 21010 H 2013.77 4.00661 0.16474 0
M  V30 21011 H 2010.36 4.09469 -1.26622 0
M  V30 21012 H 2014.54 4.46045 -2.17617 0
M  V30 21013 H 2009.8 5.03605 -3.46687 0
M  V30 21014 H 2013.97 5.41543 -4.37841 0
M  V30 21015 H 2011.6 5.70064 -5.02923 0
M  V30 21016 N 2013.17 0.433965 1.51507 0
M  V30 21017 C 2014.12 -0.397051 2.24516 0
M  V30 21018 C 2015.11 -0.992896 1.26611 0
M  V30 21019 O 2016.3 -0.911595 1.5172 0
M  V30 21020 C 2013.43 -1.49953 3.08819 0
M  V30 21021 C 2012.51 -0.913247 4.1415 0
M  V30 21022 N 2012.9 -0.0558268 5.05769 0
M  V30 21023 C 2011.2 -1.18118 4.30074 0
M  V30 21024 C 2011.9 0.27308 5.81059 0
M  V30 21025 N 2010.88 -0.342445 5.4252 0
M  V30 21026 H 2014.68 0.264043 2.92712 0
M  V30 21027 H 2012.2 0.245838 1.60528 0
M  V30 21028 H 2014.19 -2.1077 3.59696 0
M  V30 21029 H 2012.85 -2.163 2.42166 0
M  V30 21030 H 2013.86 0.310359 5.16969 0
M  V30 21031 H 2010.54 -1.84239 3.74649 0
M  V30 21032 H 2011.93 0.970595 6.64853 0
M  V30 21033 N 2014.65 -1.56732 0.165206 0
M  V30 21034 C 2015.9 -1.96697 -0.481311 0
M  V30 21035 C 2016.23 -1.05092 -1.63664 0
M  V30 21036 O 2015.48 -0.0837635 -1.95521 0
M  V30 21037 C 2015.78 -3.42783 -1.01165 0
M  V30 21038 C 2015.45 -4.50892 0.0271385 0
M  V30 21039 C 2014.11 -4.80183 0.31265 0
M  V30 21040 C 2016.46 -5.16026 0.732556 0
M  V30 21041 C 2013.79 -5.71909 1.30907 0
M  V30 21042 C 2016.14 -6.08827 1.71792 0
M  V30 21043 C 2014.8 -6.36488 2.01094 0
M  V30 21044 H 2014.07 -0.719765 -0.176124 0
M  V30 21045 H 2016.72 -1.89783 0.255878 0
M  V30 21046 H 2015.03 -3.46619 -1.82654 0
M  V30 21047 H 2016.72 -3.71044 -1.52078 0
M  V30 21048 H 2013.31 -4.28107 -0.205569 0
M  V30 21049 H 2017.5 -4.93513 0.525186 0
M  V30 21050 H 2012.75 -5.91626 1.54234 0
M  V30 21051 H 2016.93 -6.58367 2.26993 0
M  V30 21052 H 2014.55 -7.07367 2.78454 0
M  V30 21053 N 2016.13 0.10854 -1.57226 0
M  V30 21054 C 2017.04 1.15125 -2.0441 0
M  V30 21055 C 2018.05 1.44693 -0.966436 0
M  V30 21056 O 2019.23 1.55601 -1.27868 0
M  V30 21057 C 2016.3 2.45528 -2.44779 0
M  V30 21058 C 2015.36 2.23263 -3.66677 0
M  V30 21059 C 2014.59 3.47448 -4.05112 0
M  V30 21060 O 2014.81 4.55164 -3.43776 0
M  V30 21061 O 2013.75 3.37831 -4.9815 0
M  V30 21062 H 2017.57 0.780533 -2.93498 0
M  V30 21063 H 2015.16 0.320091 -1.45931 0
M  V30 21064 H 2017.04 3.22339 -2.71432 0
M  V30 21065 H 2015.71 2.82052 -1.58834 0
M  V30 21066 H 2014.62 1.44276 -3.4516 0
M  V30 21067 H 2015.95 1.91638 -4.53361 0
M  V30 21068 N 2017.61 1.52975 0.379009 0
M  V30 21069 C 2018.83 1.72698 1.14849 0
M  V30 21070 C 2019.26 0.448814 1.82667 0
M  V30 21071 O 2018.61 -0.596182 1.71217 0
M  V30 21072 C 2018.66 2.884 2.16466 0
M  V30 21073 O 2017.77 2.56071 3.23267 0
M  V30 21074 H 2017.11 0.573952 0.333878 0
M  V30 21075 H 2019.64 1.99807 0.440243 0
M  V30 21076 H 2019.65 3.14183 2.60295 0
M  V30 21077 H 2018.32 3.8112 1.66494 0
M  V30 21078 H 2016.9 2.41063 2.84505 0
M  V30 21079 N 2019.08 -0.63804 1.44107 0
M  V30 21080 C 2020.02 -1.76291 1.44903 0
M  V30 21081 C 2021 -1.59644 0.308656 0
M  V30 21082 O 2022.18 -1.81621 0.504576 0
M  V30 21083 C 2019.31 -3.13781 1.27511 0
M  V30 21084 C 2018.35 -3.49094 2.45021 0
M  V30 21085 S 2019.19 -3.47353 4.07561 0
M  V30 21086 C 2020.34 -4.87475 3.9258 0
M  V30 21087 H 2020.57 -1.75348 2.40084 0
M  V30 21088 H 2018.11 -0.812041 1.31321 0
M  V30 21089 H 2020.07 -3.93125 1.18164 0
M  V30 21090 H 2018.73 -3.1227 0.338519 0
M  V30 21091 H 2017.92 -4.49126 2.28697 0
M  V30 21092 H 2017.52 -2.77198 2.51073 0
M  V30 21093 H 2019.81 -5.76526 3.55843 0
M  V30 21094 H 2020.76 -5.08853 4.92417 0
M  V30 21095 H 2021.16 -4.61724 3.24763 0
M  V30 21096 N 2020.56 -1.3089 -0.877815 0
M  V30 21097 C 2021.49 -1.20459 -2.0003 0
M  V30 21098 C 2022.47 -0.0935765 -1.69842 0
M  V30 21099 O 2023.66 -0.276838 -1.92217 0
M  V30 21100 C 2020.79 -0.903041 -3.35354 0
M  V30 21101 C 2019.74 -1.97277 -3.79823 0
M  V30 21102 C 2019.07 -1.52407 -5.12519 0
M  V30 21103 C 2020.37 -3.38484 -3.97776 0
M  V30 21104 H 2022.06 -2.14367 -2.09014 0
M  V30 21105 H 2019.61 -1.03203 -1.00425 0
M  V30 21106 H 2021.56 -0.816699 -4.1341 0
M  V30 21107 H 2020.29 0.0717143 -3.26521 0
M  V30 21108 H 2018.94 -2.04887 -3.04001 0
M  V30 21109 H 2018.59 -0.537386 -5.00121 0
M  V30 21110 H 2018.29 -2.23964 -5.43244 0
M  V30 21111 H 2019.82 -1.45165 -5.93093 0
M  V30 21112 H 2021.23 -3.33593 -4.6625 0
M  V30 21113 H 2019.63 -4.0819 -4.39887 0
M  V30 21114 H 2020.7 -3.79847 -3.01403 0
M  V30 21115 N 2022.04 1.0911 -1.13723 0
M  V30 21116 C 2023.27 1.85648 -0.924643 0
M  V30 21117 C 2023.69 1.80727 0.521458 0
M  V30 21118 O 2023.05 1.18712 1.3703 0
M  V30 21119 C 2023.1 3.31415 -1.42115 0
M  V30 21120 O 2022.2 4.07886 -0.608521 0
M  V30 21121 H 2021.54 0.575539 -0.331136 0
M  V30 21122 H 2024.07 1.37763 -1.5127 0
M  V30 21123 H 2024.08 3.82262 -1.42619 0
M  V30 21124 H 2022.76 3.34311 -2.47404 0
M  V30 21125 H 2021.33 3.66802 -0.671625 0
M  V30 21126 N 2023.52 0.931232 1.27145 0
M  V30 21127 C 2024.47 0.404044 2.24391 0
M  V30 21128 C 2025.45 -0.493669 1.5314 0
M  V30 21129 O 2026.64 -0.330537 1.73886 0
M  V30 21130 C 2023.77 -0.338789 3.41624 0
M  V30 21131 C 2022.86 0.575643 4.20175 0
M  V30 21132 N 2023.25 1.69704 4.76481 0
M  V30 21133 C 2021.55 0.379324 4.44384 0
M  V30 21134 C 2022.25 2.26607 5.35747 0
M  V30 21135 N 2021.23 1.55523 5.20878 0
M  V30 21136 H 2025.03 1.26021 2.6551 0
M  V30 21137 H 2022.54 0.785921 1.42116 0
M  V30 21138 H 2024.54 -0.733438 4.10398 0
M  V30 21139 H 2023.2 -1.19185 3.02035 0
M  V30 21140 H 2024.21 2.07936 4.74324 0
M  V30 21141 H 2020.89 -0.432782 4.15251 0
M  V30 21142 H 2022.28 3.21036 5.90242 0
M  V30 21143 N 2025 -1.41343 0.697132 0
M  V30 21144 C 2026.41 -1.84219 0.303361 0
M  V30 21145 C 2026.76 -1.58328 -1.15874 0
M  V30 21146 O 2025.88 -1.05454 -1.88967 0
M  V30 21147 C 2026.48 -3.34407 0.543815 0
M  V30 21148 C 2025.04 -3.75847 0.203944 0
M  V30 21149 C 2024.19 -2.64733 0.825329 0
M  V30 21150 H 2027.14 -1.30872 0.897671 0
M  V30 21151 H 2027.16 -3.7999 -0.196975 0
M  V30 21152 H 2026.67 -3.5322 1.60802 0
M  V30 21153 H 2024.77 -3.62635 -0.855939 0
M  V30 21154 H 2024.88 -4.74531 0.660055 0
M  V30 21155 H 2023.25 -2.53422 0.254806 0
M  V30 21156 H 2024.03 -2.86363 1.89344 0
M  V30 21157 N 2026.48 -0.441993 -1.51275 0
M  V30 21158 C 2027.89 0.0200405 -1.86689 0
M  V30 21159 C 2028.24 1.41527 -1.35885 0
M  V30 21160 O 2027.36 2.04366 -0.711583 0
M  V30 21161 C 2027.96 0.0431426 -3.38773 0
M  V30 21162 C 2026.52 0.449604 -3.73705 0
M  V30 21163 C 2025.66 -0.354706 -2.75022 0
M  V30 21164 H 2028.61 -0.657627 -1.44433 0
M  V30 21165 H 2028.64 0.851643 -3.70847 0
M  V30 21166 H 2028.15 -0.97245 -3.75719 0
M  V30 21167 H 2026.25 1.47063 -3.4235 0
M  V30 21168 H 2026.36 0.171167 -4.78794 0
M  V30 21169 H 2024.73 0.187631 -2.54008 0
M  V30 21170 H 2025.51 -1.36926 -3.14811 0
M  V30 21171 N 2027.95 1.56642 -0.173515 0
M  V30 21172 C 2029.2 1.96124 0.470974 0
M  V30 21173 C 2029.52 1.06229 1.6424 0
M  V30 21174 O 2030.72 1.35402 2.35327 0
M  V30 21175 C 2029.18 3.4874 0.889284 0
M  V30 21176 C 2028.79 4.47264 -0.256662 0
M  V30 21177 C 2030.53 3.97037 1.50207 0
M  V30 21178 C 2028.44 5.91122 0.181401 0
M  V30 21179 H 2027.37 0.732267 0.179724 0
M  V30 21180 H 2030.02 1.81619 -0.262096 0
M  V30 21181 H 2028.4 3.58672 1.6784 0
M  V30 21182 H 2029.57 4.49049 -1.03401 0
M  V30 21183 H 2027.89 4.09038 -0.779546 0
M  V30 21184 H 2030.49 5.01974 1.8419 0
M  V30 21185 H 2030.83 3.401 2.40078 0
M  V30 21186 H 2031.36 3.90131 0.777351 0
M  V30 21187 H 2028.1 6.51936 -0.682591 0
M  V30 21188 H 2027.62 5.92639 0.924063 0
M  V30 21189 H 2029.3 6.43979 0.624532 0
M  V30 21190 N 2029.43 -0.1002 1.57281 0
M  V30 21191 C 2030.84 -0.655287 1.74822 0
M  V30 21192 C 2031.19 -1.79373 0.794961 0
M  V30 21193 O 2030.32 -2.16382 -0.0277532 0
M  V30 21194 C 2030.91 -1.19548 3.17008 0
M  V30 21195 C 2029.47 -1.69668 3.35991 0
M  V30 21196 C 2028.62 -0.604127 2.70639 0
M  V30 21197 H 2031.57 0.125841 1.582 0
M  V30 21198 H 2031.59 -2.06489 3.19598 0
M  V30 21199 H 2031.1 -0.366679 3.86364 0
M  V30 21200 H 2029.2 -2.54964 2.71706 0
M  V30 21201 H 2029.32 -1.79318 4.44277 0
M  V30 21202 H 2027.68 -1.04234 2.32395 0
M  V30 21203 H 2028.46 0.214006 3.42632 0
M  V30 21204 N 2030.91 -1.53174 -0.370891 0
M  V30 21205 C 2032.16 -1.68319 -1.11137 0
M  V30 21206 C 2032.47 -0.438743 -1.90616 0
M  V30 21207 O 2033.68 -0.470648 -2.6739 0
M  V30 21208 C 2032.13 -2.97532 -2.02491 0
M  V30 21209 C 2031.74 -4.29221 -1.28349 0
M  V30 21210 C 2033.49 -3.22045 -2.76563 0
M  V30 21211 C 2031.39 -5.49526 -2.18574 0
M  V30 21212 H 2030.32 -0.62713 -0.418597 0
M  V30 21213 H 2032.97 -1.79674 -0.372765 0
M  V30 21214 H 2031.36 -2.79967 -2.80061 0
M  V30 21215 H 2032.53 -4.57399 -0.558794 0
M  V30 21216 H 2030.84 -4.1111 -0.661614 0
M  V30 21217 H 2033.44 -4.09111 -3.44285 0
M  V30 21218 H 2033.78 -2.37881 -3.41641 0
M  V30 21219 H 2034.32 -3.40259 -2.06079 0
M  V30 21220 H 2031.06 -6.36152 -1.58083 0
M  V30 21221 H 2030.58 -5.25635 -2.88909 0
M  V30 21222 H 2032.26 -5.8411 -2.78252 0
M  V30 21223 N 2032.39 0.630389 -1.44443 0
M  V30 21224 C 2033.35 1.72422 -1.51008 0
M  V30 21225 C 2034.35 1.55948 -0.392038 0
M  V30 21226 O 2035.54 1.61429 -0.654688 0
M  V30 21227 C 2032.67 3.1151 -1.38472 0
M  V30 21228 H 2033.87 1.67975 -2.48444 0
M  V30 21229 H 2031.42 0.844115 -1.31546 0
M  V30 21230 H 2032.15 3.21551 -0.421327 0
M  V30 21231 H 2031.94 3.24874 -2.19544 0
M  V30 21232 H 2033.43 3.91228 -1.46049 0
M  V30 21233 N 2033.87 1.31354 0.870861 0
M  V30 21234 C 2035.14 1.11627 1.6062 0
M  V30 21235 C 2035.52 -0.329351 2.08515 0
M  V30 21236 O 2034.87 -1.3233 1.86282 0
M  V30 21237 C 2035.08 2.12968 2.76488 0
M  V30 21238 C 2036.43 2.45442 3.46473 0
M  V30 21239 O 2037.45 2.11388 2.86694 0
M  V30 21240 O 2036.31 3.03753 4.54309 0
M  V30 21241 H 2033.41 0.429682 0.706614 0
M  V30 21242 H 2035.95 1.42829 0.916402 0
M  V30 21243 H 2034.72 3.10212 2.38504 0
M  V30 21244 H 2034.35 1.82666 3.53156 0
M  V30 21245 N 2035.34 -1.08505 1.143 0
M  V30 21246 C 2036.28 -2.14723 0.772624 0
M  V30 21247 C 2037.25 -1.60735 -0.245558 0
M  V30 21248 O 2038.44 -1.88017 -0.134851 0
M  V30 21249 C 2035.57 -3.38381 0.14695 0
M  V30 21250 C 2034.61 -4.11116 1.13514 0
M  V30 21251 S 2035.44 -4.64077 2.67194 0
M  V30 21252 C 2036.6 -5.91024 2.06013 0
M  V30 21253 H 2036.83 -2.45808 1.6723 0
M  V30 21254 H 2034.37 -1.20599 0.964118 0
M  V30 21255 H 2036.32 -4.09975 -0.207624 0
M  V30 21256 H 2034.99 -3.05496 -0.730138 0
M  V30 21257 H 2034.18 -4.99851 0.645359 0
M  V30 21258 H 2033.78 -3.45431 1.43366 0
M  V30 21259 H 2036.07 -6.62559 1.41497 0
M  V30 21260 H 2037.02 -6.44697 2.92867 0
M  V30 21261 H 2037.42 -5.43988 1.50788 0
M  V30 21262 N 2036.82 -0.937962 -1.26649 0
M  V30 21263 C 2037.78 -0.449635 -2.24746 0
M  V30 21264 C 2038.78 0.437489 -1.54734 0
M  V30 21265 O 2039.97 0.237121 -1.72579 0
M  V30 21266 C 2037.11 0.35235 -3.39074 0
M  V30 21267 H 2038.3 -1.31648 -2.6946 0
M  V30 21268 H 2035.85 -0.71962 -1.38749 0
M  V30 21269 H 2036.59 1.23758 -2.99757 0
M  V30 21270 H 2036.37 -0.283853 -3.91071 0
M  V30 21271 H 2037.86 0.684038 -4.1196 0
M  V30 21272 N 2038.3 1.40971 -0.704618 0
M  V30 21273 C 2039.21 2.34555 -0.0457738 0
M  V30 21274 C 2040.23 1.56717 0.756037 0
M  V30 21275 O 2041.4 1.89156 0.691518 0
M  V30 21276 C 2038.47 3.35534 0.872815 0
M  V30 21277 C 2037.53 4.29255 0.062192 0
M  V30 21278 C 2036.76 5.2541 0.937031 0
M  V30 21279 O 2036.98 5.27245 2.17644 0
M  V30 21280 O 2035.92 6.00687 0.381874 0
M  V30 21281 H 2039.74 2.92493 -0.817415 0
M  V30 21282 H 2037.33 1.41979 -0.465014 0
M  V30 21283 H 2039.21 3.97489 1.3993 0
M  V30 21284 H 2037.89 2.80026 1.62379 0
M  V30 21285 H 2036.79 3.7062 -0.509109 0
M  V30 21286 H 2038.13 4.87885 -0.65032 0
M  V30 21287 N 2039.78 0.45001 1.51039 0
M  V30 21288 C 2040.73 -0.373216 2.24925 0
M  V30 21289 C 2041.71 -0.979411 1.27657 0
M  V30 21290 O 2042.9 -0.895452 1.52678 0
M  V30 21291 C 2040.03 -1.46669 3.10392 0
M  V30 21292 C 2039.12 -0.869269 4.15096 0
M  V30 21293 N 2039.51 -0.00218012 5.058 0
M  V30 21294 C 2037.81 -1.1355 4.31303 0
M  V30 21295 C 2038.51 0.334694 5.80736 0
M  V30 21296 N 2037.49 -0.284884 5.42853 0
M  V30 21297 H 2041.29 0.295074 2.92415 0
M  V30 21298 H 2038.8 0.262851 1.60259 0
M  V30 21299 H 2040.8 -2.06943 3.61912 0
M  V30 21300 H 2039.46 -2.13719 2.44447 0
M  V30 21301 H 2040.47 0.365173 5.16611 0
M  V30 21302 H 2037.15 -1.80255 3.76582 0
M  V30 21303 H 2038.54 1.04106 6.63786 0
M  V30 21304 N 2041.26 -1.56548 0.18182 0
M  V30 21305 C 2042.48 -2.01575 -0.466395 0
M  V30 21306 C 2042.9 -1.06202 -1.56098 0
M  V30 21307 O 2042.26 -0.064631 -1.82386 0
M  V30 21308 C 2042.31 -3.46366 -1.03502 0
M  V30 21309 O 2042.03 -4.38097 0.0158824 0
M  V30 21310 C 2043.53 -4.06846 -1.76042 0
M  V30 21311 H 2040.75 -0.660472 -0.118395 0
M  V30 21312 H 2043.29 -2.02481 0.286632 0
M  V30 21313 H 2041.45 -3.46201 -1.73849 0
M  V30 21314 H 2041.86 -5.22931 -0.405425 0
M  V30 21315 H 2043.34 -5.1005 -2.11076 0
M  V30 21316 H 2043.81 -3.4954 -2.65929 0
M  V30 21317 H 2044.42 -4.10745 -1.10312 0
M  V30 21318 N 2042.73 0.0918577 -1.57332 0
M  V30 21319 C 2043.64 1.1295 -2.0562 0
M  V30 21320 C 2044.66 1.4366 -0.981728 0
M  V30 21321 O 2045.84 1.54237 -1.29511 0
M  V30 21322 C 2042.9 2.42918 -2.4737 0
M  V30 21323 C 2041.96 2.19361 -3.69024 0
M  V30 21324 C 2041.2 3.43132 -4.08774 0
M  V30 21325 O 2041.42 4.51492 -3.48584 0
M  V30 21326 O 2040.35 3.32529 -5.01705 0
M  V30 21327 H 2044.18 0.74936 -2.9431 0
M  V30 21328 H 2041.76 0.304595 -1.46262 0
M  V30 21329 H 2043.65 3.19442 -2.74835 0
M  V30 21330 H 2042.32 2.80352 -1.61816 0
M  V30 21331 H 2041.23 1.40607 -3.46671 0
M  V30 21332 H 2042.56 1.86818 -4.55368 0
M  V30 21333 N 2044.21 1.53368 0.362763 0
M  V30 21334 C 2045.63 1.43203 0.704623 0
M  V30 21335 C 2045.83 0.573363 1.9317 0
M  V30 21336 O 2044.88 0.0568943 2.52436 0
M  V30 21337 C 2046.2 2.86434 0.915198 0
M  V30 21338 C 2047.75 2.96085 1.01503 0
M  V30 21339 C 2048.22 4.40383 1.25806 0
M  V30 21340 N 2049.71 4.43824 1.32569 0
M  V30 21341 C 2050.45 5.52586 1.53089 0
M  V30 21342 N 2049.94 6.71389 1.70906 0
M  V30 21343 N 2051.74 5.40169 1.55481 0
M  V30 21344 H 2043.89 2.07701 -0.444302 0
M  V30 21345 H 2046.15 0.938087 -0.136733 0
M  V30 21346 H 2045.86 3.51596 0.0853212 0
M  V30 21347 H 2045.73 3.3025 1.82249 0
M  V30 21348 H 2048.12 2.31074 1.83545 0
M  V30 21349 H 2048.2 2.55659 0.0850686 0
M  V30 21350 H 2047.84 5.05967 0.442642 0
M  V30 21351 H 2047.77 4.78384 2.20128 0
M  V30 21352 H 2050.26 3.58206 1.20402 0
M  V30 21353 H 2050.58 7.50047 1.86144 0
M  V30 21354 H 2048.92 6.7437 1.68079 0
M  V30 21355 H 2052.11 4.46318 1.41131 0
M  V30 21356 H 2052.28 6.24994 1.71131 0
M  V30 21357 N 2045.69 -0.62272 1.44776 0
M  V30 21358 C 2046.62 -1.74528 1.5512 0
M  V30 21359 C 2047.6 -1.65241 0.403656 0
M  V30 21360 O 2048.79 -1.83873 0.624863 0
M  V30 21361 C 2045.92 -3.13088 1.5031 0
M  V30 21362 C 2044.87 -3.37172 2.63626 0
M  V30 21363 C 2044.2 -4.75849 2.43868 0
M  V30 21364 C 2045.5 -3.28908 4.0573 0
M  V30 21365 H 2047.19 -1.66128 2.49082 0
M  V30 21366 H 2044.74 -0.797813 1.19879 0
M  V30 21367 H 2046.69 -3.91403 1.56146 0
M  V30 21368 H 2045.41 -3.22293 0.528684 0
M  V30 21369 H 2044.07 -2.61241 2.57194 0
M  V30 21370 H 2043.72 -4.81767 1.446 0
M  V30 21371 H 2043.42 -4.92921 3.19849 0
M  V30 21372 H 2044.94 -5.56383 2.51535 0
M  V30 21373 H 2046.36 -3.97117 4.13487 0
M  V30 21374 H 2044.76 -3.57513 4.8198 0
M  V30 21375 H 2045.83 -2.26581 4.28706 0
M  V30 21376 N 2047.17 -1.31814 -0.863883 0
M  V30 21377 C 2048.12 -1.19976 -1.97166 0
M  V30 21378 C 2049.09 -0.0840886 -1.65887 0
M  V30 21379 O 2050.27 -0.258021 -1.89047 0
M  V30 21380 C 2047.41 -0.919316 -3.3263 0
M  V30 21381 C 2046.52 -2.1189 -3.76466 0
M  V30 21382 C 2045.66 -1.77472 -5.00677 0
M  V30 21383 C 2044.7 -2.93804 -5.36978 0
M  V30 21384 N 2043.83 -2.59541 -6.52367 0
M  V30 21385 H 2048.67 -2.14735 -2.06623 0
M  V30 21386 H 2046.21 -1.06811 -1.01143 0
M  V30 21387 H 2048.17 -0.737251 -4.10634 0
M  V30 21388 H 2046.8 -0.0085443 -3.22799 0
M  V30 21389 H 2045.85 -2.41154 -2.94192 0
M  V30 21390 H 2047.16 -2.98939 -3.99295 0
M  V30 21391 H 2046.32 -1.55764 -5.86364 0
M  V30 21392 H 2045.06 -0.876231 -4.79764 0
M  V30 21393 H 2044.06 -3.16154 -4.49807 0
M  V30 21394 H 2045.29 -3.84371 -5.59853 0
M  V30 21395 H 2043.23 -1.72222 -6.32989 0
M  V30 21396 H 2043.15 -3.4012 -6.7517 0
M  V30 21397 H 2044.42 -2.4124 -7.41231 0
M  V30 21398 N 2048.65 1.07897 -1.14873 0
M  V30 21399 C 2049.61 2.13129 -0.843128 0
M  V30 21400 C 2050.61 1.60055 0.154606 0
M  V30 21401 O 2051.8 1.74041 -0.0743665 0
M  V30 21402 C 2048.93 3.39924 -0.257826 0
M  V30 21403 H 2050.12 2.41671 -1.77581 0
M  V30 21404 H 2047.68 1.23696 -0.955463 0
M  V30 21405 H 2048.41 3.17019 0.683318 0
M  V30 21406 H 2048.2 3.79745 -0.97654 0
M  V30 21407 H 2049.69 4.17555 -0.0613986 0
M  V30 21408 N 2050.12 0.944665 1.2615 0
M  V30 21409 C 2051.07 0.44787 2.28247 0
M  V30 21410 C 2052.07 -0.476672 1.62555 0
M  V30 21411 O 2053.27 -0.3545 1.76475 0
M  V30 21412 H 2049.65 0.126306 0.741317 0
M  V30 21413 H 2051.62 1.32142 2.67546 0
M  V30 21414 C 2050.37 -0.268298 3.46663 0
M  V30 21415 H 2049.69 0.433964 3.97438 0
M  V30 21416 H 2051.13 -0.580074 4.20013 0
M  V30 21417 C 2049.59 -1.48732 3.02292 0
M  V30 21418 O 2050.12 -2.58549 3.07434 0
M  V30 21419 N 2048.33 -1.34513 2.57594 0
M  V30 21420 H 2047.87 -0.451649 2.5361 0
M  V30 21421 H 2047.83 -2.16196 2.28269 0
M  V30 21422 N 2051.6 -1.40596 0.712085 0
M  V30 21423 C 2052.88 -1.94794 0.177392 0
M  V30 21424 C 2053.26 -1.65047 -1.31616 0
M  V30 21425 O 2052.61 -0.966262 -2.07064 0
M  V30 21426 C 2052.82 -3.45594 0.486369 0
M  V30 21427 C 2054.17 -4.22487 0.423115 0
M  V30 21428 O 2055.19 -3.53689 0.422227 0
M  V30 21429 O 2054.05 -5.45052 0.397587 0
M  V30 21430 H 2051.14 -0.826632 0.0246541 0
M  V30 21431 H 2053.69 -1.50223 0.789377 0
M  V30 21432 H 2052.46 -3.60591 1.51953 0
M  V30 21433 H 2052.08 -3.97295 -0.155756 0
M  V30 21434 N 2053.08 -0.458013 -1.50798 0
M  V30 21435 C 2054.31 0.10185 -2.0715 0
M  V30 21436 C 2054.73 1.33899 -1.32109 0
M  V30 21437 O 2054.09 1.77589 -0.364928 0
M  V30 21438 C 2054.14 0.381979 -3.58571 0
M  V30 21439 O 2053.24 1.46484 -3.85508 0
M  V30 21440 H 2052.58 -0.00721903 -0.663961 0
M  V30 21441 H 2055.11 -0.645297 -1.94157 0
M  V30 21442 H 2055.12 0.626354 -4.03163 0
M  V30 21443 H 2053.8 -0.522121 -4.1261 0
M  V30 21444 H 2052.37 1.20881 -3.52764 0
M  V30 21445 N 2054.56 1.56449 -0.190119 0
M  V30 21446 C 2055.49 2.21861 0.728019 0
M  V30 21447 C 2056.47 1.18012 1.22504 0
M  V30 21448 O 2057.66 1.46503 1.27478 0
M  V30 21449 C 2054.79 2.87407 1.94973 0
M  V30 21450 C 2053.74 3.97457 1.58782 0
M  V30 21451 C 2053.07 4.50144 2.88573 0
M  V30 21452 C 2054.37 5.16113 0.801535 0
M  V30 21453 H 2056.06 2.98842 0.182734 0
M  V30 21454 H 2053.61 1.4374 0.0864508 0
M  V30 21455 H 2055.56 3.31848 2.59721 0
M  V30 21456 H 2054.28 2.07824 2.51946 0
M  V30 21457 H 2052.94 3.537 0.96395 0
M  V30 21458 H 2052.59 3.67328 3.43626 0
M  V30 21459 H 2052.29 5.24398 2.65105 0
M  V30 21460 H 2053.81 4.97283 3.54318 0
M  V30 21461 H 2055.23 5.5713 1.35201 0
M  V30 21462 H 2053.62 5.96402 0.66517 0
M  V30 21463 H 2054.69 4.84494 -0.198407 0
M  V30 21464 N 2056.04 -0.0835127 1.57379 0
M  V30 21465 C 2056.98 -1.10046 2.02875 0
M  V30 21466 C 2057.95 -1.39138 0.907183 0
M  V30 21467 O 2059.14 -1.50405 1.17401 0
M  V30 21468 C 2056.28 -2.41229 2.46784 0
M  V30 21469 C 2055.39 -2.18769 3.72511 0
M  V30 21470 C 2054.53 -3.43432 4.05251 0
M  V30 21471 C 2053.57 -3.16284 5.24052 0
M  V30 21472 N 2052.7 -4.33246 5.52488 0
M  V30 21473 H 2057.54 -0.705503 2.89528 0
M  V30 21474 H 2055.08 -0.336809 1.43192 0
M  V30 21475 H 2057.04 -3.17803 2.7029 0
M  V30 21476 H 2055.67 -2.7855 1.63125 0
M  V30 21477 H 2054.72 -1.32942 3.56414 0
M  V30 21478 H 2056.03 -1.94708 4.59228 0
M  V30 21479 H 2055.19 -4.28408 4.29595 0
M  V30 21480 H 2053.93 -3.70558 3.17078 0
M  V30 21481 H 2052.93 -2.29703 4.99516 0
M  V30 21482 H 2054.16 -2.90493 6.13833 0
M  V30 21483 H 2052.1 -4.60425 4.67274 0
M  V30 21484 H 2052.02 -4.12417 6.336 0
M  V30 21485 H 2053.29 -5.19253 5.81375 0
M  V30 21486 N 2057.52 -1.53558 -0.354624 0
M  V30 21487 C 2058.45 -1.83751 -1.44076 0
M  V30 21488 C 2059.43 -0.691795 -1.55397 0
M  V30 21489 O 2060.61 -0.942676 -1.69786 0
M  V30 21490 C 2057.74 -2.03721 -2.81274 0
M  V30 21491 C 2056.7 -3.19517 -2.84769 0
M  V30 21492 C 2056.02 -3.248 -4.24746 0
M  V30 21493 C 2057.32 -4.5787 -2.51301 0
M  V30 21494 H 2059.02 -2.7471 -1.19058 0
M  V30 21495 H 2056.56 -1.32182 -0.5713 0
M  V30 21496 H 2058.51 -2.23427 -3.57293 0
M  V30 21497 H 2057.24 -1.09482 -3.07703 0
M  V30 21498 H 2055.9 -2.99649 -2.11201 0
M  V30 21499 H 2055.55 -2.28177 -4.48268 0
M  V30 21500 H 2055.25 -4.02606 -4.27998 0
M  V30 21501 H 2056.77 -3.46702 -5.02623 0
M  V30 21502 H 2058.18 -4.77663 -3.17034 0
M  V30 21503 H 2056.58 -5.37998 -2.65853 0
M  V30 21504 H 2057.65 -4.62234 -1.46518 0
M  V30 21505 N 2058.99 0.615033 -1.45104 0
M  V30 21506 C 2060.22 1.40596 -1.52471 0
M  V30 21507 C 2060.64 1.87454 -0.155745 0
M  V30 21508 O 2060 1.59701 0.858209 0
M  V30 21509 C 2060.05 2.59156 -2.5074 0
M  V30 21510 O 2059.15 3.59538 -2.02006 0
M  V30 21511 H 2058.49 0.420045 -0.514255 0
M  V30 21512 H 2061.02 0.749208 -1.90389 0
M  V30 21513 H 2061.03 3.06496 -2.69303 0
M  V30 21514 H 2059.71 2.24399 -3.50169 0
M  V30 21515 H 2058.29 3.18897 -1.93284 0
M  V30 21516 N 2060.47 1.3227 0.85688 0
M  V30 21517 C 2061.4 1.16846 1.97179 0
M  V30 21518 C 2062.42 0.10404 1.62467 0
M  V30 21519 O 2063.61 0.352788 1.74979 0
M  V30 21520 C 2060.71 0.76585 3.30133 0
M  V30 21521 C 2059.88 1.91808 3.93101 0
M  V30 21522 C 2058.94 1.49939 5.04386 0
M  V30 21523 O 2057.96 2.21106 5.245 0
M  V30 21524 N 2059.17 0.394147 5.7916 0
M  V30 21525 H 2061.93 2.12882 2.10953 0
M  V30 21526 H 2059.49 1.24777 1.03161 0
M  V30 21527 H 2061.48 0.4682 4.01983 0
M  V30 21528 H 2060.05 -0.103295 3.12429 0
M  V30 21529 H 2059.27 2.38235 3.14067 0
M  V30 21530 H 2060.56 2.68952 4.31906 0
M  V30 21531 H 2059.96 -0.198236 5.65353 0
M  V30 21532 H 2058.52 0.156093 6.51613 0
M  V30 21533 N 2061.95 -1.07287 1.15444 0
M  V30 21534 C 2062.86 -2.18038 0.865835 0
M  V30 21535 C 2063.88 -1.7328 -0.15811 0
M  V30 21536 O 2065.05 -2.01394 0.016125 0
M  V30 21537 C 2062.12 -3.44827 0.359941 0
M  V30 21538 C 2061.18 -4.04148 1.44786 0
M  V30 21539 C 2060.41 -5.24885 0.966015 0
M  V30 21540 O 2060.63 -5.7009 -0.188161 0
M  V30 21541 O 2059.57 -5.75898 1.75 0
M  V30 21542 H 2063.39 -2.45218 1.7917 0
M  V30 21543 H 2060.98 -1.16637 0.933604 0
M  V30 21544 H 2062.86 -4.21316 0.0843019 0
M  V30 21545 H 2061.54 -3.19197 -0.538049 0
M  V30 21546 H 2060.44 -3.29195 1.77711 0
M  V30 21547 H 2061.78 -4.34051 2.32079 0
M  V30 21548 N 2063.43 -0.951342 -1.25647 0
M  V30 21549 C 2064.66 -0.62053 -1.97061 0
M  V30 21550 C 2065.07 0.810902 -1.70942 0
M  V30 21551 O 2064.41 1.55361 -0.980235 0
M  V30 21552 C 2064.47 -0.795277 -3.50593 0
M  V30 21553 C 2064.13 -2.20325 -4.00382 0
M  V30 21554 C 2065.13 -3.17963 -4.11334 0
M  V30 21555 C 2062.82 -2.52655 -4.34132 0
M  V30 21556 C 2064.81 -4.46028 -4.55344 0
M  V30 21557 C 2062.5 -3.8095 -4.77829 0
M  V30 21558 C 2063.5 -4.77449 -4.88397 0
M  V30 21559 O 2063.18 -6.03457 -5.31126 0
M  V30 21560 H 2062.92 -0.231839 -0.635001 0
M  V30 21561 H 2065.47 -1.27722 -1.60861 0
M  V30 21562 H 2063.7 -0.0814441 -3.86614 0
M  V30 21563 H 2065.39 -0.46601 -4.03216 0
M  V30 21564 H 2066.15 -2.94311 -3.85494 0
M  V30 21565 H 2062.03 -1.78274 -4.25135 0
M  V30 21566 H 2065.58 -5.21351 -4.63508 0
M  V30 21567 H 2061.47 -4.0441 -5.03113 0
M  V30 21568 H 2062.24 -6.06786 -5.49321 0
M  V30 21569 N 2064.91 1.40216 -0.719531 0
M  V30 21570 C 2065.82 2.34494 -0.0706489 0
M  V30 21571 C 2066.83 1.5751 0.739372 0
M  V30 21572 O 2068.01 1.89879 0.671417 0
M  V30 21573 C 2065.07 3.36441 0.837178 0
M  V30 21574 C 2064.13 4.29297 0.0166603 0
M  V30 21575 C 2063.37 5.26374 0.881251 0
M  V30 21576 O 2063.59 5.29524 2.1204 0
M  V30 21577 O 2062.52 6.01059 0.318141 0
M  V30 21578 H 2066.35 2.91609 -0.848392 0
M  V30 21579 H 2063.93 1.41478 -0.480047 0
M  V30 21580 H 2065.82 3.98951 1.35707 0
M  V30 21581 H 2064.49 2.81733 1.594 0
M  V30 21582 H 2063.4 3.70059 -0.54839 0
M  V30 21583 H 2064.73 4.87168 -0.70203 0
M  V30 21584 N 2066.38 0.466004 1.50553 0
M  V30 21585 C 2067.61 -0.0908629 2.07201 0
M  V30 21586 C 2068.03 -1.33196 1.32817 0
M  V30 21587 O 2067.39 -1.77393 0.374341 0
M  V30 21588 C 2067.44 -0.362957 3.58769 0
M  V30 21589 O 2066.54 -1.44438 3.86279 0
M  V30 21590 H 2065.88 0.0107401 0.663913 0
M  V30 21591 H 2068.41 0.655585 1.93812 0
M  V30 21592 H 2068.42 -0.604965 4.0349 0
M  V30 21593 H 2067.1 0.543996 4.12327 0
M  V30 21594 H 2065.68 -1.19008 3.534 0
M  V30 21595 N 2067.86 -1.56346 0.198413 0
M  V30 21596 C 2069.11 -1.96849 -0.439713 0
M  V30 21597 C 2069.42 -1.08829 -1.62529 0
M  V30 21598 O 2070.63 -1.39128 -2.33143 0
M  V30 21599 C 2069.09 -3.50111 -0.83369 0
M  V30 21600 C 2068.69 -4.46799 0.327785 0
M  V30 21601 C 2070.44 -3.99376 -1.43871 0
M  V30 21602 C 2068.34 -5.91336 -0.0873357 0
M  V30 21603 H 2067.27 -0.735034 -0.168052 0
M  V30 21604 H 2069.93 -1.81179 0.290957 0
M  V30 21605 H 2068.31 -3.61297 -1.62112 0
M  V30 21606 H 2069.48 -4.47347 1.10532 0
M  V30 21607 H 2067.8 -4.07746 0.844522 0
M  V30 21608 H 2070.39 -5.04841 -1.76181 0
M  V30 21609 H 2070.74 -3.43877 -2.34637 0
M  V30 21610 H 2071.27 -3.91318 -0.715186 0
M  V30 21611 H 2068.01 -6.50768 0.786222 0
M  V30 21612 H 2067.53 -5.94034 -0.829663 0
M  V30 21613 H 2069.21 -6.44891 -0.522002 0
M  V30 21614 N 2069.34 0.0751653 -1.57421 0
M  V30 21615 C 2070.62 0.807768 -1.78142 0
M  V30 21616 C 2071 1.95956 -0.785139 0
M  V30 21617 O 2070.35 2.27771 0.182413 0
M  V30 21618 C 2070.56 1.28385 -3.24528 0
M  V30 21619 C 2071.9 1.71859 -3.88265 0
M  V30 21620 O 2072.93 1.3796 -3.28398 0
M  V30 21621 O 2071.79 2.3461 -4.93579 0
M  V30 21622 H 2068.88 0.386806 -0.730965 0
M  V30 21623 H 2071.43 0.0555021 -1.69609 0
M  V30 21624 H 2070.2 0.459543 -3.88592 0
M  V30 21625 H 2069.82 2.09753 -3.37771 0
M  V30 21626 N 2070.82 1.53744 0.346476 0
M  V30 21627 C 2072.23 1.62331 0.922251 0
M  V30 21628 C 2072.58 0.502763 1.89649 0
M  V30 21629 O 2071.71 -0.367943 2.13249 0
M  V30 21630 C 2072.3 2.94243 1.67948 0
M  V30 21631 C 2070.86 3.05102 2.20431 0
M  V30 21632 C 2070.01 2.57759 1.02252 0
M  V30 21633 H 2072.96 1.58209 0.124698 0
M  V30 21634 H 2072.98 2.83118 2.54213 0
M  V30 21635 H 2072.49 3.75779 0.970157 0
M  V30 21636 H 2070.59 2.28194 2.94547 0
M  V30 21637 H 2070.7 4.1052 2.47003 0
M  V30 21638 H 2069.07 2.13095 1.39508 0
M  V30 21639 H 2069.85 3.41731 0.327885 0
M  V30 21640 N 2072.3 -0.607329 1.45428 0
M  V30 21641 C 2073.54 -1.36363 1.49163 0
M  V30 21642 C 2073.87 -1.94533 0.134827 0
M  V30 21643 O 2073.14 -1.77174 -0.835838 0
M  V30 21644 H 2071.72 -0.506225 0.549314 0
M  V30 21645 H 2074.38 -0.713138 1.81385 0
M  V30 21646 H 2073.47 -2.18292 2.23058 0
M  V30 21647 N 2073.77 -1.32722 -0.849853 0
M  V30 21648 C 2074.71 -1.1789 -1.96557 0
M  V30 21649 C 2075.72 -0.112655 -1.6241 0
M  V30 21650 O 2076.91 -0.362063 -1.74789 0
M  V30 21651 C 2074.01 -0.783347 -3.29722 0
M  V30 21652 C 2073.18 -1.9389 -3.92078 0
M  V30 21653 C 2072.24 -1.52611 -5.03583 0
M  V30 21654 O 2071.27 -2.23885 -5.2332 0
M  V30 21655 N 2072.47 -0.424856 -5.78943 0
M  V30 21656 H 2075.23 -2.13998 -2.09821 0
M  V30 21657 H 2072.79 -1.25323 -1.02498 0
M  V30 21658 H 2074.79 -0.489511 -4.01729 0
M  V30 21659 H 2073.36 0.0867245 -3.1248 0
M  V30 21660 H 2072.58 -2.39897 -3.12799 0
M  V30 21661 H 2073.86 -2.71238 -4.30473 0
M  V30 21662 H 2073.26 0.168251 -5.6545 0
M  V30 21663 H 2071.82 -0.190647 -6.51521 0
M  V30 21664 N 2075.25 1.06673 -1.16011 0
M  V30 21665 C 2076.18 2.13994 -0.820931 0
M  V30 21666 C 2077.2 1.61909 0.170124 0
M  V30 21667 O 2078.39 1.78418 -0.0540947 0
M  V30 21668 C 2075.49 3.38304 -0.200883 0
M  V30 21669 C 2074.66 4.19718 -1.23108 0
M  V30 21670 C 2073.72 5.22396 -0.631544 0
M  V30 21671 O 2072.74 5.54171 -1.29936 0
M  V30 21672 N 2073.95 5.7756 0.583519 0
M  V30 21673 H 2076.71 2.43691 -1.74456 0
M  V30 21674 H 2074.27 1.2264 -1.05693 0
M  V30 21675 H 2076.26 4.04138 0.213139 0
M  V30 21676 H 2074.83 3.06263 0.626218 0
M  V30 21677 H 2074.05 3.49597 -1.82142 0
M  V30 21678 H 2075.34 4.7092 -1.92644 0
M  V30 21679 H 2074.74 5.54005 1.14432 0
M  V30 21680 H 2073.3 6.44989 0.939804 0
M  V30 21681 N 2076.73 0.957992 1.25141 0
M  V30 21682 C 2077.98 0.614592 1.92948 0
M  V30 21683 C 2078.31 -0.848868 1.74999 0
M  V30 21684 O 2077.56 -1.62488 1.09069 0
M  V30 21685 C 2077.86 0.923523 3.45262 0
M  V30 21686 C 2077.53 2.37356 3.83371 0
M  V30 21687 C 2076.19 2.7699 3.93484 0
M  V30 21688 C 2078.54 3.31508 4.02184 0
M  V30 21689 C 2075.87 4.09838 4.19821 0
M  V30 21690 C 2078.22 4.63973 4.30014 0
M  V30 21691 C 2076.88 5.03398 4.38345 0
M  V30 21692 H 2076.15 0.224895 0.706048 0
M  V30 21693 H 2078.8 1.20766 1.4862 0
M  V30 21694 H 2077.11 0.248102 3.91014 0
M  V30 21695 H 2078.8 0.636357 3.95919 0
M  V30 21696 H 2075.39 2.05619 3.76057 0
M  V30 21697 H 2079.58 3.02076 3.93781 0
M  V30 21698 H 2074.83 4.40023 4.24488 0
M  V30 21699 H 2079.01 5.36905 4.43516 0
M  V30 21700 H 2076.63 6.06363 4.58506 0
M  V30 21701 N 2078.21 -1.39832 0.726957 0
M  V30 21702 C 2079.44 -2.04978 0.281383 0
M  V30 21703 C 2079.85 -1.54795 -1.08092 0
M  V30 21704 O 2079.21 -0.709375 -1.68149 0
M  V30 21705 C 2079.26 -3.60526 0.265184 0
M  V30 21706 O 2078.98 -4.0886 1.5737 0
M  V30 21707 C 2080.48 -4.4286 -0.197547 0
M  V30 21708 H 2077.7 -0.659374 0.124366 0
M  V30 21709 H 2080.25 -1.7903 0.988352 0
M  V30 21710 H 2078.4 -3.85403 -0.392835 0
M  V30 21711 H 2078.81 -5.03132 1.48183 0
M  V30 21712 H 2080.29 -5.51775 -0.157727 0
M  V30 21713 H 2080.77 -4.21288 -1.24149 0
M  V30 21714 H 2081.37 -4.23114 0.430611 0
M  V30 21715 N 2079.69 -0.473982 -1.50304 0
M  V30 21716 C 2080.93 0.072235 -2.03272 0
M  V30 21717 C 2081.29 1.37148 -1.34938 0
M  V30 21718 O 2080.58 1.85819 -0.467108 0
M  V30 21719 C 2080.77 0.308841 -3.56063 0
M  V30 21720 C 2080.6 -0.965919 -4.39204 0
M  V30 21721 C 2079.37 -1.51005 -4.82209 0
M  V30 21722 C 2081.57 -1.86208 -4.79407 0
M  V30 21723 N 2079.55 -2.73353 -5.49683 0
M  V30 21724 C 2080.92 -2.93143 -5.46321 0
M  V30 21725 C 2082.98 -1.87212 -4.61363 0
M  V30 21726 C 2081.68 -4.01074 -5.97103 0
M  V30 21727 C 2083.71 -2.94101 -5.13088 0
M  V30 21728 C 2083.07 -3.99754 -5.79979 0
M  V30 21729 H 2079.17 -0.0136677 -0.781881 0
M  V30 21730 H 2081.75 -0.642832 -1.83782 0
M  V30 21731 H 2079.92 0.992949 -3.75493 0
M  V30 21732 H 2081.66 0.849657 -3.9568 0
M  V30 21733 H 2078.41 -1.05884 -4.61612 0
M  V30 21734 H 2078.84 -3.35494 -5.88025 0
M  V30 21735 H 2083.48 -1.06845 -4.09077 0
M  V30 21736 H 2081.2 -4.82256 -6.48425 0
M  V30 21737 H 2084.78 -2.95864 -5.00955 0
M  V30 21738 H 2083.66 -4.81103 -6.19282 0
M  V30 21739 N 2081.16 1.56239 -0.206702 0
M  V30 21740 C 2082.07 2.2324 0.721172 0
M  V30 21741 C 2083.09 1.2352 1.22552 0
M  V30 21742 O 2084.27 1.56291 1.27025 0
M  V30 21743 C 2081.33 2.88767 1.91871 0
M  V30 21744 C 2080.39 4.03791 1.45779 0
M  V30 21745 C 2079.63 4.66183 2.59825 0
M  V30 21746 O 2079.85 4.27524 3.77597 0
M  V30 21747 O 2078.78 5.55444 2.31874 0
M  V30 21748 H 2082.61 3.03163 0.180488 0
M  V30 21749 H 2080.19 1.49382 0.0231036 0
M  V30 21750 H 2082.08 3.30181 2.61837 0
M  V30 21751 H 2080.75 2.11815 2.44777 0
M  V30 21752 H 2079.66 3.66976 0.726587 0
M  V30 21753 H 2080.99 4.82441 0.975269 0
M  V30 21754 N 2082.64 -0.0668159 1.57458 0
M  V30 21755 C 2083.59 -1.0859 2.0048 0
M  V30 21756 C 2084.58 -1.34199 0.887667 0
M  V30 21757 O 2085.77 -1.34416 1.15158 0
M  V30 21758 C 2082.9 -2.39822 2.45643 0
M  V30 21759 C 2081.98 -2.17466 3.64101 0
M  V30 21760 N 2082.37 -1.65053 4.78112 0
M  V30 21761 C 2080.67 -2.47918 3.70746 0
M  V30 21762 C 2081.37 -1.57628 5.59936 0
M  V30 21763 N 2080.35 -2.03856 5.03928 0
M  V30 21764 H 2084.15 -0.674056 2.86066 0
M  V30 21765 H 2081.67 -0.273805 1.60075 0
M  V30 21766 H 2083.66 -3.13596 2.74706 0
M  V30 21767 H 2082.32 -2.81718 1.61446 0
M  V30 21768 H 2083.33 -1.33847 5.00305 0
M  V30 21769 H 2080.01 -2.93146 2.97273 0
M  V30 21770 H 2081.4 -1.17915 6.61472 0
M  V30 21771 N 2084.12 -1.53926 -0.338317 0
M  V30 21772 C 2085.35 -1.75682 -1.1023 0
M  V30 21773 C 2085.77 -0.497087 -1.81413 0
M  V30 21774 O 2085.13 0.550577 -1.72738 0
M  V30 21775 C 2085.18 -2.94038 -2.08743 0
M  V30 21776 O 2084.28 -2.64552 -3.16364 0
M  V30 21777 H 2083.62 -0.582603 -0.318544 0
M  V30 21778 H 2086.15 -2.00904 -0.387113 0
M  V30 21779 H 2086.16 -3.20973 -2.51873 0
M  V30 21780 H 2084.84 -3.854 -1.56331 0
M  V30 21781 H 2083.41 -2.48521 -2.78014 0
M  V30 21782 N 2085.6 0.599608 -1.45748 0
M  V30 21783 C 2086.55 1.73095 -1.55374 0
M  V30 21784 C 2087.54 1.64028 -0.423205 0
M  V30 21785 O 2088.75 1.69726 -0.599429 0
M  V30 21786 H 2085.12 0.572 -0.48818 0
M  V30 21787 H 2087.09 1.62104 -2.50529 0
M  V30 21788 C 2085.84 3.1148 -1.54517 0
M  V30 21789 H 2085.17 3.19119 -2.40838 0
M  V30 21790 H 2086.61 3.90447 -1.65309 0
M  V30 21791 C 2085.06 3.35809 -0.270913 0
M  V30 21792 O 2085.59 3.96473 0.645927 0
M  V30 21793 N 2083.8 2.90136 -0.164103 0
M  V30 21794 H 2083.35 2.40951 -0.911075 0
M  V30 21795 H 2083.31 3.06788 0.687647 0
M  V30 21796 N 2087.08 1.33171 0.842803 0
M  V30 21797 C 2088.01 1.2572 1.96766 0
M  V30 21798 C 2088.99 0.138574 1.69535 0
M  V30 21799 O 2090.17 0.327704 1.91415 0
M  V30 21800 C 2087.3 0.991637 3.32842 0
M  V30 21801 C 2086.26 2.07278 3.74459 0
M  V30 21802 C 2085.58 1.65942 5.08299 0
M  V30 21803 C 2086.88 3.48911 3.88662 0
M  V30 21804 H 2088.58 2.19834 2.03257 0
M  V30 21805 H 2086.12 1.05829 0.976533 0
M  V30 21806 H 2088.08 0.926021 4.111 0
M  V30 21807 H 2086.8 0.0148823 3.26597 0
M  V30 21808 H 2085.46 2.12875 2.98462 0
M  V30 21809 H 2085.11 0.669795 4.98521 0
M  V30 21810 H 2084.81 2.38288 5.37115 0
M  V30 21811 H 2086.33 1.60839 5.89036 0
M  V30 21812 H 2087.75 3.45837 4.57241 0
M  V30 21813 H 2086.14 4.1971 4.2891 0
M  V30 21814 H 2087.21 3.87705 2.91226 0
M  V30 21815 N 2088.56 -1.06056 1.16576 0
M  V30 21816 C 2089.47 -2.17107 0.888912 0
M  V30 21817 C 2090.48 -1.73438 -0.139723 0
M  V30 21818 O 2091.66 -2.01365 0.0374846 0
M  V30 21819 C 2088.72 -3.44425 0.396494 0
M  V30 21820 C 2087.78 -4.02589 1.49065 0
M  V30 21821 C 2087.02 -5.2383 1.02163 0
M  V30 21822 O 2087.24 -5.70257 -0.127684 0
M  V30 21823 O 2086.17 -5.7401 1.81098 0
M  V30 21824 H 2090 -2.43304 1.81761 0
M  V30 21825 H 2087.58 -1.1564 0.945923 0
M  V30 21826 H 2089.47 -4.21203 0.128983 0
M  V30 21827 H 2088.14 -3.1975 -0.504164 0
M  V30 21828 H 2087.05 -3.27292 1.81193 0
M  V30 21829 H 2088.38 -4.31565 2.3667 0
M  V30 21830 N 2090.03 -0.964615 -1.24631 0
M  V30 21831 C 2091.28 -0.625742 -1.92905 0
M  V30 21832 C 2091.61 0.836529 -1.75259 0
M  V30 21833 O 2090.89 1.60146 -1.10379 0
M  V30 21834 C 2091.17 -0.997473 -3.46009 0
M  V30 21835 C 2091.02 -2.51621 -3.72836 0
M  V30 21836 C 2092.34 -0.529778 -4.369 0
M  V30 21837 H 2089.46 -0.228804 -0.700584 0
M  V30 21838 H 2092.1 -1.20306 -1.47059 0
M  V30 21839 H 2090.25 -0.506207 -3.85188 0
M  V30 21840 H 2091.93 -3.082 -3.43235 0
M  V30 21841 H 2090.17 -2.94954 -3.18095 0
M  V30 21842 H 2090.84 -2.72681 -4.79947 0
M  V30 21843 H 2093.32 -0.951326 -4.05079 0
M  V30 21844 H 2092.19 -0.818472 -5.42764 0
M  V30 21845 H 2092.45 0.570178 -4.38408 0
M  V30 21846 N 2091.51 1.39445 -0.734362 0
M  V30 21847 C 2092.46 2.32452 -0.0830804 0
M  V30 21848 C 2093.45 1.53028 0.726556 0
M  V30 21849 O 2094.66 1.68697 0.627813 0
M  V30 21850 H 2091.03 0.751957 -0.00806559 0
M  V30 21851 H 2093.01 2.85008 -0.883901 0
M  V30 21852 C 2091.75 3.38121 0.810522 0
M  V30 21853 H 2091.08 3.99315 0.196919 0
M  V30 21854 H 2092.52 4.0565 1.23385 0
M  V30 21855 C 2090.98 2.75118 1.94453 0
M  V30 21856 O 2091.51 2.62913 3.0371 0
M  V30 21857 N 2089.71 2.33215 1.73376 0
M  V30 21858 H 2089.26 2.43341 0.845144 0
M  V30 21859 H 2089.22 1.914 2.49426 0
M  V30 21860 N 2092.99 0.481946 1.5005 0
M  V30 21861 C 2093.94 -0.306558 2.28755 0
M  V30 21862 C 2094.91 -0.97752 1.3429 0
M  V30 21863 O 2096.09 -0.987865 1.63236 0
M  V30 21864 C 2093.23 -1.37629 3.16468 0
M  V30 21865 C 2092.34 -0.71902 4.25974 0
M  V30 21866 C 2091.48 -1.76757 5.0093 0
M  V30 21867 C 2090.52 -1.09113 6.02296 0
M  V30 21868 N 2089.66 -2.08302 6.70489 0
M  V30 21869 H 2094.5 0.370886 2.95683 0
M  V30 21870 H 2092.03 0.194749 1.45805 0
M  V30 21871 H 2093.99 -2.00828 3.65683 0
M  V30 21872 H 2092.62 -2.02275 2.51564 0
M  V30 21873 H 2091.67 0.0257987 3.80391 0
M  V30 21874 H 2092.98 -0.1856 4.98455 0
M  V30 21875 H 2092.14 -2.47509 5.53917 0
M  V30 21876 H 2090.88 -2.33481 4.2818 0
M  V30 21877 H 2089.88 -0.369286 5.48558 0
M  V30 21878 H 2091.11 -0.530637 6.77024 0
M  V30 21879 H 2089.05 -2.64023 6.00523 0
M  V30 21880 H 2088.97 -1.59974 7.3888 0
M  V30 21881 H 2090.24 -2.78401 7.28089 0
M  V30 21882 N 2094.47 -1.56127 0.214985 0
M  V30 21883 C 2095.88 -1.8437 -0.294058 0
M  V30 21884 C 2096.23 -1.13621 -1.59952 0
M  V30 21885 O 2095.35 -0.403663 -2.12602 0
M  V30 21886 C 2095.95 -3.34464 -0.540311 0
M  V30 21887 C 2094.51 -3.63047 -0.993677 0
M  V30 21888 C 2093.66 -2.77249 -0.0531319 0
M  V30 21889 H 2096.61 -1.52527 0.43833 0
M  V30 21890 H 2096.63 -3.54314 -1.38716 0
M  V30 21891 H 2096.14 -3.85928 0.409992 0
M  V30 21892 H 2094.24 -3.17033 -1.95757 0
M  V30 21893 H 2094.35 -4.71086 -0.872629 0
M  V30 21894 H 2092.72 -2.48496 -0.558718 0
M  V30 21895 H 2093.5 -3.3151 0.891971 0
M  V30 21896 N 2095.95 0.0584645 -1.57492 0
M  V30 21897 C 2096.89 1.06805 -2.04601 0
M  V30 21898 C 2097.86 1.37677 -0.929204 0
M  V30 21899 O 2099.05 1.48518 -1.19779 0
M  V30 21900 C 2096.19 2.37272 -2.50591 0
M  V30 21901 C 2095.3 2.12815 -3.75944 0
M  V30 21902 C 2094.44 3.36941 -4.10663 0
M  V30 21903 C 2093.47 3.07907 -5.29018 0
M  V30 21904 N 2092.61 4.24401 -5.5931 0
M  V30 21905 H 2097.45 0.659352 -2.90614 0
M  V30 21906 H 2094.99 0.313985 -1.4371 0
M  V30 21907 H 2096.95 3.13463 -2.75312 0
M  V30 21908 H 2095.58 2.75919 -1.67536 0
M  V30 21909 H 2094.63 1.27255 -3.58483 0
M  V30 21910 H 2095.94 1.87378 -4.62267 0
M  V30 21911 H 2095.09 4.21519 -4.36356 0
M  V30 21912 H 2093.83 3.65466 -3.22933 0
M  V30 21913 H 2092.84 2.21727 -5.03108 0
M  V30 21914 H 2094.06 2.80691 -6.18377 0
M  V30 21915 H 2092.01 4.52933 -4.7454 0
M  V30 21916 H 2091.93 4.02284 -6.40081 0
M  V30 21917 H 2093.19 5.09938 -5.89562 0
M  V30 21918 N 2097.42 1.54103 0.330149 0
M  V30 21919 C 2098.37 1.83745 1.4262 0
M  V30 21920 C 2099.37 0.708869 1.53855 0
M  V30 21921 O 2100.57 0.892427 1.56319 0
M  V30 21922 H 2096.95 0.58234 0.475799 0
M  V30 21923 H 2098.92 2.75417 1.1484 0
M  V30 21924 C 2097.67 2.07574 2.78941 0
M  V30 21925 H 2096.99 2.93875 2.71068 0
M  V30 21926 H 2098.43 2.32273 3.54719 0
M  V30 21927 C 2096.89 0.865282 3.25599 0
M  V30 21928 O 2097.42 0.0712874 4.01637 0
M  V30 21929 N 2095.62 0.678754 2.82562 0
M  V30 21930 H 2095.17 1.32607 2.20847 0
M  V30 21931 H 2095.13 -0.129662 3.14133 0
M  V30 21932 N 2098.9 -0.59187 1.46064 0
M  V30 21933 C 2100.32 -0.914287 1.30816 0
M  V30 21934 C 2100.52 -1.99645 0.272804 0
M  V30 21935 O 2099.57 -2.50363 -0.327818 0
M  V30 21936 C 2100.89 -1.34032 2.69176 0
M  V30 21937 C 2102.44 -1.45367 2.77196 0
M  V30 21938 C 2102.91 -1.9134 4.16117 0
M  V30 21939 N 2104.4 -1.98548 4.18489 0
M  V30 21940 C 2105.14 -2.35376 5.22863 0
M  V30 21941 N 2104.63 -2.7106 6.37572 0
M  V30 21942 N 2106.43 -2.35851 5.10226 0
M  V30 21943 H 2098.58 0.123139 2.12043 0
M  V30 21944 H 2100.84 -0.00757695 0.94797 0
M  V30 21945 H 2100.55 -0.619238 3.46206 0
M  V30 21946 H 2100.42 -2.3037 2.98679 0
M  V30 21947 H 2102.81 -2.16563 2.0046 0
M  V30 21948 H 2102.89 -0.473031 2.51388 0
M  V30 21949 H 2102.53 -1.20726 4.93343 0
M  V30 21950 H 2102.46 -2.90346 4.39325 0
M  V30 21951 H 2104.95 -1.73498 3.35719 0
M  V30 21952 H 2105.27 -2.98088 7.12996 0
M  V30 21953 H 2103.61 -2.68719 6.40948 0
M  V30 21954 H 2106.8 -2.07389 4.19651 0
M  V30 21955 H 2106.97 -2.64224 5.91684 0
M  V30 21956 N 2100.38 -1.33616 -0.835729 0
M  V30 21957 C 2101.61 -1.28111 -1.62084 0
M  V30 21958 C 2102.02 0.149577 -1.88608 0
M  V30 21959 O 2101.36 1.10314 -1.4689 0
M  V30 21960 C 2101.42 -1.99073 -2.9935 0
M  V30 21961 C 2101.09 -3.48371 -2.95781 0
M  V30 21962 C 2102.08 -4.43516 -2.71273 0
M  V30 21963 C 2099.77 -3.90595 -3.15818 0
M  V30 21964 C 2101.76 -5.78859 -2.66835 0
M  V30 21965 C 2099.45 -5.26041 -3.11004 0
M  V30 21966 C 2100.45 -6.19985 -2.86544 0
M  V30 21967 O 2100.14 -7.5295 -2.8164 0
M  V30 21968 H 2099.87 -0.442615 -0.510948 0
M  V30 21969 H 2102.42 -1.76601 -1.04887 0
M  V30 21970 H 2100.65 -1.45179 -3.58413 0
M  V30 21971 H 2102.34 -1.87026 -3.60245 0
M  V30 21972 H 2103.11 -4.12218 -2.55541 0
M  V30 21973 H 2098.99 -3.1788 -3.33876 0
M  V30 21974 H 2102.53 -6.52157 -2.47663 0
M  V30 21975 H 2098.43 -5.56963 -3.26286 0
M  V30 21976 H 2099.2 -7.62535 -2.97459 0
M  V30 21977 N 2101.86 1.05436 -1.17136 0
M  V30 21978 C 2102.82 2.11293 -0.888146 0
M  V30 21979 C 2103.82 1.60347 0.120621 0
M  V30 21980 O 2105.01 1.73844 -0.111266 0
M  V30 21981 C 2102.14 3.393 -0.329871 0
M  V30 21982 H 2103.34 2.3785 -1.82667 0
M  V30 21983 H 2100.89 1.21641 -0.981486 0
M  V30 21984 H 2101.62 3.18397 0.61592 0
M  V30 21985 H 2101.41 3.77588 -1.05687 0
M  V30 21986 H 2102.9 4.17331 -0.149954 0
M  V30 21987 N 2103.34 0.971211 1.24118 0
M  V30 21988 C 2104.28 0.496184 2.27246 0
M  V30 21989 C 2105.28 -0.442084 1.6353 0
M  V30 21990 O 2106.48 -0.316987 1.77187 0
M  V30 21991 H 2102.86 0.142002 0.738471 0
M  V30 21992 H 2104.83 1.37788 2.64683 0
M  V30 21993 C 2103.58 -0.194705 3.47154 0
M  V30 21994 H 2102.9 0.518169 3.96428 0
M  V30 21995 H 2104.34 -0.490853 4.21149 0
M  V30 21996 C 2102.8 -1.42287 3.05379 0
M  V30 21997 O 2103.33 -2.5197 3.12849 0
M  V30 21998 N 2101.54 -1.29018 2.60389 0
M  V30 21999 H 2101.08 -0.397753 2.54511 0
M  V30 22000 H 2101.04 -2.11305 2.32804 0
M  V30 22001 N 2104.81 -1.39054 0.741747 0
M  V30 22002 C 2106.06 -2.00671 0.293089 0
M  V30 22003 C 2106.39 -1.58733 -1.11882 0
M  V30 22004 O 2105.67 -0.819335 -1.76401 0
M  V30 22005 C 2105.95 -3.57843 0.402573 0
M  V30 22006 C 2105.8 -4.0978 1.85474 0
M  V30 22007 C 2107.12 -4.39594 -0.211039 0
M  V30 22008 H 2104.24 -0.729048 0.10797 0
M  V30 22009 H 2106.88 -1.65165 0.939169 0
M  V30 22010 H 2105.03 -3.8822 -0.147482 0
M  V30 22011 H 2106.71 -3.90095 2.46219 0
M  V30 22012 H 2104.95 -3.63088 2.3738 0
M  V30 22013 H 2105.62 -5.18906 1.88257 0
M  V30 22014 H 2108.1 -4.153 0.257937 0
M  V30 22015 H 2106.97 -5.48801 -0.104126 0
M  V30 22016 H 2107.23 -4.22618 -1.29792 0
M  V30 22017 N 2106.29 -0.489897 -1.49792 0
M  V30 22018 C 2107.54 0.0603289 -2.0161 0
M  V30 22019 C 2107.85 1.39071 -1.37545 0
M  V30 22020 O 2109.06 2.02698 -1.80626 0
M  V30 22021 C 2107.52 0.157998 -3.59553 0
M  V30 22022 C 2107.12 -1.16507 -4.32585 0
M  V30 22023 C 2108.87 0.65918 -4.19351 0
M  V30 22024 C 2106.78 -1.03017 -5.82358 0
M  V30 22025 H 2105.71 0.0263203 -0.75354 0
M  V30 22026 H 2108.36 -0.627641 -1.72432 0
M  V30 22027 H 2106.74 0.910172 -3.85398 0
M  V30 22028 H 2107.91 -1.92967 -4.1845 0
M  V30 22029 H 2106.23 -1.59883 -3.84482 0
M  V30 22030 H 2108.82 0.77744 -5.29018 0
M  V30 22031 H 2109.17 1.65527 -3.81977 0
M  V30 22032 H 2109.7 -0.0361409 -3.97784 0
M  V30 22033 H 2106.44 -2.00019 -6.24238 0
M  V30 22034 H 2105.96 -0.306276 -5.99018 0
M  V30 22035 H 2107.64 -0.704383 -6.43154 0
M  V30 22036 N 2107.77 1.56011 -0.223262 0
M  V30 22037 C 2108.73 2.19108 0.672641 0
M  V30 22038 C 2109.73 1.15344 1.12038 0
M  V30 22039 O 2110.92 1.40567 1.0289 0
M  V30 22040 C 2108.06 2.81576 1.92165 0
M  V30 22041 H 2109.25 2.9965 0.1225 0
M  V30 22042 H 2106.8 1.56278 0.0263484 0
M  V30 22043 H 2107.54 2.04909 2.51362 0
M  V30 22044 H 2107.32 3.57564 1.60906 0
M  V30 22045 H 2108.81 3.29937 2.55991 0
M  V30 22046 N 2109.25 -0.0501116 1.5752 0
M  V30 22047 C 2110.48 -0.756338 1.92258 0
M  V30 22048 C 2110.89 -1.70529 0.819536 0
M  V30 22049 O 2110.23 -1.82444 -0.214449 0
M  V30 22050 C 2110.29 -1.58568 3.2264 0
M  V30 22051 C 2109.96 -0.803782 4.49876 0
M  V30 22052 C 2110.95 -0.11334 5.19776 0
M  V30 22053 C 2108.64 -0.764541 4.96447 0
M  V30 22054 C 2110.63 0.605876 6.34514 0
M  V30 22055 C 2108.32 -0.0415669 6.11086 0
M  V30 22056 C 2109.32 0.642421 6.79972 0
M  V30 22057 O 2109 1.3537 7.9242 0
M  V30 22058 H 2108.74 -0.218926 0.639568 0
M  V30 22059 H 2111.29 -0.0180791 2.05392 0
M  V30 22060 H 2109.52 -2.36726 3.05774 0
M  V30 22061 H 2111.21 -2.17257 3.42862 0
M  V30 22062 H 2111.98 -0.134822 4.84813 0
M  V30 22063 H 2107.85 -1.28641 4.42688 0
M  V30 22064 H 2111.4 1.1403 6.88217 0
M  V30 22065 H 2107.3 -0.0180871 6.45497 0
M  V30 22066 H 2108.06 1.2652 8.08662 0
M  V30 22067 N 2110.73 -1.54276 -0.321972 0
M  V30 22068 C 2112 -1.63209 -1.07806 0
M  V30 22069 C 2112.38 -0.466965 -2.0587 0
M  V30 22070 O 2111.73 0.538598 -2.22062 0
M  V30 22071 C 2111.94 -3.00279 -1.77858 0
M  V30 22072 C 2113.29 -3.5638 -2.30822 0
M  V30 22073 O 2114.31 -3.02594 -1.87923 0
M  V30 22074 O 2113.17 -4.50507 -3.09364 0
M  V30 22075 H 2110.27 -0.660982 -0.497023 0
M  V30 22076 H 2112.81 -1.66622 -0.321736 0
M  V30 22077 H 2111.58 -3.76518 -1.06537 0
M  V30 22078 H 2111.21 -3.00552 -2.60297 0
M  V30 22079 N 2112.2 0.584116 -1.46376 0
M  V30 22080 C 2113.15 1.68815 -1.5325 0
M  V30 22081 C 2114.14 1.56013 -0.393561 0
M  V30 22082 O 2115.33 1.64951 -0.641886 0
M  V30 22083 C 2112.46 3.07599 -1.5244 0
M  V30 22084 C 2111.55 3.25703 -2.71622 0
M  V30 22085 N 2111.94 3.13972 -3.96555 0
M  V30 22086 C 2110.23 3.56638 -2.67816 0
M  V30 22087 C 2110.94 3.34042 -4.76226 0
M  V30 22088 N 2109.91 3.59131 -4.08075 0
M  V30 22089 H 2113.71 1.58273 -2.47642 0
M  V30 22090 H 2111.23 0.788103 -1.41995 0
M  V30 22091 H 2113.22 3.86834 -1.55452 0
M  V30 22092 H 2111.88 3.19272 -0.591231 0
M  V30 22093 H 2112.9 2.91868 -4.27824 0
M  V30 22094 H 2109.57 3.75004 -1.83516 0
M  V30 22095 H 2110.96 3.30167 -5.85183 0
M  V30 22096 N 2113.68 1.34058 0.828631 0
M  V30 22097 C 2114.91 1.29306 1.62156 0
M  V30 22098 C 2115.33 -0.131256 1.87641 0
M  V30 22099 O 2114.69 -1.09118 1.44786 0
M  V30 22100 C 2114.74 2.08394 2.94286 0
M  V30 22101 O 2113.84 1.44955 3.86085 0
M  V30 22102 H 2113.18 0.444364 0.493393 0
M  V30 22103 H 2115.71 1.76775 1.03014 0
M  V30 22104 H 2115.72 2.19539 3.43899 0
M  V30 22105 H 2114.4 3.11953 2.7506 0
M  V30 22106 H 2112.98 1.42518 3.44591 0
M  V30 22107 N 2115.16 -1.04814 1.17694 0
M  V30 22108 C 2116.58 -1.3006 0.925018 0
M  V30 22109 C 2116.78 -1.97207 -0.4137 0
M  V30 22110 O 2115.83 -2.24802 -1.14979 0
M  V30 22111 C 2117.15 -2.16666 2.0851 0
M  V30 22112 C 2118.69 -2.30036 2.12256 0
M  V30 22113 C 2119.17 -3.20004 3.27661 0
M  V30 22114 N 2120.66 -3.2759 3.27473 0
M  V30 22115 C 2121.4 -3.97339 4.13412 0
M  V30 22116 N 2120.89 -4.69483 5.09468 0
M  V30 22117 N 2122.68 -3.93542 4.01349 0
M  V30 22118 H 2114.84 -0.596316 2.03857 0
M  V30 22119 H 2117.1 -0.325581 0.890338 0
M  V30 22120 H 2116.8 -1.74624 3.05286 0
M  V30 22121 H 2116.68 -3.17317 2.03936 0
M  V30 22122 H 2119.07 -2.71318 1.16063 0
M  V30 22123 H 2119.15 -1.29001 2.2089 0
M  V30 22124 H 2118.79 -2.79435 4.24121 0
M  V30 22125 H 2118.72 -4.21053 3.16263 0
M  V30 22126 H 2121.21 -2.76191 2.57928 0
M  V30 22127 H 2121.52 -5.20277 5.7143 0
M  V30 22128 H 2119.87 -4.68413 5.13434 0
M  V30 22129 H 2123.06 -3.36308 3.25599 0
M  V30 22130 H 2123.23 -4.4763 4.68542 0
M  V30 22131 N 2116.64 -0.977779 -1.23601 0
M  V30 22132 C 2117.89 -0.646167 -1.9223 0
M  V30 22133 C 2118.22 0.817893 -1.76137 0
M  V30 22134 O 2117.49 1.58966 -1.12071 0
M  V30 22135 C 2117.78 -1.03412 -3.44932 0
M  V30 22136 C 2117.63 -2.55561 -3.70147 0
M  V30 22137 C 2118.95 -0.576087 -4.36313 0
M  V30 22138 H 2116.07 -0.236222 -0.698118 0
M  V30 22139 H 2118.71 -1.21859 -1.45775 0
M  V30 22140 H 2116.86 -0.547033 -3.84629 0
M  V30 22141 H 2118.53 -3.11824 -3.39947 0
M  V30 22142 H 2116.77 -2.98312 -3.14949 0
M  V30 22143 H 2117.45 -2.77756 -4.77028 0
M  V30 22144 H 2119.92 -0.994237 -4.04047 0
M  V30 22145 H 2118.8 -0.875993 -5.41865 0
M  V30 22146 H 2119.06 0.523647 -4.38988 0
M  V30 22147 N 2118.12 1.38658 -0.749111 0
M  V30 22148 C 2119.37 1.99455 -0.300085 0
M  V30 22149 C 2119.68 1.60136 1.1232 0
M  V30 22150 O 2120.89 2.13871 1.67247 0
M  V30 22151 C 2119.34 3.56609 -0.485575 0
M  V30 22152 C 2118.95 4.04883 -1.91766 0
M  V30 22153 C 2120.69 4.24384 -0.0990364 0
M  V30 22154 C 2118.6 5.54661 -2.05195 0
M  V30 22155 H 2117.53 0.74616 -0.108449 0
M  V30 22156 H 2120.18 1.5848 -0.925012 0
M  V30 22157 H 2118.56 3.95451 0.208468 0
M  V30 22158 H 2119.74 3.77342 -2.6448 0
M  V30 22159 H 2118.05 3.49817 -2.2587 0
M  V30 22160 H 2120.65 5.34403 -0.178195 0
M  V30 22161 H 2120.99 4.05369 0.947724 0
M  V30 22162 H 2121.53 3.90766 -0.744765 0
M  V30 22163 H 2118.26 5.78575 -3.08109 0
M  V30 22164 H 2117.78 5.8396 -1.36935 0
M  V30 22165 H 2119.46 6.20291 -1.83977 0
M  V30 22166 N 2119.6 0.497834 1.49531 0
M  V30 22167 C 2120.53 -0.271671 2.31914 0
M  V30 22168 C 2121.51 -0.965521 1.40042 0
M  V30 22169 O 2122.69 -0.957536 1.68952 0
M  V30 22170 C 2119.82 -1.3384 3.20475 0
M  V30 22171 C 2118.78 -0.76461 4.21115 0
M  V30 22172 C 2118.1 -1.93162 4.98591 0
M  V30 22173 C 2119.4 0.242201 5.21738 0
M  V30 22174 H 2121.1 0.415979 2.96496 0
M  V30 22175 H 2118.64 0.201496 1.42583 0
M  V30 22176 H 2120.59 -1.88442 3.76918 0
M  V30 22177 H 2119.32 -2.05519 2.5383 0
M  V30 22178 H 2117.98 -0.240359 3.65811 0
M  V30 22179 H 2117.63 -2.63602 4.28396 0
M  V30 22180 H 2117.33 -1.55378 5.66685 0
M  V30 22181 H 2118.85 -2.48204 5.57877 0
M  V30 22182 H 2120.26 -0.215575 5.72895 0
M  V30 22183 H 2118.66 0.535707 5.97704 0
M  V30 22184 H 2119.73 1.15916 4.70841 0
M  V30 22185 N 2121.07 -1.5589 0.231532 0
M  V30 22186 C 2122.01 -2.18025 -0.70695 0
M  V30 22187 C 2123.02 -1.15214 -1.1502 0
M  V30 22188 O 2124.21 -1.42149 -1.07963 0
M  V30 22189 C 2121.31 -2.75714 -1.97066 0
M  V30 22190 C 2120.48 -4.03794 -1.68135 0
M  V30 22191 C 2119.54 -4.4595 -2.79312 0
M  V30 22192 O 2118.57 -5.12645 -2.47354 0
M  V30 22193 N 2119.77 -4.12459 -4.08483 0
M  V30 22194 H 2122.53 -2.99186 -0.175389 0
M  V30 22195 H 2120.09 -1.6182 0.0509009 0
M  V30 22196 H 2122.09 -3.00882 -2.70652 0
M  V30 22197 H 2120.66 -1.98799 -2.41242 0
M  V30 22198 H 2119.88 -3.86377 -0.781436 0
M  V30 22199 H 2121.16 -4.87328 -1.46251 0
M  V30 22200 H 2120.56 -3.58884 -4.37286 0
M  V30 22201 H 2119.12 -4.42496 -4.78581 0
M  V30 22202 N 2122.55 0.0417572 -1.57545 0
M  V30 22203 C 2123.96 0.589951 -1.77134 0
M  V30 22204 C 2124.31 1.76299 -0.860987 0
M  V30 22205 O 2123.44 2.16336 -0.0525748 0
M  V30 22206 C 2124.03 1.077 -3.21226 0
M  V30 22207 C 2122.59 1.57081 -3.42056 0
M  V30 22208 C 2121.74 0.503265 -2.72695 0
M  V30 22209 H 2124.69 -0.18447 -1.57624 0
M  V30 22210 H 2124.71 1.94485 -3.27041 0
M  V30 22211 H 2124.22 0.22303 -3.87459 0
M  V30 22212 H 2122.32 2.44704 -2.80981 0
M  V30 22213 H 2122.44 1.62706 -4.50626 0
M  V30 22214 H 2120.8 0.955366 -2.36103 0
M  V30 22215 H 2121.58 -0.341024 -3.41602 0
M  V30 22216 N 2124.03 1.54445 0.313786 0
M  V30 22217 C 2125.28 1.72328 1.04814 0
M  V30 22218 C 2125.59 0.509186 1.88856 0
M  V30 22219 O 2126.8 0.569563 2.65459 0
M  V30 22220 C 2125.25 3.04843 1.91309 0
M  V30 22221 C 2124.86 4.33689 1.12331 0
M  V30 22222 C 2126.61 3.32087 2.6442 0
M  V30 22223 C 2124.51 5.5726 1.98028 0
M  V30 22224 H 2123.44 0.642234 0.395033 0
M  V30 22225 H 2126.09 1.80934 0.305823 0
M  V30 22226 H 2124.48 2.90169 2.69477 0
M  V30 22227 H 2125.65 4.59158 0.388648 0
M  V30 22228 H 2123.96 4.13283 0.508577 0
M  V30 22229 H 2126.56 4.21607 3.28864 0
M  V30 22230 H 2126.9 2.50397 3.32577 0
M  V30 22231 H 2127.44 3.47673 1.93308 0
M  V30 22232 H 2124.18 6.41581 1.34364 0
M  V30 22233 H 2123.7 5.35995 2.69201 0
M  V30 22234 H 2125.38 5.94035 2.56382 0
M  V30 22235 N 2125.51 -0.576345 1.46683 0
M  V30 22236 C 2126.42 -1.71268 1.60326 0
M  V30 22237 C 2127.43 -1.67059 0.486559 0
M  V30 22238 O 2128.61 -1.86852 0.75154 0
M  V30 22239 C 2125.67 -3.07775 1.5961 0
M  V30 22240 C 2124.74 -3.232 2.8256 0
M  V30 22241 C 2123.97 -4.53195 2.81869 0
M  V30 22242 O 2124.19 -5.37478 1.90979 0
M  V30 22243 O 2123.13 -4.72003 3.73493 0
M  V30 22244 H 2126.95 -1.62705 2.56439 0
M  V30 22245 H 2124.54 -0.744135 1.29549 0
M  V30 22246 H 2126.42 -3.89046 1.61929 0
M  V30 22247 H 2125.09 -3.16762 0.666583 0
M  V30 22248 H 2124 -2.41398 2.85793 0
M  V30 22249 H 2125.33 -3.19107 3.74742 0
M  V30 22250 N 2126.99 -1.34495 -0.82151 0
M  V30 22251 C 2128.23 -1.26681 -1.57469 0
M  V30 22252 C 2128.55 0.162701 -1.9432 0
M  V30 22253 O 2127.82 1.09566 -1.62395 0
M  V30 22254 H 2126.4 -0.465903 -0.583903 0
M  V30 22255 H 2129.07 -1.68424 -0.980791 0
M  V30 22256 H 2128.16 -1.87251 -2.49686 0
M  V30 22257 N 2128.46 1.04188 -1.18248 0
M  V30 22258 C 2129.71 1.76764 -0.971464 0
M  V30 22259 C 2130.03 1.89102 0.49997 0
M  V30 22260 O 2131.23 2.58519 0.829468 0
M  V30 22261 C 2129.69 3.17801 -1.68909 0
M  V30 22262 C 2129.3 3.1356 -3.19975 0
M  V30 22263 C 2131.04 3.94763 -1.56084 0
M  V30 22264 C 2128.95 4.49449 -3.84382 0
M  V30 22265 H 2127.88 0.662591 -0.359847 0
M  V30 22266 H 2130.53 1.16702 -1.41608 0
M  V30 22267 H 2128.91 3.78252 -1.17224 0
M  V30 22268 H 2130.08 2.62568 -3.78675 0
M  V30 22269 H 2128.4 2.50097 -3.32927 0
M  V30 22270 H 2131 4.95253 -2.01566 0
M  V30 22271 H 2131.34 4.13128 -0.512919 0
M  V30 22272 H 2131.87 3.40885 -2.05043 0
M  V30 22273 H 2128.61 4.36289 -4.89216 0
M  V30 22274 H 2128.13 5.00549 -3.3047 0
M  V30 22275 H 2129.81 5.18367 -3.87175 0
M  V30 22276 N 2129.94 0.98432 1.23081 0
M  V30 22277 C 2130.88 0.472534 2.23254 0
M  V30 22278 C 2131.85 -0.462497 1.55884 0
M  V30 22279 O 2133.04 -0.390035 1.84421 0
M  V30 22280 C 2130.16 -0.315956 3.37223 0
M  V30 22281 C 2129.21 0.563795 4.22757 0
M  V30 22282 S 2130.04 2.01399 4.96184 0
M  V30 22283 C 2131.2 1.23475 6.136 0
M  V30 22284 H 2131.43 1.3214 2.6632 0
M  V30 22285 H 2128.97 0.790618 1.32622 0
M  V30 22286 H 2130.92 -0.764866 4.03311 0
M  V30 22287 H 2129.58 -1.13999 2.92682 0
M  V30 22288 H 2128.78 -0.0424403 5.03982 0
M  V30 22289 H 2128.38 0.949112 3.61757 0
M  V30 22290 H 2130.67 0.498049 6.75667 0
M  V30 22291 H 2131.61 2.02197 6.78618 0
M  V30 22292 H 2132.02 0.751814 5.59471 0
M  V30 22293 N 2131.42 -1.38259 0.756453 0
M  V30 22294 C 2132.67 -1.99657 0.313271 0
M  V30 22295 C 2132.99 -1.60347 -1.10967 0
M  V30 22296 O 2132.26 -0.861667 -1.75932 0
M  V30 22297 H 2130.84 -0.738428 0.112838 0
M  V30 22298 H 2133.5 -1.68979 0.971184 0
M  V30 22299 H 2132.6 -3.09794 0.378689 0
M  V30 22300 N 2132.9 -0.505757 -1.49264 0
M  V30 22301 C 2134.12 0.0358953 -2.07369 0
M  V30 22302 C 2134.55 1.29628 -1.36302 0
M  V30 22303 O 2133.91 1.76338 -0.421242 0
M  V30 22304 C 2133.95 0.267709 -3.59605 0
M  V30 22305 O 2133.06 1.34146 -3.89973 0
M  V30 22306 H 2132.4 -0.0283388 -0.663395 0
M  V30 22307 H 2134.93 -0.70674 -1.92006 0
M  V30 22308 H 2134.94 0.497774 -4.04952 0
M  V30 22309 H 2133.61 -0.653126 -4.1074 0
M  V30 22310 H 2132.19 1.09597 -3.56431 0
M  V30 22311 N 2134.38 1.55765 -0.239796 0
M  V30 22312 C 2135.65 1.90659 0.436876 0
M  V30 22313 C 2136.03 1.1596 1.76398 0
M  V30 22314 O 2135.38 0.274778 2.26842 0
M  V30 22315 C 2135.59 3.43593 0.611939 0
M  V30 22316 C 2136.94 4.1471 0.911065 0
M  V30 22317 O 2137.96 3.49293 0.698064 0
M  V30 22318 O 2136.82 5.30411 1.3163 0
M  V30 22319 H 2133.92 0.793348 0.233511 0
M  V30 22320 H 2136.46 1.67318 -0.283335 0
M  V30 22321 H 2135.23 3.89961 -0.323424 0
M  V30 22322 H 2134.86 3.72773 1.38296 0
M  V30 22323 N 2135.85 -0.0334016 1.57565 0
M  V30 22324 C 2137.08 -0.735904 1.93049 0
M  V30 22325 C 2137.49 -1.6965 0.837577 0
M  V30 22326 O 2136.84 -1.82661 -0.195087 0
M  V30 22327 C 2136.9 -1.55137 3.24303 0
M  V30 22328 C 2136.56 -0.756022 4.50703 0
M  V30 22329 C 2137.56 -0.0582042 5.19867 0
M  V30 22330 C 2135.24 -0.711843 4.9723 0
M  V30 22331 C 2137.24 0.67314 6.33836 0
M  V30 22332 C 2134.92 0.0232493 6.11096 0
M  V30 22333 C 2135.92 0.714505 6.79252 0
M  V30 22334 O 2135.61 1.43767 7.9094 0
M  V30 22335 H 2135.34 -0.212131 0.641854 0
M  V30 22336 H 2137.9 0.00370645 2.054 0
M  V30 22337 H 2136.13 -2.3347 3.08267 0
M  V30 22338 H 2137.82 -2.13609 3.45147 0
M  V30 22339 H 2138.58 -0.083394 4.84928 0
M  V30 22340 H 2134.46 -1.23938 4.44027 0
M  V30 22341 H 2138 1.21324 6.86969 0
M  V30 22342 H 2133.9 0.0503776 6.4548 0
M  V30 22343 H 2134.67 1.3509 8.07275 0
M  V30 22344 N 2137.33 -1.54609 -0.305591 0
M  V30 22345 C 2138.58 -1.72882 -1.03898 0
M  V30 22346 C 2138.89 -0.519195 -1.88583 0
M  V30 22347 O 2140.1 -0.583633 -2.65153 0
M  V30 22348 C 2138.56 -3.05853 -1.89689 0
M  V30 22349 C 2138.16 -4.34278 -1.10029 0
M  V30 22350 C 2139.91 -3.33485 -2.62656 0
M  V30 22351 C 2137.82 -5.58302 -1.9507 0
M  V30 22352 H 2136.75 -0.64432 -0.391621 0
M  V30 22353 H 2139.4 -1.81093 -0.296223 0
M  V30 22354 H 2137.78 -2.91594 -2.67935 0
M  V30 22355 H 2138.95 -4.59358 -0.364293 0
M  V30 22356 H 2137.27 -4.13546 -0.486653 0
M  V30 22357 H 2139.86 -4.23345 -3.26624 0
M  V30 22358 H 2140.21 -2.52157 -3.31244 0
M  V30 22359 H 2140.74 -3.48694 -1.91462 0
M  V30 22360 H 2137.48 -6.42285 -1.3096 0
M  V30 22361 H 2137 -5.37415 -2.66355 0
M  V30 22362 H 2138.68 -5.95386 -2.53228 0
M  V30 22363 N 2138.81 0.568558 -1.46987 0
M  V30 22364 C 2139.76 1.6976 -1.5901 0
M  V30 22365 C 2140.75 1.63094 -0.457903 0
M  V30 22366 O 2141.96 1.68416 -0.635295 0
M  V30 22367 H 2138.33 0.561516 -0.500203 0
M  V30 22368 H 2140.3 1.56753 -2.53911 0
M  V30 22369 C 2139.05 3.08133 -1.61089 0
M  V30 22370 H 2138.38 3.13939 -2.47553 0
M  V30 22371 H 2139.82 3.86853 -1.73554 0
M  V30 22372 C 2138.28 3.35159 -0.342082 0
M  V30 22373 O 2138.81 3.97754 0.561684 0
M  V30 22374 N 2137.01 2.89723 -0.225608 0
M  V30 22375 H 2136.56 2.38964 -0.961979 0
M  V30 22376 H 2136.52 3.08177 0.622418 0
M  V30 22377 N 2140.29 1.34929 0.814366 0
M  V30 22378 C 2141.25 1.27093 1.90736 0
M  V30 22379 C 2142.25 0.184145 1.59742 0
M  V30 22380 O 2143.44 0.437337 1.68621 0
M  V30 22381 C 2140.57 0.964254 3.26979 0
M  V30 22382 H 2141.77 2.24271 1.99105 0
M  V30 22383 H 2139.32 1.19341 1.00933 0
M  V30 22384 H 2140.05 -0.0039895 3.243 0
M  V30 22385 H 2139.84 1.75045 3.50859 0
M  V30 22386 H 2141.33 0.934826 4.07002 0
M  V30 22387 N 2141.77 -1.0356 1.18799 0
M  V30 22388 C 2142.71 -2.13799 0.916116 0
M  V30 22389 C 2143.71 -1.68934 -0.125535 0
M  V30 22390 O 2144.91 -1.79985 0.0230864 0
M  V30 22391 H 2141.29 -0.698404 0.278811 0
M  V30 22392 H 2143.26 -2.33925 1.85262 0
M  V30 22393 C 2142.01 -3.44591 0.463926 0
M  V30 22394 H 2141.33 -3.79526 1.25698 0
M  V30 22395 H 2142.77 -4.22845 0.312739 0
M  V30 22396 C 2141.23 -3.26743 -0.821008 0
M  V30 22397 O 2141.76 -3.54778 -1.88403 0
M  V30 22398 N 2139.97 -2.80058 -0.775608 0
M  V30 22399 H 2139.51 -2.57444 0.089694 0
M  V30 22400 H 2139.47 -2.68497 -1.63575 0
M  V30 22401 N 2143.25 -0.990834 -1.22557 0
M  V30 22402 C 2144.48 -0.682909 -1.94987 0
M  V30 22403 C 2144.88 0.756108 -1.73435 0
M  V30 22404 O 2144.23 1.52164 -1.02917 0
M  V30 22405 C 2144.29 -0.906413 -3.47886 0
M  V30 22406 C 2143.95 -2.32951 -3.9317 0
M  V30 22407 C 2144.95 -3.30889 -4.0101 0
M  V30 22408 C 2142.63 -2.66339 -4.25874 0
M  V30 22409 C 2144.63 -4.60288 -4.40923 0
M  V30 22410 C 2142.32 -3.95959 -4.65467 0
M  V30 22411 C 2143.31 -4.92745 -4.7296 0
M  V30 22412 O 2143 -6.20049 -5.11659 0
M  V30 22413 H 2142.73 -0.251924 -0.627304 0
M  V30 22414 H 2145.29 -1.32775 -1.56717 0
M  V30 22415 H 2143.52 -0.204401 -3.86159 0
M  V30 22416 H 2145.21 -0.594054 -4.01529 0
M  V30 22417 H 2145.97 -3.06426 -3.75936 0
M  V30 22418 H 2141.85 -1.91709 -4.19248 0
M  V30 22419 H 2145.4 -5.35833 -4.46687 0
M  V30 22420 H 2141.29 -4.20211 -4.89992 0
M  V30 22421 H 2142.06 -6.23955 -5.29738 0
M  V30 22422 N 2144.72 1.37856 -0.763775 0
M  V30 22423 C 2145.97 2.00179 -0.324977 0
M  V30 22424 C 2146.3 1.60492 1.09343 0
M  V30 22425 O 2145.58 0.847295 1.75075 0
M  V30 22426 C 2145.86 3.57157 -0.459452 0
M  V30 22427 C 2145.71 4.06777 -1.9197 0
M  V30 22428 C 2147.03 4.39874 0.141077 0
M  V30 22429 H 2144.15 0.727238 -0.119555 0
M  V30 22430 H 2146.79 1.6365 -0.965327 0
M  V30 22431 H 2144.94 3.88405 0.0857008 0
M  V30 22432 H 2146.62 3.86128 -2.52394 0
M  V30 22433 H 2144.86 3.59266 -2.43127 0
M  V30 22434 H 2145.53 5.15845 -1.96489 0
M  V30 22435 H 2148.01 4.14837 -0.323975 0
M  V30 22436 H 2146.88 5.48897 0.0168029 0
M  V30 22437 H 2147.14 4.2463 1.23052 0
M  V30 22438 N 2146.2 0.513665 1.48994 0
M  V30 22439 C 2147.48 -0.0899538 1.95393 0
M  V30 22440 C 2147.86 -1.52898 1.45552 0
M  V30 22441 O 2147.21 -2.18308 0.674808 0
M  V30 22442 C 2147.42 0.010453 3.48998 0
M  V30 22443 C 2148.76 -0.157087 4.24309 0
M  V30 22444 O 2149.79 -0.0641299 3.56142 0
M  V30 22445 O 2148.65 -0.349548 5.45381 0
M  V30 22446 H 2145.74 -0.0883243 0.82227 0
M  V30 22447 H 2148.29 0.577105 1.59586 0
M  V30 22448 H 2147.06 1.0135 3.77947 0
M  V30 22449 H 2146.68 -0.696188 3.91458 0
M  V30 22450 N 2147.68 -1.55636 0.248053 0
M  V30 22451 C 2148.93 -1.98579 -0.375626 0
M  V30 22452 C 2149.25 -1.13753 -1.58383 0
M  V30 22453 O 2148.52 -0.2206 -1.94654 0
M  V30 22454 H 2147.1 -0.733423 -0.141773 0
M  V30 22455 H 2149.76 -1.91784 0.34711 0
M  V30 22456 H 2148.86 -3.04513 -0.683983 0
M  V30 22457 N 2149.16 0.0250451 -1.5758 0
M  V30 22458 C 2150.39 0.725656 -1.93437 0
M  V30 22459 C 2150.8 1.69204 -0.846562 0
M  V30 22460 O 2150.14 1.82762 0.185397 0
M  V30 22461 C 2150.2 1.53415 -3.25121 0
M  V30 22462 C 2149.86 0.732109 -4.51098 0
M  V30 22463 C 2150.86 0.0306335 -5.19891 0
M  V30 22464 C 2148.55 0.685464 -4.97601 0
M  V30 22465 C 2150.54 -0.706745 -6.3347 0
M  V30 22466 C 2148.23 -0.0556568 -6.11075 0
M  V30 22467 C 2149.23 -0.750517 -6.78864 0
M  V30 22468 O 2148.91 -1.4796 -7.90167 0
M  V30 22469 H 2148.65 0.208724 -0.64297 0
M  V30 22470 H 2151.2 -0.0145992 -2.05395 0
M  V30 22471 H 2149.43 2.31832 -3.09501 0
M  V30 22472 H 2151.12 2.11775 -3.46275 0
M  V30 22473 H 2151.88 0.0576759 -4.84966 0
M  V30 22474 H 2147.76 1.21582 -4.44678 0
M  V30 22475 H 2151.31 -1.24965 -6.86316 0
M  V30 22476 H 2147.2 -0.0846083 -6.45445 0
M  V30 22477 H 2147.97 -1.39369 -8.06547 0
M  V30 22478 N 2150.64 1.54769 0.297388 0
M  V30 22479 C 2152.05 1.46063 0.643251 0
M  V30 22480 C 2152.25 0.654777 1.90565 0
M  V30 22481 O 2151.31 0.16391 2.51967 0
M  V30 22482 C 2152.62 2.90058 0.792888 0
M  V30 22483 C 2154.17 3.00123 0.888538 0
M  V30 22484 C 2154.64 4.45322 1.07014 0
M  V30 22485 N 2156.13 4.49047 1.13626 0
M  V30 22486 C 2156.87 5.58582 1.29514 0
M  V30 22487 N 2156.37 6.78033 1.42276 0
M  V30 22488 N 2158.16 5.46277 1.32431 0
M  V30 22489 H 2150.31 2.0563 -0.531995 0
M  V30 22490 H 2152.57 0.931444 -0.176397 0
M  V30 22491 H 2152.28 3.51642 -0.0638796 0
M  V30 22492 H 2152.15 3.37683 1.68077 0
M  V30 22493 H 2154.54 2.38651 1.73579 0
M  V30 22494 H 2154.62 2.55789 -0.0234414 0
M  V30 22495 H 2154.26 5.0739 0.227645 0
M  V30 22496 H 2154.19 4.8729 1.9964 0
M  V30 22497 H 2156.69 3.62991 1.05101 0
M  V30 22498 H 2157 7.57267 1.54165 0
M  V30 22499 H 2155.34 6.80892 1.39325 0
M  V30 22500 H 2158.53 4.51902 1.22074 0
M  V30 22501 H 2158.71 6.3169 1.44469 0
M  V30 22502 N 2152.11 -0.560755 1.47286 0
M  V30 22503 C 2153.35 -1.3289 1.55305 0
M  V30 22504 C 2153.72 -1.9086 0.208898 0
M  V30 22505 O 2154.92 -2.683 0.163911 0
M  V30 22506 C 2153.19 -2.41196 2.63741 0
M  V30 22507 S 2154.75 -3.28146 2.91318 0
M  V30 22508 H 2151.57 -0.452457 0.548456 0
M  V30 22509 H 2154.17 -0.642337 1.84646 0
M  V30 22510 H 2152.87 -1.97037 3.60006 0
M  V30 22511 H 2152.4 -3.14598 2.36202 0
M  V30 22512 H 2154.42 -4.4058 2.28261 0
M  V30 22513 N 2153.59 -1.35359 -0.807199 0
M  V30 22514 C 2154.52 -1.24083 -1.92707 0
M  V30 22515 C 2155.54 -0.164267 -1.61969 0
M  V30 22516 O 2156.73 -0.417487 -1.73549 0
M  V30 22517 C 2153.83 -0.88785 -3.27063 0
M  V30 22518 C 2153 -2.06266 -3.85711 0
M  V30 22519 C 2152.06 -1.68555 -4.98473 0
M  V30 22520 O 2151.08 -2.40421 -5.15933 0
M  V30 22521 N 2152.29 -0.608828 -5.77298 0
M  V30 22522 H 2155.05 -2.20565 -2.02907 0
M  V30 22523 H 2152.61 -1.2852 -0.984589 0
M  V30 22524 H 2154.6 -0.61707 -3.99968 0
M  V30 22525 H 2153.17 -0.0127324 -3.12597 0
M  V30 22526 H 2152.39 -2.49727 -3.05008 0
M  V30 22527 H 2153.68 -2.84796 -4.21626 0
M  V30 22528 H 2153.08 -0.0117274 -5.65699 0
M  V30 22529 H 2151.64 -0.397827 -6.50585 0
M  V30 22530 N 2155.07 1.02928 -1.19346 0
M  V30 22531 C 2156.02 2.1331 -0.927441 0
M  V30 22532 C 2157.01 1.68998 0.116575 0
M  V30 22533 O 2158.22 1.7997 -0.0326311 0
M  V30 22534 H 2154.59 0.696916 -0.282511 0
M  V30 22535 H 2156.56 2.32939 -1.865 0
M  V30 22536 C 2155.31 3.4434 -0.482194 0
M  V30 22537 H 2154.64 3.78854 -1.27709 0
M  V30 22538 H 2156.08 4.22673 -0.335159 0
M  V30 22539 C 2154.53 3.27174 0.803669 0
M  V30 22540 O 2155.06 3.55772 1.86519 0
M  V30 22541 N 2153.27 2.80466 0.760745 0
M  V30 22542 H 2152.82 2.57393 -0.103346 0
M  V30 22543 H 2152.78 2.69361 1.62149 0
M  V30 22544 N 2156.55 0.997319 1.2203 0
M  V30 22545 C 2157.51 0.556352 2.22345 0
M  V30 22546 C 2158.51 -0.363165 1.56645 0
M  V30 22547 O 2159.7 -0.154511 1.73513 0
M  V30 22548 C 2156.83 -0.190172 3.40369 0
M  V30 22549 H 2158.03 1.44355 2.62872 0
M  V30 22550 H 2155.58 0.784999 1.35157 0
M  V30 22551 H 2156.31 -1.09315 3.05321 0
M  V30 22552 H 2156.1 0.470115 3.89272 0
M  V30 22553 H 2157.59 -0.486708 4.14754 0
M  V30 22554 N 2158.03 -1.37449 0.771075 0
M  V30 22555 C 2159.26 -2.03683 0.345951 0
M  V30 22556 C 2159.66 -1.58284 -1.03648 0
M  V30 22557 O 2159.01 -0.759171 -1.67279 0
M  V30 22558 C 2159.07 -3.58164 0.309656 0
M  V30 22559 C 2158.73 -4.26692 1.63656 0
M  V30 22560 C 2159.73 -4.50858 2.58888 0
M  V30 22561 C 2157.42 -4.64536 1.91081 0
M  V30 22562 C 2159.41 -5.11924 3.79753 0
M  V30 22563 C 2157.1 -5.25323 3.12217 0
M  V30 22564 C 2158.09 -5.48954 4.06372 0
M  V30 22565 O 2157.78 -6.08471 5.25375 0
M  V30 22566 H 2157.51 -0.660689 0.143062 0
M  V30 22567 H 2160.07 -1.76778 1.04587 0
M  V30 22568 H 2158.3 -3.84112 -0.446637 0
M  V30 22569 H 2159.99 -4.05804 -0.0883085 0
M  V30 22570 H 2160.75 -4.22034 2.38982 0
M  V30 22571 H 2156.63 -4.45477 1.18622 0
M  V30 22572 H 2160.18 -5.30285 4.53258 0
M  V30 22573 H 2156.07 -5.53571 3.32009 0
M  V30 22574 H 2156.84 -6.26949 5.26191 0
M  V30 22575 N 2159.5 -0.52156 -1.4872 0
M  V30 22576 C 2160.75 0.0175509 -2.01692 0
M  V30 22577 C 2161.07 1.36122 -1.40464 0
M  V30 22578 O 2162.27 1.98821 -1.84885 0
M  V30 22579 C 2160.73 0.0816961 -3.59807 0
M  V30 22580 C 2160.34 -1.25657 -4.30017 0
M  V30 22581 C 2162.08 0.570081 -4.20655 0
M  V30 22582 C 2159.99 -1.15347 -5.80042 0
M  V30 22583 H 2158.92 0.0103307 -0.753929 0
M  V30 22584 H 2161.57 -0.664075 -1.71062 0
M  V30 22585 H 2159.95 0.828218 -3.87242 0
M  V30 22586 H 2161.12 -2.018 -4.14263 0
M  V30 22587 H 2159.44 -1.68002 -3.81004 0
M  V30 22588 H 2162.04 0.665053 -5.30548 0
M  V30 22589 H 2162.38 1.57387 -3.85402 0
M  V30 22590 H 2162.91 -0.120509 -3.97617 0
M  V30 22591 H 2159.65 -2.13215 -6.19854 0
M  V30 22592 H 2159.17 -0.433268 -5.98233 0
M  V30 22593 H 2160.85 -0.840647 -6.41515 0
M  V30 22594 N 2160.98 1.55502 -0.256304 0
M  V30 22595 C 2161.95 2.20485 0.626014 0
M  V30 22596 C 2162.95 1.17694 1.09566 0
M  V30 22597 O 2164.14 1.42718 0.998856 0
M  V30 22598 C 2161.27 2.85589 1.86149 0
M  V30 22599 H 2162.46 2.99842 0.0589124 0
M  V30 22600 H 2160.01 1.56299 -0.0068064 0
M  V30 22601 H 2160.75 2.10195 2.46959 0
M  V30 22602 H 2160.53 3.60896 1.53285 0
M  V30 22603 H 2162.02 3.35293 2.48935 0
M  V30 22604 N 2162.46 -0.0166879 1.57591 0
M  V30 22605 C 2163.69 -0.716426 1.941 0
M  V30 22606 C 2164.1 -1.68225 0.857081 0
M  V30 22607 O 2163.46 -1.81748 -0.165469 0
M  V30 22608 C 2163.51 -1.46279 3.30583 0
M  V30 22609 O 2163.23 -0.535718 4.34812 0
M  V30 22610 C 2164.73 -2.25856 3.8145 0
M  V30 22611 H 2161.95 -0.200593 0.640315 0
M  V30 22612 H 2164.5 0.0294696 2.04479 0
M  V30 22613 H 2162.65 -2.16045 3.21564 0
M  V30 22614 H 2163.07 -1.06046 5.13668 0
M  V30 22615 H 2164.54 -2.73602 4.79423 0
M  V30 22616 H 2165.02 -3.07813 3.13285 0
M  V30 22617 H 2165.62 -1.61139 3.93592 0
M  V30 22618 N 2163.94 -1.54924 -0.289176 0
M  V30 22619 C 2164.87 -1.8308 -1.37892 0
M  V30 22620 C 2165.88 -0.714368 -1.4629 0
M  V30 22621 O 2167.07 -0.992012 -1.48396 0
M  V30 22622 C 2164.17 -1.96434 -2.76165 0
M  V30 22623 C 2163.35 -3.26949 -2.90557 0
M  V30 22624 C 2162.4 -3.3057 -4.09402 0
M  V30 22625 O 2161.43 -4.04038 -4.00926 0
M  V30 22626 N 2162.63 -2.56808 -5.20605 0
M  V30 22627 H 2165.4 -2.77135 -1.1409 0
M  V30 22628 H 2162.96 -1.54643 -0.479271 0
M  V30 22629 H 2164.95 -1.96244 -3.53935 0
M  V30 22630 H 2163.52 -1.0932 -2.92862 0
M  V30 22631 H 2162.74 -3.39813 -1.99802 0
M  V30 22632 H 2164.03 -4.13054 -2.97092 0
M  V30 22633 H 2163.43 -1.96772 -5.30375 0
M  V30 22634 H 2161.98 -2.6236 -5.96666 0
M  V30 22635 N 2165.42 0.552936 -1.47582 0
M  V30 22636 C 2166.66 1.30733 -1.54121 0
M  V30 22637 C 2166.99 1.93899 -0.206934 0
M  V30 22638 O 2166.26 1.80154 0.769505 0
M  V30 22639 H 2164.84 0.485489 -0.567723 0
M  V30 22640 H 2167.5 0.645327 -1.83906 0
M  V30 22641 H 2166.59 2.09863 -2.31006 0
M  V30 22642 N 2166.89 1.35785 0.800009 0
M  V30 22643 C 2168.31 1.26354 1.37446 0
M  V30 22644 C 2168.66 -0.101241 1.95939 0
M  V30 22645 O 2167.78 -1.00241 1.91783 0
M  V30 22646 C 2168.38 2.28793 2.49878 0
M  V30 22647 C 2166.94 2.23083 3.03168 0
M  V30 22648 C 2166.08 2.14145 1.76174 0
M  V30 22649 H 2169.03 1.46818 0.602508 0
M  V30 22650 H 2169.05 1.91822 3.2861 0
M  V30 22651 H 2168.57 3.28113 2.07277 0
M  V30 22652 H 2166.67 1.27195 3.50217 0
M  V30 22653 H 2166.78 3.15326 3.60703 0
M  V30 22654 H 2165.14 1.60228 1.97987 0
M  V30 22655 H 2165.93 3.15335 1.35715 0
M  V30 22656 N 2168.37 -1.02294 1.19891 0
M  V30 22657 C 2169.3 -2.12589 0.965816 0
M  V30 22658 C 2170.28 -1.69788 -0.102962 0
M  V30 22659 O 2171.47 -1.94127 0.0532676 0
M  V30 22660 C 2168.6 -3.43532 0.510181 0
M  V30 22661 C 2167.55 -4.00044 1.52147 0
M  V30 22662 C 2166.88 -5.26679 0.922703 0
M  V30 22663 C 2168.18 -4.34165 2.90341 0
M  V30 22664 H 2169.87 -2.32347 1.88826 0
M  V30 22665 H 2167.42 -1.11659 0.9093 0
M  V30 22666 H 2169.37 -4.20071 0.334377 0
M  V30 22667 H 2168.1 -3.23514 -0.447879 0
M  V30 22668 H 2166.75 -3.25606 1.68453 0
M  V30 22669 H 2166.4 -5.02982 -0.0430931 0
M  V30 22670 H 2166.1 -5.65452 1.59806 0
M  V30 22671 H 2167.63 -6.05879 0.757827 0
M  V30 22672 H 2169.04 -5.01617 2.77584 0
M  V30 22673 H 2167.44 -4.84036 3.54724 0
M  V30 22674 H 2168.51 -3.43207 3.42545 0
M  V30 22675 N 2169.85 -1.00378 -1.21499 0
M  V30 22676 C 2171.26 -0.719279 -1.72288 0
M  V30 22677 C 2171.61 0.763155 -1.8075 0
M  V30 22678 O 2170.74 1.59617 -1.46121 0
M  V30 22679 C 2171.33 -1.299 -3.12908 0
M  V30 22680 C 2169.89 -1.06365 -3.61059 0
M  V30 22681 C 2169.04 -1.41257 -2.38625 0
M  V30 22682 H 2171.99 -1.17483 -1.06694 0
M  V30 22683 H 2172.01 -0.683038 -3.74319 0
M  V30 22684 H 2171.52 -2.37794 -3.06718 0
M  V30 22685 H 2169.62 -0.00182202 -3.726 0
M  V30 22686 H 2169.74 -1.73468 -4.46593 0
M  V30 22687 H 2168.1 -0.831332 -2.40751 0
M  V30 22688 H 2168.88 -2.50179 -2.35086 0
M  V30 22689 N 2171.33 1.37038 -0.778354 0
M  V30 22690 C 2172.24 2.33983 -0.170042 0
M  V30 22691 C 2173.25 1.60504 0.671902 0
M  V30 22692 O 2174.43 1.92556 0.590278 0
M  V30 22693 C 2171.5 3.39689 0.693729 0
M  V30 22694 C 2170.56 4.28981 -0.165434 0
M  V30 22695 C 2169.79 5.29638 0.657205 0
M  V30 22696 O 2170.01 5.38041 1.8939 0
M  V30 22697 O 2168.95 6.01867 0.0629255 0
M  V30 22698 H 2172.77 2.87749 -0.97131 0
M  V30 22699 H 2170.36 1.39314 -0.53962 0
M  V30 22700 H 2172.24 4.04348 1.18664 0
M  V30 22701 H 2170.91 2.8824 1.47307 0
M  V30 22702 H 2169.82 3.674 -0.704851 0
M  V30 22703 H 2171.15 4.83752 -0.908023 0
M  V30 22704 N 2172.81 0.529439 1.48441 0
M  V30 22705 C 2174.04 -0.000824174 2.069 0
M  V30 22706 C 2174.45 -1.28195 1.38605 0
M  V30 22707 O 2173.81 -1.76253 0.4734 0
M  V30 22708 C 2173.86 -0.229032 3.60774 0
M  V30 22709 O 2173.58 1.00134 4.26503 0
M  V30 22710 C 2175.08 -0.799736 4.36027 0
M  V30 22711 H 2172.3 0.0332691 0.670175 0
M  V30 22712 H 2174.84 0.734929 1.90838 0
M  V30 22713 H 2173 -0.914832 3.76443 0
M  V30 22714 H 2173.41 0.781737 5.18642 0
M  V30 22715 H 2174.89 -0.908842 5.44467 0
M  V30 22716 H 2175.36 -1.8045 4.00418 0
M  V30 22717 H 2175.97 -0.150518 4.25034 0
M  V30 22718 N 2174.29 -1.55364 0.264547 0
M  V30 22719 C 2175.53 -1.9936 -0.355245 0
M  V30 22720 C 2175.86 -1.15288 -1.56649 0
M  V30 22721 O 2175.12 -0.207938 -1.94592 0
M  V30 22722 C 2175.41 -3.48523 -0.791605 0
M  V30 22723 C 2175.08 -4.49807 0.313834 0
M  V30 22724 C 2173.74 -4.77223 0.617396 0
M  V30 22725 C 2176.09 -5.10323 1.05925 0
M  V30 22726 C 2173.42 -5.62426 1.67014 0
M  V30 22727 C 2175.77 -5.96669 2.10163 0
M  V30 22728 C 2174.44 -6.22411 2.41165 0
M  V30 22729 H 2173.71 -0.729509 -0.129993 0
M  V30 22730 H 2176.36 -1.87771 0.376055 0
M  V30 22731 H 2174.66 -3.57534 -1.60241 0
M  V30 22732 H 2176.36 -3.79964 -1.28173 0
M  V30 22733 H 2172.95 -4.28547 0.0671074 0
M  V30 22734 H 2177.13 -4.89174 0.837979 0
M  V30 22735 H 2172.39 -5.8062 1.91547 0
M  V30 22736 H 2176.56 -6.42598 2.68403 0
M  V30 22737 H 2174.19 -6.88226 3.22876 0
M  V30 22738 N 2175.76 0.00833021 -1.57598 0
M  V30 22739 C 2177.01 0.693539 -1.89827 0
M  V30 22740 C 2177.33 1.74773 -0.864844 0
M  V30 22741 O 2176.6 1.9565 0.0988666 0
M  V30 22742 H 2175.18 0.25915 -0.700607 0
M  V30 22743 H 2177.84 -0.0306259 -1.94876 0
M  V30 22744 H 2176.94 1.17005 -2.89337 0
M  V30 22745 N 2177.24 1.55075 0.280956 0
M  V30 22746 C 2178.52 1.6601 1.0344 0
M  V30 22747 C 2178.9 0.521384 2.0456 0
M  V30 22748 O 2178.25 -0.479533 2.23412 0
M  V30 22749 C 2178.46 3.04889 1.69834 0
M  V30 22750 C 2179.8 3.62374 2.21292 0
M  V30 22751 O 2180.83 3.07471 1.79834 0
M  V30 22752 O 2179.69 4.5855 2.97311 0
M  V30 22753 H 2176.78 0.673927 0.479324 0
M  V30 22754 H 2179.33 1.67417 0.277446 0
M  V30 22755 H 2178.1 3.7921 0.96517 0
M  V30 22756 H 2177.72 3.07347 2.52237 0
M  V30 22757 N 2178.72 -0.545102 1.47873 0
M  V30 22758 C 2179.97 -1.30171 1.55119 0
M  V30 22759 C 2180.29 -1.93268 0.21859 0
M  V30 22760 O 2179.55 -1.79059 -0.789717 0
M  V30 22761 C 2179.85 -2.42353 2.62678 0
M  V30 22762 C 2179.51 -1.97008 4.05584 0
M  V30 22763 C 2178.18 -1.84358 4.44484 0
M  V30 22764 C 2180.53 -1.62553 4.95203 0
M  V30 22765 C 2177.86 -1.35566 5.70823 0
M  V30 22766 C 2180.21 -1.15228 6.22017 0
M  V30 22767 C 2178.87 -1.01184 6.59786 0
M  V30 22768 H 2178.14 -0.476329 0.567619 0
M  V30 22769 H 2180.79 -0.609975 1.81526 0
M  V30 22770 H 2179.09 -3.17133 2.30074 0
M  V30 22771 H 2180.79 -3.00514 2.65504 0
M  V30 22772 H 2177.38 -2.078 3.74856 0
M  V30 22773 H 2181.57 -1.71193 4.6584 0
M  V30 22774 H 2176.82 -1.23367 5.98824 0
M  V30 22775 H 2181 -0.87634 6.90864 0
M  V30 22776 H 2178.62 -0.631553 7.57572 0
M  V30 22777 N 2180.2 -1.36208 -0.792797 0
M  V30 22778 C 2181.44 -1.3145 -1.55217 0
M  V30 22779 C 2181.8 0.106382 -1.92106 0
M  V30 22780 O 2181.09 1.06012 -1.59599 0
M  V30 22781 C 2181.29 -2.16771 -2.84157 0
M  V30 22782 C 2181.11 -3.67013 -2.59868 0
M  V30 22783 C 2179.88 -4.36202 -2.55061 0
M  V30 22784 C 2182.08 -4.60355 -2.29297 0
M  V30 22785 N 2180.06 -5.72107 -2.22635 0
M  V30 22786 C 2181.44 -5.84484 -2.0683 0
M  V30 22787 C 2183.49 -4.48955 -2.15276 0
M  V30 22788 C 2182.19 -6.98492 -1.7176 0
M  V30 22789 C 2184.22 -5.62827 -1.81603 0
M  V30 22790 C 2183.58 -6.85992 -1.59982 0
M  V30 22791 H 2179.68 -0.536283 -0.569144 0
M  V30 22792 H 2182.26 -1.71227 -0.926799 0
M  V30 22793 H 2180.44 -1.79245 -3.44566 0
M  V30 22794 H 2182.17 -2.03429 -3.49855 0
M  V30 22795 H 2178.92 -3.88966 -2.7019 0
M  V30 22796 H 2179.35 -6.43874 -2.09177 0
M  V30 22797 H 2183.99 -3.54323 -2.30684 0
M  V30 22798 H 2181.71 -7.93078 -1.55089 0
M  V30 22799 H 2185.29 -5.55966 -1.71443 0
M  V30 22800 H 2184.17 -7.72613 -1.34308 0
M  V30 22801 N 2181.68 1.01656 -1.20431 0
M  V30 22802 C 2183.09 1.27562 -0.959176 0
M  V30 22803 C 2183.29 1.98235 0.361268 0
M  V30 22804 O 2182.35 2.27772 1.08979 0
M  V30 22805 C 2183.66 2.11061 -2.14181 0
M  V30 22806 C 2185.21 2.24327 -2.1828 0
M  V30 22807 C 2185.68 3.11204 -3.3603 0
M  V30 22808 N 2187.17 3.18793 -3.36044 0
M  V30 22809 C 2187.91 3.86239 -4.23801 0
M  V30 22810 N 2187.41 4.55811 -5.21736 0
M  V30 22811 N 2189.2 3.82763 -4.11642 0
M  V30 22812 H 2181.35 0.542057 -2.05367 0
M  V30 22813 H 2183.61 0.30186 -0.898657 0
M  V30 22814 H 2183.32 1.66468 -3.09808 0
M  V30 22815 H 2183.19 3.11798 -2.12278 0
M  V30 22816 H 2185.58 2.68145 -1.23216 0
M  V30 22817 H 2185.66 1.23099 -2.24232 0
M  V30 22818 H 2185.3 2.68092 -4.3138 0
M  V30 22819 H 2185.23 4.1252 -3.27315 0
M  V30 22820 H 2187.73 2.69255 -2.6516 0
M  V30 22821 H 2188.04 5.04944 -5.85023 0
M  V30 22822 H 2186.38 4.54635 -5.25673 0
M  V30 22823 H 2189.57 3.27557 -3.34401 0
M  V30 22824 H 2189.75 4.3505 -4.80245 0
M  V30 22825 N 2183.15 1.01021 1.20965 0
M  V30 22826 C 2184.09 0.519783 2.22201 0
M  V30 22827 C 2185.06 -0.429328 1.5683 0
M  V30 22828 O 2186.25 -0.350829 1.85206 0
M  V30 22829 C 2183.38 -0.244355 3.37817 0
M  V30 22830 C 2182.42 0.653341 4.21466 0
M  V30 22831 S 2183.25 2.11879 4.918 0
M  V30 22832 C 2184.41 1.36463 6.10843 0
M  V30 22833 H 2184.64 1.37759 2.63457 0
M  V30 22834 H 2182.18 0.818571 1.30915 0
M  V30 22835 H 2184.13 -0.679146 4.04843 0
M  V30 22836 H 2182.8 -1.07765 2.95035 0
M  V30 22837 H 2181.99 0.0644713 5.03959 0
M  V30 22838 H 2181.59 1.02563 3.59662 0
M  V30 22839 H 2183.88 0.641256 6.74458 0
M  V30 22840 H 2184.83 2.16546 6.74176 0
M  V30 22841 H 2185.23 0.870317 5.57751 0
M  V30 22842 N 2184.63 -1.36623 0.78561 0
M  V30 22843 C 2185.88 -1.99637 0.356782 0
M  V30 22844 C 2186.21 -1.62212 -1.06775 0
M  V30 22845 O 2185.49 -0.875041 -1.73705 0
M  V30 22846 C 2185.77 -3.56381 0.516214 0
M  V30 22847 C 2185.62 -4.03672 1.98417 0
M  V30 22848 C 2186.94 -4.40043 -0.0710792 0
M  V30 22849 H 2184.06 -0.725244 0.13111 0
M  V30 22850 H 2186.7 -1.62094 0.99124 0
M  V30 22851 H 2184.85 -3.88493 -0.023898 0
M  V30 22852 H 2186.52 -3.82064 2.58505 0
M  V30 22853 H 2184.77 -3.55352 2.48812 0
M  V30 22854 H 2185.44 -5.12654 2.0467 0
M  V30 22855 H 2187.91 -4.14269 0.389931 0
M  V30 22856 H 2186.79 -5.48855 0.070524 0
M  V30 22857 H 2187.05 -4.26534 -1.16281 0
M  V30 22858 N 2186.11 -0.537304 -1.48158 0
M  V30 22859 C 2187.36 -0.0140445 -2.03395 0
M  V30 22860 C 2187.71 1.31301 -1.40633 0
M  V30 22861 O 2187 1.83671 -0.5455 0
M  V30 22862 C 2187.2 0.157545 -3.57053 0
M  V30 22863 C 2187.03 -1.15133 -4.34712 0
M  V30 22864 C 2185.8 -1.71321 -4.75371 0
M  V30 22865 C 2187.99 -2.06374 -4.71078 0
M  V30 22866 N 2185.98 -2.96421 -5.37595 0
M  V30 22867 C 2187.35 -3.16051 -5.33397 0
M  V30 22868 C 2189.4 -2.06611 -4.53008 0
M  V30 22869 C 2188.11 -4.26038 -5.79555 0
M  V30 22870 C 2190.13 -3.15598 -5.00152 0
M  V30 22871 C 2189.49 -4.23993 -5.62502 0
M  V30 22872 H 2185.59 -0.0468176 -0.780597 0
M  V30 22873 H 2188.18 -0.720202 -1.8089 0
M  V30 22874 H 2186.35 0.832796 -3.79367 0
M  V30 22875 H 2188.08 0.681071 -3.98928 0
M  V30 22876 H 2184.83 -1.25367 -4.56706 0
M  V30 22877 H 2185.26 -3.60132 -5.73266 0
M  V30 22878 H 2189.9 -1.24099 -4.04177 0
M  V30 22879 H 2187.62 -5.09324 -6.27387 0
M  V30 22880 H 2191.2 -3.16845 -4.87956 0
M  V30 22881 H 2190.08 -5.06936 -5.98319 0
M  V30 22882 N 2187.59 1.55221 -0.272782 0
M  V30 22883 C 2188.5 2.26098 0.62584 0
M  V30 22884 C 2189.51 1.28606 1.17203 0
M  V30 22885 O 2190.69 1.61537 1.20281 0
M  V30 22886 C 2187.76 2.96645 1.7945 0
M  V30 22887 C 2186.82 4.0961 1.28522 0
M  V30 22888 C 2186.05 4.76784 2.39819 0
M  V30 22889 O 2186.27 4.43155 3.59124 0
M  V30 22890 O 2185.21 5.64779 2.08107 0
M  V30 22891 H 2189.03 3.03656 0.0517442 0
M  V30 22892 H 2186.62 1.49346 -0.0402752 0
M  V30 22893 H 2188.5 3.40989 2.47597 0
M  V30 22894 H 2187.17 2.22006 2.35573 0
M  V30 22895 H 2186.08 3.69728 0.570286 0
M  V30 22896 H 2187.41 4.86143 0.769772 0
M  V30 22897 N 2189.07 2.77022e-05 1.576 0
M  V30 22898 C 2190 -1.01955 2.05275 0
M  V30 22899 C 2191.01 -1.30696 0.970685 0
M  V30 22900 O 2192.2 -1.27672 1.24748 0
M  V30 22901 C 2189.3 -2.35429 2.43775 0
M  V30 22902 C 2188.47 -2.25626 3.74715 0
M  V30 22903 C 2187.53 -3.41789 4.00083 0
M  V30 22904 O 2186.56 -3.19975 4.70749 0
M  V30 22905 N 2187.76 -4.64639 3.47981 0
M  V30 22906 H 2190.53 -0.612973 2.93364 0
M  V30 22907 H 2188.09 -0.187355 1.60812 0
M  V30 22908 H 2190.08 -3.11913 2.57861 0
M  V30 22909 H 2188.65 -2.67828 1.61205 0
M  V30 22910 H 2187.87 -1.34052 3.70707 0
M  V30 22911 H 2189.16 -2.16249 4.60558 0
M  V30 22912 H 2188.55 -4.8526 2.90756 0
M  V30 22913 H 2187.11 -5.3839 3.67396 0
M  V30 22914 N 2190.54 -1.55222 -0.272728 0
M  V30 22915 C 2191.96 -1.47068 -0.619933 0
M  V30 22916 C 2192.16 -0.685012 -1.89499 0
M  V30 22917 O 2191.22 -0.203975 -2.51675 0
M  V30 22918 C 2192.53 -2.91283 -0.746642 0
M  V30 22919 C 2194.08 -3.01499 -0.840678 0
M  V30 22920 C 2194.55 -4.46968 -0.999161 0
M  V30 22921 N 2196.04 -4.50798 -1.06468 0
M  V30 22922 C 2196.78 -5.60572 -1.20611 0
M  V30 22923 N 2196.27 -6.80211 -1.31471 0
M  V30 22924 N 2198.07 -5.48315 -1.23723 0
M  V30 22925 H 2190.22 -2.04757 0.564642 0
M  V30 22926 H 2192.48 -0.92852 0.191194 0
M  V30 22927 H 2192.19 -3.51496 0.119815 0
M  V30 22928 H 2192.06 -3.40314 -1.62684 0
M  V30 22929 H 2194.45 -2.41382 -1.6976 0
M  V30 22930 H 2194.53 -2.5572 0.0641323 0
M  V30 22931 H 2194.17 -5.07688 -0.146895 0
M  V30 22932 H 2194.1 -4.90404 -1.91862 0
M  V30 22933 H 2196.59 -3.64617 -0.993132 0
M  V30 22934 H 2196.91 -7.59624 -1.42098 0
M  V30 22935 H 2195.25 -6.83022 -1.28475 0
M  V30 22936 H 2198.44 -4.53787 -1.14869 0
M  V30 22937 H 2198.62 -6.33909 -1.34401 0
M  V30 22938 N 2192.02 0.537252 -1.4816 0
M  V30 22939 C 2193.25 1.32317 -1.59709 0
M  V30 22940 C 2193.67 1.86365 -0.254891 0
M  V30 22941 O 2193.03 1.64026 0.772349 0
M  V30 22942 C 2193.08 2.45501 -2.64125 0
M  V30 22943 O 2192.18 3.48325 -2.2078 0
M  V30 22944 H 2191.52 0.392195 -0.535798 0
M  V30 22945 H 2194.05 0.647233 -1.94093 0
M  V30 22946 H 2194.06 2.9179 -2.85171 0
M  V30 22947 H 2192.74 2.05522 -3.61571 0
M  V30 22948 H 2191.32 3.08204 -2.09917 0
M  V30 22949 N 2193.5 1.36626 0.785562 0
M  V30 22950 C 2194.46 1.3111 1.87997 0
M  V30 22951 C 2195.46 0.217987 1.59316 0
M  V30 22952 O 2196.65 0.473006 1.67655 0
M  V30 22953 C 2193.79 1.03339 3.2486 0
M  V30 22954 H 2194.98 2.28444 1.94303 0
M  V30 22955 H 2192.53 1.21455 0.983792 0
M  V30 22956 H 2193.27 0.0648002 3.24235 0
M  V30 22957 H 2193.05 1.82447 3.47067 0
M  V30 22958 H 2194.54 1.02095 4.04928 0
M  V30 22959 N 2194.98 -1.01016 1.20969 0
M  V30 22960 C 2196.21 -1.78301 1.04959 0
M  V30 22961 C 2196.62 -1.84495 -0.400883 0
M  V30 22962 O 2195.98 -1.30259 -1.27823 0
M  V30 22963 C 2196.03 -3.22459 1.63409 0
M  V30 22964 O 2195.75 -3.16632 3.0278 0
M  V30 22965 C 2197.25 -4.16266 1.52439 0
M  V30 22966 H 2194.47 -0.560515 0.368868 0
M  V30 22967 H 2197.02 -1.27113 1.60195 0
M  V30 22968 H 2195.17 -3.70773 1.12276 0
M  V30 22969 H 2195.58 -4.07164 3.30633 0
M  V30 22970 H 2197.06 -5.15233 1.98087 0
M  V30 22971 H 2197.54 -4.36592 0.477952 0
M  V30 22972 H 2198.14 -3.73838 2.02794 0
M  V30 22973 N 2196.46 -1.01661 -1.20428 0
M  V30 22974 C 2197.71 -0.70127 -1.89117 0
M  V30 22975 C 2198.02 0.772326 -1.79707 0
M  V30 22976 O 2199.22 1.20022 -2.4353 0
M  V30 22977 C 2197.68 -1.20394 -3.39166 0
M  V30 22978 C 2197.29 -2.70444 -3.57161 0
M  V30 22979 C 2199.03 -0.964026 -4.13409 0
M  V30 22980 C 2196.94 -3.14191 -5.01037 0
M  V30 22981 H 2195.87 -0.258613 -0.708262 0
M  V30 22982 H 2198.52 -1.2293 -1.36237 0
M  V30 22983 H 2196.9 -0.603893 -3.91368 0
M  V30 22984 H 2198.08 -3.35998 -3.15345 0
M  V30 22985 H 2196.39 -2.92578 -2.96289 0
M  V30 22986 H 2198.99 -1.2663 -5.19489 0
M  V30 22987 H 2199.33 0.0995048 -4.16181 0
M  V30 22988 H 2199.86 -1.52745 -3.67306 0
M  V30 22989 H 2196.6 -4.19821 -5.03419 0
M  V30 22990 H 2196.12 -2.53358 -5.43663 0
M  V30 22991 H 2197.8 -3.0683 -5.69618 0
M  V30 22992 N 2197.93 1.36205 -0.792844 0
M  V30 22993 C 2199.18 1.99445 -0.367365 0
M  V30 22994 C 2199.51 1.62776 1.05914 0
M  V30 22995 O 2198.79 0.884241 1.73238 0
M  V30 22996 C 2199.07 3.56102 -0.535107 0
M  V30 22997 C 2198.92 4.02614 -2.00555 0
M  V30 22998 C 2200.24 4.40074 0.0477417 0
M  V30 22999 H 2197.36 0.724539 -0.134954 0
M  V30 23000 H 2200 1.61566 -0.999822 0
M  V30 23001 H 2198.15 3.885 0.003295 0
M  V30 23002 H 2199.83 3.80688 -2.60527 0
M  V30 23003 H 2198.07 3.54028 -2.50693 0
M  V30 23004 H 2198.74 5.11561 -2.07386 0
M  V30 23005 H 2201.22 4.14056 -0.411895 0
M  V30 23006 H 2200.09 5.4881 -0.0996301 0
M  V30 23007 H 2200.35 4.27144 1.14018 0
M  V30 23008 N 2199.41 0.545154 1.47871 0
M  V30 23009 C 2200.35 -0.256845 2.2675 0
M  V30 23010 C 2201.32 -0.931205 1.33294 0
M  V30 23011 O 2202.51 -0.952592 1.62659 0
M  V30 23012 C 2199.63 -1.36496 3.09978 0
M  V30 23013 C 2198.68 -0.800422 4.18922 0
M  V30 23014 S 2199.51 0.343599 5.34397 0
M  V30 23015 C 2200.67 -0.766624 6.21187 0
M  V30 23016 H 2200.9 0.412531 2.94424 0
M  V30 23017 H 2198.44 0.331231 1.50805 0
M  V30 23018 H 2200.39 -1.99964 3.58503 0
M  V30 23019 H 2199.05 -2.00612 2.41689 0
M  V30 23020 H 2198.25 -1.63218 4.76839 0
M  V30 23021 H 2197.85 -0.242152 3.73215 0
M  V30 23022 H 2200.14 -1.66166 6.56807 0
M  V30 23023 H 2201.08 -0.22508 7.07742 0
M  V30 23024 H 2201.49 -1.05386 5.54575 0
M  V30 23025 N 2200.89 -1.55074 0.28101 0
M  V30 23026 C 2201.82 -2.18883 -0.645401 0
M  V30 23027 C 2202.8 -1.15167 -1.14784 0
M  V30 23028 O 2203.99 -1.43718 -1.21973 0
M  V30 23029 C 2201.11 -2.81678 -1.88083 0
M  V30 23030 C 2200.16 -3.98748 -1.51336 0
M  V30 23031 S 2200.99 -5.32279 -0.586455 0
M  V30 23032 C 2202.15 -5.98546 -1.83013 0
M  V30 23033 H 2202.38 -2.97121 -0.103248 0
M  V30 23034 H 2199.91 -1.54262 0.065237 0
M  V30 23035 H 2201.87 -3.18486 -2.58992 0
M  V30 23036 H 2200.53 -2.03323 -2.39413 0
M  V30 23037 H 2199.73 -4.41396 -2.43281 0
M  V30 23038 H 2199.33 -3.63393 -0.884413 0
M  V30 23039 H 2201.62 -6.18137 -2.77331 0
M  V30 23040 H 2202.56 -6.93167 -1.44656 0
M  V30 23041 H 2202.97 -5.27968 -1.99775 0
M  V30 23042 N 2202.37 -0.00838561 -1.57598 0
M  V30 23043 C 2203.6 0.685456 -1.95216 0
M  V30 23044 C 2204.01 1.6684 -0.883736 0
M  V30 23045 O 2203.37 1.81989 0.136533 0
M  V30 23046 C 2203.42 1.41001 -3.32868 0
M  V30 23047 O 2203.14 0.466475 -4.35609 0
M  V30 23048 C 2204.64 2.19759 -3.84995 0
M  V30 23049 H 2201.86 0.190381 -0.643425 0
M  V30 23050 H 2204.41 -0.0619966 -2.04406 0
M  V30 23051 H 2202.56 2.10902 -3.2496 0
M  V30 23052 H 2202.98 0.978608 -5.1529 0
M  V30 23053 H 2204.45 2.6594 -4.83715 0
M  V30 23054 H 2204.93 3.0279 -3.18142 0
M  V30 23055 H 2205.53 1.54857 -3.96105 0
M  V30 23056 N 2203.85 1.55365 0.264492 0
M  V30 23057 C 2205.26 1.47395 0.612125 0
M  V30 23058 C 2205.46 0.695052 1.89133 0
M  V30 23059 O 2204.52 0.217319 2.51563 0
M  V30 23060 C 2205.83 2.91675 0.731184 0
M  V30 23061 C 2207.38 3.01941 0.824677 0
M  V30 23062 C 2207.86 4.47492 0.975443 0
M  V30 23063 N 2209.35 4.51356 1.04075 0
M  V30 23064 C 2210.08 5.61203 1.17636 0
M  V30 23065 N 2209.58 6.80899 1.27862 0
M  V30 23066 N 2211.37 5.48963 1.20814 0
M  V30 23067 H 2203.52 2.04455 -0.575492 0
M  V30 23068 H 2205.78 0.927493 -0.196115 0
M  V30 23069 H 2205.49 3.51427 -0.138454 0
M  V30 23070 H 2205.36 3.41172 1.60877 0
M  V30 23071 H 2207.75 2.42279 1.68478 0
M  V30 23072 H 2207.83 2.55682 -0.0776929 0
M  V30 23073 H 2207.48 5.07758 0.119969 0
M  V30 23074 H 2207.41 4.91415 1.89259 0
M  V30 23075 H 2209.9 3.65138 0.973782 0
M  V30 23076 H 2210.21 7.60367 1.38067 0
M  V30 23077 H 2208.56 6.83694 1.24851 0
M  V30 23078 H 2211.75 4.5439 1.12461 0
M  V30 23079 H 2211.92 6.34613 1.31038 0
M  V30 23080 N 2205.33 -0.529387 1.48443 0
M  V30 23081 C 2206.26 -1.6431 1.65905 0
M  V30 23082 C 2207.24 -1.6234 0.507926 0
M  V30 23083 O 2208.42 -1.79526 0.740534 0
M  V30 23084 C 2205.55 -3.02895 1.69917 0
M  V30 23085 C 2204.51 -3.19724 2.84536 0
M  V30 23086 C 2203.83 -4.59377 2.73637 0
M  V30 23087 C 2205.13 -3.02439 4.25826 0
M  V30 23088 H 2206.83 -1.49951 2.59143 0
M  V30 23089 H 2204.37 -0.71996 1.2471 0
M  V30 23090 H 2206.32 -3.80681 1.80721 0
M  V30 23091 H 2205.05 -3.18278 0.73258 0
M  V30 23092 H 2203.71 -2.44356 2.73287 0
M  V30 23093 H 2203.36 -4.71596 1.74946 0
M  V30 23094 H 2203.06 -4.71582 3.50549 0
M  V30 23095 H 2204.58 -5.3926 2.8641 0
M  V30 23096 H 2205.99 -3.70016 4.37905 0
M  V30 23097 H 2204.39 -3.26137 5.03741 0
M  V30 23098 H 2205.46 -1.98859 4.42248 0
M  V30 23099 N 2206.8 -1.37041 -0.778305 0
M  V30 23100 C 2207.71 -1.3445 -1.92251 0
M  V30 23101 C 2208.73 -0.245021 -1.72266 0
M  V30 23102 O 2209.91 -0.479293 -1.95614 0
M  V30 23103 C 2206.97 -1.14405 -3.2728 0
M  V30 23104 C 2206.03 -2.33931 -3.59965 0
M  V30 23105 C 2205.26 -2.14834 -4.88551 0
M  V30 23106 O 2205.49 -1.12922 -5.59111 0
M  V30 23107 O 2204.42 -3.0287 -5.20147 0
M  V30 23108 H 2208.25 -2.30807 -1.97388 0
M  V30 23109 H 2205.83 -1.17703 -0.920134 0
M  V30 23110 H 2207.71 -1.05189 -4.0806 0
M  V30 23111 H 2206.39 -0.211181 -3.2301 0
M  V30 23112 H 2205.3 -2.48718 -2.79446 0
M  V30 23113 H 2206.63 -3.25763 -3.6897 0
M  V30 23114 N 2208.28 1.00373 -1.21503 0
M  V30 23115 C 2209.19 2.12619 -0.991484 0
M  V30 23116 C 2210.21 1.73907 0.056814 0
M  V30 23117 O 2211.38 2.00957 -0.133516 0
M  V30 23118 C 2208.45 3.42141 -0.560372 0
M  V30 23119 C 2207.51 3.95019 -1.68103 0
M  V30 23120 C 2206.74 5.1836 -1.27039 0
M  V30 23121 O 2206.97 5.70217 -0.144538 0
M  V30 23122 O 2205.9 5.64715 -2.08279 0
M  V30 23123 H 2209.73 2.34354 -1.93162 0
M  V30 23124 H 2207.31 1.10995 -1.00002 0
M  V30 23125 H 2209.19 4.20107 -0.329798 0
M  V30 23126 H 2207.87 3.21791 0.351033 0
M  V30 23127 H 2206.77 3.18274 -1.96602 0
M  V30 23128 H 2208.11 4.19782 -2.56991 0
M  V30 23129 N 2209.76 1.02298 1.19887 0
M  V30 23130 C 2210.71 0.598691 2.229 0
M  V30 23131 C 2211.68 -0.384492 1.61589 0
M  V30 23132 O 2212.86 -0.282489 1.88697 0
M  V30 23133 C 2210 -0.0503869 3.45063 0
M  V30 23134 C 2209.11 0.978127 4.20781 0
M  V30 23135 C 2208.25 0.299432 5.30355 0
M  V30 23136 C 2207.29 1.31426 5.97824 0
M  V30 23137 N 2206.43 0.66179 6.98974 0
M  V30 23138 H 2211.27 1.48173 2.58551 0
M  V30 23139 H 2208.8 0.741606 1.27038 0
M  V30 23140 H 2210.76 -0.443898 4.14832 0
M  V30 23141 H 2209.39 -0.897042 3.10085 0
M  V30 23142 H 2208.44 1.48975 3.50015 0
M  V30 23143 H 2209.75 1.74967 4.67106 0
M  V30 23144 H 2208.91 -0.14924 6.06516 0
M  V30 23145 H 2207.65 -0.50436 4.85085 0
M  V30 23146 H 2206.65 1.77326 5.20419 0
M  V30 23147 H 2207.88 2.11945 6.45179 0
M  V30 23148 H 2205.82 -0.122017 6.55887 0
M  V30 23149 H 2205.74 1.3713 7.43459 0
M  V30 23150 H 2207.01 0.236922 7.7914 0
M  V30 23151 N 2211.24 -1.35782 0.800057 0
M  V30 23152 C 2212.46 -2.03728 0.388546 0
M  V30 23153 C 2212.89 -1.59911 -0.990453 0
M  V30 23154 O 2212.25 -0.772641 -1.64012 0
M  V30 23155 C 2212.29 -3.57489 0.472663 0
M  V30 23156 O 2211.4 -4.09154 -0.516388 0
M  V30 23157 H 2210.74 -0.643611 0.163282 0
M  V30 23158 H 2213.27 -1.73516 1.08413 0
M  V30 23159 H 2213.28 -4.0658 0.340102 0
M  V30 23160 H 2211.95 -3.88731 1.47855 0
M  V30 23161 H 2210.53 -3.71304 -0.344607 0
M  V30 23162 N 2212.72 -0.552988 -1.4758 0
M  V30 23163 C 2214.13 -0.212452 -1.5818 0
M  V30 23164 C 2214.33 1.28493 -1.55215 0
M  V30 23165 O 2213.39 2.06482 -1.45333 0
M  V30 23166 C 2214.7 -0.835368 -2.88863 0
M  V30 23167 C 2216.25 -0.806209 -3.02439 0
M  V30 23168 C 2216.72 -1.40812 -4.35817 0
M  V30 23169 N 2218.21 -1.37111 -4.42442 0
M  V30 23170 C 2218.95 -1.80651 -5.44199 0
M  V30 23171 N 2218.45 -2.32027 -6.5279 0
M  V30 23172 N 2220.24 -1.71747 -5.35219 0
M  V30 23173 H 2212.39 -1.5259 -1.4775 0
M  V30 23174 H 2214.65 -0.636076 -0.70293 0
M  V30 23175 H 2214.36 -1.88754 -2.96757 0
M  V30 23176 H 2214.23 -0.325914 -3.75789 0
M  V30 23177 H 2216.62 0.237265 -2.94145 0
M  V30 23178 H 2216.7 -1.35338 -2.17065 0
M  V30 23179 H 2216.34 -2.45064 -4.44866 0
M  V30 23180 H 2216.27 -0.83643 -5.19915 0
M  V30 23181 H 2218.77 -0.995266 -3.64558 0
M  V30 23182 H 2219.08 -2.63184 -7.26604 0
M  V30 23183 H 2217.42 -2.36035 -6.53691 0
M  V30 23184 H 2220.61 -1.3139 -4.49282 0
M  V30 23185 H 2220.79 -2.05998 -6.14385 0
M  V30 23186 N 2214.19 1.54923 -0.28923 0
M  V30 23187 C 2215.44 1.99078 0.324196 0
M  V30 23188 C 2215.76 1.1812 1.55907 0
M  V30 23189 O 2216.96 1.52485 2.24635 0
M  V30 23190 C 2215.42 3.54376 0.628147 0
M  V30 23191 C 2215.03 4.44128 -0.587725 0
M  V30 23192 C 2216.77 4.07085 1.20342 0
M  V30 23193 C 2214.68 5.90839 -0.257578 0
M  V30 23194 H 2213.61 0.743581 0.124911 0
M  V30 23195 H 2216.26 1.79174 -0.396095 0
M  V30 23196 H 2214.64 3.70134 1.40772 0
M  V30 23197 H 2215.81 4.40142 -1.36426 0
M  V30 23198 H 2214.13 4.02129 -1.08081 0
M  V30 23199 H 2216.73 5.14254 1.46447 0
M  V30 23200 H 2217.07 3.56972 2.14189 0
M  V30 23201 H 2217.6 3.94822 0.48582 0
M  V30 23202 H 2214.34 6.45077 -1.1643 0
M  V30 23203 H 2213.86 5.97861 0.481912 0
M  V30 23204 H 2215.54 6.46837 0.145124 0
M  V30 23205 N 2215.67 0.0167433 1.57591 0
M  V30 23206 C 2216.62 -0.969215 2.09463 0
M  V30 23207 C 2217.59 -1.33087 0.993833 0
M  V30 23208 O 2218.77 -1.42634 1.26729 0
M  V30 23209 C 2215.91 -2.25046 2.61626 0
M  V30 23210 C 2215.03 -1.94636 3.8567 0
M  V30 23211 C 2214.16 -3.16964 4.26271 0
M  V30 23212 C 2213.2 -2.82316 5.43106 0
M  V30 23213 N 2212.34 -3.97232 5.78922 0
M  V30 23214 H 2217.18 -0.519945 2.93429 0
M  V30 23215 H 2214.71 -0.245062 1.45044 0
M  V30 23216 H 2216.67 -2.99971 2.89954 0
M  V30 23217 H 2215.3 -2.67612 1.8051 0
M  V30 23218 H 2214.35 -1.10006 3.64147 0
M  V30 23219 H 2215.67 -1.65109 4.70681 0
M  V30 23220 H 2214.82 -4.0022 4.5597 0
M  V30 23221 H 2213.56 -3.49642 3.40002 0
M  V30 23222 H 2212.56 -1.9747 5.13114 0
M  V30 23223 H 2213.79 -2.50868 6.31064 0
M  V30 23224 H 2211.74 -4.29776 4.95609 0
M  V30 23225 H 2211.65 -3.71287 6.58545 0
M  V30 23226 H 2212.92 -4.81228 6.13221 0
M  V30 23227 N 2217.15 -1.55503 -0.256249 0
M  V30 23228 C 2218.39 -1.78656 -0.993049 0
M  V30 23229 C 2218.75 -0.584756 -1.82879 0
M  V30 23230 O 2219.96 -0.694868 -2.59663 0
M  V30 23231 C 2218.23 -3.06486 -1.8385 0
M  V30 23232 S 2219.79 -3.50824 -2.63567 0
M  V30 23233 H 2216.6 -0.627566 -0.334188 0
M  V30 23234 H 2219.21 -1.93739 -0.261806 0
M  V30 23235 H 2217.91 -3.92031 -1.21407 0
M  V30 23236 H 2217.44 -2.94115 -2.61266 0
M  V30 23237 H 2219.46 -3.11419 -3.86306 0
M  V30 23238 N 2218.63 0.521507 -1.48721 0
M  V30 23239 C 2219.91 1.28278 -1.47662 0
M  V30 23240 C 2220.29 2.10216 -0.192957 0
M  V30 23241 O 2219.63 2.13081 0.825155 0
M  V30 23242 C 2219.84 2.157 -2.74362 0
M  V30 23243 C 2221.19 2.75563 -3.23032 0
M  V30 23244 O 2222.22 2.25982 -2.75337 0
M  V30 23245 O 2221.07 3.65771 -4.06046 0
M  V30 23246 H 2218.17 0.579411 -0.590095 0
M  V30 23247 H 2220.71 0.537464 -1.60964 0
M  V30 23248 H 2219.49 1.54993 -3.59295 0
M  V30 23249 H 2219.11 2.97463 -2.63821 0
M  V30 23250 N 2220.11 1.37452 0.771027 0
M  V30 23251 C 2221.04 1.29149 1.89349 0
M  V30 23252 C 2222.05 0.207152 1.61477 0
M  V30 23253 O 2223.24 0.463354 1.72381 0
M  V30 23254 C 2220.34 0.974252 3.24594 0
M  V30 23255 C 2219.51 2.1642 3.80107 0
M  V30 23256 C 2218.57 1.81712 4.93829 0
M  V30 23257 O 2217.6 2.54015 5.09377 0
M  V30 23258 N 2218.8 0.761674 5.75481 0
M  V30 23259 H 2221.57 2.25867 1.96987 0
M  V30 23260 H 2219.13 1.31086 0.950168 0
M  V30 23261 H 2221.12 0.722898 3.98191 0
M  V30 23262 H 2219.69 0.0956076 3.12454 0
M  V30 23263 H 2218.91 2.57726 2.9828 0
M  V30 23264 H 2220.2 2.95875 4.13927 0
M  V30 23265 H 2219.59 0.161708 5.65469 0
M  V30 23266 H 2218.15 0.570178 6.49301 0
M  V30 23267 N 2221.58 -0.997276 1.22033 0
M  V30 23268 C 2222.81 -1.76921 1.06689 0
M  V30 23269 C 2223.22 -1.85225 -0.385805 0
M  V30 23270 O 2222.57 -1.31835 -1.27927 0
M  V30 23271 C 2222.63 -3.22028 1.59807 0
M  V30 23272 C 2222.29 -3.37281 3.08367 0
M  V30 23273 C 2223.29 -3.24945 4.05841 0
M  V30 23274 C 2220.97 -3.62474 3.47733 0
M  V30 23275 C 2222.97 -3.37579 5.40666 0
M  V30 23276 C 2220.65 -3.74748 4.82708 0
M  V30 23277 C 2221.65 -3.62309 5.78983 0
M  V30 23278 O 2221.34 -3.74181 7.11508 0
M  V30 23279 H 2221.07 -0.5626 0.374777 0
M  V30 23280 H 2223.63 -1.26283 1.61993 0
M  V30 23281 H 2221.86 -3.73837 0.989069 0
M  V30 23282 H 2223.55 -3.80922 1.40191 0
M  V30 23283 H 2224.31 -3.05398 3.76772 0
M  V30 23284 H 2220.19 -3.71235 2.73323 0
M  V30 23285 H 2223.73 -3.27786 6.15794 0
M  V30 23286 H 2219.63 -3.93801 5.1146 0
M  V30 23287 H 2220.4 -3.91081 7.19026 0
M  V30 23288 N 2223.06 -1.02932 -1.19343 0
M  V30 23289 C 2224.31 -0.736857 -1.89584 0
M  V30 23290 C 2224.66 0.726671 -1.7815 0
M  V30 23291 O 2223.96 1.52239 -1.16334 0
M  V30 23292 C 2224.15 -1.12325 -3.3929 0
M  V30 23293 C 2223.98 -2.6228 -3.65294 0
M  V30 23294 C 2222.75 -3.29257 -3.83298 0
M  V30 23295 C 2224.95 -3.60489 -3.66814 0
M  V30 23296 N 2222.93 -4.68311 -3.96936 0
M  V30 23297 C 2224.3 -4.85162 -3.86028 0
M  V30 23298 C 2226.36 -3.54281 -3.49842 0
M  V30 23299 C 2225.06 -6.04375 -3.90029 0
M  V30 23300 C 2227.08 -4.72909 -3.55121 0
M  V30 23301 C 2226.45 -5.96397 -3.7482 0
M  V30 23302 H 2222.55 -0.32151 -0.71285 0
M  V30 23303 H 2225.13 -1.31672 -1.43425 0
M  V30 23304 H 2223.3 -0.571591 -3.84171 0
M  V30 23305 H 2225.03 -0.78299 -3.97053 0
M  V30 23306 H 2221.79 -2.7967 -3.82206 0
M  V30 23307 H 2222.21 -5.40545 -4.07603 0
M  V30 23308 H 2226.85 -2.59794 -3.33567 0
M  V30 23309 H 2224.57 -6.9923 -4.05096 0
M  V30 23310 H 2228.16 -4.69735 -3.43279 0
M  V30 23311 H 2227.04 -6.86655 -3.7878 0
M  V30 23312 N 2224.54 1.35356 -0.807246 0
M  V30 23313 C 2225.95 1.81226 -0.448791 0
M  V30 23314 C 2226.3 1.67035 1.02926 0
M  V30 23315 O 2225.43 1.20137 1.79989 0
M  V30 23316 C 2226.02 3.29028 -0.807832 0
M  V30 23317 C 2224.58 3.73038 -0.501967 0
M  V30 23318 C 2223.73 2.57337 -1.03309 0
M  V30 23319 H 2226.68 1.23325 -0.99883 0
M  V30 23320 H 2226.7 3.80353 -0.105607 0
M  V30 23321 H 2226.21 3.39325 -1.88363 0
M  V30 23322 H 2224.31 3.6829 0.565063 0
M  V30 23323 H 2224.43 4.67786 -1.03505 0
M  V30 23324 H 2222.79 2.50596 -0.455383 0
M  V30 23325 H 2223.57 2.70411 -2.11501 0
M  V30 23326 N 2226.02 0.560807 1.47284 0
M  V30 23327 C 2226.97 -0.197901 2.31757 0
M  V30 23328 C 2227.96 -0.905828 1.43147 0
M  V30 23329 O 2229.17 -0.826705 1.59892 0
M  V30 23330 H 2225.54 -0.0826918 0.74744 0
M  V30 23331 H 2227.51 0.53368 2.93589 0
M  V30 23332 C 2226.26 -1.21244 3.25876 0
M  V30 23333 H 2225.58 -0.677121 3.94024 0
M  V30 23334 H 2227.02 -1.71412 3.87806 0
M  V30 23335 C 2225.48 -2.26217 2.49655 0
M  V30 23336 O 2226.01 -3.33204 2.24361 0
M  V30 23337 N 2224.22 -2.0024 2.106 0
M  V30 23338 H 2223.77 -1.13248 2.31371 0
M  V30 23339 H 2223.72 -2.70691 1.59918 0
M  V30 23340 N 2227.5 -1.54768 0.297442 0
M  V30 23341 C 2228.91 -1.59502 -0.0560543 0
M  V30 23342 C 2229.11 -1.31446 -1.52722 0
M  V30 23343 O 2228.17 -1.08615 -2.27945 0
M  V30 23344 C 2229.48 -2.98787 0.338683 0
M  V30 23345 C 2231.03 -3.1168 0.287152 0
M  V30 23346 C 2231.5 -4.53268 0.656659 0
M  V30 23347 N 2233 -4.59178 0.609058 0
M  V30 23348 C 2233.73 -5.668 0.867485 0
M  V30 23349 N 2233.23 -6.82474 1.19169 0
M  V30 23350 N 2235.02 -5.56453 0.794785 0
M  V30 23351 H 2227.17 -1.71265 1.25627 0
M  V30 23352 H 2229.43 -0.799719 0.509071 0
M  V30 23353 H 2229.14 -3.24228 1.36268 0
M  V30 23354 H 2229.01 -3.75929 -0.309442 0
M  V30 23355 H 2231.4 -2.8599 -0.727598 0
M  V30 23356 H 2231.48 -2.36701 0.96985 0
M  V30 23357 H 2231.13 -4.79688 1.6692 0
M  V30 23358 H 2231.06 -5.26578 -0.0480724 0
M  V30 23359 H 2233.55 -3.76092 0.369265 0
M  V30 23360 H 2233.86 -7.6047 1.37496 0
M  V30 23361 H 2232.2 -6.84035 1.2297 0
M  V30 23362 H 2235.4 -4.64961 0.54118 0
M  V30 23363 H 2235.57 -6.40244 0.999557 0
M  V30 23364 N 2228.97 -0.0251005 -1.5758 0
M  V30 23365 C 2230.22 0.653118 -1.91256 0
M  V30 23366 C 2230.54 1.72899 -0.901721 0
M  V30 23367 O 2229.81 1.95816 0.0573441 0
M  V30 23368 H 2228.39 0.24423 -0.705947 0
M  V30 23369 H 2231.06 -0.0719551 -1.94767 0
M  V30 23370 H 2230.15 1.10842 -2.91754 0
M  V30 23371 N 2230.45 1.55637 0.247999 0
M  V30 23372 C 2231.68 1.81471 0.993776 0
M  V30 23373 C 2232.1 0.600672 1.7899 0
M  V30 23374 O 2231.45 -0.430651 1.77346 0
M  V30 23375 C 2231.5 3.05509 1.93252 0
M  V30 23376 O 2231.22 4.22226 1.16862 0
M  V30 23377 C 2232.73 3.44135 2.79438 0
M  V30 23378 H 2229.95 0.603903 0.292476 0
M  V30 23379 H 2232.49 2.02694 0.271217 0
M  V30 23380 H 2230.64 2.8634 2.60938 0
M  V30 23381 H 2231.06 4.92518 1.80351 0
M  V30 23382 H 2232.53 4.34032 3.41058 0
M  V30 23383 H 2233.01 2.64671 3.50494 0
M  V30 23384 H 2233.62 3.65652 2.17207 0
M  V30 23385 N 2231.93 -0.513613 1.48996 0
M  V30 23386 C 2232.84 -1.64314 1.67446 0
M  V30 23387 C 2233.86 -1.64845 0.556976 0
M  V30 23388 O 2235.03 -1.83497 0.830114 0
M  V30 23389 C 2232.1 -3.00729 1.7252 0
M  V30 23390 C 2231.16 -3.10925 2.96014 0
M  V30 23391 C 2230.39 -4.40832 3.00837 0
M  V30 23392 O 2230.62 -5.28895 2.13604 0
M  V30 23393 O 2229.55 -4.55737 3.93176 0
M  V30 23394 H 2233.38 -1.51682 2.63109 0
M  V30 23395 H 2230.96 -0.688519 1.32589 0
M  V30 23396 H 2232.84 -3.81828 1.78284 0
M  V30 23397 H 2231.52 -3.1365 0.800333 0
M  V30 23398 H 2230.42 -2.2906 2.95774 0
M  V30 23399 H 2231.76 -3.02926 3.87939 0
M  V30 23400 N 2233.41 -1.37859 -0.763727 0
M  V30 23401 C 2234.64 -1.36721 -1.5529 0
M  V30 23402 C 2235.05 0.0455102 -1.88745 0
M  V30 23403 O 2234.41 1.00945 -1.52041 0
M  V30 23404 C 2234.46 -2.21325 -2.85827 0
M  V30 23405 O 2234.18 -3.57093 -2.53803 0
M  V30 23406 C 2235.68 -2.28256 -3.80019 0
M  V30 23407 H 2232.9 -0.468018 -0.480833 0
M  V30 23408 H 2235.45 -1.81305 -0.945977 0
M  V30 23409 H 2233.6 -1.8023 -3.42923 0
M  V30 23410 H 2234.02 -4.0153 -3.37452 0
M  V30 23411 H 2235.49 -2.9176 -4.68594 0
M  V30 23412 H 2235.97 -1.29328 -4.19727 0
M  V30 23413 H 2236.57 -2.69699 -3.28851 0
M  V30 23414 N 2234.89 0.990791 -1.22561 0
M  V30 23415 C 2236.12 1.76353 -1.07626 0
M  V30 23416 C 2236.53 1.85427 0.375977 0
M  V30 23417 O 2235.87 1.32511 1.27226 0
M  V30 23418 C 2235.93 3.21176 -1.61513 0
M  V30 23419 C 2235.59 3.35641 -3.10152 0
M  V30 23420 C 2236.59 3.22788 -4.07558 0
M  V30 23421 C 2234.28 3.60624 -3.4965 0
M  V30 23422 C 2236.27 3.34707 -5.42448 0
M  V30 23423 C 2233.96 3.72183 -4.84688 0
M  V30 23424 C 2234.96 3.59233 -5.80896 0
M  V30 23425 O 2234.64 3.70402 -7.13483 0
M  V30 23426 H 2234.38 0.560604 -0.377755 0
M  V30 23427 H 2236.93 1.25422 -1.62661 0
M  V30 23428 H 2235.16 3.73308 -1.00888 0
M  V30 23429 H 2236.85 3.80173 -1.42209 0
M  V30 23430 H 2237.61 3.03396 -3.78386 0
M  V30 23431 H 2233.49 3.6978 -2.75288 0
M  V30 23432 H 2237.04 3.24515 -6.17524 0
M  V30 23433 H 2232.93 3.91083 -5.13541 0
M  V30 23434 H 2233.7 3.87262 -7.2109 0
M  V30 23435 N 2236.37 1.03564 1.18795 0
M  V30 23436 C 2237.61 0.734602 1.88276 0
M  V30 23437 C 2237.93 -0.739554 1.80432 0
M  V30 23438 O 2237.2 -1.53331 1.21928 0
M  V30 23439 H 2235.78 0.268737 0.696986 0
M  V30 23440 H 2238.45 1.31131 1.44189 0
M  V30 23441 H 2237.54 1.03494 2.94441 0
M  V30 23442 N 2237.84 -1.34926 0.814413 0
M  V30 23443 C 2239.09 -1.98541 0.398458 0
M  V30 23444 C 2239.42 -1.64591 -1.03635 0
M  V30 23445 O 2238.67 -0.905191 -1.73507 0
M  V30 23446 C 2238.97 -3.5333 0.537843 0
M  V30 23447 C 2238.64 -4.07169 1.93711 0
M  V30 23448 C 2237.3 -4.21584 2.31991 0
M  V30 23449 C 2239.65 -4.36232 2.85221 0
M  V30 23450 C 2236.98 -4.62385 3.61133 0
M  V30 23451 C 2239.33 -4.78475 4.13817 0
M  V30 23452 C 2238 -4.91096 4.52086 0
M  V30 23453 H 2237.27 -0.726513 0.145806 0
M  V30 23454 H 2239.91 -1.61011 1.03672 0
M  V30 23455 H 2238.22 -3.91368 -0.183837 0
M  V30 23456 H 2239.92 -4.00517 0.196658 0
M  V30 23457 H 2236.51 -3.96406 1.62973 0
M  V30 23458 H 2240.69 -4.24641 2.56893 0
M  V30 23459 H 2235.95 -4.70346 3.90621 0
M  V30 23460 H 2240.12 -4.99923 4.84819 0
M  V30 23461 H 2237.75 -5.22468 5.52205 0
M  V30 23462 N 2239.32 -0.56861 -1.46985 0
M  V30 23463 C 2240.57 -0.0466248 -2.01646 0
M  V30 23464 C 2240.88 1.31584 -1.44723 0
M  V30 23465 O 2242.09 1.92838 -1.91117 0
M  V30 23466 C 2240.55 -0.0328152 -3.59885 0
M  V30 23467 C 2240.15 -1.39274 -4.25801 0
M  V30 23468 C 2241.9 0.435964 -4.22255 0
M  V30 23469 C 2239.8 -1.33742 -5.76079 0
M  V30 23470 H 2238.73 -0.0136602 -0.753876 0
M  V30 23471 H 2241.39 -0.718161 -1.68863 0
M  V30 23472 H 2239.77 0.704601 -3.89681 0
M  V30 23473 H 2240.94 -2.14877 -4.07633 0
M  V30 23474 H 2239.26 -1.80038 -3.75467 0
M  V30 23475 H 2241.85 0.495926 -5.32395 0
M  V30 23476 H 2242.2 1.45046 -3.90214 0
M  V30 23477 H 2242.73 -0.246947 -3.97033 0
M  V30 23478 H 2239.47 -2.32827 -6.12757 0
M  V30 23479 H 2238.99 -0.623372 -5.96552 0
M  V30 23480 H 2240.67 -1.04431 -6.38516 0
M  V30 23481 N 2240.8 1.54608 -0.305646 0
M  V30 23482 C 2241.73 2.2115 0.602122 0
M  V30 23483 C 2242.74 1.20571 1.09392 0
M  V30 23484 O 2243.93 1.47138 1.01057 0
M  V30 23485 C 2241.03 2.84802 1.83687 0
M  V30 23486 C 2240.21 4.11356 1.48678 0
M  V30 23487 C 2239.27 4.58768 2.57717 0
M  V30 23488 O 2238.29 5.23862 2.22614 0
M  V30 23489 N 2239.49 4.31478 3.88339 0
M  V30 23490 H 2242.26 2.99682 0.0324439 0
M  V30 23491 H 2239.82 1.61393 -0.128049 0
M  V30 23492 H 2241.81 3.13452 2.55988 0
M  V30 23493 H 2240.38 2.10082 2.31483 0
M  V30 23494 H 2239.6 3.89665 0.5962 0
M  V30 23495 H 2240.89 4.9375 1.22833 0
M  V30 23496 H 2240.29 3.79339 4.19665 0
M  V30 23497 H 2238.84 4.64826 4.56924 0
M  V30 23498 N 2242.28 0.033457 1.57564 0
M  V30 23499 C 2243.52 -0.645193 1.92263 0
M  V30 23500 C 2243.86 -1.71529 0.910573 0
M  V30 23501 O 2243.13 -1.94388 -0.0660648 0
M  V30 23502 C 2243.41 -1.25765 3.37425 0
M  V30 23503 C 2243.27 -0.196812 4.49369 0
M  V30 23504 C 2244.59 -2.17442 3.82632 0
M  V30 23505 H 2241.71 -0.233073 0.699175 0
M  V30 23506 H 2244.35 0.0916027 1.89779 0
M  V30 23507 H 2242.5 -1.8856 3.39672 0
M  V30 23508 H 2244.17 0.434043 4.59253 0
M  V30 23509 H 2242.41 0.477213 4.31167 0
M  V30 23510 H 2243.08 -0.665027 5.47979 0
M  V30 23511 H 2245.56 -1.64628 3.82148 0
M  V30 23512 H 2244.44 -2.57246 4.84888 0
M  V30 23513 H 2244.7 -3.06734 3.18381 0
M  V30 23514 N 2243.76 -1.55766 -0.239741 0
M  V30 23515 C 2244.98 -1.81995 -0.984138 0
M  V30 23516 C 2245.4 -0.610156 -1.78669 0
M  V30 23517 O 2244.76 0.42124 -1.77572 0
M  V30 23518 C 2244.81 -3.0653 -1.91629 0
M  V30 23519 O 2244.53 -4.2284 -1.14621 0
M  V30 23520 C 2246.03 -3.45612 -2.77609 0
M  V30 23521 H 2243.25 -0.605446 -0.289269 0
M  V30 23522 H 2245.79 -2.02835 -0.260464 0
M  V30 23523 H 2243.95 -2.87719 -2.59415 0
M  V30 23524 H 2244.36 -4.93467 -1.77736 0
M  V30 23525 H 2245.84 -4.35834 -3.38751 0
M  V30 23526 H 2246.31 -2.66526 -3.49086 0
M  V30 23527 H 2246.92 -3.66798 -2.15265 0
M  V30 23528 N 2245.23 0.505704 -1.49266 0
M  V30 23529 C 2246.16 1.6165 -1.68498 0
M  V30 23530 C 2247.14 1.61511 -0.533688 0
M  V30 23531 O 2248.33 1.78326 -0.769002 0
M  V30 23532 C 2245.46 3.00154 -1.74714 0
M  V30 23533 C 2244.41 3.15157 -2.89586 0
M  V30 23534 C 2243.74 4.54965 -2.80911 0
M  V30 23535 C 2245.04 2.95627 -4.30584 0
M  V30 23536 H 2246.73 1.45809 -2.61496 0
M  V30 23537 H 2244.28 0.700028 -1.2584 0
M  V30 23538 H 2246.23 3.77757 -1.86755 0
M  V30 23539 H 2244.96 3.17072 -0.783123 0
M  V30 23540 H 2243.62 2.39977 -2.7714 0
M  V30 23541 H 2243.26 4.68753 -1.82427 0
M  V30 23542 H 2242.96 4.65945 -3.58007 0
M  V30 23543 H 2244.49 5.34636 -2.94953 0
M  V30 23544 H 2245.9 3.63003 -4.43736 0
M  V30 23545 H 2244.3 3.18082 -5.08866 0
M  V30 23546 H 2245.37 1.91798 -4.45356 0
M  V30 23547 N 2246.71 1.38262 0.756405 0
M  V30 23548 C 2247.64 1.37979 1.88372 0
M  V30 23549 C 2248.62 0.246111 1.6831 0
M  V30 23550 O 2249.81 0.448773 1.88944 0
M  V30 23551 C 2246.94 1.2013 3.25862 0
M  V30 23552 C 2245.89 2.30673 3.60519 0
M  V30 23553 C 2245.22 1.97932 4.96716 0
M  V30 23554 C 2246.52 3.72923 3.65686 0
M  V30 23555 H 2248.21 2.32315 1.88865 0
M  V30 23556 H 2245.76 1.11825 0.907253 0
M  V30 23557 H 2247.71 1.18559 4.04378 0
M  V30 23558 H 2246.44 0.222555 3.25841 0
M  V30 23559 H 2245.09 2.31425 2.8432 0
M  V30 23560 H 2244.74 0.98548 4.93252 0
M  V30 23561 H 2244.44 2.71965 5.20873 0
M  V30 23562 H 2245.97 1.97974 5.77615 0
M  V30 23563 H 2247.38 3.74216 4.34322 0
M  V30 23564 H 2245.78 4.46137 4.0135 0
M  V30 23565 H 2246.85 4.05441 2.6598 0
M  V30 23566 N 2248.19 -0.984277 1.23084 0
M  V30 23567 C 2249.47 -1.69915 0.968929 0
M  V30 23568 C 2249.85 -2.04758 -0.513568 0
M  V30 23569 O 2249.2 -1.73769 -1.4838 0
M  V30 23570 C 2249.41 -2.9434 1.87524 0
M  V30 23571 C 2250.75 -3.66936 2.13642 0
M  V30 23572 O 2251.78 -3.04365 1.85042 0
M  V30 23573 O 2250.64 -4.79533 2.62127 0
M  V30 23574 H 2247.73 -0.742041 0.365108 0
M  V30 23575 H 2250.28 -1.03985 1.34109 0
M  V30 23576 H 2249.05 -2.65159 2.87761 0
M  V30 23577 H 2248.67 -3.68007 1.5052 0
M  V30 23578 N 2249.67 -1.04192 -1.18244 0
M  V30 23579 C 2250.9 -0.766106 -1.92194 0
M  V30 23580 C 2251.31 0.676902 -1.76248 0
M  V30 23581 O 2250.67 1.46153 -1.09296 0
M  V30 23582 C 2250.72 -1.12448 -3.43566 0
M  V30 23583 O 2250.44 -2.51084 -3.5901 0
M  V30 23584 C 2251.94 -0.873351 -4.34612 0
M  V30 23585 H 2249.16 -0.279299 -0.610109 0
M  V30 23586 H 2251.71 -1.38992 -1.50005 0
M  V30 23587 H 2249.86 -0.54561 -3.83539 0
M  V30 23588 H 2250.27 -2.64839 -4.52726 0
M  V30 23589 H 2251.75 -1.17395 -5.39372 0
M  V30 23590 H 2252.23 0.191832 -4.38781 0
M  V30 23591 H 2252.83 -1.43558 -4.00339 0
M  V30 23592 N 2251.15 1.34492 -0.821557 0
M  V30 23593 C 2252.4 1.97584 -0.40539 0
M  V30 23594 C 2252.71 1.65865 1.03674 0
M  V30 23595 O 2253.91 2.22436 1.55675 0
M  V30 23596 C 2252.37 3.53534 -0.673924 0
M  V30 23597 C 2251.98 3.94148 -2.12958 0
M  V30 23598 C 2253.72 4.23263 -0.323854 0
M  V30 23599 C 2251.63 5.43005 -2.34308 0
M  V30 23600 H 2250.56 0.739362 -0.147849 0
M  V30 23601 H 2253.21 1.53353 -1.00772 0
M  V30 23602 H 2251.59 3.96 -0.00144515 0
M  V30 23603 H 2252.77 3.62792 -2.84111 0
M  V30 23604 H 2251.08 3.37352 -2.44095 0
M  V30 23605 H 2253.68 5.32707 -0.461219 0
M  V30 23606 H 2254.02 4.09823 0.731514 0
M  V30 23607 H 2254.55 3.86269 -0.950854 0
M  V30 23608 H 2251.29 5.61429 -3.38345 0
M  V30 23609 H 2250.81 5.7588 -1.67697 0
M  V30 23610 H 2252.49 6.09667 -2.16599 0
M  V30 23611 N 2252.62 0.576397 1.46681 0
M  V30 23612 C 2253.53 -0.1631 2.34032 0
M  V30 23613 C 2254.55 -0.892475 1.49368 0
M  V30 23614 O 2255.73 -0.857074 1.82253 0
M  V30 23615 C 2252.79 -1.16789 3.26437 0
M  V30 23616 C 2251.85 -0.443869 4.26999 0
M  V30 23617 C 2251.09 -1.40079 5.14989 0
M  V30 23618 O 2251.31 -2.63692 5.05789 0
M  V30 23619 O 2250.24 -0.914812 5.94907 0
M  V30 23620 H 2254.07 0.553932 2.98606 0
M  V30 23621 H 2251.65 0.336846 1.45553 0
M  V30 23622 H 2253.54 -1.74741 3.83462 0
M  V30 23623 H 2252.21 -1.8665 2.64468 0
M  V30 23624 H 2251.12 0.177336 3.73679 0
M  V30 23625 H 2252.45 0.213652 4.91736 0
M  V30 23626 N 2254.1 -1.54444 0.313841 0
M  V30 23627 C 2255.03 -2.26944 -0.549415 0
M  V30 23628 C 2256.01 -1.27374 -1.12739 0
M  V30 23629 O 2257.2 -1.56169 -1.15433 0
M  V30 23630 C 2254.33 -3.01992 -1.71517 0
M  V30 23631 C 2253.28 -4.08818 -1.26696 0
M  V30 23632 C 2252.61 -4.71652 -2.5189 0
M  V30 23633 C 2253.91 -5.2085 -0.38887 0
M  V30 23634 H 2255.6 -2.99349 0.0553188 0
M  V30 23635 H 2253.15 -1.43973 0.028046 0
M  V30 23636 H 2255.1 -3.51437 -2.32529 0
M  V30 23637 H 2253.83 -2.27187 -2.34635 0
M  V30 23638 H 2252.48 -3.60241 -0.679833 0
M  V30 23639 H 2252.13 -3.93473 -3.13349 0
M  V30 23640 H 2251.83 -5.43806 -2.22595 0
M  V30 23641 H 2253.36 -5.23867 -3.13681 0
M  V30 23642 H 2254.77 -5.66112 -0.905007 0
M  V30 23643 H 2253.17 -5.99802 -0.189135 0
M  V30 23644 H 2254.24 -4.81385 0.582784 0
M  V30 23645 N 2255.58 -0.0418125 -1.57545 0
M  V30 23646 C 2256.54 0.920893 -2.09886 0
M  V30 23647 C 2257.54 1.24595 -1.0165 0
M  V30 23648 O 2258.73 1.18418 -1.27761 0
M  V30 23649 C 2255.87 2.23363 -2.57531 0
M  V30 23650 H 2257.06 0.467329 -2.96236 0
M  V30 23651 H 2254.61 0.20644 -1.54931 0
M  V30 23652 H 2255.35 2.7332 -1.74547 0
M  V30 23653 H 2255.13 2.01077 -3.36616 0
M  V30 23654 H 2256.62 2.9234 -2.98206 0
M  V30 23655 N 2257.06 1.55891 0.231477 0
M  V30 23656 C 2258.29 1.82515 0.974473 0
M  V30 23657 C 2258.7 0.619622 1.78343 0
M  V30 23658 O 2258.06 -0.411817 1.77793 0
M  V30 23659 C 2258.11 3.07542 1.90001 0
M  V30 23660 O 2257.83 4.23442 1.12377 0
M  V30 23661 C 2259.33 3.4708 2.75773 0
M  V30 23662 H 2256.55 0.606971 0.286054 0
M  V30 23663 H 2259.1 2.0297 0.249703 0
M  V30 23664 H 2257.25 2.89091 2.57886 0
M  V30 23665 H 2257.66 4.94403 1.75117 0
M  V30 23666 H 2259.14 4.37625 3.36435 0
M  V30 23667 H 2259.62 2.68373 3.47667 0
M  V30 23668 H 2260.22 3.67935 2.13317 0
M  V30 23669 N 2258.54 -0.497781 1.49532 0
M  V30 23670 C 2259.78 -1.2517 1.59181 0
M  V30 23671 C 2260.11 -1.92475 0.279966 0
M  V30 23672 O 2259.37 -1.8148 -0.732351 0
M  V30 23673 C 2259.67 -2.33873 2.70256 0
M  V30 23674 C 2259.33 -1.84005 4.11647 0
M  V30 23675 C 2257.99 -1.70124 4.50124 0
M  V30 23676 C 2260.35 -1.46716 5.00124 0
M  V30 23677 C 2257.67 -1.17337 5.74847 0
M  V30 23678 C 2260.03 -0.95381 6.25368 0
M  V30 23679 C 2258.69 -0.801421 6.62671 0
M  V30 23680 H 2257.96 -0.45803 0.582486 0
M  V30 23681 H 2260.61 -0.551916 1.83374 0
M  V30 23682 H 2258.91 -3.09653 2.40047 0
M  V30 23683 H 2260.61 -2.91915 2.7493 0
M  V30 23684 H 2257.2 -1.95769 3.81278 0
M  V30 23685 H 2261.38 -1.56286 4.7105 0
M  V30 23686 H 2256.64 -1.04254 6.02446 0
M  V30 23687 H 2260.81 -0.656103 6.93302 0
M  V30 23688 H 2258.44 -0.390217 7.59198 0
M  V30 23689 N 2260.01 -1.38661 -0.749062 0
M  V30 23690 C 2261.25 -1.36536 -1.52109 0
M  V30 23691 C 2261.62 0.0431978 -1.91951 0
M  V30 23692 O 2262.82 0.189349 -2.68132 0
M  V30 23693 C 2261.09 -2.29833 -2.737 0
M  V30 23694 S 2262.65 -2.45769 -3.63515 0
M  V30 23695 H 2259.47 -0.484385 -0.520473 0
M  V30 23696 H 2262.07 -1.74628 -0.878932 0
M  V30 23697 H 2260.77 -3.31058 -2.42546 0
M  V30 23698 H 2260.3 -1.92906 -3.42857 0
M  V30 23699 H 2262.32 -1.68513 -4.6671 0
M  V30 23700 N 2261.49 0.977736 -1.23605 0
M  V30 23701 C 2262.74 1.72193 -1.07132 0
M  V30 23702 C 2263.07 1.90234 0.390467 0
M  V30 23703 O 2262.35 1.45655 1.28899 0
M  V30 23704 C 2262.63 3.11864 -1.80037 0
M  V30 23705 C 2262.48 3.01377 -3.33904 0
M  V30 23706 C 2263.8 4.11334 -1.56499 0
M  V30 23707 H 2260.92 0.624992 -0.390582 0
M  V30 23708 H 2263.56 1.13808 -1.52144 0
M  V30 23709 H 2261.71 3.61707 -1.41775 0
M  V30 23710 H 2263.39 2.59036 -3.81704 0
M  V30 23711 H 2261.63 2.3782 -3.628 0
M  V30 23712 H 2262.3 4.00278 -3.80107 0
M  V30 23713 H 2264.78 3.70309 -1.89764 0
M  V30 23714 H 2263.65 5.07148 -2.09982 0
M  V30 23715 H 2263.91 4.39253 -0.500951 0
M  V30 23716 N 2262.97 1.04818 1.1769 0
M  V30 23717 C 2264.39 0.768819 1.39862 0
M  V30 23718 C 2264.59 -0.638418 1.91119 0
M  V30 23719 O 2263.64 -1.40143 2.10039 0
M  V30 23720 C 2264.96 1.82126 2.39271 0
M  V30 23721 C 2266.5 1.84304 2.52984 0
M  V30 23722 C 2266.98 2.88561 3.55664 0
M  V30 23723 N 2268.47 2.875 3.63178 0
M  V30 23724 C 2269.21 3.64819 4.42374 0
M  V30 23725 N 2268.7 4.51912 5.25117 0
M  V30 23726 N 2270.49 3.53275 4.37211 0
M  V30 23727 H 2262.65 1.95618 0.827485 0
M  V30 23728 H 2264.91 0.846839 0.426108 0
M  V30 23729 H 2264.61 2.83105 2.08673 0
M  V30 23730 H 2264.49 1.65972 3.38723 0
M  V30 23731 H 2266.88 0.839919 2.82895 0
M  V30 23732 H 2266.96 2.04535 1.5362 0
M  V30 23733 H 2266.6 3.89057 3.26492 0
M  V30 23734 H 2266.53 2.65583 4.54723 0
M  V30 23735 H 2269.02 2.24348 3.04099 0
M  V30 23736 H 2269.33 5.07601 5.82719 0
M  V30 23737 H 2267.68 4.55975 5.24511 0
M  V30 23738 H 2270.87 2.84632 3.71621 0
M  V30 23739 H 2271.04 4.1378 4.98688 0
M  V30 23740 N 2264.45 -1.34055 0.828678 0
M  V30 23741 C 2265.68 -2.02326 0.432656 0
M  V30 23742 C 2266.09 -1.62387 -0.963119 0
M  V30 23743 O 2265.45 -0.83215 -1.62424 0
M  V30 23744 C 2265.5 -3.57566 0.531883 0
M  V30 23745 O 2265.22 -3.9606 1.87265 0
M  V30 23746 C 2266.72 -4.43105 0.1315 0
M  V30 23747 H 2263.94 -0.648332 0.172934 0
M  V30 23748 H 2266.49 -1.71206 1.11843 0
M  V30 23749 H 2264.64 -3.87255 -0.10587 0
M  V30 23750 H 2265.06 -4.90754 1.85096 0
M  V30 23751 H 2266.53 -5.51424 0.252001 0
M  V30 23752 H 2267.01 -4.29337 -0.92557 0
M  V30 23753 H 2267.61 -4.18755 0.74328 0
M  V30 23754 N 2265.93 -0.584167 -1.46374 0
M  V30 23755 C 2267.17 -0.070303 -2.02378 0
M  V30 23756 C 2267.5 1.2902 -1.45548 0
M  V30 23757 O 2266.76 1.85917 -0.610999 0
M  V30 23758 C 2267.06 0.0438714 -3.57373 0
M  V30 23759 C 2266.72 -1.24923 -4.3325 0
M  V30 23760 C 2265.38 -1.60349 -4.53698 0
M  V30 23761 C 2267.74 -2.10488 -4.76806 0
M  V30 23762 C 2265.06 -2.81137 -5.14955 0
M  V30 23763 C 2267.42 -3.30503 -5.39398 0
M  V30 23764 C 2266.08 -3.6621 -5.58074 0
M  V30 23765 H 2265.35 -0.0257257 -0.740553 0
M  V30 23766 H 2268 -0.761096 -1.75726 0
M  V30 23767 H 2266.3 0.817801 -3.8317 0
M  V30 23768 H 2268 0.457248 -3.98385 0
M  V30 23769 H 2264.59 -0.963437 -4.17631 0
M  V30 23770 H 2268.77 -1.84422 -4.60763 0
M  V30 23771 H 2264.03 -3.08938 -5.27605 0
M  V30 23772 H 2268.2 -3.97073 -5.72107 0
M  V30 23773 H 2265.83 -4.59896 -6.0531 0
M  V30 23774 N 2267.41 1.54275 -0.322027 0
M  V30 23775 C 2268.63 2.05422 0.285755 0
M  V30 23776 C 2269.06 1.19671 1.45122 0
M  V30 23777 O 2268.41 0.205473 1.80132 0
M  V30 23778 C 2268.46 3.5375 0.699497 0
M  V30 23779 O 2267.57 3.70945 1.80203 0
M  V30 23780 H 2266.91 0.66197 0.0518846 0
M  V30 23781 H 2269.44 1.99129 -0.469989 0
M  V30 23782 H 2269.45 3.95992 0.982579 0
M  V30 23783 H 2268.12 4.15619 -0.152937 0
M  V30 23784 H 2266.7 3.40609 1.51788 0
M  V30 23785 N 2268.88 0.0501669 1.5752 0
M  V30 23786 C 2269.81 -0.922529 2.14503 0
M  V30 23787 C 2270.79 -1.32518 1.06644 0
M  V30 23788 O 2271.98 -1.40007 1.34579 0
M  V30 23789 C 2269.11 -2.19771 2.6892 0
M  V30 23790 C 2268.06 -1.93516 3.81753 0
M  V30 23791 C 2267.39 -3.2748 4.22683 0
M  V30 23792 C 2268.69 -1.25756 5.06935 0
M  V30 23793 H 2270.38 -0.4479 2.96031 0
M  V30 23794 H 2267.93 -0.213999 1.42401 0
M  V30 23795 H 2269.88 -2.88216 3.07424 0
M  V30 23796 H 2268.61 -2.69438 1.84583 0
M  V30 23797 H 2267.27 -1.27483 3.4372 0
M  V30 23798 H 2266.91 -3.74946 3.35298 0
M  V30 23799 H 2266.61 -3.10711 4.98731 0
M  V30 23800 H 2268.14 -3.97158 4.63786 0
M  V30 23801 H 2269.55 -1.84234 5.42891 0
M  V30 23802 H 2267.95 -1.19317 5.88119 0
M  V30 23803 H 2269.02 -0.233451 4.84338 0
M  V30 23804 N 2270.36 -1.56011 -0.223207 0
M  V30 23805 C 2271.31 -1.88676 -1.28005 0
M  V30 23806 C 2272.3 -0.749688 -1.42367 0
M  V30 23807 O 2273.49 -1.01207 -1.4521 0
M  V30 23808 C 2270.62 -2.20553 -2.63081 0
M  V30 23809 C 2269.7 -3.40648 -2.52626 0
M  V30 23810 N 2270.09 -4.5931 -2.11821 0
M  V30 23811 C 2268.39 -3.44229 -2.83588 0
M  V30 23812 C 2269.09 -5.41466 -2.12577 0
M  V30 23813 N 2268.07 -4.81136 -2.53001 0
M  V30 23814 H 2271.87 -2.77936 -0.955438 0
M  V30 23815 H 2269.38 -1.56555 -0.431773 0
M  V30 23816 H 2271.38 -2.42128 -3.39381 0
M  V30 23817 H 2270.04 -1.32604 -2.96389 0
M  V30 23818 H 2271.05 -4.84499 -1.82979 0
M  V30 23819 H 2267.73 -2.66619 -3.21279 0
M  V30 23820 H 2269.12 -6.46451 -1.83168 0
M  V30 23821 N 2271.84 0.489844 -1.49794 0
M  V30 23822 C 2272.79 1.59011 -1.67284 0
M  V30 23823 C 2273.76 1.5794 -0.514204 0
M  V30 23824 O 2274.94 1.75757 -0.742564 0
M  V30 23825 C 2272.08 2.97099 -1.75574 0
M  V30 23826 C 2271.19 3.08102 -3.02816 0
M  V30 23827 C 2270.33 4.3699 -3.02016 0
M  V30 23828 C 2269.37 4.41666 -4.2379 0
M  V30 23829 N 2268.51 5.61998 -4.20836 0
M  V30 23830 H 2273.35 1.43405 -2.61226 0
M  V30 23831 H 2270.88 0.697542 -1.2951 0
M  V30 23832 H 2272.84 3.77152 -1.78361 0
M  V30 23833 H 2271.47 3.11384 -0.850882 0
M  V30 23834 H 2270.52 2.21041 -3.09588 0
M  V30 23835 H 2271.83 3.07416 -3.92806 0
M  V30 23836 H 2270.99 5.25373 -3.03427 0
M  V30 23837 H 2269.73 4.40256 -2.09823 0
M  V30 23838 H 2268.73 3.51683 -4.2261 0
M  V30 23839 H 2269.96 4.40106 -5.17188 0
M  V30 23840 H 2267.9 5.66086 -3.31486 0
M  V30 23841 H 2267.82 5.62976 -5.04574 0
M  V30 23842 H 2269.09 6.52558 -4.26367 0
M  V30 23843 N 2273.32 1.39056 0.741698 0
M  V30 23844 C 2274.27 1.37374 1.877 0
M  V30 23845 C 2275.26 0.257841 1.67426 0
M  V30 23846 O 2276.47 0.427519 1.74849 0
M  V30 23847 H 2272.84 0.428823 0.61775 0
M  V30 23848 H 2274.81 2.3315 1.86235 0
M  V30 23849 C 2273.56 1.22747 3.25313 0
M  V30 23850 H 2272.88 2.07879 3.41506 0
M  V30 23851 H 2274.32 1.25626 4.04962 0
M  V30 23852 C 2272.78 -0.0646724 3.36838 0
M  V30 23853 O 2273.31 -1.03734 3.88075 0
M  V30 23854 N 2271.52 -0.125493 2.90329 0
M  V30 23855 H 2271.07 0.666726 2.48822 0
M  V30 23856 H 2271.02 -0.989587 2.9842 0
M  V30 23857 N 2274.8 -0.971167 1.24121 0
M  V30 23858 C 2276.04 -1.7103 1.07671 0
M  V30 23859 C 2276.36 -1.91146 -0.385764 0
M  V30 23860 O 2275.63 -1.48673 -1.27567 0
M  V30 23861 H 2274.21 -0.633748 0.39544 0
M  V30 23862 H 2276.88 -1.16852 1.55986 0
M  V30 23863 H 2275.97 -2.69619 1.572 0
M  V30 23864 N 2276.27 -1.05441 -1.17133 0
M  V30 23865 C 2277.5 -0.786429 -1.91912 0
M  V30 23866 C 2277.92 0.652203 -1.76431 0
M  V30 23867 O 2277.28 1.45343 -1.08375 0
M  V30 23868 C 2277.33 -1.17503 -3.40918 0
M  V30 23869 O 2276.43 -0.308661 -4.11243 0
M  V30 23870 H 2275.78 -0.288168 -0.59821 0
M  V30 23871 H 2278.31 -1.40792 -1.48454 0
M  V30 23872 H 2278.32 -1.14287 -3.91666 0
M  V30 23873 H 2276.99 -2.22298 -3.51506 0
M  V30 23874 H 2275.57 -0.401635 -3.70731 0
M  V30 23875 N 2277.75 1.33613 -0.835776 0
M  V30 23876 C 2278.98 2.02626 -0.442425 0
M  V30 23877 C 2279.4 1.62481 0.947707 0
M  V30 23878 O 2278.76 0.815854 1.61906 0
M  V30 23879 C 2278.81 3.5611 -0.567279 0
M  V30 23880 O 2277.91 4.1038 0.407726 0
M  V30 23881 H 2277.25 0.639055 -0.180289 0
M  V30 23882 H 2279.78 1.70581 -1.12975 0
M  V30 23883 H 2279.79 4.05535 -0.44778 0
M  V30 23884 H 2278.47 3.84674 -1.58109 0
M  V30 23885 H 2277.05 3.72087 0.246042 0
M  V30 23886 N 2279.23 0.591922 1.46062 0
M  V30 23887 C 2280.14 -0.138269 2.34192 0
M  V30 23888 C 2281.16 -0.876582 1.50306 0
M  V30 23889 O 2282.33 -0.837696 1.83152 0
M  V30 23890 C 2279.4 -1.1332 3.27658 0
M  V30 23891 C 2278.46 -0.398555 4.27446 0
M  V30 23892 C 2277.69 -1.34609 5.16446 0
M  V30 23893 O 2277.91 -2.58312 5.08558 0
M  V30 23894 O 2276.85 -0.851663 5.95844 0
M  V30 23895 H 2280.67 0.585572 2.98001 0
M  V30 23896 H 2278.26 0.352265 1.45188 0
M  V30 23897 H 2280.14 -1.70664 3.85294 0
M  V30 23898 H 2278.82 -1.83835 2.66433 0
M  V30 23899 H 2277.72 0.21696 3.7347 0
M  V30 23900 H 2279.06 0.265795 4.91482 0
M  V30 23901 N 2280.71 -1.54102 0.330204 0
M  V30 23902 C 2281.66 -2.24568 -0.532722 0
M  V30 23903 C 2282.63 -1.23893 -1.10633 0
M  V30 23904 O 2283.81 -1.52593 -1.14543 0
M  V30 23905 C 2280.95 -3.01198 -1.68445 0
M  V30 23906 C 2280.06 -4.16702 -1.13943 0
M  V30 23907 C 2279.2 -4.80849 -2.25738 0
M  V30 23908 C 2278.24 -5.88445 -1.68519 0
M  V30 23909 N 2277.37 -6.46426 -2.74003 0
M  V30 23910 H 2282.21 -2.97906 0.0747429 0
M  V30 23911 H 2279.75 -1.4702 0.0486579 0
M  V30 23912 H 2281.71 -3.43878 -2.36228 0
M  V30 23913 H 2280.34 -2.30182 -2.2631 0
M  V30 23914 H 2279.39 -3.78759 -0.352944 0
M  V30 23915 H 2280.7 -4.94132 -0.680805 0
M  V30 23916 H 2279.86 -5.26531 -3.01413 0
M  V30 23917 H 2278.6 -4.02814 -2.7494 0
M  V30 23918 H 2277.6 -5.42159 -0.913448 0
M  V30 23919 H 2278.83 -6.6838 -1.20186 0
M  V30 23920 H 2276.77 -5.71262 -3.22484 0
M  V30 23921 H 2276.69 -7.19289 -2.32723 0
M  V30 23922 H 2277.96 -6.96763 -3.49487 0
M  V30 23923 N 2282.19 -0.0585199 -1.57491 0
M  V30 23924 C 2283.6 0.298063 -1.56792 0
M  V30 23925 C 2283.8 1.70942 -1.06682 0
M  V30 23926 O 2282.86 2.41816 -0.726714 0
M  V30 23927 C 2284.17 0.119826 -3.00461 0
M  V30 23928 C 2285.72 0.190373 -3.12421 0
M  V30 23929 C 2286.19 0.0405762 -4.57982 0
M  V30 23930 N 2287.69 0.0966144 -4.63099 0
M  V30 23931 C 2288.42 0.00492864 -5.734 0
M  V30 23932 N 2287.92 -0.139524 -6.92659 0
M  V30 23933 N 2289.71 0.0610403 -5.62067 0
M  V30 23934 H 2281.86 -0.981084 -1.88384 0
M  V30 23935 H 2284.12 -0.381478 -0.867858 0
M  V30 23936 H 2283.83 -0.85355 -3.41185 0
M  V30 23937 H 2283.7 0.877769 -3.66845 0
M  V30 23938 H 2286.09 1.15423 -2.71591 0
M  V30 23939 H 2286.17 -0.598449 -2.48701 0
M  V30 23940 H 2285.82 -0.919985 -4.99498 0
M  V30 23941 H 2285.75 0.848636 -5.19717 0
M  V30 23942 H 2288.24 0.20721 -3.77331 0
M  V30 23943 H 2288.55 -0.20199 -7.72536 0
M  V30 23944 H 2286.89 -0.174708 -6.9478 0
M  V30 23945 H 2290.09 0.1725 -4.67782 0
M  V30 23946 H 2290.26 -0.0138701 -6.47999 0
M  V30 23947 N 2283.66 1.56128 0.21493 0
M  V30 23948 C 2284.57 1.96131 1.28724 0
M  V30 23949 C 2285.59 0.866071 1.50915 0
M  V30 23950 O 2286.77 1.17019 1.63916 0
M  V30 23951 C 2283.83 2.27562 2.61565 0
M  V30 23952 C 2282.89 3.5069 2.47619 0
M  V30 23953 C 2282.13 3.80612 3.74125 0
M  V30 23954 O 2282.35 3.12112 4.77433 0
M  V30 23955 O 2281.28 4.74089 3.70841 0
M  V30 23956 H 2285.11 2.87529 0.977805 0
M  V30 23957 H 2282.69 1.43424 0.418333 0
M  V30 23958 H 2284.58 2.48944 3.40007 0
M  V30 23959 H 2283.25 1.39337 2.92176 0
M  V30 23960 H 2282.16 3.34579 1.67355 0
M  V30 23961 H 2283.49 4.39319 2.21946 0
M  V30 23962 N 2285.14 -0.481893 1.50052 0
M  V30 23963 C 2286.39 -1.23658 1.60738 0
M  V30 23964 C 2286.72 -1.9184 0.30182 0
M  V30 23965 O 2286 -1.81621 -0.695993 0
M  V30 23966 C 2286.28 -2.28869 2.78013 0
M  V30 23967 C 2286.13 -1.65062 4.18419 0
M  V30 23968 C 2287.45 -3.30274 2.90873 0
M  V30 23969 H 2284.57 -0.448218 0.585038 0
M  V30 23970 H 2287.21 -0.531914 1.82403 0
M  V30 23971 H 2285.36 -2.88969 2.59672 0
M  V30 23972 H 2287.03 -1.08642 4.48324 0
M  V30 23973 H 2285.28 -0.954074 4.23178 0
M  V30 23974 H 2285.95 -2.41465 4.96385 0
M  V30 23975 H 2288.42 -2.80186 3.07628 0
M  V30 23976 H 2287.3 -4.01231 3.74573 0
M  V30 23977 H 2287.56 -3.93751 2.01028 0
M  V30 23978 N 2286.62 -1.39448 -0.734313 0
M  V30 23979 C 2288.04 -1.21067 -1.03995 0
M  V30 23980 C 2288.24 -0.0727373 -2.01369 0
M  V30 23981 O 2287.29 0.575383 -2.45857 0
M  V30 23982 C 2288.61 -2.54499 -1.60158 0
M  V30 23983 C 2290.15 -2.6135 -1.72235 0
M  V30 23984 C 2290.63 -3.95006 -2.31807 0
M  V30 23985 N 2292.12 -3.96648 -2.39216 0
M  V30 23986 C 2292.85 -4.96839 -2.86249 0
M  V30 23987 N 2292.35 -6.07427 -3.33173 0
M  V30 23988 N 2294.14 -4.84218 -2.85464 0
M  V30 23989 H 2286.29 -2.12215 -0.0885251 0
M  V30 23990 H 2288.56 -0.942508 -0.101893 0
M  V30 23991 H 2288.26 -3.38323 -0.960752 0
M  V30 23992 H 2288.14 -2.74267 -2.58955 0
M  V30 23993 H 2290.52 -1.7791 -2.3544 0
M  V30 23994 H 2290.61 -2.45432 -0.720896 0
M  V30 23995 H 2290.25 -4.78877 -1.6923 0
M  V30 23996 H 2290.18 -4.08245 -3.32631 0
M  V30 23997 H 2292.67 -3.16783 -2.06051 0
M  V30 23998 H 2292.98 -6.79786 -3.67574 0
M  V30 23999 H 2291.33 -6.11019 -3.3118 0
M  V30 24000 H 2294.52 -3.96925 -2.48129 0
M  V30 24001 H 2294.69 -5.62446 -3.21804 0
M  V30 24002 N 2288.1 0.964571 -1.24635 0
M  V30 24003 C 2289.03 2.06266 -0.999339 0
M  V30 24004 C 2290.04 1.62768 0.032294 0
M  V30 24005 O 2291.23 1.77318 -0.20511 0
M  V30 24006 C 2288.33 3.35384 -0.486875 0
M  V30 24007 C 2287.51 4.07774 -1.58237 0
M  V30 24008 C 2286.56 5.15165 -1.07201 0
M  V30 24009 O 2285.59 5.41165 -1.76435 0
M  V30 24010 N 2286.79 5.80427 0.0919352 0
M  V30 24011 H 2289.56 2.28029 -1.94481 0
M  V30 24012 H 2287.12 1.13242 -1.15706 0
M  V30 24013 H 2289.11 4.04491 -0.130138 0
M  V30 24014 H 2287.68 3.10469 0.364405 0
M  V30 24015 H 2286.9 3.32903 -2.11115 0
M  V30 24016 H 2288.19 4.52899 -2.31862 0
M  V30 24017 H 2287.59 5.6171 0.670685 0
M  V30 24018 H 2286.14 6.50633 0.389791 0
M  V30 24019 N 2289.58 1.0606 1.16572 0
M  V30 24020 C 2290.82 0.775905 1.87045 0
M  V30 24021 C 2291.15 -0.697502 1.81563 0
M  V30 24022 O 2290.41 -1.5266 1.22447 0
M  V30 24023 C 2290.71 1.21281 3.36193 0
M  V30 24024 C 2290.37 2.68993 3.61875 0
M  V30 24025 C 2289.03 3.09341 3.68594 0
M  V30 24026 C 2291.39 3.64401 3.72641 0
M  V30 24027 C 2288.71 4.43944 3.83577 0
M  V30 24028 C 2291.07 4.98748 3.89145 0
M  V30 24029 C 2289.73 5.38737 3.94105 0
M  V30 24030 H 2289 0.283924 0.684447 0
M  V30 24031 H 2291.65 1.32927 1.3785 0
M  V30 24032 H 2289.95 0.578596 3.87504 0
M  V30 24033 H 2291.65 0.96961 3.89101 0
M  V30 24034 H 2288.24 2.36751 3.57277 0
M  V30 24035 H 2292.42 3.34363 3.66763 0
M  V30 24036 H 2287.68 4.74415 3.85668 0
M  V30 24037 H 2291.85 5.72561 3.96417 0
M  V30 24038 H 2289.48 6.4304 4.05467 0
M  V30 24039 N 2291.06 -1.33168 0.84285 0
M  V30 24040 C 2291.99 -2.27979 0.236285 0
M  V30 24041 C 2293 -1.51916 -0.585256 0
M  V30 24042 O 2294.19 -1.73688 -0.411675 0
M  V30 24043 C 2291.29 -3.31891 -0.685659 0
M  V30 24044 C 2290.46 -4.37291 0.0974217 0
M  V30 24045 C 2289.52 -5.2085 -0.748473 0
M  V30 24046 O 2288.55 -5.68895 -0.186239 0
M  V30 24047 N 2289.75 -5.42523 -2.06518 0
M  V30 24048 H 2292.51 -2.8067 1.05093 0
M  V30 24049 H 2290.08 -1.45904 0.701693 0
M  V30 24050 H 2292.07 -3.84696 -1.25662 0
M  V30 24051 H 2290.64 -2.79447 -1.401 0
M  V30 24052 H 2289.86 -3.84932 0.849774 0
M  V30 24053 H 2291.15 -5.04813 0.635732 0
M  V30 24054 H 2290.54 -5.05196 -2.54545 0
M  V30 24055 H 2289.1 -5.98369 -2.58453 0
M  V30 24056 N 2292.53 -0.599659 -1.45746 0
M  V30 24057 C 2293.78 -0.091764 -2.02292 0
M  V30 24058 C 2294.11 1.27469 -1.46908 0
M  V30 24059 O 2293.36 1.85259 -0.630684 0
M  V30 24060 C 2293.66 0.00596476 -3.574 0
M  V30 24061 C 2293.33 -1.29511 -4.319 0
M  V30 24062 C 2291.99 -1.65152 -4.51971 0
M  V30 24063 C 2294.34 -2.15533 -4.74547 0
M  V30 24064 C 2291.67 -2.86583 -5.11944 0
M  V30 24065 C 2294.02 -3.36206 -5.35862 0
M  V30 24066 C 2292.69 -3.72109 -5.54158 0
M  V30 24067 H 2291.96 -0.0335788 -0.740239 0
M  V30 24068 H 2294.6 -0.779691 -1.74909 0
M  V30 24069 H 2292.91 0.777115 -3.84016 0
M  V30 24070 H 2294.61 0.414968 -3.98847 0
M  V30 24071 H 2291.2 -1.00768 -4.16586 0
M  V30 24072 H 2295.38 -1.89298 -4.58781 0
M  V30 24073 H 2290.64 -3.14516 -5.24299 0
M  V30 24074 H 2294.81 -4.03119 -5.67863 0
M  V30 24075 H 2292.44 -4.6629 -6.00398 0
M  V30 24076 N 2294.01 1.53925 -0.338371 0
M  V30 24077 C 2295.24 2.05244 0.261262 0
M  V30 24078 C 2295.65 1.21366 1.44623 0
M  V30 24079 O 2295.01 0.247768 1.8081 0
M  V30 24080 C 2295.06 3.55021 0.68135 0
M  V30 24081 O 2294.78 4.35715 -0.456491 0
M  V30 24082 C 2296.28 4.22491 1.34224 0
M  V30 24083 H 2293.5 0.669032 0.0513568 0
M  V30 24084 H 2296.05 1.98571 -0.488857 0
M  V30 24085 H 2294.2 3.61933 1.38142 0
M  V30 24086 H 2294.62 5.24357 -0.122656 0
M  V30 24087 H 2296.09 5.28695 1.58698 0
M  V30 24088 H 2296.57 3.74518 2.29419 0
M  V30 24089 H 2297.17 4.19758 0.68435 0
M  V30 24090 N 2295.49 0.0668712 1.57458 0
M  V30 24091 C 2296.45 -0.887385 2.11325 0
M  V30 24092 C 2297.45 -1.22962 1.0362 0
M  V30 24093 O 2298.64 -1.16371 1.29628 0
M  V30 24094 C 2295.77 -2.19237 2.61051 0
M  V30 24095 H 2296.97 -0.420142 2.96942 0
M  V30 24096 H 2294.52 -0.181765 1.5524 0
M  V30 24097 H 2295.26 -2.70509 1.78873 0
M  V30 24098 H 2295.04 -1.95696 3.39773 0
M  V30 24099 H 2296.53 -2.87559 3.02819 0
M  V30 24100 N 2296.97 -1.56239 -0.206647 0
M  V30 24101 C 2298.21 -1.81114 -0.925701 0
M  V30 24102 C 2298.57 -0.642167 -1.81367 0
M  V30 24103 O 2297.86 0.363177 -1.88127 0
M  V30 24104 C 2298.06 -3.09535 -1.78669 0
M  V30 24105 C 2297.88 -4.38812 -0.983573 0
M  V30 24106 C 2296.65 -5.00804 -0.672573 0
M  V30 24107 C 2298.85 -5.13163 -0.341757 0
M  V30 24108 N 2296.83 -6.13716 0.150391 0
M  V30 24109 C 2298.21 -6.19045 0.343924 0
M  V30 24110 C 2300.26 -4.9724 -0.256305 0
M  V30 24111 C 2298.96 -7.10732 1.1069 0
M  V30 24112 C 2300.99 -5.8934 0.493246 0
M  V30 24113 C 2300.35 -6.94659 1.16741 0
M  V30 24114 H 2296.45 -0.714195 -0.318512 0
M  V30 24115 H 2299.03 -1.93718 -0.195344 0
M  V30 24116 H 2297.21 -2.98188 -2.48875 0
M  V30 24117 H 2298.94 -3.22542 -2.44435 0
M  V30 24118 H 2295.69 -4.63047 -0.994213 0
M  V30 24119 H 2296.12 -6.74753 0.551145 0
M  V30 24120 H 2300.76 -4.15855 -0.763176 0
M  V30 24121 H 2298.48 -7.91588 1.62524 0
M  V30 24122 H 2302.06 -5.79093 0.560566 0
M  V30 24123 H 2300.94 -7.64695 1.73813 0
M  V30 24124 N 2298.45 0.473929 -1.50305 0
M  V30 24125 C 2299.86 1.05487 -1.54043 0
M  V30 24126 C 2300.21 1.93191 -0.342282 0
M  V30 24127 O 2299.33 2.09422 0.54512 0
M  V30 24128 C 2299.93 1.91984 -2.79155 0
M  V30 24129 C 2298.49 2.45191 -2.85584 0
M  V30 24130 C 2297.63 1.23465 -2.48297 0
M  V30 24131 H 2300.58 0.256666 -1.56611 0
M  V30 24132 H 2300.61 2.77015 -2.6085 0
M  V30 24133 H 2300.12 1.28124 -3.66341 0
M  V30 24134 H 2298.22 3.12612 -2.02743 0
M  V30 24135 H 2298.33 2.80492 -3.88408 0
M  V30 24136 H 2296.7 1.56853 -2.00672 0
M  V30 24137 H 2297.48 0.612729 -3.37788 0
M  V30 24138 N 2299.92 1.39835 0.726907 0
M  V30 24139 C 2301.2 1.28004 1.479 0
M  V30 24140 C 2301.58 -0.106752 2.1083 0
M  V30 24141 O 2300.93 -1.11866 1.99244 0
M  V30 24142 C 2301.14 2.41042 2.52388 0
M  V30 24143 C 2302.49 2.80743 3.18541 0
M  V30 24144 O 2303.51 2.40552 2.62704 0
M  V30 24145 O 2302.37 3.50142 4.19598 0
M  V30 24146 H 2299.46 0.502074 0.657154 0
M  V30 24147 H 2302.01 1.51728 0.760044 0
M  V30 24148 H 2300.78 3.33718 2.04323 0
M  V30 24149 H 2300.4 2.19027 3.31833 0
M  V30 24150 N 2301.4 -0.957948 1.25144 0
M  V30 24151 C 2302.35 -2.03948 1.01928 0
M  V30 24152 C 2303.34 -1.60843 -0.0426892 0
M  V30 24153 O 2304.53 -1.7616 0.172241 0
M  V30 24154 C 2301.66 -3.37349 0.636432 0
M  V30 24155 C 2300.74 -3.86987 1.73498 0
M  V30 24156 N 2301.13 -4.09454 2.96953 0
M  V30 24157 C 2299.43 -4.15743 1.61474 0
M  V30 24158 C 2300.13 -4.50308 3.68235 0
M  V30 24159 N 2299.11 -4.56047 2.95841 0
M  V30 24160 H 2302.91 -2.19307 1.95657 0
M  V30 24161 H 2300.42 -1.14251 1.15415 0
M  V30 24162 H 2302.42 -4.1445 0.451306 0
M  V30 24163 H 2301.08 -3.2337 -0.293565 0
M  V30 24164 H 2302.09 -3.96623 3.33032 0
M  V30 24165 H 2298.77 -4.10645 0.753467 0
M  V30 24166 H 2300.16 -4.76022 4.74186 0
M  V30 24167 N 2302.88 -1.06677 -1.16008 0
M  V30 24168 C 2304.13 -0.784262 -1.86263 0
M  V30 24169 C 2304.45 0.691456 -1.82329 0
M  V30 24170 O 2303.72 1.50045 -1.2595 0
M  V30 24171 H 2302.3 -0.287122 -0.689616 0
M  V30 24172 H 2304.96 -1.34908 -1.40662 0
M  V30 24173 H 2304.06 -1.11264 -2.91593 0
M  V30 24174 N 2304.36 1.32719 -0.8499 0
M  V30 24175 C 2305.6 1.97707 -0.451625 0
M  V30 24176 C 2305.94 1.67121 0.989145 0
M  V30 24177 O 2305.21 0.956921 1.69332 0
M  V30 24178 C 2305.49 3.53512 -0.68566 0
M  V30 24179 C 2305.35 3.93745 -2.1745 0
M  V30 24180 C 2306.67 4.39881 -0.138952 0
M  V30 24181 H 2303.79 0.718163 -0.165563 0
M  V30 24182 H 2306.43 1.5718 -1.06745 0
M  V30 24183 H 2304.58 3.88164 -0.161484 0
M  V30 24184 H 2306.25 3.69295 -2.76439 0
M  V30 24185 H 2304.49 3.43076 -2.65483 0
M  V30 24186 H 2305.16 5.02305 -2.28897 0
M  V30 24187 H 2307.64 4.11937 -0.58714 0
M  V30 24188 H 2306.52 5.47893 -0.332309 0
M  V30 24189 H 2306.78 4.31596 0.957984 0
M  V30 24190 N 2305.84 0.60738 1.45426 0
M  V30 24191 C 2307.25 0.187567 1.85755 0
M  V30 24192 C 2307.6 -1.25548 1.50772 0
M  V30 24193 O 2306.72 -1.95191 0.934304 0
M  V30 24194 C 2307.32 0.333632 3.37153 0
M  V30 24195 C 2305.88 -0.031488 3.76387 0
M  V30 24196 C 2305.02 0.658164 2.69376 0
M  V30 24197 H 2307.98 0.814074 1.3623 0
M  V30 24198 H 2308 -0.434213 3.78014 0
M  V30 24199 H 2307.51 1.38399 3.62584 0
M  V30 24200 H 2305.61 -1.08104 3.56573 0
M  V30 24201 H 2305.72 0.362019 4.7773 0
M  V30 24202 H 2304.09 0.095832 2.5452 0
M  V30 24203 H 2304.87 1.71066 2.97643 0
M  V30 24204 N 2307.31 -1.53743 0.34653 0
M  V30 24205 C 2308.22 -2.28827 -0.517252 0
M  V30 24206 C 2309.24 -1.34052 -1.10933 0
M  V30 24207 O 2310.42 -1.67092 -1.12437 0
M  V30 24208 C 2307.48 -3.04869 -1.65093 0
M  V30 24209 C 2306.54 -4.15276 -1.08833 0
M  V30 24210 C 2305.78 -4.87683 -2.16798 0
M  V30 24211 O 2306 -4.59784 -3.37572 0
M  V30 24212 O 2304.93 -5.74065 -1.80924 0
M  V30 24213 H 2308.76 -3.03557 0.0931929 0
M  V30 24214 H 2306.34 -1.48983 0.111484 0
M  V30 24215 H 2308.23 -3.52414 -2.31046 0
M  V30 24216 H 2306.9 -2.32993 -2.24713 0
M  V30 24217 H 2305.81 -3.72028 -0.393234 0
M  V30 24218 H 2307.14 -4.89262 -0.53695 0
M  V30 24219 N 2308.79 -0.0752207 -1.5742 0
M  V30 24220 C 2310.02 0.601169 -1.9766 0
M  V30 24221 C 2310.43 1.63478 -0.952456 0
M  V30 24222 O 2309.77 1.83571 0.0687918 0
M  V30 24223 C 2309.84 1.32428 -3.3422 0
M  V30 24224 C 2309.5 0.443746 -4.54841 0
M  V30 24225 C 2310.5 -0.30006 -5.19033 0
M  V30 24226 C 2308.18 0.367621 -5.00953 0
M  V30 24227 C 2310.18 -1.10818 -6.27693 0
M  V30 24228 C 2307.86 -0.444165 -6.09484 0
M  V30 24229 C 2308.86 -1.18073 -6.72717 0
M  V30 24230 O 2308.55 -1.97912 -7.79157 0
M  V30 24231 H 2308.28 0.167411 -0.654942 0
M  V30 24232 H 2310.83 -0.145193 -2.04886 0
M  V30 24233 H 2309.06 2.11679 -3.23618 0
M  V30 24234 H 2310.75 1.89325 -3.59042 0
M  V30 24235 H 2311.52 -0.250861 -4.84351 0
M  V30 24236 H 2307.4 0.930558 -4.5151 0
M  V30 24237 H 2310.94 -1.68359 -6.76979 0
M  V30 24238 H 2306.84 -0.494916 -6.436 0
M  V30 24239 H 2307.61 -1.90381 -7.96051 0
M  V30 24240 N 2310.27 1.56347 0.198358 0
M  V30 24241 C 2311.68 1.70382 0.763328 0
M  V30 24242 C 2312.03 0.681236 1.83994 0
M  V30 24243 O 2311.16 -0.163012 2.15785 0
M  V30 24244 C 2311.75 3.08911 1.39137 0
M  V30 24245 C 2310.31 3.24723 1.90347 0
M  V30 24246 C 2309.46 2.66332 0.772187 0
M  V30 24247 H 2312.41 1.58678 -0.0266656 0
M  V30 24248 H 2312.43 3.06059 2.2607 0
M  V30 24249 H 2311.94 3.83315 0.607571 0
M  V30 24250 H 2310.04 2.5523 2.71456 0
M  V30 24251 H 2310.16 4.32194 2.0675 0
M  V30 24252 H 2308.52 2.25422 1.18562 0
M  V30 24253 H 2309.3 3.433 0.000675217 0
M  V30 24254 N 2311.75 -0.465951 1.50554 0
M  V30 24255 C 2312.98 -1.2408 1.65565 0
M  V30 24256 C 2313.39 -1.85693 0.341083 0
M  V30 24257 O 2312.75 -1.69458 -0.677513 0
M  V30 24258 C 2312.8 -2.34578 2.75055 0
M  V30 24259 O 2312.52 -1.7549 4.01416 0
M  V30 24260 C 2314.02 -3.25366 3.01084 0
M  V30 24261 H 2311.24 -0.375067 0.556386 0
M  V30 24262 H 2313.79 -0.55559 1.96808 0
M  V30 24263 H 2311.94 -2.98866 2.46492 0
M  V30 24264 H 2312.35 -2.48295 4.62006 0
M  V30 24265 H 2313.83 -3.99098 3.81346 0
M  V30 24266 H 2314.31 -3.8445 2.12356 0
M  V30 24267 H 2314.91 -2.6681 3.31198 0
M  V30 24268 N 2313.23 -1.40218 -0.719481 0
M  V30 24269 C 2314.64 -1.34153 -1.29846 0
M  V30 24270 C 2314.99 -0.0131694 -1.96196 0
M  V30 24271 O 2314.11 0.888885 -1.97301 0
M  V30 24272 C 2314.71 -2.42972 -2.36114 0
M  V30 24273 C 2313.27 -2.40379 -2.89646 0
M  V30 24274 C 2312.41 -2.24052 -1.63389 0
M  V30 24275 H 2315.37 -1.50081 -0.515884 0
M  V30 24276 H 2315.39 -2.10655 -3.16867 0
M  V30 24277 H 2314.9 -3.39639 -1.87794 0
M  V30 24278 H 2313 -1.47398 -3.42206 0
M  V30 24279 H 2313.11 -3.3582 -3.41705 0
M  V30 24280 H 2311.48 -1.71499 -1.88309 0
M  V30 24281 H 2312.26 -3.22712 -1.17099 0
M  V30 24282 N 2314.7 0.951297 -1.25651 0
M  V30 24283 C 2315.95 1.69631 -1.10597 0
M  V30 24284 C 2316.28 1.91279 0.352482 0
M  V30 24285 O 2315.53 1.48382 1.27598 0
M  V30 24286 C 2315.83 3.08228 -1.80915 0
M  V30 24287 C 2315.5 3.06369 -3.30831 0
M  V30 24288 C 2314.16 3.05569 -3.71727 0
M  V30 24289 C 2316.51 2.99444 -4.26594 0
M  V30 24290 C 2313.84 2.95597 -5.06793 0
M  V30 24291 C 2316.19 2.91014 -5.61688 0
M  V30 24292 C 2314.86 2.88552 -6.01909 0
M  V30 24293 H 2314.13 0.620723 -0.404702 0
M  V30 24294 H 2316.77 1.11117 -1.55966 0
M  V30 24295 H 2315.08 3.70306 -1.27986 0
M  V30 24296 H 2316.78 3.64701 -1.66716 0
M  V30 24297 H 2313.37 3.07766 -2.98292 0
M  V30 24298 H 2317.55 2.99178 -3.95987 0
M  V30 24299 H 2312.81 2.92062 -5.37131 0
M  V30 24300 H 2316.98 2.84618 -6.35583 0
M  V30 24301 H 2314.61 2.80581 -7.06526 0
M  V30 24302 N 2316.18 1.07291 1.1544 0
M  V30 24303 C 2317.11 0.714146 2.22311 0
M  V30 24304 C 2318.09 -0.298126 1.67467 0
M  V30 24305 O 2319.28 -0.171014 1.93446 0
M  V30 24306 C 2316.41 0.110509 3.47124 0
M  V30 24307 C 2315.36 1.04987 4.14924 0
M  V30 24308 C 2314.69 0.309018 5.33806 0
M  V30 24309 C 2315.99 2.38322 4.64758 0
M  V30 24310 H 2317.68 1.60765 2.52577 0
M  V30 24311 H 2315.23 0.774431 1.21402 0
M  V30 24312 H 2317.18 -0.152408 4.21124 0
M  V30 24313 H 2315.91 -0.818065 3.16189 0
M  V30 24314 H 2314.56 1.2977 3.42864 0
M  V30 24315 H 2314.21 -0.622997 4.99127 0
M  V30 24316 H 2313.91 0.935138 5.80111 0
M  V30 24317 H 2315.44 0.0538844 6.10576 0
M  V30 24318 H 2316.85 2.17869 5.30289 0
M  V30 24319 H 2315.25 2.96523 5.21722 0
M  V30 24320 H 2316.32 3.00669 3.80429 0
M  V30 24321 N 2317.66 -1.32267 0.856927 0
M  V30 24322 C 2318.62 -2.27118 0.308211 0
M  V30 24323 C 2319.62 -1.51696 -0.533394 0
M  V30 24324 O 2320.81 -1.70758 -0.344577 0
M  V30 24325 C 2317.95 -3.36207 -0.563698 0
M  V30 24326 H 2319.14 -2.77165 1.1454 0
M  V30 24327 H 2316.69 -1.42977 0.631446 0
M  V30 24328 H 2317.43 -2.91432 -1.42261 0
M  V30 24329 H 2317.21 -3.92081 0.0387439 0
M  V30 24330 H 2318.7 -4.06876 -0.940315 0
M  V30 24331 N 2319.14 -0.615084 -1.45102 0
M  V30 24332 C 2320.39 -0.113215 -2.02183 0
M  V30 24333 C 2320.71 1.25904 -1.48252 0
M  V30 24334 O 2319.97 1.8458 -0.650298 0
M  V30 24335 C 2320.27 -0.0319426 -3.57386 0
M  V30 24336 C 2319.93 -1.34084 -4.30502 0
M  V30 24337 C 2318.6 -1.69937 -4.50194 0
M  V30 24338 C 2320.95 -2.20555 -4.72234 0
M  V30 24339 C 2318.28 -2.91997 -5.08876 0
M  V30 24340 C 2320.63 -3.4187 -5.32266 0
M  V30 24341 C 2319.29 -3.77966 -5.5018 0
M  V30 24342 H 2318.56 -0.0414282 -0.739841 0
M  V30 24343 H 2321.21 -0.798199 -1.74072 0
M  V30 24344 H 2319.51 0.736341 -3.84818 0
M  V30 24345 H 2321.21 0.372642 -3.99265 0
M  V30 24346 H 2317.8 -1.05181 -4.15494 0
M  V30 24347 H 2321.98 -1.94154 -4.56747 0
M  V30 24348 H 2317.24 -3.2006 -5.20934 0
M  V30 24349 H 2321.41 -4.09119 -5.63555 0
M  V30 24350 H 2319.04 -4.72632 -5.95418 0
M  V30 24351 N 2320.62 1.53557 -0.354678 0
M  V30 24352 C 2321.55 2.28321 0.489051 0
M  V30 24353 C 2322.53 1.30318 1.09322 0
M  V30 24354 O 2323.71 1.59175 1.11252 0
M  V30 24355 C 2320.84 3.06433 1.6345 0
M  V30 24356 C 2319.8 4.12033 1.15813 0
M  V30 24357 C 2319.12 4.78164 2.39297 0
M  V30 24358 C 2320.42 5.21698 0.250639 0
M  V30 24359 H 2322.12 2.99097 -0.134666 0
M  V30 24360 H 2319.66 1.43848 -0.0662079 0
M  V30 24361 H 2321.62 3.57479 2.2313 0
M  V30 24362 H 2320.34 2.33329 2.28529 0
M  V30 24363 H 2319 3.61917 0.584083 0
M  V30 24364 H 2318.65 4.01643 3.02807 0
M  V30 24365 H 2318.35 5.49517 2.08099 0
M  V30 24366 H 2319.87 5.31999 2.99682 0
M  V30 24367 H 2321.29 5.68312 0.754595 0
M  V30 24368 H 2319.68 6.00092 0.0300413 0
M  V30 24369 H 2320.75 4.79671 -0.710209 0
M  V30 24370 N 2322.1 0.083568 1.57378 0
M  V30 24371 C 2323.51 -0.273081 1.57246 0
M  V30 24372 C 2323.71 -1.69224 1.09388 0
M  V30 24373 O 2322.77 -2.4063 0.765093 0
M  V30 24374 C 2324.08 -0.07201 3.00614 0
M  V30 24375 C 2325.63 -0.140645 3.12684 0
M  V30 24376 C 2326.1 0.0322899 4.57989 0
M  V30 24377 N 2327.59 -0.0229271 4.63194 0
M  V30 24378 C 2328.33 0.0862949 5.73335 0
M  V30 24379 N 2327.83 0.249702 6.9235 0
M  V30 24380 N 2329.62 0.0283874 5.62093 0
M  V30 24381 H 2321.77 1.01093 1.86799 0
M  V30 24382 H 2324.03 0.395237 0.86168 0
M  V30 24383 H 2323.74 0.907721 3.39784 0
M  V30 24384 H 2323.61 -0.819296 3.68195 0
M  V30 24385 H 2326 -1.11087 2.73393 0
M  V30 24386 H 2326.08 0.63794 2.47718 0
M  V30 24387 H 2325.72 0.999334 4.97972 0
M  V30 24388 H 2325.65 -0.765846 5.21001 0
M  V30 24389 H 2328.15 -0.147154 3.77613 0
M  V30 24390 H 2328.46 0.324869 7.72117 0
M  V30 24391 H 2326.8 0.285219 6.94415 0
M  V30 24392 H 2329.99 -0.0980586 4.67997 0
M  V30 24393 H 2330.17 0.116959 6.47894 0
M  V30 24394 N 2323.57 -1.5645 -0.190064 0
M  V30 24395 C 2324.99 -1.50147 -0.541104 0
M  V30 24396 C 2325.19 -0.784498 -1.85601 0
M  V30 24397 O 2324.25 -0.337095 -2.5024 0
M  V30 24398 C 2325.56 -2.94831 -0.591189 0
M  V30 24399 C 2327.11 -3.05531 -0.679678 0
M  V30 24400 C 2327.58 -4.51636 -0.760828 0
M  V30 24401 N 2329.07 -4.55808 -0.824222 0
M  V30 24402 C 2329.81 -5.66177 -0.907266 0
M  V30 24403 N 2329.3 -6.86224 -0.952301 0
M  V30 24404 N 2331.1 -5.54102 -0.944843 0
M  V30 24405 H 2323.25 -2.01476 0.672385 0
M  V30 24406 H 2325.51 -0.91708 0.240144 0
M  V30 24407 H 2325.22 -3.50367 0.305967 0
M  V30 24408 H 2325.09 -3.48459 -1.44416 0
M  V30 24409 H 2327.48 -2.50042 -1.56726 0
M  V30 24410 H 2327.56 -2.5502 0.199594 0
M  V30 24411 H 2327.2 -5.07752 0.122425 0
M  V30 24412 H 2327.13 -4.99885 -1.65597 0
M  V30 24413 H 2329.62 -3.69368 -0.798461 0
M  V30 24414 H 2329.94 -7.66088 -1.01632 0
M  V30 24415 H 2328.28 -6.88872 -0.920893 0
M  V30 24416 H 2331.47 -4.59238 -0.906532 0
M  V30 24417 H 2331.65 -6.40142 -1.0061 0
M  V30 24418 N 2325.05 0.45796 -1.50799 0
M  V30 24419 C 2326.3 1.21085 -1.62685 0
M  V30 24420 C 2326.63 1.91336 -0.332301 0
M  V30 24421 O 2325.91 1.82705 0.667011 0
M  V30 24422 C 2326.19 2.24417 -2.81619 0
M  V30 24423 C 2326.04 1.58384 -4.20992 0
M  V30 24424 C 2327.36 3.25605 -2.9609 0
M  V30 24425 H 2324.48 0.438853 -0.592095 0
M  V30 24426 H 2327.12 0.502828 -1.83226 0
M  V30 24427 H 2325.27 2.84801 -2.64236 0
M  V30 24428 H 2326.94 1.01496 -4.49996 0
M  V30 24429 H 2325.19 0.886629 -4.24643 0
M  V30 24430 H 2325.86 2.33538 -5.00164 0
M  V30 24431 H 2328.33 2.75256 -3.12047 0
M  V30 24432 H 2327.21 3.95221 -3.80909 0
M  V30 24433 H 2327.47 3.90503 -2.07267 0
M  V30 24434 N 2326.53 1.40598 0.712035 0
M  V30 24435 C 2327.48 1.41145 1.82611 0
M  V30 24436 C 2328.45 0.267932 1.63925 0
M  V30 24437 O 2329.63 0.466527 1.85009 0
M  V30 24438 C 2326.77 1.2833 3.20352 0
M  V30 24439 C 2325.88 2.52417 3.50585 0
M  V30 24440 C 2325.02 2.32017 4.77851 0
M  V30 24441 C 2324.06 3.51663 5.00999 0
M  V30 24442 N 2323.2 3.30436 6.19481 0
M  V30 24443 H 2328.04 2.36368 1.81478 0
M  V30 24444 H 2325.57 1.1739 0.886455 0
M  V30 24445 H 2327.53 1.18906 3.99897 0
M  V30 24446 H 2326.16 0.367245 3.20704 0
M  V30 24447 H 2325.21 2.72356 2.65568 0
M  V30 24448 H 2326.52 3.41464 3.63598 0
M  V30 24449 H 2325.68 2.19966 5.6542 0
M  V30 24450 H 2324.42 1.40401 4.67054 0
M  V30 24451 H 2323.42 3.64187 4.11884 0
M  V30 24452 H 2324.65 4.44211 5.13666 0
M  V30 24453 H 2322.59 2.41505 6.09927 0
M  V30 24454 H 2322.51 4.1305 6.33187 0
M  V30 24455 H 2323.78 3.22125 7.09828 0
M  V30 24456 N 2328.01 -0.94462 1.26153 0
M  V30 24457 C 2329.24 -1.72487 1.14262 0
M  V30 24458 C 2329.65 -1.86361 -0.302523 0
M  V30 24459 O 2329.01 -1.36852 -1.20739 0
M  V30 24460 C 2329.06 -3.13344 1.80272 0
M  V30 24461 O 2328.78 -3.00137 3.19138 0
M  V30 24462 C 2330.28 -4.076 1.7429 0
M  V30 24463 H 2327.5 -0.540174 0.398061 0
M  V30 24464 H 2330.04 -1.18443 1.66708 0
M  V30 24465 H 2328.2 -3.643 1.31772 0
M  V30 24466 H 2328.61 -3.89065 3.51751 0
M  V30 24467 H 2330.09 -5.04009 2.2512 0
M  V30 24468 H 2330.56 -4.33444 0.708708 0
M  V30 24469 H 2331.17 -3.62563 2.22325 0
M  V30 24470 N 2329.49 -1.07901 -1.1487 0
M  V30 24471 C 2330.73 -0.814998 -1.87449 0
M  V30 24472 C 2331.09 0.647299 -1.8076 0
M  V30 24473 O 2332.29 1.0266 -2.48424 0
M  V30 24474 C 2330.56 -1.31613 -3.32284 0
M  V30 24475 S 2332.12 -1.18364 -4.22534 0
M  V30 24476 H 2328.94 -0.295185 -0.646828 0
M  V30 24477 H 2331.54 -1.37925 -1.38553 0
M  V30 24478 H 2330.24 -2.37497 -3.34699 0
M  V30 24479 H 2329.78 -0.747329 -3.86236 0
M  V30 24480 H 2331.79 -0.124673 -4.96043 0
M  V30 24481 N 2330.96 1.31811 -0.863929 0
M  V30 24482 C 2331.91 2.30601 -0.304261 0
M  V30 24483 C 2332.91 1.59256 0.577391 0
M  V30 24484 O 2334.11 1.73912 0.464163 0
M  V30 24485 H 2330.49 0.747765 -0.0797008 0
M  V30 24486 H 2332.46 2.75286 -1.15153 0
M  V30 24487 C 2331.21 3.44307 0.484556 0
M  V30 24488 H 2330.53 3.99374 -0.18458 0
M  V30 24489 H 2331.97 4.15564 0.841591 0
M  V30 24490 C 2330.43 2.92399 1.67345 0
M  V30 24491 O 2330.96 2.90664 2.77268 0
M  V30 24492 N 2329.16 2.48678 1.50358 0
M  V30 24493 H 2328.71 2.50289 0.609358 0
M  V30 24494 H 2328.67 2.14303 2.30047 0
M  V30 24495 N 2332.44 0.62277 1.44773 0
M  V30 24496 C 2333.85 0.207259 1.85546 0
M  V30 24497 C 2334.2 -1.23942 1.52095 0
M  V30 24498 O 2333.33 -1.9419 0.954954 0
M  V30 24499 C 2333.92 0.369372 3.3678 0
M  V30 24500 C 2332.48 0.00843463 3.76399 0
M  V30 24501 C 2331.63 0.686698 2.68663 0
M  V30 24502 H 2334.58 0.828477 1.35359 0
M  V30 24503 H 2334.6 -0.394095 3.78454 0
M  V30 24504 H 2334.11 1.42237 3.61096 0
M  V30 24505 H 2332.21 -1.04315 3.577 0
M  V30 24506 H 2332.33 0.412668 4.77319 0
M  V30 24507 H 2330.69 0.122822 2.54404 0
M  V30 24508 H 2331.47 1.74213 2.95812 0
M  V30 24509 N 2333.92 -1.53367 0.362817 0
M  V30 24510 C 2335.33 -1.86333 -0.116989 0
M  V30 24511 C 2335.68 -1.28349 -1.48394 0
M  V30 24512 O 2334.81 -0.604464 -2.07786 0
M  V30 24513 C 2335.4 -3.38091 -0.21906 0
M  V30 24514 C 2333.96 -3.70865 -0.643118 0
M  V30 24515 C 2333.11 -2.76493 0.211367 0
M  V30 24516 H 2336.06 -1.47654 0.581713 0
M  V30 24517 H 2336.08 -3.65922 -1.04313 0
M  V30 24518 H 2335.59 -3.80264 0.775969 0
M  V30 24519 H 2333.69 -3.34248 -1.64648 0
M  V30 24520 H 2333.81 -4.77259 -0.419646 0
M  V30 24521 H 2332.17 -2.5269 -0.319323 0
M  V30 24522 H 2332.95 -3.21499 1.20388 0
M  V30 24523 N 2335.4 -0.091913 -1.57332 0
M  V30 24524 C 2336.68 0.614636 -1.85692 0
M  V30 24525 C 2337.06 1.86543 -0.988179 0
M  V30 24526 O 2336.4 2.28422 -0.0597456 0
M  V30 24527 C 2336.61 0.933067 -3.36296 0
M  V30 24528 C 2337.96 1.29789 -4.04277 0
M  V30 24529 O 2338.99 1.02418 -3.41158 0
M  V30 24530 O 2337.84 1.81038 -5.15643 0
M  V30 24531 H 2334.94 0.307248 -0.767807 0
M  V30 24532 H 2337.48 -0.124369 -1.69244 0
M  V30 24533 H 2336.26 0.0455716 -3.91273 0
M  V30 24534 H 2335.88 1.72816 -3.58079 0
M  V30 24535 N 2336.88 1.56548 0.181765 0
M  V30 24536 C 2337.84 1.94726 1.2089 0
M  V30 24537 C 2338.84 0.829771 1.37737 0
M  V30 24538 O 2340.03 1.09699 1.35321 0
M  V30 24539 C 2337.16 2.23296 2.57589 0
M  V30 24540 H 2338.35 2.8663 0.882225 0
M  V30 24541 H 2335.91 1.50444 0.423811 0
M  V30 24542 H 2336.64 1.34072 2.95288 0
M  V30 24543 H 2336.43 3.04741 2.4673 0
M  V30 24544 H 2337.92 2.5379 3.31633 0
M  V30 24545 N 2338.35 -0.449957 1.5104 0
M  V30 24546 C 2339.6 -1.19805 1.62761 0
M  V30 24547 C 2339.92 -1.92013 0.340015 0
M  V30 24548 O 2339.19 -1.85027 -0.643573 0
M  V30 24549 H 2337.77 -0.445226 0.599819 0
M  V30 24550 H 2340.44 -0.517105 1.87915 0
M  V30 24551 H 2339.53 -1.93451 2.44915 0
M  V30 24552 N 2339.83 -1.40974 -0.704569 0
M  V30 24553 C 2341.24 -1.35523 -1.28415 0
M  V30 24554 C 2341.59 -0.0339779 -1.96171 0
M  V30 24555 O 2340.72 0.867909 -1.98233 0
M  V30 24556 C 2341.31 -2.45463 -2.33524 0
M  V30 24557 C 2339.87 -2.43438 -2.8708 0
M  V30 24558 C 2339.02 -2.25773 -1.61003 0
M  V30 24559 H 2341.97 -1.5062 -0.499936 0
M  V30 24560 H 2341.99 -2.14004 -3.14615 0
M  V30 24561 H 2341.5 -3.41612 -1.84181 0
M  V30 24562 H 2339.61 -1.51019 -3.40623 0
M  V30 24563 H 2339.72 -3.39425 -3.38124 0
M  V30 24564 H 2338.08 -1.73486 -1.86479 0
M  V30 24565 H 2338.87 -3.23935 -1.13669 0
M  V30 24566 N 2341.31 0.937917 -1.26653 0
M  V30 24567 C 2342.56 1.67895 -1.11778 0
M  V30 24568 C 2342.87 1.92659 0.337906 0
M  V30 24569 O 2344.08 2.64619 0.607387 0
M  V30 24570 C 2342.53 3.02343 -1.95235 0
M  V30 24571 C 2342.14 2.85314 -3.45398 0
M  V30 24572 C 2343.89 3.80115 -1.88979 0
M  V30 24573 C 2341.79 4.15255 -4.2109 0
M  V30 24574 H 2340.72 0.62971 -0.414707 0
M  V30 24575 H 2343.37 1.0428 -1.5099 0
M  V30 24576 H 2341.76 3.66956 -1.48859 0
M  V30 24577 H 2342.93 2.2953 -3.99565 0
M  V30 24578 H 2341.25 2.20982 -3.52925 0
M  V30 24579 H 2343.84 4.76388 -2.42814 0
M  V30 24580 H 2344.19 4.07295 -0.861202 0
M  V30 24581 H 2344.72 3.22281 -2.33195 0
M  V30 24582 H 2341.46 3.93258 -5.24431 0
M  V30 24583 H 2340.98 4.70741 -3.71703 0
M  V30 24584 H 2342.66 4.83689 -4.29714 0
M  V30 24585 N 2342.79 1.08509 1.14296 0
M  V30 24586 C 2344.03 0.816614 1.85632 0
M  V30 24587 C 2344.37 -0.655989 1.82785 0
M  V30 24588 O 2343.64 -1.48231 1.25928 0
M  V30 24589 C 2343.93 1.34047 3.34221 0
M  V30 24590 C 2343.78 2.87849 3.45634 0
M  V30 24591 C 2345.1 0.966576 4.29355 0
M  V30 24592 H 2342.22 0.298116 0.674015 0
M  V30 24593 H 2344.86 1.34489 1.34211 0
M  V30 24594 H 2343.01 0.891107 3.78142 0
M  V30 24595 H 2344.68 3.41164 3.10492 0
M  V30 24596 H 2342.92 3.25456 2.86812 0
M  V30 24597 H 2343.59 3.19576 4.50083 0
M  V30 24598 H 2346.07 1.35398 3.93455 0
M  V30 24599 H 2344.95 1.3603 5.31777 0
M  V30 24600 H 2345.21 -0.126284 4.4192 0
M  V30 24601 N 2344.27 -1.31351 0.870907 0
M  V30 24602 C 2345.51 -1.96964 0.483022 0
M  V30 24603 C 2345.85 -1.68674 -0.962433 0
M  V30 24604 O 2345.12 -0.983739 -1.67788 0
M  V30 24605 C 2345.4 -3.52376 0.741814 0
M  V30 24606 C 2345.26 -3.90236 2.23687 0
M  V30 24607 C 2346.58 -4.39604 0.208915 0
M  V30 24608 H 2343.69 -0.715438 0.176967 0
M  V30 24609 H 2346.34 -1.55462 1.09232 0
M  V30 24610 H 2344.49 -3.87858 0.223217 0
M  V30 24611 H 2346.16 -3.64851 2.82279 0
M  V30 24612 H 2344.4 -3.38809 2.70907 0
M  V30 24613 H 2345.07 -4.986 2.36859 0
M  V30 24614 H 2347.55 -4.10951 0.652601 0
M  V30 24615 H 2346.42 -5.47295 0.419432 0
M  V30 24616 H 2346.69 -4.33065 -0.889199 0
M  V30 24617 N 2345.74 -0.630439 -1.44441 0
M  V30 24618 C 2346.69 0.0967703 -2.27795 0
M  V30 24619 C 2347.68 0.81681 -1.38625 0
M  V30 24620 O 2348.87 0.703031 -1.62439 0
M  V30 24621 C 2346 1.07813 -3.25931 0
M  V30 24622 C 2345.09 0.357752 -4.22588 0
M  V30 24623 N 2345.48 -0.613258 -5.02069 0
M  V30 24624 C 2343.77 0.602287 -4.41915 0
M  V30 24625 C 2344.48 -1.03881 -5.72349 0
M  V30 24626 N 2343.45 -0.377737 -5.42286 0
M  V30 24627 H 2347.25 -0.648672 -2.86652 0
M  V30 24628 H 2344.77 -0.455889 -1.5587 0
M  V30 24629 H 2346.76 1.61371 -3.84402 0
M  V30 24630 H 2345.42 1.82388 -2.68635 0
M  V30 24631 H 2346.44 -0.991036 -5.0833 0
M  V30 24632 H 2343.11 1.33096 -3.95717 0
M  V30 24633 H 2344.5 -1.84097 -6.46187 0
M  V30 24634 N 2347.22 1.53172 -0.370945 0
M  V30 24635 C 2348.46 2.03244 0.217071 0
M  V30 24636 C 2348.83 1.2521 1.45556 0
M  V30 24637 O 2350.03 1.65314 2.11954 0
M  V30 24638 C 2348.3 3.53933 0.496602 0
M  V30 24639 S 2349.86 4.25866 1.05752 0
M  V30 24640 H 2346.68 0.708224 0.0627702 0
M  V30 24641 H 2349.28 1.88593 -0.515052 0
M  V30 24642 H 2347.98 4.08325 -0.412168 0
M  V30 24643 H 2347.51 3.72756 1.25765 0
M  V30 24644 H 2349.53 4.37486 2.34137 0
M  V30 24645 N 2348.7 0.100255 1.57281 0
M  V30 24646 C 2349.93 -0.573846 1.99303 0
M  V30 24647 C 2350.35 -1.6061 0.979087 0
M  V30 24648 O 2349.71 -1.81226 -0.0517485 0
M  V30 24649 C 2349.76 -1.19352 3.40276 0
M  V30 24650 O 2348.86 -2.30929 3.4168 0
M  V30 24651 H 2348.2 -0.145127 0.647946 0
M  V30 24652 H 2350.73 0.183192 2.03778 0
M  V30 24653 H 2350.74 -1.53358 3.78081 0
M  V30 24654 H 2349.42 -0.437313 4.13594 0
M  V30 24655 H 2347.99 -1.98504 3.15675 0
M  V30 24656 N 2350.18 -1.56643 -0.17346 0
M  V30 24657 C 2351.14 -1.95364 -1.19856 0
M  V30 24658 C 2352.14 -0.837064 -1.37295 0
M  V30 24659 O 2353.33 -1.10415 -1.34737 0
M  V30 24660 C 2350.46 -2.24658 -2.56401 0
M  V30 24661 H 2351.66 -2.87094 -0.867012 0
M  V30 24662 H 2349.21 -1.50667 -0.415827 0
M  V30 24663 H 2349.95 -1.35636 -2.94573 0
M  V30 24664 H 2349.73 -3.06045 -2.4511 0
M  V30 24665 H 2351.22 -2.55546 -3.30282 0
M  V30 24666 N 2351.66 0.44194 -1.51277 0
M  V30 24667 C 2352.91 1.1894 -1.63394 0
M  V30 24668 C 2353.23 1.9183 -0.350193 0
M  V30 24669 O 2352.5 1.85366 0.633752 0
M  V30 24670 H 2351.08 0.442039 -0.602172 0
M  V30 24671 H 2353.74 0.507132 -1.88187 0
M  V30 24672 H 2352.83 1.92149 -2.45937 0
M  V30 24673 N 2353.14 1.41345 0.697083 0
M  V30 24674 C 2354.38 1.4083 1.45928 0
M  V30 24675 C 2354.71 0.0167439 1.94193 0
M  V30 24676 O 2353.99 -0.955233 1.69427 0
M  V30 24677 C 2354.27 2.41377 2.67224 0
M  V30 24678 C 2354.13 3.89634 2.24735 0
M  V30 24679 C 2355.44 2.39202 3.69419 0
M  V30 24680 H 2352.56 0.512852 0.529294 0
M  V30 24681 H 2355.21 1.7261 0.794082 0
M  V30 24682 H 2353.36 2.14407 3.23978 0
M  V30 24683 H 2355.03 4.27502 1.7332 0
M  V30 24684 H 2353.27 4.04573 1.56535 0
M  V30 24685 H 2353.94 4.55531 3.11762 0
M  V30 24686 H 2356.42 2.63133 3.22335 0
M  V30 24687 H 2355.29 3.11571 4.51901 0
M  V30 24688 H 2355.55 1.41008 4.1901 0
M  V30 24689 N 2354.61 -0.931187 1.27148 0
M  V30 24690 C 2355.86 -1.67518 1.13058 0
M  V30 24691 C 2356.18 -1.92277 -0.324757 0
M  V30 24692 O 2355.45 -1.52656 -1.22772 0
M  V30 24693 H 2354.03 -0.620846 0.415402 0
M  V30 24694 H 2356.69 -1.1183 1.59624 0
M  V30 24695 H 2355.79 -2.64482 1.65698 0
M  V30 24696 N 2356.09 -1.09114 -1.13719 0
M  V30 24697 C 2357.51 -0.820198 -1.36912 0
M  V30 24698 C 2357.71 0.567045 -1.93357 0
M  V30 24699 O 2356.76 1.32251 -2.15095 0
M  V30 24700 C 2358.08 -1.90881 -2.32347 0
M  V30 24701 C 2359.62 -1.93566 -2.4597 0
M  V30 24702 C 2360.1 -3.01562 -3.44709 0
M  V30 24703 N 2361.59 -3.00781 -3.52257 0
M  V30 24704 C 2362.33 -3.80986 -4.28529 0
M  V30 24705 N 2361.82 -4.7109 -5.07982 0
M  V30 24706 N 2363.61 -3.69258 -4.23798 0
M  V30 24707 H 2355.77 -1.98554 -0.754313 0
M  V30 24708 H 2358.03 -0.86207 -0.394385 0
M  V30 24709 H 2357.73 -2.90655 -1.98022 0
M  V30 24710 H 2357.61 -1.7843 -3.32329 0
M  V30 24711 H 2360 -0.944335 -2.79582 0
M  V30 24712 H 2360.08 -2.10096 -1.45923 0
M  V30 24713 H 2359.72 -4.00906 -3.11828 0
M  V30 24714 H 2359.65 -2.82277 -4.44553 0
M  V30 24715 H 2362.14 -2.3548 -2.95563 0
M  V30 24716 H 2362.45 -5.28879 -5.63478 0
M  V30 24717 H 2360.8 -4.75128 -5.07226 0
M  V30 24718 H 2363.99 -2.98228 -3.60801 0
M  V30 24719 H 2364.16 -4.32003 -4.82988 0
M  V30 24720 N 2357.57 1.30887 -0.877861 0
M  V30 24721 C 2358.8 2.00581 -0.507449 0
M  V30 24722 C 2359.21 1.65849 0.902186 0
M  V30 24723 O 2358.57 0.891859 1.59224 0
M  V30 24724 C 2358.62 3.55345 -0.664224 0
M  V30 24725 O 2358.34 3.88837 -2.01836 0
M  V30 24726 C 2359.84 4.42312 -0.295865 0
M  V30 24727 H 2357.06 0.641467 -0.196878 0
M  V30 24728 H 2359.61 1.66937 -1.1812 0
M  V30 24729 H 2357.76 3.87381 -0.03793 0
M  V30 24730 H 2358.18 4.83546 -2.03182 0
M  V30 24731 H 2359.65 5.50109 -0.456485 0
M  V30 24732 H 2360.13 4.32476 0.765586 0
M  V30 24733 H 2360.73 4.15707 -0.898186 0
M  V30 24734 N 2359.05 0.638091 1.44105 0
M  V30 24735 C 2360.3 0.145079 2.01579 0
M  V30 24736 C 2360.62 -1.23997 1.50498 0
M  V30 24737 O 2359.89 -1.82526 0.711406 0
M  V30 24738 H 2358.47 0.0506431 0.745281 0
M  V30 24739 H 2361.13 0.826358 1.76514 0
M  V30 24740 H 2360.22 0.118094 3.11876 0
M  V30 24741 N 2360.53 -1.52973 0.379063 0
M  V30 24742 C 2361.77 -2.03356 -0.206289 0
M  V30 24743 C 2362.13 -1.2598 -1.4489 0
M  V30 24744 O 2363.33 -1.66436 -2.11075 0
M  V30 24745 C 2361.6 -3.54191 -0.477825 0
M  V30 24746 S 2363.16 -4.26421 -1.03492 0
M  V30 24747 H 2359.98 -0.708547 -0.0590135 0
M  V30 24748 H 2362.58 -1.88318 0.525046 0
M  V30 24749 H 2361.28 -4.08101 0.433817 0
M  V30 24750 H 2360.82 -3.73417 -1.23786 0
M  V30 24751 H 2362.83 -4.38722 -2.31814 0
M  V30 24752 N 2362 -0.108595 -1.57225 0
M  V30 24753 C 2363.25 0.551909 -1.94834 0
M  V30 24754 C 2363.58 1.67346 -0.991233 0
M  V30 24755 O 2362.83 1.95696 -0.0132222 0
M  V30 24756 C 2363.13 1.13457 -3.38913 0
M  V30 24757 C 2362.8 0.13543 -4.50697 0
M  V30 24758 C 2361.46 -0.139336 -4.80998 0
M  V30 24759 C 2363.81 -0.546048 -5.18332 0
M  V30 24760 C 2361.14 -1.10204 -5.76257 0
M  V30 24761 C 2363.49 -1.49732 -6.14624 0
M  V30 24762 C 2362.16 -1.78018 -6.43324 0
M  V30 24763 H 2361.43 0.201958 -0.712947 0
M  V30 24764 H 2364.07 -0.187294 -1.90582 0
M  V30 24765 H 2362.38 1.95031 -3.39809 0
M  V30 24766 H 2364.08 1.65355 -3.6532 0
M  V30 24767 H 2360.67 0.359771 -4.27087 0
M  V30 24768 H 2364.85 -0.346929 -4.95086 0
M  V30 24769 H 2360.11 -1.32805 -5.96802 0
M  V30 24770 H 2364.28 -2.03111 -6.66122 0
M  V30 24771 H 2361.91 -2.52771 -7.16945 0
M  V30 24772 N 2363.48 1.56732 0.16515 0
M  V30 24773 C 2364.73 1.81534 0.879111 0
M  V30 24774 C 2365.04 0.686874 1.83143 0
M  V30 24775 O 2366.25 0.819989 2.58821 0
M  V30 24776 C 2364.71 3.21689 1.61382 0
M  V30 24777 C 2364.31 4.42421 0.704826 0
M  V30 24778 C 2366.06 3.55778 2.31564 0
M  V30 24779 C 2363.96 5.73598 1.44012 0
M  V30 24780 H 2362.89 0.676963 0.332021 0
M  V30 24781 H 2365.55 1.83025 0.131976 0
M  V30 24782 H 2363.93 3.14533 2.40593 0
M  V30 24783 H 2365.1 4.60772 -0.0507625 0
M  V30 24784 H 2363.42 4.16248 0.112346 0
M  V30 24785 H 2366.01 4.51033 2.87182 0
M  V30 24786 H 2366.36 2.80956 3.07196 0
M  V30 24787 H 2366.89 3.64515 1.5929 0
M  V30 24788 H 2363.63 6.51467 0.726005 0
M  V30 24789 H 2363.15 5.59213 2.16888 0
M  V30 24790 H 2364.83 6.15767 1.98595 0
M  V30 24791 N 2364.96 -0.433911 1.51509 0
M  V30 24792 C 2366.21 -1.18481 1.64591 0
M  V30 24793 C 2366.54 -1.90783 0.362699 0
M  V30 24794 O 2365.81 -1.83743 -0.637859 0
M  V30 24795 C 2366.1 -2.19908 2.85153 0
M  V30 24796 C 2365.95 -1.51667 4.23459 0
M  V30 24797 C 2367.27 -3.20853 3.01233 0
M  V30 24798 H 2364.39 -0.429378 0.599002 0
M  V30 24799 H 2367.03 -0.473615 1.84002 0
M  V30 24800 H 2365.18 -2.80561 2.68733 0
M  V30 24801 H 2366.85 -0.943243 4.51554 0
M  V30 24802 H 2365.1 -0.81896 4.25999 0
M  V30 24803 H 2365.77 -2.25551 5.03816 0
M  V30 24804 H 2368.24 -2.70257 3.16386 0
M  V30 24805 H 2367.12 -3.89111 3.87148 0
M  V30 24806 H 2367.38 -3.87156 2.13454 0
M  V30 24807 N 2366.44 -1.41713 -0.689577 0
M  V30 24808 C 2367.69 -1.40689 -1.44532 0
M  V30 24809 C 2368 -0.0213696 -1.95588 0
M  V30 24810 O 2369.21 0.111486 -2.71271 0
M  V30 24811 C 2367.66 -2.47401 -2.61382 0
M  V30 24812 C 2367.27 -3.91889 -2.17087 0
M  V30 24813 C 2369.01 -2.55523 -3.38982 0
M  V30 24814 C 2366.92 -4.90141 -3.30932 0
M  V30 24815 H 2365.85 -0.523219 -0.542916 0
M  V30 24816 H 2368.5 -1.67561 -0.748024 0
M  V30 24817 H 2366.88 -2.13669 -3.33409 0
M  V30 24818 H 2368.06 -4.349 -1.52311 0
M  V30 24819 H 2366.37 -3.87483 -1.52466 0
M  V30 24820 H 2368.97 -3.2611 -4.23741 0
M  V30 24821 H 2369.31 -1.59398 -3.84575 0
M  V30 24822 H 2369.85 -2.88375 -2.74016 0
M  V30 24823 H 2366.59 -5.87691 -2.90345 0
M  V30 24824 H 2366.11 -4.51774 -3.94538 0
M  V30 24825 H 2367.78 -5.11176 -3.96621 0
M  V30 24826 N 2367.92 0.924431 -1.2764 0
M  V30 24827 C 2369.19 1.65099 -1.04889 0
M  V30 24828 C 2369.57 2.06975 0.41529 0
M  V30 24829 O 2368.92 1.80651 1.3992 0
M  V30 24830 C 2369.13 2.85058 -2.01353 0
M  V30 24831 C 2370.48 3.56325 -2.30906 0
M  V30 24832 O 2371.5 2.9519 -1.99353 0
M  V30 24833 O 2370.36 4.6648 -2.84708 0
M  V30 24834 H 2367.46 0.723777 -0.400096 0
M  V30 24835 H 2370 0.974679 -1.38918 0
M  V30 24836 H 2368.77 2.51128 -3.00084 0
M  V30 24837 H 2368.4 3.60407 -1.67907 0
M  V30 24838 N 2369.39 1.09715 1.13139 0
M  V30 24839 C 2370.36 0.742789 2.1683 0
M  V30 24840 C 2371.36 -0.229101 1.5916 0
M  V30 24841 O 2372.55 -0.00690175 1.74199 0
M  V30 24842 C 2369.68 0.0989767 3.40756 0
M  V30 24843 H 2370.87 1.66114 2.49692 0
M  V30 24844 H 2368.43 0.896721 1.28018 0
M  V30 24845 H 2369.16 -0.830459 3.13487 0
M  V30 24846 H 2368.95 0.798333 3.83887 0
M  V30 24847 H 2370.44 -0.13345 4.17387 0
M  V30 24848 N 2370.87 -1.30419 0.88479 0
M  V30 24849 C 2371.81 -2.26272 0.296039 0
M  V30 24850 C 2372.78 -1.51778 -0.583293 0
M  V30 24851 O 2373.97 -1.80795 -0.533428 0
M  V30 24852 C 2371.09 -3.33708 -0.579381 0
M  V30 24853 C 2370.14 -4.25876 0.2306 0
M  V30 24854 S 2370.97 -5.10447 1.61876 0
M  V30 24855 C 2372.13 -6.21392 0.749865 0
M  V30 24856 H 2372.36 -2.7586 1.10853 0
M  V30 24857 H 2369.9 -1.38413 0.684203 0
M  V30 24858 H 2371.85 -3.96073 -1.07873 0
M  V30 24859 H 2370.51 -2.82843 -1.36596 0
M  V30 24860 H 2369.71 -5.02098 -0.437453 0
M  V30 24861 H 2369.31 -3.68084 0.662557 0
M  V30 24862 H 2371.6 -6.77492 -0.0332357 0
M  V30 24863 H 2372.54 -6.92382 1.48368 0
M  V30 24864 H 2372.95 -5.63643 0.31085 0
M  V30 24865 N 2372.35 -0.645724 -1.43764 0
M  V30 24866 C 2373.28 0.0370066 -2.33471 0
M  V30 24867 C 2374.26 0.819753 -1.49044 0
M  V30 24868 O 2375.45 0.782727 -1.77727 0
M  V30 24869 C 2372.58 1.00924 -3.32313 0
M  V30 24870 C 2371.53 0.337126 -4.2667 0
M  V30 24871 C 2370.86 1.42028 -5.15492 0
M  V30 24872 C 2372.16 -0.765797 -5.16655 0
M  V30 24873 H 2373.85 -0.71212 -2.90808 0
M  V30 24874 H 2371.4 -0.343901 -1.39833 0
M  V30 24875 H 2373.35 1.49571 -3.93962 0
M  V30 24876 H 2372.07 1.78943 -2.73216 0
M  V30 24877 H 2370.73 -0.128836 -3.66374 0
M  V30 24878 H 2370.38 2.19172 -4.52739 0
M  V30 24879 H 2370.08 0.975864 -5.7944 0
M  V30 24880 H 2371.6 1.90827 -5.80015 0
M  V30 24881 H 2373.02 -0.361802 -5.72157 0
M  V30 24882 H 2371.42 -1.13423 -5.89284 0
M  V30 24883 H 2372.49 -1.62691 -4.56793 0
M  V30 24884 N 2373.83 1.5277 -0.38717 0
M  V30 24885 C 2374.74 2.30118 0.456401 0
M  V30 24886 C 2375.75 1.36946 1.0734 0
M  V30 24887 O 2376.93 1.70015 1.07968 0
M  V30 24888 C 2374 3.09139 1.56952 0
M  V30 24889 C 2373.06 4.18015 0.977842 0
M  V30 24890 C 2372.29 4.93259 2.03791 0
M  V30 24891 O 2372.51 4.68573 3.25263 0
M  V30 24892 O 2371.45 5.7866 1.6564 0
M  V30 24893 H 2375.27 3.03203 -0.173643 0
M  V30 24894 H 2372.86 1.48636 -0.150945 0
M  V30 24895 H 2374.74 3.58416 2.21621 0
M  V30 24896 H 2373.41 2.38869 2.18456 0
M  V30 24897 H 2372.32 3.72939 0.29446 0
M  V30 24898 H 2373.65 4.90514 0.407042 0
M  V30 24899 N 2375.31 0.116931 1.57166 0
M  V30 24900 C 2376.72 -0.239666 1.5779 0
M  V30 24901 C 2376.92 -1.66865 1.12952 0
M  V30 24902 O 2375.98 -2.38953 0.815962 0
M  V30 24903 C 2377.29 -0.00822916 3.00699 0
M  V30 24904 C 2378.84 -0.0742888 3.12912 0
M  V30 24905 C 2379.31 0.129429 4.57817 0
M  V30 24906 N 2380.81 0.0753284 4.63139 0
M  V30 24907 C 2381.54 0.207888 5.73023 0
M  V30 24908 N 2381.04 0.396504 6.91664 0
M  V30 24909 N 2382.83 0.147609 5.61906 0
M  V30 24910 H 2374.98 1.05033 1.84613 0
M  V30 24911 H 2377.24 0.413425 0.853102 0
M  V30 24912 H 2376.95 0.97959 3.37782 0
M  V30 24913 H 2376.82 -0.741012 3.6985 0
M  V30 24914 H 2379.21 -1.05263 2.75688 0
M  V30 24915 H 2379.29 0.690341 2.46309 0
M  V30 24916 H 2378.94 1.10474 4.9574 0
M  V30 24917 H 2378.87 -0.655161 5.22509 0
M  V30 24918 H 2381.36 -0.0670234 3.77841 0
M  V30 24919 H 2381.67 0.488573 7.71254 0
M  V30 24920 H 2380.01 0.432451 6.93653 0
M  V30 24921 H 2383.21 0.00123264 4.681 0
M  V30 24922 H 2383.38 0.254361 6.47501 0
M  V30 24923 N 2376.78 -1.56818 -0.156836 0
M  V30 24924 C 2378.03 -1.81997 -0.869472 0
M  V30 24925 C 2378.35 -0.696577 -1.82776 0
M  V30 24926 O 2379.55 -0.833703 -2.58383 0
M  V30 24927 C 2378.01 -3.2254 -1.59674 0
M  V30 24928 C 2377.62 -4.42788 -0.681354 0
M  V30 24929 C 2379.36 -3.57002 -2.29674 0
M  V30 24930 C 2377.27 -5.74354 -1.40968 0
M  V30 24931 H 2376.2 -0.678714 -0.328426 0
M  V30 24932 H 2378.85 -1.83092 -0.122268 0
M  V30 24933 H 2377.23 -3.15804 -2.38922 0
M  V30 24934 H 2378.4 -4.60739 0.0751976 0
M  V30 24935 H 2376.72 -4.16302 -0.0902699 0
M  V30 24936 H 2379.32 -4.52549 -2.84786 0
M  V30 24937 H 2379.66 -2.82581 -3.05702 0
M  V30 24938 H 2380.19 -3.65355 -1.57355 0
M  V30 24939 H 2376.93 -6.51843 -0.691446 0
M  V30 24940 H 2376.45 -5.60356 -2.13919 0
M  V30 24941 H 2378.13 -6.16812 -1.95326 0
M  V30 24942 N 2378.26 0.425871 -1.51737 0
M  V30 24943 C 2379.21 1.51773 -1.73878 0
M  V30 24944 C 2380.18 1.55617 -0.580729 0
M  V30 24945 O 2381.36 1.7245 -0.816441 0
M  V30 24946 C 2378.5 2.89385 -1.88017 0
M  V30 24947 C 2377.62 2.94981 -3.15611 0
M  V30 24948 C 2376.75 4.23787 -3.20278 0
M  V30 24949 C 2375.79 4.23294 -4.42141 0
M  V30 24950 N 2374.93 5.43643 -4.44293 0
M  V30 24951 H 2379.77 1.32196 -2.67073 0
M  V30 24952 H 2377.31 0.641985 -1.32352 0
M  V30 24953 H 2379.26 3.69247 -1.94197 0
M  V30 24954 H 2377.89 3.07495 -0.982185 0
M  V30 24955 H 2376.95 2.07712 -3.18685 0
M  V30 24956 H 2378.26 2.90479 -4.05491 0
M  V30 24957 H 2377.41 5.12031 -3.25437 0
M  V30 24958 H 2376.15 4.30961 -2.28307 0
M  V30 24959 H 2375.16 3.33442 -4.37146 0
M  V30 24960 H 2376.38 4.17774 -5.35389 0
M  V30 24961 H 2374.33 5.51517 -3.55198 0
M  V30 24962 H 2374.24 5.41068 -5.27997 0
M  V30 24963 H 2375.51 6.33887 -4.5366 0
M  V30 24964 N 2379.74 1.42077 0.682052 0
M  V30 24965 C 2381.15 1.37548 1.26243 0
M  V30 24966 C 2381.5 0.0651826 1.96092 0
M  V30 24967 O 2380.63 -0.836262 1.99589 0
M  V30 24968 C 2381.22 2.49147 2.29589 0
M  V30 24969 C 2379.78 2.47974 2.83171 0
M  V30 24970 C 2378.93 2.28305 1.57391 0
M  V30 24971 H 2381.88 1.51396 0.475911 0
M  V30 24972 H 2381.9 2.18982 3.11171 0
M  V30 24973 H 2381.41 3.44499 1.78723 0
M  V30 24974 H 2379.51 1.56419 3.38177 0
M  V30 24975 H 2379.63 3.44761 3.32681 0
M  V30 24976 H 2377.99 1.76431 1.83696 0
M  V30 24977 H 2378.77 3.25703 1.08501 0
M  V30 24978 N 2381.22 -0.917649 1.28129 0
M  V30 24979 C 2382.13 -2.05284 1.1356 0
M  V30 24980 C 2383.15 -1.73885 0.063122 0
M  V30 24981 O 2384.32 -1.9956 0.271634 0
M  V30 24982 C 2381.39 -3.37468 0.794735 0
M  V30 24983 C 2380.45 -3.825 1.94916 0
M  V30 24984 C 2379.68 -5.08377 1.62446 0
M  V30 24985 O 2379.9 -5.67867 0.537005 0
M  V30 24986 O 2378.84 -5.49026 2.46686 0
M  V30 24987 H 2382.66 -2.20491 2.08848 0
M  V30 24988 H 2380.25 -1.03843 1.07411 0
M  V30 24989 H 2382.13 -4.16838 0.618417 0
M  V30 24990 H 2380.81 -3.23445 -0.128524 0
M  V30 24991 H 2379.71 -3.03974 2.1806 0
M  V30 24992 H 2381.05 -4.01081 2.85298 0
M  V30 24993 N 2382.7 -1.10314 -1.12555 0
M  V30 24994 C 2383.64 -0.750819 -2.18246 0
M  V30 24995 C 2384.61 0.272264 -1.63853 0
M  V30 24996 O 2385.8 0.151828 -1.90195 0
M  V30 24997 C 2382.94 -0.18744 -3.44591 0
M  V30 24998 C 2382.05 -1.26567 -4.13043 0
M  V30 24999 C 2381.19 -0.664071 -5.27033 0
M  V30 25000 C 2380.23 -1.72297 -5.8735 0
M  V30 25001 N 2379.36 -1.14173 -6.92755 0
M  V30 25002 H 2384.2 -1.65632 -2.47729 0
M  V30 25003 H 2381.74 -0.827358 -1.21627 0
M  V30 25004 H 2383.7 0.157075 -4.16904 0
M  V30 25005 H 2382.33 0.6813 -3.15528 0
M  V30 25006 H 2381.38 -1.72733 -3.38921 0
M  V30 25007 H 2382.69 -2.06729 -4.53943 0
M  V30 25008 H 2381.85 -0.26893 -6.06104 0
M  V30 25009 H 2380.59 0.168997 -4.87407 0
M  V30 25010 H 2379.59 -2.12755 -5.06967 0
M  V30 25011 H 2380.82 -2.55886 -6.29046 0
M  V30 25012 H 2378.76 -0.330099 -6.55169 0
M  V30 25013 H 2378.68 -1.8802 -7.32246 0
M  V30 25014 H 2379.95 -0.773092 -7.75657 0
M  V30 25015 N 2384.18 1.29948 -0.891694 0
M  V30 25016 C 2385.4 2.00031 -0.528695 0
M  V30 25017 C 2385.82 1.66797 0.884545 0
M  V30 25018 O 2385.18 0.908697 1.58269 0
M  V30 25019 C 2385.23 3.54621 -0.701876 0
M  V30 25020 O 2384.95 3.86674 -2.05948 0
M  V30 25021 C 2386.45 4.41973 -0.342761 0
M  V30 25022 H 2383.67 0.639343 -0.20367 0
M  V30 25023 H 2386.21 1.65675 -1.19884 0
M  V30 25024 H 2384.37 3.87319 -0.0790149 0
M  V30 25025 H 2384.78 4.81364 -2.083 0
M  V30 25026 H 2386.26 5.49594 -0.514806 0
M  V30 25027 H 2386.73 4.33264 0.719674 0
M  V30 25028 H 2387.34 4.14731 -0.942227 0
M  V30 25029 N 2385.65 0.653339 1.4342 0
M  V30 25030 C 2386.9 0.167027 2.02111 0
M  V30 25031 C 2387.23 -1.21589 1.51425 0
M  V30 25032 O 2386.51 -1.81179 0.707421 0
M  V30 25033 C 2386.79 0.178011 3.5966 0
M  V30 25034 C 2386.64 1.59485 4.20576 0
M  V30 25035 C 2387.96 -0.485523 4.37414 0
M  V30 25036 H 2385.08 0.0621686 0.734373 0
M  V30 25037 H 2387.72 0.834046 1.70715 0
M  V30 25038 H 2385.87 -0.389964 3.86538 0
M  V30 25039 H 2387.55 2.21343 4.04728 0
M  V30 25040 H 2385.79 2.1421 3.77222 0
M  V30 25041 H 2386.46 1.55439 5.29663 0
M  V30 25042 H 2388.94 -0.00227214 4.161 0
M  V30 25043 H 2387.81 -0.44711 5.47076 0
M  V30 25044 H 2388.07 -1.55966 4.13675 0
M  V30 25045 N 2387.13 -1.52563 0.395266 0
M  V30 25046 C 2388.41 -1.94086 -0.242873 0
M  V30 25047 C 2388.79 -1.33116 -1.63839 0
M  V30 25048 O 2388.14 -0.501568 -2.22927 0
M  V30 25049 C 2388.35 -3.48006 -0.263209 0
M  V30 25050 C 2389.69 -4.21772 -0.48928 0
M  V30 25051 O 2390.72 -3.54543 -0.343163 0
M  V30 25052 O 2389.58 -5.40961 -0.776074 0
M  V30 25053 H 2386.67 -0.812814 -0.152522 0
M  V30 25054 H 2389.22 -1.63619 0.450206 0
M  V30 25055 H 2387.99 -3.8473 0.714052 0
M  V30 25056 H 2387.61 -3.84794 -1.00096 0
M  V30 25057 N 2388.61 -0.125265 -1.57101 0
M  V30 25058 C 2389.86 0.532 -1.95698 0
M  V30 25059 C 2390.19 1.65928 -1.00903 0
M  V30 25060 O 2389.46 1.94442 -0.0473812 0
M  V30 25061 C 2389.75 1.05878 -3.44183 0
M  V30 25062 C 2389.6 -0.0655182 -4.49752 0
M  V30 25063 C 2390.92 1.94764 -3.94658 0
M  V30 25064 H 2388.04 0.191913 -0.711575 0
M  V30 25065 H 2390.68 -0.202094 -1.88922 0
M  V30 25066 H 2388.83 1.68436 -3.50088 0
M  V30 25067 H 2390.5 -0.701063 -4.55942 0
M  V30 25068 H 2388.74 -0.727784 -4.27651 0
M  V30 25069 H 2389.42 0.344409 -5.50925 0
M  V30 25070 H 2391.89 1.42067 -3.91096 0
M  V30 25071 H 2390.77 2.28538 -4.99061 0
M  V30 25072 H 2391.03 2.8765 -3.35723 0
M  V30 25073 N 2390.09 1.56899 0.148518 0
M  V30 25074 C 2391.32 1.87152 0.875085 0
M  V30 25075 C 2391.73 0.711293 1.7532 0
M  V30 25076 O 2391.07 -0.32812 1.80746 0
M  V30 25077 C 2391.13 3.12092 1.78434 0
M  V30 25078 C 2390.79 4.43969 1.08354 0
M  V30 25079 C 2391.79 5.1805 0.438156 0
M  V30 25080 C 2389.48 4.90695 1.07349 0
M  V30 25081 C 2391.47 6.37061 -0.207902 0
M  V30 25082 C 2389.16 6.0963 0.423623 0
M  V30 25083 C 2390.16 6.82659 -0.215949 0
M  V30 25084 O 2389.84 7.99335 -0.855519 0
M  V30 25085 H 2389.58 0.624626 0.258493 0
M  V30 25086 H 2392.13 2.04877 0.146484 0
M  V30 25087 H 2390.36 2.90372 2.55384 0
M  V30 25088 H 2392.05 3.28604 2.38273 0
M  V30 25089 H 2392.81 4.83021 0.437732 0
M  V30 25090 H 2388.69 4.33777 1.56072 0
M  V30 25091 H 2392.24 6.94001 -0.707702 0
M  V30 25092 H 2388.13 6.44121 0.421708 0
M  V30 25093 H 2388.9 8.14992 -0.757035 0
M  V30 25094 N 2391.57 -0.417818 1.51961 0
M  V30 25095 C 2392.81 -1.16326 1.65265 0
M  V30 25096 C 2393.13 -1.91248 0.380667 0
M  V30 25097 O 2392.4 -1.8635 -0.604181 0
M  V30 25098 H 2390.98 -0.432403 0.609128 0
M  V30 25099 H 2393.65 -0.477129 1.8897 0
M  V30 25100 H 2392.74 -1.88212 2.48963 0
M  V30 25101 N 2393.04 -1.42436 -0.674508 0
M  V30 25102 C 2393.99 -1.42393 -1.78068 0
M  V30 25103 C 2394.98 -0.29523 -1.58168 0
M  V30 25104 O 2396.17 -0.537479 -1.68642 0
M  V30 25105 C 2393.3 -1.32906 -3.16529 0
M  V30 25106 C 2392.38 -2.50723 -3.42051 0
M  V30 25107 N 2392.78 -3.76144 -3.38155 0
M  V30 25108 C 2391.07 -2.4499 -3.72687 0
M  V30 25109 C 2391.77 -4.54404 -3.63169 0
M  V30 25110 N 2390.75 -3.84819 -3.83947 0
M  V30 25111 H 2394.55 -2.3726 -1.7345 0
M  V30 25112 H 2392.07 -1.36789 -0.875356 0
M  V30 25113 H 2394.06 -1.30958 -3.95798 0
M  V30 25114 H 2392.72 -0.39042 -3.22344 0
M  V30 25115 H 2393.73 -4.08735 -3.1805 0
M  V30 25116 H 2390.41 -1.59706 -3.85746 0
M  V30 25117 H 2391.8 -5.63391 -3.66115 0
M  V30 25118 N 2394.52 0.910841 -1.28614 0
M  V30 25119 C 2395.77 1.66272 -1.16109 0
M  V30 25120 C 2396.1 1.92036 0.289079 0
M  V30 25121 O 2395.38 1.52283 1.20997 0
M  V30 25122 C 2395.66 3.01882 -1.96315 0
M  V30 25123 C 2395.51 2.83253 -3.4941 0
M  V30 25124 C 2396.83 4.0246 -1.78083 0
M  V30 25125 H 2393.95 0.603409 -0.423162 0
M  V30 25126 H 2396.59 1.05584 -1.57962 0
M  V30 25127 H 2394.74 3.53684 -1.60749 0
M  V30 25128 H 2396.41 2.38439 -3.94898 0
M  V30 25129 H 2394.66 2.18255 -3.74897 0
M  V30 25130 H 2395.33 3.79567 -4.0079 0
M  V30 25131 H 2397.8 3.5973 -2.09126 0
M  V30 25132 H 2396.68 4.95304 -2.3657 0
M  V30 25133 H 2396.94 4.3598 -0.733085 0
M  V30 25134 N 2396 1.10909 1.11969 0
M  V30 25135 C 2397.23 0.876857 1.874 0
M  V30 25136 C 2397.64 -0.572993 1.79895 0
M  V30 25137 O 2397 -1.39532 1.17631 0
M  V30 25138 C 2397.05 1.32288 3.36426 0
M  V30 25139 O 2396.77 2.71588 3.43761 0
M  V30 25140 C 2398.27 1.12526 4.28781 0
M  V30 25141 H 2395.49 0.314395 0.592788 0
M  V30 25142 H 2398.04 1.47501 1.41646 0
M  V30 25143 H 2396.19 0.768295 3.79705 0
M  V30 25144 H 2396.61 2.90784 4.36515 0
M  V30 25145 H 2398.08 1.48642 5.3161 0
M  V30 25146 H 2398.56 0.0643166 4.39153 0
M  V30 25147 H 2399.16 1.66655 3.91288 0
M  V30 25148 N 2397.48 -1.29474 0.898573 0
M  V30 25149 C 2398.41 -2.30185 0.392051 0
M  V30 25150 C 2399.39 -1.61556 -0.532331 0
M  V30 25151 O 2400.57 -1.89073 -0.443298 0
M  V30 25152 C 2397.7 -3.4519 -0.382293 0
M  V30 25153 C 2396.66 -4.25611 0.451558 0
M  V30 25154 C 2395.98 -5.32801 -0.450214 0
M  V30 25155 C 2397.28 -4.93829 1.70088 0
M  V30 25156 H 2398.98 -2.72802 1.23367 0
M  V30 25157 H 2396.52 -1.31148 0.594661 0
M  V30 25158 H 2398.48 -4.14719 -0.747378 0
M  V30 25159 H 2397.2 -3.01413 -1.25769 0
M  V30 25160 H 2395.86 -3.57788 0.79896 0
M  V30 25161 H 2395.51 -4.8527 -1.32371 0
M  V30 25162 H 2395.21 -5.87508 0.104005 0
M  V30 25163 H 2396.73 -6.05183 -0.811516 0
M  V30 25164 H 2398.15 -5.55802 1.40559 0
M  V30 25165 H 2396.54 -5.58463 2.19633 0
M  V30 25166 H 2397.61 -4.19182 2.43752 0
M  V30 25167 N 2398.96 -0.660936 -1.43071 0
M  V30 25168 C 2399.89 0.0758461 -2.28074 0
M  V30 25169 C 2400.87 0.822338 -1.40272 0
M  V30 25170 O 2402.05 0.820322 -1.69714 0
M  V30 25171 C 2399.18 1.11432 -3.19845 0
M  V30 25172 C 2398.22 0.464994 -4.23958 0
M  V30 25173 S 2399.06 -0.767171 -5.29976 0
M  V30 25174 C 2400.21 0.270572 -6.25315 0
M  V30 25175 H 2400.45 -0.64519 -2.90215 0
M  V30 25176 H 2397.98 -0.450021 -1.47696 0
M  V30 25177 H 2399.94 1.70843 -3.7326 0
M  V30 25178 H 2398.6 1.80772 -2.56867 0
M  V30 25179 H 2397.79 1.2481 -4.88302 0
M  V30 25180 H 2397.39 -0.05519 -3.73959 0
M  V30 25181 H 2399.69 1.13448 -6.67934 0
M  V30 25182 H 2400.63 -0.33804 -7.07293 0
M  V30 25183 H 2401.04 0.609838 -5.61196 0
M  V30 25184 N 2400.43 1.52351 -0.403352 0
M  V30 25185 C 2401.85 1.59509 -0.0539561 0
M  V30 25186 C 2402.05 1.41655 1.43304 0
M  V30 25187 O 2401.11 1.24059 2.19922 0
M  V30 25188 C 2402.42 2.95744 -0.543706 0
M  V30 25189 C 2403.97 3.08961 -0.50118 0
M  V30 25190 C 2404.44 4.47668 -0.967345 0
M  V30 25191 N 2405.93 4.53892 -0.923929 0
M  V30 25192 C 2406.67 5.59478 -1.25588 0
M  V30 25193 N 2406.16 6.72643 -1.65901 0
M  V30 25194 N 2407.96 5.49656 -1.17623 0
M  V30 25195 H 2400.11 1.62204 -1.37126 0
M  V30 25196 H 2402.37 0.76275 -0.562953 0
M  V30 25197 H 2402.08 3.14071 -1.5828 0
M  V30 25198 H 2401.95 3.77167 0.0497379 0
M  V30 25199 H 2404.34 2.90322 0.528858 0
M  V30 25200 H 2404.42 2.29458 -1.1306 0
M  V30 25201 H 2404.06 4.67049 -1.99568 0
M  V30 25202 H 2403.99 5.25658 -0.31479 0
M  V30 25203 H 2406.48 3.72654 -0.627469 0
M  V30 25204 H 2406.8 7.49192 -1.89556 0
M  V30 25205 H 2405.14 6.73939 -1.69799 0
M  V30 25206 H 2408.33 4.60129 -0.860196 0
M  V30 25207 H 2408.51 6.31838 -1.43823 0
M  V30 25208 N 2401.91 0.133594 1.57033 0
M  V30 25209 C 2403.14 -0.531441 2.00476 0
M  V30 25210 C 2403.56 -1.58497 1.01293 0
M  V30 25211 O 2402.92 -1.81295 -0.0132961 0
M  V30 25212 C 2402.97 -1.12107 3.42731 0
M  V30 25213 O 2402.07 -2.2363 3.46502 0
M  V30 25214 H 2401.41 -0.13135 0.650879 0
M  V30 25215 H 2403.94 0.226375 2.03344 0
M  V30 25216 H 2403.95 -1.45304 3.81249 0
M  V30 25217 H 2402.63 -0.349485 4.14429 0
M  V30 25218 H 2401.21 -1.91763 3.19815 0
M  V30 25219 N 2403.39 -1.56975 -0.140195 0
M  V30 25220 C 2404.32 -1.9539 -1.19814 0
M  V30 25221 C 2405.34 -0.85055 -1.38815 0
M  V30 25222 O 2406.52 -1.12894 -1.38265 0
M  V30 25223 C 2403.62 -2.21862 -2.56185 0
M  V30 25224 C 2402.8 -3.53154 -2.58071 0
M  V30 25225 C 2401.86 -3.68086 -3.7603 0
M  V30 25226 O 2400.88 -4.40412 -3.60591 0
M  V30 25227 N 2402.08 -3.0526 -4.93758 0
M  V30 25228 H 2404.85 -2.86747 -0.871559 0
M  V30 25229 H 2402.41 -1.58508 -0.329692 0
M  V30 25230 H 2404.4 -2.29086 -3.33619 0
M  V30 25231 H 2402.97 -1.36736 -2.81109 0
M  V30 25232 H 2402.19 -3.5731 -1.66504 0
M  V30 25233 H 2403.48 -4.39491 -2.56369 0
M  V30 25234 H 2402.88 -2.46428 -5.09205 0
M  V30 25235 H 2401.44 -3.18036 -5.68943 0
M  V30 25236 N 2404.87 0.409753 -1.5218 0
M  V30 25237 C 2406.28 0.748326 -1.40969 0
M  V30 25238 C 2406.48 1.94842 -0.513691 0
M  V30 25239 O 2405.54 2.52491 0.0207582 0
M  V30 25240 C 2406.85 1.00285 -2.83485 0
M  V30 25241 C 2408.4 1.1056 -2.92823 0
M  V30 25242 C 2408.88 1.39288 -4.36306 0
M  V30 25243 N 2410.37 1.46155 -4.39537 0
M  V30 25244 C 2411.1 1.70009 -5.47617 0
M  V30 25245 N 2410.6 1.91471 -6.65816 0
M  V30 25246 N 2412.39 1.72018 -5.35132 0
M  V30 25247 H 2404.54 -0.380222 -2.08969 0
M  V30 25248 H 2406.81 -0.107822 -0.941848 0
M  V30 25249 H 2406.51 0.193399 -3.51168 0
M  V30 25250 H 2406.39 1.92318 -3.2449 0
M  V30 25251 H 2408.77 1.90564 -2.25321 0
M  V30 25252 H 2408.85 0.163645 -2.55276 0
M  V30 25253 H 2408.5 0.59802 -5.04367 0
M  V30 25254 H 2408.43 2.34735 -4.71389 0
M  V30 25255 H 2410.92 1.31361 -3.54334 0
M  V30 25256 H 2411.23 2.09121 -7.43968 0
M  V30 25257 H 2409.58 1.88737 -6.68882 0
M  V30 25258 H 2412.77 1.54788 -4.41767 0
M  V30 25259 H 2412.94 1.90269 -6.19436 0
M  V30 25260 N 2406.35 1.42792 0.666944 0
M  V30 25261 C 2407.29 1.4713 1.80154 0
M  V30 25262 C 2408.29 0.346228 1.65824 0
M  V30 25263 O 2409.49 0.519602 1.72337 0
M  V30 25264 H 2405.87 0.460966 0.59415 0
M  V30 25265 H 2407.84 2.42695 1.73614 0
M  V30 25266 C 2406.59 1.39818 3.18349 0
M  V30 25267 H 2405.91 2.2569 3.30006 0
M  V30 25268 H 2407.35 1.46915 3.97734 0
M  V30 25269 C 2405.81 0.113969 3.36707 0
M  V30 25270 O 2406.34 -0.830172 3.93028 0
M  V30 25271 N 2404.55 0.0285805 2.90586 0
M  V30 25272 H 2404.09 0.797684 2.44938 0
M  V30 25273 H 2404.05 -0.830009 3.03246 0
M  V30 25274 N 2407.82 -0.904008 1.29095 0
M  V30 25275 C 2409.05 -1.6852 1.19519 0
M  V30 25276 C 2409.46 -1.87576 -0.247347 0
M  V30 25277 O 2408.81 -1.40961 -1.17795 0
M  V30 25278 C 2408.87 -3.09286 1.83254 0
M  V30 25279 C 2408.53 -3.13478 3.32537 0
M  V30 25280 C 2409.53 -2.93946 4.28826 0
M  V30 25281 C 2407.21 -3.35681 3.73662 0
M  V30 25282 C 2409.21 -2.96543 5.64217 0
M  V30 25283 C 2406.89 -3.3791 5.09176 0
M  V30 25284 C 2407.89 -3.18363 6.04263 0
M  V30 25285 O 2407.58 -3.20372 7.37304 0
M  V30 25286 H 2407.31 -0.53325 0.415476 0
M  V30 25287 H 2409.87 -1.13919 1.70914 0
M  V30 25288 H 2408.1 -3.65471 1.26365 0
M  V30 25289 H 2409.79 -3.69473 1.6806 0
M  V30 25290 H 2410.55 -2.76609 3.98387 0
M  V30 25291 H 2406.43 -3.49938 3.00108 0
M  V30 25292 H 2409.97 -2.81205 6.38412 0
M  V30 25293 H 2405.87 -3.54777 5.39262 0
M  V30 25294 H 2406.64 -3.36668 7.46054 0
M  V30 25295 N 2409.3 -1.11501 -1.11379 0
M  V30 25296 C 2410.24 -0.717728 -2.16619 0
M  V30 25297 C 2411.21 0.286385 -1.60058 0
M  V30 25298 O 2412.4 0.182656 -1.87613 0
M  V30 25299 C 2409.52 -0.060786 -3.38645 0
M  V30 25300 C 2408.57 -1.03015 -4.13872 0
M  V30 25301 S 2409.4 -2.55297 -4.70727 0
M  V30 25302 C 2410.56 -1.90905 -5.96076 0
M  V30 25303 H 2410.79 -1.6092 -2.49984 0
M  V30 25304 H 2408.33 -0.933114 -1.23014 0
M  V30 25305 H 2410.28 0.311893 -4.09313 0
M  V30 25306 H 2408.94 0.807648 -3.03539 0
M  V30 25307 H 2408.14 -0.517941 -5.01332 0
M  V30 25308 H 2407.74 -1.34528 -3.48967 0
M  V30 25309 H 2410.03 -1.24589 -6.65946 0
M  V30 25310 H 2410.97 -2.76365 -6.51942 0
M  V30 25311 H 2411.38 -1.36894 -5.4765 0
M  V30 25312 N 2410.78 1.28995 -0.905426 0
M  V30 25313 C 2412.03 1.95614 -0.535073 0
M  V30 25314 C 2412.36 1.71166 0.917374 0
M  V30 25315 O 2411.64 1.02788 1.65121 0
M  V30 25316 C 2411.92 3.50286 -0.83498 0
M  V30 25317 C 2411.77 3.84168 -2.33955 0
M  V30 25318 C 2413.09 4.38895 -0.325395 0
M  V30 25319 H 2410.21 0.710495 -0.195874 0
M  V30 25320 H 2412.85 1.52511 -1.13315 0
M  V30 25321 H 2411 3.8713 -0.325972 0
M  V30 25322 H 2412.67 3.57238 -2.91854 0
M  V30 25323 H 2410.92 3.31508 -2.79795 0
M  V30 25324 H 2411.59 4.92145 -2.49995 0
M  V30 25325 H 2414.06 4.09076 -0.761328 0
M  V30 25326 H 2412.94 5.45991 -0.564391 0
M  V30 25327 H 2413.2 4.35271 0.774067 0
M  V30 25328 N 2412.26 0.668514 1.42719 0
M  V30 25329 C 2413.19 -0.0525728 2.2914 0
M  V30 25330 C 2414.2 -0.771832 1.43341 0
M  V30 25331 O 2415.39 -0.627038 1.67124 0
M  V30 25332 C 2412.49 -1.09799 3.2062 0
M  V30 25333 C 2411.67 -0.453813 4.35039 0
M  V30 25334 C 2410.73 -1.39816 5.07285 0
M  V30 25335 O 2409.75 -0.90088 5.62026 0
M  V30 25336 N 2410.95 -2.73167 5.12211 0
M  V30 25337 H 2413.72 0.68926 2.91666 0
M  V30 25338 H 2411.28 0.512449 1.53576 0
M  V30 25339 H 2413.27 -1.73088 3.65818 0
M  V30 25340 H 2411.84 -1.74162 2.59589 0
M  V30 25341 H 2411.06 0.358465 3.92567 0
M  V30 25342 H 2412.35 -0.00478028 5.088 0
M  V30 25343 H 2411.75 -3.16114 4.69136 0
M  V30 25344 H 2410.3 -3.3172 5.61075 0
M  V30 25345 N 2413.74 -1.52135 0.411426 0
M  V30 25346 C 2414.97 -2.06257 -0.16304 0
M  V30 25347 C 2415.38 -1.28128 -1.38668 0
M  V30 25348 O 2414.74 -0.333753 -1.79422 0
M  V30 25349 C 2414.79 -3.57867 -0.511189 0
M  V30 25350 O 2414.51 -4.33041 0.663857 0
M  V30 25351 C 2416.01 -4.28414 -1.13914 0
M  V30 25352 H 2413.23 -0.67072 -0.0193779 0
M  V30 25353 H 2415.77 -1.96012 0.583041 0
M  V30 25354 H 2413.93 -3.68112 -1.20716 0
M  V30 25355 H 2414.34 -5.23174 0.372693 0
M  V30 25356 H 2415.82 -5.35665 -1.33293 0
M  V30 25357 H 2416.29 -3.85037 -2.11289 0
M  V30 25358 H 2416.9 -4.22545 -0.483299 0
M  V30 25359 N 2415.22 -0.14192 -1.5696 0
M  V30 25360 C 2416.13 0.812866 -2.20067 0
M  V30 25361 C 2417.14 1.27554 -1.18346 0
M  V30 25362 O 2418.32 1.33379 -1.50904 0
M  V30 25363 C 2415.38 2.03647 -2.80586 0
M  V30 25364 C 2414.44 1.62352 -3.97417 0
M  V30 25365 C 2413.68 2.78879 -4.55041 0
M  V30 25366 O 2413.9 3.94952 -4.11545 0
M  V30 25367 O 2412.83 2.54644 -5.45381 0
M  V30 25368 H 2416.66 0.305693 -3.02158 0
M  V30 25369 H 2414.24 0.0848537 -1.49159 0
M  V30 25370 H 2416.13 2.75266 -3.19071 0
M  V30 25371 H 2414.8 2.53327 -2.01512 0
M  V30 25372 H 2413.71 0.877711 -3.63658 0
M  V30 25373 H 2415.04 1.17393 -4.77996 0
M  V30 25374 N 2416.69 1.57047 0.131868 0
M  V30 25375 C 2417.97 1.75114 0.871464 0
M  V30 25376 C 2418.35 0.713984 1.98659 0
M  V30 25377 O 2417.7 -0.264407 2.26965 0
M  V30 25378 C 2417.91 3.19689 1.40001 0
M  V30 25379 C 2419.26 3.81817 1.85745 0
M  V30 25380 O 2420.28 3.23211 1.49709 0
M  V30 25381 O 2419.14 4.84801 2.52251 0
M  V30 25382 H 2416.23 0.716545 0.412907 0
M  V30 25383 H 2418.78 1.69299 0.116612 0
M  V30 25384 H 2417.55 3.86683 0.599336 0
M  V30 25385 H 2417.17 3.2999 2.21794 0
M  V30 25386 N 2418.17 -0.401677 1.52395 0
M  V30 25387 C 2419.1 -1.50909 1.72508 0
M  V30 25388 C 2420.12 -1.51121 0.605494 0
M  V30 25389 O 2421.31 -1.55252 0.880855 0
M  V30 25390 C 2418.41 -2.89788 1.75716 0
M  V30 25391 C 2417.58 -3.13684 3.04829 0
M  V30 25392 C 2416.64 -4.32476 2.99751 0
M  V30 25393 O 2415.66 -4.29395 3.73642 0
M  V30 25394 N 2416.87 -5.37989 2.18056 0
M  V30 25395 H 2419.63 -1.34048 2.68051 0
M  V30 25396 H 2417.19 -0.591058 1.50725 0
M  V30 25397 H 2419.18 -3.67337 1.69841 0
M  V30 25398 H 2417.75 -3.00071 0.876144 0
M  V30 25399 H 2416.97 -2.24113 3.24294 0
M  V30 25400 H 2418.26 -3.26498 3.90227 0
M  V30 25401 H 2417.66 -5.43342 1.57466 0
M  V30 25402 H 2416.22 -6.14252 2.18032 0
M  V30 25403 N 2419.65 -1.43144 -0.659362 0
M  V30 25404 C 2420.88 -1.47649 -1.44511 0
M  V30 25405 C 2421.29 -0.0910428 -1.88981 0
M  V30 25406 O 2420.63 0.907761 -1.59704 0
M  V30 25407 C 2420.69 -2.3546 -2.71659 0
M  V30 25408 C 2420.36 -3.83098 -2.49168 0
M  V30 25409 C 2421.35 -4.74363 -2.12781 0
M  V30 25410 C 2419.04 -4.27524 -2.63683 0
M  V30 25411 C 2421.03 -6.08047 -1.91199 0
M  V30 25412 C 2418.72 -5.61264 -2.41716 0
M  V30 25413 C 2419.72 -6.51342 -2.05529 0
M  V30 25414 O 2419.41 -7.8261 -1.83786 0
M  V30 25415 H 2419.14 -0.503892 -0.450632 0
M  V30 25416 H 2421.69 -1.88486 -0.816215 0
M  V30 25417 H 2419.92 -1.89499 -3.37086 0
M  V30 25418 H 2421.61 -2.3124 -3.33591 0
M  V30 25419 H 2422.38 -4.41321 -2.01149 0
M  V30 25420 H 2418.26 -3.57689 -2.90825 0
M  V30 25421 H 2421.8 -6.78319 -1.62878 0
M  V30 25422 H 2417.7 -5.93875 -2.52949 0
M  V30 25423 H 2418.46 -7.94125 -1.98261 0
M  V30 25424 N 2421.13 0.897149 -1.29572 0
M  V30 25425 C 2422.35 1.68654 -1.20708 0
M  V30 25426 C 2422.78 1.86706 0.22855 0
M  V30 25427 O 2422.14 1.38922 1.16492 0
M  V30 25428 C 2422.18 3.04714 -1.92826 0
M  V30 25429 O 2421.29 3.93094 -1.24704 0
M  V30 25430 H 2420.63 0.515809 -0.418135 0
M  V30 25431 H 2423.16 1.12057 -1.71185 0
M  V30 25432 H 2423.17 3.54839 -2.01378 0
M  V30 25433 H 2421.84 2.90894 -2.97244 0
M  V30 25434 H 2420.42 3.51529 -1.24426 0
M  V30 25435 N 2422.61 1.1209 1.10786 0
M  V30 25436 C 2423.85 0.873963 1.82669 0
M  V30 25437 C 2424.18 -0.600279 1.85005 0
M  V30 25438 O 2423.44 -1.45955 1.30367 0
M  V30 25439 C 2423.73 1.38932 3.29291 0
M  V30 25440 C 2423.4 2.87797 3.47108 0
M  V30 25441 C 2422.06 3.28445 3.51678 0
M  V30 25442 C 2424.41 3.83641 3.52801 0
M  V30 25443 C 2421.74 4.63652 3.59505 0
M  V30 25444 C 2424.09 5.18674 3.6216 0
M  V30 25445 C 2422.76 5.5887 3.64993 0
M  V30 25446 H 2422.03 0.319806 0.668435 0
M  V30 25447 H 2424.68 1.40047 1.3061 0
M  V30 25448 H 2422.98 0.78319 3.83892 0
M  V30 25449 H 2424.68 1.1745 3.83414 0
M  V30 25450 H 2421.27 2.55356 3.44225 0
M  V30 25451 H 2425.45 3.53334 3.48524 0
M  V30 25452 H 2420.71 4.94192 3.59978 0
M  V30 25453 H 2424.88 5.9277 3.65509 0
M  V30 25454 H 2422.51 6.63629 3.70811 0
M  V30 25455 N 2424.08 -1.28513 0.912254 0
M  V30 25456 C 2425.33 -1.94322 0.540538 0
M  V30 25457 C 2425.65 -1.72613 -0.920014 0
M  V30 25458 O 2426.85 -2.32631 -1.39982 0
M  V30 25459 C 2425.31 -3.48052 0.915865 0
M  V30 25460 C 2424.92 -3.78542 2.39604 0
M  V30 25461 C 2426.66 -4.20026 0.614662 0
M  V30 25462 C 2424.57 -5.25574 2.71157 0
M  V30 25463 H 2423.5 -0.727421 0.198431 0
M  V30 25464 H 2426.15 -1.46047 1.11097 0
M  V30 25465 H 2424.53 -3.95049 0.274238 0
M  V30 25466 H 2425.7 -3.42358 3.08428 0
M  V30 25467 H 2424.02 -3.19736 2.66755 0
M  V30 25468 H 2426.62 -5.28264 0.827094 0
M  V30 25469 H 2426.96 -4.13888 -0.447458 0
M  V30 25470 H 2427.49 -3.78801 1.21469 0
M  V30 25471 H 2424.23 -5.36788 3.76217 0
M  V30 25472 H 2423.75 -5.6296 2.0697 0
M  V30 25473 H 2425.43 -5.93298 2.58083 0
M  V30 25474 N 2425.56 -0.676073 -1.42362 0
M  V30 25475 C 2426.51 0.0242502 -2.27987 0
M  V30 25476 C 2427.5 0.772294 -1.41154 0
M  V30 25477 O 2428.69 0.650996 -1.64594 0
M  V30 25478 C 2425.82 0.973895 -3.29196 0
M  V30 25479 C 2424.9 0.223127 -4.23513 0
M  V30 25480 N 2425.29 -0.772677 -4.99863 0
M  V30 25481 C 2423.59 0.461391 -4.43607 0
M  V30 25482 C 2424.29 -1.22037 -5.68755 0
M  V30 25483 N 2423.27 -0.55007 -5.4081 0
M  V30 25484 H 2427.07 -0.73954 -2.84443 0
M  V30 25485 H 2424.59 -0.505247 -1.54341 0
M  V30 25486 H 2426.58 1.4906 -3.89341 0
M  V30 25487 H 2425.24 1.7375 -2.74301 0
M  V30 25488 H 2426.25 -1.15226 -5.04919 0
M  V30 25489 H 2422.93 1.20439 -3.99751 0
M  V30 25490 H 2424.32 -2.04562 -6.40003 0
M  V30 25491 N 2427.04 1.51915 -0.419488 0
M  V30 25492 C 2427.95 2.31034 0.407487 0
M  V30 25493 C 2428.97 1.39192 1.04411 0
M  V30 25494 O 2430.14 1.72266 1.04337 0
M  V30 25495 C 2427.21 3.12399 1.50359 0
M  V30 25496 C 2426.27 4.19995 0.888955 0
M  V30 25497 C 2425.5 4.97471 1.93283 0
M  V30 25498 O 2425.72 4.75367 3.1525 0
M  V30 25499 O 2424.66 5.82043 1.53329 0
M  V30 25500 H 2428.48 3.02767 -0.237918 0
M  V30 25501 H 2426.07 1.48282 -0.182439 0
M  V30 25502 H 2427.95 3.63036 2.13969 0
M  V30 25503 H 2426.63 2.43449 2.13341 0
M  V30 25504 H 2425.53 3.7348 0.215287 0
M  V30 25505 H 2426.87 4.91267 0.302905 0
M  V30 25506 N 2428.52 0.150242 1.56882 0
M  V30 25507 C 2429.48 -0.774119 2.15731 0
M  V30 25508 C 2430.48 -1.17296 1.09992 0
M  V30 25509 O 2431.67 -1.09336 1.35615 0
M  V30 25510 C 2428.8 -2.05091 2.72306 0
M  V30 25511 H 2430 -0.262148 2.98752 0
M  V30 25512 H 2427.55 -0.0992206 1.55985 0
M  V30 25513 H 2428.28 -2.60647 1.9296 0
M  V30 25514 H 2428.07 -1.7741 3.49668 0
M  V30 25515 H 2429.56 -2.71103 3.17636 0
M  V30 25516 N 2430 -1.57115 -0.123538 0
M  V30 25517 C 2430.93 -2.03044 -1.15305 0
M  V30 25518 C 2431.91 -0.914086 -1.43452 0
M  V30 25519 O 2433.09 -1.18349 -1.53971 0
M  V30 25520 C 2430.22 -2.43093 -2.48038 0
M  V30 25521 C 2429.18 -3.58131 -2.34363 0
M  V30 25522 C 2428.5 -3.84065 -3.72019 0
M  V30 25523 C 2429.8 -4.9001 -1.80796 0
M  V30 25524 H 2431.5 -2.89301 -0.771051 0
M  V30 25525 H 2429.04 -1.3918 -0.369455 0
M  V30 25526 H 2431 -2.73828 -3.20306 0
M  V30 25527 H 2429.72 -1.53801 -2.88119 0
M  V30 25528 H 2428.38 -3.27598 -1.64545 0
M  V30 25529 H 2428.03 -2.91986 -4.09577 0
M  V30 25530 H 2427.73 -4.61496 -3.63724 0
M  V30 25531 H 2429.25 -4.17248 -4.45799 0
M  V30 25532 H 2430.66 -5.19311 -2.42877 0
M  V30 25533 H 2429.06 -5.7141 -1.83333 0
M  V30 25534 H 2430.13 -4.78824 -0.765196 0
M  V30 25535 N 2431.47 0.393589 -1.52606 0
M  V30 25536 C 2432.4 1.48705 -1.80025 0
M  V30 25537 C 2433.39 1.57107 -0.652023 0
M  V30 25538 O 2434.57 1.7213 -0.899161 0
M  V30 25539 C 2431.7 2.86367 -1.96497 0
M  V30 25540 C 2430.65 2.92808 -3.12166 0
M  V30 25541 C 2429.98 4.32874 -3.13885 0
M  V30 25542 C 2431.28 2.62872 -4.51326 0
M  V30 25543 H 2432.97 1.2601 -2.71591 0
M  V30 25544 H 2430.52 0.604755 -1.30686 0
M  V30 25545 H 2432.47 3.62864 -2.14261 0
M  V30 25546 H 2431.2 3.1039 -1.01616 0
M  V30 25547 H 2429.86 2.18759 -2.94177 0
M  V30 25548 H 2429.5 4.5393 -2.16695 0
M  V30 25549 H 2429.2 4.38105 -3.91583 0
M  V30 25550 H 2430.73 5.11284 -3.33798 0
M  V30 25551 H 2432.14 3.29088 -4.6944 0
M  V30 25552 H 2430.54 2.79459 -5.31058 0
M  V30 25553 H 2431.61 1.58234 -4.58356 0
M  V30 25554 N 2432.95 1.43492 0.651762 0
M  V30 25555 C 2433.86 1.51213 1.79365 0
M  V30 25556 C 2434.88 0.399123 1.69361 0
M  V30 25557 O 2436.05 0.653464 1.90504 0
M  V30 25558 C 2433.12 1.43407 3.15651 0
M  V30 25559 C 2432.18 2.6539 3.37441 0
M  V30 25560 C 2431.41 2.57947 4.67225 0
M  V30 25561 O 2431.64 1.62802 5.46673 0
M  V30 25562 O 2430.57 3.48471 4.90767 0
M  V30 25563 H 2434.4 2.47641 1.75806 0
M  V30 25564 H 2431.98 1.25509 0.810425 0
M  V30 25565 H 2433.86 1.41501 3.96932 0
M  V30 25566 H 2432.54 0.501141 3.19797 0
M  V30 25567 H 2431.45 2.72868 2.55918 0
M  V30 25568 H 2432.78 3.5766 3.38142 0
M  V30 25569 N 2434.43 -0.890264 1.30046 0
M  V30 25570 C 2435.39 -1.97698 1.15967 0
M  V30 25571 C 2436.39 -1.60534 0.0924059 0
M  V30 25572 O 2437.58 -1.70848 0.340101 0
M  V30 25573 C 2434.72 -3.31962 0.775509 0
M  V30 25574 H 2435.91 -2.11616 2.12506 0
M  V30 25575 H 2433.46 -1.07599 1.13367 0
M  V30 25576 H 2434.2 -3.23745 -0.189614 0
M  V30 25577 H 2433.98 -3.60303 1.54674 0
M  V30 25578 H 2435.47 -4.11686 0.700323 0
M  V30 25579 N 2435.91 -1.12676 -1.1019 0
M  V30 25580 C 2437.15 -0.884947 -1.82473 0
M  V30 25581 C 2437.49 0.587698 -1.85094 0
M  V30 25582 O 2436.76 1.43455 -1.31343 0
M  V30 25583 C 2437.05 -1.46359 -3.29015 0
M  V30 25584 C 2436.9 -3.00479 -3.34713 0
M  V30 25585 C 2438.22 -1.12526 -4.25471 0
M  V30 25586 H 2435.34 -0.322926 -0.662486 0
M  V30 25587 H 2437.98 -1.39378 -1.29127 0
M  V30 25588 H 2436.13 -1.03084 -3.74574 0
M  V30 25589 H 2437.8 -3.52452 -2.97616 0
M  V30 25590 H 2436.04 -3.35877 -2.74535 0
M  V30 25591 H 2436.71 -3.36061 -4.37912 0
M  V30 25592 H 2439.19 -1.49907 -3.88159 0
M  V30 25593 H 2438.07 -1.55672 -5.26362 0
M  V30 25594 H 2438.33 -0.0378184 -4.42084 0
M  V30 25595 N 2437.39 1.28028 -0.919057 0
M  V30 25596 C 2438.63 1.94362 -0.553872 0
M  V30 25597 C 2438.96 1.72658 0.906326 0
M  V30 25598 O 2438.23 1.06933 1.64141 0
M  V30 25599 H 2436.81 0.719213 -0.201847 0
M  V30 25600 H 2439.47 1.55907 -1.16957 0
M  V30 25601 H 2438.56 3.02885 -0.752811 0
M  V30 25602 N 2438.86 0.683613 1.42002 0
M  V30 25603 C 2440.1 0.213549 2.03281 0
M  V30 25604 C 2440.47 -1.16094 1.52926 0
M  V30 25605 O 2441.67 -1.72617 2.06051 0
M  V30 25606 C 2439.94 0.255919 3.56483 0
M  V30 25607 S 2441.5 -0.141852 4.38571 0
M  V30 25608 H 2438.32 0.0869977 0.705657 0
M  V30 25609 H 2440.92 0.89873 1.73618 0
M  V30 25610 H 2439.62 1.25847 3.90628 0
M  V30 25611 H 2439.15 -0.448807 3.90832 0
M  V30 25612 H 2441.17 -1.37286 4.7683 0
M  V30 25613 N 2440.34 -1.5169 0.427538 0
M  V30 25614 C 2441.59 -2.01601 -0.141912 0
M  V30 25615 C 2441.91 -1.31417 -1.44065 0
M  V30 25616 O 2441.18 -0.445692 -1.90763 0
M  V30 25617 H 2439.76 -0.74494 -0.0554337 0
M  V30 25618 H 2442.42 -1.8644 0.568001 0
M  V30 25619 H 2441.52 -3.10405 -0.324858 0
M  V30 25620 N 2441.82 -0.15856 -1.568 0
M  V30 25621 C 2442.77 0.79369 -2.1864 0
M  V30 25622 C 2443.76 1.24687 -1.14671 0
M  V30 25623 O 2444.97 1.21401 -1.32898 0
M  V30 25624 H 2441.34 0.274191 -0.700231 0
M  V30 25625 H 2443.32 0.248043 -2.97367 0
M  V30 25626 C 2442.06 2.01805 -2.83143 0
M  V30 25627 H 2441.39 1.67834 -3.62866 0
M  V30 25628 H 2442.83 2.66351 -3.29899 0
M  V30 25629 C 2441.29 2.8335 -1.82249 0
M  V30 25630 O 2441.82 3.8008 -1.30007 0
M  V30 25631 N 2440.02 2.48111 -1.51292 0
M  V30 25632 H 2439.57 1.69513 -1.93967 0
M  V30 25633 H 2439.53 3.02961 -0.840349 0
M  V30 25634 N 2443.3 1.57178 0.115204 0
M  V30 25635 C 2444.53 1.8924 0.836403 0
M  V30 25636 C 2444.94 0.750206 1.73255 0
M  V30 25637 O 2444.3 -0.2788 1.80358 0
M  V30 25638 C 2444.35 3.20788 1.66665 0
M  V30 25639 O 2444.07 4.30611 0.806576 0
M  V30 25640 C 2445.57 3.6658 2.49267 0
M  V30 25641 H 2442.79 0.626518 0.240242 0
M  V30 25642 H 2445.34 2.04263 0.0984573 0
M  V30 25643 H 2443.49 3.07424 2.35731 0
M  V30 25644 H 2443.91 5.06031 1.37961 0
M  V30 25645 H 2445.38 4.61375 3.03046 0
M  V30 25646 H 2445.86 2.93423 3.26802 0
M  V30 25647 H 2446.46 3.82745 1.85436 0
M  V30 25648 N 2444.78 -0.38549 1.52813 0
M  V30 25649 C 2445.69 -1.49532 1.80769 0
M  V30 25650 C 2446.7 -1.59531 0.694679 0
M  V30 25651 O 2447.88 -1.75801 0.982642 0
M  V30 25652 C 2444.94 -2.85026 1.97386 0
M  V30 25653 C 2444.01 -2.84719 3.213 0
M  V30 25654 C 2443.24 -4.1375 3.37115 0
M  V30 25655 O 2443.46 -5.08889 2.57659 0
M  V30 25656 O 2442.4 -4.20775 4.30386 0
M  V30 25657 H 2446.22 -1.28838 2.75017 0
M  V30 25658 H 2443.81 -0.573673 1.37947 0
M  V30 25659 H 2445.69 -3.65345 2.10003 0
M  V30 25660 H 2444.36 -3.05739 1.06327 0
M  V30 25661 H 2443.27 -2.03168 3.14123 0
M  V30 25662 H 2444.6 -2.68958 4.12217 0
M  V30 25663 N 2446.26 -1.43835 -0.644143 0
M  V30 25664 C 2447.5 -1.46149 -1.406 0
M  V30 25665 C 2447.83 -0.0888058 -1.93997 0
M  V30 25666 O 2447.11 0.891693 -1.72856 0
M  V30 25667 C 2447.39 -2.51129 -2.58082 0
M  V30 25668 C 2447.25 -3.97706 -2.10119 0
M  V30 25669 C 2448.56 -2.52748 -3.60287 0
M  V30 25670 H 2445.68 -0.532143 -0.509895 0
M  V30 25671 H 2448.33 -1.75439 -0.729472 0
M  V30 25672 H 2446.48 -2.26284 -3.15797 0
M  V30 25673 H 2448.15 -4.3364 -1.57334 0
M  V30 25674 H 2446.39 -4.10104 -1.41411 0
M  V30 25675 H 2447.06 -4.66788 -2.9464 0
M  V30 25676 H 2449.54 -2.74915 -3.12347 0
M  V30 25677 H 2448.41 -3.28128 -4.40026 0
M  V30 25678 H 2448.67 -1.56462 -4.13488 0
M  V30 25679 N 2447.73 0.883355 -1.30517 0
M  V30 25680 C 2449.14 1.45079 -1.17512 0
M  V30 25681 C 2449.5 1.94922 0.223571 0
M  V30 25682 O 2448.62 1.85139 1.12037 0
M  V30 25683 C 2449.22 2.63697 -2.12719 0
M  V30 25684 C 2447.77 3.16525 -2.03688 0
M  V30 25685 C 2446.92 1.8922 -2.02709 0
M  V30 25686 H 2449.87 0.69314 -1.42763 0
M  V30 25687 H 2449.89 3.39962 -1.70897 0
M  V30 25688 H 2449.41 2.27389 -3.14509 0
M  V30 25689 H 2447.51 3.57486 -1.05046 0
M  V30 25690 H 2447.62 3.79715 -2.92153 0
M  V30 25691 H 2445.98 2.0762 -1.47534 0
M  V30 25692 H 2446.77 1.55168 -3.06231 0
M  V30 25693 N 2449.21 1.13259 1.09591 0
M  V30 25694 C 2450.17 0.811396 2.14357 0
M  V30 25695 C 2451.17 -0.178349 1.59808 0
M  V30 25696 O 2452.36 0.0485217 1.74132 0
M  V30 25697 C 2449.5 0.207336 3.40269 0
M  V30 25698 H 2450.69 1.73973 2.44281 0
M  V30 25699 H 2448.24 0.936995 1.251 0
M  V30 25700 H 2448.98 -0.730305 3.1597 0
M  V30 25701 H 2448.76 0.920059 3.81153 0
M  V30 25702 H 2450.25 -0.00059454 4.176 0
M  V30 25703 N 2450.69 -1.27539 0.925834 0
M  V30 25704 C 2452.11 -1.4682 0.625793 0
M  V30 25705 C 2452.31 -1.83816 -0.825474 0
M  V30 25706 O 2451.36 -1.95047 -1.60353 0
M  V30 25707 C 2452.67 -2.5621 1.57406 0
M  V30 25708 C 2454.22 -2.70072 1.58209 0
M  V30 25709 C 2454.7 -3.82619 2.51728 0
M  V30 25710 N 2456.19 -3.8999 2.49924 0
M  V30 25711 C 2456.92 -4.76489 3.18976 0
M  V30 25712 N 2456.42 -5.67489 3.97401 0
M  V30 25713 N 2458.21 -4.70202 3.08004 0
M  V30 25714 H 2450.36 -1.01808 1.86411 0
M  V30 25715 H 2452.63 -0.50828 0.800222 0
M  V30 25716 H 2452.33 -2.35815 2.6093 0
M  V30 25717 H 2452.21 -3.5356 1.31434 0
M  V30 25718 H 2454.59 -2.8985 0.554175 0
M  V30 25719 H 2454.67 -1.73215 1.88229 0
M  V30 25720 H 2454.32 -3.63595 3.54628 0
M  V30 25721 H 2454.25 -4.78899 2.19004 0
M  V30 25722 H 2456.74 -3.24919 1.92966 0
M  V30 25723 H 2457.05 -6.30348 4.47081 0
M  V30 25724 H 2455.4 -5.67291 4.01505 0
M  V30 25725 H 2458.59 -3.98106 2.4623 0
M  V30 25726 H 2458.76 -5.37397 3.62089 0
M  V30 25727 N 2452.17 -0.691135 -1.41637 0
M  V30 25728 C 2453.39 -0.227619 -2.06147 0
M  V30 25729 C 2453.82 1.11278 -1.51654 0
M  V30 25730 O 2453.18 1.69565 -0.64167 0
M  V30 25731 C 2453.22 -0.190922 -3.60094 0
M  V30 25732 O 2452.33 0.835593 -4.03846 0
M  V30 25733 H 2451.67 -0.112318 -0.654432 0
M  V30 25734 H 2454.2 -0.944746 -1.81482 0
M  V30 25735 H 2454.21 -0.0202787 -4.07995 0
M  V30 25736 H 2452.88 -1.16922 -3.99127 0
M  V30 25737 H 2451.46 0.634665 -3.67459 0
M  V30 25738 N 2453.65 1.51461 -0.435577 0
M  V30 25739 C 2454.58 2.30592 0.367336 0
M  V30 25740 C 2455.56 1.3593 1.0226 0
M  V30 25741 O 2456.74 1.64848 1.02658 0
M  V30 25742 C 2453.87 3.14667 1.46977 0
M  V30 25743 C 2452.83 4.17593 0.938088 0
M  V30 25744 C 2452.15 4.90177 2.13614 0
M  V30 25745 C 2453.45 5.22293 -0.0262539 0
M  V30 25746 H 2455.15 2.97963 -0.293022 0
M  V30 25747 H 2452.69 1.43295 -0.142365 0
M  V30 25748 H 2454.64 3.68804 2.03867 0
M  V30 25749 H 2453.37 2.45114 2.15839 0
M  V30 25750 H 2452.03 3.64504 0.391417 0
M  V30 25751 H 2451.68 4.17129 2.81091 0
M  V30 25752 H 2451.38 5.59775 1.78678 0
M  V30 25753 H 2452.9 5.47137 2.7106 0
M  V30 25754 H 2454.31 5.71513 0.452284 0
M  V30 25755 H 2452.71 5.99408 -0.288097 0
M  V30 25756 H 2453.78 4.75232 -0.963474 0
M  V30 25757 N 2455.12 0.166873 1.56714 0
M  V30 25758 C 2456.35 -0.484905 2.00829 0
M  V30 25759 C 2456.76 -1.57646 1.04615 0
M  V30 25760 O 2456.11 -1.8366 0.0383524 0
M  V30 25761 C 2456.17 -1.12717 3.41372 0
M  V30 25762 C 2455.83 -0.177806 4.56654 0
M  V30 25763 C 2456.83 0.602161 5.16401 0
M  V30 25764 C 2454.51 -0.0749256 5.02244 0
M  V30 25765 C 2456.51 1.47225 6.20164 0
M  V30 25766 C 2454.19 0.798756 6.05857 0
M  V30 25767 C 2455.19 1.57093 6.64688 0
M  V30 25768 O 2454.88 2.43002 7.66293 0
M  V30 25769 H 2454.61 -0.128941 0.663589 0
M  V30 25770 H 2457.17 0.264401 2.03691 0
M  V30 25771 H 2455.4 -1.92451 3.35409 0
M  V30 25772 H 2457.09 -1.6807 3.69469 0
M  V30 25773 H 2457.85 0.532825 4.82064 0
M  V30 25774 H 2453.73 -0.665732 4.56168 0
M  V30 25775 H 2457.27 2.07543 6.66012 0
M  V30 25776 H 2453.17 0.869311 6.3962 0
M  V30 25777 H 2453.94 2.36469 7.83597 0
M  V30 25778 N 2456.6 -1.57237 -0.106866 0
M  V30 25779 C 2457.57 -2.00272 -1.11462 0
M  V30 25780 C 2458.57 -0.894542 -1.33621 0
M  V30 25781 O 2459.76 -1.1603 -1.29933 0
M  V30 25782 C 2456.89 -2.35331 -2.46642 0
M  V30 25783 H 2458.08 -2.90513 -0.744465 0
M  V30 25784 H 2455.63 -1.52295 -0.35155 0
M  V30 25785 H 2456.37 -1.48008 -2.88555 0
M  V30 25786 H 2456.15 -3.16165 -2.31909 0
M  V30 25787 H 2457.64 -2.69324 -3.19146 0
M  V30 25788 N 2458.08 0.377381 -1.53015 0
M  V30 25789 C 2459.31 1.14051 -1.72267 0
M  V30 25790 C 2459.72 1.83867 -0.446042 0
M  V30 25791 O 2459.06 1.73965 0.590065 0
M  V30 25792 C 2459.12 2.22343 -2.82496 0
M  V30 25793 C 2458.79 1.72394 -4.23237 0
M  V30 25794 C 2459.78 1.19439 -5.05994 0
M  V30 25795 C 2457.47 1.78265 -4.69603 0
M  V30 25796 C 2459.46 0.730157 -6.33204 0
M  V30 25797 C 2457.15 1.31454 -5.96794 0
M  V30 25798 C 2458.15 0.789177 -6.78425 0
M  V30 25799 O 2457.84 0.327936 -8.03231 0
M  V30 25800 H 2457.57 0.347443 -0.579879 0
M  V30 25801 H 2460.12 0.445847 -2.00503 0
M  V30 25802 H 2458.35 2.95268 -2.49708 0
M  V30 25803 H 2460.04 2.83958 -2.90039 0
M  V30 25804 H 2460.81 1.14251 -4.71351 0
M  V30 25805 H 2456.69 2.18098 -4.06145 0
M  V30 25806 H 2460.23 0.31942 -6.96868 0
M  V30 25807 H 2456.13 1.36331 -6.30939 0
M  V30 25808 H 2456.9 0.44835 -8.17271 0
M  V30 25809 N 2459.56 1.44175 0.636506 0
M  V30 25810 C 2460.81 1.45956 1.39211 0
M  V30 25811 C 2461.12 0.0939462 1.95374 0
M  V30 25812 O 2462.33 -0.010729 2.71498 0
M  V30 25813 C 2460.78 2.56932 2.5202 0
M  V30 25814 C 2460.39 3.99676 2.02393 0
M  V30 25815 C 2462.13 2.67928 3.29264 0
M  V30 25816 C 2460.04 5.02086 3.12512 0
M  V30 25817 H 2458.97 0.543009 0.523123 0
M  V30 25818 H 2461.62 1.70222 0.685319 0
M  V30 25819 H 2460 2.25896 3.25249 0
M  V30 25820 H 2461.18 4.40253 1.36065 0
M  V30 25821 H 2459.49 3.92875 1.3798 0
M  V30 25822 H 2462.09 3.41612 4.11346 0
M  V30 25823 H 2462.43 1.73562 3.78394 0
M  V30 25824 H 2462.97 2.98346 2.63124 0
M  V30 25825 H 2459.71 5.98062 2.68333 0
M  V30 25826 H 2459.23 4.66106 3.77499 0
M  V30 25827 H 2460.9 5.25544 3.77375 0
M  V30 25828 N 2461.04 -0.876421 1.30983 0
M  V30 25829 C 2461.97 -1.98892 1.13906 0
M  V30 25830 C 2462.98 -1.62604 0.0799101 0
M  V30 25831 O 2464.17 -1.75483 0.326773 0
M  V30 25832 C 2461.27 -3.31234 0.716757 0
M  V30 25833 C 2460.44 -3.95905 1.85951 0
M  V30 25834 C 2459.5 -5.06556 1.42434 0
M  V30 25835 O 2458.53 -5.27725 2.13296 0
M  V30 25836 N 2459.73 -5.79682 0.308127 0
M  V30 25837 H 2462.5 -2.1409 2.09727 0
M  V30 25838 H 2460.06 -1.05002 1.23232 0
M  V30 25839 H 2462.05 -4.02633 0.408473 0
M  V30 25840 H 2460.62 -3.12242 -0.149664 0
M  V30 25841 H 2459.84 -3.17569 2.33546 0
M  V30 25842 H 2461.13 -4.35851 2.6251 0
M  V30 25843 H 2460.52 -5.64996 -0.282141 0
M  V30 25844 H 2459.08 -6.51773 0.0593428 0
M  V30 25845 N 2462.51 -1.13839 -1.08989 0
M  V30 25846 C 2463.46 -0.819873 -2.15747 0
M  V30 25847 C 2464.43 0.219997 -1.64637 0
M  V30 25848 O 2465.62 0.0912422 -1.90582 0
M  V30 25849 C 2462.76 -0.296973 -3.4382 0
M  V30 25850 C 2461.87 -1.39644 -4.08808 0
M  V30 25851 C 2461 -0.831406 -5.24653 0
M  V30 25852 C 2460.04 -1.90896 -5.81571 0
M  V30 25853 N 2459.18 -1.36154 -6.88772 0
M  V30 25854 H 2464.02 -1.7343 -2.42335 0
M  V30 25855 H 2461.56 -0.865634 -1.18934 0
M  V30 25856 H 2463.52 0.0243606 -4.17193 0
M  V30 25857 H 2462.15 0.580572 -3.17536 0
M  V30 25858 H 2461.2 -1.83428 -3.33254 0
M  V30 25859 H 2462.51 -2.21066 -4.47137 0
M  V30 25860 H 2461.66 -0.461622 -6.04941 0
M  V30 25861 H 2460.4 0.0138463 -4.87698 0
M  V30 25862 H 2459.41 -2.28776 -4.99942 0
M  V30 25863 H 2460.63 -2.75769 -6.20587 0
M  V30 25864 H 2458.58 -0.538369 -6.53787 0
M  V30 25865 H 2458.5 -2.1122 -7.25894 0
M  V30 25866 H 2459.76 -1.01947 -7.72805 0
M  V30 25867 N 2463.99 1.27046 -0.932584 0
M  V30 25868 C 2464.92 2.29065 -0.452942 0
M  V30 25869 C 2465.9 1.6291 0.48931 0
M  V30 25870 O 2467.09 1.90182 0.393013 0
M  V30 25871 C 2464.22 3.46082 0.290637 0
M  V30 25872 C 2463.17 4.24264 -0.564242 0
M  V30 25873 C 2462.5 5.33808 0.308793 0
M  V30 25874 C 2463.8 4.89146 -1.83121 0
M  V30 25875 H 2465.49 2.69435 -1.30557 0
M  V30 25876 H 2463.04 1.29525 -0.629224 0
M  V30 25877 H 2464.99 4.16555 0.63716 0
M  V30 25878 H 2463.72 3.04642 1.17733 0
M  V30 25879 H 2462.37 3.55544 -0.89354 0
M  V30 25880 H 2462.02 4.88609 1.19458 0
M  V30 25881 H 2461.72 5.87026 -0.259736 0
M  V30 25882 H 2463.25 6.07122 0.650777 0
M  V30 25883 H 2464.66 5.5188 -1.55246 0
M  V30 25884 H 2463.06 5.52444 -2.34363 0
M  V30 25885 H 2464.13 4.12572 -2.5478 0
M  V30 25886 N 2465.47 0.698636 1.41269 0
M  V30 25887 C 2466.43 0.0441722 2.29157 0
M  V30 25888 C 2467.43 -0.704815 1.4453 0
M  V30 25889 O 2468.62 -0.539247 1.65643 0
M  V30 25890 C 2465.76 -0.947751 3.27461 0
M  V30 25891 H 2466.95 0.818044 2.88527 0
M  V30 25892 H 2464.5 0.462307 1.49306 0
M  V30 25893 H 2465.24 -1.74928 2.73076 0
M  V30 25894 H 2465.02 -0.413782 3.89911 0
M  V30 25895 H 2466.51 -1.40337 3.93313 0
M  V30 25896 N 2466.95 -1.51228 0.443603 0
M  V30 25897 C 2467.88 -2.25673 -0.400568 0
M  V30 25898 C 2468.89 -1.2993 -0.980922 0
M  V30 25899 O 2470.08 -1.55639 -0.873997 0
M  V30 25900 C 2467.18 -3.00184 -1.57299 0
M  V30 25901 C 2466.36 -4.23071 -1.11039 0
M  V30 25902 C 2465.41 -4.80108 -2.15366 0
M  V30 25903 O 2464.44 -5.41778 -1.74544 0
M  V30 25904 N 2465.64 -4.64689 -3.47914 0
M  V30 25905 H 2468.41 -2.98757 0.237502 0
M  V30 25906 H 2465.97 -1.59584 0.272837 0
M  V30 25907 H 2467.96 -3.35227 -2.26727 0
M  V30 25908 H 2466.53 -2.3007 -2.11628 0
M  V30 25909 H 2465.75 -3.93451 -0.24295 0
M  V30 25910 H 2467.04 -5.02804 -0.7788 0
M  V30 25911 H 2466.44 -4.15582 -3.83807 0
M  V30 25912 H 2464.99 -5.04077 -4.13219 0
M  V30 25913 N 2468.43 -0.175182 -1.56623 0
M  V30 25914 C 2469.67 0.469471 -1.97291 0
M  V30 25915 C 2470.01 1.62634 -1.06131 0
M  V30 25916 O 2469.28 1.94193 -0.109218 0
M  V30 25917 C 2469.56 0.948742 -3.47377 0
M  V30 25918 C 2469.42 -0.20857 -4.49316 0
M  V30 25919 C 2470.74 1.82109 -4.00655 0
M  V30 25920 H 2467.85 0.169177 -0.71732 0
M  V30 25921 H 2470.5 -0.262095 -1.88184 0
M  V30 25922 H 2468.65 1.57213 -3.55269 0
M  V30 25923 H 2470.32 -0.845762 -4.5348 0
M  V30 25924 H 2468.56 -0.863469 -4.2512 0
M  V30 25925 H 2469.23 0.168962 -5.51741 0
M  V30 25926 H 2471.71 1.29553 -3.95418 0
M  V30 25927 H 2470.58 2.12545 -5.06079 0
M  V30 25928 H 2470.85 2.76824 -3.44704 0
M  V30 25929 N 2469.91 1.57292 0.0985263 0
M  V30 25930 C 2470.82 2.05139 1.13821 0
M  V30 25931 C 2471.83 0.975629 1.44075 0
M  V30 25932 O 2473.01 1.28856 1.54784 0
M  V30 25933 C 2470.07 2.46338 2.43964 0
M  V30 25934 C 2469.13 3.68091 2.20924 0
M  V30 25935 C 2468.37 4.07316 3.44862 0
M  V30 25936 O 2468.59 3.46667 4.52966 0
M  V30 25937 O 2467.52 5.00291 3.34652 0
M  V30 25938 H 2471.35 2.9399 0.761829 0
M  V30 25939 H 2468.93 1.46132 0.310792 0
M  V30 25940 H 2470.82 2.73479 3.20605 0
M  V30 25941 H 2469.49 1.60626 2.81035 0
M  V30 25942 H 2468.4 3.46071 1.42075 0
M  V30 25943 H 2469.73 4.54572 1.88747 0
M  V30 25944 N 2471.38 -0.369261 1.53213 0
M  V30 25945 C 2472.79 -0.946248 1.60944 0
M  V30 25946 C 2473.15 -1.90374 0.474554 0
M  V30 25947 O 2472.27 -2.12679 -0.399559 0
M  V30 25948 C 2472.87 -1.72297 2.91718 0
M  V30 25949 C 2471.42 -2.24936 3.01796 0
M  V30 25950 C 2470.57 -1.06067 2.56213 0
M  V30 25951 H 2473.52 -0.14817 1.58007 0
M  V30 25952 H 2473.54 -2.58388 2.79313 0
M  V30 25953 H 2473.06 -1.02583 3.74297 0
M  V30 25954 H 2471.16 -2.97902 2.23797 0
M  V30 25955 H 2471.27 -2.53069 4.06808 0
M  V30 25956 H 2469.63 -1.42656 2.11001 0
M  V30 25957 H 2470.42 -0.378579 3.41206 0
M  V30 25958 N 2472.86 -1.4451 -0.628851 0
M  V30 25959 C 2474.11 -1.47122 -1.38562 0
M  V30 25960 C 2474.43 -0.105933 -1.94712 0
M  V30 25961 O 2473.7 0.862048 -1.75913 0
M  V30 25962 H 2472.28 -0.541738 -0.514324 0
M  V30 25963 H 2474.94 -1.80306 -0.739986 0
M  V30 25964 H 2474.04 -2.19793 -2.21579 0
M  V30 25965 N 2474.34 0.869463 -1.31446 0
M  V30 25966 C 2475.25 2.00927 -1.211 0
M  V30 25967 C 2476.27 1.73531 -0.127615 0
M  V30 25968 O 2477.44 1.98414 -0.345512 0
M  V30 25969 C 2474.51 3.34286 -0.919437 0
M  V30 25970 C 2473.57 3.75002 -2.08978 0
M  V30 25971 C 2472.8 5.01997 -1.81202 0
M  V30 25972 O 2473.02 5.65482 -0.747395 0
M  V30 25973 O 2471.96 5.39492 -2.66893 0
M  V30 25974 H 2475.78 2.12588 -2.16887 0
M  V30 25975 H 2473.37 0.997848 -1.11191 0
M  V30 25976 H 2475.25 4.14255 -0.772698 0
M  V30 25977 H 2473.93 3.23699 0.00839082 0
M  V30 25978 H 2472.83 2.95672 -2.29192 0
M  V30 25979 H 2474.17 3.90216 -2.99987 0
M  V30 25980 N 2475.82 1.14415 1.08383 0
M  V30 25981 C 2476.77 0.799907 2.13508 0
M  V30 25982 C 2477.75 -0.211031 1.5951 0
M  V30 25983 O 2478.94 -0.0133383 1.76995 0
M  V30 25984 C 2476.07 0.279357 3.42161 0
M  V30 25985 C 2475.16 1.31983 4.0304 0
M  V30 25986 N 2475.55 2.52403 4.38322 0
M  V30 25987 C 2473.85 1.17011 4.30377 0
M  V30 25988 C 2474.55 3.19011 4.86422 0
M  V30 25989 N 2473.52 2.46414 4.84542 0
M  V30 25990 H 2477.33 1.71594 2.38606 0
M  V30 25991 H 2474.84 1.02804 1.25718 0
M  V30 25992 H 2476.84 0.0144421 4.16897 0
M  V30 25993 H 2475.5 -0.630867 3.18512 0
M  V30 25994 H 2476.51 2.89628 4.29343 0
M  V30 25995 H 2473.19 0.318927 4.1628 0
M  V30 25996 H 2474.58 4.21683 5.23099 0
M  V30 25997 N 2477.3 -1.26549 0.939309 0
M  V30 25998 C 2478.54 -1.94126 0.586749 0
M  V30 25999 C 2478.87 -1.73538 -0.871669 0
M  V30 26000 O 2478.15 -1.0713 -1.62338 0
M  V30 26001 C 2478.43 -3.47949 0.927558 0
M  V30 26002 C 2478.29 -3.7783 2.44058 0
M  V30 26003 C 2479.6 -4.37878 0.441646 0
M  V30 26004 H 2476.72 -0.705052 0.214642 0
M  V30 26005 H 2479.37 -1.49453 1.17319 0
M  V30 26006 H 2477.52 -3.8613 0.428499 0
M  V30 26007 H 2479.19 -3.49375 3.01222 0
M  V30 26008 H 2477.43 -3.23973 2.88486 0
M  V30 26009 H 2478.1 -4.85343 2.62956 0
M  V30 26010 H 2480.58 -4.06913 0.86952 0
M  V30 26011 H 2479.45 -5.44302 0.708952 0
M  V30 26012 H 2479.71 -4.3717 -0.658391 0
M  V30 26013 N 2478.77 -0.706118 -1.40896 0
M  V30 26014 C 2480 -0.250923 -2.05373 0
M  V30 26015 C 2480.42 1.10378 -1.53174 0
M  V30 26016 O 2479.77 1.69184 -0.684335 0
M  V30 26017 C 2479.82 -0.211634 -3.6088 0
M  V30 26018 O 2479.55 -1.51283 -4.11151 0
M  V30 26019 C 2481.05 0.263268 -4.42518 0
M  V30 26020 H 2478.27 -0.114564 -0.661148 0
M  V30 26021 H 2480.81 -0.961666 -1.80478 0
M  V30 26022 H 2478.97 0.450005 -3.84777 0
M  V30 26023 H 2479.38 -1.40698 -5.05277 0
M  V30 26024 H 2480.85 0.239621 -5.5148 0
M  V30 26025 H 2481.33 1.30389 -4.19399 0
M  V30 26026 H 2481.94 -0.367751 -4.23707 0
M  V30 26027 N 2480.25 1.50991 -0.451617 0
M  V30 26028 C 2481.5 2.01801 0.109821 0
M  V30 26029 C 2481.82 1.33692 1.41956 0
M  V30 26030 O 2481.09 0.475984 1.90029 0
M  V30 26031 H 2479.67 0.745728 0.0435753 0
M  V30 26032 H 2482.33 1.85512 -0.59759 0
M  V30 26033 H 2481.43 3.10882 0.275434 0
M  V30 26034 N 2481.73 0.183486 1.56528 0
M  V30 26035 C 2482.66 -0.781015 2.14419 0
M  V30 26036 C 2483.64 -1.21761 1.07763 0
M  V30 26037 O 2484.82 -1.30721 1.35809 0
M  V30 26038 C 2481.95 -2.0533 2.69365 0
M  V30 26039 C 2481 -1.75975 3.88503 0
M  V30 26040 S 2481.83 -0.918164 5.2757 0
M  V30 26041 C 2482.99 -2.20085 5.8593 0
M  V30 26042 H 2483.22 -0.288848 2.95893 0
M  V30 26043 H 2480.75 -0.0313573 1.54368 0
M  V30 26044 H 2482.71 -2.78401 3.01667 0
M  V30 26045 H 2481.37 -2.51659 1.87953 0
M  V30 26046 H 2480.56 -2.70407 4.25319 0
M  V30 26047 H 2480.17 -1.10993 3.57151 0
M  V30 26048 H 2482.46 -3.15443 5.99585 0
M  V30 26049 H 2483.4 -1.87719 6.82764 0
M  V30 26050 H 2483.81 -2.324 5.14442 0
M  V30 26051 N 2483.21 -1.57342 -0.0901833 0
M  V30 26052 C 2484.12 -2.0574 -1.12731 0
M  V30 26053 C 2485.13 -0.983256 -1.43555 0
M  V30 26054 O 2486.31 -1.29675 -1.54099 0
M  V30 26055 C 2483.37 -2.47628 -2.42655 0
M  V30 26056 C 2482.44 -3.69258 -2.18969 0
M  V30 26057 C 2481.67 -4.09139 -3.42697 0
M  V30 26058 O 2481.89 -3.49065 -4.51121 0
M  V30 26059 O 2480.83 -5.02059 -3.31994 0
M  V30 26060 H 2484.65 -2.94389 -0.746228 0
M  V30 26061 H 2482.24 -1.46294 -0.303038 0
M  V30 26062 H 2484.12 -2.75175 -3.1915 0
M  V30 26063 H 2482.79 -1.62114 -2.8018 0
M  V30 26064 H 2481.7 -3.4682 -1.40238 0
M  V30 26065 H 2483.03 -4.55566 -1.86334 0
M  V30 26066 N 2484.69 0.36113 -1.53407 0
M  V30 26067 C 2485.62 1.44853 -1.83139 0
M  V30 26068 C 2486.6 1.55689 -0.685201 0
M  V30 26069 O 2487.78 1.70184 -0.93547 0
M  V30 26070 C 2484.91 2.82135 -2.02527 0
M  V30 26071 C 2483.87 2.8612 -3.18307 0
M  V30 26072 C 2483.19 4.26119 -3.22996 0
M  V30 26073 C 2484.49 2.5324 -4.56801 0
M  V30 26074 H 2486.19 1.20221 -2.74203 0
M  V30 26075 H 2483.73 0.576899 -1.31939 0
M  V30 26076 H 2485.69 3.58237 -2.2191 0
M  V30 26077 H 2484.41 3.08164 -1.08177 0
M  V30 26078 H 2483.07 2.12469 -2.98751 0
M  V30 26079 H 2482.72 4.49231 -2.26275 0
M  V30 26080 H 2482.42 4.29701 -4.00788 0
M  V30 26081 H 2483.94 5.04088 -3.44568 0
M  V30 26082 H 2485.35 3.19056 -4.76315 0
M  V30 26083 H 2483.75 2.68131 -5.36866 0
M  V30 26084 H 2484.82 1.48476 -4.61609 0
M  V30 26085 N 2486.16 1.44842 0.621179 0
M  V30 26086 C 2487.07 1.54983 1.76117 0
M  V30 26087 C 2488.09 0.434957 1.68476 0
M  V30 26088 O 2489.27 0.693726 1.89075 0
M  V30 26089 C 2486.33 1.5007 3.12538 0
M  V30 26090 C 2485.39 2.72488 3.31736 0
M  V30 26091 C 2484.63 2.678 4.61648 0
M  V30 26092 O 2484.85 1.74361 5.43097 0
M  V30 26093 O 2483.78 3.58802 4.83265 0
M  V30 26094 H 2487.61 2.51314 1.70514 0
M  V30 26095 H 2485.19 1.272 0.783621 0
M  V30 26096 H 2487.08 1.49889 3.93842 0
M  V30 26097 H 2485.75 0.568862 3.18662 0
M  V30 26098 H 2484.66 2.78235 2.50072 0
M  V30 26099 H 2485.99 3.64752 3.3048 0
M  V30 26100 N 2487.64 -0.862479 1.31905 0
M  V30 26101 C 2488.89 -1.61609 1.22019 0
M  V30 26102 C 2489.22 -1.93253 -0.219876 0
M  V30 26103 O 2488.47 -1.56819 -1.17073 0
M  V30 26104 C 2488.77 -2.95033 2.01718 0
M  V30 26105 C 2488.44 -2.82851 3.5115 0
M  V30 26106 C 2487.1 -2.79236 3.91894 0
M  V30 26107 C 2489.45 -2.69346 4.46209 0
M  V30 26108 C 2486.78 -2.59983 5.25952 0
M  V30 26109 C 2489.13 -2.51629 5.80401 0
M  V30 26110 C 2487.8 -2.46402 6.20357 0
M  V30 26111 H 2487.07 -0.59137 0.446501 0
M  V30 26112 H 2489.71 -1.00109 1.6325 0
M  V30 26113 H 2488.02 -3.6061 1.53191 0
M  V30 26114 H 2489.71 -3.5235 1.91444 0
M  V30 26115 H 2486.3 -2.86486 3.18785 0
M  V30 26116 H 2490.49 -2.71189 4.15656 0
M  V30 26117 H 2485.74 -2.54366 5.55975 0
M  V30 26118 H 2489.92 -2.40158 6.5368 0
M  V30 26119 H 2487.55 -2.31243 7.24176 0
M  V30 26120 N 2489.12 -1.14988 -1.07775 0
M  V30 26121 C 2490.07 -0.842709 -2.14865 0
M  V30 26122 C 2491.04 0.202523 -1.64861 0
M  V30 26123 O 2492.22 0.0710233 -1.90668 0
M  V30 26124 C 2489.36 -0.333423 -3.43486 0
M  V30 26125 C 2488.48 -1.43972 -4.07304 0
M  V30 26126 C 2487.61 -0.887006 -5.23742 0
M  V30 26127 C 2486.65 -1.97053 -5.79514 0
M  V30 26128 N 2485.79 -1.43452 -6.87289 0
M  V30 26129 H 2490.63 -1.7599 -2.40482 0
M  V30 26130 H 2488.16 -0.8782 -1.18009 0
M  V30 26131 H 2490.12 -0.0198897 -4.17195 0
M  V30 26132 H 2488.75 0.546861 -3.18134 0
M  V30 26133 H 2487.8 -1.86952 -3.3129 0
M  V30 26134 H 2489.12 -2.25796 -4.44767 0
M  V30 26135 H 2488.27 -0.525758 -6.04418 0
M  V30 26136 H 2487.01 -0.0378814 -4.87685 0
M  V30 26137 H 2486.01 -2.34066 -4.97487 0
M  V30 26138 H 2487.24 -2.82336 -6.17627 0
M  V30 26139 H 2485.18 -0.607682 -6.53179 0
M  V30 26140 H 2485.1 -2.18908 -7.23613 0
M  V30 26141 H 2486.37 -1.10138 -7.7168 0
M  V30 26142 N 2490.6 1.26049 -0.946007 0
M  V30 26143 C 2492.01 1.45805 -0.649071 0
M  V30 26144 C 2492.21 1.85106 0.796126 0
M  V30 26145 O 2491.27 1.97573 1.57229 0
M  V30 26146 C 2492.58 2.53674 -1.61462 0
M  V30 26147 C 2494.13 2.67521 -1.62485 0
M  V30 26148 C 2494.61 3.78566 -2.57783 0
M  V30 26149 N 2496.1 3.85965 -2.56097 0
M  V30 26150 C 2496.83 4.71354 -3.26517 0
M  V30 26151 N 2496.33 5.61095 -4.06379 0
M  V30 26152 N 2498.12 4.65243 -3.15445 0
M  V30 26153 H 2490.27 0.988295 -1.88007 0
M  V30 26154 H 2492.54 0.495485 -0.808207 0
M  V30 26155 H 2492.24 2.31634 -2.64648 0
M  V30 26156 H 2492.12 3.51425 -1.37042 0
M  V30 26157 H 2494.5 2.88931 -0.600217 0
M  V30 26158 H 2494.58 1.70198 -1.90961 0
M  V30 26159 H 2494.23 3.57907 -3.60368 0
M  V30 26160 H 2494.16 4.75355 -2.26595 0
M  V30 26161 H 2496.65 3.21808 -1.98111 0
M  V30 26162 H 2496.96 6.23156 -4.57053 0
M  V30 26163 H 2495.31 5.60831 -4.10479 0
M  V30 26164 H 2498.5 3.94138 -2.52532 0
M  V30 26165 H 2498.67 5.31568 -3.70593 0
M  V30 26166 N 2492.08 0.71358 1.4052 0
M  V30 26167 C 2493.01 0.0744274 2.33381 0
M  V30 26168 C 2493.99 -0.747709 1.52785 0
M  V30 26169 O 2495.17 -0.69704 1.81259 0
M  V30 26170 C 2492.3 -0.849539 3.36749 0
M  V30 26171 C 2491.26 -0.133172 4.27793 0
M  V30 26172 C 2490.58 -1.17272 5.21681 0
M  V30 26173 C 2491.88 1.01143 5.12413 0
M  V30 26174 H 2493.58 0.850057 2.87079 0
M  V30 26175 H 2491.12 0.410226 1.38033 0
M  V30 26176 H 2493.08 -1.30605 4.0065 0
M  V30 26177 H 2491.8 -1.65704 2.81442 0
M  V30 26178 H 2490.46 0.303491 3.65342 0
M  V30 26179 H 2490.11 -1.97322 4.6268 0
M  V30 26180 H 2489.81 -0.698294 5.83436 0
M  V30 26181 H 2491.33 -1.62937 5.88459 0
M  V30 26182 H 2492.74 0.634374 5.69779 0
M  V30 26183 H 2491.14 1.41409 5.83201 0
M  V30 26184 H 2492.21 1.843 4.48511 0
M  V30 26185 N 2493.55 -1.50749 0.459618 0
M  V30 26186 C 2494.52 -2.26826 -0.329053 0
M  V30 26187 C 2495.52 -1.31145 -0.930458 0
M  V30 26188 O 2496.71 -1.5467 -0.801426 0
M  V30 26189 C 2493.84 -3.07691 -1.46763 0
M  V30 26190 H 2495.03 -2.97989 0.337977 0
M  V30 26191 H 2492.59 -1.54837 0.213363 0
M  V30 26192 H 2493.32 -2.40996 -2.17005 0
M  V30 26193 H 2493.11 -3.77992 -1.04231 0
M  V30 26194 H 2494.6 -3.65258 -2.02427 0
M  V30 26195 N 2495.03 -0.191784 -1.56429 0
M  V30 26196 C 2495.98 0.747135 -2.20274 0
M  V30 26197 C 2496.97 1.22227 -1.1729 0
M  V30 26198 O 2498.18 1.18555 -1.35443 0
M  V30 26199 H 2494.56 0.259277 -0.705889 0
M  V30 26200 H 2496.53 0.184911 -2.97827 0
M  V30 26201 C 2495.28 1.95754 -2.8736 0
M  V30 26202 H 2494.6 1.601 -3.66344 0
M  V30 26203 H 2496.04 2.59294 -3.35474 0
M  V30 26204 C 2494.5 2.7942 -1.88218 0
M  V30 26205 O 2495.03 3.77237 -1.3804 0
M  V30 26206 N 2493.23 2.44846 -1.56521 0
M  V30 26207 H 2492.78 1.6536 -1.97519 0
M  V30 26208 H 2492.74 3.01111 -0.904422 0
M  V30 26209 N 2496.51 1.57387 0.0818378 0
M  V30 26210 C 2497.74 1.91354 0.799912 0
M  V30 26211 C 2498.16 0.787288 1.70831 0
M  V30 26212 O 2497.52 -0.260448 1.7942 0
M  V30 26213 C 2497.57 3.24237 1.57806 0
M  V30 26214 O 2496.67 3.12762 2.68801 0
M  V30 26215 H 2496.01 0.626881 0.218899 0
M  V30 26216 H 2498.54 2.04531 0.0530896 0
M  V30 26217 H 2498.55 3.57868 1.95946 0
M  V30 26218 H 2497.23 4.05789 0.911476 0
M  V30 26219 H 2495.8 2.9067 2.33592 0
M  V30 26220 N 2497.99 -0.35299 1.53596 0
M  V30 26221 C 2498.94 -1.43304 1.80921 0
M  V30 26222 C 2499.91 -1.52669 0.654315 0
M  V30 26223 O 2501.09 -1.68358 0.897789 0
M  V30 26224 C 2498.23 -2.80085 2.0161 0
M  V30 26225 C 2497.34 -2.79587 3.29325 0
M  V30 26226 C 2496.48 -4.08024 3.40133 0
M  V30 26227 C 2495.52 -4.01717 4.61833 0
M  V30 26228 N 2494.65 -5.21826 4.69725 0
M  V30 26229 H 2499.49 -1.19303 2.73076 0
M  V30 26230 H 2497.03 -0.578107 1.35264 0
M  V30 26231 H 2498.99 -3.59561 2.11593 0
M  V30 26232 H 2497.62 -3.02458 1.12778 0
M  V30 26233 H 2496.67 -1.9227 3.28232 0
M  V30 26234 H 2497.98 -2.70802 4.18889 0
M  V30 26235 H 2497.14 -4.95921 3.49496 0
M  V30 26236 H 2495.88 -4.19577 2.48608 0
M  V30 26237 H 2494.88 -3.12205 4.52557 0
M  V30 26238 H 2496.11 -3.91754 5.54712 0
M  V30 26239 H 2494.05 -5.33942 3.81107 0
M  V30 26240 H 2493.97 -5.15261 5.53211 0
M  V30 26241 H 2495.24 -6.1152 4.83387 0
M  V30 26242 N 2499.47 -1.45169 -0.613489 0
M  V30 26243 C 2500.43 -1.5301 -1.70647 0
M  V30 26244 C 2501.43 -0.410212 -1.5548 0
M  V30 26245 O 2502.62 -0.673483 -1.60654 0
M  V30 26246 C 2499.75 -1.42098 -3.09872 0
M  V30 26247 H 2500.95 -2.50388 -1.65064 0
M  V30 26248 H 2498.5 -1.32522 -0.828705 0
M  V30 26249 H 2499.23 -0.458825 -3.21038 0
M  V30 26250 H 2499.02 -2.2332 -3.22289 0
M  V30 26251 H 2500.51 -1.50605 -3.89497 0
M  V30 26252 N 2500.95 0.855472 -1.32361 0
M  V30 26253 C 2501.9 1.95203 -1.17812 0
M  V30 26254 C 2502.88 1.60674 -0.0852602 0
M  V30 26255 O 2504.07 1.74234 -0.311682 0
M  V30 26256 C 2501.2 3.31225 -0.902495 0
M  V30 26257 C 2500.29 3.71976 -2.03702 0
M  V30 26258 N 2500.68 3.84562 -3.28551 0
M  V30 26259 C 2498.98 4.01597 -1.94 0
M  V30 26260 C 2499.68 4.19622 -4.02855 0
M  V30 26261 N 2498.65 4.31096 -3.31145 0
M  V30 26262 H 2502.45 2.03066 -2.12465 0
M  V30 26263 H 2499.97 1.04718 -1.24129 0
M  V30 26264 H 2501.97 4.09553 -0.779222 0
M  V30 26265 H 2500.63 3.2468 0.0356696 0
M  V30 26266 H 2501.64 3.68905 -3.63497 0
M  V30 26267 H 2498.31 4.03359 -1.0774 0
M  V30 26268 H 2499.7 4.36836 -5.10514 0
M  V30 26269 N 2502.42 1.15558 1.07164 0
M  V30 26270 C 2503.65 0.955551 1.83512 0
M  V30 26271 C 2504.07 -0.496178 1.82163 0
M  V30 26272 O 2503.42 -1.34417 1.23443 0
M  V30 26273 C 2503.47 1.46438 3.30512 0
M  V30 26274 O 2503.2 2.85924 3.31932 0
M  V30 26275 C 2504.7 1.3061 4.23622 0
M  V30 26276 H 2501.92 0.339254 0.57892 0
M  V30 26277 H 2504.46 1.53376 1.35263 0
M  V30 26278 H 2502.62 0.92865 3.76105 0
M  V30 26279 H 2503.03 3.09036 4.23789 0
M  V30 26280 H 2504.5 1.71056 5.24828 0
M  V30 26281 H 2504.98 0.250518 4.38485 0
M  V30 26282 H 2505.59 1.83101 3.83867 0
M  V30 26283 N 2503.9 -1.25546 0.952678 0
M  V30 26284 C 2505.13 -1.9782 0.623059 0
M  V30 26285 C 2505.55 -1.70354 -0.79757 0
M  V30 26286 O 2504.91 -0.95831 -1.53903 0
M  V30 26287 C 2504.96 -3.49556 0.885593 0
M  V30 26288 O 2504.06 -4.12384 -0.0365917 0
M  V30 26289 H 2503.4 -0.620228 0.237093 0
M  V30 26290 H 2505.93 -1.59716 1.27874 0
M  V30 26291 H 2505.94 -3.99857 0.811079 0
M  V30 26292 H 2504.62 -3.68877 1.92101 0
M  V30 26293 H 2503.19 -3.72791 0.089961 0
M  V30 26294 N 2505.38 -0.721022 -1.40139 0
M  V30 26295 C 2506.8 -0.39514 -1.54631 0
M  V30 26296 C 2507 1.09552 -1.69117 0
M  V30 26297 O 2506.05 1.8816 -1.68381 0
M  V30 26298 C 2507.36 -1.16595 -2.77175 0
M  V30 26299 C 2508.91 -1.15279 -2.90998 0
M  V30 26300 C 2509.39 -1.90587 -4.16462 0
M  V30 26301 N 2510.88 -1.87683 -4.23473 0
M  V30 26302 C 2511.61 -2.42771 -5.1947 0
M  V30 26303 N 2511.11 -3.06439 -6.21343 0
M  V30 26304 N 2512.9 -2.32883 -5.11588 0
M  V30 26305 H 2505.05 -1.68752 -1.28983 0
M  V30 26306 H 2507.32 -0.713578 -0.624108 0
M  V30 26307 H 2507.02 -2.22016 -2.72767 0
M  V30 26308 H 2506.9 -0.761145 -3.69441 0
M  V30 26309 H 2509.28 -0.106754 -2.94907 0
M  V30 26310 H 2509.36 -1.59686 -1.99835 0
M  V30 26311 H 2509.01 -2.95184 -4.13315 0
M  V30 26312 H 2508.94 -1.43596 -5.06644 0
M  V30 26313 H 2511.43 -1.41287 -3.50494 0
M  V30 26314 H 2511.74 -3.45977 -6.91028 0
M  V30 26315 H 2510.09 -3.10525 -6.21771 0
M  V30 26316 H 2513.28 -1.82797 -4.30933 0
M  V30 26317 H 2513.45 -2.76116 -5.86228 0
M  V30 26318 N 2506.86 1.50503 -0.467606 0
M  V30 26319 C 2508.1 2.02306 0.0885864 0
M  V30 26320 C 2508.43 1.34984 1.40034 0
M  V30 26321 O 2507.69 0.463351 1.90136 0
M  V30 26322 C 2507.99 3.55929 0.323932 0
M  V30 26323 C 2507.65 4.4171 -0.905695 0
M  V30 26324 C 2506.31 4.64873 -1.24284 0
M  V30 26325 C 2508.67 4.91842 -1.72456 0
M  V30 26326 C 2505.99 5.35412 -2.39897 0
M  V30 26327 C 2508.35 5.63651 -2.87195 0
M  V30 26328 C 2507.01 5.85068 -3.21328 0
M  V30 26329 H 2506.28 0.740291 0.032416 0
M  V30 26330 H 2508.93 1.81152 -0.620977 0
M  V30 26331 H 2507.23 3.75579 1.11571 0
M  V30 26332 H 2508.93 3.93573 0.768191 0
M  V30 26333 H 2505.52 4.23899 -0.633031 0
M  V30 26334 H 2509.7 4.73804 -1.47728 0
M  V30 26335 H 2504.96 5.50203 -2.6662 0
M  V30 26336 H 2509.13 6.01478 -3.50995 0
M  V30 26337 H 2506.76 6.39504 -4.11021 0
M  V30 26338 N 2508.34 0.200077 1.56325 0
M  V30 26339 C 2509.58 -0.437618 1.96895 0
M  V30 26340 C 2509.9 -1.62413 1.09002 0
M  V30 26341 O 2511.1 -2.32995 1.39376 0
M  V30 26342 C 2509.56 -0.829963 3.50199 0
M  V30 26343 C 2509.17 0.33254 4.46764 0
M  V30 26344 C 2510.91 -1.43446 3.99529 0
M  V30 26345 C 2508.82 -0.0810429 5.91344 0
M  V30 26346 H 2507.75 -0.167269 0.735212 0
M  V30 26347 H 2510.4 0.292885 1.81148 0
M  V30 26348 H 2508.78 -1.61728 3.61469 0
M  V30 26349 H 2509.96 1.11008 4.47229 0
M  V30 26350 H 2508.27 0.84886 4.07656 0
M  V30 26351 H 2510.87 -1.75643 5.05028 0
M  V30 26352 H 2511.21 -2.34271 3.44126 0
M  V30 26353 H 2511.74 -0.711021 3.91394 0
M  V30 26354 H 2508.48 0.793147 6.50684 0
M  V30 26355 H 2508 -0.823341 5.94122 0
M  V30 26356 H 2509.68 -0.515139 6.44946 0
M  V30 26357 N 2509.81 -1.57429 -0.0734901 0
M  V30 26358 C 2511.04 -1.91775 -0.789753 0
M  V30 26359 C 2511.46 -0.796336 -1.70412 0
M  V30 26360 O 2510.82 0.250929 -1.79555 0
M  V30 26361 C 2510.87 -3.25069 -1.56084 0
M  V30 26362 O 2509.97 -3.14183 -2.67138 0
M  V30 26363 H 2509.31 -0.628033 -0.215571 0
M  V30 26364 H 2511.84 -2.04556 -0.0422421 0
M  V30 26365 H 2511.85 -3.58902 -1.94045 0
M  V30 26366 H 2510.53 -4.06267 -0.889943 0
M  V30 26367 H 2509.11 -2.91905 -2.32047 0
M  V30 26368 N 2511.29 0.344839 -1.53781 0
M  V30 26369 C 2512.25 1.40633 -1.80983 0
M  V30 26370 C 2513.25 1.45675 -0.680842 0
M  V30 26371 O 2514.44 1.46073 -0.949121 0
M  V30 26372 C 2511.58 2.79573 -1.95068 0
M  V30 26373 H 2512.77 1.17778 -2.75805 0
M  V30 26374 H 2510.32 0.579155 -1.45174 0
M  V30 26375 H 2511.06 3.07714 -1.02385 0
M  V30 26376 H 2510.84 2.7731 -2.77203 0
M  V30 26377 H 2512.33 3.56405 -2.17635 0
M  V30 26378 N 2512.77 1.45492 0.605781 0
M  V30 26379 C 2513.72 1.54639 1.73752 0
M  V30 26380 C 2514.71 0.416248 1.64206 0
M  V30 26381 O 2515.92 0.592229 1.69978 0
M  V30 26382 H 2512.29 0.485751 0.574064 0
M  V30 26383 H 2514.26 2.4984 1.63165 0
M  V30 26384 C 2513.01 1.53195 3.12132 0
M  V30 26385 H 2512.34 2.39483 3.20137 0
M  V30 26386 H 2513.78 1.63652 3.91144 0
M  V30 26387 C 2512.23 0.256675 3.35921 0
M  V30 26388 O 2512.76 -0.662728 3.96195 0
M  V30 26389 N 2510.97 0.151802 2.90203 0
M  V30 26390 H 2510.52 0.900852 2.41335 0
M  V30 26391 H 2510.48 -0.700646 3.06494 0
M  V30 26392 N 2514.25 -0.848441 1.32813 0
M  V30 26393 C 2515.18 -1.97297 1.24885 0
M  V30 26394 C 2516.16 -1.69592 0.131386 0
M  V30 26395 O 2517.34 -1.91552 0.319586 0
M  V30 26396 C 2514.47 -3.33259 0.977518 0
M  V30 26397 C 2513.43 -3.75335 2.05689 0
M  V30 26398 C 2512.75 -5.08997 1.63786 0
M  V30 26399 C 2514.05 -3.90137 3.47261 0
M  V30 26400 H 2515.75 -2.04187 2.1897 0
M  V30 26401 H 2513.29 -0.98101 1.05414 0
M  V30 26402 H 2515.25 -4.11488 0.908585 0
M  V30 26403 H 2513.97 -3.266 0.00103742 0
M  V30 26404 H 2512.63 -2.99362 2.11608 0
M  V30 26405 H 2512.28 -4.988 0.648656 0
M  V30 26406 H 2511.98 -5.3812 2.36009 0
M  V30 26407 H 2513.5 -5.89712 1.58341 0
M  V30 26408 H 2514.92 -4.58703 3.43896 0
M  V30 26409 H 2513.31 -4.30685 4.17888 0
M  V30 26410 H 2514.38 -2.92867 3.86467 0
M  V30 26411 N 2515.73 -1.16125 -1.06549 0
M  V30 26412 C 2517.14 -0.94926 -1.60767 0
M  V30 26413 C 2517.49 0.507474 -1.89523 0
M  V30 26414 O 2516.61 1.38018 -1.66673 0
M  V30 26415 C 2517.21 -1.71676 -2.92083 0
M  V30 26416 C 2515.77 -1.54983 -3.43012 0
M  V30 26417 C 2514.91 -1.72715 -2.16944 0
M  V30 26418 H 2517.87 -1.31033 -0.895331 0
M  V30 26419 H 2517.89 -1.19105 -3.61378 0
M  V30 26420 H 2517.4 -2.77695 -2.71122 0
M  V30 26421 H 2515.5 -0.513938 -3.69039 0
M  V30 26422 H 2515.61 -2.33206 -4.18512 0
M  V30 26423 H 2513.98 -1.15435 -2.27039 0
M  V30 26424 H 2514.76 -2.80116 -1.98468 0
M  V30 26425 N 2517.2 1.25039 -0.959323 0
M  V30 26426 C 2518.44 1.9463 -0.624377 0
M  V30 26427 C 2518.81 1.73419 0.824 0
M  V30 26428 O 2520.01 2.36972 1.26876 0
M  V30 26429 C 2518.28 3.43734 -0.978865 0
M  V30 26430 S 2519.84 4.32217 -0.757203 0
M  V30 26431 H 2516.66 0.672997 -0.229338 0
M  V30 26432 H 2519.26 1.51593 -1.2345 0
M  V30 26433 H 2517.96 3.56676 -2.03004 0
M  V30 26434 H 2517.49 3.91757 -0.359186 0
M  V30 26435 H 2519.51 4.94821 0.369672 0
M  V30 26436 N 2518.68 0.728444 1.39755 0
M  V30 26437 C 2519.63 0.0732258 2.32485 0
M  V30 26438 C 2520.62 -0.733036 1.52718 0
M  V30 26439 O 2521.83 -0.634958 1.68429 0
M  V30 26440 H 2518.21 0.00487791 0.751984 0
M  V30 26441 H 2520.18 0.871811 2.8538 0
M  V30 26442 C 2518.93 -0.824848 3.37774 0
M  V30 26443 H 2518.25 -0.213844 3.99228 0
M  V30 26444 H 2519.69 -1.25103 4.05124 0
M  V30 26445 C 2518.15 -1.95617 2.74291 0
M  V30 26446 O 2518.68 -3.04822 2.61623 0
M  V30 26447 N 2516.88 -1.74363 2.32478 0
M  V30 26448 H 2516.43 -0.855451 2.42981 0
M  V30 26449 H 2516.39 -2.50235 1.90341 0
M  V30 26450 N 2520.16 -1.50253 0.475581 0
M  V30 26451 C 2521.11 -2.28623 -0.316253 0
M  V30 26452 C 2522.08 -1.33874 -0.983203 0
M  V30 26453 O 2523.26 -1.62815 -0.994776 0
M  V30 26454 C 2520.4 -3.15882 -1.38969 0
M  V30 26455 C 2519.52 -4.25666 -0.737071 0
M  V30 26456 C 2518.65 -5.00176 -1.78879 0
M  V30 26457 C 2517.69 -6.01828 -1.11665 0
M  V30 26458 N 2516.83 -6.696 -2.11142 0
M  V30 26459 H 2521.67 -2.95838 0.358349 0
M  V30 26460 H 2519.2 -1.45886 0.188566 0
M  V30 26461 H 2521.16 -3.64828 -2.02376 0
M  V30 26462 H 2519.79 -2.50704 -2.0334 0
M  V30 26463 H 2518.84 -3.80399 0.00967337 0
M  V30 26464 H 2520.16 -4.98371 -0.206729 0
M  V30 26465 H 2519.31 -5.52863 -2.49855 0
M  V30 26466 H 2518.05 -4.27186 -2.35294 0
M  V30 26467 H 2517.05 -5.48397 -0.392537 0
M  V30 26468 H 2518.28 -6.76793 -0.559331 0
M  V30 26469 H 2516.22 -5.99398 -2.66566 0
M  V30 26470 H 2516.14 -7.38196 -1.63105 0
M  V30 26471 H 2517.41 -7.26902 -2.81485 0
M  V30 26472 N 2521.64 -0.208365 -1.56217 0
M  V30 26473 C 2522.89 0.426885 -1.97949 0
M  V30 26474 C 2523.21 1.60704 -1.09565 0
M  V30 26475 O 2522.47 1.95215 -0.13765 0
M  V30 26476 C 2522.77 0.916736 -3.45443 0
M  V30 26477 C 2522.43 -0.151471 -4.50646 0
M  V30 26478 C 2521.1 -0.444951 -4.79138 0
M  V30 26479 C 2523.45 -0.874582 -5.1381 0
M  V30 26480 C 2520.78 -1.46629 -5.68082 0
M  V30 26481 C 2523.13 -1.88516 -6.03858 0
M  V30 26482 C 2521.79 -2.1857 -6.30701 0
M  V30 26483 H 2521.06 0.156208 -0.724348 0
M  V30 26484 H 2523.71 -0.308117 -1.89005 0
M  V30 26485 H 2522.01 1.73026 -3.51524 0
M  V30 26486 H 2523.71 1.41788 -3.75096 0
M  V30 26487 H 2520.3 0.0874314 -4.28511 0
M  V30 26488 H 2524.48 -0.661083 -4.91877 0
M  V30 26489 H 2519.74 -1.70491 -5.87148 0
M  V30 26490 H 2523.91 -2.45063 -6.51857 0
M  V30 26491 H 2521.54 -2.97855 -6.99419 0
M  V30 26492 N 2523.12 1.57465 0.0651402 0
M  V30 26493 C 2524.06 2.04146 1.07671 0
M  V30 26494 C 2525.03 0.923359 1.3807 0
M  V30 26495 O 2526.22 1.19149 1.49024 0
M  V30 26496 C 2523.36 2.49583 2.38333 0
M  V30 26497 C 2522.47 3.75039 2.14406 0
M  V30 26498 C 2521.61 4.09231 3.38679 0
M  V30 26499 C 2520.65 5.27708 3.10147 0
M  V30 26500 N 2519.78 5.57506 4.26768 0
M  V30 26501 H 2524.62 2.90332 0.671665 0
M  V30 26502 H 2522.16 1.43576 0.320075 0
M  V30 26503 H 2524.12 2.73981 3.14627 0
M  V30 26504 H 2522.75 1.66365 2.76627 0
M  V30 26505 H 2521.8 3.57941 1.28773 0
M  V30 26506 H 2523.11 4.61469 1.89335 0
M  V30 26507 H 2522.27 4.34565 4.23365 0
M  V30 26508 H 2521 3.21381 3.66832 0
M  V30 26509 H 2520.01 5.02163 2.23858 0
M  V30 26510 H 2521.23 6.17181 2.8331 0
M  V30 26511 H 2519.18 4.72616 4.5494 0
M  V30 26512 H 2519.1 6.3837 4.04994 0
M  V30 26513 H 2520.37 5.87395 5.12432 0
M  V30 26514 N 2524.59 -0.336679 1.53962 0
M  V30 26515 C 2525.54 -1.43398 1.83139 0
M  V30 26516 C 2526.54 -1.54154 0.70234 0
M  V30 26517 O 2527.74 -1.56696 0.885792 0
M  V30 26518 H 2524.12 -0.478263 0.580318 0
M  V30 26519 H 2526.09 -1.16007 2.74927 0
M  V30 26520 C 2524.84 -2.79819 2.0639 0
M  V30 26521 H 2524.16 -2.72311 2.92723 0
M  V30 26522 H 2525.6 -3.557 2.30767 0
M  V30 26523 C 2524.06 -3.25963 0.851472 0
M  V30 26524 O 2524.59 -4.01663 0.054261 0
M  V30 26525 N 2522.8 -2.82847 0.66677 0
M  V30 26526 H 2522.34 -2.21407 1.31669 0
M  V30 26527 H 2522.3 -3.14075 -0.142977 0
M  V30 26528 N 2526.07 -1.45812 -0.598057 0
M  V30 26529 C 2527.49 -1.30428 -0.919824 0
M  V30 26530 C 2527.69 -0.264339 -1.99759 0
M  V30 26531 O 2526.74 0.338428 -2.50222 0
M  V30 26532 C 2528.06 -2.68606 -1.35172 0
M  V30 26533 C 2529.61 -2.76577 -1.46541 0
M  V30 26534 C 2530.08 -4.15302 -1.93102 0
M  V30 26535 N 2531.57 -4.17643 -2.00321 0
M  V30 26536 C 2532.31 -5.21861 -2.3759 0
M  V30 26537 N 2531.8 -6.36417 -2.7376 0
M  V30 26538 N 2533.6 -5.09222 -2.38012 0
M  V30 26539 H 2525.75 -2.12093 0.114149 0
M  V30 26540 H 2528.01 -0.947929 -0.0115954 0
M  V30 26541 H 2527.72 -3.4594 -0.633909 0
M  V30 26542 H 2527.59 -2.977 -2.31635 0
M  V30 26543 H 2529.98 -1.99541 -2.17411 0
M  V30 26544 H 2530.06 -2.51185 -0.483683 0
M  V30 26545 H 2529.7 -4.92827 -1.22816 0
M  V30 26546 H 2529.63 -4.38091 -2.92206 0
M  V30 26547 H 2532.12 -3.3498 -1.74919 0
M  V30 26548 H 2532.44 -7.11726 -3.01107 0
M  V30 26549 H 2530.78 -6.39804 -2.71434 0
M  V30 26550 H 2533.97 -4.18768 -2.09167 0
M  V30 26551 H 2534.14 -5.90558 -2.6673 0
M  V30 26552 N 2527.55 0.841385 -1.33261 0
M  V30 26553 C 2528.48 1.96632 -1.2593 0
M  V30 26554 C 2529.46 1.6952 -0.140378 0
M  V30 26555 O 2530.65 1.9138 -0.32974 0
M  V30 26556 C 2527.78 3.32736 -0.995178 0
M  V30 26557 C 2526.73 3.74239 -2.07676 0
M  V30 26558 C 2526.06 5.08122 -1.66483 0
M  V30 26559 C 2527.36 3.8829 -3.49325 0
M  V30 26560 H 2529.05 2.03023 -2.2005 0
M  V30 26561 H 2526.6 0.975406 -1.05933 0
M  V30 26562 H 2528.55 4.11001 -0.930395 0
M  V30 26563 H 2527.27 3.26595 -0.0183578 0
M  V30 26564 H 2525.93 2.98236 -2.13193 0
M  V30 26565 H 2525.58 4.98449 -0.6751 0
M  V30 26566 H 2525.28 5.36861 -2.3886 0
M  V30 26567 H 2526.8 5.88864 -1.61466 0
M  V30 26568 H 2528.22 4.56873 -3.46324 0
M  V30 26569 H 2526.62 4.28463 -4.20166 0
M  V30 26570 H 2527.69 2.90814 -3.88015 0
M  V30 26571 N 2529.03 1.16688 1.05932 0
M  V30 26572 C 2530.28 0.952062 1.79063 0
M  V30 26573 C 2530.61 -0.518597 1.87148 0
M  V30 26574 O 2529.88 -1.38481 1.36577 0
M  V30 26575 C 2530.17 1.58469 3.23357 0
M  V30 26576 C 2530.02 3.12694 3.2333 0
M  V30 26577 C 2531.34 1.2824 4.21002 0
M  V30 26578 H 2528.46 0.347292 0.650044 0
M  V30 26579 H 2531.1 1.44074 1.23866 0
M  V30 26580 H 2529.25 1.16915 3.7049 0
M  V30 26581 H 2530.92 3.63255 2.84329 0
M  V30 26582 H 2529.16 3.45834 2.6188 0
M  V30 26583 H 2529.84 3.52082 4.25138 0
M  V30 26584 H 2532.31 1.6421 3.82327 0
M  V30 26585 H 2531.19 1.75101 5.20222 0
M  V30 26586 H 2531.45 0.201869 4.41639 0
M  V30 26587 N 2530.51 -1.24529 0.96594 0
M  V30 26588 C 2531.46 -2.27454 0.486546 0
M  V30 26589 C 2532.45 -1.63341 -0.449012 0
M  V30 26590 O 2533.66 -1.77051 -0.324496 0
M  V30 26591 H 2530.03 -0.739066 0.13887 0
M  V30 26592 H 2532 -2.65265 1.36664 0
M  V30 26593 C 2530.75 -3.47069 -0.20942 0
M  V30 26594 H 2530.07 -3.96644 0.501359 0
M  V30 26595 H 2531.51 -4.20937 -0.508701 0
M  V30 26596 C 2529.97 -3.04773 -1.4358 0
M  V30 26597 O 2530.5 -3.11778 -2.53293 0
M  V30 26598 N 2528.71 -2.5984 -1.30121 0
M  V30 26599 H 2528.26 -2.5434 -0.408538 0
M  V30 26600 H 2528.21 -2.31906 -2.1229 0
M  V30 26601 N 2531.99 -0.735845 -1.39367 0
M  V30 26602 C 2533.23 -0.281039 -1.99732 0
M  V30 26603 C 2533.55 1.13843 -1.59057 0
M  V30 26604 O 2534.75 1.6928 -2.12265 0
M  V30 26605 C 2533.21 -0.451525 -3.57056 0
M  V30 26606 C 2532.82 -1.87893 -4.06694 0
M  V30 26607 C 2534.56 -0.0585362 -4.2446 0
M  V30 26608 C 2532.47 -1.99893 -5.56594 0
M  V30 26609 H 2531.4 -0.101324 -0.747161 0
M  V30 26610 H 2534.05 -0.909847 -1.59355 0
M  V30 26611 H 2532.43 0.246193 -3.95234 0
M  V30 26612 H 2533.61 -2.60868 -3.79848 0
M  V30 26613 H 2531.92 -2.22521 -3.51956 0
M  V30 26614 H 2534.52 -0.127193 -5.34549 0
M  V30 26615 H 2534.86 0.986362 -4.04446 0
M  V30 26616 H 2535.39 -0.707443 -3.91459 0
M  V30 26617 H 2532.13 -3.02574 -5.81489 0
M  V30 26618 H 2531.65 -1.31356 -5.8524 0
M  V30 26619 H 2533.33 -1.7805 -6.22019 0
M  V30 26620 N 2533.46 1.49999 -0.483543 0
M  V30 26621 C 2534.4 2.25494 0.350387 0
M  V30 26622 C 2535.37 1.2933 0.985526 0
M  V30 26623 O 2536.56 1.58581 1.01904 0
M  V30 26624 C 2533.69 3.04069 1.49197 0
M  V30 26625 C 2532.73 4.15254 0.972963 0
M  V30 26626 S 2533.56 5.3536 -0.122331 0
M  V30 26627 C 2534.72 6.17486 1.02283 0
M  V30 26628 H 2534.95 2.95878 -0.290433 0
M  V30 26629 H 2532.49 1.52046 -0.268589 0
M  V30 26630 H 2534.44 3.49928 2.14617 0
M  V30 26631 H 2533.11 2.33187 2.10434 0
M  V30 26632 H 2532.3 4.69682 1.82796 0
M  V30 26633 H 2531.9 3.71895 0.39627 0
M  V30 26634 H 2534.19 6.49374 1.93183 0
M  V30 26635 H 2535.14 7.06206 0.51754 0
M  V30 26636 H 2535.54 5.49743 1.28228 0
M  V30 26637 N 2534.94 0.216646 1.56104 0
M  V30 26638 C 2536.35 -0.292096 1.84401 0
M  V30 26639 C 2536.7 -1.59831 1.13791 0
M  V30 26640 O 2535.83 -2.12559 0.405925 0
M  V30 26641 C 2536.42 -0.536751 3.34521 0
M  V30 26642 C 2534.98 -0.989813 3.63152 0
M  V30 26643 C 2534.13 -0.0501815 2.77255 0
M  V30 26644 H 2537.08 0.439953 1.5248 0
M  V30 26645 H 2537.1 -1.38338 3.54461 0
M  V30 26646 H 2536.61 0.414099 3.85884 0
M  V30 26647 H 2534.71 -1.95419 3.17241 0
M  V30 26648 H 2534.83 -0.867615 4.71179 0
M  V30 26649 H 2533.19 -0.556073 2.48556 0
M  V30 26650 H 2533.97 0.895498 3.31415 0
M  V30 26651 N 2536.42 -1.57498 -0.0567885 0
M  V30 26652 C 2537.65 -1.91936 -0.764482 0
M  V30 26653 C 2538.06 -0.8123 -1.70875 0
M  V30 26654 O 2537.4 0.222181 -1.82351 0
M  V30 26655 C 2537.46 -3.21965 -1.59935 0
M  V30 26656 C 2537.13 -4.49531 -0.822846 0
M  V30 26657 C 2538.12 -5.19724 -0.135373 0
M  V30 26658 C 2535.81 -4.96119 -0.785579 0
M  V30 26659 C 2537.8 -6.34765 0.578973 0
M  V30 26660 C 2535.49 -6.11063 -0.067471 0
M  V30 26661 C 2536.49 -6.80238 0.613591 0
M  V30 26662 O 2536.18 -7.92987 1.3201 0
M  V30 26663 H 2535.91 -0.638634 -0.221636 0
M  V30 26664 H 2538.46 -2.05383 -0.0267857 0
M  V30 26665 H 2536.69 -3.04768 -2.3802 0
M  V30 26666 H 2538.38 -3.41937 -2.18709 0
M  V30 26667 H 2539.15 -4.84751 -0.155373 0
M  V30 26668 H 2535.03 -4.42139 -1.30516 0
M  V30 26669 H 2538.57 -6.88694 1.11112 0
M  V30 26670 H 2534.47 -6.45484 -0.0454501 0
M  V30 26671 H 2535.23 -8.09191 1.23091 0
M  V30 26672 N 2537.9 0.328509 -1.54138 0
M  V30 26673 C 2538.81 1.4272 -1.86194 0
M  V30 26674 C 2539.82 1.56843 -0.753409 0
M  V30 26675 O 2541 1.72033 -1.04721 0
M  V30 26676 C 2538.06 2.77503 -2.07829 0
M  V30 26677 C 2537.13 2.72598 -3.31646 0
M  V30 26678 C 2536.36 4.00953 -3.52239 0
M  V30 26679 O 2536.58 4.98975 -2.76369 0
M  V30 26680 O 2535.52 4.04512 -4.45706 0
M  V30 26681 H 2539.34 1.18542 -2.7961 0
M  V30 26682 H 2536.93 0.522079 -1.39981 0
M  V30 26683 H 2538.81 3.57299 -2.23417 0
M  V30 26684 H 2537.48 3.01582 -1.17601 0
M  V30 26685 H 2536.39 1.9137 -3.21447 0
M  V30 26686 H 2537.72 2.53473 -4.21915 0
M  V30 26687 N 2539.38 1.46127 0.590316 0
M  V30 26688 C 2540.6 1.54835 1.37988 0
M  V30 26689 C 2541.03 0.187539 1.87163 0
M  V30 26690 O 2540.38 -0.830979 1.61135 0
M  V30 26691 C 2540.43 2.55102 2.54863 0
M  V30 26692 O 2539.54 2.08079 3.56057 0
M  V30 26693 H 2538.88 0.521311 0.411256 0
M  V30 26694 H 2541.41 1.91633 0.716785 0
M  V30 26695 H 2541.42 2.74466 3.01881 0
M  V30 26696 H 2540.09 3.53927 2.18423 0
M  V30 26697 H 2538.67 1.98669 3.15571 0
M  V30 26698 N 2540.85 -0.834306 1.33705 0
M  V30 26699 C 2542.08 -1.62182 1.2847 0
M  V30 26700 C 2542.5 -1.88254 -0.143493 0
M  V30 26701 O 2541.85 -1.46592 -1.08706 0
M  V30 26702 C 2541.9 -2.96938 2.06179 0
M  V30 26703 O 2541.63 -2.7201 3.43427 0
M  V30 26704 C 2543.13 -3.91362 2.08208 0
M  V30 26705 H 2540.35 -0.504495 0.442409 0
M  V30 26706 H 2542.89 -1.03888 1.76146 0
M  V30 26707 H 2541.05 -3.51822 1.62173 0
M  V30 26708 H 2541.46 -3.57854 3.83459 0
M  V30 26709 H 2542.93 -4.83117 2.67025 0
M  V30 26710 H 2543.41 -4.25879 1.0735 0
M  V30 26711 H 2544.02 -3.42416 2.52252 0
M  V30 26712 N 2542.33 -1.17248 -1.05312 0
M  V30 26713 C 2543.75 -0.919496 -1.30451 0
M  V30 26714 C 2543.95 0.422056 -1.9703 0
M  V30 26715 O 2543 1.15931 -2.24313 0
M  V30 26716 C 2544.32 -2.0759 -2.17547 0
M  V30 26717 C 2545.86 -2.11279 -2.30934 0
M  V30 26718 C 2546.34 -3.26301 -3.2139 0
M  V30 26719 N 2547.83 -3.26082 -3.28976 0
M  V30 26720 C 2548.57 -4.11723 -3.99088 0
M  V30 26721 N 2548.06 -5.07473 -4.71639 0
M  V30 26722 N 2549.85 -3.99677 -3.9524 0
M  V30 26723 H 2542.01 -2.03603 -0.604952 0
M  V30 26724 H 2544.27 -0.88895 -0.329352 0
M  V30 26725 H 2543.97 -3.04543 -1.75916 0
M  V30 26726 H 2543.85 -2.02589 -3.18178 0
M  V30 26727 H 2546.24 -1.14912 -2.71807 0
M  V30 26728 H 2546.32 -2.20341 -1.29936 0
M  V30 26729 H 2545.96 -4.22932 -2.8123 0
M  V30 26730 H 2545.89 -3.14475 -4.2239 0
M  V30 26731 H 2548.38 -2.56755 -2.77282 0
M  V30 26732 H 2548.69 -5.69219 -5.22695 0
M  V30 26733 H 2547.04 -5.11444 -4.70585 0
M  V30 26734 H 2550.23 -3.2417 -3.37685 0
M  V30 26735 H 2550.4 -4.6664 -4.49612 0
M  V30 26736 N 2543.81 1.24015 -0.972531 0
M  V30 26737 C 2545.06 1.92503 -0.638012 0
M  V30 26738 C 2545.39 1.75788 0.825352 0
M  V30 26739 O 2544.66 1.11396 1.5944 0
M  V30 26740 C 2544.95 3.45367 -1.01948 0
M  V30 26741 C 2544.8 3.71227 -2.5399 0
M  V30 26742 C 2546.12 4.36554 -0.557587 0
M  V30 26743 H 2543.24 0.699113 -0.23326 0
M  V30 26744 H 2545.88 1.4629 -1.2124 0
M  V30 26745 H 2544.03 3.84858 -0.530723 0
M  V30 26746 H 2545.7 3.41266 -3.1038 0
M  V30 26747 H 2543.95 3.1621 -2.96974 0
M  V30 26748 H 2544.62 4.78201 -2.75731 0
M  V30 26749 H 2547.09 4.04465 -0.9771 0
M  V30 26750 H 2545.97 5.42231 -0.853015 0
M  V30 26751 H 2546.23 4.38762 0.542251 0
M  V30 26752 N 2545.29 0.743226 1.38974 0
M  V30 26753 C 2546.53 0.299575 2.02193 0
M  V30 26754 C 2546.89 -1.09503 1.57712 0
M  V30 26755 O 2548.09 -1.63722 2.13187 0
M  V30 26756 C 2546.36 0.406885 3.55076 0
M  V30 26757 S 2547.92 0.044288 4.38778 0
M  V30 26758 H 2544.74 0.116849 0.701333 0
M  V30 26759 H 2547.34 0.971559 1.6965 0
M  V30 26760 H 2546.05 1.42302 3.84939 0
M  V30 26761 H 2545.58 -0.282638 3.92383 0
M  V30 26762 H 2547.59 -1.16939 4.82224 0
M  V30 26763 N 2546.77 -1.4974 0.491491 0
M  V30 26764 C 2547.7 -2.31797 -0.2815 0
M  V30 26765 C 2548.68 -1.39631 -0.971448 0
M  V30 26766 O 2549.86 -1.68545 -0.964689 0
M  V30 26767 C 2546.99 -3.19905 -1.35197 0
M  V30 26768 C 2545.95 -4.20787 -0.782455 0
M  V30 26769 C 2545.27 -4.97767 -1.95274 0
M  V30 26770 C 2546.57 -5.21836 0.220082 0
M  V30 26771 H 2548.27 -2.9667 0.403407 0
M  V30 26772 H 2545.81 -1.42667 0.19545 0
M  V30 26773 H 2547.77 -3.76116 -1.90038 0
M  V30 26774 H 2546.49 -2.52956 -2.06593 0
M  V30 26775 H 2545.15 -3.65706 -0.255864 0
M  V30 26776 H 2544.8 -4.27274 -2.65416 0
M  V30 26777 H 2544.5 -5.66021 -1.57779 0
M  V30 26778 H 2546.02 -5.5682 -2.50567 0
M  V30 26779 H 2547.43 -5.72798 -0.239859 0
M  V30 26780 H 2545.83 -5.97926 0.510365 0
M  V30 26781 H 2546.9 -4.71328 1.13919 0
M  V30 26782 N 2548.24 -0.224922 -1.55987 0
M  V30 26783 C 2549.18 0.716186 -2.17723 0
M  V30 26784 C 2550.19 1.15507 -1.14725 0
M  V30 26785 O 2551.38 1.08564 -1.4169 0
M  V30 26786 C 2548.48 1.98233 -2.74876 0
M  V30 26787 C 2547.65 1.69846 -4.03077 0
M  V30 26788 C 2546.71 2.812 -4.44762 0
M  V30 26789 O 2545.74 2.49525 -5.11591 0
M  V30 26790 N 2546.94 4.10227 -4.10723 0
M  V30 26791 H 2549.7 0.188071 -2.99109 0
M  V30 26792 H 2547.26 -0.0440408 -1.6184 0
M  V30 26793 H 2549.26 2.71925 -2.99732 0
M  V30 26794 H 2547.83 2.42083 -1.97774 0
M  V30 26795 H 2547.05 0.797807 -3.86042 0
M  V30 26796 H 2548.33 1.48315 -4.86703 0
M  V30 26797 H 2547.73 4.38803 -3.57027 0
M  V30 26798 H 2546.29 4.80453 -4.40464 0
M  V30 26799 N 2549.72 1.57526 0.0484352 0
M  V30 26800 C 2551.13 1.76882 0.597455 0
M  V30 26801 C 2551.48 0.853506 1.76663 0
M  V30 26802 O 2550.61 0.0434036 2.16356 0
M  V30 26803 C 2551.2 3.20767 1.0906 0
M  V30 26804 C 2549.76 3.41387 1.58529 0
M  V30 26805 C 2548.91 2.72479 0.51482 0
M  V30 26806 H 2551.86 1.57701 -0.177786 0
M  V30 26807 H 2551.88 3.26214 1.95869 0
M  V30 26808 H 2551.39 3.87361 0.239452 0
M  V30 26809 H 2549.5 2.79941 2.45893 0
M  V30 26810 H 2549.61 4.49932 1.64614 0
M  V30 26811 H 2547.97 2.35696 0.965366 0
M  V30 26812 H 2548.76 3.41743 -0.326541 0
M  V30 26813 N 2551.2 -0.32033 1.5431 0
M  V30 26814 C 2552.45 -1.05543 1.71882 0
M  V30 26815 C 2552.76 -1.8907 0.501176 0
M  V30 26816 O 2553.97 -2.65698 0.558305 0
M  V30 26817 C 2552.42 -1.92599 3.04029 0
M  V30 26818 C 2552.03 -1.14168 4.33209 0
M  V30 26819 C 2553.78 -2.65826 3.30964 0
M  V30 26820 C 2551.68 -2.00389 5.56416 0
M  V30 26821 H 2550.61 -0.397752 0.640554 0
M  V30 26822 H 2553.26 -0.31349 1.80802 0
M  V30 26823 H 2551.65 -2.70705 2.89024 0
M  V30 26824 H 2552.82 -0.408109 4.58989 0
M  V30 26825 H 2551.14 -0.526092 4.13063 0
M  V30 26826 H 2553.73 -3.30649 4.20209 0
M  V30 26827 H 2554.08 -3.33635 2.48985 0
M  V30 26828 H 2554.61 -1.9478 3.46851 0
M  V30 26829 H 2551.35 -1.37082 6.41006 0
M  V30 26830 H 2550.87 -2.71471 5.34849 0
M  V30 26831 H 2552.55 -2.58898 5.92943 0
M  V30 26832 N 2552.68 -1.46438 -0.582558 0
M  V30 26833 C 2554.09 -1.31396 -0.905939 0
M  V30 26834 C 2554.29 -0.285511 -1.99467 0
M  V30 26835 O 2553.35 0.311869 -2.50567 0
M  V30 26836 C 2554.66 -2.70024 -1.32315 0
M  V30 26837 C 2556.21 -2.78116 -1.43599 0
M  V30 26838 C 2556.69 -4.17326 -1.88687 0
M  V30 26839 N 2558.18 -4.19744 -1.9588 0
M  V30 26840 C 2558.91 -5.24351 -2.32042 0
M  V30 26841 N 2558.41 -6.39285 -2.66995 0
M  V30 26842 N 2560.2 -5.11718 -2.32597 0
M  V30 26843 H 2552.35 -2.1196 0.136638 0
M  V30 26844 H 2554.62 -0.947999 -0.0015407 0
M  V30 26845 H 2554.32 -3.46593 -0.597181 0
M  V30 26846 H 2554.2 -3.0014 -2.28464 0
M  V30 26847 H 2556.58 -2.01835 -2.15282 0
M  V30 26848 H 2556.66 -2.51684 -0.457014 0
M  V30 26849 H 2556.31 -4.94102 -1.17582 0
M  V30 26850 H 2556.24 -4.41165 -2.87543 0
M  V30 26851 H 2558.73 -3.36817 -1.71356 0
M  V30 26852 H 2559.04 -7.1488 -2.93542 0
M  V30 26853 H 2557.39 -6.42646 -2.64633 0
M  V30 26854 H 2560.58 -4.20963 -2.04713 0
M  V30 26855 H 2560.75 -5.93354 -2.60452 0
M  V30 26856 N 2554.16 0.827204 -1.34146 0
M  V30 26857 C 2555.4 1.58004 -1.26012 0
M  V30 26858 C 2555.73 1.94249 0.170937 0
M  V30 26859 O 2555 1.61929 1.10253 0
M  V30 26860 H 2553.58 0.585873 -0.463424 0
M  V30 26861 H 2556.24 0.987922 -1.68006 0
M  V30 26862 H 2555.33 2.50478 -1.86191 0
M  V30 26863 N 2555.63 1.17805 1.04688 0
M  V30 26864 C 2556.88 0.971 1.78043 0
M  V30 26865 C 2557.21 -0.498718 1.87687 0
M  V30 26866 O 2556.49 -1.37025 1.38038 0
M  V30 26867 C 2556.77 1.6189 3.21658 0
M  V30 26868 C 2556.62 3.16106 3.19995 0
M  V30 26869 C 2557.94 1.32698 4.19618 0
M  V30 26870 H 2555.06 0.354167 0.646324 0
M  V30 26871 H 2557.7 1.4538 1.22331 0
M  V30 26872 H 2555.85 1.20838 3.6923 0
M  V30 26873 H 2557.53 3.66251 2.80461 0
M  V30 26874 H 2555.77 3.48592 2.58197 0
M  V30 26875 H 2556.44 3.56571 4.2138 0
M  V30 26876 H 2558.92 1.68256 3.80564 0
M  V30 26877 H 2557.79 1.80608 5.18336 0
M  V30 26878 H 2558.05 0.248699 4.414 0
M  V30 26879 N 2557.11 -1.23497 0.979094 0
M  V30 26880 C 2558.02 -2.28616 0.526472 0
M  V30 26881 C 2559.04 -1.68902 -0.418097 0
M  V30 26882 O 2560.21 -1.99325 -0.288337 0
M  V30 26883 C 2557.28 -3.46306 -0.165174 0
M  V30 26884 C 2556.34 -4.21384 0.820634 0
M  V30 26885 C 2555.57 -5.33454 0.1619 0
M  V30 26886 O 2555.8 -5.60702 -1.04732 0
M  V30 26887 O 2554.73 -5.95727 0.859813 0
M  V30 26888 H 2558.56 -2.69473 1.40065 0
M  V30 26889 H 2556.14 -1.29404 0.746665 0
M  V30 26890 H 2558.02 -4.17753 -0.553213 0
M  V30 26891 H 2556.7 -3.07404 -1.01413 0
M  V30 26892 H 2555.61 -3.52266 1.25935 0
M  V30 26893 H 2556.94 -4.64132 1.63836 0
M  V30 26894 N 2558.59 -0.750586 -1.38578 0
M  V30 26895 C 2559.84 -0.304805 -1.99788 0
M  V30 26896 C 2560.16 1.11646 -1.59876 0
M  V30 26897 O 2559.43 1.76296 -0.854201 0
M  V30 26898 H 2558.01 -0.109707 -0.7389 0
M  V30 26899 H 2560.67 -0.964012 -1.6939 0
M  V30 26900 H 2559.77 -0.365553 -3.09952 0
M  V30 26901 N 2560.07 1.49477 -0.499425 0
M  V30 26902 C 2561.29 2.07352 0.0446855 0
M  V30 26903 C 2561.72 1.35751 1.30205 0
M  V30 26904 O 2561.08 0.413763 1.76515 0
M  V30 26905 C 2561.13 3.59488 0.28295 0
M  V30 26906 O 2560.23 3.89401 1.35798 0
M  V30 26907 H 2559.57 0.663509 -0.0255263 0
M  V30 26908 H 2562.1 1.92304 -0.698594 0
M  V30 26909 H 2562.11 4.04737 0.514936 0
M  V30 26910 H 2560.79 4.11013 -0.635708 0
M  V30 26911 H 2559.36 3.55963 1.11107 0
M  V30 26912 N 2561.55 0.233191 1.55865 0
M  V30 26913 C 2562.82 -0.444954 1.90472 0
M  V30 26914 C 2563.2 -1.76888 1.15212 0
M  V30 26915 O 2562.55 -2.26956 0.265159 0
M  V30 26916 C 2562.76 -0.626499 3.43331 0
M  V30 26917 C 2564.11 -0.928637 4.14321 0
M  V30 26918 O 2565.13 -0.712864 3.48994 0
M  V30 26919 O 2563.99 -1.33877 5.29848 0
M  V30 26920 H 2561.09 -0.236871 0.792351 0
M  V30 26921 H 2563.63 0.27624 1.67437 0
M  V30 26922 H 2562.41 0.306891 3.90095 0
M  V30 26923 H 2562.03 -1.39875 3.72184 0
M  V30 26924 N 2563.03 -1.57549 -0.0400806 0
M  V30 26925 C 2564.26 -1.92736 -0.744081 0
M  V30 26926 C 2564.66 -0.830378 -1.70004 0
M  V30 26927 O 2564.01 0.202828 -1.82577 0
M  V30 26928 C 2564.07 -3.23643 -1.56511 0
M  V30 26929 C 2563.73 -4.50379 -0.775121 0
M  V30 26930 C 2564.73 -5.19838 -0.0802413 0
M  V30 26931 C 2562.41 -4.96924 -0.732915 0
M  V30 26932 C 2564.41 -6.34115 0.646265 0
M  V30 26933 C 2562.1 -6.111 -0.0026558 0
M  V30 26934 C 2563.09 -6.79549 0.685705 0
M  V30 26935 O 2562.78 -7.91542 1.40413 0
M  V30 26936 H 2562.51 -0.640949 -0.21485 0
M  V30 26937 H 2565.07 -2.05399 -0.00500065 0
M  V30 26938 H 2563.3 -3.07275 -2.34774 0
M  V30 26939 H 2564.99 -3.44238 -2.1507 0
M  V30 26940 H 2565.75 -4.84889 -0.10395 0
M  V30 26941 H 2561.63 -4.43498 -1.2582 0
M  V30 26942 H 2565.18 -6.87477 1.1841 0
M  V30 26943 H 2561.07 -6.45496 0.0230147 0
M  V30 26944 H 2561.84 -8.0784 1.31667 0
M  V30 26945 N 2564.5 0.312142 -1.54478 0
M  V30 26946 C 2565.75 1.0463 -1.7244 0
M  V30 26947 C 2566.07 1.88802 -0.511196 0
M  V30 26948 O 2567.27 2.65398 -0.572388 0
M  V30 26949 C 2565.73 1.90984 -3.05046 0
M  V30 26950 C 2565.34 1.11869 -4.33808 0
M  V30 26951 C 2567.08 2.64067 -3.32369 0
M  V30 26952 C 2564.99 1.97435 -5.5747 0
M  V30 26953 H 2563.92 0.394349 -0.642654 0
M  V30 26954 H 2566.57 0.303898 -1.80966 0
M  V30 26955 H 2564.95 2.69168 -2.90455 0
M  V30 26956 H 2566.12 0.383762 -4.59199 0
M  V30 26957 H 2564.44 0.504179 -4.13336 0
M  V30 26958 H 2567.04 3.28415 -4.21957 0
M  V30 26959 H 2567.38 3.3231 -2.5075 0
M  V30 26960 H 2567.91 1.92938 -3.47879 0
M  V30 26961 H 2564.65 1.33681 -6.41724 0
M  V30 26962 H 2564.17 2.68631 -5.36281 0
M  V30 26963 H 2565.85 2.55749 -5.94307 0
M  V30 26964 N 2565.98 1.46745 0.574784 0
M  V30 26965 C 2566.93 1.58289 1.70433 0
M  V30 26966 C 2567.92 0.450985 1.63287 0
M  V30 26967 O 2569.13 0.62815 1.68684 0
M  V30 26968 H 2565.5 0.497819 0.563632 0
M  V30 26969 H 2567.48 2.53245 1.57828 0
M  V30 26970 C 2566.22 1.59781 3.08813 0
M  V30 26971 H 2565.55 2.4622 3.14985 0
M  V30 26972 H 2566.99 1.71912 3.87585 0
M  V30 26973 C 2565.45 0.327871 3.35301 0
M  V30 26974 O 2565.98 -0.57854 3.97512 0
M  V30 26975 N 2564.18 0.213325 2.89816 0
M  V30 26976 H 2563.73 0.95184 2.3937 0
M  V30 26977 H 2563.69 -0.635476 3.07911 0
M  V30 26978 N 2567.46 -0.820078 1.34583 0
M  V30 26979 C 2568.42 -1.91273 1.26283 0
M  V30 26980 C 2569.42 -1.59819 0.177372 0
M  V30 26981 O 2570.61 -1.68805 0.430186 0
M  V30 26982 C 2567.74 -3.27384 0.950385 0
M  V30 26983 H 2568.94 -2.00054 2.23425 0
M  V30 26984 H 2566.49 -1.01438 1.18912 0
M  V30 26985 H 2567.23 -3.24295 -0.0177368 0
M  V30 26986 H 2567.01 -3.51598 1.73556 0
M  V30 26987 H 2568.5 -4.07395 0.917564 0
M  V30 26988 N 2568.94 -1.18359 -1.04062 0
M  V30 26989 C 2570.16 -1.00448 -1.81452 0
M  V30 26990 C 2570.59 0.44239 -1.82824 0
M  V30 26991 O 2569.95 1.31739 -1.24557 0
M  V30 26992 C 2569.99 -1.5639 -3.24923 0
M  V30 26993 O 2569.1 -0.78528 -4.04854 0
M  V30 26994 H 2568.44 -0.355845 -0.560598 0
M  V30 26995 H 2570.97 -1.57116 -1.31056 0
M  V30 26996 H 2570.98 -1.59103 -3.757 0
M  V30 26997 H 2569.65 -2.61705 -3.23239 0
M  V30 26998 H 2568.23 -0.830462 -3.63535 0
M  V30 26999 N 2570.42 1.22976 -0.98563 0
M  V30 27000 C 2571.66 1.91531 -0.65742 0
M  V30 27001 C 2571.99 1.76846 0.809676 0
M  V30 27002 O 2571.25 1.12661 1.60019 0
M  V30 27003 C 2571.54 3.43119 -1.0002 0
M  V30 27004 C 2571.21 3.77988 -2.45837 0
M  V30 27005 C 2569.87 3.87217 -2.85686 0
M  V30 27006 C 2572.22 3.94699 -3.40385 0
M  V30 27007 C 2569.55 4.10588 -4.19088 0
M  V30 27008 C 2571.9 4.19572 -4.73437 0
M  V30 27009 C 2570.57 4.27023 -5.13038 0
M  V30 27010 H 2569.84 0.700863 -0.240567 0
M  V30 27011 H 2572.49 1.45893 -1.24046 0
M  V30 27012 H 2570.79 3.90364 -0.335141 0
M  V30 27013 H 2572.49 3.94403 -0.724391 0
M  V30 27014 H 2569.08 3.71383 -2.13945 0
M  V30 27015 H 2573.26 3.86955 -3.10773 0
M  V30 27016 H 2568.52 4.14581 -4.49369 0
M  V30 27017 H 2572.69 4.31446 -5.46651 0
M  V30 27018 H 2570.32 4.44885 -6.16426 0
M  V30 27019 N 2571.89 0.757924 1.38178 0
M  V30 27020 C 2573.14 0.312779 1.9926 0
M  V30 27021 C 2573.46 -1.11298 1.60848 0
M  V30 27022 O 2574.66 -1.65882 2.14932 0
M  V30 27023 C 2573.12 0.508272 3.56293 0
M  V30 27024 C 2572.73 1.9434 4.03653 0
M  V30 27025 C 2574.47 0.126057 4.24313 0
M  V30 27026 C 2572.38 2.08722 5.53343 0
M  V30 27027 H 2571.31 0.113198 0.745454 0
M  V30 27028 H 2573.96 0.935084 1.57887 0
M  V30 27029 H 2572.34 -0.183284 3.95576 0
M  V30 27030 H 2573.51 2.66878 3.7565 0
M  V30 27031 H 2571.83 2.28093 3.48372 0
M  V30 27032 H 2574.43 0.212219 5.34279 0
M  V30 27033 H 2574.77 -0.921893 4.05964 0
M  V30 27034 H 2575.3 0.769631 3.90284 0
M  V30 27035 H 2572.04 3.11787 5.76601 0
M  V30 27036 H 2571.56 1.4065 5.83076 0
M  V30 27037 H 2573.24 1.87923 6.19107 0
M  V30 27038 N 2573.37 -1.4921 0.507345 0
M  V30 27039 C 2574.65 -1.95353 -0.0982359 0
M  V30 27040 C 2575.03 -1.44903 -1.53513 0
M  V30 27041 O 2574.38 -0.665548 -2.18593 0
M  V30 27042 C 2574.59 -3.49 -0.00434148 0
M  V30 27043 C 2575.94 -4.24239 -0.175072 0
M  V30 27044 O 2576.96 -3.56112 -0.0792265 0
M  V30 27045 O 2575.82 -5.45228 -0.372664 0
M  V30 27046 H 2572.91 -0.821888 -0.0918091 0
M  V30 27047 H 2575.46 -1.59829 0.570335 0
M  V30 27048 H 2574.23 -3.78373 0.997468 0
M  V30 27049 H 2573.85 -3.91159 -0.712776 0
M  V30 27050 N 2574.85 -0.241454 -1.55739 0
M  V30 27051 C 2576.1 0.384041 -1.98418 0
M  V30 27052 C 2576.42 1.58864 -1.13081 0
M  V30 27053 O 2575.69 1.94746 -0.212346 0
M  V30 27054 H 2574.27 0.144881 -0.732815 0
M  V30 27055 H 2576.93 -0.338977 -1.9193 0
M  V30 27056 H 2576.03 0.696886 -3.0422 0
M  V30 27057 N 2576.33 1.57568 0.0317248 0
M  V30 27058 C 2577.56 1.93127 0.73385 0
M  V30 27059 C 2577.97 0.839382 1.69561 0
M  V30 27060 O 2577.31 -0.193143 1.82682 0
M  V30 27061 C 2577.37 3.24468 1.54792 0
M  V30 27062 C 2577.04 4.50783 0.751225 0
M  V30 27063 C 2578.03 5.19873 0.0526719 0
M  V30 27064 C 2575.72 4.97306 0.706552 0
M  V30 27065 C 2577.71 6.33764 -0.679885 0
M  V30 27066 C 2575.4 6.11093 -0.0297524 0
M  V30 27067 C 2576.4 6.79176 -0.721733 0
M  V30 27068 O 2576.08 7.90787 -1.44609 0
M  V30 27069 H 2575.82 0.642079 0.211448 0
M  V30 27070 H 2578.37 2.05399 -0.00589225 0
M  V30 27071 H 2576.6 3.08516 2.33142 0
M  V30 27072 H 2578.29 3.45374 2.13241 0
M  V30 27073 H 2579.06 4.84937 0.0782335 0
M  V30 27074 H 2574.93 4.44159 1.23466 0
M  V30 27075 H 2578.48 6.86839 -1.22055 0
M  V30 27076 H 2574.38 6.45475 -0.0572465 0
M  V30 27077 H 2575.14 8.07131 -1.35949 0
M  V30 27078 N 2577.81 -0.303946 1.54641 0
M  V30 27079 C 2579.22 -0.649437 1.45789 0
M  V30 27080 C 2579.42 -1.90841 0.646693 0
M  V30 27081 O 2578.48 -2.52035 0.153227 0
M  V30 27082 C 2579.79 -0.805176 2.8972 0
M  V30 27083 C 2581.34 -0.901252 2.99744 0
M  V30 27084 C 2581.81 -1.08901 4.44865 0
M  V30 27085 N 2583.31 -1.15529 4.48561 0
M  V30 27086 C 2584.04 -1.31881 5.58028 0
M  V30 27087 N 2583.54 -1.45149 6.77424 0
M  V30 27088 N 2585.33 -1.34745 5.45711 0
M  V30 27089 H 2577.48 0.523273 2.05853 0
M  V30 27090 H 2579.74 0.172447 0.932183 0
M  V30 27091 H 2579.45 0.0489726 3.51666 0
M  V30 27092 H 2579.32 -1.69507 3.36967 0
M  V30 27093 H 2581.71 -1.74589 2.37913 0
M  V30 27094 H 2581.79 0.0125981 2.55797 0
M  V30 27095 H 2581.44 -0.249152 5.07289 0
M  V30 27096 H 2581.37 -2.01704 4.86439 0
M  V30 27097 H 2583.86 -1.06639 3.62542 0
M  V30 27098 H 2584.17 -1.57373 7.56607 0
M  V30 27099 H 2582.51 -1.42211 6.80295 0
M  V30 27100 H 2585.71 -1.23988 4.51381 0
M  V30 27101 H 2585.88 -1.47146 6.31072 0
M  V30 27102 N 2579.28 -1.47047 -0.566994 0
M  V30 27103 C 2580.22 -1.54847 -1.68982 0
M  V30 27104 C 2581.23 -0.435459 -1.56868 0
M  V30 27105 O 2582.42 -0.704599 -1.64005 0
M  V30 27106 C 2579.52 -1.42748 -3.0737 0
M  V30 27107 C 2578.69 -2.68446 -3.45334 0
M  V30 27108 C 2577.75 -2.50322 -4.62845 0
M  V30 27109 O 2576.78 -3.24103 -4.67916 0
M  V30 27110 N 2577.98 -1.57509 -5.58723 0
M  V30 27111 H 2580.74 -2.51666 -1.6274 0
M  V30 27112 H 2578.3 -1.43303 -0.753385 0
M  V30 27113 H 2580.3 -1.28372 -3.838 0
M  V30 27114 H 2578.87 -0.540499 -3.07892 0
M  V30 27115 H 2578.09 -2.97653 -2.5845 0
M  V30 27116 H 2579.37 -3.51914 -3.6747 0
M  V30 27117 H 2578.77 -0.966974 -5.57374 0
M  V30 27118 H 2577.33 -1.49089 -6.3452 0
M  V30 27119 N 2580.76 0.812929 -1.35016 0
M  V30 27120 C 2581.69 1.93231 -1.23265 0
M  V30 27121 C 2582.71 1.62037 -0.157399 0
M  V30 27122 O 2583.9 1.73725 -0.410127 0
M  V30 27123 C 2581 3.27437 -0.873977 0
M  V30 27124 C 2580.17 3.86582 -2.04629 0
M  V30 27125 C 2579.23 4.99183 -1.66441 0
M  V30 27126 O 2578.25 5.16947 -2.38231 0
M  V30 27127 N 2579.46 5.77551 -0.58435 0
M  V30 27128 H 2582.22 2.0384 -2.19703 0
M  V30 27129 H 2579.78 0.990028 -1.28102 0
M  V30 27130 H 2581.77 4.00226 -0.60011 0
M  V30 27131 H 2580.34 3.126 0.000518972 0
M  V30 27132 H 2579.56 3.06064 -2.48432 0
M  V30 27133 H 2580.85 4.2283 -2.83006 0
M  V30 27134 H 2580.25 5.65699 0.0122532 0
M  V30 27135 H 2578.81 6.50748 -0.370244 0
M  V30 27136 N 2582.24 1.18909 1.03433 0
M  V30 27137 C 2583.19 0.921874 2.11589 0
M  V30 27138 C 2584.16 -0.141197 1.65499 0
M  V30 27139 O 2585.34 -0.000209291 1.908 0
M  V30 27140 C 2582.48 0.460676 3.42011 0
M  V30 27141 C 2581.6 1.58989 4.01679 0
M  V30 27142 C 2580.73 1.08078 5.20089 0
M  V30 27143 C 2579.77 2.18426 5.71801 0
M  V30 27144 N 2578.91 1.68861 6.81491 0
M  V30 27145 H 2583.75 1.84795 2.33784 0
M  V30 27146 H 2581.28 0.921393 1.14668 0
M  V30 27147 H 2583.24 0.174715 4.16834 0
M  V30 27148 H 2581.87 -0.42841 3.19945 0
M  V30 27149 H 2580.92 1.99119 3.24123 0
M  V30 27150 H 2582.24 2.42148 4.3608 0
M  V30 27151 H 2581.39 0.749721 6.0205 0
M  V30 27152 H 2580.13 0.218857 4.87209 0
M  V30 27153 H 2579.13 2.52368 4.88457 0
M  V30 27154 H 2580.36 3.05064 6.06723 0
M  V30 27155 H 2578.3 0.849686 6.50474 0
M  V30 27156 H 2578.22 2.45613 7.1499 0
M  V30 27157 H 2579.49 1.38702 7.67061 0
M  V30 27158 N 2583.72 -1.22452 0.992137 0
M  V30 27159 C 2584.68 -2.22579 0.546922 0
M  V30 27160 C 2585.68 -1.5649 -0.369802 0
M  V30 27161 O 2586.87 -1.73446 -0.161865 0
M  V30 27162 C 2584 -3.40285 -0.204599 0
M  V30 27163 H 2585.2 -2.63482 1.43239 0
M  V30 27164 H 2582.75 -1.35489 0.779263 0
M  V30 27165 H 2583.48 -3.04854 -1.10609 0
M  V30 27166 H 2583.27 -3.89467 0.453609 0
M  V30 27167 H 2584.76 -4.14544 -0.504285 0
M  V30 27168 N 2585.2 -0.765242 -1.37774 0
M  V30 27169 C 2586.43 -0.337313 -2.03828 0
M  V30 27170 C 2586.83 1.04318 -1.57843 0
M  V30 27171 O 2586.18 1.67599 -0.752073 0
M  V30 27172 C 2586.24 -0.29447 -3.58292 0
M  V30 27173 C 2585.9 -1.61846 -4.27382 0
M  V30 27174 C 2586.9 -2.56975 -4.51951 0
M  V30 27175 C 2584.59 -1.8911 -4.65341 0
M  V30 27176 C 2586.58 -3.7758 -5.13529 0
M  V30 27177 C 2584.27 -3.09987 -5.26642 0
M  V30 27178 C 2585.26 -4.04041 -5.50672 0
M  V30 27179 O 2584.95 -5.22791 -6.10692 0
M  V30 27180 H 2584.68 -0.14026 -0.661289 0
M  V30 27181 H 2587.24 -1.03837 -1.7722 0
M  V30 27182 H 2585.47 0.462916 -3.83919 0
M  V30 27183 H 2587.16 0.10551 -4.05763 0
M  V30 27184 H 2587.92 -2.3719 -4.23043 0
M  V30 27185 H 2583.8 -1.16732 -4.45976 0
M  V30 27186 H 2587.35 -4.51006 -5.32202 0
M  V30 27187 H 2583.24 -3.29659 -5.54973 0
M  V30 27188 H 2584.01 -5.23528 -6.29174 0
M  V30 27189 N 2586.67 1.48939 -0.515251 0
M  V30 27190 C 2587.92 2.01683 0.0261007 0
M  V30 27191 C 2588.24 1.39886 1.36716 0
M  V30 27192 O 2589.44 1.84041 1.99603 0
M  V30 27193 C 2587.9 3.59769 0.0969479 0
M  V30 27194 C 2587.51 4.30545 -1.23833 0
M  V30 27195 C 2589.25 4.20409 0.587908 0
M  V30 27196 C 2587.16 5.80526 -1.12887 0
M  V30 27197 H 2586.09 0.753879 0.0135266 0
M  V30 27198 H 2588.74 1.71342 -0.656817 0
M  V30 27199 H 2587.12 3.86888 0.844626 0
M  V30 27200 H 2588.29 4.15114 -2.00042 0
M  V30 27201 H 2586.61 3.81713 -1.66385 0
M  V30 27202 H 2589.21 5.30261 0.687537 0
M  V30 27203 H 2589.55 3.84732 1.59019 0
M  V30 27204 H 2590.08 3.97665 -0.103652 0
M  V30 27205 H 2586.82 6.20753 -2.10586 0
M  V30 27206 H 2586.34 5.98411 -0.407905 0
M  V30 27207 H 2588.02 6.41866 -0.813445 0
M  V30 27208 N 2588.15 0.249709 1.55609 0
M  V30 27209 C 2589.12 -0.635355 2.20218 0
M  V30 27210 C 2590.12 -1.10064 1.17229 0
M  V30 27211 O 2591.31 -1.0049 1.42294 0
M  V30 27212 C 2588.44 -1.87358 2.84798 0
M  V30 27213 H 2589.63 -0.0716225 2.99814 0
M  V30 27214 H 2587.18 0.000180708 1.563 0
M  V30 27215 H 2587.92 -2.47848 2.09146 0
M  V30 27216 H 2587.7 -1.54813 3.60243 0
M  V30 27217 H 2589.19 -2.50354 3.34234 0
M  V30 27218 N 2589.63 -1.57583 -0.0233682 0
M  V30 27219 C 2590.86 -1.93795 -0.724648 0
M  V30 27220 C 2591.27 -0.849942 -1.68587 0
M  V30 27221 O 2590.63 0.173172 -1.81677 0
M  V30 27222 C 2590.68 -3.29959 -1.47679 0
M  V30 27223 O 2590.4 -4.34581 -0.554145 0
M  V30 27224 C 2591.9 -3.80489 -2.27471 0
M  V30 27225 H 2589.12 -0.639459 -0.203306 0
M  V30 27226 H 2591.67 -2.04489 0.0208013 0
M  V30 27227 H 2589.82 -3.20645 -2.17407 0
M  V30 27228 H 2590.24 -5.13213 -1.08223 0
M  V30 27229 H 2591.71 -4.78259 -2.75631 0
M  V30 27230 H 2592.19 -3.11977 -3.09139 0
M  V30 27231 H 2592.79 -3.92905 -1.62806 0
M  V30 27232 N 2591.11 0.29574 -1.548 0
M  V30 27233 C 2592.04 1.38667 -1.82494 0
M  V30 27234 C 2593.05 1.46591 -0.70816 0
M  V30 27235 O 2594.24 1.48815 -0.985713 0
M  V30 27236 C 2591.34 2.76995 -1.95261 0
M  V30 27237 C 2590.52 2.9194 -3.25714 0
M  V30 27238 C 2589.58 4.108 -3.28831 0
M  V30 27239 O 2588.6 4.02636 -4.02335 0
M  V30 27240 N 2589.8 5.21689 -2.54599 0
M  V30 27241 H 2592.57 1.15264 -2.76648 0
M  V30 27242 H 2590.13 0.485822 -1.54439 0
M  V30 27243 H 2592.12 3.54764 -1.94742 0
M  V30 27244 H 2590.69 2.93322 -1.08078 0
M  V30 27245 H 2589.91 2.01241 -3.38963 0
M  V30 27246 H 2591.2 2.9884 -4.11791 0
M  V30 27247 H 2590.6 5.31204 -1.94522 0
M  V30 27248 H 2589.15 5.97773 -2.59828 0
M  V30 27249 N 2592.59 1.47346 0.559187 0
M  V30 27250 C 2593.84 1.53565 1.31385 0
M  V30 27251 C 2594.16 0.198712 1.93985 0
M  V30 27252 O 2593.43 -0.777135 1.79826 0
M  V30 27253 H 2592.01 0.56566 0.487891 0
M  V30 27254 H 2594.67 1.83631 0.653117 0
M  V30 27255 H 2593.76 2.30115 2.1084 0
M  V30 27256 N 2594.07 -0.805758 1.35445 0
M  V30 27257 C 2595.48 -1.37981 1.25771 0
M  V30 27258 C 2595.83 -1.95894 -0.109546 0
M  V30 27259 O 2594.95 -1.91357 -1.01053 0
M  V30 27260 C 2595.55 -2.50846 2.27732 0
M  V30 27261 C 2594.11 -3.04111 2.21796 0
M  V30 27262 C 2593.25 -1.7708 2.13396 0
M  V30 27263 H 2596.2 -0.608726 1.46561 0
M  V30 27264 H 2596.23 -3.2942 1.90427 0
M  V30 27265 H 2595.74 -2.08666 3.27231 0
M  V30 27266 H 2593.84 -3.50753 1.2571 0
M  V30 27267 H 2593.95 -3.62036 3.13794 0
M  V30 27268 H 2592.32 -1.98665 1.59387 0
M  V30 27269 H 2593.1 -1.3705 3.14757 0
M  V30 27270 N 2595.54 -1.19456 -1.02801 0
M  V30 27271 C 2596.47 -0.956795 -2.12997 0
M  V30 27272 C 2597.45 0.110159 -1.69743 0
M  V30 27273 O 2598.64 -0.0450379 -1.94148 0
M  V30 27274 C 2595.77 -0.495614 -3.43745 0
M  V30 27275 C 2594.72 -1.5045 -4.00685 0
M  V30 27276 C 2594.05 -0.900368 -5.27065 0
M  V30 27277 C 2595.35 -2.88498 -4.35392 0
M  V30 27278 H 2597.04 -1.8784 -2.33145 0
M  V30 27279 H 2594.59 -0.904559 -1.12043 0
M  V30 27280 H 2596.54 -0.316567 -4.20209 0
M  V30 27281 H 2595.27 0.461589 -3.23322 0
M  V30 27282 H 2593.93 -1.67071 -3.26317 0
M  V30 27283 H 2593.57 0.0644145 -5.02959 0
M  V30 27284 H 2593.27 -1.57407 -5.66124 0
M  V30 27285 H 2594.8 -0.732136 -6.06195 0
M  V30 27286 H 2596.21 -2.75455 -5.0279 0
M  V30 27287 H 2594.61 -3.52669 -4.85535 0
M  V30 27288 H 2595.68 -3.41087 -3.44656 0
M  V30 27289 N 2597.02 1.21924 -0.998617 0
M  V30 27290 C 2597.98 2.22286 -0.558718 0
M  V30 27291 C 2598.98 1.56684 0.361498 0
M  V30 27292 O 2600.17 1.7353 0.152665 0
M  V30 27293 C 2597.31 3.40389 0.18655 0
M  V30 27294 H 2598.5 2.62718 -1.44634 0
M  V30 27295 H 2596.05 1.35074 -0.786437 0
M  V30 27296 H 2596.79 3.05437 1.0899 0
M  V30 27297 H 2596.57 3.89221 -0.474257 0
M  V30 27298 H 2598.06 4.14806 0.482294 0
M  V30 27299 N 2598.5 0.772537 1.37367 0
M  V30 27300 C 2599.41 0.160122 2.34053 0
M  V30 27301 C 2600.43 -0.6787 1.60218 0
M  V30 27302 O 2601.6 -0.598436 1.92304 0
M  V30 27303 C 2598.67 -0.708122 3.39391 0
M  V30 27304 C 2597.73 0.147248 4.29047 0
M  V30 27305 C 2596.96 -0.679651 5.29355 0
M  V30 27306 O 2597.18 -1.91669 5.37233 0
M  V30 27307 O 2596.12 -0.0884386 6.01835 0
M  V30 27308 H 2599.94 0.959103 2.88158 0
M  V30 27309 H 2597.53 0.53371 1.39542 0
M  V30 27310 H 2599.41 -1.20377 4.03841 0
M  V30 27311 H 2598.09 -1.48528 2.87613 0
M  V30 27312 H 2596.99 0.68927 3.67695 0
M  V30 27313 H 2598.33 0.887508 4.84132 0
M  V30 27314 N 2599.98 -1.48664 0.523142 0
M  V30 27315 C 2601.21 -2.06898 -0.00959483 0
M  V30 27316 C 2601.62 -1.38061 -1.28781 0
M  V30 27317 O 2600.98 -0.465924 -1.76452 0
M  V30 27318 C 2601.03 -3.60673 -0.244323 0
M  V30 27319 O 2600.75 -4.26924 0.983247 0
M  V30 27320 C 2602.25 -4.35684 -0.818212 0
M  V30 27321 H 2599.47 -0.67031 0.0304278 0
M  V30 27322 H 2602.01 -1.91148 0.726832 0
M  V30 27323 H 2600.17 -3.76052 -0.930781 0
M  V30 27324 H 2600.58 -5.18968 0.759744 0
M  V30 27325 H 2602.06 -5.44077 -0.931914 0
M  V30 27326 H 2602.53 -3.99649 -1.82146 0
M  V30 27327 H 2603.14 -4.24966 -0.168534 0
M  V30 27328 N 2601.46 -0.257958 -1.55475 0
M  V30 27329 C 2602.68 0.367524 -2.0361 0
M  V30 27330 C 2603.1 1.50732 -1.1369 0
M  V30 27331 O 2602.46 1.81853 -0.153511 0
M  V30 27332 C 2602.51 0.864846 -3.51002 0
M  V30 27333 O 2602.23 -0.229542 -4.37498 0
M  V30 27334 C 2603.73 1.55989 -4.14948 0
M  V30 27335 H 2600.95 0.0860404 -0.665461 0
M  V30 27336 H 2603.49 -0.385049 -2.00842 0
M  V30 27337 H 2601.65 1.56756 -3.54269 0
M  V30 27338 H 2602.06 0.149888 -5.24286 0
M  V30 27339 H 2603.54 1.85947 -5.19738 0
M  V30 27340 H 2604.01 2.48564 -3.62095 0
M  V30 27341 H 2604.62 0.90147 -4.15636 0
M  V30 27342 N 2602.93 1.57593 0.0150108 0
M  V30 27343 C 2603.84 2.10884 1.02787 0
M  V30 27344 C 2604.86 1.05063 1.387 0
M  V30 27345 O 2606.04 1.36879 1.47736 0
M  V30 27346 C 2603.1 2.58923 2.30564 0
M  V30 27347 C 2602.16 3.79284 2.01102 0
M  V30 27348 C 2601.4 4.25023 3.22786 0
M  V30 27349 O 2601.62 3.70191 4.33953 0
M  V30 27350 O 2600.55 5.17327 3.07662 0
M  V30 27351 H 2604.38 2.97615 0.604921 0
M  V30 27352 H 2601.96 1.47574 0.232894 0
M  V30 27353 H 2603.85 2.90089 3.05657 0
M  V30 27354 H 2602.52 1.75297 2.72126 0
M  V30 27355 H 2601.43 3.53116 1.23531 0
M  V30 27356 H 2602.76 4.63938 1.64386 0
M  V30 27357 N 2604.41 -0.287527 1.54955 0
M  V30 27358 C 2605.69 -1.04143 1.6557 0
M  V30 27359 C 2606.07 -2.04779 0.512708 0
M  V30 27360 O 2605.42 -2.23206 -0.488999 0
M  V30 27361 C 2605.63 -1.71125 3.04166 0
M  V30 27362 C 2606.98 -2.22826 3.61433 0
M  V30 27363 O 2608 -1.81136 3.06705 0
M  V30 27364 O 2606.86 -2.99252 4.57286 0
M  V30 27365 H 2603.95 -0.482176 0.671889 0
M  V30 27366 H 2606.5 -0.284541 1.67298 0
M  V30 27367 H 2605.27 -0.981236 3.78797 0
M  V30 27368 H 2604.89 -2.53537 3.06275 0
M  V30 27369 N 2605.89 -1.47641 -0.551365 0
M  V30 27370 C 2607.14 -1.54565 -1.30827 0
M  V30 27371 C 2607.47 -0.210395 -1.93359 0
M  V30 27372 O 2606.72 0.797301 -1.78722 0
M  V30 27373 C 2607.02 -2.61649 -2.43464 0
M  V30 27374 C 2606.69 -4.04746 -1.98725 0
M  V30 27375 C 2605.35 -4.43698 -1.86241 0
M  V30 27376 C 2607.7 -4.94509 -1.64651 0
M  V30 27377 C 2605.03 -5.70243 -1.37985 0
M  V30 27378 C 2607.38 -6.21523 -1.17864 0
M  V30 27379 C 2606.04 -6.59352 -1.0398 0
M  V30 27380 H 2605.31 -0.565595 -0.478731 0
M  V30 27381 H 2607.96 -1.81265 -0.617665 0
M  V30 27382 H 2606.27 -2.28727 -3.18105 0
M  V30 27383 H 2607.96 -2.64228 -3.01637 0
M  V30 27384 H 2604.55 -3.73972 -2.09387 0
M  V30 27385 H 2608.74 -4.6511 -1.73166 0
M  V30 27386 H 2603.99 -5.98296 -1.25904 0
M  V30 27387 H 2608.17 -6.90486 -0.905618 0
M  V30 27388 H 2605.79 -7.57298 -0.663661 0
M  V30 27389 N 2607.37 0.798563 -1.3587 0
M  V30 27390 C 2608.61 1.55773 -1.30791 0
M  V30 27391 C 2608.97 1.92059 0.114525 0
M  V30 27392 O 2608.26 1.59149 1.06688 0
M  V30 27393 C 2608.46 2.85073 -2.15565 0
M  V30 27394 C 2608.29 2.61422 -3.65908 0
M  V30 27395 C 2607.06 2.56908 -4.35117 0
M  V30 27396 C 2609.25 2.31247 -4.59379 0
M  V30 27397 N 2607.24 2.25058 -5.71159 0
M  V30 27398 C 2608.61 2.09306 -5.83602 0
M  V30 27399 C 2610.66 2.17177 -4.48039 0
M  V30 27400 C 2609.36 1.74719 -6.97758 0
M  V30 27401 C 2611.39 1.83988 -5.62052 0
M  V30 27402 C 2610.75 1.62888 -6.85308 0
M  V30 27403 H 2606.85 0.571412 -0.533865 0
M  V30 27404 H 2609.44 0.934049 -1.70832 0
M  V30 27405 H 2607.61 3.45323 -1.77782 0
M  V30 27406 H 2609.34 3.50715 -2.01944 0
M  V30 27407 H 2606.09 2.71836 -3.87817 0
M  V30 27408 H 2606.52 2.11905 -6.42982 0
M  V30 27409 H 2611.16 2.32184 -3.53342 0
M  V30 27410 H 2608.88 1.5845 -7.92414 0
M  V30 27411 H 2612.46 1.73798 -5.55235 0
M  V30 27412 H 2611.34 1.37582 -7.72037 0
M  V30 27413 N 2608.85 1.19999 1.02166 0
M  V30 27414 C 2610.26 0.95376 1.27967 0
M  V30 27415 C 2610.46 -0.369668 1.9808 0
M  V30 27416 O 2609.52 -1.09943 2.27308 0
M  V30 27417 C 2610.83 2.13285 2.11967 0
M  V30 27418 C 2612.38 2.17327 2.25251 0
M  V30 27419 C 2612.85 3.34708 3.12626 0
M  V30 27420 N 2614.35 3.34689 3.20214 0
M  V30 27421 C 2615.08 4.2216 3.88032 0
M  V30 27422 N 2614.58 5.19799 4.58018 0
M  V30 27423 N 2616.37 4.10016 3.84504 0
M  V30 27424 H 2608.52 2.05135 0.550758 0
M  V30 27425 H 2610.78 0.897369 0.305667 0
M  V30 27426 H 2610.49 3.091 1.6778 0
M  V30 27427 H 2610.36 2.10954 3.12695 0
M  V30 27428 H 2612.75 1.22078 2.68665 0
M  V30 27429 H 2612.83 2.23709 1.24049 0
M  V30 27430 H 2612.48 4.3024 2.69918 0
M  V30 27431 H 2612.41 3.25563 4.13904 0
M  V30 27432 H 2614.9 2.64017 2.70377 0
M  V30 27433 H 2615.21 5.82877 5.07419 0
M  V30 27434 H 2613.55 5.23741 4.5686 0
M  V30 27435 H 2616.75 3.33009 3.28972 0
M  V30 27436 H 2616.92 4.78397 4.37082 0
M  V30 27437 N 2610.32 -1.21392 1.00507 0
M  V30 27438 C 2611.26 -2.2242 0.510359 0
M  V30 27439 C 2612.24 -1.56646 -0.435972 0
M  V30 27440 O 2613.42 -1.85056 -0.358677 0
M  V30 27441 C 2610.55 -3.37711 -0.258673 0
M  V30 27442 C 2609.59 -4.21739 0.635469 0
M  V30 27443 S 2610.43 -4.92694 2.09792 0
M  V30 27444 C 2611.58 -6.11416 1.33872 0
M  V30 27445 H 2611.81 -2.64039 1.36641 0
M  V30 27446 H 2609.35 -1.31261 0.813014 0
M  V30 27447 H 2611.31 -4.04551 -0.696301 0
M  V30 27448 H 2609.97 -2.94575 -1.09015 0
M  V30 27449 H 2609.16 -5.03982 0.0431075 0
M  V30 27450 H 2608.76 -3.60094 1.01038 0
M  V30 27451 H 2611.05 -6.74724 0.61266 0
M  V30 27452 H 2612 -6.75088 2.13686 0
M  V30 27453 H 2612.4 -5.58115 0.846666 0
M  V30 27454 N 2611.8 -0.779811 -1.36955 0
M  V30 27455 C 2612.73 -0.185692 -2.3276 0
M  V30 27456 C 2613.71 0.673961 -1.56179 0
M  V30 27457 O 2614.9 0.609765 -1.84379 0
M  V30 27458 C 2612.03 0.687904 -3.40419 0
M  V30 27459 C 2610.98 -0.0710854 -4.27941 0
M  V30 27460 C 2610.31 0.92248 -5.26682 0
M  V30 27461 C 2611.61 -1.25476 -5.07004 0
M  V30 27462 H 2613.3 -0.986058 -2.82696 0
M  V30 27463 H 2610.85 -0.475616 -1.35919 0
M  V30 27464 H 2612.8 1.1134 -4.06425 0
M  V30 27465 H 2611.53 1.52088 -2.89028 0
M  V30 27466 H 2610.18 -0.477454 -3.63478 0
M  V30 27467 H 2609.83 1.75022 -4.71568 0
M  V30 27468 H 2609.53 0.419134 -5.86103 0
M  V30 27469 H 2611.06 1.34675 -5.95563 0
M  V30 27470 H 2612.47 -0.9055 -5.66104 0
M  V30 27471 H 2610.87 -1.69074 -5.7579 0
M  V30 27472 H 2611.94 -2.05489 -4.39207 0
M  V30 27473 N 2613.28 1.48384 -0.531019 0
M  V30 27474 C 2614.53 2.03399 -0.00542228 0
M  V30 27475 C 2614.88 1.40075 1.31896 0
M  V30 27476 O 2614.17 0.537709 1.839 0
M  V30 27477 C 2614.37 3.56983 0.172679 0
M  V30 27478 C 2614.2 4.35196 -1.13289 0
M  V30 27479 C 2612.97 4.76093 -1.69304 0
M  V30 27480 C 2615.17 4.71948 -2.04375 0
M  V30 27481 N 2613.15 5.38846 -2.94139 0
M  V30 27482 C 2614.52 5.34732 -3.13787 0
M  V30 27483 C 2616.57 4.5388 -2.04689 0
M  V30 27484 C 2615.28 5.81356 -4.23578 0
M  V30 27485 C 2617.3 5.01485 -3.13475 0
M  V30 27486 C 2616.66 5.64295 -4.21605 0
M  V30 27487 H 2612.76 0.780789 -0.0435082 0
M  V30 27488 H 2615.35 1.81194 -0.712527 0
M  V30 27489 H 2613.52 3.7901 0.84887 0
M  V30 27490 H 2615.25 3.98636 0.697976 0
M  V30 27491 H 2612.01 4.57233 -1.2343 0
M  V30 27492 H 2612.43 5.74788 -3.57699 0
M  V30 27493 H 2617.07 4.047 -1.22385 0
M  V30 27494 H 2614.79 6.29541 -5.0666 0
M  V30 27495 H 2618.38 4.89294 -3.14773 0
M  V30 27496 H 2617.26 6.00463 -5.04395 0
M  V30 27497 N 2614.76 0.2662 1.55336 0
M  V30 27498 C 2615.67 -0.635418 2.25831 0
M  V30 27499 C 2616.68 -1.17747 1.28108 0
M  V30 27500 O 2617.86 -1.20965 1.61026 0
M  V30 27501 C 2614.93 -1.80706 2.95882 0
M  V30 27502 C 2613.99 -1.30257 4.09062 0
M  V30 27503 C 2613.22 -2.41838 4.75763 0
M  V30 27504 O 2613.44 -3.60999 4.41628 0
M  V30 27505 O 2612.38 -2.105 5.63891 0
M  V30 27506 H 2616.2 -0.0646159 3.03631 0
M  V30 27507 H 2613.79 0.033944 1.49361 0
M  V30 27508 H 2615.67 -2.49041 3.39936 0
M  V30 27509 H 2614.34 -2.36512 2.21006 0
M  V30 27510 H 2613.25 -0.585954 3.69483 0
M  V30 27511 H 2614.58 -0.790373 4.85813 0
M  V30 27512 N 2616.24 -1.57599 -0.0066531 0
M  V30 27513 C 2617.18 -2.09117 -1.01847 0
M  V30 27514 C 2618.18 -1.00971 -1.36019 0
M  V30 27515 O 2619.38 -1.19442 -1.34661 0
M  V30 27516 H 2615.76 -0.667637 -0.346071 0
M  V30 27517 H 2617.73 -2.9313 -0.558343 0
M  V30 27518 C 2616.48 -2.60433 -2.3037 0
M  V30 27519 H 2615.8 -3.43277 -2.04941 0
M  V30 27520 H 2617.24 -3.00166 -2.9946 0
M  V30 27521 C 2615.7 -1.51548 -3.0089 0
M  V30 27522 O 2616.23 -0.894553 -3.91613 0
M  V30 27523 N 2614.44 -1.24455 -2.62601 0
M  V30 27524 H 2613.98 -1.75133 -1.88908 0
M  V30 27525 H 2613.94 -0.518192 -3.101 0
M  V30 27526 N 2617.72 0.279305 -1.55105 0
M  V30 27527 C 2618.66 1.36502 -1.88335 0
M  V30 27528 C 2619.66 1.51441 -0.75907 0
M  V30 27529 O 2620.86 1.53301 -0.943339 0
M  V30 27530 H 2617.24 0.456395 -0.597668 0
M  V30 27531 H 2619.21 1.05723 -2.79043 0
M  V30 27532 C 2617.96 2.71966 -2.16633 0
M  V30 27533 H 2617.28 2.61259 -3.02628 0
M  V30 27534 H 2618.72 3.4689 -2.43809 0
M  V30 27535 C 2617.18 3.22578 -0.971864 0
M  V30 27536 O 2617.71 4.01185 -0.203298 0
M  V30 27537 N 2615.92 2.80178 -0.771287 0
M  V30 27538 H 2615.46 2.16368 -1.39796 0
M  V30 27539 H 2615.42 3.14389 0.0263114 0
M  V30 27540 N 2619.19 1.47931 0.543528 0
M  V30 27541 C 2620.42 1.59147 1.32992 0
M  V30 27542 C 2620.84 0.246989 1.86471 0
M  V30 27543 O 2620.2 -0.779295 1.63697 0
M  V30 27544 C 2620.25 2.63082 2.46618 0
M  V30 27545 O 2619.35 2.19301 3.49257 0
M  V30 27546 H 2618.69 0.534131 0.394462 0
M  V30 27547 H 2621.22 1.93817 0.655455 0
M  V30 27548 H 2621.23 2.83932 2.92996 0
M  V30 27549 H 2619.91 3.60697 2.07053 0
M  V30 27550 H 2618.49 2.08608 3.09091 0
M  V30 27551 N 2620.67 -0.791347 1.36292 0
M  V30 27552 C 2621.9 -1.58013 1.33564 0
M  V30 27553 C 2622.31 -1.88615 -0.0835285 0
M  V30 27554 O 2621.67 -1.49976 -1.03988 0
M  V30 27555 C 2621.72 -2.90229 2.15522 0
M  V30 27556 O 2621.44 -2.60946 3.51907 0
M  V30 27557 C 2622.94 -3.8454 2.20553 0
M  V30 27558 H 2620.16 -0.490165 0.458235 0
M  V30 27559 H 2622.71 -0.982314 1.79362 0
M  V30 27560 H 2620.86 -3.46484 1.73284 0
M  V30 27561 H 2621.28 -3.45474 3.9465 0
M  V30 27562 H 2622.75 -4.74377 2.8226 0
M  V30 27563 H 2623.23 -4.22248 1.20845 0
M  V30 27564 H 2623.83 -3.34218 2.63018 0
M  V30 27565 N 2622.15 -1.2054 -1.01528 0
M  V30 27566 C 2623.4 -1.0106 -1.74556 0
M  V30 27567 C 2623.71 0.457723 -1.90169 0
M  V30 27568 O 2624.92 0.771676 -2.60303 0
M  V30 27569 C 2623.37 -1.75946 -3.1396 0
M  V30 27570 C 2622.98 -3.2688 -3.06355 0
M  V30 27571 C 2624.73 -1.64839 -3.91188 0
M  V30 27572 C 2622.63 -3.94299 -4.40775 0
M  V30 27573 H 2621.56 -0.374517 -0.654411 0
M  V30 27574 H 2624.21 -1.44173 -1.13518 0
M  V30 27575 H 2622.6 -1.2562 -3.75547 0
M  V30 27576 H 2623.77 -3.8443 -2.54068 0
M  V30 27577 H 2622.08 -3.38415 -2.42619 0
M  V30 27578 H 2624.68 -2.12548 -4.9064 0
M  V30 27579 H 2625.02 -0.604818 -4.11883 0
M  V30 27580 H 2625.56 -2.12585 -3.36233 0
M  V30 27581 H 2622.3 -4.98813 -4.25283 0
M  V30 27582 H 2621.82 -3.41538 -4.93064 0
M  V30 27583 H 2623.5 -3.98626 -5.09614 0
M  V30 27584 N 2623.63 1.20858 -1.01149 0
M  V30 27585 C 2624.87 1.90375 -0.698932 0
M  V30 27586 C 2625.21 1.78325 0.769009 0
M  V30 27587 O 2624.48 1.16412 1.55815 0
M  V30 27588 C 2624.76 3.41949 -1.12884 0
M  V30 27589 C 2624.62 3.62958 -2.65672 0
M  V30 27590 C 2625.94 4.34559 -0.69619 0
M  V30 27591 H 2623.06 0.691338 -0.255384 0
M  V30 27592 H 2625.7 1.42359 -1.25833 0
M  V30 27593 H 2623.85 3.82975 -0.652894 0
M  V30 27594 H 2625.52 3.31218 -3.2108 0
M  V30 27595 H 2623.76 3.06602 -3.06883 0
M  V30 27596 H 2624.43 4.69187 -2.90805 0
M  V30 27597 H 2626.91 4.01152 -1.10528 0
M  V30 27598 H 2625.79 5.39243 -1.02509 0
M  V30 27599 H 2626.05 4.40265 0.402388 0
M  V30 27600 N 2625.11 0.787064 1.3654 0
M  V30 27601 C 2626.35 0.358907 1.99599 0
M  V30 27602 C 2626.68 -1.06603 1.62325 0
M  V30 27603 O 2625.96 -1.73611 0.876889 0
M  V30 27604 C 2626.24 0.520006 3.56326 0
M  V30 27605 C 2626.1 1.98846 4.0346 0
M  V30 27606 C 2627.41 -0.0663964 4.4005 0
M  V30 27607 H 2624.53 0.131882 0.725104 0
M  V30 27608 H 2627.18 0.992964 1.61988 0
M  V30 27609 H 2625.33 -0.0197638 3.88495 0
M  V30 27610 H 2627 2.58911 3.81789 0
M  V30 27611 H 2625.24 2.4919 3.55087 0
M  V30 27612 H 2625.91 2.05216 5.12436 0
M  V30 27613 H 2628.39 0.394339 4.14227 0
M  V30 27614 H 2627.26 0.0763647 5.48847 0
M  V30 27615 H 2627.52 -1.15827 4.26657 0
M  V30 27616 N 2626.58 -1.48101 0.53888 0
M  V30 27617 C 2627.52 -2.26639 -0.266455 0
M  V30 27618 C 2628.49 -1.32898 -0.936847 0
M  V30 27619 O 2629.68 -1.62254 -0.959478 0
M  V30 27620 C 2626.81 -3.09397 -1.37809 0
M  V30 27621 C 2625.85 -4.18579 -0.818174 0
M  V30 27622 S 2626.68 -5.34537 0.320942 0
M  V30 27623 C 2627.84 -6.20857 -0.79295 0
M  V30 27624 H 2628.07 -2.94596 0.400046 0
M  V30 27625 H 2625.61 -1.50944 0.324835 0
M  V30 27626 H 2627.56 -3.57653 -2.01482 0
M  V30 27627 H 2626.23 -2.40837 -2.01635 0
M  V30 27628 H 2625.42 -4.76143 -1.65238 0
M  V30 27629 H 2625.02 -3.73109 -0.257971 0
M  V30 27630 H 2627.31 -6.56096 -1.68949 0
M  V30 27631 H 2628.26 -7.0764 -0.25508 0
M  V30 27632 H 2628.66 -5.54124 -1.07736 0
M  V30 27633 N 2628.06 -0.274434 -1.55192 0
M  V30 27634 C 2628.99 0.606993 -2.25473 0
M  V30 27635 C 2629.97 1.15944 -1.24463 0
M  V30 27636 O 2631.16 1.1937 -1.53181 0
M  V30 27637 C 2628.29 1.79147 -2.97529 0
M  V30 27638 C 2627.24 1.37059 -4.05461 0
M  V30 27639 C 2626.57 2.63812 -4.65089 0
M  V30 27640 C 2627.87 0.521298 -5.19692 0
M  V30 27641 H 2629.56 0.0208817 -2.99393 0
M  V30 27642 H 2627.11 0.00860334 -1.43997 0
M  V30 27643 H 2629.06 2.41398 -3.45406 0
M  V30 27644 H 2627.78 2.4034 -2.21143 0
M  V30 27645 H 2626.44 0.771292 -3.58395 0
M  V30 27646 H 2626.09 3.23262 -3.85371 0
M  V30 27647 H 2625.79 2.36363 -5.37965 0
M  V30 27648 H 2627.32 3.26912 -5.15714 0
M  V30 27649 H 2628.73 1.04879 -5.63625 0
M  V30 27650 H 2627.13 0.34172 -5.99126 0
M  V30 27651 H 2628.2 -0.460085 -4.82712 0
M  V30 27652 N 2629.54 1.576 -0.00170483 0
M  V30 27653 C 2630.77 1.94923 0.693725 0
M  V30 27654 C 2631.18 0.876655 1.67213 0
M  V30 27655 O 2630.54 -0.144247 1.81929 0
M  V30 27656 C 2630.59 3.32267 1.42411 0
M  V30 27657 O 2630.31 4.35408 0.484937 0
M  V30 27658 C 2631.81 3.8406 2.21389 0
M  V30 27659 H 2629.03 0.642612 0.193107 0
M  V30 27660 H 2631.58 2.0443 -0.0533311 0
M  V30 27661 H 2629.73 3.24063 2.12278 0
M  V30 27662 H 2630.15 5.1487 1.00044 0
M  V30 27663 H 2631.62 4.82583 2.67988 0
M  V30 27664 H 2632.1 3.16856 3.04136 0
M  V30 27665 H 2632.7 3.95445 1.56535 0
M  V30 27666 N 2631.02 -0.271076 1.55251 0
M  V30 27667 C 2631.96 -1.33513 1.88263 0
M  V30 27668 C 2632.93 -1.48986 0.734322 0
M  V30 27669 O 2634.12 -1.63362 0.985769 0
M  V30 27670 C 2631.26 -2.69004 2.16173 0
M  V30 27671 C 2630.37 -2.61737 3.43683 0
M  V30 27672 C 2629.51 -3.8942 3.61283 0
M  V30 27673 C 2628.55 -3.76671 4.82478 0
M  V30 27674 N 2627.68 -4.96193 4.96726 0
M  V30 27675 H 2632.52 -1.0466 2.79017 0
M  V30 27676 H 2630.06 -0.505594 1.38138 0
M  V30 27677 H 2632.02 -3.4784 2.30355 0
M  V30 27678 H 2630.65 -2.96055 1.28652 0
M  V30 27679 H 2629.7 -1.74601 3.37962 0
M  V30 27680 H 2631.01 -2.48217 4.32654 0
M  V30 27681 H 2630.17 -4.76697 3.75293 0
M  V30 27682 H 2628.91 -4.05809 2.705 0
M  V30 27683 H 2627.91 -2.87777 4.6847 0
M  V30 27684 H 2629.14 -3.61799 5.74698 0
M  V30 27685 H 2627.08 -5.12989 4.08874 0
M  V30 27686 H 2627 -4.85212 5.79746 0
M  V30 27687 H 2628.27 -5.85037 5.15123 0
M  V30 27688 N 2632.5 -1.48217 -0.535675 0
M  V30 27689 C 2633.43 -1.65207 -1.65012 0
M  V30 27690 C 2634.41 -0.50104 -1.62553 0
M  V30 27691 O 2635.59 -0.732917 -1.79839 0
M  V30 27692 C 2632.72 -1.68631 -3.03613 0
M  V30 27693 C 2631.68 -2.83178 -3.20927 0
M  V30 27694 C 2631 -2.71687 -4.60532 0
M  V30 27695 C 2632.3 -4.2454 -3.04242 0
M  V30 27696 H 2634 -2.58505 -1.51048 0
M  V30 27697 H 2631.54 -1.24404 -0.72524 0
M  V30 27698 H 2633.5 -1.79106 -3.81443 0
M  V30 27699 H 2632.22 -0.719082 -3.18586 0
M  V30 27700 H 2630.88 -2.72249 -2.45512 0
M  V30 27701 H 2630.53 -1.72946 -4.72333 0
M  V30 27702 H 2630.23 -3.48547 -4.73063 0
M  V30 27703 H 2631.75 -2.84121 -5.4047 0
M  V30 27704 H 2633.16 -4.36332 -3.71869 0
M  V30 27705 H 2631.56 -5.02354 -3.28269 0
M  V30 27706 H 2632.63 -4.41401 -2.00732 0
M  V30 27707 N 2633.97 0.784108 -1.3671 0
M  V30 27708 C 2635.39 1.08292 -1.17239 0
M  V30 27709 C 2635.59 2.015 -9.48134e-05 0
M  V30 27710 O 2634.65 2.43623 0.663643 0
M  V30 27711 C 2635.96 1.69229 -2.4856 0
M  V30 27712 C 2637.51 1.81545 -2.54971 0
M  V30 27713 C 2637.98 2.45897 -3.86392 0
M  V30 27714 N 2639.47 2.5336 -3.87767 0
M  V30 27715 C 2640.21 3.03974 -4.86197 0
M  V30 27716 N 2639.7 3.54855 -5.95021 0
M  V30 27717 N 2641.5 3.02735 -4.73612 0
M  V30 27718 H 2633.65 0.164973 -2.11758 0
M  V30 27719 H 2635.91 0.135805 -0.938222 0
M  V30 27720 H 2635.62 1.0821 -3.34639 0
M  V30 27721 H 2635.49 2.68674 -2.64753 0
M  V30 27722 H 2637.88 2.41701 -1.69306 0
M  V30 27723 H 2637.96 0.808908 -2.42673 0
M  V30 27724 H 2637.6 1.86384 -4.72465 0
M  V30 27725 H 2637.53 3.47133 -3.95988 0
M  V30 27726 H 2640.02 2.17337 -3.09149 0
M  V30 27727 H 2640.34 3.91842 -6.66093 0
M  V30 27728 H 2638.68 3.52993 -5.98683 0
M  V30 27729 H 2641.87 2.62277 -3.87722 0
M  V30 27730 H 2642.05 3.41872 -5.50479 0
M  V30 27731 N 2635.45 1.21076 1.00888 0
M  V30 27732 C 2636.36 0.982462 2.13037 0
M  V30 27733 C 2637.38 -0.0641856 1.73882 0
M  V30 27734 O 2638.55 0.124996 2.01012 0
M  V30 27735 C 2635.62 0.545864 3.42376 0
M  V30 27736 C 2634.68 1.66427 3.95728 0
M  V30 27737 C 2633.91 1.24841 5.18893 0
M  V30 27738 O 2634.14 0.120365 5.70273 0
M  V30 27739 O 2633.07 2.05883 5.65593 0
M  V30 27740 H 2636.9 1.92167 2.35171 0
M  V30 27741 H 2634.48 0.995305 1.11418 0
M  V30 27742 H 2636.36 0.311986 4.20244 0
M  V30 27743 H 2635.04 -0.364671 3.21639 0
M  V30 27744 H 2633.95 1.95251 3.19105 0
M  V30 27745 H 2635.28 2.55209 4.20867 0
M  V30 27746 N 2636.93 -1.2032 1.01789 0
M  V30 27747 C 2637.86 -2.21866 0.533921 0
M  V30 27748 C 2638.84 -1.571 -0.419333 0
M  V30 27749 O 2640.03 -1.85426 -0.339029 0
M  V30 27750 C 2637.15 -3.37966 -0.22284 0
M  V30 27751 C 2636.2 -4.21042 0.680165 0
M  V30 27752 S 2637.03 -4.90441 2.15006 0
M  V30 27753 C 2638.19 -6.09961 1.4035 0
M  V30 27754 H 2638.42 -2.62575 1.39434 0
M  V30 27755 H 2635.95 -1.30391 0.82689 0
M  V30 27756 H 2637.91 -4.05267 -0.653354 0
M  V30 27757 H 2636.57 -2.95715 -1.05885 0
M  V30 27758 H 2635.77 -5.03907 0.096559 0
M  V30 27759 H 2635.37 -3.59002 1.04851 0
M  V30 27760 H 2637.66 -6.74036 0.684189 0
M  V30 27761 H 2638.6 -6.72784 2.20835 0
M  V30 27762 H 2639.01 -5.57185 0.905814 0
M  V30 27763 N 2638.41 -0.794293 -1.3612 0
M  V30 27764 C 2639.66 -0.368211 -1.98717 0
M  V30 27765 C 2639.98 1.06503 -1.63347 0
M  V30 27766 O 2639.25 1.73489 -0.909856 0
M  V30 27767 H 2637.83 -0.133159 -0.735036 0
M  V30 27768 H 2640.49 -1.01741 -1.66237 0
M  V30 27769 H 2639.59 -0.463977 -3.08632 0
M  V30 27770 N 2639.89 1.47813 -0.546727 0
M  V30 27771 C 2641.3 1.58268 -0.205745 0
M  V30 27772 C 2641.5 1.54669 1.2915 0
M  V30 27773 O 2640.56 1.44456 2.07096 0
M  V30 27774 C 2641.87 2.89215 -0.823116 0
M  V30 27775 C 2643.42 3.02778 -0.793381 0
M  V30 27776 C 2643.89 4.3641 -1.38963 0
M  V30 27777 N 2645.39 4.43019 -1.35234 0
M  V30 27778 C 2646.12 5.4496 -1.78342 0
M  V30 27779 N 2645.62 6.53768 -2.29257 0
M  V30 27780 N 2647.41 5.35942 -1.69477 0
M  V30 27781 H 2639.56 1.48396 -1.51962 0
M  V30 27782 H 2641.82 0.70562 -0.633091 0
M  V30 27783 H 2641.53 2.97554 -1.87495 0
M  V30 27784 H 2641.4 3.75924 -0.309981 0
M  V30 27785 H 2643.79 2.94041 0.249732 0
M  V30 27786 H 2643.87 2.17637 -1.34416 0
M  V30 27787 H 2643.52 4.45901 -2.43176 0
M  V30 27788 H 2643.45 5.20265 -0.814383 0
M  V30 27789 H 2645.94 3.64977 -0.979804 0
M  V30 27790 H 2646.25 7.27714 -2.60102 0
M  V30 27791 H 2644.59 6.54686 -2.33262 0
M  V30 27792 H 2647.79 4.49835 -1.29485 0
M  V30 27793 H 2647.96 6.15253 -2.03392 0
M  V30 27794 N 2641.36 0.28266 1.55044 0
M  V30 27795 C 2642.27 -0.61143 2.26492 0
M  V30 27796 C 2643.29 -1.16381 1.2935 0
M  V30 27797 O 2644.47 -1.1925 1.623 0
M  V30 27798 C 2641.53 -1.77558 2.97782 0
M  V30 27799 C 2640.59 -1.25911 4.1042 0
M  V30 27800 C 2639.83 -2.36778 4.78301 0
M  V30 27801 O 2640.05 -3.56295 4.45432 0
M  V30 27802 O 2638.98 -2.04507 5.66092 0
M  V30 27803 H 2642.81 -0.0324082 3.03683 0
M  V30 27804 H 2640.39 0.0497838 1.49317 0
M  V30 27805 H 2642.28 -2.45421 3.42559 0
M  V30 27806 H 2640.95 -2.34155 2.23502 0
M  V30 27807 H 2639.86 -0.546732 3.70083 0
M  V30 27808 H 2641.19 -0.738801 4.86624 0
M  V30 27809 N 2642.84 -1.57597 0.0100627 0
M  V30 27810 C 2643.79 -2.09051 -0.978085 0
M  V30 27811 C 2644.76 -0.988182 -1.33507 0
M  V30 27812 O 2645.94 -1.26123 -1.4317 0
M  V30 27813 C 2643.08 -2.6067 -2.26153 0
M  V30 27814 C 2642.2 -3.84841 -1.96269 0
M  V30 27815 C 2641.33 -4.24924 -3.18768 0
M  V30 27816 C 2640.37 -5.41904 -2.84616 0
M  V30 27817 N 2639.51 -5.77233 -3.99683 0
M  V30 27818 H 2644.35 -2.93206 -0.532379 0
M  V30 27819 H 2641.89 -1.44939 -0.251208 0
M  V30 27820 H 2643.84 -2.8868 -3.01197 0
M  V30 27821 H 2642.47 -1.79374 -2.68375 0
M  V30 27822 H 2641.53 -3.63677 -1.11549 0
M  V30 27823 H 2642.84 -4.69977 -1.67103 0
M  V30 27824 H 2641.99 -4.54269 -4.02149 0
M  V30 27825 H 2640.73 -3.38517 -3.51081 0
M  V30 27826 H 2639.74 -5.12272 -1.99644 0
M  V30 27827 H 2640.96 -6.29995 -2.5354 0
M  V30 27828 H 2638.91 -4.93783 -4.31873 0
M  V30 27829 H 2638.82 -6.56965 -3.74076 0
M  V30 27830 H 2640.09 -6.11175 -4.83823 0
M  V30 27831 N 2644.32 0.262839 -1.55393 0
M  V30 27832 C 2645.56 1.00061 -1.78233 0
M  V30 27833 C 2645.92 1.83125 -0.576998 0
M  V30 27834 O 2647.13 2.59956 -0.683854 0
M  V30 27835 C 2645.4 1.85148 -3.05704 0
M  V30 27836 S 2646.96 2.65052 -3.49704 0
M  V30 27837 H 2643.77 0.336845 -0.626144 0
M  V30 27838 H 2646.38 0.270016 -1.93626 0
M  V30 27839 H 2645.08 1.23068 -3.91513 0
M  V30 27840 H 2644.61 2.6251 -2.93005 0
M  V30 27841 H 2646.63 3.87623 -3.09779 0
M  V30 27842 N 2645.8 1.48499 0.527807 0
M  V30 27843 C 2646.75 1.59583 1.62841 0
M  V30 27844 C 2647.73 0.452836 1.54396 0
M  V30 27845 O 2648.92 0.704392 1.6238 0
M  V30 27846 C 2646.05 1.64073 3.01554 0
M  V30 27847 C 2645.14 2.83859 3.15095 0
M  V30 27848 N 2645.53 4.08252 2.98603 0
M  V30 27849 C 2643.83 2.81237 3.46153 0
M  V30 27850 C 2644.53 4.88631 3.15617 0
M  V30 27851 N 2643.51 4.21489 3.4329 0
M  V30 27852 H 2647.31 2.53504 1.48704 0
M  V30 27853 H 2644.82 1.44901 0.733318 0
M  V30 27854 H 2646.82 1.70107 3.80617 0
M  V30 27855 H 2645.48 0.712691 3.16782 0
M  V30 27856 H 2646.49 4.38655 2.75322 0
M  V30 27857 H 2643.17 1.97699 3.67725 0
M  V30 27858 H 2644.56 5.97361 3.07586 0
M  V30 27859 N 2647.28 -0.776847 1.37123 0
M  V30 27860 C 2648.21 -1.89895 1.28345 0
M  V30 27861 C 2649.22 -1.61563 0.200305 0
M  V30 27862 O 2650.41 -1.72576 0.456042 0
M  V30 27863 C 2647.51 -3.25004 0.960484 0
M  V30 27864 C 2646.68 -3.81021 2.14806 0
M  V30 27865 C 2645.74 -4.94595 1.79617 0
M  V30 27866 O 2644.77 -5.10449 2.51854 0
M  V30 27867 N 2645.97 -5.75799 0.737272 0
M  V30 27868 H 2648.74 -1.97943 2.2503 0
M  V30 27869 H 2646.3 -0.955716 1.30682 0
M  V30 27870 H 2648.29 -3.98494 0.706012 0
M  V30 27871 H 2646.86 -3.12491 0.0823616 0
M  V30 27872 H 2646.08 -2.9937 2.56459 0
M  V30 27873 H 2647.37 -4.15178 2.94117 0
M  V30 27874 H 2646.77 -5.65532 0.137736 0
M  V30 27875 H 2645.32 -6.49537 0.542649 0
M  V30 27876 N 2648.76 -1.2161 -1.00244 0
M  V30 27877 C 2649.99 -1.05938 -1.77372 0
M  V30 27878 C 2650.39 0.393654 -1.85059 0
M  V30 27879 O 2649.74 1.28484 -1.31291 0
M  V30 27880 C 2649.8 -1.58441 -3.22702 0
M  V30 27881 C 2649.46 -3.06935 -3.38585 0
M  V30 27882 C 2650.46 -4.0446 -3.26663 0
M  V30 27883 C 2648.14 -3.46193 -3.63944 0
M  V30 27884 C 2650.14 -5.3923 -3.39868 0
M  V30 27885 C 2647.83 -4.81115 -3.76791 0
M  V30 27886 C 2648.82 -5.77442 -3.6476 0
M  V30 27887 O 2648.51 -7.09916 -3.77193 0
M  V30 27888 H 2648.24 -0.372388 -0.564183 0
M  V30 27889 H 2650.8 -1.61456 -1.26968 0
M  V30 27890 H 2649.03 -0.973213 -3.74253 0
M  V30 27891 H 2650.72 -1.38575 -3.81513 0
M  V30 27892 H 2651.48 -3.75474 -3.06993 0
M  V30 27893 H 2647.36 -2.71747 -3.7239 0
M  V30 27894 H 2650.91 -6.14399 -3.30393 0
M  V30 27895 H 2646.8 -5.09786 -3.95966 0
M  V30 27896 H 2647.57 -7.17362 -3.94125 0
M  V30 27897 N 2650.23 1.19778 -1.02425 0
M  V30 27898 C 2651.48 1.89894 -0.728814 0
M  V30 27899 C 2651.83 1.7784 0.734217 0
M  V30 27900 O 2651.13 1.15688 1.52731 0
M  V30 27901 C 2651.32 3.39763 -1.10886 0
M  V30 27902 C 2651.15 3.66402 -2.60729 0
M  V30 27903 C 2649.92 3.84691 -3.2763 0
M  V30 27904 C 2652.12 3.68339 -3.58931 0
M  V30 27905 N 2650.1 3.98918 -4.66624 0
M  V30 27906 C 2651.47 3.88081 -4.83521 0
M  V30 27907 C 2653.53 3.51341 -3.52795 0
M  V30 27908 C 2652.23 3.92588 -6.02717 0
M  V30 27909 C 2654.26 3.57122 -4.714 0
M  V30 27910 C 2653.62 3.77345 -5.94802 0
M  V30 27911 H 2649.72 0.714207 -0.318485 0
M  V30 27912 H 2652.3 1.43981 -1.31063 0
M  V30 27913 H 2650.47 3.8441 -0.555301 0
M  V30 27914 H 2652.2 3.97382 -0.766152 0
M  V30 27915 H 2648.96 3.83388 -2.78047 0
M  V30 27916 H 2649.38 4.09891 -5.38812 0
M  V30 27917 H 2654.02 3.34665 -2.58378 0
M  V30 27918 H 2651.74 4.08057 -6.97507 0
M  V30 27919 H 2655.33 3.45267 -4.68276 0
M  V30 27920 H 2654.21 3.81687 -6.85043 0
M  V30 27921 N 2651.71 0.801501 1.35697 0
M  V30 27922 C 2653.12 0.441105 1.81414 0
M  V30 27923 C 2653.47 -1.03633 1.66597 0
M  V30 27924 O 2652.6 -1.80497 1.19372 0
M  V30 27925 C 2653.19 0.793877 3.29368 0
M  V30 27926 C 2651.75 0.486149 3.73247 0
M  V30 27927 C 2650.9 1.02217 2.57773 0
M  V30 27928 H 2653.85 0.993593 1.23747 0
M  V30 27929 H 2653.87 0.0894827 3.80395 0
M  V30 27930 H 2653.38 1.86923 3.4012 0
M  V30 27931 H 2651.48 -0.580671 3.68048 0
M  V30 27932 H 2651.6 1.01522 4.6822 0
M  V30 27933 H 2649.96 0.444756 2.50787 0
M  V30 27934 H 2650.74 2.10353 2.71305 0
M  V30 27935 N 2653.19 -1.47521 0.554558 0
M  V30 27936 C 2654.15 -2.28459 -0.184134 0
M  V30 27937 C 2655.15 -1.36797 -0.84517 0
M  V30 27938 O 2656.34 -1.59454 -0.701439 0
M  V30 27939 C 2653.47 -3.16401 -1.26898 0
M  V30 27940 H 2654.67 -2.95237 0.526803 0
M  V30 27941 H 2652.22 -1.53167 0.311402 0
M  V30 27942 H 2652.96 -2.54309 -2.01239 0
M  V30 27943 H 2652.74 -3.83856 -0.799816 0
M  V30 27944 H 2654.23 -3.77392 -1.78788 0
M  V30 27945 N 2654.67 -0.290879 -1.54892 0
M  V30 27946 C 2655.58 0.59941 -2.26813 0
M  V30 27947 C 2656.59 1.15694 -1.29965 0
M  V30 27948 O 2657.77 1.18388 -1.6293 0
M  V30 27949 C 2654.83 1.75976 -2.98719 0
M  V30 27950 C 2653.9 1.23733 -4.11082 0
M  V30 27951 C 2653.13 2.34238 -4.7955 0
M  V30 27952 O 2653.35 3.53928 -4.47316 0
M  V30 27953 O 2652.29 2.01502 -5.67169 0
M  V30 27954 H 2656.11 0.0163027 -3.03696 0
M  V30 27955 H 2653.7 -0.0577018 -1.49289 0
M  V30 27956 H 2655.58 2.43601 -3.43855 0
M  V30 27957 H 2654.25 2.32966 -2.24741 0
M  V30 27958 H 2653.16 0.527098 -3.70368 0
M  V30 27959 H 2654.49 0.712984 -4.87009 0
M  V30 27960 N 2656.15 1.57589 -0.0184203 0
M  V30 27961 C 2657.56 1.55983 0.33787 0
M  V30 27962 C 2657.76 1.02297 1.73602 0
M  V30 27963 O 2656.82 0.664938 2.43587 0
M  V30 27964 C 2658.13 3.00059 0.196253 0
M  V30 27965 C 2659.68 3.11835 0.26982 0
M  V30 27966 C 2660.15 4.5773 0.157117 0
M  V30 27967 N 2661.64 4.62703 0.214439 0
M  V30 27968 C 2662.38 5.73202 0.150854 0
M  V30 27969 N 2661.88 6.9279 0.0367994 0
M  V30 27970 N 2663.67 5.61729 0.204063 0
M  V30 27971 H 2655.82 1.9082 -0.932823 0
M  V30 27972 H 2658.08 0.877286 -0.359268 0
M  V30 27973 H 2657.79 3.43247 -0.766444 0
M  V30 27974 H 2657.66 3.64492 0.970844 0
M  V30 27975 H 2660.05 2.68566 1.22297 0
M  V30 27976 H 2660.13 2.50144 -0.534962 0
M  V30 27977 H 2659.77 5.01678 -0.792567 0
M  V30 27978 H 2659.7 5.17389 0.980626 0
M  V30 27979 H 2662.2 3.76682 0.303172 0
M  V30 27980 H 2662.51 7.728 -0.00531905 0
M  V30 27981 H 2660.85 6.95 0.00216644 0
M  V30 27982 H 2664.04 4.67192 0.291492 0
M  V30 27983 H 2664.22 6.47824 0.151046 0
M  V30 27984 N 2657.62 -0.254594 1.5553 0
M  V30 27985 C 2658.85 -1.00569 1.81385 0
M  V30 27986 C 2659.27 -1.7846 0.59445 0
M  V30 27987 O 2658.63 -1.75462 -0.456372 0
M  V30 27988 C 2658.68 -1.92539 3.04895 0
M  V30 27989 O 2657.78 -3.01596 2.81271 0
M  V30 27990 H 2657.12 -0.286576 0.598974 0
M  V30 27991 H 2659.65 -0.277917 2.02704 0
M  V30 27992 H 2659.66 -2.3415 3.34123 0
M  V30 27993 H 2658.34 -1.35263 3.9329 0
M  V30 27994 H 2656.92 -2.64169 2.6319 0
M  V30 27995 N 2659.1 -1.48777 -0.519925 0
M  V30 27996 C 2660.06 -1.63553 -1.60571 0
M  V30 27997 C 2661.06 -0.50826 -1.52556 0
M  V30 27998 O 2662.25 -0.77429 -1.56046 0
M  V30 27999 C 2659.39 -1.61517 -3.00208 0
M  V30 28000 H 2660.58 -2.60378 -1.48806 0
M  V30 28001 H 2658.13 -1.37524 -0.742748 0
M  V30 28002 H 2658.87 -0.662065 -3.1747 0
M  V30 28003 H 2658.65 -2.43365 -3.07435 0
M  V30 28004 H 2660.14 -1.75071 -3.79131 0
M  V30 28005 N 2660.58 0.769564 -1.37534 0
M  V30 28006 C 2662 1.07043 -1.18381 0
M  V30 28007 C 2662.2 2.01489 -0.0214666 0
M  V30 28008 O 2661.25 2.44313 0.637766 0
M  V30 28009 C 2662.56 1.66583 -2.50341 0
M  V30 28010 C 2664.11 1.78831 -2.56882 0
M  V30 28011 C 2664.59 2.41785 -3.88978 0
M  V30 28012 N 2666.08 2.49233 -3.90432 0
M  V30 28013 C 2666.81 2.988 -4.89393 0
M  V30 28014 N 2666.31 3.48524 -5.98751 0
M  V30 28015 N 2668.1 2.97695 -4.76796 0
M  V30 28016 H 2660.25 0.142504 -2.11921 0
M  V30 28017 H 2662.52 0.125847 -0.93961 0
M  V30 28018 H 2662.22 1.04654 -3.35768 0
M  V30 28019 H 2662.1 2.65851 -2.67588 0
M  V30 28020 H 2664.48 2.39892 -1.7186 0
M  V30 28021 H 2664.56 0.783123 -2.43518 0
M  V30 28022 H 2664.21 1.81362 -4.74416 0
M  V30 28023 H 2664.14 3.42913 -3.99647 0
M  V30 28024 H 2666.63 2.14046 -3.11436 0
M  V30 28025 H 2666.94 3.84755 -6.70211 0
M  V30 28026 H 2665.29 3.46623 -6.02393 0
M  V30 28027 H 2668.48 2.5815 -3.90482 0
M  V30 28028 H 2668.65 3.36014 -5.54075 0
M  V30 28029 N 2662.06 1.22139 0.995977 0
M  V30 28030 C 2663.29 1.06877 1.76807 0
M  V30 28031 C 2663.7 -0.383834 1.85266 0
M  V30 28032 O 2663.04 -1.27786 1.31971 0
M  V30 28033 C 2663.1 1.6015 3.21858 0
M  V30 28034 C 2662.77 3.08726 3.36953 0
M  V30 28035 C 2663.76 4.06186 3.24513 0
M  V30 28036 C 2661.45 3.48118 3.62103 0
M  V30 28037 C 2663.44 5.41025 3.37003 0
M  V30 28038 C 2661.13 4.83106 3.74235 0
M  V30 28039 C 2662.13 5.79368 3.61692 0
M  V30 28040 O 2661.81 7.11906 3.73423 0
M  V30 28041 H 2661.55 0.375375 0.562201 0
M  V30 28042 H 2664.1 1.62127 1.2611 0
M  V30 28043 H 2662.33 0.993046 3.73732 0
M  V30 28044 H 2664.02 1.40596 3.80772 0
M  V30 28045 H 2664.79 3.77096 3.04997 0
M  V30 28046 H 2660.66 2.73718 3.70944 0
M  V30 28047 H 2664.21 6.16143 3.2713 0
M  V30 28048 H 2660.11 5.11878 3.93257 0
M  V30 28049 H 2660.87 7.19442 3.90315 0
M  V30 28050 N 2663.54 -1.19233 1.03059 0
M  V30 28051 C 2664.47 -2.21974 0.570971 0
M  V30 28052 C 2665.48 -1.58903 -0.35406 0
M  V30 28053 O 2666.67 -1.77867 -0.15018 0
M  V30 28054 C 2663.77 -3.38383 -0.187092 0
M  V30 28055 C 2662.94 -4.31038 0.743307 0
M  V30 28056 C 2662 -5.26191 0.0303418 0
M  V30 28057 O 2661.03 -5.6539 0.657471 0
M  V30 28058 N 2662.23 -5.67106 -1.23981 0
M  V30 28059 H 2665 -2.62033 1.4546 0
M  V30 28060 H 2662.56 -1.33917 0.90983 0
M  V30 28061 H 2664.55 -3.99054 -0.673645 0
M  V30 28062 H 2663.12 -2.97099 -0.972153 0
M  V30 28063 H 2662.34 -3.68124 1.40992 0
M  V30 28064 H 2663.63 -4.89852 1.37559 0
M  V30 28065 H 2663.02 -5.37296 -1.77002 0
M  V30 28066 H 2661.58 -6.30021 -1.67082 0
M  V30 28067 N 2665.01 -0.808686 -1.3527 0
M  V30 28068 C 2666.24 -0.401989 -2.02651 0
M  V30 28069 C 2666.65 0.992434 -1.61082 0
M  V30 28070 O 2666 1.65122 -0.805013 0
M  V30 28071 C 2666.06 -0.408309 -3.57174 0
M  V30 28072 C 2665.72 -1.75361 -4.22016 0
M  V30 28073 C 2666.72 -2.71223 -4.43547 0
M  V30 28074 C 2664.4 -2.03819 -4.59089 0
M  V30 28075 C 2666.4 -3.93726 -5.01257 0
M  V30 28076 C 2664.08 -3.26585 -5.16513 0
M  V30 28077 C 2665.08 -4.21356 -5.37539 0
M  V30 28078 O 2664.77 -5.41955 -5.93751 0
M  V30 28079 H 2664.5 -0.161227 -0.656492 0
M  V30 28080 H 2667.06 -1.09423 -1.73827 0
M  V30 28081 H 2665.29 0.34054 -3.85198 0
M  V30 28082 H 2666.98 -0.0236337 -4.05893 0
M  V30 28083 H 2667.74 -2.50529 -4.15283 0
M  V30 28084 H 2663.62 -1.30862 -4.42036 0
M  V30 28085 H 2667.16 -4.6771 -5.17584 0
M  V30 28086 H 2663.06 -3.47148 -5.44204 0
M  V30 28087 H 2663.83 -5.4328 -6.122 0
M  V30 28088 N 2666.49 1.47225 -0.562374 0
M  V30 28089 C 2667.74 2.0246 -0.0402521 0
M  V30 28090 C 2668.07 1.43616 1.31166 0
M  V30 28091 O 2667.32 0.583333 1.86804 0
M  V30 28092 C 2667.62 3.57269 0.0969189 0
M  V30 28093 C 2667.29 4.35056 -1.18477 0
M  V30 28094 C 2665.95 4.56028 -1.53596 0
M  V30 28095 C 2668.3 4.79878 -2.03387 0
M  V30 28096 C 2665.63 5.19072 -2.73462 0
M  V30 28097 C 2667.98 5.44245 -3.2246 0
M  V30 28098 C 2666.65 5.63449 -3.57885 0
M  V30 28099 H 2665.92 0.740854 -0.0147293 0
M  V30 28100 H 2668.56 1.76836 -0.734926 0
M  V30 28101 H 2666.87 3.81914 0.874593 0
M  V30 28102 H 2668.56 3.97662 0.516338 0
M  V30 28103 H 2665.15 4.19015 -0.901334 0
M  V30 28104 H 2669.34 4.6345 -1.77561 0
M  V30 28105 H 2664.59 5.32133 -3.01071 0
M  V30 28106 H 2668.77 5.77938 -3.88536 0
M  V30 28107 H 2666.4 6.1207 -4.50859 0
M  V30 28108 N 2667.97 0.299089 1.54736 0
M  V30 28109 C 2669.22 -0.311209 2.00398 0
M  V30 28110 C 2669.55 -1.53686 1.18719 0
M  V30 28111 O 2668.82 -1.92711 0.263188 0
M  V30 28112 C 2669.11 -0.669698 3.53818 0
M  V30 28113 C 2668.96 0.564961 4.46238 0
M  V30 28114 C 2670.28 -1.49695 4.13859 0
M  V30 28115 H 2667.4 -0.11164 0.728495 0
M  V30 28116 H 2670.04 0.410807 1.85506 0
M  V30 28117 H 2668.19 -1.28484 3.66639 0
M  V30 28118 H 2669.86 1.20345 4.45326 0
M  V30 28119 H 2668.11 1.19856 4.16914 0
M  V30 28120 H 2668.78 0.270015 5.51339 0
M  V30 28121 H 2671.25 -0.977213 4.04462 0
M  V30 28122 H 2670.13 -1.71657 5.21368 0
M  V30 28123 H 2670.39 -2.48556 3.65612 0
M  V30 28124 N 2669.45 -1.57577 0.0267774 0
M  V30 28125 C 2670.69 -1.91988 -0.653337 0
M  V30 28126 C 2671.03 -0.903293 -1.71913 0
M  V30 28127 O 2670.3 0.0743045 -1.94358 0
M  V30 28128 C 2670.59 -3.36888 -1.27194 0
M  V30 28129 C 2670.44 -4.49282 -0.215859 0
M  V30 28130 C 2671.76 -3.81707 -2.19062 0
M  V30 28131 H 2668.88 -0.698181 -0.236035 0
M  V30 28132 H 2671.52 -1.89816 0.083557 0
M  V30 28133 H 2669.67 -3.3887 -1.89999 0
M  V30 28134 H 2671.34 -4.59433 0.414571 0
M  V30 28135 H 2669.58 -4.31366 0.458931 0
M  V30 28136 H 2670.25 -5.47693 -0.688251 0
M  V30 28137 H 2672.73 -3.81447 -1.66246 0
M  V30 28138 H 2671.61 -4.83793 -2.59299 0
M  V30 28139 H 2671.87 -3.17078 -3.08081 0
M  V30 28140 N 2670.93 0.246342 -1.55663 0
M  V30 28141 C 2672.2 0.997169 -1.68273 0
M  V30 28142 C 2672.58 2.03348 -0.566821 0
M  V30 28143 O 2671.93 2.24424 0.429648 0
M  V30 28144 C 2672.14 1.63001 -3.08597 0
M  V30 28145 C 2673.49 2.13165 -3.67214 0
M  V30 28146 O 2674.51 1.7294 -3.114 0
M  V30 28147 O 2673.37 2.87023 -4.65059 0
M  V30 28148 H 2670.47 0.464193 -0.684437 0
M  V30 28149 H 2673.01 0.240085 -1.67993 0
M  V30 28150 H 2671.78 0.88046 -3.81266 0
M  V30 28151 H 2671.41 2.45328 -3.1289 0
M  V30 28152 N 2672.4 1.4905 0.512027 0
M  V30 28153 C 2673.82 1.51309 1.09373 0
M  V30 28154 C 2674.17 0.293005 1.94 0
M  V30 28155 O 2673.29 -0.59824 2.07966 0
M  V30 28156 C 2673.89 2.74179 1.99026 0
M  V30 28157 C 2672.45 2.79251 2.5238 0
M  V30 28158 C 2671.59 2.45075 1.29744 0
M  V30 28159 H 2674.54 1.55907 0.296439 0
M  V30 28160 H 2674.56 2.53716 2.83564 0
M  V30 28161 H 2674.08 3.62962 1.37406 0
M  V30 28162 H 2672.18 1.94722 3.1767 0
M  V30 28163 H 2672.29 3.81144 2.90286 0
M  V30 28164 H 2670.65 1.96615 1.61909 0
M  V30 28165 H 2671.44 3.36119 0.698496 0
M  V30 28166 N 2673.88 -0.762259 1.3794 0
M  V30 28167 C 2674.82 -1.88347 1.28843 0
M  V30 28168 C 2675.79 -1.61739 0.167112 0
M  V30 28169 O 2676.98 -1.85354 0.342953 0
M  V30 28170 C 2674.1 -3.23776 0.994314 0
M  V30 28171 C 2673.15 -3.69283 2.13382 0
M  V30 28172 S 2673.98 -3.81839 3.75446 0
M  V30 28173 C 2675.14 -5.20101 3.48204 0
M  V30 28174 H 2675.37 -1.95776 2.23739 0
M  V30 28175 H 2672.91 -0.924346 1.23674 0
M  V30 28176 H 2674.86 -4.01991 0.83145 0
M  V30 28177 H 2673.52 -3.14037 0.0626803 0
M  V30 28178 H 2672.72 -4.67492 1.88327 0
M  V30 28179 H 2672.32 -2.98197 2.25731 0
M  V30 28180 H 2674.61 -6.05577 3.0378 0
M  V30 28181 H 2675.55 -5.50173 4.45775 0
M  V30 28182 H 2675.96 -4.88488 2.82914 0
M  V30 28183 N 2675.36 -1.22666 -0.989486 0
M  V30 28184 C 2676.32 -1.00109 -2.06181 0
M  V30 28185 C 2677.32 0.0337443 -1.60765 0
M  V30 28186 O 2678.51 -0.205102 -1.72988 0
M  V30 28187 C 2675.65 -0.512849 -3.3702 0
M  V30 28188 H 2676.84 -1.9526 -2.27626 0
M  V30 28189 H 2674.39 -1.04582 -1.16156 0
M  V30 28190 H 2675.13 0.44286 -3.21262 0
M  V30 28191 H 2674.91 -1.25949 -3.71321 0
M  V30 28192 H 2676.4 -0.375388 -4.15909 0
M  V30 28193 N 2676.84 1.18685 -1.0369 0
M  V30 28194 C 2677.75 2.25844 -0.634948 0
M  V30 28195 C 2678.77 1.70705 0.337035 0
M  V30 28196 O 2679.94 2.00474 0.192908 0
M  V30 28197 C 2677.01 3.467 -0.000240995 0
M  V30 28198 C 2676.07 4.16988 -1.02075 0
M  V30 28199 C 2675.3 5.32074 -0.416234 0
M  V30 28200 O 2675.52 5.65061 0.778613 0
M  V30 28201 O 2674.46 5.90946 -1.14306 0
M  V30 28202 H 2678.28 2.62483 -1.52762 0
M  V30 28203 H 2675.87 1.25694 -0.807555 0
M  V30 28204 H 2677.75 4.19917 0.353268 0
M  V30 28205 H 2676.43 3.11892 0.866312 0
M  V30 28206 H 2675.33 3.45856 -1.42598 0
M  V30 28207 H 2676.67 4.55787 -1.85794 0
M  V30 28208 N 2678.32 0.815849 1.34839 0
M  V30 28209 C 2679.55 0.41273 2.02435 0
M  V30 28210 C 2679.96 -0.983878 1.61606 0
M  V30 28211 O 2679.3 -1.64693 0.813758 0
M  V30 28212 C 2679.36 0.427245 3.56952 0
M  V30 28213 C 2679.02 1.77596 4.2108 0
M  V30 28214 C 2680.02 2.73571 4.42103 0
M  V30 28215 C 2677.71 2.06251 4.58002 0
M  V30 28216 C 2679.7 3.96379 4.99162 0
M  V30 28217 C 2677.39 3.29319 5.14774 0
M  V30 28218 C 2678.39 4.24201 5.35297 0
M  V30 28219 O 2678.07 5.45096 5.90869 0
M  V30 28220 H 2677.81 0.164706 0.655628 0
M  V30 28221 H 2680.36 1.10343 1.73244 0
M  V30 28222 H 2678.59 -0.320108 3.85373 0
M  V30 28223 H 2680.28 0.0451588 4.05875 0
M  V30 28224 H 2681.04 2.52728 4.13949 0
M  V30 28225 H 2676.92 1.33204 4.41336 0
M  V30 28226 H 2680.47 4.70448 5.15096 0
M  V30 28227 H 2676.36 3.5003 5.42356 0
M  V30 28228 H 2677.13 5.46519 6.0931 0
M  V30 28229 N 2679.8 -1.46924 0.570174 0
M  V30 28230 C 2680.74 -2.31878 -0.183141 0
M  V30 28231 C 2681.74 -1.43721 -0.896695 0
M  V30 28232 O 2682.94 -1.60416 -0.816508 0
M  V30 28233 H 2679.32 -0.747951 -0.0779308 0
M  V30 28234 H 2681.29 -2.93243 0.552363 0
M  V30 28235 C 2680.04 -3.26642 -1.19166 0
M  V30 28236 H 2679.36 -3.94447 -0.652018 0
M  V30 28237 H 2680.8 -3.8889 -1.6894 0
M  V30 28238 C 2679.26 -2.5109 -2.24623 0
M  V30 28239 O 2679.79 -2.26478 -3.31769 0
M  V30 28240 N 2678 -2.11871 -1.98895 0
M  V30 28241 H 2677.54 -2.32087 -1.11773 0
M  V30 28242 H 2677.5 -1.61639 -2.69667 0
M  V30 28243 N 2681.27 -0.307291 -1.54575 0
M  V30 28244 C 2682.21 0.608157 -2.19947 0
M  V30 28245 C 2683.18 1.12813 -1.17098 0
M  V30 28246 O 2684.37 1.19516 -1.45768 0
M  V30 28247 C 2681.5 1.83275 -2.84829 0
M  V30 28248 C 2680.54 1.44546 -4.01259 0
M  V30 28249 S 2681.37 0.496026 -5.33198 0
M  V30 28250 C 2682.53 1.72828 -6.01566 0
M  V30 28251 H 2682.76 0.0528022 -2.97253 0
M  V30 28252 H 2680.3 -0.0914107 -1.54129 0
M  V30 28253 H 2682.25 2.53549 -3.22836 0
M  V30 28254 H 2680.92 2.35928 -2.07357 0
M  V30 28255 H 2680.11 2.35754 -4.45462 0
M  V30 28256 H 2679.71 0.822607 -3.64841 0
M  V30 28257 H 2682 2.66799 -6.22756 0
M  V30 28258 H 2682.95 1.3287 -6.95522 0
M  V30 28259 H 2683.35 1.90785 -5.31283 0
M  V30 28260 N 2682.75 1.57561 -0.0351337 0
M  V30 28261 C 2684.16 1.79801 0.502853 0
M  V30 28262 C 2684.51 0.945951 1.7189 0
M  V30 28263 O 2683.64 0.158028 2.15822 0
M  V30 28264 C 2684.23 3.26097 0.91904 0
M  V30 28265 C 2682.79 3.49311 1.4021 0
M  V30 28266 C 2681.94 2.74825 0.369661 0
M  V30 28267 H 2684.89 1.56537 -0.26113 0
M  V30 28268 H 2684.91 3.36138 1.78302 0
M  V30 28269 H 2684.42 3.88085 0.0337844 0
M  V30 28270 H 2682.52 2.92582 2.30709 0
M  V30 28271 H 2682.64 4.58025 1.40533 0
M  V30 28272 H 2681 2.40482 0.839071 0
M  V30 28273 H 2681.78 3.39532 -0.507232 0
M  V30 28274 N 2684.23 -0.238084 1.55791 0
M  V30 28275 C 2685.16 -1.31798 1.87515 0
M  V30 28276 C 2686.17 -1.43862 0.762078 0
M  V30 28277 O 2687.36 -1.45054 1.04027 0
M  V30 28278 C 2684.46 -2.69557 2.05407 0
M  V30 28279 C 2683.64 -2.7965 3.36325 0
M  V30 28280 C 2682.7 -3.98313 3.43851 0
M  V30 28281 O 2681.72 -3.87426 4.17001 0
M  V30 28282 N 2682.92 -5.1188 2.73786 0
M  V30 28283 H 2685.69 -1.04917 2.80736 0
M  V30 28284 H 2683.25 -0.428168 1.56136 0
M  V30 28285 H 2685.24 -3.47292 2.07775 0
M  V30 28286 H 2683.81 -2.89109 1.1889 0
M  V30 28287 H 2683.03 -1.88522 3.46198 0
M  V30 28288 H 2684.32 -2.83351 4.22599 0
M  V30 28289 H 2683.72 -5.23619 2.14103 0
M  V30 28290 H 2682.27 -5.87718 2.81835 0
M  V30 28291 N 2685.71 -1.4932 -0.504115 0
M  V30 28292 C 2686.94 -1.62118 -1.28068 0
M  V30 28293 C 2687.35 -0.290599 -1.86955 0
M  V30 28294 O 2686.69 0.733587 -1.68417 0
M  V30 28295 C 2686.75 -2.62897 -2.45205 0
M  V30 28296 C 2686.41 -4.07324 -2.0721 0
M  V30 28297 C 2687.41 -4.94224 -1.61366 0
M  V30 28298 C 2685.1 -4.53036 -2.16941 0
M  V30 28299 C 2687.09 -6.24872 -1.25752 0
M  V30 28300 C 2684.78 -5.83699 -1.80938 0
M  V30 28301 C 2685.78 -6.69441 -1.35418 0
M  V30 28302 O 2685.46 -7.97668 -0.99901 0
M  V30 28303 H 2685.2 -0.548767 -0.394754 0
M  V30 28304 H 2687.75 -1.96068 -0.612084 0
M  V30 28305 H 2685.98 -2.24121 -3.1513 0
M  V30 28306 H 2687.67 -2.65257 -3.07235 0
M  V30 28307 H 2688.43 -4.60136 -1.53298 0
M  V30 28308 H 2684.31 -3.86468 -2.51324 0
M  V30 28309 H 2687.86 -6.9175 -0.901509 0
M  V30 28310 H 2683.75 -6.17316 -1.88656 0
M  V30 28311 H 2684.52 -8.10652 -1.13075 0
M  V30 28312 N 2687.19 0.754933 -1.38342 0
M  V30 28313 C 2688.43 1.50938 -1.33794 0
M  V30 28314 C 2688.75 1.95475 0.0698923 0
M  V30 28315 O 2689.95 2.70456 0.237908 0
M  V30 28316 C 2688.41 2.72639 -2.34939 0
M  V30 28317 C 2688.02 2.35132 -3.81336 0
M  V30 28318 C 2689.76 3.50532 -2.39431 0
M  V30 28319 C 2687.67 3.53436 -4.7417 0
M  V30 28320 H 2686.6 0.566732 -0.497323 0
M  V30 28321 H 2689.25 0.825374 -1.6389 0
M  V30 28322 H 2687.63 3.43013 -1.97884 0
M  V30 28323 H 2688.81 1.72432 -4.27322 0
M  V30 28324 H 2687.12 1.70375 -3.79949 0
M  V30 28325 H 2689.72 4.38492 -3.05988 0
M  V30 28326 H 2690.06 3.91592 -1.41285 0
M  V30 28327 H 2690.59 2.8717 -2.75279 0
M  V30 28328 H 2687.33 3.17443 -5.73507 0
M  V30 28329 H 2686.85 4.15183 -4.32878 0
M  V30 28330 H 2688.53 4.20034 -4.92118 0
M  V30 28331 N 2688.66 1.23189 0.982967 0
M  V30 28332 C 2689.59 1.03519 2.09299 0
M  V30 28333 C 2690.57 -0.0470837 1.70035 0
M  V30 28334 O 2691.76 0.117064 1.93847 0
M  V30 28335 C 2688.89 0.622851 3.41669 0
M  V30 28336 C 2687.84 1.65218 3.94825 0
M  V30 28337 C 2687.17 1.09536 5.2336 0
M  V30 28338 C 2688.47 3.04459 4.24385 0
M  V30 28339 H 2690.16 1.96363 2.26013 0
M  V30 28340 H 2687.71 0.94552 1.08609 0
M  V30 28341 H 2689.66 0.472307 4.18745 0
M  V30 28342 H 2688.39 -0.341272 3.24812 0
M  V30 28343 H 2687.05 1.79067 3.19891 0
M  V30 28344 H 2686.69 0.1223 5.02851 0
M  V30 28345 H 2686.39 1.7831 5.59892 0
M  V30 28346 H 2687.92 0.956617 6.0306 0
M  V30 28347 H 2689.33 2.93926 4.9222 0
M  V30 28348 H 2687.73 3.70447 4.72112 0
M  V30 28349 H 2688.8 3.53644 3.31759 0
M  V30 28350 N 2690.14 -1.18133 1.04318 0
M  V30 28351 C 2691.56 -1.40187 0.762883 0
M  V30 28352 C 2691.76 -1.90847 -0.646514 0
M  V30 28353 O 2690.81 -2.09443 -1.41032 0
M  V30 28354 C 2692.13 -2.40041 1.8111 0
M  V30 28355 C 2693.67 -2.53763 1.8323 0
M  V30 28356 C 2694.15 -3.56884 2.87051 0
M  V30 28357 N 2695.64 -3.64393 2.85958 0
M  V30 28358 C 2696.38 -4.43917 3.6294 0
M  V30 28359 N 2695.87 -5.27028 4.49682 0
M  V30 28360 N 2697.66 -4.38704 3.51418 0
M  V30 28361 H 2689.82 -0.83577 1.95266 0
M  V30 28362 H 2692.08 -0.429694 0.845025 0
M  V30 28363 H 2691.78 -2.09871 2.82218 0
M  V30 28364 H 2691.66 -3.39423 1.64535 0
M  V30 28365 H 2694.05 -2.83248 0.827919 0
M  V30 28366 H 2694.13 -1.54485 2.03882 0
M  V30 28367 H 2693.77 -3.28139 3.87669 0
M  V30 28368 H 2693.7 -4.55845 2.63653 0
M  V30 28369 H 2696.19 -3.05048 2.23057 0
M  V30 28370 H 2696.5 -5.84865 5.05126 0
M  V30 28371 H 2694.85 -5.26439 4.53748 0
M  V30 28372 H 2698.04 -3.72824 2.83054 0
M  V30 28373 H 2698.21 -5.00438 4.11662 0
M  V30 28374 N 2691.62 -0.822988 -1.34405 0
M  V30 28375 C 2692.53 -0.246879 -2.33297 0
M  V30 28376 C 2693.55 0.618768 -1.62626 0
M  V30 28377 O 2694.72 0.526651 -1.94392 0
M  V30 28378 C 2691.79 0.581671 -3.41786 0
M  V30 28379 C 2690.85 -0.306384 -4.28205 0
M  V30 28380 C 2690.08 0.482716 -5.31513 0
M  V30 28381 O 2690.3 1.71598 -5.43976 0
M  V30 28382 O 2689.24 -0.134989 -6.01749 0
M  V30 28383 H 2693.06 -1.06539 -2.844 0
M  V30 28384 H 2690.65 -0.585132 -1.37465 0
M  V30 28385 H 2692.53 1.05305 -4.0803 0
M  V30 28386 H 2691.21 1.37751 -2.92927 0
M  V30 28387 H 2690.11 -0.825263 -3.64884 0
M  V30 28388 H 2691.45 -1.06658 -4.80505 0
M  V30 28389 N 2693.1 1.4662 -0.577957 0
M  V30 28390 C 2694.35 2.02406 -0.0617234 0
M  V30 28391 C 2694.67 1.44999 1.29636 0
M  V30 28392 O 2693.93 0.603113 1.86175 0
M  V30 28393 C 2694.23 3.57351 0.0590204 0
M  V30 28394 C 2693.89 4.33775 -1.23085 0
M  V30 28395 C 2692.56 4.54373 -1.58424 0
M  V30 28396 C 2694.91 4.77694 -2.08465 0
M  V30 28397 C 2692.24 5.16142 -2.78952 0
M  V30 28398 C 2694.59 5.40794 -3.28214 0
M  V30 28399 C 2693.25 5.59621 -3.63841 0
M  V30 28400 H 2692.52 0.740656 -0.0225862 0
M  V30 28401 H 2695.17 1.76047 -0.75364 0
M  V30 28402 H 2693.47 3.8282 0.834037 0
M  V30 28403 H 2695.17 3.98187 0.474132 0
M  V30 28404 H 2691.76 4.18036 -0.945725 0
M  V30 28405 H 2695.94 4.6154 -1.82467 0
M  V30 28406 H 2691.2 5.2891 -3.06698 0
M  V30 28407 H 2695.37 5.73785 -3.94644 0
M  V30 28408 H 2693 6.07254 -4.57326 0
M  V30 28409 N 2694.58 0.315484 1.5441 0
M  V30 28410 C 2695.52 -0.554127 2.24049 0
M  V30 28411 C 2696.49 -1.1181 1.22832 0
M  V30 28412 O 2697.68 -1.15994 1.51493 0
M  V30 28413 C 2694.82 -1.71311 2.99577 0
M  V30 28414 C 2693.93 -1.17914 4.15596 0
M  V30 28415 C 2693.07 -2.30316 4.78673 0
M  V30 28416 C 2692.11 -1.74127 5.8681 0
M  V30 28417 N 2691.24 -2.80159 6.43782 0
M  V30 28418 H 2696.08 0.0463126 2.97964 0
M  V30 28419 H 2693.62 0.0346267 1.47059 0
M  V30 28420 H 2695.58 -2.39499 3.41608 0
M  V30 28421 H 2694.21 -2.28496 2.28012 0
M  V30 28422 H 2693.26 -0.38907 3.78405 0
M  V30 28423 H 2694.57 -0.727925 4.9346 0
M  V30 28424 H 2693.73 -3.06423 5.23631 0
M  V30 28425 H 2692.46 -2.78771 4.00173 0
M  V30 28426 H 2691.47 -0.96514 5.41262 0
M  V30 28427 H 2692.69 -1.26559 6.67203 0
M  V30 28428 H 2690.64 -3.2792 5.68159 0
M  V30 28429 H 2690.56 -2.39576 7.17035 0
M  V30 28430 H 2691.83 -3.5612 6.93397 0
M  V30 28431 N 2696.05 -1.5754 0.0434891 0
M  V30 28432 C 2697.3 -1.9267 -0.632937 0
M  V30 28433 C 2697.63 -0.921476 -1.70946 0
M  V30 28434 O 2696.91 0.053686 -1.94426 0
M  V30 28435 C 2697.19 -3.38218 -1.23613 0
M  V30 28436 C 2697.04 -4.49485 -0.168195 0
M  V30 28437 C 2698.36 -3.84008 -2.15001 0
M  V30 28438 H 2695.48 -0.700645 -0.228616 0
M  V30 28439 H 2698.12 -1.89717 0.103685 0
M  V30 28440 H 2696.27 -3.40866 -1.86394 0
M  V30 28441 H 2697.95 -4.58968 0.463277 0
M  V30 28442 H 2696.19 -4.30855 0.504657 0
M  V30 28443 H 2696.86 -5.48392 -0.630122 0
M  V30 28444 H 2699.34 -3.83188 -1.62191 0
M  V30 28445 H 2698.21 -4.86516 -2.54153 0
M  V30 28446 H 2698.47 -3.20328 -3.04701 0
M  V30 28447 N 2697.53 0.229818 -1.55915 0
M  V30 28448 C 2698.76 0.97253 -1.82618 0
M  V30 28449 C 2699.18 1.78277 -0.62152 0
M  V30 28450 O 2698.53 1.77837 0.409925 0
M  V30 28451 C 2698.58 1.89674 -3.07744 0
M  V30 28452 O 2698.3 1.11926 -4.23561 0
M  V30 28453 C 2699.81 2.75403 -3.47373 0
M  V30 28454 H 2697.03 0.285408 -0.607275 0
M  V30 28455 H 2699.57 0.247543 -2.02996 0
M  V30 28456 H 2697.72 2.57578 -2.89365 0
M  V30 28457 H 2698.14 1.7459 -4.94589 0
M  V30 28458 H 2699.61 3.35969 -4.37982 0
M  V30 28459 H 2700.09 3.47381 -2.68743 0
M  V30 28460 H 2700.7 2.12925 -3.68162 0
M  V30 28461 N 2699.01 1.49585 0.49619 0
M  V30 28462 C 2700.29 1.49818 1.25753 0
M  V30 28463 C 2700.67 0.228609 2.09858 0
M  V30 28464 O 2700.02 -0.78887 2.14451 0
M  V30 28465 C 2700.23 2.77983 2.11013 0
M  V30 28466 C 2701.57 3.27663 2.70041 0
M  V30 28467 O 2702.6 2.79133 2.21276 0
M  V30 28468 O 2701.46 4.12196 3.58827 0
M  V30 28469 H 2698.55 0.599844 0.569312 0
M  V30 28470 H 2701.1 1.61853 0.510066 0
M  V30 28471 H 2699.87 3.61874 1.48872 0
M  V30 28472 H 2699.49 2.68832 2.92942 0
M  V30 28473 N 2700.49 -0.747586 1.3874 0
M  V30 28474 C 2701.45 -1.8431 1.36245 0
M  V30 28475 C 2702.45 -1.58654 0.261839 0
M  V30 28476 O 2703.64 -1.66287 0.51906 0
M  V30 28477 C 2700.77 -3.21886 1.12259 0
M  V30 28478 H 2701.97 -1.87929 2.33715 0
M  V30 28479 H 2699.52 -0.949924 1.24121 0
M  V30 28480 H 2700.25 -3.23933 0.15419 0
M  V30 28481 H 2700.04 -3.41903 1.91949 0
M  V30 28482 H 2701.53 -4.01958 1.13223 0
M  V30 28483 N 2701.97 -1.23709 -0.97642 0
M  V30 28484 C 2703.38 -1.0006 -1.24339 0
M  V30 28485 C 2703.58 0.295897 -1.99316 0
M  V30 28486 O 2702.64 1.01431 -2.31231 0
M  V30 28487 C 2703.95 -2.21005 -2.03905 0
M  V30 28488 C 2705.5 -2.25537 -2.1703 0
M  V30 28489 C 2705.97 -3.4608 -2.99988 0
M  V30 28490 N 2707.47 -3.46343 -3.07572 0
M  V30 28491 C 2708.2 -4.36271 -3.72096 0
M  V30 28492 N 2707.7 -5.3644 -4.38411 0
M  V30 28493 N 2709.49 -4.24004 -3.69022 0
M  V30 28494 H 2701.64 -2.07038 -0.474244 0
M  V30 28495 H 2703.9 -0.908096 -0.272151 0
M  V30 28496 H 2703.61 -3.15114 -1.56192 0
M  V30 28497 H 2703.48 -2.22414 -3.0465 0
M  V30 28498 H 2705.87 -1.31965 -2.63949 0
M  V30 28499 H 2705.95 -2.28158 -1.1566 0
M  V30 28500 H 2705.6 -4.39961 -2.53764 0
M  V30 28501 H 2705.53 -3.40701 -4.01535 0
M  V30 28502 H 2708.02 -2.7387 -2.60392 0
M  V30 28503 H 2708.33 -6.01308 -4.85436 0
M  V30 28504 H 2706.67 -5.40336 -4.37107 0
M  V30 28505 H 2709.87 -3.44989 -3.16386 0
M  V30 28506 H 2710.04 -4.94289 -4.19025 0
M  V30 28507 N 2703.44 1.17579 -1.04943 0
M  V30 28508 C 2704.72 1.83696 -0.67195 0
M  V30 28509 C 2705.1 1.93323 0.847895 0
M  V30 28510 O 2704.45 1.46586 1.75285 0
M  V30 28511 C 2704.66 3.21494 -1.35803 0
M  V30 28512 C 2706.01 3.9743 -1.49447 0
M  V30 28513 O 2707.03 3.30965 -1.31684 0
M  V30 28514 O 2705.89 5.16536 -1.78472 0
M  V30 28515 H 2702.98 0.792544 -0.236226 0
M  V30 28516 H 2705.53 1.24897 -1.14887 0
M  V30 28517 H 2704.3 3.09441 -2.39503 0
M  V30 28518 H 2703.93 3.87958 -0.870304 0
M  V30 28519 N 2704.92 0.830104 1.33967 0
M  V30 28520 C 2706.17 0.420768 1.97671 0
M  V30 28521 C 2706.49 -1.02135 1.66113 0
M  V30 28522 O 2705.76 -1.71016 0.955533 0
M  V30 28523 H 2704.34 0.1526 0.731247 0
M  V30 28524 H 2707 1.06113 1.63481 0
M  V30 28525 H 2706.1 0.545642 3.07293 0
M  V30 28526 N 2706.4 -1.46311 0.585725 0
M  V30 28527 C 2707.33 -2.28463 -0.183647 0
M  V30 28528 C 2708.35 -1.38688 -0.852615 0
M  V30 28529 O 2709.54 -1.63261 -0.721672 0
M  V30 28530 C 2706.64 -3.1381 -1.27971 0
M  V30 28531 C 2705.81 -4.31728 -0.702088 0
M  V30 28532 C 2704.87 -4.9845 -1.68624 0
M  V30 28533 O 2703.89 -5.55947 -1.22111 0
M  V30 28534 N 2705.1 -4.95735 -3.02039 0
M  V30 28535 H 2707.86 -2.95134 0.521178 0
M  V30 28536 H 2705.42 -1.56257 0.423701 0
M  V30 28537 H 2707.41 -3.55311 -1.93743 0
M  V30 28538 H 2705.98 -2.49194 -1.88736 0
M  V30 28539 H 2705.2 -3.93975 0.13317 0
M  V30 28540 H 2706.49 -5.07938 -0.296012 0
M  V30 28541 H 2705.89 -4.50272 -3.42449 0
M  V30 28542 H 2704.45 -5.41167 -3.63292 0
M  V30 28543 N 2707.88 -0.323668 -1.54241 0
M  V30 28544 C 2709.1 0.283568 -2.05452 0
M  V30 28545 C 2709.53 1.44995 -1.19826 0
M  V30 28546 O 2708.89 1.8011 -0.20739 0
M  V30 28547 C 2708.94 0.695732 -3.53825 0
M  V30 28548 O 2708.04 1.79809 -3.71137 0
M  V30 28549 H 2707.38 0.0511801 -0.662025 0
M  V30 28550 H 2709.91 -0.472108 -1.99079 0
M  V30 28551 H 2709.92 0.978365 -3.96096 0
M  V30 28552 H 2708.6 -0.15736 -4.15602 0
M  V30 28553 H 2707.17 1.51425 -3.40771 0
M  V30 28554 N 2709.36 1.57515 -0.0518432 0
M  V30 28555 C 2710.77 1.56664 0.304707 0
M  V30 28556 C 2710.97 1.05956 1.71393 0
M  V30 28557 O 2710.03 0.716457 2.42122 0
M  V30 28558 C 2711.34 3.00408 0.132562 0
M  V30 28559 C 2712.89 3.12337 0.203615 0
M  V30 28560 C 2713.37 4.57961 0.0599901 0
M  V30 28561 N 2714.86 4.63054 0.116245 0
M  V30 28562 C 2715.59 5.73393 0.0292355 0
M  V30 28563 N 2715.09 6.92712 -0.11016 0
M  V30 28564 N 2716.88 5.62036 0.0848663 0
M  V30 28565 H 2709.03 1.88798 -0.973089 0
M  V30 28566 H 2711.29 0.869468 -0.377796 0
M  V30 28567 H 2711 3.41544 -0.839079 0
M  V30 28568 H 2710.87 3.66469 0.893311 0
M  V30 28569 H 2713.26 2.71099 1.16573 0
M  V30 28570 H 2713.34 2.48953 -0.587901 0
M  V30 28571 H 2712.99 4.99884 -0.898802 0
M  V30 28572 H 2712.92 5.19353 0.870659 0
M  V30 28573 H 2715.41 3.7724 0.223204 0
M  V30 28574 H 2715.72 7.72615 -0.16924 0
M  V30 28575 H 2714.07 6.94848 -0.145254 0
M  V30 28576 H 2717.26 4.67705 0.192329 0
M  V30 28577 H 2717.43 6.47999 0.0135992 0
M  V30 28578 N 2710.84 -0.221546 1.56035 0
M  V30 28579 C 2712.06 -0.962832 1.83132 0
M  V30 28580 C 2712.48 -1.77945 0.630966 0
M  V30 28581 O 2711.84 -1.78052 -0.400488 0
M  V30 28582 C 2711.89 -1.88039 3.08745 0
M  V30 28583 O 2711.61 -1.09679 4.24149 0
M  V30 28584 C 2713.11 -2.73557 3.48829 0
M  V30 28585 H 2710.33 -0.282183 0.60878 0
M  V30 28586 H 2712.87 -0.236774 2.03125 0
M  V30 28587 H 2711.03 -2.5604 2.90727 0
M  V30 28588 H 2711.44 -1.71965 4.95508 0
M  V30 28589 H 2712.92 -3.33642 4.39758 0
M  V30 28590 H 2713.39 -3.45951 2.70582 0
M  V30 28591 H 2714 -2.1097 3.69286 0
M  V30 28592 N 2712.31 -1.49846 -0.48825 0
M  V30 28593 C 2713.56 -1.60212 -1.24338 0
M  V30 28594 C 2713.89 -0.293685 -1.91966 0
M  V30 28595 O 2713.17 0.703686 -1.81324 0
M  V30 28596 C 2713.45 -2.7704 -2.30045 0
M  V30 28597 C 2713.3 -4.17716 -1.66834 0
M  V30 28598 C 2714.62 -2.8947 -3.31504 0
M  V30 28599 H 2711.74 -0.583133 -0.450694 0
M  V30 28600 H 2714.38 -1.82175 -0.539641 0
M  V30 28601 H 2712.53 -2.58444 -2.90067 0
M  V30 28602 H 2714.21 -4.4786 -1.10542 0
M  V30 28603 H 2712.45 -4.2277 -0.972004 0
M  V30 28604 H 2713.12 -4.95357 -2.43567 0
M  V30 28605 H 2715.6 -3.06438 -2.81487 0
M  V30 28606 H 2714.47 -3.72869 -4.02815 0
M  V30 28607 H 2714.73 -1.99357 -3.946 0
M  V30 28608 N 2713.79 0.740218 -1.39135 0
M  V30 28609 C 2715.21 1.04507 -1.20625 0
M  V30 28610 C 2715.41 2.01398 -0.0642005 0
M  V30 28611 O 2714.46 2.45611 0.5858 0
M  V30 28612 C 2715.78 1.61236 -2.53818 0
M  V30 28613 C 2717.32 1.73342 -2.60618 0
M  V30 28614 C 2717.8 2.33479 -3.94019 0
M  V30 28615 N 2719.29 2.40895 -3.95631 0
M  V30 28616 C 2720.03 2.88352 -4.95621 0
M  V30 28617 N 2719.52 3.35745 -6.06009 0
M  V30 28618 N 2721.31 2.87514 -4.83003 0
M  V30 28619 H 2713.47 0.0975203 -2.12176 0
M  V30 28620 H 2715.73 0.105888 -0.942068 0
M  V30 28621 H 2715.43 0.975085 -3.37913 0
M  V30 28622 H 2715.31 2.60115 -2.73166 0
M  V30 28623 H 2717.7 2.36192 -1.7691 0
M  V30 28624 H 2717.78 0.731293 -2.45124 0
M  V30 28625 H 2717.42 1.71258 -4.78156 0
M  V30 28626 H 2717.35 3.34359 -4.06831 0
M  V30 28627 H 2719.84 2.07392 -3.15907 0
M  V30 28628 H 2720.15 3.70452 -6.78222 0
M  V30 28629 H 2718.5 3.33768 -6.0961 0
M  V30 28630 H 2721.69 2.49809 -3.9587 0
M  V30 28631 H 2721.86 3.24186 -5.61077 0
M  V30 28632 N 2715.27 1.24225 0.969846 0
M  V30 28633 C 2716.2 0.990586 2.06688 0
M  V30 28634 C 2717.21 -0.0391936 1.62753 0
M  V30 28635 O 2718.4 0.197592 1.77403 0
M  V30 28636 C 2715.5 0.472653 3.35588 0
M  V30 28637 C 2714.68 1.56507 4.08441 0
M  V30 28638 C 2713.74 1.05016 5.15614 0
M  V30 28639 O 2712.76 1.7414 5.41908 0
M  V30 28640 N 2713.96 -0.116539 5.80383 0
M  V30 28641 H 2716.73 1.93512 2.28852 0
M  V30 28642 H 2714.29 1.15225 1.13731 0
M  V30 28643 H 2716.28 0.11299 4.04542 0
M  V30 28644 H 2714.85 -0.377563 3.10311 0
M  V30 28645 H 2714.07 2.09702 3.33795 0
M  V30 28646 H 2715.36 2.2994 4.53878 0
M  V30 28647 H 2714.76 -0.69449 5.61421 0
M  V30 28648 H 2713.31 -0.417368 6.50462 0
M  V30 28649 N 2716.75 -1.1702 1.05565 0
M  V30 28650 C 2717.99 -1.87373 0.767969 0
M  V30 28651 C 2718.32 -1.81266 -0.705193 0
M  V30 28652 O 2717.58 -1.21799 -1.53178 0
M  V30 28653 C 2717.88 -3.36704 1.19855 0
M  V30 28654 C 2717.54 -3.63012 2.67456 0
M  V30 28655 C 2716.2 -3.69902 3.07776 0
M  V30 28656 C 2718.56 -3.74183 3.62818 0
M  V30 28657 C 2715.88 -3.85455 4.42314 0
M  V30 28658 C 2718.24 -3.91255 4.97093 0
M  V30 28659 C 2716.9 -3.96385 5.37062 0
M  V30 28660 H 2716.17 -0.685645 0.28102 0
M  V30 28661 H 2718.82 -1.38412 1.32341 0
M  V30 28662 H 2717.12 -3.87746 0.562164 0
M  V30 28663 H 2718.82 -3.89508 0.953107 0
M  V30 28664 H 2715.41 -3.58278 2.35234 0
M  V30 28665 H 2719.59 -3.68177 3.32805 0
M  V30 28666 H 2714.85 -3.87676 4.72776 0
M  V30 28667 H 2719.02 -3.9884 5.70876 0
M  V30 28668 H 2716.65 -4.08189 6.41316 0
M  V30 28669 N 2718.23 -0.837197 -1.33524 0
M  V30 28670 C 2719.16 -0.226619 -2.28077 0
M  V30 28671 C 2720.17 0.59169 -1.51667 0
M  V30 28672 O 2721.36 0.419034 -1.73512 0
M  V30 28673 C 2718.46 0.699722 -3.31598 0
M  V30 28674 C 2717.63 -0.0788836 -4.37329 0
M  V30 28675 C 2716.69 0.770546 -5.20528 0
M  V30 28676 O 2715.72 0.210353 -5.68811 0
M  V30 28677 N 2716.92 2.08816 -5.41642 0
M  V30 28678 H 2719.68 -1.03902 -2.81113 0
M  V30 28679 H 2717.25 -0.695502 -1.462 0
M  V30 28680 H 2719.24 1.27291 -3.8416 0
M  V30 28681 H 2717.81 1.41284 -2.78851 0
M  V30 28682 H 2717.03 -0.833449 -3.85289 0
M  V30 28683 H 2718.32 -0.614327 -5.05078 0
M  V30 28684 H 2717.71 2.56684 -5.04113 0
M  V30 28685 H 2716.27 2.60987 -5.97268 0
M  V30 28686 N 2719.7 1.45999 -0.593476 0
M  V30 28687 C 2720.95 2.02329 -0.0831878 0
M  V30 28688 C 2721.28 1.46366 1.28091 0
M  V30 28689 O 2720.53 0.622825 1.85525 0
M  V30 28690 C 2720.83 3.57394 0.0211152 0
M  V30 28691 C 2720.5 4.32445 -1.27679 0
M  V30 28692 C 2719.16 4.52668 -1.63235 0
M  V30 28693 C 2721.51 4.75456 -2.1352 0
M  V30 28694 C 2718.84 5.13155 -2.8441 0
M  V30 28695 C 2721.19 5.37283 -3.33931 0
M  V30 28696 C 2719.86 5.55731 -3.69756 0
M  V30 28697 H 2719.13 0.740374 -0.0304406 0
M  V30 28698 H 2721.77 1.75238 -0.77227 0
M  V30 28699 H 2720.08 3.83683 0.793387 0
M  V30 28700 H 2721.78 3.98668 0.431872 0
M  V30 28701 H 2718.37 4.17009 -0.99001 0
M  V30 28702 H 2722.55 4.59579 -1.87352 0
M  V30 28703 H 2717.81 5.25628 -3.12291 0
M  V30 28704 H 2721.98 5.69567 -4.00708 0
M  V30 28705 H 2719.61 6.02369 -4.63741 0
M  V30 28706 N 2721.18 0.331843 1.54067 0
M  V30 28707 C 2722.41 -0.26996 2.05131 0
M  V30 28708 C 2722.83 -1.45136 1.20752 0
M  V30 28709 O 2722.18 -1.80914 0.240101 0
M  V30 28710 C 2722.23 -0.696393 3.54729 0
M  V30 28711 O 2721.95 0.438017 4.35905 0
M  V30 28712 C 2723.46 -1.36014 4.21918 0
M  V30 28713 H 2720.68 -0.0541924 0.668808 0
M  V30 28714 H 2723.22 0.480435 1.98776 0
M  V30 28715 H 2721.37 -1.39675 3.61344 0
M  V30 28716 H 2721.79 0.100427 5.24404 0
M  V30 28717 H 2723.26 -1.60938 5.28018 0
M  V30 28718 H 2723.74 -2.31005 3.73542 0
M  V30 28719 H 2724.35 -0.702138 4.19464 0
M  V30 28720 N 2722.66 -1.57485 0.0601958 0
M  V30 28721 C 2723.94 -1.84416 -0.651923 0
M  V30 28722 C 2724.32 -0.950394 -1.88496 0
M  V30 28723 O 2723.67 -0.0137121 -2.28496 0
M  V30 28724 C 2723.88 -3.34348 -1.00063 0
M  V30 28725 C 2725.22 -4.0158 -1.37908 0
M  V30 28726 O 2726.25 -3.39026 -1.09271 0
M  V30 28727 O 2725.11 -5.11891 -1.9139 0
M  V30 28728 H 2722.2 -0.761461 -0.322655 0
M  V30 28729 H 2724.75 -1.6946 0.0902457 0
M  V30 28730 H 2723.52 -3.91102 -0.124394 0
M  V30 28731 H 2723.14 -3.54524 -1.79995 0
M  V30 28732 N 2724.14 0.213268 -1.5615 0
M  V30 28733 C 2725.38 0.933371 -1.8072 0
M  V30 28734 C 2725.74 1.81638 -0.634473 0
M  V30 28735 O 2725.03 1.87971 0.371149 0
M  V30 28736 C 2725.23 1.7998 -3.08775 0
M  V30 28737 C 2725.06 1.00217 -4.38391 0
M  V30 28738 C 2723.83 0.693797 -5.00514 0
M  V30 28739 C 2726.02 0.363508 -5.13014 0
M  V30 28740 N 2724.01 -0.124373 -6.13774 0
M  V30 28741 C 2725.38 -0.317679 -6.19186 0
M  V30 28742 C 2727.43 0.277381 -4.97127 0
M  V30 28743 C 2726.13 -1.07676 -7.11195 0
M  V30 28744 C 2728.16 -0.468259 -5.89543 0
M  V30 28745 C 2727.52 -1.13796 -6.95147 0
M  V30 28746 H 2723.62 0.321536 -0.712838 0
M  V30 28747 H 2726.21 0.203554 -1.93633 0
M  V30 28748 H 2724.38 2.50137 -2.9713 0
M  V30 28749 H 2726.11 2.458 -3.21503 0
M  V30 28750 H 2722.86 1.01383 -4.62621 0
M  V30 28751 H 2723.29 -0.522536 -6.7498 0
M  V30 28752 H 2727.93 0.780797 -4.15528 0
M  V30 28753 H 2725.65 -1.59167 -7.9227 0
M  V30 28754 H 2729.23 -0.536013 -5.79326 0
M  V30 28755 H 2728.11 -1.7057 -7.65425 0
M  V30 28756 N 2725.62 1.50103 0.480296 0
M  V30 28757 C 2727.03 1.53595 1.06139 0
M  V30 28758 C 2727.38 0.334089 1.93335 0
M  V30 28759 O 2726.5 -0.553993 2.09189 0
M  V30 28760 C 2727.1 2.78339 1.93165 0
M  V30 28761 C 2725.66 2.84542 2.464 0
M  V30 28762 C 2724.8 2.47772 1.24517 0
M  V30 28763 H 2727.76 1.56501 0.263302 0
M  V30 28764 H 2727.78 2.59673 2.78119 0
M  V30 28765 H 2727.29 3.65795 1.29676 0
M  V30 28766 H 2725.39 2.01416 3.13468 0
M  V30 28767 H 2725.5 3.87216 2.82136 0
M  V30 28768 H 2723.87 2.00005 1.57702 0
M  V30 28769 H 2724.65 3.37525 0.627043 0
M  V30 28770 N 2727.09 -0.732829 1.39526 0
M  V30 28771 C 2728 -1.87727 1.40698 0
M  V30 28772 C 2729.02 -1.71368 0.301526 0
M  V30 28773 O 2730.2 -1.93932 0.543347 0
M  V30 28774 C 2727.26 -3.23342 1.25104 0
M  V30 28775 C 2726.32 -3.52079 2.4564 0
M  V30 28776 C 2725.56 -4.81224 2.3078 0
M  V30 28777 O 2725.78 -5.55096 1.31243 0
M  V30 28778 O 2724.71 -5.09909 3.19808 0
M  V30 28779 H 2728.54 -1.89693 2.37172 0
M  V30 28780 H 2726.12 -0.880938 1.20664 0
M  V30 28781 H 2728.01 -4.04381 1.18548 0
M  V30 28782 H 2726.68 -3.22141 0.317266 0
M  V30 28783 H 2725.59 -2.71117 2.57772 0
M  V30 28784 H 2726.92 -3.5806 3.37718 0
M  V30 28785 N 2728.57 -1.24737 -0.963244 0
M  V30 28786 C 2729.5 -1.00153 -2.0616 0
M  V30 28787 C 2730.52 0.0305619 -1.62771 0
M  V30 28788 O 2731.71 -0.206997 -1.77296 0
M  V30 28789 C 2728.81 -0.490444 -3.35332 0
M  V30 28790 C 2727.98 -1.58671 -4.07606 0
M  V30 28791 C 2727.04 -1.07749 -5.1505 0
M  V30 28792 O 2726.06 -1.77011 -5.40977 0
M  V30 28793 N 2727.27 0.0857585 -5.80437 0
M  V30 28794 H 2730.03 -1.94723 -2.27822 0
M  V30 28795 H 2727.59 -1.15827 -1.13119 0
M  V30 28796 H 2729.58 -0.134442 -4.04477 0
M  V30 28797 H 2728.15 0.361101 -3.10507 0
M  V30 28798 H 2727.37 -2.11469 -3.32678 0
M  V30 28799 H 2728.66 -2.32344 -4.52652 0
M  V30 28800 H 2728.06 0.664707 -5.61781 0
M  V30 28801 H 2726.62 0.382867 -6.50675 0
M  V30 28802 N 2730.05 1.16459 -1.06184 0
M  V30 28803 C 2731.3 1.86593 -0.776359 0
M  V30 28804 C 2731.62 1.82034 0.699178 0
M  V30 28805 O 2730.89 1.25313 1.50577 0
M  V30 28806 H 2729.47 0.690827 -0.284196 0
M  V30 28807 H 2732.13 1.41233 -1.34311 0
M  V30 28808 H 2731.23 2.92062 -1.10027 0
M  V30 28809 N 2731.53 0.844266 1.33079 0
M  V30 28810 C 2732.77 0.44324 1.97897 0
M  V30 28811 C 2733.11 -0.996221 1.66701 0
M  V30 28812 O 2732.38 -1.69736 0.949734 0
M  V30 28813 C 2732.67 0.670668 3.53799 0
M  V30 28814 C 2732.52 2.15779 3.94664 0
M  V30 28815 C 2733.84 0.120304 4.39936 0
M  V30 28816 H 2730.96 0.162517 0.718858 0
M  V30 28817 H 2733.6 1.06078 1.57631 0
M  V30 28818 H 2731.75 0.145028 3.88229 0
M  V30 28819 H 2733.42 2.74871 3.70464 0
M  V30 28820 H 2731.66 2.64026 3.44199 0
M  V30 28821 H 2732.33 2.26765 5.03271 0
M  V30 28822 H 2734.81 0.569672 4.12182 0
M  V30 28823 H 2733.69 0.309081 5.48029 0
M  V30 28824 H 2733.95 -0.976271 4.31186 0
M  V30 28825 N 2733.01 -1.45682 0.60121 0
M  V30 28826 C 2734.42 -1.85833 0.179691 0
M  V30 28827 C 2734.77 -1.50238 -1.26186 0
M  V30 28828 O 2733.89 -0.926022 -1.95586 0
M  V30 28829 C 2734.49 -3.37292 0.319336 0
M  V30 28830 C 2733.05 -3.7637 -0.0474431 0
M  V30 28831 C 2732.19 -2.69653 0.646739 0
M  V30 28832 H 2735.15 -1.36574 0.808292 0
M  V30 28833 H 2735.17 -3.77827 -0.450234 0
M  V30 28834 H 2734.68 -3.63167 1.36861 0
M  V30 28835 H 2732.78 -3.56112 -1.09614 0
M  V30 28836 H 2732.89 -4.77879 0.341764 0
M  V30 28837 H 2731.26 -2.54558 0.0850419 0
M  V30 28838 H 2732.04 -2.98366 1.69802 0
M  V30 28839 N 2734.48 -0.340009 -1.53889 0
M  V30 28840 C 2735.43 0.518413 -2.24902 0
M  V30 28841 C 2736.4 1.09842 -1.24595 0
M  V30 28842 O 2737.59 1.13569 -1.53319 0
M  V30 28843 C 2734.73 1.66523 -3.02265 0
M  V30 28844 C 2733.84 1.11288 -4.17419 0
M  V30 28845 C 2732.97 2.22672 -4.82277 0
M  V30 28846 C 2732.01 1.64769 -5.89506 0
M  V30 28847 N 2731.15 2.69881 -6.48158 0
M  V30 28848 H 2735.99 -0.0937102 -2.97853 0
M  V30 28849 H 2733.53 -0.0580182 -1.46986 0
M  V30 28850 H 2735.49 2.34034 -3.45375 0
M  V30 28851 H 2734.12 2.2484 -2.31618 0
M  V30 28852 H 2733.17 0.328819 -3.78976 0
M  V30 28853 H 2734.48 0.649328 -4.94556 0
M  V30 28854 H 2733.63 2.98054 -5.2844 0
M  V30 28855 H 2732.37 2.72369 -4.04557 0
M  V30 28856 H 2731.38 0.878908 -5.42729 0
M  V30 28857 H 2732.6 1.15928 -6.69132 0
M  V30 28858 H 2730.55 3.1884 -5.73304 0
M  V30 28859 H 2730.47 2.28138 -7.20756 0
M  V30 28860 H 2731.73 3.45043 -6.98975 0
M  V30 28861 N 2735.96 1.57451 -0.0685468 0
M  V30 28862 C 2737.19 1.98107 0.613884 0
M  V30 28863 C 2737.61 0.94653 1.6255 0
M  V30 28864 O 2736.97 -0.0882506 1.81085 0
M  V30 28865 C 2737.02 3.37802 1.26183 0
M  V30 28866 O 2736.12 3.36958 2.37767 0
M  V30 28867 H 2735.46 0.644891 0.158152 0
M  V30 28868 H 2737.99 2.04106 -0.142099 0
M  V30 28869 H 2738 3.74915 1.60944 0
M  V30 28870 H 2736.68 4.12629 0.520553 0
M  V30 28871 H 2735.26 3.11612 2.04823 0
M  V30 28872 N 2737.44 -0.204984 1.56261 0
M  V30 28873 C 2738.69 -0.925064 1.79686 0
M  V30 28874 C 2739.01 -1.84201 0.639922 0
M  V30 28875 O 2738.28 -1.92886 -0.342311 0
M  V30 28876 H 2736.86 -0.344575 0.66278 0
M  V30 28877 H 2739.52 -0.212865 1.93734 0
M  V30 28878 H 2738.62 -1.52206 2.72469 0
M  V30 28879 N 2738.92 -1.50356 -0.472329 0
M  V30 28880 C 2739.83 -1.71913 -1.59634 0
M  V30 28881 C 2740.85 -0.602224 -1.63246 0
M  V30 28882 O 2742.02 -0.880401 -1.81138 0
M  V30 28883 C 2739.09 -1.80748 -2.95857 0
M  V30 28884 C 2738.15 -3.04476 -3.02643 0
M  V30 28885 C 2737.38 -3.12879 -4.32368 0
M  V30 28886 O 2737.6 -2.28108 -5.22803 0
M  V30 28887 O 2736.54 -4.05595 -4.44721 0
M  V30 28888 H 2740.36 -2.67192 -1.44369 0
M  V30 28889 H 2737.95 -1.34437 -0.651694 0
M  V30 28890 H 2739.83 -1.88746 -3.76767 0
M  V30 28891 H 2738.51 -0.886524 -3.11324 0
M  V30 28892 H 2737.41 -3.01979 -2.20816 0
M  V30 28893 H 2738.75 -3.96145 -2.92112 0
M  V30 28894 N 2740.4 0.725419 -1.39912 0
M  V30 28895 C 2741.65 1.48222 -1.37385 0
M  V30 28896 C 2741.97 1.94982 0.0263765 0
M  V30 28897 O 2741.24 1.69661 0.979378 0
M  V30 28898 H 2739.82 0.549883 -0.505606 0
M  V30 28899 H 2742.48 0.860577 -1.74872 0
M  V30 28900 H 2741.57 2.35977 -2.04258 0
M  V30 28901 N 2741.88 1.25246 0.956615 0
M  V30 28902 C 2743.12 1.09877 1.70098 0
M  V30 28903 C 2743.45 -0.360587 1.91128 0
M  V30 28904 O 2742.71 -1.28226 1.4784 0
M  V30 28905 C 2743 1.79606 3.08992 0
M  V30 28906 C 2742.67 3.29529 3.07769 0
M  V30 28907 C 2741.33 3.70428 3.07142 0
M  V30 28908 C 2743.68 4.25321 3.0125 0
M  V30 28909 C 2741.01 5.05535 2.97743 0
M  V30 28910 C 2743.36 5.60449 2.93393 0
M  V30 28911 C 2742.03 6.0068 2.91101 0
M  V30 28912 H 2741.3 0.402067 0.622433 0
M  V30 28913 H 2743.95 1.55493 1.11777 0
M  V30 28914 H 2742.25 1.26415 3.70846 0
M  V30 28915 H 2743.95 1.65169 3.65404 0
M  V30 28916 H 2740.54 2.96985 3.09027 0
M  V30 28917 H 2744.72 3.94716 3.00854 0
M  V30 28918 H 2739.98 5.35888 2.94336 0
M  V30 28919 H 2744.15 6.34371 2.87309 0
M  V30 28920 H 2741.78 7.0533 2.83573 0
M  V30 28921 N 2743.35 -1.15894 1.068 0
M  V30 28922 C 2744.6 -1.85889 0.782829 0
M  V30 28923 C 2744.92 -1.82895 -0.693466 0
M  V30 28924 O 2746.12 -2.48518 -1.0932 0
M  V30 28925 C 2744.58 -3.33611 1.35026 0
M  V30 28926 C 2744.19 -3.45066 2.85716 0
M  V30 28927 C 2745.93 -4.08827 1.14285 0
M  V30 28928 C 2743.84 -4.86903 3.35678 0
M  V30 28929 H 2742.77 -0.696349 0.289161 0
M  V30 28930 H 2745.42 -1.30764 1.28736 0
M  V30 28931 H 2743.8 -3.88373 0.773475 0
M  V30 28932 H 2744.97 -3.00439 3.4939 0
M  V30 28933 H 2743.29 -2.83289 3.05183 0
M  V30 28934 H 2745.89 -5.13493 1.49096 0
M  V30 28935 H 2746.23 -4.1622 0.0815307 0
M  V30 28936 H 2746.76 -3.60318 1.68569 0
M  V30 28937 H 2743.5 -4.84691 4.41311 0
M  V30 28938 H 2743.02 -5.32134 2.76755 0
M  V30 28939 H 2744.7 -5.55739 3.31305 0
M  V30 28940 N 2744.83 -0.851312 -1.32629 0
M  V30 28941 C 2746.11 -0.374482 -1.91982 0
M  V30 28942 C 2746.49 1.14158 -1.7757 0
M  V30 28943 O 2745.84 1.9617 -1.17174 0
M  V30 28944 C 2746.05 -0.835148 -3.3886 0
M  V30 28945 C 2747.39 -0.850383 -4.15997 0
M  V30 28946 O 2748.42 -0.779566 -3.47565 0
M  V30 28947 O 2747.28 -0.949575 -5.38187 0
M  V30 28948 H 2744.37 -0.108554 -0.819845 0
M  V30 28949 H 2746.92 -0.937991 -1.41421 0
M  V30 28950 H 2745.69 -1.8782 -3.43278 0
M  V30 28951 H 2745.31 -0.248902 -3.9682 0
M  V30 28952 N 2746.31 1.45361 -0.608928 0
M  V30 28953 C 2747.56 2.02229 -0.104643 0
M  V30 28954 C 2747.88 1.47717 1.26531 0
M  V30 28955 O 2747.14 0.642468 1.84854 0
M  V30 28956 C 2747.44 3.57396 -0.0167924 0
M  V30 28957 C 2747.1 4.31067 -1.32258 0
M  V30 28958 C 2745.77 4.50911 -1.68027 0
M  V30 28959 C 2748.12 4.73165 -2.18551 0
M  V30 28960 C 2745.45 5.10109 -2.89837 0
M  V30 28961 C 2747.8 5.33711 -3.39611 0
M  V30 28962 C 2746.46 5.51777 -3.7563 0
M  V30 28963 H 2745.73 0.74001 -0.0382915 0
M  V30 28964 H 2748.38 1.74409 -0.790813 0
M  V30 28965 H 2746.68 3.84503 0.752648 0
M  V30 28966 H 2748.38 3.99103 0.389564 0
M  V30 28967 H 2744.97 4.15936 -1.03418 0
M  V30 28968 H 2749.16 4.57566 -1.92216 0
M  V30 28969 H 2744.41 5.22286 -3.17848 0
M  V30 28970 H 2748.59 5.65285 -4.06726 0
M  V30 28971 H 2746.21 5.97417 -4.70104 0
M  V30 28972 N 2747.79 0.348166 1.53706 0
M  V30 28973 C 2749.04 -0.247957 2.0017 0
M  V30 28974 C 2749.35 -1.51284 1.23986 0
M  V30 28975 O 2750.56 -2.18649 1.6095 0
M  V30 28976 C 2749.01 -0.492396 3.56516 0
M  V30 28977 C 2748.62 0.756854 4.41561 0
M  V30 28978 C 2750.36 -1.04712 4.11382 0
M  V30 28979 C 2748.27 0.48296 5.89425 0
M  V30 28980 H 2747.2 -0.096432 0.747808 0
M  V30 28981 H 2749.85 0.464211 1.77531 0
M  V30 28982 H 2748.23 -1.26538 3.75239 0
M  V30 28983 H 2749.41 1.5313 4.34612 0
M  V30 28984 H 2747.72 1.23355 3.97709 0
M  V30 28985 H 2750.32 -1.26708 5.1947 0
M  V30 28986 H 2750.66 -2.00405 3.64889 0
M  V30 28987 H 2751.2 -0.334731 3.96389 0
M  V30 28988 H 2747.93 1.40973 6.40162 0
M  V30 28989 H 2747.45 -0.253311 5.99265 0
M  V30 28990 H 2749.13 0.10193 6.4692 0
M  V30 28991 N 2749.27 -1.57412 0.0768958 0
M  V30 28992 C 2750.51 -1.933 -0.589884 0
M  V30 28993 C 2750.83 -0.958079 -1.69841 0
M  V30 28994 O 2750.1 -0.00706705 -1.95899 0
M  V30 28995 H 2748.68 -0.713595 -0.220888 0
M  V30 28996 H 2751.35 -1.94425 0.135951 0
M  V30 28997 H 2750.44 -2.95241 -1.0119 0
M  V30 28998 N 2750.74 0.196695 -1.56368 0
M  V30 28999 C 2751.68 1.2678 -1.90943 0
M  V30 29000 C 2752.69 1.41791 -0.799953 0
M  V30 29001 O 2753.88 1.42245 -1.07836 0
M  V30 29002 C 2750.98 2.64017 -2.12482 0
M  V30 29003 C 2750.15 2.70635 -3.43621 0
M  V30 29004 C 2749.21 3.89056 -3.54291 0
M  V30 29005 O 2748.24 3.76233 -4.27126 0
M  V30 29006 N 2749.44 5.04442 -2.87261 0
M  V30 29007 H 2752.2 0.974367 -2.83419 0
M  V30 29008 H 2749.76 0.386621 -1.57216 0
M  V30 29009 H 2751.76 3.41661 -2.1691 0
M  V30 29010 H 2750.33 2.85855 -1.26513 0
M  V30 29011 H 2749.55 1.79277 -3.51075 0
M  V30 29012 H 2750.83 2.72047 -4.29963 0
M  V30 29013 H 2750.23 5.17758 -2.2791 0
M  V30 29014 H 2748.79 5.80039 -2.97318 0
M  V30 29015 N 2752.22 1.50604 0.464349 0
M  V30 29016 C 2753.47 1.6217 1.21773 0
M  V30 29017 C 2753.8 0.324188 1.91475 0
M  V30 29018 O 2753.08 -0.67475 1.82421 0
M  V30 29019 C 2753.36 2.80665 2.25609 0
M  V30 29020 C 2753.21 4.20317 1.60168 0
M  V30 29021 C 2754.53 2.94707 3.26857 0
M  V30 29022 H 2751.65 0.59023 0.441359 0
M  V30 29023 H 2754.29 1.83011 0.51059 0
M  V30 29024 H 2752.44 2.63026 2.85919 0
M  V30 29025 H 2754.11 4.49562 1.03403 0
M  V30 29026 H 2752.36 4.24263 0.904622 0
M  V30 29027 H 2753.03 4.9917 2.35656 0
M  V30 29028 H 2755.5 3.10877 2.76577 0
M  V30 29029 H 2754.38 3.7923 3.96832 0
M  V30 29030 H 2754.64 2.0561 3.91378 0
M  V30 29031 N 2753.7 -0.717989 1.40295 0
M  V30 29032 C 2754.65 -1.82362 1.3685 0
M  V30 29033 C 2755.63 -1.59001 0.246452 0
M  V30 29034 O 2756.83 -1.70215 0.485366 0
M  V30 29035 C 2753.96 -3.20466 1.2311 0
M  V30 29036 C 2753.04 -3.49599 2.40086 0
M  V30 29037 N 2753.43 -3.49562 3.65568 0
M  V30 29038 C 2751.73 -3.80045 2.33414 0
M  V30 29039 C 2752.43 -3.7697 4.43022 0
M  V30 29040 N 2751.41 -3.95599 3.7283 0
M  V30 29041 H 2755.21 -1.80664 2.31814 0
M  V30 29042 H 2752.72 -0.917006 1.34033 0
M  V30 29043 H 2754.72 -3.99637 1.18725 0
M  V30 29044 H 2753.38 -3.23392 0.291113 0
M  V30 29045 H 2754.39 -3.30469 3.98762 0
M  V30 29046 H 2751.07 -3.90475 1.47768 0
M  V30 29047 H 2752.46 -3.83267 5.51866 0
M  V30 29048 N 2755.18 -1.25752 -0.94996 0
M  V30 29049 C 2756.13 -1.06544 -2.04736 0
M  V30 29050 C 2757.1 0.0268526 -1.66078 0
M  V30 29051 O 2758.28 -0.131229 -1.90348 0
M  V30 29052 C 2755.42 -0.695186 -3.38025 0
M  V30 29053 C 2754.53 -1.86282 -3.89773 0
M  V30 29054 C 2753.67 -1.43649 -5.11408 0
M  V30 29055 C 2752.71 -2.57297 -5.55396 0
M  V30 29056 N 2751.84 -2.15407 -6.6824 0
M  V30 29057 H 2756.68 -2.0046 -2.20499 0
M  V30 29058 H 2754.22 -0.998197 -1.08048 0
M  V30 29059 H 2756.18 -0.461448 -4.1464 0
M  V30 29060 H 2754.81 0.20699 -3.22136 0
M  V30 29061 H 2753.86 -2.20974 -3.09636 0
M  V30 29062 H 2755.17 -2.71613 -4.18363 0
M  V30 29063 H 2754.33 -1.16268 -5.95455 0
M  V30 29064 H 2753.07 -0.553964 -4.84544 0
M  V30 29065 H 2752.07 -2.85418 -4.69911 0
M  V30 29066 H 2753.3 -3.46135 -5.84266 0
M  V30 29067 H 2751.24 -1.29577 -6.43075 0
M  V30 29068 H 2751.16 -2.94284 -6.96371 0
M  V30 29069 H 2752.43 -1.91214 -7.55683 0
M  V30 29070 N 2756.66 1.15326 -1.07413 0
M  V30 29071 C 2757.88 1.90008 -0.818816 0
M  V30 29072 C 2758.3 1.78048 0.628041 0
M  V30 29073 O 2757.66 1.13285 1.43083 0
M  V30 29074 C 2757.71 3.40334 -1.2188 0
M  V30 29075 O 2757.43 3.5195 -2.60889 0
M  V30 29076 C 2758.93 4.32038 -0.992872 0
M  V30 29077 H 2756.15 0.602175 -0.296017 0
M  V30 29078 H 2758.69 1.46115 -1.43076 0
M  V30 29079 H 2756.85 3.81888 -0.651171 0
M  V30 29080 H 2757.26 4.4525 -2.77223 0
M  V30 29081 H 2758.74 5.3593 -1.32225 0
M  V30 29082 H 2759.21 4.39143 0.0707559 0
M  V30 29083 H 2759.82 3.96228 -1.54544 0
M  V30 29084 N 2758.13 0.858334 1.32176 0
M  V30 29085 C 2759.08 0.303647 2.28794 0
M  V30 29086 C 2760.05 -0.591426 1.55214 0
M  V30 29087 O 2761.24 -0.525553 1.83419 0
M  V30 29088 C 2758.38 -0.49883 3.41476 0
M  V30 29089 C 2757.49 0.422448 4.2993 0
M  V30 29090 C 2756.62 -0.393018 5.29744 0
M  V30 29091 C 2755.66 0.525425 6.09841 0
M  V30 29092 N 2754.8 -0.253084 7.01644 0
M  V30 29093 H 2759.64 1.13281 2.75629 0
M  V30 29094 H 2757.18 0.570049 1.35605 0
M  V30 29095 H 2759.14 -0.979755 4.05533 0
M  V30 29096 H 2757.77 -1.29279 2.95782 0
M  V30 29097 H 2756.82 1.02178 3.6642 0
M  V30 29098 H 2758.13 1.12717 4.85897 0
M  V30 29099 H 2757.28 -0.936951 5.99421 0
M  V30 29100 H 2756.02 -1.13109 4.74402 0
M  V30 29101 H 2755.03 1.08121 5.39064 0
M  V30 29102 H 2756.25 1.26216 6.67268 0
M  V30 29103 H 2754.2 -0.974181 6.48726 0
M  V30 29104 H 2754.12 0.392531 7.5498 0
M  V30 29105 H 2755.38 -0.778625 7.75602 0
M  V30 29106 N 2759.61 -1.45036 0.616628 0
M  V30 29107 C 2760.52 -2.34393 -0.0984989 0
M  V30 29108 C 2761.54 -1.51773 -0.850944 0
M  V30 29109 O 2762.71 -1.84547 -0.806488 0
M  V30 29110 C 2759.78 -3.29534 -1.07742 0
M  V30 29111 C 2758.84 -4.28061 -0.325946 0
M  V30 29112 C 2758.07 -5.18656 -1.25824 0
M  V30 29113 O 2758.3 -5.12869 -2.49643 0
M  V30 29114 O 2757.23 -5.97204 -0.750407 0
M  V30 29115 H 2761.06 -2.96964 0.636068 0
M  V30 29116 H 2758.64 -1.44569 0.376857 0
M  V30 29117 H 2760.52 -3.88135 -1.641 0
M  V30 29118 H 2759.2 -2.69515 -1.79286 0
M  V30 29119 H 2758.11 -3.73048 0.280319 0
M  V30 29120 H 2759.44 -4.9096 0.349177 0
M  V30 29121 N 2761.09 -0.356312 -1.53519 0
M  V30 29122 C 2762.02 0.529087 -2.2301 0
M  V30 29123 C 2763.04 1.05369 -1.24102 0
M  V30 29124 O 2764.22 0.961653 -1.50381 0
M  V30 29125 C 2761.32 1.74224 -2.90688 0
M  V30 29126 C 2760.5 1.35074 -4.16021 0
M  V30 29127 C 2759.56 2.42494 -4.66994 0
M  V30 29128 O 2758.58 2.0527 -5.30898 0
M  V30 29129 N 2759.78 3.73943 -4.44013 0
M  V30 29130 H 2762.55 -0.0661028 -2.99627 0
M  V30 29131 H 2760.11 -0.181043 -1.60885 0
M  V30 29132 H 2762.1 2.45544 -3.21699 0
M  V30 29133 H 2760.67 2.24451 -2.17579 0
M  V30 29134 H 2759.89 0.467764 -3.91415 0
M  V30 29135 H 2761.18 1.06533 -4.97522 0
M  V30 29136 H 2760.58 4.06966 -3.92931 0
M  V30 29137 H 2759.14 4.41395 -4.79598 0
M  V30 29138 N 2762.57 1.57369 -0.0852427 0
M  V30 29139 C 2763.82 1.93993 0.580771 0
M  V30 29140 C 2764.14 0.966281 1.68799 0
M  V30 29141 O 2763.4 -0.0158305 1.95694 0
M  V30 29142 C 2763.7 3.37192 1.18476 0
M  V30 29143 C 2763.36 4.50446 0.202321 0
M  V30 29144 C 2762.03 4.81152 -0.0679164 0
M  V30 29145 C 2764.38 5.19085 -0.469041 0
M  V30 29146 C 2761.71 5.77829 -1.01638 0
M  V30 29147 C 2764.06 6.16779 -1.40591 0
M  V30 29148 C 2762.72 6.45896 -1.68448 0
M  V30 29149 H 2761.99 0.709871 0.212519 0
M  V30 29150 H 2764.64 1.90839 -0.158981 0
M  V30 29151 H 2762.94 3.36876 2.00054 0
M  V30 29152 H 2764.64 3.62825 1.7076 0
M  V30 29153 H 2761.23 4.26506 0.423133 0
M  V30 29154 H 2765.41 4.95546 -0.273394 0
M  V30 29155 H 2760.67 5.98708 -1.23931 0
M  V30 29156 H 2764.84 6.69064 -1.932 0
M  V30 29157 H 2762.47 7.20619 -2.421 0
M  V30 29158 N 2764.05 -0.188399 1.5647 0
M  V30 29159 C 2765.29 -0.905954 1.80657 0
M  V30 29160 C 2765.62 -1.83512 0.659423 0
M  V30 29161 O 2764.89 -1.93238 -0.321834 0
M  V30 29162 H 2763.47 -0.337526 0.666397 0
M  V30 29163 H 2766.13 -0.192305 1.93949 0
M  V30 29164 H 2765.22 -1.49308 2.74069 0
M  V30 29165 N 2765.53 -1.50848 -0.456355 0
M  V30 29166 C 2766.46 -1.66956 -1.5703 0
M  V30 29167 C 2767.47 -0.55062 -1.53206 0
M  V30 29168 O 2768.66 -0.824313 -1.58327 0
M  V30 29169 C 2765.76 -1.65154 -2.95935 0
M  V30 29170 C 2764.93 -2.93322 -3.2447 0
M  V30 29171 C 2763.99 -2.83965 -4.43002 0
M  V30 29172 O 2763.02 -3.57919 -4.42586 0
M  V30 29173 N 2764.22 -1.9852 -5.455 0
M  V30 29174 H 2766.98 -2.63044 -1.43624 0
M  V30 29175 H 2764.55 -1.48497 -0.645011 0
M  V30 29176 H 2766.54 -1.56487 -3.73221 0
M  V30 29177 H 2765.11 -0.767397 -3.03034 0
M  V30 29178 H 2764.33 -3.16004 -2.35659 0
M  V30 29179 H 2765.62 -3.78202 -3.40353 0
M  V30 29180 H 2765.01 -1.37776 -5.48666 0
M  V30 29181 H 2763.57 -1.95746 -6.21713 0
M  V30 29182 N 2767 0.710538 -1.40674 0
M  V30 29183 C 2768.28 1.46396 -1.29721 0
M  V30 29184 C 2768.66 2.1094 0.0821399 0
M  V30 29185 O 2768.01 2.00536 1.09533 0
M  V30 29186 C 2768.22 2.49558 -2.43971 0
M  V30 29187 C 2769.57 3.15243 -2.84441 0
M  V30 29188 O 2770.59 2.59879 -2.43601 0
M  V30 29189 O 2769.45 4.15483 -3.55015 0
M  V30 29190 H 2766.54 0.65125 -0.509709 0
M  V30 29191 H 2769.09 0.742285 -1.52605 0
M  V30 29192 H 2767.86 2.00415 -3.3608 0
M  V30 29193 H 2767.48 3.29254 -2.22885 0
M  V30 29194 N 2768.48 1.26254 0.943277 0
M  V30 29195 C 2769.73 1.11454 1.6859 0
M  V30 29196 C 2770.05 -0.343089 1.91958 0
M  V30 29197 O 2769.32 -1.24223 1.51477 0
M  V30 29198 H 2767.9 0.409459 0.624782 0
M  V30 29199 H 2770.56 1.5855 1.13348 0
M  V30 29200 H 2769.66 1.63167 2.66051 0
M  V30 29201 N 2769.96 -1.14755 1.08024 0
M  V30 29202 C 2771.37 -1.67277 0.829173 0
M  V30 29203 C 2771.72 -1.85306 -0.644689 0
M  V30 29204 O 2770.85 -1.56136 -1.49835 0
M  V30 29205 C 2771.44 -3.03854 1.49861 0
M  V30 29206 C 2770 -3.53426 1.29488 0
M  V30 29207 C 2769.15 -2.28992 1.5639 0
M  V30 29208 H 2772.1 -0.988741 1.24135 0
M  V30 29209 H 2772.12 -3.69119 0.923637 0
M  V30 29210 H 2771.63 -2.907 2.57128 0
M  V30 29211 H 2769.73 -3.71808 0.242735 0
M  V30 29212 H 2769.85 -4.34443 2.01981 0
M  V30 29213 H 2768.21 -2.34872 0.985258 0
M  V30 29214 H 2768.99 -2.18418 2.64855 0
M  V30 29215 N 2771.44 -0.865331 -1.31719 0
M  V30 29216 C 2772.69 -0.470132 -1.96144 0
M  V30 29217 C 2773 0.981644 -1.69184 0
M  V30 29218 O 2774.21 1.48277 -2.27434 0
M  V30 29219 C 2772.66 -0.789794 -3.51127 0
M  V30 29220 C 2772.27 -2.25802 -3.86934 0
M  V30 29221 C 2774.01 -0.462839 -4.21969 0
M  V30 29222 C 2771.92 -2.52034 -5.35007 0
M  V30 29223 H 2770.85 -0.172078 -0.734102 0
M  V30 29224 H 2773.5 -1.05759 -1.49957 0
M  V30 29225 H 2771.88 -0.131641 -3.95781 0
M  V30 29226 H 2773.06 -2.95885 -3.53255 0
M  V30 29227 H 2771.37 -2.55055 -3.29144 0
M  V30 29228 H 2773.97 -0.636113 -5.30903 0
M  V30 29229 H 2774.31 0.596378 -4.12006 0
M  V30 29230 H 2774.85 -1.07734 -3.82934 0
M  V30 29231 H 2771.58 -3.56621 -5.50002 0
M  V30 29232 H 2771.1 -1.8654 -5.70055 0
M  V30 29233 H 2772.78 -2.36526 -6.02216 0
M  V30 29234 N 2772.92 1.44707 -0.624311 0
M  V30 29235 C 2774.14 2.06985 -0.131207 0
M  V30 29236 C 2774.57 1.46298 1.18231 0
M  V30 29237 O 2773.92 0.561872 1.72374 0
M  V30 29238 C 2773.97 3.60593 -0.0227358 0
M  V30 29239 O 2773.08 3.99508 1.02307 0
M  V30 29240 H 2772.42 0.658959 -0.0816672 0
M  V30 29241 H 2774.95 1.85691 -0.85906 0
M  V30 29242 H 2774.96 4.07645 0.170066 0
M  V30 29243 H 2773.63 4.04146 -0.981757 0
M  V30 29244 H 2772.21 3.64099 0.805388 0
M  V30 29245 N 2774.39 0.364449 1.53328 0
M  V30 29246 C 2775.64 -0.225933 2.01538 0
M  V30 29247 C 2775.97 -1.48513 1.2513 0
M  V30 29248 O 2775.25 -1.91421 0.344687 0
M  V30 29249 C 2775.53 -0.51903 3.5634 0
M  V30 29250 C 2775.38 0.753717 4.4344 0
M  V30 29251 C 2776.7 -1.32007 4.19836 0
M  V30 29252 H 2773.82 -0.0806419 0.732575 0
M  V30 29253 H 2776.46 0.489117 1.83596 0
M  V30 29254 H 2774.61 -1.12818 3.71758 0
M  V30 29255 H 2776.29 1.39124 4.39821 0
M  V30 29256 H 2774.53 1.37431 4.11455 0
M  V30 29257 H 2775.2 0.503613 5.49698 0
M  V30 29258 H 2777.68 -0.804787 4.08243 0
M  V30 29259 H 2776.55 -1.49389 5.2818 0
M  V30 29260 H 2776.81 -2.32826 3.75825 0
M  V30 29261 N 2775.87 -1.57322 0.0935872 0
M  V30 29262 C 2776.82 -2.1048 -0.876484 0
M  V30 29263 C 2777.81 -1.01948 -1.2448 0
M  V30 29264 O 2779 -1.28225 -1.22014 0
M  V30 29265 C 2776.13 -2.68748 -2.1361 0
M  V30 29266 C 2775.21 -3.8432 -1.79328 0
M  V30 29267 N 2775.6 -4.92413 -1.15598 0
M  V30 29268 C 2773.9 -3.94027 -2.08947 0
M  V30 29269 C 2774.6 -5.73059 -0.998935 0
M  V30 29270 N 2773.58 -5.2204 -1.51576 0
M  V30 29271 H 2777.38 -2.91436 -0.379777 0
M  V30 29272 H 2774.89 -1.62029 -0.10967 0
M  V30 29273 H 2776.89 -3.0516 -2.84048 0
M  V30 29274 H 2775.55 -1.89247 -2.63848 0
M  V30 29275 H 2776.56 -5.11319 -0.822973 0
M  V30 29276 H 2773.24 -3.25532 -2.6141 0
M  V30 29277 H 2774.63 -6.70032 -0.500654 0
M  V30 29278 N 2777.35 0.180099 -1.56568 0
M  V30 29279 C 2778.59 0.904729 -1.83287 0
M  V30 29280 C 2778.95 1.79809 -0.673257 0
M  V30 29281 O 2780.15 2.55965 -0.82069 0
M  V30 29282 C 2778.43 1.68683 -3.15089 0
M  V30 29283 S 2779.98 2.46142 -3.63262 0
M  V30 29284 H 2776.8 0.303181 -0.643119 0
M  V30 29285 H 2779.4 0.167 -1.94785 0
M  V30 29286 H 2778.11 1.02141 -3.97486 0
M  V30 29287 H 2777.64 2.4661 -3.06508 0
M  V30 29288 H 2779.65 3.70657 -3.2989 0
M  V30 29289 N 2778.83 1.51088 0.448349 0
M  V30 29290 C 2780.05 1.67283 1.22602 0
M  V30 29291 C 2780.48 0.365078 1.84523 0
M  V30 29292 O 2779.84 -0.673612 1.68322 0
M  V30 29293 C 2779.88 2.78233 2.29388 0
M  V30 29294 O 2778.99 2.41069 3.34604 0
M  V30 29295 H 2778.33 0.558136 0.359695 0
M  V30 29296 H 2780.86 1.97593 0.530868 0
M  V30 29297 H 2780.87 3.0199 2.74346 0
M  V30 29298 H 2779.54 3.73134 1.83694 0
M  V30 29299 H 2778.12 2.27843 2.95198 0
M  V30 29300 N 2780.31 -0.703068 1.41049 0
M  V30 29301 C 2781.27 -1.79882 1.42039 0
M  V30 29302 C 2782.27 -1.57741 0.312181 0
M  V30 29303 O 2783.46 -1.64552 0.571701 0
M  V30 29304 C 2780.59 -3.18152 1.22443 0
M  V30 29305 H 2781.78 -1.80398 2.39575 0
M  V30 29306 H 2779.34 -0.909955 1.27081 0
M  V30 29307 H 2780.07 -3.23279 0.257169 0
M  V30 29308 H 2779.86 -3.35624 2.02729 0
M  V30 29309 H 2781.35 -3.98153 1.25953 0
M  V30 29310 N 2781.78 -1.26752 -0.936569 0
M  V30 29311 C 2783.03 -1.12346 -1.67996 0
M  V30 29312 C 2783.35 0.332905 -1.92137 0
M  V30 29313 O 2782.62 1.23418 -1.52134 0
M  V30 29314 H 2781.2 -0.412767 -0.622602 0
M  V30 29315 H 2783.87 -1.59149 -1.12506 0
M  V30 29316 H 2782.96 -1.64576 -2.65182 0
M  V30 29317 N 2783.26 1.1418 -1.08631 0
M  V30 29318 C 2784.51 1.85545 -0.818589 0
M  V30 29319 C 2784.84 1.82855 0.654044 0
M  V30 29320 O 2784.12 1.26086 1.48097 0
M  V30 29321 C 2784.4 3.34078 -1.34403 0
M  V30 29322 C 2784.25 3.45328 -2.88217 0
M  V30 29323 C 2785.57 4.29251 -0.971144 0
M  V30 29324 H 2782.69 0.673697 -0.298833 0
M  V30 29325 H 2785.33 1.34068 -1.34632 0
M  V30 29326 H 2783.48 3.78047 -0.89513 0
M  V30 29327 H 2785.15 3.10128 -3.41494 0
M  V30 29328 H 2783.4 2.86465 -3.25761 0
M  V30 29329 H 2784.07 4.49743 -3.20055 0
M  V30 29330 H 2786.54 3.9331 -1.35816 0
M  V30 29331 H 2785.42 5.31632 -1.36595 0
M  V30 29332 H 2785.68 4.41933 0.121581 0
M  V30 29333 N 2784.74 0.872304 1.31258 0
M  V30 29334 C 2785.99 0.483443 1.96233 0
M  V30 29335 C 2786.31 -0.967982 1.69278 0
M  V30 29336 O 2785.58 -1.67889 1.00946 0
M  V30 29337 H 2784.16 0.175787 0.726022 0
M  V30 29338 H 2786.82 1.1126 1.60022 0
M  V30 29339 H 2785.92 0.643129 3.05402 0
M  V30 29340 N 2786.22 -1.44374 0.631976 0
M  V30 29341 C 2787.63 -1.568 0.297669 0
M  V30 29342 C 2787.83 -1.61936 -1.19913 0
M  V30 29343 O 2786.89 -1.56285 -1.98321 0
M  V30 29344 C 2788.2 -2.83924 0.990336 0
M  V30 29345 C 2789.75 -2.97637 0.96856 0
M  V30 29346 C 2790.23 -4.27565 1.64171 0
M  V30 29347 N 2791.72 -4.34381 1.60834 0
M  V30 29348 C 2792.45 -5.33635 2.09812 0
M  V30 29349 N 2791.95 -6.3929 2.66984 0
M  V30 29350 N 2793.74 -5.2515 2.00436 0
M  V30 29351 H 2785.89 -1.39283 1.60356 0
M  V30 29352 H 2788.16 -0.667509 0.673153 0
M  V30 29353 H 2787.86 -2.86117 2.04524 0
M  V30 29354 H 2787.74 -3.73477 0.528629 0
M  V30 29355 H 2790.12 -2.94997 -0.0778728 0
M  V30 29356 H 2790.2 -2.0943 1.46877 0
M  V30 29357 H 2789.85 -4.30965 2.6876 0
M  V30 29358 H 2789.78 -5.14632 1.11633 0
M  V30 29359 H 2792.27 -3.58644 1.19093 0
M  V30 29360 H 2792.58 -7.11311 3.02087 0
M  V30 29361 H 2790.93 -6.39973 2.71035 0
M  V30 29362 H 2794.12 -4.4152 1.55491 0
M  V30 29363 H 2794.29 -6.02348 2.38917 0
M  V30 29364 N 2787.7 -0.372575 -1.53133 0
M  V30 29365 C 2788.92 0.215478 -2.05775 0
M  V30 29366 C 2789.34 1.41884 -1.24557 0
M  V30 29367 O 2788.7 1.80214 -0.287983 0
M  V30 29368 C 2788.75 0.602098 -3.56451 0
M  V30 29369 O 2788.47 -0.553435 -4.3459 0
M  V30 29370 C 2789.97 1.2478 -4.25376 0
M  V30 29371 H 2787.19 0.0364411 -0.67001 0
M  V30 29372 H 2789.73 -0.532968 -1.97433 0
M  V30 29373 H 2787.89 1.30045 -3.6492 0
M  V30 29374 H 2788.3 -0.239428 -5.23953 0
M  V30 29375 H 2789.78 1.46882 -5.32099 0
M  V30 29376 H 2790.25 2.2102 -3.79535 0
M  V30 29377 H 2790.86 0.590678 -4.21178 0
M  V30 29378 N 2789.17 1.5727 -0.101929 0
M  V30 29379 C 2790.42 1.94214 0.559057 0
M  V30 29380 C 2790.74 0.984978 1.68295 0
M  V30 29381 O 2790.01 0.0382319 1.95863 0
M  V30 29382 H 2788.59 0.717018 0.209508 0
M  V30 29383 H 2791.26 1.94184 -0.166866 0
M  V30 29384 H 2790.35 2.96813 0.964798 0
M  V30 29385 N 2790.65 -0.171793 1.56661 0
M  V30 29386 C 2791.9 -0.889813 1.82237 0
M  V30 29387 C 2792.23 -1.81917 0.679705 0
M  V30 29388 O 2791.51 -1.91877 -0.31837 0
M  V30 29389 C 2791.79 -1.68589 3.18198 0
M  V30 29390 C 2791.64 -0.779695 4.42991 0
M  V30 29391 C 2792.96 -2.65368 3.51095 0
M  V30 29392 H 2790.08 -0.322044 0.662915 0
M  V30 29393 H 2792.72 -0.156047 1.89358 0
M  V30 29394 H 2790.87 -2.31144 3.12257 0
M  V30 29395 H 2792.54 -0.167059 4.60997 0
M  V30 29396 H 2790.79 -0.0877201 4.33711 0
M  V30 29397 H 2791.46 -1.37221 5.34672 0
M  V30 29398 H 2793.93 -2.1294 3.57485 0
M  V30 29399 H 2792.81 -3.18136 4.47304 0
M  V30 29400 H 2793.07 -3.45544 2.75775 0
M  V30 29401 N 2792.13 -1.51324 -0.44033 0
M  V30 29402 C 2793.38 -1.63844 -1.19002 0
M  V30 29403 C 2793.71 -0.353244 -1.91265 0
M  V30 29404 O 2792.96 0.662532 -1.84144 0
M  V30 29405 C 2793.26 -2.78988 -2.23385 0
M  V30 29406 C 2792.93 -4.18372 -1.68155 0
M  V30 29407 C 2791.59 -4.56291 -1.52815 0
M  V30 29408 C 2793.94 -5.05361 -1.27515 0
M  V30 29409 C 2791.27 -5.78907 -0.953055 0
M  V30 29410 C 2793.62 -6.28554 -0.714364 0
M  V30 29411 C 2792.28 -6.65248 -0.547844 0
M  V30 29412 H 2791.55 -0.599548 -0.435458 0
M  V30 29413 H 2794.2 -1.85348 -0.481505 0
M  V30 29414 H 2792.51 -2.51694 -3.00263 0
M  V30 29415 H 2794.2 -2.85874 -2.81206 0
M  V30 29416 H 2790.79 -3.88474 -1.8107 0
M  V30 29417 H 2794.98 -4.76674 -1.38188 0
M  V30 29418 H 2790.23 -6.05987 -0.811775 0
M  V30 29419 H 2794.41 -6.95302 -0.390937 0
M  V30 29420 H 2792.03 -7.60134 -0.100088 0
M  V30 29421 N 2793.61 0.695578 -1.41419 0
M  V30 29422 C 2794.86 1.45127 -1.40075 0
M  V30 29423 C 2795.17 1.95596 -0.0130782 0
M  V30 29424 O 2796.38 2.71221 0.122985 0
M  V30 29425 C 2794.83 2.62429 -2.46291 0
M  V30 29426 C 2794.44 2.18746 -3.90965 0
M  V30 29427 C 2796.18 3.40062 -2.54083 0
M  V30 29428 C 2794.09 3.33006 -4.88734 0
M  V30 29429 H 2793.02 0.545129 -0.520913 0
M  V30 29430 H 2795.67 0.755121 -1.67243 0
M  V30 29431 H 2794.05 3.34312 -2.12254 0
M  V30 29432 H 2795.23 1.54153 -4.3425 0
M  V30 29433 H 2793.54 1.54107 -3.86833 0
M  V30 29434 H 2796.14 4.2512 -3.2431 0
M  V30 29435 H 2796.48 3.85247 -1.57766 0
M  V30 29436 H 2797.02 2.75236 -2.87211 0
M  V30 29437 H 2793.76 2.92833 -5.86455 0
M  V30 29438 H 2793.28 3.9645 -4.50098 0
M  V30 29439 H 2794.95 3.98784 -5.0949 0
M  V30 29440 N 2795.09 1.27247 0.929833 0
M  V30 29441 C 2796.32 1.16268 1.71142 0
M  V30 29442 C 2796.73 -0.280753 1.86701 0
M  V30 29443 O 2796.09 -1.19134 1.38251 0
M  V30 29444 C 2796.14 1.83916 3.11219 0
M  V30 29445 O 2795.86 3.22619 2.96392 0
M  V30 29446 C 2797.36 1.79035 4.05538 0
M  V30 29447 H 2794.58 0.404338 0.535492 0
M  V30 29448 H 2797.12 1.68079 1.16489 0
M  V30 29449 H 2795.28 1.36015 3.62738 0
M  V30 29450 H 2795.69 3.56268 3.84933 0
M  V30 29451 H 2797.17 2.30987 5.01347 0
M  V30 29452 H 2797.64 0.759244 4.32588 0
M  V30 29453 H 2798.25 2.26541 3.59943 0
M  V30 29454 N 2796.57 -1.13603 1.09235 0
M  V30 29455 C 2797.5 -2.21067 0.751776 0
M  V30 29456 C 2798.48 -1.67949 -0.269659 0
M  V30 29457 O 2799.66 -1.93708 -0.138156 0
M  V30 29458 C 2796.79 -3.46887 0.169411 0
M  V30 29459 C 2795.75 -4.13082 1.12014 0
M  V30 29460 C 2795.07 -5.33205 0.399577 0
M  V30 29461 C 2796.37 -4.60646 2.46176 0
M  V30 29462 H 2798.07 -2.49812 1.65029 0
M  V30 29463 H 2795.61 -1.20071 0.794926 0
M  V30 29464 H 2797.56 -4.21322 -0.0809084 0
M  V30 29465 H 2796.29 -3.17532 -0.76428 0
M  V30 29466 H 2794.95 -3.40612 1.3557 0
M  V30 29467 H 2794.6 -5.00113 -0.538189 0
M  V30 29468 H 2794.3 -5.7844 1.03347 0
M  V30 29469 H 2795.82 -6.10397 0.157511 0
M  V30 29470 H 2797.23 -5.26514 2.26838 0
M  V30 29471 H 2795.63 -5.16614 3.05335 0
M  V30 29472 H 2796.7 -3.75271 3.07083 0
M  V30 29473 N 2798.04 -0.879253 -1.30793 0
M  V30 29474 C 2799.27 -0.508805 -2.01062 0
M  V30 29475 C 2799.69 0.893774 -1.65509 0
M  V30 29476 O 2799.05 1.59136 -0.868644 0
M  V30 29477 C 2799.1 -0.684053 -3.54052 0
M  V30 29478 O 2798.2 0.272582 -4.11498 0
M  V30 29479 H 2797.54 -0.201202 -0.632782 0
M  V30 29480 H 2800.07 -1.18522 -1.66774 0
M  V30 29481 H 2800.08 -0.580869 -4.03844 0
M  V30 29482 H 2798.76 -1.70671 -3.79268 0
M  V30 29483 H 2797.34 0.123574 -3.72695 0
M  V30 29484 N 2799.52 1.44037 -0.639624 0
M  V30 29485 C 2800.77 2.01179 -0.144921 0
M  V30 29486 C 2801.08 1.50969 1.24369 0
M  V30 29487 O 2802.29 2.00295 1.83287 0
M  V30 29488 C 2800.75 3.59297 -0.208307 0
M  V30 29489 C 2800.35 4.18502 -1.59876 0
M  V30 29490 C 2802.1 4.23879 0.229493 0
M  V30 29491 C 2800 5.6887 -1.61681 0
M  V30 29492 H 2798.93 0.752313 -0.0504137 0
M  V30 29493 H 2801.59 1.65159 -0.799668 0
M  V30 29494 H 2799.97 3.92654 0.513698 0
M  V30 29495 H 2801.14 3.96667 -2.34503 0
M  V30 29496 H 2799.46 3.66239 -1.98137 0
M  V30 29497 H 2802.05 5.3418 0.235664 0
M  V30 29498 H 2802.4 3.96825 1.25841 0
M  V30 29499 H 2802.93 3.95356 -0.440302 0
M  V30 29500 H 2799.67 6.00672 -2.62437 0
M  V30 29501 H 2799.19 5.92801 -0.913594 0
M  V30 29502 H 2800.87 6.32663 -1.3545 0
M  V30 29503 N 2801 0.380691 1.52933 0
M  V30 29504 C 2802.25 -0.204545 2.01766 0
M  V30 29505 C 2802.58 -1.47177 1.26699 0
M  V30 29506 O 2801.85 -1.91045 0.36497 0
M  V30 29507 C 2802.14 -0.481206 3.5687 0
M  V30 29508 C 2801.99 0.800707 4.42616 0
M  V30 29509 C 2803.31 -1.27547 4.21212 0
M  V30 29510 H 2800.43 -0.0728674 0.733389 0
M  V30 29511 H 2803.07 0.508562 1.83067 0
M  V30 29512 H 2801.22 -1.08869 3.72934 0
M  V30 29513 H 2802.89 1.43781 4.3832 0
M  V30 29514 H 2801.13 1.41787 4.09974 0
M  V30 29515 H 2801.81 0.561888 5.49133 0
M  V30 29516 H 2804.28 -0.761442 4.09074 0
M  V30 29517 H 2803.16 -1.43779 5.29735 0
M  V30 29518 H 2803.42 -2.28827 3.78273 0
M  V30 29519 N 2802.48 -1.57214 0.110268 0
M  V30 29520 C 2803.41 -2.17869 -0.839964 0
M  V30 29521 C 2804.39 -1.11626 -1.2835 0
M  V30 29522 O 2805.57 -1.39826 -1.34767 0
M  V30 29523 C 2802.7 -2.77114 -2.09344 0
M  V30 29524 C 2801.66 -3.88863 -1.788 0
M  V30 29525 C 2800.98 -4.34877 -3.11104 0
M  V30 29526 C 2802.28 -5.11366 -1.06311 0
M  V30 29527 H 2803.98 -2.97525 -0.334555 0
M  V30 29528 H 2801.52 -1.43114 -0.159477 0
M  V30 29529 H 2803.48 -3.18203 -2.76269 0
M  V30 29530 H 2802.2 -1.94735 -2.62194 0
M  V30 29531 H 2800.86 -3.48337 -1.14267 0
M  V30 29532 H 2800.51 -3.49368 -3.61871 0
M  V30 29533 H 2800.21 -5.10229 -2.91444 0
M  V30 29534 H 2801.73 -4.78611 -3.79162 0
M  V30 29535 H 2803.15 -5.49529 -1.63374 0
M  V30 29536 H 2801.54 -5.92245 -0.967772 0
M  V30 29537 H 2802.61 -4.84876 -0.0483717 0
M  V30 29538 N 2803.96 0.163482 -1.5675 0
M  V30 29539 C 2804.87 1.22206 -2.00257 0
M  V30 29540 C 2805.88 1.47986 -0.91522 0
M  V30 29541 O 2807.06 1.5998 -1.22345 0
M  V30 29542 C 2804.12 2.53942 -2.36039 0
M  V30 29543 C 2803.18 2.35956 -3.58641 0
M  V30 29544 C 2802.42 3.61409 -3.92707 0
M  V30 29545 O 2802.64 4.66913 -3.27641 0
M  V30 29546 O 2801.57 3.55053 -4.86026 0
M  V30 29547 H 2805.4 0.882743 -2.90588 0
M  V30 29548 H 2802.98 0.370952 -1.44721 0
M  V30 29549 H 2804.87 3.31639 -2.59988 0
M  V30 29550 H 2803.54 2.87437 -1.48868 0
M  V30 29551 H 2802.45 1.56264 -3.39901 0
M  V30 29552 H 2803.78 2.07382 -4.46378 0
M  V30 29553 N 2805.43 1.51555 0.432299 0
M  V30 29554 C 2806.85 1.39843 0.76917 0
M  V30 29555 C 2807.05 0.48471 1.95583 0
M  V30 29556 O 2806.11 -0.0582385 2.52433 0
M  V30 29557 C 2807.42 2.81965 1.04482 0
M  V30 29558 C 2808.97 2.9115 1.14895 0
M  V30 29559 C 2809.44 4.3419 1.4575 0
M  V30 29560 N 2810.93 4.37319 1.52663 0
M  V30 29561 C 2811.67 5.45033 1.78119 0
M  V30 29562 N 2811.16 6.629 2.01334 0
M  V30 29563 N 2812.96 5.32519 1.79943 0
M  V30 29564 H 2805.11 2.0951 -0.349159 0
M  V30 29565 H 2807.37 0.943345 -0.0938279 0
M  V30 29566 H 2807.08 3.50842 0.245509 0
M  V30 29567 H 2806.95 3.21599 1.97114 0
M  V30 29568 H 2809.34 2.22467 1.93888 0
M  V30 29569 H 2809.42 2.55005 0.201523 0
M  V30 29570 H 2809.06 5.03424 0.672828 0
M  V30 29571 H 2808.99 4.67852 2.41707 0
M  V30 29572 H 2811.48 3.52345 1.36606 0
M  V30 29573 H 2811.8 7.40782 2.20142 0
M  V30 29574 H 2810.14 6.66007 1.98646 0
M  V30 29575 H 2813.33 4.39421 1.61329 0
M  V30 29576 H 2813.51 6.16544 1.99444 0
M  V30 29577 N 2806.91 -0.688069 1.41786 0
M  V30 29578 C 2807.84 -1.81253 1.38646 0
M  V30 29579 C 2808.82 -1.60626 0.252612 0
M  V30 29580 O 2810.01 -1.83275 0.440723 0
M  V30 29581 C 2807.13 -3.1805 1.16454 0
M  V30 29582 C 2806.18 -3.57453 2.32657 0
M  V30 29583 S 2807.01 -3.614 3.95158 0
M  V30 29584 C 2808.17 -5.00912 3.75284 0
M  V30 29585 H 2808.4 -1.8364 2.33802 0
M  V30 29586 H 2805.93 -0.85749 1.284 0
M  V30 29587 H 2807.89 -3.97019 1.04337 0
M  V30 29588 H 2806.55 -3.13264 0.229057 0
M  V30 29589 H 2805.75 -4.56852 2.12843 0
M  V30 29590 H 2805.35 -2.85812 2.4122 0
M  V30 29591 H 2807.64 -5.88623 3.35454 0
M  V30 29592 H 2808.58 -5.2577 4.74312 0
M  V30 29593 H 2808.99 -4.72804 3.0841 0
M  V30 29594 N 2808.39 -1.27739 -0.923072 0
M  V30 29595 C 2809.81 -1.05243 -1.19983 0
M  V30 29596 C 2810.01 0.211095 -2.00391 0
M  V30 29597 O 2809.06 0.915325 -2.35325 0
M  V30 29598 C 2810.37 -2.29454 -1.94348 0
M  V30 29599 C 2811.92 -2.34539 -2.07268 0
M  V30 29600 C 2812.4 -3.58492 -2.8504 0
M  V30 29601 N 2813.89 -3.59077 -2.92606 0
M  V30 29602 C 2814.62 -4.5166 -3.53258 0
M  V30 29603 N 2814.12 -5.54552 -4.15264 0
M  V30 29604 N 2815.91 -4.39274 -3.50706 0
M  V30 29605 H 2808.06 -2.08863 -0.386005 0
M  V30 29606 H 2810.33 -0.918821 -0.233391 0
M  V30 29607 H 2810.03 -3.21455 -1.42687 0
M  V30 29608 H 2809.91 -2.35135 -2.94943 0
M  V30 29609 H 2812.29 -1.43042 -2.58115 0
M  V30 29610 H 2812.37 -2.32859 -1.05879 0
M  V30 29611 H 2812.02 -4.50329 -2.34876 0
M  V30 29612 H 2811.95 -3.57425 -3.86724 0
M  V30 29613 H 2814.44 -2.84667 -2.48542 0
M  V30 29614 H 2814.75 -6.21356 -4.59496 0
M  V30 29615 H 2813.1 -5.58389 -4.13796 0
M  V30 29616 H 2816.29 -3.58098 -3.01469 0
M  V30 29617 H 2816.46 -5.11617 -3.97684 0
M  V30 29618 N 2809.87 1.13022 -1.09836 0
M  V30 29619 C 2811.1 1.87955 -0.85769 0
M  V30 29620 C 2811.51 1.79601 0.594976 0
M  V30 29621 O 2810.85 1.1635 1.42156 0
M  V30 29622 C 2810.91 3.38182 -1.21955 0
M  V30 29623 C 2810.58 3.70315 -2.67798 0
M  V30 29624 C 2811.57 3.69201 -3.66042 0
M  V30 29625 C 2809.26 3.99842 -3.04026 0
M  V30 29626 C 2811.25 3.97161 -4.9854 0
M  V30 29627 C 2808.94 4.27463 -4.36713 0
M  V30 29628 C 2809.94 4.26108 -5.3378 0
M  V30 29629 O 2809.62 4.53049 -6.64079 0
M  V30 29630 H 2809.36 0.601748 -0.308019 0
M  V30 29631 H 2811.91 1.4397 -1.46498 0
M  V30 29632 H 2810.14 3.82692 -0.555317 0
M  V30 29633 H 2811.83 3.94448 -0.957351 0
M  V30 29634 H 2812.6 3.4646 -3.39398 0
M  V30 29635 H 2808.47 4.00041 -2.29103 0
M  V30 29636 H 2812.02 3.96019 -5.74295 0
M  V30 29637 H 2807.92 4.49677 -4.63099 0
M  V30 29638 H 2808.68 4.70698 -6.69616 0
M  V30 29639 N 2811.35 0.886177 1.30325 0
M  V30 29640 C 2812.26 0.357907 2.31854 0
M  V30 29641 C 2813.27 -0.540473 1.65393 0
M  V30 29642 O 2814.45 -0.433304 1.96684 0
M  V30 29643 C 2811.51 -0.417939 3.44172 0
M  V30 29644 C 2810.57 0.510338 4.26256 0
M  V30 29645 C 2809.81 -0.228575 5.3321 0
M  V30 29646 O 2810.03 -1.45449 5.51544 0
M  V30 29647 O 2808.96 0.421938 6.00419 0
M  V30 29648 H 2812.79 1.19987 2.78993 0
M  V30 29649 H 2810.38 0.650052 1.34516 0
M  V30 29650 H 2812.26 -0.857178 4.1259 0
M  V30 29651 H 2810.93 -1.23618 2.99166 0
M  V30 29652 H 2809.84 0.998414 3.60531 0
M  V30 29653 H 2811.17 1.29462 4.74869 0
M  V30 29654 N 2812.82 -1.43695 0.647253 0
M  V30 29655 C 2814.07 -2.01482 0.157911 0
M  V30 29656 C 2814.39 -1.51285 -1.23036 0
M  V30 29657 O 2813.66 -0.723014 -1.8207 0
M  V30 29658 H 2812.24 -0.744944 0.0553876 0
M  V30 29659 H 2814.91 -1.75985 0.837581 0
M  V30 29660 H 2814 -3.11795 0.13795 0
M  V30 29661 N 2814.3 -0.388796 -1.52729 0
M  V30 29662 C 2815.55 0.193842 -2.01871 0
M  V30 29663 C 2815.88 1.46503 -1.27477 0
M  V30 29664 O 2815.16 1.90849 -0.375096 0
M  V30 29665 C 2815.44 0.462273 -3.5712 0
M  V30 29666 C 2815.29 -0.824169 -4.42185 0
M  V30 29667 C 2816.61 1.25311 -4.21883 0
M  V30 29668 H 2813.73 0.068977 -0.733765 0
M  V30 29669 H 2816.37 -0.518263 -1.82795 0
M  V30 29670 H 2814.52 1.06889 -3.73506 0
M  V30 29671 H 2816.19 -1.46104 -4.37552 0
M  V30 29672 H 2814.44 -1.43959 -4.09216 0
M  V30 29673 H 2815.11 -0.591002 -5.48827 0
M  V30 29674 H 2817.58 0.739738 -4.09472 0
M  V30 29675 H 2816.46 1.40968 -5.3049 0
M  V30 29676 H 2816.72 2.26817 -3.79482 0
M  V30 29677 N 2815.78 1.57153 -0.118604 0
M  V30 29678 C 2817.03 1.9547 0.540291 0
M  V30 29679 C 2817.36 1.00199 1.66355 0
M  V30 29680 O 2816.63 0.0391382 1.94461 0
M  V30 29681 C 2816.92 3.43731 1.07336 0
M  V30 29682 C 2816.77 4.49776 -0.0464523 0
M  V30 29683 C 2818.09 3.93829 1.96435 0
M  V30 29684 H 2815.21 0.710755 0.194927 0
M  V30 29685 H 2817.85 1.89006 -0.194083 0
M  V30 29686 H 2816 3.49371 1.69918 0
M  V30 29687 H 2817.67 4.56235 -0.681729 0
M  V30 29688 H 2815.92 4.27956 -0.709649 0
M  V30 29689 H 2816.59 5.50774 0.36776 0
M  V30 29690 H 2819.06 3.9049 1.43724 0
M  V30 29691 H 2817.94 4.98088 2.30651 0
M  V30 29692 H 2818.2 3.345 2.89071 0
M  V30 29693 N 2817.26 -0.155167 1.56834 0
M  V30 29694 C 2818.54 -0.897364 1.73801 0
M  V30 29695 C 2818.92 -1.99697 0.684415 0
M  V30 29696 O 2818.26 -2.26548 -0.298071 0
M  V30 29697 C 2818.47 -1.44731 3.17575 0
M  V30 29698 C 2819.82 -1.91393 3.79017 0
M  V30 29699 O 2820.85 -1.54491 3.20953 0
M  V30 29700 O 2819.7 -2.5942 4.81003 0
M  V30 29701 H 2816.8 -0.423498 0.710337 0
M  V30 29702 H 2819.34 -0.141731 1.69107 0
M  V30 29703 H 2818.12 -0.656673 3.85751 0
M  V30 29704 H 2817.74 -2.26668 3.26661 0
M  V30 29705 N 2818.74 -1.51782 -0.424256 0
M  V30 29706 C 2819.99 -1.64328 -1.16958 0
M  V30 29707 C 2820.3 -0.371783 -1.92034 0
M  V30 29708 O 2821.5 -0.376807 -2.68872 0
M  V30 29709 C 2819.96 -2.90265 -2.12777 0
M  V30 29710 C 2819.57 -4.24467 -1.43288 0
M  V30 29711 C 2821.31 -3.12171 -2.87662 0
M  V30 29712 C 2819.22 -5.41543 -2.37667 0
M  V30 29713 H 2818.15 -0.612101 -0.440282 0
M  V30 29714 H 2820.8 -1.7826 -0.4354 0
M  V30 29715 H 2819.18 -2.69997 -2.89685 0
M  V30 29716 H 2820.36 -4.55164 -0.718484 0
M  V30 29717 H 2818.67 -4.08544 -0.805046 0
M  V30 29718 H 2821.27 -3.96815 -3.58388 0
M  V30 29719 H 2821.61 -2.25782 -3.49754 0
M  V30 29720 H 2822.14 -3.32841 -2.17857 0
M  V30 29721 H 2818.88 -6.30232 -1.80244 0
M  V30 29722 H 2818.4 -5.15205 -3.07123 0
M  V30 29723 H 2820.08 -5.74017 -2.98519 0
M  V30 29724 N 2820.21 0.68054 -1.42149 0
M  V30 29725 C 2821.46 1.44061 -1.42312 0
M  V30 29726 C 2821.79 1.94464 -0.0375222 0
M  V30 29727 O 2821.04 1.70919 0.953154 0
M  V30 29728 C 2821.34 2.65778 -2.38949 0
M  V30 29729 C 2821.01 2.33949 -3.85459 0
M  V30 29730 C 2819.67 2.24979 -4.25368 0
M  V30 29731 C 2822.02 2.07996 -4.77899 0
M  V30 29732 C 2819.35 1.88174 -5.55704 0
M  V30 29733 C 2821.7 1.72696 -6.08571 0
M  V30 29734 C 2820.37 1.62232 -6.47485 0
M  V30 29735 H 2819.64 0.527155 -0.520757 0
M  V30 29736 H 2822.28 0.776494 -1.75051 0
M  V30 29737 H 2820.59 3.37194 -1.99517 0
M  V30 29738 H 2822.29 3.2395 -2.36342 0
M  V30 29739 H 2818.88 2.4183 -3.53859 0
M  V30 29740 H 2823.06 2.13862 -4.47858 0
M  V30 29741 H 2818.32 1.78638 -5.84721 0
M  V30 29742 H 2822.49 1.51638 -6.7969 0
M  V30 29743 H 2820.12 1.33482 -7.48389 0
M  V30 29744 N 2821.69 1.28226 0.916285 0
M  V30 29745 C 2822.62 1.07736 2.02301 0
M  V30 29746 C 2823.64 0.0298707 1.62773 0
M  V30 29747 O 2824.83 0.272657 1.76405 0
M  V30 29748 C 2821.93 0.614562 3.33281 0
M  V30 29749 C 2821.1 1.73689 4.01436 0
M  V30 29750 C 2820.16 1.2679 5.10696 0
M  V30 29751 O 2819.18 1.96967 5.34034 0
M  V30 29752 N 2820.39 0.129726 5.80355 0
M  V30 29753 H 2823.15 2.03045 2.20438 0
M  V30 29754 H 2820.71 1.19945 1.08742 0
M  V30 29755 H 2822.7 0.284468 4.03699 0
M  V30 29756 H 2821.27 -0.245609 3.11634 0
M  V30 29757 H 2820.49 2.2367 3.246 0
M  V30 29758 H 2821.78 2.48983 4.43717 0
M  V30 29759 H 2821.18 -0.455748 5.63861 0
M  V30 29760 H 2819.74 -0.141109 6.51647 0
M  V30 29761 N 2823.17 -1.12438 1.10433 0
M  V30 29762 C 2824.4 -1.8777 0.868905 0
M  V30 29763 C 2824.81 -1.79651 -0.580614 0
M  V30 29764 O 2824.17 -1.17039 -1.40029 0
M  V30 29765 C 2824.22 -3.36983 1.30861 0
M  V30 29766 O 2823.94 -3.44909 2.70129 0
M  V30 29767 C 2825.44 -4.29254 1.10707 0
M  V30 29768 H 2822.66 -0.594115 0.311879 0
M  V30 29769 H 2825.21 -1.4227 1.46899 0
M  V30 29770 H 2823.36 -3.80027 0.752192 0
M  V30 29771 H 2823.78 -4.37743 2.88931 0
M  V30 29772 H 2825.25 -5.32236 1.46387 0
M  V30 29773 H 2825.73 -4.39176 0.0456999 0
M  V30 29774 H 2826.33 -3.91991 1.64995 0
M  V30 29775 N 2824.65 -0.893076 -1.29853 0
M  V30 29776 C 2825.9 -0.516383 -1.96116 0
M  V30 29777 C 2826.23 0.933665 -1.70283 0
M  V30 29778 O 2825.5 1.66094 -1.01208 0
M  V30 29779 C 2825.79 -0.801517 -3.51067 0
M  V30 29780 C 2825.64 -2.30278 -3.86383 0
M  V30 29781 C 2826.96 -0.2835 -4.39186 0
M  V30 29782 H 2824.08 -0.189085 -0.712331 0
M  V30 29783 H 2826.72 -1.11855 -1.53585 0
M  V30 29784 H 2824.87 -0.289017 -3.87423 0
M  V30 29785 H 2826.54 -2.88431 -3.60007 0
M  V30 29786 H 2824.78 -2.76619 -3.34163 0
M  V30 29787 H 2825.46 -2.45288 -4.94508 0
M  V30 29788 H 2827.93 -0.722259 -4.09784 0
M  V30 29789 H 2826.81 -0.512265 -5.46504 0
M  V30 29790 H 2827.07 0.815566 -4.34512 0
M  V30 29791 N 2826.13 1.4335 -0.654865 0
M  V30 29792 C 2827.07 2.30772 0.0357308 0
M  V30 29793 C 2828.04 1.44843 0.81301 0
M  V30 29794 O 2829.23 1.73709 0.789283 0
M  V30 29795 C 2826.37 3.30444 0.995025 0
M  V30 29796 C 2825.48 4.31471 0.213675 0
M  V30 29797 C 2824.62 5.18224 1.16692 0
M  V30 29798 C 2823.66 6.10943 0.376094 0
M  V30 29799 N 2822.79 6.90315 1.28101 0
M  V30 29800 H 2827.63 2.89279 -0.71564 0
M  V30 29801 H 2825.17 1.42508 -0.36467 0
M  V30 29802 H 2827.13 3.86741 1.56483 0
M  V30 29803 H 2825.76 2.73583 1.71325 0
M  V30 29804 H 2824.81 3.77455 -0.472444 0
M  V30 29805 H 2826.12 4.97184 -0.401191 0
M  V30 29806 H 2825.28 5.79156 1.8073 0
M  V30 29807 H 2824.02 4.52641 1.81569 0
M  V30 29808 H 2823.02 5.49099 -0.27763 0
M  V30 29809 H 2824.25 6.7857 -0.268298 0
M  V30 29810 H 2822.19 6.27379 1.91655 0
M  V30 29811 H 2822.11 7.52556 0.720747 0
M  V30 29812 H 2823.38 7.5575 1.90949 0
M  V30 29813 N 2827.61 0.39689 1.52521 0
M  V30 29814 C 2828.54 -0.478887 2.23119 0
M  V30 29815 C 2829.52 -1.05794 1.23476 0
M  V30 29816 O 2830.7 -1.10814 1.52488 0
M  V30 29817 C 2827.83 -1.66357 2.9503 0
M  V30 29818 C 2826.87 -1.20906 4.09004 0
M  V30 29819 S 2827.71 -0.184312 5.35183 0
M  V30 29820 C 2828.86 -1.37461 6.10619 0
M  V30 29821 H 2829.1 0.120595 2.97055 0
M  V30 29822 H 2826.63 0.181117 1.53334 0
M  V30 29823 H 2828.59 -2.34295 3.3707 0
M  V30 29824 H 2827.25 -2.23437 2.2076 0
M  V30 29825 H 2826.44 -2.09381 4.58449 0
M  V30 29826 H 2826.04 -0.608495 3.69017 0
M  V30 29827 H 2828.33 -2.30037 6.37251 0
M  V30 29828 H 2829.28 -0.920927 7.02086 0
M  V30 29829 H 2829.69 -1.59485 5.41502 0
M  V30 29830 N 2829.08 -1.57088 0.126936 0
M  V30 29831 C 2830.01 -2.18748 -0.816808 0
M  V30 29832 C 2830.99 -1.12981 -1.27159 0
M  V30 29833 O 2832.18 -1.41248 -1.33277 0
M  V30 29834 C 2829.31 -2.79319 -2.06393 0
M  V30 29835 C 2828.26 -3.90738 -1.74666 0
M  V30 29836 C 2827.59 -4.38153 -3.06474 0
M  V30 29837 C 2828.89 -5.12465 -1.00881 0
M  V30 29838 H 2830.58 -2.97863 -0.30298 0
M  V30 29839 H 2828.13 -1.43275 -0.144289 0
M  V30 29840 H 2830.08 -3.21115 -2.72879 0
M  V30 29841 H 2828.81 -1.97505 -2.60114 0
M  V30 29842 H 2827.47 -3.49529 -1.10566 0
M  V30 29843 H 2827.11 -3.53187 -3.58145 0
M  V30 29844 H 2826.81 -5.13292 -2.86016 0
M  V30 29845 H 2828.34 -4.82605 -3.74065 0
M  V30 29846 H 2829.75 -5.51231 -1.57536 0
M  V30 29847 H 2828.15 -5.93238 -0.904902 0
M  V30 29848 H 2829.22 -4.849 0.00305858 0
M  V30 29849 N 2830.56 0.146848 -1.56914 0
M  V30 29850 C 2831.98 0.499492 -1.51582 0
M  V30 29851 C 2832.18 1.83367 -0.835383 0
M  V30 29852 O 2831.23 2.49215 -0.405976 0
M  V30 29853 C 2832.55 0.509659 -2.96349 0
M  V30 29854 C 2834.09 0.595163 -3.07289 0
M  V30 29855 C 2834.57 0.635991 -4.53563 0
M  V30 29856 N 2836.06 0.69821 -4.57907 0
M  V30 29857 C 2836.8 0.750786 -5.68464 0
M  V30 29858 N 2836.29 0.762699 -6.88589 0
M  V30 29859 N 2838.08 0.791679 -5.56497 0
M  V30 29860 H 2830.24 -0.727691 -1.99546 0
M  V30 29861 H 2832.5 -0.265343 -0.910108 0
M  V30 29862 H 2832.2 -0.402471 -3.4939 0
M  V30 29863 H 2832.08 1.34752 -3.52309 0
M  V30 29864 H 2834.47 1.49771 -2.54269 0
M  V30 29865 H 2834.55 -0.269845 -2.54373 0
M  V30 29866 H 2834.19 -0.262402 -5.07222 0
M  V30 29867 H 2834.12 1.51749 -5.04262 0
M  V30 29868 H 2836.61 0.696296 -3.7143 0
M  V30 29869 H 2836.92 0.804669 -7.68599 0
M  V30 29870 H 2835.27 0.730573 -6.9115 0
M  V30 29871 H 2838.46 0.779543 -4.61563 0
M  V30 29872 H 2838.63 0.829188 -6.42673 0
M  V30 29873 N 2832.04 1.52005 0.4162 0
M  V30 29874 C 2833.27 1.69555 1.1857 0
M  V30 29875 C 2833.68 0.401951 1.84472 0
M  V30 29876 O 2833.04 -0.621432 1.71594 0
M  V30 29877 C 2833.09 2.82619 2.25408 0
M  V30 29878 O 2832.81 4.06969 1.62198 0
M  V30 29879 C 2834.31 3.11619 3.15291 0
M  V30 29880 H 2831.53 0.568417 0.356572 0
M  V30 29881 H 2834.08 1.98528 0.490583 0
M  V30 29882 H 2832.23 2.56184 2.906 0
M  V30 29883 H 2832.65 4.6992 2.32971 0
M  V30 29884 H 2834.12 3.94261 3.86344 0
M  V30 29885 H 2834.6 2.24881 3.7726 0
M  V30 29886 H 2835.2 3.39792 2.55777 0
M  V30 29887 N 2833.52 -0.672992 1.42508 0
M  V30 29888 C 2834.45 -1.79852 1.42078 0
M  V30 29889 C 2835.46 -1.59632 0.319597 0
M  V30 29890 O 2836.65 -1.68718 0.582799 0
M  V30 29891 C 2833.75 -3.16984 1.19892 0
M  V30 29892 C 2832.92 -3.64037 2.42478 0
M  V30 29893 C 2831.98 -4.79909 2.1581 0
M  V30 29894 O 2831.01 -4.90361 2.89024 0
M  V30 29895 N 2832.21 -5.68744 1.16235 0
M  V30 29896 H 2834.98 -1.80706 2.39093 0
M  V30 29897 H 2832.54 -0.856147 1.37411 0
M  V30 29898 H 2834.53 -3.92159 0.99966 0
M  V30 29899 H 2833.1 -3.1102 0.313933 0
M  V30 29900 H 2832.32 -2.79521 2.77959 0
M  V30 29901 H 2833.61 -3.92217 3.24104 0
M  V30 29902 H 2833.01 -5.62953 0.556855 0
M  V30 29903 H 2831.56 -6.43723 1.02296 0
M  V30 29904 N 2835 -1.2871 -0.909472 0
M  V30 29905 C 2836.41 -1.0651 -1.1886 0
M  V30 29906 C 2836.61 0.189828 -2.00604 0
M  V30 29907 O 2835.67 0.890314 -2.36283 0
M  V30 29908 C 2836.98 -2.31503 -1.91903 0
M  V30 29909 C 2838.53 -2.36725 -2.04769 0
M  V30 29910 C 2839 -3.61495 -2.81221 0
M  V30 29911 N 2840.49 -3.6216 -2.88781 0
M  V30 29912 C 2841.23 -4.55381 -3.48447 0
M  V30 29913 N 2840.73 -5.58925 -4.09359 0
M  V30 29914 N 2842.52 -4.42969 -3.46027 0
M  V30 29915 H 2834.67 -2.09261 -0.363831 0
M  V30 29916 H 2836.93 -0.921245 -0.223633 0
M  V30 29917 H 2836.64 -3.2295 -1.39269 0
M  V30 29918 H 2836.51 -2.3825 -2.92432 0
M  V30 29919 H 2838.9 -1.45771 -2.56583 0
M  V30 29920 H 2838.98 -2.33969 -1.03404 0
M  V30 29921 H 2838.62 -4.52794 -2.30086 0
M  V30 29922 H 2838.55 -3.61506 -3.82911 0
M  V30 29923 H 2841.05 -2.87287 -2.45508 0
M  V30 29924 H 2841.36 -6.26195 -4.5288 0
M  V30 29925 H 2839.7 -5.62746 -4.0785 0
M  V30 29926 H 2842.89 -3.61275 -2.97654 0
M  V30 29927 H 2843.07 -5.15806 -3.92235 0
M  V30 29928 N 2836.47 1.1185 -1.11028 0
M  V30 29929 C 2837.88 1.6502 -0.873232 0
M  V30 29930 C 2838.24 1.8695 0.595331 0
M  V30 29931 O 2837.36 1.60054 1.45643 0
M  V30 29932 C 2837.96 2.99774 -1.57864 0
M  V30 29933 C 2836.51 3.49868 -1.38813 0
M  V30 29934 C 2835.66 2.24765 -1.62407 0
M  V30 29935 H 2838.61 0.955481 -1.26713 0
M  V30 29936 H 2838.63 3.66541 -1.02118 0
M  V30 29937 H 2838.15 2.83781 -2.64745 0
M  V30 29938 H 2836.25 3.71034 -0.341228 0
M  V30 29939 H 2836.36 4.28935 -2.13429 0
M  V30 29940 H 2834.72 2.32177 -1.04718 0
M  V30 29941 H 2835.51 2.11319 -2.70553 0
M  V30 29942 N 2837.95 0.89995 1.29378 0
M  V30 29943 C 2838.91 0.382716 2.25982 0
M  V30 29944 C 2839.91 -0.483232 1.53367 0
M  V30 29945 O 2841.1 -0.288249 1.71799 0
M  V30 29946 C 2838.24 -0.452855 3.37879 0
M  V30 29947 H 2839.43 1.23591 2.7325 0
M  V30 29948 H 2836.98 0.678113 1.40824 0
M  V30 29949 H 2837.72 -1.32602 2.95951 0
M  V30 29950 H 2837.5 0.167631 3.91742 0
M  V30 29951 H 2838.99 -0.806035 4.09747 0
M  V30 29952 N 2839.43 -1.43001 0.662458 0
M  V30 29953 C 2840.36 -2.28082 -0.0734189 0
M  V30 29954 C 2841.34 -1.4036 -0.820845 0
M  V30 29955 O 2842.53 -1.69802 -0.818516 0
M  V30 29956 C 2839.65 -3.19963 -1.11091 0
M  V30 29957 C 2838.7 -4.24007 -0.460482 0
M  V30 29958 S 2839.53 -5.29894 0.77281 0
M  V30 29959 C 2840.69 -6.25343 -0.263918 0
M  V30 29960 H 2840.92 -2.90146 0.648278 0
M  V30 29961 H 2838.45 -1.47648 0.451592 0
M  V30 29962 H 2840.41 -3.73442 -1.70446 0
M  V30 29963 H 2839.07 -2.57059 -1.80498 0
M  V30 29964 H 2838.27 -4.88434 -1.2429 0
M  V30 29965 H 2837.87 -3.73953 0.0591695 0
M  V30 29966 H 2840.16 -6.68054 -1.12737 0
M  V30 29967 H 2841.1 -7.07256 0.345567 0
M  V30 29968 H 2841.51 -5.61261 -0.603866 0
M  V30 29969 N 2840.91 -0.404973 -1.52308 0
M  V30 29970 C 2842.15 0.17242 -2.02066 0
M  V30 29971 C 2842.49 1.45143 -1.29024 0
M  V30 29972 O 2841.76 1.9044 -0.395317 0
M  V30 29973 C 2842.05 0.42437 -3.57591 0
M  V30 29974 C 2841.9 -0.871022 -4.41286 0
M  V30 29975 C 2843.22 1.2083 -4.23188 0
M  V30 29976 H 2840.34 0.0611906 -0.734455 0
M  V30 29977 H 2842.98 -0.537622 -1.82235 0
M  V30 29978 H 2841.13 1.02922 -3.74619 0
M  V30 29979 H 2842.8 -1.50736 -4.35977 0
M  V30 29980 H 2841.04 -1.48292 -4.07667 0
M  V30 29981 H 2841.71 -0.649179 -5.48169 0
M  V30 29982 H 2844.19 0.696266 -4.10233 0
M  V30 29983 H 2843.07 1.35333 -5.31955 0
M  V30 29984 H 2843.33 2.2278 -3.81866 0
M  V30 29985 N 2842.39 1.57018 -0.135265 0
M  V30 29986 C 2843.32 2.13267 0.839637 0
M  V30 29987 C 2844.33 1.07926 1.21885 0
M  V30 29988 O 2845.52 1.35243 1.16497 0
M  V30 29989 C 2842.62 2.63079 2.13642 0
M  V30 29990 C 2841.79 3.92694 1.9264 0
M  V30 29991 C 2840.85 4.27937 3.06197 0
M  V30 29992 O 2839.88 4.9647 2.784 0
M  V30 29993 N 2841.08 3.86568 4.33065 0
M  V30 29994 H 2843.85 2.97542 0.358974 0
M  V30 29995 H 2841.41 1.61827 0.0486695 0
M  V30 29996 H 2843.4 2.83675 2.88636 0
M  V30 29997 H 2841.97 1.83593 2.53007 0
M  V30 29998 H 2841.19 3.80843 1.01747 0
M  V30 29999 H 2842.48 4.77416 1.75931 0
M  V30 30000 H 2841.87 3.31325 4.5852 0
M  V30 30001 H 2840.43 4.1224 5.04878 0
M  V30 30002 N 2843.86 -0.138524 1.5699 0
M  V30 30003 C 2845.09 -0.864404 1.87978 0
M  V30 30004 C 2845.51 -1.7435 0.724403 0
M  V30 30005 O 2844.86 -1.79924 -0.305544 0
M  V30 30006 C 2844.92 -1.71409 3.18279 0
M  V30 30007 O 2844.64 -0.870412 4.29366 0
M  V30 30008 C 2846.14 -2.54682 3.62839 0
M  V30 30009 H 2843.36 -0.249517 0.622882 0
M  V30 30010 H 2845.9 -0.128769 2.04094 0
M  V30 30011 H 2844.06 -2.40269 3.03891 0
M  V30 30012 H 2844.47 -1.45457 5.03927 0
M  V30 30013 H 2845.94 -3.09862 4.56825 0
M  V30 30014 H 2846.42 -3.31122 2.88539 0
M  V30 30015 H 2847.03 -1.91098 3.7995 0
M  V30 30016 N 2845.34 -1.52224 -0.408133 0
M  V30 30017 C 2846.25 -1.78529 -1.52199 0
M  V30 30018 C 2847.27 -0.67092 -1.60545 0
M  V30 30019 O 2848.44 -0.956436 -1.77241 0
M  V30 30020 C 2845.51 -1.93133 -2.87924 0
M  V30 30021 C 2844.57 -3.17038 -2.89457 0
M  V30 30022 C 2843.8 -3.30936 -4.18709 0
M  V30 30023 O 2844.03 -2.50076 -5.12658 0
M  V30 30024 O 2842.96 -4.24092 -4.27118 0
M  V30 30025 H 2846.79 -2.73074 -1.32906 0
M  V30 30026 H 2844.37 -1.3708 -0.594088 0
M  V30 30027 H 2846.25 -2.04556 -3.68422 0
M  V30 30028 H 2844.93 -1.01777 -3.07283 0
M  V30 30029 H 2843.84 -3.11073 -2.07809 0
M  V30 30030 H 2845.17 -4.08178 -2.75048 0
M  V30 30031 N 2846.82 0.665425 -1.42863 0
M  V30 30032 C 2848.1 1.42195 -1.34313 0
M  V30 30033 C 2848.48 2.11095 0.0149894 0
M  V30 30034 O 2847.83 2.0392 1.03097 0
M  V30 30035 C 2848.04 2.41669 -2.51787 0
M  V30 30036 C 2849.38 3.06034 -2.94327 0
M  V30 30037 O 2850.41 2.51997 -2.51746 0
M  V30 30038 O 2849.27 4.03978 -3.68054 0
M  V30 30039 H 2846.36 0.634704 -0.53017 0
M  V30 30040 H 2848.91 0.693359 -1.54889 0
M  V30 30041 H 2847.68 1.89621 -3.42286 0
M  V30 30042 H 2847.3 3.21997 -2.33247 0
M  V30 30043 N 2848.3 1.29191 0.902633 0
M  V30 30044 C 2849.21 1.15948 2.03944 0
M  V30 30045 C 2850.22 0.0834109 1.738 0
M  V30 30046 O 2851.4 0.294905 1.99229 0
M  V30 30047 C 2848.47 0.834065 3.36518 0
M  V30 30048 C 2847.53 1.99366 3.80199 0
M  V30 30049 C 2846.76 1.68368 5.06446 0
M  V30 30050 O 2846.98 0.603241 5.67201 0
M  V30 30051 O 2845.92 2.53077 5.4611 0
M  V30 30052 H 2849.74 2.11407 2.18039 0
M  V30 30053 H 2847.33 1.08615 1.02582 0
M  V30 30054 H 2849.21 0.667022 4.16087 0
M  V30 30055 H 2847.88 -0.0907676 3.23573 0
M  V30 30056 H 2846.79 2.21593 3.01409 0
M  V30 30057 H 2848.12 2.89959 3.97724 0
M  V30 30058 N 2849.78 -1.1126 1.1162 0
M  V30 30059 C 2851.01 -1.86567 0.887483 0
M  V30 30060 C 2851.41 -1.80525 -0.566328 0
M  V30 30061 O 2850.76 -1.18597 -1.40287 0
M  V30 30062 C 2850.82 -3.36199 1.27319 0
M  V30 30063 C 2850.48 -3.66008 2.73655 0
M  V30 30064 C 2851.48 -3.63331 3.71869 0
M  V30 30065 C 2849.17 -3.94954 3.10349 0
M  V30 30066 C 2851.16 -3.89179 5.04795 0
M  V30 30067 C 2848.85 -4.20461 4.43459 0
M  V30 30068 C 2849.84 -4.17562 5.40491 0
M  V30 30069 O 2849.53 -4.42427 6.71203 0
M  V30 30070 H 2849.26 -0.596771 0.317554 0
M  V30 30071 H 2851.82 -1.41621 1.4877 0
M  V30 30072 H 2850.05 -3.8176 0.616129 0
M  V30 30073 H 2851.74 -3.92875 1.01998 0
M  V30 30074 H 2852.5 -3.41016 3.44867 0
M  V30 30075 H 2848.38 -3.96346 2.35438 0
M  V30 30076 H 2851.93 -3.86832 5.80523 0
M  V30 30077 H 2847.82 -4.42252 4.70195 0
M  V30 30078 H 2848.59 -4.59985 6.7702 0
M  V30 30079 N 2851.25 -0.906798 -1.28899 0
M  V30 30080 C 2852.19 -0.347199 -2.26555 0
M  V30 30081 C 2853.2 0.510463 -1.5459 0
M  V30 30082 O 2854.39 0.32647 -1.75489 0
M  V30 30083 C 2851.49 0.522965 -3.34841 0
M  V30 30084 C 2850.66 -0.310591 -4.36296 0
M  V30 30085 C 2849.72 0.493542 -5.2388 0
M  V30 30086 O 2848.75 -0.0914569 -5.69127 0
M  V30 30087 N 2849.95 1.79811 -5.5195 0
M  V30 30088 H 2852.71 -1.18657 -2.7521 0
M  V30 30089 H 2850.27 -0.772021 -1.42308 0
M  V30 30090 H 2852.27 1.06749 -3.90367 0
M  V30 30091 H 2850.84 1.26304 -2.85948 0
M  V30 30092 H 2850.06 -1.03651 -3.80329 0
M  V30 30093 H 2851.34 -0.881194 -5.01111 0
M  V30 30094 H 2850.74 2.29601 -5.1701 0
M  V30 30095 H 2849.3 2.28961 -6.10263 0
M  V30 30096 N 2852.73 1.42648 -0.670032 0
M  V30 30097 C 2853.98 2.01604 -0.190321 0
M  V30 30098 C 2854.31 1.5295 1.20152 0
M  V30 30099 O 2853.56 0.720292 1.81962 0
M  V30 30100 C 2853.86 3.57003 -0.168361 0
M  V30 30101 C 2853.53 4.25069 -1.50422 0
M  V30 30102 C 2852.19 4.43378 -1.87 0
M  V30 30103 C 2854.54 4.6347 -2.38423 0
M  V30 30104 C 2851.87 4.97357 -3.11212 0
M  V30 30105 C 2854.22 5.18826 -3.61942 0
M  V30 30106 C 2852.89 5.35349 -3.98695 0
M  V30 30107 H 2852.16 0.73772 -0.0696434 0
M  V30 30108 H 2854.8 1.70898 -0.864074 0
M  V30 30109 H 2853.11 3.87349 0.588889 0
M  V30 30110 H 2854.8 4.00396 0.21994 0
M  V30 30111 H 2851.39 4.11175 -1.20967 0
M  V30 30112 H 2855.58 4.49002 -2.1145 0
M  V30 30113 H 2850.83 5.08335 -3.39714 0
M  V30 30114 H 2855.01 5.47525 -4.30336 0
M  V30 30115 H 2852.64 5.7694 -4.95019 0
M  V30 30116 N 2854.21 0.413044 1.52091 0
M  V30 30117 C 2855.45 -0.160939 2.03765 0
M  V30 30118 C 2855.82 -1.42048 1.29176 0
M  V30 30119 O 2857.02 -2.07315 1.71096 0
M  V30 30120 C 2855.29 -0.398809 3.55168 0
M  V30 30121 S 2856.85 -0.939679 4.2862 0
M  V30 30122 H 2853.66 -0.0432157 0.709685 0
M  V30 30123 H 2856.27 0.566864 1.87101 0
M  V30 30124 H 2854.97 0.524615 4.07033 0
M  V30 30125 H 2854.5 -1.15438 3.76082 0
M  V30 30126 H 2856.52 -2.21983 4.43777 0
M  V30 30127 N 2855.69 -1.56945 0.143591 0
M  V30 30128 C 2856.92 -2.00087 -0.514664 0
M  V30 30129 C 2857.33 -1.02263 -1.59182 0
M  V30 30130 O 2856.67 -0.0110837 -1.83697 0
M  V30 30131 C 2856.73 -3.39661 -1.17772 0
M  V30 30132 C 2856.4 -4.5634 -0.245577 0
M  V30 30133 C 2857.39 -5.17238 0.525434 0
M  V30 30134 C 2855.08 -5.02078 -0.149476 0
M  V30 30135 C 2857.07 -6.22281 1.38003 0
M  V30 30136 C 2854.76 -6.06976 0.708728 0
M  V30 30137 C 2855.76 -6.66947 1.47209 0
M  V30 30138 O 2855.45 -7.69816 2.316 0
M  V30 30139 H 2855.18 -0.661602 -0.138778 0
M  V30 30140 H 2857.73 -2.04061 0.234133 0
M  V30 30141 H 2855.96 -3.32515 -1.97409 0
M  V30 30142 H 2857.65 -3.66933 -1.73536 0
M  V30 30143 H 2858.42 -4.82802 0.461203 0
M  V30 30144 H 2854.3 -4.55129 -0.733377 0
M  V30 30145 H 2857.84 -6.69019 1.97633 0
M  V30 30146 H 2853.74 -6.4084 0.774263 0
M  V30 30147 H 2854.5 -7.87021 2.2481 0
M  V30 30148 N 2857.17 0.130197 -1.57061 0
M  V30 30149 C 2858.1 1.18568 -1.96149 0
M  V30 30150 C 2859.11 1.3827 -0.859371 0
M  V30 30151 O 2860.3 1.37543 -1.13772 0
M  V30 30152 C 2857.4 2.54767 -2.23488 0
M  V30 30153 C 2856.57 2.55817 -3.5479 0
M  V30 30154 C 2855.63 3.73679 -3.70473 0
M  V30 30155 O 2854.66 3.57779 -4.42699 0
M  V30 30156 N 2855.86 4.91804 -3.08398 0
M  V30 30157 H 2858.63 0.853283 -2.87296 0
M  V30 30158 H 2856.19 0.319593 -1.58714 0
M  V30 30159 H 2858.18 3.32154 -2.31205 0
M  V30 30160 H 2856.75 2.80232 -1.38523 0
M  V30 30161 H 2855.97 1.64225 -3.58363 0
M  V30 30162 H 2857.26 2.53566 -4.41114 0
M  V30 30163 H 2856.66 5.07626 -2.49665 0
M  V30 30164 H 2855.21 5.66907 -3.21652 0
M  V30 30165 N 2858.65 1.52438 0.400055 0
M  V30 30166 C 2859.61 1.75795 1.47067 0
M  V30 30167 C 2860.61 0.627882 1.48035 0
M  V30 30168 O 2861.8 0.895843 1.494 0
M  V30 30169 C 2858.93 1.84863 2.86424 0
M  V30 30170 H 2860.12 2.7138 1.27644 0
M  V30 30171 H 2857.68 1.42992 0.631116 0
M  V30 30172 H 2858.41 0.912249 3.11205 0
M  V30 30173 H 2858.2 2.67026 2.87123 0
M  V30 30174 H 2859.69 2.04645 3.6402 0
M  V30 30175 N 2860.12 -0.657839 1.43214 0
M  V30 30176 C 2861.09 -1.75272 1.4769 0
M  V30 30177 C 2862.09 -1.56667 0.362207 0
M  V30 30178 O 2863.28 -1.62649 0.623762 0
M  V30 30179 C 2860.41 -3.14095 1.32502 0
M  V30 30180 H 2861.6 -1.72685 2.45193 0
M  V30 30181 H 2859.15 -0.869065 1.29911 0
M  V30 30182 H 2859.89 -3.22297 0.359887 0
M  V30 30183 H 2859.67 -3.29004 2.13304 0
M  V30 30184 H 2861.16 -3.93944 1.38556 0
M  V30 30185 N 2861.6 -1.29668 -0.895769 0
M  V30 30186 C 2862.53 -1.17691 -2.01671 0
M  V30 30187 C 2863.51 -0.0701615 -1.69955 0
M  V30 30188 O 2864.7 -0.250322 -1.9258 0
M  V30 30189 C 2861.83 -0.85674 -3.36567 0
M  V30 30190 C 2860.78 -1.92024 -3.82506 0
M  V30 30191 C 2860.11 -1.45329 -5.14571 0
M  V30 30192 C 2861.41 -3.3297 -4.02403 0
M  V30 30193 H 2863.1 -2.11466 -2.11949 0
M  V30 30194 H 2860.65 -1.01809 -1.01838 0
M  V30 30195 H 2862.6 -0.759649 -4.14496 0
M  V30 30196 H 2861.32 0.116705 -3.26391 0
M  V30 30197 H 2859.98 -2.00678 -3.06796 0
M  V30 30198 H 2859.63 -0.468413 -5.00814 0
M  V30 30199 H 2859.33 -2.16456 -5.46279 0
M  V30 30200 H 2860.86 -1.36978 -5.95037 0
M  V30 30201 H 2862.27 -3.27136 -4.70803 0
M  V30 30202 H 2860.67 -4.02089 -4.45471 0
M  V30 30203 H 2861.74 -3.75658 -3.06609 0
M  V30 30204 N 2863.08 1.10667 -1.12208 0
M  V30 30205 C 2863.99 2.20512 -0.800724 0
M  V30 30206 C 2865.01 1.72734 0.209482 0
M  V30 30207 O 2866.18 2.01353 0.0436696 0
M  V30 30208 C 2863.25 3.45743 -0.257414 0
M  V30 30209 C 2862.31 4.08268 -1.32725 0
M  V30 30210 C 2861.54 5.27521 -0.809767 0
M  V30 30211 O 2861.76 5.6928 0.35732 0
M  V30 30212 O 2860.7 5.80839 -1.57826 0
M  V30 30213 H 2864.52 2.50429 -1.71811 0
M  V30 30214 H 2862.11 1.19357 -0.898567 0
M  V30 30215 H 2863.99 4.2138 0.0408108 0
M  V30 30216 H 2862.67 3.17459 0.632572 0
M  V30 30217 H 2861.57 3.34326 -1.6786 0
M  V30 30218 H 2862.91 4.40749 -2.19091 0
M  V30 30219 N 2864.56 0.913621 1.28416 0
M  V30 30220 C 2865.79 0.561755 1.98816 0
M  V30 30221 C 2866.2 -0.861292 1.68459 0
M  V30 30222 O 2865.54 -1.58203 0.933681 0
M  V30 30223 C 2865.6 0.690847 3.528 0
M  V30 30224 C 2865.26 2.08342 4.06747 0
M  V30 30225 C 2866.26 3.05612 4.20592 0
M  V30 30226 C 2863.95 2.39656 4.41441 0
M  V30 30227 C 2865.94 4.32313 4.68384 0
M  V30 30228 C 2863.63 3.66597 4.88927 0
M  V30 30229 C 2864.63 4.62739 5.02356 0
M  V30 30230 O 2864.31 5.87423 5.48807 0
M  V30 30231 H 2864.05 0.212885 0.641604 0
M  V30 30232 H 2866.6 1.2289 1.64582 0
M  V30 30233 H 2864.83 -0.0333657 3.86686 0
M  V30 30234 H 2866.52 0.346103 4.04422 0
M  V30 30235 H 2867.28 2.82737 3.94062 0
M  V30 30236 H 2863.16 1.65574 4.3024 0
M  V30 30237 H 2866.71 5.07361 4.78781 0
M  V30 30238 H 2862.6 3.89296 5.14897 0
M  V30 30239 H 2863.37 5.90211 5.67092 0
M  V30 30240 N 2866.04 -1.4229 0.677588 0
M  V30 30241 C 2866.97 -2.33495 0.0150091 0
M  V30 30242 C 2867.95 -1.50833 -0.786349 0
M  V30 30243 O 2869.13 -1.79427 -0.742943 0
M  V30 30244 C 2866.26 -3.34478 -0.934964 0
M  V30 30245 C 2865.22 -4.27315 -0.241999 0
M  V30 30246 C 2864.54 -5.18528 -1.3051 0
M  V30 30247 C 2865.84 -5.14821 0.880694 0
M  V30 30248 H 2867.54 -2.89149 0.776722 0
M  V30 30249 H 2865.08 -1.39032 0.374964 0
M  V30 30250 H 2867.03 -3.97196 -1.40759 0
M  V30 30251 H 2865.76 -2.77134 -1.72813 0
M  V30 30252 H 2864.42 -3.65996 0.210415 0
M  V30 30253 H 2864.07 -4.57509 -2.09033 0
M  V30 30254 H 2863.77 -5.8147 -0.846549 0
M  V30 30255 H 2865.29 -5.84122 -1.7786 0
M  V30 30256 H 2866.7 -5.71209 0.489163 0
M  V30 30257 H 2865.1 -5.86611 1.26521 0
M  V30 30258 H 2866.17 -4.53056 1.72826 0
M  V30 30259 N 2867.51 -0.421104 -1.5187 0
M  V30 30260 C 2868.76 0.150457 -2.01539 0
M  V30 30261 C 2869.08 1.4462 -1.30805 0
M  V30 30262 O 2868.35 1.9095 -0.437601 0
M  V30 30263 H 2866.93 0.058591 -0.744699 0
M  V30 30264 H 2869.59 -0.560092 -1.86679 0
M  V30 30265 H 2868.69 0.338013 -3.10264 0
M  V30 30266 N 2868.99 1.56866 -0.151912 0
M  V30 30267 C 2870.22 2.01082 0.508009 0
M  V30 30268 C 2870.64 1.03136 1.57304 0
M  V30 30269 O 2870 0.00786277 1.81298 0
M  V30 30270 C 2870.05 3.44016 1.081 0
M  V30 30271 O 2869.15 3.49088 2.19571 0
M  V30 30272 H 2868.49 0.652367 0.123745 0
M  V30 30273 H 2871.02 2.03066 -0.250091 0
M  V30 30274 H 2871.03 3.82919 1.40844 0
M  V30 30275 H 2869.71 4.14809 0.301095 0
M  V30 30276 H 2868.29 3.22031 1.88017 0
M  V30 30277 N 2870.47 -0.121866 1.57128 0
M  V30 30278 C 2871.72 -0.830156 1.84702 0
M  V30 30279 C 2872.05 -1.80013 0.736575 0
M  V30 30280 O 2871.3 -1.93796 -0.272324 0
M  V30 30281 C 2871.6 -1.61671 3.18743 0
M  V30 30282 C 2871.27 -0.791283 4.43903 0
M  V30 30283 C 2869.93 -0.563647 4.77888 0
M  V30 30284 C 2872.28 -0.215731 5.20753 0
M  V30 30285 C 2869.61 0.24984 5.86168 0
M  V30 30286 C 2871.96 0.584931 6.2989 0
M  V30 30287 C 2870.62 0.82291 6.62408 0
M  V30 30288 H 2869.89 -0.303776 0.675871 0
M  V30 30289 H 2872.54 -0.0926558 1.91276 0
M  V30 30290 H 2870.85 -2.42504 3.07732 0
M  V30 30291 H 2872.54 -2.16866 3.37298 0
M  V30 30292 H 2869.13 -0.978794 4.17274 0
M  V30 30293 H 2873.32 -0.37882 4.94852 0
M  V30 30294 H 2868.57 0.443468 6.0979 0
M  V30 30295 H 2872.75 1.03791 6.88622 0
M  V30 30296 H 2870.37 1.45509 7.46144 0
M  V30 30297 N 2871.95 -1.52648 -0.391965 0
M  V30 30298 C 2873.23 -1.58125 -1.15133 0
M  V30 30299 C 2873.61 -0.372633 -2.07785 0
M  V30 30300 O 2872.95 0.639265 -2.19376 0
M  V30 30301 C 2873.16 -2.91859 -1.91362 0
M  V30 30302 C 2874.51 -3.45487 -2.46827 0
M  V30 30303 O 2875.54 -2.93713 -2.01521 0
M  V30 30304 O 2874.39 -4.35936 -3.29579 0
M  V30 30305 H 2871.49 -0.637638 -0.526637 0
M  V30 30306 H 2874.03 -1.64982 -0.397357 0
M  V30 30307 H 2872.81 -3.7127 -1.2359 0
M  V30 30308 H 2872.43 -2.88374 -2.73727 0
M  V30 30309 N 2873.43 0.650235 -1.43561 0
M  V30 30310 C 2874.38 1.75625 -1.45395 0
M  V30 30311 C 2875.36 1.57644 -0.322033 0
M  V30 30312 O 2876.55 1.67706 -0.566025 0
M  V30 30313 C 2873.68 3.14228 -1.3826 0
M  V30 30314 C 2872.77 3.37746 -2.56493 0
M  V30 30315 N 2873.16 3.31722 -3.8183 0
M  V30 30316 C 2871.46 3.68476 -2.5128 0
M  V30 30317 C 2872.16 3.55404 -4.60503 0
M  V30 30318 N 2871.13 3.7736 -3.9128 0
M  V30 30319 H 2874.94 1.69398 -2.4017 0
M  V30 30320 H 2872.45 0.852013 -1.38255 0
M  V30 30321 H 2874.45 3.93518 -1.37657 0
M  V30 30322 H 2873.11 3.21635 -0.445076 0
M  V30 30323 H 2874.12 3.11067 -4.14075 0
M  V30 30324 H 2870.79 3.8298 -1.6623 0
M  V30 30325 H 2872.18 3.565 -5.69524 0
M  V30 30326 N 2874.9 1.30141 0.88888 0
M  V30 30327 C 2876.13 1.21477 1.67113 0
M  V30 30328 C 2876.54 -0.225439 1.87852 0
M  V30 30329 O 2875.89 -1.16142 1.42326 0
M  V30 30330 C 2875.95 1.86851 3.07127 0
M  V30 30331 C 2875.61 3.36172 3.09576 0
M  V30 30332 C 2876.61 4.32227 2.88921 0
M  V30 30333 C 2874.29 3.77554 3.31297 0
M  V30 30334 C 2876.29 5.67639 2.89939 0
M  V30 30335 C 2873.97 5.13085 3.31945 0
M  V30 30336 C 2874.97 6.07938 3.11289 0
M  V30 30337 O 2874.66 7.40993 3.11745 0
M  V30 30338 H 2874.39 0.421671 0.528365 0
M  V30 30339 H 2876.95 1.72232 1.11916 0
M  V30 30340 H 2875.18 1.30621 3.63971 0
M  V30 30341 H 2876.87 1.72361 3.67487 0
M  V30 30342 H 2877.63 4.01588 2.71941 0
M  V30 30343 H 2873.51 3.04171 3.46411 0
M  V30 30344 H 2877.05 6.4165 2.73735 0
M  V30 30345 H 2872.95 5.43366 3.4846 0
M  V30 30346 H 2873.72 7.49933 3.27938 0
M  V30 30347 N 2876.38 -1.1007 1.12794 0
M  V30 30348 C 2877.35 -2.14699 0.802302 0
M  V30 30349 C 2878.35 -1.59731 -0.185122 0
M  V30 30350 O 2879.54 -1.74151 0.0411397 0
M  V30 30351 C 2876.67 -3.40354 0.192909 0
M  V30 30352 H 2877.86 -2.45016 1.72936 0
M  V30 30353 H 2875.41 -1.25496 0.931684 0
M  V30 30354 H 2876.15 -3.15658 -0.743693 0
M  V30 30355 H 2875.93 -3.81539 0.903894 0
M  V30 30356 H 2877.42 -4.17596 -0.018297 0
M  V30 30357 N 2877.86 -0.920419 -1.2793 0
M  V30 30358 C 2879.09 -0.573122 -1.98804 0
M  V30 30359 C 2879.5 0.847171 -1.68726 0
M  V30 30360 O 2878.86 1.56205 -0.943726 0
M  V30 30361 C 2878.91 -0.780695 -3.52969 0
M  V30 30362 O 2878.63 -2.14511 -3.81991 0
M  V30 30363 C 2880.13 -0.441127 -4.411 0
M  V30 30364 H 2877.35 -0.217861 -0.634648 0
M  V30 30365 H 2879.9 -1.23545 -1.62963 0
M  V30 30366 H 2878.05 -0.165272 -3.87047 0
M  V30 30367 H 2878.47 -2.1897 -4.76605 0
M  V30 30368 H 2879.94 -0.637102 -5.48311 0
M  V30 30369 H 2880.42 0.622984 -4.34759 0
M  V30 30370 H 2881.02 -1.03438 -4.1253 0
M  V30 30371 O 2879.38 1.38895 -0.824048 0
M  V30 30372 H 2880.07 1.89385 -0.406573 0
M  V30 END ATOM
M  V30 BEGIN BOND
M  V30 END BOND
M  V30 END CTAB
M  END
$$$$
