drugbank_target|Q13393 Phospholipase D1 (DB00122; DB05301; DB14006)
 OpenBabel12092120073D

  0  0  0     0  0            999 V3000
M  V30 BEGIN CTAB
M  V30 COUNTS 17473 17694 0 0 0
M  V30 BEGIN ATOM
M  V30 1 H -0.908 1.98254 -0.117106 0
M  V30 2 N 0 1.576 0 0
M  V30 3 C 0.933 2.03868 1.02534 0
M  V30 4 C 1.911 0.928543 1.3348 0
M  V30 5 O 3.095 1.19667 1.45644 0
M  V30 6 C 0.222 2.43627 2.35294 0
M  V30 7 C -0.732 3.65373 2.2001 0
M  V30 8 S 0.101 5.13292 1.52614 0
M  V30 9 C 1.257 5.56322 2.86805 0
M  V30 10 H 1.49 2.90518 0.631377 0
M  V30 11 H -0.977 1.52953 0.210867 0
M  V30 12 H 0.981 2.67203 3.11629 0
M  V30 13 H -0.358 1.57376 2.7183 0
M  V30 14 H -1.165 3.90944 3.18086 0
M  V30 15 H -1.563 3.418 1.51819 0
M  V30 16 H 0.729 5.58782 3.83104 0
M  V30 17 H 1.672 6.56266 2.65933 0
M  V30 18 H 2.08 4.83886 2.90714 0
M  V30 19 N 1.4781 -0.272755 1.55222 0
M  V30 20 C 2.7031 -1.02683 1.80197 0
M  V30 21 C 3.1281 -1.79142 0.573551 0
M  V30 22 O 2.4861 -1.74917 -0.476849 0
M  V30 23 C 2.5341 -1.9609 3.02624 0
M  V30 24 O 1.6381 -3.04863 2.77727 0
M  V30 25 H 0.9791 -0.293557 0.595584 0
M  V30 26 H 3.5091 -0.30159 2.02365 0
M  V30 27 H 3.5191 -2.38039 3.31363 0
M  V30 28 H 2.1941 -1.39851 3.91682 0
M  V30 29 H 0.7711 -2.67228 2.60084 0
M  V30 30 N 2.9562 -1.48159 -0.537278 0
M  V30 31 C 3.8862 -1.65029 -1.6519 0
M  V30 32 C 4.8672 -0.499281 -1.62607 0
M  V30 33 O 6.0522 -0.730972 -1.79918 0
M  V30 34 C 3.1822 -1.68303 -3.03795 0
M  V30 35 C 2.1362 -2.8283 -3.21234 0
M  V30 36 C 1.4622 -2.71189 -4.60826 0
M  V30 37 C 2.7622 -4.24211 -3.04701 0
M  V30 38 H 4.4562 -2.58341 -1.51328 0
M  V30 39 H 2.0022 -1.24325 -0.726585 0
M  V30 40 H 3.9552 -1.78693 -3.81637 0
M  V30 41 H 2.6792 -0.715635 -3.18663 0
M  V30 42 H 1.3382 -2.71983 -2.45807 0
M  V30 43 H 0.9862 -1.72435 -4.7252 0
M  V30 44 H 0.6862 -3.48035 -4.7344 0
M  V30 45 H 2.2102 -2.83537 -5.40777 0
M  V30 46 H 3.6242 -4.3593 -3.72341 0
M  V30 47 H 2.0212 -5.01998 -3.28813 0
M  V30 48 H 3.0912 -4.41184 -2.01209 0
M  V30 49 N 4.4343 0.785586 -1.36625 0
M  V30 50 C 5.3813 1.89838 -1.31264 0
M  V30 51 C 6.3513 1.65115 -0.180633 0
M  V30 52 O 7.5363 1.87222 -0.36777 0
M  V30 53 C 4.6763 3.26706 -1.11163 0
M  V30 54 C 3.7893 3.63476 -2.33472 0
M  V30 55 C 2.9243 4.89481 -2.06353 0
M  V30 56 C 1.9633 5.18941 -3.24602 0
M  V30 57 N 1.1003 6.36131 -2.97123 0
M  V30 58 H 5.9403 1.93756 -2.26413 0
M  V30 59 H 3.4773 0.947454 -1.12524 0
M  V30 60 H 5.4353 4.05639 -0.975337 0
M  V30 61 H 4.0653 3.222 -0.196674 0
M  V30 62 H 3.1173 2.79636 -2.57891 0
M  V30 63 H 4.4293 3.81193 -3.21704 0
M  V30 64 H 3.5833 5.76288 -1.89675 0
M  V30 65 H 2.3223 4.73841 -1.15437 0
M  V30 66 H 1.3273 4.30615 -3.41834 0
M  V30 67 H 2.5523 5.36498 -4.16349 0
M  V30 68 H 0.4983 6.21875 -2.08823 0
M  V30 69 H 0.4153 6.54198 -3.78894 0
M  V30 70 H 1.6833 7.2591 -2.84033 0
M  V30 71 N 5.9124 1.20967 1.01018 0
M  V30 72 C 6.8604 0.961223 2.1181 0
M  V30 73 C 7.8544 -0.0897034 1.69162 0
M  V30 74 O 9.0604 0.0612271 1.79896 0
M  V30 75 H 5.4354 0.29355 0.692338 0
M  V30 76 H 7.4064 1.90178 2.29946 0
M  V30 77 C 6.1554 0.536854 3.4353 0
M  V30 78 H 5.4784 1.33713 3.76777 0
M  V30 79 H 6.9184 0.402286 4.22087 0
M  V30 80 C 5.3774 -0.751574 3.2841 0
M  V30 81 O 5.9074 -1.80841 3.58691 0
M  V30 82 N 4.1134 -0.716079 2.81639 0
M  V30 83 H 3.6604 0.144236 2.57196 0
M  V30 84 H 3.6184 -1.57847 2.71904 0
M  V30 85 N 7.3905 -1.2043 1.01659 0
M  V30 86 C 8.3005 -2.2689 0.596484 0
M  V30 87 C 9.3165 -1.70107 -0.36599 0
M  V30 88 O 10.4925 -2.00117 -0.226942 0
M  V30 89 C 7.5575 -3.4665 -0.0586659 0
M  V30 90 C 6.6185 -4.18662 0.949751 0
M  V30 91 C 5.8515 -5.32705 0.32577 0
M  V30 92 O 6.0745 -5.63656 -0.874509 0
M  V30 93 O 5.0085 -5.92803 1.04249 0
M  V30 94 H 8.8345 -2.65041 1.4828 0
M  V30 95 H 6.4195 -1.27048 0.786082 0
M  V30 96 H 8.3015 -4.19256 -0.424564 0
M  V30 97 H 6.9765 -3.10375 -0.91918 0
M  V30 98 H 5.8835 -3.48229 1.36702 0
M  V30 99 H 7.2165 -4.58878 1.78023 0
M  V30 100 N 8.8686 -0.792821 -1.36206 0
M  V30 101 C 10.2796 -0.429513 -1.81692 0
M  V30 102 C 10.6306 1.04695 -1.65932 0
M  V30 103 O 9.7556 1.81256 -1.18218 0
M  V30 104 C 10.3506 -0.772831 -3.29868 0
M  V30 105 C 8.9096 -0.462307 -3.7355 0
M  V30 106 C 8.0566 -1.00569 -2.5842 0
M  V30 107 H 11.0076 -0.985672 -1.24379 0
M  V30 108 H 11.0286 -0.0651928 -3.80444 0
M  V30 109 H 10.5406 -1.84747 -3.41307 0
M  V30 110 H 8.6416 0.604158 -3.67669 0
M  V30 111 H 8.7546 -0.985299 -4.68859 0
M  V30 112 H 7.1186 -0.428734 -2.51066 0
M  V30 113 H 7.9016 -2.08616 -2.72643 0
M  V30 114 N 10.3467 1.47872 -0.545128 0
M  V30 115 C 11.7627 1.5829 -0.204032 0
M  V30 116 C 11.9627 1.54529 1.29317 0
M  V30 117 O 11.0187 1.44232 2.07252 0
M  V30 118 C 12.3317 2.89304 -0.819987 0
M  V30 119 C 13.8797 3.02864 -0.790105 0
M  V30 120 C 14.3547 4.3656 -1.38491 0
M  V30 121 N 15.8457 4.43165 -1.34755 0
M  V30 122 C 16.5807 5.45153 -1.77753 0
M  V30 123 N 16.0767 6.54016 -2.2855 0
M  V30 124 N 17.8697 5.36125 -1.68897 0
M  V30 125 H 10.0207 1.4856 -1.51802 0
M  V30 126 H 12.2837 0.706305 -0.632327 0
M  V30 127 H 11.9897 2.97757 -1.87173 0
M  V30 128 H 11.8637 3.75957 -0.305915 0
M  V30 129 H 14.2507 2.94014 0.252913 0
M  V30 130 H 14.3317 2.17782 -1.34181 0
M  V30 131 H 13.9757 4.46164 -2.42693 0
M  V30 132 H 13.9057 5.20353 -0.808754 0
M  V30 133 H 16.3967 3.65083 -0.975855 0
M  V30 134 H 16.7097 7.27994 -2.59314 0
M  V30 135 H 15.0547 6.54938 -2.32553 0
M  V30 136 H 18.2457 4.49975 -1.28998 0
M  V30 137 H 18.4187 6.15472 -2.02726 0
M  V30 138 N 11.8248 0.280983 1.55075 0
M  V30 139 C 13.0708 -0.33461 2.00021 0
M  V30 140 C 13.4038 -1.55063 1.16915 0
M  V30 141 O 12.6788 -1.93006 0.240646 0
M  V30 142 C 12.9618 -0.711007 3.53011 0
M  V30 143 C 12.8148 0.512766 4.46868 0
M  V30 144 C 14.1338 -1.54522 4.12081 0
M  V30 145 H 11.2528 -0.120147 0.727141 0
M  V30 146 H 13.8948 0.389097 1.85973 0
M  V30 147 H 12.0448 -1.32761 3.65112 0
M  V30 148 H 13.7168 1.15131 4.46702 0
M  V30 149 H 11.9598 1.14975 4.18286 0
M  V30 150 H 12.6308 0.205556 5.51617 0
M  V30 151 H 15.1068 -1.02442 4.03293 0
M  V30 152 H 13.9828 -1.77739 5.19327 0
M  V30 153 H 14.2438 -2.52813 3.62682 0
M  V30 154 N 13.3029 -1.57598 0.00835791 0
M  V30 155 C 14.2509 -2.10078 -0.998508 0
M  V30 156 C 15.2449 -1.02262 -1.35051 0
M  V30 157 O 16.4509 -1.20719 -1.33518 0
M  V30 158 H 12.8259 -0.670903 -0.339696 0
M  V30 159 H 14.7969 -2.93648 -0.530398 0
M  V30 160 C 13.5459 -2.62615 -2.27879 0
M  V30 161 H 12.8689 -3.45213 -2.01662 0
M  V30 162 H 14.3089 -3.03004 -2.96588 0
M  V30 163 C 12.7679 -1.54407 -2.99433 0
M  V30 164 O 13.2979 -0.931812 -3.90743 0
M  V30 165 N 11.5039 -1.2695 -2.61404 0
M  V30 166 H 11.0509 -1.76924 -1.87232 0
M  V30 167 H 11.0089 -0.547704 -3.09593 0
M  V30 168 N 14.781 0.264519 -1.55364 0
M  V30 169 C 16.009 1.013 -1.80405 0
M  V30 170 C 16.424 1.79618 -0.581622 0
M  V30 171 O 15.781 1.76879 0.449468 0
M  V30 172 C 15.832 1.96487 -3.03439 0
M  V30 173 O 15.553 1.21341 -4.20961 0
M  V30 174 C 17.054 2.83079 -3.41147 0
M  V30 175 H 14.274 0.298875 -0.600762 0
M  V30 176 H 16.818 0.292736 -2.02394 0
M  V30 177 H 14.973 2.63965 -2.83551 0
M  V30 178 H 15.387 1.85573 -4.90574 0
M  V30 179 H 16.861 3.4565 -4.30384 0
M  V30 180 H 17.338 3.53286 -2.60932 0
M  V30 181 H 17.944 2.2108 -3.63323 0
M  V30 182 N 16.2591 1.48442 0.529413 0
M  V30 183 C 17.4841 1.60406 1.31471 0
M  V30 184 C 17.9091 0.264738 1.86228 0
M  V30 185 O 17.2671 -0.763668 1.64432 0
M  V30 186 C 17.3151 2.65419 2.44101 0
M  V30 187 O 16.4191 2.22618 3.47153 0
M  V30 188 H 15.7601 0.537863 0.389357 0
M  V30 189 H 18.2901 1.94432 0.636965 0
M  V30 190 H 18.3001 2.86709 2.90279 0
M  V30 191 H 16.9751 3.62652 2.03608 0
M  V30 192 H 15.5521 2.11543 3.0709 0
M  V30 193 N 17.7372 -0.778329 1.37039 0
M  V30 194 C 18.7002 -1.87301 1.32102 0
M  V30 195 C 19.7002 -1.59198 0.226405 0
M  V30 196 O 20.8902 -1.67403 0.481861 0
M  V30 197 C 18.0222 -3.24309 1.05055 0
M  V30 198 H 19.2152 -1.93093 2.29467 0
M  V30 199 H 16.7682 -0.977358 1.21973 0
M  V30 200 H 17.5032 -3.24196 0.0819373 0
M  V30 201 H 17.2882 -3.46098 1.84279 0
M  V30 202 H 18.7782 -4.04382 1.04234 0
M  V30 203 N 19.2153 -1.21501 -1.00376 0
M  V30 204 C 20.1453 -0.999478 -2.11028 0
M  V30 205 C 21.1263 0.0759671 -1.6993 0
M  V30 206 O 22.3113 -0.0841106 -1.94018 0
M  V30 207 C 19.4413 -0.564709 -3.42678 0
M  V30 208 C 18.3953 -1.58486 -3.97576 0
M  V30 209 C 17.7213 -1.00628 -5.25146 0
M  V30 210 C 19.0213 -2.97204 -4.29496 0
M  V30 211 H 20.7153 -1.92495 -2.29317 0
M  V30 212 H 18.2613 -0.92693 -1.102 0
M  V30 213 H 20.2143 -0.401091 -4.19487 0
M  V30 214 H 18.9383 0.396411 -3.24185 0
M  V30 215 H 17.5973 -1.73606 -3.22888 0
M  V30 216 H 17.2453 -0.0368439 -5.02987 0
M  V30 217 H 16.9453 -1.68771 -5.62841 0
M  V30 218 H 18.4693 -0.854015 -6.04598 0
M  V30 219 H 19.8833 -2.8552 -4.97143 0
M  V30 220 H 18.2803 -3.62372 -4.78338 0
M  V30 221 H 19.3503 -3.47956 -3.3772 0
M  V30 222 N 20.6934 1.19889 -1.02296 0
M  V30 223 C 21.6254 2.22334 -0.556787 0
M  V30 224 C 22.6384 1.58674 0.364199 0
M  V30 225 O 23.8274 1.77768 0.161533 0
M  V30 226 C 20.9274 3.38257 0.208694 0
M  V30 227 C 20.1004 4.31504 -0.71577 0
M  V30 228 C 19.1594 5.262 0.00325597 0
M  V30 229 O 18.1854 5.65798 -0.621357 0
M  V30 230 N 19.3874 5.66303 1.27599 0
M  V30 231 H 22.1524 2.62957 -1.43784 0
M  V30 232 H 19.7134 1.34495 -0.901261 0
M  V30 233 H 21.7054 3.98616 0.699111 0
M  V30 234 H 20.2754 2.96472 0.991102 0
M  V30 235 H 19.4954 3.69016 -1.38638 0
M  V30 236 H 20.7834 4.9072 -1.34428 0
M  V30 237 H 20.1814 5.36155 1.80429 0
M  V30 238 H 18.7384 6.28942 1.71102 0
M  V30 239 N 22.1715 0.800033 1.35784 0
M  V30 240 C 23.1185 0.203848 2.29898 0
M  V30 241 C 24.0885 -0.658375 1.52495 0
M  V30 242 O 25.2735 -0.604832 1.8096 0
M  V30 243 C 22.4135 -0.64688 3.38983 0
M  V30 244 C 21.5265 0.235054 4.3136 0
M  V30 245 C 20.6615 -0.623054 5.27533 0
M  V30 246 C 19.7005 0.259682 6.11549 0
M  V30 247 N 18.8375 -0.558019 6.99879 0
M  V30 248 H 23.6775 1.01186 2.80295 0
M  V30 249 H 21.2145 0.51053 1.37957 0
M  V30 250 H 23.1725 -1.15521 4.00887 0
M  V30 251 H 21.8025 -1.42021 2.89879 0
M  V30 252 H 20.8545 0.861438 3.70518 0
M  V30 253 H 22.1665 0.914768 4.9034 0
M  V30 254 H 21.3205 -1.19678 5.94779 0
M  V30 255 H 20.0595 -1.33636 4.69034 0
M  V30 256 H 19.0645 0.845726 5.43256 0
M  V30 257 H 20.2895 0.970748 6.72126 0
M  V30 258 H 18.2355 -1.25542 6.43875 0
M  V30 259 H 18.1525 0.0637872 7.55973 0
M  V30 260 H 19.4205 -1.11523 7.71481 0
M  V30 261 N 23.6496 -1.47581 0.552962 0
M  V30 262 C 24.8986 -2.01684 0.0251995 0
M  V30 263 C 25.2116 -1.43317 -1.33115 0
M  V30 264 O 26.4176 -1.89057 -1.94858 0
M  V30 265 C 24.8736 -3.599 -0.00542052 0
M  V30 266 C 24.4816 -4.27257 1.34742 0
M  V30 267 C 26.2256 -4.21768 -0.4808 0
M  V30 268 C 24.1326 -5.77467 1.27614 0
M  V30 269 H 23.0626 -0.753979 0.00565033 0
M  V30 270 H 25.7136 -1.69616 0.70018 0
M  V30 271 H 24.0956 -3.88911 -0.745961 0
M  V30 272 H 25.2696 -4.09893 2.10534 0
M  V30 273 H 23.5846 -3.77358 1.76039 0
M  V30 274 H 26.1816 -5.31838 -0.55246 0
M  V30 275 H 26.5246 -3.88651 -1.49184 0
M  V30 276 H 27.0576 -3.97273 0.204752 0
M  V30 277 H 23.7966 -6.15196 2.26304 0
M  V30 278 H 23.3166 -5.9718 0.55996 0
M  V30 279 H 24.9956 -6.3959 0.976421 0
M  V30 280 N 25.1277 -0.289203 -1.54924 0
M  V30 281 C 26.0907 0.579144 -2.21762 0
M  V30 282 C 27.0907 1.07047 -1.1999 0
M  V30 283 O 28.2807 0.968384 -1.44803 0
M  V30 284 C 25.4127 1.80055 -2.8947 0
M  V30 285 H 26.6057 -0.00464908 -2.999 0
M  V30 286 H 24.1587 -0.0399306 -1.56249 0
M  V30 287 H 24.8937 2.42449 -2.15381 0
M  V30 288 H 24.6787 1.45602 -3.64064 0
M  V30 289 H 26.1687 2.41773 -3.40493 0
M  V30 290 N 26.6058 1.57591 -0.0167156 0
M  V30 291 C 27.5688 2.08393 0.954204 0
M  V30 292 C 28.5688 0.996531 1.26198 0
M  V30 293 O 29.7588 1.25858 1.20438 0
M  V30 294 C 26.8908 2.5394 2.27436 0
M  V30 295 H 28.0838 2.95455 0.514451 0
M  V30 296 H 25.6368 1.54582 0.231089 0
M  V30 297 H 26.3718 1.70171 2.76066 0
M  V30 298 H 26.1568 3.33371 2.06412 0
M  V30 299 H 27.6468 2.93512 2.97053 0
M  V30 300 N 28.0839 -0.256276 1.55502 0
M  V30 301 C 29.3609 -1.00789 1.67633 0
M  V30 302 C 29.7409 -2.03706 0.553826 0
M  V30 303 O 29.0889 -2.24145 -0.443969 0
M  V30 304 C 29.2989 -1.64968 3.07549 0
M  V30 305 C 30.6469 -2.15505 3.65845 0
M  V30 306 O 31.6709 -1.74925 3.1029 0
M  V30 307 O 30.5299 -2.89986 4.63217 0
M  V30 308 H 27.6239 -0.468553 0.681459 0
M  V30 309 H 30.1699 -0.250806 1.67836 0
M  V30 310 H 28.9419 -0.904785 3.80696 0
M  V30 311 H 28.5649 -2.47321 3.11317 0
M  V30 312 N 29.562 -1.4872 -0.521534 0
M  V30 313 C 30.495 -1.58451 -1.64221 0
M  V30 314 C 31.473 -0.434513 -1.56687 0
M  V30 315 O 32.657 -0.647275 -1.77038 0
M  V30 316 C 29.784 -1.52037 -3.02659 0
M  V30 317 C 28.83 -2.71981 -3.28525 0
M  V30 318 S 29.663 -4.33869 -3.13876 0
M  V30 319 C 30.819 -4.30067 -4.54745 0
M  V30 320 H 31.052 -2.53256 -1.55719 0
M  V30 321 H 28.585 -1.37358 -0.705143 0
M  V30 322 H 30.543 -1.49023 -3.82495 0
M  V30 323 H 29.204 -0.585541 -3.08594 0
M  V30 324 H 28.397 -2.63656 -4.29536 0
M  V30 325 H 27.999 -2.72302 -2.56374 0
M  V30 326 H 30.291 -4.00521 -5.46433 0
M  V30 327 H 31.234 -5.31287 -4.68123 0
M  V30 328 H 31.642 -3.60419 -4.34463 0
M  V30 329 N 31.0401 0.771051 -1.3745 0
M  V30 330 C 32.2651 1.56529 -1.36065 0
M  V30 331 C 32.6901 1.88029 0.0515859 0
M  V30 332 O 32.0481 1.49282 1.02882 0
M  V30 333 C 32.0961 2.85187 -2.20683 0
M  V30 334 O 31.2001 3.79593 -1.61193 0
M  V30 335 H 30.5411 0.47411 -0.464883 0
M  V30 336 H 33.0711 0.954269 -1.80983 0
M  V30 337 H 33.0811 3.34283 -2.33921 0
M  V30 338 H 31.7561 2.61588 -3.23334 0
M  V30 339 H 30.3331 3.38239 -1.56999 0
M  V30 340 N 32.5182 1.22032 0.997298 0
M  V30 341 C 33.4662 0.983634 2.10778 0
M  V30 342 C 34.4602 -0.0717564 1.69248 0
M  V30 343 O 35.6662 0.080304 1.79821 0
M  V30 344 H 32.0412 0.300877 0.689186 0
M  V30 345 H 34.0122 1.92606 2.27916 0
M  V30 346 C 32.7612 0.57326 3.42942 0
M  V30 347 H 32.0842 1.37702 3.75338 0
M  V30 348 H 33.5242 0.447031 4.21637 0
M  V30 349 C 31.9832 -0.7167 3.29188 0
M  V30 350 O 32.5132 -1.77027 3.60589 0
M  V30 351 N 30.7192 -0.686167 2.82383 0
M  V30 352 H 30.2662 0.171507 2.57028 0
M  V30 353 H 30.2242 -1.54955 2.73562 0
M  V30 354 N 33.9963 -1.19345 1.0293 0
M  V30 355 C 35.2453 -1.88363 0.721256 0
M  V30 356 C 35.5583 -1.80514 -0.753254 0
M  V30 357 O 36.7643 -2.44788 -1.17436 0
M  V30 358 C 35.2203 -3.37872 1.23978 0
M  V30 359 C 34.8283 -3.54278 2.74211 0
M  V30 360 C 36.5723 -4.12365 1.00775 0
M  V30 361 C 34.4793 -4.97682 3.19479 0
M  V30 362 H 33.4093 -0.705484 0.266098 0
M  V30 363 H 36.0603 -1.34928 1.24365 0
M  V30 364 H 34.4423 -3.90707 0.6453 0
M  V30 365 H 35.6163 -3.11769 3.39318 0
M  V30 366 H 33.9313 -2.93174 2.95699 0
M  V30 367 H 36.5283 -5.18119 1.32123 0
M  V30 368 H 36.8713 -4.16263 -0.0554308 0
M  V30 369 H 37.4043 -3.65668 1.56625 0
M  V30 370 H 34.1433 -4.98945 4.25128 0
M  V30 371 H 33.6633 -5.4095 2.591 0
M  V30 372 H 35.3423 -5.66337 3.12845 0
M  V30 373 N 35.4744 -0.807222 -1.35358 0
M  V30 374 C 36.7234 -0.384376 -1.98004 0
M  V30 375 C 37.0364 1.0543 -1.64754 0
M  V30 376 O 38.2424 1.58029 -2.20769 0
M  V30 377 C 36.6984 -0.636326 -3.5423 0
M  V30 378 C 36.3064 -2.08759 -3.96388 0
M  V30 379 C 38.0504 -0.278869 -4.23583 0
M  V30 380 C 35.9574 -2.28525 -5.45463 0
M  V30 381 H 34.8874 -0.139986 -0.740891 0
M  V30 382 H 37.5384 -0.991369 -1.54415 0
M  V30 383 H 35.9204 0.0406256 -3.95979 0
M  V30 384 H 37.0944 -2.8024 -3.6579 0
M  V30 385 H 35.4094 -2.40497 -3.39926 0
M  V30 386 H 38.0064 -0.404599 -5.33167 0
M  V30 387 H 38.3494 0.775012 -4.09022 0
M  V30 388 H 38.8824 -0.909764 -3.87257 0
M  V30 389 H 35.6214 -3.32361 -5.64992 0
M  V30 390 H 35.1414 -1.61569 -5.77629 0
M  V30 391 H 36.8204 -2.10109 -6.11934 0
M  V30 392 N 36.9525 1.47285 -0.560781 0
M  V30 393 C 37.8625 2.33846 0.187954 0
M  V30 394 C 38.8785 1.48412 0.908293 0
M  V30 395 O 40.0545 1.81332 0.876388 0
M  V30 396 C 37.1195 3.25178 1.2025 0
M  V30 397 C 36.1805 4.26504 0.489208 0
M  V30 398 C 35.4135 5.13472 1.45542 0
M  V30 399 O 35.6365 5.02959 2.6905 0
M  V30 400 O 34.5705 5.93902 0.977963 0
M  V30 401 H 38.3965 2.99177 -0.522177 0
M  V30 402 H 35.9815 1.45903 -0.321364 0
M  V30 403 H 37.8635 3.81584 1.78805 0
M  V30 404 H 36.5385 2.6247 1.89449 0
M  V30 405 H 35.4455 3.73847 -0.137627 0
M  V30 406 H 36.7785 4.91935 -0.161399 0
M  V30 407 N 38.4306 0.297415 1.54768 0
M  V30 408 C 39.3786 -0.596051 2.24833 0
M  V30 409 C 40.3726 -1.13992 1.25308 0
M  V30 410 O 41.5786 -1.09098 1.4317 0
M  V30 411 H 37.9536 -0.210814 0.721846 0
M  V30 412 H 39.9246 0.0174667 2.98395 0
M  V30 413 C 38.6736 -1.75818 2.99972 0
M  V30 414 H 37.9966 -1.3489 3.76357 0
M  V30 415 H 39.4366 -2.35949 3.52284 0
M  V30 416 C 37.8956 -2.66014 2.06732 0
M  V30 417 O 38.4256 -3.67009 1.63302 0
M  V30 418 N 36.6316 -2.33669 1.72763 0
M  V30 419 H 36.1786 -1.51586 2.08277 0
M  V30 420 H 36.1366 -2.94285 1.10652 0
M  V30 421 N 39.9087 -1.5758 0.0250728 0
M  V30 422 C 40.8387 -2.13007 -0.956575 0
M  V30 423 C 41.8197 -1.0452 -1.342 0
M  V30 424 O 43.0047 -1.32332 -1.42133 0
M  V30 425 C 40.1347 -2.65386 -2.24026 0
M  V30 426 C 39.0887 -3.78623 -1.99571 0
M  V30 427 C 38.4147 -4.17414 -3.3417 0
M  V30 428 C 39.7147 -5.04867 -1.33814 0
M  V30 429 H 41.4087 -2.9528 -0.494991 0
M  V30 430 H 38.9547 -1.42042 -0.236651 0
M  V30 431 H 40.9077 -3.02794 -2.93076 0
M  V30 432 H 39.6317 -1.80268 -2.72343 0
M  V30 433 H 38.2907 -3.41646 -1.32941 0
M  V30 434 H 37.9387 -3.29284 -3.80238 0
M  V30 435 H 37.6387 -4.93719 -3.18615 0
M  V30 436 H 39.1627 -4.57402 -4.04495 0
M  V30 437 H 40.5767 -5.39888 -1.92857 0
M  V30 438 H 38.9737 -5.86144 -1.28669 0
M  V30 439 H 40.0437 -4.83904 -0.310561 0
M  V30 440 N 41.3868 0.248026 -1.55636 0
M  V30 441 C 42.6638 0.998988 -1.68165 0
M  V30 442 C 43.0438 2.03409 -0.564621 0
M  V30 443 O 42.3918 2.24378 0.432076 0
M  V30 444 C 42.6018 1.63334 -3.0842 0
M  V30 445 C 43.9498 2.13562 -3.66983 0
M  V30 446 O 44.9738 1.73277 -3.11213 0
M  V30 447 O 43.8328 2.87526 -4.64749 0
M  V30 448 H 40.9268 0.464933 -0.683935 0
M  V30 449 H 43.4728 0.241902 -1.67967 0
M  V30 450 H 42.2448 0.884583 -3.8117 0
M  V30 451 H 41.8678 2.45666 -3.12624 0
M  V30 452 N 42.8649 1.48995 0.513639 0
M  V30 453 C 44.0929 1.61531 1.29288 0
M  V30 454 C 44.5079 0.281801 1.86685 0
M  V30 455 O 43.8649 -0.731111 1.67215 0
M  V30 456 C 43.9159 2.67449 2.43215 0
M  V30 457 O 43.6369 3.95626 1.88179 0
M  V30 458 C 45.1379 2.90575 3.34785 0
M  V30 459 H 42.3579 0.544165 0.392588 0
M  V30 460 H 44.9019 1.9494 0.617956 0
M  V30 461 H 43.0569 2.36853 3.0656 0
M  V30 462 H 43.4709 4.53868 2.62876 0
M  V30 463 H 44.9449 3.68449 4.11035 0
M  V30 464 H 45.4219 2.00011 3.91015 0
M  V30 465 H 46.0279 3.22538 2.77218 0
M  V30 466 N 44.343 -0.763751 1.37857 0
M  V30 467 C 45.759 -1.06542 1.18832 0
M  V30 468 C 45.959 -2.01478 0.0299722 0
M  V30 469 O 45.015 -2.4458 -0.627447 0
M  V30 470 C 46.328 -1.65525 2.51042 0
M  V30 471 C 47.876 -1.77745 2.57635 0
M  V30 472 C 48.351 -2.4014 3.89996 0
M  V30 473 N 49.842 -2.47582 3.91481 0
M  V30 474 C 50.577 -2.96732 4.9065 0
M  V30 475 N 50.073 -3.45993 6.00217 0
M  V30 476 N 51.866 -2.95679 4.78048 0
M  V30 477 H 44.017 -0.133556 2.1198 0
M  V30 478 H 46.28 -0.121879 0.940133 0
M  V30 479 H 45.986 -1.03236 3.36207 0
M  V30 480 H 45.86 -2.64719 2.68707 0
M  V30 481 H 48.247 -2.39164 1.72872 0
M  V30 482 H 48.328 -0.772836 2.43846 0
M  V30 483 H 47.972 -1.79358 4.75177 0
M  V30 484 H 47.902 -3.41223 4.01092 0
M  V30 485 H 50.393 -2.1273 3.12337 0
M  V30 486 H 50.706 -3.81922 6.7183 0
M  V30 487 H 49.051 -3.44077 6.03851 0
M  V30 488 H 52.242 -2.56499 3.91568 0
M  V30 489 H 52.415 -3.33672 5.55488 0
M  V30 490 N 45.8211 -1.22559 -0.990812 0
M  V30 491 C 46.7311 -1.01394 -2.11557 0
M  V30 492 C 47.7471 0.0383962 -1.73958 0
M  V30 493 O 48.9231 -0.154787 -2.00804 0
M  V30 494 C 45.9881 -0.596569 -3.41529 0
M  V30 495 C 45.0491 -1.72276 -3.93217 0
M  V30 496 C 44.2821 -1.32521 -5.16985 0
M  V30 497 O 44.5051 -0.204909 -5.70032 0
M  V30 498 O 43.4391 -2.14247 -5.62478 0
M  V30 499 H 47.2651 -1.95633 -2.32296 0
M  V30 500 H 44.8501 -1.01172 -1.0993 0
M  V30 501 H 46.7321 -0.374263 -4.19735 0
M  V30 502 H 45.4071 0.316939 -3.22145 0
M  V30 503 H 44.3141 -1.99961 -3.16174 0
M  V30 504 H 45.6471 -2.61421 -4.17037 0
M  V30 505 N 47.2992 1.18797 -1.03562 0
M  V30 506 C 48.2292 2.24472 -0.643019 0
M  V30 507 C 49.2102 1.66433 0.351283 0
M  V30 508 O 50.3952 1.92803 0.232505 0
M  V30 509 C 47.5252 3.473 4.24935e-05 0
M  V30 510 C 46.4792 4.18055 -0.917257 0
M  V30 511 C 45.8052 5.34519 -0.138941 0
M  V30 512 C 47.1052 4.72109 -2.23407 0
M  V30 513 H 48.7992 2.57566 -1.52643 0
M  V30 514 H 46.3452 1.23806 -0.735394 0
M  V30 515 H 48.2982 4.20426 0.286383 0
M  V30 516 H 47.0222 3.13424 0.918299 0
M  V30 517 H 45.6812 3.46821 -1.1879 0
M  V30 518 H 45.3292 4.96891 0.781562 0
M  V30 519 H 45.0292 5.82794 -0.750005 0
M  V30 520 H 46.5532 6.10438 0.1405 0
M  V30 521 H 47.9672 5.36955 -2.00879 0
M  V30 522 H 46.3642 5.30897 -2.79765 0
M  V30 523 H 47.4342 3.89807 -2.88407 0
M  V30 524 N 48.7773 0.814389 1.34928 0
M  V30 525 C 49.7273 0.202752 2.27097 0
M  V30 526 C 50.7113 -0.62799 1.48139 0
M  V30 527 O 51.9033 -0.483969 1.70255 0
M  V30 528 C 49.0323 -0.64146 3.37254 0
M  V30 529 C 48.1183 0.19944 4.23631 0
M  V30 530 N 48.5093 1.26628 4.89693 0
M  V30 531 C 46.8073 -0.0176433 4.45997 0
M  V30 532 C 47.5083 1.78031 5.53787 0
M  V30 533 N 46.4843 1.08553 5.32651 0
M  V30 534 H 50.2863 1.01893 2.75672 0
M  V30 535 H 47.8003 0.656332 1.48546 0
M  V30 536 H 49.7973 -1.09575 4.02243 0
M  V30 537 H 48.4573 -1.4559 2.9023 0
M  V30 538 H 49.4683 1.64901 4.90946 0
M  V30 539 H 46.1453 -0.800601 4.09752 0
M  V30 540 H 47.5353 2.67236 6.16469 0
M  V30 541 N 50.2554 -1.46986 0.568584 0
M  V30 542 C 51.5024 -2.02441 0.0487986 0
M  V30 543 C 51.8304 -1.44169 -1.30559 0
M  V30 544 O 51.0854 -0.591213 -1.86556 0
M  V30 545 C 51.3844 -3.57306 -0.081836 0
M  V30 546 C 51.0504 -4.34552 1.20313 0
M  V30 547 C 49.7124 -4.55376 1.5552 0
M  V30 548 C 52.0644 -4.79016 2.05411 0
M  V30 549 C 49.3924 -5.17913 2.7565 0
M  V30 550 C 51.7444 -5.42879 3.24754 0
M  V30 551 C 50.4084 -5.61933 3.60261 0
M  V30 552 H 49.6784 -0.740785 0.0178567 0
M  V30 553 H 52.3254 -1.76525 0.742384 0
M  V30 554 H 50.6304 -3.8228 -0.858463 0
M  V30 555 H 52.3274 -3.97876 -0.499546 0
M  V30 556 H 48.9174 -4.18631 0.919014 0
M  V30 557 H 53.1014 -4.62696 1.79516 0
M  V30 558 H 48.3574 -5.30858 3.03315 0
M  V30 559 H 52.5314 -5.76293 3.90973 0
M  V30 560 H 50.1584 -6.10161 4.53439 0
M  V30 561 N 51.7335 -0.305618 -1.54608 0
M  V30 562 C 52.6435 0.57778 -2.27374 0
M  V30 563 C 53.6595 1.14451 -1.31061 0
M  V30 564 O 54.8355 1.16831 -1.6405 0
M  V30 565 C 51.9005 1.73123 -3.00382 0
M  V30 566 C 50.9615 1.19812 -4.12242 0
M  V30 567 C 50.1945 2.2966 -4.81759 0
M  V30 568 O 50.4175 3.49651 -4.50666 0
M  V30 569 O 49.3515 1.96091 -5.69062 0
M  V30 570 H 53.1775 -0.012624 -3.03697 0
M  V30 571 H 50.7625 -0.0719184 -1.49227 0
M  V30 572 H 52.6445 2.40315 -3.4616 0
M  V30 573 H 51.3195 2.30815 -2.26949 0
M  V30 574 H 50.2265 0.491798 -3.70853 0
M  V30 575 H 51.5595 0.666566 -4.87666 0
M  V30 576 N 53.2116 1.57565 -0.0334293 0
M  V30 577 C 54.4596 1.91598 0.642999 0
M  V30 578 C 54.7806 0.910847 1.7242 0
M  V30 579 O 54.0506 -0.0469931 1.95844 0
M  V30 580 H 52.6306 0.707228 0.240496 0
M  V30 581 H 55.2926 1.94726 -0.0822488 0
M  V30 582 H 54.3886 2.92336 1.09298 0
M  V30 583 N 54.6897 -0.239769 1.55765 0
M  V30 584 C 55.5997 -1.31831 1.94056 0
M  V30 585 C 56.6157 -1.52275 0.841925 0
M  V30 586 O 57.7917 -1.65759 1.14394 0
M  V30 587 C 54.8567 -2.65156 2.23368 0
M  V30 588 C 53.9177 -2.53173 3.46701 0
M  V30 589 C 53.1507 -3.8014 3.74606 0
M  V30 590 O 53.3737 -4.82343 3.04469 0
M  V30 591 O 52.3077 -3.78344 4.68123 0
M  V30 592 H 56.1337 -1.02347 2.85935 0
M  V30 593 H 53.7187 -0.441123 1.42739 0
M  V30 594 H 55.6007 -3.43929 2.43497 0
M  V30 595 H 54.2757 -2.94358 1.34666 0
M  V30 596 H 53.1827 -1.72662 3.31871 0
M  V30 597 H 54.5157 -2.28915 4.35728 0
M  V30 598 N 56.1678 -1.49265 -0.50573 0
M  V30 599 C 57.0778 -1.68312 -1.63427 0
M  V30 600 C 58.0938 -0.565682 -1.64548 0
M  V30 601 O 59.2698 -0.839801 -1.83055 0
M  V30 602 C 56.3348 -1.74107 -2.99813 0
M  V30 603 C 55.3958 -2.97653 -3.09356 0
M  V30 604 C 54.6288 -3.03163 -4.39236 0
M  V30 605 O 54.8518 -2.16396 -5.27758 0
M  V30 606 O 53.7858 -3.9558 -4.53652 0
M  V30 607 H 57.6118 -2.63907 -1.50289 0
M  V30 608 H 55.1968 -1.32951 -0.681502 0
M  V30 609 H 57.0788 -1.803 -3.80881 0
M  V30 610 H 55.7538 -0.816901 -3.13223 0
M  V30 611 H 54.6608 -2.96981 -2.27493 0
M  V30 612 H 55.9938 -3.89535 -3.00871 0
M  V30 613 N 57.6459 0.756429 -1.3826 0
M  V30 614 C 58.8919 1.51772 -1.34511 0
M  V30 615 C 59.2249 1.94089 0.0656691 0
M  V30 616 O 58.4999 1.65221 1.02626 0
M  V30 617 C 58.7829 2.77226 -2.29821 0
M  V30 618 C 58.6359 2.41065 -3.79747 0
M  V30 619 C 59.9549 3.79236 -2.23312 0
M  V30 620 H 57.0739 0.550578 -0.489931 0
M  V30 621 H 59.7159 0.866607 -1.69086 0
M  V30 622 H 57.8659 3.32784 -2.00467 0
M  V30 623 H 59.5379 1.91303 -4.19763 0
M  V30 624 H 57.7809 1.7356 -3.97567 0
M  V30 625 H 58.4519 3.3081 -4.41892 0
M  V30 626 H 60.9279 3.3321 -2.49219 0
M  V30 627 H 59.8039 4.64714 -2.92116 0
M  V30 628 H 60.0649 4.24615 -1.23102 0
M  V30 629 N 59.124 1.23083 0.984299 0
M  V30 630 C 60.401 0.9689 1.69917 0
M  V30 631 C 60.781 -0.513604 2.04757 0
M  V30 632 O 60.129 -1.48383 1.73767 0
M  V30 633 C 60.339 1.87518 2.94343 0
M  V30 634 C 61.687 2.13636 3.6694 0
M  V30 635 O 62.711 1.85036 3.04368 0
M  V30 636 O 61.57 2.62119 4.79537 0
M  V30 637 H 58.664 0.365095 0.742048 0
M  V30 638 H 61.21 1.34107 1.03987 0
M  V30 639 H 59.982 2.87756 2.65164 0
M  V30 640 H 59.605 1.50514 3.6801 0
M  V30 641 N 60.6021 -1.18246 1.0419 0
M  V30 642 C 61.8321 -1.91916 0.764961 0
M  V30 643 C 62.2401 -1.76485 -0.681898 0
M  V30 644 O 61.5831 -1.09275 -1.47664 0
M  V30 645 C 61.6451 -3.4373 1.05309 0
M  V30 646 C 61.3091 -3.8294 2.4941 0
M  V30 647 C 62.3061 -3.86621 3.47592 0
M  V30 648 C 59.9911 -4.142 2.84155 0
M  V30 649 C 61.9851 -4.21013 4.78568 0
M  V30 650 C 59.6721 -4.48262 4.15337 0
M  V30 651 C 60.6701 -4.51645 5.12353 0
M  V30 652 O 60.3581 -4.84911 6.41183 0
M  V30 653 H 60.0901 -0.61606 0.278292 0
M  V30 654 H 62.6441 -1.50947 1.39299 0
M  V30 655 H 60.8741 -3.84946 0.367933 0
M  V30 656 H 62.5631 -3.9865 0.763752 0
M  V30 657 H 63.3291 -3.62607 3.22089 0
M  V30 658 H 59.2081 -4.10743 2.09311 0
M  V30 659 H 62.7521 -4.23568 5.54289 0
M  V30 660 H 58.6491 -4.71737 4.40607 0
M  V30 661 H 59.4171 -5.02809 6.45852 0
M  V30 662 N 62.0802 -0.821533 -1.34494 0
M  V30 663 C 63.3572 -0.33159 -1.92769 0
M  V30 664 C 63.7372 1.18088 -1.74981 0
M  V30 665 O 63.0852 1.98733 -1.12772 0
M  V30 666 C 63.2952 -0.759398 -3.40638 0
M  V30 667 C 64.6432 -0.757433 -4.1779 0
M  V30 668 O 65.6672 -0.70189 -3.49216 0
M  V30 669 O 64.5262 -0.829361 -5.4017 0
M  V30 670 H 61.6202 -0.0902502 -0.822061 0
M  V30 671 H 64.1662 -0.906231 -1.43477 0
M  V30 672 H 62.9382 -1.8012 -3.47379 0
M  V30 673 H 62.5612 -0.160378 -3.97276 0
M  V30 674 N 63.5583 1.46682 -0.576371 0
M  V30 675 C 64.8043 2.02712 -0.0596221 0
M  V30 676 C 65.1373 1.44765 1.29448 0
M  V30 677 O 64.4123 0.610355 1.84675 0
M  V30 678 C 64.6953 3.60098 0.0129503 0
M  V30 679 C 64.5483 4.28441 -1.3696 0
M  V30 680 C 65.8673 4.34224 0.71678 0
M  V30 681 H 62.9863 0.736637 -0.0231407 0
M  V30 682 H 65.6283 1.74898 -0.742351 0
M  V30 683 H 63.7783 3.83926 0.594378 0
M  V30 684 H 65.4503 4.15896 -1.9957 0
M  V30 685 H 63.6933 3.8805 -1.93907 0
M  V30 686 H 64.3643 5.3716 -1.27135 0
M  V30 687 H 66.8403 4.15503 0.222908 0
M  V30 688 H 65.7163 5.43936 0.73657 0
M  V30 689 H 65.9773 4.04823 1.77682 0
M  V30 690 N 65.0364 0.313813 1.54444 0
M  V30 691 C 66.2614 -0.296681 2.05267 0
M  V30 692 C 66.6864 -1.45757 1.18897 0
M  V30 693 O 66.0444 -1.80239 0.195886 0
M  V30 694 C 66.0924 -0.71831 3.53373 0
M  V30 695 O 65.1964 -1.82175 3.69981 0
M  V30 696 H 64.5374 -0.0554061 0.661684 0
M  V30 697 H 67.0674 0.459387 1.99376 0
M  V30 698 H 67.0774 -1.00364 3.95463 0
M  V30 699 H 65.7524 0.130821 4.15694 0
M  V30 700 H 64.3294 -1.53598 3.39797 0
M  V30 701 N 66.5145 -1.57545 0.0417849 0
M  V30 702 C 67.9255 -1.80011 -0.495259 0
M  V30 703 C 68.2765 -0.953199 -1.71489 0
M  V30 704 O 67.4015 -0.167138 -2.15754 0
M  V30 705 C 67.9965 -3.26482 -0.905265 0
M  V30 706 C 66.5555 -3.499 -1.38734 0
M  V30 707 C 65.7025 -2.74979 -0.358056 0
M  V30 708 H 68.6535 -1.56425 0.267736 0
M  V30 709 H 68.6745 -3.36887 -1.76882 0
M  V30 710 H 68.1865 -3.88096 -0.017401 0
M  V30 711 H 66.2875 -2.93553 -2.29471 0
M  V30 712 H 66.4005 -4.58615 -1.38598 0
M  V30 713 H 64.7645 -2.40834 -0.828912 0
M  V30 714 H 65.5475 -3.39315 0.521561 0
M  V30 715 N 67.9926 0.231505 -1.5589 0
M  V30 716 C 69.2176 0.978689 -1.82856 0
M  V30 717 C 69.6426 1.77559 -0.620846 0
M  V30 718 O 69.0006 1.76119 0.430305 0
M  V30 719 C 69.0486 1.87997 -3.07716 0
M  V30 720 O 68.1526 2.97393 -2.85712 0
M  V30 721 H 67.4936 0.277663 -0.603158 0
M  V30 722 H 70.0236 0.24783 -2.03093 0
M  V30 723 H 70.0336 2.2917 -3.37558 0
M  V30 724 H 68.7086 1.29417 -3.95252 0
M  V30 725 H 67.2856 2.60238 -2.67078 0
M  V30 726 N 69.4707 1.49531 0.497807 0
M  V30 727 C 70.7477 1.49682 1.25915 0
M  V30 728 C 71.1277 0.226339 2.09883 0
M  V30 729 O 70.4757 -0.791189 2.14365 0
M  V30 730 C 70.6857 2.77755 2.11313 0
M  V30 731 C 72.0337 3.27371 2.70395 0
M  V30 732 O 73.0577 2.78894 2.21578 0
M  V30 733 O 71.9167 4.11808 3.59272 0
M  V30 734 H 69.0107 0.599228 0.56996 0
M  V30 735 H 71.5567 1.61798 0.511816 0
M  V30 736 H 70.3287 3.61713 1.49264 0
M  V30 737 H 69.9517 2.68515 2.93233 0
M  V30 738 N 70.9488 -0.749086 1.3866 0
M  V30 739 C 72.3598 -1.32664 1.31366 0
M  V30 740 C 72.7108 -1.96179 -0.028484 0
M  V30 741 O 71.8358 -1.9537 -0.93057 0
M  V30 742 C 72.4308 -2.41219 2.37905 0
M  V30 743 C 70.9898 -2.94684 2.34176 0
M  V30 744 C 70.1368 -1.68108 2.20533 0
M  V30 745 H 73.0878 -0.547628 1.48952 0
M  V30 746 H 73.1088 -3.21268 2.0388 0
M  V30 747 H 72.6208 -1.94962 3.35576 0
M  V30 748 H 70.7218 -3.45258 1.401 0
M  V30 749 H 70.8348 -3.48757 3.2849 0
M  V30 750 H 69.1988 -1.91907 1.67463 0
M  V30 751 H 69.9818 -1.23923 3.20153 0
M  V30 752 N 72.4269 -1.23603 -0.977757 0
M  V30 753 C 73.3739 -1.01954 -2.07061 0
M  V30 754 C 74.3439 0.0638697 -1.65977 0
M  V30 755 O 75.5289 -0.0887624 -1.90593 0
M  V30 756 C 72.6689 -0.619658 -3.39491 0
M  V30 757 C 71.7819 -1.77547 -3.93829 0
M  V30 758 C 70.9169 -1.32212 -5.14484 0
M  V30 759 C 69.9559 -2.44852 -5.60994 0
M  V30 760 N 69.0929 -2.00456 -6.72876 0
M  V30 761 H 73.9329 -1.95495 -2.24913 0
M  V30 762 H 71.4699 -0.973861 -1.10247 0
M  V30 763 H 73.4279 -0.368898 -4.15566 0
M  V30 764 H 72.0579 0.278752 -3.21594 0
M  V30 765 H 71.1099 -2.14016 -3.14486 0
M  V30 766 H 72.4219 -2.62219 -4.24314 0
M  V30 767 H 71.5759 -1.02965 -5.97899 0
M  V30 768 H 70.3149 -0.445808 -4.85658 0
M  V30 769 H 69.3199 -2.74871 -4.76157 0
M  V30 770 H 70.5449 -3.33024 -5.91837 0
M  V30 771 H 68.4909 -1.15208 -6.45804 0
M  V30 772 H 68.4079 -2.78687 -7.02759 0
M  V30 773 H 69.6759 -1.7432 -7.59758 0
M  V30 774 N 73.905 1.17692 -1.04816 0
M  V30 775 C 75.154 1.87192 -0.751132 0
M  V30 776 C 75.467 1.8169 0.724441 0
M  V30 777 O 76.673 2.46625 1.13527 0
M  V30 778 C 75.129 3.35857 -1.29338 0
M  V30 779 C 74.737 3.4987 -2.79812 0
M  V30 780 C 76.481 4.10709 -1.07322 0
M  V30 781 C 74.388 4.92536 -3.27356 0
M  V30 782 H 73.318 0.701162 -0.277288 0
M  V30 783 H 75.969 1.32932 -1.26496 0
M  V30 784 H 74.351 3.89631 -0.707376 0
M  V30 785 H 75.525 3.06332 -3.44235 0
M  V30 786 H 73.84 2.88433 -3.00325 0
M  V30 787 H 76.437 5.15952 -1.4035 0
M  V30 788 H 76.78 4.16299 -0.0108001 0
M  V30 789 H 77.313 3.6313 -1.62423 0
M  V30 790 H 74.052 4.92119 -4.33012 0
M  V30 791 H 73.572 5.3676 -2.67673 0
M  V30 792 H 75.251 5.61288 -3.21815 0
M  V30 793 N 75.3831 0.828654 1.34056 0
M  V30 794 C 76.3151 0.212052 2.28217 0
M  V30 795 C 77.3281 -0.601362 1.51286 0
M  V30 796 O 78.5171 -0.430104 1.73241 0
M  V30 797 C 75.6171 -0.72088 3.31144 0
M  V30 798 C 74.7901 0.0509587 4.3737 0
M  V30 799 C 73.8491 -0.803766 5.20025 0
M  V30 800 O 72.8751 -0.246667 5.68665 0
M  V30 801 N 74.0771 -2.1227 5.40298 0
M  V30 802 H 76.8421 1.02105 2.81771 0
M  V30 803 H 74.4031 0.686153 1.46641 0
M  V30 804 H 76.3951 -1.29742 3.8334 0
M  V30 805 H 74.9651 -1.43061 2.77943 0
M  V30 806 H 74.1851 0.808831 3.85813 0
M  V30 807 H 75.4731 0.582065 5.0546 0
M  V30 808 H 74.8711 -2.59898 5.02464 0
M  V30 809 H 73.4281 -2.64796 5.95589 0
M  V30 810 N 76.8612 -1.46375 0.584142 0
M  V30 811 C 77.7712 -2.34115 -0.150728 0
M  V30 812 C 78.7872 -1.49838 -0.884567 0
M  V30 813 O 79.9632 -1.82704 -0.847429 0
M  V30 814 C 77.0282 -3.2705 -1.15062 0
M  V30 815 C 76.0892 -4.27228 -0.421293 0
M  V30 816 C 75.3222 -5.15722 -1.37355 0
M  V30 817 O 75.5452 -5.07176 -2.61014 0
M  V30 818 O 74.4792 -5.95383 -0.883355 0
M  V30 819 H 78.3052 -2.98309 0.569708 0
M  V30 820 H 75.8902 -1.45373 0.344535 0
M  V30 821 H 77.7722 -3.84381 -1.72712 0
M  V30 822 H 76.4472 -2.65451 -1.8525 0
M  V30 823 H 75.3542 -3.7358 0.197085 0
M  V30 824 H 76.6872 -4.91616 0.239641 0
M  V30 825 N 78.3393 -0.321999 -1.54275 0
M  V30 826 C 79.5853 0.281461 -2.00837 0
M  V30 827 C 79.9183 1.51909 -1.20985 0
M  V30 828 O 79.1933 1.923 -0.291733 0
M  V30 829 C 79.4763 0.617162 -3.54772 0
M  V30 830 C 79.3293 -0.631064 -4.45351 0
M  V30 831 C 80.6483 1.43542 -4.16033 0
M  V30 832 H 77.7673 0.100826 -0.730071 0
M  V30 833 H 80.4093 -0.438268 -1.84876 0
M  V30 834 H 78.5593 1.23034 -3.68504 0
M  V30 835 H 80.2313 -1.26934 -4.43492 0
M  V30 836 H 78.4743 -1.26025 -4.15091 0
M  V30 837 H 79.1453 -0.351735 -5.50878 0
M  V30 838 H 81.6213 0.917134 -4.05867 0
M  V30 839 H 80.4973 1.63907 -5.23856 0
M  V30 840 H 80.7583 2.43108 -3.69257 0
M  V30 841 N 79.8174 1.5752 -0.0501392 0
M  V30 842 C 81.0474 1.96678 0.632573 0
M  V30 843 C 81.4554 0.926298 1.64974 0
M  V30 844 O 80.7984 -0.09802 1.83438 0
M  V30 845 C 80.8604 3.32068 1.37735 0
M  V30 846 C 80.5244 4.54076 0.516131 0
M  V30 847 C 81.5214 5.19445 -0.217357 0
M  V30 848 C 79.2064 5.00304 0.44736 0
M  V30 849 C 81.2004 6.29378 -1.00807 0
M  V30 850 C 78.8874 6.10114 -0.347038 0
M  V30 851 C 79.8854 6.74512 -1.07344 0
M  V30 852 O 79.5734 7.82211 -1.85477 0
M  V30 853 H 79.3054 0.652193 0.177821 0
M  V30 854 H 81.8594 2.05091 -0.112543 0
M  V30 855 H 80.0894 3.20206 2.16807 0
M  V30 856 H 81.7784 3.55981 1.95019 0
M  V30 857 H 82.5444 4.84689 -0.173688 0
M  V30 858 H 78.4234 4.49971 1.00235 0
M  V30 859 H 81.9674 6.79575 -1.57556 0
M  V30 860 H 77.8644 6.44307 -0.392349 0
M  V30 861 H 78.6324 7.98982 -1.77678 0
M  V30 862 N 81.2955 -0.223234 1.56011 0
M  V30 863 C 82.5445 -0.945912 1.78144 0
M  V30 864 C 82.8575 -1.85567 0.618396 0
M  V30 865 O 84.0635 -2.61688 0.723318 0
M  V30 866 C 82.5195 -1.73216 3.15475 0
M  V30 867 C 82.1275 -0.868619 4.39499 0
M  V30 868 C 83.8715 -2.44615 3.46935 0
M  V30 869 C 81.7785 -1.65212 5.67855 0
M  V30 870 H 80.7085 -0.356929 0.664167 0
M  V30 871 H 83.3595 -0.199845 1.82409 0
M  V30 872 H 81.7415 -2.52107 3.05382 0
M  V30 873 H 82.9155 -0.120366 4.60643 0
M  V30 874 H 81.2305 -0.26683 4.15544 0
M  V30 875 H 83.8275 -3.03732 4.40058 0
M  V30 876 H 84.1705 -3.17417 2.69355 0
M  V30 877 H 84.7035 -1.72715 3.58349 0
M  V30 878 H 81.4425 -0.967407 6.48322 0
M  V30 879 H 80.9625 -2.37503 5.50774 0
M  V30 880 H 82.6415 -2.21322 6.07968 0
M  V30 881 N 82.7736 -1.49793 -0.48987 0
M  V30 882 C 84.1846 -1.52914 -1.07118 0
M  V30 883 C 84.5356 -0.321738 -1.93544 0
M  V30 884 O 83.6606 0.567338 -2.08831 0
M  V30 885 C 84.2556 -2.771 -1.94938 0
M  V30 886 C 82.8146 -2.82963 -2.48212 0
M  V30 887 C 81.9616 -2.46972 -1.26096 0
M  V30 888 H 84.9126 -1.56329 -0.273289 0
M  V30 889 H 84.9336 -2.57892 -2.79771 0
M  V30 890 H 84.4456 -3.64959 -1.32009 0
M  V30 891 H 82.5466 -1.99411 -3.14748 0
M  V30 892 H 82.6596 -3.85406 -2.84603 0
M  V30 893 H 81.0236 -1.98994 -1.58976 0
M  V30 894 H 81.8066 -3.37118 -0.648581 0
M  V30 895 N 84.2517 0.741722 -1.39055 0
M  V30 896 C 85.4987 1.50114 -1.35912 0
M  V30 897 C 85.8267 1.94443 0.0470937 0
M  V30 898 O 85.0817 1.66612 1.02659 0
M  V30 899 C 85.3807 2.7592 -2.27163 0
M  V30 900 C 85.0467 2.50493 -3.74919 0
M  V30 901 C 83.7087 2.43267 -4.1518 0
M  V30 902 C 86.0607 2.28585 -4.684 0
M  V30 903 C 83.3887 2.12166 -5.46994 0
M  V30 904 C 85.7407 1.99002 -6.00484 0
M  V30 905 C 84.4047 1.90241 -6.39816 0
M  V30 906 H 83.6747 0.549306 -0.497336 0
M  V30 907 H 86.3217 0.851896 -1.71508 0
M  V30 908 H 84.6267 3.45553 -1.84663 0
M  V30 909 H 86.3237 3.33923 -2.22028 0
M  V30 910 H 82.9137 2.56992 -3.43006 0
M  V30 911 H 87.0977 2.33139 -4.38132 0
M  V30 912 H 82.3537 2.03901 -5.76398 0
M  V30 913 H 86.5277 1.81057 -6.72452 0
M  V30 914 H 84.1547 1.65907 -7.41875 0
M  V30 915 N 85.7298 1.2412 0.971189 0
M  V30 916 C 86.9548 1.10667 1.75407 0
M  V30 917 C 87.3798 -0.337048 1.85056 0
M  V30 918 O 86.7378 -1.24396 1.31892 0
M  V30 919 C 86.7858 1.74726 3.15441 0
M  V30 920 O 85.8898 1.01566 3.99697 0
M  V30 921 H 85.2308 0.387341 0.539317 0
M  V30 922 H 87.7608 1.64358 1.2185 0
M  V30 923 H 87.7708 1.80341 3.6598 0
M  V30 924 H 86.4458 2.79773 3.07734 0
M  V30 925 H 85.0228 1.03713 3.58187 0
M  V30 926 N 87.2079 -1.17134 1.05439 0
M  V30 927 C 88.1709 -2.19439 0.661764 0
M  V30 928 C 89.1709 -1.58199 -0.288042 0
M  V30 929 O 90.3609 -1.74053 -0.0715803 0
M  V30 930 C 87.4929 -3.40889 -0.0276209 0
M  V30 931 H 88.6859 -2.55688 1.56728 0
M  V30 932 H 86.2389 -1.31259 0.848567 0
M  V30 933 H 86.9739 -3.10187 -0.94629 0
M  V30 934 H 86.7589 -3.86586 0.655238 0
M  V30 935 H 88.2489 -4.16603 -0.288342 0
M  V30 936 N 88.686 -0.835752 -1.33615 0
M  V30 937 C 89.935 -0.426289 -1.97144 0
M  V30 938 C 90.248 1.01912 -1.66953 0
M  V30 939 O 91.454 1.53311 -2.24072 0
M  V30 940 C 89.91 -0.711321 -3.52801 0
M  V30 941 C 89.518 -2.1712 -3.91871 0
M  V30 942 C 91.262 -0.368654 -4.22896 0
M  V30 943 C 89.169 -2.40044 -5.40493 0
M  V30 944 H 88.099 -0.15567 -0.737755 0
M  V30 945 H 90.75 -1.0239 -1.52278 0
M  V30 946 H 89.132 -0.0433766 -3.95976 0
M  V30 947 H 90.306 -2.87936 -3.59763 0
M  V30 948 H 88.621 -2.47654 -3.34749 0
M  V30 949 H 91.218 -0.517601 -5.32189 0
M  V30 950 H 91.561 0.688078 -4.10574 0
M  V30 951 H 92.094 -0.991702 -3.8524 0
M  V30 952 H 88.833 -3.44271 -5.57815 0
M  V30 953 H 88.353 -1.73785 -5.74072 0
M  V30 954 H 90.032 -2.23042 -6.0734 0
M  V30 955 N 90.1641 1.46063 -0.591896 0
M  V30 956 C 91.3941 2.06418 -0.0867676 0
M  V30 957 C 91.8021 1.43975 1.22751 0
M  V30 958 O 91.1451 0.542531 1.75506 0
M  V30 959 C 91.2071 3.59213 0.143725 0
M  V30 960 C 90.8711 4.439 -1.08635 0
M  V30 961 C 91.8681 4.79864 -2.00067 0
M  V30 962 C 89.5531 4.84896 -1.31077 0
M  V30 963 C 91.5471 5.55661 -3.12282 0
M  V30 964 C 89.2341 5.6045 -2.43596 0
M  V30 965 C 90.2321 5.95747 -3.34027 0
M  V30 966 O 89.9201 6.69772 -4.4459 0
M  V30 967 H 89.6521 0.673443 -0.0587447 0
M  V30 968 H 92.2061 1.88539 -0.814994 0
M  V30 969 H 90.4361 3.75433 0.926668 0
M  V30 970 H 92.1251 4.01463 0.5985 0
M  V30 971 H 92.8911 4.48763 -1.83947 0
M  V30 972 H 88.7701 4.56867 -0.61594 0
M  V30 973 H 92.3141 5.8313 -3.82891 0
M  V30 974 H 88.2111 5.90965 -2.59674 0
M  V30 975 H 88.9791 6.88207 -4.43073 0
M  V30 976 N 91.6422 0.330177 1.54103 0
M  V30 977 C 92.5902 -0.548226 2.26047 0
M  V30 978 C 93.5842 -1.11309 1.27698 0
M  V30 979 O 94.7902 -1.06036 1.45452 0
M  V30 980 H 91.1652 -0.195456 0.726155 0
M  V30 981 H 93.1362 0.0807567 2.98291 0
M  V30 982 C 91.8852 -1.69415 3.03634 0
M  V30 983 H 91.2082 -1.26876 3.79134 0
M  V30 984 H 92.6482 -2.28423 3.5721 0
M  V30 985 C 91.1072 -2.61569 2.12328 0
M  V30 986 O 91.6372 -3.63462 1.7105 0
M  V30 987 N 89.8432 -2.29952 1.77681 0
M  V30 988 H 89.3902 -1.47134 2.11446 0
M  V30 989 H 89.3482 -2.91871 1.16869 0
M  V30 990 N 93.1203 -1.57491 0.0584922 0
M  V30 991 C 94.3483 -1.97296 -0.623037 0
M  V30 992 C 94.7633 -0.936338 -1.63946 0
M  V30 993 O 94.1203 0.0785981 -1.82331 0
M  V30 994 C 94.1713 -3.37183 -1.30345 0
M  V30 995 O 93.8923 -4.36872 -0.32773 0
M  V30 996 C 95.3933 -3.91788 -2.07406 0
M  V30 997 H 92.6133 -0.649153 -0.169826 0
M  V30 998 H 95.1573 -2.04106 0.12696 0
M  V30 999 H 93.3123 -3.31502 -2.00463 0
M  V30 1000 H 93.7263 -5.18141 -0.814269 0
M  V30 1001 H 95.2003 -4.91926 -2.50425 0
M  V30 1002 H 95.6773 -3.27609 -2.92521 0
M  V30 1003 H 96.2833 -4.00829 -1.42184 0
M  V30 1004 N 94.5984 0.214957 -1.56127 0
M  V30 1005 C 95.5304 1.29004 -1.89448 0
M  V30 1006 C 96.5434 1.42716 -0.783326 0
M  V30 1007 O 97.7324 1.43496 -1.06166 0
M  V30 1008 C 94.8324 2.66482 -2.09381 0
M  V30 1009 C 94.0054 2.74633 -3.40434 0
M  V30 1010 C 93.0644 3.9317 -3.49719 0
M  V30 1011 O 92.0904 3.812 -4.227 0
M  V30 1012 N 93.2924 5.07765 -2.81346 0
M  V30 1013 H 96.0574 1.00743 -2.82261 0
M  V30 1014 H 93.6184 0.40497 -1.56753 0
M  V30 1015 H 95.6104 3.44173 -2.12901 0
M  V30 1016 H 94.1804 2.87314 -1.23163 0
M  V30 1017 H 93.4004 1.83368 -3.48955 0
M  V30 1018 H 94.6884 2.77054 -4.26754 0
M  V30 1019 H 94.0864 5.20386 -2.21843 0
M  V30 1020 H 92.6434 5.83474 -2.90519 0
M  V30 1021 N 96.0765 1.50051 0.48192 0
M  V30 1022 C 97.3245 1.60181 1.23234 0
M  V30 1023 C 97.6455 0.299176 1.92691 0
M  V30 1024 O 96.9155 -0.682708 1.83619 0
M  V30 1025 H 95.4955 0.590232 0.457859 0
M  V30 1026 H 98.1575 1.86775 0.556881 0
M  V30 1027 H 97.2535 2.40753 1.98607 0
M  V30 1028 N 97.5546 -0.734337 1.39446 0
M  V30 1029 C 98.8016 -1.49391 1.36706 0
M  V30 1030 C 99.1296 -1.94465 -0.0367813 0
M  V30 1031 O 98.3846 -1.67154 -1.01774 0
M  V30 1032 C 98.6836 -2.74711 2.28623 0
M  V30 1033 C 98.3496 -2.48501 3.76242 0
M  V30 1034 C 97.0116 -2.41062 4.16464 0
M  V30 1035 C 99.3636 -2.26098 4.69606 0
M  V30 1036 C 96.6916 -2.09262 5.48112 0
M  V30 1037 C 99.0436 -1.95814 6.01531 0
M  V30 1038 C 97.7076 -1.86845 6.40816 0
M  V30 1039 H 96.9776 -0.546661 0.500243 0
M  V30 1040 H 99.6246 -0.842788 1.71957 0
M  V30 1041 H 97.9296 -3.44569 1.86492 0
M  V30 1042 H 99.6266 -3.32741 2.23796 0
M  V30 1043 H 96.2166 -2.55169 3.44364 0
M  V30 1044 H 100.401 -2.30812 4.39363 0
M  V30 1045 H 95.6566 -2.00841 5.77471 0
M  V30 1046 H 99.8306 -1.77488 6.73403 0
M  V30 1047 H 97.4576 -1.6197 7.42745 0
M  V30 1048 N 99.0327 -1.24633 -0.964593 0
M  V30 1049 C 99.9797 -1.04144 -2.05968 0
M  V30 1050 C 100.95 0.046262 -1.66036 0
M  V30 1051 O 102.135 -0.108972 -1.90489 0
M  V30 1052 C 99.2747 -0.65563 -3.38815 0
M  V30 1053 C 98.3877 -1.81714 -3.91923 0
M  V30 1054 C 97.5227 -1.37662 -5.13052 0
M  V30 1055 C 96.5617 -2.50788 -5.58365 0
M  V30 1056 N 95.6987 -2.07582 -6.70712 0
M  V30 1057 H 100.539 -1.9787 -2.22827 0
M  V30 1058 H 98.0757 -0.9855 -1.09208 0
M  V30 1059 H 100.034 -0.412954 -4.15151 0
M  V30 1060 H 98.6637 0.244627 -3.21872 0
M  V30 1061 H 97.7157 -2.1734 -3.12198 0
M  V30 1062 H 99.0277 -2.66705 -4.21509 0
M  V30 1063 H 98.1817 -1.093 -5.96773 0
M  V30 1064 H 96.9207 -0.497293 -4.85158 0
M  V30 1065 H 95.9257 -2.79906 -4.73215 0
M  V30 1066 H 97.1507 -3.39283 -5.88272 0
M  V30 1067 H 95.0967 -1.22051 -6.44546 0
M  V30 1068 H 95.0137 -2.86125 -6.99763 0
M  V30 1069 H 96.2817 -1.82369 -7.57867 0
M  V30 1070 N 100.511 1.16574 -1.06058 0
M  V30 1071 C 101.421 2.2452 -0.680282 0
M  V30 1072 C 102.437 1.71348 0.302604 0
M  V30 1073 O 103.613 2.00822 0.152513 0
M  V30 1074 C 100.678 3.46629 -0.0700315 0
M  V30 1075 C 99.7388 4.14849 -1.10448 0
M  V30 1076 C 98.9718 5.31129 -0.523256 0
M  V30 1077 O 99.1948 5.66514 0.664709 0
M  V30 1078 O 98.1288 5.88526 -1.26179 0
M  V30 1079 H 101.955 2.59355 -1.58015 0
M  V30 1080 H 99.5398 1.24043 -0.832694 0
M  V30 1081 H 101.422 4.20543 0.268667 0
M  V30 1082 H 100.097 3.13573 0.803353 0
M  V30 1083 H 99.0038 3.42916 -1.49532 0
M  V30 1084 H 100.337 4.51954 -1.94931 0
M  V30 1085 N 101.989 0.842826 1.3317 0
M  V30 1086 C 103.4 0.496651 1.79973 0
M  V30 1087 C 103.751 -0.984641 1.69703 0
M  V30 1088 O 102.876 -1.76743 1.24863 0
M  V30 1089 C 103.471 0.894727 3.26772 0
M  V30 1090 C 102.03 0.600629 3.71577 0
M  V30 1091 C 101.177 1.10091 2.5451 0
M  V30 1092 H 104.128 1.03116 1.20635 0
M  V30 1093 H 104.149 0.206347 3.7994 0
M  V30 1094 H 103.661 1.97287 3.34215 0
M  V30 1095 H 101.762 -0.467284 3.69658 0
M  V30 1096 H 101.875 1.15863 4.64879 0
M  V30 1097 H 100.239 0.52162 2.49301 0
M  V30 1098 H 101.022 2.18591 2.64713 0
M  V30 1099 N 103.467 -1.45747 0.599634 0
M  V30 1100 C 104.415 -2.322 -0.136426 0
M  V30 1101 C 105.409 -1.45497 -0.867583 0
M  V30 1102 O 106.615 -1.62027 -0.78405 0
M  V30 1103 H 102.99 -0.749368 -0.0628588 0
M  V30 1104 H 104.961 -2.92072 0.611281 0
M  V30 1105 C 103.71 -3.28974 -1.12567 0
M  V30 1106 H 103.033 -3.9568 -0.572484 0
M  V30 1107 H 104.473 -3.92212 -1.61077 0
M  V30 1108 C 102.932 -2.55561 -2.19523 0
M  V30 1109 O 103.462 -2.33111 -3.27143 0
M  V30 1110 N 101.668 -2.15832 -1.94589 0
M  V30 1111 H 101.215 -2.3429 -1.07078 0
M  V30 1112 H 101.173 -1.67034 -2.66359 0
M  V30 1113 N 104.945 -0.338344 -1.53925 0
M  V30 1114 C 106.194 0.260732 -2.00008 0
M  V30 1115 C 106.507 1.52073 -1.23017 0
M  V30 1116 O 107.713 2.19672 -1.5955 0
M  V30 1117 C 106.169 0.51515 -3.56194 0
M  V30 1118 C 105.777 -0.728645 -4.42035 0
M  V30 1119 C 107.521 1.07337 -4.10706 0
M  V30 1120 C 105.428 -0.445315 -5.89721 0
M  V30 1121 H 104.358 0.101205 -0.747177 0
M  V30 1122 H 107.009 -0.452866 -1.77824 0
M  V30 1123 H 105.391 1.28932 -3.74423 0
M  V30 1124 H 106.565 -1.50352 -4.35581 0
M  V30 1125 H 104.88 -1.20813 -3.98489 0
M  V30 1126 H 107.477 1.30022 -5.18651 0
M  V30 1127 H 107.82 2.0273 -3.63602 0
M  V30 1128 H 108.353 0.360034 -3.96167 0
M  V30 1129 H 105.092 -1.36883 -6.41049 0
M  V30 1130 H 104.612 0.291569 -5.99091 0
M  V30 1131 H 106.291 -0.0606218 -6.46972 0
M  V30 1132 N 106.423 1.57458 -0.0668435 0
M  V30 1133 C 107.355 2.09413 0.931601 0
M  V30 1134 C 108.368 1.02522 1.26464 0
M  V30 1135 O 109.557 1.30049 1.22269 0
M  V30 1136 C 106.657 2.53537 2.24882 0
M  V30 1137 C 105.83 3.83944 2.09537 0
M  V30 1138 C 104.889 4.14214 3.2452 0
M  V30 1139 O 103.915 4.83891 2.9973 0
M  V30 1140 N 105.117 3.67367 4.49469 0
M  V30 1141 H 107.882 2.95699 0.488048 0
M  V30 1142 H 105.443 1.61462 0.119009 0
M  V30 1143 H 107.435 2.70853 3.00701 0
M  V30 1144 H 106.005 1.72415 2.60753 0
M  V30 1145 H 105.225 3.76057 1.18215 0
M  V30 1146 H 106.513 4.69312 1.96529 0
M  V30 1147 H 105.911 3.11068 4.72497 0
M  V30 1148 H 104.468 3.89891 5.2233 0
M  V30 1149 N 107.901 -0.206675 1.56239 0
M  V30 1150 C 109.129 -0.945345 1.8404 0
M  V30 1151 C 109.544 -1.77336 0.647885 0
M  V30 1152 O 108.901 -1.78425 -0.383511 0
M  V30 1153 C 108.952 -1.8509 3.10522 0
M  V30 1154 O 108.673 -1.05634 4.25174 0
M  V30 1155 C 110.174 -2.70222 3.51418 0
M  V30 1156 H 107.394 -0.276372 0.61144 0
M  V30 1157 H 109.938 -0.217417 2.03341 0
M  V30 1158 H 108.093 -2.53259 2.93153 0
M  V30 1159 H 108.507 -1.67238 4.97124 0
M  V30 1160 H 109.981 -3.29438 4.42916 0
M  V30 1161 H 110.458 -3.43358 2.73864 0
M  V30 1162 H 111.064 -2.07443 3.71278 0
M  V30 1163 N 109.379 -1.50304 -0.473955 0
M  V30 1164 C 110.609 -1.64663 -1.24778 0
M  V30 1165 C 111.017 -0.328174 -1.86332 0
M  V30 1166 O 110.36 0.699536 -1.69859 0
M  V30 1167 C 110.422 -2.6778 -2.39863 0
M  V30 1168 C 110.086 -4.11413 -1.98969 0
M  V30 1169 C 111.083 -4.97372 -1.51385 0
M  V30 1170 C 108.768 -4.57312 -2.07777 0
M  V30 1171 C 110.762 -6.27277 -1.13148 0
M  V30 1172 C 108.449 -5.87223 -1.69152 0
M  V30 1173 C 109.447 -6.72031 -1.21915 0
M  V30 1174 O 109.135 -7.99518 -0.838237 0
M  V30 1175 H 108.867 -0.556602 -0.383627 0
M  V30 1176 H 111.421 -1.9726 -0.572491 0
M  V30 1177 H 109.651 -2.30419 -3.10554 0
M  V30 1178 H 111.34 -2.71388 -3.01833 0
M  V30 1179 H 112.106 -4.63128 -1.44004 0
M  V30 1180 H 107.985 -3.91449 -2.43493 0
M  V30 1181 H 111.529 -6.93425 -0.762077 0
M  V30 1182 H 107.426 -6.20989 -1.76191 0
M  V30 1183 H 108.194 -8.12764 -0.967339 0
M  V30 1184 N 110.857 0.726932 -1.39834 0
M  V30 1185 C 111.787 1.85405 -1.41941 0
M  V30 1186 C 112.768 1.67751 -0.281728 0
M  V30 1187 O 113.953 1.8795 -0.488717 0
M  V30 1188 C 111.083 3.23243 -1.2701 0
M  V30 1189 C 110.037 3.55549 -2.38262 0
M  V30 1190 C 109.363 4.9241 -2.08415 0
M  V30 1191 C 110.663 3.577 -3.80589 0
M  V30 1192 H 112.357 1.83899 -2.36266 0
M  V30 1193 H 109.903 0.883349 -1.13723 0
M  V30 1194 H 111.856 4.01775 -1.27103 0
M  V30 1195 H 110.58 3.25296 -0.291564 0
M  V30 1196 H 109.239 2.79351 -2.37399 0
M  V30 1197 H 108.887 4.91052 -1.0898 0
M  V30 1198 H 108.587 5.14992 -2.82943 0
M  V30 1199 H 110.111 5.73289 -2.10171 0
M  V30 1200 H 111.525 4.26293 -3.83337 0
M  V30 1201 H 109.922 3.91804 -4.54543 0
M  V30 1202 H 110.992 2.57328 -4.10987 0
M  V30 1203 N 112.336 1.25143 0.95797 0
M  V30 1204 C 113.561 1.12521 1.74223 0
M  V30 1205 C 113.986 -0.317402 1.85403 0
M  V30 1206 O 113.344 -1.2299 1.33204 0
M  V30 1207 C 113.392 1.78062 3.1357 0
M  V30 1208 O 112.496 1.058 3.98598 0
M  V30 1209 H 111.837 0.39304 0.535178 0
M  V30 1210 H 114.367 1.65641 1.201 0
M  V30 1211 H 114.377 1.84213 3.64046 0
M  V30 1212 H 113.052 2.83021 3.04749 0
M  V30 1213 H 111.629 1.07506 3.57067 0
M  V30 1214 N 113.814 -1.1601 1.06675 0
M  V30 1215 C 115.062 -1.86264 0.784229 0
M  V30 1216 C 115.383 -1.82328 -0.691488 0
M  V30 1217 O 114.653 -1.25947 -1.50047 0
M  V30 1218 H 113.233 -0.689621 0.28711 0
M  V30 1219 H 115.895 -1.40664 1.34906 0
M  V30 1220 H 114.991 -2.91595 1.11259 0
M  V30 1221 N 115.292 -0.849877 -1.32721 0
M  V30 1222 C 116.532 -0.457146 -1.99222 0
M  V30 1223 C 116.896 0.968038 -1.6581 0
M  V30 1224 O 118.097 1.46507 -2.25364 0
M  V30 1225 C 116.368 -0.683966 -3.50794 0
M  V30 1226 S 117.927 -0.388095 -4.3708 0
M  V30 1227 H 114.745 -0.171464 -0.690015 0
M  V30 1228 H 117.347 -1.10155 -1.61512 0
M  V30 1229 H 116.051 -1.72038 -3.726 0
M  V30 1230 H 115.582 -0.0258086 -3.93392 0
M  V30 1231 H 117.597 0.787791 -4.89906 0
M  V30 1232 N 116.77 1.45427 -0.607355 0
M  V30 1233 C 118.181 1.85756 -0.187535 0
M  V30 1234 C 118.532 1.5077 1.25551 0
M  V30 1235 O 117.657 0.93427 1.95193 0
M  V30 1236 C 118.252 3.37154 -0.333572 0
M  V30 1237 C 116.811 3.76387 0.0315542 0
M  V30 1238 C 115.958 2.69377 -0.658117 0
M  V30 1239 H 118.909 1.36231 -0.81405 0
M  V30 1240 H 118.93 3.78014 0.43428 0
M  V30 1241 H 118.442 3.62586 -1.38393 0
M  V30 1242 H 116.543 3.56571 1.0811 0
M  V30 1243 H 116.656 4.77731 -0.361935 0
M  V30 1244 H 115.02 2.5452 -0.0957873 0
M  V30 1245 H 115.803 2.97646 -1.7106 0
M  V30 1246 N 118.248 0.346503 1.53744 0
M  V30 1247 C 119.497 -0.250122 2.00143 0
M  V30 1248 C 119.81 -1.51418 1.23822 0
M  V30 1249 O 121.016 -2.18823 1.60713 0
M  V30 1250 C 119.472 -0.496252 3.56462 0
M  V30 1251 C 119.08 0.752077 4.41642 0
M  V30 1252 C 120.824 -1.05157 4.11269 0
M  V30 1253 C 118.731 0.476583 5.89477 0
M  V30 1254 H 117.661 -0.0972409 0.747703 0
M  V30 1255 H 120.312 0.46229 1.77581 0
M  V30 1256 H 118.694 -1.26944 3.75102 0
M  V30 1257 H 119.868 1.5266 4.34778 0
M  V30 1258 H 118.183 1.22925 3.97842 0
M  V30 1259 H 120.78 -1.27269 5.19333 0
M  V30 1260 H 121.123 -2.00799 3.64672 0
M  V30 1261 H 121.656 -0.339019 3.96353 0
M  V30 1262 H 118.395 1.4028 6.40314 0
M  V30 1263 H 117.915 -0.259794 5.99237 0
M  V30 1264 H 119.594 0.0949315 6.4693 0
M  V30 1265 N 119.726 -1.57421 0.075193 0
M  V30 1266 C 120.673 -2.12915 -0.890843 0
M  V30 1267 C 121.643 -1.04252 -1.29309 0
M  V30 1268 O 122.828 -1.31933 -1.37834 0
M  V30 1269 C 119.968 -2.69795 -2.15186 0
M  V30 1270 C 119.081 -3.92624 -1.80194 0
M  V30 1271 C 118.216 -4.37736 -3.00933 0
M  V30 1272 C 117.255 -5.53205 -2.61974 0
M  V30 1273 N 116.392 -5.9326 -3.75483 0
M  V30 1274 H 121.232 -2.95156 -0.410735 0
M  V30 1275 H 118.769 -1.45854 -0.191086 0
M  V30 1276 H 120.727 -3.00883 -2.89008 0
M  V30 1277 H 119.357 -1.90313 -2.60731 0
M  V30 1278 H 118.409 -3.67977 -0.964218 0
M  V30 1279 H 119.721 -4.76482 -1.47534 0
M  V30 1280 H 118.875 -4.70503 -3.8303 0
M  V30 1281 H 117.614 -3.52739 -3.36789 0
M  V30 1282 H 116.619 -5.20086 -1.783 0
M  V30 1283 H 117.844 -6.39936 -2.27284 0
M  V30 1284 H 115.79 -5.11212 -4.11094 0
M  V30 1285 H 115.707 -6.71865 -3.46602 0
M  V30 1286 H 116.975 -6.30651 -4.58148 0
M  V30 1287 N 121.204 0.198386 -1.56346 0
M  V30 1288 C 122.167 1.22952 -1.93431 0
M  V30 1289 C 123.167 1.38611 -0.815092 0
M  V30 1290 O 124.357 1.36479 -1.08255 0
M  V30 1291 C 121.489 2.59946 -2.20546 0
M  V30 1292 H 122.682 0.912626 -2.85677 0
M  V30 1293 H 120.235 0.43977 -1.49986 0
M  V30 1294 H 120.97 2.96696 -1.30927 0
M  V30 1295 H 120.755 2.49953 -3.02102 0
M  V30 1296 H 122.245 3.3431 -2.50253 0
M  V30 1297 N 122.682 1.50554 0.465978 0
M  V30 1298 C 123.614 1.65949 1.58093 0
M  V30 1299 C 124.627 0.540827 1.53554 0
M  V30 1300 O 125.816 0.814187 1.5885 0
M  V30 1301 C 122.916 1.63261 2.96983 0
M  V30 1302 C 122.089 2.91245 3.26336 0
M  V30 1303 C 121.148 2.8113 4.44806 0
M  V30 1304 O 120.174 3.55086 4.44862 0
M  V30 1305 N 121.376 1.95032 5.46756 0
M  V30 1306 H 124.141 2.62122 1.45301 0
M  V30 1307 H 121.702 1.48082 0.65448 0
M  V30 1308 H 123.694 1.54101 3.74212 0
M  V30 1309 H 122.264 0.748032 3.03518 0
M  V30 1310 H 121.484 3.14493 2.37672 0
M  V30 1311 H 122.772 3.76022 3.42761 0
M  V30 1312 H 122.17 1.3427 5.49534 0
M  V30 1313 H 120.727 1.91772 6.2295 0
M  V30 1314 N 124.16 -0.719506 1.40217 0
M  V30 1315 C 125.406 -1.48152 1.38488 0
M  V30 1316 C 125.739 -1.94195 -0.0141867 0
M  V30 1317 O 125.014 -1.67884 -0.982096 0
M  V30 1318 C 125.297 -2.71035 2.37091 0
M  V30 1319 C 125.15 -2.30912 3.86005 0
M  V30 1320 C 126.469 -3.73182 2.33288 0
M  V30 1321 H 123.588 -0.537395 0.504357 0
M  V30 1322 H 126.23 -0.821472 1.71324 0
M  V30 1323 H 124.38 -3.27352 2.0922 0
M  V30 1324 H 126.052 -1.80107 4.24687 0
M  V30 1325 H 124.295 -1.62958 4.02029 0
M  V30 1326 H 124.966 -3.18978 4.50508 0
M  V30 1327 H 127.442 -3.26485 2.57966 0
M  V30 1328 H 126.318 -4.56806 3.04334 0
M  V30 1329 H 126.579 -4.21202 1.34317 0
M  V30 1330 N 125.638 -1.25649 -0.95132 0
M  V30 1331 C 126.568 -1.08808 -2.06599 0
M  V30 1332 C 127.549 0.00382547 -1.701 0
M  V30 1333 O 128.734 -0.166325 -1.93486 0
M  V30 1334 C 125.864 -0.709542 -3.39975 0
M  V30 1335 C 124.818 -1.75206 -3.90496 0
M  V30 1336 C 124.144 -1.22811 -5.20405 0
M  V30 1337 C 125.444 -3.15153 -4.16504 0
M  V30 1338 H 127.138 -2.02048 -2.20946 0
M  V30 1339 H 124.684 -0.972835 -1.06169 0
M  V30 1340 H 126.637 -0.578649 -4.17408 0
M  V30 1341 H 125.361 0.258556 -3.25575 0
M  V30 1342 H 124.02 -1.87145 -3.15234 0
M  V30 1343 H 123.668 -0.250145 -5.02378 0
M  V30 1344 H 123.368 -1.92492 -5.55176 0
M  V30 1345 H 124.892 -1.10968 -6.00432 0
M  V30 1346 H 126.306 -3.06349 -4.84586 0
M  V30 1347 H 124.703 -3.82333 -4.62538 0
M  V30 1348 H 125.773 -3.61966 -3.22658 0
M  V30 1349 N 127.117 1.15442 -1.07289 0
M  V30 1350 C 128.027 2.23786 -0.704057 0
M  V30 1351 C 129.043 1.7166 0.284413 0
M  V30 1352 O 130.219 2.00972 0.131205 0
M  V30 1353 C 127.284 3.46535 -0.106792 0
M  V30 1354 C 126.345 4.13654 -1.14842 0
M  V30 1355 C 125.578 5.30544 -0.57956 0
M  V30 1356 O 125.801 5.67187 0.604585 0
M  V30 1357 O 124.735 5.87154 -1.32414 0
M  V30 1358 H 128.561 2.57664 -1.60757 0
M  V30 1359 H 126.146 1.23152 -0.845803 0
M  V30 1360 H 128.028 4.20804 0.224048 0
M  V30 1361 H 126.703 3.14407 0.770049 0
M  V30 1362 H 125.61 3.4131 -1.5316 0
M  V30 1363 H 126.943 4.49861 -1.99714 0
M  V30 1364 N 128.595 0.856903 1.32268 0
M  V30 1365 C 129.841 0.462069 1.97466 0
M  V30 1366 C 130.174 -0.980298 1.67642 0
M  V30 1367 O 129.449 -1.68824 0.965858 0
M  V30 1368 C 129.732 0.704336 3.53145 0
M  V30 1369 C 129.585 2.19529 3.9259 0
M  V30 1370 C 130.904 0.1622 4.39801 0
M  V30 1371 H 128.023 0.169357 0.717278 0
M  V30 1372 H 130.665 1.07574 1.56614 0
M  V30 1373 H 128.815 0.181999 3.88073 0
M  V30 1374 H 130.487 2.78387 3.67829 0
M  V30 1375 H 128.73 2.67292 3.41668 0
M  V30 1376 H 129.401 2.31549 5.01088 0
M  V30 1377 H 131.877 0.608905 4.11621 0
M  V30 1378 H 130.753 0.361265 5.4771 0
M  V30 1379 H 131.014 -0.935158 4.32096 0
M  V30 1380 N 130.073 -1.45103 0.615059 0
M  V30 1381 C 130.983 -2.34382 -0.101034 0
M  V30 1382 C 131.999 -1.51681 -0.852585 0
M  V30 1383 O 133.175 -1.8446 -0.808484 0
M  V30 1384 C 130.24 -3.29417 -1.08099 0
M  V30 1385 C 129.301 -4.28025 -0.330577 0
M  V30 1386 C 128.534 -5.1852 -1.26385 0
M  V30 1387 O 128.757 -5.12598 -2.50198 0
M  V30 1388 O 127.691 -5.97122 -0.756866 0
M  V30 1389 H 131.517 -2.97033 0.632855 0
M  V30 1390 H 129.102 -1.4461 0.375293 0
M  V30 1391 H 130.984 -3.87958 -1.6452 0
M  V30 1392 H 129.659 -2.69321 -1.79577 0
M  V30 1393 H 128.566 -3.73078 0.276283 0
M  V30 1394 H 129.899 -4.90997 0.343866 0
M  V30 1395 N 131.551 -0.354651 -1.53558 0
M  V30 1396 C 132.967 -0.00315426 -1.596 0
M  V30 1397 C 133.167 1.47741 -1.37021 0
M  V30 1398 O 132.223 2.23759 -1.16996 0
M  V30 1399 C 133.536 -0.44929 -2.97325 0
M  V30 1400 C 135.084 -0.402578 -3.104 0
M  V30 1401 C 135.559 -0.824355 -4.5052 0
M  V30 1402 N 137.05 -0.778979 -4.56603 0
M  V30 1403 C 137.785 -1.07715 -5.63192 0
M  V30 1404 N 137.281 -1.44405 -6.77583 0
M  V30 1405 N 139.074 -1.00066 -5.53121 0
M  V30 1406 H 131.225 -1.31893 -1.66487 0
M  V30 1407 H 133.488 -0.538388 -0.780284 0
M  V30 1408 H 133.194 -1.48202 -3.1895 0
M  V30 1409 H 133.068 0.169772 -3.76818 0
M  V30 1410 H 135.455 0.621004 -2.88492 0
M  V30 1411 H 135.536 -1.05699 -2.32941 0
M  V30 1412 H 135.18 -1.846 -4.73165 0
M  V30 1413 H 135.11 -0.147304 -5.26394 0
M  V30 1414 H 137.601 -0.508528 -3.74463 0
M  V30 1415 H 137.914 -1.65612 -7.54846 0
M  V30 1416 H 136.259 -1.4826 -6.79002 0
M  V30 1417 H 139.45 -0.713293 -4.62633 0
M  V30 1418 H 139.623 -1.23638 -6.36096 0
M  V30 1419 N 133.029 1.57378 -0.0835403 0
M  V30 1420 C 134.276 1.9393 0.58287 0
M  V30 1421 C 134.604 0.964455 1.68904 0
M  V30 1422 O 133.859 -0.0179474 1.95692 0
M  V30 1423 C 134.158 3.37063 1.1884 0
M  V30 1424 C 133.824 4.50424 0.207194 0
M  V30 1425 C 132.486 4.81159 -0.0627115 0
M  V30 1426 C 134.838 5.19136 -0.463426 0
M  V30 1427 C 132.166 5.77939 -1.01012 0
M  V30 1428 C 134.518 6.16931 -1.39924 0
M  V30 1429 C 133.182 6.46078 -1.67749 0
M  V30 1430 H 132.452 0.70964 0.213287 0
M  V30 1431 H 135.099 1.90856 -0.156916 0
M  V30 1432 H 133.404 3.3666 2.00418 0
M  V30 1433 H 135.101 3.6264 1.71153 0
M  V30 1434 H 131.691 4.2646 0.427747 0
M  V30 1435 H 135.875 4.95576 -0.268034 0
M  V30 1436 H 131.131 5.98842 -1.23283 0
M  V30 1437 H 135.305 6.69273 -1.92476 0
M  V30 1438 H 132.932 7.2088 -2.41321 0
M  V30 1439 N 134.507 -0.190092 1.56449 0
M  V30 1440 C 135.735 -0.925772 1.85033 0
M  V30 1441 C 136.15 -1.76638 0.666658 0
M  V30 1442 O 135.507 -1.78822 -0.364565 0
M  V30 1443 C 135.558 -1.81786 3.12468 0
M  V30 1444 O 135.279 -1.01118 4.26271 0
M  V30 1445 C 136.78 -2.6648 3.54265 0
M  V30 1446 H 134 -0.269872 0.614337 0
M  V30 1447 H 136.544 -0.195837 2.0356 0
M  V30 1448 H 134.699 -2.50136 2.95822 0
M  V30 1449 H 135.113 -1.61956 4.98869 0
M  V30 1450 H 136.587 -3.24722 4.46385 0
M  V30 1451 H 137.064 -3.40434 2.77491 0
M  V30 1452 H 137.67 -2.03493 3.73458 0
M  V30 1453 N 135.985 -1.50799 -0.457987 0
M  V30 1454 C 137.21 -1.66496 -1.23668 0
M  V30 1455 C 137.635 -0.353288 -1.84752 0
M  V30 1456 O 136.993 0.684346 -1.67888 0
M  V30 1457 C 137.041 -2.76763 -2.3116 0
M  V30 1458 O 136.145 -2.38928 -3.36136 0
M  V30 1459 H 135.486 -0.555828 -0.363252 0
M  V30 1460 H 138.016 -1.9725 -0.543474 0
M  V30 1461 H 138.026 -3.00232 -2.76269 0
M  V30 1462 H 136.701 -3.71954 -1.86073 0
M  V30 1463 H 135.278 -2.25953 -2.96647 0
M  V30 1464 N 137.463 0.71206 -1.40597 0
M  V30 1465 C 138.691 1.50111 -1.42388 0
M  V30 1466 C 139.106 1.88784 -0.0245395 0
M  V30 1467 O 138.463 1.55681 0.952351 0
M  V30 1468 C 138.514 2.7742 -2.31776 0
M  V30 1469 O 138.235 2.40382 -3.66262 0
M  V30 1470 C 139.736 3.7129 -2.42196 0
M  V30 1471 H 136.956 0.46314 -0.485533 0
M  V30 1472 H 139.5 0.878068 -1.8469 0
M  V30 1473 H 137.655 3.36001 -1.92827 0
M  V30 1474 H 138.069 3.22324 -4.13772 0
M  V30 1475 H 139.543 4.57448 -3.08943 0
M  V30 1476 H 140.02 4.14641 -1.44809 0
M  V30 1477 H 140.626 3.18619 -2.81712 0
M  V30 1478 N 138.941 1.26152 0.944643 0
M  V30 1479 C 140.169 1.14259 1.72489 0
M  V30 1480 C 140.584 -0.302555 1.8636 0
M  V30 1481 O 139.941 -1.20741 1.36849 0
M  V30 1482 C 139.992 1.80266 3.13347 0
M  V30 1483 O 139.713 3.19133 3.00143 0
M  V30 1484 C 141.214 1.74283 4.07603 0
M  V30 1485 H 138.434 0.398051 0.540181 0
M  V30 1486 H 140.978 1.66706 1.18446 0
M  V30 1487 H 139.133 1.31766 3.64303 0
M  V30 1488 H 139.547 3.51744 3.89071 0
M  V30 1489 H 141.021 2.25111 5.04013 0
M  V30 1490 H 141.498 0.708631 4.33446 0
M  V30 1491 H 142.104 2.22319 3.62567 0
M  V30 1492 N 140.419 -1.14872 1.07899 0
M  V30 1493 C 141.835 -1.37776 0.805606 0
M  V30 1494 C 142.035 -1.92743 -0.587555 0
M  V30 1495 O 141.091 -2.13678 -1.34528 0
M  V30 1496 C 142.404 -2.34361 1.88402 0
M  V30 1497 C 143.952 -2.48012 1.90942 0
M  V30 1498 C 144.427 -3.47893 2.97883 0
M  V30 1499 N 145.918 -3.55433 2.97021 0
M  V30 1500 C 146.653 -4.32553 3.76412 0
M  V30 1501 N 146.149 -5.12959 4.65666 0
M  V30 1502 N 147.942 -4.27697 3.64735 0
M  V30 1503 H 140.093 -0.775365 1.97742 0
M  V30 1504 H 142.356 -0.403521 0.857831 0
M  V30 1505 H 142.062 -2.01098 2.88535 0
M  V30 1506 H 141.936 -3.34206 1.74889 0
M  V30 1507 H 144.323 -2.8057 0.914579 0
M  V30 1508 H 144.404 -1.48147 2.08534 0
M  V30 1509 H 144.048 -3.16069 3.97571 0
M  V30 1510 H 143.978 -4.47527 2.77538 0
M  V30 1511 H 146.469 -2.98048 2.32326 0
M  V30 1512 H 146.782 -5.69065 5.22862 0
M  V30 1513 H 145.127 -5.12245 4.69712 0
M  V30 1514 H 148.318 -3.63949 2.94378 0
M  V30 1515 H 148.491 -4.8755 4.26848 0
M  V30 1516 N 141.898 -0.863906 -1.31812 0
M  V30 1517 C 143.144 -0.472535 -1.97218 0
M  V30 1518 C 143.477 0.971394 -1.68159 0
M  V30 1519 O 142.752 1.68309 -0.974798 0
M  V30 1520 C 143.035 -0.723054 -3.52766 0
M  V30 1521 C 142.888 -2.21608 -3.91421 0
M  V30 1522 C 144.207 -0.185522 -4.39709 0
M  V30 1523 H 141.326 -0.173158 -0.71637 0
M  V30 1524 H 143.968 -1.08403 -1.56041 0
M  V30 1525 H 142.118 -0.202577 -3.87971 0
M  V30 1526 H 143.79 -2.80334 -3.66347 0
M  V30 1527 H 142.033 -2.691 -3.40246 0
M  V30 1528 H 142.704 -2.34203 -4.99853 0
M  V30 1529 H 145.18 -0.630726 -4.11292 0
M  V30 1530 H 144.056 -0.390306 -5.47511 0
M  V30 1531 H 144.317 0.912229 -4.32586 0
M  V30 1532 N 143.376 1.44774 -0.622745 0
M  V30 1533 C 144.787 1.85546 -0.207226 0
M  V30 1534 C 145.138 1.52093 1.23944 0
M  V30 1535 O 144.263 0.95492 1.94191 0
M  V30 1536 C 144.858 3.36781 -0.369313 0
M  V30 1537 C 143.417 3.76399 -0.00836847 0
M  V30 1538 C 142.564 2.68664 -0.686651 0
M  V30 1539 H 145.515 1.3536 -0.828454 0
M  V30 1540 H 145.536 3.78453 0.394162 0
M  V30 1541 H 145.048 3.61098 -1.42231 0
M  V30 1542 H 143.149 3.57698 1.04322 0
M  V30 1543 H 143.262 4.7732 -0.412584 0
M  V30 1544 H 141.626 2.54404 -0.122777 0
M  V30 1545 H 142.409 2.95815 -1.74208 0
M  V30 1546 N 144.854 0.36279 1.53368 0
M  V30 1547 C 146.079 -0.231226 2.06107 0
M  V30 1548 C 146.504 -1.419 1.23474 0
M  V30 1549 O 145.862 -1.79524 0.253128 0
M  V30 1550 C 145.91 -0.605523 3.5548 0
M  V30 1551 O 145.014 -1.70312 3.7559 0
M  V30 1552 H 144.355 -0.034327 0.663112 0
M  V30 1553 H 146.885 0.522584 1.97814 0
M  V30 1554 H 146.895 -0.877314 3.98456 0
M  V30 1555 H 145.57 0.263004 4.15068 0
M  V30 1556 H 144.147 -1.4271 3.44512 0
M  V30 1557 N 146.332 -1.57332 0.0918853 0
M  V30 1558 C 147.581 -1.93412 -0.572249 0
M  V30 1559 C 147.894 -0.975515 -1.69538 0
M  V30 1560 O 149.1 -1.22991 -2.42045 0
M  V30 1561 C 147.556 -3.43648 -1.0693 0
M  V30 1562 C 147.164 -4.47994 0.0239049 0
M  V30 1563 C 148.908 -3.88695 -1.70635 0
M  V30 1564 C 146.815 -5.89381 -0.488319 0
M  V30 1565 H 145.745 -0.721939 -0.217532 0
M  V30 1566 H 148.396 -1.82735 0.167369 0
M  V30 1567 H 146.778 -3.49466 -1.8625 0
M  V30 1568 H 147.952 -4.53815 0.799277 0
M  V30 1569 H 146.267 -4.12536 0.565946 0
M  V30 1570 H 148.864 -4.91725 -2.10025 0
M  V30 1571 H 149.207 -3.27166 -2.57426 0
M  V30 1572 H 149.74 -3.85564 -0.979023 0
M  V30 1573 H 146.479 -6.54602 0.342906 0
M  V30 1574 H 145.999 -5.87037 -1.23077 0
M  V30 1575 H 147.678 -6.39863 -0.958317 0
M  V30 1576 N 147.81 0.181792 -1.56548 0
M  V30 1577 C 148.758 1.24461 -1.965 0
M  V30 1578 C 149.752 1.464 -0.852261 0
M  V30 1579 O 150.958 1.47103 -1.03733 0
M  V30 1580 H 147.333 0.418138 -0.625031 0
M  V30 1581 H 149.304 0.880714 -2.85107 0
M  V30 1582 C 148.053 2.57891 -2.33212 0
M  V30 1583 H 147.376 2.41829 -3.18369 0
M  V30 1584 H 148.816 3.3097 -2.65019 0
M  V30 1585 C 147.275 3.15871 -1.17163 0
M  V30 1586 O 147.805 3.9913 -0.453708 0
M  V30 1587 N 146.011 2.74808 -0.944936 0
M  V30 1588 H 145.558 2.07205 -1.53049 0
M  V30 1589 H 145.516 3.13939 -0.170286 0
M  V30 1590 N 149.288 1.51039 0.449983 0
M  V30 1591 C 150.218 1.74379 1.55288 0
M  V30 1592 C 151.199 0.593236 1.5942 0
M  V30 1593 O 152.384 0.834625 1.7535 0
M  V30 1594 C 149.514 1.85728 2.93466 0
M  V30 1595 C 148.468 3.01078 3.04197 0
M  V30 1596 C 147.794 2.97595 4.44231 0
M  V30 1597 C 149.094 4.41254 2.7945 0
M  V30 1598 H 150.788 2.66725 1.36008 0
M  V30 1599 H 148.334 1.2835 0.652864 0
M  V30 1600 H 150.287 2.0064 3.70569 0
M  V30 1601 H 149.011 0.900207 3.13949 0
M  V30 1602 H 147.67 2.85851 2.29531 0
M  V30 1603 H 147.318 1.99691 4.61663 0
M  V30 1604 H 147.018 3.75046 4.52343 0
M  V30 1605 H 148.542 3.14583 5.23326 0
M  V30 1606 H 149.956 4.56897 3.46292 0
M  V30 1607 H 148.353 5.20315 2.98985 0
M  V30 1608 H 149.423 4.52164 1.75144 0
M  V30 1609 N 150.766 -0.704594 1.40972 0
M  V30 1610 C 151.996 -1.49138 1.42974 0
M  V30 1611 C 152.404 -1.89175 0.0308406 0
M  V30 1612 O 151.747 -1.56734 -0.958138 0
M  V30 1613 C 151.809 -2.79016 2.26694 0
M  V30 1614 C 151.473 -2.61236 3.74973 0
M  V30 1615 C 152.47 -2.27773 4.67349 0
M  V30 1616 C 150.155 -2.77158 4.18914 0
M  V30 1617 C 152.149 -2.10457 6.01653 0
M  V30 1618 C 149.836 -2.59459 5.53285 0
M  V30 1619 C 150.834 -2.26158 6.4447 0
M  V30 1620 O 150.522 -2.08605 7.76363 0
M  V30 1621 H 150.254 -0.466443 0.489292 0
M  V30 1622 H 152.808 -0.8758 1.85793 0
M  V30 1623 H 151.038 -3.42947 1.78673 0
M  V30 1624 H 152.727 -3.40782 2.20504 0
M  V30 1625 H 153.493 -2.15095 4.34694 0
M  V30 1626 H 149.372 -3.02064 3.48251 0
M  V30 1627 H 152.916 -1.84387 6.72791 0
M  V30 1628 H 148.813 -2.71725 5.85522 0
M  V30 1629 H 149.581 -2.23439 7.87412 0
M  V30 1630 N 152.244 -1.26651 -0.937939 0
M  V30 1631 C 153.472 -1.15173 -1.7188 0
M  V30 1632 C 153.887 0.292668 -1.86518 0
M  V30 1633 O 153.244 1.20014 -1.37488 0
M  V30 1634 C 153.295 -1.81925 -3.12387 0
M  V30 1635 O 153.016 -3.2072 -2.98446 0
M  V30 1636 C 154.517 -1.76442 -4.06673 0
M  V30 1637 H 151.737 -0.400911 -0.538063 0
M  V30 1638 H 154.281 -1.67332 -1.1756 0
M  V30 1639 H 152.436 -1.33696 -3.63599 0
M  V30 1640 H 152.85 -3.53802 -3.872 0
M  V30 1641 H 154.324 -2.27781 -5.02812 0
M  V30 1642 H 154.801 -0.731608 -4.33064 0
M  V30 1643 H 155.407 -2.24238 -3.61382 0
M  V30 1644 N 153.722 1.14298 -1.08507 0
M  V30 1645 C 154.971 1.84708 -0.810305 0
M  V30 1646 C 155.284 1.83903 0.666271 0
M  V30 1647 O 156.49 2.50112 1.05624 0
M  V30 1648 C 154.946 3.31572 -1.39957 0
M  V30 1649 C 154.554 3.40791 -2.90801 0
M  V30 1650 C 156.298 4.07087 -1.20334 0
M  V30 1651 C 154.205 4.81872 -3.4286 0
M  V30 1652 H 153.135 0.691985 -0.299454 0
M  V30 1653 H 155.786 1.28841 -1.30661 0
M  V30 1654 H 154.168 3.87183 -0.830976 0
M  V30 1655 H 155.342 2.95225 -3.53806 0
M  V30 1656 H 153.657 2.78732 -3.0935 0
M  V30 1657 H 156.254 5.11225 -1.56693 0
M  V30 1658 H 156.597 4.16054 -0.143237 0
M  V30 1659 H 157.13 3.57779 -1.73893 0
M  V30 1660 H 153.869 4.78094 -4.48449 0
M  V30 1661 H 153.389 5.27972 -2.84615 0
M  V30 1662 H 155.068 5.50765 -3.39509 0
M  V30 1663 N 155.201 0.870884 1.31352 0
M  V30 1664 C 156.111 0.330783 2.32256 0
M  V30 1665 C 157.127 -0.559767 1.6475 0
M  V30 1666 O 158.303 -0.456263 1.96164 0
M  V30 1667 C 155.368 -0.458137 3.4366 0
M  V30 1668 C 154.429 0.460482 4.26823 0
M  V30 1669 C 153.662 -0.290881 5.32907 0
M  V30 1670 O 153.885 -1.51885 5.49806 0
M  V30 1671 O 152.819 0.351732 6.00871 0
M  V30 1672 H 156.645 1.16718 2.80376 0
M  V30 1673 H 154.23 0.634285 1.35267 0
M  V30 1674 H 156.112 -0.905343 4.1156 0
M  V30 1675 H 154.787 -1.27106 2.97701 0
M  V30 1676 H 153.694 0.956207 3.61673 0
M  V30 1677 H 155.027 1.23903 4.7635 0
M  V30 1678 N 156.679 -1.44442 0.630414 0
M  V30 1679 C 157.609 -2.33418 -0.0618083 0
M  V30 1680 C 158.59 -1.48165 -0.835541 0
M  V30 1681 O 159.775 -1.76886 -0.801564 0
M  V30 1682 C 156.905 -3.31222 -1.04449 0
M  V30 1683 C 155.859 -4.26288 -0.382436 0
M  V30 1684 C 155.185 -5.13954 -1.47497 0
M  V30 1685 C 156.485 -5.1744 0.710865 0
M  V30 1686 H 158.179 -2.91548 0.681184 0
M  V30 1687 H 155.725 -1.40191 0.329026 0
M  V30 1688 H 157.678 -3.92351 -1.53748 0
M  V30 1689 H 156.402 -2.71299 -1.81836 0
M  V30 1690 H 155.061 -3.6649 0.0899054 0
M  V30 1691 H 154.709 -4.50385 -2.2397 0
M  V30 1692 H 154.409 -5.7837 -1.03737 0
M  V30 1693 H 155.933 -5.77955 -1.96979 0
M  V30 1694 H 157.347 -5.72509 0.300996 0
M  V30 1695 H 155.744 -5.90455 1.07156 0
M  V30 1696 H 156.814 -4.58496 1.57829 0
M  V30 1697 N 158.157 -0.370918 -1.53173 0
M  V30 1698 C 159.385 0.217704 -2.05751 0
M  V30 1699 C 159.8 1.42018 -1.24404 0
M  V30 1700 O 159.157 1.80245 -0.286033 0
M  V30 1701 C 159.208 0.605954 -3.56385 0
M  V30 1702 O 158.929 -0.548734 -4.3465 0
M  V30 1703 C 160.43 1.2524 -4.25241 0
M  V30 1704 H 157.65 0.0371659 -0.66997 0
M  V30 1705 H 160.194 -0.530832 -1.9749 0
M  V30 1706 H 158.349 1.3044 -3.6478 0
M  V30 1707 H 158.763 -0.23376 -5.23979 0
M  V30 1708 H 160.237 1.47458 -5.3194 0
M  V30 1709 H 160.714 2.2143 -3.79296 0
M  V30 1710 H 161.32 0.595233 -4.21114 0
M  V30 1711 N 159.635 1.57281 -0.100228 0
M  V30 1712 C 160.585 2.10848 0.86759 0
M  V30 1713 C 161.569 1.02473 1.24049 0
M  V30 1714 O 162.761 1.28739 1.21471 0
M  V30 1715 C 159.89 2.69648 2.12474 0
M  V30 1716 C 158.976 3.85074 1.77704 0
M  V30 1717 N 159.367 4.92897 1.13518 0
M  V30 1718 C 157.665 3.94905 2.07282 0
M  V30 1719 C 158.366 5.73475 0.974735 0
M  V30 1720 N 157.342 5.22675 1.4937 0
M  V30 1721 H 161.144 2.91594 0.367471 0
M  V30 1722 H 158.658 1.62074 0.102829 0
M  V30 1723 H 160.655 3.06356 2.82757 0
M  V30 1724 H 159.315 1.90359 2.63047 0
M  V30 1725 H 160.326 5.11662 0.801381 0
M  V30 1726 H 157.003 3.26633 2.60033 0
M  V30 1727 H 158.393 6.70238 0.472364 0
M  V30 1728 N 161.113 -0.173488 1.56642 0
M  V30 1729 C 162.361 -0.888706 1.81512 0
M  V30 1730 C 162.682 -1.82875 0.676872 0
M  V30 1731 O 161.952 -1.93536 -0.303414 0
M  V30 1732 H 160.532 -0.331164 0.669582 0
M  V30 1733 H 163.194 -0.173823 1.94123 0
M  V30 1734 H 162.29 -1.46691 2.75478 0
M  V30 1735 N 162.591 -1.51276 -0.441967 0
M  V30 1736 C 163.501 -1.75092 -1.56141 0
M  V30 1737 C 164.517 -0.634963 -1.62001 0
M  V30 1738 O 165.693 -0.916686 -1.79329 0
M  V30 1739 C 162.758 -1.86666 -2.92158 0
M  V30 1740 C 161.819 -3.10506 -2.96453 0
M  V30 1741 C 161.052 -3.21519 -4.25982 0
M  V30 1742 O 161.275 -2.38586 -5.18105 0
M  V30 1743 O 160.209 -4.14465 -4.36466 0
M  V30 1744 H 164.035 -2.70044 -1.38961 0
M  V30 1745 H 161.62 -1.35722 -0.624499 0
M  V30 1746 H 163.502 -1.96292 -3.72891 0
M  V30 1747 H 162.177 -0.949014 -3.09476 0
M  V30 1748 H 161.084 -3.06363 -2.14692 0
M  V30 1749 H 162.417 -4.01945 -2.84079 0
M  V30 1750 N 164.069 0.697108 -1.41344 0
M  V30 1751 C 165.316 1.45714 -1.40619 0
M  V30 1752 C 165.644 1.94494 -0.0147907 0
M  V30 1753 O 164.899 1.69794 0.973066 0
M  V30 1754 C 165.198 2.68553 -2.35826 0
M  V30 1755 C 164.864 2.38438 -3.82698 0
M  V30 1756 C 163.526 2.29936 -4.22709 0
M  V30 1757 C 165.878 2.13567 -4.75435 0
M  V30 1758 C 163.206 1.94656 -5.53467 0
M  V30 1759 C 165.558 1.79797 -6.06511 0
M  V30 1760 C 164.222 1.69789 -6.45545 0
M  V30 1761 H 163.492 0.533206 -0.51456 0
M  V30 1762 H 166.139 0.796901 -1.74131 0
M  V30 1763 H 164.444 3.39503 -1.95563 0
M  V30 1764 H 166.141 3.2669 -2.32539 0
M  V30 1765 H 162.731 2.4595 -3.51008 0
M  V30 1766 H 166.915 2.19082 -4.45328 0
M  V30 1767 H 162.171 1.8546 -5.82593 0
M  V30 1768 H 166.345 1.59572 -6.77872 0
M  V30 1769 H 163.972 1.4222 -7.46778 0
M  V30 1770 N 165.547 1.27147 0.931209 0
M  V30 1771 C 166.494 1.09568 2.03134 0
M  V30 1772 C 167.464 -0.00222433 1.661 0
M  V30 1773 O 168.649 0.159439 1.90133 0
M  V30 1774 C 165.789 0.745231 3.36957 0
M  V30 1775 C 164.902 1.92041 3.86968 0
M  V30 1776 C 164.037 1.51216 5.09222 0
M  V30 1777 C 163.076 2.65504 5.5152 0
M  V30 1778 N 162.213 2.25291 6.64972 0
M  V30 1779 H 167.053 2.03708 2.17502 0
M  V30 1780 H 164.59 1.01411 1.06556 0
M  V30 1781 H 166.548 0.522878 4.1391 0
M  V30 1782 H 165.178 -0.159202 3.22407 0
M  V30 1783 H 164.23 2.25541 3.06326 0
M  V30 1784 H 165.542 2.77787 4.1429 0
M  V30 1785 H 164.696 1.25084 5.93666 0
M  V30 1786 H 163.435 0.625749 4.83669 0
M  V30 1787 H 162.44 2.92354 4.65628 0
M  V30 1788 H 163.665 3.54761 5.7907 0
M  V30 1789 H 161.611 1.39098 6.41083 0
M  V30 1790 H 161.528 3.04577 6.91931 0
M  V30 1791 H 162.796 2.02398 7.52765 0
M  V30 1792 N 167.025 -1.13721 1.09112 0
M  V30 1793 C 168.271 -1.85413 0.836283 0
M  V30 1794 C 168.626 -1.8175 -0.631249 0
M  V30 1795 O 167.919 -1.24238 -1.45861 0
M  V30 1796 C 168.113 -3.32861 1.30146 0
M  V30 1797 C 167.942 -3.50882 2.81268 0
M  V30 1798 C 166.712 -3.65312 3.49106 0
M  V30 1799 C 168.91 -3.47196 3.7942 0
M  V30 1800 N 166.892 -3.71563 4.88686 0
M  V30 1801 C 168.263 -3.59777 5.04936 0
M  V30 1802 C 170.318 -3.30577 3.72321 0
M  V30 1803 C 169.021 -3.57455 6.24194 0
M  V30 1804 C 171.047 -3.29562 4.91063 0
M  V30 1805 C 170.409 -3.42691 6.15421 0
M  V30 1806 H 166.508 -0.694812 0.358832 0
M  V30 1807 H 169.092 -1.36246 1.39087 0
M  V30 1808 H 167.263 -3.80602 0.774361 0
M  V30 1809 H 168.995 -3.92346 0.99229 0
M  V30 1810 H 165.75 -3.6685 2.9953 0
M  V30 1811 H 166.174 -3.78387 5.61384 0
M  V30 1812 H 170.816 -3.19332 2.77105 0
M  V30 1813 H 168.534 -3.67475 7.19714 0
M  V30 1814 H 172.12 -3.17905 4.87266 0
M  V30 1815 H 171 -3.41862 7.05762 0
M  V30 1816 N 168.503 -0.877838 -1.30888 0
M  V30 1817 C 169.435 -0.296607 -2.27273 0
M  V30 1818 C 170.448 0.544799 -1.53414 0
M  V30 1819 O 171.637 0.365511 -1.74718 0
M  V30 1820 C 168.737 0.597481 -3.33592 0
M  V30 1821 C 167.91 -0.213251 -4.3688 0
M  V30 1822 C 166.969 0.610208 -5.2265 0
M  V30 1823 O 165.995 0.035441 -5.69189 0
M  V30 1824 N 167.197 1.92071 -5.47804 0
M  V30 1825 H 169.962 -1.12492 -2.77787 0
M  V30 1826 H 167.523 -0.740105 -1.43993 0
M  V30 1827 H 169.515 1.15425 -3.87891 0
M  V30 1828 H 168.085 1.32647 -2.83061 0
M  V30 1829 H 167.305 -0.951466 -3.82545 0
M  V30 1830 H 168.593 -0.769262 -5.02951 0
M  V30 1831 H 167.991 2.4107 -5.11763 0
M  V30 1832 H 166.548 2.42508 -6.05007 0
M  V30 1833 N 169.982 1.44106 -0.638065 0
M  V30 1834 C 171.228 2.02277 -0.145546 0
M  V30 1835 C 171.561 1.50125 1.23191 0
M  V30 1836 O 170.836 0.688133 1.8192 0
M  V30 1837 C 171.119 3.59829 -0.139791 0
M  V30 1838 C 170.972 4.22247 -1.55008 0
M  V30 1839 C 172.291 4.36873 0.531966 0
M  V30 1840 H 169.41 0.734992 -0.0543632 0
M  V30 1841 H 172.052 1.71592 -0.815863 0
M  V30 1842 H 170.202 3.86102 0.431007 0
M  V30 1843 H 171.874 4.07057 -2.1703 0
M  V30 1844 H 170.117 3.79476 -2.10191 0
M  V30 1845 H 170.788 5.31284 -1.49804 0
M  V30 1846 H 173.264 4.16074 0.0464781 0
M  V30 1847 H 172.14 5.4657 0.505206 0
M  V30 1848 H 172.401 4.11995 1.60352 0
M  V30 1849 N 171.46 0.379036 1.52974 0
M  V30 1850 C 172.407 -0.461048 2.26148 0
M  V30 1851 C 173.377 -1.06637 1.27349 0
M  V30 1852 O 174.562 -1.09633 1.56157 0
M  V30 1853 C 171.702 -1.58782 3.06402 0
M  V30 1854 C 170.815 -1.00636 4.20115 0
M  V30 1855 C 169.95 -2.10334 4.87784 0
M  V30 1856 C 168.989 -1.49724 5.93506 0
M  V30 1857 N 168.126 -2.5331 6.54812 0
M  V30 1858 H 172.966 0.169429 2.97518 0
M  V30 1859 H 170.503 0.0953806 1.4679 0
M  V30 1860 H 172.461 -2.25174 3.51215 0
M  V30 1861 H 171.091 -2.18876 2.37261 0
M  V30 1862 H 170.143 -0.232332 3.7969 0
M  V30 1863 H 171.455 -0.523343 4.96047 0
M  V30 1864 H 170.609 -2.84519 5.35849 0
M  V30 1865 H 169.348 -2.61992 4.11353 0
M  V30 1866 H 168.353 -0.740598 5.44789 0
M  V30 1867 H 169.578 -0.988732 6.71864 0
M  V30 1868 H 167.524 -3.04156 5.81227 0
M  V30 1869 H 167.441 -2.09734 7.26325 0
M  V30 1870 H 168.709 -3.27155 7.07524 0
M  V30 1871 N 172.938 -1.57226 0.108567 0
M  V30 1872 C 174.354 -1.5766 -0.248058 0
M  V30 1873 C 174.554 -1.12063 -1.67464 0
M  V30 1874 O 173.61 -0.803236 -2.39383 0
M  V30 1875 C 174.923 -3.0069 -0.0242287 0
M  V30 1876 C 176.471 -3.12868 -0.0909372 0
M  V30 1877 C 176.946 -4.57879 0.105067 0
M  V30 1878 N 178.437 -4.63172 0.0506846 0
M  V30 1879 C 179.172 -5.73126 0.177396 0
M  V30 1880 N 178.668 -6.91866 0.359696 0
M  V30 1881 N 180.461 -5.61977 0.117709 0
M  V30 1882 H 172.612 -1.85169 1.04049 0
M  V30 1883 H 174.875 -0.85529 0.40888 0
M  V30 1884 H 174.581 -3.38299 0.961604 0
M  V30 1885 H 174.455 -3.6945 -0.76068 0
M  V30 1886 H 176.842 -2.75124 -1.06729 0
M  V30 1887 H 176.923 -2.46672 0.677225 0
M  V30 1888 H 176.567 -4.96321 1.07834 0
M  V30 1889 H 176.497 -5.22153 -0.682954 0
M  V30 1890 H 178.988 -3.778 -0.0871266 0
M  V30 1891 H 179.301 -7.71503 0.447529 0
M  V30 1892 H 177.646 -6.93874 0.395536 0
M  V30 1893 H 180.837 -4.68094 -0.0236741 0
M  V30 1894 H 181.01 -6.47627 0.219905 0
M  V30 1895 N 174.416 0.165178 -1.56732 0
M  V30 1896 C 175.363 1.2044 -1.96883 0
M  V30 1897 C 176.333 1.43664 -0.833657 0
M  V30 1898 O 177.518 1.56302 -1.09427 0
M  V30 1899 C 174.658 2.53727 -2.33916 0
M  V30 1900 C 173.771 2.3783 -3.6064 0
M  V30 1901 C 172.906 3.64026 -3.86857 0
M  V30 1902 C 171.945 3.43088 -5.06909 0
M  V30 1903 N 171.082 4.61369 -5.29229 0
M  V30 1904 H 175.922 0.854996 -2.85471 0
M  V30 1905 H 173.459 0.41076 -1.41249 0
M  V30 1906 H 175.417 3.31419 -2.53411 0
M  V30 1907 H 174.047 2.8665 -1.48431 0
M  V30 1908 H 173.099 1.51282 -3.49024 0
M  V30 1909 H 174.411 2.18308 -4.4849 0
M  V30 1910 H 173.565 4.50152 -4.06753 0
M  V30 1911 H 172.304 3.86533 -2.97394 0
M  V30 1912 H 171.309 2.55349 -4.86906 0
M  V30 1913 H 172.534 3.21997 -5.97909 0
M  V30 1914 H 170.48 4.84084 -4.42718 0
M  V30 1915 H 170.397 4.44783 -6.11313 0
M  V30 1916 H 171.665 5.48761 -5.53608 0
M  V30 1917 N 175.894 1.51508 0.433938 0
M  V30 1918 C 177.141 1.64345 1.18309 0
M  V30 1919 C 177.469 0.361315 1.91115 0
M  V30 1920 O 176.724 -0.654753 1.84422 0
M  V30 1921 C 177.023 2.79928 2.22205 0
M  V30 1922 C 176.689 4.19078 1.66387 0
M  V30 1923 C 175.351 4.56932 1.50887 0
M  V30 1924 C 177.703 5.05894 1.25381 0
M  V30 1925 C 175.031 5.79305 0.928608 0
M  V30 1926 C 177.383 6.2885 0.687823 0
M  V30 1927 C 176.047 6.65473 0.519755 0
M  V30 1928 H 175.317 0.601381 0.432923 0
M  V30 1929 H 177.964 1.85549 0.473676 0
M  V30 1930 H 176.269 2.52959 2.99197 0
M  V30 1931 H 177.966 2.87059 2.79997 0
M  V30 1932 H 174.556 3.89234 1.79428 0
M  V30 1933 H 178.74 4.77253 1.36175 0
M  V30 1934 H 173.996 6.06324 0.786186 0
M  V30 1935 H 178.17 6.95461 0.361581 0
M  V30 1936 H 175.797 7.6017 0.0679979 0
M  V30 1937 N 177.372 -0.689602 1.41712 0
M  V30 1938 C 178.319 -1.80345 1.44029 0
M  V30 1939 C 179.289 -1.63478 0.293948 0
M  V30 1940 O 180.474 -1.84244 0.495869 0
M  V30 1941 C 177.614 -3.18272 1.33405 0
M  V30 1942 C 176.727 -3.46529 2.57956 0
M  V30 1943 C 175.862 -4.74103 2.39582 0
M  V30 1944 C 174.901 -4.95347 3.5958 0
M  V30 1945 N 174.038 -6.14151 3.40239 0
M  V30 1946 H 178.878 -1.77698 2.39222 0
M  V30 1947 H 176.415 -0.867688 1.18784 0
M  V30 1948 H 178.373 -3.97956 1.25246 0
M  V30 1949 H 177.003 -3.2008 0.418164 0
M  V30 1950 H 176.055 -2.61207 2.76542 0
M  V30 1951 H 177.367 -3.58126 3.47199 0
M  V30 1952 H 176.521 -5.61853 2.28924 0
M  V30 1953 H 175.26 -4.64763 1.47805 0
M  V30 1954 H 174.265 -4.06044 3.70686 0
M  V30 1955 H 175.49 -5.06542 4.52318 0
M  V30 1956 H 173.436 -6.06013 2.51167 0
M  V30 1957 H 173.353 -6.26543 4.23061 0
M  V30 1958 H 174.621 -7.04619 3.33365 0
M  V30 1959 N 178.85 -1.27639 -0.924453 0
M  V30 1960 C 179.8 -1.07295 -2.01176 0
M  V30 1961 C 180.784 5.77352e-05 -1.609 0
M  V30 1962 O 181.976 -0.218855 -1.75642 0
M  V30 1963 C 179.105 -0.725592 -3.35544 0
M  V30 1964 C 178.191 -1.83691 -3.82254 0
M  V30 1965 N 178.582 -3.07697 -4.01443 0
M  V30 1966 C 176.88 -1.72433 -4.11319 0
M  V30 1967 C 177.581 -3.80037 -4.40394 0
M  V30 1968 N 176.557 -3.0782 -4.48049 0
M  V30 1969 H 180.359 -2.01399 -2.14046 0
M  V30 1970 H 177.873 -1.18401 -1.11153 0
M  V30 1971 H 179.87 -0.560959 -4.13109 0
M  V30 1972 H 178.53 0.207782 -3.24034 0
M  V30 1973 H 179.541 -3.43424 -3.8766 0
M  V30 1974 H 176.218 -0.862005 -4.08504 0
M  V30 1975 H 177.608 -4.86632 -4.63291 0
M  V30 1976 N 180.328 1.1314 -1.09713 0
M  V30 1977 C 181.575 1.84484 -0.834987 0
M  V30 1978 C 181.903 1.83689 0.639418 0
M  V30 1979 O 181.158 1.2724 1.4869 0
M  V30 1980 C 181.457 3.32167 -1.3191 0
M  V30 1981 C 181.123 3.53139 -2.80363 0
M  V30 1982 C 179.785 3.58571 -3.20905 0
M  V30 1983 C 182.137 3.60866 -3.76065 0
M  V30 1984 C 179.465 3.69267 -4.55916 0
M  V30 1985 C 181.817 3.73089 -5.10869 0
M  V30 1986 C 180.481 3.76775 -5.50996 0
M  V30 1987 H 179.751 0.675073 -0.305544 0
M  V30 1988 H 182.398 1.33554 -1.37243 0
M  V30 1989 H 180.703 3.85469 -0.701517 0
M  V30 1990 H 182.4 3.85821 -1.09284 0
M  V30 1991 H 178.99 3.49569 -2.47991 0
M  V30 1992 H 183.174 3.55946 -3.45855 0
M  V30 1993 H 178.43 3.70388 -4.86438 0
M  V30 1994 H 182.604 3.78011 -5.84877 0
M  V30 1995 H 180.231 3.84815 -6.55608 0
M  V30 1996 N 181.806 0.884767 1.30421 0
M  V30 1997 C 182.738 0.308655 2.27112 0
M  V30 1998 C 183.751 -0.536655 1.53701 0
M  V30 1999 O 184.94 -0.35624 1.74909 0
M  V30 2000 C 182.04 -0.579782 3.33904 0
M  V30 2001 C 181.213 0.236417 4.36761 0
M  V30 2002 C 180.272 -0.582482 5.22966 0
M  V30 2003 O 179.298 -0.00525502 5.692 0
M  V30 2004 N 180.5 -1.89163 5.48815 0
M  V30 2005 H 183.265 1.13964 2.77186 0
M  V30 2006 H 180.826 0.747731 1.43599 0
M  V30 2007 H 182.818 -1.13366 3.88497 0
M  V30 2008 H 181.388 -1.31144 2.83761 0
M  V30 2009 H 180.608 0.97174 3.82035 0
M  V30 2010 H 181.896 0.795924 5.02536 0
M  V30 2011 H 181.294 -2.38352 5.13035 0
M  V30 2012 H 179.851 -2.39296 6.06284 0
M  V30 2013 N 183.284 -1.43765 0.645699 0
M  V30 2014 C 184.194 -2.34544 -0.0512957 0
M  V30 2015 C 185.21 -1.53455 -0.82022 0
M  V30 2016 O 186.386 -1.86133 -0.769176 0
M  V30 2017 C 183.451 -3.31636 -1.01087 0
M  V30 2018 C 182.512 -4.2863 -0.239712 0
M  V30 2019 C 181.745 -5.21084 -1.15358 0
M  V30 2020 O 181.968 -5.1779 -2.39269 0
M  V30 2021 O 180.902 -5.98593 -0.630038 0
M  V30 2022 H 184.728 -2.95624 0.695718 0
M  V30 2023 H 182.313 -1.43781 0.405882 0
M  V30 2024 H 184.195 -3.9136 -1.56254 0
M  V30 2025 H 182.87 -2.73069 -1.73824 0
M  V30 2026 H 181.777 -3.72408 0.355356 0
M  V30 2027 H 183.11 -4.90157 0.447936 0
M  V30 2028 N 184.763 -0.387143 -1.52771 0
M  V30 2029 C 186.01 0.195735 -2.01552 0
M  V30 2030 C 186.338 1.46995 -1.27369 0
M  V30 2031 O 185.593 1.92325 -0.361879 0
M  V30 2032 C 185.892 0.512209 -3.53711 0
M  V30 2033 C 185.558 -0.670202 -4.45891 0
M  V30 2034 C 184.22 -0.994586 -4.70809 0
M  V30 2035 C 186.572 -1.46134 -5.00294 0
M  V30 2036 C 183.9 -2.11169 -5.4738 0
M  V30 2037 C 186.252 -2.56903 -5.78086 0
M  V30 2038 C 184.916 -2.89852 -6.01284 0
M  V30 2039 H 184.186 0.0716246 -0.73753 0
M  V30 2040 H 186.833 -0.524046 -1.8419 0
M  V30 2041 H 185.138 1.31329 -3.69134 0
M  V30 2042 H 186.835 0.975804 -3.88946 0
M  V30 2043 H 183.425 -0.407366 -4.2666 0
M  V30 2044 H 187.609 -1.22397 -4.80971 0
M  V30 2045 H 182.865 -2.3707 -5.63567 0
M  V30 2046 H 187.039 -3.18608 -6.19243 0
M  V30 2047 H 184.666 -3.76533 -6.60399 0
M  V30 2048 N 186.241 1.57166 -0.116904 0
M  V30 2049 C 187.191 2.11756 0.845178 0
M  V30 2050 C 188.175 1.03783 1.22955 0
M  V30 2051 O 189.367 1.3002 1.20099 0
M  V30 2052 C 186.496 2.71886 2.09602 0
M  V30 2053 C 185.582 3.86937 1.7361 0
M  V30 2054 N 185.973 4.94073 1.08284 0
M  V30 2055 C 184.271 3.97082 2.03082 0
M  V30 2056 C 184.972 5.74477 0.913855 0
M  V30 2057 N 183.948 5.2423 1.43818 0
M  V30 2058 H 187.75 2.91967 0.336523 0
M  V30 2059 H 185.264 1.62174 0.0856332 0
M  V30 2060 H 187.261 3.09338 2.79492 0
M  V30 2061 H 185.921 1.93138 2.61013 0
M  V30 2062 H 186.932 5.12483 0.747067 0
M  V30 2063 H 183.609 3.29372 2.56554 0
M  V30 2064 H 184.999 6.70701 0.40125 0
M  V30 2065 N 187.719 -0.156864 1.56817 0
M  V30 2066 C 189.135 -0.50916 1.5126 0
M  V30 2067 C 189.335 -1.83897 0.823658 0
M  V30 2068 O 188.391 -2.49469 0.390055 0
M  V30 2069 C 189.704 -0.52857 2.96018 0
M  V30 2070 C 191.252 -0.614771 3.06903 0
M  V30 2071 C 191.727 -0.664938 4.53147 0
M  V30 2072 N 193.218 -0.727433 4.57452 0
M  V30 2073 C 193.953 -0.787067 5.67973 0
M  V30 2074 N 193.449 -0.806649 6.88088 0
M  V30 2075 N 195.242 -0.827195 5.5598 0
M  V30 2076 H 187.393 0.714935 2.00006 0
M  V30 2077 H 189.656 0.259526 0.911784 0
M  V30 2078 H 189.362 0.380154 3.49639 0
M  V30 2079 H 189.236 -1.36998 3.51442 0
M  V30 2080 H 191.623 -1.51392 2.53307 0
M  V30 2081 H 191.704 0.253597 2.5454 0
M  V30 2082 H 191.348 0.230011 5.07379 0
M  V30 2083 H 191.278 -1.54966 5.03282 0
M  V30 2084 H 193.769 -0.719998 3.70978 0
M  V30 2085 H 194.082 -0.853727 7.6807 0
M  V30 2086 H 192.427 -0.774687 6.90669 0
M  V30 2087 H 195.618 -0.808998 4.61056 0
M  V30 2088 H 195.791 -0.870206 6.4213 0
M  V30 2089 N 189.197 -1.51736 -0.425897 0
M  V30 2090 C 190.107 -1.76738 -1.54275 0
M  V30 2091 C 191.123 -0.65211 -1.61318 0
M  V30 2092 O 192.299 -0.935654 -1.78346 0
M  V30 2093 C 189.364 -1.89755 -2.90162 0
M  V30 2094 C 188.425 -3.13633 -2.93143 0
M  V30 2095 C 187.658 -3.2602 -4.22548 0
M  V30 2096 O 187.881 -2.44067 -5.15546 0
M  V30 2097 O 186.815 -4.19071 -4.32046 0
M  V30 2098 H 190.641 -2.71502 -1.36089 0
M  V30 2099 H 188.226 -1.36376 -0.610069 0
M  V30 2100 H 190.108 -2.00236 -3.70788 0
M  V30 2101 H 188.783 -0.981785 -3.08452 0
M  V30 2102 H 187.69 -3.08622 -2.11431 0
M  V30 2103 H 189.023 -4.04936 -2.798 0
M  V30 2104 N 190.675 0.682077 -1.42076 0
M  V30 2105 C 191.605 1.80796 -1.47767 0
M  V30 2106 C 192.586 1.6677 -0.334954 0
M  V30 2107 O 193.771 1.863 -0.548264 0
M  V30 2108 C 190.901 3.19038 -1.37229 0
M  V30 2109 C 189.855 3.47789 -2.49453 0
M  V30 2110 C 189.181 4.8553 -2.23975 0
M  V30 2111 C 190.481 3.45411 -3.91776 0
M  V30 2112 H 192.175 1.7629 -2.41997 0
M  V30 2113 H 189.721 0.846721 -1.16476 0
M  V30 2114 H 191.674 3.97528 -1.39821 0
M  V30 2115 H 190.398 3.24204 -0.394907 0
M  V30 2116 H 189.057 2.71657 -2.46166 0
M  V30 2117 H 188.705 4.87337 -1.24547 0
M  V30 2118 H 188.405 5.0573 -2.99184 0
M  V30 2119 H 189.929 5.66312 -2.28304 0
M  V30 2120 H 191.343 4.13882 -3.96705 0
M  V30 2121 H 189.74 3.77145 -4.66778 0
M  V30 2122 H 190.81 2.44122 -4.18966 0
M  V30 2123 N 192.153 1.28127 0.917671 0
M  V30 2124 C 193.083 1.14248 2.03641 0
M  V30 2125 C 194.064 0.0412748 1.7005 0
M  V30 2126 O 195.249 0.217566 1.92977 0
M  V30 2127 C 192.379 0.799431 3.37974 0
M  V30 2128 C 191.333 1.85497 3.85713 0
M  V30 2129 C 190.659 1.36565 5.16966 0
M  V30 2130 C 191.959 3.26085 4.08002 0
M  V30 2131 H 193.653 2.07835 2.15511 0
M  V30 2132 H 191.199 1.00064 1.03553 0
M  V30 2133 H 193.152 0.689114 4.15727 0
M  V30 2134 H 191.876 -0.172145 3.26146 0
M  V30 2135 H 190.535 1.95437 3.10161 0
M  V30 2136 H 190.183 0.383253 5.01538 0
M  V30 2137 H 189.883 2.07143 5.49878 0
M  V30 2138 H 191.407 1.26848 5.97279 0
M  V30 2139 H 192.821 3.19089 4.76293 0
M  V30 2140 H 191.218 3.94462 4.52238 0
M  V30 2141 H 192.288 3.70394 3.12948 0
M  V30 2142 N 193.631 -1.12557 1.10312 0
M  V30 2143 C 194.578 -2.18247 0.750781 0
M  V30 2144 C 195.548 -1.63853 -0.272293 0
M  V30 2145 O 196.733 -1.90195 -0.151862 0
M  V30 2146 C 193.873 -3.44591 0.187379 0
M  V30 2147 C 192.986 -4.13046 1.2656 0
M  V30 2148 C 192.121 -5.27034 0.663978 0
M  V30 2149 C 191.16 -5.87353 1.72287 0
M  V30 2150 N 190.297 -6.92757 1.1416 0
M  V30 2151 H 195.137 -2.47732 1.65628 0
M  V30 2152 H 192.674 -1.21629 0.827337 0
M  V30 2153 H 194.632 -4.16904 -0.157148 0
M  V30 2154 H 193.262 -3.15527 -0.681355 0
M  V30 2155 H 192.314 -3.38924 1.72727 0
M  V30 2156 H 193.626 -4.53947 2.06721 0
M  V30 2157 H 192.78 -6.06104 0.268824 0
M  V30 2158 H 191.519 -4.87407 -0.169082 0
M  V30 2159 H 190.524 -5.06971 2.12746 0
M  V30 2160 H 191.749 -6.29051 2.55875 0
M  V30 2161 H 189.695 -6.5517 0.329984 0
M  V30 2162 H 189.612 -7.3225 1.88007 0
M  V30 2163 H 190.88 -7.75658 0.772956 0
M  V30 2164 N 195.109 -0.891671 -1.2995 0
M  V30 2165 C 196.339 -0.527893 -1.99742 0
M  V30 2166 C 196.747 0.88979 -1.66971 0
M  V30 2167 O 196.09 1.59766 -0.906667 0
M  V30 2168 C 196.152 -0.630804 -3.53922 0
M  V30 2169 C 195.816 -2.01401 -4.10228 0
M  V30 2170 C 196.813 -2.98422 -4.25724 0
M  V30 2171 C 194.498 -2.32121 -4.45449 0
M  V30 2172 C 196.492 -4.24293 -4.75662 0
M  V30 2173 C 194.179 -3.58237 -4.95086 0
M  V30 2174 C 195.177 -4.54137 -5.10146 0
M  V30 2175 O 194.865 -5.78014 -5.58708 0
M  V30 2176 H 194.597 -0.201953 -0.645129 0
M  V30 2177 H 197.151 -1.20076 -1.66646 0
M  V30 2178 H 195.381 0.0990616 -3.86573 0
M  V30 2179 H 197.07 -0.277338 -4.04951 0
M  V30 2180 H 197.836 -2.76001 -3.98809 0
M  V30 2181 H 193.715 -1.5824 -4.32991 0
M  V30 2182 H 197.259 -4.99153 -4.87332 0
M  V30 2183 H 193.156 -3.80491 -5.21437 0
M  V30 2184 H 193.924 -5.8049 -5.77039 0
M  V30 2185 N 196.587 1.43421 -0.653314 0
M  V30 2186 C 197.534 2.30768 0.0382271 0
M  V30 2187 C 198.504 1.44755 0.814576 0
M  V30 2188 O 199.689 1.73624 0.791162 0
M  V30 2189 C 196.829 3.30336 0.998599 0
M  V30 2190 C 195.942 4.31448 0.218342 0
M  V30 2191 C 195.077 5.18098 1.17252 0
M  V30 2192 C 194.116 6.10902 0.382702 0
M  V30 2193 N 193.253 6.90176 1.28848 0
M  V30 2194 H 198.093 2.89357 -0.712511 0
M  V30 2195 H 195.63 1.42548 -0.363128 0
M  V30 2196 H 197.588 3.86572 1.56901 0
M  V30 2197 H 196.218 2.73397 1.71621 0
M  V30 2198 H 195.27 3.77506 -0.46836 0
M  V30 2199 H 196.582 4.97227 -0.395812 0
M  V30 2200 H 195.736 5.7896 1.81356 0
M  V30 2201 H 194.475 4.52444 1.82058 0
M  V30 2202 H 193.48 5.49128 -0.27169 0
M  V30 2203 H 194.705 6.78598 -0.260957 0
M  V30 2204 H 192.651 6.27171 1.92334 0
M  V30 2205 H 192.568 7.52478 0.728887 0
M  V30 2206 H 193.836 7.55543 1.91766 0
M  V30 2207 N 198.065 0.39524 1.52563 0
M  V30 2208 C 199.028 -0.425001 2.25225 0
M  V30 2209 C 200.028 -0.985266 1.27079 0
M  V30 2210 O 201.218 -0.866332 1.5113 0
M  V30 2211 C 198.35 -1.59686 3.01186 0
M  V30 2212 H 199.543 0.211233 2.99155 0
M  V30 2213 H 197.096 0.147472 1.55603 0
M  V30 2214 H 197.831 -2.27035 2.31572 0
M  V30 2215 H 197.616 -1.20176 3.73229 0
M  V30 2216 H 199.106 -2.17743 3.5634 0
M  V30 2217 N 199.544 -1.57102 0.125237 0
M  V30 2218 C 200.791 -1.95407 -0.531248 0
M  V30 2219 C 201.119 -1.0089 -1.66287 0
M  V30 2220 O 200.374 -0.0339431 -1.95671 0
M  V30 2221 C 200.673 -3.40096 -1.09862 0
M  V30 2222 C 200.339 -4.50815 -0.0876989 0
M  V30 2223 C 199.001 -4.80824 0.19026 0
M  V30 2224 C 201.353 -5.17724 0.600902 0
M  V30 2225 C 198.681 -5.75058 1.163 0
M  V30 2226 C 201.033 -6.13005 1.56231 0
M  V30 2227 C 199.697 -6.41403 1.8482 0
M  V30 2228 H 198.967 -0.715046 -0.194397 0
M  V30 2229 H 201.614 -1.90373 0.207463 0
M  V30 2230 H 199.919 -3.41855 -1.91422 0
M  V30 2231 H 201.616 -3.6705 -1.61478 0
M  V30 2232 H 198.206 -4.27444 -0.314528 0
M  V30 2233 H 202.39 -4.94691 0.399333 0
M  V30 2234 H 197.646 -5.95362 1.39117 0
M  V30 2235 H 201.82 -6.63934 2.10153 0
M  V30 2236 H 199.447 -7.14229 2.60349 0
M  V30 2237 N 201.022 0.148545 -1.56898 0
M  V30 2238 C 202.271 0.85984 -1.82454 0
M  V30 2239 C 202.584 1.82406 -0.706229 0
M  V30 2240 O 203.79 2.57938 -0.847349 0
M  V30 2241 C 202.246 1.57967 -3.2338 0
M  V30 2242 C 201.854 0.65794 -4.43142 0
M  V30 2243 C 203.598 2.27784 -3.58211 0
M  V30 2244 C 201.505 1.3793 -5.75091 0
M  V30 2245 H 200.435 0.324834 -0.68044 0
M  V30 2246 H 203.086 0.112588 -1.83154 0
M  V30 2247 H 201.468 2.37249 -3.17063 0
M  V30 2248 H 202.642 -0.0995497 -4.60692 0
M  V30 2249 H 200.957 0.0682643 -4.16344 0
M  V30 2250 H 203.554 2.8239 -4.54048 0
M  V30 2251 H 203.897 3.04204 -2.84193 0
M  V30 2252 H 204.43 1.55421 -3.66182 0
M  V30 2253 H 201.169 0.656982 -6.52199 0
M  V30 2254 H 200.689 2.10954 -5.61479 0
M  V30 2255 H 202.368 1.92063 -6.17835 0
M  V30 2256 N 202.5 1.5196 0.417844 0
M  V30 2257 C 203.916 1.40569 0.755816 0
M  V30 2258 C 204.116 0.503316 1.95113 0
M  V30 2259 O 203.172 -0.0341925 2.52477 0
M  V30 2260 C 204.485 2.82947 1.01791 0
M  V30 2261 C 206.033 2.92231 1.12116 0
M  V30 2262 C 206.508 4.35559 1.41608 0
M  V30 2263 N 207.999 4.38753 1.48491 0
M  V30 2264 C 208.734 5.46705 1.7292 0
M  V30 2265 N 208.23 6.64788 1.95011 0
M  V30 2266 N 210.023 5.34209 1.74863 0
M  V30 2267 H 202.174 2.09168 -0.369098 0
M  V30 2268 H 204.437 0.942409 -0.102809 0
M  V30 2269 H 204.143 3.5106 0.212081 0
M  V30 2270 H 204.017 3.23462 1.94042 0
M  V30 2271 H 206.404 2.24304 1.9176 0
M  V30 2272 H 206.485 2.55185 0.177225 0
M  V30 2273 H 206.129 5.04042 0.624848 0
M  V30 2274 H 206.059 4.70133 2.37239 0
M  V30 2275 H 208.55 3.5363 1.33244 0
M  V30 2276 H 208.863 7.42845 2.13076 0
M  V30 2277 H 207.208 6.67869 1.92293 0
M  V30 2278 H 210.399 4.40937 1.57137 0
M  V30 2279 H 210.572 6.18415 1.93563 0
M  V30 2280 N 203.978 -0.674533 1.42435 0
M  V30 2281 C 205.227 -1.43034 1.42212 0
M  V30 2282 C 205.54 -1.95555 0.0420788 0
M  V30 2283 O 206.746 -2.71374 -0.0827558 0
M  V30 2284 C 205.202 -2.58748 2.50155 0
M  V30 2285 C 204.81 -2.12925 3.94166 0
M  V30 2286 C 206.554 -3.36257 2.59098 0
M  V30 2287 C 204.461 -3.25723 4.93618 0
M  V30 2288 H 203.391 -0.537345 0.528939 0
M  V30 2289 H 206.042 -0.73024 1.68344 0
M  V30 2290 H 204.424 -3.31128 2.17188 0
M  V30 2291 H 205.598 -1.47697 4.36488 0
M  V30 2292 H 203.913 -1.48354 3.89076 0
M  V30 2293 H 206.51 -4.20264 3.30578 0
M  V30 2294 H 206.853 -3.82866 1.63461 0
M  V30 2295 H 207.386 -2.70947 2.9126 0
M  V30 2296 H 204.125 -2.84105 5.90732 0
M  V30 2297 H 203.645 -3.89732 4.55926 0
M  V30 2298 H 205.324 -3.91186 5.15347 0
M  V30 2299 N 205.456 -1.28612 -0.910864 0
M  V30 2300 C 206.867 -1.14406 -1.47541 0
M  V30 2301 C 207.218 0.264901 -1.94403 0
M  V30 2302 O 206.343 1.15942 -1.82719 0
M  V30 2303 C 206.938 -2.07073 -2.68153 0
M  V30 2304 C 205.497 -1.96923 -3.20778 0
M  V30 2305 C 204.644 -1.98646 -1.93481 0
M  V30 2306 H 207.595 -1.41259 -0.723291 0
M  V30 2307 H 207.616 -1.63642 -3.43514 0
M  V30 2308 H 207.128 -3.09611 -2.34015 0
M  V30 2309 H 205.229 -0.97433 -3.59635 0
M  V30 2310 H 205.342 -2.84026 -3.85832 0
M  V30 2311 H 203.706 -1.43093 -2.10705 0
M  V30 2312 H 204.489 -3.02868 -1.61634 0
M  V30 2313 N 206.934 1.1197 -1.10907 0
M  V30 2314 C 208.183 1.82947 -0.849302 0
M  V30 2315 C 208.496 1.85275 0.627112 0
M  V30 2316 O 209.702 2.52296 1.00295 0
M  V30 2317 C 208.158 3.28529 -1.46959 0
M  V30 2318 C 207.766 3.34546 -2.97965 0
M  V30 2319 C 209.51 4.04443 -1.28942 0
M  V30 2320 C 207.417 4.74491 -3.53004 0
M  V30 2321 H 206.347 0.685477 -0.314065 0
M  V30 2322 H 208.998 1.2604 -1.33365 0
M  V30 2323 H 207.38 3.85333 -0.912917 0
M  V30 2324 H 208.554 2.87654 -3.59989 0
M  V30 2325 H 206.869 2.72108 -3.15192 0
M  V30 2326 H 209.466 5.07787 -1.67502 0
M  V30 2327 H 209.809 4.15656 -0.231456 0
M  V30 2328 H 210.342 3.5401 -1.81443 0
M  V30 2329 H 207.081 4.68474 -4.58489 0
M  V30 2330 H 206.601 5.21816 -2.9575 0
M  V30 2331 H 208.28 5.4344 -3.51115 0
M  V30 2332 N 208.412 0.89855 1.29475 0
M  V30 2333 C 209.823 0.572537 1.77705 0
M  V30 2334 C 210.174 -0.911778 1.73727 0
M  V30 2335 O 209.299 -1.71288 1.32247 0
M  V30 2336 C 209.894 1.03252 3.22683 0
M  V30 2337 C 208.453 0.757687 3.68695 0
M  V30 2338 C 207.6 1.20787 2.49612 0
M  V30 2339 H 210.551 1.08139 1.16153 0
M  V30 2340 H 210.572 0.367307 3.78723 0
M  V30 2341 H 210.084 2.11285 3.25546 0
M  V30 2342 H 208.185 -0.310079 3.71308 0
M  V30 2343 H 208.298 1.35476 4.59547 0
M  V30 2344 H 206.662 0.626888 2.46865 0
M  V30 2345 H 207.445 2.29622 2.55203 0
M  V30 2346 N 209.89 -1.43072 0.660911 0
M  V30 2347 C 211.118 -2.06067 0.185422 0
M  V30 2348 C 211.533 -1.49582 -1.15198 0
M  V30 2349 O 210.89 -0.630134 -1.71276 0
M  V30 2350 C 210.941 -3.61371 0.0966523 0
M  V30 2351 O 210.662 -4.15758 1.38119 0
M  V30 2352 C 212.163 -4.41455 -0.403996 0
M  V30 2353 H 209.383 -0.664459 0.0934604 0
M  V30 2354 H 211.927 -1.83447 0.90373 0
M  V30 2355 H 210.082 -3.8315 -0.572259 0
M  V30 2356 H 210.496 -5.09499 1.24542 0
M  V30 2357 H 211.97 -5.50437 -0.415045 0
M  V30 2358 H 212.447 -4.15036 -1.43674 0
M  V30 2359 H 213.053 -4.24663 0.232691 0
M  V30 2360 N 211.368 -0.403325 -1.52352 0
M  V30 2361 C 212.784 -0.0539281 -1.59509 0
M  V30 2362 C 212.984 1.43307 -1.41652 0
M  V30 2363 O 212.04 2.19924 -1.24056 0
M  V30 2364 C 213.353 -0.543654 -2.95745 0
M  V30 2365 C 214.901 -0.501125 -3.08962 0
M  V30 2366 C 215.376 -0.967267 -4.47669 0
M  V30 2367 N 216.867 -0.923849 -4.53893 0
M  V30 2368 C 217.602 -1.25578 -5.5948 0
M  V30 2369 N 217.098 -1.65889 -6.72646 0
M  V30 2370 N 218.891 -1.17613 -5.49658 0
M  V30 2371 H 211.042 -1.37123 -1.62206 0
M  V30 2372 H 213.305 -0.56294 -0.76276 0
M  V30 2373 H 213.011 -1.58275 -3.14073 0
M  V30 2374 H 212.885 0.0498042 -3.77167 0
M  V30 2375 H 215.272 0.528909 -2.90321 0
M  V30 2376 H 215.353 -1.13056 -2.2946 0
M  V30 2377 H 214.997 -1.9956 -4.67053 0
M  V30 2378 H 214.927 -0.314698 -5.25659 0
M  V30 2379 H 217.418 -0.627403 -3.72655 0
M  V30 2380 H 217.731 -1.89543 -7.49195 0
M  V30 2381 H 216.076 -1.69787 -6.73942 0
M  V30 2382 H 219.267 -0.860115 -4.6013 0
M  V30 2383 H 219.44 -1.43812 -6.3184 0
M  V30 2384 N 212.846 1.57033 -0.133567 0
M  V30 2385 C 214.262 1.58035 0.222944 0
M  V30 2386 C 214.462 1.14713 1.6566 0
M  V30 2387 O 213.518 0.841218 2.38075 0
M  V30 2388 C 214.831 3.00691 -0.0236116 0
M  V30 2389 C 216.379 3.12973 0.0411512 0
M  V30 2390 C 216.854 4.57654 -0.177899 0
M  V30 2391 N 218.345 4.63033 -0.124365 0
M  V30 2392 C 219.08 5.72771 -0.268553 0
M  V30 2393 N 218.576 6.91206 -0.46972 0
M  V30 2394 N 220.369 5.61718 -0.2071 0
M  V30 2395 H 212.52 1.8349 -1.06981 0
M  V30 2396 H 214.783 0.848677 -0.422436 0
M  V30 2397 H 214.489 3.36726 -1.0153 0
M  V30 2398 H 214.363 3.70614 0.701808 0
M  V30 2399 H 216.75 2.76787 1.02338 0
M  V30 2400 H 216.831 2.45564 -0.716383 0
M  V30 2401 H 216.475 4.94542 -1.15717 0
M  V30 2402 H 216.405 5.23173 0.599797 0
M  V30 2403 H 218.896 3.7789 0.027011 0
M  V30 2404 H 219.209 7.70693 -0.570212 0
M  V30 2405 H 217.554 6.93156 -0.505876 0
M  V30 2406 H 220.745 4.68072 -0.0507986 0
M  V30 2407 H 220.918 6.47195 -0.322909 0
M  V30 2408 N 214.325 -0.140222 1.56975 0
M  V30 2409 C 215.275 -1.17827 1.95194 0
M  V30 2410 C 216.259 -1.38195 0.824075 0
M  V30 2411 O 217.451 -1.39643 1.0876 0
M  V30 2412 C 214.58 -2.51024 2.34184 0
M  V30 2413 C 213.666 -2.3422 3.53556 0
M  V30 2414 N 214.057 -1.87185 4.69889 0
M  V30 2415 C 212.355 -2.64949 3.58773 0
M  V30 2416 C 213.056 -1.83586 5.5197 0
M  V30 2417 N 212.032 -2.2715 4.93866 0
M  V30 2418 H 215.834 -0.806817 2.82609 0
M  V30 2419 H 213.348 -0.348208 1.58623 0
M  V30 2420 H 215.345 -3.26074 2.59772 0
M  V30 2421 H 214.005 -2.88945 1.48124 0
M  V30 2422 H 215.016 -1.57048 4.93514 0
M  V30 2423 H 211.693 -3.067 2.8327 0
M  V30 2424 H 213.083 -1.48655 6.55249 0
M  V30 2425 N 215.803 -1.52179 -0.40978 0
M  V30 2426 C 217.031 -1.70054 -1.17853 0
M  V30 2427 C 217.446 -0.409735 -1.843 0
M  V30 2428 O 216.803 0.614183 -1.71855 0
M  V30 2429 C 216.854 -2.83568 -2.24213 0
M  V30 2430 O 216.575 -4.0765 -1.60478 0
M  V30 2431 C 218.076 -3.12947 -3.13973 0
M  V30 2432 H 215.296 -0.569917 -0.354169 0
M  V30 2433 H 217.84 -1.98734 -0.482198 0
M  V30 2434 H 215.995 -2.57409 -2.89516 0
M  V30 2435 H 216.409 -4.70899 -2.30986 0
M  V30 2436 H 217.883 -3.95889 -3.84677 0
M  V30 2437 H 218.36 -2.26472 -3.76307 0
M  V30 2438 H 218.966 -3.40868 -2.5434 0
M  V30 2439 N 217.281 0.66697 -1.42791 0
M  V30 2440 C 218.528 1.42699 -1.43678 0
M  V30 2441 C 218.856 1.94419 -0.0560425 0
M  V30 2442 O 218.111 1.7182 0.936831 0
M  V30 2443 C 218.41 2.6349 -2.4147 0
M  V30 2444 C 218.076 2.30267 -3.8767 0
M  V30 2445 C 216.738 2.20918 -4.27491 0
M  V30 2446 C 219.09 2.03435 -4.79858 0
M  V30 2447 C 216.418 1.82873 -5.57471 0
M  V30 2448 C 218.77 1.66892 -6.10188 0
M  V30 2449 C 217.434 1.56058 -6.49001 0
M  V30 2450 H 216.704 0.522171 -0.525755 0
M  V30 2451 H 219.351 0.759785 -1.75783 0
M  V30 2452 H 217.656 3.35279 -2.0272 0
M  V30 2453 H 219.353 3.21684 -2.39417 0
M  V30 2454 H 215.943 2.38449 -3.56146 0
M  V30 2455 H 220.127 2.09586 -4.49875 0
M  V30 2456 H 215.383 1.7306 -5.86396 0
M  V30 2457 H 219.557 1.45157 -6.81104 0
M  V30 2458 H 217.184 1.26348 -7.49627 0
M  V30 2459 N 218.759 1.29093 0.90403 0
M  V30 2460 C 220.175 1.07011 1.1841 0
M  V30 2461 C 220.375 -0.181358 2.00682 0
M  V30 2462 O 219.431 -0.880331 2.36657 0
M  V30 2463 C 220.744 2.32311 1.90924 0
M  V30 2464 C 222.292 2.37587 2.03768 0
M  V30 2465 C 222.767 3.62679 2.79693 0
M  V30 2466 N 224.258 3.63376 2.87249 0
M  V30 2467 C 224.993 4.56848 3.46522 0
M  V30 2468 N 224.489 5.60648 4.06996 0
M  V30 2469 N 226.282 4.44426 3.44154 0
M  V30 2470 H 218.433 2.09412 0.354993 0
M  V30 2471 H 220.696 0.922181 0.219742 0
M  V30 2472 H 220.402 3.23536 1.37905 0
M  V30 2473 H 220.276 2.39483 2.91424 0
M  V30 2474 H 222.663 1.46853 2.55965 0
M  V30 2475 H 222.744 2.34403 1.02415 0
M  V30 2476 H 222.388 4.53762 2.28173 0
M  V30 2477 H 222.318 3.63119 3.81381 0
M  V30 2478 H 224.809 2.88321 2.44293 0
M  V30 2479 H 225.122 6.28101 4.50232 0
M  V30 2480 H 223.467 5.64463 4.05471 0
M  V30 2481 H 226.658 3.62529 2.96126 0
M  V30 2482 H 226.831 5.17457 3.90054 0
M  V30 2483 N 220.237 -1.11381 1.11499 0
M  V30 2484 C 221.653 -1.35143 0.849031 0
M  V30 2485 C 221.853 -1.94515 -0.525938 0
M  V30 2486 O 220.909 -2.1785 -1.27662 0
M  V30 2487 C 222.222 -2.28249 1.95762 0
M  V30 2488 C 223.77 -2.41812 1.98736 0
M  V30 2489 C 224.245 -3.3824 3.088 0
M  V30 2490 N 225.736 -3.45803 3.08179 0
M  V30 2491 C 226.471 -4.20358 3.89982 0
M  V30 2492 N 225.967 -4.97884 4.8175 0
M  V30 2493 N 227.76 -4.15877 3.78157 0
M  V30 2494 H 219.911 -0.712062 2.00109 0
M  V30 2495 H 222.174 -0.376025 0.870235 0
M  V30 2496 H 221.88 -1.91817 2.94787 0
M  V30 2497 H 221.754 -3.28473 1.85433 0
M  V30 2498 H 224.141 -2.77518 1.00338 0
M  V30 2499 H 224.222 -1.41437 2.13141 0
M  V30 2500 H 223.866 -3.03261 4.07425 0
M  V30 2501 H 223.796 -4.38471 2.91635 0
M  V30 2502 H 226.287 -2.90506 2.41691 0
M  V30 2503 H 226.6 -5.52142 5.40702 0
M  V30 2504 H 224.945 -4.97043 4.85771 0
M  V30 2505 H 228.136 -3.544 3.05808 0
M  V30 2506 H 228.309 -4.73723 4.42143 0
M  V30 2507 N 221.715 -0.905404 -1.28997 0
M  V30 2508 C 222.647 -0.344748 -2.26592 0
M  V30 2509 C 223.66 0.512135 -1.54535 0
M  V30 2510 O 224.849 0.328368 -1.75454 0
M  V30 2511 C 221.949 0.526587 -3.34784 0
M  V30 2512 C 221.122 -0.305871 -4.36329 0
M  V30 2513 C 220.181 0.499209 -5.23827 0
M  V30 2514 O 219.207 -0.0853004 -5.69136 0
M  V30 2515 N 220.409 1.80408 -5.51755 0
M  V30 2516 H 223.174 -1.18359 -2.75338 0
M  V30 2517 H 220.735 -0.770481 -1.42391 0
M  V30 2518 H 222.727 1.07171 -3.90252 0
M  V30 2519 H 221.297 1.26613 -2.85811 0
M  V30 2520 H 220.517 -1.0324 -3.80441 0
M  V30 2521 H 221.805 -0.875773 -5.01206 0
M  V30 2522 H 221.203 2.3016 -5.16762 0
M  V30 2523 H 219.76 2.29621 -6.10014 0
M  V30 2524 N 223.193 1.4272 -0.668489 0
M  V30 2525 C 224.141 2.32586 0.0254857 0
M  V30 2526 C 225.135 1.49471 0.797176 0
M  V30 2527 O 226.341 1.65583 0.705853 0
M  V30 2528 H 222.716 0.751514 0.0270339 0
M  V30 2529 H 224.687 2.88823 -0.749936 0
M  V30 2530 C 223.436 3.3397 0.967427 0
M  V30 2531 H 222.759 3.97961 0.383048 0
M  V30 2532 H 224.199 3.9945 1.42181 0
M  V30 2533 C 222.658 2.65744 2.0708 0
M  V30 2534 O 223.188 2.48454 3.15648 0
M  V30 2535 N 221.394 2.2487 1.8407 0
M  V30 2536 H 220.941 2.39132 0.95778 0
M  V30 2537 H 220.899 1.79552 2.58086 0
M  V30 2538 N 224.671 0.411399 1.52136 0
M  V30 2539 C 225.917 -0.163888 2.02137 0
M  V30 2540 C 226.25 -1.44597 1.29636 0
M  V30 2541 O 225.525 -1.90272 0.403353 0
M  V30 2542 C 225.808 -0.40927 3.57767 0
M  V30 2543 C 225.661 0.889643 4.40914 0
M  V30 2544 C 226.98 -1.19042 4.23694 0
M  V30 2545 H 224.099 -0.0580896 0.734707 0
M  V30 2546 H 226.741 0.54531 1.82007 0
M  V30 2547 H 224.891 -1.0134 3.7505 0
M  V30 2548 H 226.563 1.52575 4.35337 0
M  V30 2549 H 224.806 1.50011 4.07037 0
M  V30 2550 H 225.477 0.672314 5.4789 0
M  V30 2551 H 227.953 -0.678942 4.10524 0
M  V30 2552 H 226.829 -1.33086 5.32522 0
M  V30 2553 H 227.09 -2.21166 3.82803 0
M  V30 2554 N 226.149 -1.5696 0.141893 0
M  V30 2555 C 227.565 -1.58151 -0.21456 0
M  V30 2556 C 227.765 -1.1559 -1.65049 0
M  V30 2557 O 226.821 -0.853832 -2.37626 0
M  V30 2558 C 228.134 -3.00674 0.0395576 0
M  V30 2559 C 229.682 -3.1299 -0.0245529 0
M  V30 2560 C 230.157 -4.57554 0.202167 0
M  V30 2561 N 231.648 -4.62961 0.148919 0
M  V30 2562 C 232.383 -5.7262 0.298924 0
M  V30 2563 N 231.879 -6.90947 0.50637 0
M  V30 2564 N 233.672 -5.61601 0.236886 0
M  V30 2565 H 225.823 -1.8292 1.07953 0
M  V30 2566 H 228.086 -0.846425 0.42693 0
M  V30 2567 H 227.792 -3.36183 1.03315 0
M  V30 2568 H 227.666 -3.70981 -0.682143 0
M  V30 2569 H 230.053 -2.77326 -1.00869 0
M  V30 2570 H 230.134 -2.4518 0.729396 0
M  V30 2571 H 229.778 -4.93922 1.18338 0
M  V30 2572 H 229.708 -5.23484 -0.572044 0
M  V30 2573 H 232.199 -3.77899 -0.00697015 0
M  V30 2574 H 232.512 -7.7038 0.611076 0
M  V30 2575 H 230.857 -6.92878 0.542628 0
M  V30 2576 H 234.048 -4.68039 0.0756209 0
M  V30 2577 H 234.221 -6.47015 0.357227 0
M  V30 2578 N 227.627 0.131896 -1.57047 0
M  V30 2579 C 228.537 1.1815 -2.02676 0
M  V30 2580 C 229.553 1.46113 -0.944824 0
M  V30 2581 O 230.729 1.57485 -1.25541 0
M  V30 2582 C 227.794 2.49139 -2.41103 0
M  V30 2583 C 226.855 2.28688 -3.63318 0
M  V30 2584 C 226.088 3.53431 -3.99903 0
M  V30 2585 O 226.311 4.60223 -3.36973 0
M  V30 2586 O 225.245 3.45198 -4.93074 0
M  V30 2587 H 229.071 0.824069 -2.92306 0
M  V30 2588 H 226.656 0.341745 -1.45439 0
M  V30 2589 H 228.538 3.26338 -2.66611 0
M  V30 2590 H 227.213 2.84382 -1.54624 0
M  V30 2591 H 226.12 1.4939 -3.42977 0
M  V30 2592 H 227.453 1.98355 -4.50462 0
M  V30 2593 N 229.106 1.52395 0.401703 0
M  V30 2594 C 230.016 1.7917 1.51444 0
M  V30 2595 C 231.032 0.677691 1.6026 0
M  V30 2596 O 232.208 0.963909 1.76835 0
M  V30 2597 C 229.273 1.94347 2.87107 0
M  V30 2598 C 228.334 3.18257 2.88116 0
M  V30 2599 C 227.567 3.32701 4.17308 0
M  V30 2600 O 227.79 2.52238 5.11598 0
M  V30 2601 O 226.724 4.25891 4.25324 0
M  V30 2602 H 230.55 2.73633 1.31752 0
M  V30 2603 H 228.135 1.3733 0.588296 0
M  V30 2604 H 230.017 2.06109 3.67555 0
M  V30 2605 H 228.692 1.03073 3.06851 0
M  V30 2606 H 227.599 3.11947 2.06494 0
M  V30 2607 H 228.932 4.09336 2.73322 0
M  V30 2608 N 230.584 -0.659388 1.43143 0
M  V30 2609 C 231.995 -1.24041 1.39537 0
M  V30 2610 C 232.346 -1.95963 0.0963364 0
M  V30 2611 O 231.471 -2.00892 -0.804438 0
M  V30 2612 C 232.066 -2.25601 2.52764 0
M  V30 2613 C 230.625 -2.79195 2.52443 0
M  V30 2614 C 229.772 -1.53743 2.30778 0
M  V30 2615 H 232.723 -0.451792 1.52133 0
M  V30 2616 H 232.744 -3.07651 2.23899 0
M  V30 2617 H 232.256 -1.73226 3.47296 0
M  V30 2618 H 230.357 -3.35649 1.61773 0
M  V30 2619 H 230.47 -3.2716 3.50004 0
M  V30 2620 H 228.834 -1.80869 1.79328 0
M  V30 2621 H 229.617 -1.03312 3.27386 0
M  V30 2622 N 232.062 -1.29571 -0.897171 0
M  V30 2623 C 233.478 -1.07637 -1.17841 0
M  V30 2624 C 233.678 0.170713 -2.00776 0
M  V30 2625 O 232.734 0.867768 -2.3712 0
M  V30 2626 C 234.047 -2.3332 -1.8969 0
M  V30 2627 C 235.595 -2.38664 -2.02505 0
M  V30 2628 C 236.07 -3.64157 -2.77765 0
M  V30 2629 N 237.561 -3.64894 -2.85318 0
M  V30 2630 C 238.296 -4.58679 -3.44094 0
M  V30 2631 N 237.792 -5.62799 -4.04017 0
M  V30 2632 N 239.585 -4.46245 -3.41793 0
M  V30 2633 H 231.736 -2.09598 -0.343883 0
M  V30 2634 H 233.999 -0.923333 -0.214848 0
M  V30 2635 H 233.705 -3.24262 -1.36187 0
M  V30 2636 H 233.579 -2.41025 -2.9015 0
M  V30 2637 H 235.966 -1.48208 -2.55183 0
M  V30 2638 H 236.047 -2.34943 -1.01171 0
M  V30 2639 H 235.691 -4.54965 -2.25763 0
M  V30 2640 H 235.621 -3.65137 -3.7945 0
M  V30 2641 H 238.112 -2.89613 -2.42761 0
M  V30 2642 H 238.425 -6.3048 -4.46895 0
M  V30 2643 H 236.77 -5.66605 -4.02472 0
M  V30 2644 H 239.961 -3.64094 -2.94199 0
M  V30 2645 H 240.134 -5.19518 -3.87304 0
M  V30 2646 N 233.54 1.10788 -1.12088 0
M  V30 2647 C 234.45 2.20599 -0.798338 0
M  V30 2648 C 235.466 1.72712 0.21135 0
M  V30 2649 O 236.642 2.01348 0.0458477 0
M  V30 2650 C 233.707 3.45771 -0.253674 0
M  V30 2651 C 232.768 4.08411 -1.32283 0
M  V30 2652 C 232.001 5.27608 -0.80406 0
M  V30 2653 O 232.224 5.69241 0.363478 0
M  V30 2654 O 231.158 5.8101 -1.57198 0
M  V30 2655 H 234.984 2.50614 -1.7154 0
M  V30 2656 H 232.569 1.19454 -0.897275 0
M  V30 2657 H 234.451 4.21376 0.0453691 0
M  V30 2658 H 233.126 3.1739 0.636005 0
M  V30 2659 H 232.033 3.34507 -1.67499 0
M  V30 2660 H 233.366 4.40986 -2.18614 0
M  V30 2661 N 235.018 0.912232 1.28515 0
M  V30 2662 C 235.951 0.343928 2.25593 0
M  V30 2663 C 236.929 -0.550994 1.5298 0
M  V30 2664 O 238.113 -0.494991 1.81885 0
M  V30 2665 C 235.24 -0.508525 3.34861 0
M  V30 2666 C 234.286 0.320808 4.25292 0
M  V30 2667 S 235.119 1.72658 5.06902 0
M  V30 2668 C 236.275 0.881394 6.19663 0
M  V30 2669 H 236.508 1.16674 2.73449 0
M  V30 2670 H 234.041 0.713384 1.36931 0
M  V30 2671 H 235.999 -0.994539 3.9827 0
M  V30 2672 H 234.66 -1.30571 2.85675 0
M  V30 2673 H 233.853 -0.330941 5.02912 0
M  V30 2674 H 233.455 0.74042 3.66598 0
M  V30 2675 H 235.747 0.110359 6.7741 0
M  V30 2676 H 236.69 1.63009 6.89082 0
M  V30 2677 H 237.098 0.430239 5.62858 0
M  V30 2678 N 236.496 -1.42363 0.676048 0
M  V30 2679 C 237.907 -1.84649 0.275948 0
M  V30 2680 C 238.258 -1.56588 -1.18214 0
M  V30 2681 O 237.383 -1.02634 -1.90513 0
M  V30 2682 C 237.978 -3.35178 0.494053 0
M  V30 2683 C 236.537 -3.76109 0.148061 0
M  V30 2684 C 235.684 -2.65931 0.785891 0
M  V30 2685 H 238.635 -1.32192 0.878121 0
M  V30 2686 H 238.656 -3.79655 -0.25343 0
M  V30 2687 H 238.168 -3.55571 1.55535 0
M  V30 2688 H 236.269 -3.61323 -0.909742 0
M  V30 2689 H 236.382 -4.7546 0.589454 0
M  V30 2690 H 234.746 -2.53773 0.217113 0
M  V30 2691 H 235.529 -2.89146 1.85067 0
M  V30 2692 N 237.974 -0.419461 -1.51915 0
M  V30 2693 C 239.199 0.154572 -2.06823 0
M  V30 2694 C 239.624 1.3722 -1.28656 0
M  V30 2695 O 238.982 1.78461 -0.319583 0
M  V30 2696 C 239.03 0.473172 -3.57482 0
M  V30 2697 O 238.134 1.56255 -3.81652 0
M  V30 2698 H 237.475 0.0096924 -0.663929 0
M  V30 2699 H 240.005 -0.595642 -1.95738 0
M  V30 2700 H 240.015 0.728825 -4.01438 0
M  V30 2701 H 238.69 -0.416873 -4.13805 0
M  V30 2702 H 237.267 1.29825 -3.49571 0
M  V30 2703 N 239.452 1.56882 -0.150215 0
M  V30 2704 C 240.382 2.19935 0.784284 0
M  V30 2705 C 241.363 1.14854 1.25469 0
M  V30 2706 O 242.548 1.43209 1.31168 0
M  V30 2707 C 239.678 2.82349 2.02229 0
M  V30 2708 C 238.632 3.93285 1.68853 0
M  V30 2709 C 237.958 4.42649 2.99944 0
M  V30 2710 C 239.258 5.13904 0.932714 0
M  V30 2711 H 240.952 2.9828 0.258781 0
M  V30 2712 H 238.498 1.43473 0.123029 0
M  V30 2713 H 240.451 3.25126 2.68088 0
M  V30 2714 H 239.175 2.0134 2.57157 0
M  V30 2715 H 237.834 3.5113 1.05371 0
M  V30 2716 H 237.482 3.58458 3.52869 0
M  V30 2717 H 237.182 5.17476 2.78374 0
M  V30 2718 H 238.706 4.88099 3.66868 0
M  V30 2719 H 240.12 5.53506 1.49345 0
M  V30 2720 H 238.517 5.94515 0.81684 0
M  V30 2721 H 239.587 4.84842 -0.0749568 0
M  V30 2722 N 240.93 -0.123565 1.57115 0
M  V30 2723 C 242.341 -0.681198 1.73829 0
M  V30 2724 C 242.692 -1.80535 0.768214 0
M  V30 2725 O 241.817 -2.16317 -0.0599103 0
M  V30 2726 C 242.412 -1.24246 3.15196 0
M  V30 2727 C 240.971 -1.74643 3.33432 0
M  V30 2728 C 240.118 -0.644284 2.69711 0
M  V30 2729 H 243.069 0.102315 1.5837 0
M  V30 2730 H 243.09 -2.11216 3.16493 0
M  V30 2731 H 242.602 -0.424062 3.85776 0
M  V30 2732 H 240.703 -2.58974 2.67886 0
M  V30 2733 H 240.816 -1.85902 4.41562 0
M  V30 2734 H 239.18 -1.07676 2.3082 0
M  V30 2735 H 239.963 0.163058 3.42913 0
M  V30 2736 N 242.408 -1.52605 -0.393616 0
M  V30 2737 C 243.824 -1.41753 -0.733357 0
M  V30 2738 C 244.024 -0.534293 -1.94287 0
M  V30 2739 O 243.08 -0.0059787 -2.52499 0
M  V30 2740 C 244.393 -2.84531 -0.972772 0
M  V30 2741 C 245.941 -2.93978 -1.07453 0
M  V30 2742 C 246.416 -4.37756 -1.3466 0
M  V30 2743 N 247.907 -4.4106 -1.41492 0
M  V30 2744 C 248.642 -5.49387 -1.642 0
M  V30 2745 N 248.138 -6.67806 -1.8441 0
M  V30 2746 N 249.931 -5.36923 -1.66342 0
M  V30 2747 H 242.082 -2.08555 0.402328 0
M  V30 2748 H 244.345 -0.940654 0.117789 0
M  V30 2749 H 244.051 -3.51353 -0.156204 0
M  V30 2750 H 243.925 -3.26508 -1.88871 0
M  V30 2751 H 246.312 -2.27326 -1.88167 0
M  V30 2752 H 246.393 -2.55435 -0.136605 0
M  V30 2753 H 246.037 -5.04972 -0.544581 0
M  V30 2754 H 245.967 -4.73848 -2.2973 0
M  V30 2755 H 248.458 -3.55705 -1.27601 0
M  V30 2756 H 248.771 -7.46141 -2.01231 0
M  V30 2757 H 247.116 -6.70843 -1.81644 0
M  V30 2758 H 250.307 -4.43381 -1.50102 0
M  V30 2759 H 250.48 -6.21416 -1.837 0
M  V30 2760 N 243.887 0.651787 -1.4349 0
M  V30 2761 C 245.112 1.44434 -1.48841 0
M  V30 2762 C 245.537 1.8779 -0.107955 0
M  V30 2763 O 244.895 1.57464 0.898602 0
M  V30 2764 C 244.943 2.65458 -2.44059 0
M  V30 2765 O 244.047 3.64566 -1.92784 0
M  V30 2766 H 243.388 0.433005 -0.503391 0
M  V30 2767 H 245.918 0.797451 -1.88419 0
M  V30 2768 H 245.928 3.13255 -2.6141 0
M  V30 2769 H 244.603 2.33244 -3.4434 0
M  V30 2770 H 243.18 3.23716 -1.851 0
M  V30 2771 N 245.365 1.30045 0.890287 0
M  V30 2772 C 246.59 1.21598 1.68014 0
M  V30 2773 C 247.015 -0.218678 1.86825 0
M  V30 2774 O 246.373 -1.15756 1.39536 0
M  V30 2775 C 246.421 1.94434 3.03691 0
M  V30 2776 O 245.525 1.2678 3.92429 0
M  V30 2777 H 244.866 0.420856 0.513592 0
M  V30 2778 H 247.396 1.71775 1.11151 0
M  V30 2779 H 247.406 2.03251 3.5377 0
M  V30 2780 H 246.081 2.98777 2.89318 0
M  V30 2781 H 244.658 1.26282 3.50866 0
M  V30 2782 N 246.843 -1.10192 1.12674 0
M  V30 2783 C 247.753 -2.20172 0.810026 0
M  V30 2784 C 248.769 -1.72821 -0.202188 0
M  V30 2785 O 249.945 -2.01369 -0.0351691 0
M  V30 2786 C 247.01 -3.45631 0.272007 0
M  V30 2787 C 246.071 -4.07704 1.34447 0
M  V30 2788 C 245.304 -5.27175 0.832029 0
M  V30 2789 O 245.527 -5.69425 -0.333284 0
M  V30 2790 O 244.461 -5.80168 1.60277 0
M  V30 2791 H 248.287 -2.49701 1.72867 0
M  V30 2792 H 245.872 -1.18977 0.903597 0
M  V30 2793 H 247.754 -4.21394 -0.0230219 0
M  V30 2794 H 246.429 -3.17723 -0.619164 0
M  V30 2795 H 245.336 -3.33614 1.6927 0
M  V30 2796 H 246.669 -4.3982 2.2095 0
M  V30 2797 N 248.321 -0.919034 -1.28029 0
M  V30 2798 C 249.269 -0.401753 -2.29104 0
M  V30 2799 C 250.263 0.509354 -1.61561 0
M  V30 2800 O 251.469 0.390014 -1.75724 0
M  V30 2801 H 247.844 -0.111331 -0.743713 0
M  V30 2802 H 249.815 -1.2672 -2.70156 0
M  V30 2803 C 248.564 0.338148 -3.46052 0
M  V30 2804 H 247.887 -0.353732 -3.98232 0
M  V30 2805 H 249.327 0.664653 -4.18758 0
M  V30 2806 C 247.786 1.54798 -2.99231 0
M  V30 2807 O 248.316 2.64696 -3.02157 0
M  V30 2808 N 246.522 1.3968 -2.54829 0
M  V30 2809 H 246.069 0.502698 -2.52647 0
M  V30 2810 H 246.027 2.20755 -2.23863 0
M  V30 2811 N 249.799 1.42003 -0.683588 0
M  V30 2812 C 250.732 2.28166 0.039592 0
M  V30 2813 C 251.71 1.41562 0.799942 0
M  V30 2814 O 252.894 1.70997 0.793248 0
M  V30 2815 C 250.021 3.21575 1.06335 0
M  V30 2816 C 249.067 4.24643 0.397562 0
M  V30 2817 S 249.9 5.2869 -0.851296 0
M  V30 2818 C 251.056 6.25666 0.171166 0
M  V30 2819 H 251.289 2.89153 -0.691229 0
M  V30 2820 H 248.822 1.46962 -0.473435 0
M  V30 2821 H 250.78 3.75928 1.6489 0
M  V30 2822 H 249.441 2.59707 1.76667 0
M  V30 2823 H 248.634 4.90223 1.17035 0
M  V30 2824 H 248.236 3.73824 -0.114611 0
M  V30 2825 H 250.528 6.69653 1.02819 0
M  V30 2826 H 251.471 7.06666 -0.450397 0
M  V30 2827 H 251.879 5.62095 0.520578 0
M  V30 2828 N 251.277 0.427512 1.51691 0
M  V30 2829 C 252.526 -0.143679 2.01188 0
M  V30 2830 C 252.839 -1.44642 1.31674 0
M  V30 2831 O 254.045 -2.09997 1.72086 0
M  V30 2832 C 252.501 -0.306602 3.58592 0
M  V30 2833 C 252.109 0.985125 4.37035 0
M  V30 2834 C 253.853 -0.832091 4.16265 0
M  V30 2835 C 251.76 0.788382 5.86122 0
M  V30 2836 H 250.69 -0.0574701 0.751807 0
M  V30 2837 H 253.341 0.555772 1.74881 0
M  V30 2838 H 251.723 -1.06882 3.81303 0
M  V30 2839 H 252.897 1.75492 4.26074 0
M  V30 2840 H 251.212 1.4384 3.90767 0
M  V30 2841 H 253.809 -0.995617 5.25349 0
M  V30 2842 H 254.152 -1.81186 3.74803 0
M  V30 2843 H 254.685 -0.128444 3.97593 0
M  V30 2844 H 251.424 1.74025 6.31978 0
M  V30 2845 H 250.944 0.0582143 5.99772 0
M  V30 2846 H 252.623 0.437722 6.45518 0
M  V30 2847 N 252.755 -1.56801 0.158532 0
M  V30 2848 C 254.171 -1.5837 -0.197774 0
M  V30 2849 C 254.371 -1.17334 -1.63814 0
M  V30 2850 O 253.427 -0.878988 -2.36707 0
M  V30 2851 C 254.74 -3.00615 0.0714459 0
M  V30 2852 C 256.288 -3.12999 0.00864533 0
M  V30 2853 C 256.763 -4.57313 0.250685 0
M  V30 2854 N 258.254 -4.62777 0.198014 0
M  V30 2855 C 258.989 -5.72271 0.359642 0
M  V30 2856 N 258.485 -6.90371 0.579625 0
M  V30 2857 N 260.278 -5.61318 0.296438 0
M  V30 2858 H 252.429 -1.81765 1.09887 0
M  V30 2859 H 254.692 -0.841849 0.435884 0
M  V30 2860 H 254.398 -3.35068 1.06874 0
M  V30 2861 H 254.272 -3.71683 -0.642757 0
M  V30 2862 H 256.659 -2.7838 -0.979217 0
M  V30 2863 H 256.74 -2.44393 0.755359 0
M  V30 2864 H 256.384 -4.92639 1.2357 0
M  V30 2865 H 256.314 -5.24061 -0.516489 0
M  V30 2866 H 258.805 -3.77885 0.0331115 0
M  V30 2867 H 259.118 -7.69689 0.69275 0
M  V30 2868 H 257.463 -6.92264 0.616087 0
M  V30 2869 H 260.654 -4.67932 0.125258 0
M  V30 2870 H 260.827 -6.46599 0.425831 0
M  V30 2871 N 254.233 0.115231 -1.57178 0
M  V30 2872 C 255.143 1.15994 -2.03918 0
M  V30 2873 C 256.159 1.45103 -0.960268 0
M  V30 2874 O 257.335 1.56144 -1.27204 0
M  V30 2875 C 254.4 2.46568 -2.43732 0
M  V30 2876 C 253.461 2.24822 -3.65723 0
M  V30 2877 C 252.694 3.4917 -4.03629 0
M  V30 2878 O 252.917 4.56623 -3.41835 0
M  V30 2879 O 251.851 3.39949 -4.96708 0
M  V30 2880 H 255.677 0.793019 -2.93164 0
M  V30 2881 H 253.262 0.3263 -1.45793 0
M  V30 2882 H 255.144 3.23492 -2.70057 0
M  V30 2883 H 253.819 2.82726 -1.57631 0
M  V30 2884 H 252.726 1.45744 -3.44542 0
M  V30 2885 H 254.059 1.93566 -4.52541 0
M  V30 2886 N 255.711 1.52812 0.385517 0
M  V30 2887 C 256.621 1.80766 1.49535 0
M  V30 2888 C 257.637 0.694651 1.59532 0
M  V30 2889 O 258.813 0.982611 1.75803 0
M  V30 2890 C 255.878 1.97381 2.85029 0
M  V30 2891 C 254.939 3.21295 2.84724 0
M  V30 2892 C 254.172 3.37108 4.13756 0
M  V30 2893 O 254.395 2.5765 5.08893 0
M  V30 2894 O 253.329 4.30378 4.20783 0
M  V30 2895 H 257.155 2.75015 1.28842 0
M  V30 2896 H 254.74 1.37946 0.573697 0
M  V30 2897 H 256.622 2.09996 3.65349 0
M  V30 2898 H 255.297 1.06322 3.05741 0
M  V30 2899 H 254.204 3.1412 2.03174 0
M  V30 2900 H 255.537 4.12212 2.68965 0
M  V30 2901 N 257.189 -0.644168 1.43834 0
M  V30 2902 C 258.121 -1.76955 1.45669 0
M  V30 2903 C 259.134 -1.58956 0.351666 0
M  V30 2904 O 260.323 -1.6751 0.616644 0
M  V30 2905 C 257.423 -3.14507 1.26248 0
M  V30 2906 C 256.596 -3.59083 2.49757 0
M  V30 2907 C 255.655 -4.75467 2.25427 0
M  V30 2908 O 254.681 -4.84444 2.98836 0
M  V30 2909 N 255.883 -5.66289 1.27661 0
M  V30 2910 H 258.648 -1.75856 2.42682 0
M  V30 2911 H 256.209 -0.828312 1.39106 0
M  V30 2912 H 258.201 -3.90067 1.0784 0
M  V30 2913 H 256.771 -3.10325 0.376478 0
M  V30 2914 H 255.991 -2.7387 2.8353 0
M  V30 2915 H 257.279 -3.85613 3.31934 0
M  V30 2916 H 256.677 -5.61718 0.670064 0
M  V30 2917 H 255.234 -6.41533 1.15234 0
M  V30 2918 N 258.668 -1.30515 -0.883378 0
M  V30 2919 C 259.915 -1.1943 -1.63532 0
M  V30 2920 C 260.243 0.250627 -1.92878 0
M  V30 2921 O 259.498 1.19556 -1.54935 0
M  V30 2922 C 259.797 -1.96994 -2.98209 0
M  V30 2923 C 259.463 -3.466 -2.88408 0
M  V30 2924 C 258.125 -3.87397 -2.85442 0
M  V30 2925 C 260.477 -4.41863 -2.76418 0
M  V30 2926 C 257.805 -5.21745 -2.68327 0
M  V30 2927 C 260.157 -5.7632 -2.60841 0
M  V30 2928 C 258.821 -6.16354 -2.56251 0
M  V30 2929 H 258.091 -0.437025 -0.598406 0
M  V30 2930 H 260.738 -1.61635 -1.02696 0
M  V30 2931 H 259.043 -1.47429 -3.63004 0
M  V30 2932 H 260.74 -1.85808 -3.55354 0
M  V30 2933 H 257.33 -3.14182 -2.91527 0
M  V30 2934 H 261.514 -4.11285 -2.77775 0
M  V30 2935 H 256.77 -5.51853 -2.63189 0
M  V30 2936 H 260.944 -6.49772 -2.50538 0
M  V30 2937 H 258.571 -7.20401 -2.42748 0
M  V30 2938 N 260.146 1.09593 -1.13257 0
M  V30 2939 C 261.076 2.18214 -0.830946 0
M  V30 2940 C 262.057 1.68812 0.208966 0
M  V30 2941 O 263.242 1.9408 0.0682666 0
M  V30 2942 C 260.372 3.46051 -0.294296 0
M  V30 2943 C 259.326 4.08778 -1.26826 0
M  V30 2944 C 258.652 5.31419 -0.591449 0
M  V30 2945 C 259.952 4.51476 -2.62615 0
M  V30 2946 H 261.646 2.43703 -1.73923 0
M  V30 2947 H 259.192 1.17128 -0.837675 0
M  V30 2948 H 261.145 4.2134 -0.0709606 0
M  V30 2949 H 259.869 3.20079 0.649366 0
M  V30 2950 H 258.528 3.35505 -1.47756 0
M  V30 2951 H 258.176 5.01727 0.357633 0
M  V30 2952 H 257.876 5.74341 -1.24123 0
M  V30 2953 H 259.4 6.09433 -0.377355 0
M  V30 2954 H 260.814 5.17999 -2.45663 0
M  V30 2955 H 259.211 5.05277 -3.23752 0
M  V30 2956 H 260.281 3.63962 -3.20406 0
M  V30 2957 N 261.624 0.925811 1.2754 0
M  V30 2958 C 262.872 0.564138 1.94067 0
M  V30 2959 C 263.193 -0.897188 1.73134 0
M  V30 2960 O 262.463 -1.63573 1.07799 0
M  V30 2961 H 261.043 0.205645 0.718136 0
M  V30 2962 H 263.705 1.1778 1.55287 0
M  V30 2963 H 262.801 0.76881 3.02483 0
M  V30 2964 N 263.102 -1.41638 0.69111 0
M  V30 2965 C 264.518 -1.55435 0.362224 0
M  V30 2966 C 264.718 -1.66754 -1.13117 0
M  V30 2967 O 263.774 -1.64348 -1.91692 0
M  V30 2968 C 265.087 -2.79588 1.10684 0
M  V30 2969 C 266.635 -2.9338 1.09075 0
M  V30 2970 C 267.11 -4.20414 1.81703 0
M  V30 2971 N 268.601 -4.27362 1.7865 0
M  V30 2972 C 269.336 -5.24507 2.31689 0
M  V30 2973 N 268.832 -6.27708 2.93179 0
M  V30 2974 N 270.625 -5.16416 2.2197 0
M  V30 2975 H 262.776 -1.32536 1.65976 0
M  V30 2976 H 265.039 -0.639115 0.700168 0
M  V30 2977 H 264.745 -2.77419 2.16175 0
M  V30 2978 H 264.619 -3.70973 0.682545 0
M  V30 2979 H 267.006 -2.95067 0.0441238 0
M  V30 2980 H 267.087 -2.0318 1.55407 0
M  V30 2981 H 266.731 -4.19488 2.86343 0
M  V30 2982 H 266.661 -5.09578 1.32808 0
M  V30 2983 H 269.152 -3.53415 1.33815 0
M  V30 2984 H 269.465 -6.98217 3.31229 0
M  V30 2985 H 267.81 -6.28223 2.97255 0
M  V30 2986 H 271.001 -4.34716 1.73607 0
M  V30 2987 H 271.174 -5.91958 2.63609 0
M  V30 2988 N 264.58 -0.43555 -1.51462 0
M  V30 2989 C 265.996 -0.0877501 -1.59359 0
M  V30 2990 C 266.196 1.4027 -1.4466 0
M  V30 2991 O 265.252 2.17243 -1.28693 0
M  V30 2992 C 266.565 -0.606264 -2.94525 0
M  V30 2993 C 268.113 -0.566548 -3.0783 0
M  V30 2994 C 268.588 -1.06201 -4.45517 0
M  V30 2995 N 270.079 -1.01992 -4.51832 0
M  V30 2996 C 270.814 -1.37417 -5.5669 0
M  V30 2997 N 270.31 -1.80119 -6.68976 0
M  V30 2998 N 272.103 -1.29245 -5.47039 0
M  V30 2999 H 264.254 -1.40533 -1.59261 0
M  V30 3000 H 266.517 -0.578992 -0.750648 0
M  V30 3001 H 266.223 -1.64901 -3.10645 0
M  V30 3002 H 266.097 -0.0302097 -3.77188 0
M  V30 3003 H 268.484 0.467208 -2.91378 0
M  V30 3004 H 268.565 -1.17898 -2.2701 0
M  V30 3005 H 268.209 -2.09422 -4.62715 0
M  V30 3006 H 268.139 -0.426127 -5.24873 0
M  V30 3007 H 270.63 -0.706308 -3.71241 0
M  V30 3008 H 270.943 -2.05392 -7.45006 0
M  V30 3009 H 269.288 -1.84044 -6.70189 0
M  V30 3010 H 272.479 -0.957522 -4.58202 0
M  V30 3011 H 272.652 -1.57182 -6.28648 0
M  V30 3012 N 266.058 1.56714 -0.166846 0
M  V30 3013 C 267.005 2.17746 0.765193 0
M  V30 3014 C 267.975 1.11614 1.23011 0
M  V30 3015 O 269.16 1.39745 1.29908 0
M  V30 3016 C 266.3 2.81882 1.9909 0
M  V30 3017 C 265.413 4.02462 1.56997 0
M  V30 3018 C 264.548 4.54537 2.749 0
M  V30 3019 C 263.587 5.67538 2.29275 0
M  V30 3020 N 262.724 6.14142 3.40255 0
M  V30 3021 H 267.564 2.97048 0.237952 0
M  V30 3022 H 265.101 1.4672 0.105725 0
M  V30 3023 H 267.059 3.17221 2.70974 0
M  V30 3024 H 265.689 2.05191 2.49192 0
M  V30 3025 H 264.741 3.72973 0.748037 0
M  V30 3026 H 266.053 4.84273 1.19503 0
M  V30 3027 H 265.207 4.92035 3.54946 0
M  V30 3028 H 263.946 3.71774 3.1565 0
M  V30 3029 H 262.951 5.29597 1.47674 0
M  V30 3030 H 264.176 6.52099 1.89588 0
M  V30 3031 H 262.122 5.3431 3.8059 0
M  V30 3032 H 262.039 6.9093 3.06841 0
M  V30 3033 H 263.307 6.56289 4.206 0
M  V30 3034 N 267.536 -0.106894 1.57237 0
M  V30 3035 C 268.468 -1.15646 1.97885 0
M  V30 3036 C 269.481 -1.36981 0.879779 0
M  V30 3037 O 270.67 -1.35841 1.15799 0
M  V30 3038 C 267.77 -2.51425 2.27241 0
M  V30 3039 C 266.943 -2.50529 3.58545 0
M  V30 3040 C 266.002 -3.68145 3.75973 0
M  V30 3041 O 265.028 -3.51176 4.47956 0
M  V30 3042 N 266.23 -4.87177 3.15656 0
M  V30 3043 H 268.995 -0.81059 2.8853 0
M  V30 3044 H 266.556 -0.296024 1.59171 0
M  V30 3045 H 268.548 -3.28689 2.36105 0
M  V30 3046 H 267.118 -2.78147 1.42663 0
M  V30 3047 H 266.338 -1.58894 3.60758 0
M  V30 3048 H 267.626 -2.46997 4.44826 0
M  V30 3049 H 267.024 -5.03868 2.57165 0
M  V30 3050 H 265.581 -5.62075 3.30023 0
M  V30 3051 N 269.014 -1.53014 -0.377408 0
M  V30 3052 C 269.944 -1.81589 -1.46791 0
M  V30 3053 C 270.925 -0.668622 -1.56408 0
M  V30 3054 O 272.11 -0.917337 -1.71168 0
M  V30 3055 C 269.24 -1.99519 -2.8427 0
M  V30 3056 C 268.194 -3.15249 -2.89486 0
M  V30 3057 C 267.52 -3.18451 -4.29527 0
M  V30 3058 C 268.82 -4.54084 -2.58079 0
M  V30 3059 H 270.514 -2.7291 -1.23127 0
M  V30 3060 H 268.06 -1.31319 -0.590883 0
M  V30 3061 H 270.013 -2.18092 -3.60575 0
M  V30 3062 H 268.737 -1.04897 -3.09296 0
M  V30 3063 H 267.396 -2.96477 -2.15631 0
M  V30 3064 H 267.044 -2.2149 -4.5161 0
M  V30 3065 H 266.744 -3.962 -4.33934 0
M  V30 3066 H 268.268 -3.39193 -5.07721 0
M  V30 3067 H 269.682 -4.72899 -3.24098 0
M  V30 3068 H 268.079 -5.33987 -2.7382 0
M  V30 3069 H 269.149 -4.60006 -1.53372 0
M  V30 3070 N 270.492 0.636531 -1.44174 0
M  V30 3071 C 271.402 1.77754 -1.53103 0
M  V30 3072 C 272.418 1.68928 -0.417034 0
M  V30 3073 O 273.594 1.89801 -0.6736 0
M  V30 3074 C 270.659 3.14115 -1.46741 0
M  V30 3075 C 269.72 3.34612 -2.68948 0
M  V30 3076 C 268.953 4.64467 -2.6288 0
M  V30 3077 O 269.176 5.44919 -1.68581 0
M  V30 3078 O 268.11 4.87049 -3.53648 0
M  V30 3079 H 271.936 1.73174 -2.49489 0
M  V30 3080 H 269.521 0.79709 -1.2636 0
M  V30 3081 H 271.403 3.95412 -1.45696 0
M  V30 3082 H 270.078 3.19249 -0.534975 0
M  V30 3083 H 268.985 2.53014 -2.75562 0
M  V30 3084 H 270.318 3.34336 -3.61221 0
M  V30 3085 N 271.97 1.30982 0.876444 0
M  V30 3086 C 273.247 1.10942 1.61094 0
M  V30 3087 C 273.627 -0.338223 2.08373 0
M  V30 3088 O 272.975 -1.33122 1.85717 0
M  V30 3089 C 273.185 2.11789 2.77392 0
M  V30 3090 C 274.533 2.43965 3.47514 0
M  V30 3091 O 275.557 2.10166 2.87591 0
M  V30 3092 O 274.416 3.01817 4.55597 0
M  V30 3093 H 271.51 0.42667 0.708436 0
M  V30 3094 H 274.056 1.42438 0.922474 0
M  V30 3095 H 272.828 3.09194 2.39823 0
M  V30 3096 H 272.451 1.81161 3.5393 0
M  V30 3097 N 273.449 -1.08991 1.13837 0
M  V30 3098 C 274.679 -1.84743 0.924859 0
M  V30 3099 C 275.087 -1.81629 -0.529874 0
M  V30 3100 O 274.43 -1.21397 -1.37872 0
M  V30 3101 C 274.492 -3.33568 1.34061 0
M  V30 3102 C 274.156 -3.60425 2.80968 0
M  V30 3103 C 275.153 -3.55771 3.79108 0
M  V30 3104 C 272.838 -3.88627 3.18236 0
M  V30 3105 C 274.832 -3.78939 5.12527 0
M  V30 3106 C 272.519 -4.11449 4.51833 0
M  V30 3107 C 273.517 -4.06598 5.48787 0
M  V30 3108 O 273.205 -4.28826 6.79973 0
M  V30 3109 H 272.937 -0.590258 0.329502 0
M  V30 3110 H 275.491 -1.38598 1.51591 0
M  V30 3111 H 273.721 -3.80442 0.692853 0
M  V30 3112 H 275.41 -3.90743 1.09886 0
M  V30 3113 H 276.176 -3.34005 3.51661 0
M  V30 3114 H 272.055 -3.91526 2.43369 0
M  V30 3115 H 275.599 -3.75068 5.88192 0
M  V30 3116 H 271.496 -4.32698 4.79002 0
M  V30 3117 H 272.264 -4.46264 6.86142 0
M  V30 3118 N 274.927 -0.932562 -1.27047 0
M  V30 3119 C 275.857 -0.452902 -2.29066 0
M  V30 3120 C 276.838 0.489338 -1.62909 0
M  V30 3121 O 278.023 0.393046 -1.90181 0
M  V30 3122 C 275.153 0.290698 -3.46081 0
M  V30 3123 C 274.107 -0.564168 -4.24265 0
M  V30 3124 C 273.433 0.308886 -5.33807 0
M  V30 3125 C 274.733 -1.83112 -4.89149 0
M  V30 3126 H 276.427 -1.30552 -2.69437 0
M  V30 3127 H 273.973 -0.629201 -1.29526 0
M  V30 3128 H 275.926 0.637233 -4.16554 0
M  V30 3129 H 274.65 1.17738 -3.0464 0
M  V30 3130 H 273.309 -0.893477 -3.55545 0
M  V30 3131 H 272.957 1.19467 -4.88607 0
M  V30 3132 H 272.657 -0.259633 -5.87026 0
M  V30 3133 H 274.181 0.650884 -6.07121 0
M  V30 3134 H 275.595 -1.55236 -5.51883 0
M  V30 3135 H 273.992 -2.34353 -5.52448 0
M  V30 3136 H 275.062 -2.54772 -4.12576 0
M  V30 3137 N 276.405 1.4127 -0.698611 0
M  V30 3138 C 277.633 2.05503 -0.239992 0
M  V30 3139 C 278.048 1.52584 1.11191 0
M  V30 3140 O 277.405 0.675323 1.69545 0
M  V30 3141 C 277.456 3.60987 -0.192429 0
M  V30 3142 O 277.177 4.1195 -1.49094 0
M  V30 3143 C 278.678 4.42371 0.28681 0
M  V30 3144 H 275.898 0.661748 -0.111045 0
M  V30 3145 H 278.442 1.80987 -0.95205 0
M  V30 3146 H 276.597 3.84533 0.470472 0
M  V30 3147 H 277.011 5.06018 -1.38007 0
M  V30 3148 H 278.485 5.51344 0.26896 0
M  V30 3149 H 278.962 4.18699 1.32619 0
M  V30 3150 H 279.568 4.23897 -0.345201 0
M  V30 3151 N 277.883 0.443576 1.51229 0
M  V30 3152 C 278.83 -0.364716 2.279 0
M  V30 3153 C 279.8 -1.0114 1.31757 0
M  V30 3154 O 280.985 -1.02912 1.60667 0
M  V30 3155 C 278.125 -1.45644 3.12861 0
M  V30 3156 C 277.238 -0.827269 4.24005 0
M  V30 3157 C 276.373 -1.89456 4.96266 0
M  V30 3158 C 275.412 -1.24416 5.99322 0
M  V30 3159 N 274.549 -2.25309 6.64966 0
M  V30 3160 H 279.389 0.295464 2.96532 0
M  V30 3161 H 276.926 0.157554 1.46254 0
M  V30 3162 H 278.884 -2.10076 3.6045 0
M  V30 3163 H 277.514 -2.08616 2.46331 0
M  V30 3164 H 276.566 -0.0710839 3.80334 0
M  V30 3165 H 277.878 -0.312481 4.9782 0
M  V30 3166 H 277.032 -2.61535 5.47434 0
M  V30 3167 H 275.771 -2.4431 4.22095 0
M  V30 3168 H 274.776 -0.508868 5.4744 0
M  V30 3169 H 276.001 -0.702882 6.75453 0
M  V30 3170 H 273.947 -2.79231 5.93604 0
M  V30 3171 H 273.864 -1.78739 7.34567 0
M  V30 3172 H 275.132 -2.96853 7.20763 0
M  V30 3173 N 279.361 -1.56624 0.175154 0
M  V30 3174 C 280.61 -1.96173 -0.468921 0
M  V30 3175 C 280.923 -1.06401 -1.64128 0
M  V30 3176 O 282.129 -1.35648 -2.35185 0
M  V30 3177 C 280.585 -3.48833 -0.885633 0
M  V30 3178 C 280.193 -4.47237 0.261343 0
M  V30 3179 C 281.937 -3.97194 -1.49791 0
M  V30 3180 C 279.844 -5.9114 -0.175214 0
M  V30 3181 H 278.774 -0.732455 -0.178958 0
M  V30 3182 H 281.425 -1.81591 0.263997 0
M  V30 3183 H 279.807 -3.58848 -1.67464 0
M  V30 3184 H 280.981 -4.4894 1.03871 0
M  V30 3185 H 279.296 -4.08956 0.783827 0
M  V30 3186 H 281.893 -5.02167 -1.83665 0
M  V30 3187 H 282.236 -3.40351 -2.39722 0
M  V30 3188 H 282.769 -3.90212 -0.773267 0
M  V30 3189 H 279.508 -6.51865 0.689414 0
M  V30 3190 H 279.028 -5.92735 -0.91786 0
M  V30 3191 H 280.707 -6.44044 -0.617792 0
M  V30 3192 N 280.839 0.0985539 -1.57292 0
M  V30 3193 C 281.769 1.12064 -2.04851 0
M  V30 3194 C 282.75 1.41981 -0.936767 0
M  V30 3195 O 283.935 1.52071 -1.20781 0
M  V30 3196 C 281.065 2.44144 -2.47004 0
M  V30 3197 C 280.019 2.28643 -3.6181 0
M  V30 3198 C 279.345 3.65869 -3.89929 0
M  V30 3199 C 280.645 1.72986 -4.92822 0
M  V30 3200 H 282.339 0.724979 -2.9049 0
M  V30 3201 H 279.885 0.34729 -1.39749 0
M  V30 3202 H 281.838 3.15914 -2.78884 0
M  V30 3203 H 280.562 2.85639 -1.5836 0
M  V30 3204 H 279.221 1.59318 -3.30172 0
M  V30 3205 H 278.869 4.04885 -2.98458 0
M  V30 3206 H 278.569 3.56344 -4.67218 0
M  V30 3207 H 280.093 4.39112 -4.2428 0
M  V30 3208 H 281.507 2.34593 -5.23105 0
M  V30 3209 H 279.904 1.74229 -5.74251 0
M  V30 3210 H 280.974 0.689007 -4.7998 0
M  V30 3211 N 282.317 1.53212 0.369288 0
M  V30 3212 C 283.264 1.79388 1.45219 0
M  V30 3213 C 284.234 0.638059 1.53356 0
M  V30 3214 O 285.419 0.879852 1.69302 0
M  V30 3215 C 282.559 1.98623 2.82211 0
M  V30 3216 C 281.672 3.26337 2.8307 0
M  V30 3217 C 280.807 3.35779 4.11614 0
M  V30 3218 C 279.846 4.5754 4.06601 0
M  V30 3219 N 278.983 4.64155 5.26787 0
M  V30 3220 H 283.823 2.71794 1.22198 0
M  V30 3221 H 281.36 1.34642 0.592444 0
M  V30 3222 H 283.318 2.07761 3.61789 0
M  V30 3223 H 281.948 1.09558 3.03639 0
M  V30 3224 H 281 3.26171 1.95747 0
M  V30 3225 H 282.312 4.15988 2.75237 0
M  V30 3226 H 281.466 3.44208 4.99606 0
M  V30 3227 H 280.205 2.44137 4.22195 0
M  V30 3228 H 279.21 4.49215 3.16996 0
M  V30 3229 H 280.435 5.50519 3.97625 0
M  V30 3230 H 278.381 3.75413 5.3796 0
M  V30 3231 H 278.298 5.47706 5.21109 0
M  V30 3232 H 279.566 4.76863 6.16621 0
M  V30 3233 N 283.795 -0.628877 1.44509 0
M  V30 3234 C 284.728 -1.75367 1.46019 0
M  V30 3235 C 285.706 -1.59444 0.318787 0
M  V30 3236 O 286.89 -1.81297 0.516099 0
M  V30 3237 C 284.017 -3.12965 1.29501 0
M  V30 3238 C 283.063 -3.47532 2.47233 0
M  V30 3239 S 283.896 -3.44758 4.09758 0
M  V30 3240 C 285.052 -4.84973 3.95667 0
M  V30 3241 H 285.285 -1.7382 2.41193 0
M  V30 3242 H 282.818 -0.803686 1.31834 0
M  V30 3243 H 284.776 -3.92367 1.20658 0
M  V30 3244 H 283.437 -3.12049 0.358341 0
M  V30 3245 H 282.63 -4.47664 2.31544 0
M  V30 3246 H 282.232 -2.75598 2.52828 0
M  V30 3247 H 284.524 -5.74255 3.59496 0
M  V30 3248 H 285.467 -5.05716 4.95638 0
M  V30 3249 H 285.875 -4.59653 3.27688 0
M  V30 3250 N 285.273 -1.31445 -0.869486 0
M  V30 3251 C 286.684 -1.19042 -1.43826 0
M  V30 3252 C 287.035 0.202919 -1.95148 0
M  V30 3253 O 286.16 1.10071 -1.86315 0
M  V30 3254 C 286.755 -2.15499 -2.6143 0
M  V30 3255 C 285.314 -2.07028 -3.14351 0
M  V30 3256 C 284.461 -2.04701 -1.87063 0
M  V30 3257 H 287.412 -1.43489 -0.677984 0
M  V30 3258 H 287.433 -1.74488 -3.38134 0
M  V30 3259 H 286.945 -3.16899 -2.24046 0
M  V30 3260 H 285.046 -1.08825 -3.56354 0
M  V30 3261 H 285.159 -2.96157 -3.766 0
M  V30 3262 H 283.523 -1.49724 -2.06046 0
M  V30 3263 H 284.306 -3.07857 -1.51917 0
M  V30 3264 N 286.751 1.08385 -1.14413 0
M  V30 3265 C 287.684 2.14642 -0.774871 0
M  V30 3266 C 288.662 1.60761 0.243876 0
M  V30 3267 O 289.846 1.88031 0.132883 0
M  V30 3268 C 286.973 3.38366 -0.150491 0
M  V30 3269 C 286.019 4.10997 -1.13945 0
M  V30 3270 S 286.852 4.63797 -2.67679 0
M  V30 3271 C 288.008 5.90808 -2.06631 0
M  V30 3272 H 288.241 2.45633 -1.67487 0
M  V30 3273 H 285.774 1.20498 -0.96538 0
M  V30 3274 H 287.732 4.09996 0.203334 0
M  V30 3275 H 286.393 3.05572 0.72694 0
M  V30 3276 H 285.586 4.99783 -0.65059 0
M  V30 3277 H 285.188 3.4528 -1.43727 0
M  V30 3278 H 287.48 6.62411 -1.4219 0
M  V30 3279 H 288.423 6.4439 -2.93542 0
M  V30 3280 H 288.831 5.4383 -1.51357 0
M  V30 3281 N 288.23 0.939286 1.26551 0
M  V30 3282 C 289.46 0.601663 1.97645 0
M  V30 3283 C 289.868 -0.827206 1.70159 0
M  V30 3284 O 289.211 -1.56291 0.965338 0
M  V30 3285 C 289.273 0.761725 3.51337 0
M  V30 3286 C 288.937 2.16487 4.0247 0
M  V30 3287 C 289.934 3.14016 4.14355 0
M  V30 3288 C 287.619 2.48494 4.36527 0
M  V30 3289 C 289.613 4.41654 4.59587 0
M  V30 3290 C 287.3 3.76364 4.81449 0
M  V30 3291 C 288.298 4.72758 4.92939 0
M  V30 3292 O 287.986 5.98352 5.36871 0
M  V30 3293 H 287.718 0.225758 0.637189 0
M  V30 3294 H 290.272 1.26178 1.62075 0
M  V30 3295 H 288.502 0.0444808 3.86674 0
M  V30 3296 H 290.191 0.427442 4.03643 0
M  V30 3297 H 290.957 2.90613 3.8829 0
M  V30 3298 H 286.836 1.74202 4.26819 0
M  V30 3299 H 290.38 5.16896 4.68471 0
M  V30 3300 H 286.277 3.99582 5.06956 0
M  V30 3301 H 287.045 6.01507 5.55096 0
M  V30 3302 N 289.708 -1.40897 0.706093 0
M  V30 3303 C 291.124 -1.55042 0.37869 0
M  V30 3304 C 291.324 -1.67944 -1.11342 0
M  V30 3305 O 290.38 -1.66372 -1.89938 0
M  V30 3306 C 291.693 -2.78398 1.13643 0
M  V30 3307 C 293.241 -2.92206 1.12181 0
M  V30 3308 C 293.716 -4.18463 1.86152 0
M  V30 3309 N 295.207 -4.25443 1.83173 0
M  V30 3310 C 295.942 -5.2202 2.37239 0
M  V30 3311 N 295.438 -6.24563 2.99821 0
M  V30 3312 N 297.231 -5.14033 2.27435 0
M  V30 3313 H 289.382 -1.30769 1.67372 0
M  V30 3314 H 291.645 -0.631653 0.706907 0
M  V30 3315 H 291.351 -2.7511 2.19106 0
M  V30 3316 H 291.225 -3.70228 0.721853 0
M  V30 3317 H 293.612 -2.95004 0.0754171 0
M  V30 3318 H 293.693 -2.01521 1.57554 0
M  V30 3319 H 293.337 -4.16427 2.90776 0
M  V30 3320 H 293.267 -5.08141 1.38206 0
M  V30 3321 H 295.758 -3.51976 1.37556 0
M  V30 3322 H 296.071 -6.94665 3.38616 0
M  V30 3323 H 294.416 -6.25035 3.03902 0
M  V30 3324 H 297.607 -4.3285 1.78208 0
M  V30 3325 H 297.78 -5.89129 2.69873 0
M  V30 3326 N 291.186 -0.45159 -1.50991 0
M  V30 3327 C 292.134 0.366864 -2.29689 0
M  V30 3328 C 293.128 1.00809 -1.36139 0
M  V30 3329 O 294.334 0.941427 -1.53418 0
M  V30 3330 H 290.709 0.137133 -0.739391 0
M  V30 3331 H 292.68 -0.317538 -2.96706 0
M  V30 3332 C 291.429 1.44751 -3.16137 0
M  V30 3333 H 290.752 0.963473 -3.88017 0
M  V30 3334 H 292.192 1.99315 -3.74232 0
M  V30 3335 C 290.651 2.43869 -2.32442 0
M  V30 3336 O 291.181 3.4872 -1.99392 0
M  V30 3337 N 289.387 2.15105 -1.95392 0
M  V30 3338 H 288.934 1.29866 -2.22469 0
M  V30 3339 H 288.892 2.81661 -1.39693 0
M  V30 3340 N 292.664 1.56529 -0.183458 0
M  V30 3341 C 293.894 2.01331 0.463612 0
M  V30 3342 C 294.302 1.06278 1.5653 0
M  V30 3343 O 293.645 0.0577976 1.83609 0
M  V30 3344 C 293.707 3.42547 1.09096 0
M  V30 3345 C 293.371 4.56817 0.129442 0
M  V30 3346 C 294.368 5.15734 -0.656807 0
M  V30 3347 C 292.053 5.02295 0.02174 0
M  V30 3348 C 294.047 6.1857 -1.53784 0
M  V30 3349 C 291.734 6.04978 -0.862864 0
M  V30 3350 C 292.732 6.62988 -1.64123 0
M  V30 3351 O 292.42 7.63677 -2.51103 0
M  V30 3352 H 292.152 0.664917 0.121907 0
M  V30 3353 H 294.706 2.034 -0.285954 0
M  V30 3354 H 292.936 3.37428 1.88889 0
M  V30 3355 H 294.625 3.71228 1.64148 0
M  V30 3356 H 295.391 4.81473 -0.583839 0
M  V30 3357 H 291.27 4.56847 0.617392 0
M  V30 3358 H 294.814 6.63777 -2.14583 0
M  V30 3359 H 290.711 6.38663 -0.93699 0
M  V30 3360 H 291.479 7.81049 -2.44753 0
M  V30 3361 N 294.142 -0.090211 1.57342 0
M  V30 3362 C 295.092 -1.11557 1.98844 0
M  V30 3363 C 296.076 -1.35503 0.867624 0
M  V30 3364 O 297.268 -1.36113 1.13148 0
M  V30 3365 C 294.397 -2.43446 2.42051 0
M  V30 3366 C 293.483 -2.22853 3.60828 0
M  V30 3367 N 293.874 -1.72141 4.75606 0
M  V30 3368 C 292.172 -2.53401 3.67021 0
M  V30 3369 C 292.873 -1.65932 5.57531 0
M  V30 3370 N 291.849 -2.11323 5.00843 0
M  V30 3371 H 295.651 -0.716499 2.85032 0
M  V30 3372 H 293.165 -0.297567 1.59651 0
M  V30 3373 H 295.162 -3.17644 2.70014 0
M  V30 3374 H 293.822 -2.84087 1.57241 0
M  V30 3375 H 294.833 -1.41268 4.98261 0
M  V30 3376 H 291.51 -2.97532 2.92884 0
M  V30 3377 H 292.9 -1.27733 6.59647 0
M  V30 3378 N 295.62 -1.53406 -0.361157 0
M  V30 3379 C 296.583 -1.79479 -1.42548 0
M  V30 3380 C 297.583 -0.665327 -1.4639 0
M  V30 3381 O 298.773 -0.933549 -1.47073 0
M  V30 3382 C 295.905 -1.92087 -2.8163 0
M  V30 3383 H 297.098 -2.74538 -1.20701 0
M  V30 3384 H 294.651 -1.4455 -0.594546 0
M  V30 3385 H 295.386 -0.991099 -3.08784 0
M  V30 3386 H 295.171 -2.74241 -2.80239 0
M  V30 3387 H 296.661 -2.13836 -3.58697 0
M  V30 3388 N 297.098 0.621204 -1.44841 0
M  V30 3389 C 298.326 1.40752 -1.51646 0
M  V30 3390 C 298.741 1.88246 -0.144549 0
M  V30 3391 O 298.098 1.61422 0.851416 0
M  V30 3392 C 298.149 2.62119 -2.4895 0
M  V30 3393 O 297.87 2.16602 -3.80808 0
M  V30 3394 C 299.371 3.55135 -2.65319 0
M  V30 3395 H 296.591 0.431325 -0.514004 0
M  V30 3396 H 299.135 0.758835 -1.899 0
M  V30 3397 H 297.29 3.23058 -2.13805 0
M  V30 3398 H 297.704 2.95358 -4.33433 0
M  V30 3399 H 299.178 4.36874 -3.37409 0
M  V30 3400 H 299.655 4.04592 -1.70886 0
M  V30 3401 H 300.261 3.00058 -3.01405 0
M  V30 3402 N 298.576 1.31904 0.862503 0
M  V30 3403 C 299.804 1.24998 1.64873 0
M  V30 3404 C 300.219 -0.183425 1.87907 0
M  V30 3405 O 299.576 -1.11794 1.44251 0
M  V30 3406 C 299.627 1.99829 3.01248 0
M  V30 3407 O 299.348 3.37575 2.79239 0
M  V30 3408 C 300.849 1.99852 3.95694 0
M  V30 3409 H 298.069 0.431599 0.513773 0
M  V30 3410 H 300.613 1.73901 1.07604 0
M  V30 3411 H 298.768 1.54668 3.55185 0
M  V30 3412 H 299.182 3.75776 3.65914 0
M  V30 3413 H 300.656 2.56709 4.88676 0
M  V30 3414 H 301.133 0.982852 4.28062 0
M  V30 3415 H 301.739 2.44926 3.47694 0
M  V30 3416 N 300.054 -1.07777 1.14986 0
M  V30 3417 C 300.964 -2.18404 0.856546 0
M  V30 3418 C 301.98 -1.73211 -0.165485 0
M  V30 3419 O 303.156 -2.01399 0.00755219 0
M  V30 3420 C 300.221 -3.44977 0.34526 0
M  V30 3421 C 299.282 -4.0476 1.43065 0
M  V30 3422 C 298.515 -5.25291 0.943663 0
M  V30 3423 O 298.738 -5.70004 -0.212426 0
M  V30 3424 O 297.672 -5.76638 1.72547 0
M  V30 3425 H 301.498 -2.45978 1.78125 0
M  V30 3426 H 299.083 -1.17033 0.928631 0
M  V30 3427 H 300.965 -4.21348 0.0663671 0
M  V30 3428 H 299.64 -3.18965 -0.551631 0
M  V30 3429 H 298.547 -3.29949 1.76309 0
M  V30 3430 H 299.88 -4.35035 2.30229 0
M  V30 3431 N 301.532 -0.945985 -1.26051 0
M  V30 3432 C 302.779 -0.596118 -1.93527 0
M  V30 3433 C 303.107 0.865559 -1.74179 0
M  V30 3434 O 302.362 1.63524 -1.0751 0
M  V30 3435 C 302.661 -0.890475 -3.46129 0
M  V30 3436 C 302.327 -2.3368 -3.85622 0
M  V30 3437 C 300.989 -2.73216 -3.96114 0
M  V30 3438 C 303.341 -3.27648 -4.05334 0
M  V30 3439 C 300.669 -4.05806 -4.2372 0
M  V30 3440 C 303.021 -4.59841 -4.3443 0
M  V30 3441 C 301.685 -4.99185 -4.43137 0
M  V30 3442 H 300.955 -0.218135 -0.708165 0
M  V30 3443 H 303.602 -1.1934 -1.49768 0
M  V30 3444 H 301.907 -0.210711 -3.91233 0
M  V30 3445 H 303.604 -0.598478 -3.96509 0
M  V30 3446 H 300.194 -2.02015 -3.78005 0
M  V30 3447 H 304.378 -2.98298 -3.96651 0
M  V30 3448 H 299.634 -4.35945 -4.28675 0
M  V30 3449 H 303.808 -5.32641 -4.48628 0
M  V30 3450 H 301.435 -6.01952 -4.64282 0
M  V30 3451 N 303.011 1.40521 -0.713556 0
M  V30 3452 C 303.941 2.33381 -0.0743864 0
M  V30 3453 C 304.922 1.52784 0.747735 0
M  V30 3454 O 306.107 1.81258 0.697071 0
M  V30 3455 C 303.237 3.36748 0.849598 0
M  V30 3456 C 302.191 4.27793 0.133247 0
M  V30 3457 C 301.517 5.21679 1.17281 0
M  V30 3458 C 302.817 5.12415 -1.01134 0
M  V30 3459 H 304.511 2.87081 -0.850007 0
M  V30 3460 H 302.057 1.38034 -0.410201 0
M  V30 3461 H 304.01 4.00648 1.30612 0
M  V30 3462 H 302.734 2.81439 1.65709 0
M  V30 3463 H 301.393 3.65342 -0.303426 0
M  V30 3464 H 301.041 4.62677 1.9733 0
M  V30 3465 H 300.741 5.83435 0.698397 0
M  V30 3466 H 302.265 5.88456 1.62947 0
M  V30 3467 H 303.679 5.69781 -0.634274 0
M  V30 3468 H 302.076 5.83203 -1.41399 0
M  V30 3469 H 303.146 4.48514 -1.84292 0
M  V30 3470 N 304.489 0.459591 1.5075 0
M  V30 3471 C 305.766 -0.160371 1.94941 0
M  V30 3472 C 306.146 -1.58048 1.39943 0
M  V30 3473 O 305.494 -2.206 0.595629 0
M  V30 3474 C 305.704 -0.115432 3.48809 0
M  V30 3475 C 307.052 -0.310026 4.23467 0
M  V30 3476 O 308.076 -0.192543 3.55679 0
M  V30 3477 O 306.935 -0.546031 5.43765 0
M  V30 3478 H 304.029 -0.117925 0.818549 0
M  V30 3479 H 306.575 0.519169 1.61563 0
M  V30 3480 H 305.347 0.87652 3.81357 0
M  V30 3481 H 304.97 -0.836928 3.88692 0
M  V30 3482 N 305.967 -1.56429 0.191757 0
M  V30 3483 C 307.216 -1.9666 -0.448088 0
M  V30 3484 C 307.529 -1.08136 -1.62991 0
M  V30 3485 O 308.735 -1.38135 -2.33733 0
M  V30 3486 C 307.191 -3.49753 -0.848585 0
M  V30 3487 C 306.799 -4.46935 0.308764 0
M  V30 3488 C 308.543 -3.9876 -1.4557 0
M  V30 3489 C 306.45 -5.91293 -0.112506 0
M  V30 3490 H 305.38 -0.734312 -0.171179 0
M  V30 3491 H 308.031 -1.81301 0.283242 0
M  V30 3492 H 306.413 -3.60604 -1.63649 0
M  V30 3493 H 307.587 -4.47813 1.08627 0
M  V30 3494 H 305.902 -4.08102 0.827158 0
M  V30 3495 H 308.499 -5.04086 -1.78328 0
M  V30 3496 H 308.842 -3.42875 -2.36099 0
M  V30 3497 H 309.375 -3.9101 -0.731836 0
M  V30 3498 H 306.114 -6.51097 0.758514 0
M  V30 3499 H 305.634 -5.93676 -0.854941 0
M  V30 3500 H 307.313 -6.44663 -0.549448 0
M  V30 3501 N 307.445 0.0818655 -1.57387 0
M  V30 3502 C 308.67 0.799946 -1.91352 0
M  V30 3503 C 309.095 1.70833 -0.787258 0
M  V30 3504 O 308.453 1.79419 0.26048 0
M  V30 3505 C 308.501 1.57812 -3.24234 0
M  V30 3506 O 307.605 2.68806 -3.12757 0
M  V30 3507 H 306.946 0.21891 -0.626877 0
M  V30 3508 H 309.476 0.0531256 -2.04531 0
M  V30 3509 H 309.486 1.95952 -3.57864 0
M  V30 3510 H 308.161 0.911548 -4.05788 0
M  V30 3511 H 306.738 2.33597 -2.90666 0
M  V30 3512 N 308.923 1.53595 0.353017 0
M  V30 3513 C 309.855 1.77219 1.45348 0
M  V30 3514 C 310.868 0.65324 1.49119 0
M  V30 3515 O 312.057 0.929775 1.52373 0
M  V30 3516 C 309.157 1.84841 2.84055 0
M  V30 3517 C 308.33 3.14649 3.03833 0
M  V30 3518 C 307.389 3.13351 4.22727 0
M  V30 3519 O 306.415 3.87107 4.17297 0
M  V30 3520 N 307.617 2.35052 5.30783 0
M  V30 3521 H 310.382 2.72178 1.25457 0
M  V30 3522 H 307.943 1.52528 0.542833 0
M  V30 3523 H 309.935 1.81435 3.61751 0
M  V30 3524 H 308.505 0.971114 2.97133 0
M  V30 3525 H 307.725 3.31256 2.13689 0
M  V30 3526 H 309.013 4.00411 3.13925 0
M  V30 3527 H 308.411 1.74663 5.38061 0
M  V30 3528 H 306.968 2.37453 6.07009 0
M  V30 3529 N 310.401 -0.613514 1.45168 0
M  V30 3530 C 311.331 -1.7354 1.56225 0
M  V30 3531 C 312.312 -1.64981 0.41414 0
M  V30 3532 O 313.497 -1.83472 0.636526 0
M  V30 3533 C 310.627 -3.12128 1.52295 0
M  V30 3534 C 309.581 -3.35491 2.65762 0
M  V30 3535 C 308.907 -4.74291 2.46885 0
M  V30 3536 C 310.207 -3.26325 4.0781 0
M  V30 3537 H 311.901 -1.64543 2.50132 0
M  V30 3538 H 309.447 -0.790185 1.20383 0
M  V30 3539 H 311.4 -3.90404 1.58628 0
M  V30 3540 H 310.124 -3.2195 0.549139 0
M  V30 3541 H 308.783 -2.59603 2.58847 0
M  V30 3542 H 308.431 -4.80839 1.47657 0
M  V30 3543 H 308.131 -4.9088 3.22972 0
M  V30 3544 H 309.655 -5.54775 2.55063 0
M  V30 3545 H 311.069 -3.94483 4.16 0
M  V30 3546 H 309.466 -3.54445 4.8424 0
M  V30 3547 H 310.536 -2.23855 4.30136 0
M  V30 3548 N 311.879 -1.3236 -0.855495 0
M  V30 3549 C 313.104 -1.2601 -1.64731 0
M  V30 3550 C 313.529 0.169068 -1.87339 0
M  V30 3551 O 312.887 1.12016 -1.42556 0
M  V30 3552 C 312.935 -2.02417 -2.98429 0
M  V30 3553 O 312.039 -1.3714 -3.8893 0
M  V30 3554 H 311.38 -0.434325 -0.502253 0
M  V30 3555 H 313.91 -1.74661 -1.06558 0
M  V30 3556 H 313.92 -2.12559 -3.48257 0
M  V30 3557 H 312.595 -3.06343 -2.81295 0
M  V30 3558 H 311.172 -1.3554 -3.47395 0
M  V30 3559 N 313.357 1.07166 -1.15556 0
M  V30 3560 C 314.604 1.79798 -0.931604 0
M  V30 3561 C 314.932 1.8682 0.54115 0
M  V30 3562 O 314.187 1.34942 1.41736 0
M  V30 3563 C 314.486 3.24707 -1.49332 0
M  V30 3564 C 314.152 3.37781 -2.98688 0
M  V30 3565 C 312.814 3.41057 -3.39461 0
M  V30 3566 C 315.166 3.40424 -3.94665 0
M  V30 3567 C 312.494 3.4458 -4.74849 0
M  V30 3568 C 314.846 3.45485 -5.29927 0
M  V30 3569 C 313.51 3.47039 -5.70193 0
M  V30 3570 H 312.78 0.657928 -0.340898 0
M  V30 3571 H 315.427 1.26091 -1.44129 0
M  V30 3572 H 313.732 3.81208 -0.904859 0
M  V30 3573 H 315.429 3.79486 -1.29582 0
M  V30 3574 H 312.019 3.35932 -2.66172 0
M  V30 3575 H 316.203 3.37113 -3.64237 0
M  V30 3576 H 311.459 3.44083 -5.05388 0
M  V30 3577 H 315.633 3.46476 -6.04092 0
M  V30 3578 H 313.26 3.49522 -6.75084 0
M  V30 3579 N 314.835 0.952656 1.25548 0
M  V30 3580 C 316.084 0.602053 1.92505 0
M  V30 3581 C 316.397 -0.864663 1.75451 0
M  V30 3582 O 317.603 -1.32514 2.36965 0
M  V30 3583 C 316.059 1.02607 3.44963 0
M  V30 3584 C 315.667 2.51519 3.70732 0
M  V30 3585 C 317.411 0.747905 4.1786 0
M  V30 3586 C 315.318 2.87732 5.16686 0
M  V30 3587 H 314.248 0.22146 0.720744 0
M  V30 3588 H 316.899 1.15684 1.42441 0
M  V30 3589 H 315.281 0.399712 3.93978 0
M  V30 3590 H 316.455 3.19157 3.32378 0
M  V30 3591 H 314.77 2.76786 3.11092 0
M  V30 3592 H 317.367 0.994647 5.25367 0
M  V30 3593 H 317.71 -0.315629 4.15102 0
M  V30 3594 H 318.243 1.33452 3.74747 0
M  V30 3595 H 314.982 3.93095 5.24554 0
M  V30 3596 H 314.502 2.24765 5.56094 0
M  V30 3597 H 316.181 2.76817 5.84792 0
M  V30 3598 N 316.313 -1.40141 0.720998 0
M  V30 3599 C 317.263 -2.27949 0.0482544 0
M  V30 3600 C 318.247 -1.43538 -0.727021 0
M  V30 3601 O 319.439 -1.6658 -0.598332 0
M  V30 3602 C 316.568 -3.32126 -0.868729 0
M  V30 3603 C 315.654 -4.24008 -0.0883515 0
M  V30 3604 N 316.045 -4.97154 0.931226 0
M  V30 3605 C 314.343 -4.4485 -0.320105 0
M  V30 3606 C 315.044 -5.64587 1.4006 0
M  V30 3607 N 314.02 -5.38787 0.721752 0
M  V30 3608 H 317.822 -2.81948 0.829609 0
M  V30 3609 H 315.336 -1.52656 0.554067 0
M  V30 3610 H 317.333 -3.93884 -1.36605 0
M  V30 3611 H 315.993 -2.79687 -1.6494 0
M  V30 3612 H 317.004 -5.01 1.31222 0
M  V30 3613 H 313.681 -4.03378 -1.07668 0
M  V30 3614 H 315.071 -6.33175 2.24808 0
M  V30 3615 N 317.792 -0.46758 -1.50504 0
M  V30 3616 C 319.069 0.15003 -1.95024 0
M  V30 3617 C 319.449 1.57304 -1.40779 0
M  V30 3618 O 318.797 2.20281 -0.607319 0
M  V30 3619 C 319.007 0.0969324 -3.48865 0
M  V30 3620 C 320.355 0.287565 -4.23625 0
M  V30 3621 O 321.379 0.173678 -3.55776 0
M  V30 3622 O 320.238 0.517186 -5.44047 0
M  V30 3623 H 317.332 0.113582 -0.819163 0
M  V30 3624 H 319.878 -0.52773 -1.61286 0
M  V30 3625 H 318.65 -0.896732 -3.80886 0
M  V30 3626 H 318.273 0.816303 -3.8913 0
M  V30 3627 N 319.27 1.56325 -0.20005 0
M  V30 3628 C 320.2 2.22318 0.713916 0
M  V30 3629 C 321.181 1.18788 1.21752 0
M  V30 3630 O 322.366 1.47309 1.26545 0
M  V30 3631 C 319.496 2.88639 1.93144 0
M  V30 3632 C 318.45 3.98457 1.56255 0
M  V30 3633 C 317.776 4.51967 2.85709 0
M  V30 3634 C 319.076 5.16612 0.768747 0
M  V30 3635 H 320.77 2.98952 0.163755 0
M  V30 3636 H 318.316 1.43792 0.0773219 0
M  V30 3637 H 320.269 3.33491 2.57608 0
M  V30 3638 H 318.993 2.09419 2.50621 0
M  V30 3639 H 317.652 3.54305 0.941471 0
M  V30 3640 H 317.3 3.69503 3.41287 0
M  V30 3641 H 317 5.26071 2.6177 0
M  V30 3642 H 318.524 4.99523 3.51154 0
M  V30 3643 H 319.938 5.57977 1.3166 0
M  V30 3644 H 318.335 5.96812 0.627286 0
M  V30 3645 H 319.405 4.84358 -0.229168 0
M  V30 3646 N 320.748 -0.0735177 1.57428 0
M  V30 3647 C 321.996 -0.771472 1.86796 0
M  V30 3648 C 322.317 -1.78201 0.791804 0
M  V30 3649 O 321.587 -1.95074 -0.179718 0
M  V30 3650 H 320.167 -0.28791 0.689287 0
M  V30 3651 H 322.829 -0.0500161 1.94836 0
M  V30 3652 H 321.925 -1.28874 2.8425 0
M  V30 3653 N 322.226 -1.5378 -0.344866 0
M  V30 3654 C 323.637 -1.62428 -0.920552 0
M  V30 3655 C 323.988 -0.504747 -1.89596 0
M  V30 3656 O 323.113 0.365711 -2.13287 0
M  V30 3657 C 323.708 -2.94419 -1.67639 0
M  V30 3658 C 322.267 -3.05333 -2.20111 0
M  V30 3659 C 321.414 -2.57866 -1.01982 0
M  V30 3660 H 324.365 -1.58222 -0.123042 0
M  V30 3661 H 324.386 -2.83384 -2.53917 0
M  V30 3662 H 323.898 -3.7588 -0.966224 0
M  V30 3663 H 321.999 -2.28502 -2.94308 0
M  V30 3664 H 322.112 -4.10778 -2.46573 0
M  V30 3665 H 320.476 -2.13241 -1.39285 0
M  V30 3666 H 321.259 -3.41765 -0.324308 0
M  V30 3667 N 323.704 0.605807 -1.45491 0
M  V30 3668 C 324.651 1.7164 -1.54299 0
M  V30 3669 C 325.621 1.61486 -0.388761 0
M  V30 3670 O 326.806 1.81039 -0.602445 0
M  V30 3671 C 323.946 3.09953 -1.51734 0
M  V30 3672 C 323.059 3.309 -2.77721 0
M  V30 3673 C 322.194 4.59329 -2.66816 0
M  V30 3674 C 321.233 4.7354 -3.87848 0
M  V30 3675 N 320.37 5.9327 -3.75467 0
M  V30 3676 H 325.21 1.63449 -2.49176 0
M  V30 3677 H 322.747 0.796957 -1.23641 0
M  V30 3678 H 324.705 3.89977 -1.48235 0
M  V30 3679 H 323.335 3.17098 -0.604068 0
M  V30 3680 H 322.387 2.44639 -2.913 0
M  V30 3681 H 323.699 3.37274 -3.67488 0
M  V30 3682 H 322.853 5.4755 -2.61292 0
M  V30 3683 H 321.592 4.55355 -1.74651 0
M  V30 3684 H 320.597 3.83741 -3.93729 0
M  V30 3685 H 321.822 4.79309 -4.81082 0
M  V30 3686 H 319.768 5.90338 -2.86072 0
M  V30 3687 H 319.685 6.00811 -4.5887 0
M  V30 3688 H 320.953 6.83984 -3.73879 0
M  V30 3689 N 325.182 1.32811 0.848464 0
M  V30 3690 C 326.43 1.23479 1.59991 0
M  V30 3691 C 326.751 -0.201853 1.93952 0
M  V30 3692 O 326.021 -1.12818 1.60153 0
M  V30 3693 H 324.601 0.454034 0.593179 0
M  V30 3694 H 327.263 1.66412 1.01455 0
M  V30 3695 H 326.359 1.82178 2.53412 0
M  V30 3696 N 326.66 -1.06551 1.16123 0
M  V30 3697 C 327.909 -1.78687 0.935622 0
M  V30 3698 C 328.222 -1.88056 -0.538001 0
M  V30 3699 O 329.428 -2.56794 -0.88143 0
M  V30 3700 C 327.884 -3.21143 1.62466 0
M  V30 3701 C 327.492 -3.19949 3.13587 0
M  V30 3702 C 329.236 -3.9783 1.48092 0
M  V30 3703 C 327.143 -4.57108 3.75241 0
M  V30 3704 H 326.073 -0.669712 0.346412 0
M  V30 3705 H 328.724 -1.19534 1.39226 0
M  V30 3706 H 327.106 -3.80539 1.09572 0
M  V30 3707 H 328.28 -2.70151 3.73303 0
M  V30 3708 H 326.595 -2.5676 3.27816 0
M  V30 3709 H 329.192 -4.99217 1.91538 0
M  V30 3710 H 329.535 -4.14078 0.429507 0
M  V30 3711 H 330.068 -3.4495 1.98127 0
M  V30 3712 H 326.807 -4.46065 4.80319 0
M  V30 3713 H 326.327 -5.07111 3.20309 0
M  V30 3714 H 328.006 -5.26069 3.76644 0
M  V30 3715 N 328.138 -0.959301 -1.25041 0
M  V30 3716 C 329.048 -0.489994 -2.29426 0
M  V30 3717 C 330.064 0.444944 -1.68215 0
M  V30 3718 O 331.24 0.320046 -1.98841 0
M  V30 3719 C 328.305 0.220309 -3.45999 0
M  V30 3720 C 327.366 -0.753418 -4.22637 0
M  V30 3721 C 326.599 -0.076918 -5.33645 0
M  V30 3722 O 326.822 1.13649 -5.58963 0
M  V30 3723 O 325.756 -0.764824 -5.97021 0
M  V30 3724 H 329.582 -1.35755 -2.71669 0
M  V30 3725 H 327.167 -0.725961 -1.30576 0
M  V30 3726 H 329.049 0.619677 -4.16819 0
M  V30 3727 H 327.724 1.06296 -3.0575 0
M  V30 3728 H 326.631 -1.20308 -3.54227 0
M  V30 3729 H 327.964 -1.56423 -4.66683 0
M  V30 3730 N 329.616 1.39756 -0.72842 0
M  V30 3731 C 330.864 2.00248 -0.272946 0
M  V30 3732 C 331.185 1.58077 1.14178 0
M  V30 3733 O 330.455 0.826014 1.77634 0
M  V30 3734 H 329.035 0.740554 -0.0979247 0
M  V30 3735 H 331.697 1.70903 -0.936912 0
M  V30 3736 H 330.793 3.10495 -0.316142 0
M  V30 3737 N 331.094 0.475555 1.50254 0
M  V30 3738 C 332.027 -0.362381 2.25304 0
M  V30 3739 C 333.005 -0.992393 1.28803 0
M  V30 3740 O 334.189 -1.02746 1.58036 0
M  V30 3741 C 331.316 -1.50813 3.03271 0
M  V30 3742 C 330.362 -0.995044 4.1473 0
M  V30 3743 S 331.195 0.0938436 5.35418 0
M  V30 3744 C 332.351 -1.05567 6.16933 0
M  V30 3745 H 332.584 0.274686 2.96028 0
M  V30 3746 H 330.117 0.260495 1.52187 0
M  V30 3747 H 332.075 -2.16476 3.48781 0
M  V30 3748 H 330.736 -2.11672 2.32064 0
M  V30 3749 H 329.929 -1.85293 4.68703 0
M  V30 3750 H 329.531 -0.416052 3.71679 0
M  V30 3751 H 331.823 -1.96636 6.48337 0
M  V30 3752 H 332.766 -0.555109 7.05921 0
M  V30 3753 H 333.174 -1.31151 5.49053 0
M  V30 3754 N 332.573 -1.56217 0.208337 0
M  V30 3755 C 333.822 -1.97124 -0.427204 0
M  V30 3756 C 334.135 -1.09859 -1.61835 0
M  V30 3757 O 335.341 -1.40606 -2.32255 0
M  V30 3758 C 333.797 -3.50633 -0.811442 0
M  V30 3759 C 333.405 -4.46582 0.35615 0
M  V30 3760 C 335.149 -4.00282 -1.41332 0
M  V30 3761 C 333.056 -5.91379 -0.0497852 0
M  V30 3762 H 331.986 -0.736086 -0.163381 0
M  V30 3763 H 334.637 -1.8099 0.302456 0
M  V30 3764 H 333.019 -3.62319 -1.59815 0
M  V30 3765 H 334.193 -4.46636 1.1337 0
M  V30 3766 H 332.508 -4.07202 0.870396 0
M  V30 3767 H 335.105 -5.0595 -1.72972 0
M  V30 3768 H 335.448 -3.45359 -2.32449 0
M  V30 3769 H 335.981 -3.91764 -0.690323 0
M  V30 3770 H 332.72 -6.50255 0.827529 0
M  V30 3771 H 332.24 -5.94549 -0.791926 0
M  V30 3772 H 333.919 -6.45209 -0.481042 0
M  V30 3773 N 334.051 0.0651679 -1.57465 0
M  V30 3774 C 334.984 1.10876 -1.99453 0
M  V30 3775 C 335.962 1.37205 -0.872555 0
M  V30 3776 O 337.146 1.50468 -1.13542 0
M  V30 3777 C 334.273 2.45167 -2.3369 0
M  V30 3778 C 333.319 2.3493 -3.55964 0
M  V30 3779 S 334.152 1.73708 -5.06543 0
M  V30 3780 C 335.308 3.09563 -5.43987 0
M  V30 3781 H 335.541 0.750967 -2.87659 0
M  V30 3782 H 333.074 0.273933 -1.51951 0
M  V30 3783 H 335.032 3.22412 -2.54088 0
M  V30 3784 H 333.693 2.78105 -1.46001 0
M  V30 3785 H 332.886 3.3398 -3.77457 0
M  V30 3786 H 332.488 1.65823 -3.3523 0
M  V30 3787 H 334.78 4.05882 -5.42463 0
M  V30 3788 H 335.723 2.92843 -6.44708 0
M  V30 3789 H 336.131 3.10474 -4.71451 0
M  V30 3790 N 335.529 1.53961 0.336706 0
M  V30 3791 C 336.476 1.82428 1.41381 0
M  V30 3792 C 337.446 0.670444 1.51968 0
M  V30 3793 O 338.631 0.915565 1.67398 0
M  V30 3794 C 335.771 2.04564 2.77934 0
M  V30 3795 C 334.884 3.32267 2.76084 0
M  V30 3796 C 334.019 3.44434 4.04399 0
M  V30 3797 C 333.058 4.66061 3.96804 0
M  V30 3798 N 332.195 4.75224 5.16823 0
M  V30 3799 H 337.035 2.74324 1.16405 0
M  V30 3800 H 334.572 1.35869 0.563752 0
M  V30 3801 H 336.53 2.15388 3.57301 0
M  V30 3802 H 335.16 1.15974 3.01247 0
M  V30 3803 H 334.212 3.3025 1.88784 0
M  V30 3804 H 335.524 4.21733 2.66351 0
M  V30 3805 H 334.678 3.54728 4.92192 0
M  V30 3806 H 333.417 2.53037 4.16921 0
M  V30 3807 H 332.422 4.55838 3.07396 0
M  V30 3808 H 333.647 5.58829 3.85858 0
M  V30 3809 H 331.593 3.86739 5.29876 0
M  V30 3810 H 331.51 5.58636 5.09374 0
M  V30 3811 H 332.778 4.89835 6.06367 0
M  V30 3812 N 337.007 -0.598083 1.45811 0
M  V30 3813 C 338.423 -0.919847 1.30426 0
M  V30 3814 C 338.623 -1.99759 0.264303 0
M  V30 3815 O 337.679 -2.50221 -0.338472 0
M  V30 3816 C 338.992 -1.35176 2.68603 0
M  V30 3817 C 340.54 -1.46546 2.76574 0
M  V30 3818 C 341.015 -1.9311 4.15298 0
M  V30 3819 N 342.506 -2.00328 4.1764 0
M  V30 3820 C 343.241 -2.37599 5.21856 0
M  V30 3821 N 342.737 -2.73771 6.36413 0
M  V30 3822 N 344.53 -2.38021 5.09218 0
M  V30 3823 H 336.681 0.114111 2.12093 0
M  V30 3824 H 338.944 -0.0116121 0.947929 0
M  V30 3825 H 338.65 -0.633969 3.45939 0
M  V30 3826 H 338.524 -2.3164 2.97696 0
M  V30 3827 H 340.911 -2.17415 1.99537 0
M  V30 3828 H 340.992 -0.483727 2.51185 0
M  V30 3829 H 340.636 -1.22824 4.92825 0
M  V30 3830 H 340.566 -2.92213 4.38086 0
M  V30 3831 H 343.057 -1.74925 3.34977 0
M  V30 3832 H 343.37 -3.0112 7.11721 0
M  V30 3833 H 341.715 -2.71445 6.39799 0
M  V30 3834 H 344.906 -2.09174 4.18765 0
M  V30 3835 H 345.079 -2.66741 5.90554 0
M  V30 3836 N 338.485 -1.33259 -0.841409 0
M  V30 3837 C 339.71 -1.2775 -1.63385 0
M  V30 3838 C 340.135 0.149188 -1.87507 0
M  V30 3839 O 339.493 1.10498 -1.43736 0
M  V30 3840 C 339.541 -2.05571 -2.96265 0
M  V30 3841 O 338.645 -1.41257 -3.87453 0
M  V30 3842 H 337.986 -0.439627 -0.497618 0
M  V30 3843 H 340.516 -1.75782 -1.04699 0
M  V30 3844 H 340.526 -2.16241 -3.45982 0
M  V30 3845 H 339.201 -3.09309 -2.7803 0
M  V30 3846 H 337.778 -1.39217 -3.45938 0
M  V30 3847 N 339.963 1.05934 -1.16686 0
M  V30 3848 C 341.211 1.78447 -0.948744 0
M  V30 3849 C 341.532 1.87813 0.524523 0
M  V30 3850 O 340.802 1.38945 1.38098 0
M  V30 3851 H 339.382 0.660971 -0.348033 0
M  V30 3852 H 342.044 1.27947 -1.47022 0
M  V30 3853 H 341.14 2.80394 -1.37061 0
M  V30 3854 N 341.441 0.965919 1.2453 0
M  V30 3855 C 342.689 0.625593 1.92174 0
M  V30 3856 C 343.01 -0.841652 1.75901 0
M  V30 3857 O 342.28 -1.60061 1.12948 0
M  V30 3858 H 340.86 0.228388 0.71123 0
M  V30 3859 H 343.522 1.2266 1.51461 0
M  V30 3860 H 342.618 0.864653 2.99884 0
M  V30 3861 N 342.919 -1.39368 0.735821 0
M  V30 3862 C 343.869 -2.27885 0.0724287 0
M  V30 3863 C 344.853 -1.44301 -0.711756 0
M  V30 3864 O 346.045 -1.67206 -0.58063 0
M  V30 3865 C 343.174 -3.33029 -0.833454 0
M  V30 3866 C 342.26 -4.24078 -0.0433749 0
M  V30 3867 N 342.651 -4.96138 0.983903 0
M  V30 3868 C 340.949 -4.45164 -0.272905 0
M  V30 3869 C 341.65 -5.63069 1.4604 0
M  V30 3870 N 340.626 -5.37991 0.778857 0
M  V30 3871 H 344.428 -2.81052 0.859467 0
M  V30 3872 H 341.942 -1.5206 0.570227 0
M  V30 3873 H 343.939 -3.95311 -1.32419 0
M  V30 3874 H 342.599 -2.81421 -1.61964 0
M  V30 3875 H 343.61 -4.9958 1.36528 0
M  V30 3876 H 340.287 -4.04497 -1.03383 0
M  V30 3877 H 341.677 -6.30755 2.31511 0
M  V30 3878 N 344.397 -0.483516 -1.5 0
M  V30 3879 C 345.813 -0.138404 -1.58999 0
M  V30 3880 C 346.013 1.35597 -1.4905 0
M  V30 3881 O 345.069 2.13039 -1.35539 0
M  V30 3882 C 346.382 -0.699658 -2.92447 0
M  V30 3883 C 347.93 -0.664195 -3.05872 0
M  V30 3884 C 348.405 -1.20321 -4.41913 0
M  V30 3885 N 349.896 -1.16315 -4.48358 0
M  V30 3886 C 350.631 -1.55058 -5.52037 0
M  V30 3887 N 350.127 -2.01311 -6.62907 0
M  V30 3888 N 351.92 -1.46584 -5.42651 0
M  V30 3889 H 344.071 -1.45529 -1.5471 0
M  V30 3890 H 346.334 -0.60258 -0.731848 0
M  V30 3891 H 346.04 -1.747 -3.05242 0
M  V30 3892 H 345.914 -0.150194 -3.76901 0
M  V30 3893 H 348.301 0.374272 -2.92717 0
M  V30 3894 H 348.382 -1.25061 -2.23144 0
M  V30 3895 H 348.026 -2.24037 -4.55818 0
M  V30 3896 H 347.956 -0.592896 -5.23252 0
M  V30 3897 H 350.447 -0.824058 -3.68806 0
M  V30 3898 H 350.76 -2.2899 -7.38095 0
M  V30 3899 H 349.105 -2.05273 -6.63994 0
M  V30 3900 H 352.296 -1.10281 -4.54924 0
M  V30 3901 H 352.469 -1.77103 -6.23329 0
M  V30 3902 N 345.875 1.56104 -0.216619 0
M  V30 3903 C 347.124 1.97348 0.416744 0
M  V30 3904 C 347.437 1.10715 1.6125 0
M  V30 3905 O 348.643 1.41836 2.31506 0
M  V30 3906 C 347.099 3.51059 0.792835 0
M  V30 3907 C 346.707 4.46387 -0.379828 0
M  V30 3908 C 348.451 4.01026 1.39208 0
M  V30 3909 C 346.358 5.91397 0.0184223 0
M  V30 3910 H 345.288 0.736942 0.159475 0
M  V30 3911 H 347.939 1.80827 -0.31205 0
M  V30 3912 H 346.321 3.63162 1.57891 0
M  V30 3913 H 347.495 4.46029 -1.15737 0
M  V30 3914 H 345.81 4.06734 -0.891979 0
M  V30 3915 H 348.407 5.0686 1.70286 0
M  V30 3916 H 348.75 3.46587 2.30614 0
M  V30 3917 H 349.283 3.92125 0.669537 0
M  V30 3918 H 346.022 6.49807 -0.862002 0
M  V30 3919 H 345.542 5.94961 0.760384 0
M  V30 3920 H 347.221 6.45455 0.446818 0
M  V30 3921 N 347.353 -0.0568162 1.57498 0
M  V30 3922 C 348.764 -0.606858 1.76562 0
M  V30 3923 C 349.115 -1.77114 0.844094 0
M  V30 3924 O 348.24 -2.16376 0.0318911 0
M  V30 3925 C 348.835 -1.10766 3.20182 0
M  V30 3926 C 347.394 -1.60344 3.40539 0
M  V30 3927 C 346.541 -0.529311 2.72201 0
M  V30 3928 H 349.492 0.169393 1.57793 0
M  V30 3929 H 349.513 -1.97602 3.25167 0
M  V30 3930 H 349.025 -0.26006 3.87228 0
M  V30 3931 H 347.126 -2.47379 2.78629 0
M  V30 3932 H 347.239 -1.67006 4.4905 0
M  V30 3933 H 345.603 -0.977893 2.35179 0
M  V30 3934 H 346.386 0.308352 3.41912 0
M  V30 3935 N 348.832 -1.54138 -0.328536 0
M  V30 3936 C 350.08 -1.71765 -1.06496 0
M  V30 3937 C 350.401 -0.49149 -1.88704 0
M  V30 3938 O 349.671 0.494539 -1.89555 0
M  V30 3939 H 348.251 -0.633295 -0.396164 0
M  V30 3940 H 350.913 -1.91429 -0.366176 0
M  V30 3941 H 350.009 -2.5951 -1.73381 0
M  V30 3942 N 350.31 0.590341 -1.46126 0
M  V30 3943 C 351.24 1.71032 -1.58966 0
M  V30 3944 C 352.221 1.64302 -0.440335 0
M  V30 3945 O 353.406 1.82436 -0.665634 0
M  V30 3946 C 350.536 3.09665 -1.57241 0
M  V30 3947 C 349.49 3.31221 -2.71066 0
M  V30 3948 C 348.816 4.70303 -2.54399 0
M  V30 3949 C 350.116 3.19796 -4.1295 0
M  V30 3950 H 351.81 1.60543 -2.52718 0
M  V30 3951 H 349.356 0.770933 -1.21625 0
M  V30 3952 H 351.309 3.87831 -1.64819 0
M  V30 3953 H 350.033 3.21036 -0.600289 0
M  V30 3954 H 348.692 2.55452 -2.62944 0
M  V30 3955 H 348.34 4.78429 -1.55288 0
M  V30 3956 H 348.04 4.85679 -3.30741 0
M  V30 3957 H 349.564 5.50647 -2.63857 0
M  V30 3958 H 350.978 3.87815 -4.22223 0
M  V30 3959 H 349.375 3.46696 -4.89818 0
M  V30 3960 H 350.445 2.16983 -4.33643 0
M  V30 3961 N 351.788 1.33704 0.83433 0
M  V30 3962 C 352.736 1.24323 1.96587 0
M  V30 3963 C 353.73 0.143659 1.6879 0
M  V30 3964 O 354.936 0.30791 1.77347 0
M  V30 3965 H 351.311 0.385925 0.645419 0
M  V30 3966 H 353.282 2.19978 2.01624 0
M  V30 3967 C 352.031 1.00394 3.32891 0
M  V30 3968 H 351.354 1.84231 3.54822 0
M  V30 3969 H 352.794 0.97862 4.12552 0
M  V30 3970 C 351.253 -0.293047 3.35623 0
M  V30 3971 O 351.783 -1.29823 3.80143 0
M  V30 3972 N 349.989 -0.322174 2.88809 0
M  V30 3973 H 349.536 0.496379 2.52772 0
M  V30 3974 H 349.494 -1.18977 2.91019 0
M  V30 3975 N 353.266 -1.05314 1.17247 0
M  V30 3976 C 354.506 -1.79869 0.970898 0
M  V30 3977 C 354.87 -1.85594 -0.491808 0
M  V30 3978 O 356.071 -2.56229 -0.812409 0
M  V30 3979 C 354.342 -3.19937 1.59295 0
M  V30 3980 S 355.901 -4.10986 1.53741 0
M  V30 3981 H 352.719 -0.61949 0.348931 0
M  V30 3982 H 355.321 -1.26368 1.49169 0
M  V30 3983 H 354.025 -3.13372 2.65003 0
M  V30 3984 H 353.556 -3.78515 1.07191 0
M  V30 3985 H 355.571 -4.93203 0.544537 0
M  V30 3986 N 354.744 -0.972509 -1.24016 0
M  V30 3987 C 355.984 -0.644951 -1.93958 0
M  V30 3988 C 356.348 0.80559 -1.74282 0
M  V30 3989 O 357.549 1.2436 -2.38302 0
M  V30 3990 C 355.82 -1.01521 -3.42678 0
M  V30 3991 S 357.379 -0.802927 -4.31391 0
M  V30 3992 H 354.197 -0.236452 -0.670531 0
M  V30 3993 H 356.799 -1.25048 -1.50277 0
M  V30 3994 H 355.503 -2.06769 -3.54506 0
M  V30 3995 H 355.034 -0.400648 -3.91355 0
M  V30 3996 H 357.049 0.317256 -4.95185 0
M  V30 3997 N 356.222 1.38976 -0.743202 0
M  V30 3998 C 357.47 1.99948 -0.29417 0
M  V30 3999 C 357.791 1.59279 1.12495 0
M  V30 4000 O 357.061 0.844808 1.76748 0
M  V30 4001 H 355.641 0.739473 -0.105774 0
M  V30 4002 H 358.303 1.699 -0.954986 0
M  V30 4003 H 357.399 3.10142 -0.349056 0
M  V30 4004 N 357.7 0.491464 1.49741 0
M  V30 4005 C 358.632 -0.328609 2.26832 0
M  V30 4006 C 359.645 -0.939113 1.32983 0
M  V30 4007 O 360.834 -0.824067 1.58339 0
M  V30 4008 C 357.934 -1.47675 3.05033 0
M  V30 4009 C 357.107 -0.975305 4.26388 0
M  V30 4010 C 356.166 -1.99991 4.86714 0
M  V30 4011 O 355.192 -1.57229 5.47054 0
M  V30 4012 N 356.394 -3.32962 4.75517 0
M  V30 4013 H 359.159 0.332377 2.97851 0
M  V30 4014 H 356.72 0.323441 1.58636 0
M  V30 4015 H 358.712 -2.15954 3.42266 0
M  V30 4016 H 357.282 -2.04206 2.36683 0
M  V30 4017 H 356.502 -0.117723 3.94024 0
M  V30 4018 H 357.79 -0.618531 5.05026 0
M  V30 4019 H 357.188 -3.70399 4.27576 0
M  V30 4020 H 355.745 -3.96982 5.16961 0
M  V30 4021 N 359.178 -1.55987 0.224894 0
M  V30 4022 C 360.426 -1.97998 -0.405099 0
M  V30 4023 C 360.747 -1.11387 -1.60056 0
M  V30 4024 O 360.017 -0.191645 -1.9496 0
M  V30 4025 H 358.597 -0.731235 -0.152658 0
M  V30 4026 H 361.259 -1.92279 0.318567 0
M  V30 4027 H 360.355 -3.03463 -0.729167 0
M  V30 4028 N 360.656 0.0484629 -1.57525 0
M  V30 4029 C 362.072 0.40375 -1.54409 0
M  V30 4030 C 362.272 1.77786 -0.948384 0
M  V30 4031 O 361.328 2.46189 -0.560983 0
M  V30 4032 C 362.641 0.323394 -2.98956 0
M  V30 4033 C 364.189 0.401892 -3.10409 0
M  V30 4034 C 364.664 0.351195 -4.56652 0
M  V30 4035 N 366.155 0.410576 -4.61377 0
M  V30 4036 C 366.89 0.393933 -5.72045 0
M  V30 4037 N 366.386 0.330724 -6.9201 0
M  V30 4038 N 368.179 0.442227 -5.60358 0
M  V30 4039 H 360.33 -0.851016 -1.94606 0
M  V30 4040 H 362.593 -0.321721 -0.89174 0
M  V30 4041 H 362.299 -0.62011 -3.4619 0
M  V30 4042 H 362.173 1.12463 -3.60044 0
M  V30 4043 H 364.56 1.33582 -2.63134 0
M  V30 4044 H 364.641 -0.428342 -2.52188 0
M  V30 4045 H 364.285 -0.578987 -5.04589 0
M  V30 4046 H 364.215 1.19928 -5.12762 0
M  V30 4047 H 366.706 0.462729 -3.75056 0
M  V30 4048 H 367.019 0.322592 -7.72126 0
M  V30 4049 H 365.364 0.29706 -6.94365 0
M  V30 4050 H 368.555 0.489464 -4.65534 0
M  V30 4051 H 368.728 0.425788 -6.466 0
M  V30 4052 N 362.134 1.5431 0.320358 0
M  V30 4053 C 363.097 1.83195 1.3774 0
M  V30 4054 C 364.097 0.703906 1.44575 0
M  V30 4055 O 365.287 0.972214 1.44546 0
M  V30 4056 C 362.419 1.99487 2.76438 0
M  V30 4057 H 363.612 2.77642 1.1338 0
M  V30 4058 H 361.165 1.46076 0.556012 0
M  V30 4059 H 361.9 1.07262 3.06048 0
M  V30 4060 H 361.685 2.81575 2.7287 0
M  V30 4061 H 363.175 2.23271 3.52902 0
M  V30 4062 N 363.613 -0.582584 1.46437 0
M  V30 4063 C 364.853 -1.35184 1.53312 0
M  V30 4064 C 365.217 -1.9115 0.180508 0
M  V30 4065 O 366.418 -2.68514 0.124017 0
M  V30 4066 C 364.689 -2.45089 2.60127 0
M  V30 4067 S 366.248 -3.32439 2.86408 0
M  V30 4068 H 363.066 -0.460559 0.54167 0
M  V30 4069 H 365.668 -0.669709 1.83671 0
M  V30 4070 H 364.372 -2.02366 3.57038 0
M  V30 4071 H 363.903 -3.18074 2.315 0
M  V30 4072 H 365.918 -4.43924 2.21688 0
M  V30 4073 N 365.091 -1.34144 -0.827227 0
M  V30 4074 C 366.321 -1.29138 -1.61267 0
M  V30 4075 C 366.729 0.137597 -1.88699 0
M  V30 4076 O 366.072 1.09379 -1.47587 0
M  V30 4077 C 366.134 -2.0097 -2.9808 0
M  V30 4078 C 365.798 -3.50242 -2.93563 0
M  V30 4079 C 366.795 -4.4523 -2.68452 0
M  V30 4080 C 364.48 -3.92592 -3.13331 0
M  V30 4081 C 366.474 -5.80542 -2.63154 0
M  V30 4082 C 364.161 -5.28005 -3.07658 0
M  V30 4083 C 365.159 -6.21792 -2.82602 0
M  V30 4084 O 364.847 -7.54723 -2.76853 0
M  V30 4085 H 364.579 -0.445851 -0.508127 0
M  V30 4086 H 367.133 -1.77263 -1.03763 0
M  V30 4087 H 365.363 -1.47451 -3.57484 0
M  V30 4088 H 367.052 -1.89309 -3.5905 0
M  V30 4089 H 367.818 -4.13832 -2.52919 0
M  V30 4090 H 363.697 -3.19994 -3.31851 0
M  V30 4091 H 367.241 -6.53717 -2.43516 0
M  V30 4092 H 363.138 -5.59023 -3.22743 0
M  V30 4093 H 363.906 -7.64409 -2.92611 0
M  V30 4094 N 366.569 1.04691 -1.17803 0
M  V30 4095 C 367.985 1.29963 -0.926379 0
M  V30 4096 C 368.185 1.97251 0.411635 0
M  V30 4097 O 367.241 2.24922 1.14744 0
M  V30 4098 C 368.554 2.16447 -2.08737 0
M  V30 4099 C 370.102 2.29814 -2.12496 0
M  V30 4100 C 370.577 3.19661 -3.27995 0
M  V30 4101 N 372.068 3.27247 -3.27816 0
M  V30 4102 C 372.803 3.96906 -4.13827 0
M  V30 4103 N 372.299 4.6895 -5.09959 0
M  V30 4104 N 374.092 3.93122 -4.01761 0
M  V30 4105 H 366.243 0.594182 -2.0392 0
M  V30 4106 H 368.506 0.324649 -0.890678 0
M  V30 4107 H 368.212 1.74304 -3.05469 0
M  V30 4108 H 368.086 3.17103 -2.04268 0
M  V30 4109 H 370.473 2.71196 -1.16347 0
M  V30 4110 H 370.554 1.2877 -2.21025 0
M  V30 4111 H 370.198 2.78991 -4.24413 0
M  V30 4112 H 370.128 4.20722 -3.16703 0
M  V30 4113 H 372.619 2.75921 -2.58217 0
M  V30 4114 H 372.932 5.19679 -5.71974 0
M  V30 4115 H 371.277 4.67875 -5.13924 0
M  V30 4116 H 374.468 3.35967 -3.2595 0
M  V30 4117 H 374.641 4.47139 -4.6901 0
M  V30 4118 N 368.047 0.979072 1.23499 0
M  V30 4119 C 369.293 0.6578 1.9247 0
M  V30 4120 C 369.648 -0.799746 1.74991 0
M  V30 4121 O 368.941 -1.56922 1.09937 0
M  V30 4122 C 369.135 0.981932 3.43646 0
M  V30 4123 C 368.964 2.46944 3.75831 0
M  V30 4124 C 367.734 3.13119 3.96591 0
M  V30 4125 C 369.932 3.45006 3.81412 0
M  V30 4126 N 367.914 4.51489 4.15969 0
M  V30 4127 C 369.285 4.68778 4.05768 0
M  V30 4128 C 371.34 3.39505 3.64198 0
M  V30 4129 C 370.043 5.87723 4.14697 0
M  V30 4130 C 372.069 4.57814 3.7438 0
M  V30 4131 C 371.431 5.80381 3.99171 0
M  V30 4132 H 367.53 0.291746 0.72554 0
M  V30 4133 H 370.114 1.25626 1.48749 0
M  V30 4134 H 368.285 0.412179 3.86207 0
M  V30 4135 H 370.017 0.618068 3.99953 0
M  V30 4136 H 366.772 2.63619 3.93449 0
M  V30 4137 H 367.196 5.23221 4.29615 0
M  V30 4138 H 371.838 2.45773 3.44029 0
M  V30 4139 H 369.556 6.81874 4.33675 0
M  V30 4140 H 373.142 4.55132 3.62417 0
M  V30 4141 H 372.022 6.70398 4.06861 0
M  V30 4142 N 369.525 -1.3858 0.750561 0
M  V30 4143 C 370.75 -2.04997 0.314812 0
M  V30 4144 C 371.175 -1.56235 -1.04749 0
M  V30 4145 O 370.533 -0.712981 -1.66692 0
M  V30 4146 C 370.581 -3.58961 0.343415 0
M  V30 4147 O 369.685 -4.07025 -0.663628 0
M  V30 4148 H 369.026 -0.649081 0.139962 0
M  V30 4149 H 371.556 -1.77313 1.02084 0
M  V30 4150 H 371.566 -4.07542 0.193233 0
M  V30 4151 H 370.241 -3.93811 1.33738 0
M  V30 4152 H 368.818 -3.6982 -0.478307 0
M  V30 4153 N 371.003 -0.499398 -1.49478 0
M  V30 4154 C 371.95 0.279881 -2.29097 0
M  V30 4155 C 372.92 0.961805 -1.3542 0
M  V30 4156 O 374.105 0.968777 -1.64376 0
M  V30 4157 C 371.245 1.33932 -3.18051 0
M  V30 4158 C 370.358 0.669333 -4.26783 0
M  V30 4159 C 369.493 1.70907 -5.02955 0
M  V30 4160 C 368.532 1.02087 -6.03527 0
M  V30 4161 N 367.669 2.00474 -6.7287 0
M  V30 4162 H 372.509 -0.405317 -2.95231 0
M  V30 4163 H 370.046 -0.211726 -1.45568 0
M  V30 4164 H 372.004 1.96553 -3.67998 0
M  V30 4165 H 370.634 1.9933 -2.53904 0
M  V30 4166 H 369.686 -0.0701234 -3.80335 0
M  V30 4167 H 370.998 0.127503 -4.98637 0
M  V30 4168 H 370.152 2.41037 -5.56764 0
M  V30 4169 H 368.891 2.28476 -4.30871 0
M  V30 4170 H 367.896 0.305338 -5.48951 0
M  V30 4171 H 369.121 0.451708 -6.77596 0
M  V30 4172 H 367.067 2.57007 -6.03559 0
M  V30 4173 H 366.984 1.51353 -7.40694 0
M  V30 4174 H 368.252 2.69897 -7.31284 0
M  V30 4175 N 372.481 1.55866 -0.233164 0
M  V30 4176 C 373.897 1.59133 0.121988 0
M  V30 4177 C 374.097 1.25016 1.58029 0
M  V30 4178 O 373.153 0.990922 2.32243 0
M  V30 4179 C 374.466 2.99932 -0.214792 0
M  V30 4180 C 376.014 3.12601 -0.157971 0
M  V30 4181 C 376.489 4.55597 -0.46859 0
M  V30 4182 N 377.98 4.61305 -0.418585 0
M  V30 4183 C 378.715 5.69903 -0.63227 0
M  V30 4184 N 378.211 6.86819 -0.90835 0
M  V30 4185 N 380.004 5.59264 -0.563913 0
M  V30 4186 H 372.155 1.76315 -1.18434 0
M  V30 4187 H 374.418 0.820093 -0.475553 0
M  V30 4188 H 374.124 3.29588 -1.22739 0
M  V30 4189 H 373.998 3.74327 0.464691 0
M  V30 4190 H 376.385 2.82735 0.845283 0
M  V30 4191 H 376.466 2.40511 -0.871102 0
M  V30 4192 H 376.11 4.86182 -1.46934 0
M  V30 4193 H 376.04 5.25928 0.265865 0
M  V30 4194 H 378.531 3.77297 -0.213368 0
M  V30 4195 H 378.844 7.65507 -1.05919 0
M  V30 4196 H 377.189 6.88536 -0.945673 0
M  V30 4197 H 380.38 4.66802 -0.348372 0
M  V30 4198 H 380.553 6.43831 -0.733847 0
M  V30 4199 N 373.959 -0.0401083 1.57549 0
M  V30 4200 C 375.205 -0.728793 1.89895 0
M  V30 4201 C 375.56 -1.73551 0.830535 0
M  V30 4202 O 374.853 -1.90914 -0.162007 0
M  V30 4203 C 375.047 -1.44902 3.26708 0
M  V30 4204 C 374.876 -0.513568 4.46758 0
M  V30 4205 C 373.646 -0.138698 5.0511 0
M  V30 4206 C 375.844 0.203341 5.13898 0
M  V30 4207 N 373.826 0.799159 6.08676 0
M  V30 4208 C 375.197 0.997246 6.11927 0
M  V30 4209 C 377.252 0.271459 4.97159 0
M  V30 4210 C 375.955 1.85299 6.95023 0
M  V30 4211 C 377.981 1.11429 5.80808 0
M  V30 4212 C 377.343 1.89615 6.78399 0
M  V30 4213 H 373.442 -0.241125 0.743897 0
M  V30 4214 H 376.026 0.0108016 1.94697 0
M  V30 4215 H 374.197 -2.15914 3.22856 0
M  V30 4216 H 375.929 -2.08921 3.46603 0
M  V30 4217 H 372.684 -0.498496 4.70969 0
M  V30 4218 H 373.108 1.26227 6.65128 0
M  V30 4219 H 377.75 -0.318709 4.21597 0
M  V30 4220 H 375.468 2.454 7.69938 0
M  V30 4221 H 379.054 1.17038 5.69906 0
M  V30 4222 H 377.934 2.53779 7.42001 0
M  V30 4223 N 375.437 -1.54477 -0.31217 0
M  V30 4224 C 376.367 -1.87652 -1.38957 0
M  V30 4225 C 377.348 -0.734358 -1.53431 0
M  V30 4226 O 378.533 -0.98911 -1.67123 0
M  V30 4227 C 375.663 -2.11396 -2.75552 0
M  V30 4228 C 374.617 -3.27243 -2.75855 0
M  V30 4229 C 373.943 -3.36382 -4.15633 0
M  V30 4230 C 375.243 -4.64622 -2.38587 0
M  V30 4231 H 376.937 -2.77887 -1.11442 0
M  V30 4232 H 374.483 -1.33707 -0.534655 0
M  V30 4233 H 376.436 -2.33189 -3.51 0
M  V30 4234 H 375.16 -1.17921 -3.04569 0
M  V30 4235 H 373.819 -3.05356 -2.02863 0
M  V30 4236 H 373.467 -2.40445 -4.41809 0
M  V30 4237 H 373.167 -4.14249 -4.1674 0
M  V30 4238 H 374.691 -3.60422 -4.92877 0
M  V30 4239 H 376.105 -4.86219 -3.03749 0
M  V30 4240 H 374.502 -5.45121 -2.50925 0
M  V30 4241 H 375.572 -4.66097 -1.33723 0
M  V30 4242 N 376.915 0.57481 -1.46744 0
M  V30 4243 C 378.164 1.32898 -1.51727 0
M  V30 4244 C 378.477 1.948 -0.176692 0
M  V30 4245 O 379.683 2.71299 -0.104385 0
M  V30 4246 C 378.139 2.40901 -2.67385 0
M  V30 4247 C 377.747 1.85266 -4.07898 0
M  V30 4248 C 379.491 3.17609 -2.81646 0
M  V30 4249 C 377.398 2.90945 -5.14883 0
M  V30 4250 H 376.328 0.499631 -0.564699 0
M  V30 4251 H 378.979 0.612536 -1.72975 0
M  V30 4252 H 377.361 3.15379 -2.39483 0
M  V30 4253 H 378.535 1.17278 -4.45626 0
M  V30 4254 H 376.85 1.21199 -3.98371 0
M  V30 4255 H 379.447 3.96493 -3.58744 0
M  V30 4256 H 379.79 3.70696 -1.89448 0
M  V30 4257 H 380.323 2.50239 -3.09233 0
M  V30 4258 H 377.062 2.42736 -6.089 0
M  V30 4259 H 376.582 3.57398 -4.81691 0
M  V30 4260 H 378.261 3.54755 -5.41071 0
M  V30 4261 N 378.394 1.34581 0.820102 0
M  V30 4262 C 379.64 1.27285 1.57881 0
M  V30 4263 C 379.973 -0.156137 1.93571 0
M  V30 4264 O 379.248 -1.10222 1.60254 0
M  V30 4265 C 379.531 2.16639 2.87645 0
M  V30 4266 C 379.384 3.68088 2.58517 0
M  V30 4267 C 380.703 2.05378 3.8924 0
M  V30 4268 H 377.822 0.463714 0.572833 0
M  V30 4269 H 380.464 1.64859 0.944539 0
M  V30 4270 H 378.614 1.84725 3.41773 0
M  V30 4271 H 380.286 4.10382 2.10676 0
M  V30 4272 H 378.529 3.89038 1.91917 0
M  V30 4273 H 379.2 4.2598 3.51063 0
M  V30 4274 H 381.676 2.33404 3.44473 0
M  V30 4275 H 380.552 2.7012 4.77835 0
M  V30 4276 H 380.813 1.0316 4.29896 0
M  V30 4277 N 379.872 -1.04064 1.18357 0
M  V30 4278 C 380.819 -2.12077 0.910603 0
M  V30 4279 C 381.789 -1.65421 -0.15 0
M  V30 4280 O 382.974 -1.90797 -0.0103614 0
M  V30 4281 C 380.114 -3.42252 0.442472 0
M  V30 4282 C 379.227 -4.0252 1.5685 0
M  V30 4283 C 378.362 -5.20657 1.05309 0
M  V30 4284 C 377.401 -5.72955 2.1538 0
M  V30 4285 N 376.538 -6.8238 1.65233 0
M  V30 4286 H 381.378 -2.34764 1.83548 0
M  V30 4287 H 378.915 -1.15157 0.915279 0
M  V30 4288 H 380.873 -4.16921 0.152534 0
M  V30 4289 H 379.503 -3.19712 -0.445428 0
M  V30 4290 H 378.555 -3.25178 1.97391 0
M  V30 4291 H 379.867 -4.37362 2.39824 0
M  V30 4292 H 379.021 -6.0244 0.717677 0
M  V30 4293 H 377.76 -4.87318 0.19293 0
M  V30 4294 H 376.765 -4.89793 2.49766 0
M  V30 4295 H 377.99 -6.08337 3.01832 0
M  V30 4296 H 375.936 -6.50917 0.815064 0
M  V30 4297 H 375.853 -7.16286 2.41805 0
M  V30 4298 H 377.121 -7.67788 1.34619 0
M  V30 4299 N 381.35 -0.985608 -1.22978 0
M  V30 4300 C 382.627 -0.573599 -1.87001 0
M  V30 4301 C 383.007 0.949213 -1.88555 0
M  V30 4302 O 382.355 1.82811 -1.37086 0
M  V30 4303 C 382.565 -1.18564 -3.28243 0
M  V30 4304 C 383.913 -1.28163 -4.04796 0
M  V30 4305 O 384.937 -1.13949 -3.37482 0
M  V30 4306 O 383.796 -1.50832 -5.25273 0
M  V30 4307 H 380.89 -0.193868 -0.803955 0
M  V30 4308 H 383.436 -1.08102 -1.30813 0
M  V30 4309 H 382.208 -2.22758 -3.21706 0
M  V30 4310 H 381.831 -0.663363 -3.92027 0
M  V30 4311 N 382.828 1.3818 -0.7579 0
M  V30 4312 C 384.053 2.04827 -0.325679 0
M  V30 4313 C 384.478 1.56788 1.03919 0
M  V30 4314 O 383.836 0.721811 1.66312 0
M  V30 4315 C 383.884 3.58774 -0.362447 0
M  V30 4316 O 382.988 4.07372 0.642033 0
M  V30 4317 H 382.329 0.64833 -0.143402 0
M  V30 4318 H 384.859 1.7677 -1.03023 0
M  V30 4319 H 384.869 4.07434 -0.214844 0
M  V30 4320 H 383.544 3.93096 -1.35824 0
M  V30 4321 H 382.121 3.70068 0.458688 0
M  V30 4322 N 384.306 0.507319 1.49211 0
M  V30 4323 C 385.553 -0.0349529 2.0247 0
M  V30 4324 C 385.881 -1.36409 1.38647 0
M  V30 4325 O 385.136 -1.88841 0.513566 0
M  V30 4326 C 385.435 -0.229513 3.56662 0
M  V30 4327 C 385.101 1.02241 4.39156 0
M  V30 4328 C 383.763 1.36557 4.61417 0
M  V30 4329 C 386.115 1.85428 4.871 0
M  V30 4330 C 383.443 2.53999 5.28868 0
M  V30 4331 C 385.795 3.02028 5.55843 0
M  V30 4332 C 384.459 3.36717 5.76349 0
M  V30 4333 H 383.729 -0.0127902 0.74089 0
M  V30 4334 H 386.376 0.668756 1.79443 0
M  V30 4335 H 384.681 -1.0158 3.78403 0
M  V30 4336 H 386.378 -0.663641 3.9547 0
M  V30 4337 H 382.968 0.745124 4.22073 0
M  V30 4338 H 387.152 1.6023 4.69723 0
M  V30 4339 H 382.408 2.81105 5.42946 0
M  V30 4340 H 386.582 3.66808 5.91967 0
M  V30 4341 H 384.209 4.27821 6.28389 0
M  V30 4342 N 385.784 -1.5574 0.241426 0
M  V30 4343 C 386.714 -2.24133 -0.654722 0
M  V30 4344 C 387.695 -1.21974 -1.1856 0
M  V30 4345 O 388.88 -1.50612 -1.22595 0
M  V30 4346 C 386.01 -2.93659 -1.85423 0
M  V30 4347 C 384.964 -4.0246 -1.45636 0
M  V30 4348 C 384.29 -4.59383 -2.73626 0
M  V30 4349 C 385.59 -5.18468 -0.631506 0
M  V30 4350 H 387.284 -2.99281 -0.0844353 0
M  V30 4351 H 384.83 -1.43947 -0.0391707 0
M  V30 4352 H 386.783 -3.40203 -2.48676 0
M  V30 4353 H 385.507 -2.15991 -2.44981 0
M  V30 4354 H 384.166 -3.56676 -0.847202 0
M  V30 4355 H 383.814 -3.78422 -3.3137 0
M  V30 4356 H 383.514 -5.32826 -2.4773 0
M  V30 4357 H 385.038 -5.08658 -3.37786 0
M  V30 4358 H 386.452 -5.61272 -1.1682 0
M  V30 4359 H 384.849 -5.98266 -0.468831 0
M  V30 4360 H 385.919 -4.8358 0.357506 0
M  V30 4361 N 387.262 0.0317525 -1.57568 0
M  V30 4362 C 388.192 1.03274 -2.0942 0
M  V30 4363 C 389.173 1.3788 -0.996143 0
M  V30 4364 O 390.358 1.46811 -1.27122 0
M  V30 4365 C 387.488 2.33448 -2.57137 0
M  V30 4366 C 386.442 2.13091 -3.71182 0
M  V30 4367 C 385.768 3.49001 -4.05095 0
M  V30 4368 C 387.068 1.51928 -4.99715 0
M  V30 4369 H 388.762 0.60112 -2.93303 0
M  V30 4370 H 386.308 0.287705 -1.41097 0
M  V30 4371 H 388.261 3.03802 -2.92032 0
M  V30 4372 H 386.985 2.78665 -1.70333 0
M  V30 4373 H 385.644 1.45171 -3.36632 0
M  V30 4374 H 385.292 3.91862 -3.15362 0
M  V30 4375 H 384.992 3.36207 -4.81911 0
M  V30 4376 H 386.516 4.20721 -4.42522 0
M  V30 4377 H 387.93 2.12196 -5.32584 0
M  V30 4378 H 386.327 1.49716 -5.81124 0
M  V30 4379 H 387.397 0.484811 -4.8247 0
M  V30 4380 N 388.74 1.54641 0.303973 0
M  V30 4381 C 389.97 1.77511 1.05705 0
M  V30 4382 C 390.378 0.533228 1.81531 0
M  V30 4383 O 389.721 -0.506423 1.76582 0
M  V30 4384 C 389.783 2.92779 2.08617 0
M  V30 4385 C 389.447 4.30977 1.52013 0
M  V30 4386 C 390.444 5.11115 0.9517 0
M  V30 4387 C 388.129 4.77571 1.55665 0
M  V30 4388 C 390.123 6.35966 0.427327 0
M  V30 4389 C 387.81 6.02384 1.02841 0
M  V30 4390 C 388.808 6.81417 0.464713 0
M  V30 4391 O 388.496 8.03881 -0.0555283 0
M  V30 4392 H 388.228 0.59579 0.319391 0
M  V30 4393 H 390.782 2.02401 0.349712 0
M  V30 4394 H 389.012 2.63506 2.83022 0
M  V30 4395 H 390.701 3.03252 2.69802 0
M  V30 4396 H 391.467 4.76264 0.916407 0
M  V30 4397 H 387.346 4.16085 1.9848 0
M  V30 4398 H 390.89 6.97599 -0.0133062 0
M  V30 4399 H 386.787 6.36723 1.06084 0
M  V30 4400 H 387.555 8.18479 0.0580522 0
M  V30 4401 N 390.218 -0.567019 1.47046 0
M  V30 4402 C 391.151 -1.69016 1.53326 0
M  V30 4403 C 392.129 -1.57949 0.386126 0
M  V30 4404 O 393.313 -1.78945 0.592529 0
M  V30 4405 C 390.44 -3.07191 1.42658 0
M  V30 4406 C 389.486 -3.36733 2.6175 0
M  V30 4407 S 390.319 -3.27069 4.24012 0
M  V30 4408 C 391.475 -4.67755 4.1588 0
M  V30 4409 H 391.708 -1.63434 2.48348 0
M  V30 4410 H 389.241 -0.747048 1.35124 0
M  V30 4411 H 391.199 -3.86897 1.37191 0
M  V30 4412 H 389.86 -3.10249 0.490369 0
M  V30 4413 H 389.053 -4.37441 2.50323 0
M  V30 4414 H 388.655 -2.64627 2.64289 0
M  V30 4415 H 390.947 -5.58491 3.83529 0
M  V30 4416 H 391.89 -4.84239 5.16641 0
M  V30 4417 H 392.298 -4.45341 3.46889 0
M  V30 4418 N 391.696 -1.35014 -0.812953 0
M  V30 4419 C 392.643 -1.27412 -1.92444 0
M  V30 4420 C 393.613 -0.14733 -1.65445 0
M  V30 4421 O 394.798 -0.329974 -1.87925 0
M  V30 4422 C 391.938 -1.04558 -3.28879 0
M  V30 4423 C 391.051 -2.26101 -3.68106 0
M  V30 4424 C 390.186 -1.96449 -4.9354 0
M  V30 4425 C 389.225 -3.14081 -5.25376 0
M  V30 4426 N 388.362 -2.84246 -6.41988 0
M  V30 4427 H 393.202 -2.22463 -1.98278 0
M  V30 4428 H 390.739 -1.10593 -0.969933 0
M  V30 4429 H 392.697 -0.893413 -4.07522 0
M  V30 4430 H 391.327 -0.131719 -3.22531 0
M  V30 4431 H 390.379 -2.52204 -2.84775 0
M  V30 4432 H 391.691 -3.13959 -3.87597 0
M  V30 4433 H 390.845 -1.78026 -5.79993 0
M  V30 4434 H 389.584 -1.05867 -4.76071 0
M  V30 4435 H 388.589 -3.33089 -4.37415 0
M  V30 4436 H 389.814 -4.05455 -5.44778 0
M  V30 4437 H 387.76 -1.96252 -6.25956 0
M  V30 4438 H 387.677 -3.65637 -6.61699 0
M  V30 4439 H 388.945 -2.6935 -7.31485 0
M  V30 4440 N 393.175 1.03435 -1.18907 0
M  V30 4441 C 394.586 1.58195 -0.991523 0
M  V30 4442 C 394.937 1.90801 0.457081 0
M  V30 4443 O 394.062 1.70272 1.33553 0
M  V30 4444 C 394.657 2.87432 -1.79355 0
M  V30 4445 C 393.216 3.38785 -1.64017 0
M  V30 4446 C 392.363 2.12292 -1.78402 0
M  V30 4447 H 395.314 0.860299 -1.33359 0
M  V30 4448 H 395.335 3.58096 -1.28638 0
M  V30 4449 H 394.847 2.63669 -2.84781 0
M  V30 4450 H 392.948 3.67547 -0.611536 0
M  V30 4451 H 393.061 4.12186 -2.44212 0
M  V30 4452 H 391.425 2.23901 -1.2141 0
M  V30 4453 H 392.208 1.90977 -2.85277 0
M  V30 4454 N 394.653 0.992116 1.22453 0
M  V30 4455 C 395.93 0.583508 1.86694 0
M  V30 4456 C 396.31 -0.9392 1.89056 0
M  V30 4457 O 395.658 -1.82081 1.38053 0
M  V30 4458 C 395.868 1.20304 3.2761 0
M  V30 4459 C 397.216 1.30308 4.0411 0
M  V30 4460 O 398.24 1.15737 3.36873 0
M  V30 4461 O 397.099 1.53615 5.24466 0
M  V30 4462 H 394.193 0.198129 0.802916 0
M  V30 4463 H 396.739 1.08794 1.30238 0
M  V30 4464 H 395.511 2.24461 3.2052 0
M  V30 4465 H 395.134 0.684144 3.9167 0
M  V30 4466 N 396.131 -1.37776 0.765217 0
M  V30 4467 C 397.356 -2.04651 0.336537 0
M  V30 4468 C 397.781 -1.57337 -1.03086 0
M  V30 4469 O 397.139 -0.730621 -1.65927 0
M  V30 4470 C 397.187 -3.58577 0.381468 0
M  V30 4471 O 396.291 -4.07706 -0.62042 0
M  V30 4472 H 395.632 -0.64756 0.146838 0
M  V30 4473 H 398.162 -1.76221 1.03959 0
M  V30 4474 H 398.172 -4.07314 0.236448 0
M  V30 4475 H 396.847 -3.9237 1.37907 0
M  V30 4476 H 395.424 -3.70306 -0.439056 0
M  V30 4477 N 397.609 -0.515225 -1.4894 0
M  V30 4478 C 398.857 0.0241671 -2.02086 0
M  V30 4479 C 399.178 1.3616 -1.3959 0
M  V30 4480 O 398.448 1.87841 -0.556121 0
M  V30 4481 H 397.028 0.0119203 -0.746905 0
M  V30 4482 H 399.69 -0.675702 -1.82812 0
M  V30 4483 H 398.786 0.143385 -3.1177 0
M  V30 4484 N 399.087 1.5561 -0.249682 0
M  V30 4485 C 400.05 2.20217 0.635394 0
M  V30 4486 C 401.05 1.17227 1.10066 0
M  V30 4487 O 402.24 1.42292 1.00492 0
M  V30 4488 C 399.372 2.84794 1.87363 0
M  V30 4489 H 400.565 2.99814 0.0716752 0
M  V30 4490 H 398.118 1.563 -0.000153234 0
M  V30 4491 H 398.853 2.09142 2.47851 0
M  V30 4492 H 398.638 3.60241 1.5482 0
M  V30 4493 H 400.128 3.3423 2.5036 0
M  V30 4494 N 400.565 -0.0233959 1.57583 0
M  V30 4495 C 401.814 -0.712133 1.8871 0
M  V30 4496 C 402.127 -1.76217 0.848944 0
M  V30 4497 O 403.333 -2.50389 1.04964 0
M  V30 4498 C 401.789 -1.3177 3.3491 0
M  V30 4499 C 401.397 -0.303715 4.46969 0
M  V30 4500 C 403.141 -1.98598 3.75179 0
M  V30 4501 C 401.048 -0.917945 5.84233 0
M  V30 4502 H 399.978 -0.269735 0.704101 0
M  V30 4503 H 402.629 0.0333114 1.8347 0
M  V30 4504 H 401.011 -2.11304 3.34913 0
M  V30 4505 H 402.185 0.465325 4.58445 0
M  V30 4506 H 400.5 0.2628 4.1557 0
M  V30 4507 H 403.097 -2.45416 4.75053 0
M  V30 4508 H 403.44 -2.80659 3.07468 0
M  V30 4509 H 403.973 -1.25831 3.77374 0
M  V30 4510 H 400.712 -0.136633 6.55358 0
M  V30 4511 H 400.232 -1.65669 5.76467 0
M  V30 4512 H 401.911 -1.4236 6.31144 0
M  V30 4513 N 402.043 -1.548 -0.295768 0
M  V30 4514 C 403.006 -1.85363 -1.34808 0
M  V30 4515 C 404.006 -0.726817 -1.43436 0
M  V30 4516 O 405.196 -0.995088 -1.42981 0
M  V30 4517 C 402.328 -2.03859 -2.73229 0
M  V30 4518 H 403.521 -2.7941 -1.08949 0
M  V30 4519 H 401.074 -1.46942 -0.532702 0
M  V30 4520 H 401.809 -1.12117 -3.04303 0
M  V30 4521 H 401.594 -2.8588 -2.68356 0
M  V30 4522 H 403.084 -2.28857 -3.49305 0
M  V30 4523 N 403.521 0.559213 -1.47345 0
M  V30 4524 C 404.768 1.31648 -1.53867 0
M  V30 4525 C 405.096 1.93468 -0.200104 0
M  V30 4526 O 404.351 1.78295 0.806799 0
M  V30 4527 C 404.65 2.44853 -2.6035 0
M  V30 4528 C 404.316 2.00876 -4.03683 0
M  V30 4529 C 402.978 1.88599 -4.42701 0
M  V30 4530 C 405.33 1.67279 -4.93626 0
M  V30 4531 C 402.658 1.41017 -5.69501 0
M  V30 4532 C 405.01 1.21169 -6.20887 0
M  V30 4533 C 403.674 1.07487 -6.58789 0
M  V30 4534 H 402.944 0.481734 -0.56304 0
M  V30 4535 H 405.591 0.627301 -1.80934 0
M  V30 4536 H 403.896 3.19318 -2.27032 0
M  V30 4537 H 405.593 3.03039 -2.62619 0
M  V30 4538 H 402.183 2.11374 -3.72853 0
M  V30 4539 H 406.367 1.75638 -4.64182 0
M  V30 4540 H 401.623 1.29086 -5.97618 0
M  V30 4541 H 405.797 0.942345 -6.89995 0
M  V30 4542 H 403.424 0.703946 -7.56934 0
M  V30 4543 N 404.999 1.35443 0.805782 0
M  V30 4544 C 406.245 1.28952 1.56522 0
M  V30 4545 C 406.578 -0.135597 1.93726 0
M  V30 4546 O 405.853 -1.08516 1.61414 0
M  V30 4547 C 406.136 2.19678 2.85331 0
M  V30 4548 C 405.989 3.7081 2.54598 0
M  V30 4549 C 407.308 2.09495 3.8704 0
M  V30 4550 H 404.427 0.469764 0.567883 0
M  V30 4551 H 407.069 1.65851 0.927001 0
M  V30 4552 H 405.219 1.8834 3.39795 0
M  V30 4553 H 406.891 4.12593 2.06312 0
M  V30 4554 H 405.134 3.91051 1.8778 0
M  V30 4555 H 405.805 4.29679 3.46525 0
M  V30 4556 H 408.281 2.37045 3.41978 0
M  V30 4557 H 407.157 2.75173 4.74943 0
M  V30 4558 H 407.418 1.07714 4.28777 0
M  V30 4559 N 406.477 -1.02803 1.19454 0
M  V30 4560 C 407.407 -2.12999 0.956758 0
M  V30 4561 C 408.388 -1.69743 -0.110188 0
M  V30 4562 O 409.573 -1.94148 0.0450038 0
M  V30 4563 C 406.703 -3.43746 0.495553 0
M  V30 4564 C 405.657 -4.00688 1.50443 0
M  V30 4565 C 404.983 -5.27067 0.900275 0
M  V30 4566 C 406.283 -4.35397 2.8849 0
M  V30 4567 H 407.977 -2.33148 1.87836 0
M  V30 4568 H 405.523 -1.12045 0.904539 0
M  V30 4569 H 407.476 -4.2021 0.316493 0
M  V30 4570 H 406.2 -3.23321 -0.461646 0
M  V30 4571 H 404.859 -3.2632 1.67065 0
M  V30 4572 H 404.507 -5.02959 -0.064503 0
M  V30 4573 H 404.207 -5.66127 1.57397 0
M  V30 4574 H 405.731 -6.06196 0.73203 0
M  V30 4575 H 407.145 -5.02795 2.75446 0
M  V30 4576 H 405.542 -4.85541 3.52661 0
M  V30 4577 H 406.612 -3.44662 3.41081 0
M  V30 4578 N 407.956 -0.998596 -1.21925 0
M  V30 4579 C 408.886 -0.573688 -2.26343 0
M  V30 4580 C 409.867 0.402296 -1.65274 0
M  V30 4581 O 411.052 0.291683 -1.91997 0
M  V30 4582 C 408.182 0.106839 -3.47136 0
M  V30 4583 C 407.136 -0.788269 -4.20678 0
M  V30 4584 C 406.462 0.0254927 -5.34694 0
M  V30 4585 C 407.762 -2.08784 -4.78755 0
M  V30 4586 H 409.456 -1.44651 -2.62138 0
M  V30 4587 H 407.002 -0.696975 -1.26009 0
M  V30 4588 H 408.955 0.415531 -4.19346 0
M  V30 4589 H 407.679 1.01424 -3.10452 0
M  V30 4590 H 406.338 -1.08069 -3.50309 0
M  V30 4591 H 405.986 0.933989 -4.94253 0
M  V30 4592 H 405.686 -0.570437 -5.84825 0
M  V30 4593 H 407.21 0.328147 -6.09718 0
M  V30 4594 H 408.624 -1.84272 -5.42878 0
M  V30 4595 H 407.021 -2.63307 -5.39249 0
M  V30 4596 H 408.091 -2.76284 -3.98491 0
M  V30 4597 N 409.434 1.37368 -0.772513 0
M  V30 4598 C 410.68 1.99969 -0.337681 0
M  V30 4599 C 411.013 1.61184 1.08321 0
M  V30 4600 O 410.288 0.858395 1.74533 0
M  V30 4601 C 410.571 3.56858 -0.482121 0
M  V30 4602 C 410.424 4.0555 -1.94549 0
M  V30 4603 C 411.743 4.39955 0.113143 0
M  V30 4604 H 408.862 0.726464 -0.124171 0
M  V30 4605 H 411.504 1.63034 -0.975699 0
M  V30 4606 H 409.654 3.88452 0.0610361 0
M  V30 4607 H 411.326 3.84518 -2.54841 0
M  V30 4608 H 409.569 3.57715 -2.45403 0
M  V30 4609 H 410.24 5.14587 -1.9976 0
M  V30 4610 H 412.716 4.14623 -0.35031 0
M  V30 4611 H 411.592 5.48897 -0.0180514 0
M  V30 4612 H 411.853 4.25403 1.20354 0
M  V30 4613 N 410.912 0.523116 1.48665 0
M  V30 4614 C 412.189 -0.0775449 1.95446 0
M  V30 4615 C 412.569 -1.5197 1.4652 0
M  V30 4616 O 411.917 -2.17876 0.688657 0
M  V30 4617 C 412.127 0.0326135 3.48985 0
M  V30 4618 C 413.475 -0.130141 4.24401 0
M  V30 4619 O 414.499 -0.0415142 3.56176 0
M  V30 4620 O 413.358 -0.31491 5.45592 0
M  V30 4621 H 410.452 -0.0831012 0.822814 0
M  V30 4622 H 412.998 0.587227 1.59216 0
M  V30 4623 H 411.77 1.03748 3.77296 0
M  V30 4624 H 411.393 -0.671317 3.91892 0
M  V30 4625 N 412.39 -1.55475 0.257931 0
M  V30 4626 C 413.337 -2.21837 -0.636939 0
M  V30 4627 C 414.307 -1.18596 -1.16294 0
M  V30 4628 O 415.492 -1.47081 -1.21539 0
M  V30 4629 C 412.632 -2.9301 -1.82317 0
M  V30 4630 C 411.745 -4.10931 -1.33265 0
M  V30 4631 C 410.88 -4.69791 -2.47931 0
M  V30 4632 C 409.919 -5.7994 -1.95796 0
M  V30 4633 N 409.056 -6.32935 -3.0387 0
M  V30 4634 H 413.896 -2.9793 -0.0643591 0
M  V30 4635 H 411.433 -1.47086 -0.0200031 0
M  V30 4636 H 413.391 -3.3248 -2.52018 0
M  V30 4637 H 412.021 -2.1937 -2.36805 0
M  V30 4638 H 411.073 -3.76699 -0.52931 0
M  V30 4639 H 412.385 -4.90417 -0.910654 0
M  V30 4640 H 411.539 -5.11892 -3.25656 0
M  V30 4641 H 410.278 -3.89545 -2.93438 0
M  V30 4642 H 409.283 -5.37305 -1.16546 0
M  V30 4643 H 410.508 -6.62043 -1.51246 0
M  V30 4644 H 408.454 -5.55591 -3.48791 0
M  V30 4645 H 408.371 -7.07645 -2.66035 0
M  V30 4646 H 409.639 -6.79695 -3.81621 0
M  V30 4647 N 413.868 0.0150385 -1.57593 0
M  V30 4648 C 414.778 1.02791 -2.10882 0
M  V30 4649 C 415.794 1.38702 -1.0506 0
M  V30 4650 O 416.97 1.47739 -1.36877 0
M  V30 4651 C 414.035 2.30568 -2.58919 0
M  V30 4652 C 413.096 2.01108 -3.79281 0
M  V30 4653 C 412.329 3.22794 -4.25018 0
M  V30 4654 O 412.552 4.33959 -3.70183 0
M  V30 4655 O 411.486 3.07672 -5.17322 0
M  V30 4656 H 415.312 0.604973 -2.97613 0
M  V30 4657 H 412.897 0.23292 -1.47573 0
M  V30 4658 H 414.779 3.05662 -2.90084 0
M  V30 4659 H 413.454 2.72129 -1.75293 0
M  V30 4660 H 412.361 1.23537 -3.53114 0
M  V30 4661 H 413.694 1.64394 -4.63935 0
M  V30 4662 N 415.346 1.54954 0.287554 0
M  V30 4663 C 416.593 1.74873 1.02106 0
M  V30 4664 C 416.921 0.541829 1.86801 0
M  V30 4665 O 416.176 -0.475992 1.89823 0
M  V30 4666 C 416.475 2.99833 1.94512 0
M  V30 4667 C 416.141 4.33029 1.25686 0
M  V30 4668 C 414.803 4.69233 1.06649 0
M  V30 4669 C 417.155 5.15542 0.765913 0
M  V30 4670 C 414.483 5.85518 0.372222 0
M  V30 4671 C 416.835 6.32542 0.0853101 0
M  V30 4672 C 415.499 6.67398 -0.1169 0
M  V30 4673 H 414.769 0.639906 0.373632 0
M  V30 4674 H 417.416 1.89219 0.294665 0
M  V30 4675 H 415.721 2.80325 2.73725 0
M  V30 4676 H 417.418 3.1244 2.51361 0
M  V30 4677 H 414.008 4.04564 1.41512 0
M  V30 4678 H 418.192 4.88059 0.90066 0
M  V30 4679 H 413.448 6.11057 0.204695 0
M  V30 4680 H 417.622 6.95741 -0.302936 0
M  V30 4681 H 415.249 7.57357 -0.656859 0
M  V30 4682 N 416.824 -0.551391 1.4764 0
M  V30 4683 C 417.771 -1.65796 1.60563 0
M  V30 4684 C 418.741 -1.59932 0.448428 0
M  V30 4685 O 419.926 -1.78679 0.669222 0
M  V30 4686 C 417.066 -3.04108 1.63133 0
M  V30 4687 C 416.179 -3.20365 2.89811 0
M  V30 4688 C 415.314 -4.49109 2.8368 0
M  V30 4689 C 414.353 -4.58819 4.05156 0
M  V30 4690 N 413.49 -5.78926 3.97227 0
M  V30 4691 H 418.33 -1.54088 2.5507 0
M  V30 4692 H 415.867 -0.75052 1.26513 0
M  V30 4693 H 417.825 -3.84207 1.62606 0
M  V30 4694 H 416.455 -3.14637 0.721341 0
M  V30 4695 H 415.507 -2.33659 3.00179 0
M  V30 4696 H 416.819 -3.23402 3.79753 0
M  V30 4697 H 415.973 -5.37475 2.81434 0
M  V30 4698 H 414.712 -4.4856 1.91431 0
M  V30 4699 H 413.717 -3.68864 4.077 0
M  V30 4700 H 414.942 -4.61124 4.98539 0
M  V30 4701 H 412.888 -5.79314 3.07785 0
M  V30 4702 H 412.805 -5.83367 4.80853 0
M  V30 4703 H 414.073 -6.69637 3.99007 0
M  V30 4704 N 418.302 -1.35869 -0.798587 0
M  V30 4705 C 419.551 -1.28921 -1.5512 0
M  V30 4706 C 419.864 0.13208 -1.95154 0
M  V30 4707 O 421.07 0.323879 -2.69561 0
M  V30 4708 C 419.526 -2.26141 -2.79979 0
M  V30 4709 C 419.134 -3.73658 -2.47151 0
M  V30 4710 C 420.878 -2.28152 -3.57976 0
M  V30 4711 C 418.785 -4.62679 -3.6835 0
M  V30 4712 H 417.715 -0.479031 -0.582276 0
M  V30 4713 H 420.366 -1.61179 -0.877125 0
M  V30 4714 H 418.748 -1.86865 -3.49138 0
M  V30 4715 H 419.922 -4.21616 -1.85947 0
M  V30 4716 H 418.237 -3.74333 -1.82383 0
M  V30 4717 H 420.834 -2.91875 -4.4801 0
M  V30 4718 H 421.177 -1.28748 -3.95891 0
M  V30 4719 H 421.71 -2.65998 -2.95787 0
M  V30 4720 H 418.449 -5.63111 -3.35538 0
M  V30 4721 H 417.969 -4.19442 -4.28752 0
M  V30 4722 H 419.648 -4.78498 -4.35487 0
M  V30 4723 N 419.78 1.02168 -1.19998 0
M  V30 4724 C 420.727 2.10601 -0.944228 0
M  V30 4725 C 421.697 1.65639 0.123664 0
M  V30 4726 O 422.882 1.9079 -0.0199941 0
M  V30 4727 C 420.022 3.41504 -0.496865 0
M  V30 4728 C 419.135 3.99973 -1.63234 0
M  V30 4729 C 418.27 5.18915 -1.13579 0
M  V30 4730 C 417.309 5.69456 -2.24468 0
M  V30 4731 N 416.446 6.79665 -1.76068 0
M  V30 4732 H 421.286 2.31814 -1.8726 0
M  V30 4733 H 418.823 1.13686 -0.933483 0
M  V30 4734 H 420.781 4.16626 -0.218843 0
M  V30 4735 H 419.411 3.2038 0.394508 0
M  V30 4736 H 418.463 3.21997 -2.0254 0
M  V30 4737 H 419.775 4.33492 -2.46752 0
M  V30 4738 H 418.929 6.01222 -0.813429 0
M  V30 4739 H 417.668 4.8695 -0.270434 0
M  V30 4740 H 416.673 4.85757 -2.57526 0
M  V30 4741 H 417.898 6.03459 -3.11472 0
M  V30 4742 H 415.844 6.49538 -0.918516 0
M  V30 4743 H 415.761 7.12349 -2.5317 0
M  V30 4744 H 417.029 7.65549 -1.46817 0
M  V30 4745 N 421.258 1.00505 1.21394 0
M  V30 4746 C 422.504 0.688793 1.90745 0
M  V30 4747 C 422.837 -0.778486 1.77914 0
M  V30 4748 O 422.112 -1.56433 1.15581 0
M  V30 4749 C 422.395 1.11063 3.42545 0
M  V30 4750 C 422.248 2.63737 3.64367 0
M  V30 4751 C 423.567 0.673059 4.34923 0
M  V30 4752 H 420.686 0.251702 0.692687 0
M  V30 4753 H 423.328 1.25074 1.43026 0
M  V30 4754 H 421.478 0.632508 3.83317 0
M  V30 4755 H 423.15 3.19313 3.32922 0
M  V30 4756 H 421.393 3.05248 3.08231 0
M  V30 4757 H 422.064 2.88305 4.70727 0
M  V30 4758 H 424.54 1.08392 4.01734 0
M  V30 4759 H 423.416 0.996383 5.39781 0
M  V30 4760 H 423.677 -0.425808 4.40045 0
M  V30 4761 N 422.737 -1.36956 0.779787 0
M  V30 4762 C 423.985 -1.99097 0.347079 0
M  V30 4763 C 424.306 -1.62206 -1.08232 0
M  V30 4764 O 423.576 -0.891373 -1.74446 0
M  V30 4765 H 422.156 -0.736409 0.125342 0
M  V30 4766 H 424.818 -1.67308 0.999696 0
M  V30 4767 H 423.914 -3.09107 0.431162 0
M  V30 4768 N 424.215 -0.530993 -1.48385 0
M  V30 4769 C 425.162 0.231223 -2.29639 0
M  V30 4770 C 426.132 0.932864 -1.37429 0
M  V30 4771 O 427.317 0.933692 -1.66394 0
M  V30 4772 C 424.457 1.27155 -3.2082 0
M  V30 4773 C 423.57 0.578655 -4.28107 0
M  V30 4774 C 422.705 1.602 -5.06467 0
M  V30 4775 C 421.744 0.892625 -6.05556 0
M  V30 4776 N 420.881 1.86157 -6.76971 0
M  V30 4777 H 425.721 -0.467848 -2.94305 0
M  V30 4778 H 423.258 -0.242556 -1.45086 0
M  V30 4779 H 425.216 1.88703 -3.72085 0
M  V30 4780 H 423.846 1.939 -2.58075 0
M  V30 4781 H 422.898 -0.150782 -3.80101 0
M  V30 4782 H 424.21 0.0217065 -4.98795 0
M  V30 4783 H 423.364 2.29173 -5.61751 0
M  V30 4784 H 422.103 2.19285 -4.35621 0
M  V30 4785 H 421.108 0.188829 -5.49476 0
M  V30 4786 H 422.333 0.307878 -6.78402 0
M  V30 4787 H 420.279 2.44147 -6.08875 0
M  V30 4788 H 420.196 1.35608 -7.43738 0
M  V30 4789 H 421.464 2.54325 -7.36844 0
M  V30 4790 N 425.693 1.55336 -0.266172 0
M  V30 4791 C 426.64 2.22172 0.625165 0
M  V30 4792 C 427.61 1.19211 1.15663 0
M  V30 4793 O 428.795 1.47723 1.20758 0
M  V30 4794 C 425.935 2.93972 1.8076 0
M  V30 4795 C 425.048 4.11632 1.31084 0
M  V30 4796 C 424.183 4.71099 2.45436 0
M  V30 4797 C 423.222 5.8097 1.92718 0
M  V30 4798 N 422.359 6.34538 3.00509 0
M  V30 4799 H 427.199 2.9796 0.0485582 0
M  V30 4800 H 424.736 1.47095 0.0122024 0
M  V30 4801 H 426.694 3.33811 2.50251 0
M  V30 4802 H 425.324 2.20623 2.35638 0
M  V30 4803 H 424.376 3.76975 0.509326 0
M  V30 4804 H 425.688 4.90893 0.884633 0
M  V30 4805 H 424.842 5.13612 3.22936 0
M  V30 4806 H 423.581 3.91096 2.91368 0
M  V30 4807 H 422.586 5.37916 1.13695 0
M  V30 4808 H 423.811 6.62836 1.47733 0
M  V30 4809 H 421.757 5.57433 3.45839 0
M  V30 4810 H 421.674 7.09046 2.62279 0
M  V30 4811 H 422.942 6.81709 3.78011 0
M  V30 4812 N 427.171 -0.0066808 1.57599 0
M  V30 4813 C 428.081 -1.01671 2.11424 0
M  V30 4814 C 429.097 -1.38143 1.05795 0
M  V30 4815 O 430.273 -1.47011 1.37658 0
M  V30 4816 C 427.338 -2.29192 2.60139 0
M  V30 4817 C 426.399 -1.99094 3.80342 0
M  V30 4818 C 425.632 -3.20535 4.26724 0
M  V30 4819 O 425.855 -4.3199 3.72479 0
M  V30 4820 O 424.789 -3.04924 5.18946 0
M  V30 4821 H 428.615 -0.589181 2.9793 0
M  V30 4822 H 426.2 -0.225091 1.47695 0
M  V30 4823 H 428.082 -3.0412 2.917 0
M  V30 4824 H 426.757 -2.71195 1.76733 0
M  V30 4825 H 425.664 -1.21663 3.53764 0
M  V30 4826 H 426.997 -1.61931 4.648 0
M  V30 4827 N 428.649 -1.55105 -0.279332 0
M  V30 4828 C 429.877 -1.7943 -1.03017 0
M  V30 4829 C 430.292 -0.564456 -1.80165 0
M  V30 4830 O 429.649 0.466326 -1.76442 0
M  V30 4831 C 429.7 -3.0155 -1.99374 0
M  V30 4832 O 429.421 -4.19784 -1.25352 0
M  V30 4833 C 430.922 -3.3843 -2.86321 0
M  V30 4834 H 428.142 -0.597882 -0.304594 0
M  V30 4835 H 430.686 -2.02105 -0.312035 0
M  V30 4836 H 428.841 -2.81019 -2.66659 0
M  V30 4837 H 429.255 -4.88781 -1.90246 0
M  V30 4838 H 430.729 -4.27066 -3.49741 0
M  V30 4839 H 431.206 -2.57549 -3.5576 0
M  V30 4840 H 431.812 -3.61197 -2.24536 0
M  V30 4841 N 430.127 0.543554 -1.4793 0
M  V30 4842 C 431.037 1.67657 -1.64098 0
M  V30 4843 C 432.053 1.65934 -0.523622 0
M  V30 4844 O 433.229 1.85133 -0.792943 0
M  V30 4845 C 430.294 3.04146 -1.66421 0
M  V30 4846 C 429.355 3.16831 -2.89684 0
M  V30 4847 C 428.588 4.46809 -2.91886 0
M  V30 4848 O 428.811 5.33095 -2.02895 0
M  V30 4849 O 427.745 4.63573 -3.83906 0
M  V30 4850 H 431.571 1.56957 -2.59997 0
M  V30 4851 H 429.156 0.715116 -1.31173 0
M  V30 4852 H 431.038 3.85346 -1.70548 0
M  V30 4853 H 429.713 3.152 -0.736923 0
M  V30 4854 H 428.62 2.34977 -2.91095 0
M  V30 4855 H 429.953 3.10687 -3.81752 0
M  V30 4856 N 431.605 1.3629 0.791371 0
M  V30 4857 C 432.833 1.33562 1.58016 0
M  V30 4858 C 433.248 -0.0835616 1.88615 0
M  V30 4859 O 432.605 -1.0399 1.49974 0
M  V30 4860 C 432.656 2.15517 2.90232 0
M  V30 4861 O 432.377 3.51902 2.60953 0
M  V30 4862 C 433.878 2.20546 3.84544 0
M  V30 4863 H 431.098 0.458226 0.490173 0
M  V30 4864 H 433.642 1.79361 0.982345 0
M  V30 4865 H 431.797 1.73278 3.46487 0
M  V30 4866 H 432.211 3.94644 3.4548 0
M  V30 4867 H 433.685 2.82252 4.74382 0
M  V30 4868 H 434.162 1.20838 4.2225 0
M  V30 4869 H 434.768 2.63013 3.34222 0
M  V30 4870 N 433.083 -1.0153 1.20538 0
M  V30 4871 C 434.03 -2.10098 0.955383 0
M  V30 4872 C 435 -1.65702 -0.114878 0
M  V30 4873 O 436.185 -1.90776 0.0301118 0
M  V30 4874 C 433.325 -3.41236 0.514969 0
M  V30 4875 C 432.438 -3.99102 1.65353 0
M  V30 4876 C 431.573 -5.18306 1.16329 0
M  V30 4877 C 430.612 -5.68258 2.27485 0
M  V30 4878 N 429.749 -6.78722 1.7967 0
M  V30 4879 H 434.589 -2.30818 1.88486 0
M  V30 4880 H 432.126 -1.13189 0.939499 0
M  V30 4881 H 434.084 -4.16504 0.240935 0
M  V30 4882 H 432.714 -3.20585 -0.377512 0
M  V30 4883 H 431.766 -3.20918 2.04245 0
M  V30 4884 H 433.078 -4.32177 2.49047 0
M  V30 4885 H 432.232 -6.00782 0.845302 0
M  V30 4886 H 430.971 -4.86799 0.296254 0
M  V30 4887 H 429.976 -4.84385 2.60099 0
M  V30 4888 H 431.201 -6.01798 3.14667 0
M  V30 4889 H 429.147 -6.49042 0.95295 0
M  V30 4890 H 429.064 -7.10996 2.56944 0
M  V30 4891 H 430.332 -7.64759 1.50875 0
M  V30 4892 N 434.561 -1.01147 -1.20859 0
M  V30 4893 C 435.791 -0.715872 -1.93801 0
M  V30 4894 C 436.199 0.726592 -1.74692 0
M  V30 4895 O 435.542 1.50397 -1.05482 0
M  V30 4896 C 435.604 -0.965269 -3.46299 0
M  V30 4897 C 435.268 -2.39584 -3.89164 0
M  V30 4898 C 436.265 -3.3764 -3.95342 0
M  V30 4899 C 433.95 -2.73522 -4.21297 0
M  V30 4900 C 435.944 -4.67698 -4.33056 0
M  V30 4901 C 433.631 -4.03794 -4.58687 0
M  V30 4902 C 434.629 -5.00693 -4.64538 0
M  V30 4903 O 434.317 -6.28635 -5.01072 0
M  V30 4904 H 434.049 -0.262524 -0.622942 0
M  V30 4905 H 436.603 -1.35413 -1.54443 0
M  V30 4906 H 434.833 -0.269847 -3.85757 0
M  V30 4907 H 436.522 -0.662051 -4.00464 0
M  V30 4908 H 437.288 -3.12757 -3.70686 0
M  V30 4909 H 433.167 -1.9879 -4.15937 0
M  V30 4910 H 436.711 -5.4333 -4.37537 0
M  V30 4911 H 432.608 -4.28459 -4.82797 0
M  V30 4912 H 433.376 -6.32847 -5.19083 0
M  V30 4913 N 436.039 1.36541 -0.78704 0
M  V30 4914 C 437.287 1.98911 -0.357633 0
M  V30 4915 C 437.608 1.62778 1.07371 0
M  V30 4916 O 436.878 0.900612 1.73971 0
M  V30 4917 H 435.458 0.735734 -0.129246 0
M  V30 4918 H 438.12 1.66776 -1.00855 0
M  V30 4919 H 437.216 3.08874 -0.447549 0
M  V30 4920 N 437.518 0.538854 1.48102 0
M  V30 4921 C 438.767 0.0059532 2.01699 0
M  V30 4922 C 439.08 -1.34476 1.42041 0
M  V30 4923 O 440.286 -1.96653 1.87189 0
M  V30 4924 C 438.742 -0.0397627 3.59878 0
M  V30 4925 C 438.35 1.30659 4.28523 0
M  V30 4926 C 440.094 -0.521024 4.2129 0
M  V30 4927 C 438.001 1.22098 5.78659 0
M  V30 4928 H 436.931 -0.00154456 0.753998 0
M  V30 4929 H 439.582 0.683963 1.70277 0
M  V30 4930 H 437.964 -0.783037 3.88181 0
M  V30 4931 H 439.138 2.06613 4.11883 0
M  V30 4932 H 437.453 1.7243 3.79021 0
M  V30 4933 H 440.05 -0.603184 5.31287 0
M  V30 4934 H 440.393 -1.52885 3.8721 0
M  V30 4935 H 440.926 0.166834 3.9745 0
M  V30 4936 H 437.665 2.20424 6.17328 0
M  V30 4937 H 437.185 0.50295 5.97688 0
M  V30 4938 H 438.864 0.915345 6.40492 0
M  V30 4939 N 438.996 -1.55193 0.274407 0
M  V30 4940 C 440.412 -1.59401 -0.0797543 0
M  V30 4941 C 440.612 -1.29162 -1.54659 0
M  V30 4942 O 439.668 -1.05215 -2.29534 0
M  V30 4943 C 440.981 -2.99257 0.294238 0
M  V30 4944 C 442.529 -3.12072 0.240796 0
M  V30 4945 C 443.004 -4.54194 0.589218 0
M  V30 4946 N 444.495 -4.60033 0.540744 0
M  V30 4947 C 445.23 -5.68027 0.783147 0
M  V30 4948 N 444.726 -6.8417 1.09013 0
M  V30 4949 N 446.519 -5.57572 0.711993 0
M  V30 4950 H 438.67 -1.73113 1.23067 0
M  V30 4951 H 440.933 -0.807197 0.497129 0
M  V30 4952 H 440.639 -3.26217 1.31435 0
M  V30 4953 H 440.513 -3.75427 -0.365281 0
M  V30 4954 H 442.9 -2.84877 -0.770024 0
M  V30 4955 H 442.981 -2.38117 0.934563 0
M  V30 4956 H 442.625 -4.82115 1.59772 0
M  V30 4957 H 442.555 -5.26448 -0.126331 0
M  V30 4958 H 445.046 -3.76599 0.313327 0
M  V30 4959 H 445.359 -7.6243 1.26178 0
M  V30 4960 H 443.704 -6.85787 1.12789 0
M  V30 4961 H 446.895 -4.65714 0.472014 0
M  V30 4962 H 447.068 -6.41659 0.90429 0
M  V30 4963 N 440.474 -0.00167713 -1.576 0
M  V30 4964 C 441.723 0.682021 -1.89819 0
M  V30 4965 C 442.036 1.74844 -0.876871 0
M  V30 4966 O 443.242 2.48688 -1.08934 0
M  V30 4967 C 441.698 1.26425 -3.36964 0
M  V30 4968 C 441.306 0.232568 -4.47396 0
M  V30 4969 C 443.05 1.92604 -3.78291 0
M  V30 4970 C 440.957 0.824882 -5.85619 0
M  V30 4971 H 439.887 0.258499 -0.708304 0
M  V30 4972 H 442.538 -0.0624957 -1.83394 0
M  V30 4973 H 440.92 2.05949 -3.38232 0
M  V30 4974 H 442.094 -0.5382 -4.57646 0
M  V30 4975 H 440.409 -0.32888 -4.15099 0
M  V30 4976 H 443.006 2.37827 -4.78897 0
M  V30 4977 H 443.349 2.75732 -3.11894 0
M  V30 4978 H 443.882 1.19812 -3.79328 0
M  V30 4979 H 440.621 0.0323542 -6.55492 0
M  V30 4980 H 440.141 1.56477 -5.79029 0
M  V30 4981 H 441.82 1.32301 -6.33329 0
M  V30 4982 N 441.952 1.55251 0.271103 0
M  V30 4983 C 443.229 1.66664 1.02384 0
M  V30 4984 C 443.609 0.534363 2.04225 0
M  V30 4985 O 442.957 -0.465337 2.23712 0
M  V30 4986 C 443.167 3.05961 1.67895 0
M  V30 4987 C 444.515 3.63772 2.18986 0
M  V30 4988 O 445.539 3.08606 1.77878 0
M  V30 4989 O 444.398 4.60429 2.94393 0
M  V30 4990 H 441.492 0.676957 0.475035 0
M  V30 4991 H 444.038 1.67589 0.26681 0
M  V30 4992 H 442.81 3.79815 0.941071 0
M  V30 4993 H 442.433 3.08943 2.5028 0
M  V30 4994 N 443.43 -0.535701 1.48216 0
M  V30 4995 C 444.378 -1.66179 1.62749 0
M  V30 4996 C 445.372 -1.62034 0.49409 0
M  V30 4997 O 446.578 -1.6696 0.672624 0
M  V30 4998 H 442.953 -0.550244 0.512578 0
M  V30 4999 H 444.924 -1.51063 2.57337 0
M  V30 5000 C 443.673 -3.04471 1.67907 0
M  V30 5001 H 442.996 -3.08351 2.54479 0
M  V30 5002 H 444.436 -3.82894 1.82121 0
M  V30 5003 C 442.895 -3.34314 0.416596 0
M  V30 5004 O 443.425 -3.98905 -0.473014 0
M  V30 5005 N 441.631 -2.89149 0.290038 0
M  V30 5006 H 441.178 -2.36764 1.01493 0
M  V30 5007 H 441.136 -3.09486 -0.55367 0
M  V30 5008 N 444.908 -1.36708 -0.784132 0
M  V30 5009 C 445.838 -1.34153 -1.91116 0
M  V30 5010 C 446.819 -0.212121 -1.68772 0
M  V30 5011 O 448.004 -0.410581 -1.8981 0
M  V30 5012 C 445.134 -1.13535 -3.28218 0
M  V30 5013 C 444.088 -2.23356 -3.65097 0
M  V30 5014 C 443.414 -1.87875 -5.00607 0
M  V30 5015 C 444.714 -3.65473 -3.73131 0
M  V30 5016 H 446.408 -2.28459 -1.93512 0
M  V30 5017 H 443.954 -1.09973 -0.929618 0
M  V30 5018 H 445.907 -1.10381 -4.06687 0
M  V30 5019 H 444.631 -0.156804 -3.26223 0
M  V30 5020 H 443.29 -2.25645 -2.88929 0
M  V30 5021 H 442.938 -0.885814 -4.95139 0
M  V30 5022 H 442.638 -2.61406 -5.26252 0
M  V30 5023 H 444.162 -1.86286 -5.81489 0
M  V30 5024 H 445.576 -3.65382 -4.41779 0
M  V30 5025 H 443.973 -4.37953 -4.10265 0
M  V30 5026 H 445.043 -3.99995 -2.74102 0
M  V30 5027 N 446.386 1.0089 -1.21074 0
M  V30 5028 C 447.611 1.78727 -1.05221 0
M  V30 5029 C 448.036 1.83932 0.393795 0
M  V30 5030 O 447.394 1.28004 1.28393 0
M  V30 5031 C 447.442 3.20665 -1.64944 0
M  V30 5032 O 446.546 4.02632 -0.892273 0
M  V30 5033 H 445.887 0.550973 -0.370574 0
M  V30 5034 H 448.417 1.26847 -1.60534 0
M  V30 5035 H 448.427 3.71352 -1.69002 0
M  V30 5036 H 447.102 3.16191 -2.70177 0
M  V30 5037 H 445.679 3.61207 -0.926492 0
M  V30 5038 N 447.864 1.01787 1.20321 0
M  V30 5039 C 449.28 0.732951 1.41774 0
M  V30 5040 C 449.48 -0.686883 1.89431 0
M  V30 5041 O 448.536 -1.45446 2.06402 0
M  V30 5042 C 449.849 1.75973 2.43832 0
M  V30 5043 C 451.397 1.77802 2.57596 0
M  V30 5044 C 451.872 2.7941 3.62897 0
M  V30 5045 N 453.363 2.78157 3.70382 0
M  V30 5046 C 454.098 3.53434 4.51521 0
M  V30 5047 N 453.594 4.38392 5.36455 0
M  V30 5048 N 455.387 3.42026 4.46066 0
M  V30 5049 H 447.538 1.93447 0.877035 0
M  V30 5050 H 449.801 0.835712 0.447536 0
M  V30 5051 H 449.507 2.77699 2.15815 0
M  V30 5052 H 449.381 1.57292 3.4284 0
M  V30 5053 H 451.768 0.767602 2.84942 0
M  V30 5054 H 451.849 2.00557 1.58779 0
M  V30 5055 H 451.493 3.80616 3.36295 0
M  V30 5056 H 451.423 2.53916 4.61339 0
M  V30 5057 H 453.914 2.16531 3.09714 0
M  V30 5058 H 454.227 4.92596 5.95457 0
M  V30 5059 H 452.572 4.4247 5.35953 0
M  V30 5060 H 455.763 2.75075 3.78749 0
M  V30 5061 H 455.936 4.00946 5.09064 0
M  V30 5062 N 449.342 -1.36122 0.79427 0
M  V30 5063 C 450.57 -2.03362 0.380989 0
M  V30 5064 C 450.985 -1.59881 -1.00416 0
M  V30 5065 O 450.342 -0.790515 -1.6449 0
M  V30 5066 C 450.393 -3.58804 0.440649 0
M  V30 5067 O 450.114 -4.007 1.77118 0
M  V30 5068 C 451.615 -4.43296 0.0186117 0
M  V30 5069 H 448.835 -0.652526 0.156367 0
M  V30 5070 H 451.379 -1.73998 1.07447 0
M  V30 5071 H 449.534 -3.8686 -0.204458 0
M  V30 5072 H 449.948 -4.95309 1.72538 0
M  V30 5073 H 451.422 -5.51887 0.111488 0
M  V30 5074 H 451.899 -4.2684 -1.03461 0
M  V30 5075 H 452.505 -4.20512 0.636395 0
M  V30 5076 N 450.82 -0.546701 -1.47814 0
M  V30 5077 C 451.75 0.195317 -2.32682 0
M  V30 5078 C 452.731 0.918981 -1.43139 0
M  V30 5079 O 453.916 0.901501 -1.72008 0
M  V30 5080 C 451.046 1.23237 -3.247 0
M  V30 5081 C 450 0.625818 -4.234 0
M  V30 5082 C 449.326 1.76674 -5.04669 0
M  V30 5083 C 450.626 -0.413515 -5.2066 0
M  V30 5084 H 452.32 -0.513184 -2.94969 0
M  V30 5085 H 449.866 -0.248241 -1.41844 0
M  V30 5086 H 451.819 1.75955 -3.82907 0
M  V30 5087 H 450.543 1.97067 -2.60446 0
M  V30 5088 H 449.202 0.120023 -3.66403 0
M  V30 5089 H 448.85 2.49383 -4.36826 0
M  V30 5090 H 448.55 1.36673 -5.71484 0
M  V30 5091 H 450.074 2.29738 -5.65732 0
M  V30 5092 H 451.488 0.0272042 -5.73294 0
M  V30 5093 H 449.885 -0.731825 -5.95621 0
M  V30 5094 H 450.955 -1.31325 -4.66778 0
M  V30 5095 N 452.299 1.55045 -0.282633 0
M  V30 5096 C 453.548 1.98938 0.332667 0
M  V30 5097 C 453.861 1.17455 1.56409 0
M  V30 5098 O 455.067 1.51527 2.25282 0
M  V30 5099 C 453.523 3.54105 0.643226 0
M  V30 5100 C 453.131 4.44374 -0.568814 0
M  V30 5101 C 454.875 4.06569 1.22074 0
M  V30 5102 C 452.782 5.90943 -0.232426 0
M  V30 5103 H 451.712 0.743043 0.128075 0
M  V30 5104 H 454.363 1.79341 -0.388464 0
M  V30 5105 H 452.745 3.69532 1.42346 0
M  V30 5106 H 453.919 4.40718 -1.34551 0
M  V30 5107 H 452.234 4.02585 -1.06369 0
M  V30 5108 H 454.831 5.13626 1.48635 0
M  V30 5109 H 455.174 3.56057 2.15707 0
M  V30 5110 H 455.707 3.94612 0.502621 0
M  V30 5111 H 452.446 6.45567 -1.13683 0
M  V30 5112 H 451.966 5.9765 0.507357 0
M  V30 5113 H 453.645 6.4677 0.172657 0
M  V30 5114 N 453.777 0.010035 1.57597 0
M  V30 5115 C 454.707 -0.976857 2.12084 0
M  V30 5116 C 455.688 -1.35191 1.03235 0
M  V30 5117 O 456.873 -1.43389 1.3097 0
M  V30 5118 C 454.003 -2.26548 2.63236 0
M  V30 5119 C 452.957 -2.03175 3.76701 0
M  V30 5120 C 452.283 -3.38138 4.14206 0
M  V30 5121 C 453.583 -1.38625 5.03568 0
M  V30 5122 H 455.277 -0.523145 2.94794 0
M  V30 5123 H 452.823 -0.250195 1.4181 0
M  V30 5124 H 454.776 -2.95952 2.99984 0
M  V30 5125 H 453.5 -2.74051 1.77661 0
M  V30 5126 H 452.159 -1.36195 3.40362 0
M  V30 5127 H 451.807 -3.83363 3.25641 0
M  V30 5128 H 451.507 -3.23312 4.90656 0
M  V30 5129 H 453.031 -4.08841 4.53521 0
M  V30 5130 H 454.445 -1.98 5.38023 0
M  V30 5131 H 452.842 -1.34256 5.84889 0
M  V30 5132 H 453.912 -0.356722 4.83586 0
M  V30 5133 N 455.255 -1.55392 -0.262866 0
M  V30 5134 C 456.202 -1.88966 -1.32516 0
M  V30 5135 C 457.172 -0.742187 -1.48596 0
M  V30 5136 O 458.357 -0.99439 -1.62839 0
M  V30 5137 C 455.497 -2.17592 -2.67858 0
M  V30 5138 C 454.61 -3.45061 -2.59917 0
M  V30 5139 C 453.745 -3.63336 -3.87505 0
M  V30 5140 C 452.784 -4.84462 -3.74116 0
M  V30 5141 N 451.921 -4.99342 -4.93561 0
M  V30 5142 H 456.761 -2.79566 -1.03184 0
M  V30 5143 H 454.298 -1.38404 -0.498285 0
M  V30 5144 H 456.256 -2.3219 -3.46617 0
M  V30 5145 H 454.886 -1.30215 -2.95371 0
M  V30 5146 H 453.938 -3.38881 -1.72812 0
M  V30 5147 H 455.25 -4.3396 -2.45926 0
M  V30 5148 H 454.404 -3.77807 -4.74707 0
M  V30 5149 H 453.143 -2.72641 -4.04374 0
M  V30 5150 H 452.148 -4.69985 -2.85297 0
M  V30 5151 H 453.373 -5.76603 -3.58757 0
M  V30 5152 H 451.319 -4.1158 -5.10821 0
M  V30 5153 H 451.236 -5.82303 -4.82141 0
M  V30 5154 H 452.504 -5.18208 -5.82306 0
M  V30 5155 N 456.733 0.527833 -1.48498 0
M  V30 5156 C 457.973 1.29401 -1.58224 0
M  V30 5157 C 458.337 1.90348 -0.251327 0
M  V30 5158 O 459.538 2.67868 -0.223588 0
M  V30 5159 C 457.809 2.35266 -2.69044 0
M  V30 5160 S 459.368 3.2158 -2.98549 0
M  V30 5161 H 456.186 0.440138 -0.558391 0
M  V30 5162 H 458.788 0.601079 -1.8603 0
M  V30 5163 H 457.492 1.88975 -3.64303 0
M  V30 5164 H 457.023 3.09263 -2.43146 0
M  V30 5165 H 459.038 4.35391 -2.38011 0
M  V30 5166 N 458.211 1.37122 0.776871 0
M  V30 5167 C 459.159 1.32549 1.91138 0
M  V30 5168 C 460.153 0.215119 1.68029 0
M  V30 5169 O 461.359 0.382852 1.75881 0
M  V30 5170 H 457.734 0.412952 0.62847 0
M  V30 5171 H 459.705 2.28332 1.92112 0
M  V30 5172 C 458.454 1.14422 3.28333 0
M  V30 5173 H 457.777 1.99115 3.46689 0
M  V30 5174 H 459.217 1.15272 4.0803 0
M  V30 5175 C 457.676 -0.150434 3.36564 0
M  V30 5176 O 458.206 -1.13584 3.85307 0
M  V30 5177 N 456.412 -0.19939 2.89915 0
M  V30 5178 H 455.959 0.603142 2.5044 0
M  V30 5179 H 455.917 -1.06526 2.95803 0
M  V30 5180 N 459.689 -1.00246 1.21608 0
M  V30 5181 C 460.914 -1.78167 1.06167 0
M  V30 5182 C 461.339 -1.84138 -0.384035 0
M  V30 5183 O 460.697 -1.28683 -1.27712 0
M  V30 5184 C 460.745 -3.19786 1.66642 0
M  V30 5185 O 459.849 -4.02153 0.913613 0
M  V30 5186 H 459.19 -0.549 0.37349 0
M  V30 5187 H 461.72 -1.25994 1.61204 0
M  V30 5188 H 461.73 -3.70451 1.70969 0
M  V30 5189 H 460.405 -3.14754 2.7185 0
M  V30 5190 H 458.982 -3.60711 0.945635 0
M  V30 5191 N 461.167 -1.02423 -1.1978 0
M  V30 5192 C 462.397 -0.736387 -1.93031 0
M  V30 5193 C 462.805 0.708023 -1.75453 0
M  V30 5194 O 462.148 1.4927 -1.07071 0
M  V30 5195 C 462.21 -1.00194 -3.45255 0
M  V30 5196 C 461.874 -2.43698 -3.86601 0
M  V30 5197 C 462.871 -3.41814 -3.91738 0
M  V30 5198 C 460.556 -2.77975 -4.18372 0
M  V30 5199 C 462.55 -4.72265 -4.28071 0
M  V30 5200 C 460.237 -4.08636 -4.54378 0
M  V30 5201 C 461.235 -5.05592 -4.59201 0
M  V30 5202 O 460.923 -6.33914 -4.94376 0
M  V30 5203 H 460.655 -0.269116 -0.620123 0
M  V30 5204 H 463.209 -1.37043 -1.52998 0
M  V30 5205 H 461.439 -0.310747 -3.85449 0
M  V30 5206 H 463.128 -0.704488 -3.9974 0
M  V30 5207 H 463.894 -3.16671 -3.67348 0
M  V30 5208 H 459.773 -2.0319 -4.13805 0
M  V30 5209 H 463.317 -5.4794 -4.3175 0
M  V30 5210 H 459.214 -4.33556 -4.78226 0
M  V30 5211 H 459.982 -6.38317 -5.12341 0
M  V30 5212 N 462.645 1.35699 -0.801477 0
M  V30 5213 C 464.061 1.52065 -0.484596 0
M  V30 5214 C 464.261 1.75215 0.995084 0
M  V30 5215 O 463.317 1.79061 1.78026 0
M  V30 5216 C 464.63 2.69908 -1.32552 0
M  V30 5217 C 466.178 2.83784 -1.32044 0
M  V30 5218 C 466.653 4.04646 -2.14536 0
M  V30 5219 N 468.144 4.11814 -2.12046 0
M  V30 5220 C 468.879 5.04437 -2.72636 0
M  V30 5221 N 468.375 6.02426 -3.42133 0
M  V30 5222 N 470.168 4.97144 -2.62305 0
M  V30 5223 H 462.319 1.18928 -1.75983 0
M  V30 5224 H 464.582 0.581455 -0.748741 0
M  V30 5225 H 464.288 2.59363 -2.37537 0
M  V30 5226 H 464.162 3.64376 -0.975181 0
M  V30 5227 H 466.549 2.93783 -0.27846 0
M  V30 5228 H 466.63 1.90188 -1.71062 0
M  V30 5229 H 466.274 3.95407 -3.18772 0
M  V30 5230 H 466.204 4.97413 -1.72882 0
M  V30 5231 H 468.695 3.41664 -1.61476 0
M  V30 5232 H 469.008 6.69688 -3.85666 0
M  V30 5233 H 467.353 6.02615 -3.46237 0
M  V30 5234 H 470.544 4.19546 -2.07603 0
M  V30 5235 H 470.717 5.69138 -3.09815 0
M  V30 5236 N 464.123 0.554532 1.47522 0
M  V30 5237 C 465.073 -0.215008 2.26984 0
M  V30 5238 C 466.057 -0.88774 1.34194 0
M  V30 5239 O 467.249 -0.786489 1.58567 0
M  V30 5240 C 464.378 -1.24604 3.19889 0
M  V30 5241 C 463.464 -0.576857 4.20159 0
M  V30 5242 N 463.855 0.351541 5.04577 0
M  V30 5243 C 462.153 -0.831104 4.38188 0
M  V30 5244 C 462.854 0.739995 5.76974 0
M  V30 5245 N 461.83 0.0954407 5.43516 0
M  V30 5246 H 465.632 0.498843 2.89636 0
M  V30 5247 H 463.146 0.374279 1.58028 0
M  V30 5248 H 465.143 -1.81128 3.75498 0
M  V30 5249 H 463.803 -1.96101 2.58794 0
M  V30 5250 H 464.814 0.725556 5.12792 0
M  V30 5251 H 461.491 -1.53479 3.88266 0
M  V30 5252 H 462.881 1.50271 6.5488 0
M  V30 5253 N 465.601 -1.54893 0.290851 0
M  V30 5254 C 466.564 -2.21824 -0.576784 0
M  V30 5255 C 467.564 -1.20104 -1.06919 0
M  V30 5256 O 468.754 -1.44906 -0.966843 0
M  V30 5257 C 465.886 -2.89662 -1.79747 0
M  V30 5258 H 467.079 -2.99899 0.00784051 0
M  V30 5259 H 464.632 -1.56245 0.0415934 0
M  V30 5260 H 465.367 -2.15639 -2.42219 0
M  V30 5261 H 465.152 -3.64219 -1.45214 0
M  V30 5262 H 466.642 -3.4075 -2.4141 0
M  V30 5263 N 467.08 -0.0183926 -1.57589 0
M  V30 5264 C 468.496 0.337897 -1.55982 0
M  V30 5265 C 468.696 1.73604 -1.02294 0
M  V30 5266 O 467.752 2.43589 -0.664895 0
M  V30 5267 C 469.065 0.196305 -3.00059 0
M  V30 5268 C 470.613 0.269875 -3.11834 0
M  V30 5269 C 471.088 0.157197 -4.5773 0
M  V30 5270 N 472.579 0.214521 -4.62703 0
M  V30 5271 C 473.314 0.150955 -5.73201 0
M  V30 5272 N 472.81 0.0369212 -6.9279 0
M  V30 5273 N 474.603 0.204162 -5.61729 0
M  V30 5274 H 466.754 -0.93279 -1.90821 0
M  V30 5275 H 469.017 -0.359253 -0.877292 0
M  V30 5276 H 468.723 -0.766383 -3.43248 0
M  V30 5277 H 468.597 0.970908 -3.6449 0
M  V30 5278 H 470.984 1.22302 -2.68563 0
M  V30 5279 H 471.065 -0.534918 -2.50144 0
M  V30 5280 H 470.709 -0.792479 -5.01679 0
M  V30 5281 H 470.639 0.980717 -5.17387 0
M  V30 5282 H 473.13 0.303238 -3.76681 0
M  V30 5283 H 473.443 -0.00518321 -7.728 0
M  V30 5284 H 471.788 0.0022886 -6.95 0
M  V30 5285 H 474.979 0.291575 -4.67191 0
M  V30 5286 H 475.152 0.15116 -6.47824 0
M  V30 5287 N 468.558 1.5553 0.254621 0
M  V30 5288 C 469.804 1.7818 0.980989 0
M  V30 5289 C 470.159 0.586059 1.83257 0
M  V30 5290 O 469.452 -0.420889 1.8692 0
M  V30 5291 C 469.646 3.03891 1.88109 0
M  V30 5292 C 469.475 4.35578 1.11812 0
M  V30 5293 C 468.245 4.98497 0.826343 0
M  V30 5294 C 470.443 5.11869 0.499486 0
M  V30 5295 N 468.425 6.13888 0.0385095 0
M  V30 5296 C 469.796 6.1981 -0.153292 0
M  V30 5297 C 471.851 4.96216 0.409175 0
M  V30 5298 C 470.554 7.13801 -0.8877 0
M  V30 5299 C 472.58 5.90578 -0.311683 0
M  V30 5300 C 471.942 6.97922 -0.953129 0
M  V30 5301 H 468.041 0.704057 0.340335 0
M  V30 5302 H 470.625 1.93025 0.254855 0
M  V30 5303 H 468.796 2.90389 2.57932 0
M  V30 5304 H 470.528 3.14869 2.54244 0
M  V30 5305 H 467.283 4.59769 1.13621 0
M  V30 5306 H 467.707 6.76129 -0.343275 0
M  V30 5307 H 472.349 4.1331 0.890765 0
M  V30 5308 H 470.067 7.96214 -1.38092 0
M  V30 5309 H 473.653 5.80544 -0.382125 0
M  V30 5310 H 472.533 7.69681 -1.50203 0
M  V30 5311 N 470.036 -0.519951 1.48776 0
M  V30 5312 C 471.282 -1.27456 1.58514 0
M  V30 5313 C 471.637 -1.90634 0.260057 0
M  V30 5314 O 470.93 -1.76815 -0.738036 0
M  V30 5315 C 471.124 -2.37864 2.6675 0
M  V30 5316 C 470.953 -1.85509 4.09654 0
M  V30 5317 C 469.723 -1.67661 4.76674 0
M  V30 5318 C 471.921 -1.37783 4.955 0
M  V30 5319 N 469.903 -1.10037 6.03958 0
M  V30 5320 C 471.274 -0.921714 6.1311 0
M  V30 5321 C 473.329 -1.26179 4.81646 0
M  V30 5322 C 472.032 -0.361057 7.18393 0
M  V30 5323 C 474.058 -0.715121 5.8706 0
M  V30 5324 C 473.42 -0.269132 7.03886 0
M  V30 5325 H 469.519 -0.457049 0.634531 0
M  V30 5326 H 472.103 -0.585073 1.85701 0
M  V30 5327 H 470.274 -3.04296 2.41367 0
M  V30 5328 H 472.006 -3.04901 2.66116 0
M  V30 5329 H 468.761 -1.91478 4.33166 0
M  V30 5330 H 469.185 -0.832067 6.71867 0
M  V30 5331 H 473.827 -1.59263 3.91657 0
M  V30 5332 H 471.545 -0.0179127 8.08098 0
M  V30 5333 H 475.131 -0.628376 5.78397 0
M  V30 5334 H 474.011 0.14729 7.84062 0
M  V30 5335 N 471.514 -1.37532 -0.769588 0
M  V30 5336 C 472.762 -1.32597 -1.5252 0
M  V30 5337 C 473.083 0.0884294 -1.94799 0
M  V30 5338 O 472.353 1.03289 -1.66458 0
M  V30 5339 H 470.933 -0.487846 -0.565699 0
M  V30 5340 H 473.595 -1.72044 -0.915806 0
M  V30 5341 H 472.691 -1.96643 -2.42359 0
M  V30 5342 N 472.992 0.995999 -1.22138 0
M  V30 5343 C 474.24 1.73167 -1.042 0
M  V30 5344 C 474.561 1.90329 0.42423 0
M  V30 5345 O 473.831 1.4607 1.30539 0
M  V30 5346 H 472.411 0.641593 -0.38258 0
M  V30 5347 H 475.073 1.19974 -1.53598 0
M  V30 5348 H 474.169 2.72734 -1.51731 0
M  V30 5349 N 474.47 1.03057 1.19235 0
M  V30 5350 C 475.433 0.617418 2.20727 0
M  V30 5351 C 476.433 -0.319856 1.57587 0
M  V30 5352 O 477.623 -0.106633 1.73873 0
M  V30 5353 C 474.755 -0.096296 3.40764 0
M  V30 5354 H 475.948 1.51544 2.58794 0
M  V30 5355 H 473.501 0.821949 1.32942 0
M  V30 5356 H 474.236 -1.00859 3.08217 0
M  V30 5357 H 474.021 0.577217 3.87828 0
M  V30 5358 H 475.511 -0.372219 4.15938 0
M  V30 5359 N 475.948 -1.35272 0.808662 0
M  V30 5360 C 477.197 -1.97963 0.386483 0
M  V30 5361 C 477.51 -1.64866 -1.05255 0
M  V30 5362 O 478.716 -2.20937 -1.57794 0
M  V30 5363 C 477.172 -3.54162 0.640096 0
M  V30 5364 C 476.78 -3.96166 2.0918 0
M  V30 5365 C 478.524 -4.23553 0.283376 0
M  V30 5366 C 476.431 -5.4522 2.29106 0
M  V30 5367 H 475.361 -0.740742 0.140774 0
M  V30 5368 H 478.012 -1.5431 0.993012 0
M  V30 5369 H 476.394 -3.95983 -0.0364117 0
M  V30 5370 H 477.568 -3.65491 2.80629 0
M  V30 5371 H 475.883 -3.3967 2.40859 0
M  V30 5372 H 478.48 -5.33124 0.410273 0
M  V30 5373 H 478.823 -4.09105 -0.770659 0
M  V30 5374 H 479.356 -3.8716 0.913884 0
M  V30 5375 H 476.095 -5.64638 3.32962 0
M  V30 5376 H 475.615 -5.77457 1.62184 0
M  V30 5377 H 477.294 -6.1171 2.1076 0
M  V30 5378 N 477.426 -0.562348 -1.47226 0
M  V30 5379 C 478.336 0.185466 -2.33866 0
M  V30 5380 C 479.352 0.906713 -1.48508 0
M  V30 5381 O 480.528 0.874458 -1.81425 0
M  V30 5382 C 477.593 1.19904 -3.25306 0
M  V30 5383 C 476.654 0.484669 -4.26555 0
M  V30 5384 C 475.887 1.44996 -5.13626 0
M  V30 5385 O 476.11 2.68515 -5.03245 0
M  V30 5386 O 475.044 0.971642 -5.94006 0
M  V30 5387 H 478.87 -0.525361 -2.99121 0
M  V30 5388 H 476.455 -0.322916 -1.45868 0
M  V30 5389 H 478.337 1.78399 -3.81774 0
M  V30 5390 H 477.012 1.8917 -2.62672 0
M  V30 5391 H 475.919 -0.141605 -3.73832 0
M  V30 5392 H 477.252 -0.166634 -4.91918 0
M  V30 5393 N 478.904 1.54736 -0.299062 0
M  V30 5394 C 479.814 2.27127 0.587413 0
M  V30 5395 C 480.83 1.30575 1.15005 0
M  V30 5396 O 482.006 1.63554 1.17525 0
M  V30 5397 C 479.071 2.99645 1.74395 0
M  V30 5398 C 478.132 4.11731 1.21559 0
M  V30 5399 C 477.365 4.80781 2.317 0
M  V30 5400 O 477.588 4.4918 3.51558 0
M  V30 5401 O 476.522 5.68226 1.98501 0
M  V30 5402 H 480.348 3.037 0.000250109 0
M  V30 5403 H 477.933 1.49256 -0.0655919 0
M  V30 5404 H 479.815 3.45138 2.4178 0
M  V30 5405 H 478.49 2.25969 2.31775 0
M  V30 5406 H 477.397 3.70641 0.507514 0
M  V30 5407 H 478.73 4.87379 0.687233 0
M  V30 5408 N 480.382 0.0267497 1.57577 0
M  V30 5409 C 481.629 -0.652404 1.91703 0
M  V30 5410 C 481.957 -1.72271 0.902936 0
M  V30 5411 O 481.212 -1.955 -0.0884843 0
M  V30 5412 C 481.511 -1.30914 3.3256 0
M  V30 5413 C 481.177 -0.369441 4.49384 0
M  V30 5414 C 479.839 -0.110791 4.81072 0
M  V30 5415 C 482.191 0.275971 5.20469 0
M  V30 5416 C 479.519 0.801116 5.81205 0
M  V30 5417 C 481.871 1.17592 6.21575 0
M  V30 5418 C 480.535 1.44348 6.51705 0
M  V30 5419 H 479.805 -0.238732 0.70149 0
M  V30 5420 H 482.452 0.0880091 1.91298 0
M  V30 5421 H 480.757 -2.12425 3.29216 0
M  V30 5422 H 482.454 -1.84115 3.56234 0
M  V30 5423 H 479.044 -0.581211 4.24641 0
M  V30 5424 H 483.228 0.0892 4.9622 0
M  V30 5425 H 478.484 1.01614 6.02897 0
M  V30 5426 H 482.658 1.68223 6.75777 0
M  V30 5427 H 480.285 2.15176 7.29111 0
M  V30 5428 N 481.861 -1.55662 -0.24637 0
M  V30 5429 C 483.11 -1.7672 -0.972254 0
M  V30 5430 C 483.423 -0.59078 -1.86465 0
M  V30 5431 O 484.629 -0.684391 -2.62732 0
M  V30 5432 C 483.085 -3.12869 -1.7788 0
M  V30 5433 C 482.693 -4.38161 -0.933768 0
M  V30 5434 C 484.437 -3.43265 -2.49738 0
M  V30 5435 C 482.344 -5.6534 -1.73623 0
M  V30 5436 H 481.274 -0.658795 -0.366749 0
M  V30 5437 H 483.925 -1.82092 -0.226902 0
M  V30 5438 H 482.307 -3.01606 -2.56612 0
M  V30 5439 H 483.481 -4.60413 -0.188736 0
M  V30 5440 H 481.796 -4.15102 -0.328488 0
M  V30 5441 H 484.393 -4.35501 -3.10231 0
M  V30 5442 H 484.736 -2.64614 -3.2138 0
M  V30 5443 H 485.269 -3.55746 -1.78016 0
M  V30 5444 H 482.008 -6.46814 -1.06354 0
M  V30 5445 H 481.528 -5.47188 -2.45653 0
M  V30 5446 H 483.207 -6.04616 -2.30323 0
M  V30 5447 N 483.339 0.512053 -1.4905 0
M  V30 5448 C 484.271 1.63121 -1.6101 0
M  V30 5449 C 485.284 1.55145 -0.493352 0
M  V30 5450 O 486.473 1.61278 -0.764955 0
M  V30 5451 C 483.573 3.01863 -1.54052 0
M  V30 5452 C 482.746 3.35138 -2.81072 0
M  V30 5453 C 481.805 4.5324 -2.67319 0
M  V30 5454 O 480.831 4.55571 -3.41238 0
M  V30 5455 N 482.033 5.52495 -1.78127 0
M  V30 5456 H 484.798 1.53292 -2.5753 0
M  V30 5457 H 482.359 0.699706 -1.45999 0
M  V30 5458 H 484.351 3.78774 -1.42521 0
M  V30 5459 H 482.921 3.05675 -0.654345 0
M  V30 5460 H 482.141 2.4723 -3.07036 0
M  V30 5461 H 483.429 3.54162 -3.65304 0
M  V30 5462 H 482.827 5.53403 -1.17308 0
M  V30 5463 H 481.384 6.28553 -1.72525 0
M  V30 5464 N 484.817 1.37938 0.762283 0
M  V30 5465 C 485.764 1.34467 1.87583 0
M  V30 5466 C 486.734 0.208633 1.64785 0
M  V30 5467 O 487.919 0.399494 1.86571 0
M  V30 5468 C 485.059 1.16692 3.24772 0
M  V30 5469 C 484.172 2.39608 3.59461 0
M  V30 5470 C 483.307 2.14631 4.85908 0
M  V30 5471 C 482.346 3.33364 5.13357 0
M  V30 5472 N 481.483 3.07877 6.30996 0
M  V30 5473 H 486.323 2.29669 1.89885 0
M  V30 5474 H 483.86 1.14116 0.928219 0
M  V30 5475 H 485.818 1.04405 4.03925 0
M  V30 5476 H 484.448 0.251333 3.2182 0
M  V30 5477 H 483.5 2.626 2.75219 0
M  V30 5478 H 484.812 3.28128 3.75678 0
M  V30 5479 H 483.966 1.99429 5.72986 0
M  V30 5480 H 482.705 1.23463 4.71814 0
M  V30 5481 H 481.71 3.49094 4.24751 0
M  V30 5482 H 482.935 4.25395 5.29354 0
M  V30 5483 H 480.881 2.19348 6.18241 0
M  V30 5484 H 480.798 3.89944 6.47673 0
M  V30 5485 H 482.066 2.96313 7.20985 0
M  V30 5486 N 486.295 -0.989507 1.22664 0
M  V30 5487 C 487.245 -2.06478 0.967005 0
M  V30 5488 C 488.229 -1.60682 -0.0836374 0
M  V30 5489 O 489.421 -1.76541 0.127322 0
M  V30 5490 C 486.55 -3.38861 0.550313 0
M  V30 5491 C 485.636 -3.9128 1.63587 0
M  V30 5492 N 486.027 -4.16884 2.86429 0
M  V30 5493 C 484.325 -4.1972 1.50834 0
M  V30 5494 C 485.026 -4.5954 3.56648 0
M  V30 5495 N 484.002 -4.63434 2.84131 0
M  V30 5496 H 487.804 -2.24219 1.90008 0
M  V30 5497 H 485.318 -1.17153 1.12467 0
M  V30 5498 H 487.315 -4.15465 0.345612 0
M  V30 5499 H 485.975 -3.22518 -0.375822 0
M  V30 5500 H 486.986 -4.04976 3.22823 0
M  V30 5501 H 483.663 -4.1243 0.648643 0
M  V30 5502 H 485.053 -4.87944 4.61909 0
M  V30 5503 N 487.773 -1.03688 -1.18687 0
M  V30 5504 C 489.021 -0.736572 -1.88199 0
M  V30 5505 C 489.342 0.737665 -1.80509 0
M  V30 5506 O 488.612 1.53204 -1.22088 0
M  V30 5507 H 487.192 -0.269466 -0.696704 0
M  V30 5508 H 489.854 -1.31282 -1.44052 0
M  V30 5509 H 488.95 -1.03802 -2.94332 0
M  V30 5510 N 489.251 1.34841 -0.815825 0
M  V30 5511 C 490.479 2.0273 -0.413294 0
M  V30 5512 C 490.894 1.61459 0.978599 0
M  V30 5513 O 490.251 0.816584 1.63212 0
M  V30 5514 C 490.302 3.58058 -0.497676 0
M  V30 5515 O 490.023 3.97832 -1.8347 0
M  V30 5516 C 491.524 4.4321 -0.0891339 0
M  V30 5517 H 488.744 0.649956 -0.166728 0
M  V30 5518 H 491.288 1.72267 -1.10201 0
M  V30 5519 H 489.443 3.87136 0.142886 0
M  V30 5520 H 489.857 4.92501 -1.80396 0
M  V30 5521 H 491.331 5.5164 -0.199274 0
M  V30 5522 H 491.808 4.28432 0.966571 0
M  V30 5523 H 492.414 4.19446 -0.703214 0
M  V30 5524 N 490.729 0.570148 1.46925 0
M  V30 5525 C 491.677 -0.183181 2.31878 0
M  V30 5526 C 492.671 -0.896721 1.43719 0
M  V30 5527 O 493.877 -0.816536 1.60414 0
M  V30 5528 H 490.252 -0.077944 0.74795 0
M  V30 5529 H 492.223 0.552312 2.93244 0
M  V30 5530 C 490.972 -1.19172 3.2664 0
M  V30 5531 H 490.295 -0.652088 3.94446 0
M  V30 5532 H 491.735 -1.68946 3.88887 0
M  V30 5533 C 490.194 -2.24627 2.51086 0
M  V30 5534 O 490.724 -3.31773 2.26472 0
M  V30 5535 N 488.93 -1.98898 2.11867 0
M  V30 5536 H 488.477 -1.11777 2.32086 0
M  V30 5537 H 488.435 -2.6967 1.61634 0
M  V30 5538 N 492.207 -1.54576 0.307264 0
M  V30 5539 C 493.454 -2.00263 -0.300167 0
M  V30 5540 C 493.782 -1.19561 -1.53413 0
M  V30 5541 O 493.037 -0.261487 -1.93945 0
M  V30 5542 C 493.336 -3.50572 -0.695253 0
M  V30 5543 C 493.002 -4.48771 0.437679 0
M  V30 5544 C 491.664 -4.7534 0.748681 0
M  V30 5545 C 494.016 -5.0721 1.19949 0
M  V30 5546 C 491.344 -5.5761 1.8245 0
M  V30 5547 C 493.696 -5.90651 2.26527 0
M  V30 5548 C 492.36 -6.15528 2.58227 0
M  V30 5549 H 491.63 -0.732814 -0.109839 0
M  V30 5550 H 494.277 -1.86664 0.427661 0
M  V30 5551 H 492.582 -3.61814 -1.50326 0
M  V30 5552 H 494.279 -3.83352 -1.17653 0
M  V30 5553 H 490.869 -4.282 0.185187 0
M  V30 5554 H 495.053 -4.86679 0.972474 0
M  V30 5555 H 490.309 -5.75121 2.07476 0
M  V30 5556 H 494.483 -6.34957 2.86011 0
M  V30 5557 H 492.11 -6.79066 3.4172 0
M  V30 5558 N 493.685 -0.035106 -1.57561 0
M  V30 5559 C 494.615 0.942993 -2.13612 0
M  V30 5560 C 495.596 1.33531 -1.05373 0
M  V30 5561 O 496.781 1.41287 -1.33235 0
M  V30 5562 C 493.911 2.22332 -2.66807 0
M  V30 5563 C 492.865 1.97156 -3.79886 0
M  V30 5564 C 492.191 3.31506 -4.19533 0
M  V30 5565 C 493.491 1.30596 -5.05709 0
M  V30 5566 H 495.185 0.476179 -2.95589 0
M  V30 5567 H 492.731 0.227602 -1.4219 0
M  V30 5568 H 494.684 2.91142 -3.04654 0
M  V30 5569 H 493.408 2.7119 -1.81999 0
M  V30 5570 H 492.067 1.30763 -3.42486 0
M  V30 5571 H 491.715 3.78134 -3.31698 0
M  V30 5572 H 491.415 3.15465 -4.95738 0
M  V30 5573 H 492.939 4.01574 -4.59968 0
M  V30 5574 H 494.353 1.89416 -5.41105 0
M  V30 5575 H 492.75 1.24934 -5.86951 0
M  V30 5576 H 493.82 0.279742 -4.84092 0
M  V30 5577 N 495.163 1.55791 0.238111 0
M  V30 5578 C 496.11 1.9105 1.29493 0
M  V30 5579 C 497.08 0.765733 1.47397 0
M  V30 5580 O 498.265 1.02017 1.61236 0
M  V30 5581 C 495.405 2.21826 2.64362 0
M  V30 5582 C 494.518 3.49153 2.54394 0
M  V30 5583 C 493.653 3.69455 3.81676 0
M  V30 5584 C 492.692 4.90353 3.66361 0
M  V30 5585 N 491.829 5.07131 4.85554 0
M  V30 5586 H 496.669 2.81172 0.987233 0
M  V30 5587 H 494.206 1.39179 0.476203 0
M  V30 5588 H 496.164 2.37675 3.4288 0
M  V30 5589 H 494.794 1.34897 2.93262 0
M  V30 5590 H 493.846 3.41587 1.67399 0
M  V30 5591 H 495.158 4.37818 2.38991 0
M  V30 5592 H 494.312 3.85311 4.68636 0
M  V30 5593 H 493.051 2.7904 3.99985 0
M  V30 5594 H 492.056 4.74464 2.77784 0
M  V30 5595 H 493.281 5.82237 3.49538 0
M  V30 5596 H 491.227 4.19654 5.04209 0
M  V30 5597 H 491.144 5.89899 4.72816 0
M  V30 5598 H 492.412 5.27407 5.73988 0
M  V30 5599 N 496.642 -0.504142 1.49319 0
M  V30 5600 C 497.919 -1.26548 1.49147 0
M  V30 5601 C 498.299 -2.09977 0.21744 0
M  V30 5602 O 497.647 -2.14028 -0.800269 0
M  V30 5603 C 497.857 -2.12489 2.76857 0
M  V30 5604 C 499.205 -2.7178 3.26222 0
M  V30 5605 O 500.229 -2.22758 2.77952 0
M  V30 5606 O 499.088 -3.61015 4.10281 0
M  V30 5607 H 496.182 -0.572495 0.596806 0
M  V30 5608 H 498.728 -0.51867 1.61579 0
M  V30 5609 H 497.5 -1.50796 3.61077 0
M  V30 5610 H 497.123 -2.94368 2.6727 0
M  V30 5611 N 498.12 -1.38341 -0.754957 0
M  V30 5612 C 499.07 -1.31964 -1.85929 0
M  V30 5613 C 500.054 -0.204181 -1.59599 0
M  V30 5614 O 501.246 -0.440036 -1.71443 0
M  V30 5615 C 498.375 -1.14565 -3.2362 0
M  V30 5616 C 497.461 -2.30727 -3.55846 0
M  V30 5617 N 497.852 -3.56165 -3.59138 0
M  V30 5618 C 496.15 -2.23249 -3.86104 0
M  V30 5619 C 496.851 -4.32865 -3.88591 0
M  V30 5620 N 495.827 -3.62203 -4.05351 0
M  V30 5621 H 499.629 -2.2694 -1.8675 0
M  V30 5622 H 497.143 -1.31553 -0.952243 0
M  V30 5623 H 499.14 -1.0808 -4.02647 0
M  V30 5624 H 497.8 -0.205212 -3.24051 0
M  V30 5625 H 498.811 -3.89854 -3.40932 0
M  V30 5626 H 495.488 -1.37357 -3.94258 0
M  V30 5627 H 496.878 -5.41504 -3.97773 0
M  V30 5628 N 499.598 0.982988 -1.23187 0
M  V30 5629 C 501.014 1.2487 -0.993967 0
M  V30 5630 C 501.214 1.99155 0.306498 0
M  V30 5631 O 500.27 2.30688 1.0266 0
M  V30 5632 C 501.583 2.05078 -2.19917 0
M  V30 5633 C 503.131 2.18227 -2.2438 0
M  V30 5634 C 503.606 3.01825 -3.44479 0
M  V30 5635 N 505.097 3.09411 -3.44702 0
M  V30 5636 C 505.832 3.74412 -4.34285 0
M  V30 5637 N 505.328 4.41259 -5.341 0
M  V30 5638 N 507.121 3.71273 -4.22035 0
M  V30 5639 H 499.272 0.485253 -2.06783 0
M  V30 5640 H 501.535 0.276979 -0.906635 0
M  V30 5641 H 501.241 1.57867 -3.14279 0
M  V30 5642 H 501.115 3.05829 -2.2079 0
M  V30 5643 H 503.502 2.64648 -1.30559 0
M  V30 5644 H 503.583 1.16873 -2.2754 0
M  V30 5645 H 503.227 2.56102 -4.38605 0
M  V30 5646 H 503.157 4.03342 -3.38559 0
M  V30 5647 H 505.648 2.61845 -2.7248 0
M  V30 5648 H 505.961 4.88629 -5.98717 0
M  V30 5649 H 504.306 4.39975 -5.38002 0
M  V30 5650 H 507.497 3.18217 -3.43301 0
M  V30 5651 H 507.67 4.21649 -4.92053 0
M  V30 5652 N 501.076 1.04316 1.18135 0
M  V30 5653 C 502.323 0.74802 1.88178 0
M  V30 5654 C 502.651 -0.72441 1.80506 0
M  V30 5655 O 501.906 -1.54463 1.20165 0
M  V30 5656 C 502.205 1.16271 3.37958 0
M  V30 5657 C 501.871 2.63585 3.65833 0
M  V30 5658 C 500.533 3.03829 3.73151 0
M  V30 5659 C 502.885 3.58822 3.78016 0
M  V30 5660 C 500.213 4.38194 3.90132 0
M  V30 5661 C 502.565 4.92909 3.96514 0
M  V30 5662 C 501.229 5.3282 4.02068 0
M  V30 5663 H 500.499 0.27372 0.688592 0
M  V30 5664 H 503.146 1.30863 1.39811 0
M  V30 5665 H 501.451 0.520938 3.88321 0
M  V30 5666 H 503.148 0.911672 3.90499 0
M  V30 5667 H 499.738 2.31414 3.60757 0
M  V30 5668 H 503.922 3.28875 3.71692 0
M  V30 5669 H 499.178 4.68631 3.92677 0
M  V30 5670 H 503.352 5.66606 4.04883 0
M  V30 5671 H 500.979 6.36943 4.14979 0
M  V30 5672 N 502.554 -1.34406 0.822964 0
M  V30 5673 C 503.802 -1.97892 0.410245 0
M  V30 5674 C 504.123 -1.65567 -1.03017 0
M  V30 5675 O 503.393 -0.94642 -1.71522 0
M  V30 5676 H 501.973 -0.732049 0.148707 0
M  V30 5677 H 504.635 -1.64043 1.05242 0
M  V30 5678 H 503.731 -3.07579 0.529284 0
M  V30 5679 N 504.032 -0.577932 -1.46621 0
M  V30 5680 C 505.257 -0.0652536 -2.07297 0
M  V30 5681 C 505.682 1.22828 -1.4246 0
M  V30 5682 O 505.04 1.74075 -0.506718 0
M  V30 5683 C 505.088 0.0920589 -3.60482 0
M  V30 5684 O 504.192 1.14972 -3.96049 0
M  V30 5685 H 503.533 -0.06065 -0.661224 0
M  V30 5686 H 506.063 -0.799515 -1.88332 0
M  V30 5687 H 506.073 0.299741 -4.06897 0
M  V30 5688 H 504.748 -0.852612 -4.07067 0
M  V30 5689 H 503.325 0.920879 -3.61351 0
M  V30 5690 N 505.51 1.54411 -0.315457 0
M  V30 5691 C 506.74 2.04536 0.291315 0
M  V30 5692 C 507.148 1.19162 1.4696 0
M  V30 5693 O 506.491 0.213199 1.82459 0
M  V30 5694 C 506.553 3.5056 0.796725 0
M  V30 5695 C 506.217 4.5627 -0.258178 0
M  V30 5696 C 507.214 5.08312 -1.09153 0
M  V30 5697 C 504.899 5.00672 -0.404036 0
M  V30 5698 C 506.893 6.03312 -2.05655 0
M  V30 5699 C 504.58 5.95488 -1.37248 0
M  V30 5700 C 505.578 6.46693 -2.19721 0
M  V30 5701 O 505.266 7.39648 -3.14921 0
M  V30 5702 H 504.998 0.672856 0.0651165 0
M  V30 5703 H 507.552 2.00244 -0.457308 0
M  V30 5704 H 505.782 3.52223 1.59612 0
M  V30 5705 H 507.471 3.83804 1.32096 0
M  V30 5706 H 508.237 4.74793 -0.98979 0
M  V30 5707 H 504.116 4.60436 0.22799 0
M  V30 5708 H 507.66 6.43203 -2.70067 0
M  V30 5709 H 503.557 6.28424 -1.47489 0
M  V30 5710 H 504.325 7.57496 -3.10067 0
M  V30 5711 N 506.988 0.0434614 1.5754 0
M  V30 5712 C 507.951 -0.918696 2.09982 0
M  V30 5713 C 508.951 -1.24488 1.01781 0
M  V30 5714 O 510.141 -1.18284 1.27885 0
M  V30 5715 C 507.273 -2.23093 2.57764 0
M  V30 5716 H 508.466 -0.464229 2.96285 0
M  V30 5717 H 506.019 -0.204818 1.54952 0
M  V30 5718 H 506.754 -2.73137 1.74832 0
M  V30 5719 H 506.539 -2.00724 3.36827 0
M  V30 5720 H 508.029 -2.92028 2.98512 0
M  V30 5721 N 508.466 -1.55915 -0.229846 0
M  V30 5722 C 509.429 -1.90914 -1.26824 0
M  V30 5723 C 510.429 -0.786999 -1.40225 0
M  V30 5724 O 511.619 -1.05484 -1.38632 0
M  V30 5725 C 508.751 -2.15264 -2.64337 0
M  V30 5726 H 509.944 -2.8378 -0.969998 0
M  V30 5727 H 507.497 -1.49069 -0.4699 0
M  V30 5728 H 508.232 -1.24923 -2.99274 0
M  V30 5729 H 508.017 -2.97005 -2.55989 0
M  V30 5730 H 509.507 -2.43467 -3.39284 0
M  V30 5731 N 509.944 0.496216 -1.49584 0
M  V30 5732 C 511.193 1.24668 -1.58558 0
M  V30 5733 C 511.506 1.9359 -0.279703 0
M  V30 5734 O 512.712 2.70365 -0.248048 0
M  V30 5735 C 511.168 2.26388 -2.79779 0
M  V30 5736 C 510.776 1.63384 -4.17145 0
M  V30 5737 C 512.52 3.02233 -2.98086 0
M  V30 5738 C 510.427 2.63243 -5.29582 0
M  V30 5739 H 509.357 0.468995 -0.590389 0
M  V30 5740 H 512.008 0.519985 -1.75978 0
M  V30 5741 H 510.39 3.02241 -2.55863 0
M  V30 5742 H 511.564 0.93491 -4.51216 0
M  V30 5743 H 509.879 0.999121 -4.04236 0
M  V30 5744 H 512.476 3.76919 -3.79257 0
M  V30 5745 H 512.819 3.60132 -2.08831 0
M  V30 5746 H 513.352 2.33495 -3.22063 0
M  V30 5747 H 510.091 2.10119 -6.20911 0
M  V30 5748 H 509.611 3.31363 -4.99959 0
M  V30 5749 H 511.29 3.25575 -5.59115 0
M  V30 5750 N 511.423 1.38739 0.74761 0
M  V30 5751 C 512.355 1.32341 1.87132 0
M  V30 5752 C 513.368 0.234502 1.61102 0
M  V30 5753 O 514.557 0.492516 1.71571 0
M  V30 5754 C 511.657 1.02915 3.22896 0
M  V30 5755 C 510.83 2.22834 3.76383 0
M  V30 5756 C 509.889 1.90059 4.90677 0
M  V30 5757 O 508.915 2.62615 5.04997 0
M  V30 5758 N 510.117 0.859141 5.74107 0
M  V30 5759 H 512.882 2.29175 1.93129 0
M  V30 5760 H 510.443 1.32678 0.927805 0
M  V30 5761 H 512.435 0.79031 3.96908 0
M  V30 5762 H 511.005 0.148572 3.12247 0
M  V30 5763 H 510.225 2.62747 2.93867 0
M  V30 5764 H 511.513 3.02851 4.08851 0
M  V30 5765 H 510.911 0.257564 5.65113 0
M  V30 5766 H 509.468 0.680189 6.48241 0
M  V30 5767 N 512.901 -0.976442 1.23707 0
M  V30 5768 C 513.811 -2.10359 1.03856 0
M  V30 5769 C 514.827 -1.73991 -0.0180919 0
M  V30 5770 O 516.003 -2.0061 0.178211 0
M  V30 5771 C 513.068 -3.40809 0.636387 0
M  V30 5772 C 512.129 -3.91179 1.76854 0
M  V30 5773 C 511.362 -5.15404 1.38546 0
M  V30 5774 O 511.585 -5.69754 0.27142 0
M  V30 5775 O 510.519 -5.5994 2.20797 0
M  V30 5776 H 514.345 -2.29997 1.98331 0
M  V30 5777 H 511.93 -1.08742 1.02448 0
M  V30 5778 H 513.812 -4.19269 0.423223 0
M  V30 5779 H 512.487 -3.22493 -0.279322 0
M  V30 5780 H 511.394 -3.13819 2.03638 0
M  V30 5781 H 512.727 -4.13958 2.6627 0
M  V30 5782 N 514.379 -1.04941 -1.1758 0
M  V30 5783 C 515.327 -0.64204 -2.23563 0
M  V30 5784 C 516.321 0.335453 -1.66045 0
M  V30 5785 O 517.527 0.20179 -1.78865 0
M  V30 5786 H 513.902 -0.18944 -0.727748 0
M  V30 5787 H 515.873 -1.54609 -2.55223 0
M  V30 5788 C 514.622 -0.0301051 -3.47687 0
M  V30 5789 H 513.945 -0.773339 -3.92249 0
M  V30 5790 H 515.385 0.217592 -4.23441 0
M  V30 5791 C 513.844 1.2225 -3.13937 0
M  V30 5792 O 514.374 2.3122 -3.28482 0
M  V30 5793 N 512.58 1.11917 -2.68185 0
M  V30 5794 H 512.127 0.232403 -2.5655 0
M  V30 5795 H 512.085 1.95814 -2.45976 0
M  V30 5796 N 515.857 1.33968 -0.830081 0
M  V30 5797 C 516.82 2.27694 -0.26235 0
M  V30 5798 C 517.82 1.50589 0.563876 0
M  V30 5799 O 519.01 1.70028 0.378941 0
M  V30 5800 C 516.142 3.35002 0.63138 0
M  V30 5801 H 517.335 2.79419 -1.08928 0
M  V30 5802 H 514.888 1.44221 -0.602486 0
M  V30 5803 H 515.623 2.88504 1.48109 0
M  V30 5804 H 515.408 3.92079 0.0403276 0
M  V30 5805 H 516.898 4.04897 1.02217 0
M  V30 5806 N 517.335 0.585699 1.46312 0
M  V30 5807 C 518.265 -0.133556 2.33118 0
M  V30 5808 C 519.246 -0.880707 1.45525 0
M  V30 5809 O 520.431 -0.855579 1.74337 0
M  V30 5810 C 517.561 -1.14585 3.27853 0
M  V30 5811 C 516.515 -0.513341 4.2491 0
M  V30 5812 C 515.841 -1.63231 5.09175 0
M  V30 5813 C 517.141 0.551413 5.19381 0
M  V30 5814 H 518.835 0.59121 2.93505 0
M  V30 5815 H 516.381 0.285761 1.41136 0
M  V30 5816 H 518.334 -1.65741 3.87438 0
M  V30 5817 H 517.058 -1.90093 2.65579 0
M  V30 5818 H 515.717 -0.0228349 3.66593 0
M  V30 5819 H 515.365 -2.37713 4.43285 0
M  V30 5820 H 515.065 -1.21473 5.74907 0
M  V30 5821 H 516.589 -2.14658 5.71624 0
M  V30 5822 H 518.003 0.124804 5.73164 0
M  V30 5823 H 516.4 0.889486 5.93471 0
M  V30 5824 H 517.47 1.43655 4.63132 0
M  V30 5825 N 518.813 -1.54241 0.323641 0
M  V30 5826 C 519.776 -2.22997 -0.529602 0
M  V30 5827 C 520.776 -1.22345 -1.04347 0
M  V30 5828 O 521.966 -1.46924 -0.935889 0
M  V30 5829 C 519.098 -2.93409 -1.73562 0
M  V30 5830 H 520.291 -2.99815 0.0714518 0
M  V30 5831 H 517.844 -1.56121 0.0747258 0
M  V30 5832 H 518.579 -2.20729 -2.37591 0
M  V30 5833 H 518.364 -3.67217 -1.37456 0
M  V30 5834 H 519.854 -3.45794 -2.34128 0
M  V30 5835 N 520.291 -0.0518155 -1.57515 0
M  V30 5836 C 521.238 0.922352 -2.11569 0
M  V30 5837 C 522.208 1.30842 -1.02321 0
M  V30 5838 O 523.393 1.39778 -1.29872 0
M  V30 5839 C 520.533 2.19167 -2.6657 0
M  V30 5840 C 519.646 1.86003 -3.89906 0
M  V30 5841 C 518.781 3.07398 -4.33221 0
M  V30 5842 C 517.82 2.70158 -5.49255 0
M  V30 5843 N 516.957 3.84248 -5.8762 0
M  V30 5844 H 521.797 0.454506 -2.94514 0
M  V30 5845 H 519.334 0.212718 -1.45554 0
M  V30 5846 H 521.292 2.93443 -2.96559 0
M  V30 5847 H 519.922 2.63528 -1.86421 0
M  V30 5848 H 518.974 1.01874 -3.66505 0
M  V30 5849 H 520.286 1.54592 -4.74239 0
M  V30 5850 H 519.44 3.89972 -4.64765 0
M  V30 5851 H 518.179 3.41988 -3.477 0
M  V30 5852 H 517.184 1.86001 -5.17382 0
M  V30 5853 H 518.409 2.36759 -6.36492 0
M  V30 5854 H 516.355 4.18638 -5.05053 0
M  V30 5855 H 516.272 3.56538 -6.66646 0
M  V30 5856 H 517.54 4.6746 -6.2378 0
M  V30 5857 N 521.769 1.56035 0.221574 0
M  V30 5858 C 523.015 1.80221 0.942973 0
M  V30 5859 C 523.37 0.624799 1.81973 0
M  V30 5860 O 522.663 -0.381145 1.87771 0
M  V30 5861 C 522.857 3.07813 1.8162 0
M  V30 5862 C 522.686 4.37852 1.02548 0
M  V30 5863 C 521.456 5.00138 0.720418 0
M  V30 5864 C 523.654 5.12813 0.390799 0
M  V30 5865 N 521.636 6.13831 -0.0917139 0
M  V30 5866 C 523.007 6.19346 -0.284728 0
M  V30 5867 C 525.062 4.96972 0.303828 0
M  V30 5868 C 523.765 7.11758 -1.03891 0
M  V30 5869 C 525.791 5.89784 -0.436883 0
M  V30 5870 C 525.153 6.95743 -1.10095 0
M  V30 5871 H 521.252 0.711117 0.325325 0
M  V30 5872 H 523.836 1.93522 0.213854 0
M  V30 5873 H 522.007 2.95795 2.51714 0
M  V30 5874 H 523.739 3.20191 2.47508 0
M  V30 5875 H 520.494 4.62075 1.03843 0
M  V30 5876 H 520.918 6.75249 -0.486615 0
M  V30 5877 H 525.56 4.15107 0.802896 0
M  V30 5878 H 523.278 7.93105 -1.54949 0
M  V30 5879 H 526.864 5.79603 -0.505181 0
M  V30 5880 H 525.744 7.66322 -1.66495 0
M  V30 5881 N 523.247 -0.488276 1.49845 0
M  V30 5882 C 524.477 -1.26344 1.63465 0
M  V30 5883 C 524.885 -1.86637 0.310379 0
M  V30 5884 O 524.228 -1.69184 -0.715712 0
M  V30 5885 C 524.29 -2.42407 2.65479 0
M  V30 5886 C 523.954 -2.02886 4.09495 0
M  V30 5887 C 524.951 -1.56124 4.95904 0
M  V30 5888 C 522.636 -2.12131 4.55308 0
M  V30 5889 C 524.63 -1.19129 6.26169 0
M  V30 5890 C 522.317 -1.74747 5.85582 0
M  V30 5891 C 523.315 -1.28322 6.70837 0
M  V30 5892 O 523.003 -0.914491 7.98682 0
M  V30 5893 H 522.735 -0.388921 0.552916 0
M  V30 5894 H 525.289 -0.591288 1.96705 0
M  V30 5895 H 523.519 -3.12739 2.27445 0
M  V30 5896 H 525.208 -3.04409 2.68495 0
M  V30 5897 H 525.974 -1.48417 4.61733 0
M  V30 5898 H 521.853 -2.47217 3.89107 0
M  V30 5899 H 525.397 -0.828211 6.92666 0
M  V30 5900 H 521.294 -1.82109 6.19279 0
M  V30 5901 H 522.062 -1.04485 8.11804 0
M  V30 5902 N 524.725 -1.39134 -0.740242 0
M  V30 5903 C 525.971 -1.36273 -1.50192 0
M  V30 5904 C 526.304 0.0430136 -1.94152 0
M  V30 5905 O 525.579 1.00691 -1.66408 0
M  V30 5906 C 525.862 -2.33041 -2.74525 0
M  V30 5907 C 525.715 -3.82535 -2.36617 0
M  V30 5908 C 527.034 -2.27723 -3.76604 0
M  V30 5909 H 524.153 -0.496323 -0.544823 0
M  V30 5910 H 526.795 -1.70085 -0.846815 0
M  V30 5911 H 524.945 -2.04337 -3.30422 0
M  V30 5912 H 526.617 -4.21967 -1.86391 0
M  V30 5913 H 524.86 -3.99565 -1.68909 0
M  V30 5914 H 525.531 -4.45723 -3.2563 0
M  V30 5915 H 528.007 -2.53091 -3.30279 0
M  V30 5916 H 526.883 -2.97519 -4.61274 0
M  V30 5917 H 527.144 -1.28049 -4.2315 0
M  V30 5918 N 526.204 0.969867 -1.24223 0
M  V30 5919 C 527.152 2.08535 -1.03034 0
M  V30 5920 C 528.146 1.69366 0.0340379 0
M  V30 5921 O 529.352 1.79597 -0.12034 0
M  V30 5922 H 525.727 0.682313 -0.316154 0
M  V30 5923 H 527.698 2.23569 -1.97635 0
M  V30 5924 C 526.447 3.4158 -0.649509 0
M  V30 5925 H 525.77 3.72177 -1.46028 0
M  V30 5926 H 527.21 4.20536 -0.540841 0
M  V30 5927 C 525.669 3.30703 0.643194 0
M  V30 5928 O 526.199 3.64443 1.68951 0
M  V30 5929 N 524.405 2.83841 0.623095 0
M  V30 5930 H 523.952 2.56583 -0.228719 0
M  V30 5931 H 523.91 2.76946 1.48823 0
M  V30 5932 N 527.682 1.05563 1.17022 0
M  V30 5933 C 528.645 0.664098 2.19368 0
M  V30 5934 C 529.645 -0.286358 1.5823 0
M  V30 5935 O 530.835 -0.069728 1.7406 0
M  V30 5936 C 527.967 -0.0239932 3.40892 0
M  V30 5937 H 529.16 1.57 2.55521 0
M  V30 5938 H 526.713 0.849964 1.31169 0
M  V30 5939 H 527.448 -0.942988 3.10287 0
M  V30 5940 H 527.233 0.659351 3.86516 0
M  V30 5941 H 528.723 -0.283909 4.16634 0
M  V30 5942 N 529.16 -1.33526 0.837174 0
M  V30 5943 C 530.107 -2.29248 0.267169 0
M  V30 5944 C 531.077 -1.54252 -0.616071 0
M  V30 5945 O 532.262 -1.82559 -0.554699 0
M  V30 5946 C 529.402 -3.40638 -0.553152 0
M  V30 5947 C 528.515 -4.30548 0.353921 0
M  V30 5948 C 527.65 -5.29051 -0.477339 0
M  V30 5949 C 526.689 -6.106 0.42823 0
M  V30 5950 N 525.826 -7.01152 -0.364801 0
M  V30 5951 H 530.666 -2.77398 1.08877 0
M  V30 5952 H 528.203 -1.36496 0.54838 0
M  V30 5953 H 530.161 -4.03921 -1.04422 0
M  V30 5954 H 528.791 -2.93685 -1.33973 0
M  V30 5955 H 527.843 -3.68001 0.963289 0
M  V30 5956 H 529.155 -4.87631 1.04964 0
M  V30 5957 H 528.309 -5.97853 -1.0323 0
M  V30 5958 H 527.048 -4.72541 -1.2065 0
M  V30 5959 H 526.053 -5.40718 0.995219 0
M  V30 5960 H 527.278 -6.69193 1.15573 0
M  V30 5961 H 525.224 -6.47092 -1.07738 0
M  V30 5962 H 525.141 -7.5551 0.272238 0
M  V30 5963 H 526.409 -7.74263 -0.902054 0
M  V30 5964 N 530.638 -0.59345 -1.46 0
M  V30 5965 C 531.886 -0.082988 -2.0193 0
M  V30 5966 C 532.207 1.28569 -1.46612 0
M  V30 5967 O 531.477 1.84629 -0.654909 0
M  V30 5968 H 530.057 -0.0276882 -0.746487 0
M  V30 5969 H 532.719 -0.771657 -1.78973 0
M  V30 5970 H 531.815 -0.022079 -3.12092 0
M  V30 5971 N 532.116 1.54067 -0.331816 0
M  V30 5972 C 533.346 2.04833 0.269605 0
M  V30 5973 C 533.754 1.20714 1.45687 0
M  V30 5974 O 533.097 0.232539 1.82222 0
M  V30 5975 C 533.159 3.51386 0.759499 0
M  V30 5976 C 532.823 4.55971 -0.306557 0
M  V30 5977 C 533.82 5.07126 -1.14538 0
M  V30 5978 C 531.505 5.00216 -0.457116 0
M  V30 5979 C 533.499 6.01096 -2.12042 0
M  V30 5980 C 531.186 5.93999 -1.43556 0
M  V30 5981 C 532.184 6.44326 -2.26568 0
M  V30 5982 O 531.872 7.36267 -3.22749 0
M  V30 5983 H 531.604 0.673509 0.0579763 0
M  V30 5984 H 534.158 1.99748 -0.478521 0
M  V30 5985 H 532.388 3.53896 1.55867 0
M  V30 5986 H 534.077 3.85184 1.28017 0
M  V30 5987 H 534.843 4.73716 -1.04009 0
M  V30 5988 H 530.722 4.60652 0.179142 0
M  V30 5989 H 534.266 6.40302 -2.76873 0
M  V30 5990 H 530.163 6.26825 -1.54146 0
M  V30 5991 H 530.931 7.54165 -3.18083 0
M  V30 5992 N 533.594 0.0601682 1.57485 0
M  V30 5993 C 534.841 -0.611594 1.93043 0
M  V30 5994 C 535.169 -1.70317 0.939274 0
M  V30 5995 O 534.424 -1.95644 -0.046996 0
M  V30 5996 C 534.723 -1.23831 3.35262 0
M  V30 5997 C 534.389 -0.274037 4.50066 0
M  V30 5998 C 533.051 -0.00872394 4.81199 0
M  V30 5999 C 535.403 0.386308 5.19766 0
M  V30 6000 C 532.731 0.924218 5.79375 0
M  V30 6001 C 535.083 1.3075 6.1894 0
M  V30 6002 C 533.747 1.58139 6.48497 0
M  V30 6003 H 533.017 -0.223798 0.706396 0
M  V30 6004 H 535.664 0.128566 1.91068 0
M  V30 6005 H 533.969 -2.05394 3.33647 0
M  V30 6006 H 535.666 -1.76517 3.60059 0
M  V30 6007 H 532.256 -0.491008 4.25778 0
M  V30 6008 H 536.44 0.194436 4.95919 0
M  V30 6009 H 531.696 1.1438 6.00606 0
M  V30 6010 H 535.87 1.82519 6.72056 0
M  V30 6011 H 533.497 2.30593 7.24383 0
M  V30 6012 N 535.072 -1.5615 -0.213296 0
M  V30 6013 C 535.982 -1.96265 -1.28519 0
M  V30 6014 C 536.998 -0.86765 -1.50824 0
M  V30 6015 O 538.174 -1.17191 -1.63793 0
M  V30 6016 C 535.239 -2.27836 -2.61327 0
M  V30 6017 C 534.3 -3.50949 -2.47252 0
M  V30 6018 C 533.533 -3.81004 -3.73727 0
M  V30 6019 O 533.756 -3.12612 -4.77106 0
M  V30 6020 O 532.69 -4.74477 -3.70344 0
M  V30 6021 H 536.516 -2.87631 -0.974795 0
M  V30 6022 H 534.101 -1.43467 -0.416832 0
M  V30 6023 H 535.983 -2.49299 -3.39747 0
M  V30 6024 H 534.658 -1.39643 -2.9203 0
M  V30 6025 H 533.565 -3.34754 -1.67004 0
M  V30 6026 H 534.898 -4.39551 -2.21486 0
M  V30 6027 N 536.55 0.480323 -1.50102 0
M  V30 6028 C 537.827 1.24159 -1.51142 0
M  V30 6029 C 538.207 2.09605 -0.250818 0
M  V30 6030 O 537.555 2.15274 0.766118 0
M  V30 6031 C 537.765 2.08057 -2.80202 0
M  V30 6032 C 539.113 2.66556 -3.30504 0
M  V30 6033 O 540.137 2.18308 -2.81461 0
M  V30 6034 O 538.996 3.54442 -4.15973 0
M  V30 6035 H 536.09 0.562928 -0.605839 0
M  V30 6036 H 538.636 0.492899 -1.62384 0
M  V30 6037 H 537.408 1.45032 -3.6343 0
M  V30 6038 H 537.031 2.90079 -2.71919 0
M  V30 6039 N 538.028 1.39524 0.732853 0
M  V30 6040 C 539.274 1.37068 1.49467 0
M  V30 6041 C 539.607 -0.0327166 1.94172 0
M  V30 6042 O 538.882 -0.998071 1.66939 0
M  V30 6043 C 539.165 2.34494 2.73285 0
M  V30 6044 C 539.018 3.83784 2.34585 0
M  V30 6045 C 540.337 2.29717 3.75391 0
M  V30 6046 H 537.456 0.499206 0.542183 0
M  V30 6047 H 540.098 1.70532 0.837783 0
M  V30 6048 H 538.248 2.06087 3.29333 0
M  V30 6049 H 539.92 4.22949 1.84151 0
M  V30 6050 H 538.163 4.00455 1.66787 0
M  V30 6051 H 538.834 4.47444 3.23262 0
M  V30 6052 H 541.31 2.54839 3.28932 0
M  V30 6053 H 540.186 2.99962 4.59689 0
M  V30 6054 H 540.447 1.30291 4.22465 0
M  V30 6055 N 539.506 -0.963266 1.24736 0
M  V30 6056 C 540.469 -2.04013 1.04457 0
M  V30 6057 C 541.469 -1.608 0.000335555 0
M  V30 6058 O 542.659 -1.72515 0.241719 0
M  V30 6059 C 539.791 -3.35858 0.584162 0
M  V30 6060 H 540.984 -2.23436 2.00041 0
M  V30 6061 H 538.537 -1.13914 1.07021 0
M  V30 6062 H 539.272 -3.22128 -0.374673 0
M  V30 6063 H 539.057 -3.68568 1.3379 0
M  V30 6064 H 540.547 -4.1502 0.463451 0
M  V30 6065 N 540.985 -1.06182 -1.16461 0
M  V30 6066 C 541.933 -0.665716 -2.2287 0
M  V30 6067 C 542.927 0.317822 -1.66392 0
M  V30 6068 O 544.133 0.182807 -1.79069 0
M  V30 6069 H 540.508 -0.197148 -0.725697 0
M  V30 6070 H 542.479 -1.57307 -2.53569 0
M  V30 6071 C 541.228 -0.0669803 -3.47635 0
M  V30 6072 H 540.551 -0.814899 -3.91407 0
M  V30 6073 H 541.991 0.172669 -4.23648 0
M  V30 6074 C 540.45 1.18913 -3.15216 0
M  V30 6075 O 540.98 2.27723 -3.30916 0
M  V30 6076 N 539.186 1.09066 -2.69357 0
M  V30 6077 H 538.733 0.20518 -2.56782 0
M  V30 6078 H 538.691 1.93195 -2.48039 0
M  V30 6079 N 542.463 1.3308 -0.844243 0
M  V30 6080 C 543.426 2.27403 -0.286485 0
M  V30 6081 C 544.426 1.51179 0.547872 0
M  V30 6082 O 545.616 1.70421 0.360886 0
M  V30 6083 C 542.748 3.35653 0.595813 0
M  V30 6084 H 543.941 2.78248 -1.11885 0
M  V30 6085 H 541.494 1.43574 -0.617749 0
M  V30 6086 H 542.229 2.90058 1.4504 0
M  V30 6087 H 542.014 3.921 -0.00125994 0
M  V30 6088 H 543.504 4.05958 0.979168 0
M  V30 6089 N 543.941 0.601185 1.45683 0
M  V30 6090 C 544.874 -0.17013 2.27565 0
M  V30 6091 C 545.852 -0.879661 1.36751 0
M  V30 6092 O 547.036 -0.889827 1.66176 0
M  V30 6093 C 544.163 -1.24568 3.14961 0
M  V30 6094 C 543.209 -0.639978 4.21671 0
M  V30 6095 S 544.042 0.547275 5.32696 0
M  V30 6096 C 545.198 -0.529019 6.2366 0
M  V30 6097 H 545.431 0.524583 2.92635 0
M  V30 6098 H 542.964 0.388537 1.49431 0
M  V30 6099 H 544.922 -1.86138 3.65873 0
M  V30 6100 H 543.583 -1.91243 2.49169 0
M  V30 6101 H 542.776 -1.44903 4.8272 0
M  V30 6102 H 542.378 -0.0995558 3.73867 0
M  V30 6103 H 544.67 -1.40981 6.62669 0
M  V30 6104 H 545.613 0.0451599 7.08086 0
M  V30 6105 H 546.021 -0.84147 5.58193 0
M  V30 6106 N 545.419 -1.53889 0.339982 0
M  V30 6107 C 546.329 -2.28604 -0.526988 0
M  V30 6108 C 547.345 -1.33578 -1.11503 0
M  V30 6109 O 548.521 -1.66612 -1.13148 0
M  V30 6110 C 545.586 -3.04164 -1.66389 0
M  V30 6111 C 544.647 -4.14809 -1.10599 0
M  V30 6112 C 543.88 -4.86756 -2.18871 0
M  V30 6113 O 544.103 -4.58343 -3.39526 0
M  V30 6114 O 543.037 -5.73289 -1.83366 0
M  V30 6115 H 546.863 -3.03594 0.0802707 0
M  V30 6116 H 544.448 -1.4903 0.105141 0
M  V30 6117 H 546.33 -3.51427 -2.32544 0
M  V30 6118 H 545.005 -2.32035 -2.25703 0
M  V30 6119 H 543.912 -3.71857 -0.409067 0
M  V30 6120 H 545.245 -4.89029 -0.557771 0
M  V30 6121 N 546.897 -0.0685191 -1.57451 0
M  V30 6122 C 547.807 0.914677 -2.16034 0
M  V30 6123 C 548.823 1.32938 -1.12265 0
M  V30 6124 O 549.999 1.40275 -1.44516 0
M  V30 6125 C 547.064 2.16519 -2.70777 0
M  V30 6126 C 546.125 1.80721 -3.89408 0
M  V30 6127 C 545.358 2.9981 -4.41531 0
M  V30 6128 O 545.581 4.13727 -3.92666 0
M  V30 6129 O 544.515 2.79817 -5.32903 0
M  V30 6130 H 548.341 0.446364 -3.00402 0
M  V30 6131 H 545.926 0.154367 -1.486 0
M  V30 6132 H 547.808 2.89856 -3.05878 0
M  V30 6133 H 546.483 2.62454 -1.89471 0
M  V30 6134 H 545.39 1.04646 -3.59166 0
M  V30 6135 H 546.723 1.39571 -4.71997 0
M  V30 6136 N 548.375 1.56261 0.205012 0
M  V30 6137 C 549.338 1.92908 1.23771 0
M  V30 6138 C 550.338 0.809208 1.38955 0
M  V30 6139 O 551.528 1.07676 1.36936 0
M  V30 6140 C 548.66 2.19442 2.60879 0
M  V30 6141 H 549.853 2.85287 0.924728 0
M  V30 6142 H 547.406 1.49798 0.446125 0
M  V30 6143 H 548.141 1.29668 2.97248 0
M  V30 6144 H 547.926 3.0104 2.51232 0
M  V30 6145 H 549.416 2.48833 3.35368 0
M  V30 6146 N 549.853 -0.472356 1.50355 0
M  V30 6147 C 550.801 -1.59126 1.69651 0
M  V30 6148 C 551.795 -1.59793 0.56237 0
M  V30 6149 O 553.001 -1.63957 0.742832 0
M  V30 6150 H 549.376 -0.528008 0.535454 0
M  V30 6151 H 551.347 -1.40013 2.63513 0
M  V30 6152 C 550.096 -2.97075 1.8067 0
M  V30 6153 H 549.419 -2.9728 2.67329 0
M  V30 6154 H 550.859 -3.74825 1.98197 0
M  V30 6155 C 549.318 -3.32247 0.558016 0
M  V30 6156 O 549.848 -4.00553 -0.303399 0
M  V30 6157 N 548.054 -2.87659 0.412415 0
M  V30 6158 H 547.601 -2.32246 1.11443 0
M  V30 6159 H 547.559 -3.11556 -0.421908 0
M  V30 6160 N 551.331 -1.39911 -0.725443 0
M  V30 6161 C 552.241 -1.41688 -1.8698 0
M  V30 6162 C 553.257 -0.310579 -1.71206 0
M  V30 6163 O 554.433 -0.55359 -1.93642 0
M  V30 6164 C 551.498 -1.26811 -3.22676 0
M  V30 6165 C 550.559 -2.47497 -3.50776 0
M  V30 6166 C 549.792 -2.3332 -4.79997 0
M  V30 6167 O 550.015 -1.34175 -5.54394 0
M  V30 6168 O 548.949 -3.22498 -5.08211 0
M  V30 6169 H 552.775 -2.38171 -1.88436 0
M  V30 6170 H 550.36 -1.21128 -0.874548 0
M  V30 6171 H 552.242 -1.20684 -4.03749 0
M  V30 6172 H 550.917 -0.334289 -3.21969 0
M  V30 6173 H 549.824 -2.59201 -2.69751 0
M  V30 6174 H 551.157 -3.39606 -3.5627 0
M  V30 6175 N 552.809 0.956637 -1.25245 0
M  V30 6176 C 553.719 2.0868 -1.0719 0
M  V30 6177 C 554.735 1.73997 -0.00959074 0
M  V30 6178 O 555.911 2.00301 -0.210104 0
M  V30 6179 C 552.976 3.39754 -0.690526 0
M  V30 6180 C 552.037 3.88316 -1.83055 0
M  V30 6181 C 551.27 5.13134 -1.46728 0
M  V30 6182 O 551.493 5.6925 -0.362029 0
M  V30 6183 O 550.427 5.56356 -2.29677 0
M  V30 6184 H 554.253 2.26813 -2.01965 0
M  V30 6185 H 551.838 1.07098 -1.04165 0
M  V30 6186 H 553.72 4.18543 -0.489871 0
M  V30 6187 H 552.395 3.22896 0.227981 0
M  V30 6188 H 551.302 3.1054 -2.08604 0
M  V30 6189 H 552.635 4.09669 -2.72822 0
M  V30 6190 N 554.287 1.06798 1.15896 0
M  V30 6191 C 555.536 0.782796 1.8589 0
M  V30 6192 C 555.849 -0.693498 1.82893 0
M  V30 6193 O 557.055 -1.09325 2.48516 0
M  V30 6194 C 555.511 1.3502 3.33613 0
M  V30 6195 C 555.119 2.8571 3.45071 0
M  V30 6196 C 556.863 1.14278 4.08829 0
M  V30 6197 C 554.77 3.35669 4.86909 0
M  V30 6198 H 553.7 0.289149 0.696354 0
M  V30 6199 H 556.351 1.28734 1.30766 0
M  V30 6200 H 554.733 0.773407 3.88374 0
M  V30 6201 H 555.907 3.49385 3.00445 0
M  V30 6202 H 554.222 3.05178 2.83294 0
M  V30 6203 H 556.819 1.49087 5.13495 0
M  V30 6204 H 557.162 0.0814575 4.1622 0
M  V30 6205 H 557.695 1.68563 3.60321 0
M  V30 6206 H 554.434 4.41302 4.84698 0
M  V30 6207 H 553.954 2.76745 5.32139 0
M  V30 6208 H 555.633 3.31296 5.55745 0
M  V30 6209 N 555.766 -1.3263 0.851289 0
M  V30 6210 C 557.013 -1.97368 0.453023 0
M  V30 6211 C 557.341 -1.67384 -0.990596 0
M  V30 6212 O 556.596 -0.952665 -1.70947 0
M  V30 6213 C 556.895 -3.51713 0.635015 0
M  V30 6214 C 556.561 -4.01676 2.04859 0
M  V30 6215 C 555.223 -4.15031 2.43522 0
M  V30 6216 C 557.575 -4.28206 2.97135 0
M  V30 6217 C 554.903 -4.52257 3.73739 0
M  V30 6218 C 557.255 -4.66889 4.26846 0
M  V30 6219 C 555.919 -4.7845 4.65448 0
M  V30 6220 H 555.189 -0.722219 0.165773 0
M  V30 6221 H 557.836 -1.58092 1.0807 0
M  V30 6222 H 556.141 -3.91726 -0.0759081 0
M  V30 6223 H 557.838 -3.99823 0.306964 0
M  V30 6224 H 554.428 -3.91764 1.73836 0
M  V30 6225 H 558.612 -4.174 2.68498 0
M  V30 6226 H 553.868 -4.59402 4.03435 0
M  V30 6227 H 558.042 -4.86372 4.98413 0
M  V30 6228 H 555.669 -5.07052 5.66395 0
M  V30 6229 N 557.244 -0.608902 -1.45362 0
M  V30 6230 C 558.493 -0.10218 -2.01441 0
M  V30 6231 C 558.806 1.27546 -1.48295 0
M  V30 6232 O 560.012 1.87498 -1.96359 0
M  V30 6233 C 558.468 -0.131985 -3.59658 0
M  V30 6234 C 558.076 -1.50956 -4.21801 0
M  V30 6235 C 559.82 0.319427 -4.23296 0
M  V30 6236 C 557.727 -1.49568 -5.72174 0
M  V30 6237 H 556.657 -0.0344314 -0.753213 0
M  V30 6238 H 559.308 -0.764426 -1.6682 0
M  V30 6239 H 557.69 0.596939 -3.91475 0
M  V30 6240 H 558.864 -2.26029 -4.01556 0
M  V30 6241 H 557.179 -1.90318 -3.70362 0
M  V30 6242 H 559.776 0.349013 -5.3356 0
M  V30 6243 H 560.119 1.34237 -3.94064 0
M  V30 6244 H 560.652 -0.356273 -3.96201 0
M  V30 6245 H 557.391 -2.49626 -6.06108 0
M  V30 6246 H 556.911 -0.787542 -5.94607 0
M  V30 6247 H 558.59 -1.21989 -6.35396 0
M  V30 6248 N 558.722 1.53707 -0.348139 0
M  V30 6249 C 559.95 2.05406 0.248224 0
M  V30 6250 C 560.365 1.22282 1.43849 0
M  V30 6251 O 559.722 0.259244 1.80649 0
M  V30 6252 C 559.773 3.55446 0.658793 0
M  V30 6253 O 559.494 4.35417 -0.484149 0
M  V30 6254 C 560.995 4.23335 1.31539 0
M  V30 6255 H 558.215 0.669344 0.0471075 0
M  V30 6256 H 560.759 1.98257 -0.501456 0
M  V30 6257 H 558.914 3.62803 1.35841 0
M  V30 6258 H 559.328 5.24268 -0.155949 0
M  V30 6259 H 560.802 5.29692 1.55338 0
M  V30 6260 H 561.279 3.75967 2.27036 0
M  V30 6261 H 561.885 4.20184 0.657683 0
M  V30 6262 N 560.2 0.0768682 1.57412 0
M  V30 6263 C 561.477 -0.632359 1.85096 0
M  V30 6264 C 561.857 -1.87479 0.9703 0
M  V30 6265 O 561.205 -2.28469 0.0379062 0
M  V30 6266 C 561.415 -0.965174 3.35388 0
M  V30 6267 C 562.763 -1.33648 4.03018 0
M  V30 6268 O 563.787 -1.05675 3.40164 0
M  V30 6269 O 562.646 -1.85959 5.13889 0
M  V30 6270 H 559.74 -0.314574 0.764835 0
M  V30 6271 H 562.286 0.108184 1.69355 0
M  V30 6272 H 561.058 -0.0829745 3.91212 0
M  V30 6273 H 560.681 -1.76231 3.5641 0
M  V30 6274 N 561.678 -1.56367 -0.196722 0
M  V30 6275 C 562.924 -1.81698 -0.914182 0
M  V30 6276 C 563.279 -0.65367 -1.80956 0
M  V30 6277 O 562.572 0.351224 -1.88353 0
M  V30 6278 C 562.766 -3.10663 -1.767 0
M  V30 6279 C 562.595 -4.39428 -0.955689 0
M  V30 6280 C 561.365 -5.01221 -0.64076 0
M  V30 6281 C 563.563 -5.1337 -0.309165 0
M  V30 6282 N 561.545 -6.13608 0.189358 0
M  V30 6283 C 562.916 -6.18815 0.383225 0
M  V30 6284 C 564.971 -4.97393 -0.224726 0
M  V30 6285 C 563.674 -7.10015 1.15201 0
M  V30 6286 C 565.7 -5.89014 0.530658 0
M  V30 6287 C 565.062 -6.93903 1.2115 0
M  V30 6288 H 561.161 -0.716203 -0.31397 0
M  V30 6289 H 563.745 -1.93838 -0.18304 0
M  V30 6290 H 561.916 -2.99762 -2.46976 0
M  V30 6291 H 563.648 -3.24088 -2.42382 0
M  V30 6292 H 560.403 -4.63669 -0.96479 0
M  V30 6293 H 560.827 -6.74389 0.593979 0
M  V30 6294 H 565.469 -4.16331 -0.736754 0
M  V30 6295 H 563.187 -7.9054 1.67547 0
M  V30 6296 H 566.773 -5.78726 0.597326 0
M  V30 6297 H 565.653 -7.63576 1.78665 0
M  V30 6298 N 563.156 0.464375 -1.50603 0
M  V30 6299 C 564.402 1.21485 -1.63135 0
M  V30 6300 C 564.757 1.89538 -0.33063 0
M  V30 6301 O 564.05 1.79432 0.671903 0
M  V30 6302 C 564.244 2.278 -2.75394 0
M  V30 6303 C 564.073 1.70178 -4.16257 0
M  V30 6304 C 562.843 1.49854 -4.82568 0
M  V30 6305 C 565.041 1.19298 -5.00272 0
M  V30 6306 N 563.023 0.875458 -6.07626 0
M  V30 6307 C 564.394 0.693527 -6.16109 0
M  V30 6308 C 566.449 1.08216 -4.85998 0
M  V30 6309 C 565.152 0.0941808 -7.19238 0
M  V30 6310 C 567.178 0.496745 -5.8931 0
M  V30 6311 C 566.54 0.00770448 -7.044 0
M  V30 6312 H 562.639 0.433184 -0.651057 0
M  V30 6313 H 565.223 0.515748 -1.87745 0
M  V30 6314 H 563.394 2.95129 -2.52495 0
M  V30 6315 H 565.126 2.94814 -2.77249 0
M  V30 6316 H 561.881 1.75269 -4.39975 0
M  V30 6317 H 562.305 0.582135 -6.74493 0
M  V30 6318 H 566.947 1.44617 -3.97298 0
M  V30 6319 H 564.665 -0.28202 -8.07608 0
M  V30 6320 H 568.251 0.413275 -5.8033 0
M  V30 6321 H 567.131 -0.438188 -7.82975 0
M  V30 6322 N 564.634 1.40294 0.718013 0
M  V30 6323 C 565.564 1.43118 1.84498 0
M  V30 6324 C 566.545 0.292403 1.67568 0
M  V30 6325 O 567.73 0.500675 1.87635 0
M  V30 6326 C 564.86 1.29065 3.22427 0
M  V30 6327 C 563.814 2.40521 3.54025 0
M  V30 6328 C 563.14 2.11546 4.91073 0
M  V30 6329 C 564.44 3.82859 3.55269 0
M  V30 6330 H 566.134 2.37432 1.82391 0
M  V30 6331 H 563.68 1.14283 0.87609 0
M  V30 6332 H 565.633 1.29658 4.00957 0
M  V30 6333 H 564.357 0.312271 3.25104 0
M  V30 6334 H 563.016 2.39173 2.77834 0
M  V30 6335 H 562.664 1.12104 4.90348 0
M  V30 6336 H 562.364 2.86216 5.1318 0
M  V30 6337 H 563.888 2.13817 5.71939 0
M  V30 6338 H 565.302 3.86044 4.23843 0
M  V30 6339 H 563.699 4.57029 3.88902 0
M  V30 6340 H 564.769 4.12617 2.54706 0
M  V30 6341 N 566.112 -0.949982 1.2575 0
M  V30 6342 C 567.337 -1.73503 1.13628 0
M  V30 6343 C 567.762 -1.85601 -0.30559 0
M  V30 6344 O 567.12 -1.33984 -1.22139 0
M  V30 6345 C 567.168 -3.1243 1.80055 0
M  V30 6346 O 566.272 -3.97916 1.08336 0
M  V30 6347 H 565.613 -0.532665 0.396439 0
M  V30 6348 H 568.143 -1.19043 1.66403 0
M  V30 6349 H 568.153 -3.62866 1.86527 0
M  V30 6350 H 566.828 -3.02941 2.84956 0
M  V30 6351 H 565.405 -3.56375 1.09777 0
M  V30 6352 N 567.59 -1.07411 -1.15328 0
M  V30 6353 C 569.001 -0.820261 -1.67716 0
M  V30 6354 C 569.352 0.654539 -1.8496 0
M  V30 6355 O 568.477 1.50664 -1.55337 0
M  V30 6356 C 569.072 -1.48242 -3.04647 0
M  V30 6357 C 567.631 -1.27606 -3.5411 0
M  V30 6358 C 566.778 -1.5517 -2.29821 0
M  V30 6359 H 569.729 -1.23608 -0.995332 0
M  V30 6360 H 569.75 -0.903984 -3.69606 0
M  V30 6361 H 569.262 -2.55578 -2.92064 0
M  V30 6362 H 567.363 -0.222948 -3.71932 0
M  V30 6363 H 567.476 -1.99667 -4.35511 0
M  V30 6364 H 565.84 -0.972747 -2.35393 0
M  V30 6365 H 566.623 -2.63689 -2.19824 0
M  V30 6366 N 569.068 1.32177 -0.85831 0
M  V30 6367 C 569.978 2.32561 -0.308606 0
M  V30 6368 C 570.994 1.64209 0.575462 0
M  V30 6369 O 572.17 1.95719 0.474961 0
M  V30 6370 C 569.235 3.43207 0.490909 0
M  V30 6371 C 568.296 4.27243 -0.419733 0
M  V30 6372 C 567.529 5.32605 0.341719 0
M  V30 6373 O 567.752 5.48332 1.57125 0
M  V30 6374 O 566.686 6.0118 -0.294379 0
M  V30 6375 H 570.512 2.81477 -1.14037 0
M  V30 6376 H 568.097 1.35866 -0.621349 0
M  V30 6377 H 569.979 4.10677 0.944574 0
M  V30 6378 H 568.654 2.96474 1.29941 0
M  V30 6379 H 567.561 3.62569 -0.921652 0
M  V30 6380 H 568.894 4.7751 -1.19352 0
M  V30 6381 N 570.547 0.616602 1.45037 0
M  V30 6382 C 571.796 0.112861 2.01384 0
M  V30 6383 C 572.109 -1.26758 1.48969 0
M  V30 6384 O 573.315 -1.86454 1.9735 0
M  V30 6385 C 571.771 0.151057 3.59583 0
M  V30 6386 C 571.379 1.53191 4.20995 0
M  V30 6387 C 573.123 -0.296974 4.2346 0
M  V30 6388 C 571.03 1.526 5.71373 0
M  V30 6389 H 569.96 0.0384254 0.75302 0
M  V30 6390 H 572.611 0.773262 1.66412 0
M  V30 6391 H 570.993 -0.57617 3.91786 0
M  V30 6392 H 572.167 2.28156 4.00352 0
M  V30 6393 H 570.482 1.92279 3.69348 0
M  V30 6394 H 573.079 -0.320712 5.33737 0
M  V30 6395 H 573.422 -1.32145 3.9477 0
M  V30 6396 H 573.955 0.377279 3.96007 0
M  V30 6397 H 570.694 2.52837 6.04776 0
M  V30 6398 H 570.214 0.819064 5.94181 0
M  V30 6399 H 571.893 1.25357 6.3474 0
M  V30 6400 N 572.025 -1.5352 0.356285 0
M  V30 6401 C 573.272 -2.01117 -0.236303 0
M  V30 6402 C 573.6 -1.24381 -1.49531 0
M  V30 6403 O 572.855 -0.323057 -1.93015 0
M  V30 6404 C 573.154 -3.52607 -0.583369 0
M  V30 6405 C 572.82 -4.47151 0.58023 0
M  V30 6406 C 571.482 -4.72718 0.899528 0
M  V30 6407 C 573.834 -5.03137 1.36024 0
M  V30 6408 C 571.162 -5.51523 2.00098 0
M  V30 6409 C 573.514 -5.83145 2.45204 0
M  V30 6410 C 572.178 -6.07001 2.77679 0
M  V30 6411 H 571.448 -0.735938 -0.0864695 0
M  V30 6412 H 574.095 -1.85209 0.48683 0
M  V30 6413 H 572.4 -3.66413 -1.38739 0
M  V30 6414 H 574.097 -3.86901 -1.05397 0
M  V30 6415 H 570.687 -4.27394 0.321322 0
M  V30 6416 H 574.871 -4.83339 1.12682 0
M  V30 6417 H 570.127 -5.68229 2.25668 0
M  V30 6418 H 574.301 -6.25537 3.06067 0
M  V30 6419 H 571.928 -6.67851 3.63151 0
M  V30 6420 N 573.503 -0.0852151 -1.57369 0
M  V30 6421 C 574.433 0.874556 -2.16503 0
M  V30 6422 C 575.414 1.30111 -1.09568 0
M  V30 6423 O 576.599 1.36977 -1.37662 0
M  V30 6424 C 573.729 2.13731 -2.73745 0
M  V30 6425 C 572.683 1.84971 -3.85966 0
M  V30 6426 C 572.009 3.17991 -4.29867 0
M  V30 6427 C 573.309 1.14442 -5.09608 0
M  V30 6428 H 575.003 0.381899 -2.96954 0
M  V30 6429 H 572.549 0.18225 -1.42842 0
M  V30 6430 H 574.502 2.81302 -3.13763 0
M  V30 6431 H 573.226 2.65263 -1.90534 0
M  V30 6432 H 571.885 1.19801 -3.46473 0
M  V30 6433 H 571.533 3.6739 -3.4356 0
M  V30 6434 H 571.233 2.99534 -5.05523 0
M  V30 6435 H 572.757 3.86737 -4.72511 0
M  V30 6436 H 574.171 1.72105 -5.46857 0
M  V30 6437 H 572.568 1.06197 -5.90629 0
M  V30 6438 H 573.638 0.12559 -4.84737 0
M  V30 6439 N 574.981 1.5647 0.188427 0
M  V30 6440 C 575.928 1.95073 1.23349 0
M  V30 6441 C 576.898 0.812238 1.44886 0
M  V30 6442 O 578.083 1.07095 1.57909 0
M  V30 6443 C 575.223 2.30124 2.57171 0
M  V30 6444 C 574.336 3.57069 2.43157 0
M  V30 6445 C 573.471 3.81411 3.69729 0
M  V30 6446 C 572.51 5.0176 3.50575 0
M  V30 6447 N 571.647 5.22321 4.69175 0
M  V30 6448 H 576.487 2.84171 0.89728 0
M  V30 6449 H 574.024 1.40623 0.431683 0
M  V30 6450 H 575.982 2.48463 3.35145 0
M  V30 6451 H 574.612 1.44159 2.88822 0
M  V30 6452 H 573.664 3.4674 1.56447 0
M  V30 6453 H 574.976 4.452 2.24942 0
M  V30 6454 H 574.13 4.00026 4.56141 0
M  V30 6455 H 572.869 2.91624 3.90905 0
M  V30 6456 H 571.874 4.83061 2.62549 0
M  V30 6457 H 573.099 5.93063 3.30837 0
M  V30 6458 H 571.045 4.35483 4.90602 0
M  V30 6459 H 570.962 6.04643 4.53809 0
M  V30 6460 H 572.23 5.45401 5.56919 0
M  V30 6461 N 576.459 -0.456382 1.50847 0
M  V30 6462 C 577.875 -0.791345 1.386 0
M  V30 6463 C 578.075 -1.9633 0.453498 0
M  V30 6464 O 577.131 -2.52308 -0.0984353 0
M  V30 6465 C 578.444 -1.08959 2.80265 0
M  V30 6466 C 579.992 -1.19517 2.89283 0
M  V30 6467 C 580.467 -1.52647 4.31814 0
M  V30 6468 N 581.958 -1.59609 4.34832 0
M  V30 6469 C 582.693 -1.86777 5.42127 0
M  V30 6470 N 582.189 -2.11866 6.59609 0
M  V30 6471 N 583.982 -1.88402 5.29586 0
M  V30 6472 H 576.133 0.315746 2.1004 0
M  V30 6473 H 578.396 0.0787916 0.94472 0
M  V30 6474 H 578.102 -0.301355 3.50407 0
M  V30 6475 H 577.976 -2.02211 3.18419 0
M  V30 6476 H 580.363 -1.97406 2.19351 0
M  V30 6477 H 580.444 -0.242111 2.54652 0
M  V30 6478 H 580.088 -0.752922 5.02288 0
M  V30 6479 H 580.018 -2.49127 4.63943 0
M  V30 6480 H 582.509 -1.42201 3.50125 0
M  V30 6481 H 582.822 -2.31912 7.37182 0
M  V30 6482 H 581.167 -2.09228 6.62758 0
M  V30 6483 H 584.358 -1.68307 4.36795 0
M  V30 6484 H 584.531 -2.09238 6.13289 0
M  V30 6485 N 577.937 -1.40673 -0.710563 0
M  V30 6486 C 579.348 -1.34975 -1.28991 0
M  V30 6487 C 579.699 -0.0256272 -1.96183 0
M  V30 6488 O 578.824 0.876339 -1.97862 0
M  V30 6489 C 579.419 -2.44467 -2.34567 0
M  V30 6490 C 577.978 -2.42213 -2.88114 0
M  V30 6491 C 577.125 -2.25085 -1.61963 0
M  V30 6492 H 580.076 -1.50406 -0.506343 0
M  V30 6493 H 580.097 -2.12663 -3.15523 0
M  V30 6494 H 579.609 -3.40825 -1.85634 0
M  V30 6495 H 577.71 -1.49568 -3.41263 0
M  V30 6496 H 577.823 -3.37983 -3.39565 0
M  V30 6497 H 576.187 -1.72691 -1.87216 0
M  V30 6498 H 576.97 -3.23449 -1.15047 0
M  V30 6499 N 579.415 0.9433 -1.26252 0
M  V30 6500 C 580.661 1.69175 -1.11837 0
M  V30 6501 C 580.994 1.91238 0.337891 0
M  V30 6502 O 580.269 1.49152 1.24836 0
M  V30 6503 C 580.552 3.06783 -1.88563 0
M  V30 6504 C 580.405 2.9206 -3.42083 0
M  V30 6505 C 581.724 4.06865 -1.67776 0
M  V30 6506 H 578.843 0.61399 -0.407658 0
M  V30 6507 H 581.485 1.09572 -1.55222 0
M  V30 6508 H 579.635 3.57663 -1.51689 0
M  V30 6509 H 581.307 2.48419 -3.88698 0
M  V30 6510 H 579.55 2.27731 -3.69217 0
M  V30 6511 H 580.221 3.89651 -3.90994 0
M  V30 6512 H 582.697 3.64939 -1.99897 0
M  V30 6513 H 581.573 5.01168 -2.23879 0
M  V30 6514 H 581.834 4.37705 -0.621816 0
M  V30 6515 N 580.893 1.08022 1.14757 0
M  V30 6516 C 582.139 0.808705 1.85978 0
M  V30 6517 C 582.472 -0.663764 1.82504 0
M  V30 6518 O 581.747 -1.48765 1.25296 0
M  V30 6519 C 582.03 1.32623 3.34788 0
M  V30 6520 C 581.883 2.86375 3.46856 0
M  V30 6521 C 583.202 0.948291 4.29762 0
M  V30 6522 H 580.321 0.295244 0.675278 0
M  V30 6523 H 582.963 1.33917 1.34783 0
M  V30 6524 H 581.113 0.875002 3.78518 0
M  V30 6525 H 582.785 3.39839 3.11941 0
M  V30 6526 H 581.028 3.24232 2.88194 0
M  V30 6527 H 581.699 3.17658 4.51439 0
M  V30 6528 H 584.175 1.33722 3.94028 0
M  V30 6529 H 583.051 1.33765 5.32352 0
M  V30 6530 H 583.312 -0.145094 4.41862 0
M  V30 6531 N 582.371 -1.3172 0.865308 0
M  V30 6532 C 583.281 -2.32394 0.320935 0
M  V30 6533 C 584.297 -1.64511 -0.566746 0
M  V30 6534 O 585.473 -1.95969 -0.464575 0
M  V30 6535 C 582.538 -3.43462 -0.472701 0
M  V30 6536 C 581.599 -4.27015 0.442385 0
M  V30 6537 C 580.832 -5.32779 -0.313469 0
M  V30 6538 O 581.055 -5.49158 -1.54214 0
M  V30 6539 O 579.989 -6.01015 0.326257 0
M  V30 6540 H 583.815 -2.80868 1.15528 0
M  V30 6541 H 581.4 -1.35535 0.628545 0
M  V30 6542 H 583.282 -4.11172 -0.922781 0
M  V30 6543 H 581.957 -2.97159 -1.28367 0
M  V30 6544 H 580.864 -3.62075 0.940866 0
M  V30 6545 H 582.197 -4.76871 1.21882 0
M  V30 6546 N 583.85 -0.624285 -1.44708 0
M  V30 6547 C 585.098 -0.125802 -2.01708 0
M  V30 6548 C 585.418 1.2543 -1.49306 0
M  V30 6549 O 584.689 1.83198 -0.693924 0
M  V30 6550 H 583.269 -0.0435161 -0.745731 0
M  V30 6551 H 585.931 -0.809446 -1.77296 0
M  V30 6552 H 585.027 -0.0882734 -3.11975 0
M  V30 6553 N 585.328 1.53329 -0.364422 0
M  V30 6554 C 586.276 2.27212 0.497737 0
M  V30 6555 C 587.27 1.30146 1.08437 0
M  V30 6556 O 588.476 1.47778 1.0277 0
M  V30 6557 H 584.851 0.730329 0.179232 0
M  V30 6558 H 586.822 2.98037 -0.147182 0
M  V30 6559 C 585.571 3.07333 1.6261 0
M  V30 6560 H 584.894 3.81866 1.184 0
M  V30 6561 H 586.334 3.62209 2.20409 0
M  V30 6562 C 584.793 2.18102 2.56775 0
M  V30 6563 O 585.323 1.79104 3.59562 0
M  V30 6564 N 583.529 1.82759 2.25937 0
M  V30 6565 H 583.076 2.14671 1.42387 0
M  V30 6566 H 583.034 1.23342 2.89196 0
M  V30 6567 N 586.806 0.0935595 1.57322 0
M  V30 6568 C 588.222 -0.263091 1.57417 0
M  V30 6569 C 588.422 -1.68526 1.1046 0
M  V30 6570 O 587.478 -2.40139 0.780357 0
M  V30 6571 C 588.791 -0.0529201 3.00653 0
M  V30 6572 C 590.339 -0.120788 3.12767 0
M  V30 6573 C 590.814 0.0613707 4.57959 0
M  V30 6574 N 592.305 0.00648534 4.632 0
M  V30 6575 C 593.04 0.122699 5.73269 0
M  V30 6576 N 592.536 0.29366 6.92177 0
M  V30 6577 N 594.329 0.0640787 5.62063 0
M  V30 6578 H 586.48 1.02277 1.86154 0
M  V30 6579 H 588.743 0.4007 0.859153 0
M  V30 6580 H 588.449 0.929279 3.39201 0
M  V30 6581 H 588.323 -0.795899 3.68708 0
M  V30 6582 H 590.71 -1.09349 2.74093 0
M  V30 6583 H 590.791 0.653656 2.47307 0
M  V30 6584 H 590.435 1.03093 4.97327 0
M  V30 6585 H 590.365 -0.732748 5.21477 0
M  V30 6586 H 592.856 -0.123173 3.77699 0
M  V30 6587 H 593.169 0.37389 7.71895 0
M  V30 6588 H 591.514 0.329307 6.94219 0
M  V30 6589 H 594.705 -0.0683396 4.6805 0
M  V30 6590 H 594.878 0.158097 6.47807 0
M  V30 6591 N 588.284 -1.56567 -0.180126 0
M  V30 6592 C 589.53 -1.82658 -0.894859 0
M  V30 6593 C 589.885 -0.672826 -1.80252 0
M  V30 6594 O 589.178 0.331227 -1.88715 0
M  V30 6595 C 589.372 -3.1252 -1.73395 0
M  V30 6596 C 589.201 -4.40417 -0.909028 0
M  V30 6597 C 587.971 -5.01872 -0.587562 0
M  V30 6598 C 590.169 -5.13669 -0.254698 0
M  V30 6599 N 588.151 -6.13373 0.254428 0
M  V30 6600 C 589.522 -6.18373 0.448837 0
M  V30 6601 C 591.577 -4.97603 -0.171958 0
M  V30 6602 C 590.28 -7.08753 1.22725 0
M  V30 6603 C 592.306 -5.88418 0.593101 0
M  V30 6604 C 591.668 -6.92579 1.28503 0
M  V30 6605 H 587.767 -0.719493 -0.306356 0
M  V30 6606 H 590.351 -1.94021 -0.16247 0
M  V30 6607 H 588.522 -3.02365 -2.43783 0
M  V30 6608 H 590.254 -3.2664 -2.38931 0
M  V30 6609 H 587.009 -4.64666 -0.915557 0
M  V30 6610 H 587.433 -6.73721 0.665474 0
M  V30 6611 H 592.075 -4.17089 -0.692555 0
M  V30 6612 H 589.793 -7.88718 1.75923 0
M  V30 6613 H 593.379 -5.78059 0.658674 0
M  V30 6614 H 592.259 -7.61638 1.86754 0
M  V30 6615 N 589.762 0.448376 -1.51087 0
M  V30 6616 C 591.178 0.783984 -1.39017 0
M  V30 6617 C 591.378 1.96087 -0.463904 0
M  V30 6618 O 590.434 2.52357 0.0850534 0
M  V30 6619 C 591.747 1.07471 -2.80839 0
M  V30 6620 C 593.295 1.17981 -2.89913 0
M  V30 6621 C 593.77 1.50354 -4.32617 0
M  V30 6622 N 595.261 1.57301 -4.35673 0
M  V30 6623 C 595.996 1.839 -5.4311 0
M  V30 6624 N 595.492 2.08365 -6.60724 0
M  V30 6625 N 597.285 1.8559 -5.30578 0
M  V30 6626 H 589.436 -0.326881 -2.0987 0
M  V30 6627 H 591.699 -0.0838006 -0.944289 0
M  V30 6628 H 591.405 0.282768 -3.50561 0
M  V30 6629 H 591.279 2.00519 -3.19487 0
M  V30 6630 H 593.666 1.9624 -2.20395 0
M  V30 6631 H 593.747 0.228603 -2.54776 0
M  V30 6632 H 593.391 0.726273 -5.0268 0
M  V30 6633 H 593.321 2.46663 -4.65258 0
M  V30 6634 H 595.812 1.40342 -3.50874 0
M  V30 6635 H 596.125 2.27999 -7.38401 0
M  V30 6636 H 594.47 2.0571 -6.63859 0
M  V30 6637 H 597.661 1.65989 -4.37682 0
M  V30 6638 H 597.834 2.05983 -6.1439 0
M  V30 6639 N 591.24 1.41047 0.703093 0
M  V30 6640 C 592.17 1.45067 1.82969 0
M  V30 6641 C 593.151 0.31016 1.67248 0
M  V30 6642 O 594.336 0.520548 1.87093 0
M  V30 6643 C 591.466 1.32478 3.2104 0
M  V30 6644 C 590.42 2.44262 3.51454 0
M  V30 6645 C 589.746 2.16742 4.88801 0
M  V30 6646 C 591.046 3.86606 3.51189 0
M  V30 6647 H 592.74 2.39353 1.79863 0
M  V30 6648 H 590.286 1.15206 0.863919 0
M  V30 6649 H 592.239 1.33904 3.99559 0
M  V30 6650 H 590.963 0.346735 3.24754 0
M  V30 6651 H 589.622 2.42107 2.75282 0
M  V30 6652 H 589.27 1.17299 4.89132 0
M  V30 6653 H 588.97 2.91643 5.10116 0
M  V30 6654 H 590.494 2.19872 5.69639 0
M  V30 6655 H 591.908 3.90517 4.19725 0
M  V30 6656 H 590.305 4.61128 3.84033 0
M  V30 6657 H 591.375 4.15296 2.50315 0
M  V30 6658 N 592.718 -0.936591 1.26751 0
M  V30 6659 C 593.995 -1.66094 1.03306 0
M  V30 6660 C 594.375 -2.06568 -0.435058 0
M  V30 6661 O 593.723 -1.79305 -1.41641 0
M  V30 6662 C 593.933 -2.86969 1.98619 0
M  V30 6663 C 595.281 -3.58516 2.27489 0
M  V30 6664 O 596.305 -2.97082 1.96522 0
M  V30 6665 O 595.164 -4.69181 2.80235 0
M  V30 6666 H 592.258 -0.727568 0.393158 0
M  V30 6667 H 594.804 -0.987914 1.3798 0
M  V30 6668 H 593.576 -2.53985 2.9767 0
M  V30 6669 H 593.199 -3.61996 1.64454 0
M  V30 6670 N 594.196 -1.08629 -1.14182 0
M  V30 6671 C 595.436 -0.826884 -1.86928 0
M  V30 6672 C 595.8 0.635808 -1.81167 0
M  V30 6673 O 597.001 1.0108 -2.49071 0
M  V30 6674 C 595.272 -1.33721 -3.31442 0
M  V30 6675 S 596.831 -1.21045 -4.21774 0
M  V30 6676 H 593.649 -0.299286 -0.644941 0
M  V30 6677 H 596.251 -1.38802 -1.37674 0
M  V30 6678 H 594.955 -2.39617 -3.33184 0
M  V30 6679 H 594.486 -0.771839 -3.85754 0
M  V30 6680 H 596.501 -0.156168 -4.95954 0
M  V30 6681 N 595.674 1.31259 -0.872281 0
M  V30 6682 C 596.923 1.95893 -0.480493 0
M  V30 6683 C 597.236 1.697 0.972688 0
M  V30 6684 O 598.442 2.28214 1.47073 0
M  V30 6685 C 596.898 3.50705 -0.808342 0
M  V30 6686 C 596.506 3.85735 -2.27844 0
M  V30 6687 C 598.25 4.21719 -0.485136 0
M  V30 6688 C 596.157 5.33668 -2.54858 0
M  V30 6689 H 595.087 0.733182 -0.175955 0
M  V30 6690 H 597.738 1.49396 -1.0655 0
M  V30 6691 H 596.12 3.95706 -0.152558 0
M  V30 6692 H 597.294 3.51686 -2.97748 0
M  V30 6693 H 595.609 3.27792 -2.56791 0
M  V30 6694 H 598.206 5.30559 -0.664166 0
M  V30 6695 H 598.549 4.12316 0.574592 0
M  V30 6696 H 599.082 3.82359 -1.09756 0
M  V30 6697 H 595.821 5.48109 -3.59523 0
M  V30 6698 H 595.341 5.69061 -1.8955 0
M  V30 6699 H 597.02 6.00958 -2.39706 0
M  V30 6700 N 597.152 0.631951 1.44375 0
M  V30 6701 C 598.082 -0.0593243 2.33425 0
M  V30 6702 C 599.063 -0.833964 1.48253 0
M  V30 6703 O 600.248 -0.799682 1.76971 0
M  V30 6704 C 597.378 -1.04096 3.31333 0
M  V30 6705 C 596.332 -0.377899 4.26328 0
M  V30 6706 C 595.658 -1.4695 5.14111 0
M  V30 6707 C 596.958 0.716371 5.17364 0
M  V30 6708 H 598.652 0.684287 2.91475 0
M  V30 6709 H 596.198 0.330518 1.40156 0
M  V30 6710 H 598.151 -1.53331 3.92514 0
M  V30 6711 H 596.875 -1.81547 2.71493 0
M  V30 6712 H 595.534 0.0938054 3.6648 0
M  V30 6713 H 595.182 -2.2349 4.50623 0
M  V30 6714 H 594.882 -1.03121 5.78481 0
M  V30 6715 H 596.406 -1.96363 5.78164 0
M  V30 6716 H 597.82 0.307089 5.72477 0
M  V30 6717 H 596.217 1.07784 5.90341 0
M  V30 6718 H 597.287 1.58316 4.58327 0
M  V30 6719 N 598.631 -1.53133 0.372548 0
M  V30 6720 C 599.578 -2.25951 -0.470631 0
M  V30 6721 C 600.548 -1.26895 -1.07176 0
M  V30 6722 O 601.733 -1.55691 -1.10294 0
M  V30 6723 C 598.873 -3.05726 -1.6008 0
M  V30 6724 C 597.986 -4.19684 -1.02416 0
M  V30 6725 C 597.121 -4.86888 -2.124 0
M  V30 6726 C 596.16 -5.92866 -1.52238 0
M  V30 6727 N 595.297 -6.53732 -2.56084 0
M  V30 6728 H 600.137 -2.97587 0.156816 0
M  V30 6729 H 597.674 -1.4683 0.0891571 0
M  V30 6730 H 599.632 -3.50258 -2.26661 0
M  V30 6731 H 598.262 -2.36331 -2.1988 0
M  V30 6732 H 597.314 -3.79588 -0.248426 0
M  V30 6733 H 598.626 -4.95821 -0.544366 0
M  V30 6734 H 597.78 -5.34638 -2.86787 0
M  V30 6735 H 596.519 -4.10239 -2.63734 0
M  V30 6736 H 595.524 -5.4447 -0.763685 0
M  V30 6737 H 596.749 -6.71439 -1.0172 0
M  V30 6738 H 594.695 -5.79932 -3.06618 0
M  V30 6739 H 594.612 -7.25429 -2.12811 0
M  V30 6740 H 595.88 -7.0613 -3.30152 0
M  V30 6741 N 600.109 -0.101901 -1.5727 0
M  V30 6742 C 601.525 0.254739 -1.57554 0
M  V30 6743 C 601.725 1.67937 -1.11352 0
M  V30 6744 O 600.781 2.39722 -0.793081 0
M  V30 6745 C 602.094 0.036975 -3.00677 0
M  V30 6746 C 603.642 0.104199 -3.12827 0
M  V30 6747 C 604.117 -0.0856565 -4.5792 0
M  V30 6748 N 605.608 -0.0310498 -4.6319 0
M  V30 6749 C 606.343 -0.153099 -5.73196 0
M  V30 6750 N 605.839 -0.330364 -6.92012 0
M  V30 6751 N 607.632 -0.0938854 -5.62022 0
M  V30 6752 H 599.783 -1.03263 -1.85609 0
M  V30 6753 H 602.046 -0.405251 -0.857016 0
M  V30 6754 H 601.752 -0.947254 -3.38703 0
M  V30 6755 H 601.626 0.776335 -3.69124 0
M  V30 6756 H 604.013 1.07894 -2.74669 0
M  V30 6757 H 604.094 -0.666762 -2.46957 0
M  V30 6758 H 603.738 -1.05729 -4.96773 0
M  V30 6759 H 603.668 0.705082 -5.21858 0
M  V30 6760 H 606.159 0.103141 -3.77759 0
M  V30 6761 H 606.472 -0.41482 -7.71686 0
M  V30 6762 H 604.817 -0.366119 -6.94035 0
M  V30 6763 H 608.008 0.0435168 -4.6808 0
M  V30 6764 H 608.181 -0.19245 -6.47714 0
M  V30 6765 N 601.587 1.56661 0.17182 0
M  V30 6766 C 602.534 1.96371 1.21273 0
M  V30 6767 C 603.504 0.82756 1.44016 0
M  V30 6768 O 604.689 1.08764 1.56764 0
M  V30 6769 C 601.829 2.32838 2.54716 0
M  V30 6770 C 600.942 3.59628 2.39356 0
M  V30 6771 C 600.077 3.85311 3.65662 0
M  V30 6772 C 599.116 5.0545 3.45234 0
M  V30 6773 N 598.253 5.27268 4.63608 0
M  V30 6774 H 603.093 2.85106 0.86709 0
M  V30 6775 H 600.63 1.41073 0.416744 0
M  V30 6776 H 602.588 2.52004 3.3249 0
M  V30 6777 H 601.218 1.47214 2.87277 0
M  V30 6778 H 600.27 3.4838 1.52761 0
M  V30 6779 H 601.582 4.4756 2.20207 0
M  V30 6780 H 600.736 4.04841 4.51872 0
M  V30 6781 H 599.475 2.95753 3.8779 0
M  V30 6782 H 598.48 4.85819 2.5741 0
M  V30 6783 H 599.705 5.96538 3.24529 0
M  V30 6784 H 597.651 4.40662 4.85956 0
M  V30 6785 H 597.568 6.09422 4.4737 0
M  V30 6786 H 598.836 5.51277 5.51103 0
M  V30 6787 N 603.065 -0.440357 1.51323 0
M  V30 6788 C 604.028 -1.51679 1.71832 0
M  V30 6789 C 605.028 -1.49648 0.588386 0
M  V30 6790 O 606.218 -1.51724 0.855891 0
M  V30 6791 C 603.35 -2.91228 1.77199 0
M  V30 6792 H 604.543 -1.34799 2.67898 0
M  V30 6793 H 602.096 -0.66883 1.41267 0
M  V30 6794 H 602.831 -3.13516 0.829363 0
M  V30 6795 H 602.616 -2.94107 2.59314 0
M  V30 6796 H 604.106 -3.69321 1.94915 0
M  V30 6797 N 604.543 -1.41418 -0.695603 0
M  V30 6798 C 605.475 -1.39195 -1.82092 0
M  V30 6799 C 606.488 -0.294132 -1.60121 0
M  V30 6800 O 607.677 -0.555854 -1.69625 0
M  V30 6801 C 604.777 -1.14828 -3.18854 0
M  V30 6802 C 603.95 -2.36649 -3.67853 0
M  V30 6803 C 603.009 -2.08139 -4.83285 0
M  V30 6804 O 602.035 -2.81177 -4.94902 0
M  V30 6805 N 603.237 -1.07162 -5.70523 0
M  V30 6806 H 606.002 -2.36185 -1.84491 0
M  V30 6807 H 603.563 -1.3603 -0.877923 0
M  V30 6808 H 605.555 -0.937075 -3.93702 0
M  V30 6809 H 604.125 -0.264358 -3.1148 0
M  V30 6810 H 603.345 -2.73472 -2.83913 0
M  V30 6811 H 604.633 -3.17816 -3.97329 0
M  V30 6812 H 604.031 -0.467124 -5.63768 0
M  V30 6813 H 602.588 -0.920311 -6.4527 0
M  V30 6814 N 606.021 0.929856 -1.27246 0
M  V30 6815 C 606.953 2.03434 -1.0558 0
M  V30 6816 C 607.966 1.62795 -0.0125762 0
M  V30 6817 O 609.155 1.76685 -0.2539 0
M  V30 6818 C 606.255 3.33915 -0.57912 0
M  V30 6819 C 605.428 4.03259 -1.69415 0
M  V30 6820 C 604.487 5.12014 -1.21357 0
M  V30 6821 O 603.513 5.36097 -1.91282 0
M  V30 6822 N 604.715 5.8046 -0.0680622 0
M  V30 6823 H 607.48 2.22583 -2.00691 0
M  V30 6824 H 605.041 1.1001 -1.18783 0
M  V30 6825 H 607.033 4.03978 -0.241563 0
M  V30 6826 H 605.603 3.11355 0.278703 0
M  V30 6827 H 604.823 3.26958 -2.20209 0
M  V30 6828 H 606.111 4.46337 -2.44255 0
M  V30 6829 H 605.509 5.63345 0.515626 0
M  V30 6830 H 604.066 6.51461 0.210332 0
M  V30 6831 N 607.499 1.09233 1.13605 0
M  V30 6832 C 608.747 0.825525 1.84471 0
M  V30 6833 C 609.068 -0.650702 1.83823 0
M  V30 6834 O 608.338 -1.47204 1.29259 0
M  V30 6835 H 606.918 0.3024 0.683054 0
M  V30 6836 H 609.58 1.38006 1.37624 0
M  V30 6837 H 608.676 1.17727 2.89045 0
M  V30 6838 N 608.977 -1.30795 0.87923 0
M  V30 6839 C 610.223 -1.96653 0.495519 0
M  V30 6840 C 610.556 -1.69282 -0.951703 0
M  V30 6841 O 609.831 -0.994374 -1.6716 0
M  V30 6842 C 610.114 -3.51898 0.764174 0
M  V30 6843 C 609.967 -3.88808 2.2616 0
M  V30 6844 C 611.286 -4.39462 0.236825 0
M  V30 6845 H 608.405 -0.7143 0.181507 0
M  V30 6846 H 611.047 -1.54765 1.10217 0
M  V30 6847 H 609.197 -3.87709 0.247841 0
M  V30 6848 H 610.869 -3.63051 2.8459 0
M  V30 6849 H 609.112 -3.37082 2.73053 0
M  V30 6850 H 609.783 -4.97086 2.4002 0
M  V30 6851 H 612.259 -4.10528 0.678683 0
M  V30 6852 H 611.135 -5.47018 0.454176 0
M  V30 6853 H 611.396 -4.33621 -0.861683 0
M  V30 6854 N 610.455 -0.639598 -1.44038 0
M  V30 6855 C 611.871 -0.305953 -1.5664 0
M  V30 6856 C 612.071 1.19055 -1.62567 0
M  V30 6857 O 611.127 1.97492 -1.57331 0
M  V30 6858 C 612.44 -1.00533 -2.83397 0
M  V30 6859 C 613.988 -0.984278 -2.97121 0
M  V30 6860 C 614.463 -1.66428 -4.26691 0
M  V30 6861 N 615.954 -1.63127 -4.33525 0
M  V30 6862 C 616.689 -2.12629 -5.32519 0
M  V30 6863 N 616.185 -2.70359 -6.3787 0
M  V30 6864 N 617.978 -2.03208 -5.24083 0
M  V30 6865 H 610.129 -1.6109 -1.38434 0
M  V30 6866 H 612.392 -0.676672 -0.663942 0
M  V30 6867 H 612.098 -2.06034 -2.85032 0
M  V30 6868 H 611.972 -0.548362 -3.73193 0
M  V30 6869 H 614.359 0.0622792 -2.95034 0
M  V30 6870 H 614.44 -1.47981 -2.08651 0
M  V30 6871 H 614.084 -2.71034 -4.29538 0
M  V30 6872 H 614.014 -1.14351 -5.14034 0
M  V30 6873 H 616.505 -1.20987 -3.58009 0
M  V30 6874 H 616.818 -3.05842 -7.09704 0
M  V30 6875 H 615.163 -2.74414 -6.38531 0
M  V30 6876 H 618.354 -1.57823 -4.40692 0
M  V30 6877 H 618.527 -2.42097 -6.01077 0
M  V30 6878 N 611.933 1.52934 -0.380664 0
M  V30 6879 C 613.182 2.00651 0.205477 0
M  V30 6880 C 613.495 1.27164 1.48623 0
M  V30 6881 O 614.701 1.65547 2.15189 0
M  V30 6882 C 613.157 3.57479 0.416726 0
M  V30 6883 C 612.765 4.39857 -0.850268 0
M  V30 6884 C 614.509 4.13509 0.959702 0
M  V30 6885 C 612.416 5.88269 -0.607773 0
M  V30 6886 H 611.346 0.749684 0.0805614 0
M  V30 6887 H 613.997 1.76508 -0.501732 0
M  V30 6888 H 612.379 3.77836 1.18557 0
M  V30 6889 H 613.553 4.31269 -1.62307 0
M  V30 6890 H 611.868 3.95005 -1.31756 0
M  V30 6891 H 614.465 5.22039 1.15669 0
M  V30 6892 H 614.808 3.69054 1.92626 0
M  V30 6893 H 615.341 3.9701 0.250645 0
M  V30 6894 H 612.08 6.3703 -1.54509 0
M  V30 6895 H 611.6 5.99667 0.126247 0
M  V30 6896 H 613.279 6.46558 -0.239014 0
M  V30 6897 N 613.412 0.11024 1.57214 0
M  V30 6898 C 614.659 -0.54987 1.94891 0
M  V30 6899 C 614.987 -1.67243 0.992984 0
M  V30 6900 O 614.242 -1.95694 0.0152703 0
M  V30 6901 C 614.541 -1.13102 3.39032 0
M  V30 6902 C 614.207 -0.130713 4.5071 0
M  V30 6903 C 612.869 0.14437 4.80983 0
M  V30 6904 C 615.221 0.551472 5.18274 0
M  V30 6905 C 612.549 1.10807 5.76141 0
M  V30 6906 C 614.901 1.50375 6.14467 0
M  V30 6907 C 613.565 1.78691 6.43138 0
M  V30 6908 H 612.835 -0.201212 0.713158 0
M  V30 6909 H 615.482 0.189288 1.90562 0
M  V30 6910 H 613.787 -1.94675 3.40013 0
M  V30 6911 H 615.484 -1.64973 3.65493 0
M  V30 6912 H 612.074 -0.355301 4.27125 0
M  V30 6913 H 616.258 0.35211 4.95049 0
M  V30 6914 H 611.514 1.3343 5.96663 0
M  V30 6915 H 615.688 2.03808 6.65909 0
M  V30 6916 H 613.315 2.53522 7.1668 0
M  V30 6917 N 614.89 -1.56749 -0.16351 0
M  V30 6918 C 616.139 -1.81626 -0.877211 0
M  V30 6919 C 616.452 -0.688791 -1.83071 0
M  V30 6920 O 617.658 -0.822697 -2.58735 0
M  V30 6921 C 616.114 -3.21858 -1.61045 0
M  V30 6922 C 615.722 -4.42494 -0.700195 0
M  V30 6923 C 617.466 -3.56021 -2.31192 0
M  V30 6924 C 615.373 -5.73748 -1.43412 0
M  V30 6925 H 614.303 -0.67731 -0.331312 0
M  V30 6926 H 616.954 -1.83039 -0.13006 0
M  V30 6927 H 615.336 -3.14784 -2.40264 0
M  V30 6928 H 616.51 -4.60766 0.0555849 0
M  V30 6929 H 614.825 -4.1626 -0.10799 0
M  V30 6930 H 617.422 -4.51333 -2.8671 0
M  V30 6931 H 617.765 -2.81277 -3.06902 0
M  V30 6932 H 618.298 -3.64682 -1.58909 0
M  V30 6933 H 615.037 -6.51543 -0.719186 0
M  V30 6934 H 614.557 -5.5944 -2.16302 0
M  V30 6935 H 616.236 -6.15975 -1.9795 0
M  V30 6936 N 616.368 0.432326 -1.51554 0
M  V30 6937 C 617.301 1.54525 -1.6792 0
M  V30 6938 C 618.279 1.53831 -0.526764 0
M  V30 6939 O 619.463 1.72884 -0.751233 0
M  V30 6940 C 616.59 2.931 -1.69736 0
M  V30 6941 C 615.636 3.11799 -2.91005 0
M  V30 6942 S 616.469 2.87565 -4.51737 0
M  V30 6943 C 617.625 4.28412 -4.56305 0
M  V30 6944 H 617.858 1.4041 -2.62054 0
M  V30 6945 H 615.391 0.622357 -1.41301 0
M  V30 6946 H 617.349 3.72974 -1.71467 0
M  V30 6947 H 616.01 3.04574 -0.767705 0
M  V30 6948 H 615.203 4.13127 -2.8869 0
M  V30 6949 H 614.805 2.39757 -2.87041 0
M  V30 6950 H 617.097 5.21692 -4.32254 0
M  V30 6951 H 618.04 4.35758 -5.58141 0
M  V30 6952 H 618.448 4.12301 -3.85576 0
M  V30 6953 N 617.846 1.41785 0.688094 0
M  V30 6954 C 618.776 1.47 1.8142 0
M  V30 6955 C 619.757 0.327881 1.6691 0
M  V30 6956 O 620.942 0.540362 1.86531 0
M  V30 6957 C 618.072 1.35876 3.19617 0
M  V30 6958 C 617.026 2.47976 3.48844 0
M  V30 6959 C 616.352 2.21915 4.86475 0
M  V30 6960 C 617.652 3.90309 3.47068 0
M  V30 6961 H 619.346 2.41247 1.77314 0
M  V30 6962 H 616.892 1.16116 0.851651 0
M  V30 6963 H 618.845 1.38134 3.98117 0
M  V30 6964 H 617.569 0.38116 3.24368 0
M  V30 6965 H 616.228 2.45013 2.72698 0
M  V30 6966 H 615.876 1.2248 4.8786 0
M  V30 6967 H 615.576 2.97037 5.06994 0
M  V30 6968 H 617.1 2.25901 5.67275 0
M  V30 6969 H 618.514 3.94947 4.1556 0
M  V30 6970 H 616.911 4.65175 3.7912 0
M  V30 6971 H 617.981 4.17927 2.45896 0
M  V30 6972 N 619.324 -0.923095 1.27737 0
M  V30 6973 C 620.554 -1.70277 1.17001 0
M  V30 6974 C 620.962 -1.87188 -0.275199 0
M  V30 6975 O 620.305 -1.39195 -1.19877 0
M  V30 6976 C 620.367 -3.11976 1.78637 0
M  V30 6977 C 620.031 -3.18386 3.27841 0
M  V30 6978 C 621.028 -3.00287 4.2441 0
M  V30 6979 C 618.713 -3.41198 3.68632 0
M  V30 6980 C 620.707 -3.04896 5.59747 0
M  V30 6981 C 618.394 -3.4544 5.04097 0
M  V30 6982 C 619.392 -3.27309 5.99465 0
M  V30 6983 O 619.08 -3.31295 7.32461 0
M  V30 6984 H 618.812 -0.539366 0.407505 0
M  V30 6985 H 621.366 -1.16446 1.69202 0
M  V30 6986 H 619.596 -3.67308 1.20919 0
M  V30 6987 H 621.285 -3.7193 1.6255 0
M  V30 6988 H 622.051 -2.825 3.94232 0
M  V30 6989 H 617.93 -3.54359 2.94873 0
M  V30 6990 H 621.474 -2.90662 6.34162 0
M  V30 6991 H 617.371 -3.62753 5.33929 0
M  V30 6992 H 618.139 -3.47719 7.40968 0
M  V30 6993 N 620.802 -1.09834 -1.13024 0
M  V30 6994 C 621.749 -0.741522 -2.18564 0
M  V30 6995 C 622.719 0.279236 -1.63736 0
M  V30 6996 O 623.904 0.159923 -1.90129 0
M  V30 6997 C 621.044 -0.17277 -3.44667 0
M  V30 6998 C 620.157 -1.24808 -4.13578 0
M  V30 6999 C 619.292 -0.641631 -5.27311 0
M  V30 7000 C 618.331 -1.69795 -5.88078 0
M  V30 7001 N 617.468 -1.11223 -6.93234 0
M  V30 7002 H 622.308 -1.64576 -2.48432 0
M  V30 7003 H 619.845 -0.822174 -1.21978 0
M  V30 7004 H 621.803 0.17482 -4.16834 0
M  V30 7005 H 620.433 0.694725 -3.15235 0
M  V30 7006 H 619.485 -1.71288 -3.39653 0
M  V30 7007 H 620.797 -2.04795 -4.54819 0
M  V30 7008 H 619.951 -0.243128 -6.06213 0
M  V30 7009 H 618.69 0.189742 -4.87331 0
M  V30 7010 H 617.695 -2.10595 -5.07868 0
M  V30 7011 H 618.92 -2.53206 -6.3013 0
M  V30 7012 H 616.866 -0.302208 -6.55304 0
M  V30 7013 H 616.783 -1.84901 -7.3304 0
M  V30 7014 H 618.051 -0.740068 -7.75979 0
M  V30 7015 N 622.28 1.30327 -0.886154 0
M  V30 7016 C 623.19 2.31854 -0.357866 0
M  V30 7017 C 624.206 1.65392 0.540502 0
M  V30 7018 O 625.382 1.96683 0.433339 0
M  V30 7019 C 622.447 3.44171 0.417999 0
M  V30 7020 C 621.508 4.26257 -0.510263 0
M  V30 7021 C 620.741 5.3321 0.228669 0
M  V30 7022 O 620.964 5.51542 1.45458 0
M  V30 7023 O 619.898 6.0042 -0.421832 0
M  V30 7024 H 623.724 2.78995 -1.19982 0
M  V30 7025 H 621.309 1.34518 -0.650028 0
M  V30 7026 H 623.191 4.12588 0.857251 0
M  V30 7027 H 621.866 2.99164 1.23623 0
M  V30 7028 H 620.773 3.60533 -0.99835 0
M  V30 7029 H 622.106 4.74871 -1.29454 0
M  V30 7030 N 623.758 0.647228 1.43697 0
M  V30 7031 C 625.004 0.158422 2.0218 0
M  V30 7032 C 625.337 -1.22233 1.50907 0
M  V30 7033 O 624.612 -1.81478 0.699702 0
M  V30 7034 C 624.895 0.1627 3.59732 0
M  V30 7035 C 624.748 1.57694 4.21251 0
M  V30 7036 C 626.067 -0.504138 4.37203 0
M  V30 7037 H 623.186 0.059042 0.734631 0
M  V30 7038 H 625.828 0.826772 1.71069 0
M  V30 7039 H 623.978 -0.406414 3.86368 0
M  V30 7040 H 625.65 2.19618 4.05667 0
M  V30 7041 H 623.893 2.12603 3.7813 0
M  V30 7042 H 624.564 1.53183 5.3032 0
M  V30 7043 H 627.04 -0.0199841 4.16095 0
M  V30 7044 H 625.916 -0.470394 5.46881 0
M  V30 7045 H 626.177 -1.57726 4.13007 0
M  V30 7046 N 625.236 -1.5273 0.388769 0
M  V30 7047 C 626.146 -2.30165 -0.453993 0
M  V30 7048 C 627.162 -1.37058 -1.07197 0
M  V30 7049 O 628.338 -1.70127 -1.0779 0
M  V30 7050 C 625.403 -3.09303 -1.56628 0
M  V30 7051 C 624.464 -4.18117 -0.973467 0
M  V30 7052 C 623.697 -4.93472 -2.03275 0
M  V30 7053 O 623.92 -4.68913 -3.24772 0
M  V30 7054 O 622.854 -5.78833 -1.65034 0
M  V30 7055 H 626.68 -3.03185 0.176816 0
M  V30 7056 H 624.265 -1.4862 0.152501 0
M  V30 7057 H 626.147 -3.58648 -2.21246 0
M  V30 7058 H 624.822 -2.39098 -2.18206 0
M  V30 7059 H 623.729 -3.7297 -0.290556 0
M  V30 7060 H 625.062 -4.90556 -0.401908 0
M  V30 7061 N 626.714 -0.118576 -1.57153 0
M  V30 7062 C 627.644 0.828436 -2.1831 0
M  V30 7063 C 628.625 1.27758 -1.12303 0
M  V30 7064 O 629.81 1.34026 -1.40537 0
M  V30 7065 C 626.94 2.07876 -2.78217 0
M  V30 7066 C 625.894 1.76742 -3.89803 0
M  V30 7067 C 625.22 3.08801 -4.36516 0
M  V30 7068 C 626.52 1.03606 -5.11921 0
M  V30 7069 H 628.214 0.318824 -2.97698 0
M  V30 7070 H 625.76 0.151911 -1.43196 0
M  V30 7071 H 627.713 2.74584 -3.19659 0
M  V30 7072 H 626.437 2.61161 -1.96118 0
M  V30 7073 H 625.096 1.12424 -3.48936 0
M  V30 7074 H 624.744 3.6002 -3.51276 0
M  V30 7075 H 624.444 2.88743 -5.11763 0
M  V30 7076 H 625.968 3.76627 -4.80608 0
M  V30 7077 H 627.382 1.60467 -5.50385 0
M  V30 7078 H 625.779 0.936454 -5.92748 0
M  V30 7079 H 626.849 0.0227421 -4.84895 0
M  V30 7080 N 628.193 1.56834 0.155195 0
M  V30 7081 C 629.156 1.96748 1.17571 0
M  V30 7082 C 630.156 0.853006 1.3631 0
M  V30 7083 O 631.346 1.11978 1.33441 0
M  V30 7084 C 628.478 2.27631 2.53765 0
M  V30 7085 H 629.671 2.88085 0.833498 0
M  V30 7086 H 627.224 1.51141 0.398242 0
M  V30 7087 H 627.959 1.39059 2.92973 0
M  V30 7088 H 627.744 3.0888 2.41527 0
M  V30 7089 H 629.234 2.59377 3.27282 0
M  V30 7090 N 629.671 -0.424282 1.51781 0
M  V30 7091 C 630.601 -1.52305 1.7699 0
M  V30 7092 C 631.582 -1.5839 0.620209 0
M  V30 7093 O 632.767 -1.73908 0.864268 0
M  V30 7094 C 629.897 -2.90271 1.90683 0
M  V30 7095 C 628.851 -2.99043 3.06198 0
M  V30 7096 C 628.177 -4.39116 3.05092 0
M  V30 7097 C 629.477 -2.7192 4.45934 0
M  V30 7098 H 631.171 -1.31461 2.68995 0
M  V30 7099 H 628.717 -0.630985 1.29439 0
M  V30 7100 H 630.67 -3.6711 2.06901 0
M  V30 7101 H 629.394 -3.12376 0.953365 0
M  V30 7102 H 628.053 -2.24646 2.89706 0
M  V30 7103 H 627.701 -4.58207 2.07498 0
M  V30 7104 H 627.401 -4.45912 3.82669 0
M  V30 7105 H 628.925 -5.17911 3.2342 0
M  V30 7106 H 630.339 -3.38487 4.62709 0
M  V30 7107 H 628.736 -2.90111 5.25315 0
M  V30 7108 H 629.806 -1.67445 4.55072 0
M  V30 7109 N 631.149 -1.42148 -0.680565 0
M  V30 7110 C 632.397 -1.42029 -1.43779 0
M  V30 7111 C 632.718 -0.0356347 -1.94967 0
M  V30 7112 O 631.988 0.924936 -1.7269 0
M  V30 7113 H 630.568 -0.522835 -0.533529 0
M  V30 7114 H 633.23 -1.7752 -0.804538 0
M  V30 7115 H 632.326 -2.11658 -2.29363 0
M  V30 7116 N 632.627 0.916307 -1.28225 0
M  V30 7117 C 633.876 1.65975 -1.14608 0
M  V30 7118 C 634.189 1.93204 0.305191 0
M  V30 7119 O 635.395 2.65611 0.562432 0
M  V30 7120 C 633.851 2.98989 -2.00333 0
M  V30 7121 C 633.459 2.79417 -3.50186 0
M  V30 7122 C 635.203 3.76856 -1.95397 0
M  V30 7123 C 633.11 4.08056 -4.28071 0
M  V30 7124 H 632.04 0.622587 -0.425324 0
M  V30 7125 H 634.691 1.01705 -1.52736 0
M  V30 7126 H 633.073 3.6438 -1.5506 0
M  V30 7127 H 634.247 2.22723 -4.034 0
M  V30 7128 H 632.562 2.14966 -3.56621 0
M  V30 7129 H 635.159 4.72203 -2.50856 0
M  V30 7130 H 635.502 4.05776 -0.930137 0
M  V30 7131 H 636.035 3.1828 -2.38626 0
M  V30 7132 H 632.774 3.8431 -5.31024 0
M  V30 7133 H 632.294 4.64371 -3.79631 0
M  V30 7134 H 633.973 4.76333 -4.37854 0
M  V30 7135 N 634.105 1.10431 1.1244 0
M  V30 7136 C 635.053 0.747974 2.20246 0
M  V30 7137 C 636.047 -0.255848 1.67457 0
M  V30 7138 O 637.253 -0.116221 1.79624 0
M  V30 7139 H 633.628 0.223946 0.71788 0
M  V30 7140 H 635.599 1.6661 2.47556 0
M  V30 7141 C 634.348 0.195957 3.47147 0
M  V30 7142 H 633.671 0.959606 3.88113 0
M  V30 7143 H 635.111 -0.0153154 4.23997 0
M  V30 7144 C 633.57 -1.07132 3.19413 0
M  V30 7145 O 634.1 -2.15284 3.3914 0
M  V30 7146 N 632.306 -0.98994 2.73219 0
M  V30 7147 H 631.853 -0.109736 2.57366 0
M  V30 7148 H 631.811 -1.83856 2.55038 0
M  V30 7149 N 635.583 -1.29855 0.893053 0
M  V30 7150 C 636.808 -2.00512 0.530066 0
M  V30 7151 C 637.233 -1.66446 -0.876199 0
M  V30 7152 O 636.591 -0.885446 -1.58207 0
M  V30 7153 C 636.639 -3.53308 0.721505 0
M  V30 7154 O 635.743 -4.11764 -0.228994 0
M  V30 7155 H 635.084 -0.630617 0.207891 0
M  V30 7156 H 637.614 -1.6551 1.20282 0
M  V30 7157 H 637.624 -4.03206 0.623599 0
M  V30 7158 H 636.299 -3.77439 1.74678 0
M  V30 7159 H 634.876 -3.72805 -0.0841034 0
M  V30 7160 N 637.061 -0.65484 -1.43351 0
M  V30 7161 C 637.971 0.0363603 -2.34572 0
M  V30 7162 C 638.987 0.810432 -1.53974 0
M  V30 7163 O 640.163 0.757308 -1.86619 0
M  V30 7164 C 637.228 0.989733 -3.32273 0
M  V30 7165 C 636.289 0.212414 -4.28774 0
M  V30 7166 C 635.522 1.12038 -5.21808 0
M  V30 7167 O 635.745 2.35967 -5.19303 0
M  V30 7168 O 634.679 0.59191 -5.98982 0
M  V30 7169 H 638.505 -0.714527 -2.95175 0
M  V30 7170 H 636.09 -0.415029 -1.4352 0
M  V30 7171 H 637.972 1.53759 -3.92347 0
M  V30 7172 H 636.647 1.72082 -2.74171 0
M  V30 7173 H 635.554 -0.379062 -3.72175 0
M  V30 7174 H 636.887 -0.479138 -4.89862 0
M  V30 7175 N 638.539 1.52521 -0.396863 0
M  V30 7176 C 639.769 2.05792 0.182485 0
M  V30 7177 C 640.177 1.26784 1.40436 0
M  V30 7178 O 639.52 0.309617 1.81072 0
M  V30 7179 C 639.582 3.54291 0.609781 0
M  V30 7180 C 639.246 4.5426 -0.499674 0
M  V30 7181 C 640.243 5.01812 -1.35944 0
M  V30 7182 C 637.928 4.97827 -0.668864 0
M  V30 7183 C 639.922 5.91562 -2.37346 0
M  V30 7184 C 637.609 5.87376 -1.68621 0
M  V30 7185 C 638.607 6.34137 -2.53692 0
M  V30 7186 O 638.295 7.21915 -3.53686 0
M  V30 7187 H 638.027 0.675362 0.0293583 0
M  V30 7188 H 640.581 1.97539 -0.56281 0
M  V30 7189 H 638.811 3.60188 1.40717 0
M  V30 7190 H 640.5 3.90267 1.11565 0
M  V30 7191 H 641.266 4.68879 -1.24008 0
M  V30 7192 H 637.145 4.60997 -0.0163971 0
M  V30 7193 H 640.689 6.27983 -3.03782 0
M  V30 7194 H 636.586 6.19723 -1.80593 0
M  V30 7195 H 637.354 7.39996 -3.49784 0
M  V30 7196 N 640.017 0.126909 1.57088 0
M  V30 7197 C 641.245 -0.53667 1.99819 0
M  V30 7198 C 641.66 -1.5972 1.00673 0
M  V30 7199 O 641.017 -1.825 0.000747365 0
M  V30 7200 C 641.068 -1.15563 3.42531 0
M  V30 7201 O 640.789 -0.137483 4.37884 0
M  V30 7202 C 642.29 -1.90176 4.00435 0
M  V30 7203 H 639.51 -0.141443 0.655923 0
M  V30 7204 H 642.054 0.215578 2.03361 0
M  V30 7205 H 640.209 -1.85861 3.39904 0
M  V30 7206 H 640.623 -0.588229 5.21191 0
M  V30 7207 H 642.097 -2.28801 5.02349 0
M  V30 7208 H 642.574 -2.78002 3.40017 0
M  V30 7209 H 643.18 -1.24623 4.06632 0
M  V30 7210 N 641.495 -1.56914 -0.146875 0
M  V30 7211 C 642.442 -1.98275 -1.18134 0
M  V30 7212 C 643.412 -0.850367 -1.42681 0
M  V30 7213 O 644.597 -1.11244 -1.55014 0
M  V30 7214 C 641.737 -2.36861 -2.5098 0
M  V30 7215 C 640.85 -3.63391 -2.33605 0
M  V30 7216 C 639.985 -3.91079 -3.59486 0
M  V30 7217 C 639.024 -5.10879 -3.37149 0
M  V30 7218 N 638.161 -5.34577 -4.55161 0
M  V30 7219 H 643.001 -2.8645 -0.821622 0
M  V30 7220 H 640.538 -1.41718 -0.394248 0
M  V30 7221 H 642.496 -2.57262 -3.28439 0
M  V30 7222 H 641.126 -1.51766 -2.84898 0
M  V30 7223 H 640.178 -3.50766 -1.47199 0
M  V30 7224 H 641.49 -4.51007 -2.13059 0
M  V30 7225 H 640.644 -4.11979 -4.45374 0
M  V30 7226 H 639.383 -3.01885 -3.83036 0
M  V30 7227 H 638.388 -4.89853 -2.49649 0
M  V30 7228 H 639.613 -6.01626 -3.14997 0
M  V30 7229 H 637.559 -4.48337 -4.78884 0
M  V30 7230 H 637.476 -6.16463 -4.37618 0
M  V30 7231 H 638.744 -5.59975 -5.42263 0
M  V30 7232 N 642.974 0.416227 -1.52004 0
M  V30 7233 C 644.39 0.754319 -1.40649 0
M  V30 7234 C 644.59 1.95059 -0.505392 0
M  V30 7235 O 643.646 2.5248 0.0315057 0
M  V30 7236 C 644.959 1.0149 -2.83055 0
M  V30 7237 C 646.507 1.11805 -2.9235 0
M  V30 7238 C 646.982 1.41144 -4.35709 0
M  V30 7239 N 648.473 1.48024 -4.38911 0
M  V30 7240 C 649.208 1.72338 -5.46889 0
M  V30 7241 N 648.704 1.94303 -6.64995 0
M  V30 7242 N 650.497 1.74294 -5.34395 0
M  V30 7243 H 642.648 -0.371324 -2.09129 0
M  V30 7244 H 644.911 -0.103811 -0.942299 0
M  V30 7245 H 644.617 0.208345 -3.51082 0
M  V30 7246 H 644.491 1.93697 -3.23668 0
M  V30 7247 H 646.878 1.91521 -2.24508 0
M  V30 7248 H 646.959 0.17451 -2.55204 0
M  V30 7249 H 646.603 0.619484 -5.04108 0
M  V30 7250 H 646.533 2.36739 -4.70385 0
M  V30 7251 H 649.024 1.32868 -3.53772 0
M  V30 7252 H 649.337 2.12286 -7.43071 0
M  V30 7253 H 647.682 1.91582 -6.68073 0
M  V30 7254 H 650.873 1.56667 -4.41104 0
M  V30 7255 H 651.046 1.92904 -6.18621 0
M  V30 7256 N 644.452 1.42507 0.673017 0
M  V30 7257 C 645.68 1.46473 1.46128 0
M  V30 7258 C 646.095 0.0765912 1.88645 0
M  V30 7259 O 645.452 -0.909057 1.58248 0
M  V30 7260 C 645.503 2.39339 2.70923 0
M  V30 7261 O 645.224 3.72752 2.3019 0
M  V30 7262 C 646.725 2.52343 3.64469 0
M  V30 7263 H 643.945 0.49812 0.449575 0
M  V30 7264 H 646.489 1.87041 0.826802 0
M  V30 7265 H 644.644 2.02019 3.30556 0
M  V30 7266 H 645.058 4.22503 3.10791 0
M  V30 7267 H 646.532 3.2144 4.48754 0
M  V30 7268 H 647.009 1.56189 4.1049 0
M  V30 7269 H 647.615 2.90392 3.10729 0
M  V30 7270 N 645.93 -0.909495 1.28709 0
M  V30 7271 C 646.86 -2.0291 1.15542 0
M  V30 7272 C 647.841 -1.7002 0.0521017 0
M  V30 7273 O 649.026 -1.92835 0.229849 0
M  V30 7274 C 646.156 -3.37458 0.820935 0
M  V30 7275 C 645.11 -3.84524 1.87949 0
M  V30 7276 C 644.436 -5.16086 1.39854 0
M  V30 7277 C 645.736 -4.05918 3.28676 0
M  V30 7278 H 647.43 -2.14183 2.09203 0
M  V30 7279 H 644.976 -1.02913 1.00722 0
M  V30 7280 H 646.929 -4.1528 0.715571 0
M  V30 7281 H 645.653 -3.26249 -0.151374 0
M  V30 7282 H 644.312 -3.08911 1.97408 0
M  V30 7283 H 643.96 -5.01284 0.41518 0
M  V30 7284 H 643.66 -5.48547 2.1064 0
M  V30 7285 H 645.184 -5.96459 1.30649 0
M  V30 7286 H 646.598 -4.74252 3.22115 0
M  V30 7287 H 644.995 -4.49717 3.97334 0
M  V30 7288 H 646.065 -3.10583 3.72379 0
M  V30 7289 N 647.408 -1.11026 -1.11852 0
M  V30 7290 C 648.341 -0.708501 -2.16923 0
M  V30 7291 C 649.319 0.293196 -1.59935 0
M  V30 7292 O 650.503 0.190641 -1.87533 0
M  V30 7293 C 647.63 -0.0463705 -3.38668 0
M  V30 7294 C 646.676 -1.01252 -4.14307 0
M  V30 7295 S 647.509 -2.53291 -4.71809 0
M  V30 7296 C 648.665 -1.88366 -5.96883 0
M  V30 7297 H 648.898 -1.59854 -2.50667 0
M  V30 7298 H 646.431 -0.927869 -1.2341 0
M  V30 7299 H 648.389 0.329314 -4.09177 0
M  V30 7300 H 647.05 0.820562 -3.03192 0
M  V30 7301 H 646.243 -0.496596 -5.01548 0
M  V30 7302 H 645.845 -1.33042 -3.49537 0
M  V30 7303 H 648.137 -1.21753 -6.6647 0
M  V30 7304 H 649.08 -2.73588 -6.53112 0
M  V30 7305 H 649.488 -1.34562 -5.48227 0
M  V30 7306 N 648.886 1.2938 -0.899927 0
M  V30 7307 C 650.302 1.48052 -0.596059 0
M  V30 7308 C 650.502 1.82114 0.862372 0
M  V30 7309 O 649.558 1.91774 1.64253 0
M  V30 7310 C 650.871 2.59332 -1.52208 0
M  V30 7311 C 652.419 2.73208 -1.5273 0
M  V30 7312 C 652.894 3.87617 -2.43961 0
M  V30 7313 N 654.385 3.9495 -2.42009 0
M  V30 7314 C 655.12 4.82824 -3.09303 0
M  V30 7315 N 654.616 5.75387 -3.85877 0
M  V30 7316 N 656.409 4.76317 -2.98459 0
M  V30 7317 H 648.56 1.05546 -1.8432 0
M  V30 7318 H 650.823 0.524314 -0.78981 0
M  V30 7319 H 650.529 2.41029 -2.56121 0
M  V30 7320 H 650.403 3.56139 -1.24278 0
M  V30 7321 H 652.79 2.90908 -0.495614 0
M  V30 7322 H 652.871 1.76975 -1.84698 0
M  V30 7323 H 652.515 3.70672 -3.47224 0
M  V30 7324 H 652.445 4.83218 -2.09303 0
M  V30 7325 H 654.936 3.28744 -1.86375 0
M  V30 7326 H 655.249 6.39235 -4.34279 0
M  V30 7327 H 653.594 5.75272 -3.89984 0
M  V30 7328 H 656.785 4.0299 -2.38152 0
M  V30 7329 H 656.958 5.44589 -3.51179 0
M  V30 7330 N 650.364 0.662433 1.43002 0
M  V30 7331 C 651.294 -0.00979809 2.33498 0
M  V30 7332 C 652.275 -0.802329 1.49989 0
M  V30 7333 O 653.46 -0.761964 1.78627 0
M  V30 7334 C 650.59 -0.970446 3.33466 0
M  V30 7335 C 649.544 -0.287383 4.27034 0
M  V30 7336 C 648.87 -1.36012 5.17112 0
M  V30 7337 C 650.17 0.82595 5.15728 0
M  V30 7338 H 651.864 0.745959 2.89958 0
M  V30 7339 H 649.41 0.360172 1.39423 0
M  V30 7340 H 651.363 -1.44971 3.95679 0
M  V30 7341 H 650.087 -1.75748 2.75282 0
M  V30 7342 H 648.746 0.17152 3.66199 0
M  V30 7343 H 648.394 -2.13882 4.55262 0
M  V30 7344 H 648.094 -0.908276 5.80538 0
M  V30 7345 H 649.618 -1.84056 5.82199 0
M  V30 7346 H 651.032 0.42845 5.71697 0
M  V30 7347 H 649.429 1.20282 5.87922 0
M  V30 7348 H 650.499 1.68003 4.54866 0
M  V30 7349 N 651.842 -1.52309 0.404946 0
M  V30 7350 C 652.792 -2.23717 -0.439864 0
M  V30 7351 C 653.776 -1.24692 -1.0169 0
M  V30 7352 O 654.968 -1.49951 -0.940409 0
M  V30 7353 C 652.097 -3.05898 -1.55825 0
M  V30 7354 C 651.183 -4.12331 -0.992188 0
M  V30 7355 N 651.574 -5.0557 -0.152424 0
M  V30 7356 C 649.872 -4.2774 -1.26312 0
M  V30 7357 C 650.573 -5.81474 0.162041 0
M  V30 7358 N 649.549 -5.41767 -0.44601 0
M  V30 7359 H 653.351 -2.93162 0.208084 0
M  V30 7360 H 650.865 -1.60969 0.215131 0
M  V30 7361 H 652.862 -3.55605 -2.17603 0
M  V30 7362 H 651.522 -2.37991 -2.20886 0
M  V30 7363 H 652.533 -5.17468 0.211556 0
M  V30 7364 H 649.21 -3.71062 -1.91362 0
M  V30 7365 H 650.6 -6.66585 0.843423 0
M  V30 7366 N 653.32 -0.135238 -1.57019 0
M  V30 7367 C 654.731 0.387521 -1.82634 0
M  V30 7368 C 655.082 1.65528 -1.05332 0
M  V30 7369 O 654.207 2.14381 -0.294926 0
M  V30 7370 C 654.802 0.709852 -3.3128 0
M  V30 7371 C 653.361 1.17718 -3.57518 0
M  V30 7372 C 652.508 0.194183 -2.76619 0
M  V30 7373 H 655.459 -0.360126 -1.5456 0
M  V30 7374 H 655.48 1.5657 -3.46794 0
M  V30 7375 H 654.992 -0.213024 -3.87515 0
M  V30 7376 H 653.093 2.1164 -3.06658 0
M  V30 7377 H 653.206 1.11128 -4.66034 0
M  V30 7378 H 651.57 0.684478 -2.4533 0
M  V30 7379 H 652.353 -0.722076 -3.3562 0
M  V30 7380 N 654.798 1.5699 0.138552 0
M  V30 7381 C 655.746 1.99858 1.18994 0
M  V30 7382 C 656.74 0.89231 1.43994 0
M  V30 7383 O 657.946 1.0775 1.44187 0
M  V30 7384 H 654.321 0.636325 0.400743 0
M  V30 7385 H 656.292 2.87427 0.801755 0
M  V30 7386 C 655.041 2.40235 2.51361 0
M  V30 7387 H 654.364 3.24917 2.32957 0
M  V30 7388 H 655.804 2.74045 3.23535 0
M  V30 7389 C 654.263 1.25829 3.1252 0
M  V30 7390 O 654.793 0.563604 3.97727 0
M  V30 7391 N 652.999 1.02036 2.72097 0
M  V30 7392 H 652.546 1.58705 2.02905 0
M  V30 7393 H 652.504 0.256796 3.1335 0
M  V30 7394 N 656.276 -0.40816 1.52223 0
M  V30 7395 C 657.525 -1.15212 1.65557 0
M  V30 7396 C 657.838 -1.9163 0.392096 0
M  V30 7397 O 659.044 -2.68458 0.405256 0
M  V30 7398 C 657.5 -2.09691 2.92502 0
M  V30 7399 C 657.108 -1.38785 4.25961 0
M  V30 7400 C 658.852 -2.8434 3.152 0
M  V30 7401 C 656.759 -2.31919 5.44029 0
M  V30 7402 H 655.689 -0.433776 0.616729 0
M  V30 7403 H 658.34 -0.4165 1.78711 0
M  V30 7404 H 656.722 -2.8681 2.7305 0
M  V30 7405 H 657.896 -0.670248 4.55899 0
M  V30 7406 H 656.211 -0.761741 4.09373 0
M  V30 7407 H 658.808 -3.54166 4.00587 0
M  V30 7408 H 659.151 -3.47344 2.29473 0
M  V30 7409 H 659.684 -2.14321 3.35129 0
M  V30 7410 H 656.423 -1.7356 6.32105 0
M  V30 7411 H 655.943 -3.0165 5.18428 0
M  V30 7412 H 657.622 -2.92424 5.77146 0
M  V30 7413 N 657.755 -1.42862 -0.66545 0
M  V30 7414 C 658.702 -1.4707 -1.77874 0
M  V30 7415 C 659.672 -0.321654 -1.62956 0
M  V30 7416 O 660.857 -0.52707 -1.83376 0
M  V30 7417 C 657.997 -1.38788 -3.15962 0
M  V30 7418 C 657.11 -2.63801 -3.42101 0
M  V30 7419 C 656.245 -2.47594 -4.69969 0
M  V30 7420 C 655.284 -3.67936 -4.89172 0
M  V30 7421 N 654.421 -3.50614 -6.08288 0
M  V30 7422 H 659.261 -2.42204 -1.73613 0
M  V30 7423 H 656.798 -1.20239 -0.847401 0
M  V30 7424 H 658.756 -1.31982 -3.95773 0
M  V30 7425 H 657.386 -0.472431 -3.19324 0
M  V30 7426 H 656.438 -2.80935 -2.56475 0
M  V30 7427 H 657.75 -3.53228 -3.52181 0
M  V30 7428 H 656.904 -2.38427 -5.57886 0
M  V30 7429 H 655.643 -1.55672 -4.62188 0
M  V30 7430 H 654.648 -3.77525 -3.99694 0
M  V30 7431 H 655.873 -4.60851 -4.98792 0
M  V30 7432 H 653.819 -2.61417 -6.01662 0
M  V30 7433 H 653.736 -4.33634 -6.19272 0
M  V30 7434 H 655.004 -3.45276 -6.98859 0
M  V30 7435 N 659.233 0.902656 -1.29189 0
M  V30 7436 C 660.479 1.65532 -1.17163 0
M  V30 7437 C 660.812 1.92216 0.276879 0
M  V30 7438 O 660.087 1.53048 1.20027 0
M  V30 7439 C 660.37 3.00629 -1.98228 0
M  V30 7440 C 660.223 2.81029 -3.51202 0
M  V30 7441 C 661.542 4.01321 -1.80635 0
M  V30 7442 H 658.661 0.60071 -0.426985 0
M  V30 7443 H 661.303 1.04578 -1.5863 0
M  V30 7444 H 659.453 3.52656 -1.62991 0
M  V30 7445 H 661.125 2.35927 -3.96404 0
M  V30 7446 H 659.368 2.1587 -3.76275 0
M  V30 7447 H 660.039 3.77014 -4.03192 0
M  V30 7448 H 662.515 3.58394 -2.11406 0
M  V30 7449 H 661.391 4.93792 -2.3971 0
M  V30 7450 H 661.652 4.35505 -0.760754 0
M  V30 7451 N 660.711 1.11618 1.11262 0
M  V30 7452 C 661.644 0.719995 2.16544 0
M  V30 7453 C 662.622 -0.28471 1.60088 0
M  V30 7454 O 663.806 -0.180693 1.87632 0
M  V30 7455 C 660.933 0.0643302 3.38639 0
M  V30 7456 C 659.979 1.03448 4.13764 0
M  V30 7457 S 660.812 2.55789 4.70459 0
M  V30 7458 C 661.968 1.91529 5.95875 0
M  V30 7459 H 662.201 1.61181 2.49816 0
M  V30 7460 H 659.734 0.934401 1.22916 0
M  V30 7461 H 661.692 -0.307609 4.09346 0
M  V30 7462 H 660.353 -0.804471 3.03623 0
M  V30 7463 H 659.546 0.523188 5.01277 0
M  V30 7464 H 659.148 1.34893 3.48826 0
M  V30 7465 H 661.44 1.25286 6.65815 0
M  V30 7466 H 662.383 2.77047 6.51652 0
M  V30 7467 H 662.791 1.37468 5.47506 0
M  V30 7468 N 662.189 -1.289 0.906776 0
M  V30 7469 C 663.605 -1.47733 0.603902 0
M  V30 7470 C 663.805 -1.82568 -0.852702 0
M  V30 7471 O 662.861 -1.92642 -1.63234 0
M  V30 7472 C 664.174 -2.58522 1.53581 0
M  V30 7473 C 665.722 -2.72394 1.54177 0
M  V30 7474 C 666.197 -3.86318 2.46013 0
M  V30 7475 N 667.688 -3.93661 2.441 0
M  V30 7476 C 668.423 -4.81177 3.11859 0
M  V30 7477 N 667.919 -5.73333 3.88923 0
M  V30 7478 N 669.712 -4.74728 3.00981 0
M  V30 7479 H 661.863 -1.04567 1.84877 0
M  V30 7480 H 664.126 -0.520118 0.792579 0
M  V30 7481 H 663.832 -2.39667 2.57396 0
M  V30 7482 H 663.706 -3.55475 1.26165 0
M  V30 7483 H 666.093 -2.90641 0.511034 0
M  V30 7484 H 666.174 -1.75993 1.85634 0
M  V30 7485 H 665.818 -3.68826 3.49185 0
M  V30 7486 H 665.748 -4.82102 2.11862 0
M  V30 7487 H 668.239 -3.27751 1.88115 0
M  V30 7488 H 668.552 -6.36923 4.37663 0
M  V30 7489 H 666.897 -5.73196 3.93029 0
M  V30 7490 H 670.088 -4.01722 2.40286 0
M  V30 7491 H 670.261 -5.42719 3.54062 0
M  V30 7492 N 663.667 -0.670007 -1.42649 0
M  V30 7493 C 664.617 0.0339546 -2.27975 0
M  V30 7494 C 665.601 0.778295 -1.40824 0
M  V30 7495 O 666.793 0.657997 -1.64315 0
M  V30 7496 C 663.922 0.987899 -3.28779 0
M  V30 7497 C 663.008 0.241153 -4.23414 0
M  V30 7498 N 663.399 -0.751392 -5.00188 0
M  V30 7499 C 661.697 0.480269 -4.43407 0
M  V30 7500 C 662.398 -1.19615 -5.69269 0
M  V30 7501 N 661.374 -0.527045 -5.41039 0
M  V30 7502 H 665.176 -0.727425 -2.84756 0
M  V30 7503 H 662.69 -0.498673 -1.54554 0
M  V30 7504 H 664.687 1.50716 -3.88703 0
M  V30 7505 H 663.347 1.74916 -2.73559 0
M  V30 7506 H 664.358 -1.13075 -5.05405 0
M  V30 7507 H 661.035 1.2214 -3.99234 0
M  V30 7508 H 662.425 -2.01836 -6.40868 0
M  V30 7509 N 665.145 1.52092 -0.413018 0
M  V30 7510 C 666.556 1.86617 0.0556967 0
M  V30 7511 C 666.907 1.33156 1.44097 0
M  V30 7512 O 666.032 0.672417 2.05688 0
M  V30 7513 C 666.627 3.38628 0.107844 0
M  V30 7514 C 665.186 3.72778 0.520904 0
M  V30 7515 C 664.333 2.75649 -0.302109 0
M  V30 7516 H 667.284 1.45663 -0.629919 0
M  V30 7517 H 667.305 3.69152 0.922324 0
M  V30 7518 H 666.817 3.77508 -0.900506 0
M  V30 7519 H 664.918 3.39478 1.53575 0
M  V30 7520 H 665.031 4.7838 0.262591 0
M  V30 7521 H 663.395 2.53603 0.236115 0
M  V30 7522 H 664.178 3.17369 -1.30888 0
M  V30 7523 N 666.623 0.143563 1.56945 0
M  V30 7524 C 667.9 -0.553285 1.87612 0
M  V30 7525 C 668.28 -1.83195 1.04894 0
M  V30 7526 O 667.628 -2.28102 0.134773 0
M  V30 7527 C 667.838 -0.822055 3.3918 0
M  V30 7528 C 669.186 -1.16435 4.08324 0
M  V30 7529 O 670.21 -0.911522 3.4434 0
M  V30 7530 O 669.069 -1.63996 5.21313 0
M  V30 7531 H 666.163 -0.281851 0.777489 0
M  V30 7532 H 668.709 0.179916 1.68744 0
M  V30 7533 H 667.481 0.0830265 3.91212 0
M  V30 7534 H 667.104 -1.60956 3.63564 0
M  V30 7535 N 668.101 -1.57061 -0.130224 0
M  V30 7536 C 669.051 -1.95941 -1.16582 0
M  V30 7537 C 670.035 -0.832858 -1.37667 0
M  V30 7538 O 671.227 -1.09647 -1.38948 0
M  V30 7539 C 668.356 -2.35777 -2.49528 0
M  V30 7540 C 667.442 -3.5504 -2.31964 0
M  V30 7541 N 667.833 -4.71071 -1.84189 0
M  V30 7542 C 666.131 -3.60453 -2.62659 0
M  V30 7543 C 666.832 -5.53128 -1.80068 0
M  V30 7544 N 665.808 -4.95303 -2.24001 0
M  V30 7545 H 669.61 -2.83117 -0.788806 0
M  V30 7546 H 667.124 -1.58842 -0.3381 0
M  V30 7547 H 669.121 -2.61843 -3.24413 0
M  V30 7548 H 667.781 -1.49961 -2.87996 0
M  V30 7549 H 668.792 -4.94504 -1.53903 0
M  V30 7550 H 665.469 -2.85217 -3.0489 0
M  V30 7551 H 666.859 -6.56182 -1.4448 0
M  V30 7552 N 669.579 0.400081 -1.52437 0
M  V30 7553 C 670.825 1.14788 -1.67187 0
M  V30 7554 C 671.158 1.89928 -0.405074 0
M  V30 7555 O 670.433 1.85118 0.596804 0
M  V30 7556 C 670.716 2.13507 -2.89977 0
M  V30 7557 C 670.569 1.42204 -4.2673 0
M  V30 7558 C 671.888 3.14069 -3.083 0
M  V30 7559 H 669.007 0.415939 -0.608411 0
M  V30 7560 H 671.649 0.432542 -1.85011 0
M  V30 7561 H 669.799 2.7451 -2.74912 0
M  V30 7562 H 671.471 0.842503 -4.53541 0
M  V30 7563 H 669.714 0.723939 -4.27717 0
M  V30 7564 H 670.385 2.14281 -5.08712 0
M  V30 7565 H 672.861 2.63148 -3.22323 0
M  V30 7566 H 671.737 3.80398 -3.95713 0
M  V30 7567 H 671.998 3.82309 -2.22018 0
M  V30 7568 N 671.057 1.43213 0.657864 0
M  V30 7569 C 672.282 1.48227 1.45064 0
M  V30 7570 C 672.707 0.0999939 1.87834 0
M  V30 7571 O 672.065 -0.905269 1.57081 0
M  V30 7572 C 672.113 2.42931 2.6649 0
M  V30 7573 O 671.217 1.91237 3.6538 0
M  V30 7574 H 670.558 0.501551 0.435135 0
M  V30 7575 H 673.088 1.8808 0.805431 0
M  V30 7576 H 673.098 2.6008 3.1436 0
M  V30 7577 H 671.773 3.43348 2.34701 0
M  V30 7578 H 670.35 1.83726 3.24498 0
M  V30 7579 N 672.536 -0.895792 1.29666 0
M  V30 7580 C 673.761 -1.68528 1.20885 0
M  V30 7581 C 674.186 -1.8673 -0.226595 0
M  V30 7582 O 673.544 -1.39044 -1.16347 0
M  V30 7583 C 673.592 -3.04512 1.93144 0
M  V30 7584 O 672.696 -3.92963 1.25115 0
M  V30 7585 H 672.037 -0.515371 0.418675 0
M  V30 7586 H 674.567 -1.11878 1.71302 0
M  V30 7587 H 674.577 -3.54628 2.0175 0
M  V30 7588 H 673.252 -2.90582 2.97548 0
M  V30 7589 H 671.829 -3.51399 1.24794 0
M  V30 7590 N 674.014 -1.12206 -1.10668 0
M  V30 7591 C 675.242 -0.898635 -1.86366 0
M  V30 7592 C 675.657 0.551991 -1.80551 0
M  V30 7593 O 675.014 1.38152 -1.19249 0
M  V30 7594 C 675.065 -1.36199 -3.34861 0
M  V30 7595 O 674.786 -2.75576 -3.40573 0
M  V30 7596 C 676.287 -1.17515 -4.2744 0
M  V30 7597 H 673.507 -0.321281 -0.589084 0
M  V30 7598 H 676.051 -1.49142 -1.39918 0
M  V30 7599 H 674.206 -0.81249 -3.78784 0
M  V30 7600 H 674.62 -2.95851 -4.33096 0
M  V30 7601 H 676.094 -1.54827 -5.29842 0
M  V30 7602 H 676.571 -0.115486 -4.39048 0
M  V30 7603 H 677.177 -1.71203 -3.89319 0
M  V30 7604 N 675.492 1.28418 -0.913599 0
M  V30 7605 C 676.738 1.9527 -0.547484 0
M  V30 7606 C 677.071 1.71745 0.906486 0
M  V30 7607 O 676.346 1.03834 1.64465 0
M  V30 7608 C 676.629 3.49748 -0.857205 0
M  V30 7609 C 676.482 3.82675 -2.3639 0
M  V30 7610 C 677.801 4.3868 -0.353258 0
M  V30 7611 H 674.92 0.709236 -0.200381 0
M  V30 7612 H 677.562 1.51789 -1.14281 0
M  V30 7613 H 675.712 3.86915 -0.350548 0
M  V30 7614 H 677.384 3.55378 -2.94116 0
M  V30 7615 H 675.627 3.29724 -2.81894 0
M  V30 7616 H 676.298 4.90547 -2.53115 0
M  V30 7617 H 678.774 4.08584 -0.787288 0
M  V30 7618 H 677.65 5.45621 -0.599049 0
M  V30 7619 H 677.911 4.35753 0.746413 0
M  V30 7620 N 676.97 0.677563 1.42291 0
M  V30 7621 C 678.2 0.209155 2.05539 0
M  V30 7622 C 678.608 -1.13987 1.51009 0
M  V30 7623 O 677.951 -1.71976 0.645764 0
M  V30 7624 C 678.013 0.0697758 3.59432 0
M  V30 7625 C 677.677 1.34795 4.36668 0
M  V30 7626 C 678.674 2.28201 4.67141 0
M  V30 7627 C 676.359 1.59632 4.76259 0
M  V30 7628 C 678.353 3.44718 5.36142 0
M  V30 7629 C 676.04 2.76437 5.45 0
M  V30 7630 C 677.038 3.68805 5.74867 0
M  V30 7631 O 676.726 4.83567 6.42198 0
M  V30 7632 H 676.458 0.0986202 0.668768 0
M  V30 7633 H 679.012 0.925483 1.83368 0
M  V30 7634 H 677.242 -0.702157 3.80272 0
M  V30 7635 H 678.931 -0.359115 4.04308 0
M  V30 7636 H 679.697 2.10264 4.37052 0
M  V30 7637 H 675.576 0.886073 4.52404 0
M  V30 7638 H 679.12 4.16833 5.59371 0
M  V30 7639 H 675.017 2.94299 5.74507 0
M  V30 7640 H 675.785 4.83147 6.6069 0
M  V30 7641 N 678.448 -1.51871 0.421078 0
M  V30 7642 C 679.378 -2.30231 -0.389363 0
M  V30 7643 C 680.359 -1.34946 -1.03555 0
M  V30 7644 O 681.544 -1.63859 -1.04229 0
M  V30 7645 C 678.674 -3.13247 -1.49979 0
M  V30 7646 C 677.628 -4.16677 -0.977966 0
M  V30 7647 C 676.954 -4.88112 -2.1829 0
M  V30 7648 C 678.254 -5.22295 -0.0236775 0
M  V30 7649 H 679.948 -2.98229 0.264524 0
M  V30 7650 H 677.494 -1.43424 0.12866 0
M  V30 7651 H 679.447 -3.66838 -2.07383 0
M  V30 7652 H 678.171 -2.4304 -2.18173 0
M  V30 7653 H 676.83 -3.64114 -0.426245 0
M  V30 7654 H 676.478 -4.14423 -2.85066 0
M  V30 7655 H 676.178 -5.58041 -1.84021 0
M  V30 7656 H 677.702 -5.44521 -2.76278 0
M  V30 7657 H 679.116 -5.71055 -0.506899 0
M  V30 7658 H 677.513 -5.99656 0.230782 0
M  V30 7659 H 678.583 -4.76131 0.917999 0
M  V30 7660 N 679.926 -0.151884 -1.56866 0
M  V30 7661 C 681.172 0.492327 -1.97352 0
M  V30 7662 C 681.527 1.62156 -1.03553 0
M  V30 7663 O 680.82 1.91467 -0.0714872 0
M  V30 7664 C 681.014 1.04074 -3.41911 0
M  V30 7665 C 680.843 -0.0338306 -4.49687 0
M  V30 7666 C 679.613 -0.476914 -5.03044 0
M  V30 7667 C 681.811 -0.827105 -5.07606 0
M  V30 7668 N 679.793 -1.53382 -5.9443 0
M  V30 7669 C 681.164 -1.73439 -5.95247 0
M  V30 7670 C 683.219 -0.874351 -4.90163 0
M  V30 7671 C 681.922 -2.68488 -6.67313 0
M  V30 7672 C 683.948 -1.81269 -5.62935 0
M  V30 7673 C 683.31 -2.70749 -6.50288 0
M  V30 7674 H 679.409 0.148822 -0.767708 0
M  V30 7675 H 681.993 -0.247615 -1.93119 0
M  V30 7676 H 680.164 1.75027 -3.46728 0
M  V30 7677 H 681.896 1.65197 -3.69448 0
M  V30 7678 H 678.651 -0.0782493 -4.73535 0
M  V30 7679 H 679.075 -2.06217 -6.44828 0
M  V30 7680 H 683.717 -0.196628 -4.22343 0
M  V30 7681 H 681.435 -3.37257 -7.34359 0
M  V30 7682 H 685.021 -1.85511 -5.51432 0
M  V30 7683 H 683.901 -3.42175 -7.0561 0
M  V30 7684 N 681.404 1.57128 0.121893 0
M  V30 7685 C 682.367 1.99197 1.13372 0
M  V30 7686 C 683.367 0.881728 1.3447 0
M  V30 7687 O 684.557 1.14783 1.31036 0
M  V30 7688 C 681.689 2.32963 2.4888 0
M  V30 7689 H 682.882 2.89788 0.772204 0
M  V30 7690 H 680.435 1.51952 0.366093 0
M  V30 7691 H 681.17 1.45243 2.89957 0
M  V30 7692 H 680.955 3.13934 2.34921 0
M  V30 7693 H 682.445 2.66261 3.21706 0
M  V30 7694 N 682.882 -0.391992 1.52647 0
M  V30 7695 C 683.832 -1.47815 1.73594 0
M  V30 7696 C 684.816 -1.49693 0.589979 0
M  V30 7697 O 686.008 -1.5538 0.847701 0
M  V30 7698 C 683.137 -2.85561 1.90551 0
M  V30 7699 C 682.223 -2.88264 3.1107 0
M  V30 7700 N 682.614 -2.60642 4.33474 0
M  V30 7701 C 680.912 -3.19432 3.11254 0
M  V30 7702 C 681.613 -2.70351 5.15058 0
M  V30 7703 N 680.589 -3.03956 4.50679 0
M  V30 7704 H 684.391 -1.2528 2.65861 0
M  V30 7705 H 681.905 -0.599907 1.50913 0
M  V30 7706 H 683.902 -3.63759 2.03678 0
M  V30 7707 H 682.562 -3.09081 0.994952 0
M  V30 7708 H 683.573 -2.34718 4.61658 0
M  V30 7709 H 680.25 -3.48436 2.29997 0
M  V30 7710 H 681.64 -2.52565 6.22624 0
M  V30 7711 N 684.36 -1.4356 -0.65026 0
M  V30 7712 C 685.31 -1.45392 -1.75628 0
M  V30 7713 C 686.294 -0.322006 -1.57645 0
M  V30 7714 O 687.486 -0.565996 -1.67707 0
M  V30 7715 C 684.615 -1.38254 -3.1423 0
M  V30 7716 C 683.701 -2.56487 -3.3775 0
M  V30 7717 N 684.092 -3.81824 -3.31729 0
M  V30 7718 C 682.39 -2.51274 -3.6848 0
M  V30 7719 C 683.091 -4.60497 -3.55412 0
M  V30 7720 N 682.067 -3.91274 -3.77367 0
M  V30 7721 H 685.869 -2.40167 -1.69402 0
M  V30 7722 H 683.383 -1.38254 -0.852037 0
M  V30 7723 H 685.38 -1.3765 -3.9352 0
M  V30 7724 H 684.04 -0.445019 -3.21636 0
M  V30 7725 H 685.051 -4.14069 -3.11074 0
M  V30 7726 H 681.728 -1.66223 -3.82983 0
M  V30 7727 H 683.118 -5.69518 -3.5651 0
M  V30 7728 N 685.838 0.888903 -1.30139 0
M  V30 7729 C 686.748 2.02705 -1.18101 0
M  V30 7730 C 687.764 1.73702 -0.101809 0
M  V30 7731 O 688.94 1.98906 -0.315984 0
M  V30 7732 C 686.005 3.35616 -0.869651 0
M  V30 7733 C 685.066 3.78067 -2.03381 0
M  V30 7734 C 684.299 5.04635 -1.73721 0
M  V30 7735 O 684.522 5.66531 -0.663267 0
M  V30 7736 O 683.456 5.43399 -2.58845 0
M  V30 7737 H 687.282 2.15788 -2.13704 0
M  V30 7738 H 684.867 1.01426 -1.09695 0
M  V30 7739 H 686.749 4.15358 -0.711043 0
M  V30 7740 H 685.424 3.23651 0.0565002 0
M  V30 7741 H 684.331 2.99046 -2.24772 0
M  V30 7742 H 685.664 3.94631 -2.94155 0
M  V30 7743 N 687.317 1.12792 1.10072 0
M  V30 7744 C 688.264 0.79921 2.16521 0
M  V30 7745 C 689.234 -0.235726 1.64419 0
M  V30 7746 O 690.419 -0.109457 1.90486 0
M  V30 7747 C 687.559 0.264091 3.44088 0
M  V30 7748 C 686.672 1.35729 4.10124 0
M  V30 7749 C 685.807 0.781212 5.25424 0
M  V30 7750 C 684.846 1.85327 5.8337 0
M  V30 7751 N 683.983 1.29564 6.90042 0
M  V30 7752 H 688.823 1.71105 2.43981 0
M  V30 7753 H 686.36 0.854225 1.19756 0
M  V30 7754 H 688.318 -0.0642423 4.17151 0
M  V30 7755 H 686.948 -0.610901 3.16967 0
M  V30 7756 H 686 1.80234 3.34993 0
M  V30 7757 H 687.312 2.16782 4.4923 0
M  V30 7758 H 686.466 0.403769 6.05355 0
M  V30 7759 H 685.205 -0.0604686 4.87663 0
M  V30 7760 H 684.21 2.23986 5.02106 0
M  V30 7761 H 685.435 2.69824 6.23195 0
M  V30 7762 H 683.381 0.475844 6.54272 0
M  V30 7763 H 683.298 2.04271 7.2788 0
M  V30 7764 H 684.566 0.945545 7.73744 0
M  V30 7765 N 688.795 -1.27931 0.920396 0
M  V30 7766 C 689.725 -2.29487 0.431024 0
M  V30 7767 C 690.706 -1.62435 -0.504861 0
M  V30 7768 O 691.891 -1.89797 -0.411176 0
M  V30 7769 C 689.021 -3.45788 -0.323709 0
M  V30 7770 C 687.975 -4.24784 0.523658 0
M  V30 7771 C 687.301 -5.33488 -0.359809 0
M  V30 7772 C 688.601 -4.90874 1.78437 0
M  V30 7773 H 690.295 -2.70671 1.27975 0
M  V30 7774 H 687.841 -1.30121 0.616813 0
M  V30 7775 H 689.794 -4.15927 -0.676952 0
M  V30 7776 H 688.518 -3.03502 -1.2064 0
M  V30 7777 H 687.177 -3.56382 0.85951 0
M  V30 7778 H 686.825 -4.87445 -1.24124 0
M  V30 7779 H 686.525 -5.87247 0.203605 0
M  V30 7780 H 688.049 -6.06472 -0.708787 0
M  V30 7781 H 689.463 -5.53339 1.49963 0
M  V30 7782 H 687.86 -5.54659 2.29071 0
M  V30 7783 H 688.93 -4.14988 2.50824 0
M  V30 7784 N 690.273 -0.685099 -1.4193 0
M  V30 7785 C 691.519 -0.211971 -2.01689 0
M  V30 7786 C 691.852 1.18189 -1.54094 0
M  V30 7787 O 691.127 1.79559 -0.747572 0
M  V30 7788 C 691.41 -0.258019 -3.59174 0
M  V30 7789 C 691.263 -1.68807 -4.16922 0
M  V30 7790 C 692.582 0.388044 -4.38386 0
M  V30 7791 H 689.701 -0.0784987 -0.732808 0
M  V30 7792 H 692.343 -0.871837 -1.68816 0
M  V30 7793 H 690.493 0.303832 -3.8731 0
M  V30 7794 H 692.165 -2.30296 -3.99702 0
M  V30 7795 H 690.408 -2.22553 -3.72361 0
M  V30 7796 H 691.079 -1.6719 -5.26072 0
M  V30 7797 H 693.555 -0.0903432 -4.16002 0
M  V30 7798 H 692.431 0.325232 -5.47936 0
M  V30 7799 H 692.692 1.4672 -4.17044 0
M  V30 7800 N 691.751 1.51645 -0.429126 0
M  V30 7801 C 693 2.01203 0.141538 0
M  V30 7802 C 693.313 1.31828 1.44502 0
M  V30 7803 O 694.519 1.7231 2.09813 0
M  V30 7804 C 692.975 3.58624 0.302786 0
M  V30 7805 C 692.583 4.3693 -0.989775 0
M  V30 7806 C 694.327 4.16353 0.827661 0
M  V30 7807 C 692.234 5.86037 -0.794619 0
M  V30 7808 H 691.164 0.751867 0.05667 0
M  V30 7809 H 693.815 1.74822 -0.557633 0
M  V30 7810 H 692.197 3.81417 1.06476 0
M  V30 7811 H 693.371 4.25887 -1.75945 0
M  V30 7812 H 691.686 3.90614 -1.44256 0
M  V30 7813 H 694.283 5.25455 0.990026 0
M  V30 7814 H 694.626 3.74995 1.80787 0
M  V30 7815 H 695.159 3.97606 0.124213 0
M  V30 7816 H 691.898 6.31792 -1.74697 0
M  V30 7817 H 691.418 5.99765 -0.0645968 0
M  V30 7818 H 693.097 6.45471 -0.444591 0
M  V30 7819 N 693.229 0.160201 1.56784 0
M  V30 7820 C 694.478 -0.487619 1.95717 0
M  V30 7821 C 694.791 -1.65136 1.0483 0
M  V30 7822 O 695.997 -2.36468 1.33398 0
M  V30 7823 C 694.453 -0.91888 3.47972 0
M  V30 7824 C 694.061 0.218655 4.47466 0
M  V30 7825 C 695.805 -1.53575 3.95746 0
M  V30 7826 C 693.712 -0.231614 5.90946 0
M  V30 7827 H 692.642 -0.185939 0.730714 0
M  V30 7828 H 695.293 0.246657 1.81835 0
M  V30 7829 H 693.675 -1.70881 3.57234 0
M  V30 7830 H 694.849 0.995825 4.49911 0
M  V30 7831 H 693.164 0.744767 4.09685 0
M  V30 7832 H 695.761 -1.88448 5.00391 0
M  V30 7833 H 696.104 -2.42959 3.38048 0
M  V30 7834 H 696.637 -0.810467 3.89456 0
M  V30 7835 H 693.376 0.62718 6.52493 0
M  V30 7836 H 692.896 -0.974379 5.91833 0
M  V30 7837 H 694.575 -0.67922 6.43425 0
M  V30 7838 N 694.707 -1.5719 -0.113559 0
M  V30 7839 C 695.984 -1.76117 -0.850999 0
M  V30 7840 C 696.364 -0.737085 -1.97814 0
M  V30 7841 O 695.712 0.237942 -2.27258 0
M  V30 7842 C 695.922 -3.21298 -1.36266 0
M  V30 7843 C 697.27 -3.83955 -1.81283 0
M  V30 7844 O 698.294 -3.24934 -1.45933 0
M  V30 7845 O 697.153 -4.87707 -2.46585 0
M  V30 7846 H 694.247 -0.721308 -0.404529 0
M  V30 7847 H 696.793 -1.69423 -0.0968756 0
M  V30 7848 H 695.565 -3.87355 -0.554235 0
M  V30 7849 H 695.188 -3.32552 -2.17933 0
M  V30 7850 N 696.185 0.383891 -1.52853 0
M  V30 7851 C 697.117 1.48889 -1.74255 0
M  V30 7852 C 698.13 1.50405 -0.623063 0
M  V30 7853 O 699.319 1.54215 -0.898887 0
M  V30 7854 C 696.419 2.87721 -1.79081 0
M  V30 7855 C 695.592 3.10111 -3.08464 0
M  V30 7856 C 694.651 4.28954 -3.0477 0
M  V30 7857 O 693.677 4.25012 -3.78621 0
M  V30 7858 N 694.879 5.35411 -2.24311 0
M  V30 7859 H 697.644 1.30915 -2.69595 0
M  V30 7860 H 695.205 0.573454 -1.51404 0
M  V30 7861 H 697.197 3.65333 -1.7411 0
M  V30 7862 H 695.767 2.99029 -0.911052 0
M  V30 7863 H 694.987 2.20319 -3.26884 0
M  V30 7864 H 696.275 3.21928 -3.94005 0
M  V30 7865 H 695.673 5.41471 -1.63787 0
M  V30 7866 H 694.23 6.1167 -2.25175 0
M  V30 7867 N 697.663 1.43903 0.642637 0
M  V30 7868 C 698.888 1.49758 1.43483 0
M  V30 7869 C 699.313 0.119911 1.87717 0
M  V30 7870 O 698.671 -0.888558 1.58033 0
M  V30 7871 C 698.719 2.45744 2.63898 0
M  V30 7872 O 697.823 1.95101 3.63331 0
M  V30 7873 H 697.164 0.506138 0.429791 0
M  V30 7874 H 699.694 1.88923 0.785438 0
M  V30 7875 H 699.704 2.63399 3.11584 0
M  V30 7876 H 698.379 3.45818 2.31046 0
M  V30 7877 H 696.956 1.87158 3.22531 0
M  V30 7878 N 699.141 -0.881989 1.30609 0
M  V30 7879 C 700.387 -1.63647 1.19781 0
M  V30 7880 C 700.72 -1.92632 -0.246265 0
M  V30 7881 O 699.995 -1.54938 -1.17577 0
M  V30 7882 C 700.278 -2.97437 2.02985 0
M  V30 7883 C 700.131 -2.75406 3.55628 0
M  V30 7884 C 701.45 -3.98397 1.86997 0
M  V30 7885 H 698.569 -0.593841 0.436488 0
M  V30 7886 H 701.211 -1.02041 1.60273 0
M  V30 7887 H 699.361 -3.50018 1.68581 0
M  V30 7888 H 701.033 -2.2959 4.00107 0
M  V30 7889 H 699.276 -2.09856 3.79662 0
M  V30 7890 H 699.947 -3.70552 4.09139 0
M  V30 7891 H 702.423 -3.54986 2.17081 0
M  V30 7892 H 701.299 -4.89916 2.47536 0
M  V30 7893 H 701.56 -4.3424 0.829943 0
M  V30 7894 N 700.619 -1.13374 -1.09472 0
M  V30 7895 C 701.582 -0.813639 -2.14272 0
M  V30 7896 C 702.582 0.176677 -1.59826 0
M  V30 7897 O 703.772 -0.0503441 -1.74127 0
M  V30 7898 C 700.904 -0.210897 -3.40247 0
M  V30 7899 H 702.097 -1.74229 -2.44099 0
M  V30 7900 H 699.65 -0.938304 -1.25002 0
M  V30 7901 H 700.385 0.726998 -3.16046 0
M  V30 7902 H 700.17 -0.924048 -3.81056 0
M  V30 7903 H 701.66 -0.00377603 -4.176 0
M  V30 7904 N 702.098 1.27442 -0.927168 0
M  V30 7905 C 703.345 1.94391 -0.567324 0
M  V30 7906 C 703.673 1.72875 0.891321 0
M  V30 7907 O 702.928 1.05071 1.65102 0
M  V30 7908 C 703.227 3.47413 -0.838994 0
M  V30 7909 C 702.893 3.89049 -2.2793 0
M  V30 7910 C 701.555 4.00127 -2.67305 0
M  V30 7911 C 703.907 4.10154 -3.21595 0
M  V30 7912 C 701.235 4.29697 -3.99471 0
M  V30 7913 C 703.587 4.41208 -4.53341 0
M  V30 7914 C 702.251 4.50499 -4.92551 0
M  V30 7915 H 701.521 0.711325 -0.207598 0
M  V30 7916 H 704.168 1.51523 -1.17103 0
M  V30 7917 H 702.473 3.91503 -0.152609 0
M  V30 7918 H 704.17 3.97354 -0.53955 0
M  V30 7919 H 700.76 3.80962 -1.96381 0
M  V30 7920 H 704.944 4.01036 -2.92377 0
M  V30 7921 H 700.2 4.35099 -4.29533 0
M  V30 7922 H 704.374 4.56486 -5.25922 0
M  V30 7923 H 702.001 4.73167 -5.94994 0
M  V30 7924 N 703.576 0.692616 1.41565 0
M  V30 7925 C 704.822 0.222664 2.01574 0
M  V30 7926 C 705.155 -1.1737 1.54719 0
M  V30 7927 O 704.43 -1.79161 0.757084 0
M  V30 7928 C 704.713 0.277064 3.59033 0
M  V30 7929 C 704.566 1.71016 4.16021 0
M  V30 7930 C 705.885 -0.36479 4.38586 0
M  V30 7931 H 703.004 0.0823839 0.732381 0
M  V30 7932 H 705.646 0.880778 1.68352 0
M  V30 7933 H 703.796 -0.283288 3.87466 0
M  V30 7934 H 705.468 2.32413 3.98475 0
M  V30 7935 H 703.711 2.24525 3.71175 0
M  V30 7936 H 704.382 1.69978 5.25178 0
M  V30 7937 H 706.858 0.112404 4.15948 0
M  V30 7938 H 705.734 -0.296169 5.481 0
M  V30 7939 H 705.995 -1.44506 4.17816 0
M  V30 7940 N 705.054 -1.51416 0.437162 0
M  V30 7941 C 706.302 -2.01687 -0.129108 0
M  V30 7942 C 706.623 -1.32329 -1.43227 0
M  V30 7943 O 705.893 -0.457796 -1.90476 0
M  V30 7944 H 704.473 -0.745277 -0.0507023 0
M  V30 7945 H 707.135 -1.86075 0.579828 0
M  V30 7946 H 706.231 -3.10605 -0.305141 0
M  V30 7947 N 706.532 -0.168513 -1.56696 0
M  V30 7948 C 707.78 0.476216 -1.96409 0
M  V30 7949 C 708.101 1.63968 -1.05544 0
M  V30 7950 O 707.371 1.95525 -0.121235 0
M  V30 7951 H 705.951 0.178921 -0.725256 0
M  V30 7952 H 708.613 -0.249042 -1.93302 0
M  V30 7953 H 707.709 0.838094 -3.00637 0
M  V30 7954 N 708.01 1.57248 0.105221 0
M  V30 7955 C 709.259 1.84756 0.809198 0
M  V30 7956 C 709.572 0.756262 1.80389 0
M  V30 7957 O 710.778 0.918158 2.55504 0
M  V30 7958 C 709.234 3.27613 1.48989 0
M  V30 7959 C 708.842 4.44788 0.535484 0
M  V30 7960 C 710.586 3.64356 2.17819 0
M  V30 7961 C 708.493 5.78676 1.22019 0
M  V30 7962 H 707.423 0.689139 0.305946 0
M  V30 7963 H 710.074 1.83395 0.0620371 0
M  V30 7964 H 708.456 3.23485 2.28415 0
M  V30 7965 H 709.63 4.60243 -0.226557 0
M  V30 7966 H 707.945 4.16374 -0.0465769 0
M  V30 7967 H 710.542 4.61663 2.69761 0
M  V30 7968 H 710.885 2.92474 2.96251 0
M  V30 7969 H 711.418 3.70328 1.45264 0
M  V30 7970 H 708.157 6.53763 0.476875 0
M  V30 7971 H 707.677 5.67083 1.9539 0
M  V30 7972 H 709.356 6.22897 1.74952 0
M  V30 7973 N 709.488 -0.375779 1.53054 0
M  V30 7974 C 710.765 -1.13453 1.59336 0
M  V30 7975 C 711.145 -2.07379 0.394614 0
M  V30 7976 O 710.493 -2.2004 -0.616 0
M  V30 7977 C 710.703 -1.8826 2.93869 0
M  V30 7978 C 712.051 -2.43155 3.48081 0
M  V30 7979 O 713.075 -1.984 2.95831 0
M  V30 7980 O 711.934 -3.24944 4.39401 0
M  V30 7981 H 709.028 -0.519856 0.643179 0
M  V30 7982 H 711.574 -0.379865 1.65394 0
M  V30 7983 H 710.346 -1.19652 3.72558 0
M  V30 7984 H 709.969 -2.70658 2.91256 0
M  V30 7985 N 710.966 -1.44241 -0.634997 0
M  V30 7986 C 711.896 -1.53632 -1.7584 0
M  V30 7987 C 712.877 -0.389603 -1.65578 0
M  V30 7988 O 714.062 -0.609219 -1.84397 0
M  V30 7989 C 711.192 -1.47644 -3.14354 0
M  V30 7990 C 710.146 -2.60752 -3.394 0
M  V30 7991 C 709.472 -2.39817 -4.77904 0
M  V30 7992 C 710.772 -4.02921 -3.32343 0
M  V30 7993 H 712.466 -2.47662 -1.68238 0
M  V30 7994 H 710.012 -1.19197 -0.807969 0
M  V30 7995 H 711.965 -1.52815 -3.92716 0
M  V30 7996 H 710.689 -0.501284 -3.2273 0
M  V30 7997 H 709.348 -2.54965 -2.63417 0
M  V30 7998 H 708.996 -1.40502 -4.82978 0
M  V30 7999 H 708.696 -3.15649 -4.9562 0
M  V30 8000 H 710.22 -2.46799 -5.585 0
M  V30 8001 H 711.634 -4.10098 -4.00615 0
M  V30 8002 H 710.031 -4.78925 -3.61595 0
M  V30 8003 H 711.101 -4.26766 -2.30215 0
M  V30 8004 N 712.444 0.87505 -1.31075 0
M  V30 8005 C 713.407 1.96333 -1.18263 0
M  V30 8006 C 714.407 1.60416 -0.111106 0
M  V30 8007 O 715.597 1.7044 -0.359987 0
M  V30 8008 C 712.729 3.31036 -0.81414 0
M  V30 8009 H 713.922 2.09125 -2.14958 0
M  V30 8010 H 711.475 1.06271 -1.14614 0
M  V30 8011 H 712.21 3.23944 0.151875 0
M  V30 8012 H 711.995 3.58476 -1.58862 0
M  V30 8013 H 713.485 4.10842 -0.748249 0
M  V30 8014 N 713.922 1.13953 1.08869 0
M  V30 8015 C 715.152 0.926825 1.84644 0
M  V30 8016 C 715.56 -0.527941 1.81685 0
M  V30 8017 O 714.903 -1.37742 1.21543 0
M  V30 8018 C 714.965 1.34416 3.33426 0
M  V30 8019 C 714.629 2.81351 3.60126 0
M  V30 8020 C 715.626 3.79486 3.55368 0
M  V30 8021 C 713.311 3.1865 3.88288 0
M  V30 8022 C 715.305 5.1293 3.78393 0
M  V30 8023 C 712.992 4.5227 4.10968 0
M  V30 8024 C 713.99 5.4922 4.06013 0
M  V30 8025 O 713.678 6.80429 4.28102 0
M  V30 8026 H 713.41 0.33013 0.589907 0
M  V30 8027 H 715.964 1.51738 1.38436 0
M  V30 8028 H 714.194 0.696901 3.80368 0
M  V30 8029 H 715.883 1.10302 3.90626 0
M  V30 8030 H 716.649 3.52017 3.3363 0
M  V30 8031 H 712.528 2.43785 3.91267 0
M  V30 8032 H 716.072 5.88591 3.74442 0
M  V30 8033 H 711.969 4.79462 4.32188 0
M  V30 8034 H 712.737 6.86617 4.45533 0
M  V30 8035 N 715.4 -1.26948 0.933913 0
M  V30 8036 C 716.648 -1.93704 0.576484 0
M  V30 8037 C 716.969 -1.73702 -0.886145 0
M  V30 8038 O 716.239 -1.08838 -1.62884 0
M  V30 8039 H 714.819 -0.716812 0.210214 0
M  V30 8040 H 717.481 -1.54534 1.18766 0
M  V30 8041 H 716.577 -3.01987 0.788055 0
M  V30 8042 N 716.879 -0.700114 -1.41195 0
M  V30 8043 C 718.295 -0.372114 -1.55201 0
M  V30 8044 C 718.495 1.12053 -1.6747 0
M  V30 8045 O 717.551 1.90642 -1.65566 0
M  V30 8046 C 718.864 -1.12462 -2.78878 0
M  V30 8047 C 720.412 -1.10941 -2.92679 0
M  V30 8048 C 720.887 -1.84376 -4.19249 0
M  V30 8049 N 722.378 -1.81368 -4.26216 0
M  V30 8050 C 723.113 -2.35024 -5.23021 0
M  V30 8051 N 722.609 -2.9717 -6.25829 0
M  V30 8052 N 724.402 -2.25254 -5.14992 0
M  V30 8053 H 716.553 -1.66816 -1.31477 0
M  V30 8054 H 718.816 -0.704223 -0.634644 0
M  V30 8055 H 718.522 -2.17937 -2.76037 0
M  V30 8056 H 718.396 -0.706152 -3.70531 0
M  V30 8057 H 720.783 -0.062911 -2.95033 0
M  V30 8058 H 720.864 -1.56698 -2.02187 0
M  V30 8059 H 720.508 -2.89008 -4.17656 0
M  V30 8060 H 720.438 -1.3605 -5.08722 0
M  V30 8061 H 722.929 -1.36062 -3.52556 0
M  V30 8062 H 723.242 -3.35668 -6.96094 0
M  V30 8063 H 721.587 -3.01249 -6.26318 0
M  V30 8064 H 724.778 -1.76372 -4.33602 0
M  V30 8065 H 724.951 -2.67373 -5.90268 0
M  V30 8066 N 718.357 1.51182 -0.445186 0
M  V30 8067 C 719.603 2.03097 0.111049 0
M  V30 8068 C 719.958 1.32293 1.397 0
M  V30 8069 O 719.251 0.431529 1.86677 0
M  V30 8070 C 719.445 3.55408 0.376797 0
M  V30 8071 C 719.274 4.40969 -0.88185 0
M  V30 8072 C 718.044 4.85006 -1.41766 0
M  V30 8073 C 720.242 4.82876 -1.77017 0
M  V30 8074 N 718.224 5.54804 -2.62803 0
M  V30 8075 C 719.595 5.51821 -2.82654 0
M  V30 8076 C 721.65 4.64855 -1.78365 0
M  V30 8077 C 720.353 6.04655 -3.89595 0
M  V30 8078 C 722.379 5.18612 -2.84246 0
M  V30 8079 C 721.741 5.87509 -3.88603 0
M  V30 8080 H 717.84 0.781999 0.0012696 0
M  V30 8081 H 720.424 1.84976 -0.60761 0
M  V30 8082 H 718.595 3.73528 1.06449 0
M  V30 8083 H 720.327 3.93985 0.925082 0
M  V30 8084 H 717.082 4.6355 -0.970476 0
M  V30 8085 H 717.506 5.94326 -3.24201 0
M  V30 8086 H 722.148 4.11043 -0.990119 0
M  V30 8087 H 719.866 6.57518 -4.69782 0
M  V30 8088 H 723.452 5.06515 -2.86241 0
M  V30 8089 H 722.332 6.28358 -4.69186 0
M  V30 8090 N 719.835 0.176821 1.56605 0
M  V30 8091 C 721.112 -0.513365 1.88743 0
M  V30 8092 C 721.492 -1.80929 1.08757 0
M  V30 8093 O 720.84 -2.27765 0.183127 0
M  V30 8094 C 721.05 -0.749925 3.40848 0
M  V30 8095 C 722.398 -1.07747 4.10701 0
M  V30 8096 O 723.422 -0.838277 3.46196 0
M  V30 8097 O 722.281 -1.52901 5.24675 0
M  V30 8098 H 719.375 -0.265296 0.783292 0
M  V30 8099 H 721.921 0.215669 1.68324 0
M  V30 8100 H 720.693 0.16599 3.90948 0
M  V30 8101 H 720.316 -1.53208 3.66897 0
M  V30 8102 N 721.313 -1.57302 -0.09688 0
M  V30 8103 C 722.59 -1.7701 -0.832272 0
M  V30 8104 C 722.97 -0.758025 -1.97021 0
M  V30 8105 O 722.318 0.213824 -2.27497 0
M  V30 8106 C 722.528 -3.22725 -1.32851 0
M  V30 8107 C 723.876 -3.85856 -1.772 0
M  V30 8108 O 724.9 -3.26464 -1.42478 0
M  V30 8109 O 723.759 -4.90295 -2.41398 0
M  V30 8110 H 720.853 -0.725558 -0.396856 0
M  V30 8111 H 723.399 -1.69516 -0.0789005 0
M  V30 8112 H 722.171 -3.87921 -0.51312 0
M  V30 8113 H 721.794 -3.34845 -2.14394 0
M  V30 8114 N 722.791 0.367657 -1.53252 0
M  V30 8115 C 723.739 1.47061 -1.8021 0
M  V30 8116 C 724.733 1.55539 -0.671112 0
M  V30 8117 O 725.939 1.58451 -0.854014 0
M  V30 8118 H 722.314 0.489868 -0.570555 0
M  V30 8119 H 724.285 1.21527 -2.72532 0
M  V30 8120 C 723.034 2.83924 -2.00706 0
M  V30 8121 H 722.357 2.78158 -2.87172 0
M  V30 8122 H 723.797 3.60281 -2.23547 0
M  V30 8123 C 722.256 3.27613 -0.785568 0
M  V30 8124 O 722.786 4.01691 0.0267459 0
M  V30 8125 N 720.992 2.84134 -0.609597 0
M  V30 8126 H 720.539 2.24017 -1.27178 0
M  V30 8127 H 720.497 3.13723 0.206281 0
M  V30 8128 N 724.269 1.44576 0.627338 0
M  V30 8129 C 725.179 1.54232 1.76776 0
M  V30 8130 C 726.195 0.427782 1.6866 0
M  V30 8131 O 727.371 0.685671 1.89369 0
M  V30 8132 C 724.436 1.48738 3.13174 0
M  V30 8133 C 723.497 2.71074 3.32893 0
M  V30 8134 C 722.73 2.65832 4.62784 0
M  V30 8135 O 722.953 1.72048 5.43834 0
M  V30 8136 O 721.887 3.56742 4.84787 0
M  V30 8137 H 725.713 2.50586 1.71582 0
M  V30 8138 H 723.298 1.26865 0.789028 0
M  V30 8139 H 725.18 1.48211 3.94476 0
M  V30 8140 H 723.855 0.555292 3.18902 0
M  V30 8141 H 722.762 2.77168 2.51254 0
M  V30 8142 H 724.095 3.63342 3.32029 0
M  V30 8143 N 725.747 -0.868086 1.31537 0
M  V30 8144 C 726.697 -1.96321 1.1594 0
M  V30 8145 C 727.681 -1.60748 0.0698962 0
M  V30 8146 O 728.873 -1.74524 0.295011 0
M  V30 8147 C 726.002 -3.32073 0.870789 0
M  V30 8148 C 725.088 -3.73907 2.00136 0
M  V30 8149 N 725.479 -3.87685 3.24859 0
M  V30 8150 C 723.777 -4.03433 1.90152 0
M  V30 8151 C 724.478 -4.23454 3.98825 0
M  V30 8152 N 723.454 -4.34242 3.27009 0
M  V30 8153 H 727.256 -2.05088 2.10514 0
M  V30 8154 H 724.77 -1.059 1.23122 0
M  V30 8155 H 726.767 -4.10279 0.740034 0
M  V30 8156 H 725.427 -3.24631 -0.0667068 0
M  V30 8157 H 726.438 -3.72363 3.59953 0
M  V30 8158 H 723.115 -4.0437 1.03879 0
M  V30 8159 H 724.505 -4.41696 5.06314 0
M  V30 8160 N 727.225 -1.14528 -1.08264 0
M  V30 8161 C 728.641 -0.885976 -1.3275 0
M  V30 8162 C 728.841 0.472096 -1.95892 0
M  V30 8163 O 727.897 1.21606 -2.21288 0
M  V30 8164 C 729.21 -2.01982 -2.22764 0
M  V30 8165 C 730.758 -2.05329 -2.36239 0
M  V30 8166 C 731.233 -3.1801 -3.29596 0
M  V30 8167 N 732.724 -3.17598 -3.37173 0
M  V30 8168 C 733.459 -4.01426 -4.09444 0
M  V30 8169 N 732.955 -4.95297 -4.8441 0
M  V30 8170 N 734.748 -3.89482 -4.0529 0
M  V30 8171 H 726.899 -2.01996 -0.656607 0
M  V30 8172 H 729.162 -0.880274 -0.351884 0
M  V30 8173 H 728.868 -2.99964 -1.83615 0
M  V30 8174 H 728.742 -1.94421 -3.23234 0
M  V30 8175 H 731.129 -1.07953 -2.74646 0
M  V30 8176 H 731.21 -2.1696 -1.35506 0
M  V30 8177 H 730.854 -4.15633 -2.9191 0
M  V30 8178 H 730.784 -3.03616 -4.30261 0
M  V30 8179 H 733.275 -2.4961 -2.83731 0
M  V30 8180 H 733.588 -5.55723 -5.37021 0
M  V30 8181 H 731.933 -4.99293 -4.83457 0
M  V30 8182 H 735.124 -3.15465 -3.45832 0
M  V30 8183 H 735.297 -4.55039 -4.6135 0
M  V30 8184 N 728.703 1.26451 -0.940633 0
M  V30 8185 C 729.633 2.28773 -0.467479 0
M  V30 8186 C 730.614 1.63218 0.478955 0
M  V30 8187 O 731.799 1.90427 0.380929 0
M  V30 8188 C 728.929 3.46259 0.268656 0
M  V30 8189 C 727.883 4.23898 -0.591171 0
M  V30 8190 C 727.209 5.33993 0.274891 0
M  V30 8191 C 728.509 4.87974 -1.86223 0
M  V30 8192 H 730.203 2.68601 -1.32265 0
M  V30 8193 H 727.749 1.29123 -0.637436 0
M  V30 8194 H 729.702 4.16951 0.610696 0
M  V30 8195 H 728.426 3.05383 1.15796 0
M  V30 8196 H 727.085 3.54969 -0.916098 0
M  V30 8197 H 726.733 4.89358 1.16353 0
M  V30 8198 H 726.433 5.86849 -0.297006 0
M  V30 8199 H 727.957 6.07523 0.612213 0
M  V30 8200 H 729.371 5.50883 -1.58747 0
M  V30 8201 H 727.768 5.50945 -2.37866 0
M  V30 8202 H 728.838 4.10945 -2.57394 0
M  V30 8203 N 730.181 0.707592 1.40822 0
M  V30 8204 C 731.409 0.253073 2.05346 0
M  V30 8205 C 731.824 -1.10218 1.53289 0
M  V30 8206 O 731.181 -1.69112 0.686105 0
M  V30 8207 C 731.232 0.215411 3.60858 0
M  V30 8208 O 730.953 1.51714 4.10992 0
M  V30 8209 C 732.454 -0.258636 4.42545 0
M  V30 8210 H 729.674 0.115256 0.661027 0
M  V30 8211 H 732.218 0.963555 1.80377 0
M  V30 8212 H 730.373 -0.445978 3.84824 0
M  V30 8213 H 730.787 1.41226 5.05129 0
M  V30 8214 H 732.261 -0.233849 5.51504 0
M  V30 8215 H 732.738 -1.2995 4.19535 0
M  V30 8216 H 733.344 0.372186 4.23668 0
M  V30 8217 N 731.66 -1.50943 0.453197 0
M  V30 8218 C 732.937 -1.94872 -0.168633 0
M  V30 8219 C 733.317 -1.39272 -1.5864 0
M  V30 8220 O 732.665 -0.586272 -2.20851 0
M  V30 8221 C 732.875 -3.48757 -0.130217 0
M  V30 8222 C 734.223 -4.23331 -0.327975 0
M  V30 8223 O 735.247 -3.55594 -0.207619 0
M  V30 8224 O 734.106 -5.43529 -0.569077 0
M  V30 8225 H 731.2 -0.818042 -0.121394 0
M  V30 8226 H 733.746 -1.61782 0.512316 0
M  V30 8227 H 732.518 -3.81725 0.860346 0
M  V30 8228 H 732.141 -3.88333 -0.853397 0
M  V30 8229 N 733.138 -0.185124 -1.56509 0
M  V30 8230 C 734.384 0.456934 -1.97585 0
M  V30 8231 C 734.717 1.61957 -1.07161 0
M  V30 8232 O 733.992 1.9412 -0.121546 0
M  V30 8233 C 734.275 0.926666 -3.47973 0
M  V30 8234 C 734.128 -0.237097 -4.49175 0
M  V30 8235 C 735.447 1.79561 -4.01803 0
M  V30 8236 H 732.566 0.164619 -0.71838 0
M  V30 8237 H 735.208 -0.274039 -1.88013 0
M  V30 8238 H 733.358 1.54954 -3.56261 0
M  V30 8239 H 735.03 -0.87454 -4.52934 0
M  V30 8240 H 733.273 -0.890446 -4.24563 0
M  V30 8241 H 733.944 0.133924 -5.51838 0
M  V30 8242 H 736.42 1.27039 -3.96232 0
M  V30 8243 H 735.296 2.09327 -5.07418 0
M  V30 8244 H 735.557 2.74629 -3.46455 0
M  V30 8245 N 734.616 1.57351 0.0885366 0
M  V30 8246 C 735.864 1.86051 0.789262 0
M  V30 8247 C 736.185 0.774763 1.78948 0
M  V30 8248 O 735.455 -0.198324 1.94894 0
M  V30 8249 H 734.035 0.686508 0.294475 0
M  V30 8250 H 736.697 1.94779 0.0686055 0
M  V30 8251 H 735.793 2.83007 1.31581 0
M  V30 8252 N 736.094 -0.359525 1.53444 0
M  V30 8253 C 737.319 -1.12644 1.74144 0
M  V30 8254 C 737.744 -1.82082 0.472007 0
M  V30 8255 O 737.102 -1.71962 -0.57436 0
M  V30 8256 C 737.15 -2.12781 2.9113 0
M  V30 8257 O 736.254 -3.19984 2.60162 0
M  V30 8258 H 735.595 -0.326553 0.578152 0
M  V30 8259 H 738.125 -0.414798 2.00351 0
M  V30 8260 H 738.135 -2.56278 3.17467 0
M  V30 8261 H 736.81 -1.61634 3.83207 0
M  V30 8262 H 735.387 -2.81417 2.44661 0
M  V30 8263 N 737.572 -1.44907 -0.619662 0
M  V30 8264 C 738.818 -1.48512 -1.38102 0
M  V30 8265 C 739.151 -0.121686 -1.93818 0
M  V30 8266 O 738.426 0.862256 -1.74343 0
M  V30 8267 C 738.709 -2.55469 -2.53787 0
M  V30 8268 C 738.562 -4.01212 -2.03345 0
M  V30 8269 C 739.881 -2.58821 -3.55949 0
M  V30 8270 H 737 -0.540712 -0.500799 0
M  V30 8271 H 739.642 -1.7665 -0.69962 0
M  V30 8272 H 737.792 -2.31606 -3.11915 0
M  V30 8273 H 739.464 -4.36245 -1.49959 0
M  V30 8274 H 737.707 -4.12443 -1.34438 0
M  V30 8275 H 738.378 -4.71717 -2.86683 0
M  V30 8276 H 740.854 -2.80172 -3.07641 0
M  V30 8277 H 739.73 -3.35542 -4.34399 0
M  V30 8278 H 739.991 -1.63451 -4.10775 0
M  V30 8279 N 739.05 0.861098 -1.31996 0
M  V30 8280 C 739.997 1.96912 -1.20392 0
M  V30 8281 C 740.967 1.65869 -0.0875899 0
M  V30 8282 O 742.152 1.88992 -0.262011 0
M  V30 8283 C 739.292 3.32435 -0.926335 0
M  V30 8284 C 738.405 3.76018 -2.12684 0
M  V30 8285 C 737.54 5.00301 -1.78529 0
M  V30 8286 C 736.579 5.36357 -2.94937 0
M  V30 8287 N 735.716 6.51818 -2.60917 0
M  V30 8288 H 740.556 2.06169 -2.1517 0
M  V30 8289 H 738.093 1.00917 -1.07024 0
M  V30 8290 H 740.051 4.10478 -0.745917 0
M  V30 8291 H 738.681 3.22796 -0.0153578 0
M  V30 8292 H 737.733 2.93683 -2.41774 0
M  V30 8293 H 739.045 3.98664 -2.99781 0
M  V30 8294 H 738.199 5.86034 -1.57001 0
M  V30 8295 H 736.938 4.79578 -0.886356 0
M  V30 8296 H 735.943 4.49139 -3.17103 0
M  V30 8297 H 737.168 5.59041 -3.85552 0
M  V30 8298 H 735.114 6.32624 -1.73558 0
M  V30 8299 H 735.031 6.7445 -3.41544 0
M  V30 8300 H 736.299 7.4072 -2.42804 0
M  V30 8301 N 740.528 1.15101 1.07655 0
M  V30 8302 C 741.944 0.893004 1.32279 0
M  V30 8303 C 742.144 -0.461701 1.96139 0
M  V30 8304 O 741.2 -1.20431 2.21929 0
M  V30 8305 C 742.513 2.03161 2.21689 0
M  V30 8306 C 744.061 2.06579 2.35147 0
M  V30 8307 C 744.536 3.19754 3.27905 0
M  V30 8308 N 746.027 3.19382 3.35484 0
M  V30 8309 C 746.762 4.03592 4.07309 0
M  V30 8310 N 746.258 4.97859 4.81776 0
M  V30 8311 N 748.051 3.91626 4.03219 0
M  V30 8312 H 740.202 2.02341 0.645886 0
M  V30 8313 H 742.465 0.882127 0.347211 0
M  V30 8314 H 742.171 3.00934 1.82021 0
M  V30 8315 H 742.045 1.96132 3.22199 0
M  V30 8316 H 744.432 1.09408 2.74069 0
M  V30 8317 H 744.513 2.17676 1.34353 0
M  V30 8318 H 744.157 4.17175 2.89702 0
M  V30 8319 H 744.087 3.05893 4.28645 0
M  V30 8320 H 746.578 2.51112 2.82403 0
M  V30 8321 H 746.891 5.58563 5.34067 0
M  V30 8322 H 745.236 5.0185 4.80803 0
M  V30 8323 H 748.427 3.17295 3.44154 0
M  V30 8324 H 748.6 4.57479 4.5893 0
M  V30 8325 N 742.006 -1.2595 0.947325 0
M  V30 8326 C 743.252 -1.9375 0.599064 0
M  V30 8327 C 743.585 -1.74088 -0.860632 0
M  V30 8328 O 742.86 -1.08158 -1.61654 0
M  V30 8329 C 743.143 -3.47353 0.949634 0
M  V30 8330 C 742.996 -3.76273 2.46452 0
M  V30 8331 C 744.315 -4.37589 0.469442 0
M  V30 8332 H 741.434 -0.703674 0.219115 0
M  V30 8333 H 744.076 -1.48705 1.18266 0
M  V30 8334 H 742.226 -3.8585 0.453008 0
M  V30 8335 H 743.898 -3.47455 3.03435 0
M  V30 8336 H 742.141 -3.22135 2.90537 0
M  V30 8337 H 742.812 -4.83664 2.66032 0
M  V30 8338 H 745.288 -4.06353 0.89534 0
M  V30 8339 H 744.164 -5.43841 0.7435 0
M  V30 8340 H 744.425 -4.37579 -0.630618 0
M  V30 8341 N 743.484 -0.715051 -1.40445 0
M  V30 8342 C 744.712 -0.263959 -2.05209 0
M  V30 8343 C 745.127 1.09403 -1.53871 0
M  V30 8344 O 744.484 1.68746 -0.695064 0
M  V30 8345 C 744.535 -0.234545 -3.60738 0
M  V30 8346 O 744.256 -1.53891 -4.10182 0
M  V30 8347 C 745.757 0.235164 -4.42676 0
M  V30 8348 H 742.977 -0.11876 -0.660407 0
M  V30 8349 H 745.521 -0.973107 -1.79864 0
M  V30 8350 H 743.676 0.425563 -3.85055 0
M  V30 8351 H 744.09 -1.43903 -5.04373 0
M  V30 8352 H 745.564 0.204598 -5.51621 0
M  V30 8353 H 746.041 1.27724 -4.20218 0
M  V30 8354 H 746.647 -0.394649 -4.23465 0
M  V30 8355 N 744.962 1.50701 -0.461195 0
M  V30 8356 C 746.187 2.07171 0.0974773 0
M  V30 8357 C 746.612 1.32391 1.3362 0
M  V30 8358 O 745.97 0.368676 1.77512 0
M  V30 8359 C 746.018 3.58651 0.374409 0
M  V30 8360 O 745.122 3.85816 1.4567 0
M  V30 8361 H 744.463 0.663944 -0.00862047 0
M  V30 8362 H 746.993 1.94021 -0.649394 0
M  V30 8363 H 747.003 4.03295 0.617843 0
M  V30 8364 H 745.678 4.12498 -0.530829 0
M  V30 8365 H 744.255 3.53018 1.20136 0
M  V30 8366 N 746.441 0.193421 1.56409 0
M  V30 8367 C 747.689 -0.444908 1.97142 0
M  V30 8368 C 748.01 -1.62268 1.08139 0
M  V30 8369 O 747.28 -1.95307 0.152326 0
M  V30 8370 H 745.86 -0.16736 0.728011 0
M  V30 8371 H 748.522 0.279763 1.92882 0
M  V30 8372 H 747.618 -0.790159 3.01932 0
M  V30 8373 N 747.919 -1.57396 -0.0801906 0
M  V30 8374 C 749.33 -1.75642 -0.633002 0
M  V30 8375 C 749.681 -0.817708 -1.78348 0
M  V30 8376 O 748.806 0.000233743 -2.164 0
M  V30 8377 C 749.401 -3.18502 -1.15507 0
M  V30 8378 C 747.96 -3.38121 -1.65381 0
M  V30 8379 C 747.107 -2.71386 -0.569661 0
M  V30 8380 H 750.058 -1.58027 0.145949 0
M  V30 8381 H 750.079 -3.22198 -2.02408 0
M  V30 8382 H 749.591 -3.86799 -0.317515 0
M  V30 8383 H 747.692 -2.74926 -2.51488 0
M  V30 8384 H 747.805 -4.46521 -1.73654 0
M  V30 8385 H 746.169 -2.33702 -1.0127 0
M  V30 8386 H 746.952 -3.42332 0.257561 0
M  V30 8387 N 749.397 0.351382 -1.53633 0
M  V30 8388 C 750.622 1.11718 -1.74739 0
M  V30 8389 C 751.047 1.81829 -0.481657 0
M  V30 8390 O 750.405 1.72264 0.565233 0
M  V30 8391 C 750.453 2.11234 -2.92254 0
M  V30 8392 O 749.557 3.186 -2.61855 0
M  V30 8393 H 748.898 0.323482 -0.579875 0
M  V30 8394 H 751.428 0.404167 -2.00568 0
M  V30 8395 H 751.438 2.54591 -3.18822 0
M  V30 8396 H 750.113 1.59599 -3.84058 0
M  V30 8397 H 748.69 2.80115 -2.4615 0
M  V30 8398 N 750.875 1.45233 0.611969 0
M  V30 8399 C 751.805 1.5641 1.73373 0
M  V30 8400 C 752.786 0.415896 1.64937 0
M  V30 8401 O 753.971 0.638478 1.83404 0
M  V30 8402 C 751.101 1.52627 3.11965 0
M  V30 8403 C 750.055 2.66119 3.35208 0
M  V30 8404 C 749.381 2.4739 4.74028 0
M  V30 8405 C 750.681 4.08157 3.25891 0
M  V30 8406 H 752.375 2.50307 1.64277 0
M  V30 8407 H 749.921 1.20467 0.788904 0
M  V30 8408 H 751.874 1.59043 3.90235 0
M  V30 8409 H 750.598 0.552564 3.21892 0
M  V30 8410 H 749.257 2.59123 2.59327 0
M  V30 8411 H 748.905 1.48168 4.80682 0
M  V30 8412 H 748.605 3.23494 4.90536 0
M  V30 8413 H 750.129 2.55653 5.54503 0
M  V30 8414 H 751.543 4.1642 3.9404 0
M  V30 8415 H 749.94 4.84617 3.5393 0
M  V30 8416 H 751.01 4.30374 2.23397 0
M  V30 8417 N 752.353 -0.854086 1.3245 0
M  V30 8418 C 753.601 -1.60513 1.228 0
M  V30 8419 C 753.922 -1.93865 -0.210073 0
M  V30 8420 O 753.192 -1.59673 -1.13496 0
M  V30 8421 H 751.772 -0.595099 0.451516 0
M  V30 8422 H 754.434 -1.0216 1.6598 0
M  V30 8423 H 753.53 -2.54182 1.81102 0
M  V30 8424 N 753.831 -1.1567 -1.07043 0
M  V30 8425 C 755.056 -0.957946 -1.83952 0
M  V30 8426 C 755.481 0.488807 -1.81638 0
M  V30 8427 O 754.839 1.34869 -1.21162 0
M  V30 8428 C 754.887 -1.48064 -3.288 0
M  V30 8429 O 753.991 -0.681921 -4.06723 0
M  V30 8430 H 753.332 -0.341453 -0.569479 0
M  V30 8431 H 755.862 -1.53728 -1.35015 0
M  V30 8432 H 755.872 -1.49484 -3.7963 0
M  V30 8433 H 754.547 -2.53388 -3.29799 0
M  V30 8434 H 753.124 -0.737612 -3.65532 0
M  V30 8435 N 755.309 1.25446 -0.953992 0
M  V30 8436 C 756.239 2.28264 -0.491717 0
M  V30 8437 C 757.22 1.63717 0.461617 0
M  V30 8438 O 758.405 1.90821 0.36071 0
M  V30 8439 C 755.535 3.46525 0.231915 0
M  V30 8440 C 754.489 4.23247 -0.636098 0
M  V30 8441 C 753.815 5.34254 0.218238 0
M  V30 8442 C 755.115 4.85971 -1.91389 0
M  V30 8443 H 756.809 2.67183 -1.35106 0
M  V30 8444 H 754.355 1.2844 -0.651095 0
M  V30 8445 H 756.308 4.17576 0.566439 0
M  V30 8446 H 755.032 3.06594 1.12551 0
M  V30 8447 H 753.691 3.53978 -0.953696 0
M  V30 8448 H 753.339 4.90564 1.11156 0
M  V30 8449 H 753.039 5.86501 -0.359232 0
M  V30 8450 H 754.563 6.08138 0.547743 0
M  V30 8451 H 755.977 5.49168 -1.64581 0
M  V30 8452 H 754.374 5.48391 -2.43696 0
M  V30 8453 H 755.444 4.08192 -2.61738 0
M  V30 8454 N 756.787 0.722489 1.40064 0
M  V30 8455 C 758.198 0.336507 1.83642 0
M  V30 8456 C 758.549 -1.13002 1.6039 0
M  V30 8457 O 757.674 -1.87036 1.08842 0
M  V30 8458 C 758.269 0.603985 3.33373 0
M  V30 8459 C 756.828 0.271637 3.75419 0
M  V30 8460 C 755.975 0.872898 2.63203 0
M  V30 8461 H 758.926 0.921108 1.29233 0
M  V30 8462 H 758.947 -0.128471 3.80283 0
M  V30 8463 H 758.459 1.67141 3.50265 0
M  V30 8464 H 756.56 -0.790455 3.64119 0
M  V30 8465 H 756.673 0.745457 4.73265 0
M  V30 8466 H 755.037 0.300431 2.52922 0
M  V30 8467 H 755.82 1.94473 2.82905 0
M  V30 8468 N 758.265 -1.50454 0.469181 0
M  V30 8469 C 759.676 -1.86695 0.0136034 0
M  V30 8470 C 760.027 -1.38413 -1.39055 0
M  V30 8471 O 759.152 -0.748294 -2.03051 0
M  V30 8472 C 759.747 -3.38795 0.0179098 0
M  V30 8473 C 758.306 -3.74455 -0.382191 0
M  V30 8474 C 757.453 -2.74338 0.404207 0
M  V30 8475 H 760.404 -1.43225 0.683547 0
M  V30 8476 H 760.425 -3.72321 -0.78468 0
M  V30 8477 H 759.937 -3.73906 1.04 0
M  V30 8478 H 758.038 -3.44944 -1.4087 0
M  V30 8479 H 758.151 -4.79025 -0.084862 0
M  V30 8480 H 756.515 -2.54305 -0.141829 0
M  V30 8481 H 757.298 -3.12293 1.42577 0
M  V30 8482 N 759.743 -0.201713 -1.56304 0
M  V30 8483 C 760.706 0.702811 -2.18159 0
M  V30 8484 C 761.706 1.13619 -1.13787 0
M  V30 8485 O 762.896 1.0482 -1.39134 0
M  V30 8486 C 760.028 1.96032 -2.78898 0
M  V30 8487 H 761.221 0.163836 -2.99452 0
M  V30 8488 H 758.774 0.04791 -1.56227 0
M  V30 8489 H 759.509 2.54165 -2.01421 0
M  V30 8490 H 759.294 1.65824 -3.55309 0
M  V30 8491 H 760.784 2.60519 -3.26373 0
M  V30 8492 N 761.222 1.57436 0.0718424 0
M  V30 8493 C 762.185 2.02703 1.06977 0
M  V30 8494 C 763.185 0.924062 1.31597 0
M  V30 8495 O 764.375 1.18894 1.27318 0
M  V30 8496 C 761.507 2.40763 2.41342 0
M  V30 8497 H 762.7 2.92098 0.679619 0
M  V30 8498 H 760.253 1.5304 0.317565 0
M  V30 8499 H 760.988 1.54394 2.8519 0
M  V30 8500 H 760.773 3.21249 2.24814 0
M  V30 8501 H 762.263 2.76361 3.13073 0
M  V30 8502 N 762.7 -0.34323 1.53817 0
M  V30 8503 C 763.633 -1.44472 1.76644 0
M  V30 8504 C 764.611 -1.50498 0.615556 0
M  V30 8505 O 765.795 -1.6821 0.850751 0
M  V30 8506 C 762.922 -2.82705 1.86536 0
M  V30 8507 C 761.968 -2.94302 3.08688 0
M  V30 8508 S 762.801 -2.60739 4.67735 0
M  V30 8509 C 763.957 -4.01079 4.80506 0
M  V30 8510 H 764.19 -1.24893 2.69794 0
M  V30 8511 H 761.723 -0.538915 1.4469 0
M  V30 8512 H 763.681 -3.62342 1.92921 0
M  V30 8513 H 762.342 -2.9958 0.943975 0
M  V30 8514 H 761.535 -3.95593 3.12286 0
M  V30 8515 H 761.137 -2.22614 3.00531 0
M  V30 8516 H 763.429 -4.95603 4.61935 0
M  V30 8517 H 764.372 -4.02475 5.82597 0
M  V30 8518 H 764.78 -3.89119 4.08958 0
M  V30 8519 N 764.178 -1.45556 -0.604258 0
M  V30 8520 C 765.088 -1.57025 -1.74299 0
M  V30 8521 C 766.104 -0.45456 -1.67958 0
M  V30 8522 O 767.28 -0.715711 -1.88254 0
M  V30 8523 C 764.345 -1.53702 -3.10768 0
M  V30 8524 C 763.406 -2.76335 -3.28538 0
M  V30 8525 C 762.639 -2.73161 -4.58496 0
M  V30 8526 O 762.862 -1.80678 -5.41028 0
M  V30 8527 O 761.796 -3.64409 -4.79051 0
M  V30 8528 H 765.622 -2.53284 -1.67573 0
M  V30 8529 H 763.207 -1.28104 -0.768745 0
M  V30 8530 H 765.089 -1.54468 -3.92068 0
M  V30 8531 H 763.764 -0.605957 -3.17978 0
M  V30 8532 H 762.671 -2.8113 -2.46813 0
M  V30 8533 H 764.004 -3.68578 -3.26207 0
M  V30 8534 N 765.656 0.84705 -1.32902 0
M  V30 8535 C 766.881 1.63925 -1.27056 0
M  V30 8536 C 767.306 1.87443 0.157136 0
M  V30 8537 O 766.664 1.43266 1.11106 0
M  V30 8538 C 766.712 2.97134 -2.04313 0
M  V30 8539 O 765.816 3.88049 -1.39614 0
M  V30 8540 H 765.157 0.499477 -0.437514 0
M  V30 8541 H 767.687 1.05443 -1.75336 0
M  V30 8542 H 767.697 3.46896 -2.14772 0
M  V30 8543 H 766.372 2.79339 -3.08128 0
M  V30 8544 H 764.949 3.46525 -1.3775 0
M  V30 8545 N 767.134 1.16236 1.06428 0
M  V30 8546 C 768.067 0.81119 2.13295 0
M  V30 8547 C 769.045 -0.216555 1.61151 0
M  V30 8548 O 770.229 -0.100949 1.88229 0
M  V30 8549 C 767.356 0.207901 3.38061 0
M  V30 8550 C 766.402 1.20904 4.09004 0
M  V30 8551 S 767.235 2.75513 4.59187 0
M  V30 8552 C 768.391 2.1663 5.87216 0
M  V30 8553 H 768.624 1.71632 2.42755 0
M  V30 8554 H 766.157 0.985693 1.18842 0
M  V30 8555 H 768.115 -0.133715 4.10282 0
M  V30 8556 H 766.776 -0.67497 3.06762 0
M  V30 8557 H 765.969 0.735326 4.98607 0
M  V30 8558 H 765.571 1.49567 3.42791 0
M  V30 8559 H 767.863 1.53413 6.59902 0
M  V30 8560 H 768.806 3.04437 6.39315 0
M  V30 8561 H 769.214 1.60565 5.41183 0
M  V30 8562 N 768.612 -1.24939 0.960631 0
M  V30 8563 C 769.522 -2.29374 0.492435 0
M  V30 8564 C 770.538 -1.68262 -0.443154 0
M  V30 8565 O 771.714 -1.98875 -0.31793 0
M  V30 8566 C 768.779 -3.46023 -0.216626 0
M  V30 8567 C 767.84 -4.22557 0.757915 0
M  V30 8568 C 767.073 -5.33636 0.0825969 0
M  V30 8569 O 767.296 -5.59084 -1.13054 0
M  V30 8570 O 766.23 -5.96939 0.771177 0
M  V30 8571 H 770.056 -2.71525 1.36044 0
M  V30 8572 H 767.641 -1.30499 0.72735 0
M  V30 8573 H 769.523 -4.16885 -0.615241 0
M  V30 8574 H 768.198 -3.05862 -1.05971 0
M  V30 8575 H 767.105 -3.54099 1.20685 0
M  V30 8576 H 768.438 -4.66516 1.5692 0
M  V30 8577 N 770.09 -0.729906 -1.39679 0
M  V30 8578 C 771.315 -0.284345 -2.05442 0
M  V30 8579 C 771.74 1.07056 -1.54663 0
M  V30 8580 O 771.098 1.67732 -0.688157 0
M  V30 8581 C 771.146 -0.290089 -3.59431 0
M  V30 8582 O 770.25 0.723978 -4.05995 0
M  V30 8583 H 769.591 -0.130311 -0.651088 0
M  V30 8584 H 772.121 -0.994403 -1.78809 0
M  V30 8585 H 772.131 -0.132712 -4.07784 0
M  V30 8586 H 770.806 -1.27877 -3.95753 0
M  V30 8587 H 769.383 0.533154 -3.69069 0
M  V30 8588 N 771.568 1.50203 -0.477153 0
M  V30 8589 C 772.498 2.31517 0.303646 0
M  V30 8590 C 773.479 1.38696 0.984753 0
M  V30 8591 O 774.664 1.67615 0.980758 0
M  V30 8592 C 771.794 3.18598 1.38249 0
M  V30 8593 C 770.748 4.2002 0.822645 0
M  V30 8594 C 770.074 4.95878 2.00024 0
M  V30 8595 C 771.374 5.22023 -0.170185 0
M  V30 8596 H 773.068 2.97042 -0.375027 0
M  V30 8597 H 770.614 1.42848 -0.181802 0
M  V30 8598 H 772.567 3.74282 1.93625 0
M  V30 8599 H 771.291 2.5097 2.09002 0
M  V30 8600 H 769.95 3.65445 0.290813 0
M  V30 8601 H 769.598 4.24717 2.69489 0
M  V30 8602 H 769.298 5.64487 1.63183 0
M  V30 8603 H 770.822 5.54399 2.55878 0
M  V30 8604 H 772.236 5.72543 0.294606 0
M  V30 8605 H 770.633 5.98386 -0.453181 0
M  V30 8606 H 771.703 4.72396 -1.09408 0
M  V30 8607 N 773.046 0.209999 1.56195 0
M  V30 8608 C 774.462 -0.145598 1.58934 0
M  V30 8609 C 774.662 -1.59868 1.22656 0
M  V30 8610 O 773.718 -2.33689 0.956336 0
M  V30 8611 C 775.031 0.170243 3.00218 0
M  V30 8612 C 776.579 0.111548 3.12801 0
M  V30 8613 C 777.054 0.400904 4.56242 0
M  V30 8614 N 778.545 0.350058 4.61875 0
M  V30 8615 C 779.28 0.547598 5.70779 0
M  V30 8616 N 778.776 0.806291 6.88092 0
M  V30 8617 N 780.569 0.480827 5.6004 0
M  V30 8618 H 772.72 1.15804 1.78054 0
M  V30 8619 H 774.983 0.463326 0.827063 0
M  V30 8620 H 774.689 1.17833 3.31373 0
M  V30 8621 H 774.563 -0.520208 3.73596 0
M  V30 8622 H 776.95 -0.887162 2.81449 0
M  V30 8623 H 777.031 0.835302 2.41777 0
M  V30 8624 H 776.675 1.397 4.8831 0
M  V30 8625 H 776.605 -0.34391 5.25476 0
M  V30 8626 H 779.096 0.157334 3.77572 0
M  V30 8627 H 779.409 0.945433 7.66995 0
M  V30 8628 H 777.754 0.843355 6.89864 0
M  V30 8629 H 780.945 0.279037 4.67268 0
M  V30 8630 H 781.118 0.638189 6.4485 0
M  V30 8631 N 774.524 -1.57472 -0.0634922 0
M  V30 8632 C 775.454 -2.07297 -1.07473 0
M  V30 8633 C 776.435 -0.968162 -1.39859 0
M  V30 8634 O 777.62 -1.24139 -1.49343 0
M  V30 8635 C 774.75 -2.52381 -2.38581 0
M  V30 8636 C 773.704 -3.66813 -2.20526 0
M  V30 8637 C 773.03 -3.97982 -3.57092 0
M  V30 8638 C 774.33 -4.96553 -1.61965 0
M  V30 8639 H 776.024 -2.92033 -0.660092 0
M  V30 8640 H 773.57 -1.40488 -0.316074 0
M  V30 8641 H 775.523 -2.85852 -3.09624 0
M  V30 8642 H 774.247 -1.64684 -2.8204 0
M  V30 8643 H 772.906 -3.33639 -1.51924 0
M  V30 8644 H 772.554 -3.07403 -3.98136 0
M  V30 8645 H 772.254 -4.7504 -3.45848 0
M  V30 8646 H 773.778 -4.33956 -4.29552 0
M  V30 8647 H 775.192 -5.28201 -2.22883 0
M  V30 8648 H 773.589 -5.7799 -1.61394 0
M  V30 8649 H 774.659 -4.81396 -0.581918 0
M  V30 8650 N 776.003 0.335068 -1.53997 0
M  V30 8651 C 776.95 1.41187 -1.82579 0
M  V30 8652 C 777.92 1.51897 -0.672061 0
M  V30 8653 O 779.105 1.673 -0.917346 0
M  V30 8654 C 776.245 2.77717 -2.0486 0
M  V30 8655 C 775.358 2.7573 -3.32561 0
M  V30 8656 C 774.493 4.04032 -3.44864 0
M  V30 8657 C 773.532 3.96308 -4.66483 0
M  V30 8658 N 772.669 5.16317 -4.75774 0
M  V30 8659 H 777.509 1.16113 -2.74448 0
M  V30 8660 H 775.046 0.562305 -1.35928 0
M  V30 8661 H 777.004 3.57071 -2.15768 0
M  V30 8662 H 775.634 3.01124 -1.16294 0
M  V30 8663 H 774.686 1.88432 -3.3045 0
M  V30 8664 H 775.998 2.65902 -4.22016 0
M  V30 8665 H 775.152 4.91814 -3.55251 0
M  V30 8666 H 773.891 4.16652 -2.53481 0
M  V30 8667 H 772.896 3.06911 -4.56164 0
M  V30 8668 H 774.121 3.85263 -5.5924 0
M  V30 8669 H 772.067 5.29464 -3.87303 0
M  V30 8670 H 771.984 5.08779 -5.59178 0
M  V30 8671 H 773.252 6.05846 -4.9048 0
M  V30 8672 N 777.481 1.45874 0.596531 0
M  V30 8673 C 778.758 1.40942 1.35627 0
M  V30 8674 C 779.138 0.0857066 2.10926 0
M  V30 8675 O 778.486 -0.932544 2.08605 0
M  V30 8676 C 778.696 2.63027 2.29386 0
M  V30 8677 C 780.044 3.08588 2.91649 0
M  V30 8678 O 781.068 2.63478 2.39704 0
M  V30 8679 O 779.927 3.86902 3.85965 0
M  V30 8680 H 777.021 0.559838 0.608696 0
M  V30 8681 H 779.567 1.5802 0.618698 0
M  V30 8682 H 778.339 3.5094 1.7308 0
M  V30 8683 H 777.962 2.48338 3.10506 0
M  V30 8684 N 778.959 -0.83999 1.33349 0
M  V30 8685 C 779.906 -1.94972 1.23509 0
M  V30 8686 C 780.876 -1.65709 0.113967 0
M  V30 8687 O 782.061 -1.88552 0.292045 0
M  V30 8688 C 779.201 -3.30919 0.979105 0
M  V30 8689 C 778.314 -3.72587 2.18639 0
M  V30 8690 C 777.449 -4.97397 1.86465 0
M  V30 8691 C 776.488 -5.31597 3.03432 0
M  V30 8692 N 775.625 -6.47584 2.71254 0
M  V30 8693 H 780.465 -2.0272 2.18423 0
M  V30 8694 H 778.002 -0.992017 1.08616 0
M  V30 8695 H 779.96 -4.09239 0.811126 0
M  V30 8696 H 778.59 -3.22731 0.0667099 0
M  V30 8697 H 777.642 -2.89799 2.46416 0
M  V30 8698 H 778.954 -3.93844 3.06086 0
M  V30 8699 H 778.108 -5.83462 1.66305 0
M  V30 8700 H 776.847 -4.78107 0.96254 0
M  V30 8701 H 775.852 -4.44037 3.24208 0
M  V30 8702 H 777.077 -5.52836 3.94397 0
M  V30 8703 H 775.023 -6.29783 1.836 0
M  V30 8704 H 774.94 -6.68931 3.52231 0
M  V30 8705 H 776.208 -7.36764 2.54558 0
M  V30 8706 N 780.437 -1.16799 -1.0581 0
M  V30 8707 C 781.385 -0.875111 -2.1551 0
M  V30 8708 C 782.379 0.157781 -1.68664 0
M  V30 8709 O 783.585 0.011297 -1.79996 0
M  V30 8710 H 779.96 -0.26542 -0.703602 0
M  V30 8711 H 781.931 -1.8076 -2.37421 0
M  V30 8712 C 780.68 -0.39802 -3.45414 0
M  V30 8713 H 780.003 -1.18425 -3.81858 0
M  V30 8714 H 781.443 -0.231913 -4.23365 0
M  V30 8715 C 779.902 0.88327 -3.25115 0
M  V30 8716 O 780.432 1.95145 -3.51114 0
M  V30 8717 N 778.638 0.828961 -2.78526 0
M  V30 8718 H 778.185 -0.0405029 -2.57568 0
M  V30 8719 H 778.143 1.68673 -2.65324 0
M  V30 8720 N 781.915 1.24427 -0.967243 0
M  V30 8721 C 782.825 2.29109 -0.504592 0
M  V30 8722 C 783.841 1.68495 0.434224 0
M  V30 8723 O 785.017 1.99041 0.307379 0
M  V30 8724 C 782.082 3.46133 0.198273 0
M  V30 8725 C 781.143 4.22149 -0.780313 0
M  V30 8726 C 780.376 5.33585 -0.110896 0
M  V30 8727 O 780.599 5.59676 1.10088 0
M  V30 8728 O 779.533 5.96522 -0.802823 0
M  V30 8729 H 783.359 2.708 -1.37482 0
M  V30 8730 H 780.944 1.30111 -0.73426 0
M  V30 8731 H 782.826 4.17205 0.593124 0
M  V30 8732 H 781.501 3.0642 1.04347 0
M  V30 8733 H 780.408 3.53454 -1.22561 0
M  V30 8734 H 781.741 4.65677 -1.59392 0
M  V30 8735 N 783.393 0.737304 1.3929 0
M  V30 8736 C 784.804 0.355966 1.83275 0
M  V30 8737 C 785.155 -1.11295 1.6158 0
M  V30 8738 O 784.28 -1.85871 1.10819 0
M  V30 8739 C 784.875 0.63931 3.32713 0
M  V30 8740 C 783.434 0.31144 3.75109 0
M  V30 8741 C 782.581 0.900765 2.62262 0
M  V30 8742 H 785.532 0.934763 1.28249 0
M  V30 8743 H 785.553 -0.0881293 3.80398 0
M  V30 8744 H 785.065 1.70847 3.48472 0
M  V30 8745 H 783.166 -0.751791 3.64937 0
M  V30 8746 H 783.279 0.795611 4.72448 0
M  V30 8747 H 781.643 0.327239 2.52589 0
M  V30 8748 H 782.426 1.97463 2.80826 0
M  V30 8749 N 784.871 -1.49948 0.485112 0
M  V30 8750 C 786.117 -2.02695 -0.0651022 0
M  V30 8751 C 786.45 -1.36534 -1.38102 0
M  V30 8752 O 785.725 -0.495677 -1.88078 0
M  V30 8753 C 786.008 -3.59337 -0.234285 0
M  V30 8754 C 785.861 -4.3605 1.10364 0
M  V30 8755 C 787.18 -4.28996 -0.982351 0
M  V30 8756 H 784.299 -0.736666 -0.0221856 0
M  V30 8757 H 786.941 -1.7913 0.633433 0
M  V30 8758 H 785.091 -3.79546 -0.829262 0
M  V30 8759 H 786.763 -4.27377 1.73627 0
M  V30 8760 H 785.006 -3.99236 1.69686 0
M  V30 8761 H 785.677 -5.43959 0.938743 0
M  V30 8762 H 788.153 -4.13346 -0.477904 0
M  V30 8763 H 787.029 -5.38379 -1.06955 0
M  V30 8764 H 787.29 -3.93135 -2.02231 0
M  V30 8765 N 786.349 -0.21828 -1.56081 0
M  V30 8766 C 787.281 0.725447 -2.17416 0
M  V30 8767 C 788.294 1.15995 -1.14233 0
M  V30 8768 O 789.483 1.09166 -1.41227 0
M  V30 8769 C 786.583 1.99401 -2.7403 0
M  V30 8770 C 785.756 1.7156 -4.02351 0
M  V30 8771 C 784.815 2.8309 -4.43561 0
M  V30 8772 O 783.841 2.51701 -5.10525 0
M  V30 8773 N 785.043 4.11972 -4.08973 0
M  V30 8774 H 787.808 0.200801 -2.99027 0
M  V30 8775 H 785.369 -0.0371514 -1.61857 0
M  V30 8776 H 787.361 2.73198 -2.98571 0
M  V30 8777 H 785.931 2.42923 -1.96742 0
M  V30 8778 H 785.151 0.814233 -3.85699 0
M  V30 8779 H 786.439 1.50385 -4.86068 0
M  V30 8780 H 785.837 4.40319 -3.55156 0
M  V30 8781 H 784.394 4.82323 -4.38415 0
M  V30 8782 N 787.827 1.57504 0.0551401 0
M  V30 8783 C 788.775 2.05884 1.08233 0
M  V30 8784 C 789.769 0.967383 1.39061 0
M  V30 8785 O 790.975 1.15242 1.38273 0
M  V30 8786 H 787.35 0.656673 0.366449 0
M  V30 8787 H 789.321 2.91273 0.648269 0
M  V30 8788 C 788.07 2.53221 2.38273 0
M  V30 8789 H 787.393 3.36809 2.15406 0
M  V30 8790 H 788.833 2.9081 3.08554 0
M  V30 8791 C 787.292 1.42218 3.05411 0
M  V30 8792 O 787.822 0.773638 3.9418 0
M  V30 8793 N 786.028 1.16316 2.66306 0
M  V30 8794 H 785.575 1.69237 1.94207 0
M  V30 8795 H 785.533 0.422534 3.11548 0
M  V30 8796 N 789.305 -0.326896 1.54172 0
M  V30 8797 C 790.235 -1.40741 1.86317 0
M  V30 8798 C 791.216 -1.54125 0.719684 0
M  V30 8799 O 792.401 -1.6806 0.973117 0
M  V30 8800 C 789.531 -2.77557 2.08757 0
M  V30 8801 C 788.485 -2.78965 3.24596 0
M  V30 8802 C 787.811 -4.18824 3.32401 0
M  V30 8803 C 789.111 -2.4301 4.62324 0
M  V30 8804 H 790.805 -1.14088 2.76811 0
M  V30 8805 H 788.351 -0.547389 1.3319 0
M  V30 8806 H 790.304 -3.53209 2.29829 0
M  V30 8807 H 789.028 -3.0568 1.15009 0
M  V30 8808 H 787.687 -2.05767 3.03406 0
M  V30 8809 H 787.335 -4.44083 2.36218 0
M  V30 8810 H 787.035 -4.20673 4.10253 0
M  V30 8811 H 788.559 -4.96294 3.55703 0
M  V30 8812 H 789.973 -3.08375 4.83299 0
M  V30 8813 H 788.37 -2.56116 5.42701 0
M  V30 8814 H 789.44 -1.38165 4.64799 0
M  V30 8815 N 790.784 -1.46188 -0.588786 0
M  V30 8816 C 792.195 -1.45421 -1.17088 0
M  V30 8817 C 792.546 -0.191801 -1.9526 0
M  V30 8818 O 791.671 0.705497 -2.04577 0
M  V30 8819 C 792.266 -2.63467 -2.13004 0
M  V30 8820 C 790.825 -2.6576 -2.6655 0
M  V30 8821 C 789.972 -2.38002 -1.42304 0
M  V30 8822 H 792.923 -1.54156 -0.377052 0
M  V30 8823 H 792.944 -2.38638 -2.96365 0
M  V30 8824 H 792.456 -3.55331 -1.56081 0
M  V30 8825 H 790.557 -1.77952 -3.27359 0
M  V30 8826 H 790.67 -3.65545 -3.09699 0
M  V30 8827 H 789.034 -1.87936 -1.71907 0
M  V30 8828 H 789.817 -3.32035 -0.872209 0
M  V30 8829 N 792.262 0.832906 -1.33792 0
M  V30 8830 C 793.511 1.58351 -1.24932 0
M  V30 8831 C 793.824 1.94754 0.181703 0
M  V30 8832 O 795.03 2.6865 0.392375 0
M  V30 8833 C 793.486 2.85643 -2.18943 0
M  V30 8834 C 793.094 2.56581 -3.67247 0
M  V30 8835 C 794.838 3.63667 -2.18968 0
M  V30 8836 C 792.745 3.80006 -4.53155 0
M  V30 8837 H 791.675 0.594278 -0.464058 0
M  V30 8838 H 794.326 0.91786 -1.58895 0
M  V30 8839 H 792.708 3.53781 -1.77919 0
M  V30 8840 H 793.882 1.96617 -4.16747 0
M  V30 8841 H 792.197 1.91851 -3.6957 0
M  V30 8842 H 794.794 4.55293 -2.80379 0
M  V30 8843 H 795.137 3.99039 -1.18631 0
M  V30 8844 H 795.67 3.0246 -2.58384 0
M  V30 8845 H 792.409 3.4976 -5.5439 0
M  V30 8846 H 791.929 4.39288 -4.08395 0
M  V30 8847 H 793.608 4.47523 -4.6726 0
M  V30 8848 N 793.74 1.17359 1.05189 0
M  V30 8849 C 794.672 0.848078 2.12933 0
M  V30 8850 C 795.685 -0.149521 1.62112 0
M  V30 8851 O 796.874 0.0767797 1.78335 0
M  V30 8852 C 793.974 0.243889 3.38021 0
M  V30 8853 C 793.147 1.28436 4.18118 0
M  V30 8854 C 792.206 0.697926 5.21551 0
M  V30 8855 O 791.232 1.36973 5.52473 0
M  V30 8856 N 792.434 -0.510024 5.78255 0
M  V30 8857 H 795.199 1.7754 2.41453 0
M  V30 8858 H 792.76 1.07244 1.21286 0
M  V30 8859 H 794.752 -0.161727 4.04377 0
M  V30 8860 H 793.322 -0.58722 3.07035 0
M  V30 8861 H 792.542 1.86573 3.47252 0
M  V30 8862 H 793.83 1.98617 4.68432 0
M  V30 8863 H 793.228 -1.07378 5.55416 0
M  V30 8864 H 791.785 -0.857705 6.46132 0
M  V30 8865 N 795.218 -1.23913 0.973828 0
M  V30 8866 C 796.165 -2.25132 0.508366 0
M  V30 8867 C 797.135 -1.59908 -0.449307 0
M  V30 8868 O 798.32 -1.87405 -0.358313 0
M  V30 8869 C 795.46 -3.4458 -0.189422 0
M  V30 8870 C 794.573 -4.24381 0.807738 0
M  V30 8871 C 793.708 -5.31131 0.0854315 0
M  V30 8872 C 792.747 -6.02635 1.07225 0
M  V30 8873 N 791.884 -7.01073 0.379535 0
M  V30 8874 H 796.724 -2.64313 1.37632 0
M  V30 8875 H 794.261 -1.29924 0.689802 0
M  V30 8876 H 796.219 -4.12706 -0.610733 0
M  V30 8877 H 794.849 -3.06218 -1.02129 0
M  V30 8878 H 793.901 -3.55735 1.34747 0
M  V30 8879 H 795.213 -4.73778 1.55998 0
M  V30 8880 H 794.367 -6.05422 -0.393572 0
M  V30 8881 H 793.106 -4.82658 -0.699461 0
M  V30 8882 H 792.111 -5.27143 1.56207 0
M  V30 8883 H 793.336 -6.53197 1.85769 0
M  V30 8884 H 791.282 -6.54862 -0.386269 0
M  V30 8885 H 791.199 -7.48382 1.07054 0
M  V30 8886 H 792.467 -7.79462 -0.0772984 0
M  V30 8887 N 796.696 -0.74468 -1.38897 0
M  V30 8888 C 797.921 -0.306119 -2.05128 0
M  V30 8889 C 798.346 1.0541 -1.55789 0
M  V30 8890 O 797.704 1.66993 -0.705909 0
M  V30 8891 C 797.752 -0.328195 -3.59103 0
M  V30 8892 O 796.856 0.680876 -4.06741 0
M  V30 8893 H 796.197 -0.137209 -0.649669 0
M  V30 8894 H 798.727 -1.01331 -1.77745 0
M  V30 8895 H 798.737 -0.175956 -4.0762 0
M  V30 8896 H 797.412 -1.32067 -3.94374 0
M  V30 8897 H 795.989 0.49398 -3.69614 0
M  V30 8898 N 798.174 1.49689 -0.493057 0
M  V30 8899 C 799.423 2.01622 0.0560733 0
M  V30 8900 C 799.736 1.37838 1.3878 0
M  V30 8901 O 800.942 1.81054 2.02316 0
M  V30 8902 C 799.398 3.59586 0.150409 0
M  V30 8903 C 799.006 4.32338 -1.1742 0
M  V30 8904 C 800.75 4.19489 0.650327 0
M  V30 8905 C 798.657 5.8214 -1.04246 0
M  V30 8906 H 797.587 0.753594 0.0247297 0
M  V30 8907 H 800.238 1.723 -0.631279 0
M  V30 8908 H 798.62 3.8559 0.902035 0
M  V30 8909 H 799.794 4.18042 -1.9385 0
M  V30 8910 H 798.109 3.84144 -1.60694 0
M  V30 8911 H 800.706 5.29181 0.766272 0
M  V30 8912 H 801.049 3.82326 1.6472 0
M  V30 8913 H 801.582 3.97775 -0.0445371 0
M  V30 8914 H 798.321 6.23814 -2.01336 0
M  V30 8915 H 797.841 5.98952 -0.31892 0
M  V30 8916 H 799.52 6.43004 -0.717957 0
M  V30 8917 N 799.652 0.226554 1.55963 0
M  V30 8918 C 800.929 -0.453058 1.90281 0
M  V30 8919 C 801.309 -1.77377 1.14458 0
M  V30 8920 O 800.657 -2.27067 0.255496 0
M  V30 8921 C 800.867 -0.641108 3.43061 0
M  V30 8922 C 802.215 -0.946265 4.13921 0
M  V30 8923 O 803.239 -0.727713 3.48687 0
M  V30 8924 O 802.098 -1.36131 5.29274 0
M  V30 8925 H 799.192 -0.240242 0.791336 0
M  V30 8926 H 801.738 0.26911 1.67553 0
M  V30 8927 H 800.51 0.290283 3.90222 0
M  V30 8928 H 800.133 -1.41458 3.71585 0
M  V30 8929 N 801.13 -1.57531 -0.0467866 0
M  V30 8930 C 802.407 -1.79568 -0.775536 0
M  V30 8931 C 802.787 -0.820322 -1.94509 0
M  V30 8932 O 802.135 0.14134 -2.28062 0
M  V30 8933 C 802.345 -3.26789 -1.22516 0
M  V30 8934 C 803.693 -3.91299 -1.64835 0
M  V30 8935 O 804.717 -3.30831 -1.3202 0
M  V30 8936 O 803.576 -4.97727 -2.25677 0
M  V30 8937 H 800.67 -0.737817 -0.373572 0
M  V30 8938 H 803.216 -1.69682 -0.0249302 0
M  V30 8939 H 801.988 -3.89357 -0.389446 0
M  V30 8940 H 801.611 -3.41496 -2.03633 0
M  V30 8941 N 802.608 0.318715 -1.54344 0
M  V30 8942 C 803.854 1.05765 -1.73037 0
M  V30 8943 C 804.187 1.87514 -0.505181 0
M  V30 8944 O 803.462 1.88021 0.497838 0
M  V30 8945 C 803.745 1.97836 -3.00887 0
M  V30 8946 C 803.598 1.19384 -4.33668 0
M  V30 8947 C 804.917 2.97285 -3.24514 0
M  V30 8948 H 802.036 0.383104 -0.629603 0
M  V30 8949 H 804.678 0.333864 -1.87044 0
M  V30 8950 H 802.828 2.59552 -2.89076 0
M  V30 8951 H 804.5 0.600906 -4.57369 0
M  V30 8952 H 802.743 0.496198 -4.30953 0
M  V30 8953 H 803.414 1.87014 -5.19355 0
M  V30 8954 H 805.89 2.45693 -3.35819 0
M  V30 8955 H 804.766 3.58887 -4.15321 0
M  V30 8956 H 805.027 3.70003 -2.41971 0
M  V30 8957 N 804.086 1.46499 0.581025 0
M  V30 8958 C 805.363 1.42372 1.34125 0
M  V30 8959 C 805.743 0.108073 2.10823 0
M  V30 8960 O 805.091 -0.910366 2.09582 0
M  V30 8961 C 805.301 2.65445 2.26583 0
M  V30 8962 C 806.649 3.11664 2.88359 0
M  V30 8963 O 807.673 2.66006 2.36896 0
M  V30 8964 O 806.532 3.90974 3.81839 0
M  V30 8965 H 803.626 0.566262 0.602724 0
M  V30 8966 H 806.172 1.58667 0.601903 0
M  V30 8967 H 804.944 3.52756 1.69348 0
M  V30 8968 H 804.567 2.51618 3.07854 0
M  V30 8969 N 805.565 -0.825799 1.34232 0
M  V30 8970 C 806.79 -1.61883 1.29648 0
M  V30 8971 C 807.215 -1.87669 -0.127295 0
M  V30 8972 O 806.573 -1.45016 -1.08813 0
M  V30 8973 C 806.621 -2.93846 2.09014 0
M  V30 8974 O 805.725 -3.85778 1.4577 0
M  V30 8975 H 805.066 -0.492454 0.445405 0
M  V30 8976 H 807.596 -1.02641 1.76992 0
M  V30 8977 H 807.606 -3.43435 2.20264 0
M  V30 8978 H 806.281 -2.74401 3.12533 0
M  V30 8979 H 804.858 -3.4429 1.43245 0
M  V30 8980 N 807.043 -1.17915 -1.04565 0
M  V30 8981 C 807.99 -0.901605 -2.12461 0
M  V30 8982 C 808.96 0.157011 -1.65356 0
M  V30 8983 O 810.145 0.0184494 -1.90791 0
M  V30 8984 C 807.285 -0.42796 -3.42436 0
M  V30 8985 C 806.398 -1.55142 -4.03181 0
M  V30 8986 C 805.533 -1.03101 -5.21098 0
M  V30 8987 C 804.572 -2.1295 -5.73863 0
M  V30 8988 N 803.709 -1.62339 -6.83074 0
M  V30 8989 H 808.549 -1.82551 -2.3554 0
M  V30 8990 H 806.086 -0.910389 -1.15544 0
M  V30 8991 H 808.044 -0.134859 -4.16982 0
M  V30 8992 H 806.674 0.458977 -3.1952 0
M  V30 8993 H 805.726 -1.96011 -3.26012 0
M  V30 8994 H 807.038 -2.37968 -4.38375 0
M  V30 8995 H 806.192 -0.692132 -6.02739 0
M  V30 8996 H 804.931 -0.17227 -4.87396 0
M  V30 8997 H 803.936 -2.47687 -4.90847 0
M  V30 8998 H 805.161 -2.9925 -6.09611 0
M  V30 8999 H 803.107 -0.787464 -6.51256 0
M  V30 9000 H 803.024 -2.38767 -7.17305 0
M  V30 9001 H 804.292 -1.31363 -7.68351 0
M  V30 9002 N 808.521 1.23394 -0.980386 0
M  V30 9003 C 809.451 2.2717 -0.540024 0
M  V30 9004 C 810.432 1.64659 0.426787 0
M  V30 9005 O 811.617 1.91543 0.320153 0
M  V30 9006 C 808.747 3.46939 0.15836 0
M  V30 9007 C 807.701 4.21802 -0.725732 0
M  V30 9008 C 807.027 5.34597 0.104866 0
M  V30 9009 C 808.327 4.81802 -2.01654 0
M  V30 9010 H 810.021 2.64257 -1.40743 0
M  V30 9011 H 807.567 1.2703 -0.678193 0
M  V30 9012 H 809.52 4.18683 0.477737 0
M  V30 9013 H 808.244 3.08912 1.06022 0
M  V30 9014 H 806.903 3.51875 -1.02857 0
M  V30 9015 H 806.551 4.92812 1.00726 0
M  V30 9016 H 806.251 5.85607 -0.483557 0
M  V30 9017 H 807.775 6.09163 0.418624 0
M  V30 9018 H 809.189 5.45554 -1.76193 0
M  V30 9019 H 807.586 5.43098 -2.55273 0
M  V30 9020 H 808.656 4.02549 -2.70338 0
M  V30 9021 N 809.999 0.752036 1.385 0
M  V30 9022 C 810.946 0.123288 2.3047 0
M  V30 9023 C 811.916 -0.711326 1.50098 0
M  V30 9024 O 813.101 -0.667775 1.78733 0
M  V30 9025 C 810.241 -0.765085 3.36512 0
M  V30 9026 C 809.354 0.0839885 4.31918 0
M  V30 9027 C 808.489 -0.807243 5.25031 0
M  V30 9028 C 807.528 0.0455583 6.12083 0
M  V30 9029 N 806.665 -0.802547 6.97498 0
M  V30 9030 H 811.505 0.913169 2.83664 0
M  V30 9031 H 809.042 0.46195 1.39658 0
M  V30 9032 H 811 -1.29476 3.966 0
M  V30 9033 H 809.63 -1.52077 2.84732 0
M  V30 9034 H 808.682 0.731276 3.73305 0
M  V30 9035 H 809.994 0.74265 4.9324 0
M  V30 9036 H 809.148 -1.40414 5.90228 0
M  V30 9037 H 807.887 -1.49964 4.64071 0
M  V30 9038 H 806.892 0.655137 5.45883 0
M  V30 9039 H 808.117 0.734994 6.75111 0
M  V30 9040 H 806.063 -1.47992 6.39089 0
M  V30 9041 H 805.98 -0.200747 7.55733 0
M  V30 9042 H 807.248 -1.38447 7.67107 0
M  V30 9043 N 811.477 -1.49425 0.500989 0
M  V30 9044 C 812.725 -2.02053 -0.0434495 0
M  V30 9045 C 813.046 -1.38285 -1.37486 0
M  V30 9046 O 812.316 -0.538171 -1.88363 0
M  V30 9047 H 810.896 -0.746757 -0.0190469 0
M  V30 9048 H 813.558 -1.83449 0.658227 0
M  V30 9049 H 812.654 -3.11619 -0.173129 0
M  V30 9050 N 812.955 -0.234822 -1.55841 0
M  V30 9051 C 814.204 0.393685 -1.97821 0
M  V30 9052 C 814.517 1.59947 -1.1259 0
M  V30 9053 O 815.723 2.29835 -1.44528 0
M  V30 9054 C 814.179 0.751811 -3.5196 0
M  V30 9055 C 813.787 -0.431898 -4.45913 0
M  V30 9056 C 815.531 1.34518 -4.02623 0
M  V30 9057 C 813.438 -0.0505976 -5.91378 0
M  V30 9058 H 812.368 0.150864 -0.738753 0
M  V30 9059 H 815.019 -0.333132 -1.80451 0
M  V30 9060 H 813.401 1.53642 -3.6498 0
M  V30 9061 H 814.575 -1.20935 -4.44647 0
M  V30 9062 H 812.89 -0.939385 -4.05666 0
M  V30 9063 H 815.487 1.64359 -5.08813 0
M  V30 9064 H 815.83 2.26554 -3.49255 0
M  V30 9065 H 816.363 0.623729 -3.9288 0
M  V30 9066 H 813.102 -0.937779 -6.48757 0
M  V30 9067 H 812.622 0.690898 -5.95808 0
M  V30 9068 H 814.301 0.37146 -6.45933 0
M  V30 9069 N 814.433 1.57553 0.0384317 0
M  V30 9070 C 815.681 1.88468 0.729672 0
M  V30 9071 C 816.002 0.831302 1.76393 0
M  V30 9072 O 815.272 -0.13622 1.95426 0
M  V30 9073 H 813.852 0.695529 0.272485 0
M  V30 9074 H 816.514 1.94899 0.0066032 0
M  V30 9075 H 815.61 2.8705 1.22511 0
M  V30 9076 N 815.911 -0.310526 1.54511 0
M  V30 9077 C 816.858 -1.38264 1.84802 0
M  V30 9078 C 817.828 -1.50808 0.696141 0
M  V30 9079 O 819.013 -1.6582 0.943846 0
M  V30 9080 C 816.153 -2.74422 2.09252 0
M  V30 9081 C 815.266 -2.70405 3.36906 0
M  V30 9082 C 814.401 -3.98495 3.51248 0
M  V30 9083 C 813.44 -3.88836 4.72729 0
M  V30 9084 N 812.577 -5.08683 4.83928 0
M  V30 9085 H 817.417 -1.11732 2.76261 0
M  V30 9086 H 814.954 -0.540609 1.36806 0
M  V30 9087 H 816.912 -3.53593 2.21422 0
M  V30 9088 H 815.542 -2.99235 1.2107 0
M  V30 9089 H 814.594 -1.83151 3.33406 0
M  V30 9090 H 815.906 -2.59155 4.26193 0
M  V30 9091 H 815.06 -4.861 3.63031 0
M  V30 9092 H 813.799 -4.12567 2.60077 0
M  V30 9093 H 812.804 -2.99615 4.60989 0
M  V30 9094 H 814.029 -3.76318 5.65298 0
M  V30 9095 H 811.975 -5.23236 3.95677 0
M  V30 9096 H 811.892 -4.99819 5.67201 0
M  V30 9097 H 813.16 -5.97966 5.00057 0
M  V30 9098 N 817.389 -1.46805 -0.573248 0
M  V30 9099 C 818.8 -1.46655 -1.15539 0
M  V30 9100 C 819.151 -0.2125 -1.95046 0
M  V30 9101 O 818.276 0.683759 -2.05314 0
M  V30 9102 C 818.871 -2.65711 -2.10198 0
M  V30 9103 C 817.43 -2.68572 -2.63716 0
M  V30 9104 C 816.577 -2.39498 -1.39772 0
M  V30 9105 H 819.528 -1.54547 -0.36068 0
M  V30 9106 H 819.549 -2.41768 -2.93817 0
M  V30 9107 H 819.061 -3.56967 -1.52303 0
M  V30 9108 H 817.162 -1.81414 -3.25453 0
M  V30 9109 H 817.275 -3.68809 -3.05805 0
M  V30 9110 H 815.639 -1.89749 -1.69904 0
M  V30 9111 H 816.422 -3.32942 -0.836943 0
M  V30 9112 N 818.867 0.818669 -1.34668 0
M  V30 9113 C 820.283 1.11243 -1.14443 0
M  V30 9114 C 820.483 2.01435 0.0512212 0
M  V30 9115 O 819.539 2.41854 0.725471 0
M  V30 9116 C 820.852 1.75504 -2.4417 0
M  V30 9117 C 822.4 1.8798 -2.50265 0
M  V30 9118 C 822.875 2.55657 -3.80004 0
M  V30 9119 N 824.366 2.63153 -3.81189 0
M  V30 9120 C 825.101 3.16258 -4.78298 0
M  V30 9121 N 824.597 3.69893 -5.85791 0
M  V30 9122 N 826.39 3.14698 -4.65748 0
M  V30 9123 H 818.541 0.218848 -2.1127 0
M  V30 9124 H 820.804 0.159655 -0.934459 0
M  V30 9125 H 820.51 1.16697 -3.31775 0
M  V30 9126 H 820.384 2.75329 -2.57825 0
M  V30 9127 H 822.771 2.45934 -1.63096 0
M  V30 9128 H 822.852 0.870447 -2.40535 0
M  V30 9129 H 822.496 1.98356 -4.67565 0
M  V30 9130 H 822.426 3.57105 -3.87019 0
M  V30 9131 H 824.917 2.2514 -3.03513 0
M  V30 9132 H 825.23 4.08678 -6.55898 0
M  V30 9133 H 823.575 3.68125 -5.89499 0
M  V30 9134 H 826.766 2.72066 -3.80917 0
M  V30 9135 H 826.939 3.5578 -5.41594 0
M  V30 9136 N 820.346 1.18468 1.03938 0
M  V30 9137 C 821.293 0.912859 2.1198 0
M  V30 9138 C 822.263 -0.14824 1.65437 0
M  V30 9139 O 823.448 -0.008331 1.90798 0
M  V30 9140 C 820.588 0.446114 3.42204 0
M  V30 9141 C 819.701 1.57278 4.02353 0
M  V30 9142 C 818.836 1.05863 5.20544 0
M  V30 9143 C 817.875 2.1599 5.72726 0
M  V30 9144 N 817.012 1.65959 6.82204 0
M  V30 9145 H 821.852 1.83798 2.34569 0
M  V30 9146 H 819.389 0.916504 1.15059 0
M  V30 9147 H 821.347 0.15697 4.16905 0
M  V30 9148 H 819.977 -0.442025 3.19759 0
M  V30 9149 H 819.029 1.97737 3.24968 0
M  V30 9150 H 820.341 2.40289 4.37107 0
M  V30 9151 H 819.495 0.724087 6.02364 0
M  V30 9152 H 818.234 0.198116 4.87297 0
M  V30 9153 H 817.239 2.50287 4.89527 0
M  V30 9154 H 818.464 3.02479 6.08016 0
M  V30 9155 H 816.41 0.82199 6.5083 0
M  V30 9156 H 816.327 2.42567 7.16029 0
M  V30 9157 H 817.595 1.35436 7.67644 0
M  V30 9158 N 821.824 -1.22873 0.986916 0
M  V30 9159 C 823.071 -1.91462 0.659424 0
M  V30 9160 C 823.399 -1.76931 -0.807825 0
M  V30 9161 O 822.654 -1.12829 -1.59901 0
M  V30 9162 C 822.953 -3.43014 1.00379 0
M  V30 9163 C 822.619 -3.77731 2.46232 0
M  V30 9164 C 821.281 -3.86918 2.86091 0
M  V30 9165 C 823.633 -3.94343 3.40798 0
M  V30 9166 C 820.961 -4.10149 4.19518 0
M  V30 9167 C 823.313 -4.19076 4.73875 0
M  V30 9168 C 821.977 -4.26486 5.13484 0
M  V30 9169 H 821.247 -0.700611 0.2413 0
M  V30 9170 H 823.894 -1.45763 1.24199 0
M  V30 9171 H 822.199 -3.90329 0.339226 0
M  V30 9172 H 823.896 -3.94327 0.728518 0
M  V30 9173 H 820.486 -3.71159 2.14334 0
M  V30 9174 H 824.67 -3.86629 3.11178 0
M  V30 9175 H 819.926 -4.1411 4.49803 0
M  V30 9176 H 824.1 -4.30873 5.47102 0
M  V30 9177 H 821.727 -4.4424 6.16891 0
M  V30 9178 N 823.302 -0.75937 -1.38099 0
M  V30 9179 C 824.527 -0.327859 -2.04792 0
M  V30 9180 C 824.952 1.03752 -1.56899 0
M  V30 9181 O 824.31 1.66235 -0.723581 0
M  V30 9182 C 824.358 -0.366264 -3.58735 0
M  V30 9183 O 823.462 0.637697 -4.0744 0
M  V30 9184 H 822.803 -0.144092 -0.648177 0
M  V30 9185 H 825.333 -1.03211 -1.7666 0
M  V30 9186 H 825.343 -0.219179 -4.07411 0
M  V30 9187 H 824.018 -1.36243 -3.92951 0
M  V30 9188 H 822.595 0.454749 -3.70117 0
M  V30 9189 N 824.78 1.49157 -0.508906 0
M  V30 9190 C 825.727 2.2927 0.265288 0
M  V30 9191 C 826.697 1.3603 0.953162 0
M  V30 9192 O 827.882 1.64989 0.958291 0
M  V30 9193 C 825.022 3.18897 1.31904 0
M  V30 9194 C 824.135 4.27201 0.642144 0
M  V30 9195 C 823.27 5.04033 1.67701 0
M  V30 9196 C 822.309 6.04165 0.982422 0
M  V30 9197 N 821.446 6.74133 1.96186 0
M  V30 9198 H 826.286 2.94967 -0.424107 0
M  V30 9199 H 823.823 1.45431 -0.220991 0
M  V30 9200 H 825.781 3.69242 1.94206 0
M  V30 9201 H 824.411 2.55168 1.97709 0
M  V30 9202 H 823.463 3.80283 -0.0943395 0
M  V30 9203 H 824.775 4.98708 0.0957507 0
M  V30 9204 H 823.929 5.58287 2.37487 0
M  V30 9205 H 822.668 4.32317 2.25728 0
M  V30 9206 H 821.673 5.49135 0.270378 0
M  V30 9207 H 822.898 6.7787 0.408554 0
M  V30 9208 H 820.844 6.05183 2.53159 0
M  V30 9209 H 820.761 7.41643 1.46634 0
M  V30 9210 H 822.029 7.32987 2.65236 0
M  V30 9211 N 826.258 0.243083 1.55714 0
M  V30 9212 C 827.505 -0.38272 1.9885 0
M  V30 9213 C 827.833 -1.58225 1.13115 0
M  V30 9214 O 827.088 -1.94861 0.181067 0
M  V30 9215 C 827.387 -0.839621 3.47398 0
M  V30 9216 C 827.053 0.251737 4.50197 0
M  V30 9217 C 825.715 0.551487 4.78029 0
M  V30 9218 C 828.067 0.988728 5.11736 0
M  V30 9219 C 825.395 1.59237 5.64677 0
M  V30 9220 C 827.747 2.0191 5.99512 0
M  V30 9221 C 826.411 2.32554 6.2568 0
M  V30 9222 H 825.681 -0.140047 0.727645 0
M  V30 9223 H 828.328 0.35011 1.88272 0
M  V30 9224 H 826.633 -1.65159 3.55288 0
M  V30 9225 H 828.33 -1.33404 3.78159 0
M  V30 9226 H 824.92 0.00796741 4.28599 0
M  V30 9227 H 829.104 0.7704 4.90284 0
M  V30 9228 H 824.36 1.83517 5.83208 0
M  V30 9229 H 828.534 2.59511 6.46241 0
M  V30 9230 H 826.161 3.13349 6.92616 0
M  V30 9231 N 827.736 -1.57571 -0.0300757 0
M  V30 9232 C 828.961 -1.93879 -0.736601 0
M  V30 9233 C 829.386 -0.842998 -1.68152 0
M  V30 9234 O 828.744 0.20135 -1.80178 0
M  V30 9235 C 828.792 -3.29247 -1.47066 0
M  V30 9236 O 827.896 -3.21426 -2.58378 0
M  V30 9237 H 827.237 -0.633735 -0.198181 0
M  V30 9238 H 829.767 -2.04595 0.0141485 0
M  V30 9239 H 829.777 -3.64113 -1.84081 0
M  V30 9240 H 828.452 -4.08565 -0.77764 0
M  V30 9241 H 827.029 -2.98189 -2.23914 0
M  V30 9242 N 829.214 0.302327 -1.54673 0
M  V30 9243 C 830.144 1.37759 -1.88533 0
M  V30 9244 C 831.125 1.52961 -0.744113 0
M  V30 9245 O 832.31 1.6649 -0.999731 0
M  V30 9246 C 829.44 2.74201 -2.13146 0
M  V30 9247 C 828.394 2.73765 -3.28993 0
M  V30 9248 C 827.72 4.13483 -3.39022 0
M  V30 9249 C 829.02 2.35624 -4.66132 0
M  V30 9250 H 830.714 1.0967 -2.78591 0
M  V30 9251 H 828.26 0.52613 -1.34044 0
M  V30 9252 H 830.213 3.49508 -2.35419 0
M  V30 9253 H 828.937 3.03812 -1.19858 0
M  V30 9254 H 827.596 2.00914 -3.06642 0
M  V30 9255 H 827.244 4.40269 -2.43253 0
M  V30 9256 H 826.944 4.14093 -4.16894 0
M  V30 9257 H 828.468 4.90572 -3.63553 0
M  V30 9258 H 829.882 3.00647 -4.88143 0
M  V30 9259 H 828.279 2.47449 -5.46707 0
M  V30 9260 H 829.349 1.30753 -4.66939 0
M  V30 9261 N 830.692 1.47107 0.565454 0
M  V30 9262 C 831.922 1.56681 1.34664 0
M  V30 9263 C 832.33 0.213011 1.87997 0
M  V30 9264 O 831.673 -0.802629 1.65238 0
M  V30 9265 C 831.735 2.52528 2.55871 0
M  V30 9266 C 831.399 3.98403 2.23883 0
M  V30 9267 C 832.396 4.87125 1.81673 0
M  V30 9268 C 830.081 4.43674 2.35496 0
M  V30 9269 C 832.075 6.19135 1.51494 0
M  V30 9270 C 829.762 5.75714 2.0493 0
M  V30 9271 C 830.76 6.63266 1.62996 0
M  V30 9272 O 830.448 7.92853 1.32813 0
M  V30 9273 H 830.18 0.531967 0.417117 0
M  V30 9274 H 832.734 1.93368 0.692669 0
M  V30 9275 H 830.964 2.10893 3.24131 0
M  V30 9276 H 832.653 2.5232 3.17945 0
M  V30 9277 H 833.419 4.534 1.72201 0
M  V30 9278 H 829.298 3.7574 2.67096 0
M  V30 9279 H 832.842 6.87429 1.1869 0
M  V30 9280 H 828.739 6.08983 2.14031 0
M  V30 9281 H 829.507 8.0528 1.46513 0
M  V30 9282 N 832.17 -0.811516 1.35101 0
M  V30 9283 C 833.117 -1.92308 1.27617 0
M  V30 9284 C 834.087 -1.6543 0.149091 0
M  V30 9285 O 835.272 -1.8789 0.331974 0
M  V30 9286 C 832.412 -3.28768 1.04908 0
M  V30 9287 C 831.525 -3.67865 2.26493 0
M  V30 9288 C 830.66 -4.9333 1.96974 0
M  V30 9289 C 829.699 -5.25041 3.1464 0
M  V30 9290 N 828.836 -6.41685 2.84929 0
M  V30 9291 H 833.676 -1.98041 2.22674 0
M  V30 9292 H 831.213 -0.968755 1.10696 0
M  V30 9293 H 833.171 -4.07426 0.897749 0
M  V30 9294 H 831.801 -3.22517 0.135151 0
M  V30 9295 H 830.853 -2.84507 2.52507 0
M  V30 9296 H 832.165 -3.87263 3.14371 0
M  V30 9297 H 831.319 -5.79803 1.78643 0
M  V30 9298 H 830.058 -4.75958 1.06374 0
M  V30 9299 H 829.063 -4.3706 3.33554 0
M  V30 9300 H 830.288 -5.44346 4.06035 0
M  V30 9301 H 828.234 -6.25747 1.96918 0
M  V30 9302 H 828.151 -6.6131 3.66341 0
M  V30 9303 H 829.419 -7.31198 2.70128 0
M  V30 9304 N 833.648 -1.19017 -1.03309 0
M  V30 9305 C 834.58 -0.881847 -2.11556 0
M  V30 9306 C 835.593 0.123711 -1.62329 0
M  V30 9307 O 836.782 -0.105141 -1.7819 0
M  V30 9308 C 833.882 -0.297634 -3.37591 0
M  V30 9309 C 833.055 -1.35072 -4.16022 0
M  V30 9310 C 832.114 -0.780812 -5.20375 0
M  V30 9311 O 831.14 -1.45745 -5.50224 0
M  V30 9312 N 832.342 0.417964 -5.78993 0
M  V30 9313 H 835.107 -1.81359 -2.38598 0
M  V30 9314 H 832.668 -1.0916 -1.19565 0
M  V30 9315 H 834.66 0.097374 -4.04583 0
M  V30 9316 H 833.23 0.538299 -3.0793 0
M  V30 9317 H 832.45 -1.92074 -3.4424 0
M  V30 9318 H 833.738 -2.06044 -4.65213 0
M  V30 9319 H 833.136 0.985281 -5.57054 0
M  V30 9320 H 831.693 0.754802 -6.47415 0
M  V30 9321 N 835.127 1.22348 -0.993418 0
M  V30 9322 C 836.057 2.26584 -0.564088 0
M  V30 9323 C 837.038 1.65102 0.409298 0
M  V30 9324 O 838.223 1.91872 0.299819 0
M  V30 9325 C 835.353 3.47087 0.121554 0
M  V30 9326 C 834.307 4.21009 -0.770429 0
M  V30 9327 C 833.633 5.34678 0.0481586 0
M  V30 9328 C 834.933 4.79636 -2.06752 0
M  V30 9329 H 836.627 2.62749 -1.43538 0
M  V30 9330 H 834.173 1.26303 -0.691628 0
M  V30 9331 H 836.126 4.19166 0.433303 0
M  V30 9332 H 834.85 3.1002 1.0274 0
M  V30 9333 H 833.509 3.50764 -1.06583 0
M  V30 9334 H 833.157 4.93852 0.954933 0
M  V30 9335 H 832.857 5.85061 -0.545641 0
M  V30 9336 H 834.381 6.09573 0.353991 0
M  V30 9337 H 835.795 5.43654 -1.81969 0
M  V30 9338 H 834.192 5.4036 -2.61019 0
M  V30 9339 H 835.262 3.99659 -2.74592 0
M  V30 9340 N 836.605 0.766683 1.37694 0
M  V30 9341 C 837.555 0.123173 2.27667 0
M  V30 9342 C 838.539 -0.679436 1.45851 0
M  V30 9343 O 839.731 -0.54324 1.68457 0
M  V30 9344 C 836.86 -0.759064 3.34803 0
M  V30 9345 C 835.946 0.0511009 4.24069 0
M  V30 9346 N 836.337 1.09418 4.93823 0
M  V30 9347 C 834.635 -0.173675 4.45662 0
M  V30 9348 C 835.336 1.58546 5.59677 0
M  V30 9349 N 834.312 0.898503 5.36123 0
M  V30 9350 H 838.114 0.921859 2.79068 0
M  V30 9351 H 835.628 0.603957 1.50752 0
M  V30 9352 H 837.625 -1.23581 3.98163 0
M  V30 9353 H 836.285 -1.55655 2.84959 0
M  V30 9354 H 837.296 1.47623 4.96415 0
M  V30 9355 H 833.973 -0.943473 4.067 0
M  V30 9356 H 835.363 2.45504 6.25442 0
M  V30 9357 N 838.083 -1.48885 0.516809 0
M  V30 9358 C 839.499 -1.58651 0.173788 0
M  V30 9359 C 839.699 -1.52033 -1.32243 0
M  V30 9360 O 838.755 -1.40251 -2.09967 0
M  V30 9361 C 840.068 -2.90816 0.764628 0
M  V30 9362 C 841.616 -3.04316 0.732164 0
M  V30 9363 C 842.091 -4.39123 1.30135 0
M  V30 9364 N 843.582 -4.45656 1.26273 0
M  V30 9365 C 844.317 -5.48446 1.67317 0
M  V30 9366 N 843.813 -6.58258 2.16028 0
M  V30 9367 N 845.606 -5.39251 1.58635 0
M  V30 9368 H 837.757 -1.5143 1.48939 0
M  V30 9369 H 840.02 -0.718243 0.618733 0
M  V30 9370 H 839.726 -3.01275 1.81456 0
M  V30 9371 H 839.6 -3.76473 0.234113 0
M  V30 9372 H 841.987 -2.93478 -0.308975 0
M  V30 9373 H 842.068 -2.20303 1.3 0
M  V30 9374 H 841.712 -4.50714 2.34135 0
M  V30 9375 H 841.642 -5.21801 0.709305 0
M  V30 9376 H 844.133 -3.66879 0.906006 0
M  V30 9377 H 844.446 -7.32811 2.45374 0
M  V30 9378 H 842.791 -6.59257 2.20013 0
M  V30 9379 H 845.982 -4.52354 1.20387 0
M  V30 9380 H 846.155 -6.19229 1.90944 0
M  V30 9381 N 839.561 -0.251338 -1.55583 0
M  V30 9382 C 840.511 0.660351 -2.18228 0
M  V30 9383 C 841.495 1.13596 -1.13951 0
M  V30 9384 O 842.687 1.08499 -1.39846 0
M  V30 9385 C 839.816 1.85498 -2.88869 0
M  V30 9386 C 838.902 1.39767 -4.00407 0
M  V30 9387 N 839.293 0.654876 -5.01543 0
M  V30 9388 C 837.591 1.68259 -4.13044 0
M  V30 9389 C 838.292 0.417521 -5.802 0
M  V30 9390 N 837.268 0.983032 -5.34638 0
M  V30 9391 H 841.07 0.0847425 -2.93778 0
M  V30 9392 H 838.584 -0.0538456 -1.62311 0
M  V30 9393 H 840.581 2.51916 -3.3218 0
M  V30 9394 H 839.241 2.43477 -2.14823 0
M  V30 9395 H 840.252 0.304545 -5.17004 0
M  V30 9396 H 836.929 2.27344 -3.50172 0
M  V30 9397 H 838.319 -0.175764 -6.7167 0
M  V30 9398 N 841.039 1.57585 0.0217189 0
M  V30 9399 C 841.989 2.03506 1.02807 0
M  V30 9400 C 842.973 0.925716 1.31603 0
M  V30 9401 O 844.165 1.18958 1.31065 0
M  V30 9402 C 841.294 2.52407 2.32693 0
M  V30 9403 C 840.38 3.70176 2.06955 0
M  V30 9404 N 840.771 4.82641 1.513 0
M  V30 9405 C 839.069 3.77691 2.37204 0
M  V30 9406 C 839.77 5.64218 1.41536 0
M  V30 9407 N 838.746 5.09557 1.89348 0
M  V30 9408 H 842.548 2.87878 0.591899 0
M  V30 9409 H 840.062 1.60793 0.227875 0
M  V30 9410 H 842.059 2.83569 3.05605 0
M  V30 9411 H 840.719 1.69444 2.76982 0
M  V30 9412 H 841.73 5.03931 1.19472 0
M  V30 9413 H 838.407 3.05542 2.84517 0
M  V30 9414 H 839.797 6.64576 0.989333 0
M  V30 9415 N 842.517 -0.29412 1.54831 0
M  V30 9416 C 843.447 -1.36757 1.89261 0
M  V30 9417 C 844.428 -1.52564 0.752214 0
M  V30 9418 O 845.613 -1.65958 1.00855 0
M  V30 9419 C 842.743 -2.73066 2.14597 0
M  V30 9420 C 841.697 -2.72017 3.3044 0
M  V30 9421 C 841.023 -4.11679 3.4121 0
M  V30 9422 C 842.323 -2.33149 4.67375 0
M  V30 9423 H 844.017 -1.08191 2.79169 0
M  V30 9424 H 841.563 -0.519014 1.34321 0
M  V30 9425 H 843.516 -3.48255 2.37269 0
M  V30 9426 H 842.24 -3.03172 1.21467 0
M  V30 9427 H 840.899 -1.99285 3.07703 0
M  V30 9428 H 840.547 -4.38973 2.45584 0
M  V30 9429 H 840.247 -4.11877 4.19084 0
M  V30 9430 H 841.771 -4.88637 3.6615 0
M  V30 9431 H 843.185 -2.98054 4.89731 0
M  V30 9432 H 841.582 -2.44546 5.48012 0
M  V30 9433 H 842.652 -1.28275 4.67626 0
M  V30 9434 N 843.995 -1.47404 -0.557645 0
M  V30 9435 C 844.945 -1.56267 -1.66026 0
M  V30 9436 C 845.929 -0.42161 -1.55278 0
M  V30 9437 O 847.121 -0.671505 -1.63768 0
M  V30 9438 C 844.25 -1.57958 -3.04802 0
M  V30 9439 C 843.336 -2.77447 -3.20755 0
M  V30 9440 N 843.727 -4.02148 -3.06775 0
M  V30 9441 C 842.025 -2.74199 -3.51754 0
M  V30 9442 C 842.726 -4.82168 -3.25406 0
M  V30 9443 N 841.702 -4.14481 -3.5172 0
M  V30 9444 H 845.504 -2.50454 -1.53785 0
M  V30 9445 H 843.018 -1.43392 -0.762388 0
M  V30 9446 H 845.015 -1.62397 -3.8397 0
M  V30 9447 H 843.675 -0.648667 -3.18155 0
M  V30 9448 H 844.686 -4.33014 -2.84111 0
M  V30 9449 H 841.363 -1.90243 -3.71637 0
M  V30 9450 H 842.753 -5.91037 -3.19569 0
M  V30 9451 N 845.473 0.80434 -1.35529 0
M  V30 9452 C 846.75 1.5486 -1.1949 0
M  V30 9453 C 847.13 2.09897 0.22506 0
M  V30 9454 O 846.478 1.92643 1.22886 0
M  V30 9455 C 846.688 2.65535 -2.26478 0
M  V30 9456 C 848.036 3.33814 -2.62399 0
M  V30 9457 O 849.06 2.75807 -2.25409 0
M  V30 9458 O 847.919 4.38612 -3.26009 0
M  V30 9459 H 845.013 0.68433 -0.464351 0
M  V30 9460 H 847.559 0.844107 -1.47217 0
M  V30 9461 H 846.331 2.22754 -3.21709 0
M  V30 9462 H 845.954 3.43617 -2.00033 0
M  V30 9463 N 846.951 1.19563 1.02676 0
M  V30 9464 C 847.914 0.937182 2.09164 0
M  V30 9465 C 848.914 -0.0831927 1.60585 0
M  V30 9466 O 850.104 0.15178 1.73538 0
M  V30 9467 C 847.236 0.408912 3.38439 0
M  V30 9468 H 848.429 1.88164 2.33526 0
M  V30 9469 H 845.982 1.00959 1.19319 0
M  V30 9470 H 846.717 -0.541497 3.19747 0
M  V30 9471 H 846.502 1.14464 3.7502 0
M  V30 9472 H 847.992 0.247242 4.16867 0
M  V30 9473 N 848.429 -1.21819 0.999893 0
M  V30 9474 C 849.706 -1.86318 0.595384 0
M  V30 9475 C 850.086 -1.8965 -0.927143 0
M  V30 9476 O 849.434 -1.3921 -1.81199 0
M  V30 9477 C 849.644 -3.26837 1.22387 0
M  V30 9478 C 850.992 -4.03272 1.32878 0
M  V30 9479 O 852.016 -3.36129 1.1788 0
M  V30 9480 O 850.875 -5.23477 1.56952 0
M  V30 9481 H 847.969 -0.801638 0.203238 0
M  V30 9482 H 850.515 -1.29542 1.09622 0
M  V30 9483 H 849.287 -3.19084 2.26497 0
M  V30 9484 H 848.91 -3.91226 0.709069 0
M  V30 9485 N 849.908 -0.773975 -1.37286 0
M  V30 9486 C 851.133 -0.349561 -2.04433 0
M  V30 9487 C 851.558 1.02082 -1.5799 0
M  V30 9488 O 850.916 1.65458 -0.741172 0
M  V30 9489 C 850.964 -0.404292 -3.58326 0
M  V30 9490 O 850.068 0.594447 -4.08093 0
M  V30 9491 H 849.409 -0.150959 -0.646612 0
M  V30 9492 H 851.939 -1.05079 -1.75555 0
M  V30 9493 H 851.949 -0.262378 -4.07155 0
M  V30 9494 H 850.624 -1.40403 -3.91484 0
M  V30 9495 H 849.201 0.415468 -3.70578 0
M  V30 9496 N 851.386 1.48609 -0.524698 0
M  V30 9497 C 852.635 2.01696 0.0132937 0
M  V30 9498 C 852.948 1.40751 1.35825 0
M  V30 9499 O 854.154 1.85304 1.9843 0
M  V30 9500 C 852.61 3.59824 0.0741012 0
M  V30 9501 C 852.218 4.2975 -1.26564 0
M  V30 9502 C 853.962 4.20774 0.5612 0
M  V30 9503 C 851.869 5.79798 -1.16571 0
M  V30 9504 H 850.799 0.753949 0.00873931 0
M  V30 9505 H 853.45 1.70922 -0.667684 0
M  V30 9506 H 851.832 3.87416 0.820043 0
M  V30 9507 H 853.006 4.13836 -2.02674 0
M  V30 9508 H 851.321 3.80649 -1.68806 0
M  V30 9509 H 853.918 5.30687 0.653853 0
M  V30 9510 H 854.261 3.85734 1.56573 0
M  V30 9511 H 854.794 3.97591 -0.128901 0
M  V30 9512 H 851.533 6.19403 -2.14523 0
M  V30 9513 H 851.053 5.9814 -0.445894 0
M  V30 9514 H 852.732 6.41337 -0.854186 0
M  V30 9515 N 852.864 0.259585 1.55447 0
M  V30 9516 C 854.089 -0.368317 2.04103 0
M  V30 9517 C 854.514 -1.49827 1.13725 0
M  V30 9518 O 853.872 -1.80814 0.132705 0
M  V30 9519 C 853.92 -0.841506 3.50644 0
M  V30 9520 O 853.024 -1.95008 3.63381 0
M  V30 9521 H 852.365 -0.0785227 0.659341 0
M  V30 9522 H 854.895 0.389349 2.00861 0
M  V30 9523 H 854.905 -1.14138 3.9171 0
M  V30 9524 H 853.58 -0.0147001 4.15897 0
M  V30 9525 H 852.157 -1.65393 3.34215 0
M  V30 9526 N 854.342 -1.57594 -0.0133615 0
M  V30 9527 C 855.567 -1.94649 -0.715996 0
M  V30 9528 C 855.992 -0.860786 -1.67249 0
M  V30 9529 O 855.35 0.182228 -1.80382 0
M  V30 9530 C 855.398 -3.30789 -1.43566 0
M  V30 9531 O 854.502 -3.24148 -2.54955 0
M  V30 9532 H 853.843 -0.635801 -0.191449 0
M  V30 9533 H 856.373 -2.04569 0.0358478 0
M  V30 9534 H 856.383 -3.66045 -1.80208 0
M  V30 9535 H 855.058 -4.09367 -0.734263 0
M  V30 9536 H 853.635 -3.00548 -2.20739 0
M  V30 9537 N 855.82 0.285905 -1.54985 0
M  V30 9538 C 857.069 1.01691 -1.74189 0
M  V30 9539 C 857.382 1.87908 -0.543135 0
M  V30 9540 O 858.588 2.64389 -0.617305 0
M  V30 9541 C 857.044 1.85785 -3.0824 0
M  V30 9542 C 856.652 1.04497 -4.35642 0
M  V30 9543 C 858.396 2.58393 -3.36798 0
M  V30 9544 C 856.303 1.87955 -5.60738 0
M  V30 9545 H 855.233 0.383396 -0.649248 0
M  V30 9546 H 857.884 0.27317 -1.81455 0
M  V30 9547 H 856.266 2.64205 -2.94978 0
M  V30 9548 H 857.44 0.305847 -4.59784 0
M  V30 9549 H 855.755 0.434023 -4.14132 0
M  V30 9550 H 858.352 3.21214 -4.27464 0
M  V30 9551 H 858.695 3.28011 -2.56349 0
M  V30 9552 H 859.228 1.87012 -3.511 0
M  V30 9553 H 855.967 1.22781 -6.43898 0
M  V30 9554 H 855.487 2.59499 -5.40759 0
M  V30 9555 H 857.166 2.45636 -5.98558 0
M  V30 9556 N 857.298 1.47698 0.54982 0
M  V30 9557 C 858.575 1.45185 1.31075 0
M  V30 9558 C 858.955 0.152768 2.10547 0
M  V30 9559 O 858.303 -0.865706 2.11466 0
M  V30 9560 C 858.513 2.70192 2.20902 0
M  V30 9561 C 859.861 3.1771 2.81683 0
M  V30 9562 O 860.885 2.70971 2.312 0
M  V30 9563 O 859.744 3.98986 3.7346 0
M  V30 9564 H 856.838 0.57892 0.590577 0
M  V30 9565 H 859.384 1.59908 0.568112 0
M  V30 9566 H 858.156 3.56269 1.61828 0
M  V30 9567 H 857.779 2.58091 3.02448 0
M  V30 9568 N 858.776 -0.797141 1.35954 0
M  V30 9569 C 860.001 -1.59097 1.33053 0
M  V30 9570 C 860.426 -1.87897 -0.0874592 0
M  V30 9571 O 859.784 -1.47291 -1.05712 0
M  V30 9572 C 859.832 -2.89346 2.152 0
M  V30 9573 O 858.936 -3.826 1.5392 0
M  V30 9574 H 858.277 -0.482895 0.45575 0
M  V30 9575 H 860.807 -0.988633 1.79129 0
M  V30 9576 H 860.817 -3.38686 2.27499 0
M  V30 9577 H 859.492 -2.6771 3.18283 0
M  V30 9578 H 858.069 -3.41174 1.50516 0
M  V30 9579 N 860.254 -1.20106 -1.0204 0
M  V30 9580 C 861.482 -1.0344 -1.79186 0
M  V30 9581 C 861.897 0.416542 -1.84148 0
M  V30 9582 O 861.254 1.28925 -1.29168 0
M  V30 9583 C 861.305 -1.60663 -3.23836 0
M  V30 9584 O 861.026 -3.00079 -3.19193 0
M  V30 9585 C 862.527 -1.48897 -4.17546 0
M  V30 9586 H 859.747 -0.364093 -0.563629 0
M  V30 9587 H 862.291 -1.5911 -1.28469 0
M  V30 9588 H 860.446 -1.09122 -3.71714 0
M  V30 9589 H 860.86 -3.27162 -4.09958 0
M  V30 9590 H 862.334 -1.93703 -5.16898 0
M  V30 9591 H 862.811 -0.440843 -4.36982 0
M  V30 9592 H 863.417 -1.9961 -3.75547 0
M  V30 9593 N 861.732 1.21287 -1.00634 0
M  V30 9594 C 862.957 1.94925 -0.708441 0
M  V30 9595 C 863.382 1.73659 0.722783 0
M  V30 9596 O 862.74 1.02429 1.49593 0
M  V30 9597 C 862.788 3.45377 -1.03667 0
M  V30 9598 O 861.892 4.12153 -0.142661 0
M  V30 9599 H 861.233 0.609338 -0.263824 0
M  V30 9600 H 863.763 1.54008 -1.34695 0
M  V30 9601 H 863.773 3.95954 -0.984086 0
M  V30 9602 H 862.448 3.6018 -2.0795 0
M  V30 9603 H 861.025 3.72048 -0.251888 0
M  V30 9604 N 863.21 0.781244 1.36873 0
M  V30 9605 C 864.435 0.360398 2.04245 0
M  V30 9606 C 864.86 -1.01242 1.58529 0
M  V30 9607 O 864.218 -1.65063 0.749936 0
M  V30 9608 C 864.266 0.42329 3.58107 0
M  V30 9609 O 863.37 -0.572796 4.08403 0
M  V30 9610 H 862.711 0.154386 0.645803 0
M  V30 9611 H 865.241 1.06008 1.74996 0
M  V30 9612 H 865.251 0.283967 4.07011 0
M  V30 9613 H 863.926 1.42477 3.90734 0
M  V30 9614 H 862.503 -0.395809 3.70793 0
M  V30 9615 N 864.689 -1.48329 0.532571 0
M  V30 9616 C 865.919 -2.066 0.00353785 0
M  V30 9617 C 866.327 -1.38913 -1.28451 0
M  V30 9618 O 865.67 -0.471385 -1.77549 0
M  V30 9619 C 865.732 -3.58342 -0.288324 0
M  V30 9620 C 865.396 -4.47917 0.906631 0
M  V30 9621 C 866.393 -4.87534 1.80572 0
M  V30 9622 C 864.078 -4.89783 1.11436 0
M  V30 9623 C 866.072 -5.6779 2.89642 0
M  V30 9624 C 863.759 -5.69809 2.20819 0
M  V30 9625 C 864.757 -6.08721 3.09755 0
M  V30 9626 O 864.445 -6.8714 4.17246 0
M  V30 9627 H 864.177 -0.675263 0.0315661 0
M  V30 9628 H 866.731 -1.91669 0.738375 0
M  V30 9629 H 864.961 -3.71395 -1.07717 0
M  V30 9630 H 866.65 -3.98726 -0.759752 0
M  V30 9631 H 867.416 -4.5581 1.65719 0
M  V30 9632 H 863.295 -4.58977 0.431382 0
M  V30 9633 H 866.839 -5.98082 3.59087 0
M  V30 9634 H 862.736 -6.00947 2.35655 0
M  V30 9635 H 863.504 -7.05498 4.14988 0
M  V30 9636 N 866.167 -0.267825 -1.55308 0
M  V30 9637 C 867.414 0.351036 -1.99434 0
M  V30 9638 C 867.742 1.56406 -1.15618 0
M  V30 9639 O 866.997 1.94548 -0.212045 0
M  V30 9640 C 867.296 0.784247 -3.48689 0
M  V30 9641 C 866.962 -0.323328 -4.49739 0
M  V30 9642 C 865.624 -0.627467 -4.77091 0
M  V30 9643 C 867.976 -1.07002 -5.10098 0
M  V30 9644 C 865.304 -1.682 -5.62073 0
M  V30 9645 C 867.656 -2.11422 -5.96224 0
M  V30 9646 C 866.32 -2.42479 -6.21901 0
M  V30 9647 H 865.59 0.128453 -0.729781 0
M  V30 9648 H 868.237 -0.380018 -1.87692 0
M  V30 9649 H 866.542 1.59485 -3.57871 0
M  V30 9650 H 868.239 1.2737 -3.80234 0
M  V30 9651 H 864.829 -0.0761528 -4.28532 0
M  V30 9652 H 869.013 -0.848302 -4.88996 0
M  V30 9653 H 864.269 -1.92772 -5.80215 0
M  V30 9654 H 868.443 -2.69759 -6.4203 0
M  V30 9655 H 866.07 -3.24328 -6.87543 0
M  V30 9656 N 867.645 1.57599 0.00500368 0
M  V30 9657 C 868.593 2.09223 1.01628 0
M  V30 9658 C 869.587 1.01113 1.35913 0
M  V30 9659 O 870.793 1.19583 1.34536 0
M  V30 9660 H 867.168 0.667999 0.345372 0
M  V30 9661 H 869.139 2.93188 0.555274 0
M  V30 9662 C 867.888 2.60674 2.30097 0
M  V30 9663 H 867.211 3.43491 2.04582 0
M  V30 9664 H 868.651 3.00479 2.99146 0
M  V30 9665 C 867.11 1.51862 3.00731 0
M  V30 9666 O 867.64 0.898651 3.91519 0
M  V30 9667 N 865.846 1.24729 2.62471 0
M  V30 9668 H 865.393 1.7533 1.88725 0
M  V30 9669 H 865.351 0.521437 3.10046 0
M  V30 9670 N 869.123 -0.277682 1.55134 0
M  V30 9671 C 870.073 -1.34531 1.8408 0
M  V30 9672 C 871.057 -1.44904 0.699393 0
M  V30 9673 O 872.249 -1.48664 0.960623 0
M  V30 9674 C 869.378 -2.7064 2.11208 0
M  V30 9675 C 868.464 -2.64396 3.31596 0
M  V30 9676 N 868.855 -2.2777 4.51613 0
M  V30 9677 C 867.153 -2.95464 3.34091 0
M  V30 9678 C 867.854 -2.31401 5.33693 0
M  V30 9679 N 866.83 -2.69688 4.71984 0
M  V30 9680 H 870.632 -1.05214 2.74421 0
M  V30 9681 H 868.146 -0.486311 1.54948 0
M  V30 9682 H 870.143 -3.47649 2.301 0
M  V30 9683 H 868.803 -3.00849 1.22148 0
M  V30 9684 H 869.814 -1.99827 4.77797 0
M  V30 9685 H 866.491 -3.30415 2.5521 0
M  V30 9686 H 867.881 -2.05685 6.39643 0
M  V30 9687 N 870.601 -1.47988 -0.541979 0
M  V30 9688 C 871.831 -1.58804 -1.32155 0
M  V30 9689 C 872.239 -0.242893 -1.87634 0
M  V30 9690 O 871.582 0.776239 -1.66494 0
M  V30 9691 C 871.644 -2.56567 -2.51821 0
M  V30 9692 C 871.308 -4.01915 -2.17517 0
M  V30 9693 C 872.305 -4.89954 -1.73901 0
M  V30 9694 C 869.99 -4.47365 -2.28408 0
M  V30 9695 C 871.984 -6.21467 -1.41625 0
M  V30 9696 C 869.671 -5.78902 -1.95745 0
M  V30 9697 C 870.669 -6.65775 -1.52423 0
M  V30 9698 O 870.357 -7.94866 -1.20183 0
M  V30 9699 H 870.089 -0.538536 -0.408601 0
M  V30 9700 H 872.643 -1.94446 -0.661818 0
M  V30 9701 H 870.873 -2.16023 -3.20735 0
M  V30 9702 H 872.562 -2.57347 -3.13891 0
M  V30 9703 H 873.328 -4.56082 -1.64966 0
M  V30 9704 H 869.207 -3.79942 -2.61084 0
M  V30 9705 H 872.751 -6.8923 -1.07738 0
M  V30 9706 H 868.648 -6.12311 -2.04316 0
M  V30 9707 H 869.416 -8.07509 -1.33683 0
M  V30 9708 N 872.079 0.78992 -1.36375 0
M  V30 9709 C 873.495 1.0879 -1.16777 0
M  V30 9710 C 873.695 2.01498 0.00848236 0
M  V30 9711 O 872.751 2.43338 0.674007 0
M  V30 9712 C 874.064 1.70285 -2.47837 0
M  V30 9713 C 875.612 1.82629 -2.54196 0
M  V30 9714 C 876.087 2.47539 -3.85342 0
M  V30 9715 N 877.578 2.55008 -3.86685 0
M  V30 9716 C 878.313 3.06041 -4.84898 0
M  V30 9717 N 877.809 3.57385 -5.93505 0
M  V30 9718 N 879.602 3.04748 -4.72319 0
M  V30 9719 H 871.753 0.173985 -2.11686 0
M  V30 9720 H 874.016 0.139798 -0.937636 0
M  V30 9721 H 873.722 1.09633 -3.34176 0
M  V30 9722 H 873.596 2.69799 -2.63607 0
M  V30 9723 H 875.983 2.42419 -1.68276 0
M  V30 9724 H 876.064 0.81923 -2.42327 0
M  V30 9725 H 875.708 1.88393 -4.71668 0
M  V30 9726 H 875.638 3.48815 -3.94507 0
M  V30 9727 H 878.129 2.18651 -3.08221 0
M  V30 9728 H 878.442 3.94674 -6.64419 0
M  V30 9729 H 876.787 3.55538 -5.97175 0
M  V30 9730 H 879.978 2.63925 -3.86602 0
M  V30 9731 H 880.151 3.44212 -5.49019 0
M  V30 9732 N 873.557 1.20646 1.01402 0
M  V30 9733 C 874.782 1.04462 1.79172 0
M  V30 9734 C 875.207 -0.401588 1.83763 0
M  V30 9735 O 874.565 -1.28934 1.27459 0
M  V30 9736 C 874.613 1.63583 3.21361 0
M  V30 9737 O 873.717 0.875198 4.03006 0
M  V30 9738 H 873.058 0.368235 0.552539 0
M  V30 9739 H 875.588 1.59994 1.27526 0
M  V30 9740 H 875.598 1.67426 3.72065 0
M  V30 9741 H 874.273 2.68835 3.17334 0
M  V30 9742 H 872.85 0.911172 3.61597 0
M  V30 9743 N 875.035 -1.20752 1.01276 0
M  V30 9744 C 875.985 -2.21252 0.550602 0
M  V30 9745 C 876.969 -1.56052 -0.391985 0
M  V30 9746 O 878.161 -1.75682 -0.215575 0
M  V30 9747 C 875.29 -3.43112 -0.113601 0
M  V30 9748 C 874.376 -4.15485 0.850465 0
M  V30 9749 N 874.767 -4.64301 2.00643 0
M  V30 9750 C 873.065 -4.40932 0.670476 0
M  V30 9751 C 873.766 -5.197 2.61317 0
M  V30 9752 N 872.742 -5.09534 1.8941 0
M  V30 9753 H 876.544 -2.56657 1.43194 0
M  V30 9754 H 874.058 -1.36646 0.877597 0
M  V30 9755 H 876.055 -4.1433 -0.462211 0
M  V30 9756 H 874.715 -3.09213 -0.990825 0
M  V30 9757 H 875.726 -4.59637 2.38651 0
M  V30 9758 H 872.403 -4.17197 -0.159016 0
M  V30 9759 H 873.793 -5.67873 3.59123 0
M  V30 9760 N 876.513 -0.788492 -1.36457 0
M  V30 9761 C 877.463 -0.159377 -2.27442 0
M  V30 9762 C 878.447 0.656146 -1.46913 0
M  V30 9763 O 879.639 0.516372 -1.693 0
M  V30 9764 C 876.768 0.705703 -3.35968 0
M  V30 9765 C 875.854 -0.11856 -4.23934 0
M  V30 9766 N 876.245 -1.1726 -4.9202 0
M  V30 9767 C 874.543 0.102752 -4.45882 0
M  V30 9768 C 875.244 -1.6743 -5.57083 0
M  V30 9769 N 874.22 -0.983682 -5.34626 0
M  V30 9770 H 878.022 -0.96614 -2.77566 0
M  V30 9771 H 875.536 -0.627864 -1.49772 0
M  V30 9772 H 877.533 1.17231 -4.00078 0
M  V30 9773 H 876.193 1.51102 -2.87399 0
M  V30 9774 H 877.204 -1.55502 -4.94004 0
M  V30 9775 H 873.881 0.878651 -4.08149 0
M  V30 9776 H 875.271 -2.55423 -6.21457 0
M  V30 9777 N 877.991 1.48044 -0.54043 0
M  V30 9778 C 878.939 2.31461 0.229862 0
M  V30 9779 C 879.933 1.41884 0.925495 0
M  V30 9780 O 881.139 1.58736 0.848689 0
M  V30 9781 H 877.514 0.746227 0.0929975 0
M  V30 9782 H 879.485 2.94297 -0.493118 0
M  V30 9783 C 878.234 3.24172 1.25729 0
M  V30 9784 H 877.557 3.93052 0.731426 0
M  V30 9785 H 878.997 3.85404 1.76747 0
M  V30 9786 C 877.456 2.4651 2.2964 0
M  V30 9787 O 877.986 2.19742 3.36268 0
M  V30 9788 N 876.192 2.07817 2.03127 0
M  V30 9789 H 875.739 2.29786 1.1643 0
M  V30 9790 H 875.697 1.56168 2.72872 0
M  V30 9791 N 879.47 0.276058 1.55163 0
M  V30 9792 C 880.4 -0.604633 2.25536 0
M  V30 9793 C 881.381 -1.15813 1.24585 0
M  V30 9794 O 882.566 -1.1921 1.53306 0
M  V30 9795 C 879.696 -1.78836 2.97716 0
M  V30 9796 C 878.65 -1.36635 4.05604 0
M  V30 9797 C 877.976 -2.63325 4.65364 0
M  V30 9798 C 879.276 -0.515858 5.19746 0
M  V30 9799 H 880.97 -0.0177483 2.99395 0
M  V30 9800 H 878.516 -0.00709627 1.43998 0
M  V30 9801 H 880.469 -2.41036 3.45658 0
M  V30 9802 H 879.193 -2.40109 2.21394 0
M  V30 9803 H 877.852 -0.767541 3.58475 0
M  V30 9804 H 877.5 -3.22858 3.85709 0
M  V30 9805 H 877.2 -2.358 5.38212 0
M  V30 9806 H 878.724 -3.26372 5.16056 0
M  V30 9807 H 880.138 -1.04289 5.63735 0
M  V30 9808 H 878.535 -0.335449 5.99162 0
M  V30 9809 H 879.605 0.465137 4.82664 0
M  V30 9810 N 880.948 -1.576 0.00335426 0
M  V30 9811 C 882.197 -1.89892 -0.680001 0
M  V30 9812 C 882.51 -0.878731 -1.7475 0
M  V30 9813 O 883.716 -1.09199 -2.48572 0
M  V30 9814 C 882.172 -3.37098 -1.26066 0
M  V30 9815 C 881.78 -4.4742 -0.227807 0
M  V30 9816 C 883.524 -3.78495 -1.92202 0
M  V30 9817 C 881.431 -5.85706 -0.81865 0
M  V30 9818 H 880.361 -0.708578 -0.257746 0
M  V30 9819 H 883.012 -1.83387 0.0644472 0
M  V30 9820 H 881.394 -3.38451 -2.05589 0
M  V30 9821 H 882.568 -4.57589 0.54307 0
M  V30 9822 H 880.883 -4.15064 0.333297 0
M  V30 9823 H 883.48 -4.7915 -2.37318 0
M  V30 9824 H 883.823 -3.12187 -2.75399 0
M  V30 9825 H 884.356 -3.79456 -1.19408 0
M  V30 9826 H 881.095 -6.55495 -0.0253787 0
M  V30 9827 H 880.615 -5.79196 -1.55861 0
M  V30 9828 H 882.294 -6.33469 -1.31627 0
M  V30 9829 N 882.426 0.269451 -1.5528 0
M  V30 9830 C 883.376 1.33553 -1.84791 0
M  V30 9831 C 884.36 1.44532 -0.707067 0
M  V30 9832 O 885.552 1.48153 -0.968493 0
M  V30 9833 C 882.681 2.69516 -2.12641 0
M  V30 9834 C 881.767 2.62633 -3.32993 0
M  V30 9835 N 882.158 2.25371 -4.52815 0
M  V30 9836 C 880.456 2.93688 -3.35654 0
M  V30 9837 C 881.157 2.28567 -5.34913 0
M  V30 9838 N 880.133 2.67181 -4.73408 0
M  V30 9839 H 883.935 1.03758 -2.74976 0
M  V30 9840 H 881.449 0.478087 -1.55203 0
M  V30 9841 H 883.446 3.46424 -2.3194 0
M  V30 9842 H 882.106 3.00197 -1.23742 0
M  V30 9843 H 883.117 1.9729 -4.7885 0
M  V30 9844 H 879.794 3.29057 -2.56958 0
M  V30 9845 H 881.184 2.02289 -6.40725 0
M  V30 9846 N 883.904 1.48273 0.534124 0
M  V30 9847 C 885.152 1.55771 1.28762 0
M  V30 9848 C 885.473 0.231575 1.9362 0
M  V30 9849 O 884.743 -0.746533 1.81118 0
M  V30 9850 H 883.323 0.573851 0.47823 0
M  V30 9851 H 885.985 1.84712 0.621888 0
M  V30 9852 H 885.081 2.33657 2.06908 0
M  V30 9853 N 885.382 -0.782676 1.36792 0
M  V30 9854 C 886.312 -1.90973 1.34356 0
M  V30 9855 C 887.293 -1.6875 0.213917 0
M  V30 9856 O 888.478 -1.89766 0.412601 0
M  V30 9857 C 885.608 -3.28097 1.13884 0
M  V30 9858 C 884.562 -3.6486 2.23744 0
M  V30 9859 C 883.888 -5.00406 1.88408 0
M  V30 9860 C 885.188 -3.72742 3.6587 0
M  V30 9861 H 886.882 -1.93268 2.28665 0
M  V30 9862 H 884.428 -0.928447 1.10072 0
M  V30 9863 H 886.381 -4.06569 1.10813 0
M  V30 9864 H 885.105 -3.26206 0.160275 0
M  V30 9865 H 883.764 -2.88689 2.25952 0
M  V30 9866 H 883.412 -4.95044 0.891083 0
M  V30 9867 H 883.112 -5.25973 2.61966 0
M  V30 9868 H 884.636 -5.81291 1.86905 0
M  V30 9869 H 886.05 -4.4139 3.65852 0
M  V30 9870 H 884.447 -4.09798 4.38389 0
M  V30 9871 H 885.517 -2.73676 4.00287 0
M  V30 9872 N 886.86 -1.21182 -1.00761 0
M  V30 9873 C 887.807 -0.968741 -2.09485 0
M  V30 9874 C 888.777 0.104325 -1.65772 0
M  V30 9875 O 889.962 -0.0422587 -1.90753 0
M  V30 9876 C 887.102 -0.536686 -3.40901 0
M  V30 9877 C 886.215 -1.6789 -3.98041 0
M  V30 9878 C 885.35 -1.19627 -5.17555 0
M  V30 9879 C 884.389 -2.31099 -5.66798 0
M  V30 9880 N 883.526 -1.83988 -6.77564 0
M  V30 9881 H 888.366 -1.89952 -2.29613 0
M  V30 9882 H 885.903 -0.946688 -1.12589 0
M  V30 9883 H 887.861 -0.26745 -4.16342 0
M  V30 9884 H 886.491 0.357092 -3.20819 0
M  V30 9885 H 885.543 -2.06284 -3.19611 0
M  V30 9886 H 886.855 -2.51794 -4.30582 0
M  V30 9887 H 886.009 -0.883539 -6.00232 0
M  V30 9888 H 884.748 -0.327244 -4.86601 0
M  V30 9889 H 883.753 -2.63178 -4.82719 0
M  V30 9890 H 884.978 -3.18493 -5.99782 0
M  V30 9891 H 882.924 -0.994257 -6.48422 0
M  V30 9892 H 882.841 -2.61466 -7.09346 0
M  V30 9893 H 884.109 -1.55741 -7.63783 0
M  V30 9894 N 888.338 1.20213 -1.01915 0
M  V30 9895 C 889.749 1.7136 -0.741131 0
M  V30 9896 C 890.1 1.81705 0.740107 0
M  V30 9897 O 889.225 1.48139 1.57746 0
M  V30 9898 C 889.82 3.11231 -1.33869 0
M  V30 9899 C 888.379 3.59677 -1.10948 0
M  V30 9900 C 887.526 2.36809 -1.4428 0
M  V30 9901 H 890.477 1.05191 -1.1883 0
M  V30 9902 H 890.498 3.7342 -0.730585 0
M  V30 9903 H 890.01 3.03669 -2.41675 0
M  V30 9904 H 888.111 3.72568 -0.0492052 0
M  V30 9905 H 888.224 4.44351 -1.79134 0
M  V30 9906 H 886.588 2.39674 -0.861881 0
M  V30 9907 H 887.371 2.31886 -2.53148 0
M  V30 9908 N 889.816 0.795718 1.36037 0
M  V30 9909 C 890.766 0.171437 2.27355 0
M  V30 9910 C 891.75 -0.648346 1.47259 0
M  V30 9911 O 892.942 -0.507386 1.69572 0
M  V30 9912 C 890.071 -0.687876 3.36338 0
M  V30 9913 C 889.157 0.141041 4.23865 0
M  V30 9914 N 889.548 1.19868 4.91391 0
M  V30 9915 C 887.846 -0.0791045 4.4593 0
M  V30 9916 C 888.547 1.70382 5.56188 0
M  V30 9917 N 887.523 1.01202 5.34097 0
M  V30 9918 H 891.325 0.980846 2.7705 0
M  V30 9919 H 888.839 0.635798 1.49437 0
M  V30 9920 H 890.836 -1.15107 4.00694 0
M  V30 9921 H 889.496 -1.49576 2.88196 0
M  V30 9922 H 890.507 1.58119 4.93172 0
M  V30 9923 H 887.184 -0.856993 4.0861 0
M  V30 9924 H 888.574 2.58715 6.20093 0
M  V30 9925 N 891.294 -1.47756 0.548274 0
M  V30 9926 C 892.541 -2.02489 0.0208955 0
M  V30 9927 C 892.869 -1.42356 -1.32533 0
M  V30 9928 O 892.124 -0.565448 -1.87353 0
M  V30 9929 C 892.423 -3.5716 -0.131069 0
M  V30 9930 C 892.089 -4.36169 1.14313 0
M  V30 9931 C 890.751 -4.57476 1.4923 0
M  V30 9932 C 893.103 -4.81801 1.9879 0
M  V30 9933 C 890.431 -5.21662 2.68487 0
M  V30 9934 C 892.783 -5.47303 3.17242 0
M  V30 9935 C 891.447 -5.66844 3.52483 0
M  V30 9936 H 890.717 -0.740961 0.00764621 0
M  V30 9937 H 893.364 -1.77531 0.717987 0
M  V30 9938 H 891.669 -3.8106 -0.911063 0
M  V30 9939 H 893.366 -3.9715 -0.55433 0
M  V30 9940 H 889.956 -4.19858 0.861235 0
M  V30 9941 H 894.14 -4.65126 1.73123 0
M  V30 9942 H 889.396 -5.34987 2.95971 0
M  V30 9943 H 893.57 -5.81626 3.82994 0
M  V30 9944 H 891.197 -6.16352 4.44988 0
M  V30 9945 N 892.772 -0.284283 -1.55015 0
M  V30 9946 C 893.719 0.599194 -2.22886 0
M  V30 9947 C 894.689 1.14264 -1.20553 0
M  V30 9948 O 895.874 1.19025 -1.49123 0
M  V30 9949 C 893.014 1.77317 -2.96062 0
M  V30 9950 C 892.127 1.26271 -4.13134 0
M  V30 9951 C 891.262 2.39922 -4.73931 0
M  V30 9952 C 890.301 1.85925 -5.8318 0
M  V30 9953 N 889.438 2.93084 -6.38002 0
M  V30 9954 H 894.278 0.0137816 -2.97997 0
M  V30 9955 H 891.815 -0.00496503 -1.47099 0
M  V30 9956 H 893.773 2.46339 -3.36709 0
M  V30 9957 H 892.403 2.33047 -2.23358 0
M  V30 9958 H 891.455 0.465296 -3.77544 0
M  V30 9959 H 892.767 0.827284 -4.91892 0
M  V30 9960 H 891.921 3.1692 -5.17346 0
M  V30 9961 H 890.66 2.86784 -3.9447 0
M  V30 9962 H 889.665 1.07409 -5.39206 0
M  V30 9963 H 890.89 1.39987 -6.64515 0
M  V30 9964 H 888.836 3.3931 -5.61431 0
M  V30 9965 H 888.753 2.53986 -7.12058 0
M  V30 9966 H 890.021 3.7003 -6.86075 0
M  V30 9967 N 894.251 1.57596 -0.0117121 0
M  V30 9968 C 895.181 2.12188 0.9746 0
M  V30 9969 C 896.162 1.03379 1.35081 0
M  V30 9970 O 897.347 1.31123 1.4325 0
M  V30 9971 C 894.477 2.63477 2.26268 0
M  V30 9972 C 893.431 3.76917 2.02774 0
M  V30 9973 C 892.757 4.14566 3.37697 0
M  V30 9974 C 894.057 5.03715 1.38089 0
M  V30 9975 H 895.751 2.9485 0.520007 0
M  V30 9976 H 893.297 1.41836 0.248685 0
M  V30 9977 H 895.25 3.00299 2.95633 0
M  V30 9978 H 893.974 1.77953 2.73862 0
M  V30 9979 H 892.633 3.40507 1.35832 0
M  V30 9980 H 892.281 3.26048 3.83016 0
M  V30 9981 H 891.981 4.91 3.22789 0
M  V30 9982 H 893.505 4.53956 4.08358 0
M  V30 9983 H 894.919 5.38233 1.97428 0
M  V30 9984 H 893.316 5.85032 1.33634 0
M  V30 9985 H 894.386 4.83624 0.351575 0
M  V30 9986 N 895.729 -0.261212 1.5542 0
M  V30 9987 C 896.976 -0.99123 1.76581 0
M  V30 9988 C 897.304 -1.85854 0.573457 0
M  V30 9989 O 896.559 -1.90604 -0.443705 0
M  V30 9990 C 896.858 -1.89395 3.03091 0
M  V30 9991 C 896.524 -1.18318 4.351 0
M  V30 9992 C 895.186 -0.986688 4.70975 0
M  V30 9993 C 897.538 -0.678299 5.16767 0
M  V30 9994 C 894.866 -0.272788 5.86065 0
M  V30 9995 C 897.218 0.0220646 6.32596 0
M  V30 9996 C 895.882 0.230161 6.67103 0
M  V30 9997 H 895.152 -0.362717 0.646156 0
M  V30 9998 H 897.799 -0.262506 1.89692 0
M  V30 9999 H 896.104 -2.68927 2.8493 0
M  V30 10000 H 897.801 -2.46022 3.16661 0
M  V30 10001 H 894.391 -1.34625 4.06908 0
M  V30 10002 H 898.575 -0.817691 4.89518 0
M  V30 10003 H 893.831 -0.10095 6.11317 0
M  V30 10004 H 898.005 0.420981 6.95126 0
M  V30 10005 H 895.632 0.785312 7.56133 0
M  V30 10006 N 897.207 -1.48554 -0.526253 0
M  V30 10007 C 898.157 -1.59753 -1.62674 0
M  V30 10008 C 899.141 -0.454452 -1.54349 0
M  V30 10009 O 900.333 -0.706091 -1.62306 0
M  V30 10010 C 897.462 -1.64388 -3.01383 0
M  V30 10011 C 896.548 -2.84188 -3.14798 0
M  V30 10012 N 896.939 -4.08564 -2.98176 0
M  V30 10013 C 895.237 -2.81599 -3.45859 0
M  V30 10014 C 895.938 -4.88961 -3.15106 0
M  V30 10015 N 894.914 -4.21848 -3.42849 0
M  V30 10016 H 898.716 -2.5366 -1.48438 0
M  V30 10017 H 896.23 -1.44977 -0.731801 0
M  V30 10018 H 898.227 -1.70505 -3.80439 0
M  V30 10019 H 896.887 -0.716006 -3.16707 0
M  V30 10020 H 897.898 -4.38943 -2.74862 0
M  V30 10021 H 894.575 -1.98083 -3.67518 0
M  V30 10022 H 895.965 -5.97683 -3.0696 0
M  V30 10023 N 898.685 0.775411 -1.37205 0
M  V30 10024 C 900.096 1.35147 -1.28811 0
M  V30 10025 C 900.447 1.96089 0.0659168 0
M  V30 10026 O 899.572 1.93558 0.967684 0
M  V30 10027 C 900.167 2.45715 -2.33258 0
M  V30 10028 C 898.726 2.99099 -2.2851 0
M  V30 10029 C 897.873 1.72286 -2.17285 0
M  V30 10030 H 900.824 0.575954 -1.4788 0
M  V30 10031 H 900.845 3.251 -1.97712 0
M  V30 10032 H 900.357 2.01331 -3.31795 0
M  V30 10033 H 898.458 3.47868 -1.33485 0
M  V30 10034 H 898.571 3.54962 -3.21774 0
M  V30 10035 H 896.935 1.95068 -1.6377 0
M  V30 10036 H 897.718 1.3001 -3.1773 0
M  V30 10037 N 900.163 1.21714 1.00117 0
M  V30 10038 C 901.388 1.06357 1.78054 0
M  V30 10039 C 901.813 -0.382075 1.84179 0
M  V30 10040 O 901.171 -1.27575 1.28819 0
M  V30 10041 C 901.219 1.66982 3.19608 0
M  V30 10042 O 900.323 0.917892 4.02055 0
M  V30 10043 H 899.664 0.374074 0.548602 0
M  V30 10044 H 902.194 1.61338 1.25822 0
M  V30 10045 H 902.204 1.71363 3.70268 0
M  V30 10046 H 900.879 2.72185 3.14465 0
M  V30 10047 H 899.456 0.949473 3.6061 0
M  V30 10048 N 901.641 -1.19671 1.02551 0
M  V30 10049 C 902.866 -1.93774 0.739363 0
M  V30 10050 C 903.291 -1.74787 -0.695064 0
M  V30 10051 O 902.649 -1.04796 -1.47944 0
M  V30 10052 C 902.697 -3.43684 1.09149 0
M  V30 10053 O 901.801 -4.11874 0.208213 0
M  V30 10054 H 901.142 -0.605064 0.273484 0
M  V30 10055 H 903.672 -1.51846 1.37128 0
M  V30 10056 H 903.682 -3.94339 1.04695 0
M  V30 10057 H 902.357 -3.56826 2.13654 0
M  V30 10058 H 900.934 -3.716 0.311045 0
M  V30 10059 N 903.119 -0.802921 -1.35613 0
M  V30 10060 C 904.029 -0.212177 -2.33639 0
M  V30 10061 C 905.045 0.642871 -1.61689 0
M  V30 10062 O 906.221 0.555485 -1.93588 0
M  V30 10063 C 903.286 0.632406 -3.40883 0
M  V30 10064 C 902.347 -0.242708 -4.28613 0
M  V30 10065 C 901.58 0.56166 -5.30736 0
M  V30 10066 O 901.803 1.79664 -5.41366 0
M  V30 10067 O 900.737 -0.0455387 -6.01883 0
M  V30 10068 H 904.563 -1.023 -2.85952 0
M  V30 10069 H 902.148 -0.564636 -1.38319 0
M  V30 10070 H 904.03 1.11358 -4.0642 0
M  V30 10071 H 902.705 1.42089 -2.90848 0
M  V30 10072 H 901.612 -0.77094 -3.6607 0
M  V30 10073 H 902.945 -0.995046 -4.82037 0
M  V30 10074 N 904.597 1.47463 -0.556102 0
M  V30 10075 C 905.822 2.07371 -0.0344729 0
M  V30 10076 C 906.247 1.40621 1.2493 0
M  V30 10077 O 905.605 0.48082 1.74808 0
M  V30 10078 C 905.653 3.60306 0.145563 0
M  V30 10079 O 904.757 3.94299 1.20839 0
M  V30 10080 H 904.098 0.662052 -0.0508274 0
M  V30 10081 H 906.628 1.89498 -0.771469 0
M  V30 10082 H 906.638 4.06408 0.360112 0
M  V30 10083 H 905.313 4.08288 -0.792089 0
M  V30 10084 H 903.89 3.59944 0.97442 0
M  V30 10085 N 906.075 0.2925 1.54862 0
M  V30 10086 C 906.985 -0.597036 2.26876 0
M  V30 10087 C 908.001 -1.15558 1.30086 0
M  V30 10088 O 909.177 -1.18217 1.63054 0
M  V30 10089 C 906.242 -1.75664 2.98903 0
M  V30 10090 C 905.303 -1.23303 4.11212 0
M  V30 10091 C 904.536 -2.33736 4.79795 0
M  V30 10092 O 904.759 -3.53459 4.47686 0
M  V30 10093 O 903.693 -2.00908 5.67379 0
M  V30 10094 H 907.519 -0.0131242 3.03697 0
M  V30 10095 H 905.104 0.0592642 1.49282 0
M  V30 10096 H 906.986 -2.43241 3.4411 0
M  V30 10097 H 905.661 -2.32731 2.24984 0
M  V30 10098 H 904.568 -0.523222 3.70423 0
M  V30 10099 H 905.901 -0.707887 4.87083 0
M  V30 10100 N 907.553 -1.57587 0.0200696 0
M  V30 10101 C 908.485 -2.06555 -0.993359 0
M  V30 10102 C 909.498 -0.987227 -1.29451 0
M  V30 10103 O 910.687 -1.26361 -1.26075 0
M  V30 10104 C 907.787 -2.4675 -2.3231 0
M  V30 10105 C 906.96 -3.77554 -2.20843 0
M  V30 10106 C 906.019 -4.04397 -3.36674 0
M  V30 10107 O 905.045 -4.7478 -3.13963 0
M  V30 10108 N 906.247 -3.53861 -4.60176 0
M  V30 10109 H 909.012 -2.9412 -0.575617 0
M  V30 10110 H 906.573 -1.61038 -0.166889 0
M  V30 10111 H 908.565 -2.61806 -3.08609 0
M  V30 10112 H 907.135 -1.64598 -2.65756 0
M  V30 10113 H 906.355 -3.72382 -1.29327 0
M  V30 10114 H 907.643 -4.63271 -2.10375 0
M  V30 10115 H 907.041 -2.96904 -4.81523 0
M  V30 10116 H 905.598 -3.74213 -5.33674 0
M  V30 10117 N 909.032 0.252966 -1.55557 0
M  V30 10118 C 910.28 0.979912 -1.76754 0
M  V30 10119 C 910.601 1.86083 -0.582944 0
M  V30 10120 O 909.871 1.91742 0.401497 0
M  V30 10121 H 908.451 0.364805 -0.651864 0
M  V30 10122 H 911.113 0.272372 -1.92987 0
M  V30 10123 H 910.209 1.60518 -2.67657 0
M  V30 10124 N 910.51 1.48831 0.518367 0
M  V30 10125 C 911.44 1.67119 1.63075 0
M  V30 10126 C 912.421 0.519948 1.61958 0
M  V30 10127 O 913.606 0.753824 1.78972 0
M  V30 10128 C 910.736 1.72158 3.01627 0
M  V30 10129 C 909.69 2.86898 3.17606 0
M  V30 10130 C 909.016 2.77035 4.57335 0
M  V30 10131 C 910.316 4.28057 2.99274 0
M  V30 10132 H 912.01 2.60248 1.48025 0
M  V30 10133 H 909.556 1.2524 0.710694 0
M  V30 10134 H 911.509 1.83539 3.7933 0
M  V30 10135 H 910.233 0.756157 3.17726 0
M  V30 10136 H 908.892 2.75091 2.42323 0
M  V30 10137 H 908.54 1.78438 4.70286 0
M  V30 10138 H 908.24 3.54036 4.6897 0
M  V30 10139 H 909.764 2.904 5.37122 0
M  V30 10140 H 911.178 4.40636 3.6676 0
M  V30 10141 H 909.575 5.06145 3.22393 0
M  V30 10142 H 910.645 4.4371 1.95574 0
M  V30 10143 N 911.988 -0.768124 1.37614 0
M  V30 10144 C 913.216 -1.55726 1.36224 0
M  V30 10145 C 913.631 -1.8873 -0.0515357 0
M  V30 10146 O 912.988 -1.51718 -1.0143 0
M  V30 10147 C 913.039 -2.86533 2.20412 0
M  V30 10148 O 912.76 -2.54942 3.56281 0
M  V30 10149 C 914.261 -3.80745 2.27041 0
M  V30 10150 H 911.481 -0.482325 0.46648 0
M  V30 10151 H 914.025 -0.95176 1.81002 0
M  V30 10152 H 912.18 -3.43496 1.79134 0
M  V30 10153 H 912.594 -3.38732 4.00451 0
M  V30 10154 H 914.068 -4.69523 2.90263 0
M  V30 10155 H 914.545 -4.20138 1.27987 0
M  V30 10156 H 915.151 -3.2971 2.68647 0
M  V30 10157 N 913.466 -1.22244 -0.994698 0
M  V30 10158 C 914.882 -0.982006 -1.25813 0
M  V30 10159 C 915.082 0.325488 -1.98854 0
M  V30 10160 O 914.138 1.04857 -2.29698 0
M  V30 10161 C 915.451 -2.1795 -2.07167 0
M  V30 10162 C 916.999 -2.22287 -2.20358 0
M  V30 10163 C 917.474 -3.41583 -3.05098 0
M  V30 10164 N 918.965 -3.41734 -3.12686 0
M  V30 10165 C 919.7 -4.30692 -3.78539 0
M  V30 10166 N 919.196 -5.29865 -4.46335 0
M  V30 10167 N 920.989 -4.18473 -3.75283 0
M  V30 10168 H 913.14 -2.0631 -0.504963 0
M  V30 10169 H 915.403 -0.90395 -0.285618 0
M  V30 10170 H 915.109 -3.12758 -1.60858 0
M  V30 10171 H 914.983 -2.17862 -3.07922 0
M  V30 10172 H 917.37 -1.28028 -2.65881 0
M  V30 10173 H 917.451 -2.26414 -1.19039 0
M  V30 10174 H 917.095 -4.36141 -2.60275 0
M  V30 10175 H 917.025 -3.34695 -4.06555 0
M  V30 10176 H 919.516 -2.69969 -2.64433 0
M  V30 10177 H 919.829 -5.94027 -4.9432 0
M  V30 10178 H 918.174 -5.3378 -4.45089 0
M  V30 10179 H 921.365 -3.40249 -3.21478 0
M  V30 10180 H 921.538 -4.88007 -4.26326 0
M  V30 10181 N 914.944 1.19125 -1.03184 0
M  V30 10182 C 916.355 1.70564 -0.759264 0
M  V30 10183 C 916.706 1.8248 0.720794 0
M  V30 10184 O 915.831 1.49804 1.56166 0
M  V30 10185 C 916.426 3.09793 -1.37163 0
M  V30 10186 C 914.985 3.5848 -1.14757 0
M  V30 10187 C 914.132 2.35265 -1.46784 0
M  V30 10188 H 917.083 1.03925 -1.19939 0
M  V30 10189 H 917.104 3.72624 -0.77015 0
M  V30 10190 H 916.616 3.01088 -2.44882 0
M  V30 10191 H 914.717 3.72494 -0.0887182 0
M  V30 10192 H 914.83 4.42426 -1.83836 0
M  V30 10193 H 913.194 2.38747 -0.887254 0
M  V30 10194 H 913.977 2.29188 -2.55593 0
M  V30 10195 N 916.422 0.810101 1.35185 0
M  V30 10196 C 917.372 0.195541 2.2716 0
M  V30 10197 C 918.356 -0.632691 1.47939 0
M  V30 10198 O 919.548 -0.489372 1.701 0
M  V30 10199 C 916.677 -0.652164 3.37049 0
M  V30 10200 C 915.763 0.185989 4.23692 0
M  V30 10201 N 916.154 1.25073 4.90092 0
M  V30 10202 C 914.452 -0.0318033 4.45989 0
M  V30 10203 C 915.153 1.76272 5.54349 0
M  V30 10204 N 914.129 1.06861 5.32993 0
M  V30 10205 H 917.931 1.01018 2.75994 0
M  V30 10206 H 915.445 0.651612 1.48754 0
M  V30 10207 H 917.442 -1.10851 4.01893 0
M  V30 10208 H 916.102 -1.46511 2.89767 0
M  V30 10209 H 917.113 1.63341 4.91467 0
M  V30 10210 H 913.79 -0.813607 4.09496 0
M  V30 10211 H 915.18 2.65278 6.17315 0
M  V30 10212 N 917.9 -1.47166 0.563914 0
M  V30 10213 C 918.863 -2.28571 -0.169624 0
M  V30 10214 C 919.863 -1.37331 -0.836467 0
M  V30 10215 O 921.053 -1.59896 -0.6913 0
M  V30 10216 C 918.185 -3.17201 -1.24886 0
M  V30 10217 H 919.378 -2.94896 0.545539 0
M  V30 10218 H 916.931 -1.52966 0.321121 0
M  V30 10219 H 917.666 -2.55582 -1.99621 0
M  V30 10220 H 917.451 -3.84356 -0.775426 0
M  V30 10221 H 918.941 -3.7852 -1.76388 0
M  V30 10222 N 919.378 -0.300708 -1.54705 0
M  V30 10223 C 920.655 0.361757 -1.92226 0
M  V30 10224 C 921.035 1.71714 -1.2279 0
M  V30 10225 O 920.383 2.2559 -0.363542 0
M  V30 10226 C 920.593 0.476699 -3.45729 0
M  V30 10227 C 921.941 0.7477 -4.17965 0
M  V30 10228 O 922.965 0.560521 -3.51762 0
M  V30 10229 O 921.824 1.10724 -5.35166 0
M  V30 10230 H 918.918 0.202213 -0.801897 0
M  V30 10231 H 921.464 -0.348746 -1.66078 0
M  V30 10232 H 920.236 -0.476132 -3.88392 0
M  V30 10233 H 919.859 1.23568 -3.77911 0
M  V30 10234 N 920.856 1.57574 -0.0284266 0
M  V30 10235 C 922.084 1.96071 0.660575 0
M  V30 10236 C 922.499 0.904881 1.65703 0
M  V30 10237 O 921.856 -0.113379 1.82147 0
M  V30 10238 C 921.907 3.34634 1.36756 0
M  V30 10239 O 921.628 4.36167 0.411041 0
M  V30 10240 C 923.129 3.87758 2.14845 0
M  V30 10241 H 920.349 0.645794 0.182183 0
M  V30 10242 H 922.893 2.04311 -0.0879858 0
M  V30 10243 H 921.048 3.27616 2.06753 0
M  V30 10244 H 921.462 5.16493 0.913 0
M  V30 10245 H 922.936 4.87058 2.59767 0
M  V30 10246 H 923.413 3.21967 2.9872 0
M  V30 10247 H 924.019 3.98043 1.49807 0
M  V30 10248 N 922.334 -0.244713 1.55689 0
M  V30 10249 C 923.582 -0.970525 1.77272 0
M  V30 10250 C 923.903 -1.85771 0.592804 0
M  V30 10251 O 923.173 -1.91952 -0.391323 0
M  V30 10252 H 921.753 -0.361342 0.653789 0
M  V30 10253 H 924.415 -0.262134 1.93129 0
M  V30 10254 H 923.511 -1.59096 2.68505 0
M  V30 10255 N 923.813 -1.49104 -0.510467 0
M  V30 10256 C 925.038 -1.62068 -1.29417 0
M  V30 10257 C 925.463 -0.288432 -1.85875 0
M  V30 10258 O 924.821 0.742667 -1.65391 0
M  V30 10259 C 924.869 -2.68506 -2.40701 0
M  V30 10260 O 923.973 -2.27021 -3.4429 0
M  V30 10261 H 923.314 -0.542778 -0.382476 0
M  V30 10262 H 925.844 -1.95228 -0.612154 0
M  V30 10263 H 925.854 -2.90383 -2.86604 0
M  V30 10264 H 924.529 -3.65216 -1.98973 0
M  V30 10265 H 923.106 -2.15436 -3.04371 0
M  V30 10266 N 925.291 0.760815 -1.38019 0
M  V30 10267 C 926.54 1.51506 -1.3315 0
M  V30 10268 C 926.853 1.95444 0.0782124 0
M  V30 10269 O 928.059 2.70352 0.249418 0
M  V30 10270 C 926.515 2.73636 -2.33776 0
M  V30 10271 C 926.123 2.36753 -3.80332 0
M  V30 10272 C 927.867 3.51548 -2.37937 0
M  V30 10273 C 925.774 3.55451 -4.72661 0
M  V30 10274 H 924.704 0.568844 -0.494907 0
M  V30 10275 H 927.355 0.832343 -1.63537 0
M  V30 10276 H 925.737 3.43852 -1.96422 0
M  V30 10277 H 926.911 1.7425 -4.26584 0
M  V30 10278 H 925.226 1.71991 -3.7922 0
M  V30 10279 H 927.823 4.39791 -3.04119 0
M  V30 10280 H 928.166 3.9219 -1.39617 0
M  V30 10281 H 928.699 2.88339 -2.74054 0
M  V30 10282 H 925.438 3.19882 -5.7215 0
M  V30 10283 H 924.958 4.17022 -4.31107 0
M  V30 10284 H 926.637 4.22125 -4.90326 0
M  V30 10285 N 926.769 1.22769 0.988202 0
M  V30 10286 C 928.185 0.988665 1.2529 0
M  V30 10287 C 928.385 -0.314938 1.99024 0
M  V30 10288 O 927.441 -1.03637 2.30251 0
M  V30 10289 C 928.754 2.19046 2.06009 0
M  V30 10290 C 930.302 2.23452 2.19176 0
M  V30 10291 C 930.777 3.43196 3.03283 0
M  V30 10292 N 932.268 3.43387 3.10869 0
M  V30 10293 C 933.003 4.32693 3.7625 0
M  V30 10294 N 932.499 5.32224 4.43519 0
M  V30 10295 N 934.292 4.20457 3.73058 0
M  V30 10296 H 926.443 2.06575 0.494014 0
M  V30 10297 H 928.706 0.905452 0.28082 0
M  V30 10298 H 928.412 3.13607 1.59197 0
M  V30 10299 H 928.286 2.19492 3.06763 0
M  V30 10300 H 930.673 1.29436 2.65199 0
M  V30 10301 H 930.754 2.27042 1.17836 0
M  V30 10302 H 930.398 4.37515 2.57959 0
M  V30 10303 H 930.328 3.36847 4.04774 0
M  V30 10304 H 932.819 2.71368 2.62998 0
M  V30 10305 H 933.132 5.9664 4.91163 0
M  V30 10306 H 931.477 5.36133 4.42252 0
M  V30 10307 H 934.668 3.41949 3.19669 0
M  V30 10308 H 934.841 4.90261 4.23731 0
M  V30 10309 N 928.247 -1.18576 1.03814 0
M  V30 10310 C 929.472 -1.92978 0.759873 0
M  V30 10311 C 929.897 -1.75514 -0.676486 0
M  V30 10312 O 929.255 -1.06359 -1.46824 0
M  V30 10313 C 929.303 -3.42507 1.12788 0
M  V30 10314 O 928.407 -4.1163 0.251886 0
M  V30 10315 H 927.748 -0.602129 0.279886 0
M  V30 10316 H 930.278 -1.50383 1.3873 0
M  V30 10317 H 930.288 -3.93206 1.08872 0
M  V30 10318 H 928.963 -3.5454 2.17427 0
M  V30 10319 H 927.54 -3.7125 0.350441 0
M  V30 10320 N 929.725 -0.817259 -1.34754 0
M  V30 10321 C 930.655 -0.249769 -2.3216 0
M  V30 10322 C 931.636 0.630663 -1.57977 0
M  V30 10323 O 932.821 0.558719 -1.85989 0
M  V30 10324 C 929.951 0.593825 -3.42186 0
M  V30 10325 C 928.905 -0.188997 -4.27583 0
M  V30 10326 C 928.231 0.776979 -5.29025 0
M  V30 10327 C 929.531 -1.39401 -5.03354 0
M  V30 10328 H 931.225 -1.06359 -2.79872 0
M  V30 10329 H 928.771 -0.512894 -1.34556 0
M  V30 10330 H 930.724 1.00097 -4.09339 0
M  V30 10331 H 929.448 1.44064 -2.93109 0
M  V30 10332 H 928.107 -0.577445 -3.62024 0
M  V30 10333 H 927.755 1.61959 -4.76212 0
M  V30 10334 H 927.455 0.257448 -5.87036 0
M  V30 10335 H 928.979 1.18211 -5.99048 0
M  V30 10336 H 930.393 -1.06117 -5.63393 0
M  V30 10337 H 928.79 -1.84878 -5.70912 0
M  V30 10338 H 929.86 -2.17515 -4.33377 0
M  V30 10339 N 931.203 1.46865 -0.571711 0
M  V30 10340 C 932.135 2.28277 0.205479 0
M  V30 10341 C 933.148 1.37866 0.865835 0
M  V30 10342 O 934.337 1.62564 0.737247 0
M  V30 10343 C 931.437 3.12572 1.30965 0
M  V30 10344 C 930.61 4.31038 0.743328 0
M  V30 10345 C 929.669 4.96815 1.73382 0
M  V30 10346 O 928.695 5.54755 1.2742 0
M  V30 10347 N 929.897 4.92825 3.06764 0
M  V30 10348 H 932.662 2.95618 -0.49294 0
M  V30 10349 H 930.223 1.56655 -0.408744 0
M  V30 10350 H 932.215 3.53442 1.97131 0
M  V30 10351 H 930.785 2.47378 1.91109 0
M  V30 10352 H 930.005 3.94084 -0.0955004 0
M  V30 10353 H 931.293 5.07632 0.344556 0
M  V30 10354 H 930.691 4.46978 3.46738 0
M  V30 10355 H 929.248 5.3767 3.68449 0
M  V30 10356 N 932.681 0.308908 1.54543 0
M  V30 10357 C 933.909 -0.300418 2.04707 0
M  V30 10358 C 934.324 -1.46915 1.18581 0
M  V30 10359 O 933.681 -1.81251 0.213186 0
M  V30 10360 C 933.732 -0.749038 3.53655 0
M  V30 10361 O 933.453 0.373181 4.36508 0
M  V30 10362 C 934.954 -1.4227 4.1985 0
M  V30 10363 H 932.174 -0.0641267 0.667929 0
M  V30 10364 H 934.718 0.450839 1.99469 0
M  V30 10365 H 932.873 -1.4503 3.59228 0
M  V30 10366 H 933.287 0.0224752 5.24495 0
M  V30 10367 H 934.761 -1.68768 5.25568 0
M  V30 10368 H 935.238 -2.36531 3.70067 0
M  V30 10369 H 935.844 -0.764404 4.18374 0
M  V30 10370 N 934.159 -1.57557 0.0367827 0
M  V30 10371 C 935.407 -1.91735 -0.63892 0
M  V30 10372 C 935.728 -0.914515 -1.72226 0
M  V30 10373 O 934.998 0.0428248 -1.95853 0
M  V30 10374 H 933.578 -0.707738 -0.23899 0
M  V30 10375 H 936.24 -1.94708 0.0863931 0
M  V30 10376 H 935.336 -2.92568 -1.08676 0
M  V30 10377 N 935.637 0.236453 -1.55816 0
M  V30 10378 C 936.883 0.964439 -1.784 0
M  V30 10379 C 937.216 1.84573 -0.603868 0
M  V30 10380 O 936.491 1.90395 0.397473 0
M  V30 10381 C 936.774 1.81608 -3.10951 0
M  V30 10382 C 936.627 0.962283 -4.39386 0
M  V30 10383 C 937.946 2.79665 -3.39817 0
M  V30 10384 H 935.065 0.349192 -0.649026 0
M  V30 10385 H 937.707 0.234247 -1.8855 0
M  V30 10386 H 935.857 2.43864 -3.02428 0
M  V30 10387 H 937.529 0.35762 -4.59912 0
M  V30 10388 H 935.772 0.267062 -4.32977 0
M  V30 10389 H 936.443 1.59222 -5.28538 0
M  V30 10390 H 938.919 2.27546 -3.4837 0
M  V30 10391 H 937.795 3.36367 -4.33761 0
M  V30 10392 H 938.056 3.56657 -2.61244 0
M  V30 10393 N 937.115 1.49373 0.502552 0
M  V30 10394 C 938.363 1.58467 1.25429 0
M  V30 10395 C 938.684 0.272593 1.93085 0
M  V30 10396 O 937.954 -0.707947 1.82661 0
M  V30 10397 H 936.534 0.583866 0.46595 0
M  V30 10398 H 939.196 1.8599 0.582568 0
M  V30 10399 H 938.292 2.37993 2.01906 0
M  V30 10400 N 938.594 -0.753485 1.38421 0
M  V30 10401 C 939.504 -1.89797 1.37892 0
M  V30 10402 C 940.52 -1.71797 0.276023 0
M  V30 10403 O 941.696 -1.94718 0.514464 0
M  V30 10404 C 938.761 -3.25166 1.20284 0
M  V30 10405 C 937.822 -3.55691 2.4038 0
M  V30 10406 C 937.055 -4.84601 2.23602 0
M  V30 10407 O 937.278 -5.56985 1.22979 0
M  V30 10408 O 936.212 -5.14605 3.12194 0
M  V30 10409 H 940.038 -1.93197 2.34326 0
M  V30 10410 H 937.623 -0.898775 1.19342 0
M  V30 10411 H 939.505 -4.06099 1.12525 0
M  V30 10412 H 938.18 -3.22577 0.269352 0
M  V30 10413 H 937.087 -2.74919 2.53714 0
M  V30 10414 H 938.42 -3.6304 3.32359 0
M  V30 10415 N 940.072 -1.23292 -0.981677 0
M  V30 10416 C 941.002 -1.03738 -2.09191 0
M  V30 10417 C 941.983 0.0453041 -1.7004 0
M  V30 10418 O 943.168 -0.119092 -1.93834 0
M  V30 10419 C 940.298 -0.626426 -3.41604 0
M  V30 10420 C 939.252 -1.65631 -3.94652 0
M  V30 10421 C 938.578 -1.10084 -5.23245 0
M  V30 10422 C 939.878 -3.04903 -4.24066 0
M  V30 10423 H 941.572 -1.966 -2.25807 0
M  V30 10424 H 939.118 -0.946656 -1.0851 0
M  V30 10425 H 941.071 -0.476689 -4.18695 0
M  V30 10426 H 939.795 0.337873 -3.24848 0
M  V30 10427 H 938.454 -1.79402 -3.19704 0
M  V30 10428 H 938.102 -0.127562 -5.02838 0
M  V30 10429 H 937.802 -1.78896 -5.59705 0
M  V30 10430 H 939.326 -0.962928 -6.02959 0
M  V30 10431 H 940.74 -2.94441 -4.91912 0
M  V30 10432 H 939.137 -3.70941 -4.71724 0
M  V30 10433 H 940.207 -3.53991 -3.31389 0
M  V30 10434 N 941.55 1.18024 -1.04442 0
M  V30 10435 C 942.5 2.19714 -0.609069 0
M  V30 10436 C 943.484 1.57037 0.350473 0
M  V30 10437 O 944.676 1.76192 0.16892 0
M  V30 10438 C 941.805 3.43293 0.0225911 0
M  V30 10439 C 940.891 4.13084 -0.960325 0
M  V30 10440 N 941.282 4.58819 -2.12883 0
M  V30 10441 C 939.58 4.38999 -0.787146 0
M  V30 10442 C 940.281 5.12589 -2.75004 0
M  V30 10443 N 939.257 5.04333 -2.02853 0
M  V30 10444 H 943.059 2.5277 -1.49948 0
M  V30 10445 H 940.573 1.34271 -0.913517 0
M  V30 10446 H 942.57 4.1541 0.352196 0
M  V30 10447 H 941.23 3.11731 0.908495 0
M  V30 10448 H 942.241 4.53148 -2.50754 0
M  V30 10449 H 938.918 4.17472 0.048348 0
M  V30 10450 H 940.308 5.58152 -3.74053 0
M  V30 10451 N 943.028 0.824394 1.34319 0
M  V30 10452 C 944.276 0.41235 1.97849 0
M  V30 10453 C 944.597 -1.02841 1.65677 0
M  V30 10454 O 943.867 -1.71421 0.948245 0
M  V30 10455 H 942.447 0.149486 0.73189 0
M  V30 10456 H 945.109 1.05416 1.63931 0
M  V30 10457 H 944.205 0.532557 3.07523 0
M  V30 10458 N 944.506 -1.46559 0.579492 0
M  V30 10459 C 945.416 -2.34066 -0.15816 0
M  V30 10460 C 946.432 -1.49556 -0.88932 0
M  V30 10461 O 947.608 -1.82434 -0.853226 0
M  V30 10462 C 944.673 -3.26683 -1.161 0
M  V30 10463 C 943.734 -4.27092 -0.434855 0
M  V30 10464 C 942.967 -5.15283 -1.38992 0
M  V30 10465 O 943.19 -5.06345 -2.62623 0
M  V30 10466 O 942.124 -5.95099 -0.902253 0
M  V30 10467 H 945.95 -2.98488 0.560234 0
M  V30 10468 H 943.535 -1.45482 0.339918 0
M  V30 10469 H 945.417 -3.8383 -1.73932 0
M  V30 10470 H 944.092 -2.64862 -1.86091 0
M  V30 10471 H 942.999 -3.73641 0.185224 0
M  V30 10472 H 944.332 -4.9169 0.224031 0
M  V30 10473 N 945.984 -0.3171 -1.54377 0
M  V30 10474 C 947.212 0.289558 -2.04864 0
M  V30 10475 C 947.627 1.46284 -1.19359 0
M  V30 10476 O 946.984 1.81135 -0.222795 0
M  V30 10477 C 947.035 0.730273 -3.54047 0
M  V30 10478 O 946.756 -0.396325 -4.36304 0
M  V30 10479 C 948.257 1.40041 -4.20599 0
M  V30 10480 H 945.477 0.0605836 -0.668259 0
M  V30 10481 H 948.021 -0.461411 -1.99227 0
M  V30 10482 H 946.176 1.43123 -3.59992 0
M  V30 10483 H 946.59 -0.0502901 -5.24476 0
M  V30 10484 H 948.064 1.65979 -5.26455 0
M  V30 10485 H 948.541 2.34565 -3.71316 0
M  V30 10486 H 949.147 0.742206 -4.18774 0
M  V30 10487 N 947.462 1.57535 -0.0451378 0
M  V30 10488 C 948.878 1.56533 0.311373 0
M  V30 10489 C 949.078 1.05225 1.71843 0
M  V30 10490 O 948.134 0.706144 2.42425 0
M  V30 10491 C 949.447 3.00349 0.145348 0
M  V30 10492 C 950.995 3.12248 0.216908 0
M  V30 10493 C 951.47 4.57931 0.0794834 0
M  V30 10494 N 952.961 4.63 0.135954 0
M  V30 10495 C 953.696 5.73375 0.0536426 0
M  V30 10496 N 953.192 6.92753 -0.0806725 0
M  V30 10497 N 954.985 5.61995 0.108789 0
M  V30 10498 H 947.136 1.89211 -0.965044 0
M  V30 10499 H 949.399 0.871068 -0.374091 0
M  V30 10500 H 949.105 3.41898 -0.824533 0
M  V30 10501 H 948.979 3.66086 0.908903 0
M  V30 10502 H 951.366 2.70601 1.17726 0
M  V30 10503 H 951.447 2.49201 -0.577299 0
M  V30 10504 H 951.091 5.00262 -0.877516 0
M  V30 10505 H 951.021 5.18977 0.892758 0
M  V30 10506 H 953.512 3.77142 0.23926 0
M  V30 10507 H 953.825 7.7268 -0.136351 0
M  V30 10508 H 952.17 6.94904 -0.115675 0
M  V30 10509 H 955.361 4.67619 0.212235 0
M  V30 10510 H 955.534 6.47987 0.0411822 0
M  V30 10511 N 948.94 -0.228186 1.55939 0
M  V30 10512 C 950.187 -0.953552 1.78644 0
M  V30 10513 C 950.515 -1.84596 0.61275 0
M  V30 10514 O 949.77 -1.91502 -0.403175 0
M  V30 10515 C 950.069 -1.82924 3.0704 0
M  V30 10516 C 949.735 -1.09062 4.37511 0
M  V30 10517 C 948.397 -0.886565 4.72962 0
M  V30 10518 C 950.749 -0.568533 5.1809 0
M  V30 10519 C 948.077 -0.148413 5.86512 0
M  V30 10520 C 950.429 0.156243 6.32407 0
M  V30 10521 C 949.093 0.371612 6.66465 0
M  V30 10522 H 948.363 -0.348929 0.653704 0
M  V30 10523 H 951.01 -0.222211 1.90206 0
M  V30 10524 H 949.315 -2.62823 2.90571 0
M  V30 10525 H 951.012 -2.3925 3.21808 0
M  V30 10526 H 947.602 -1.25963 4.09672 0
M  V30 10527 H 951.786 -0.713673 4.91142 0
M  V30 10528 H 947.042 0.0287418 6.11393 0
M  V30 10529 H 951.216 0.568333 6.94077 0
M  V30 10530 H 948.843 0.945522 7.54297 0
M  V30 10531 N 950.418 -1.49637 -0.494624 0
M  V30 10532 C 951.664 -1.60654 -1.24747 0
M  V30 10533 C 952.019 -0.292376 -1.90166 0
M  V30 10534 O 951.312 0.707918 -1.78042 0
M  V30 10535 C 951.506 -2.70749 -2.33302 0
M  V30 10536 C 951.335 -4.12744 -1.7853 0
M  V30 10537 C 950.105 -4.79451 -1.59546 0
M  V30 10538 C 952.303 -4.97767 -1.29353 0
M  V30 10539 N 950.285 -6.05738 -0.997702 0
M  V30 10540 C 951.656 -6.14587 -0.817517 0
M  V30 10541 C 953.711 -4.83719 -1.17986 0
M  V30 10542 C 952.414 -7.18903 -0.23907 0
M  V30 10543 C 954.44 -5.8819 -0.615375 0
M  V30 10544 C 953.802 -7.04241 -0.149622 0
M  V30 10545 H 949.901 -0.642198 -0.446213 0
M  V30 10546 H 952.485 -1.86668 -0.553469 0
M  V30 10547 H 950.656 -2.46497 -3.00156 0
M  V30 10548 H 952.388 -2.71253 -3.0034 0
M  V30 10549 H 949.143 -4.36354 -1.84098 0
M  V30 10550 H 949.567 -6.73183 -0.717911 0
M  V30 10551 H 954.209 -3.94304 -1.52592 0
M  V30 10552 H 951.927 -8.08012 0.11925 0
M  V30 10553 H 955.513 -5.7938 -0.530114 0
M  V30 10554 H 954.393 -7.83699 0.280349 0
M  V30 10555 N 951.896 0.746133 -1.38819 0
M  V30 10556 C 952.846 1.85085 -1.33145 0
M  V30 10557 C 953.83 1.59466 -0.214339 0
M  V30 10558 O 955.022 1.71159 -0.450943 0
M  V30 10559 C 952.151 3.22884 -1.16623 0
M  V30 10560 C 951.237 3.54369 -2.32988 0
M  V30 10561 N 951.628 3.56863 -3.58445 0
M  V30 10562 C 949.926 3.84674 -2.25703 0
M  V30 10563 C 950.627 3.85827 -4.3533 0
M  V30 10564 N 949.603 4.03037 -3.64777 0
M  V30 10565 H 953.405 1.85301 -2.28124 0
M  V30 10566 H 950.919 0.943847 -1.32156 0
M  V30 10567 H 952.916 4.0195 -1.10642 0
M  V30 10568 H 951.576 3.23914 -0.225841 0
M  V30 10569 H 952.587 3.38443 -3.92017 0
M  V30 10570 H 949.264 3.93375 -1.39864 0
M  V30 10571 H 950.654 3.94317 -5.44025 0
M  V30 10572 N 953.375 1.23811 0.975125 0
M  V30 10573 C 954.623 1.07124 1.71373 0
M  V30 10574 C 954.944 -0.391864 1.91022 0
M  V30 10575 O 954.214 -1.28041 1.48265 0
M  V30 10576 H 952.794 0.393415 0.635007 0
M  V30 10577 H 955.456 1.55612 1.17349 0
M  V30 10578 H 954.552 1.56338 2.7012 0
M  V30 10579 N 954.853 -1.17469 1.05066 0
M  V30 10580 C 955.8 -2.21443 0.650512 0
M  V30 10581 C 956.77 -1.62441 -0.346702 0
M  V30 10582 O 957.955 -1.89305 -0.238404 0
M  V30 10583 C 955.095 -3.45087 0.0301014 0
M  V30 10584 C 954.208 -4.18385 1.07599 0
M  V30 10585 C 953.343 -5.29513 0.423038 0
M  V30 10586 C 952.382 -5.94596 1.45333 0
M  V30 10587 N 951.519 -6.97241 0.824623 0
M  V30 10588 H 956.359 -2.55025 1.54163 0
M  V30 10589 H 953.896 -1.25274 0.771032 0
M  V30 10590 H 955.854 -4.15754 -0.347032 0
M  V30 10591 H 954.484 -3.12093 -0.824481 0
M  V30 10592 H 953.536 -3.46446 1.57097 0
M  V30 10593 H 954.848 -4.62899 1.85813 0
M  V30 10594 H 954.002 -6.067 -0.00774975 0
M  V30 10595 H 952.741 -4.86129 -0.391092 0
M  V30 10596 H 951.746 -5.16142 1.89415 0
M  V30 10597 H 952.971 -6.40061 2.26934 0
M  V30 10598 H 950.917 -6.55993 0.0309804 0
M  V30 10599 H 950.834 -7.40059 1.54432 0
M  V30 10600 H 952.102 -7.78375 0.418567 0
M  V30 10601 N 956.331 -0.831506 -1.3388 0
M  V30 10602 C 957.608 -0.345907 -1.92517 0
M  V30 10603 C 957.988 1.16784 -1.75854 0
M  V30 10604 O 957.336 1.97889 -1.14245 0
M  V30 10605 C 957.546 -0.784692 -3.40064 0
M  V30 10606 C 958.894 -0.78846 -4.17215 0
M  V30 10607 O 959.918 -0.727823 -3.48685 0
M  V30 10608 O 958.777 -0.869481 -5.39539 0
M  V30 10609 H 955.871 -0.0963568 -0.821367 0
M  V30 10610 H 958.417 -0.916868 -1.42799 0
M  V30 10611 H 957.189 -1.82697 -3.46031 0
M  V30 10612 H 956.812 -0.189897 -3.97146 0
M  V30 10613 N 957.809 1.4625 -0.587256 0
M  V30 10614 C 959.039 2.06444 -0.0802135 0
M  V30 10615 C 959.447 1.43585 1.23207 0
M  V30 10616 O 958.79 0.536956 1.75677 0
M  V30 10617 C 958.852 3.59165 0.155129 0
M  V30 10618 C 958.516 4.44243 -1.07225 0
M  V30 10619 C 959.513 4.80497 -1.98542 0
M  V30 10620 C 957.198 4.8531 -1.29537 0
M  V30 10621 C 959.192 5.56649 -3.10516 0
M  V30 10622 C 956.879 5.61221 -2.41815 0
M  V30 10623 C 957.877 5.96805 -3.32134 0
M  V30 10624 O 957.565 6.71181 -4.42461 0
M  V30 10625 H 957.297 0.673626 -0.0566063 0
M  V30 10626 H 959.851 1.88797 -0.809004 0
M  V30 10627 H 958.081 3.75137 0.938583 0
M  V30 10628 H 959.77 4.01271 0.611243 0
M  V30 10629 H 960.536 4.49345 -1.82522 0
M  V30 10630 H 956.415 4.5706 -0.601431 0
M  V30 10631 H 959.959 5.84343 -3.81037 0
M  V30 10632 H 955.856 5.91786 -2.57797 0
M  V30 10633 H 956.624 6.8961 -4.40886 0
M  V30 10634 N 959.287 0.325282 1.54207 0
M  V30 10635 C 960.527 -0.277347 2.0251 0
M  V30 10636 C 960.891 -1.49211 1.20831 0
M  V30 10637 O 962.092 -2.16771 1.58945 0
M  V30 10638 C 960.363 -0.601517 3.52302 0
M  V30 10639 S 961.922 -1.18356 4.22537 0
M  V30 10640 H 958.74 -0.08378 0.706047 0
M  V30 10641 H 961.342 0.458804 1.9004 0
M  V30 10642 H 960.046 0.290696 4.09369 0
M  V30 10643 H 959.577 -1.36782 3.68855 0
M  V30 10644 H 961.592 -2.47029 4.30338 0
M  V30 10645 N 960.765 -1.57509 0.0534917 0
M  V30 10646 C 961.713 -2.12851 -0.937931 0
M  V30 10647 C 962.707 -1.06088 -1.32067 0
M  V30 10648 O 963.913 -1.24494 -1.30005 0
M  V30 10649 H 960.288 -0.680357 -0.320342 0
M  V30 10650 H 962.259 -2.95047 -0.446077 0
M  V30 10651 C 961.008 -2.69034 -2.20264 0
M  V30 10652 H 960.331 -3.50848 -1.91693 0
M  V30 10653 H 961.771 -3.11375 -2.87788 0
M  V30 10654 C 960.23 -1.62919 -2.94888 0
M  V30 10655 O 960.76 -1.04334 -3.87914 0
M  V30 10656 N 958.966 -1.34385 -2.57661 0
M  V30 10657 H 958.513 -1.82214 -1.82088 0
M  V30 10658 H 958.471 -0.636149 -3.07897 0
M  V30 10659 N 962.243 0.219913 -1.56058 0
M  V30 10660 C 963.49 0.944064 -1.79147 0
M  V30 10661 C 963.818 1.84268 -0.622531 0
M  V30 10662 O 963.073 1.91713 0.393013 0
M  V30 10663 C 963.372 1.81293 -3.08006 0
M  V30 10664 C 963.038 1.0674 -4.38084 0
M  V30 10665 C 961.7 0.86147 -4.73426 0
M  V30 10666 C 964.052 0.541049 -5.18384 0
M  V30 10667 C 961.38 0.117307 -5.86583 0
M  V30 10668 C 963.732 -0.189779 -6.32315 0
M  V30 10669 C 962.396 -0.406951 -6.66258 0
M  V30 10670 H 961.666 0.345458 -0.655546 0
M  V30 10671 H 964.313 0.212121 -1.90322 0
M  V30 10672 H 962.618 2.61278 -2.9196 0
M  V30 10673 H 964.315 2.3754 -3.23072 0
M  V30 10674 H 960.905 1.23789 -4.10334 0
M  V30 10675 H 965.089 0.687617 -4.91514 0
M  V30 10676 H 960.345 -0.0611651 -6.11369 0
M  V30 10677 H 964.519 -0.605134 -6.93766 0
M  V30 10678 H 962.146 -0.985511 -7.53785 0
M  V30 10679 N 963.721 1.49897 0.486681 0
M  V30 10680 C 964.967 1.60342 1.2417 0
M  V30 10681 C 965.3 0.295694 1.91936 0
M  V30 10682 O 964.575 -0.701788 1.81398 0
M  V30 10683 C 964.858 2.77281 2.29755 0
M  V30 10684 C 964.711 4.1789 1.66397 0
M  V30 10685 C 966.03 2.89817 3.31201 0
M  V30 10686 H 963.149 0.583605 0.450083 0
M  V30 10687 H 965.791 1.82232 0.537734 0
M  V30 10688 H 963.941 2.58748 2.89796 0
M  V30 10689 H 965.613 4.47975 1.10073 0
M  V30 10690 H 963.856 4.22872 0.967579 0
M  V30 10691 H 964.527 4.95612 2.43049 0
M  V30 10692 H 967.003 3.06732 2.81167 0
M  V30 10693 H 965.879 3.7329 4.02425 0
M  V30 10694 H 966.14 1.9977 3.94391 0
M  V30 10695 N 965.199 -0.738761 1.39212 0
M  V30 10696 C 966.446 -1.49824 1.36231 0
M  V30 10697 C 966.774 -1.94453 -0.0429552 0
M  V30 10698 O 966.029 -1.6683 -1.02304 0
M  V30 10699 C 966.328 -2.75435 2.2775 0
M  V30 10700 C 965.994 -2.49694 3.75451 0
M  V30 10701 C 964.656 -2.42383 4.15697 0
M  V30 10702 C 967.008 -2.27587 4.68885 0
M  V30 10703 C 964.336 -2.11001 5.47444 0
M  V30 10704 C 966.688 -1.97723 6.00906 0
M  V30 10705 C 965.352 -1.88879 6.4022 0
M  V30 10706 H 964.622 -0.548247 0.498504 0
M  V30 10707 H 967.269 -0.848244 1.71689 0
M  V30 10708 H 965.574 -3.45159 1.85398 0
M  V30 10709 H 967.271 -3.33449 2.22739 0
M  V30 10710 H 963.861 -2.56261 3.43552 0
M  V30 10711 H 968.045 -2.32206 4.38628 0
M  V30 10712 H 963.301 -2.02673 5.76831 0
M  V30 10713 H 967.475 -1.79625 6.72836 0
M  V30 10714 H 965.102 -1.64327 7.42227 0
M  V30 10715 N 966.677 -1.24326 -0.968545 0
M  V30 10716 C 967.624 -1.0349 -2.06297 0
M  V30 10717 C 968.594 0.0515333 -1.6602 0
M  V30 10718 O 969.779 -0.102924 -1.90522 0
M  V30 10719 C 966.919 -0.64487 -3.39021 0
M  V30 10720 C 966.032 -1.80469 -3.92498 0
M  V30 10721 C 965.167 -1.36032 -5.13487 0
M  V30 10722 C 964.206 -2.49014 -5.59159 0
M  V30 10723 N 963.343 -2.05451 -6.71367 0
M  V30 10724 H 968.183 -1.97161 -2.23454 0
M  V30 10725 H 965.72 -0.982028 -1.0952 0
M  V30 10726 H 967.678 -0.399771 -4.1528 0
M  V30 10727 H 966.308 0.254845 -3.21792 0
M  V30 10728 H 965.36 -2.16348 -3.12886 0
M  V30 10729 H 966.672 -2.65365 -4.22354 0
M  V30 10730 H 965.826 -1.07405 -5.97117 0
M  V30 10731 H 964.565 -0.481887 -4.85313 0
M  V30 10732 H 963.57 -2.78402 -4.74102 0
M  V30 10733 H 964.795 -3.37413 -5.89346 0
M  V30 10734 H 962.741 -1.20004 -6.4493 0
M  V30 10735 H 962.658 -2.83901 -7.00668 0
M  V30 10736 H 963.926 -1.79962 -7.58442 0
M  V30 10737 N 968.156 1.1691 -1.05688 0
M  V30 10738 C 969.433 1.83266 -0.683601 0
M  V30 10739 C 969.813 1.93858 0.835602 0
M  V30 10740 O 969.161 1.47696 1.7435 0
M  V30 10741 C 969.371 3.20625 -1.37842 0
M  V30 10742 C 970.719 3.96473 -1.51967 0
M  V30 10743 O 971.743 3.30122 -1.33783 0
M  V30 10744 O 970.602 5.15393 -1.81749 0
M  V30 10745 H 967.696 0.791028 -0.241254 0
M  V30 10746 H 970.242 1.24165 -1.15677 0
M  V30 10747 H 969.014 3.07914 -2.41463 0
M  V30 10748 H 968.637 3.87398 -0.894921 0
M  V30 10749 N 969.634 0.838594 1.33437 0
M  V30 10750 C 970.88 0.444042 1.98494 0
M  V30 10751 C 971.235 -0.985759 1.65229 0
M  V30 10752 O 970.528 -1.67972 0.921736 0
M  V30 10753 C 970.722 0.601425 3.52303 0
M  V30 10754 C 970.551 2.04497 4.00513 0
M  V30 10755 C 969.321 2.68015 4.28364 0
M  V30 10756 C 971.519 3.01367 4.16752 0
M  V30 10757 N 969.501 4.03448 4.62713 0
M  V30 10758 C 970.872 4.21745 4.54457 0
M  V30 10759 C 972.927 2.97776 3.99041 0
M  V30 10760 C 971.63 5.39009 4.76301 0
M  V30 10761 C 973.656 4.14269 4.22061 0
M  V30 10762 C 973.018 5.33402 4.60067 0
M  V30 10763 H 969.117 0.210906 0.753022 0
M  V30 10764 H 971.701 1.0866 1.61558 0
M  V30 10765 H 969.872 -0.0113326 3.88398 0
M  V30 10766 H 971.604 0.178343 4.04307 0
M  V30 10767 H 968.359 2.19153 4.19844 0
M  V30 10768 H 968.783 4.73264 4.84098 0
M  V30 10769 H 973.425 2.06801 3.68773 0
M  V30 10770 H 971.143 6.30529 5.0543 0
M  V30 10771 H 974.729 4.12908 4.09876 0
M  V30 10772 H 973.609 6.22045 4.77525 0
M  V30 10773 N 971.112 -1.45937 0.595003 0
M  V30 10774 C 972.358 -2.0262 0.0854317 0
M  V30 10775 C 972.691 -1.46402 -1.27594 0
M  V30 10776 O 971.966 -0.633823 -1.83883 0
M  V30 10777 C 972.249 -3.60085 0.0329075 0
M  V30 10778 C 972.102 -4.26663 1.42405 0
M  V30 10779 C 973.421 -4.35101 -0.661426 0
M  V30 10780 H 970.54 -0.736282 0.0325196 0
M  V30 10781 H 973.182 -1.73938 0.764563 0
M  V30 10782 H 971.332 -3.84652 -0.545439 0
M  V30 10783 H 973.004 -4.13321 2.04851 0
M  V30 10784 H 971.247 -3.85549 1.98833 0
M  V30 10785 H 971.918 -5.35497 1.33965 0
M  V30 10786 H 974.394 -4.15753 -0.169977 0
M  V30 10787 H 973.27 -5.44829 -0.667243 0
M  V30 10788 H 973.531 -4.07053 -1.72513 0
M  V30 10789 N 972.59 -0.333456 -1.54032 0
M  V30 10790 C 973.522 0.562174 -2.22199 0
M  V30 10791 C 974.535 1.07202 -1.22522 0
M  V30 10792 O 975.724 0.983897 -1.48935 0
M  V30 10793 C 972.824 1.78525 -2.88066 0
M  V30 10794 C 971.997 1.41242 -4.13968 0
M  V30 10795 C 971.056 2.49408 -4.63338 0
M  V30 10796 O 970.082 2.13138 -5.27789 0
M  V30 10797 N 971.284 3.805 -4.38406 0
M  V30 10798 H 974.049 -0.0215629 -2.99692 0
M  V30 10799 H 971.61 -0.157111 -1.61136 0
M  V30 10800 H 973.602 2.50298 -3.18014 0
M  V30 10801 H 972.172 2.2766 -2.14219 0
M  V30 10802 H 971.392 0.525887 -3.90676 0
M  V30 10803 H 972.68 1.13916 -4.95884 0
M  V30 10804 H 972.078 4.12761 -3.86839 0
M  V30 10805 H 970.635 4.48474 -4.72984 0
M  V30 10806 N 974.068 1.57479 -0.061844 0
M  V30 10807 C 974.998 2.15181 0.9066 0
M  V30 10808 C 975.979 1.07624 1.31724 0
M  V30 10809 O 977.164 1.35614 1.39006 0
M  V30 10810 C 974.294 2.70542 2.17771 0
M  V30 10811 C 973.248 3.83178 1.9068 0
M  V30 10812 C 972.574 4.25099 3.24337 0
M  V30 10813 C 973.874 5.07853 1.21994 0
M  V30 10814 H 975.568 2.96355 0.42594 0
M  V30 10815 H 973.114 1.42556 0.203435 0
M  V30 10816 H 975.067 3.09552 2.85929 0
M  V30 10817 H 973.791 1.86575 2.68062 0
M  V30 10818 H 972.45 3.44656 1.24931 0
M  V30 10819 H 972.098 3.38069 3.72449 0
M  V30 10820 H 971.798 5.01021 3.07005 0
M  V30 10821 H 973.322 4.66718 3.93709 0
M  V30 10822 H 974.736 5.44242 1.80204 0
M  V30 10823 H 973.133 5.88987 1.14954 0
M  V30 10824 H 974.203 4.84497 0.197536 0
M  V30 10825 N 975.546 -0.211634 1.56173 0
M  V30 10826 C 976.823 -0.959467 1.70451 0
M  V30 10827 C 977.203 -2.02036 0.611942 0
M  V30 10828 O 976.551 -2.25325 -0.37959 0
M  V30 10829 C 976.761 -1.56092 3.12148 0
M  V30 10830 C 978.109 -2.04939 3.71867 0
M  V30 10831 O 979.133 -1.65966 3.15172 0
M  V30 10832 O 977.992 -2.766 4.71333 0
M  V30 10833 H 975.086 -0.448844 0.6946 0
M  V30 10834 H 977.632 -0.202633 1.68486 0
M  V30 10835 H 976.404 -0.79538 3.83131 0
M  V30 10836 H 976.027 -2.38303 3.18273 0
M  V30 10837 N 977.024 -1.50153 -0.478725 0
M  V30 10838 C 977.971 -1.68458 -1.57767 0
M  V30 10839 C 978.941 -0.5259 -1.57555 0
M  V30 10840 O 980.126 -0.755574 -1.75202 0
M  V30 10841 C 977.266 -1.77772 -2.95789 0
M  V30 10842 C 976.379 -3.05092 -3.05848 0
M  V30 10843 C 975.514 -3.05247 -4.34739 0
M  V30 10844 C 974.553 -4.27053 -4.38512 0
M  V30 10845 N 973.69 -4.24991 -5.58862 0
M  V30 10846 H 978.53 -2.62282 -1.41464 0
M  V30 10847 H 976.067 -1.30023 -0.687921 0
M  V30 10848 H 978.025 -1.81152 -3.75819 0
M  V30 10849 H 976.655 -0.873944 -3.10744 0
M  V30 10850 H 975.707 -3.11219 -2.1874 0
M  V30 10851 H 977.019 -3.95075 -3.04495 0
M  V30 10852 H 976.173 -3.07314 -5.23109 0
M  V30 10853 H 974.912 -2.13081 -4.38689 0
M  V30 10854 H 973.917 -4.25206 -3.4854 0
M  V30 10855 H 975.142 -5.20437 -4.36259 0
M  V30 10856 H 973.088 -3.35674 -5.63612 0
M  V30 10857 H 973.005 -5.08734 -5.59219 0
M  V30 10858 H 974.273 -4.31193 -6.49379 0
M  V30 10859 N 978.502 0.731368 -1.39602 0
M  V30 10860 C 979.913 1.30981 -1.33045 0
M  V30 10861 C 980.264 1.962 0.00349918 0
M  V30 10862 O 979.389 1.96539 0.905615 0
M  V30 10863 C 979.984 2.3817 -2.40958 0
M  V30 10864 C 978.543 2.91678 -2.3791 0
M  V30 10865 C 977.69 1.65286 -2.22656 0
M  V30 10866 H 980.641 0.528615 -1.49637 0
M  V30 10867 H 980.662 3.18645 -2.07955 0
M  V30 10868 H 980.174 1.90673 -3.38032 0
M  V30 10869 H 978.275 3.43446 -1.44485 0
M  V30 10870 H 978.388 3.44545 -3.32904 0
M  V30 10871 H 976.752 1.89759 -1.69893 0
M  V30 10872 H 977.535 1.19836 -3.21705 0
M  V30 10873 N 979.98 1.24838 0.961938 0
M  V30 10874 C 981.227 1.09151 1.70564 0
M  V30 10875 C 981.555 -0.368719 1.90973 0
M  V30 10876 O 980.81 -1.28854 1.47293 0
M  V30 10877 C 981.109 1.78289 3.09754 0
M  V30 10878 C 980.775 3.28216 3.09169 0
M  V30 10879 C 979.437 3.69118 3.08716 0
M  V30 10880 C 981.789 4.24035 3.03058 0
M  V30 10881 C 979.117 5.04263 2.99892 0
M  V30 10882 C 981.469 5.59195 2.95776 0
M  V30 10883 C 980.133 5.99436 2.93655 0
M  V30 10884 H 979.403 0.399414 0.624139 0
M  V30 10885 H 982.05 1.55016 1.12438 0
M  V30 10886 H 980.355 1.24835 3.7138 0
M  V30 10887 H 982.052 1.63612 3.66104 0
M  V30 10888 H 978.642 2.95667 3.10289 0
M  V30 10889 H 982.826 3.93431 3.02532 0
M  V30 10890 H 978.082 5.3463 2.96615 0
M  V30 10891 H 982.256 6.33142 2.90007 0
M  V30 10892 H 979.883 7.04116 2.86573 0
M  V30 10893 N 981.458 -1.16348 1.06306 0
M  V30 10894 C 982.421 -2.18941 0.678053 0
M  V30 10895 C 983.421 -1.58409 -0.276277 0
M  V30 10896 O 984.611 -1.74101 -0.0586435 0
M  V30 10897 C 981.743 -3.409 -0.00228684 0
M  V30 10898 H 982.936 -2.54516 1.58624 0
M  V30 10899 H 980.489 -1.30625 0.858298 0
M  V30 10900 H 981.224 -3.10881 -0.923212 0
M  V30 10901 H 981.009 -3.86089 0.683949 0
M  V30 10902 H 982.499 -4.16806 -0.257374 0
M  V30 10903 N 982.937 -0.845659 -1.3299 0
M  V30 10904 C 984.214 -0.366306 -1.92139 0
M  V30 10905 C 984.594 1.14912 -1.77083 0
M  V30 10906 O 983.942 1.96667 -1.16338 0
M  V30 10907 C 984.152 -0.820716 -3.39213 0
M  V30 10908 C 985.5 -0.832667 -4.16355 0
M  V30 10909 O 986.524 -0.764764 -3.47893 0
M  V30 10910 O 985.383 -0.926658 -5.38586 0
M  V30 10911 H 982.477 -0.105063 -0.820299 0
M  V30 10912 H 985.023 -0.931962 -1.41819 0
M  V30 10913 H 983.795 -1.86357 -3.44074 0
M  V30 10914 H 983.418 -0.232009 -3.96923 0
M  V30 10915 N 984.415 1.45619 -0.602734 0
M  V30 10916 C 985.662 2.02272 -0.0960337 0
M  V30 10917 C 985.99 1.47177 1.27159 0
M  V30 10918 O 985.245 0.634593 1.85125 0
M  V30 10919 C 985.544 3.574 -0.00157909 0
M  V30 10920 C 985.21 4.31626 -1.30422 0
M  V30 10921 C 983.872 4.51622 -1.66106 0
M  V30 10922 C 986.224 4.74091 -2.16535 0
M  V30 10923 C 983.552 5.11338 -2.87663 0
M  V30 10924 C 985.904 5.35151 -3.37336 0
M  V30 10925 C 984.568 5.53371 -3.73278 0
M  V30 10926 H 983.838 0.740166 -0.0351412 0
M  V30 10927 H 986.485 1.74744 -0.783382 0
M  V30 10928 H 984.79 3.84179 0.769008 0
M  V30 10929 H 986.487 3.98934 0.406549 0
M  V30 10930 H 983.077 4.16372 -1.01647 0
M  V30 10931 H 987.261 4.5838 -1.90266 0
M  V30 10932 H 982.517 5.23634 -3.15622 0
M  V30 10933 H 986.691 5.67011 -4.04316 0
M  V30 10934 H 984.318 5.99412 -4.67556 0
M  V30 10935 N 985.893 0.34162 1.53853 0
M  V30 10936 C 987.142 -0.256475 2.00063 0
M  V30 10937 C 987.455 -1.51811 1.23341 0
M  V30 10938 O 988.661 -2.19332 1.60017 0
M  V30 10939 C 987.117 -0.507567 3.56303 0
M  V30 10940 C 986.725 0.738052 4.41879 0
M  V30 10941 C 988.469 -1.06463 4.10933 0
M  V30 10942 C 986.376 0.457865 5.89625 0
M  V30 10943 H 985.306 -0.0996143 0.747391 0
M  V30 10944 H 987.957 0.456649 1.77727 0
M  V30 10945 H 986.339 -1.28134 3.74697 0
M  V30 10946 H 987.513 1.51278 4.3526 0
M  V30 10947 H 985.828 1.21661 3.98231 0
M  V30 10948 H 988.425 -1.28918 5.18926 0
M  V30 10949 H 988.768 -2.01956 3.64032 0
M  V30 10950 H 989.301 -0.351601 3.96243 0
M  V30 10951 H 986.04 1.38247 6.40756 0
M  V30 10952 H 985.56 -0.278818 5.99152 0
M  V30 10953 H 987.239 0.0743914 6.46957 0
M  V30 10954 N 987.371 -1.57444 0.0701946 0
M  V30 10955 C 988.648 -1.84826 -0.6402 0
M  V30 10956 C 989.028 -0.962344 -1.87889 0
M  V30 10957 O 988.376 -0.0282209 -2.28483 0
M  V30 10958 C 988.586 -3.34976 -0.979382 0
M  V30 10959 C 989.934 -4.02448 -1.35355 0
M  V30 10960 O 990.958 -3.39713 -1.07116 0
M  V30 10961 O 989.817 -5.13096 -1.88136 0
M  V30 10962 H 986.911 -0.763494 -0.317813 0
M  V30 10963 H 989.457 -1.69399 0.101004 0
M  V30 10964 H 988.229 -3.91173 -0.0995576 0
M  V30 10965 H 987.852 -3.5566 -1.7774 0
M  V30 10966 N 988.849 0.203349 -1.56283 0
M  V30 10967 C 990.265 0.55384 -1.49682 0
M  V30 10968 C 990.465 1.86261 -0.768701 0
M  V30 10969 O 989.521 2.50517 -0.315824 0
M  V30 10970 C 990.834 0.616216 -2.94318 0
M  V30 10971 C 992.382 0.705611 -3.04943 0
M  V30 10972 C 992.857 0.79917 -4.50974 0
M  V30 10973 N 994.348 0.862916 -4.55091 0
M  V30 10974 C 995.083 0.955334 -5.65386 0
M  V30 10975 N 994.579 1.01057 -6.8539 0
M  V30 10976 N 996.372 0.991884 -5.53279 0
M  V30 10977 H 988.523 -0.655244 -2.0204 0
M  V30 10978 H 990.786 -0.232344 -0.919087 0
M  V30 10979 H 990.492 -0.27619 -3.50614 0
M  V30 10980 H 990.366 1.47371 -3.4722 0
M  V30 10981 H 992.753 1.58845 -2.48701 0
M  V30 10982 H 992.834 -0.177921 -2.5518 0
M  V30 10983 H 992.478 -0.0792841 -5.07838 0
M  V30 10984 H 992.408 1.69838 -4.9846 0
M  V30 10985 H 994.899 0.829812 -3.68677 0
M  V30 10986 H 995.212 1.08137 -7.65197 0
M  V30 10987 H 993.557 0.979384 -6.88065 0
M  V30 10988 H 996.748 0.945514 -4.58451 0
M  V30 10989 H 996.921 1.06045 -6.39264 0
M  V30 10990 N 990.327 1.50405 0.470755 0
M  V30 10991 C 991.557 1.64928 1.24428 0
M  V30 10992 C 991.965 0.332139 1.86262 0
M  V30 10993 O 991.308 -0.695919 1.70008 0
M  V30 10994 C 991.37 2.6829 2.39293 0
M  V30 10995 C 991.034 4.11835 1.98093 0
M  V30 10996 C 992.031 4.97693 1.50326 0
M  V30 10997 C 989.716 4.57753 2.06803 0
M  V30 10998 C 991.71 6.27516 1.11813 0
M  V30 10999 C 989.397 5.87582 1.67902 0
M  V30 11000 C 990.395 6.72289 1.20485 0
M  V30 11001 O 990.083 7.99694 0.821219 0
M  V30 11002 H 989.815 0.557418 0.382442 0
M  V30 11003 H 992.369 1.97382 0.568292 0
M  V30 11004 H 990.599 2.31079 3.10063 0
M  V30 11005 H 992.288 2.7203 3.01255 0
M  V30 11006 H 993.054 4.63434 1.43018 0
M  V30 11007 H 988.933 3.91966 2.42659 0
M  V30 11008 H 992.477 6.93586 0.747317 0
M  V30 11009 H 988.374 6.21362 1.74869 0
M  V30 11010 H 989.142 8.12968 0.950038 0
M  V30 11011 N 991.805 -0.723954 1.39988 0
M  V30 11012 C 993.03 -1.5182 1.41299 0
M  V30 11013 C 993.455 -1.88096 0.0122636 0
M  V30 11014 O 992.813 -1.52687 -0.977559 0
M  V30 11015 C 992.861 -2.77532 2.30235 0
M  V30 11016 O 991.965 -3.73903 1.73984 0
M  V30 11017 H 991.306 -0.458058 0.480707 0
M  V30 11018 H 993.836 -0.892291 1.84118 0
M  V30 11019 H 993.846 -3.2615 2.45132 0
M  V30 11020 H 992.521 -2.50462 3.32026 0
M  V30 11021 H 991.098 -3.32715 1.68389 0
M  V30 11022 N 993.283 -1.25346 -0.955304 0
M  V30 11023 C 994.511 -1.12793 -1.73451 0
M  V30 11024 C 994.926 0.318344 -1.86097 0
M  V30 11025 O 994.283 1.21897 -1.35821 0
M  V30 11026 C 994.334 -1.77603 -3.14864 0
M  V30 11027 O 994.055 -3.16577 -3.02837 0
M  V30 11028 C 995.556 -1.70821 -4.09066 0
M  V30 11029 H 992.776 -0.393457 -0.543537 0
M  V30 11030 H 995.32 -1.65696 -1.19855 0
M  V30 11031 H 993.475 -1.28673 -3.65407 0
M  V30 11032 H 993.889 -3.48433 -3.92039 0
M  V30 11033 H 995.363 -2.2083 -5.05903 0
M  V30 11034 H 995.84 -0.671858 -4.34031 0
M  V30 11035 H 996.446 -2.19237 -3.64438 0
M  V30 11036 N 994.761 1.15782 -1.06922 0
M  V30 11037 C 996.172 1.68062 -0.813144 0
M  V30 11038 C 996.523 1.84681 0.662374 0
M  V30 11039 O 995.648 1.54696 1.51321 0
M  V30 11040 C 996.243 3.05273 -1.46949 0
M  V30 11041 C 994.802 3.54647 -1.26104 0
M  V30 11042 C 993.949 2.30477 -1.54194 0
M  V30 11043 H 996.9 1.00056 -1.23185 0
M  V30 11044 H 996.921 3.69986 -0.888308 0
M  V30 11045 H 996.433 2.93145 -2.54337 0
M  V30 11046 H 994.534 3.72024 -0.20718 0
M  V30 11047 H 994.647 4.36354 -1.97819 0
M  V30 11048 H 993.011 2.35803 -0.96276 0
M  V30 11049 H 993.794 2.2094 -2.62755 0
M  V30 11050 N 996.239 0.8527 1.3254 0
M  V30 11051 C 997.655 0.542298 1.50104 0
M  V30 11052 C 997.855 -0.927465 1.78886 0
M  V30 11053 O 996.911 -1.7106 1.85728 0
M  V30 11054 C 998.224 1.4276 2.64651 0
M  V30 11055 C 999.772 1.42782 2.78536 0
M  V30 11056 C 1000.25 2.29828 3.9616 0
M  V30 11057 N 1001.74 2.27613 4.03418 0
M  V30 11058 C 1002.47 2.91696 4.93661 0
M  V30 11059 N 1001.97 3.64883 5.88925 0
M  V30 11060 N 1003.76 2.81094 4.86768 0
M  V30 11061 H 995.913 1.80395 1.12123 0
M  V30 11062 H 998.176 0.770394 0.552446 0
M  V30 11063 H 997.882 2.47266 2.50105 0
M  V30 11064 H 997.756 1.11358 3.60388 0
M  V30 11065 H 1000.14 0.390417 2.92506 0
M  V30 11066 H 1000.22 1.78198 1.83519 0
M  V30 11067 H 999.868 3.33635 3.82949 0
M  V30 11068 H 999.798 1.91746 4.9045 0
M  V30 11069 H 1002.29 1.74402 3.3525 0
M  V30 11070 H 1002.6 4.10952 6.54476 0
M  V30 11071 H 1000.95 3.68991 5.88957 0
M  V30 11072 H 1004.14 2.23469 4.11314 0
M  V30 11073 H 1004.31 3.31318 5.56895 0
M  V30 11074 N 997.718 -1.45297 0.610449 0
M  V30 11075 C 998.651 -2.27669 -0.155637 0
M  V30 11076 C 999.629 -1.37308 -0.870936 0
M  V30 11077 O 1000.81 -1.66739 -0.879228 0
M  V30 11078 C 997.94 -3.15748 -1.2256 0
M  V30 11079 C 996.986 -4.2207 -0.613116 0
M  V30 11080 S 997.819 -5.32337 0.581183 0
M  V30 11081 C 998.975 -6.23985 -0.489298 0
M  V30 11082 H 999.208 -2.92295 0.543205 0
M  V30 11083 H 996.741 -1.49181 0.398044 0
M  V30 11084 H 998.699 -3.67051 -1.83804 0
M  V30 11085 H 997.36 -2.50381 -1.89652 0
M  V30 11086 H 996.553 -4.83633 -1.41827 0
M  V30 11087 H 996.155 -3.73923 -0.0757482 0
M  V30 11088 H 998.447 -6.63553 -1.36759 0
M  V30 11089 H 999.39 -7.08042 0.0902456 0
M  V30 11090 H 999.798 -5.58718 -0.805911 0
M  V30 11091 N 999.196 -0.349774 -1.5367 0
M  V30 11092 C 1000.61 0.132815 -1.86227 0
M  V30 11093 C 1000.96 1.49479 -1.27084 0
M  V30 11094 O 1000.08 2.08292 -0.58679 0
M  V30 11095 C 1000.68 0.247775 -3.37893 0
M  V30 11096 C 999.237 0.674603 -3.70305 0
M  V30 11097 C 998.384 -0.187869 -2.76663 0
M  V30 11098 H 1001.33 -0.569148 -1.48143 0
M  V30 11099 H 1001.36 1.07418 -3.65023 0
M  V30 11100 H 1000.87 -0.743635 -3.80909 0
M  V30 11101 H 998.969 1.67481 -3.32837 0
M  V30 11102 H 999.082 0.460177 -4.76885 0
M  V30 11103 H 997.446 0.340779 -2.5241 0
M  V30 11104 H 998.229 -1.17653 -3.2251 0
M  V30 11105 N 1000.67 1.57404 -0.0785433 0
M  V30 11106 C 1001.92 1.9484 0.583853 0
M  V30 11107 C 1002.27 0.958758 1.6681 0
M  V30 11108 O 1001.57 -0.0179065 1.91592 0
M  V30 11109 C 1001.76 3.36684 1.1991 0
M  V30 11110 C 1001.59 4.49356 0.175978 0
M  V30 11111 C 1000.36 5.04721 -0.241733 0
M  V30 11112 C 1002.56 5.10911 -0.589415 0
M  V30 11113 N 1000.54 6.00938 -1.25485 0
M  V30 11114 C 1001.91 6.0269 -1.45483 0
M  V30 11115 C 1003.97 4.93708 -0.644746 0
M  V30 11116 C 1002.67 6.79111 -2.37066 0
M  V30 11117 C 1004.7 5.70778 -1.54812 0
M  V30 11118 C 1004.06 6.6221 -2.40119 0
M  V30 11119 H 1000.16 0.75993 0.184472 0
M  V30 11120 H 1002.74 1.94064 -0.157259 0
M  V30 11121 H 1000.91 3.38186 1.91011 0
M  V30 11122 H 1002.64 3.6134 1.82251 0
M  V30 11123 H 999.399 4.73385 0.142732 0
M  V30 11124 H 999.823 6.53746 -1.75912 0
M  V30 11125 H 1004.46 4.228 0.000601434 0
M  V30 11126 H 1002.18 7.49292 -3.02634 0
M  V30 11127 H 1005.77 5.59485 -1.59586 0
M  V30 11128 H 1004.65 7.20804 -3.08887 0
M  V30 11129 N 1002.15 -0.195058 1.56388 0
M  V30 11130 C 1003.1 -1.24584 1.90952 0
M  V30 11131 C 1004.09 -1.40993 0.77522 0
M  V30 11132 O 1005.28 -1.43363 1.03808 0
M  V30 11133 C 1002.41 -2.59064 2.25258 0
M  V30 11134 C 1001.49 -2.46447 3.45145 0
M  V30 11135 N 1001.88 -2.0351 4.63052 0
M  V30 11136 C 1000.18 -2.77339 3.49283 0
M  V30 11137 C 1000.88 -2.02785 5.45209 0
M  V30 11138 N 999.859 -2.4429 4.85616 0
M  V30 11139 H 1003.66 -0.9052 2.79613 0
M  V30 11140 H 1001.17 -0.403493 1.57308 0
M  V30 11141 H 1003.17 -3.34963 2.48205 0
M  V30 11142 H 1001.83 -2.93951 1.37924 0
M  V30 11143 H 1002.84 -1.74219 4.87717 0
M  V30 11144 H 999.52 -3.16423 2.72365 0
M  V30 11145 H 1000.91 -1.71489 6.49647 0
M  V30 11146 N 1003.63 -1.50653 -0.462772 0
M  V30 11147 C 1004.91 -1.5258 -1.22387 0
M  V30 11148 C 1005.29 -0.275263 -2.09298 0
M  V30 11149 O 1004.63 0.740943 -2.16153 0
M  V30 11150 C 1004.84 -2.82611 -2.04773 0
M  V30 11151 C 1006.19 -3.33592 -2.62681 0
M  V30 11152 O 1007.22 -2.83989 -2.15008 0
M  V30 11153 O 1006.08 -4.20081 -3.49563 0
M  V30 11154 H 1003.17 -0.612367 -0.55582 0
M  V30 11155 H 1005.72 -1.62948 -0.473914 0
M  V30 11156 H 1004.49 -3.65098 -1.40781 0
M  V30 11157 H 1004.11 -2.75286 -2.86886 0
M  V30 11158 N 1005.11 0.71652 -1.4037 0
M  V30 11159 C 1006.36 1.47193 -1.37903 0
M  V30 11160 C 1006.67 1.95593 0.0159939 0
M  V30 11161 O 1007.88 2.71009 0.163282 0
M  V30 11162 C 1006.33 2.6606 -2.42363 0
M  V30 11163 C 1005.94 2.24533 -3.87671 0
M  V30 11164 C 1007.68 3.438 -2.49001 0
M  V30 11165 C 1005.59 3.40234 -4.8373 0
M  V30 11166 H 1004.52 0.552811 -0.512753 0
M  V30 11167 H 1007.17 0.779894 -1.66102 0
M  V30 11168 H 1005.55 3.37429 -2.07262 0
M  V30 11169 H 1006.73 1.6059 -4.31911 0
M  V30 11170 H 1005.04 1.59839 -3.845 0
M  V30 11171 H 1007.64 4.29893 -3.17956 0
M  V30 11172 H 1007.98 3.8755 -1.52023 0
M  V30 11173 H 1008.52 2.79474 -2.83088 0
M  V30 11174 H 1005.26 3.01517 -5.82037 0
M  V30 11175 H 1004.78 4.03095 -4.44156 0
M  V30 11176 H 1006.45 4.06312 -5.03507 0
M  V30 11177 N 1006.59 1.25851 0.948643 0
M  V30 11178 C 1007.55 1.0683 2.0278 0
M  V30 11179 C 1008.55 0.0191016 1.60789 0
M  V30 11180 O 1009.74 0.261836 1.72221 0
M  V30 11181 C 1006.87 0.623318 3.35153 0
M  V30 11182 H 1008.06 2.02635 2.21086 0
M  V30 11183 H 1005.62 1.08343 1.12657 0
M  V30 11184 H 1006.35 -0.337053 3.22544 0
M  V30 11185 H 1006.14 1.38082 3.66982 0
M  V30 11186 H 1007.63 0.511854 4.14451 0
M  V30 11187 N 1008.06 -1.15214 1.07534 0
M  V30 11188 C 1009.29 -1.90463 0.820883 0
M  V30 11189 C 1009.71 -1.77578 -0.620305 0
M  V30 11190 O 1009.07 -1.10976 -1.43366 0
M  V30 11191 C 1009.12 -3.38746 1.23627 0
M  V30 11192 O 1008.22 -4.1062 0.382715 0
M  V30 11193 H 1007.57 -0.59292 0.298901 0
M  V30 11194 H 1010.1 -1.45893 1.43445 0
M  V30 11195 H 1010.11 -3.89543 1.21327 0
M  V30 11196 H 1008.78 -3.47443 2.28596 0
M  V30 11197 H 1007.36 -3.69947 0.468374 0
M  V30 11198 N 1009.54 -0.859717 -1.32086 0
M  V30 11199 C 1010.51 -0.313005 -2.27053 0
M  V30 11200 C 1011.51 0.530191 -1.51808 0
M  V30 11201 O 1012.7 0.340972 -1.7083 0
M  V30 11202 C 1009.83 0.5566 -3.36325 0
M  V30 11203 H 1011.02 -1.15125 -2.76923 0
M  V30 11204 H 1008.57 -0.634463 -1.42843 0
M  V30 11205 H 1009.31 1.41645 -2.91731 0
M  V30 11206 H 1009.09 -0.0470197 -3.92072 0
M  V30 11207 H 1010.58 0.931725 -4.07073 0
M  V30 11208 N 1011.02 1.44971 -0.618145 0
M  V30 11209 C 1012.27 2.02458 -0.117656 0
M  V30 11210 C 1012.6 1.48413 1.25248 0
M  V30 11211 O 1011.87 0.662997 1.82851 0
M  V30 11212 C 1012.16 3.59987 -0.0901897 0
M  V30 11213 C 1012.01 4.24343 -1.49175 0
M  V30 11214 C 1013.33 4.36099 0.592121 0
M  V30 11215 H 1010.45 0.735672 -0.0442291 0
M  V30 11216 H 1013.09 1.727 -0.792138 0
M  V30 11217 H 1011.24 3.85471 0.484175 0
M  V30 11218 H 1012.91 4.10009 -2.114 0
M  V30 11219 H 1011.16 3.82337 -2.04941 0
M  V30 11220 H 1011.83 5.33298 -1.42468 0
M  V30 11221 H 1014.3 4.1597 0.103813 0
M  V30 11222 H 1013.18 5.45822 0.580481 0
M  V30 11223 H 1013.44 4.09746 1.66015 0
M  V30 11224 N 1012.5 0.357919 1.53482 0
M  V30 11225 C 1013.45 -0.50845 2.22258 0
M  V30 11226 C 1014.43 -1.05476 1.21506 0
M  V30 11227 O 1015.62 -0.986075 1.46988 0
M  V30 11228 C 1012.75 -1.65157 3.00962 0
M  V30 11229 C 1011.84 -1.11851 4.09084 0
M  V30 11230 N 1012.23 -0.307818 5.04862 0
M  V30 11231 C 1010.53 -1.39405 4.23653 0
M  V30 11232 C 1011.23 -0.016842 5.81698 0
M  V30 11233 N 1010.21 -0.612396 5.40139 0
M  V30 11234 H 1014.01 0.117836 2.93664 0
M  V30 11235 H 1011.52 0.16553 1.61554 0
M  V30 11236 H 1013.52 -2.28435 3.48745 0
M  V30 11237 H 1012.18 -2.281 2.31086 0
M  V30 11238 H 1013.19 0.0523313 5.17874 0
M  V30 11239 H 1009.87 -2.02682 3.65002 0
M  V30 11240 H 1011.26 0.638046 6.68864 0
M  V30 11241 N 1013.98 -1.5736 0.0868897 0
M  V30 11242 C 1015.22 -1.9367 -0.577598 0
M  V30 11243 C 1015.55 -0.968844 -1.69229 0
M  V30 11244 O 1014.82 -0.0195061 -1.9589 0
M  V30 11245 H 1013.4 -0.714983 -0.216353 0
M  V30 11246 H 1016.06 -1.94335 0.148294 0
M  V30 11247 H 1015.15 -2.95877 -0.993128 0
M  V30 11248 N 1015.45 0.186762 -1.56489 0
M  V30 11249 C 1016.4 1.23141 -1.95205 0
M  V30 11250 C 1017.37 1.44799 -0.81378 0
M  V30 11251 O 1018.56 1.57795 -1.07263 0
M  V30 11252 C 1015.7 2.56926 -2.30397 0
M  V30 11253 C 1014.81 2.42777 -3.57328 0
M  V30 11254 C 1013.94 3.69323 -3.81804 0
M  V30 11255 C 1012.98 3.50041 -5.02133 0
M  V30 11256 N 1012.12 4.68619 -5.2282 0
M  V30 11257 H 1016.96 0.894256 -2.84266 0
M  V30 11258 H 1014.5 0.430187 -1.40669 0
M  V30 11259 H 1016.46 3.3488 -2.4882 0
M  V30 11260 H 1015.09 2.88668 -1.44466 0
M  V30 11261 H 1014.14 1.56078 -3.46906 0
M  V30 11262 H 1015.45 2.24468 -4.45439 0
M  V30 11263 H 1014.6 4.55715 -4.00511 0
M  V30 11264 H 1013.34 3.90595 -2.92039 0
M  V30 11265 H 1012.35 2.62034 -4.8334 0
M  V30 11266 H 1013.57 3.30206 -5.93414 0
M  V30 11267 H 1011.52 4.90139 -4.36005 0
M  V30 11268 H 1011.44 4.53165 -6.05126 0
M  V30 11269 H 1012.7 5.56338 -5.45993 0
M  V30 11270 N 1016.93 1.50896 0.454776 0
M  V30 11271 C 1017.9 1.70377 1.53312 0
M  V30 11272 C 1018.9 0.57408 1.50203 0
M  V30 11273 O 1020.09 0.841374 1.52534 0
M  V30 11274 C 1017.22 1.74411 2.92905 0
M  V30 11275 H 1018.41 2.66599 1.37349 0
M  V30 11276 H 1015.96 1.40622 0.68228 0
M  V30 11277 H 1016.7 0.799408 3.14293 0
M  V30 11278 H 1016.48 2.56496 2.96568 0
M  V30 11279 H 1017.97 1.91382 3.71164 0
M  V30 11280 N 1018.41 -0.709066 1.40748 0
M  V30 11281 C 1019.37 -1.80485 1.41272 0
M  V30 11282 C 1020.37 -1.57872 0.305463 0
M  V30 11283 O 1021.56 -1.64793 0.564691 0
M  V30 11284 C 1018.7 -3.1867 1.21087 0
M  V30 11285 H 1019.89 -1.81417 2.38805 0
M  V30 11286 H 1017.44 -0.915356 1.26692 0
M  V30 11287 H 1018.18 -3.23385 0.243406 0
M  V30 11288 H 1017.96 -3.36484 2.01299 0
M  V30 11289 H 1019.45 -3.98685 1.24257 0
M  V30 11290 N 1019.89 -1.26353 -0.941956 0
M  V30 11291 C 1021.31 -1.03448 -1.21534 0
M  V30 11292 C 1021.51 0.240855 -2.00055 0
M  V30 11293 O 1020.56 0.950199 -2.33939 0
M  V30 11294 C 1021.87 -2.2654 -1.97737 0
M  V30 11295 C 1023.42 -2.31433 -2.10731 0
M  V30 11296 C 1023.9 -3.54216 -2.90336 0
M  V30 11297 N 1025.39 -3.54688 -2.9791 0
M  V30 11298 C 1026.12 -4.4636 -3.59931 0
M  V30 11299 N 1025.62 -5.48319 -4.2346 0
M  V30 11300 N 1027.41 -4.34013 -3.57196 0
M  V30 11301 H 1019.56 -2.08266 -0.417005 0
M  V30 11302 H 1021.83 -0.915251 -0.247021 0
M  V30 11303 H 1021.53 -3.19299 -1.47449 0
M  V30 11304 H 1021.41 -2.30726 -2.98405 0
M  V30 11305 H 1023.79 -1.3919 -2.60212 0
M  V30 11306 H 1023.87 -2.31259 -1.09329 0
M  V30 11307 H 1023.52 -4.46788 -2.41543 0
M  V30 11308 H 1023.45 -3.51637 -3.91993 0
M  V30 11309 H 1025.94 -2.80942 -2.52745 0
M  V30 11310 H 1026.25 -6.14458 -4.6868 0
M  V30 11311 H 1024.6 -5.52177 -4.22049 0
M  V30 11312 H 1027.79 -3.53578 -3.06758 0
M  V30 11313 H 1027.96 -5.0565 -4.05244 0
M  V30 11314 N 1021.37 1.14642 -1.08144 0
M  V30 11315 C 1022.64 1.81774 -0.72232 0
M  V30 11316 C 1023.02 1.95587 0.794294 0
M  V30 11317 O 1022.37 1.51361 1.71178 0
M  V30 11318 C 1022.58 3.1763 -1.44611 0
M  V30 11319 C 1023.93 3.93161 -1.60343 0
M  V30 11320 O 1024.95 3.2721 -1.40755 0
M  V30 11321 O 1023.81 5.11422 -1.9264 0
M  V30 11322 H 1020.91 0.785733 -0.257978 0
M  V30 11323 H 1023.45 1.21683 -1.18285 0
M  V30 11324 H 1022.23 3.02723 -2.4794 0
M  V30 11325 H 1021.85 3.85412 -0.976892 0
M  V30 11326 N 1022.85 0.866709 1.31628 0
M  V30 11327 C 1024.09 0.476731 1.97117 0
M  V30 11328 C 1024.42 -0.967813 1.68366 0
M  V30 11329 O 1023.7 -1.68101 0.978377 0
M  V30 11330 C 1023.98 0.730561 3.52611 0
M  V30 11331 C 1023.84 2.2244 3.90948 0
M  V30 11332 C 1025.15 0.19488 4.39668 0
M  V30 11333 H 1022.27 0.174682 0.715999 0
M  V30 11334 H 1024.92 1.08735 1.5581 0
M  V30 11335 H 1023.07 0.210834 3.87927 0
M  V30 11336 H 1024.74 2.81113 3.6575 0
M  V30 11337 H 1022.98 2.69824 3.39673 0
M  V30 11338 H 1023.65 2.35266 4.99353 0
M  V30 11339 H 1026.13 0.639478 4.11157 0
M  V30 11340 H 1025 0.401958 5.47426 0
M  V30 11341 H 1025.26 -0.90302 4.32779 0
M  V30 11342 N 1024.32 -1.44642 0.625825 0
M  V30 11343 C 1025.29 -2.29085 -0.072526 0
M  V30 11344 C 1026.29 -1.40755 -0.777467 0
M  V30 11345 O 1027.48 -1.62684 -0.622861 0
M  V30 11346 C 1024.61 -3.22212 -1.1132 0
M  V30 11347 H 1025.8 -2.92317 0.670124 0
M  V30 11348 H 1023.35 -1.51466 0.38571 0
M  V30 11349 H 1024.09 -2.63819 -1.88601 0
M  V30 11350 H 1023.87 -3.87299 -0.611709 0
M  V30 11351 H 1025.36 -3.8566 -1.60175 0
M  V30 11352 N 1025.8 -0.366053 -1.5329 0
M  V30 11353 C 1027.22 -0.0150149 -1.59593 0
M  V30 11354 C 1027.42 1.46719 -1.38116 0
M  V30 11355 O 1026.47 2.22884 -1.18656 0
M  V30 11356 C 1027.79 -0.471374 -2.96982 0
M  V30 11357 C 1029.33 -0.425634 -3.10092 0
M  V30 11358 C 1029.81 -0.857812 -4.49895 0
M  V30 11359 N 1031.3 -0.81289 -4.56011 0
M  V30 11360 C 1032.04 -1.11898 -5.62376 0
M  V30 11361 N 1031.53 -1.49436 -6.76491 0
M  V30 11362 N 1033.32 -1.04174 -5.52362 0
M  V30 11363 H 1025.48 -1.33127 -1.65502 0
M  V30 11364 H 1027.74 -0.544172 -0.776261 0
M  V30 11365 H 1027.44 -1.50569 -3.1784 0
M  V30 11366 H 1027.32 0.141764 -3.76934 0
M  V30 11367 H 1029.71 0.599548 -2.88945 0
M  V30 11368 H 1029.79 -1.07427 -2.32149 0
M  V30 11369 H 1029.43 -1.88111 -4.7178 0
M  V30 11370 H 1029.36 -0.186419 -5.2627 0
M  V30 11371 H 1031.85 -0.536343 -3.74075 0
M  V30 11372 H 1032.16 -1.71217 -7.53594 0
M  V30 11373 H 1030.51 -1.53302 -6.77882 0
M  V30 11374 H 1033.7 -0.747654 -4.62091 0
M  V30 11375 H 1033.87 -1.28362 -6.35159 0
M  V30 11376 N 1027.28 1.57312 -0.0952337 0
M  V30 11377 C 1028.23 2.10571 0.87428 0
M  V30 11378 C 1029.21 1.02079 1.24374 0
M  V30 11379 O 1030.41 1.28353 1.2188 0
M  V30 11380 C 1027.53 2.68972 2.13329 0
M  V30 11381 C 1026.62 3.84508 1.78926 0
M  V30 11382 N 1027.01 4.92534 1.15082 0
M  V30 11383 C 1025.31 3.94245 2.08535 0
M  V30 11384 C 1026.01 5.73163 0.992937 0
M  V30 11385 N 1024.99 5.22198 1.51029 0
M  V30 11386 H 1028.79 2.91476 0.376727 0
M  V30 11387 H 1026.3 1.62041 0.107974 0
M  V30 11388 H 1028.3 3.05457 2.83728 0
M  V30 11389 H 1026.96 1.89523 2.6365 0
M  V30 11390 H 1027.97 5.11405 0.817621 0
M  V30 11391 H 1024.65 3.25805 2.61069 0
M  V30 11392 H 1026.04 6.70084 0.493641 0
M  V30 11393 N 1028.76 -0.17846 1.56586 0
M  V30 11394 C 1030 -0.896235 1.81587 0
M  V30 11395 C 1030.33 -1.82553 0.671168 0
M  V30 11396 O 1029.59 -1.92688 -0.342046 0
M  V30 11397 C 1029.89 -1.73063 3.12704 0
M  V30 11398 C 1029.55 -0.950877 4.4076 0
M  V30 11399 C 1028.21 -0.735647 4.75544 0
M  V30 11400 C 1030.57 -0.403419 5.19636 0
M  V30 11401 C 1027.89 0.0382562 5.86688 0
M  V30 11402 C 1030.25 0.357359 6.3159 0
M  V30 11403 C 1028.91 0.583455 6.64945 0
M  V30 11404 H 1028.18 -0.327956 0.664474 0
M  V30 11405 H 1030.83 -0.161586 1.90817 0
M  V30 11406 H 1029.13 -2.53446 2.98785 0
M  V30 11407 H 1030.83 -2.28891 3.29257 0
M  V30 11408 H 1027.42 -1.12866 4.13472 0
M  V30 11409 H 1031.6 -0.557059 4.93164 0
M  V30 11410 H 1026.86 0.223237 6.10992 0
M  V30 11411 H 1031.03 0.788861 6.91918 0
M  V30 11412 H 1028.66 1.18502 7.50907 0
M  V30 11413 N 1030.24 -1.51135 -0.446768 0
M  V30 11414 C 1031.48 -1.62571 -1.19388 0
M  V30 11415 C 1031.8 -0.3432 -1.92566 0
M  V30 11416 O 1033 -0.336804 -2.69403 0
M  V30 11417 C 1031.46 -2.87071 -2.17068 0
M  V30 11418 C 1031.07 -4.22291 -1.49581 0
M  V30 11419 C 1032.81 -3.07862 -2.9227 0
M  V30 11420 C 1030.72 -5.3795 -2.45689 0
M  V30 11421 H 1029.65 -0.60549 -0.449331 0
M  V30 11422 H 1032.3 -1.77593 -0.461846 0
M  V30 11423 H 1030.68 -2.65662 -2.93666 0
M  V30 11424 H 1031.86 -4.54046 -0.786054 0
M  V30 11425 H 1030.17 -4.07302 -0.865677 0
M  V30 11426 H 1032.77 -3.91444 -3.64246 0
M  V30 11427 H 1033.11 -2.20559 -3.53072 0
M  V30 11428 H 1033.64 -3.29566 -2.2278 0
M  V30 11429 H 1030.38 -6.27484 -1.89591 0
M  V30 11430 H 1029.9 -5.10583 -3.14746 0
M  V30 11431 H 1031.58 -5.69517 -3.07017 0
M  V30 11432 N 1031.71 0.701592 -1.41122 0
M  V30 11433 C 1032.65 1.8268 -1.38422 0
M  V30 11434 C 1033.66 1.60244 -0.287342 0
M  V30 11435 O 1034.85 1.69859 -0.548658 0
M  V30 11436 C 1031.95 3.19338 -1.13475 0
M  V30 11437 C 1031.12 3.68853 -2.35088 0
M  V30 11438 C 1030.18 4.84163 -2.06089 0
M  V30 11439 O 1029.21 4.9609 -2.79077 0
M  V30 11440 N 1030.41 5.70972 -1.04743 0
M  V30 11441 H 1033.17 1.8549 -2.35401 0
M  V30 11442 H 1030.73 0.883682 -1.35656 0
M  V30 11443 H 1032.73 3.94095 -0.920377 0
M  V30 11444 H 1031.3 3.11589 -0.251152 0
M  V30 11445 H 1030.52 2.8507 -2.72266 0
M  V30 11446 H 1031.8 3.98673 -3.16129 0
M  V30 11447 H 1031.2 5.63961 -0.443221 0
M  V30 11448 H 1029.76 6.45654 -0.892949 0
M  V30 11449 N 1033.19 1.2685 0.935242 0
M  V30 11450 C 1034.61 1.04091 1.20984 0
M  V30 11451 C 1034.81 -0.230242 2.0018 0
M  V30 11452 O 1033.86 -0.93778 2.3444 0
M  V30 11453 C 1035.18 2.27586 1.96533 0
M  V30 11454 C 1036.72 2.32547 2.09501 0
M  V30 11455 C 1037.2 3.55751 2.88454 0
M  V30 11456 N 1038.69 3.56263 2.96025 0
M  V30 11457 C 1039.43 4.48262 3.57559 0
M  V30 11458 N 1038.92 5.50557 4.20546 0
M  V30 11459 N 1040.71 4.35901 3.5489 0
M  V30 11460 H 1032.87 2.08484 0.405954 0
M  V30 11461 H 1035.13 0.916548 0.242164 0
M  V30 11462 H 1034.83 3.20076 1.45753 0
M  V30 11463 H 1034.71 2.32305 2.97177 0
M  V30 11464 H 1037.1 1.40568 2.5947 0
M  V30 11465 H 1037.18 2.31836 1.08101 0
M  V30 11466 H 1036.82 4.48063 2.3917 0
M  V30 11467 H 1036.75 3.53711 3.90123 0
M  V30 11468 H 1039.24 2.82278 2.51252 0
M  V30 11469 H 1039.55 6.16935 4.65415 0
M  V30 11470 H 1037.9 5.54407 4.19115 0
M  V30 11471 H 1041.09 3.552 3.04879 0
M  V30 11472 H 1041.26 5.07792 4.02557 0
M  V30 11473 N 1034.67 -1.14067 1.0875 0
M  V30 11474 C 1035.92 -1.85677 0.830392 0
M  V30 11475 C 1036.27 -1.81549 -0.637016 0
M  V30 11476 O 1035.56 -1.23774 -1.46255 0
M  V30 11477 C 1035.76 -3.33273 1.29089 0
M  V30 11478 C 1035.59 -3.51774 2.80153 0
M  V30 11479 C 1034.36 -3.66419 3.47944 0
M  V30 11480 C 1036.56 -3.48399 3.78316 0
M  V30 11481 N 1034.54 -3.73112 4.87504 0
M  V30 11482 C 1035.91 -3.61378 5.03791 0
M  V30 11483 C 1037.96 -3.31758 3.7127 0
M  V30 11484 C 1036.67 -3.59435 6.23056 0
M  V30 11485 C 1038.69 -3.31119 4.90014 0
M  V30 11486 C 1038.05 -3.44643 6.1433 0
M  V30 11487 H 1034.15 -0.695948 0.356625 0
M  V30 11488 H 1036.74 -1.36687 1.38654 0
M  V30 11489 H 1034.91 -3.80846 0.762274 0
M  V30 11490 H 1036.64 -3.92659 0.979828 0
M  V30 11491 H 1033.4 -3.67799 2.98364 0
M  V30 11492 H 1033.82 -3.80167 5.6018 0
M  V30 11493 H 1038.46 -3.2021 2.76089 0
M  V30 11494 H 1036.18 -3.69758 7.18544 0
M  V30 11495 H 1039.77 -3.1945 4.86254 0
M  V30 11496 H 1038.65 -3.44101 7.04673 0
M  V30 11497 N 1036.15 -0.873678 -1.31166 0
M  V30 11498 C 1037.1 -0.321349 -2.3037 0
M  V30 11499 C 1038.09 0.565568 -1.5968 0
M  V30 11500 O 1039.3 0.451257 -1.74252 0
M  V30 11501 H 1035.67 -0.0852425 -0.747153 0
M  V30 11502 H 1037.64 -1.17191 -2.74425 0
M  V30 11503 C 1036.39 0.459016 -3.44657 0
M  V30 11504 H 1035.71 -0.214185 -3.99226 0
M  V30 11505 H 1037.15 0.810758 -4.16176 0
M  V30 11506 C 1035.61 1.65173 -2.93632 0
M  V30 11507 O 1036.14 2.75105 -2.92711 0
M  V30 11508 N 1034.35 1.4851 -2.49786 0
M  V30 11509 H 1033.9 0.590785 -2.50734 0
M  V30 11510 H 1033.85 2.28452 -2.16002 0
M  V30 11511 N 1037.63 1.44308 -0.633487 0
M  V30 11512 C 1038.87 2.02023 -0.138917 0
M  V30 11513 C 1039.2 1.49841 1.24008 0
M  V30 11514 O 1038.46 0.673718 1.83738 0
M  V30 11515 C 1038.76 3.57316 -0.0773886 0
M  V30 11516 C 1038.42 4.28762 -1.39548 0
M  V30 11517 C 1037.08 4.47997 -1.75648 0
M  V30 11518 C 1039.44 4.69391 -2.26542 0
M  V30 11519 C 1036.76 5.05121 -2.98445 0
M  V30 11520 C 1039.12 5.27876 -3.48612 0
M  V30 11521 C 1037.78 5.45329 -3.84932 0
M  V30 11522 H 1037.05 0.739254 -0.0508333 0
M  V30 11523 H 1039.7 1.73043 -0.820271 0
M  V30 11524 H 1038 3.85724 0.687345 0
M  V30 11525 H 1039.7 3.99706 0.321837 0
M  V30 11526 H 1036.29 4.14122 -1.10456 0
M  V30 11527 H 1040.47 4.54241 -1.99946 0
M  V30 11528 H 1035.73 5.16821 -3.26658 0
M  V30 11529 H 1039.9 5.58307 -4.16253 0
M  V30 11530 H 1037.53 5.8936 -4.80166 0
M  V30 11531 N 1039.1 0.374177 1.53094 0
M  V30 11532 C 1040.33 -0.213325 2.05797 0
M  V30 11533 C 1040.75 -1.41753 1.24706 0
M  V30 11534 O 1040.1 -1.80183 0.289868 0
M  V30 11535 C 1040.16 -0.598367 3.56513 0
M  V30 11536 O 1039.88 0.557983 4.34532 0
M  V30 11537 C 1041.38 -1.24334 4.25507 0
M  V30 11538 H 1038.6 -0.0357398 0.670048 0
M  V30 11539 H 1041.14 0.535035 1.97377 0
M  V30 11540 H 1039.3 -1.29663 3.65056 0
M  V30 11541 H 1039.71 0.244911 5.23928 0
M  V30 11542 H 1041.18 -1.46325 5.32253 0
M  V30 11543 H 1041.66 -2.20622 3.79766 0
M  V30 11544 H 1042.27 -0.586269 4.2124 0
M  V30 11545 N 1040.58 -1.57259 0.103575 0
M  V30 11546 C 1041.53 -2.14487 -0.852295 0
M  V30 11547 C 1042.5 -1.06567 -1.27407 0
M  V30 11548 O 1043.68 -1.34398 -1.35432 0
M  V30 11549 C 1040.82 -2.73632 -2.10284 0
M  V30 11550 C 1039.94 -3.95811 -1.73083 0
M  V30 11551 C 1039.07 -4.43093 -2.92988 0
M  V30 11552 C 1038.11 -5.5784 -2.51953 0
M  V30 11553 N 1037.25 -5.99936 -3.64721 0
M  V30 11554 H 1042.09 -2.95849 -0.35743 0
M  V30 11555 H 1039.63 -1.46175 -0.164748 0
M  V30 11556 H 1041.58 -3.06046 -2.83534 0
M  V30 11557 H 1040.21 -1.94985 -2.57256 0
M  V30 11558 H 1039.27 -3.69656 -0.897688 0
M  V30 11559 H 1040.58 -4.79066 -1.38916 0
M  V30 11560 H 1039.73 -4.77335 -3.74481 0
M  V30 11561 H 1038.47 -3.58756 -3.30372 0
M  V30 11562 H 1037.48 -5.23217 -1.6889 0
M  V30 11563 H 1038.7 -6.43932 -2.15705 0
M  V30 11564 H 1036.65 -5.18543 -4.01807 0
M  V30 11565 H 1036.56 -6.78008 -3.34427 0
M  V30 11566 H 1037.83 -6.38812 -4.46699 0
M  V30 11567 N 1042.06 0.170153 -1.56679 0
M  V30 11568 C 1043.31 0.884902 -1.81252 0
M  V30 11569 C 1043.62 1.83361 -0.681024 0
M  V30 11570 O 1044.83 2.59082 -0.811722 0
M  V30 11571 C 1043.28 1.62408 -3.21172 0
M  V30 11572 C 1042.89 0.718947 -4.42194 0
M  V30 11573 C 1044.64 2.32699 -3.55037 0
M  V30 11574 C 1042.54 1.45843 -5.73135 0
M  V30 11575 H 1041.47 0.33418 -0.675899 0
M  V30 11576 H 1044.12 0.137818 -1.82982 0
M  V30 11577 H 1042.51 2.41596 -3.13763 0
M  V30 11578 H 1043.68 -0.0360521 -4.60786 0
M  V30 11579 H 1042 0.125634 -4.1621 0
M  V30 11580 H 1044.59 2.88621 -4.50114 0
M  V30 11581 H 1044.94 3.08092 -2.79974 0
M  V30 11582 H 1045.47 1.60453 -3.64005 0
M  V30 11583 H 1042.21 0.746799 -6.51232 0
M  V30 11584 H 1041.73 2.18672 -5.58518 0
M  V30 11585 H 1043.41 2.0056 -6.1513 0
M  V30 11586 N 1043.54 1.5137 0.438746 0
M  V30 11587 C 1044.47 1.67264 1.55236 0
M  V30 11588 C 1045.45 0.520238 1.54053 0
M  V30 11589 O 1046.63 0.743897 1.73201 0
M  V30 11590 C 1043.76 1.68492 2.93816 0
M  V30 11591 C 1042.81 2.8968 3.1303 0
M  V30 11592 S 1043.64 4.50514 2.89478 0
M  V30 11593 C 1044.8 4.54485 4.30342 0
M  V30 11594 H 1045.03 2.61456 1.4152 0
M  V30 11595 H 1042.56 1.41036 0.628341 0
M  V30 11596 H 1044.52 1.69884 3.73697 0
M  V30 11597 H 1043.18 0.754787 3.04896 0
M  V30 11598 H 1042.37 2.86936 4.14347 0
M  V30 11599 H 1041.98 2.86022 2.40972 0
M  V30 11600 H 1044.27 4.30039 5.2352 0
M  V30 11601 H 1045.21 5.56288 4.3812 0
M  V30 11602 H 1045.62 3.83824 4.13931 0
M  V30 11603 N 1045.02 -0.694098 1.41492 0
M  V30 11604 C 1045.96 -1.80801 1.43456 0
M  V30 11605 C 1046.93 -1.63571 0.288757 0
M  V30 11606 O 1048.12 -1.844 0.490017 0
M  V30 11607 C 1045.26 -3.18694 1.32394 0
M  V30 11608 C 1044.37 -3.47346 2.56855 0
M  V30 11609 C 1043.51 -4.74862 2.38075 0
M  V30 11610 C 1042.55 -4.96486 3.58005 0
M  V30 11611 N 1041.68 -6.15229 3.38287 0
M  V30 11612 H 1046.52 -1.78457 2.38657 0
M  V30 11613 H 1044.06 -0.871455 1.18508 0
M  V30 11614 H 1046.02 -3.98352 1.23982 0
M  V30 11615 H 1044.65 -3.20211 0.407999 0
M  V30 11616 H 1043.7 -2.62083 2.75711 0
M  V30 11617 H 1045.01 -3.59226 3.4606 0
M  V30 11618 H 1044.17 -5.62577 2.27139 0
M  V30 11619 H 1042.9 -4.6523 1.46329 0
M  V30 11620 H 1041.91 -4.07219 3.69395 0
M  V30 11621 H 1043.13 -5.07976 4.50708 0
M  V30 11622 H 1041.08 -6.06807 2.49242 0
M  V30 11623 H 1041 -6.27883 4.21069 0
M  V30 11624 H 1042.27 -7.05674 3.31126 0
M  V30 11625 N 1046.49 -1.27344 -0.928501 0
M  V30 11626 C 1047.72 -1.16557 -1.7155 0
M  V30 11627 C 1048.14 0.274044 -1.86093 0
M  V30 11628 O 1047.5 1.19847 -1.36038 0
M  V30 11629 C 1047.55 -1.85332 -3.09329 0
M  V30 11630 O 1046.65 -1.15074 -3.9602 0
M  V30 11631 H 1046 -0.405423 -0.525859 0
M  V30 11632 H 1048.53 -1.68399 -1.16202 0
M  V30 11633 H 1048.54 -1.92659 -3.59648 0
M  V30 11634 H 1047.21 -2.90056 -2.98061 0
M  V30 11635 H 1045.79 -1.1581 -3.54461 0
M  V30 11636 N 1047.97 1.13488 -1.09353 0
M  V30 11637 C 1048.92 2.18876 -0.732251 0
M  V30 11638 C 1049.89 1.63616 0.286175 0
M  V30 11639 O 1051.07 1.90059 0.167981 0
M  V30 11640 C 1048.21 3.44737 -0.158157 0
M  V30 11641 C 1047.33 4.14104 -1.23053 0
M  V30 11642 C 1046.46 5.27578 -0.619272 0
M  V30 11643 C 1045.5 5.88793 -1.67301 0
M  V30 11644 N 1044.64 6.937 -1.08283 0
M  V30 11645 H 1049.48 2.49128 -1.63522 0
M  V30 11646 H 1047.02 1.22326 -0.816995 0
M  V30 11647 H 1048.97 4.16756 0.192488 0
M  V30 11648 H 1047.6 3.14938 0.708082 0
M  V30 11649 H 1046.66 3.40376 -1.69847 0
M  V30 11650 H 1047.97 4.55683 -2.02865 0
M  V30 11651 H 1047.12 6.0631 -0.217428 0
M  V30 11652 H 1045.86 4.87246 0.210399 0
M  V30 11653 H 1044.87 5.08756 -2.0844 0
M  V30 11654 H 1046.09 6.31197 -2.50533 0
M  V30 11655 H 1044.04 6.55426 -0.274426 0
M  V30 11656 H 1043.95 7.33817 -1.81792 0
M  V30 11657 H 1045.22 7.76286 -0.707167 0
M  V30 11658 N 1049.45 0.880621 1.30701 0
M  V30 11659 C 1050.68 0.51094 2.00182 0
M  V30 11660 C 1051.09 -0.903914 1.66211 0
M  V30 11661 O 1050.43 -1.60529 0.893089 0
M  V30 11662 C 1050.49 0.600775 3.54445 0
M  V30 11663 C 1050.16 1.97915 4.1192 0
M  V30 11664 C 1051.16 2.94802 4.28238 0
M  V30 11665 C 1048.84 2.28336 4.47401 0
M  V30 11666 C 1050.83 4.20245 4.79242 0
M  V30 11667 C 1048.52 3.54026 4.98105 0
M  V30 11668 C 1049.52 4.49796 5.13978 0
M  V30 11669 O 1049.21 5.73256 5.63589 0
M  V30 11670 H 1048.94 0.196477 0.646818 0
M  V30 11671 H 1051.49 1.18659 1.67658 0
M  V30 11672 H 1049.72 -0.131832 3.86475 0
M  V30 11673 H 1051.41 0.242996 4.05172 0
M  V30 11674 H 1052.18 2.7261 4.01134 0
M  V30 11675 H 1048.06 1.54564 4.34317 0
M  V30 11676 H 1051.6 4.95003 4.91546 0
M  V30 11677 H 1047.5 3.76057 5.24644 0
M  V30 11678 H 1048.27 5.75577 5.81939 0
M  V30 11679 N 1050.93 -1.4397 0.641131 0
M  V30 11680 C 1052.35 -1.56607 0.30762 0
M  V30 11681 C 1052.55 -1.62694 -1.18882 0
M  V30 11682 O 1051.6 -1.57541 -1.97325 0
M  V30 11683 C 1052.91 -2.83289 1.00834 0
M  V30 11684 C 1054.46 -2.97016 0.98744 0
M  V30 11685 C 1054.94 -4.26514 1.66882 0
M  V30 11686 N 1056.43 -4.33351 1.63589 0
M  V30 11687 C 1057.16 -5.32292 2.13196 0
M  V30 11688 N 1056.66 -6.37582 2.71038 0
M  V30 11689 N 1058.45 -5.23866 2.03766 0
M  V30 11690 H 1050.6 -1.38262 1.61237 0
M  V30 11691 H 1052.87 -0.663221 0.677378 0
M  V30 11692 H 1052.57 -2.84812 2.06337 0
M  V30 11693 H 1052.45 -3.73134 0.552333 0
M  V30 11694 H 1054.83 -2.95041 -0.0591395 0
M  V30 11695 H 1054.91 -2.08493 1.48203 0
M  V30 11696 H 1054.56 -4.2925 2.71491 0
M  V30 11697 H 1054.49 -5.13912 1.14898 0
M  V30 11698 H 1056.98 -3.5788 1.21368 0
M  V30 11699 H 1057.29 -7.09378 3.06597 0
M  V30 11700 H 1055.64 -6.38239 2.75093 0
M  V30 11701 H 1058.83 -4.40524 1.58291 0
M  V30 11702 H 1059 -6.00819 2.42737 0
M  V30 11703 N 1052.41 -0.382291 -1.52893 0
M  V30 11704 C 1053.63 0.204961 -2.06385 0
M  V30 11705 C 1054.06 1.40316 -1.25271 0
M  V30 11706 O 1053.42 1.79187 -0.275969 0
M  V30 11707 C 1053.46 0.560205 -3.56222 0
M  V30 11708 O 1052.57 1.65515 -3.77728 0
M  V30 11709 H 1051.91 0.0258798 -0.663495 0
M  V30 11710 H 1054.44 -0.547733 -1.97132 0
M  V30 11711 H 1054.45 0.826501 -3.99541 0
M  V30 11712 H 1053.12 -0.31584 -4.14699 0
M  V30 11713 H 1051.7 1.38311 -3.46301 0
M  V30 11714 N 1053.89 1.57202 -0.111913 0
M  V30 11715 C 1054.82 2.17957 0.837683 0
M  V30 11716 C 1055.8 1.1176 1.28233 0
M  V30 11717 O 1056.98 1.39967 1.34621 0
M  V30 11718 C 1054.11 2.77333 2.09054 0
M  V30 11719 C 1053.07 3.8905 1.78393 0
M  V30 11720 C 1052.39 4.35203 3.10649 0
M  V30 11721 C 1053.69 5.11477 1.05775 0
M  V30 11722 H 1055.39 2.9756 0.331441 0
M  V30 11723 H 1052.93 1.43131 0.157979 0
M  V30 11724 H 1054.88 3.18492 2.75936 0
M  V30 11725 H 1053.61 1.95009 2.6199 0
M  V30 11726 H 1052.27 3.48456 1.13903 0
M  V30 11727 H 1051.92 3.49747 3.61506 0
M  V30 11728 H 1051.62 5.10534 2.9091 0
M  V30 11729 H 1053.14 4.79007 3.78661 0
M  V30 11730 H 1054.55 5.497 1.62798 0
M  V30 11731 H 1052.95 5.92346 0.961573 0
M  V30 11732 H 1054.02 4.84881 0.043297 0
M  V30 11733 N 1055.36 -0.161842 1.56767 0
M  V30 11734 C 1056.59 -0.896274 1.87034 0
M  V30 11735 C 1057.01 -1.74617 0.699314 0
M  V30 11736 O 1056.37 -1.77861 -0.351435 0
M  V30 11737 C 1056.42 -1.74105 3.15784 0
M  V30 11738 O 1055.52 -2.84372 2.98674 0
M  V30 11739 H 1054.86 -0.250523 0.614926 0
M  V30 11740 H 1057.39 -0.157127 2.03996 0
M  V30 11741 H 1057.4 -2.13907 3.4743 0
M  V30 11742 H 1056.08 -1.11684 4.00624 0
M  V30 11743 H 1054.66 -2.48084 2.78404 0
M  V30 11744 N 1056.84 -1.516 -0.430713 0
M  V30 11745 C 1058.07 -1.68169 -1.20011 0
M  V30 11746 C 1058.48 -0.381406 -1.85316 0
M  V30 11747 O 1057.82 0.6506 -1.71793 0
M  V30 11748 C 1057.88 -2.7454 -2.32095 0
M  V30 11749 C 1057.55 -4.16942 -1.87104 0
M  V30 11750 C 1058.55 -5.01503 -1.37078 0
M  V30 11751 C 1056.23 -4.63075 -1.94594 0
M  V30 11752 C 1058.22 -6.3026 -0.951362 0
M  V30 11753 C 1055.91 -5.91827 -1.52264 0
M  V30 11754 C 1056.91 -6.75247 -1.02618 0
M  V30 11755 O 1056.6 -8.01591 -0.608905 0
M  V30 11756 H 1056.33 -0.567361 -0.367528 0
M  V30 11757 H 1058.88 -1.98819 -0.515759 0
M  V30 11758 H 1057.11 -2.39219 -3.03828 0
M  V30 11759 H 1058.8 -2.79921 -2.93937 0
M  V30 11760 H 1059.57 -4.67063 -1.30681 0
M  V30 11761 H 1055.45 -3.98262 -2.32182 0
M  V30 11762 H 1058.99 -6.95323 -0.563163 0
M  V30 11763 H 1054.89 -6.2578 -1.58333 0
M  V30 11764 H 1055.66 -8.15201 -0.73416 0
M  V30 11765 N 1058.32 0.686584 -1.41858 0
M  V30 11766 C 1059.73 1.26682 -1.37145 0
M  V30 11767 C 1060.08 1.96112 -0.058922 0
M  V30 11768 O 1059.21 1.99321 0.842629 0
M  V30 11769 C 1059.8 2.30383 -2.48413 0
M  V30 11770 C 1058.36 2.83961 -2.47069 0
M  V30 11771 C 1057.51 1.58119 -2.27802 0
M  V30 11772 H 1060.46 0.480742 -1.51243 0
M  V30 11773 H 1060.48 3.11868 -2.17987 0
M  V30 11774 H 1059.99 1.79822 -3.43927 0
M  V30 11775 H 1058.09 3.38675 -1.55338 0
M  V30 11776 H 1058.21 3.3378 -3.43697 0
M  V30 11777 H 1056.57 1.84258 -1.75844 0
M  V30 11778 H 1057.35 1.09541 -3.25355 0
M  V30 11779 N 1059.8 1.27835 0.921735 0
M  V30 11780 C 1061.04 1.14523 1.67005 0
M  V30 11781 C 1061.37 -0.307776 1.92049 0
M  V30 11782 O 1060.63 -1.24103 1.51317 0
M  V30 11783 C 1060.93 1.88054 3.03925 0
M  V30 11784 C 1060.59 3.37886 2.9857 0
M  V30 11785 C 1059.25 3.78752 2.96817 0
M  V30 11786 C 1061.61 4.33462 2.89414 0
M  V30 11787 C 1058.93 5.13549 2.83698 0
M  V30 11788 C 1061.29 5.68322 2.77836 0
M  V30 11789 C 1059.95 6.08475 2.74436 0
M  V30 11790 H 1059.22 0.419068 0.611116 0
M  V30 11791 H 1061.87 1.58515 1.07449 0
M  V30 11792 H 1060.17 1.36587 3.67221 0
M  V30 11793 H 1061.87 1.75176 3.60714 0
M  V30 11794 H 1058.46 3.05389 3.00725 0
M  V30 11795 H 1062.64 4.02857 2.89862 0
M  V30 11796 H 1057.9 5.43796 2.79456 0
M  V30 11797 H 1062.07 6.42048 2.69717 0
M  V30 11798 H 1059.7 7.12877 2.64027 0
M  V30 11799 N 1061.28 -1.12907 1.09954 0
M  V30 11800 C 1062.21 -2.20585 0.765799 0
M  V30 11801 C 1063.19 -1.68117 -0.258989 0
M  V30 11802 O 1064.37 -1.93792 -0.125853 0
M  V30 11803 C 1061.5 -3.46772 0.191435 0
M  V30 11804 C 1060.46 -4.12363 1.14635 0
M  V30 11805 C 1059.78 -5.3294 0.433426 0
M  V30 11806 C 1061.08 -4.59073 2.49096 0
M  V30 11807 H 1062.78 -2.48759 1.66612 0
M  V30 11808 H 1060.32 -1.19563 0.802534 0
M  V30 11809 H 1062.27 -4.21365 -0.0541535 0
M  V30 11810 H 1061 -3.18011 -0.744101 0
M  V30 11811 H 1059.66 -3.39744 1.37731 0
M  V30 11812 H 1059.31 -5.00444 -0.506422 0
M  V30 11813 H 1059.01 -5.77772 1.07018 0
M  V30 11814 H 1060.53 -6.10284 0.196267 0
M  V30 11815 H 1061.94 -5.25063 2.30177 0
M  V30 11816 H 1060.34 -5.14665 3.0861 0
M  V30 11817 H 1061.41 -3.73313 3.0946 0
M  V30 11818 N 1062.75 -0.88754 -1.30232 0
M  V30 11819 C 1063.68 -0.372481 -2.3051 0
M  V30 11820 C 1064.66 0.546037 -1.61098 0
M  V30 11821 O 1065.85 0.459345 -1.88689 0
M  V30 11822 C 1062.98 0.411605 -3.44852 0
M  V30 11823 C 1061.93 -0.415383 -4.2598 0
M  V30 11824 C 1061.26 0.495463 -5.324 0
M  V30 11825 C 1062.56 -1.65886 -4.95257 0
M  V30 11826 H 1064.25 -1.21045 -2.7384 0
M  V30 11827 H 1061.8 -0.583498 -1.31648 0
M  V30 11828 H 1063.75 0.782584 -4.1407 0
M  V30 11829 H 1062.48 1.28325 -3.00334 0
M  V30 11830 H 1061.14 -0.768534 -3.58454 0
M  V30 11831 H 1060.78 1.36489 -4.84128 0
M  V30 11832 H 1060.48 -0.0540885 -5.87575 0
M  V30 11833 H 1062.01 0.862901 -6.04472 0
M  V30 11834 H 1063.42 -1.35832 -5.56976 0
M  V30 11835 H 1061.82 -2.14881 -5.60309 0
M  V30 11836 H 1062.89 -2.40181 -4.21237 0
M  V30 11837 N 1064.23 1.43628 -0.648757 0
M  V30 11838 C 1065.64 1.85142 -0.24066 0
M  V30 11839 C 1065.99 1.54304 1.21181 0
M  V30 11840 O 1065.12 0.989792 1.92437 0
M  V30 11841 C 1065.71 3.3606 -0.429999 0
M  V30 11842 C 1064.27 3.76323 -0.0762588 0
M  V30 11843 C 1063.42 2.67382 -0.734999 0
M  V30 11844 H 1066.37 1.33844 -0.852734 0
M  V30 11845 H 1066.39 3.79102 0.325836 0
M  V30 11846 H 1065.9 3.58474 -1.48721 0
M  V30 11847 H 1064.01 3.59521 0.978529 0
M  V30 11848 H 1064.12 4.76498 -0.498612 0
M  V30 11849 H 1062.48 2.54141 -0.168644 0
M  V30 11850 H 1063.27 2.92625 -1.79515 0
M  V30 11851 N 1065.71 0.390394 1.52688 0
M  V30 11852 C 1066.66 -0.444229 2.26485 0
M  V30 11853 C 1067.63 -1.05688 1.28138 0
M  V30 11854 O 1068.81 -1.0847 1.56968 0
M  V30 11855 C 1065.95 -1.56501 3.07574 0
M  V30 11856 C 1065.07 -0.975111 4.20851 0
M  V30 11857 C 1064.2 -2.06704 4.89333 0
M  V30 11858 C 1063.24 -1.45309 5.94602 0
M  V30 11859 N 1062.38 -2.48437 6.56676 0
M  V30 11860 H 1067.22 0.191535 2.97384 0
M  V30 11861 H 1064.75 0.106287 1.46716 0
M  V30 11862 H 1066.71 -2.22558 3.52879 0
M  V30 11863 H 1065.34 -2.17107 2.38881 0
M  V30 11864 H 1064.39 -0.204109 3.79852 0
M  V30 11865 H 1065.71 -0.486465 4.96422 0
M  V30 11866 H 1064.86 -2.80528 5.37949 0
M  V30 11867 H 1063.6 -2.58928 4.13289 0
M  V30 11868 H 1062.6 -0.700091 5.45324 0
M  V30 11869 H 1063.83 -0.938775 6.7258 0
M  V30 11870 H 1061.77 -2.99829 5.83471 0
M  V30 11871 H 1061.69 -2.04331 7.27863 0
M  V30 11872 H 1062.96 -3.21888 7.09935 0
M  V30 11873 N 1067.19 -1.57141 0.120249 0
M  V30 11874 C 1068.41 -2.00017 -0.548454 0
M  V30 11875 C 1068.84 -0.999433 -1.59352 0
M  V30 11876 O 1068.2 0.0286978 -1.81277 0
M  V30 11877 C 1068.24 -3.41766 -1.15015 0
M  V30 11878 O 1067.35 -3.44589 -2.26566 0
M  V30 11879 H 1066.69 -0.649739 -0.136875 0
M  V30 11880 H 1069.22 -2.03529 0.209092 0
M  V30 11881 H 1069.23 -3.80001 -1.48537 0
M  V30 11882 H 1067.9 -4.14117 -0.384681 0
M  V30 11883 H 1066.48 -3.18174 -1.94473 0
M  V30 11884 N 1068.67 0.153526 -1.5685 0
M  V30 11885 C 1069.6 1.2147 -1.94365 0
M  V30 11886 C 1070.61 1.39532 -0.838726 0
M  V30 11887 O 1071.8 1.39219 -1.11715 0
M  V30 11888 C 1068.9 2.5806 -2.19677 0
M  V30 11889 C 1068.07 2.61062 -3.50949 0
M  V30 11890 C 1067.13 3.79144 -3.64878 0
M  V30 11891 O 1066.16 3.64319 -4.37333 0
M  V30 11892 N 1067.36 4.96333 -3.01054 0
M  V30 11893 H 1070.13 0.895889 -2.85996 0
M  V30 11894 H 1067.69 0.343147 -1.58222 0
M  V30 11895 H 1069.68 3.35553 -2.26243 0
M  V30 11896 H 1068.25 2.8226 -1.34343 0
M  V30 11897 H 1067.47 1.69533 -3.55882 0
M  V30 11898 H 1068.76 2.60094 -4.37297 0
M  V30 11899 H 1068.15 5.1128 -2.42093 0
M  V30 11900 H 1066.71 5.71625 -3.13191 0
M  V30 11901 N 1070.14 1.51827 0.422667 0
M  V30 11902 C 1071.37 1.69049 1.1929 0
M  V30 11903 C 1071.79 0.394095 1.84641 0
M  V30 11904 O 1071.14 -0.628731 1.71328 0
M  V30 11905 C 1071.2 2.81657 2.26609 0
M  V30 11906 O 1070.92 4.06275 1.63929 0
M  V30 11907 C 1072.42 3.10274 3.16615 0
M  V30 11908 H 1069.64 0.566894 0.358988 0
M  V30 11909 H 1072.18 1.98318 0.499029 0
M  V30 11910 H 1070.34 2.54945 2.91688 0
M  V30 11911 H 1070.75 4.68924 2.3497 0
M  V30 11912 H 1072.22 3.92613 3.88019 0
M  V30 11913 H 1072.7 2.23273 3.78214 0
M  V30 11914 H 1073.31 3.387 2.57221 0
M  V30 11915 N 1071.62 -0.679052 1.4222 0
M  V30 11916 C 1072.85 -1.46747 1.45852 0
M  V30 11917 C 1073.27 -1.88675 0.0685937 0
M  V30 11918 O 1072.62 -1.57861 -0.915757 0
M  V30 11919 C 1072.67 -2.71935 2.38188 0
M  V30 11920 O 1072.39 -2.31768 3.71773 0
M  V30 11921 C 1073.9 -3.65536 2.50796 0
M  V30 11922 H 1071.12 -0.451682 0.49621 0
M  V30 11923 H 1073.66 -0.834723 1.86689 0
M  V30 11924 H 1071.81 -3.31409 2.00616 0
M  V30 11925 H 1072.23 -3.12579 4.21182 0
M  V30 11926 H 1073.7 -4.50113 3.19535 0
M  V30 11927 H 1074.18 -4.11148 1.54447 0
M  V30 11928 H 1074.79 -3.11957 2.89072 0
M  V30 11929 N 1073.1 -1.28322 -0.914942 0
M  V30 11930 C 1074.06 -1.12169 -1.99877 0
M  V30 11931 C 1075.06 -0.0617252 -1.60681 0
M  V30 11932 O 1076.25 -0.307405 -1.71466 0
M  V30 11933 C 1073.39 -0.711959 -3.33383 0
M  V30 11934 H 1074.58 -2.08425 -2.15636 0
M  V30 11935 H 1072.13 -1.11291 -1.09745 0
M  V30 11936 H 1072.87 0.251418 -3.23324 0
M  V30 11937 H 1072.65 -1.47764 -3.63192 0
M  V30 11938 H 1074.14 -0.621558 -4.12948 0
M  V30 11939 N 1074.58 1.12322 -1.10551 0
M  V30 11940 C 1075.53 2.16177 -0.724679 0
M  V30 11941 C 1076.51 1.58674 0.266739 0
M  V30 11942 O 1077.7 1.7684 0.0752872 0
M  V30 11943 C 1074.83 3.4293 -0.159413 0
M  V30 11944 C 1073.92 4.07413 -1.17794 0
M  V30 11945 N 1074.31 4.46889 -2.36905 0
M  V30 11946 C 1072.61 4.34209 -1.01874 0
M  V30 11947 C 1073.31 4.97291 -3.01789 0
M  V30 11948 N 1072.29 4.92871 -2.29302 0
M  V30 11949 H 1076.09 2.44466 -1.63136 0
M  V30 11950 H 1073.6 1.2924 -0.983407 0
M  V30 11951 H 1075.6 4.16693 0.131502 0
M  V30 11952 H 1074.26 3.16109 0.741975 0
M  V30 11953 H 1075.27 4.39219 -2.74422 0
M  V30 11954 H 1071.95 4.17141 -0.173013 0
M  V30 11955 H 1073.34 5.3754 -4.03114 0
M  V30 11956 N 1076.06 0.894434 1.2976 0
M  V30 11957 C 1076.97 0.372622 2.31622 0
M  V30 11958 C 1077.98 -0.52996 1.65733 0
M  V30 11959 O 1079.16 -0.420807 1.96955 0
M  V30 11960 C 1076.22 -0.396076 3.4443 0
M  V30 11961 C 1075.28 0.537394 4.25923 0
M  V30 11962 C 1074.52 -0.194713 5.33345 0
M  V30 11963 O 1074.74 -1.41943 5.52457 0
M  V30 11964 O 1073.67 0.460055 6.00139 0
M  V30 11965 H 1077.5 1.21756 2.78225 0
M  V30 11966 H 1075.09 0.65858 1.34101 0
M  V30 11967 H 1076.97 -0.830962 4.13126 0
M  V30 11968 H 1075.64 -1.21716 2.99945 0
M  V30 11969 H 1074.55 1.02129 3.5989 0
M  V30 11970 H 1075.88 1.32475 4.74037 0
M  V30 11971 N 1077.53 -1.43282 0.656365 0
M  V30 11972 C 1078.46 -2.33492 -0.0196962 0
M  V30 11973 C 1079.45 -1.49647 -0.80868 0
M  V30 11974 O 1080.63 -1.78303 -0.769529 0
M  V30 11975 C 1077.76 -3.33052 -0.984574 0
M  V30 11976 C 1076.71 -4.26908 -0.305483 0
M  V30 11977 C 1076.04 -5.16531 -1.38202 0
M  V30 11978 C 1077.34 -5.16073 0.804081 0
M  V30 11979 H 1079.03 -2.90272 0.733661 0
M  V30 11980 H 1076.58 -1.39574 0.354259 0
M  V30 11981 H 1078.53 -3.9506 -1.46647 0
M  V30 11982 H 1077.26 -2.74535 -1.76913 0
M  V30 11983 H 1075.92 -3.66268 0.155995 0
M  V30 11984 H 1075.56 -4.54351 -2.1581 0
M  V30 11985 H 1075.26 -5.80148 -0.932878 0
M  V30 11986 H 1076.79 -5.81414 -1.86522 0
M  V30 11987 H 1078.2 -5.71873 0.404212 0
M  V30 11988 H 1076.6 -5.88427 1.17789 0
M  V30 11989 H 1077.67 -4.55574 1.66073 0
M  V30 11990 N 1079.01 -0.398486 -1.52479 0
M  V30 11991 C 1080.43 -0.0488635 -1.59525 0
M  V30 11992 C 1080.63 1.43756 -1.41197 0
M  V30 11993 O 1079.69 2.20317 -1.23357 0
M  V30 11994 C 1081 -0.534262 -2.95916 0
M  V30 11995 C 1082.55 -0.491314 -3.0912 0
M  V30 11996 C 1083.02 -0.953049 -4.47974 0
M  V30 11997 N 1084.51 -0.909434 -4.54184 0
M  V30 11998 C 1085.25 -1.23801 -5.59876 0
M  V30 11999 N 1084.74 -1.63752 -6.73169 0
M  V30 12000 N 1086.54 -1.15867 -5.50028 0
M  V30 12001 H 1078.69 -1.36608 -1.62641 0
M  V30 12002 H 1080.95 -0.560515 -0.764544 0
M  V30 12003 H 1080.66 -1.57277 -3.14574 0
M  V30 12004 H 1080.53 0.0617787 -3.77149 0
M  V30 12005 H 1082.92 0.538123 -2.90152 0
M  V30 12006 H 1083 -1.12327 -2.29818 0
M  V30 12007 H 1082.64 -1.98076 -4.67684 0
M  V30 12008 H 1082.57 -0.298007 -5.25756 0
M  V30 12009 H 1085.06 -0.615569 -3.72853 0
M  V30 12010 H 1085.38 -1.87163 -7.49793 0
M  V30 12011 H 1083.72 -1.67647 -6.74477 0
M  V30 12012 H 1086.91 -0.845502 -4.60401 0
M  V30 12013 H 1087.09 -1.41805 -6.32294 0
M  V30 12014 N 1080.49 1.57075 -0.12858 0
M  V30 12015 C 1081.72 1.99586 0.533769 0
M  V30 12016 C 1082.13 1.00737 1.60152 0
M  V30 12017 O 1081.47 -0.00647783 1.83699 0
M  V30 12018 C 1081.53 3.3852 1.21014 0
M  V30 12019 C 1081.2 4.56084 0.289191 0
M  V30 12020 C 1082.2 5.17717 -0.475963 0
M  V30 12021 C 1079.88 5.01912 0.197467 0
M  V30 12022 C 1081.87 6.23572 -1.32048 0
M  V30 12023 C 1079.56 6.07626 -0.65067 0
M  V30 12024 C 1080.56 6.68324 -1.40826 0
M  V30 12025 O 1080.25 7.71995 -2.2423 0
M  V30 12026 H 1079.98 0.660245 0.145096 0
M  V30 12027 H 1082.53 2.04276 -0.214615 0
M  V30 12028 H 1080.76 3.30613 2.00579 0
M  V30 12029 H 1082.45 3.65258 1.77036 0
M  V30 12030 H 1083.22 4.83221 -0.415027 0
M  V30 12031 H 1079.1 4.54407 0.776853 0
M  V30 12032 H 1082.64 6.70878 -1.91228 0
M  V30 12033 H 1078.54 6.41551 -0.712965 0
M  V30 12034 H 1079.31 7.89135 -2.17276 0
M  V30 12035 N 1081.97 -0.145205 1.5693 0
M  V30 12036 C 1082.9 -1.20438 1.95006 0
M  V30 12037 C 1083.91 -1.39085 0.846114 0
M  V30 12038 O 1085.1 -1.38625 1.12452 0
M  V30 12039 C 1082.2 -2.56892 2.21043 0
M  V30 12040 C 1081.38 -2.59197 3.52329 0
M  V30 12041 C 1080.44 -3.77204 3.66884 0
M  V30 12042 O 1079.46 -3.61995 4.39259 0
M  V30 12043 N 1080.66 -4.9473 3.03682 0
M  V30 12044 H 1083.43 -0.880709 2.86467 0
M  V30 12045 H 1080.99 -0.334751 1.58401 0
M  V30 12046 H 1082.98 -3.34349 2.2802 0
M  V30 12047 H 1081.55 -2.81544 1.35838 0
M  V30 12048 H 1080.77 -1.67644 3.56776 0
M  V30 12049 H 1082.06 -2.57771 4.3867 0
M  V30 12050 H 1081.46 -5.09989 2.44801 0
M  V30 12051 H 1080.01 -5.69956 3.16218 0
M  V30 12052 N 1083.45 -1.52049 -0.414609 0
M  V30 12053 C 1084.69 -1.66084 -1.16379 0
M  V30 12054 C 1085.03 -0.386932 -1.90306 0
M  V30 12055 O 1084.3 0.614441 -1.8454 0
M  V30 12056 C 1084.58 -2.87927 -2.16264 0
M  V30 12057 C 1084.44 -4.25353 -1.46269 0
M  V30 12058 C 1085.76 -3.05289 -3.16996 0
M  V30 12059 H 1082.88 -0.604414 -0.421726 0
M  V30 12060 H 1085.52 -1.8459 -0.450177 0
M  V30 12061 H 1083.67 -2.7228 -2.77121 0
M  V30 12062 H 1085.34 -4.52717 -0.885743 0
M  V30 12063 H 1083.58 -4.27006 -0.76472 0
M  V30 12064 H 1084.25 -5.06644 -2.19126 0
M  V30 12065 H 1086.73 -3.19798 -2.66212 0
M  V30 12066 H 1085.61 -3.92065 -3.84156 0
M  V30 12067 H 1085.87 -2.1836 -3.84411 0
M  V30 12068 N 1084.93 0.6715 -1.42579 0
M  V30 12069 C 1086.34 1.2522 -1.38481 0
M  V30 12070 C 1086.69 1.96038 -0.079719 0
M  V30 12071 O 1085.81 2.00203 0.821441 0
M  V30 12072 C 1086.41 2.27736 -2.50842 0
M  V30 12073 C 1084.97 2.81325 -2.50067 0
M  V30 12074 C 1084.11 1.55694 -2.29466 0
M  V30 12075 H 1087.06 0.464673 -1.51745 0
M  V30 12076 H 1087.09 3.09539 -2.21283 0
M  V30 12077 H 1086.6 1.76164 -3.45815 0
M  V30 12078 H 1084.7 3.37008 -1.58922 0
M  V30 12079 H 1084.81 3.30116 -3.47218 0
M  V30 12080 H 1083.18 1.82383 -1.77788 0
M  V30 12081 H 1083.96 1.06084 -3.26498 0
M  V30 12082 N 1086.4 1.28806 0.908124 0
M  V30 12083 C 1087.65 1.16058 1.65454 0
M  V30 12084 C 1087.97 -0.290057 1.92831 0
M  V30 12085 O 1087.24 -1.20001 1.54843 0
M  V30 12086 H 1085.82 0.426522 0.61326 0
M  V30 12087 H 1088.48 1.61614 1.08936 0
M  V30 12088 H 1087.58 1.70437 2.61453 0
M  V30 12089 N 1087.88 -1.11734 1.11145 0
M  V30 12090 C 1089.11 -1.87755 0.881062 0
M  V30 12091 C 1089.53 -1.79461 -0.563496 0
M  V30 12092 O 1088.89 -1.15481 -1.39763 0
M  V30 12093 C 1088.94 -3.34641 1.34342 0
M  V30 12094 O 1088.04 -4.09195 0.513157 0
M  V30 12095 H 1087.38 -0.583111 0.317613 0
M  V30 12096 H 1089.91 -1.41256 1.48013 0
M  V30 12097 H 1089.92 -3.85486 1.33658 0
M  V30 12098 H 1088.6 -3.39994 2.39534 0
M  V30 12099 H 1087.17 -3.68269 0.585833 0
M  V30 12100 N 1089.36 -0.901303 -1.29284 0
M  V30 12101 C 1090.61 -0.528826 -1.95784 0
M  V30 12102 C 1090.94 0.922833 -1.70873 0
M  V30 12103 O 1090.21 1.65448 -1.0226 0
M  V30 12104 C 1090.5 -0.823793 -3.50551 0
M  V30 12105 C 1090.35 -2.32727 -3.84913 0
M  V30 12106 C 1091.67 -0.311382 -4.38997 0
M  V30 12107 H 1088.79 -0.193604 -0.711116 0
M  V30 12108 H 1091.43 -1.12828 -1.52872 0
M  V30 12109 H 1089.58 -0.313612 -3.87232 0
M  V30 12110 H 1091.25 -2.90712 -3.58168 0
M  V30 12111 H 1089.49 -2.78735 -3.32399 0
M  V30 12112 H 1090.17 -2.48423 -4.9294 0
M  V30 12113 H 1092.64 -0.748265 -4.09317 0
M  V30 12114 H 1091.52 -0.546957 -5.46168 0
M  V30 12115 H 1091.78 0.787959 -4.35021 0
M  V30 12116 N 1090.84 1.42931 -0.663954 0
M  V30 12117 C 1091.79 2.27958 0.0436184 0
M  V30 12118 C 1092.77 1.40493 0.784258 0
M  V30 12119 O 1093.96 1.64035 0.664956 0
M  V30 12120 C 1091.09 3.28357 1.00183 0
M  V30 12121 C 1090.18 4.23308 0.259099 0
M  V30 12122 N 1090.57 5.00502 -0.730182 0
M  V30 12123 C 1088.87 4.43199 0.499061 0
M  V30 12124 C 1089.57 5.69771 -1.17201 0
M  V30 12125 N 1088.54 5.41258 -0.504105 0
M  V30 12126 H 1092.35 2.85061 -0.715348 0
M  V30 12127 H 1089.86 1.54764 -0.492117 0
M  V30 12128 H 1091.86 3.88061 1.52362 0
M  V30 12129 H 1090.52 2.72815 1.76074 0
M  V30 12130 H 1091.53 5.0588 -1.10932 0
M  V30 12131 H 1088.21 3.98713 1.23831 0
M  V30 12132 H 1089.6 6.41718 -1.99117 0
M  V30 12133 N 1092.32 0.406567 1.52266 0
M  V30 12134 C 1093.28 -0.408251 2.25535 0
M  V30 12135 C 1094.28 -0.975795 1.27808 0
M  V30 12136 O 1095.47 -0.855077 1.5177 0
M  V30 12137 C 1092.6 -1.57443 3.02365 0
M  V30 12138 H 1093.79 0.233459 2.9899 0
M  V30 12139 H 1091.35 0.159032 1.55489 0
M  V30 12140 H 1092.08 -2.25308 2.33252 0
M  V30 12141 H 1091.87 -1.17399 3.74112 0
M  V30 12142 H 1093.36 -2.15088 3.57948 0
M  V30 12143 N 1093.79 -1.57004 0.136909 0
M  V30 12144 C 1094.74 -2.17524 -0.823784 0
M  V30 12145 C 1095.74 -1.1294 -1.26258 0
M  V30 12146 O 1096.94 -1.3121 -1.23223 0
M  V30 12147 H 1093.32 -0.696381 -0.283827 0
M  V30 12148 H 1095.29 -2.96997 -0.289052 0
M  V30 12149 C 1094.04 -2.80331 -2.05693 0
M  V30 12150 H 1093.36 -3.60515 -1.72825 0
M  V30 12151 H 1094.8 -3.26192 -2.70878 0
M  V30 12152 C 1093.26 -1.78322 -2.85837 0
M  V30 12153 O 1093.79 -1.2475 -3.81838 0
M  V30 12154 N 1092 -1.47854 -2.50175 0
M  V30 12155 H 1091.54 -1.9161 -1.72173 0
M  V30 12156 H 1091.5 -0.798464 -3.04092 0
M  V30 12157 N 1095.27 0.136881 -1.57004 0
M  V30 12158 C 1096.52 0.849031 -1.84172 0
M  V30 12159 C 1096.85 1.80359 -0.720027 0
M  V30 12160 O 1096.13 1.92538 0.275584 0
M  V30 12161 C 1096.41 1.61465 -3.21871 0
M  V30 12162 C 1096.26 0.680902 -4.44616 0
M  V30 12163 C 1097.58 2.57488 -3.56914 0
M  V30 12164 H 1094.7 0.307209 -0.669919 0
M  V30 12165 H 1097.34 0.113862 -1.89659 0
M  V30 12166 H 1095.49 2.24137 -3.17325 0
M  V30 12167 H 1097.16 0.0644094 -4.61255 0
M  V30 12168 H 1095.41 -0.00883629 -4.33799 0
M  V30 12169 H 1096.08 1.25286 -5.37594 0
M  V30 12170 H 1098.55 2.0493 -3.62136 0
M  V30 12171 H 1097.43 3.08101 -4.54274 0
M  V30 12172 H 1097.69 3.39321 -2.83397 0
M  V30 12173 N 1096.75 1.52266 0.40654 0
M  V30 12174 C 1097.68 1.72025 1.51459 0
M  V30 12175 C 1098.7 0.600667 1.51314 0
M  V30 12176 O 1099.88 0.875894 1.55532 0
M  V30 12177 C 1096.98 1.7479 2.90348 0
M  V30 12178 C 1096.16 3.03826 3.14656 0
M  V30 12179 C 1095.22 2.98369 4.33431 0
M  V30 12180 O 1094.24 3.7227 4.30586 0
M  V30 12181 N 1095.44 2.16338 5.38682 0
M  V30 12182 H 1098.21 2.67622 1.34903 0
M  V30 12183 H 1095.77 1.50536 0.595867 0
M  V30 12184 H 1097.76 1.68667 3.67877 0
M  V30 12185 H 1096.33 0.86656 3.00349 0
M  V30 12186 H 1095.55 3.23577 2.25148 0
M  V30 12187 H 1096.84 3.89182 3.27742 0
M  V30 12188 H 1096.24 1.55731 5.43842 0
M  V30 12189 H 1094.8 2.1607 6.14945 0
M  V30 12190 N 1098.23 -0.663929 1.42933 0
M  V30 12191 C 1099.16 -1.78899 1.50058 0
M  V30 12192 C 1100.14 -1.66329 0.356164 0
M  V30 12193 O 1101.32 -1.85587 0.571944 0
M  V30 12194 C 1098.45 -3.17265 1.41281 0
M  V30 12195 C 1097.41 -3.44584 2.53861 0
M  V30 12196 C 1096.73 -4.82638 2.3014 0
M  V30 12197 C 1098.03 -3.40394 3.96143 0
M  V30 12198 H 1099.73 -1.73194 2.44222 0
M  V30 12199 H 1097.27 -0.83182 1.17545 0
M  V30 12200 H 1099.23 -3.95715 1.44872 0
M  V30 12201 H 1097.95 -3.23675 0.43616 0
M  V30 12202 H 1096.61 -2.685 2.49606 0
M  V30 12203 H 1096.26 -4.85711 1.30743 0
M  V30 12204 H 1095.96 -5.01879 3.056 0
M  V30 12205 H 1097.48 -5.63359 2.35497 0
M  V30 12206 H 1098.9 -4.08796 4.01943 0
M  V30 12207 H 1097.29 -3.7117 4.71543 0
M  V30 12208 H 1098.36 -2.38767 4.22041 0
M  V30 12209 N 1099.71 -1.29285 -0.901281 0
M  V30 12210 C 1100.64 -1.16832 -2.0217 0
M  V30 12211 C 1101.62 -0.0629265 -1.69984 0
M  V30 12212 O 1102.8 -0.242123 -1.92685 0
M  V30 12213 C 1099.93 -0.842406 -3.36929 0
M  V30 12214 C 1098.89 -1.90394 -3.8332 0
M  V30 12215 C 1098.21 -1.43138 -5.15185 0
M  V30 12216 C 1099.51 -3.31254 -4.03817 0
M  V30 12217 H 1101.21 -2.10562 -2.12847 0
M  V30 12218 H 1098.75 -1.01375 -1.0227 0
M  V30 12219 H 1100.71 -0.741999 -4.14816 0
M  V30 12220 H 1099.43 0.130598 -3.26339 0
M  V30 12221 H 1098.09 -1.99371 -3.07647 0
M  V30 12222 H 1097.74 -0.447091 -5.01009 0
M  V30 12223 H 1097.44 -2.14129 -5.47195 0
M  V30 12224 H 1098.96 -1.34444 -5.95615 0
M  V30 12225 H 1100.37 -3.25129 -4.72191 0
M  V30 12226 H 1098.77 -4.00189 -4.47178 0
M  V30 12227 H 1099.84 -3.74349 -3.08206 0
M  V30 12228 N 1101.18 1.11143 -1.11736 0
M  V30 12229 C 1102.6 1.34962 -0.851905 0
M  V30 12230 C 1102.8 1.94627 0.521797 0
M  V30 12231 O 1101.86 2.18121 1.27198 0
M  V30 12232 C 1103.17 2.27832 -1.96248 0
M  V30 12233 C 1104.72 2.41388 -1.9925 0
M  V30 12234 C 1105.19 3.37582 -3.09519 0
M  V30 12235 N 1106.68 3.45147 -3.08914 0
M  V30 12236 C 1107.42 4.19527 -3.90876 0
M  V30 12237 N 1106.91 4.96858 -4.82809 0
M  V30 12238 N 1108.71 4.15071 -3.79042 0
M  V30 12239 H 1100.86 0.707801 -2.0026 0
M  V30 12240 H 1103.12 0.374172 -0.871033 0
M  V30 12241 H 1102.83 1.91189 -2.95194 0
M  V30 12242 H 1102.7 3.28078 -1.86132 0
M  V30 12243 H 1105.09 2.77304 -1.00928 0
M  V30 12244 H 1105.17 1.40983 -2.13442 0
M  V30 12245 H 1104.81 3.02393 -4.0807 0
M  V30 12246 H 1104.74 4.37849 -2.92568 0
M  V30 12247 H 1107.23 2.89991 -2.42309 0
M  V30 12248 H 1107.55 5.5099 -5.41876 0
M  V30 12249 H 1105.89 4.96008 -4.86828 0
M  V30 12250 H 1109.08 3.53748 -3.06562 0
M  V30 12251 H 1109.26 4.72781 -4.4315 0
M  V30 12252 N 1102.66 0.908147 1.28804 0
M  V30 12253 C 1103.89 0.553431 1.9988 0
M  V30 12254 C 1104.31 -0.856714 1.67458 0
M  V30 12255 O 1103.67 -1.57163 0.903849 0
M  V30 12256 C 1103.72 0.762688 3.52442 0
M  V30 12257 O 1102.82 -0.180924 4.12003 0
M  V30 12258 H 1102.16 0.215237 0.628147 0
M  V30 12259 H 1104.69 1.22205 1.64095 0
M  V30 12260 H 1104.7 0.670612 4.02451 0
M  V30 12261 H 1103.38 1.79071 3.75375 0
M  V30 12262 H 1101.96 -0.0405897 3.72878 0
M  V30 12263 N 1104.14 -1.42577 0.671525 0
M  V30 12264 C 1105.1 -2.292 0.000392482 0
M  V30 12265 C 1106.1 -1.43158 -0.732294 0
M  V30 12266 O 1107.29 -1.64583 -0.570789 0
M  V30 12267 C 1104.43 -3.25591 -1.01013 0
M  V30 12268 H 1105.62 -2.90037 0.762783 0
M  V30 12269 H 1103.17 -1.50162 0.433703 0
M  V30 12270 H 1103.91 -2.69685 -1.80112 0
M  V30 12271 H 1103.69 -3.89049 -0.488183 0
M  V30 12272 H 1105.18 -3.90561 -1.47824 0
M  V30 12273 N 1105.62 -0.414636 -1.52048 0
M  V30 12274 C 1106.58 0.396285 -2.25748 0
M  V30 12275 C 1107.58 0.969003 -1.28324 0
M  V30 12276 O 1108.77 0.847016 -1.52221 0
M  V30 12277 C 1105.9 1.55838 -3.03195 0
M  V30 12278 H 1107.1 -0.249311 -2.98862 0
M  V30 12279 H 1104.65 -0.167276 -1.55402 0
M  V30 12280 H 1105.38 2.24068 -2.34444 0
M  V30 12281 H 1105.17 1.15414 -3.74729 0
M  V30 12282 H 1106.66 2.13187 -3.59084 0
M  V30 12283 N 1107.1 1.56929 -0.145233 0
M  V30 12284 C 1108.37 1.8767 0.551288 0
M  V30 12285 C 1108.75 1.05089 1.83083 0
M  V30 12286 O 1108.1 0.137201 2.28088 0
M  V30 12287 C 1108.31 3.39268 0.818445 0
M  V30 12288 C 1109.66 4.08447 1.16 0
M  V30 12289 O 1110.68 3.44436 0.907857 0
M  V30 12290 O 1109.54 5.21488 1.63441 0
M  V30 12291 H 1106.64 0.777788 0.281024 0
M  V30 12292 H 1109.18 1.68724 -0.181712 0
M  V30 12293 H 1107.95 3.91203 -0.0871897 0
M  V30 12294 H 1107.58 3.63735 1.60569 0
M  V30 12295 N 1108.58 -0.128553 1.57075 0
M  V30 12296 C 1109.82 -0.834322 1.85501 0
M  V30 12297 C 1110.18 -1.77943 0.731725 0
M  V30 12298 O 1109.47 -1.89702 -0.269003 0
M  V30 12299 C 1109.66 -1.63027 3.18052 0
M  V30 12300 C 1109.49 -0.763737 4.43167 0
M  V30 12301 C 1108.26 -0.42224 5.03533 0
M  V30 12302 C 1110.46 -0.0856773 5.14229 0
M  V30 12303 N 1108.44 0.455954 6.12204 0
M  V30 12304 C 1109.81 0.651902 6.16563 0
M  V30 12305 C 1111.87 -0.00826404 4.97899 0
M  V30 12306 C 1110.57 1.45961 7.04335 0
M  V30 12307 C 1112.6 0.786239 5.8615 0
M  V30 12308 C 1111.96 1.51204 6.8798 0
M  V30 12309 H 1108.06 -0.282535 0.729176 0
M  V30 12310 H 1110.64 -0.0985924 1.9445 0
M  V30 12311 H 1108.81 -2.3371 3.10216 0
M  V30 12312 H 1110.55 -2.28063 3.34319 0
M  V30 12313 H 1107.3 -0.76229 4.67425 0
M  V30 12314 H 1107.72 0.886619 6.71169 0
M  V30 12315 H 1112.37 -0.555051 4.19141 0
M  V30 12316 H 1110.08 2.01759 7.82508 0
M  V30 12317 H 1113.67 0.848372 5.75581 0
M  V30 12318 H 1112.55 2.11694 7.55086 0
M  V30 12319 N 1110.05 -1.5248 -0.398459 0
M  V30 12320 C 1111.28 -1.71221 -1.17039 0
M  V30 12321 C 1111.7 -0.425515 -1.83224 0
M  V30 12322 O 1111.06 0.617938 -1.70444 0
M  V30 12323 C 1111.11 -2.8562 -2.20121 0
M  V30 12324 O 1110.21 -2.51934 -3.26501 0
M  V30 12325 H 1109.55 -0.569654 -0.34116 0
M  V30 12326 H 1112.08 -1.99231 -0.465652 0
M  V30 12327 H 1112.09 -3.10842 -2.64275 0
M  V30 12328 H 1110.77 -3.78969 -1.71334 0
M  V30 12329 H 1109.35 -2.3742 -2.87552 0
M  V30 12330 N 1111.53 0.65634 -1.43283 0
M  V30 12331 C 1112.49 1.75117 -1.47874 0
M  V30 12332 C 1113.49 1.56629 -0.363846 0
M  V30 12333 O 1114.68 1.62584 -0.625464 0
M  V30 12334 C 1111.82 3.13957 -1.32831 0
M  V30 12335 H 1113.01 1.72429 -2.45374 0
M  V30 12336 H 1110.56 0.867704 -1.30002 0
M  V30 12337 H 1111.3 3.22259 -0.36326 0
M  V30 12338 H 1111.08 3.28781 -2.13649 0
M  V30 12339 H 1112.57 3.93799 -1.38969 0
M  V30 12340 N 1113.01 1.29761 0.894412 0
M  V30 12341 C 1114.26 1.17806 1.64214 0
M  V30 12342 C 1114.58 -0.269588 1.93127 0
M  V30 12343 O 1113.85 -1.18352 1.56107 0
M  V30 12344 H 1112.43 0.433002 0.608702 0
M  V30 12345 H 1115.09 1.6276 1.07216 0
M  V30 12346 H 1114.19 1.73201 2.5963 0
M  V30 12347 N 1114.49 -1.10549 1.12324 0
M  V30 12348 C 1115.74 -1.81851 0.872531 0
M  V30 12349 C 1116.05 -1.86058 -0.603468 0
M  V30 12350 O 1117.26 -2.53553 -0.970736 0
M  V30 12351 C 1115.71 -3.26631 1.51131 0
M  V30 12352 C 1115.32 -3.30725 3.02201 0
M  V30 12353 C 1117.06 -4.02768 1.34082 0
M  V30 12354 C 1114.97 -4.69957 3.59018 0
M  V30 12355 H 1113.9 -0.681422 0.322769 0
M  V30 12356 H 1116.55 -1.24332 1.34959 0
M  V30 12357 H 1114.93 -3.8414 0.961913 0
M  V30 12358 H 1116.11 -2.83046 3.63623 0
M  V30 12359 H 1114.42 -2.68072 3.18632 0
M  V30 12360 H 1117.02 -5.05612 1.73955 0
M  V30 12361 H 1117.36 -4.15328 0.284369 0
M  V30 12362 H 1117.9 -3.51671 1.85937 0
M  V30 12363 H 1114.63 -4.62597 4.64418 0
M  V30 12364 H 1114.15 -5.18008 3.02371 0
M  V30 12365 H 1115.83 -5.38925 3.58007 0
M  V30 12366 N 1115.97 -0.914965 -1.28321 0
M  V30 12367 C 1116.91 -0.402792 -2.27258 0
M  V30 12368 C 1117.88 0.523412 -1.57638 0
M  V30 12369 O 1119.07 0.445344 -1.8553 0
M  V30 12370 C 1116.21 0.349956 -3.43321 0
M  V30 12371 C 1115.32 -0.608892 -4.27687 0
M  V30 12372 C 1114.46 0.162425 -5.30952 0
M  V30 12373 C 1113.49 -0.789959 -6.06981 0
M  V30 12374 N 1112.63 -0.0520826 -7.02081 0
M  V30 12375 H 1117.47 -1.25153 -2.70446 0
M  V30 12376 H 1115.01 -0.628444 -1.33 0
M  V30 12377 H 1116.97 0.802589 -4.09407 0
M  V30 12378 H 1115.6 1.16303 -3.01121 0
M  V30 12379 H 1114.65 -1.18005 -3.61634 0
M  V30 12380 H 1115.96 -1.33727 -4.8054 0
M  V30 12381 H 1115.11 0.675563 -6.02927 0
M  V30 12382 H 1113.85 0.923851 -4.7887 0
M  V30 12383 H 1112.86 -1.31446 -5.33856 0
M  V30 12384 H 1114.08 -1.55096 -6.61152 0
M  V30 12385 H 1112.03 0.691331 -6.52347 0
M  V30 12386 H 1111.95 -0.720267 -7.52561 0
M  V30 12387 H 1113.21 0.44082 -7.78253 0
M  V30 12388 N 1117.44 1.42219 -0.679077 0
M  V30 12389 C 1118.67 2.05516 -0.211342 0
M  V30 12390 C 1119.08 1.5113 1.13826 0
M  V30 12391 O 1118.42 0.647593 1.71907 0
M  V30 12392 C 1118.49 3.59425 -0.0736007 0
M  V30 12393 C 1118.15 4.36525 -1.3526 0
M  V30 12394 C 1119.15 4.66897 -2.28698 0
M  V30 12395 C 1116.83 4.76089 -1.60139 0
M  V30 12396 C 1118.83 5.35775 -3.45288 0
M  V30 12397 C 1116.51 5.44706 -2.77017 0
M  V30 12398 C 1117.51 5.74474 -3.69416 0
M  V30 12399 O 1117.2 6.41683 -4.8425 0
M  V30 12400 H 1116.93 0.668662 -0.0993318 0
M  V30 12401 H 1119.49 1.8327 -0.927434 0
M  V30 12402 H 1117.72 3.80346 0.69811 0
M  V30 12403 H 1119.4 4.04346 0.354813 0
M  V30 12404 H 1120.17 4.36828 -2.10729 0
M  V30 12405 H 1116.05 4.5231 -0.890887 0
M  V30 12406 H 1119.59 5.58927 -4.17428 0
M  V30 12407 H 1115.49 5.74194 -2.9491 0
M  V30 12408 H 1116.26 6.60175 -4.8385 0
M  V30 12409 N 1118.92 0.422693 1.51826 0
M  V30 12410 C 1119.87 -0.413725 2.24215 0
M  V30 12411 C 1120.86 -1.00228 1.2587 0
M  V30 12412 O 1122.05 -0.922845 1.51038 0
M  V30 12413 C 1119.18 -1.52244 3.07696 0
M  V30 12414 C 1118.26 -0.943999 4.1346 0
M  V30 12415 N 1118.65 -0.0934117 5.05714 0
M  V30 12416 C 1116.95 -1.21311 4.29185 0
M  V30 12417 C 1117.65 0.229891 5.81246 0
M  V30 12418 N 1116.63 -0.382753 5.42251 0
M  V30 12419 H 1120.43 0.242283 2.929 0
M  V30 12420 H 1117.94 0.233902 1.60707 0
M  V30 12421 H 1119.94 -2.13438 3.5812 0
M  V30 12422 H 1118.6 -2.18093 2.40552 0
M  V30 12423 H 1119.61 0.271932 5.17186 0
M  V30 12424 H 1116.29 -1.87018 3.7327 0
M  V30 12425 H 1117.68 0.921159 6.65556 0
M  V30 12426 N 1120.4 -1.5685 0.153553 0
M  V30 12427 C 1121.31 -2.20664 -0.796528 0
M  V30 12428 C 1122.33 -1.19289 -1.26674 0
M  V30 12429 O 1123.5 -1.51889 -1.32256 0
M  V30 12430 C 1120.57 -2.82088 -2.01561 0
M  V30 12431 C 1119.63 -3.9861 -1.59401 0
M  V30 12432 C 1118.86 -4.57096 -2.75498 0
M  V30 12433 O 1119.08 -4.14462 -3.9189 0
M  V30 12434 O 1118.02 -5.47254 -2.50593 0
M  V30 12435 H 1121.84 -3.02376 -0.283282 0
M  V30 12436 H 1119.43 -1.49218 -0.0737927 0
M  V30 12437 H 1121.31 -3.21103 -2.72893 0
M  V30 12438 H 1119.99 -2.03385 -2.51826 0
M  V30 12439 H 1118.89 -3.64299 -0.850725 0
M  V30 12440 H 1120.23 -4.78853 -1.13845 0
M  V30 12441 N 1121.88 0.120221 -1.57141 0
M  V30 12442 C 1122.79 1.16641 -2.03549 0
M  V30 12443 C 1123.8 1.45407 -0.955656 0
M  V30 12444 O 1124.98 1.56547 -1.26708 0
M  V30 12445 C 1122.04 2.4734 -2.42948 0
M  V30 12446 C 1121.11 2.25982 -3.65008 0
M  V30 12447 C 1120.34 3.50449 -4.02518 0
M  V30 12448 O 1120.56 4.57706 -3.40384 0
M  V30 12449 O 1119.5 3.41524 -4.95626 0
M  V30 12450 H 1123.32 0.802323 -2.9291 0
M  V30 12451 H 1120.91 0.330927 -1.45689 0
M  V30 12452 H 1122.79 3.24348 -2.69029 0
M  V30 12453 H 1121.46 2.83225 -1.56733 0
M  V30 12454 H 1120.37 1.46837 -3.44078 0
M  V30 12455 H 1121.7 1.95002 -4.51924 0
M  V30 12456 N 1123.36 1.52689 0.390367 0
M  V30 12457 C 1124.58 1.71839 1.16129 0
M  V30 12458 C 1125.01 0.435226 1.82996 0
M  V30 12459 O 1124.36 -0.60889 1.70769 0
M  V30 12460 C 1124.41 2.86784 2.18603 0
M  V30 12461 O 1123.52 2.53662 3.25161 0
M  V30 12462 H 1122.86 0.571455 0.338135 0
M  V30 12463 H 1125.39 1.99475 0.45508 0
M  V30 12464 H 1125.4 3.12239 2.62622 0
M  V30 12465 H 1124.07 3.79872 1.69322 0
M  V30 12466 H 1122.65 2.38942 2.86289 0
M  V30 12467 N 1124.83 -0.648732 1.43629 0
M  V30 12468 C 1126.08 -1.40446 1.44768 0
M  V30 12469 C 1126.4 -1.95447 0.0773445 0
M  V30 12470 O 1127.6 -2.71479 -0.0337942 0
M  V30 12471 C 1126.06 -2.54194 2.54781 0
M  V30 12472 C 1125.67 -2.05781 3.97942 0
M  V30 12473 C 1127.41 -3.31529 2.65121 0
M  V30 12474 C 1125.32 -3.16767 4.99412 0
M  V30 12475 H 1124.25 -0.527717 0.538545 0
M  V30 12476 H 1126.9 -0.699756 1.69634 0
M  V30 12477 H 1125.28 -3.27156 2.23125 0
M  V30 12478 H 1126.45 -1.398 4.39081 0
M  V30 12479 H 1124.77 -1.41312 3.91688 0
M  V30 12480 H 1127.37 -4.14233 3.38105 0
M  V30 12481 H 1127.71 -3.79855 1.70341 0
M  V30 12482 H 1128.24 -2.65649 2.961 0
M  V30 12483 H 1124.98 -2.73404 5.9576 0
M  V30 12484 H 1124.5 -3.81445 4.62882 0
M  V30 12485 H 1126.18 -3.81827 5.22319 0
M  V30 12486 N 1126.31 -1.30234 -0.887518 0
M  V30 12487 C 1127.26 -1.13013 -1.9802 0
M  V30 12488 C 1128.25 -0.0460253 -1.60834 0
M  V30 12489 O 1129.44 -0.26907 -1.74943 0
M  V30 12490 C 1126.57 -0.821397 -3.33329 0
M  V30 12491 C 1125.65 -1.94564 -3.76837 0
M  V30 12492 N 1126.04 -3.19068 -3.92465 0
M  V30 12493 C 1124.34 -1.84142 -4.06211 0
M  V30 12494 C 1125.04 -3.92495 -4.29328 0
M  V30 12495 N 1124.02 -3.20526 -4.39049 0
M  V30 12496 H 1127.82 -2.07446 -2.0819 0
M  V30 12497 H 1125.34 -1.21536 -1.07716 0
M  V30 12498 H 1127.33 -0.679046 -4.11333 0
M  V30 12499 H 1125.99 0.114891 -3.24497 0
M  V30 12500 H 1127 -3.54386 -3.77665 0
M  V30 12501 H 1123.68 -0.97865 -4.05868 0
M  V30 12502 H 1125.07 -4.99701 -4.49164 0
M  V30 12503 N 1127.79 1.09952 -1.12909 0
M  V30 12504 C 1128.75 2.14615 -0.804548 0
M  V30 12505 C 1129.75 1.5975 0.18345 0
M  V30 12506 O 1130.94 1.74147 -0.0429623 0
M  V30 12507 C 1128.08 3.40333 -0.196471 0
M  V30 12508 H 1129.27 2.44835 -1.73193 0
M  V30 12509 H 1126.82 1.25399 -0.932997 0
M  V30 12510 H 1127.56 3.15735 0.740388 0
M  V30 12511 H 1127.34 3.81444 -0.907886 0
M  V30 12512 H 1128.83 4.17598 0.0139264 0
M  V30 12513 N 1129.27 0.921757 1.27833 0
M  V30 12514 C 1130.23 0.420978 2.25301 0
M  V30 12515 C 1131.23 -0.457158 1.54165 0
M  V30 12516 O 1132.42 -0.259079 1.72263 0
M  V30 12517 C 1129.55 -0.395501 3.38598 0
M  V30 12518 H 1130.75 1.28206 2.71115 0
M  V30 12519 H 1128.3 0.701893 1.39654 0
M  V30 12520 H 1129.03 -1.27565 2.98157 0
M  V30 12521 H 1128.82 0.234029 3.91401 0
M  V30 12522 H 1130.31 -0.736444 4.11055 0
M  V30 12523 N 1130.75 -1.41857 0.686609 0
M  V30 12524 C 1131.98 -2.05401 0.222238 0
M  V30 12525 C 1132.38 -1.51731 -1.13023 0
M  V30 12526 O 1131.73 -0.656701 -1.71561 0
M  V30 12527 C 1131.79 -3.59381 0.0926608 0
M  V30 12528 C 1131.45 -4.35801 1.37573 0
M  V30 12529 C 1132.45 -4.65678 2.31171 0
M  V30 12530 C 1130.14 -4.75233 1.62661 0
M  V30 12531 C 1132.13 -5.33936 3.48125 0
M  V30 12532 C 1129.82 -5.43229 2.79902 0
M  V30 12533 C 1130.81 -5.72507 3.72458 0
M  V30 12534 O 1130.5 -6.39106 4.87646 0
M  V30 12535 H 1130.23 -0.668126 0.102876 0
M  V30 12536 H 1132.79 -1.82775 0.93714 0
M  V30 12537 H 1131.02 -3.80711 -0.67793 0
M  V30 12538 H 1132.71 -4.04529 -0.333364 0
M  V30 12539 H 1133.47 -4.35704 2.13042 0
M  V30 12540 H 1129.35 -4.51831 0.914862 0
M  V30 12541 H 1132.9 -5.56706 4.20386 0
M  V30 12542 H 1128.79 -5.72621 2.97951 0
M  V30 12543 H 1129.56 -6.576 4.87344 0
M  V30 12544 N 1132.22 -0.430739 -1.51599 0
M  V30 12545 C 1133.47 0.138133 -2.02329 0
M  V30 12546 C 1133.8 1.42934 -1.31466 0
M  V30 12547 O 1133.08 1.89743 -0.427551 0
M  V30 12548 C 1133.36 0.363677 -3.58259 0
M  V30 12549 C 1133.21 -0.94572 -4.39746 0
M  V30 12550 C 1134.53 1.13637 -4.25176 0
M  V30 12551 H 1131.65 0.0487287 -0.735387 0
M  V30 12552 H 1134.29 -0.568444 -1.81297 0
M  V30 12553 H 1132.44 0.965552 -3.7631 0
M  V30 12554 H 1134.12 -1.58107 -4.33359 0
M  V30 12555 H 1132.36 -1.55183 -4.05094 0
M  V30 12556 H 1133.03 -0.742031 -5.4699 0
M  V30 12557 H 1135.51 0.626608 -4.11355 0
M  V30 12558 H 1134.38 1.26294 -5.34173 0
M  V30 12559 H 1134.64 2.16273 -3.85588 0
M  V30 12560 N 1133.7 1.56767 -0.161869 0
M  V30 12561 C 1134.65 2.1409 0.784183 0
M  V30 12562 C 1135.64 1.07262 1.19932 0
M  V30 12563 O 1136.83 1.33406 1.16326 0
M  V30 12564 C 1133.96 2.77778 2.01729 0
M  V30 12565 C 1133.04 3.91751 1.62457 0
M  V30 12566 N 1133.43 4.96972 0.940888 0
M  V30 12567 C 1131.73 4.02735 1.91626 0
M  V30 12568 C 1132.43 5.76858 0.748946 0
M  V30 12569 N 1131.41 5.28134 1.28745 0
M  V30 12570 H 1135.21 2.92811 0.252763 0
M  V30 12571 H 1132.73 1.62353 0.0391501 0
M  V30 12572 H 1134.72 3.17216 2.70517 0
M  V30 12573 H 1133.38 2.00535 2.55374 0
M  V30 12574 H 1134.39 5.14413 0.599981 0
M  V30 12575 H 1131.07 3.36585 2.47016 0
M  V30 12576 H 1132.46 6.71575 0.208991 0
M  V30 12577 N 1135.18 -0.111886 1.57202 0
M  V30 12578 C 1136.43 -0.819623 1.85499 0
M  V30 12579 C 1136.76 -1.7919 0.748629 0
M  V30 12580 O 1136.03 -1.92952 -0.244918 0
M  V30 12581 C 1136.32 -1.56324 3.24399 0
M  V30 12582 C 1136.17 -0.610081 4.45643 0
M  V30 12583 C 1137.49 -2.51777 3.60966 0
M  V30 12584 H 1134.61 -0.296512 0.674722 0
M  V30 12585 H 1137.25 -0.0836741 1.89816 0
M  V30 12586 H 1135.4 -2.1906 3.2085 0
M  V30 12587 H 1137.07 0.00898038 4.61299 0
M  V30 12588 H 1135.32 0.0778488 4.3373 0
M  V30 12589 H 1135.99 -1.16718 5.39519 0
M  V30 12590 H 1138.46 -1.99143 3.65351 0
M  V30 12591 H 1137.34 -3.00835 4.59118 0
M  V30 12592 H 1137.6 -3.34769 2.8876 0
M  V30 12593 N 1136.66 -1.52894 -0.382264 0
M  V30 12594 C 1137.91 -1.67489 -1.12385 0
M  V30 12595 C 1138.22 -0.424565 -1.90937 0
M  V30 12596 O 1139.43 -0.450763 -2.67732 0
M  V30 12597 C 1137.88 -2.96019 -2.04697 0
M  V30 12598 C 1137.49 -4.28255 -1.31535 0
M  V30 12599 C 1139.23 -3.19981 -2.78949 0
M  V30 12600 C 1137.14 -5.47887 -2.22652 0
M  V30 12601 H 1136.07 -0.624002 -0.423246 0
M  V30 12602 H 1138.72 -1.79392 -0.386107 0
M  V30 12603 H 1137.1 -2.77878 -2.82134 0
M  V30 12604 H 1138.28 -4.56971 -0.592771 0
M  V30 12605 H 1136.59 -4.10607 -0.692148 0
M  V30 12606 H 1139.19 -4.06541 -3.47316 0
M  V30 12607 H 1139.53 -2.35335 -3.43399 0
M  V30 12608 H 1140.07 -3.38718 -2.08602 0
M  V30 12609 H 1136.81 -6.3496 -1.62806 0
M  V30 12610 H 1136.33 -5.23473 -2.92807 0
M  V30 12611 H 1138 -5.82026 -2.82586 0
M  V30 12612 N 1138.14 0.641106 -1.43971 0
M  V30 12613 C 1139.05 1.78239 -1.52538 0
M  V30 12614 C 1140.06 1.6906 -0.411668 0
M  V30 12615 O 1141.24 1.90014 -0.66757 0
M  V30 12616 C 1138.3 3.14579 -1.45743 0
M  V30 12617 C 1137.37 3.35464 -2.67885 0
M  V30 12618 C 1136.6 4.65299 -2.61404 0
M  V30 12619 O 1136.82 5.45451 -1.66851 0
M  V30 12620 O 1135.76 4.8817 -3.521 0
M  V30 12621 H 1139.58 1.73965 -2.48937 0
M  V30 12622 H 1137.17 0.801098 -1.26106 0
M  V30 12623 H 1139.05 3.95873 -1.4444 0
M  V30 12624 H 1137.72 3.19417 -0.524837 0
M  V30 12625 H 1136.63 2.53888 -2.74758 0
M  V30 12626 H 1137.96 3.35481 -3.60157 0
M  V30 12627 N 1139.62 1.30703 0.880598 0
M  V30 12628 C 1140.56 1.17369 2.00817 0
M  V30 12629 C 1141.56 0.0845159 1.69189 0
M  V30 12630 O 1142.76 0.245673 1.78316 0
M  V30 12631 H 1139.14 0.363107 0.658527 0
M  V30 12632 H 1141.11 2.12789 2.09197 0
M  V30 12633 C 1139.86 0.886851 3.362 0
M  V30 12634 H 1139.18 1.71704 3.61051 0
M  V30 12635 H 1140.62 0.83368 4.15723 0
M  V30 12636 C 1139.08 -0.410293 3.34392 0
M  V30 12637 O 1139.61 -1.43044 3.75368 0
M  V30 12638 N 1137.82 -0.423023 2.87505 0
M  V30 12639 H 1137.36 0.407637 2.54354 0
M  V30 12640 H 1137.32 -1.29086 2.86678 0
M  V30 12641 N 1141.09 -1.09351 1.1349 0
M  V30 12642 C 1142.32 -1.85844 0.92069 0
M  V30 12643 C 1142.74 -1.80616 -0.525303 0
M  V30 12644 O 1142.1 -1.1842 -1.37282 0
M  V30 12645 C 1142.15 -3.31716 1.4141 0
M  V30 12646 O 1141.25 -4.08014 0.599838 0
M  V30 12647 H 1140.59 -0.576242 0.32991 0
M  V30 12648 H 1143.12 -1.38084 1.50976 0
M  V30 12649 H 1143.13 -3.82564 1.41805 0
M  V30 12650 H 1141.81 -3.34837 2.46692 0
M  V30 12651 H 1140.39 -3.66944 0.663816 0
M  V30 12652 N 1142.57 -0.928524 -1.27343 0
M  V30 12653 C 1143.99 -0.62889 -1.46687 0
M  V30 12654 C 1144.19 0.821592 -1.83989 0
M  V30 12655 O 1143.24 1.59941 -1.95385 0
M  V30 12656 C 1144.56 -1.57947 -2.55878 0
M  V30 12657 C 1146.1 -1.58778 -2.69738 0
M  V30 12658 C 1146.58 -2.52535 -3.82087 0
M  V30 12659 N 1148.07 -2.50747 -3.89462 0
M  V30 12660 C 1148.81 -3.19981 -4.75814 0
M  V30 12661 N 1148.3 -3.98598 -5.66649 0
M  V30 12662 N 1150.09 -3.08996 -4.69551 0
M  V30 12663 H 1142.25 -1.86625 -1.01414 0
M  V30 12664 H 1144.51 -0.801293 -0.50659 0
M  V30 12665 H 1144.21 -2.61427 -2.35264 0
M  V30 12666 H 1144.09 -1.3218 -3.53282 0
M  V30 12667 H 1146.48 -0.560292 -2.89732 0
M  V30 12668 H 1146.56 -1.88594 -1.72817 0
M  V30 12669 H 1146.2 -3.55395 -3.62846 0
M  V30 12670 H 1146.13 -2.20015 -4.78436 0
M  V30 12671 H 1148.62 -1.93651 -3.24511 0
M  V30 12672 H 1148.93 -4.4841 -6.29403 0
M  V30 12673 H 1147.28 -4.02701 -5.66442 0
M  V30 12674 H 1150.47 -2.4707 -3.97585 0
M  V30 12675 H 1150.64 -3.63223 -5.36631 0
M  V30 12676 N 1144.05 1.41491 -0.694123 0
M  V30 12677 C 1145 2.28 -0.00474478 0
M  V30 12678 C 1145.98 1.42125 0.754281 0
M  V30 12679 O 1147.18 1.65408 0.630012 0
M  V30 12680 C 1144.3 3.30408 0.931953 0
M  V30 12681 C 1143.39 4.23762 0.169251 0
M  V30 12682 N 1143.78 4.9884 -0.836181 0
M  V30 12683 C 1142.08 4.44158 0.40494 0
M  V30 12684 C 1142.78 5.67157 -1.2926 0
M  V30 12685 N 1141.76 5.40066 -0.6188 0
M  V30 12686 H 1145.56 2.8348 -0.775652 0
M  V30 12687 H 1143.07 1.53686 -0.524834 0
M  V30 12688 H 1145.07 3.91206 1.44097 0
M  V30 12689 H 1143.73 2.76489 1.70247 0
M  V30 12690 H 1144.74 5.03413 -1.21637 0
M  V30 12691 H 1141.42 4.0125 1.15346 0
M  V30 12692 H 1142.81 6.3735 -2.12684 0
M  V30 12693 N 1145.53 0.438773 1.51369 0
M  V30 12694 C 1146.76 -0.125665 2.06217 0
M  V30 12695 C 1147.17 -1.36887 1.30609 0
M  V30 12696 O 1146.51 -1.80149 0.359433 0
M  V30 12697 C 1146.57 -0.511846 3.55838 0
M  V30 12698 C 1146.23 0.624755 4.52709 0
M  V30 12699 C 1147.23 1.49731 4.97872 0
M  V30 12700 C 1144.92 0.805895 4.95793 0
M  V30 12701 C 1146.91 2.53569 5.84792 0
M  V30 12702 C 1144.6 1.84755 5.82502 0
M  V30 12703 C 1145.6 2.71083 6.269 0
M  V30 12704 O 1145.28 3.7346 7.11887 0
M  V30 12705 H 1145.02 -0.0107227 0.675915 0
M  V30 12706 H 1147.57 0.617071 1.95912 0
M  V30 12707 H 1145.8 -1.30731 3.63932 0
M  V30 12708 H 1147.49 -1.0076 3.93195 0
M  V30 12709 H 1148.25 1.36891 4.65281 0
M  V30 12710 H 1144.13 0.14352 4.60777 0
M  V30 12711 H 1147.68 3.20984 6.19367 0
M  V30 12712 H 1143.57 1.97614 6.14507 0
M  V30 12713 H 1144.34 3.70058 7.30068 0
M  V30 12714 N 1147.01 -1.56678 0.170181 0
M  V30 12715 C 1148.25 -1.96024 -0.475147 0
M  V30 12716 C 1148.57 -1.0588 -1.64465 0
M  V30 12717 O 1149.77 -1.34901 -2.35614 0
M  V30 12718 C 1148.23 -3.4855 -0.896704 0
M  V30 12719 C 1147.84 -4.47318 0.247142 0
M  V30 12720 C 1149.58 -3.96716 -1.51052 0
M  V30 12721 C 1147.49 -5.91082 -0.193982 0
M  V30 12722 H 1146.42 -0.731883 -0.181282 0
M  V30 12723 H 1149.07 -1.81674 0.25823 0
M  V30 12724 H 1147.45 -3.58314 -1.68603 0
M  V30 12725 H 1148.63 -4.49268 1.02445 0
M  V30 12726 H 1146.94 -4.09203 0.770839 0
M  V30 12727 H 1149.54 -5.01581 -1.85258 0
M  V30 12728 H 1149.88 -3.39588 -2.40802 0
M  V30 12729 H 1150.41 -3.89965 -0.785652 0
M  V30 12730 H 1147.15 -6.5208 0.668714 0
M  V30 12731 H 1146.67 -5.92441 -0.936675 0
M  V30 12732 H 1148.35 -6.43844 -0.638237 0
M  V30 12733 N 1148.48 0.103547 -1.57259 0
M  V30 12734 C 1149.71 0.821158 -1.8958 0
M  V30 12735 C 1150.12 1.73213 -0.761184 0
M  V30 12736 O 1149.46 1.81611 0.27625 0
M  V30 12737 C 1149.53 1.69428 -3.17072 0
M  V30 12738 C 1149.19 0.956014 -4.46889 0
M  V30 12739 C 1150.19 0.289694 -5.19092 0
M  V30 12740 C 1147.87 0.932602 -4.93566 0
M  V30 12741 C 1149.87 -0.390164 -6.36205 0
M  V30 12742 C 1147.55 0.248954 -6.10593 0
M  V30 12743 C 1148.55 -0.411259 -6.81761 0
M  V30 12744 O 1148.24 -1.08396 -7.96559 0
M  V30 12745 H 1147.97 0.240508 -0.631769 0
M  V30 12746 H 1150.53 0.0877817 -2.05212 0
M  V30 12747 H 1148.76 2.46968 -2.97563 0
M  V30 12748 H 1150.44 2.28769 -3.3529 0
M  V30 12749 H 1151.21 0.299297 -4.84076 0
M  V30 12750 H 1147.09 1.43592 -4.38067 0
M  V30 12751 H 1150.63 -0.906057 -6.91691 0
M  V30 12752 H 1146.53 0.237168 -6.45064 0
M  V30 12753 H 1147.3 -0.990002 -8.12491 0
M  V30 12754 N 1149.96 1.53094 0.37415 0
M  V30 12755 C 1151.21 1.68082 1.11495 0
M  V30 12756 C 1151.52 0.434685 1.90709 0
M  V30 12757 O 1152.73 0.464956 2.67489 0
M  V30 12758 C 1151.19 2.97101 2.03124 0
M  V30 12759 C 1150.79 4.28947 1.29262 0
M  V30 12760 C 1152.54 3.21456 2.77248 0
M  V30 12761 C 1150.44 5.4906 2.19743 0
M  V30 12762 H 1149.37 0.626238 0.419931 0
M  V30 12763 H 1152.03 1.79594 0.376588 0
M  V30 12764 H 1150.41 2.79371 2.80656 0
M  V30 12765 H 1151.58 4.57279 0.568528 0
M  V30 12766 H 1149.9 4.10968 0.670362 0
M  V30 12767 H 1152.49 4.08377 3.45155 0
M  V30 12768 H 1152.84 2.37153 3.42146 0
M  V30 12769 H 1153.37 3.3982 2.06803 0
M  V30 12770 H 1150.11 6.35815 1.59437 0
M  V30 12771 H 1149.63 5.25019 2.90027 0
M  V30 12772 H 1151.31 5.83517 2.79495 0
M  V30 12773 N 1151.44 -0.633461 1.44309 0
M  V30 12774 C 1152.35 -1.77428 1.53481 0
M  V30 12775 C 1153.37 -1.68839 0.420628 0
M  V30 12776 O 1154.54 -1.89658 0.677638 0
M  V30 12777 C 1151.61 -3.13801 1.47409 0
M  V30 12778 C 1150.67 -3.34039 2.6966 0
M  V30 12779 C 1149.9 -4.63907 2.63868 0
M  V30 12780 O 1150.12 -5.44559 1.69741 0
M  V30 12781 O 1149.06 -4.86295 3.54684 0
M  V30 12782 H 1152.88 -1.72642 2.49857 0
M  V30 12783 H 1150.47 -0.794399 1.26529 0
M  V30 12784 H 1152.35 -3.95101 1.46537 0
M  V30 12785 H 1151.03 -3.19134 0.541769 0
M  V30 12786 H 1149.93 -2.52427 2.761 0
M  V30 12787 H 1151.27 -3.33566 3.61931 0
M  V30 12788 N 1152.92 -1.31168 -0.873655 0
M  V30 12789 C 1153.87 -1.18432 -2.00191 0
M  V30 12790 C 1154.86 -0.0934873 -1.69142 0
M  V30 12791 O 1156.07 -0.255126 -1.78183 0
M  V30 12792 H 1152.44 -0.366594 -0.656592 0
M  V30 12793 H 1154.41 -2.13896 -2.08065 0
M  V30 12794 C 1153.16 -0.904668 -3.35725 0
M  V30 12795 H 1152.48 -1.73617 -3.60135 0
M  V30 12796 H 1153.92 -0.855715 -4.15275 0
M  V30 12797 C 1152.38 0.392554 -3.34605 0
M  V30 12798 O 1152.91 1.41052 -3.76121 0
M  V30 12799 N 1151.12 0.40777 -2.87725 0
M  V30 12800 H 1150.67 -0.42112 -2.54134 0
M  V30 12801 H 1150.62 1.27564 -2.87358 0
M  V30 12802 N 1154.4 1.08748 -1.14068 0
M  V30 12803 C 1155.33 2.1544 -0.782199 0
M  V30 12804 C 1156.34 1.61575 0.199301 0
M  V30 12805 O 1157.53 1.78487 -0.0219044 0
M  V30 12806 C 1154.63 3.38611 -0.13983 0
M  V30 12807 C 1153.8 4.2187 -1.15518 0
M  V30 12808 C 1152.86 5.23451 -0.537216 0
M  V30 12809 O 1151.89 5.56424 -1.1992 0
M  V30 12810 N 1153.09 5.76413 0.6876 0
M  V30 12811 H 1155.86 2.46798 -1.70032 0
M  V30 12812 H 1153.42 1.24527 -1.03463 0
M  V30 12813 H 1155.41 4.03688 0.285999 0
M  V30 12814 H 1153.98 3.05084 0.681357 0
M  V30 12815 H 1153.2 3.52825 -1.75806 0
M  V30 12816 H 1154.49 4.74318 -1.84119 0
M  V30 12817 H 1153.88 5.51851 1.24406 0
M  V30 12818 H 1152.44 6.43189 1.05599 0
M  V30 12819 N 1155.87 0.935264 1.26849 0
M  V30 12820 C 1157.12 0.57969 1.94025 0
M  V30 12821 C 1157.45 -0.880295 1.73439 0
M  V30 12822 O 1156.7 -1.64429 1.0612 0
M  V30 12823 C 1157 0.861098 3.46872 0
M  V30 12824 C 1156.67 2.30402 3.87589 0
M  V30 12825 C 1155.33 2.69848 3.98417 0
M  V30 12826 C 1157.68 3.242 4.08098 0
M  V30 12827 C 1155.01 4.02199 4.27145 0
M  V30 12828 C 1157.36 4.56141 4.38313 0
M  V30 12829 C 1156.03 4.9541 4.47354 0
M  V30 12830 H 1155.3 0.212123 0.709989 0
M  V30 12831 H 1157.94 1.18066 1.50774 0
M  V30 12832 H 1156.25 0.177534 3.91398 0
M  V30 12833 H 1157.95 0.564841 3.97002 0
M  V30 12834 H 1154.54 1.98803 3.79704 0
M  V30 12835 H 1158.72 2.94924 3.99166 0
M  V30 12836 H 1153.98 4.32295 4.32355 0
M  V30 12837 H 1158.15 5.28818 4.53128 0
M  V30 12838 H 1155.78 5.97994 4.69368 0
M  V30 12839 N 1157.35 -1.41121 0.701616 0
M  V30 12840 C 1158.6 -2.0113 0.235147 0
M  V30 12841 C 1158.93 -1.55587 -1.16718 0
M  V30 12842 O 1158.18 -0.760615 -1.80314 0
M  V30 12843 C 1158.48 -3.5654 0.247781 0
M  V30 12844 C 1158.15 -4.21616 1.59846 0
M  V30 12845 C 1156.81 -4.39106 1.96822 0
M  V30 12846 C 1159.16 -4.58048 2.48679 0
M  V30 12847 C 1156.49 -4.90307 3.22205 0
M  V30 12848 C 1158.84 -5.10642 3.734 0
M  V30 12849 C 1157.51 -5.26343 4.10512 0
M  V30 12850 H 1156.78 -0.735987 0.0860462 0
M  V30 12851 H 1159.42 -1.68932 0.901898 0
M  V30 12852 H 1157.73 -3.88564 -0.502528 0
M  V30 12853 H 1159.42 -4.00787 -0.130766 0
M  V30 12854 H 1156.01 -4.08381 1.30088 0
M  V30 12855 H 1160.2 -4.44184 2.21391 0
M  V30 12856 H 1155.45 -5.00647 3.50945 0
M  V30 12857 H 1159.63 -5.37811 4.42416 0
M  V30 12858 H 1157.26 -5.65779 5.07738 0
M  V30 12859 N 1158.83 -0.446794 -1.51134 0
M  V30 12860 C 1160.08 0.118047 -2.01354 0
M  V30 12861 C 1160.39 1.42953 -1.33505 0
M  V30 12862 O 1161.6 2.07788 -1.74747 0
M  V30 12863 C 1160.05 0.260912 -3.58953 0
M  V30 12864 C 1159.66 -1.0407 -4.35745 0
M  V30 12865 C 1161.41 0.779014 -4.17291 0
M  V30 12866 C 1159.31 -0.862958 -5.8507 0
M  V30 12867 H 1158.24 0.0478915 -0.752478 0
M  V30 12868 H 1160.89 -0.577997 -1.74159 0
M  V30 12869 H 1159.28 1.02018 -3.82633 0
M  V30 12870 H 1160.45 -1.80903 -4.23805 0
M  V30 12871 H 1158.77 -1.48805 -3.88904 0
M  V30 12872 H 1161.36 0.928636 -5.26574 0
M  V30 12873 H 1161.71 1.76399 -3.7708 0
M  V30 12874 H 1162.24 0.0778022 -3.97724 0
M  V30 12875 H 1158.98 -1.82059 -6.2971 0
M  V30 12876 H 1158.5 -0.134588 -5.99649 0
M  V30 12877 H 1160.18 -0.51989 -6.44908 0
M  V30 12878 N 1160.31 1.56586 -0.178487 0
M  V30 12879 C 1161.53 2.01915 0.473841 0
M  V30 12880 C 1161.96 1.05789 1.55533 0
M  V30 12881 O 1161.32 0.0386018 1.81259 0
M  V30 12882 C 1161.36 3.45799 1.02251 0
M  V30 12883 O 1160.47 3.52761 2.1362 0
M  V30 12884 H 1159.81 0.654372 0.112666 0
M  V30 12885 H 1162.34 2.02613 -0.284486 0
M  V30 12886 H 1162.35 3.85252 1.34332 0
M  V30 12887 H 1161.02 4.1526 0.230719 0
M  V30 12888 H 1159.6 3.25172 1.8253 0
M  V30 12889 N 1161.79 -0.095206 1.57312 0
M  V30 12890 C 1163.03 -0.804335 1.87909 0
M  V30 12891 C 1163.39 -1.75907 0.769465 0
M  V30 12892 O 1164.59 -2.51155 0.957846 0
M  V30 12893 C 1162.86 -1.51405 3.23746 0
M  V30 12894 S 1164.42 -2.26147 3.76036 0
M  V30 12895 H 1161.24 -0.267976 0.658567 0
M  V30 12896 H 1163.84 -0.0614682 1.95403 0
M  V30 12897 H 1162.55 -0.805066 4.02426 0
M  V30 12898 H 1162.08 -2.29681 3.1939 0
M  V30 12899 H 1164.09 -3.52284 3.49443 0
M  V30 12900 N 1163.26 -1.53291 -0.366026 0
M  V30 12901 C 1164.23 -1.79025 -1.43117 0
M  V30 12902 C 1165.23 -0.660676 -1.46601 0
M  V30 12903 O 1166.42 -0.928875 -1.47369 0
M  V30 12904 C 1163.55 -1.91192 -2.82238 0
M  V30 12905 H 1164.74 -2.74154 -1.21572 0
M  V30 12906 H 1162.3 -1.44361 -0.599132 0
M  V30 12907 H 1163.03 -0.98129 -3.09097 0
M  V30 12908 H 1162.82 -2.7335 -2.81109 0
M  V30 12909 H 1164.31 -2.12696 -3.59375 0
M  V30 12910 N 1164.74 0.6258 -1.44643 0
M  V30 12911 C 1166.02 1.38439 -1.38181 0
M  V30 12912 C 1166.4 2.11056 -0.0431928 0
M  V30 12913 O 1165.75 2.06683 0.974383 0
M  V30 12914 C 1165.96 2.34639 -2.58352 0
M  V30 12915 C 1167.31 2.97807 -3.02649 0
M  V30 12916 O 1168.33 2.44963 -2.58595 0
M  V30 12917 O 1167.19 3.93682 -3.79048 0
M  V30 12918 H 1164.28 0.619852 -0.54746 0
M  V30 12919 H 1166.83 0.650409 -1.56741 0
M  V30 12920 H 1165.6 1.80116 -3.47382 0
M  V30 12921 H 1165.22 3.15446 -2.42032 0
M  V30 12922 N 1166.22 1.31629 0.866686 0
M  V30 12923 C 1167.5 1.12136 1.60265 0
M  V30 12924 C 1167.88 -0.322729 2.08618 0
M  V30 12925 O 1167.23 -1.31738 1.86701 0
M  V30 12926 C 1167.44 2.13845 2.7581 0
M  V30 12927 C 1168.78 2.46541 3.45692 0
M  V30 12928 O 1169.81 2.12298 2.86021 0
M  V30 12929 O 1168.67 3.05194 4.53342 0
M  V30 12930 H 1165.76 0.431923 0.705246 0
M  V30 12931 H 1168.31 1.43119 0.911863 0
M  V30 12932 H 1167.08 3.10967 2.37518 0
M  V30 12933 H 1166.7 1.83786 3.52574 0
M  V30 12934 N 1167.7 -1.08142 1.14644 0
M  V30 12935 C 1168.65 -2.15133 0.835845 0
M  V30 12936 C 1169.62 -1.64795 -0.207785 0
M  V30 12937 O 1170.8 -1.90644 -0.07711 0
M  V30 12938 C 1167.94 -3.4359 0.322456 0
M  V30 12939 C 1167.05 -4.07761 1.42671 0
M  V30 12940 C 1166.19 -5.24022 0.870281 0
M  V30 12941 C 1165.23 -5.8014 1.95202 0
M  V30 12942 N 1164.37 -6.87743 1.41257 0
M  V30 12943 H 1169.21 -2.41042 1.75222 0
M  V30 12944 H 1166.74 -1.18288 0.874428 0
M  V30 12945 H 1168.7 -4.17199 0.00657059 0
M  V30 12946 H 1167.33 -3.17958 -0.557014 0
M  V30 12947 H 1166.38 -3.31885 1.85893 0
M  V30 12948 H 1167.69 -4.45485 2.24375 0
M  V30 12949 H 1166.85 -6.04582 0.506459 0
M  V30 12950 H 1165.59 -4.87695 0.0223118 0
M  V30 12951 H 1164.59 -4.98232 2.32476 0
M  V30 12952 H 1165.82 -6.18525 2.80363 0
M  V30 12953 H 1163.76 -6.5337 0.586826 0
M  V30 12954 H 1163.68 -7.24308 2.16596 0
M  V30 12955 H 1164.95 -7.72028 1.07674 0
M  V30 12956 N 1169.18 -0.941978 -1.26351 0
M  V30 12957 C 1170.42 -0.590845 -1.94002 0
M  V30 12958 C 1170.76 0.868004 -1.73722 0
M  V30 12959 O 1170.03 1.62111 -1.07472 0
M  V30 12960 C 1170.31 -0.934901 -3.47752 0
M  V30 12961 C 1170.17 -2.44855 -3.77314 0
M  V30 12962 C 1171.49 -0.450888 -4.37784 0
M  V30 12963 H 1168.61 -0.21613 -0.704597 0
M  V30 12964 H 1171.25 -1.17634 -1.49205 0
M  V30 12965 H 1169.4 -0.436648 -3.86038 0
M  V30 12966 H 1171.07 -3.01959 -3.48738 0
M  V30 12967 H 1169.31 -2.89169 -3.23363 0
M  V30 12968 H 1169.98 -2.6398 -4.84787 0
M  V30 12969 H 1172.46 -0.878107 -4.06729 0
M  V30 12970 H 1171.34 -0.720439 -5.44152 0
M  V30 12971 H 1171.6 0.649162 -4.37308 0
M  V30 12972 N 1170.66 1.40747 -0.709091 0
M  V30 12973 C 1171.9 2.013 -0.246174 0
M  V30 12974 C 1172.23 1.56078 1.15556 0
M  V30 12975 O 1171.51 0.777941 1.78265 0
M  V30 12976 C 1171.79 3.58685 -0.318945 0
M  V30 12977 C 1171.65 4.13997 -1.75859 0
M  V30 12978 C 1172.96 4.38981 0.31358 0
M  V30 12979 H 1170.08 0.73137 -0.0909255 0
M  V30 12980 H 1172.73 1.67312 -0.900365 0
M  V30 12981 H 1170.88 3.8777 0.23805 0
M  V30 12982 H 1172.55 3.95735 -2.37047 0
M  V30 12983 H 1170.79 3.6853 -2.28841 0
M  V30 12984 H 1171.46 5.23158 -1.76095 0
M  V30 12985 H 1173.94 4.15789 -0.160939 0
M  V30 12986 H 1172.81 5.48409 0.232184 0
M  V30 12987 H 1173.07 4.19474 1.39621 0
M  V30 12988 N 1172.13 0.454803 1.50895 0
M  V30 12989 C 1173.38 -0.10577 2.02224 0
M  V30 12990 C 1173.71 -1.41176 1.33789 0
M  V30 12991 O 1172.96 -1.90522 0.447181 0
M  V30 12992 C 1173.26 -0.354159 3.55641 0
M  V30 12993 C 1172.93 0.868136 4.42464 0
M  V30 12994 C 1171.59 1.2033 4.65912 0
M  V30 12995 C 1173.94 1.68272 4.93289 0
M  V30 12996 C 1171.27 2.3534 5.37431 0
M  V30 12997 C 1173.62 2.82396 5.6607 0
M  V30 12998 C 1172.29 3.16346 5.87777 0
M  V30 12999 H 1171.56 -0.0387041 0.739989 0
M  V30 13000 H 1174.2 0.605564 1.81673 0
M  V30 13001 H 1172.51 -1.14757 3.74617 0
M  V30 13002 H 1174.21 -0.8016 3.92906 0
M  V30 13003 H 1170.8 0.596995 4.24422 0
M  V30 13004 H 1174.98 1.43698 4.75042 0
M  V30 13005 H 1170.24 2.61936 5.52449 0
M  V30 13006 H 1174.41 3.45873 6.04438 0
M  V30 13007 H 1172.04 4.05574 6.42973 0
M  V30 13008 N 1173.61 -1.56489 0.186789 0
M  V30 13009 C 1174.56 -2.20034 -0.754164 0
M  V30 13010 C 1175.55 -1.16899 -1.22601 0
M  V30 13011 O 1176.76 -1.35064 -1.18987 0
M  V30 13012 H 1173.13 -0.705058 -0.261529 0
M  V30 13013 H 1175.11 -2.97766 -0.194418 0
M  V30 13014 C 1173.85 -2.86733 -1.9667 0
M  V30 13015 H 1173.18 -3.65831 -1.61268 0
M  V30 13016 H 1174.62 -3.34645 -2.60363 0
M  V30 13017 C 1173.08 -1.87325 -2.8002 0
M  V30 13018 O 1173.61 -1.36835 -3.77676 0
M  V30 13019 N 1171.81 -1.55738 -2.45345 0
M  V30 13020 H 1171.36 -1.9699 -1.6599 0
M  V30 13021 H 1171.32 -0.894805 -3.01398 0
M  V30 13022 N 1175.09 0.086862 -1.5736 0
M  V30 13023 C 1176.04 1.10478 -2.02641 0
M  V30 13024 C 1177.01 1.39331 -0.904219 0
M  V30 13025 O 1178.19 1.50654 -1.17081 0
M  V30 13026 C 1175.33 2.41754 -2.4627 0
M  V30 13027 C 1174.44 2.19561 -3.72044 0
M  V30 13028 C 1173.58 3.44294 -4.04519 0
M  V30 13029 C 1172.62 3.17399 -5.23378 0
M  V30 13030 N 1171.76 4.3442 -5.51564 0
M  V30 13031 H 1176.6 0.711663 -2.89378 0
M  V30 13032 H 1174.13 0.339856 -1.4312 0
M  V30 13033 H 1176.09 3.18378 -2.69613 0
M  V30 13034 H 1174.72 2.78896 -1.62532 0
M  V30 13035 H 1173.77 1.337 -3.5613 0
M  V30 13036 H 1175.08 1.95685 -4.58812 0
M  V30 13037 H 1174.24 4.29321 -4.28682 0
M  V30 13038 H 1172.98 3.71232 -3.16289 0
M  V30 13039 H 1171.98 2.30765 -4.99026 0
M  V30 13040 H 1173.21 2.91799 -6.13213 0
M  V30 13041 H 1171.15 4.61418 -4.66293 0
M  V30 13042 H 1171.07 4.13764 -6.3272 0
M  V30 13043 H 1172.34 5.20489 -5.80269 0
M  V30 13044 N 1176.57 1.53483 0.357892 0
M  V30 13045 C 1177.82 1.69256 1.09706 0
M  V30 13046 C 1178.13 0.454888 1.90237 0
M  V30 13047 O 1179.34 0.4933 2.66981 0
M  V30 13048 C 1177.79 2.99238 1.99961 0
M  V30 13049 C 1177.4 4.30293 1.24706 0
M  V30 13050 C 1179.14 3.24378 2.73823 0
M  V30 13051 C 1177.05 5.5136 2.13907 0
M  V30 13052 H 1175.98 0.630657 0.413265 0
M  V30 13053 H 1178.63 1.79983 0.357518 0
M  V30 13054 H 1177.01 2.82332 2.77677 0
M  V30 13055 H 1178.19 4.57857 0.519995 0
M  V30 13056 H 1176.5 4.11656 0.626736 0
M  V30 13057 H 1179.1 4.12015 3.40805 0
M  V30 13058 H 1179.44 2.40769 3.39612 0
M  V30 13059 H 1179.98 3.41994 2.03187 0
M  V30 13060 H 1176.71 6.3747 1.52684 0
M  V30 13061 H 1176.23 5.28065 2.84442 0
M  V30 13062 H 1177.91 5.86448 2.7329 0
M  V30 13063 N 1178.05 -0.61812 1.44973 0
M  V30 13064 C 1179.29 -1.37468 1.48145 0
M  V30 13065 C 1179.61 -1.94628 0.120366 0
M  V30 13066 O 1178.88 -1.76548 -0.848982 0
M  V30 13067 H 1177.46 -0.510293 0.545536 0
M  V30 13068 H 1180.13 -0.726598 1.8085 0
M  V30 13069 H 1179.22 -2.19944 2.2143 0
M  V30 13070 N 1179.52 -1.32087 -0.859693 0
M  V30 13071 C 1180.8 -1.12984 -1.59668 0
M  V30 13072 C 1181.18 0.311661 -2.08787 0
M  V30 13073 O 1180.53 1.30746 -1.87397 0
M  V30 13074 C 1180.74 -2.15305 -2.74672 0
M  V30 13075 C 1182.09 -2.48371 -3.44379 0
M  V30 13076 O 1183.11 -2.13811 -2.84891 0
M  V30 13077 O 1181.97 -3.07594 -4.51717 0
M  V30 13078 H 1179.06 -0.435657 -0.702945 0
M  V30 13079 H 1181.61 -1.43601 -0.90426 0
M  V30 13080 H 1180.38 -3.12223 -2.35866 0
M  V30 13081 H 1180 -1.85653 -3.51594 0
M  V30 13082 N 1181 1.07532 -1.15215 0
M  V30 13083 C 1181.96 2.1286 -0.84989 0
M  V30 13084 C 1182.96 1.60103 0.149524 0
M  V30 13085 O 1184.15 1.74017 -0.0798918 0
M  V30 13086 C 1181.29 3.3984 -0.268617 0
M  V30 13087 H 1182.48 2.41106 -1.78347 0
M  V30 13088 H 1180.03 1.23392 -0.959386 0
M  V30 13089 H 1180.77 3.17235 0.67325 0
M  V30 13090 H 1180.55 3.79433 -0.988592 0
M  V30 13091 H 1182.04 4.17533 -0.0746554 0
M  V30 13092 N 1182.48 0.948665 1.2585 0
M  V30 13093 C 1183.73 0.595938 1.92695 0
M  V30 13094 C 1184.04 -0.870229 1.75175 0
M  V30 13095 O 1185.25 -1.33266 2.36543 0
M  V30 13096 C 1183.7 1.01511 3.45288 0
M  V30 13097 C 1183.31 2.50341 3.71528 0
M  V30 13098 C 1185.06 0.734635 4.18095 0
M  V30 13099 C 1182.96 2.8609 5.17597 0
M  V30 13100 H 1181.89 0.219171 0.721443 0
M  V30 13101 H 1184.54 1.15231 1.42807 0
M  V30 13102 H 1182.93 0.387201 3.94102 0
M  V30 13103 H 1184.1 3.18101 3.3339 0
M  V30 13104 H 1182.42 2.75797 3.11969 0
M  V30 13105 H 1185.01 0.977962 5.25681 0
M  V30 13106 H 1185.36 -0.328807 4.14999 0
M  V30 13107 H 1185.89 1.32262 3.75169 0
M  V30 13108 H 1182.63 3.91427 5.25799 0
M  V30 13109 H 1182.15 2.22999 5.56805 0
M  V30 13110 H 1183.83 2.74959 5.85668 0
M  V30 13111 N 1183.96 -1.40369 0.716545 0
M  V30 13112 C 1184.92 -2.29083 0.0733105 0
M  V30 13113 C 1185.92 -1.45415 -0.686378 0
M  V30 13114 O 1187.11 -1.66316 -0.518139 0
M  V30 13115 C 1184.24 -3.28639 -0.906032 0
M  V30 13116 H 1185.44 -2.87464 0.85467 0
M  V30 13117 H 1182.99 -1.48706 0.481256 0
M  V30 13118 H 1183.72 -2.75279 -1.71441 0
M  V30 13119 H 1183.51 -3.90405 -0.364163 0
M  V30 13120 H 1185 -3.95066 -1.35324 0
M  V30 13121 N 1185.44 -0.462799 -1.50652 0
M  V30 13122 C 1186.37 0.371837 -2.26164 0
M  V30 13123 C 1187.38 0.96432 -1.31167 0
M  V30 13124 O 1188.57 0.854134 -1.56738 0
M  V30 13125 C 1185.67 1.53469 -3.0216 0
M  V30 13126 C 1184.84 1.0565 -4.24449 0
M  V30 13127 C 1183.9 2.09243 -4.82808 0
M  V30 13128 O 1182.93 1.67641 -5.43953 0
M  V30 13129 N 1184.13 3.41976 -4.69076 0
M  V30 13130 H 1186.9 -0.275476 -2.98431 0
M  V30 13131 H 1184.46 -0.293109 -1.59225 0
M  V30 13132 H 1186.45 2.22446 -3.38083 0
M  V30 13133 H 1185.02 2.08685 -2.32743 0
M  V30 13134 H 1184.24 0.192895 -3.93728 0
M  V30 13135 H 1185.53 0.714796 -5.03754 0
M  V30 13136 H 1184.92 3.78491 -4.20429 0
M  V30 13137 H 1183.48 4.06775 -5.09291 0
M  V30 13138 N 1186.91 1.56388 -0.195085 0
M  V30 13139 C 1188.33 1.58788 0.160758 0
M  V30 13140 C 1188.53 1.21125 1.61031 0
M  V30 13141 O 1187.59 0.933994 2.34591 0
M  V30 13142 C 1188.9 3.00366 -0.141588 0
M  V30 13143 C 1190.45 3.12893 -0.0816947 0
M  V30 13144 C 1190.92 4.56604 -0.35735 0
M  V30 13145 N 1192.41 4.62188 -0.305968 0
M  V30 13146 C 1193.15 5.71276 -0.493108 0
M  V30 13147 N 1192.64 6.8883 -0.740595 0
M  V30 13148 N 1194.44 5.60473 -0.427365 0
M  V30 13149 H 1186.59 1.79151 -1.14099 0
M  V30 13150 H 1188.85 0.831446 -0.455413 0
M  V30 13151 H 1188.56 3.32483 -1.14666 0
M  V30 13152 H 1188.43 3.73082 0.555834 0
M  V30 13153 H 1190.82 2.80589 0.913978 0
M  V30 13154 H 1190.9 2.42564 -0.812193 0
M  V30 13155 H 1190.54 4.8962 -1.35034 0
M  V30 13156 H 1190.47 5.25124 0.394036 0
M  V30 13157 H 1192.96 3.77705 -0.121298 0
M  V30 13158 H 1193.28 7.67862 -0.872201 0
M  V30 13159 H 1191.62 6.90637 -0.777488 0
M  V30 13160 H 1194.81 4.67513 -0.234436 0
M  V30 13161 H 1194.99 6.45429 -0.576627 0
M  V30 13162 N 1188.39 -0.0785156 1.57404 0
M  V30 13163 C 1189.64 -0.777722 1.86103 0
M  V30 13164 C 1189.95 -1.79079 0.786771 0
M  V30 13165 O 1191.16 -2.53908 0.961393 0
M  V30 13166 C 1189.62 -1.43407 3.30095 0
M  V30 13167 C 1189.22 -0.459912 4.45633 0
M  V30 13168 C 1190.97 -2.11603 3.68 0
M  V30 13169 C 1188.88 -1.12179 5.80663 0
M  V30 13170 H 1187.81 -0.294205 0.694233 0
M  V30 13171 H 1190.46 -0.0309003 1.83474 0
M  V30 13172 H 1188.84 -2.22892 3.27315 0
M  V30 13173 H 1190.01 0.304642 4.59792 0
M  V30 13174 H 1188.33 0.117242 4.16235 0
M  V30 13175 H 1190.92 -2.61887 4.66175 0
M  V30 13176 H 1191.27 -2.91244 2.9746 0
M  V30 13177 H 1191.8 -1.38958 3.72741 0
M  V30 13178 H 1188.54 -0.365842 6.54478 0
M  V30 13179 H 1188.06 -1.85737 5.70317 0
M  V30 13180 H 1189.74 -1.64355 6.25777 0
M  V30 13181 N 1189.87 -1.5367 -0.349747 0
M  V30 13182 C 1190.8 -1.84208 -1.43492 0
M  V30 13183 C 1191.78 -0.696725 -1.55177 0
M  V30 13184 O 1192.97 -0.948061 -1.69486 0
M  V30 13185 C 1190.1 -2.04613 -2.80625 0
M  V30 13186 C 1189.05 -3.20419 -2.83753 0
M  V30 13187 C 1188.38 -3.26147 -4.23713 0
M  V30 13188 C 1189.68 -4.58666 -2.49846 0
M  V30 13189 H 1191.37 -2.75087 -1.18185 0
M  V30 13190 H 1188.92 -1.32363 -0.567101 0
M  V30 13191 H 1190.87 -2.2456 -3.56582 0
M  V30 13192 H 1189.59 -1.10459 -3.07354 0
M  V30 13193 H 1188.25 -3.00318 -2.10249 0
M  V30 13194 H 1187.9 -2.29599 -4.47541 0
M  V30 13195 H 1187.6 -4.03963 -4.26717 0
M  V30 13196 H 1189.12 -3.48296 -5.0152 0
M  V30 13197 H 1190.54 -4.78668 -3.15516 0
M  V30 13198 H 1188.94 -5.3884 -2.64144 0
M  V30 13199 H 1190.01 -4.62697 -1.4505 0
M  V30 13200 N 1191.35 0.610423 -1.45298 0
M  V30 13201 C 1192.3 1.7213 -1.53753 0
M  V30 13202 C 1193.27 1.61609 -0.383632 0
M  V30 13203 O 1194.45 1.8123 -0.596694 0
M  V30 13204 C 1191.59 3.10433 -1.50749 0
M  V30 13205 C 1190.7 3.3178 -2.76669 0
M  V30 13206 C 1189.84 4.60173 -2.65356 0
M  V30 13207 C 1188.88 4.74769 -3.86343 0
M  V30 13208 N 1188.01 5.94459 -3.73581 0
M  V30 13209 H 1192.85 1.64239 -2.48655 0
M  V30 13210 H 1190.39 0.800879 -1.23387 0
M  V30 13211 H 1192.35 3.90446 -1.46996 0
M  V30 13212 H 1190.98 3.17288 -0.593998 0
M  V30 13213 H 1190.03 2.45563 -2.90522 0
M  V30 13214 H 1191.34 3.38439 -3.66416 0
M  V30 13215 H 1190.5 5.48377 -2.59553 0
M  V30 13216 H 1189.24 4.55907 -1.73204 0
M  V30 13217 H 1188.24 3.8499 -3.92509 0
M  V30 13218 H 1189.47 4.80834 -4.79557 0
M  V30 13219 H 1187.41 5.91243 -2.84196 0
M  V30 13220 H 1187.33 6.02265 -4.5696 0
M  V30 13221 H 1188.6 6.85168 -3.71705 0
M  V30 13222 N 1192.83 1.32541 0.852676 0
M  V30 13223 C 1193.79 1.21578 1.94297 0
M  V30 13224 C 1194.79 0.138318 1.60204 0
M  V30 13225 O 1195.98 0.388864 1.69804 0
M  V30 13226 C 1193.11 0.870209 3.29606 0
M  V30 13227 H 1194.3 2.18476 2.05446 0
M  V30 13228 H 1191.86 1.16401 1.0431 0
M  V30 13229 H 1192.59 -0.0968698 3.24155 0
M  V30 13230 H 1192.38 1.64924 3.55728 0
M  V30 13231 H 1193.87 0.817874 4.09513 0
M  V30 13232 N 1194.3 -1.0692 1.15784 0
M  V30 13233 C 1195.25 -2.12473 0.826994 0
M  V30 13234 C 1196.24 -1.59766 -0.19073 0
M  V30 13235 O 1197.43 -1.76998 0.00917115 0
M  V30 13236 C 1194.56 -3.41779 0.322847 0
M  V30 13237 C 1193.65 -4.01329 1.37098 0
M  V30 13238 N 1194.04 -4.35077 2.57957 0
M  V30 13239 C 1192.33 -4.28854 1.22475 0
M  V30 13240 C 1193.04 -4.82326 3.25171 0
M  V30 13241 N 1192.01 -4.81369 2.52556 0
M  V30 13242 H 1195.81 -2.36404 1.74614 0
M  V30 13243 H 1193.33 -1.244 1.04395 0
M  V30 13244 H 1195.32 -4.16845 0.0674576 0
M  V30 13245 H 1193.98 -3.19289 -0.590311 0
M  V30 13246 H 1195 -4.25626 2.95065 0
M  V30 13247 H 1191.67 -4.15841 0.371839 0
M  V30 13248 H 1193.06 -5.17695 4.28301 0
M  V30 13249 N 1195.78 -0.955326 -1.25345 0
M  V30 13250 C 1197.2 -0.659863 -1.4532 0
M  V30 13251 C 1197.4 0.78238 -1.85691 0
M  V30 13252 O 1196.45 1.5576 -1.98734 0
M  V30 13253 C 1197.77 -1.63339 -2.5247 0
M  V30 13254 C 1199.32 -1.64464 -2.66309 0
M  V30 13255 C 1199.79 -2.60583 -3.76644 0
M  V30 13256 N 1201.28 -2.58951 -3.84055 0
M  V30 13257 C 1202.02 -3.30002 -4.6892 0
M  V30 13258 N 1201.51 -4.10528 -5.58067 0
M  V30 13259 N 1203.31 -3.18886 -4.62891 0
M  V30 13260 H 1195.46 -1.88734 -0.97433 0
M  V30 13261 H 1197.72 -0.811858 -0.48948 0
M  V30 13262 H 1197.43 -2.66358 -2.29665 0
M  V30 13263 H 1197.3 -1.39644 -3.50399 0
M  V30 13264 H 1199.69 -0.621622 -2.88479 0
M  V30 13265 H 1199.77 -1.92218 -1.68778 0
M  V30 13266 H 1199.41 -3.63011 -3.55226 0
M  V30 13267 H 1199.34 -2.30113 -4.73662 0
M  V30 13268 H 1201.83 -2.00491 -3.20331 0
M  V30 13269 H 1202.15 -4.6166 -6.1975 0
M  V30 13270 H 1200.49 -4.14626 -5.57773 0
M  V30 13271 H 1203.68 -2.55447 -3.92255 0
M  V30 13272 H 1203.85 -3.74524 -5.28806 0
M  V30 13273 N 1197.26 1.39987 -0.723979 0
M  V30 13274 C 1198.17 2.3447 -0.0780936 0
M  V30 13275 C 1199.19 1.57744 0.734368 0
M  V30 13276 O 1200.36 1.90091 0.665385 0
M  V30 13277 C 1197.43 3.36705 0.826492 0
M  V30 13278 C 1196.49 4.293 0.00303036 0
M  V30 13279 C 1195.72 5.26651 0.864535 0
M  V30 13280 O 1195.95 5.30194 2.10357 0
M  V30 13281 O 1194.88 6.01157 0.299057 0
M  V30 13282 H 1198.71 2.91338 -0.857646 0
M  V30 13283 H 1196.29 1.41324 -0.484536 0
M  V30 13284 H 1198.17 3.9938 1.34439 0
M  V30 13285 H 1196.85 2.82237 1.58505 0
M  V30 13286 H 1195.75 3.69883 -0.560136 0
M  V30 13287 H 1197.09 4.86942 -0.717494 0
M  V30 13288 N 1198.74 0.470782 1.50404 0
M  V30 13289 C 1199.69 -0.337584 2.30137 0
M  V30 13290 C 1200.68 -0.990673 1.37412 0
M  V30 13291 O 1201.89 -0.921813 1.54605 0
M  V30 13292 H 1198.26 -0.127707 0.741077 0
M  V30 13293 H 1200.23 0.355297 2.96277 0
M  V30 13294 C 1198.98 -1.40714 3.17954 0
M  V30 13295 H 1198.31 -0.913982 3.89213 0
M  V30 13296 H 1199.75 -1.94533 3.7674 0
M  V30 13297 C 1198.2 -2.40889 2.35529 0
M  V30 13298 O 1198.73 -3.46153 2.03816 0
M  V30 13299 N 1196.94 -2.126 1.98115 0
M  V30 13300 H 1196.49 -1.27023 2.24105 0
M  V30 13301 H 1196.45 -2.7986 1.43269 0
M  V30 13302 N 1200.22 -1.56282 0.203376 0
M  V30 13303 C 1201.15 -2.16714 -0.74616 0
M  V30 13304 C 1202.16 -1.13121 -1.17079 0
M  V30 13305 O 1203.35 -1.40179 -1.10509 0
M  V30 13306 C 1200.45 -2.72115 -2.02007 0
M  V30 13307 C 1199.62 -4.00695 -1.75391 0
M  V30 13308 C 1198.68 -4.40839 -2.8731 0
M  V30 13309 O 1197.71 -5.081 -2.56561 0
M  V30 13310 N 1198.91 -4.05024 -4.15856 0
M  V30 13311 H 1201.68 -2.98821 -0.229326 0
M  V30 13312 H 1199.24 -1.61885 0.0217049 0
M  V30 13313 H 1201.23 -2.95951 -2.76035 0
M  V30 13314 H 1199.8 -1.94415 -2.44789 0
M  V30 13315 H 1199.02 -3.84905 -0.851 0
M  V30 13316 H 1200.31 -4.8461 -1.55017 0
M  V30 13317 H 1199.71 -3.50938 -4.43688 0
M  V30 13318 H 1198.26 -4.33792 -4.86485 0
M  V30 13319 N 1201.7 0.070167 -1.57444 0
M  V30 13320 C 1202.64 1.08322 -2.03801 0
M  V30 13321 C 1203.61 1.38364 -0.918946 0
M  V30 13322 O 1204.8 1.49404 -1.18672 0
M  V30 13323 C 1201.94 2.39128 -2.48821 0
M  V30 13324 C 1201.05 2.15603 -3.74352 0
M  V30 13325 C 1200.19 3.39984 -4.08148 0
M  V30 13326 C 1199.22 3.1183 -5.26715 0
M  V30 13327 N 1198.36 4.28546 -5.56141 0
M  V30 13328 H 1203.2 0.680931 -2.90116 0
M  V30 13329 H 1200.74 0.324657 -1.43473 0
M  V30 13330 H 1202.7 3.15501 -2.72975 0
M  V30 13331 H 1201.33 2.77157 -1.65481 0
M  V30 13332 H 1200.38 1.29915 -3.57528 0
M  V30 13333 H 1201.69 1.90808 -4.60862 0
M  V30 13334 H 1200.84 4.2475 -4.33211 0
M  V30 13335 H 1199.58 3.67856 -3.20208 0
M  V30 13336 H 1198.59 2.2546 -5.01446 0
M  V30 13337 H 1199.81 2.85278 -6.16273 0
M  V30 13338 H 1197.76 4.56447 -4.71161 0
M  V30 13339 H 1197.68 4.0703 -6.37073 0
M  V30 13340 H 1198.94 5.14305 -5.85757 0
M  V30 13341 N 1203.17 1.53854 0.341593 0
M  V30 13342 C 1204.4 1.7488 1.10002 0
M  V30 13343 C 1204.81 0.488802 1.82777 0
M  V30 13344 O 1204.15 -0.549333 1.75294 0
M  V30 13345 C 1204.22 2.87604 2.15694 0
M  V30 13346 C 1203.88 4.27142 1.62477 0
M  V30 13347 C 1204.88 5.08642 1.07606 0
M  V30 13348 C 1202.56 4.73633 1.67265 0
M  V30 13349 C 1204.56 6.34735 0.582284 0
M  V30 13350 C 1202.24 5.99697 1.175 0
M  V30 13351 C 1203.24 6.80081 0.630742 0
M  V30 13352 O 1202.93 8.03777 0.140519 0
M  V30 13353 H 1202.66 0.587824 0.333824 0
M  V30 13354 H 1205.22 2.01488 0.398965 0
M  V30 13355 H 1203.45 2.56526 2.89364 0
M  V30 13356 H 1205.13 2.96583 2.77117 0
M  V30 13357 H 1205.9 4.73887 1.03227 0
M  V30 13358 H 1201.78 4.11121 2.08567 0
M  V30 13359 H 1205.32 6.97424 0.156811 0
M  V30 13360 H 1201.22 6.33947 1.21579 0
M  V30 13361 H 1201.99 8.18094 0.257626 0
M  V30 13362 N 1204.65 -0.602709 1.4562 0
M  V30 13363 C 1206.07 -0.923983 1.30133 0
M  V30 13364 C 1206.27 -1.99842 0.25796 0
M  V30 13365 O 1205.32 -2.50112 -0.346414 0
M  V30 13366 C 1206.64 -1.36029 2.68173 0
M  V30 13367 C 1208.18 -1.47423 2.76108 0
M  V30 13368 C 1208.66 -1.94427 4.14683 0
M  V30 13369 N 1210.15 -2.01653 4.17002 0
M  V30 13370 C 1210.89 -2.39255 5.211 0
M  V30 13371 N 1210.38 -2.75791 6.3554 0
M  V30 13372 N 1212.17 -2.39636 5.08459 0
M  V30 13373 H 1204.33 0.107377 2.12128 0
M  V30 13374 H 1206.59 -0.0146216 0.947887 0
M  V30 13375 H 1206.29 -0.644949 3.45736 0
M  V30 13376 H 1206.17 -2.32584 2.96959 0
M  V30 13377 H 1208.56 -2.18047 1.98845 0
M  V30 13378 H 1208.64 -0.4917 2.5103 0
M  V30 13379 H 1208.28 -1.24389 4.92433 0
M  V30 13380 H 1208.21 -2.93603 4.37156 0
M  V30 13381 H 1210.7 -1.75988 3.3442 0
M  V30 13382 H 1211.01 -3.03378 7.10761 0
M  V30 13383 H 1209.36 -2.73475 6.38934 0
M  V30 13384 H 1212.55 -2.10502 4.18098 0
M  V30 13385 H 1212.72 -2.68614 5.89704 0
M  V30 13386 N 1206.13 -1.32992 -0.845635 0
M  V30 13387 C 1207.38 -1.24249 -1.60281 0
M  V30 13388 C 1207.71 0.193049 -1.93238 0
M  V30 13389 O 1206.98 1.1326 -1.58122 0
M  V30 13390 C 1207.27 -2.1111 -2.91727 0
M  V30 13391 C 1207.12 -3.63088 -2.65494 0
M  V30 13392 C 1208.44 -1.97913 -3.93089 0
M  V30 13393 H 1205.56 -0.452698 -0.581578 0
M  V30 13394 H 1208.2 -1.63026 -0.975828 0
M  V30 13395 H 1206.35 -1.78169 -3.45236 0
M  V30 13396 H 1208.02 -4.06287 -2.18469 0
M  V30 13397 H 1206.26 -3.85304 -1.99306 0
M  V30 13398 H 1206.94 -4.19202 -3.59129 0
M  V30 13399 H 1209.41 -2.26788 -3.48864 0
M  V30 13400 H 1208.29 -2.60952 -4.82903 0
M  V30 13401 H 1208.55 -0.949378 -4.31786 0
M  V30 13402 N 1207.61 1.06304 -1.1635 0
M  V30 13403 C 1208.84 1.82534 -0.967725 0
M  V30 13404 C 1209.25 1.82816 0.487338 0
M  V30 13405 O 1208.59 1.24581 1.35001 0
M  V30 13406 C 1208.65 3.30349 -1.4181 0
M  V30 13407 C 1208.31 3.53769 -2.89303 0
M  V30 13408 C 1209.31 3.46826 -3.87308 0
M  V30 13409 C 1207 3.81094 -3.2722 0
M  V30 13410 C 1208.99 3.66874 -5.21232 0
M  V30 13411 C 1206.68 4.00792 -4.61313 0
M  V30 13412 C 1207.68 3.93679 -5.58127 0
M  V30 13413 O 1207.36 4.12839 -6.89796 0
M  V30 13414 H 1207.1 0.582407 -0.343189 0
M  V30 13415 H 1209.65 1.35022 -1.54784 0
M  V30 13416 H 1207.88 3.78722 -0.781456 0
M  V30 13417 H 1209.57 3.88072 -1.18976 0
M  V30 13418 H 1210.33 3.25706 -3.59361 0
M  V30 13419 H 1206.21 3.85739 -2.5244 0
M  V30 13420 H 1209.76 3.61238 -5.96786 0
M  V30 13421 H 1205.65 4.214 -4.8897 0
M  V30 13422 H 1206.42 4.30128 -6.96371 0
M  V30 13423 N 1209.09 0.96196 1.24836 0
M  V30 13424 C 1210.33 0.621634 1.93038 0
M  V30 13425 C 1210.66 -0.840257 1.75081 0
M  V30 13426 O 1209.94 -1.60381 1.10038 0
M  V30 13427 C 1210.22 0.990107 3.46221 0
M  V30 13428 C 1210.08 2.50827 3.73371 0
M  V30 13429 C 1211.39 0.520478 4.37011 0
M  V30 13430 H 1208.51 0.227312 0.701069 0
M  V30 13431 H 1211.16 1.19993 1.47315 0
M  V30 13432 H 1209.31 0.498008 3.85295 0
M  V30 13433 H 1210.98 3.07469 3.4389 0
M  V30 13434 H 1209.22 2.94277 3.18722 0
M  V30 13435 H 1209.89 2.71659 4.80526 0
M  V30 13436 H 1212.37 0.942703 4.05281 0
M  V30 13437 H 1211.24 0.806918 5.42937 0
M  V30 13438 H 1211.5 -0.579507 4.38285 0
M  V30 13439 N 1210.56 -1.39601 0.731392 0
M  V30 13440 C 1211.81 -2.00883 0.278168 0
M  V30 13441 C 1212.14 -1.57897 -1.13059 0
M  V30 13442 O 1211.42 -0.806203 -1.77005 0
M  V30 13443 C 1211.7 -3.58132 0.375969 0
M  V30 13444 C 1211.55 -4.11147 1.82423 0
M  V30 13445 C 1212.87 -4.39425 -0.243702 0
M  V30 13446 H 1209.99 -0.729831 0.102549 0
M  V30 13447 H 1212.63 -1.65859 0.926869 0
M  V30 13448 H 1210.78 -3.881 -0.176329 0
M  V30 13449 H 1212.46 -3.91914 2.43313 0
M  V30 13450 H 1210.7 -3.64842 2.34675 0
M  V30 13451 H 1211.37 -5.20291 1.84396 0
M  V30 13452 H 1213.85 -4.1548 0.227067 0
M  V30 13453 H 1212.72 -5.48709 -0.144907 0
M  V30 13454 H 1212.98 -4.21642 -1.32929 0
M  V30 13455 N 1212.04 -0.478751 -1.50152 0
M  V30 13456 C 1213.29 0.07531 -2.01559 0
M  V30 13457 C 1213.6 1.40089 -1.36508 0
M  V30 13458 O 1214.81 2.04035 -1.79115 0
M  V30 13459 C 1213.27 0.184714 -3.59426 0
M  V30 13460 C 1212.87 -1.13289 -4.33439 0
M  V30 13461 C 1214.62 0.690326 -4.18849 0
M  V30 13462 C 1212.53 -0.986866 -5.83108 0
M  V30 13463 H 1211.46 0.0319196 -0.753324 0
M  V30 13464 H 1214.11 -0.614809 -1.72894 0
M  V30 13465 H 1212.49 0.938788 -3.84711 0
M  V30 13466 H 1213.66 -1.89852 -4.19872 0
M  V30 13467 H 1211.98 -1.57021 -3.8566 0
M  V30 13468 H 1214.57 0.816733 -5.28426 0
M  V30 13469 H 1214.92 1.68361 -3.80737 0
M  V30 13470 H 1215.45 -0.00657846 -3.97799 0
M  V30 13471 H 1212.19 -1.95375 -6.25707 0
M  V30 13472 H 1211.71 -0.261752 -5.99229 0
M  V30 13473 H 1213.39 -0.656567 -6.4366 0
M  V30 13474 N 1213.52 1.56172 -0.211661 0
M  V30 13475 C 1214.93 1.84307 0.297982 0
M  V30 13476 C 1215.28 1.1328 1.60194 0
M  V30 13477 O 1214.41 0.399137 2.12687 0
M  V30 13478 C 1215 3.34348 0.547428 0
M  V30 13479 C 1213.56 3.62835 1.0014 0
M  V30 13480 C 1212.71 2.77237 0.0590326 0
M  V30 13481 H 1215.66 1.5262 -0.435083 0
M  V30 13482 H 1215.68 3.54018 1.39469 0
M  V30 13483 H 1215.19 3.86015 -0.401778 0
M  V30 13484 H 1213.29 3.16616 1.96431 0
M  V30 13485 H 1213.41 4.70899 0.882653 0
M  V30 13486 H 1211.77 2.48377 0.564005 0
M  V30 13487 H 1212.55 3.31699 -0.884913 0
M  V30 13488 N 1215 -0.0618163 1.57479 0
M  V30 13489 C 1215.93 -1.07252 2.07411 0
M  V30 13490 C 1216.91 -1.39756 0.969649 0
M  V30 13491 O 1218.09 -1.4921 1.24298 0
M  V30 13492 C 1215.22 -2.38313 2.52635 0
M  V30 13493 C 1214.18 -2.20136 3.67048 0
M  V30 13494 C 1213.5 -3.56668 3.98361 0
M  V30 13495 C 1214.8 -1.61437 4.96725 0
M  V30 13496 H 1216.5 -0.656983 2.92103 0
M  V30 13497 H 1214.04 -0.314579 1.40522 0
M  V30 13498 H 1216 -3.09319 2.86181 0
M  V30 13499 H 1214.72 -2.81865 1.64984 0
M  V30 13500 H 1213.38 -1.51569 3.338 0
M  V30 13501 H 1213.03 -3.97809 3.07826 0
M  V30 13502 H 1212.73 -3.45342 4.75408 0
M  V30 13503 H 1214.25 -4.2909 4.34413 0
M  V30 13504 H 1215.67 -2.2232 5.28438 0
M  V30 13505 H 1214.06 -1.60779 5.78161 0
M  V30 13506 H 1215.13 -0.576795 4.81457 0
M  V30 13507 N 1216.48 -1.54033 -0.333429 0
M  V30 13508 C 1217.41 -1.85719 -1.4153 0
M  V30 13509 C 1218.39 -0.713144 -1.54429 0
M  V30 13510 O 1219.57 -0.965984 -1.68471 0
M  V30 13511 C 1216.7 -2.07578 -2.78439 0
M  V30 13512 C 1215.66 -3.23411 -2.80338 0
M  V30 13513 C 1214.98 -3.30622 -4.2023 0
M  V30 13514 C 1216.28 -4.6129 -2.44968 0
M  V30 13515 H 1217.98 -2.76325 -1.15261 0
M  V30 13516 H 1215.52 -1.32957 -0.55303 0
M  V30 13517 H 1217.48 -2.28329 -3.5418 0
M  V30 13518 H 1216.2 -1.13713 -3.06165 0
M  V30 13519 H 1214.86 -3.02531 -2.07052 0
M  V30 13520 H 1214.51 -2.34333 -4.45081 0
M  V30 13521 H 1214.21 -4.08466 -4.22409 0
M  V30 13522 H 1215.73 -3.53596 -4.97798 0
M  V30 13523 H 1217.14 -4.81987 -3.10421 0
M  V30 13524 H 1215.54 -5.41611 -2.58414 0
M  V30 13525 H 1216.61 -4.6421 -1.40134 0
M  V30 13526 N 1217.95 0.594978 -1.45938 0
M  V30 13527 C 1219.37 1.17703 -1.44924 0
M  V30 13528 C 1219.72 1.9534 -0.183522 0
M  V30 13529 O 1218.84 2.04276 0.714163 0
M  V30 13530 C 1219.44 2.14119 -2.62561 0
M  V30 13531 C 1218 2.67674 -2.64627 0
M  V30 13532 C 1217.14 1.43312 -2.37397 0
M  V30 13533 H 1220.09 0.383583 -1.53995 0
M  V30 13534 H 1220.11 2.97374 -2.3738 0
M  V30 13535 H 1219.63 1.57586 -3.54667 0
M  V30 13536 H 1217.73 3.28111 -1.76562 0
M  V30 13537 H 1217.84 3.11246 -3.64229 0
M  V30 13538 H 1216.2 1.72702 -1.87206 0
M  V30 13539 H 1216.99 0.886276 -3.31663 0
M  V30 13540 N 1219.43 1.33438 0.838571 0
M  V30 13541 C 1220.68 1.24665 1.59069 0
M  V30 13542 C 1221 -0.187433 1.94097 0
M  V30 13543 O 1220.27 -1.11625 1.60987 0
M  V30 13544 H 1218.85 0.45843 0.589789 0
M  V30 13545 H 1221.51 1.67161 1.00216 0
M  V30 13546 H 1220.61 1.84057 2.52051 0
M  V30 13547 N 1220.91 -1.05686 1.16912 0
M  V30 13548 C 1222.16 -1.78597 0.954425 0
M  V30 13549 C 1222.49 -1.87494 -0.517315 0
M  V30 13550 O 1221.74 -1.36736 -1.40006 0
M  V30 13551 C 1222.04 -3.22779 1.53455 0
M  V30 13552 C 1221.71 -3.3395 3.02965 0
M  V30 13553 C 1220.37 -3.36706 3.43777 0
M  V30 13554 C 1222.72 -3.35371 3.98969 0
M  V30 13555 C 1220.05 -3.38506 4.79198 0
M  V30 13556 C 1222.4 -3.38708 5.34284 0
M  V30 13557 C 1221.06 -3.39749 5.74567 0
M  V30 13558 H 1220.33 -0.653534 0.349249 0
M  V30 13559 H 1222.98 -1.24245 1.45723 0
M  V30 13560 H 1221.29 -3.80025 0.953331 0
M  V30 13561 H 1222.98 -3.77805 1.34404 0
M  V30 13562 H 1219.57 -3.32515 2.70429 0
M  V30 13563 H 1223.76 -3.32447 3.685 0
M  V30 13564 H 1219.01 -3.37619 5.09729 0
M  V30 13565 H 1223.19 -3.38755 6.08455 0
M  V30 13566 H 1220.81 -3.40897 6.7948 0
M  V30 13567 N 1222.39 -0.968567 -1.24324 0
M  V30 13568 C 1223.3 -0.50703 -2.29055 0
M  V30 13569 C 1224.31 0.432431 -1.68541 0
M  V30 13570 O 1225.49 0.30526 -1.99073 0
M  V30 13571 C 1222.56 0.194589 -3.46153 0
M  V30 13572 C 1221.62 -0.784805 -4.22066 0
M  V30 13573 C 1220.85 -0.116574 -5.33573 0
M  V30 13574 O 1221.07 1.09492 -5.59792 0
M  V30 13575 O 1220.01 -0.809171 -5.96436 0
M  V30 13576 H 1223.83 -1.3777 -2.70653 0
M  V30 13577 H 1221.42 -0.735645 -1.30033 0
M  V30 13578 H 1223.3 0.588684 -4.17268 0
M  V30 13579 H 1221.97 1.04021 -3.06531 0
M  V30 13580 H 1220.88 -1.22938 -3.53323 0
M  V30 13581 H 1222.21 -1.59887 -4.65507 0
M  V30 13582 N 1223.87 1.39211 -0.738786 0
M  V30 13583 C 1225.11 2.0004 -0.28782 0
M  V30 13584 C 1225.44 1.58921 1.13 0
M  V30 13585 O 1224.71 0.839193 1.77015 0
M  V30 13586 H 1223.29 0.739805 -0.103425 0
M  V30 13587 H 1225.95 1.70202 -0.949587 0
M  V30 13588 H 1225.04 3.10251 -0.339208 0
M  V30 13589 N 1225.34 0.486708 1.49896 0
M  V30 13590 C 1226.62 -0.125183 1.95199 0
M  V30 13591 C 1227 -1.55498 1.42771 0
M  V30 13592 O 1226.35 -2.1949 0.635322 0
M  V30 13593 C 1226.56 -0.0524982 3.48961 0
M  V30 13594 C 1227.91 -0.233595 4.23957 0
M  V30 13595 O 1228.93 -0.128357 3.55969 0
M  V30 13596 O 1227.79 -0.447862 5.44662 0
M  V30 13597 H 1224.88 -0.103141 0.820543 0
M  V30 13598 H 1227.43 0.548226 1.60601 0
M  V30 13599 H 1226.2 0.945163 3.79714 0
M  V30 13600 H 1225.83 -0.766683 3.90138 0
M  V30 13601 N 1226.82 -1.56058 0.219941 0
M  V30 13602 C 1228.07 -1.97436 -0.412543 0
M  V30 13603 C 1228.39 -1.11058 -1.61014 0
M  V30 13604 O 1229.59 -1.42328 -2.31203 0
M  V30 13605 C 1228.05 -3.51227 -0.785362 0
M  V30 13606 C 1227.66 -4.46305 0.389328 0
M  V30 13607 C 1229.4 -4.01321 -1.38354 0
M  V30 13608 C 1227.31 -5.914 -0.00583531 0
M  V30 13609 H 1226.24 -0.73728 -0.157906 0
M  V30 13610 H 1228.89 -1.8076 0.315898 0
M  V30 13611 H 1227.27 -3.63497 -1.57118 0
M  V30 13612 H 1228.44 -4.45781 1.16686 0
M  V30 13613 H 1226.76 -4.06543 0.900633 0
M  V30 13614 H 1229.36 -5.07221 -1.69207 0
M  V30 13615 H 1229.7 -3.47077 -2.29876 0
M  V30 13616 H 1230.23 -3.92267 -0.66119 0
M  V30 13617 H 1226.97 -6.49623 0.87583 0
M  V30 13618 H 1226.49 -5.95121 -0.74772 0
M  V30 13619 H 1228.17 -6.45549 -0.43308 0
M  V30 13620 N 1228.3 0.053464 -1.57509 0
M  V30 13621 C 1229.53 0.765301 -1.92764 0
M  V30 13622 C 1229.95 1.69385 -0.817943 0
M  V30 13623 O 1229.31 1.7986 0.228075 0
M  V30 13624 C 1229.36 1.51938 -3.27028 0
M  V30 13625 O 1228.46 2.63121 -3.17555 0
M  V30 13626 H 1227.8 0.207567 -0.630723 0
M  V30 13627 H 1230.33 0.0162254 -2.04594 0
M  V30 13628 H 1230.34 1.89466 -3.6134 0
M  V30 13629 H 1229.02 0.838207 -4.07366 0
M  V30 13630 H 1227.59 2.28316 -2.94832 0
M  V30 13631 N 1229.78 1.54207 0.325255 0
M  V30 13632 C 1231.01 1.76293 1.08298 0
M  V30 13633 C 1231.42 0.510722 1.81761 0
M  V30 13634 O 1230.78 -0.5185 1.7498 0
M  V30 13635 C 1230.83 2.95498 2.08238 0
M  V30 13636 O 1230.55 4.15877 1.37759 0
M  V30 13637 C 1232.05 3.29781 2.96242 0
M  V30 13638 H 1229.27 0.588576 0.322209 0
M  V30 13639 H 1231.82 2.0109 0.371896 0
M  V30 13640 H 1229.97 2.72979 2.74884 0
M  V30 13641 H 1230.39 4.82918 2.04672 0
M  V30 13642 H 1231.86 4.16495 3.62265 0
M  V30 13643 H 1232.34 2.46874 3.63249 0
M  V30 13644 H 1232.94 3.54372 2.3516 0
M  V30 13645 N 1231.26 -0.58723 1.46251 0
M  V30 13646 C 1232.51 -1.34294 1.51028 0
M  V30 13647 C 1232.83 -1.94329 0.161623 0
M  V30 13648 O 1232.1 -1.78309 -0.811342 0
M  V30 13649 H 1230.68 -0.498607 0.556238 0
M  V30 13650 H 1233.34 -0.688074 1.8235 0
M  V30 13651 H 1232.43 -2.15197 2.26045 0
M  V30 13652 N 1232.74 -1.33881 -0.831482 0
M  V30 13653 C 1233.98 -1.25507 -1.58406 0
M  V30 13654 C 1234.3 0.177137 -1.94194 0
M  V30 13655 O 1233.57 1.10769 -1.61576 0
M  V30 13656 H 1232.15 -0.461551 -0.587349 0
M  V30 13657 H 1234.82 -1.6769 -0.99328 0
M  V30 13658 H 1233.91 -1.85391 -2.51071 0
M  V30 13659 N 1234.21 1.05064 -1.1747 0
M  V30 13660 C 1235.46 1.77737 -0.961979 0
M  V30 13661 C 1235.78 1.88198 0.510551 0
M  V30 13662 O 1235.05 1.39968 1.37062 0
M  V30 13663 H 1233.63 0.658366 -0.352935 0
M  V30 13664 H 1236.29 1.26851 -1.47969 0
M  V30 13665 H 1235.39 2.79368 -1.39141 0
M  V30 13666 N 1235.69 0.975146 1.23809 0
M  V30 13667 C 1236.64 0.503396 2.27087 0
M  V30 13668 C 1237.63 -0.43689 1.63669 0
M  V30 13669 O 1238.84 -0.31136 1.77287 0
M  V30 13670 H 1235.21 0.144346 0.738017 0
M  V30 13671 H 1237.19 1.38627 2.64244 0
M  V30 13672 C 1235.93 -0.183682 3.47214 0
M  V30 13673 H 1235.26 0.530753 3.96261 0
M  V30 13674 H 1236.7 -0.477479 4.21303 0
M  V30 13675 C 1235.16 -1.41317 3.05829 0
M  V30 13676 O 1235.69 -2.50975 3.13647 0
M  V30 13677 N 1233.89 -1.28191 2.60798 0
M  V30 13678 H 1233.44 -0.38967 2.54636 0
M  V30 13679 H 1233.4 -2.10565 2.33473 0
M  V30 13680 N 1237.17 -1.38817 0.746158 0
M  V30 13681 C 1238.13 -2.28876 0.121886 0
M  V30 13682 C 1239.13 -1.46838 -0.655379 0
M  V30 13683 O 1240.32 -1.67377 -0.482744 0
M  V30 13684 C 1237.45 -3.30487 -0.836118 0
M  V30 13685 H 1238.65 -2.85586 0.915453 0
M  V30 13686 H 1236.2 -1.47652 0.512691 0
M  V30 13687 H 1236.94 -2.78853 -1.65563 0
M  V30 13688 H 1236.72 -3.9109 -0.281271 0
M  V30 13689 H 1238.21 -3.97848 -1.26914 0
M  V30 13690 N 1238.65 -0.49465 -1.49636 0
M  V30 13691 C 1239.58 0.276606 -2.31856 0
M  V30 13692 C 1240.56 0.968499 -1.39836 0
M  V30 13693 O 1241.74 0.96113 -1.68748 0
M  V30 13694 C 1238.87 1.34522 -3.20189 0
M  V30 13695 C 1237.83 0.773571 -4.20951 0
M  V30 13696 C 1237.15 1.94223 -4.98178 0
M  V30 13697 C 1238.45 -0.231096 -5.21788 0
M  V30 13698 H 1240.15 -0.409668 -2.96584 0
M  V30 13699 H 1237.69 -0.198461 -1.42626 0
M  V30 13700 H 1239.65 1.89244 -3.76517 0
M  V30 13701 H 1238.37 2.06059 -2.53392 0
M  V30 13702 H 1237.03 0.248144 -3.65759 0
M  V30 13703 H 1236.68 2.64514 -4.27834 0
M  V30 13704 H 1236.38 1.56584 -5.66353 0
M  V30 13705 H 1237.9 2.49391 -5.57348 0
M  V30 13706 H 1239.32 0.227768 -5.72847 0
M  V30 13707 H 1237.71 -0.522984 -5.97817 0
M  V30 13708 H 1238.78 -1.14914 -4.71087 0
M  V30 13709 N 1240.13 1.55939 -0.228214 0
M  V30 13710 C 1241.06 2.17874 0.711589 0
M  V30 13711 C 1242.07 1.14969 1.15265 0
M  V30 13712 O 1243.26 1.41919 1.08265 0
M  V30 13713 C 1240.36 2.75294 1.97652 0
M  V30 13714 C 1239.53 4.03435 1.68994 0
M  V30 13715 C 1238.59 4.45354 2.8026 0
M  V30 13716 O 1237.62 5.12117 2.48445 0
M  V30 13717 N 1238.82 4.11588 4.0936 0
M  V30 13718 H 1241.58 2.99148 0.181757 0
M  V30 13719 H 1239.15 1.6183 -0.0474567 0
M  V30 13720 H 1241.14 3.00305 2.71292 0
M  V30 13721 H 1239.71 1.98285 2.41665 0
M  V30 13722 H 1238.93 3.8621 0.789657 0
M  V30 13723 H 1240.22 4.87015 1.47287 0
M  V30 13724 H 1239.61 3.57953 4.38048 0
M  V30 13725 H 1238.17 4.41477 4.79522 0
M  V30 13726 N 1241.6 -0.0451101 1.57535 0
M  V30 13727 C 1242.57 -1.03521 2.0449 0
M  V30 13728 C 1243.57 -1.30009 0.946265 0
M  V30 13729 O 1244.76 -1.25282 1.21038 0
M  V30 13730 C 1241.89 -2.37221 2.44824 0
M  V30 13731 H 1243.08 -0.629943 2.93209 0
M  V30 13732 H 1240.64 -0.291544 1.53557 0
M  V30 13733 H 1241.37 -2.82528 1.59212 0
M  V30 13734 H 1241.16 -2.19329 3.25018 0
M  V30 13735 H 1242.65 -3.08337 2.81635 0
M  V30 13736 N 1243.08 -1.54377 -0.317073 0
M  V30 13737 C 1244.33 -1.72105 -1.0518 0
M  V30 13738 C 1244.64 -0.505166 -1.88964 0
M  V30 13739 O 1245.85 -0.563912 -2.65579 0
M  V30 13740 C 1244.31 -3.04435 -1.91957 0
M  V30 13741 C 1243.91 -4.33449 -1.13253 0
M  V30 13742 C 1245.66 -3.31524 -2.65127 0
M  V30 13743 C 1243.57 -5.56837 -1.99214 0
M  V30 13744 H 1242.5 -0.641392 -0.396399 0
M  V30 13745 H 1245.15 -1.80868 -0.309673 0
M  V30 13746 H 1243.53 -2.89595 -2.70094 0
M  V30 13747 H 1244.7 -4.59074 -0.39842 0
M  V30 13748 H 1243.02 -4.13173 -0.517372 0
M  V30 13749 H 1245.61 -4.20906 -3.29761 0
M  V30 13750 H 1245.96 -2.49688 -3.33109 0
M  V30 13751 H 1246.49 -3.47261 -1.94048 0
M  V30 13752 H 1243.23 -6.41294 -1.35729 0
M  V30 13753 H 1242.75 -5.35421 -2.70341 0
M  V30 13754 H 1244.43 -5.93488 -2.57646 0
M  V30 13755 N 1244.56 0.579466 -1.4656 0
M  V30 13756 C 1245.49 1.7031 -1.51887 0
M  V30 13757 C 1246.47 1.58271 -0.372721 0
M  V30 13758 O 1247.66 1.79441 -0.577336 0
M  V30 13759 C 1244.78 3.0839 -1.40048 0
M  V30 13760 C 1243.83 3.3894 -2.58886 0
M  V30 13761 S 1244.66 3.30652 -4.21224 0
M  V30 13762 C 1245.82 4.71264 -4.119 0
M  V30 13763 H 1246.05 1.65533 -2.46954 0
M  V30 13764 H 1243.58 0.758477 -1.34486 0
M  V30 13765 H 1245.54 3.88046 -1.33905 0
M  V30 13766 H 1244.2 3.10653 -0.464048 0
M  V30 13767 H 1243.4 4.39547 -2.46605 0
M  V30 13768 H 1243 2.66858 -2.62036 0
M  V30 13769 H 1245.29 5.61722 -3.7878 0
M  V30 13770 H 1246.23 4.88602 -5.12517 0
M  V30 13771 H 1246.64 4.48266 -3.43101 0
M  V30 13772 N 1246.04 1.3432 0.824371 0
M  V30 13773 C 1246.99 1.22332 1.92403 0
M  V30 13774 C 1247.97 0.122709 1.60431 0
M  V30 13775 O 1249.16 0.352231 1.7346 0
M  V30 13776 C 1246.29 0.979497 3.2903 0
M  V30 13777 C 1245.38 2.12322 3.67124 0
M  V30 13778 N 1245.77 3.3743 3.76795 0
M  V30 13779 C 1244.07 2.03314 3.96963 0
M  V30 13780 C 1244.77 4.12532 4.10113 0
M  V30 13781 N 1243.75 3.41109 4.23256 0
M  V30 13782 H 1247.55 2.17143 1.98056 0
M  V30 13783 H 1245.06 1.26537 1.01795 0
M  V30 13784 H 1247.06 0.874525 4.07624 0
M  V30 13785 H 1245.72 0.0400611 3.24675 0
M  V30 13786 H 1246.73 3.72001 3.60327 0
M  V30 13787 H 1243.41 1.17118 4.00736 0
M  V30 13788 H 1244.8 5.20562 4.24811 0
M  V30 13789 N 1247.52 -1.0444 1.18026 0
M  V30 13790 C 1248.76 -1.77575 0.973314 0
M  V30 13791 C 1249.09 -1.88032 -0.4974 0
M  V30 13792 O 1248.35 -1.38214 -1.38548 0
M  V30 13793 C 1248.65 -3.21134 1.56869 0
M  V30 13794 C 1248.31 -3.30718 3.0649 0
M  V30 13795 C 1246.97 -3.33041 3.47328 0
M  V30 13796 C 1249.33 -3.3112 4.02503 0
M  V30 13797 C 1246.65 -3.33404 4.82762 0
M  V30 13798 C 1249.01 -3.33023 5.37846 0
M  V30 13799 C 1247.67 -3.33636 5.78138 0
M  V30 13800 H 1246.94 -0.649793 0.356161 0
M  V30 13801 H 1249.59 -1.22693 1.47033 0
M  V30 13802 H 1247.89 -3.78992 0.993584 0
M  V30 13803 H 1249.59 -3.76358 1.38404 0
M  V30 13804 H 1246.18 -3.29628 2.7394 0
M  V30 13805 H 1250.36 -3.2852 3.72006 0
M  V30 13806 H 1245.62 -3.32194 5.13281 0
M  V30 13807 H 1249.79 -3.32283 6.12014 0
M  V30 13808 H 1247.42 -3.33671 6.83058 0
M  V30 13809 N 1248.99 -0.981699 -1.2329 0
M  V30 13810 C 1249.94 -0.515432 -2.26817 0
M  V30 13811 C 1250.94 0.428204 -1.63899 0
M  V30 13812 O 1252.14 0.301954 -1.77449 0
M  V30 13813 H 1248.52 -0.148257 -0.737241 0
M  V30 13814 H 1250.49 -1.40027 -2.63505 0
M  V30 13815 C 1249.24 0.165266 -3.47307 0
M  V30 13816 H 1248.56 -0.55176 -3.95974 0
M  V30 13817 H 1250 0.45513 -4.2155 0
M  V30 13818 C 1248.46 1.39693 -3.06574 0
M  V30 13819 O 1248.99 2.49308 -3.14974 0
M  V30 13820 N 1247.2 1.26806 -2.61474 0
M  V30 13821 H 1246.74 0.376161 -2.54839 0
M  V30 13822 H 1246.7 2.09324 -2.34587 0
M  V30 13823 N 1250.47 1.3842 -0.753509 0
M  V30 13824 C 1251.7 2.04107 -0.319985 0
M  V30 13825 C 1252.11 1.56951 1.05655 0
M  V30 13826 O 1251.45 0.737807 1.68232 0
M  V30 13827 C 1251.52 3.58529 -0.26402 0
M  V30 13828 C 1251.18 4.28741 -1.58209 0
M  V30 13829 C 1252.18 4.54118 -2.53126 0
M  V30 13830 C 1249.86 4.66931 -1.8515 0
M  V30 13831 C 1251.86 5.16719 -3.73203 0
M  V30 13832 C 1249.54 5.29256 -3.05502 0
M  V30 13833 C 1250.54 5.54085 -3.99348 0
M  V30 13834 O 1250.23 6.15112 -5.17584 0
M  V30 13835 H 1249.96 0.662457 -0.134636 0
M  V30 13836 H 1252.51 1.78096 -1.02328 0
M  V30 13837 H 1250.74 3.83512 0.495516 0
M  V30 13838 H 1252.43 4.05659 0.139979 0
M  V30 13839 H 1253.2 4.25043 -2.33588 0
M  V30 13840 H 1249.08 4.46952 -1.12939 0
M  V30 13841 H 1252.62 5.36014 -4.46469 0
M  V30 13842 H 1248.52 5.57754 -3.24932 0
M  V30 13843 H 1249.29 6.33599 -5.18164 0
M  V30 13844 N 1251.95 0.502579 1.49372 0
M  V30 13845 C 1253.37 0.158641 1.5881 0
M  V30 13846 C 1253.57 -1.33688 1.50764 0
M  V30 13847 O 1252.62 -2.11295 1.38241 0
M  V30 13848 C 1253.94 0.736843 2.91532 0
M  V30 13849 C 1255.48 0.703093 3.05001 0
M  V30 13850 C 1255.96 1.25938 4.40345 0
M  V30 13851 N 1257.45 1.22015 4.46841 0
M  V30 13852 C 1258.18 1.62076 5.50017 0
M  V30 13853 N 1257.68 2.09736 6.6029 0
M  V30 13854 N 1259.47 1.53482 5.4074 0
M  V30 13855 H 1251.62 1.47487 1.52844 0
M  V30 13856 H 1253.89 0.611851 0.724115 0
M  V30 13857 H 1253.59 1.78573 3.02992 0
M  V30 13858 H 1253.47 0.198178 3.76679 0
M  V30 13859 H 1255.85 -0.336965 2.9317 0
M  V30 13860 H 1255.94 1.27892 2.21534 0
M  V30 13861 H 1255.58 2.29823 4.52928 0
M  V30 13862 H 1255.51 0.659481 5.22454 0
M  V30 13863 H 1258 0.870957 3.67726 0
M  V30 13864 H 1258.31 2.3837 7.35119 0
M  V30 13865 H 1256.66 2.13712 6.61326 0
M  V30 13866 H 1259.85 1.16065 4.53483 0
M  V30 13867 H 1260.02 1.85026 6.21023 0
M  V30 13868 N 1253.43 -1.55816 0.23648 0
M  V30 13869 C 1254.66 -2.03083 -0.395584 0
M  V30 13870 C 1255.07 -1.11599 -1.52286 0
M  V30 13871 O 1254.43 -0.128403 -1.82048 0
M  V30 13872 C 1254.48 -3.49776 -0.913197 0
M  V30 13873 O 1254.2 -4.37773 0.169151 0
M  V30 13874 C 1255.7 -4.12756 -1.617 0
M  V30 13875 H 1252.92 -0.66421 -0.0952146 0
M  V30 13876 H 1255.47 -2.01354 0.357299 0
M  V30 13877 H 1253.62 -3.52072 -1.6163 0
M  V30 13878 H 1254.03 -5.24029 -0.222217 0
M  V30 13879 H 1255.51 -5.17123 -1.93101 0
M  V30 13880 H 1255.99 -3.58631 -2.53537 0
M  V30 13881 H 1256.59 -4.14353 -0.958736 0
M  V30 13882 N 1254.91 0.036755 -1.57557 0
M  V30 13883 C 1255.84 1.07261 -2.01421 0
M  V30 13884 C 1256.82 1.35609 -0.897161 0
M  V30 13885 O 1258 1.48395 -1.16237 0
M  V30 13886 C 1255.13 2.40912 -2.38074 0
M  V30 13887 C 1254.17 2.28471 -3.60143 0
M  V30 13888 S 1255.01 1.64544 -5.09594 0
M  V30 13889 C 1256.16 2.99701 -5.49482 0
M  V30 13890 H 1256.4 0.698959 -2.88967 0
M  V30 13891 H 1253.93 0.246481 -1.5242 0
M  V30 13892 H 1255.89 3.17776 -2.59862 0
M  V30 13893 H 1254.55 2.75427 -1.50993 0
M  V30 13894 H 1253.74 3.27117 -3.8342 0
M  V30 13895 H 1253.34 1.59749 -3.38166 0
M  V30 13896 H 1255.64 3.96032 -5.49695 0
M  V30 13897 H 1256.58 2.81166 -6.49885 0
M  V30 13898 H 1256.99 3.0192 -4.76975 0
M  V30 13899 N 1256.39 1.54543 0.308881 0
M  V30 13900 C 1257.63 1.75182 1.05312 0
M  V30 13901 C 1257.99 0.522347 1.84758 0
M  V30 13902 O 1259.19 0.606334 2.61872 0
M  V30 13903 C 1257.46 3.0007 1.94147 0
M  V30 13904 S 1259.02 3.41676 2.75323 0
M  V30 13905 H 1255.84 0.615862 0.355296 0
M  V30 13906 H 1258.44 1.92739 0.327413 0
M  V30 13907 H 1257.14 3.87685 1.34643 0
M  V30 13908 H 1256.68 2.85078 2.71098 0
M  V30 13909 H 1258.69 2.98128 3.96654 0
M  V30 13910 N 1257.86 -0.571685 1.46866 0
M  V30 13911 C 1259.28 -0.896172 1.32064 0
M  V30 13912 C 1259.48 -1.9925 0.300291 0
M  V30 13913 O 1258.54 -2.50791 -0.293284 0
M  V30 13914 C 1259.85 -1.3031 2.70998 0
M  V30 13915 C 1261.4 -1.41533 2.79173 0
M  V30 13916 C 1261.87 -1.85587 4.18714 0
M  V30 13917 N 1263.36 -1.92762 4.21185 0
M  V30 13918 C 1264.1 -2.28148 5.26057 0
M  V30 13919 N 1263.59 -2.62248 6.41247 0
M  V30 13920 N 1265.39 -2.28797 5.13428 0
M  V30 13921 H 1257.54 0.152349 2.11853 0
M  V30 13922 H 1259.8 0.00548777 0.947984 0
M  V30 13923 H 1259.51 -0.571469 3.47026 0
M  V30 13924 H 1259.38 -2.26233 3.01826 0
M  V30 13925 H 1261.77 -2.1378 2.03426 0
M  V30 13926 H 1261.85 -0.438342 2.52016 0
M  V30 13927 H 1261.49 -1.13915 4.9496 0
M  V30 13928 H 1261.42 -2.84264 4.43285 0
M  V30 13929 H 1263.91 -1.68854 3.38078 0
M  V30 13930 H 1264.23 -2.88234 7.17036 0
M  V30 13931 H 1262.57 -2.59861 6.44591 0
M  V30 13932 H 1265.76 -2.01587 4.22469 0
M  V30 13933 H 1265.94 -2.56045 5.95269 0
M  V30 13934 N 1259.34 -1.34755 -0.817236 0
M  V30 13935 C 1260.59 -1.2718 -1.57066 0
M  V30 13936 C 1260.91 0.156531 -1.94371 0
M  V30 13937 O 1260.18 1.09049 -1.62742 0
M  V30 13938 H 1258.76 -0.467755 -0.582421 0
M  V30 13939 H 1261.42 -1.68734 -0.975438 0
M  V30 13940 H 1260.52 -1.88043 -2.49091 0
M  V30 13941 N 1260.82 1.03812 -1.18578 0
M  V30 13942 C 1261.73 2.15371 -0.930182 0
M  V30 13943 C 1262.75 1.73673 0.106599 0
M  V30 13944 O 1263.92 2.01257 -0.0759054 0
M  V30 13945 C 1260.99 3.43606 -0.462151 0
M  V30 13946 C 1260.05 3.99671 -1.5672 0
M  V30 13947 C 1259.28 5.21785 -1.12141 0
M  V30 13948 O 1259.5 5.70397 0.0188357 0
M  V30 13949 O 1258.44 5.70449 -1.9202 0
M  V30 13950 H 1262.26 2.39791 -1.86371 0
M  V30 13951 H 1259.85 1.13814 -0.967819 0
M  V30 13952 H 1261.73 4.2088 -0.20934 0
M  V30 13953 H 1260.41 3.20654 0.443052 0
M  V30 13954 H 1259.31 3.23774 -1.87406 0
M  V30 13955 H 1260.65 4.2697 -2.44862 0
M  V30 13956 N 1262.3 0.988223 1.22768 0
M  V30 13957 C 1263.25 0.527454 2.26541 0
M  V30 13958 C 1264.24 -0.419506 1.64123 0
M  V30 13959 O 1265.45 -0.292539 1.77607 0
M  V30 13960 H 1261.82 0.152165 0.736444 0
M  V30 13961 H 1263.79 1.41422 2.62759 0
M  V30 13962 C 1262.54 -0.146845 3.4739 0
M  V30 13963 H 1261.86 0.572752 3.95676 0
M  V30 13964 H 1263.3 -0.432768 4.21786 0
M  V30 13965 C 1261.76 -1.38065 3.0731 0
M  V30 13966 O 1262.29 -2.47634 3.16291 0
M  V30 13967 N 1260.5 -1.25418 2.62143 0
M  V30 13968 H 1260.05 -0.362641 2.55035 0
M  V30 13969 H 1260 -2.08077 2.35694 0
M  V30 13970 N 1263.78 -1.38018 0.760839 0
M  V30 13971 C 1265 -2.04757 0.330038 0
M  V30 13972 C 1265.43 -1.57009 -1.03585 0
M  V30 13973 O 1264.78 -0.725349 -1.66158 0
M  V30 13974 C 1264.83 -3.58696 0.370082 0
M  V30 13975 O 1263.94 -4.07507 -0.633361 0
M  V30 13976 H 1263.28 -0.648023 0.144782 0
M  V30 13977 H 1265.81 -1.7655 1.03399 0
M  V30 13978 H 1265.82 -4.07387 0.223515 0
M  V30 13979 H 1264.49 -3.92806 1.36661 0
M  V30 13980 H 1263.07 -3.70165 -0.45081 0
M  V30 13981 N 1265.25 -0.510493 -1.49103 0
M  V30 13982 C 1266.5 0.0325393 -2.01674 0
M  V30 13983 C 1266.82 1.37162 -1.39448 0
M  V30 13984 O 1268.02 2.00189 -1.83402 0
M  V30 13985 C 1266.48 0.108433 -3.59737 0
M  V30 13986 C 1266.09 -1.22458 -4.30939 0
M  V30 13987 C 1267.83 0.601326 -4.20219 0
M  V30 13988 C 1265.74 -1.11033 -5.80884 0
M  V30 13989 H 1264.67 0.0159333 -0.753832 0
M  V30 13990 H 1267.32 -0.651344 -1.71551 0
M  V30 13991 H 1265.7 0.856974 -3.86616 0
M  V30 13992 H 1266.87 -1.98715 -4.15751 0
M  V30 13993 H 1265.19 -1.65166 -3.82242 0
M  V30 13994 H 1267.79 0.704462 -5.30039 0
M  V30 13995 H 1268.13 1.60247 -3.84222 0
M  V30 13996 H 1268.66 -0.0909561 -3.97696 0
M  V30 13997 H 1265.4 -2.08603 -6.21422 0
M  V30 13998 H 1264.92 -0.388798 -5.98539 0
M  V30 13999 H 1266.6 -0.792949 -6.42123 0
M  V30 14000 N 1266.73 1.55688 -0.24474 0
M  V30 14001 C 1267.66 2.24272 0.64995 0
M  V30 14002 C 1268.64 1.22226 1.183 0
M  V30 14003 O 1269.83 1.50873 1.22274 0
M  V30 14004 C 1266.96 2.94053 1.84798 0
M  V30 14005 C 1265.91 4.02769 1.44779 0
M  V30 14006 C 1265.24 4.59965 2.72647 0
M  V30 14007 C 1266.54 5.18601 0.62047 0
M  V30 14008 H 1268.23 2.99298 0.0780654 0
M  V30 14009 H 1265.78 1.43955 0.0361069 0
M  V30 14010 H 1267.73 3.40732 2.47951 0
M  V30 14011 H 1266.45 2.16511 2.44521 0
M  V30 14012 H 1265.11 3.56856 0.839609 0
M  V30 14013 H 1264.76 3.79126 3.30564 0
M  V30 14014 H 1264.46 5.33352 2.46596 0
M  V30 14015 H 1265.99 5.09376 3.36703 0
M  V30 14016 H 1267.4 5.61519 1.15625 0
M  V30 14017 H 1265.8 5.98364 0.456097 0
M  V30 14018 H 1266.87 4.83503 -0.367798 0
M  V30 14019 N 1268.21 -0.0283989 1.57574 0
M  V30 14020 C 1269.46 -0.717656 1.88929 0
M  V30 14021 C 1269.78 -1.7586 0.842517 0
M  V30 14022 O 1269.05 -1.95509 -0.123774 0
M  V30 14023 H 1267.63 -0.268051 0.69725 0
M  V30 14024 H 1270.29 0.00580691 1.94899 0
M  V30 14025 H 1269.39 -1.2068 2.87824 0
M  V30 14026 N 1269.69 -1.54705 -0.300681 0
M  V30 14027 C 1270.62 -1.8205 -1.39249 0
M  V30 14028 C 1271.63 -0.703476 -1.46816 0
M  V30 14029 O 1272.82 -0.980957 -1.49129 0
M  V30 14030 C 1269.92 -1.94376 -2.77617 0
M  V30 14031 C 1269.09 -3.2478 -2.92979 0
M  V30 14032 C 1268.15 -3.27518 -4.11848 0
M  V30 14033 O 1267.18 -4.01047 -4.03918 0
M  V30 14034 N 1268.38 -2.52932 -5.22499 0
M  V30 14035 H 1271.15 -2.76279 -1.16146 0
M  V30 14036 H 1268.71 -1.54283 -0.49075 0
M  V30 14037 H 1270.7 -1.93609 -3.55384 0
M  V30 14038 H 1269.27 -1.07141 -2.93666 0
M  V30 14039 H 1268.49 -3.38319 -2.02322 0
M  V30 14040 H 1269.78 -4.10835 -3.00153 0
M  V30 14041 H 1269.18 -1.92825 -5.31822 0
M  V30 14042 H 1267.73 -2.57919 -5.98599 0
M  V30 14043 N 1271.17 0.563888 -1.47167 0
M  V30 14044 C 1272.1 1.68137 -1.62025 0
M  V30 14045 C 1273.08 1.63481 -0.469899 0
M  V30 14046 O 1274.26 1.81206 -0.698432 0
M  V30 14047 C 1271.39 3.06779 -1.62801 0
M  V30 14048 C 1270.35 3.26278 -2.76996 0
M  V30 14049 C 1269.67 4.65638 -2.62841 0
M  V30 14050 C 1270.97 3.12295 -4.18651 0
M  V30 14051 H 1272.67 1.55958 -2.55573 0
M  V30 14052 H 1270.21 0.74887 -1.22996 0
M  V30 14053 H 1272.17 3.84795 -1.71787 0
M  V30 14054 H 1270.89 3.19901 -0.658097 0
M  V30 14055 H 1269.55 2.50668 -2.67509 0
M  V30 14056 H 1269.2 4.75551 -1.63892 0
M  V30 14057 H 1268.9 4.79635 -3.39447 0
M  V30 14058 H 1270.42 5.45798 -2.73746 0
M  V30 14059 H 1271.83 3.80136 -4.2915 0
M  V30 14060 H 1270.23 3.37805 -4.95992 0
M  V30 14061 H 1271.3 2.09126 -4.37486 0
M  V30 14062 N 1272.64 1.35187 0.810078 0
M  V30 14063 C 1273.59 1.27822 1.92173 0
M  V30 14064 C 1274.56 0.150851 1.65414 0
M  V30 14065 O 1275.75 0.333973 1.87854 0
M  V30 14066 C 1272.89 1.05258 3.28656 0
M  V30 14067 C 1272 2.26884 3.67624 0
M  V30 14068 C 1271.13 1.97499 4.9312 0
M  V30 14069 C 1270.17 3.15198 5.24706 0
M  V30 14070 N 1269.31 2.85612 6.41381 0
M  V30 14071 H 1274.15 2.22884 1.97804 0
M  V30 14072 H 1271.69 1.10799 0.967577 0
M  V30 14073 H 1273.65 0.902084 4.07331 0
M  V30 14074 H 1272.28 0.138583 3.22502 0
M  V30 14075 H 1271.33 2.5281 2.84238 0
M  V30 14076 H 1272.64 3.14783 3.86928 0
M  V30 14077 H 1271.79 1.7926 5.79613 0
M  V30 14078 H 1270.53 1.0688 4.75844 0
M  V30 14079 H 1269.54 3.34019 4.36705 0
M  V30 14080 H 1270.76 4.06614 5.43913 0
M  V30 14081 H 1268.71 1.97583 6.25537 0
M  V30 14082 H 1268.63 3.67044 6.60919 0
M  V30 14083 H 1269.89 2.70906 7.3091 0
M  V30 14084 N 1274.12 -1.03182 1.19127 0
M  V30 14085 C 1275.09 -2.09559 0.928307 0
M  V30 14086 C 1276.09 -1.60548 -0.0899992 0
M  V30 14087 O 1277.28 -1.736 0.144422 0
M  V30 14088 C 1274.41 -3.38609 0.394561 0
M  V30 14089 H 1275.6 -2.34321 1.87173 0
M  V30 14090 H 1273.15 -1.19746 1.00452 0
M  V30 14091 H 1273.89 -3.19515 -0.555046 0
M  V30 14092 H 1273.67 -3.75502 1.12873 0
M  V30 14093 H 1275.16 -4.16969 0.229569 0
M  V30 14094 N 1275.6 -0.99472 -1.22242 0
M  V30 14095 C 1276.51 -0.555502 -2.27928 0
M  V30 14096 C 1277.53 0.396584 -1.6942 0
M  V30 14097 O 1278.7 0.262965 -1.99676 0
M  V30 14098 C 1275.77 0.121121 -3.46488 0
M  V30 14099 C 1274.83 -0.874155 -4.20306 0
M  V30 14100 C 1274.06 -0.229726 -5.33205 0
M  V30 14101 O 1274.28 0.975935 -5.61989 0
M  V30 14102 O 1273.22 -0.935501 -5.94586 0
M  V30 14103 H 1277.04 -1.4348 -2.6767 0
M  V30 14104 H 1274.63 -0.763061 -1.28444 0
M  V30 14105 H 1276.51 0.500043 -4.18423 0
M  V30 14106 H 1275.19 0.974959 -3.08668 0
M  V30 14107 H 1274.09 -1.30404 -3.50636 0
M  V30 14108 H 1275.43 -1.69725 -4.62011 0
M  V30 14109 N 1277.08 1.37613 -0.768148 0
M  V30 14110 C 1278.01 2.3291 -0.165911 0
M  V30 14111 C 1278.99 1.556 0.687205 0
M  V30 14112 O 1280.17 1.83854 0.625407 0
M  V30 14113 C 1277.3 3.39822 0.7168 0
M  V30 14114 C 1276.26 4.27986 -0.0347264 0
M  V30 14115 C 1275.58 5.2588 0.967192 0
M  V30 14116 C 1276.88 5.08052 -1.21164 0
M  V30 14117 H 1278.58 2.83524 -0.962006 0
M  V30 14118 H 1276.12 1.36318 -0.464051 0
M  V30 14119 H 1278.08 4.05464 1.14789 0
M  V30 14120 H 1276.8 2.87725 1.54538 0
M  V30 14121 H 1275.46 3.6387 -0.446557 0
M  V30 14122 H 1275.11 4.70064 1.79022 0
M  V30 14123 H 1274.81 5.85726 0.468913 0
M  V30 14124 H 1276.33 5.94397 1.3973 0
M  V30 14125 H 1277.75 5.66853 -0.857373 0
M  V30 14126 H 1276.14 5.77206 -1.64176 0
M  V30 14127 H 1277.21 4.40936 -2.0175 0
M  V30 14128 N 1278.56 0.518393 1.4883 0
M  V30 14129 C 1279.8 -0.019866 2.0209 0
M  V30 14130 C 1280.13 -1.35863 1.3988 0
M  V30 14131 O 1279.4 -1.87722 0.560117 0
M  V30 14132 H 1277.98 -0.0103306 0.746929 0
M  V30 14133 H 1280.64 0.679591 1.82668 0
M  V30 14134 H 1279.73 -0.136749 3.118 0
M  V30 14135 N 1280.03 -1.55556 0.252993 0
M  V30 14136 C 1280.98 -2.23035 -0.660161 0
M  V30 14137 C 1281.98 -1.21994 -1.17532 0
M  V30 14138 O 1283.18 -1.39989 -1.13151 0
M  V30 14139 H 1279.56 -0.715516 -0.23139 0
M  V30 14140 H 1281.53 -2.98323 -0.0679506 0
M  V30 14141 C 1280.28 -2.94817 -1.84332 0
M  V30 14142 H 1279.6 -3.72342 -1.45607 0
M  V30 14143 H 1281.04 -3.45386 -2.45936 0
M  V30 14144 C 1279.5 -1.99033 -2.71822 0
M  V30 14145 O 1280.03 -1.5273 -3.71533 0
M  V30 14146 N 1278.24 -1.66004 -2.38518 0
M  V30 14147 H 1277.78 -2.03853 -1.57485 0
M  V30 14148 H 1277.74 -1.02183 -2.97331 0
M  V30 14149 N 1281.51 0.0200419 -1.57587 0
M  V30 14150 C 1282.44 1.0456 -2.0396 0
M  V30 14151 C 1283.46 1.31922 -0.953962 0
M  V30 14152 O 1284.65 1.2925 -1.23112 0
M  V30 14153 C 1281.75 2.38514 -2.40758 0
M  V30 14154 C 1280.92 2.3038 -3.71812 0
M  V30 14155 C 1279.98 3.46856 -3.95698 0
M  V30 14156 O 1279 3.25944 -4.66636 0
M  V30 14157 N 1280.21 4.69033 -3.42036 0
M  V30 14158 H 1282.97 0.650282 -2.9256 0
M  V30 14159 H 1280.53 0.207818 -1.60561 0
M  V30 14160 H 1282.52 3.15172 -2.53868 0
M  V30 14161 H 1281.09 2.69859 -1.57781 0
M  V30 14162 H 1280.31 1.38762 -3.6897 0
M  V30 14163 H 1281.6 2.22097 -4.57767 0
M  V30 14164 H 1281 4.88923 -2.84553 0
M  V30 14165 H 1279.56 5.43025 -3.6051 0
M  V30 14166 N 1282.99 1.54862 0.292472 0
M  V30 14167 C 1284.24 1.75735 1.02415 0
M  V30 14168 C 1284.59 0.541197 1.84632 0
M  V30 14169 O 1283.88 -0.466345 1.85838 0
M  V30 14170 C 1284.08 2.99214 1.95463 0
M  V30 14171 C 1283.91 4.32722 1.22401 0
M  V30 14172 C 1282.68 4.96334 0.947659 0
M  V30 14173 C 1284.88 5.10499 0.62416 0
M  V30 14174 N 1282.86 6.13611 0.188198 0
M  V30 14175 C 1284.23 6.2 -0.00210199 0
M  V30 14176 C 1286.28 4.9507 0.530059 0
M  V30 14177 C 1284.99 7.15754 -0.713371 0
M  V30 14178 C 1287.01 5.91163 -0.167575 0
M  V30 14179 C 1286.37 7.00039 -0.782653 0
M  V30 14180 H 1282.47 0.695548 0.357403 0
M  V30 14181 H 1285.06 1.92346 0.301849 0
M  V30 14182 H 1283.23 2.84013 2.64936 0
M  V30 14183 H 1284.96 3.08575 2.61846 0
M  V30 14184 H 1281.72 4.56861 1.24799 0
M  V30 14185 H 1282.14 6.76765 -0.178295 0
M  V30 14186 H 1286.78 4.11015 0.991288 0
M  V30 14187 H 1284.5 7.99344 -1.18634 0
M  V30 14188 H 1288.09 5.81303 -0.240442 0
M  V30 14189 H 1286.97 7.73115 -1.31389 0
M  V30 14190 N 1284.47 -0.556076 1.47464 0
M  V30 14191 C 1285.72 -1.30955 1.53407 0
M  V30 14192 C 1286.03 -1.94559 0.201485 0
M  V30 14193 O 1287.24 -2.71144 0.138925 0
M  V30 14194 C 1285.69 -2.37476 2.70431 0
M  V30 14195 C 1285.3 -1.80057 4.10224 0
M  V30 14196 C 1287.04 -3.13997 2.85668 0
M  V30 14197 C 1284.95 -2.84365 5.18547 0
M  V30 14198 H 1283.88 -0.4924 0.571015 0
M  V30 14199 H 1286.53 -0.590459 1.73741 0
M  V30 14200 H 1284.91 -3.12304 2.43479 0
M  V30 14201 H 1286.09 -1.11593 4.47083 0
M  V30 14202 H 1284.4 -1.16116 3.99882 0
M  V30 14203 H 1287 -3.91892 3.63764 0
M  V30 14204 H 1287.34 -3.68253 1.94153 0
M  V30 14205 H 1287.88 -2.46281 3.12395 0
M  V30 14206 H 1284.62 -2.34963 6.11942 0
M  V30 14207 H 1284.14 -3.51235 4.86203 0
M  V30 14208 H 1285.81 -3.47836 5.45545 0
M  V30 14209 N 1285.95 -1.35615 -0.802897 0
M  V30 14210 C 1286.9 -1.28877 -1.93632 0
M  V30 14211 C 1287.89 -0.183014 -1.68408 0
M  V30 14212 O 1289.1 -0.349218 -1.7658 0
M  V30 14213 H 1285.47 -0.400883 -0.636236 0
M  V30 14214 H 1287.44 -2.24624 -1.96435 0
M  V30 14215 C 1286.19 -1.08136 -3.30457 0
M  V30 14216 H 1285.51 -1.92463 -3.50426 0
M  V30 14217 H 1286.95 -1.07464 -4.10155 0
M  V30 14218 C 1285.41 0.214635 -3.36216 0
M  V30 14219 O 1285.94 1.20916 -3.8307 0
M  V30 14220 N 1284.15 0.25468 -2.89482 0
M  V30 14221 H 1283.7 -0.555239 -2.51545 0
M  V30 14222 H 1283.65 1.12152 -2.93716 0
M  V30 14223 N 1287.43 1.02549 -1.19673 0
M  V30 14224 C 1288.66 1.79363 -1.02531 0
M  V30 14225 C 1289.06 1.84274 0.42893 0
M  V30 14226 O 1288.41 1.28813 1.30969 0
M  V30 14227 C 1288.47 3.2567 -1.52248 0
M  V30 14228 C 1288.13 3.44386 -3.00412 0
M  V30 14229 C 1289.13 3.34329 -3.98146 0
M  V30 14230 C 1286.81 3.70491 -3.39178 0
M  V30 14231 C 1288.81 3.50106 -5.3264 0
M  V30 14232 C 1286.5 3.85912 -4.7383 0
M  V30 14233 C 1287.49 3.75723 -5.70369 0
M  V30 14234 O 1287.18 3.90685 -7.02581 0
M  V30 14235 H 1286.91 0.571194 -0.361544 0
M  V30 14236 H 1289.47 1.30029 -1.59002 0
M  V30 14237 H 1287.7 3.76044 -0.901548 0
M  V30 14238 H 1289.39 3.8409 -1.31262 0
M  V30 14239 H 1290.15 3.14109 -3.69541 0
M  V30 14240 H 1286.03 3.77513 -2.64585 0
M  V30 14241 H 1289.58 3.42069 -6.07976 0
M  V30 14242 H 1285.47 4.05631 -5.02129 0
M  V30 14243 H 1286.24 4.07756 -7.09702 0
M  V30 14244 N 1288.9 1.00119 1.21713 0
M  V30 14245 C 1290.15 0.67713 1.89994 0
M  V30 14246 C 1290.47 -0.795149 1.78709 0
M  V30 14247 O 1291.67 -1.23113 2.41982 0
M  V30 14248 C 1290.13 1.16065 3.40671 0
M  V30 14249 C 1289.74 2.65874 3.60576 0
M  V30 14250 C 1291.48 0.911302 4.14603 0
M  V30 14251 C 1289.39 3.07785 5.04997 0
M  V30 14252 H 1288.32 0.249572 0.711498 0
M  V30 14253 H 1290.97 1.21185 1.37792 0
M  V30 14254 H 1289.35 0.554005 3.92106 0
M  V30 14255 H 1290.52 3.31954 3.19598 0
M  V30 14256 H 1288.84 2.88781 2.99991 0
M  V30 14257 H 1291.44 1.20004 5.2106 0
M  V30 14258 H 1291.78 -0.152495 4.16021 0
M  V30 14259 H 1292.31 1.48055 3.69222 0
M  V30 14260 H 1289.05 4.13376 5.08724 0
M  V30 14261 H 1288.57 2.46414 5.46846 0
M  V30 14262 H 1290.25 2.99552 5.73479 0
M  V30 14263 N 1290.38 -1.37203 0.775435 0
M  V30 14264 C 1291.61 -2.04396 0.351737 0
M  V30 14265 C 1292.03 -1.58099 -1.01913 0
M  V30 14266 O 1291.39 -0.742932 -1.65379 0
M  V30 14267 C 1291.44 -3.58283 0.408105 0
M  V30 14268 O 1290.54 -4.08156 -0.590104 0
M  V30 14269 H 1289.88 -0.646451 0.151647 0
M  V30 14270 H 1292.41 -1.75443 1.05265 0
M  V30 14271 H 1292.42 -4.07127 0.266711 0
M  V30 14272 H 1291.1 -3.91335 1.40819 0
M  V30 14273 H 1289.67 -3.70622 -0.411524 0
M  V30 14274 N 1291.86 -0.526279 -1.48553 0
M  V30 14275 C 1293.11 0.0091665 -2.02498 0
M  V30 14276 C 1293.43 1.34632 -1.40373 0
M  V30 14277 O 1292.69 1.88172 -0.537573 0
M  V30 14278 C 1292.99 0.184075 -3.56926 0
M  V30 14279 C 1292.65 -1.07825 -4.37818 0
M  V30 14280 C 1291.32 -1.42422 -4.59641 0
M  V30 14281 C 1293.67 -1.91616 -4.84699 0
M  V30 14282 C 1291 -2.60713 -5.25591 0
M  V30 14283 C 1293.35 -3.09082 -5.51952 0
M  V30 14284 C 1292.01 -3.44029 -5.72014 0
M  V30 14285 H 1291.28 0.00335426 -0.740992 0
M  V30 14286 H 1293.93 -0.691553 -1.78577 0
M  V30 14287 H 1292.23 0.967532 -3.79666 0
M  V30 14288 H 1293.93 0.613226 -3.96283 0
M  V30 14289 H 1290.52 -0.798812 -4.2109 0
M  V30 14290 H 1294.71 -1.66199 -4.67645 0
M  V30 14291 H 1289.96 -2.87996 -5.39322 0
M  V30 14292 H 1294.14 -3.74317 -5.87247 0
M  V30 14293 H 1291.76 -4.35789 -6.2289 0
M  V30 14294 N 1293.34 1.5542 -0.261239 0
M  V30 14295 C 1294.58 2.0119 0.360848 0
M  V30 14296 C 1294.94 1.14558 1.5408 0
M  V30 14297 O 1296.14 1.49846 2.23158 0
M  V30 14298 C 1294.41 3.49513 0.74668 0
M  V30 14299 S 1295.97 4.17281 1.35726 0
M  V30 14300 H 1292.79 0.701978 0.112903 0
M  V30 14301 H 1295.39 1.91775 -0.379829 0
M  V30 14302 H 1294.1 4.10221 -0.121172 0
M  V30 14303 H 1293.63 3.62884 1.51917 0
M  V30 14304 H 1295.64 4.19756 2.64612 0
M  V30 14305 N 1294.82 -0.0116844 1.57596 0
M  V30 14306 C 1296.06 -0.697577 1.89679 0
M  V30 14307 C 1296.38 -1.74956 0.861122 0
M  V30 14308 O 1295.65 -1.95629 -0.103031 0
M  V30 14309 H 1294.23 -0.26064 0.700054 0
M  V30 14310 H 1296.9 0.0264782 1.94882 0
M  V30 14311 H 1295.99 -1.17621 2.89088 0
M  V30 14312 N 1296.29 -1.55015 -0.284256 0
M  V30 14313 C 1297.22 -1.90128 -1.3555 0
M  V30 14314 C 1298.2 -0.761914 -1.52082 0
M  V30 14315 O 1299.39 -1.01909 -1.65312 0
M  V30 14316 C 1296.52 -2.16332 -2.71695 0
M  V30 14317 C 1295.47 -3.32166 -2.69907 0
M  V30 14318 C 1294.8 -3.43824 -4.09498 0
M  V30 14319 C 1296.1 -4.6885 -2.30168 0
M  V30 14320 H 1297.79 -2.79852 -1.06411 0
M  V30 14321 H 1295.34 -1.34649 -0.510451 0
M  V30 14322 H 1297.29 -2.39482 -3.46737 0
M  V30 14323 H 1296.02 -1.23395 -3.02392 0
M  V30 14324 H 1294.68 -3.08965 -1.97322 0
M  V30 14325 H 1294.32 -2.48375 -4.374 0
M  V30 14326 H 1294.02 -4.21698 -4.092 0
M  V30 14327 H 1295.55 -3.69254 -4.86296 0
M  V30 14328 H 1296.96 -4.91619 -2.9493 0
M  V30 14329 H 1295.36 -5.49558 -2.41052 0
M  V30 14330 H 1296.43 -4.68433 -1.25294 0
M  V30 14331 N 1297.77 0.548248 -1.47757 0
M  V30 14332 C 1299.19 0.875048 -1.33473 0
M  V30 14333 C 1299.39 1.98747 -0.331952 0
M  V30 14334 O 1298.44 2.51226 0.253348 0
M  V30 14335 C 1299.76 1.25982 -2.73037 0
M  V30 14336 C 1301.3 1.37074 -2.81389 0
M  V30 14337 C 1301.78 1.78902 -4.21613 0
M  V30 14338 N 1303.27 1.86037 -4.24198 0
M  V30 14339 C 1304.01 2.1975 -5.2962 0
M  V30 14340 N 1303.5 2.52013 -6.45338 0
M  V30 14341 N 1305.29 2.206 -5.17003 0
M  V30 14342 H 1297.45 -0.186033 -2.11584 0
M  V30 14343 H 1299.71 -0.0205687 -0.947777 0
M  V30 14344 H 1299.41 0.516188 -3.47891 0
M  V30 14345 H 1299.29 2.21402 -3.05387 0
M  V30 14346 H 1301.68 2.10517 -2.06801 0
M  V30 14347 H 1301.76 0.398193 -2.52682 0
M  V30 14348 H 1301.4 1.06026 -4.9671 0
M  V30 14349 H 1301.33 2.77176 -4.47751 0
M  V30 14350 H 1303.82 1.63455 -3.40721 0
M  V30 14351 H 1304.13 2.7679 -7.21531 0
M  V30 14352 H 1302.48 2.49573 -6.48643 0
M  V30 14353 H 1305.67 1.9484 -4.25623 0
M  V30 14354 H 1305.84 2.46543 -5.99267 0
M  V30 14355 N 1299.25 1.36039 0.795694 0
M  V30 14356 C 1300.48 1.33059 1.58439 0
M  V30 14357 C 1300.89 -0.0895496 1.88588 0
M  V30 14358 O 1300.25 -1.04466 1.49643 0
M  V30 14359 C 1300.3 2.14594 2.90915 0
M  V30 14360 O 1300.02 3.51072 2.62069 0
M  V30 14361 C 1301.52 2.19324 3.85242 0
M  V30 14362 H 1298.74 0.456668 0.491625 0
M  V30 14363 H 1301.29 1.79048 0.988035 0
M  V30 14364 H 1299.44 1.72177 3.47036 0
M  V30 14365 H 1299.86 3.93545 3.46732 0
M  V30 14366 H 1301.33 2.80744 4.75276 0
M  V30 14367 H 1301.81 1.19496 4.22631 0
M  V30 14368 H 1302.41 2.6195 3.35056 0
M  V30 14369 N 1300.73 -1.01913 1.20215 0
M  V30 14370 C 1301.68 -2.08774 0.916367 0
M  V30 14371 C 1302.66 -1.60431 -0.122796 0
M  V30 14372 O 1303.85 -1.76799 0.0842336 0
M  V30 14373 C 1300.98 -3.40102 0.467517 0
M  V30 14374 C 1300.07 -3.95153 1.53997 0
M  V30 14375 N 1300.46 -4.23745 2.76178 0
M  V30 14376 C 1298.76 -4.23274 1.40554 0
M  V30 14377 C 1299.46 -4.681 3.45336 0
M  V30 14378 N 1298.44 -4.70224 2.72745 0
M  V30 14379 H 1302.24 -2.28786 1.84484 0
M  V30 14380 H 1299.75 -1.19861 1.09577 0
M  V30 14381 H 1301.75 -4.16184 0.244195 0
M  V30 14382 H 1300.41 -3.21505 -0.454358 0
M  V30 14383 H 1301.42 -4.12728 3.12852 0
M  V30 14384 H 1298.1 -4.1389 0.547877 0
M  V30 14385 H 1299.49 -4.99063 4.49873 0
M  V30 14386 N 1302.21 -1.00763 -1.2118 0
M  V30 14387 C 1303.17 -0.575183 -2.21865 0
M  V30 14388 C 1304.17 0.349871 -1.56948 0
M  V30 14389 O 1305.36 0.139795 -1.73638 0
M  V30 14390 C 1302.49 0.161308 -3.40518 0
M  V30 14391 H 1303.68 -1.46578 -2.61639 0
M  V30 14392 H 1301.24 -0.79643 -1.34487 0
M  V30 14393 H 1301.97 1.06723 -3.06236 0
M  V30 14394 H 1301.76 -0.503101 -3.88859 0
M  V30 14395 H 1303.25 0.451527 -4.15152 0
M  V30 14396 N 1303.68 1.3679 -0.7827 0
M  V30 14397 C 1304.59 2.33928 -0.17747 0
M  V30 14398 C 1305.61 1.60716 0.666802 0
M  V30 14399 O 1306.79 1.92742 0.584162 0
M  V30 14400 C 1303.85 3.39907 0.68294 0
M  V30 14401 C 1302.91 4.28926 -0.179053 0
M  V30 14402 C 1302.15 5.29844 0.640386 0
M  V30 14403 O 1302.37 5.38639 1.87681 0
M  V30 14404 O 1301.3 6.01884 0.0438164 0
M  V30 14405 H 1305.13 2.87439 -0.980441 0
M  V30 14406 H 1302.71 1.39142 -0.54404 0
M  V30 14407 H 1304.6 4.04722 1.17379 0
M  V30 14408 H 1303.27 2.88706 1.46391 0
M  V30 14409 H 1302.18 3.67174 -0.716512 0
M  V30 14410 H 1303.51 4.83461 -0.923377 0
M  V30 14411 N 1305.16 0.53415 1.48272 0
M  V30 14412 C 1306.09 -0.215037 2.32508 0
M  V30 14413 C 1307.07 -0.931083 1.42355 0
M  V30 14414 O 1308.26 -0.916051 1.71237 0
M  V30 14415 C 1305.39 -1.25985 3.23643 0
M  V30 14416 C 1304.34 -0.661692 4.22854 0
M  V30 14417 C 1303.67 -1.80946 5.03153 0
M  V30 14418 C 1304.97 0.369358 5.20992 0
M  V30 14419 H 1306.66 0.488158 2.95394 0
M  V30 14420 H 1304.21 0.236206 1.4205 0
M  V30 14421 H 1306.16 -1.79195 3.81402 0
M  V30 14422 H 1304.89 -1.99268 2.58766 0
M  V30 14423 H 1303.54 -0.151082 3.66289 0
M  V30 14424 H 1303.19 -2.53077 4.34696 0
M  V30 14425 H 1302.89 -1.41513 5.70305 0
M  V30 14426 H 1304.42 -2.34526 5.63764 0
M  V30 14427 H 1305.83 -0.0758076 5.7325 0
M  V30 14428 H 1304.23 0.681301 5.9622 0
M  V30 14429 H 1305.3 1.27363 4.67875 0
M  V30 14430 N 1306.64 -1.55279 0.269478 0
M  V30 14431 C 1307.55 -2.25965 -0.63065 0
M  V30 14432 C 1308.57 -1.28357 -1.17476 0
M  V30 14433 O 1309.74 -1.61281 -1.20625 0
M  V30 14434 C 1306.81 -2.96263 -1.80081 0
M  V30 14435 C 1305.87 -4.09336 -1.29394 0
M  V30 14436 C 1305.1 -4.76272 -2.40833 0
M  V30 14437 O 1305.32 -4.42389 -3.60066 0
M  V30 14438 O 1304.26 -5.64334 -2.09309 0
M  V30 14439 H 1308.08 -3.03644 -0.0582069 0
M  V30 14440 H 1305.67 -1.49354 0.0370966 0
M  V30 14441 H 1307.55 -3.40461 -2.48322 0
M  V30 14442 H 1306.23 -2.21505 -2.36045 0
M  V30 14443 H 1305.13 -3.69605 -0.578154 0
M  V30 14444 H 1306.47 -4.85978 -0.780117 0
M  V30 14445 N 1308.12 0.00332656 -1.576 0
M  V30 14446 C 1309.37 0.687508 -1.90047 0
M  V30 14447 C 1309.69 1.74497 -0.870388 0
M  V30 14448 O 1308.96 1.95681 0.0926544 0
M  V30 14449 H 1307.54 0.256924 -0.701426 0
M  V30 14450 H 1310.2 -0.0368129 -1.94865 0
M  V30 14451 H 1309.3 1.16086 -2.89707 0
M  V30 14452 N 1309.6 1.55164 0.276031 0
M  V30 14453 C 1310.54 1.88623 1.36104 0
M  V30 14454 C 1311.54 0.762265 1.51281 0
M  V30 14455 O 1312.74 0.946573 1.53101 0
M  V30 14456 H 1309.12 0.59863 0.455133 0
M  V30 14457 H 1311.09 2.79266 1.05134 0
M  V30 14458 C 1309.84 2.17207 2.71508 0
M  V30 14459 H 1309.16 3.03179 2.6062 0
M  V30 14460 H 1310.6 2.44541 3.46375 0
M  V30 14461 C 1309.06 0.978671 3.22372 0
M  V30 14462 O 1309.59 0.211766 4.01141 0
M  V30 14463 N 1307.8 0.777199 2.80014 0
M  V30 14464 H 1307.34 1.40252 2.16072 0
M  V30 14465 H 1307.3 -0.0196754 3.14394 0
M  V30 14466 N 1311.07 -0.540404 1.48045 0
M  V30 14467 C 1312 -1.65538 1.6468 0
M  V30 14468 C 1312.99 -1.62713 0.495847 0
M  V30 14469 O 1314.17 -1.80072 0.727172 0
M  V30 14470 C 1311.3 -3.0415 1.67661 0
M  V30 14471 C 1310.25 -3.2183 2.82152 0
M  V30 14472 C 1309.58 -4.61397 2.70216 0
M  V30 14473 C 1310.88 -3.05596 4.23567 0
M  V30 14474 H 1312.57 -1.51873 2.58021 0
M  V30 14475 H 1310.12 -0.729208 1.24171 0
M  V30 14476 H 1312.07 -3.82013 1.77887 0
M  V30 14477 H 1310.8 -3.18814 0.708907 0
M  V30 14478 H 1309.46 -2.4638 2.71463 0
M  V30 14479 H 1309.1 -4.72883 1.71437 0
M  V30 14480 H 1308.8 -4.74174 3.47035 0
M  V30 14481 H 1310.33 -5.41374 2.82395 0
M  V30 14482 H 1311.74 -3.73261 4.35143 0
M  V30 14483 H 1310.14 -3.29871 5.01303 0
M  V30 14484 H 1311.21 -2.0214 4.40758 0
M  V30 14485 N 1312.55 -1.36459 -0.788468 0
M  V30 14486 C 1313.8 -1.30935 -1.54867 0
M  V30 14487 C 1314.13 0.110916 -1.93883 0
M  V30 14488 O 1313.41 1.06452 -1.62783 0
M  V30 14489 C 1313.69 -2.23294 -2.8251 0
M  V30 14490 C 1313.54 -3.74022 -2.49856 0
M  V30 14491 C 1314.86 -2.14407 -3.84341 0
M  V30 14492 H 1311.98 -0.476958 -0.561854 0
M  V30 14493 H 1314.62 -1.67018 -0.905805 0
M  V30 14494 H 1312.77 -1.92652 -3.37369 0
M  V30 14495 H 1314.44 -4.15187 -2.01041 0
M  V30 14496 H 1312.69 -3.93411 -1.82785 0
M  V30 14497 H 1313.36 -4.34057 -3.41026 0
M  V30 14498 H 1315.83 -2.41381 -3.38932 0
M  V30 14499 H 1314.71 -2.81199 -4.71401 0
M  V30 14500 H 1314.97 -1.13166 -4.27371 0
M  V30 14501 N 1314.03 1.01274 -1.20754 0
M  V30 14502 C 1315.26 1.78524 -1.04579 0
M  V30 14503 C 1315.67 1.84409 0.404809 0
M  V30 14504 O 1315.03 1.29987 1.281 0
M  V30 14505 C 1315.08 3.22806 -1.62722 0
M  V30 14506 O 1314.8 3.17276 -3.02106 0
M  V30 14507 C 1316.3 4.16589 -1.51553 0
M  V30 14508 H 1313.52 0.561299 -0.367674 0
M  V30 14509 H 1316.07 1.27454 -1.59924 0
M  V30 14510 H 1314.22 3.71011 -1.11487 0
M  V30 14511 H 1314.64 4.07866 -3.29766 0
M  V30 14512 H 1316.11 5.15654 -1.9699 0
M  V30 14513 H 1316.59 4.36692 -0.468659 0
M  V30 14514 H 1317.19 3.74269 -2.01998 0
M  V30 14515 N 1315.51 1.01404 1.20644 0
M  V30 14516 C 1316.42 0.591693 2.27016 0
M  V30 14517 C 1317.44 -0.36958 1.7003 0
M  V30 14518 O 1318.61 -0.231165 2.00069 0
M  V30 14519 C 1315.68 -0.0659827 3.46637 0
M  V30 14520 C 1314.74 0.940911 4.18862 0
M  V30 14521 C 1313.97 0.314526 5.32772 0
M  V30 14522 O 1314.19 -0.886404 5.63471 0
M  V30 14523 O 1313.13 1.02998 5.93022 0
M  V30 14524 H 1316.95 1.4772 2.65353 0
M  V30 14525 H 1314.54 0.783399 1.27213 0
M  V30 14526 H 1316.42 -0.433412 4.19165 0
M  V30 14527 H 1315.1 -0.925729 3.10181 0
M  V30 14528 H 1314 1.35966 3.48517 0
M  V30 14529 H 1315.34 1.77054 4.59252 0
M  V30 14530 N 1316.99 -1.36373 0.789944 0
M  V30 14531 C 1317.92 -2.32616 0.202944 0
M  V30 14532 C 1318.9 -1.56674 -0.662364 0
M  V30 14533 O 1320.08 -1.84826 -0.596078 0
M  V30 14534 C 1317.21 -3.4092 -0.662646 0
M  V30 14535 C 1316.17 -4.27877 0.102811 0
M  V30 14536 C 1315.49 -5.27352 -0.883407 0
M  V30 14537 C 1316.79 -5.0606 1.29231 0
M  V30 14538 H 1318.49 -2.81958 1.00699 0
M  V30 14539 H 1316.03 -1.35562 0.48568 0
M  V30 14540 H 1317.99 -4.07239 -1.08324 0
M  V30 14541 H 1316.71 -2.90147 -1.4994 0
M  V30 14542 H 1315.37 -3.63114 0.504389 0
M  V30 14543 H 1315.02 -4.72853 -1.71521 0
M  V30 14544 H 1314.72 -5.86398 -0.375669 0
M  V30 14545 H 1316.24 -5.96545 -1.30256 0
M  V30 14546 H 1317.66 -5.65417 0.947446 0
M  V30 14547 H 1316.05 -5.74521 1.73338 0
M  V30 14548 H 1317.12 -4.37671 2.08739 0
M  V30 14549 N 1318.47 -0.542005 -1.47987 0
M  V30 14550 C 1319.71 -0.010246 -2.01697 0
M  V30 14551 C 1320.03 1.34173 -1.42327 0
M  V30 14552 O 1321.23 1.96254 -1.87607 0
M  V30 14553 C 1319.69 0.0321032 -3.59886 0
M  V30 14554 C 1319.3 -1.31571 -4.28244 0
M  V30 14555 C 1321.04 0.512056 -4.214 0
M  V30 14556 C 1318.95 -1.23329 -5.78398 0
M  V30 14557 H 1317.88 -6.02097e-05 -0.754 0
M  V30 14558 H 1320.53 -0.687586 -1.70131 0
M  V30 14559 H 1318.91 0.774774 -3.88347 0
M  V30 14560 H 1320.09 -2.07489 -4.11442 0
M  V30 14561 H 1318.4 -1.73237 -3.78653 0
M  V30 14562 H 1321 0.591875 -5.31414 0
M  V30 14563 H 1321.34 1.52061 -3.87535 0
M  V30 14564 H 1321.87 -0.175293 -3.97414 0
M  V30 14565 H 1318.61 -2.21737 -6.16857 0
M  V30 14566 H 1318.13 -0.51567 -5.97579 0
M  V30 14567 H 1319.81 -0.928975 -6.40296 0
M  V30 14568 N 1319.94 1.55134 -0.277709 0
M  V30 14569 C 1321.17 2.03765 0.341106 0
M  V30 14570 C 1321.58 1.15543 1.49822 0
M  V30 14571 O 1320.92 0.168642 1.82924 0
M  V30 14572 C 1320.99 3.48513 0.881974 0
M  V30 14573 C 1320.65 4.56764 -0.146837 0
M  V30 14574 C 1321.65 5.10823 -0.967252 0
M  V30 14575 C 1319.33 5.01509 -0.281824 0
M  V30 14576 C 1321.33 6.08147 -1.90882 0
M  V30 14577 C 1319.01 5.98658 -1.22686 0
M  V30 14578 C 1320.01 6.51859 -2.03886 0
M  V30 14579 O 1319.7 7.47108 -2.96791 0
M  V30 14580 H 1319.43 0.671068 0.0815052 0
M  V30 14581 H 1321.99 2.013 -0.408341 0
M  V30 14582 H 1320.22 3.48226 1.68154 0
M  V30 14583 H 1321.9 3.80469 1.41416 0
M  V30 14584 H 1322.67 4.77065 -0.873714 0
M  V30 14585 H 1318.55 4.59743 0.340203 0
M  V30 14586 H 1322.09 6.49597 -2.54301 0
M  V30 14587 H 1317.99 6.31834 -1.32121 0
M  V30 14588 H 1318.76 7.64832 -2.91502 0
M  V30 14589 N 1321.42 0.00503138 1.57599 0
M  V30 14590 C 1322.67 -0.679766 1.91068 0
M  V30 14591 C 1323 -1.73144 0.879486 0
M  V30 14592 O 1322.28 -1.94237 -0.101116 0
M  V30 14593 C 1322.56 -1.3183 3.35101 0
M  V30 14594 C 1322.41 -0.277833 4.48941 0
M  V30 14595 C 1323.73 -2.24308 3.78647 0
M  V30 14596 H 1320.85 -0.245646 0.694857 0
M  V30 14597 H 1323.49 0.057357 1.89913 0
M  V30 14598 H 1321.64 -1.94657 3.36216 0
M  V30 14599 H 1323.31 0.351136 4.59962 0
M  V30 14600 H 1321.56 0.399365 4.31958 0
M  V30 14601 H 1322.23 -0.763759 5.46691 0
M  V30 14602 H 1324.7 -1.71494 3.79116 0
M  V30 14603 H 1323.58 -2.6595 4.80169 0
M  V30 14604 H 1323.84 -3.12427 3.12797 0
M  V30 14605 N 1322.9 -1.55308 -0.267798 0
M  V30 14606 C 1323.85 -1.84933 -1.33356 0
M  V30 14607 C 1324.83 -0.708605 -1.44456 0
M  V30 14608 O 1326.03 -0.970069 -1.4805 0
M  V30 14609 C 1323.15 -2.12927 -2.69289 0
M  V30 14610 C 1322.24 -3.33273 -2.62279 0
M  V30 14611 N 1322.63 -4.53055 -2.24889 0
M  V30 14612 C 1320.93 -3.35966 -2.93331 0
M  V30 14613 C 1321.63 -5.35156 -2.27998 0
M  V30 14614 N 1320.61 -4.73692 -2.66677 0
M  V30 14615 H 1324.41 -2.75086 -1.03465 0
M  V30 14616 H 1321.92 -1.55254 -0.476435 0
M  V30 14617 H 1323.92 -2.32309 -3.46177 0
M  V30 14618 H 1322.58 -1.24061 -3.00065 0
M  V30 14619 H 1323.59 -4.79059 -1.9678 0
M  V30 14620 H 1320.27 -2.57308 -3.28784 0
M  V30 14621 H 1321.66 -6.4094 -2.01608 0
M  V30 14622 N 1324.38 0.532545 -1.4833 0
M  V30 14623 C 1325.6 1.31809 -1.60129 0
M  V30 14624 C 1326.03 1.86283 -0.260807 0
M  V30 14625 O 1325.39 1.6427 0.767137 0
M  V30 14626 C 1325.43 2.44661 -2.64903 0
M  V30 14627 O 1324.54 3.47622 -2.21885 0
M  V30 14628 H 1323.88 0.390492 -0.53704 0
M  V30 14629 H 1326.41 0.641068 -1.94297 0
M  V30 14630 H 1326.42 2.90883 -2.86096 0
M  V30 14631 H 1325.09 2.04373 -3.62222 0
M  V30 14632 H 1323.67 3.07536 -2.10894 0
M  V30 14633 N 1325.86 1.36875 0.78122 0
M  V30 14634 C 1326.8 1.31869 1.89418 0
M  V30 14635 C 1327.77 0.185904 1.65056 0
M  V30 14636 O 1328.96 0.373745 1.87104 0
M  V30 14637 C 1326.1 1.12205 3.2635 0
M  V30 14638 C 1325.21 2.34631 3.62729 0
M  V30 14639 C 1324.35 2.07914 4.8882 0
M  V30 14640 C 1323.38 3.26257 5.17902 0
M  V30 14641 N 1322.52 2.99152 6.35179 0
M  V30 14642 H 1327.36 2.2703 1.93032 0
M  V30 14643 H 1324.9 1.12826 0.943857 0
M  V30 14644 H 1326.86 0.988282 4.05326 0
M  V30 14645 H 1325.49 0.206959 3.22136 0
M  V30 14646 H 1324.54 2.58782 2.78812 0
M  V30 14647 H 1325.85 3.22919 3.80164 0
M  V30 14648 H 1325 1.91514 5.7568 0
M  V30 14649 H 1323.74 1.1695 4.7347 0
M  V30 14650 H 1322.75 3.43207 4.29522 0
M  V30 14651 H 1323.97 4.1806 5.35166 0
M  V30 14652 H 1321.92 2.10807 6.21205 0
M  V30 14653 H 1321.84 3.80981 6.52985 0
M  V30 14654 H 1323.1 2.86349 7.25 0
M  V30 14655 N 1327.33 -1.00632 1.21289 0
M  V30 14656 C 1328.26 -2.11238 0.995021 0
M  V30 14657 C 1329.24 -1.69914 -0.0795537 0
M  V30 14658 O 1330.43 -1.94035 0.0800152 0
M  V30 14659 C 1327.56 -3.42797 0.557475 0
M  V30 14660 C 1326.51 -3.97909 1.57646 0
M  V30 14661 C 1325.84 -5.25357 0.995197 0
M  V30 14662 C 1327.14 -4.30123 2.96297 0
M  V30 14663 H 1328.83 -2.29722 1.9201 0
M  V30 14664 H 1326.38 -1.10395 0.924602 0
M  V30 14665 H 1328.33 -4.19571 0.392236 0
M  V30 14666 H 1327.06 -3.24101 -0.403253 0
M  V30 14667 H 1325.72 -3.23254 1.72924 0
M  V30 14668 H 1325.36 -5.02993 0.026227 0
M  V30 14669 H 1325.06 -5.63196 1.67583 0
M  V30 14670 H 1326.59 -6.04777 0.841251 0
M  V30 14671 H 1328 -4.97744 2.8447 0
M  V30 14672 H 1326.4 -4.79101 3.61361 0
M  V30 14673 H 1327.47 -3.38454 3.47242 0
M  V30 14674 N 1328.81 -1.02043 -1.20104 0
M  V30 14675 C 1329.74 -0.614421 -2.25271 0
M  V30 14676 C 1330.72 0.37242 -1.65973 0
M  V30 14677 O 1331.91 0.257005 -1.92492 0
M  V30 14678 C 1329.04 0.0442085 -3.47272 0
M  V30 14679 C 1327.99 -0.864019 -4.19188 0
M  V30 14680 C 1327.32 -0.0709551 -5.34653 0
M  V30 14681 C 1328.62 -2.17385 -4.74912 0
M  V30 14682 H 1330.31 -1.49355 -2.59487 0
M  V30 14683 H 1327.86 -0.719591 -1.24731 0
M  V30 14684 H 1329.81 0.339825 -4.20028 0
M  V30 14685 H 1328.53 0.958082 -3.12231 0
M  V30 14686 H 1327.19 -1.1437 -3.48303 0
M  V30 14687 H 1326.84 0.844688 -4.95857 0
M  V30 14688 H 1326.54 -0.67583 -5.83701 0
M  V30 14689 H 1328.07 0.218118 -6.1021 0
M  V30 14690 H 1329.48 -1.94034 -5.39466 0
M  V30 14691 H 1327.88 -2.72991 -5.34412 0
M  V30 14692 H 1328.95 -2.83427 -3.93443 0
M  V30 14693 N 1330.29 1.35952 -0.797165 0
M  V30 14694 C 1331.54 1.98283 -0.369685 0
M  V30 14695 C 1331.85 1.63968 1.06649 0
M  V30 14696 O 1333.06 2.19591 1.59662 0
M  V30 14697 C 1331.51 3.54692 -0.610046 0
M  V30 14698 C 1331.12 3.97925 -2.05814 0
M  V30 14699 C 1332.87 4.23778 -0.247457 0
M  V30 14700 C 1330.77 5.47142 -2.24475 0
M  V30 14701 H 1329.7 0.741909 -0.134489 0
M  V30 14702 H 1332.35 1.55146 -0.979893 0
M  V30 14703 H 1330.74 3.95938 0.0699822 0
M  V30 14704 H 1331.91 3.67857 -2.77521 0
M  V30 14705 H 1330.23 3.417 -2.37971 0
M  V30 14706 H 1332.82 5.33452 -0.365059 0
M  V30 14707 H 1333.17 4.08436 0.805315 0
M  V30 14708 H 1333.7 3.87921 -0.881028 0
M  V30 14709 H 1330.44 5.67441 -3.28163 0
M  V30 14710 H 1329.96 5.78811 -1.57282 0
M  V30 14711 H 1331.64 6.13475 -2.05567 0
M  V30 14712 N 1331.77 0.549846 1.47697 0
M  V30 14713 C 1332.73 -0.191427 2.28399 0
M  V30 14714 C 1333.73 -0.849533 1.36527 0
M  V30 14715 O 1334.92 -0.706526 1.59229 0
M  V30 14716 C 1332.05 -1.27907 3.15995 0
M  V30 14717 H 1333.25 0.517375 2.95404 0
M  V30 14718 H 1330.8 0.30651 1.53265 0
M  V30 14719 H 1331.53 -2.0205 2.53665 0
M  V30 14720 H 1331.32 -0.812066 3.83599 0
M  V30 14721 H 1332.81 -1.79992 3.76819 0
M  V30 14722 N 1333.25 -1.54984 0.285932 0
M  V30 14723 C 1334.52 -1.91872 -0.380083 0
M  V30 14724 C 1334.9 -1.21146 -1.72878 0
M  V30 14725 O 1334.25 -0.341999 -2.25926 0
M  V30 14726 C 1334.46 -3.45258 -0.509667 0
M  V30 14727 C 1335.81 -4.17232 -0.787549 0
M  V30 14728 O 1336.83 -3.51211 -0.594062 0
M  V30 14729 O 1335.69 -5.34085 -1.15826 0
M  V30 14730 H 1332.79 -0.799931 -0.209856 0
M  V30 14731 H 1335.33 -1.66403 0.332882 0
M  V30 14732 H 1334.1 -3.88829 0.439049 0
M  V30 14733 H 1333.73 -3.76715 -1.27168 0
M  V30 14734 N 1334.72 -0.0133892 -1.57594 0
M  V30 14735 C 1336 0.706416 -1.82398 0
M  V30 14736 C 1336.38 1.91236 -0.893983 0
M  V30 14737 O 1335.73 2.28436 0.0541675 0
M  V30 14738 C 1335.94 1.09951 -3.31228 0
M  V30 14739 C 1337.29 1.49776 -3.97306 0
M  V30 14740 O 1338.31 1.19293 -3.3563 0
M  V30 14741 O 1337.17 2.06511 -5.0598 0
M  V30 14742 H 1334.26 0.345131 -0.751541 0
M  V30 14743 H 1336.81 -0.0398687 -1.69653 0
M  V30 14744 H 1335.58 0.240514 -3.9056 0
M  V30 14745 H 1335.21 1.90447 -3.49021 0
M  V30 14746 N 1336.2 1.55448 0.259558 0
M  V30 14747 C 1337.15 1.90056 1.34096 0
M  V30 14748 C 1338.14 0.778267 1.50464 0
M  V30 14749 O 1339.35 0.962758 1.52089 0
M  V30 14750 H 1335.73 0.603424 0.448758 0
M  V30 14751 H 1337.7 2.80365 1.02166 0
M  V30 14752 C 1336.45 2.20074 2.69189 0
M  V30 14753 H 1335.77 3.05926 2.57389 0
M  V30 14754 H 1337.21 2.48201 3.43762 0
M  V30 14755 C 1335.67 1.01281 3.21316 0
M  V30 14756 O 1336.2 0.2543 4.00894 0
M  V30 14757 N 1334.4 0.806855 2.79174 0
M  V30 14758 H 1333.95 1.42536 2.14572 0
M  V30 14759 H 1333.91 0.0136714 3.14397 0
M  V30 14760 N 1337.68 -0.524672 1.4861 0
M  V30 14761 C 1338.91 -1.30482 1.60568 0
M  V30 14762 C 1339.32 -1.86889 0.267952 0
M  V30 14763 O 1338.68 -1.66669 -0.743488 0
M  V30 14764 C 1338.73 -2.45191 2.65638 0
M  V30 14765 O 1338.45 -1.91107 3.9422 0
M  V30 14766 C 1339.95 -3.36931 2.88084 0
M  V30 14767 H 1337.17 -0.396612 0.541239 0
M  V30 14768 H 1339.72 -0.632392 1.94476 0
M  V30 14769 H 1337.87 -3.08308 2.34574 0
M  V30 14770 H 1338.29 -2.66234 4.51907 0
M  V30 14771 H 1339.76 -4.13755 3.65391 0
M  V30 14772 H 1340.24 -3.92487 1.97106 0
M  V30 14773 H 1340.84 -2.79601 3.20473 0
M  V30 14774 N 1339.16 -1.37287 -0.77395 0
M  V30 14775 C 1340.4 -1.3257 -1.5347 0
M  V30 14776 C 1340.74 0.090346 -1.9399 0
M  V30 14777 O 1340.01 1.04719 -1.63903 0
M  V30 14778 C 1340.3 -2.26277 -2.80126 0
M  V30 14779 C 1340.15 -3.76651 -2.45874 0
M  V30 14780 C 1341.47 -2.18471 -3.82045 0
M  V30 14781 H 1338.59 -0.48289 -0.556764 0
M  V30 14782 H 1341.23 -1.6797 -0.888039 0
M  V30 14783 H 1339.38 -1.96219 -3.35306 0
M  V30 14784 H 1341.05 -4.17296 -1.96626 0
M  V30 14785 H 1339.29 -3.95327 -1.78602 0
M  V30 14786 H 1339.96 -4.3765 -3.36403 0
M  V30 14787 H 1342.44 -2.44962 -3.36352 0
M  V30 14788 H 1341.32 -2.86183 -4.68392 0
M  V30 14789 H 1341.58 -1.17692 -4.26147 0
M  V30 14790 N 1340.64 0.999871 -1.21821 0
M  V30 14791 C 1341.89 1.73257 -1.03271 0
M  V30 14792 C 1342.2 1.90736 0.433502 0
M  V30 14793 O 1343.4 2.61263 0.738511 0
M  V30 14794 C 1341.86 3.11697 -1.79925 0
M  V30 14795 C 1341.47 3.02173 -3.3075 0
M  V30 14796 C 1343.21 3.89061 -1.698 0
M  V30 14797 C 1341.12 4.35725 -3.99872 0
M  V30 14798 H 1340.05 0.649595 -0.382809 0
M  V30 14799 H 1342.7 1.11676 -1.45605 0
M  V30 14800 H 1341.08 3.73919 -1.30386 0
M  V30 14801 H 1342.26 2.49158 -3.8763 0
M  V30 14802 H 1340.57 2.38296 -3.41473 0
M  V30 14803 H 1343.17 4.87897 -2.1877 0
M  V30 14804 H 1343.51 4.11081 -0.657148 0
M  V30 14805 H 1344.04 3.33502 -2.16844 0
M  V30 14806 H 1340.78 4.18906 -5.04181 0
M  V30 14807 H 1340.3 4.8868 -3.47781 0
M  V30 14808 H 1341.98 5.04503 -4.05075 0
M  V30 14809 N 1342.11 1.02678 1.19562 0
M  V30 14810 C 1343.36 0.717279 1.88515 0
M  V30 14811 C 1343.68 -0.757063 1.80355 0
M  V30 14812 O 1344.88 -1.17953 2.44539 0
M  V30 14813 C 1343.34 1.23265 3.38133 0
M  V30 14814 C 1342.95 2.73462 3.54856 0
M  V30 14815 C 1344.69 0.99904 4.12577 0
M  V30 14816 C 1342.6 3.18428 4.98355 0
M  V30 14817 H 1341.53 0.264608 0.706044 0
M  V30 14818 H 1344.18 1.2408 1.3519 0
M  V30 14819 H 1342.56 0.637052 3.90842 0
M  V30 14820 H 1343.73 3.38659 3.12485 0
M  V30 14821 H 1342.05 2.95079 2.93798 0
M  V30 14822 H 1344.65 1.3103 5.18397 0
M  V30 14823 H 1344.99 -0.064217 4.1625 0
M  V30 14824 H 1345.52 1.55853 3.65998 0
M  V30 14825 H 1342.26 4.24074 4.99842 0
M  V30 14826 H 1341.78 2.57958 5.41496 0
M  V30 14827 H 1343.46 3.11649 5.66996 0
M  V30 14828 N 1343.59 -1.35528 0.804364 0
M  V30 14829 C 1344.84 -1.98439 0.382934 0
M  V30 14830 C 1345.16 -1.64132 -1.05289 0
M  V30 14831 O 1344.43 -0.922693 -1.7281 0
M  V30 14832 H 1343.01 -0.734028 0.138605 0
M  V30 14833 H 1345.67 -1.65478 1.02971 0
M  V30 14834 H 1344.77 -3.08279 0.486846 0
M  V30 14835 N 1345.07 -0.557671 -1.47404 0
M  V30 14836 C 1346.3 -0.0366797 -2.07368 0
M  V30 14837 C 1346.72 1.2478 -1.40754 0
M  V30 14838 O 1346.08 1.74757 -0.48268 0
M  V30 14839 C 1346.13 0.141728 -3.60321 0
M  V30 14840 O 1345.23 1.20419 -3.94427 0
M  V30 14841 H 1344.57 -0.0515319 -0.661997 0
M  V30 14842 H 1347.1 -0.773485 -1.89416 0
M  V30 14843 H 1347.11 0.355787 -4.06446 0
M  V30 14844 H 1345.79 -0.796433 -4.08203 0
M  V30 14845 H 1344.36 0.970589 -3.60047 0
M  V30 14846 N 1346.55 1.54831 -0.294147 0
M  V30 14847 C 1347.51 2.21946 0.572061 0
M  V30 14848 C 1348.51 1.20331 1.06663 0
M  V30 14849 O 1349.7 1.45112 0.963757 0
M  V30 14850 C 1346.83 2.90044 1.7913 0
M  V30 14851 H 1348.03 2.99897 -0.0142234 0
M  V30 14852 H 1345.58 1.56235 -0.0449187 0
M  V30 14853 H 1346.32 2.16154 2.4176 0
M  V30 14854 H 1346.1 3.64527 1.44439 0
M  V30 14855 H 1347.59 3.41263 2.40684 0
M  V30 14856 N 1348.03 0.0217466 1.57585 0
M  V30 14857 C 1348.98 -0.980624 2.10918 0
M  V30 14858 C 1349.97 -1.34178 1.03406 0
M  V30 14859 O 1351.18 -1.32487 1.21849 0
M  V30 14860 H 1347.55 -0.333984 0.673764 0
M  V30 14861 H 1349.52 -0.505431 2.94088 0
M  V30 14862 C 1348.27 -2.25639 2.64542 0
M  V30 14863 H 1347.59 -1.98722 3.46914 0
M  V30 14864 H 1349.03 -2.94003 3.05513 0
M  V30 14865 C 1347.49 -2.98111 1.56945 0
M  V30 14866 O 1348.02 -3.89937 0.964975 0
M  V30 14867 N 1346.23 -2.60316 1.29166 0
M  V30 14868 H 1345.78 -1.85722 1.78508 0
M  V30 14869 H 1345.73 -3.09116 0.573987 0
M  V30 14870 N 1349.51 -1.55583 -0.251311 0
M  V30 14871 C 1350.75 -1.76411 -0.977859 0
M  V30 14872 C 1351.07 -0.584857 -1.86651 0
M  V30 14873 O 1352.27 -0.676046 -2.62948 0
M  V30 14874 C 1350.73 -3.12302 -1.78872 0
M  V30 14875 C 1350.34 -4.37862 -0.947674 0
M  V30 14876 C 1352.08 -3.42471 -2.50827 0
M  V30 14877 C 1349.99 -5.64786 -1.75417 0
M  V30 14878 H 1348.92 -0.657628 -0.368839 0
M  V30 14879 H 1351.57 -1.82019 -0.232682 0
M  V30 14880 H 1349.95 -3.0079 -2.57569 0
M  V30 14881 H 1351.13 -4.60351 -0.203352 0
M  V30 14882 H 1349.44 -4.14996 -0.341666 0
M  V30 14883 H 1352.04 -4.34514 -3.11612 0
M  V30 14884 H 1352.38 -2.63592 -3.22219 0
M  V30 14885 H 1352.91 -3.55179 -1.79145 0
M  V30 14886 H 1349.65 -6.46474 -1.08407 0
M  V30 14887 H 1349.17 -5.46405 -2.47389 0
M  V30 14888 H 1350.85 -6.03881 -2.32242 0
M  V30 14889 N 1350.98 0.516783 -1.48886 0
M  V30 14890 C 1351.93 1.64093 -1.64853 0
M  V30 14891 C 1352.93 1.61392 -0.514685 0
M  V30 14892 O 1354.13 1.6609 -0.693831 0
M  V30 14893 H 1350.51 0.543672 -0.519543 0
M  V30 14894 H 1352.48 1.47774 -2.5924 0
M  V30 14895 C 1351.23 3.02308 -1.71771 0
M  V30 14896 H 1350.55 3.05085 -2.58385 0
M  V30 14897 H 1351.99 3.80544 -1.86982 0
M  V30 14898 C 1350.45 3.33757 -0.459136 0
M  V30 14899 O 1350.98 3.99475 0.422177 0
M  V30 14900 N 1349.18 2.88756 -0.326837 0
M  V30 14901 H 1348.73 2.35452 -1.045 0
M  V30 14902 H 1348.69 3.10166 0.514213 0
M  V30 14903 N 1352.46 1.37696 0.766659 0
M  V30 14904 C 1353.74 1.23715 1.51506 0
M  V30 14905 C 1354.12 -0.167091 2.10438 0
M  V30 14906 O 1353.47 -1.17526 1.95959 0
M  V30 14907 C 1353.68 2.33715 2.59188 0
M  V30 14908 C 1355.02 2.71504 3.26451 0
M  V30 14909 O 1356.05 2.32929 2.69486 0
M  V30 14910 O 1354.91 3.37981 4.29454 0
M  V30 14911 H 1352 0.483046 0.671264 0
M  V30 14912 H 1354.55 1.49489 0.803188 0
M  V30 14913 H 1353.32 3.27729 2.13797 0
M  V30 14914 H 1352.94 2.09433 3.3797 0
M  V30 14915 N 1353.94 -0.993397 1.22349 0
M  V30 14916 C 1355.36 -1.25708 0.983345 0
M  V30 14917 C 1355.56 -1.98888 -0.323372 0
M  V30 14918 O 1354.61 -2.2981 -1.04612 0
M  V30 14919 C 1355.92 -2.06935 2.1817 0
M  V30 14920 C 1357.47 -2.20121 2.22521 0
M  V30 14921 C 1357.95 -3.04735 3.41907 0
M  V30 14922 N 1359.44 -3.12322 3.42066 0
M  V30 14923 C 1360.17 -3.78081 4.31095 0
M  V30 14924 N 1359.67 -4.45771 5.3034 0
M  V30 14925 N 1361.46 -3.74837 4.18872 0
M  V30 14926 H 1353.61 -0.502767 2.06364 0
M  V30 14927 H 1355.88 -0.284656 0.904254 0
M  V30 14928 H 1355.58 -1.60525 3.12929 0
M  V30 14929 H 1355.46 -3.0769 2.18189 0
M  V30 14930 H 1357.84 -2.65745 1.28311 0
M  V30 14931 H 1357.92 -1.18798 2.26541 0
M  V30 14932 H 1357.57 -2.59811 4.36418 0
M  V30 14933 H 1357.5 -4.06198 3.35128 0
M  V30 14934 H 1359.99 -2.64146 2.7025 0
M  V30 14935 H 1360.3 -4.93687 5.94553 0
M  V30 14936 H 1358.65 -4.44521 5.34253 0
M  V30 14937 H 1361.84 -3.21116 3.40591 0
M  V30 14938 H 1362.01 -4.25806 4.8846 0
M  V30 14939 N 1355.42 -1.03311 -1.19015 0
M  V30 14940 C 1356.64 -0.751686 -1.93299 0
M  V30 14941 C 1357.07 0.68392 -1.75226 0
M  V30 14942 O 1356.43 1.47274 -1.05736 0
M  V30 14943 C 1356.47 -1.11335 -3.42982 0
M  V30 14944 O 1355.58 -0.234434 -4.11733 0
M  V30 14945 H 1354.92 -0.277331 -0.60331 0
M  V30 14946 H 1357.45 -1.38092 -1.5097 0
M  V30 14947 H 1357.46 -1.07204 -3.93664 0
M  V30 14948 H 1356.13 -2.15922 -3.55458 0
M  V30 14949 H 1354.71 -0.3347 -3.71395 0
M  V30 14950 N 1356.9 1.35099 -0.81154 0
M  V30 14951 C 1357.83 2.2756 -0.170838 0
M  V30 14952 C 1358.81 1.48331 0.666085 0
M  V30 14953 O 1359.99 1.77579 0.632294 0
M  V30 14954 C 1357.12 3.30006 0.762483 0
M  V30 14955 C 1356.16 4.265 0.00454934 0
M  V30 14956 S 1357 5.18595 -1.33488 0
M  V30 14957 C 1358.15 6.24581 -0.406132 0
M  V30 14958 H 1358.39 2.81553 -0.95475 0
M  V30 14959 H 1355.92 1.41974 -0.606851 0
M  V30 14960 H 1357.88 3.89523 1.29545 0
M  V30 14961 H 1356.54 2.74882 1.51982 0
M  V30 14962 H 1355.73 4.98922 0.71361 0
M  V30 14963 H 1355.33 3.71178 -0.458613 0
M  V30 14964 H 1357.62 6.76278 0.406707 0
M  V30 14965 H 1358.57 6.99509 -1.09969 0
M  V30 14966 H 1358.98 5.645 0.000376348 0
M  V30 14967 N 1358.37 0.56548 1.47106 0
M  V30 14968 C 1359.3 -0.16567 2.32912 0
M  V30 14969 C 1360.28 -0.900678 1.44298 0
M  V30 14970 O 1361.47 -0.879523 1.73142 0
M  V30 14971 C 1358.6 -1.19092 3.26243 0
M  V30 14972 C 1357.55 -0.571849 4.24163 0
M  V30 14973 C 1356.88 -1.70233 5.06878 0
M  V30 14974 C 1358.18 0.479785 5.20092 0
M  V30 14975 H 1359.87 0.550705 2.94292 0
M  V30 14976 H 1357.42 0.266284 1.41517 0
M  V30 14977 H 1359.37 -1.71064 3.85117 0
M  V30 14978 H 1358.1 -1.93734 2.62934 0
M  V30 14979 H 1356.76 -0.073353 3.66527 0
M  V30 14980 H 1356.4 -2.438 4.39967 0
M  V30 14981 H 1356.1 -1.29384 5.73178 0
M  V30 14982 H 1357.63 -2.22515 5.68612 0
M  V30 14983 H 1359.04 0.0458042 5.73282 0
M  V30 14984 H 1357.44 0.807615 5.94641 0
M  V30 14985 H 1358.51 1.37259 4.65068 0
M  V30 14986 N 1359.85 -1.54672 0.302354 0
M  V30 14987 C 1361.1 -1.99771 -0.305919 0
M  V30 14988 C 1361.42 -1.19225 -1.54306 0
M  V30 14989 O 1360.69 -0.288569 -1.93763 0
M  V30 14990 H 1359.27 -0.737934 -0.116026 0
M  V30 14991 H 1361.93 -1.90452 0.413997 0
M  V30 14992 H 1361.03 -3.06719 -0.577024 0
M  V30 14993 N 1361.33 -0.0301034 -1.57571 0
M  V30 14994 C 1362.28 0.951421 -2.10277 0
M  V30 14995 C 1363.25 1.3224 -1.00508 0
M  V30 14996 O 1364.43 1.41554 -1.27934 0
M  V30 14997 C 1361.57 2.2282 -2.63525 0
M  V30 14998 C 1360.69 1.91359 -3.87306 0
M  V30 14999 C 1359.82 3.13339 -4.28943 0
M  V30 15000 C 1358.86 2.77701 -5.4548 0
M  V30 15001 N 1358 3.9231 -5.82269 0
M  V30 15002 H 1362.84 0.495049 -2.93859 0
M  V30 15003 H 1360.37 0.232756 -1.45247 0
M  V30 15004 H 1362.33 2.97502 -2.92487 0
M  V30 15005 H 1360.96 2.66072 -1.82772 0
M  V30 15006 H 1360.01 1.06915 -3.65066 0
M  V30 15007 H 1361.33 1.61112 -4.72064 0
M  V30 15008 H 1360.48 3.9634 -4.59347 0
M  V30 15009 H 1359.22 3.46747 -3.42954 0
M  V30 15010 H 1358.22 1.93113 -5.14769 0
M  V30 15011 H 1359.45 2.45508 -6.33169 0
M  V30 15012 H 1357.39 4.25559 -4.99235 0
M  V30 15013 H 1357.31 3.65691 -6.61669 0
M  V30 15014 H 1358.58 4.76012 -6.17279 0
M  V30 15015 N 1362.81 1.55714 0.243056 0
M  V30 15016 C 1364.22 1.48224 0.591754 0
M  V30 15017 C 1364.42 0.72105 1.88157 0
M  V30 15018 O 1363.48 0.251966 2.5124 0
M  V30 15019 C 1364.79 2.92655 0.690918 0
M  V30 15020 C 1366.34 3.03048 0.782988 0
M  V30 15021 C 1366.82 4.48794 0.913682 0
M  V30 15022 N 1368.31 4.52748 0.978454 0
M  V30 15023 C 1369.04 5.62771 1.09891 0
M  V30 15024 N 1368.54 6.82596 1.18467 0
M  V30 15025 N 1370.33 5.50576 1.13237 0
M  V30 15026 H 1362.48 2.03642 -0.603614 0
M  V30 15027 H 1364.75 0.924702 -0.208878 0
M  V30 15028 H 1364.45 3.51203 -0.186871 0
M  V30 15029 H 1364.33 3.43357 1.5616 0
M  V30 15030 H 1366.71 2.44578 1.65123 0
M  V30 15031 H 1366.79 2.55551 -0.112921 0
M  V30 15032 H 1366.44 5.07875 0.0499835 0
M  V30 15033 H 1366.37 4.93976 1.82469 0
M  V30 15034 H 1368.86 3.66445 0.92337 0
M  V30 15035 H 1369.17 7.62197 1.27576 0
M  V30 15036 H 1367.52 6.85349 1.15418 0
M  V30 15037 H 1370.71 4.55897 1.06188 0
M  V30 15038 H 1370.88 6.36358 1.2228 0
M  V30 15039 N 1364.29 -0.50888 1.49158 0
M  V30 15040 C 1365.56 -1.27021 1.48745 0
M  V30 15041 C 1365.94 -2.10045 0.210772 0
M  V30 15042 O 1365.29 -2.13773 -0.807061 0
M  V30 15043 C 1365.5 -2.13367 2.76181 0
M  V30 15044 C 1366.85 -2.72815 3.25357 0
M  V30 15045 O 1367.87 -2.23639 2.77243 0
M  V30 15046 O 1366.73 -3.62316 4.09133 0
M  V30 15047 H 1363.83 -0.574387 0.594986 0
M  V30 15048 H 1366.37 -0.523798 1.61414 0
M  V30 15049 H 1365.14 -1.51941 3.60596 0
M  V30 15050 H 1364.77 -2.95215 2.66334 0
M  V30 15051 N 1365.76 -1.381 -0.759346 0
M  V30 15052 C 1366.99 -1.37389 -1.55367 0
M  V30 15053 C 1367.41 0.0356097 -1.88066 0
M  V30 15054 O 1366.77 1.0161 -1.5015 0
M  V30 15055 C 1366.82 -2.23098 -2.83302 0
M  V30 15056 O 1365.92 -1.64412 -3.7821 0
M  V30 15057 H 1365.27 -0.468894 -0.470143 0
M  V30 15058 H 1367.8 -1.81787 -0.938858 0
M  V30 15059 H 1367.81 -2.36753 -3.32283 0
M  V30 15060 H 1366.48 -3.25544 -2.58831 0
M  V30 15061 H 1365.06 -1.59867 -3.36893 0
M  V30 15062 N 1367.24 0.986894 -1.22875 0
M  V30 15063 C 1368.15 2.11232 -1.02069 0
M  V30 15064 C 1369.17 1.73969 0.0328424 0
M  V30 15065 O 1370.34 2.00754 -0.161197 0
M  V30 15066 C 1367.41 3.41337 -0.60747 0
M  V30 15067 C 1366.47 3.92665 -1.73531 0
M  V30 15068 C 1365.7 5.1656 -1.34171 0
M  V30 15069 O 1365.93 5.69964 -0.223106 0
M  V30 15070 O 1364.86 5.61791 -2.16041 0
M  V30 15071 H 1368.69 2.3167 -1.96374 0
M  V30 15072 H 1366.27 1.09607 -1.01522 0
M  V30 15073 H 1368.15 4.19613 -0.387661 0
M  V30 15074 H 1366.83 3.22244 0.306653 0
M  V30 15075 H 1365.74 3.15534 -2.0097 0
M  V30 15076 H 1367.07 4.162 -2.62751 0
M  V30 15077 N 1368.72 1.0394 1.18466 0
M  V30 15078 C 1369.65 0.573814 2.20868 0
M  V30 15079 C 1370.63 -0.390956 1.5783 0
M  V30 15080 O 1371.82 -0.305561 1.86007 0
M  V30 15081 C 1368.94 -0.161904 3.38313 0
M  V30 15082 C 1367.99 0.755924 4.19748 0
M  V30 15083 S 1368.82 2.23809 4.86487 0
M  V30 15084 C 1369.98 1.51318 6.07333 0
M  V30 15085 H 1370.21 1.44143 2.60019 0
M  V30 15086 H 1367.74 0.850252 1.2888 0
M  V30 15087 H 1369.7 -0.58022 4.06379 0
M  V30 15088 H 1368.36 -1.00539 2.97575 0
M  V30 15089 H 1367.56 0.187345 5.03652 0
M  V30 15090 H 1367.16 1.11303 3.57054 0
M  V30 15091 H 1369.45 0.805536 6.72694 0
M  V30 15092 H 1370.39 2.32922 6.68695 0
M  V30 15093 H 1370.8 1.00607 5.55462 0
M  V30 15094 N 1370.2 -1.34667 0.818693 0
M  V30 15095 C 1371.16 -2.27908 0.243037 0
M  V30 15096 C 1372.16 -1.50106 -0.576622 0
M  V30 15097 O 1373.35 -1.69701 -0.393342 0
M  V30 15098 C 1370.48 -3.34455 -0.659759 0
M  V30 15099 H 1371.68 -2.80332 1.06555 0
M  V30 15100 H 1369.23 -1.44727 0.590237 0
M  V30 15101 H 1369.96 -2.87238 -1.50549 0
M  V30 15102 H 1369.75 -3.92031 -0.073567 0
M  V30 15103 H 1371.24 -4.04016 -1.05646 0
M  V30 15104 N 1371.68 -0.573274 -1.46804 0
M  V30 15105 C 1372.92 -0.0553432 -2.02724 0
M  V30 15106 C 1373.26 1.29753 -1.44492 0
M  V30 15107 O 1372.53 1.84804 -0.606455 0
M  V30 15108 C 1372.81 0.0205511 -3.60094 0
M  V30 15109 C 1372.67 -1.36055 -4.2873 0
M  V30 15110 C 1373.99 0.725944 -4.34071 0
M  V30 15111 H 1371.1 -0.0215858 -0.736684 0
M  V30 15112 H 1373.75 -0.738657 -1.75054 0
M  V30 15113 H 1371.9 0.602481 -3.838 0
M  V30 15114 H 1373.57 -1.98692 -4.16316 0
M  V30 15115 H 1371.81 -1.93087 -3.88458 0
M  V30 15116 H 1372.48 -1.26001 -5.37427 0
M  V30 15117 H 1374.96 0.231677 -4.15455 0
M  V30 15118 H 1373.83 0.74805 -5.43779 0
M  V30 15119 H 1374.1 1.78536 -4.04447 0
M  V30 15120 N 1373.15 1.5451 -0.310553 0
M  V30 15121 C 1374.4 1.99505 0.296731 0
M  V30 15122 C 1374.72 1.20257 1.54265 0
M  V30 15123 O 1375.92 1.55566 2.22512 0
M  V30 15124 C 1374.38 3.55208 0.579251 0
M  V30 15125 C 1373.99 4.43276 -0.648874 0
M  V30 15126 C 1375.73 4.08705 1.1472 0
M  V30 15127 C 1373.64 5.90428 -0.338978 0
M  V30 15128 H 1372.57 0.745232 0.114652 0
M  V30 15129 H 1375.22 1.78611 -0.420749 0
M  V30 15130 H 1373.6 3.72039 1.35658 0
M  V30 15131 H 1374.77 4.3822 -1.42478 0
M  V30 15132 H 1373.09 4.00601 -1.13613 0
M  V30 15133 H 1375.69 5.16223 1.39346 0
M  V30 15134 H 1376.03 3.59889 2.09249 0
M  V30 15135 H 1376.56 3.95454 0.431363 0
M  V30 15136 H 1373.3 6.43411 -1.25309 0
M  V30 15137 H 1372.82 5.98468 0.399475 0
M  V30 15138 H 1374.5 6.46976 0.0559696 0
M  V30 15139 N 1374.63 0.0384594 1.57553 0
M  V30 15140 C 1375.88 -0.639085 1.92467 0
M  V30 15141 C 1376.21 -1.71239 0.916014 0
M  V30 15142 O 1375.49 -1.94408 -0.0598928 0
M  V30 15143 C 1375.77 -1.24693 3.37822 0
M  V30 15144 C 1375.62 -0.182544 4.49429 0
M  V30 15145 C 1376.94 -2.16226 3.8332 0
M  V30 15146 H 1374.06 -0.230852 0.699912 0
M  V30 15147 H 1376.7 0.0976276 1.89749 0
M  V30 15148 H 1374.85 -1.87481 3.40269 0
M  V30 15149 H 1376.53 0.448622 4.59113 0
M  V30 15150 H 1374.77 0.4909 4.31013 0
M  V30 15151 H 1375.44 -0.647626 5.48188 0
M  V30 15152 H 1377.92 -1.63413 3.82669 0
M  V30 15153 H 1376.79 -2.55705 4.85702 0
M  V30 15154 H 1377.05 -3.05722 3.19353 0
M  V30 15155 N 1376.11 -1.55841 -0.234795 0
M  V30 15156 C 1377.04 -1.87793 -1.31402 0
M  V30 15157 C 1378.06 -0.765113 -1.43701 0
M  V30 15158 O 1379.25 -1.04332 -1.44834 0
M  V30 15159 C 1376.35 -2.05976 -2.69123 0
M  V30 15160 C 1375.52 -3.36914 -2.7894 0
M  V30 15161 C 1374.58 -3.44691 -3.97586 0
M  V30 15162 O 1373.6 -4.17818 -3.86545 0
M  V30 15163 N 1374.81 -2.74866 -5.11301 0
M  V30 15164 H 1377.57 -2.80957 -1.04324 0
M  V30 15165 H 1375.13 -1.56226 -0.424872 0
M  V30 15166 H 1377.12 -2.08507 -3.46853 0
M  V30 15167 H 1375.69 -1.195 -2.88857 0
M  V30 15168 H 1374.91 -3.46595 -1.87791 0
M  V30 15169 H 1376.2 -4.23196 -2.82458 0
M  V30 15170 H 1375.6 -2.15208 -5.23165 0
M  V30 15171 H 1374.16 -2.83075 -5.87122 0
M  V30 15172 N 1377.59 0.500963 -1.49426 0
M  V30 15173 C 1378.87 1.26231 -1.49416 0
M  V30 15174 C 1379.25 2.0993 -0.221908 0
M  V30 15175 O 1378.59 2.14198 0.795712 0
M  V30 15176 C 1378.8 2.11899 -2.77308 0
M  V30 15177 C 1380.15 2.71086 -3.26799 0
M  V30 15178 O 1381.18 2.22166 -2.78425 0
M  V30 15179 O 1380.04 3.60141 -4.11049 0
M  V30 15180 H 1377.13 0.571224 -0.598024 0
M  V30 15181 H 1379.68 0.51523 -1.61689 0
M  V30 15182 H 1378.45 1.50027 -3.61397 0
M  V30 15183 H 1378.07 2.93799 -2.67896 0
M  V30 15184 N 1379.07 1.38501 0.752011 0
M  V30 15185 C 1380.3 1.38032 1.54125 0
M  V30 15186 C 1380.71 -0.0295066 1.88777 0
M  V30 15187 O 1380.07 -0.996522 1.52891 0
M  V30 15188 C 1380.12 2.23741 2.83941 0
M  V30 15189 O 1379.84 3.59232 2.50767 0
M  V30 15190 C 1381.34 2.31469 3.7807 0
M  V30 15191 H 1378.56 0.472077 0.476848 0
M  V30 15192 H 1381.1 1.82101 0.930572 0
M  V30 15193 H 1379.26 1.8313 3.41383 0
M  V30 15194 H 1379.67 4.04376 3.34036 0
M  V30 15195 H 1381.15 2.95722 4.66103 0
M  V30 15196 H 1381.62 1.32882 4.18616 0
M  V30 15197 H 1382.23 2.72477 3.26552 0
M  V30 15198 N 1380.55 -0.980364 1.23396 0
M  V30 15199 C 1381.46 -2.10688 1.03188 0
M  V30 15200 C 1382.47 -1.73984 -0.0236159 0
M  V30 15201 O 1383.65 -2.00666 0.171841 0
M  V30 15202 C 1380.71 -3.4101 0.625563 0
M  V30 15203 C 1379.77 -3.91739 1.75611 0
M  V30 15204 C 1379.01 -5.15841 1.36908 0
M  V30 15205 O 1379.23 -5.69837 0.253329 0
M  V30 15206 O 1378.16 -5.60638 2.19018 0
M  V30 15207 H 1381.99 -2.30626 1.97599 0
M  V30 15208 H 1379.57 -1.09067 1.02102 0
M  V30 15209 H 1381.46 -4.19402 0.409909 0
M  V30 15210 H 1380.13 -3.22402 -0.28956 0
M  V30 15211 H 1379.04 -3.14464 2.0264 0
M  V30 15212 H 1380.37 -4.14801 2.64955 0
M  V30 15213 N 1382.02 -1.04567 -1.17913 0
M  V30 15214 C 1383.25 -0.772204 -1.9195 0
M  V30 15215 C 1383.67 0.671303 -1.76462 0
M  V30 15216 O 1383.02 1.45805 -1.0976 0
M  V30 15217 C 1383.07 -1.13539 -3.43207 0
M  V30 15218 O 1382.8 -2.52223 -3.58211 0
M  V30 15219 C 1384.3 -0.887146 -4.34332 0
M  V30 15220 H 1381.52 -0.281234 -0.609219 0
M  V30 15221 H 1384.06 -1.39467 -1.49563 0
M  V30 15222 H 1382.22 -0.557784 -3.83363 0
M  V30 15223 H 1382.63 -2.66275 -4.51882 0
M  V30 15224 H 1384.1 -1.19107 -5.38997 0
M  V30 15225 H 1384.58 0.1779 -4.3884 0
M  V30 15226 H 1385.19 -1.44829 -3.99881 0
M  V30 15227 N 1383.5 1.34231 -0.825823 0
M  V30 15228 C 1384.75 1.9849 -0.415891 0
M  V30 15229 C 1385.08 1.6531 1.01913 0
M  V30 15230 O 1384.36 0.926223 1.7103 0
M  V30 15231 C 1384.64 3.54691 -0.621785 0
M  V30 15232 C 1384.49 3.97603 -2.10313 0
M  V30 15233 C 1385.81 4.4006 -0.0595871 0
M  V30 15234 H 1382.93 0.721032 -0.152582 0
M  V30 15235 H 1385.57 1.5908 -1.03892 0
M  V30 15236 H 1383.72 3.88392 -0.0914439 0
M  V30 15237 H 1385.39 3.74221 -2.69733 0
M  V30 15238 H 1383.64 3.47809 -2.59251 0
M  V30 15239 H 1384.31 5.06352 -2.19799 0
M  V30 15240 H 1386.78 4.12929 -0.512743 0
M  V30 15241 H 1385.66 5.48403 -0.233431 0
M  V30 15242 H 1385.92 4.29798 1.03568 0
M  V30 15243 N 1384.98 0.581051 1.46498 0
M  V30 15244 C 1386.39 0.154032 1.86064 0
M  V30 15245 C 1386.74 -1.28247 1.48483 0
M  V30 15246 O 1385.87 -1.96845 0.898945 0
M  V30 15247 C 1386.46 0.272764 3.377 0
M  V30 15248 C 1385.02 -0.0993724 3.76269 0
M  V30 15249 C 1384.17 0.60947 2.70519 0
M  V30 15250 H 1387.12 0.78937 1.37676 0
M  V30 15251 H 1387.14 -0.502326 3.7717 0
M  V30 15252 H 1386.65 1.31837 3.65021 0
M  V30 15253 H 1384.75 -1.14517 3.54565 0
M  V30 15254 H 1384.87 0.275791 4.78306 0
M  V30 15255 H 1383.23 0.0499083 2.54651 0
M  V30 15256 H 1384.01 1.65669 3.0068 0
M  V30 15257 N 1386.46 -1.54343 0.318742 0
M  V30 15258 C 1387.68 -2.05361 -0.290126 0
M  V30 15259 C 1388.11 -1.19362 -1.45376 0
M  V30 15260 O 1387.47 -0.201639 -1.80175 0
M  V30 15261 C 1387.51 -3.53601 -0.707025 0
M  V30 15262 O 1386.62 -3.70561 -1.80992 0
M  V30 15263 H 1385.96 -0.661858 -0.0532933 0
M  V30 15264 H 1388.49 -1.99228 0.46575 0
M  V30 15265 H 1388.5 -3.95782 -0.991005 0
M  V30 15266 H 1387.17 -4.1565 0.144091 0
M  V30 15267 H 1385.75 -3.40286 -1.52513 0
M  V30 15268 N 1387.94 -0.0468143 -1.5753 0
M  V30 15269 C 1389.18 0.628869 -1.92803 0
M  V30 15270 C 1389.51 1.70751 -0.925083 0
M  V30 15271 O 1388.79 1.94437 0.0495821 0
M  V30 15272 C 1389.07 1.22899 -3.38479 0
M  V30 15273 C 1388.93 0.158707 -4.4952 0
M  V30 15274 C 1390.24 2.1419 -3.84461 0
M  V30 15275 H 1387.36 0.227137 -0.701126 0
M  V30 15276 H 1390.01 -0.107689 -1.89695 0
M  V30 15277 H 1388.16 1.85674 -3.41259 0
M  V30 15278 H 1389.83 -0.472963 -4.58869 0
M  V30 15279 H 1388.07 -0.51375 -4.30747 0
M  V30 15280 H 1388.74 0.618545 -5.48523 0
M  V30 15281 H 1391.22 1.61382 -3.8353 0
M  V30 15282 H 1390.09 2.53125 -4.87051 0
M  V30 15283 H 1390.35 3.04024 -3.2097 0
M  V30 15284 N 1389.41 1.55964 0.226527 0
M  V30 15285 C 1390.35 1.87013 1.30772 0
M  V30 15286 C 1391.33 0.727044 1.4544 0
M  V30 15287 O 1392.51 0.974898 1.61332 0
M  V30 15288 C 1389.64 2.07278 2.67869 0
M  V30 15289 C 1388.68 3.29956 2.70243 0
M  V30 15290 S 1389.52 4.86026 2.24808 0
M  V30 15291 C 1390.67 5.09321 3.6379 0
M  V30 15292 H 1390.9 2.78427 1.0424 0
M  V30 15293 H 1388.44 1.48334 0.428525 0
M  V30 15294 H 1390.4 2.19636 3.468 0
M  V30 15295 H 1389.06 1.1667 2.91628 0
M  V30 15296 H 1388.25 3.41164 3.70975 0
M  V30 15297 H 1387.85 3.16429 1.99371 0
M  V30 15298 H 1390.14 4.97914 4.59443 0
M  V30 15299 H 1391.09 6.11227 3.57501 0
M  V30 15300 H 1391.49 4.37076 3.57247 0
M  V30 15301 N 1390.89 -0.493031 1.4969 0
M  V30 15302 C 1392.17 -1.25436 1.50084 0
M  V30 15303 C 1392.55 -2.0981 0.233038 0
M  V30 15304 O 1391.9 -2.14617 -0.784342 0
M  V30 15305 C 1392.11 -2.10425 2.78428 0
M  V30 15306 C 1393.46 -2.69349 3.28232 0
M  V30 15307 O 1394.48 -2.20686 2.796 0
M  V30 15308 O 1393.34 -3.57956 4.12953 0
M  V30 15309 H 1390.43 -0.568044 0.601045 0
M  V30 15310 H 1392.98 -0.506648 1.6196 0
M  V30 15311 H 1391.75 -1.48108 3.62187 0
M  V30 15312 H 1391.37 -2.92374 2.6945 0
M  V30 15313 N 1392.37 -1.38898 -0.744656 0
M  V30 15314 C 1393.62 -1.35327 -1.50104 0
M  V30 15315 C 1393.94 0.0532788 -1.94927 0
M  V30 15316 O 1393.21 1.0027 -1.68294 0
M  V30 15317 H 1391.79 -0.49797 -0.556808 0
M  V30 15318 H 1394.45 -1.73667 -0.884625 0
M  V30 15319 H 1393.55 -2.00983 -2.38773 0
M  V30 15320 N 1393.85 0.973806 -1.23914 0
M  V30 15321 C 1394.8 2.06734 -1.02614 0
M  V30 15322 C 1395.77 1.65997 0.0585705 0
M  V30 15323 O 1396.95 1.90564 -0.0948467 0
M  V30 15324 C 1394.09 3.39292 -0.630493 0
M  V30 15325 C 1393.2 3.9326 -1.78803 0
M  V30 15326 C 1392.34 5.14059 -1.33854 0
M  V30 15327 C 1391.38 5.60209 -2.46642 0
M  V30 15328 N 1390.51 6.72232 -2.02603 0
M  V30 15329 H 1395.35 2.24287 -1.96212 0
M  V30 15330 H 1392.89 1.09935 -0.977376 0
M  V30 15331 H 1394.85 4.15446 -0.382163 0
M  V30 15332 H 1393.48 3.21682 0.268483 0
M  V30 15333 H 1392.53 3.13801 -2.15019 0
M  V30 15334 H 1393.84 4.23475 -2.63573 0
M  V30 15335 H 1393 5.97567 -1.04873 0
M  V30 15336 H 1391.74 4.85513 -0.46131 0
M  V30 15337 H 1390.74 4.75278 -2.7639 0
M  V30 15338 H 1391.97 5.90771 -3.34912 0
M  V30 15339 H 1389.91 6.45433 -1.17269 0
M  V30 15340 H 1389.83 7.01865 -2.80929 0
M  V30 15341 H 1391.1 7.59198 -1.76745 0
M  V30 15342 N 1395.33 1.05191 1.17357 0
M  V30 15343 C 1396.24 0.663617 2.25018 0
M  V30 15344 C 1397.25 -0.315299 1.71119 0
M  V30 15345 O 1398.43 -0.167398 2.00703 0
M  V30 15346 C 1395.49 0.0443307 3.46672 0
M  V30 15347 C 1394.55 1.07369 4.15656 0
M  V30 15348 C 1393.79 0.483864 5.31502 0
M  V30 15349 O 1394.01 -0.706692 5.66005 0
M  V30 15350 O 1392.94 1.21812 5.89445 0
M  V30 15351 H 1396.77 1.56088 2.60519 0
M  V30 15352 H 1394.36 0.823474 1.24657 0
M  V30 15353 H 1396.24 -0.299839 4.20332 0
M  V30 15354 H 1394.91 -0.826579 3.12969 0
M  V30 15355 H 1393.82 1.46985 3.44015 0
M  V30 15356 H 1395.15 1.91575 4.53387 0
M  V30 15357 N 1396.8 -1.33791 0.83293 0
M  V30 15358 C 1398.03 -2.01894 0.43844 0
M  V30 15359 C 1398.44 -1.62844 -0.963247 0
M  V30 15360 O 1397.79 -0.834636 -1.63644 0
M  V30 15361 C 1397.85 -3.5638 0.472604 0
M  V30 15362 C 1397.51 -4.18788 1.82937 0
M  V30 15363 C 1398.51 -4.38588 2.79172 0
M  V30 15364 C 1396.19 -4.55342 2.12058 0
M  V30 15365 C 1398.19 -4.94081 4.02694 0
M  V30 15366 C 1395.87 -5.10544 3.35839 0
M  V30 15367 C 1396.87 -5.29859 4.30974 0
M  V30 15368 O 1396.56 -5.83889 5.52566 0
M  V30 15369 H 1396.29 -0.65348 0.173031 0
M  V30 15370 H 1398.85 -1.71827 1.12537 0
M  V30 15371 H 1397.08 -3.85749 -0.271074 0
M  V30 15372 H 1398.77 -4.05785 0.0967701 0
M  V30 15373 H 1399.53 -4.10701 2.57972 0
M  V30 15374 H 1395.41 -4.39607 1.38806 0
M  V30 15375 H 1398.95 -5.09072 4.7696 0
M  V30 15376 H 1394.85 -5.3786 3.56898 0
M  V30 15377 H 1395.62 -6.02311 5.54224 0
M  V30 15378 N 1398.28 -0.588812 -1.46187 0
M  V30 15379 C 1399.21 0.178825 -2.28501 0
M  V30 15380 C 1400.23 0.849686 -1.38867 0
M  V30 15381 O 1401.42 0.718224 -1.63413 0
M  V30 15382 C 1398.52 1.27309 -3.14079 0
M  V30 15383 C 1397.69 0.692974 -4.31876 0
M  V30 15384 C 1396.75 1.67572 -4.98805 0
M  V30 15385 O 1395.77 1.20937 -5.56204 0
M  V30 15386 N 1396.98 3.00992 -4.96371 0
M  V30 15387 H 1399.74 -0.527407 -2.95023 0
M  V30 15388 H 1397.3 -0.426998 -1.56168 0
M  V30 15389 H 1399.29 1.92993 -3.55719 0
M  V30 15390 H 1397.86 1.88209 -2.49592 0
M  V30 15391 H 1397.08 -0.141485 -3.93946 0
M  V30 15392 H 1398.37 0.28529 -5.08 0
M  V30 15393 H 1397.77 3.41498 -4.50994 0
M  V30 15394 H 1396.33 3.62149 -5.41933 0
M  V30 15395 N 1399.76 1.54172 -0.326923 0
M  V30 15396 C 1400.72 2.2311 0.524855 0
M  V30 15397 C 1401.72 1.22567 1.04087 0
M  V30 15398 O 1402.91 1.47123 0.932759 0
M  V30 15399 C 1400.05 2.93778 1.72937 0
M  V30 15400 H 1401.24 2.99799 -0.0778327 0
M  V30 15401 H 1398.79 1.56105 -0.0780484 0
M  V30 15402 H 1399.53 2.21234 2.3712 0
M  V30 15403 H 1399.31 3.67509 1.36674 0
M  V30 15404 H 1400.8 3.46292 2.33392 0
M  V30 15405 N 1401.24 0.0551678 1.57503 0
M  V30 15406 C 1402.49 -0.6165 1.92467 0
M  V30 15407 C 1402.81 -1.71147 0.934552 0
M  V30 15408 O 1402.08 -1.9589 -0.0199649 0
M  V30 15409 H 1400.66 -0.230714 0.710479 0
M  V30 15410 H 1403.32 0.109111 1.94594 0
M  V30 15411 H 1402.42 -1.05254 2.93816 0
M  V30 15412 N 1402.72 -1.56081 -0.218252 0
M  V30 15413 C 1404.13 -1.49147 -0.568098 0
M  V30 15414 C 1404.33 -0.750893 -1.86986 0
M  V30 15415 O 1403.39 -0.291904 -2.50807 0
M  V30 15416 C 1404.7 -2.93717 -0.644272 0
M  V30 15417 C 1406.25 -3.04256 -0.734677 0
M  V30 15418 C 1406.72 -4.50191 -0.842167 0
M  V30 15419 N 1408.22 -4.54247 -0.906302 0
M  V30 15420 C 1408.95 -5.64448 -1.00924 0
M  V30 15421 N 1408.45 -6.84394 -1.07592 0
M  V30 15422 N 1410.24 -5.52308 -1.04463 0
M  V30 15423 H 1402.39 -2.02656 0.635935 0
M  V30 15424 H 1404.65 -0.921262 0.223563 0
M  V30 15425 H 1404.36 -3.50861 0.242721 0
M  V30 15426 H 1404.23 -3.45798 -1.50678 0
M  V30 15427 H 1406.62 -2.47174 -1.61211 0
M  V30 15428 H 1406.7 -2.55339 0.153563 0
M  V30 15429 H 1406.35 -5.07891 0.0308214 0
M  V30 15430 H 1406.28 -4.96817 -1.74587 0
M  V30 15431 H 1408.77 -3.67868 -0.864954 0
M  V30 15432 H 1409.08 -7.6413 -1.15433 0
M  V30 15433 H 1407.42 -6.87099 -1.045 0
M  V30 15434 H 1410.62 -4.57528 -0.989218 0
M  V30 15435 H 1410.79 -6.38223 -1.1214 0
M  V30 15436 N 1404.2 0.485086 -1.49949 0
M  V30 15437 C 1405.44 1.23816 -1.60237 0
M  V30 15438 C 1405.77 1.9223 -0.296274 0
M  V30 15439 O 1405.03 1.82095 0.716939 0
M  V30 15440 C 1405.32 2.31573 -2.72229 0
M  V30 15441 C 1404.99 1.80508 -4.13192 0
M  V30 15442 C 1403.65 1.66301 -4.5155 0
M  V30 15443 C 1406 1.42471 -5.0135 0
M  V30 15444 C 1403.33 1.1246 -5.75821 0
M  V30 15445 C 1405.68 0.900757 -6.26154 0
M  V30 15446 C 1404.35 0.74521 -6.63327 0
M  V30 15447 H 1403.62 0.453075 -0.586348 0
M  V30 15448 H 1406.27 0.536349 -1.83836 0
M  V30 15449 H 1404.57 3.07606 -2.42663 0
M  V30 15450 H 1406.27 2.89574 -2.77395 0
M  V30 15451 H 1402.86 1.92529 -3.82924 0
M  V30 15452 H 1407.04 1.52287 -4.72358 0
M  V30 15453 H 1402.3 0.991422 -6.03308 0
M  V30 15454 H 1406.47 0.5973 -6.93834 0
M  V30 15455 H 1404.1 0.325838 -7.59501 0
M  V30 15456 N 1405.67 1.39291 0.737279 0
M  V30 15457 C 1406.64 1.37607 1.83294 0
M  V30 15458 C 1407.64 0.273594 1.58455 0
M  V30 15459 O 1408.83 0.531375 1.65898 0
M  V30 15460 C 1405.96 1.14642 3.21045 0
M  V30 15461 H 1407.15 2.35102 1.86191 0
M  V30 15462 H 1404.7 1.24822 0.940696 0
M  V30 15463 H 1405.44 0.178202 3.2381 0
M  V30 15464 H 1405.22 1.94479 3.40471 0
M  V30 15465 H 1406.71 1.162 4.01108 0
M  V30 15466 N 1407.15 -0.967221 1.24429 0
M  V30 15467 C 1408.57 -1.23594 1.00979 0
M  V30 15468 C 1408.77 -1.99529 -0.281112 0
M  V30 15469 O 1407.82 -2.31977 -0.997139 0
M  V30 15470 C 1409.14 -2.02261 2.22511 0
M  V30 15471 C 1410.68 -2.15352 2.2714 0
M  V30 15472 C 1411.16 -2.97414 3.48294 0
M  V30 15473 N 1412.65 -3.04996 3.48614 0
M  V30 15474 C 1413.39 -3.68851 4.39017 0
M  V30 15475 N 1412.88 -4.34421 5.39676 0
M  V30 15476 N 1414.67 -3.65868 4.26728 0
M  V30 15477 H 1406.83 -0.458881 2.07384 0
M  V30 15478 H 1409.09 -0.265411 0.910088 0
M  V30 15479 H 1408.79 -1.53852 3.16263 0
M  V30 15480 H 1408.67 -3.02993 2.24667 0
M  V30 15481 H 1411.06 -2.62964 1.33919 0
M  V30 15482 H 1411.14 -1.13966 2.2901 0
M  V30 15483 H 1410.78 -2.50495 4.41831 0
M  V30 15484 H 1410.71 -3.98998 3.43668 0
M  V30 15485 H 1413.2 -2.58354 2.75793 0
M  V30 15486 H 1413.51 -4.80965 6.04891 0
M  V30 15487 H 1411.86 -4.33089 5.43562 0
M  V30 15488 H 1415.05 -3.13819 3.47325 0
M  V30 15489 H 1415.22 -4.15349 4.97382 0
M  V30 15490 N 1408.63 -1.05812 -1.16797 0
M  V30 15491 C 1409.88 -0.770398 -1.8684 0
M  V30 15492 C 1410.2 0.704986 -1.8181 0
M  V30 15493 O 1409.47 1.50977 -1.24832 0
M  V30 15494 H 1408.05 -0.281989 -0.691731 0
M  V30 15495 H 1410.71 -1.33859 -1.41661 0
M  V30 15496 H 1409.81 -1.09094 -2.92412 0
M  V30 15497 N 1410.11 1.33347 -0.840014 0
M  V30 15498 C 1411.04 2.31703 -0.289138 0
M  V30 15499 C 1412.02 1.59024 0.603759 0
M  V30 15500 O 1413.2 1.86911 0.527071 0
M  V30 15501 C 1410.33 3.43144 0.53566 0
M  V30 15502 C 1409.29 4.272 -0.261544 0
M  V30 15503 C 1408.61 5.30267 0.687075 0
M  V30 15504 C 1409.91 5.00915 -1.47924 0
M  V30 15505 H 1411.61 2.78026 -1.11094 0
M  V30 15506 H 1409.15 1.33666 -0.535658 0
M  V30 15507 H 1411.11 4.10979 0.931351 0
M  V30 15508 H 1409.83 2.95512 1.39069 0
M  V30 15509 H 1408.49 3.60991 -0.638809 0
M  V30 15510 H 1408.14 4.78893 1.53853 0
M  V30 15511 H 1407.84 5.87388 0.157773 0
M  V30 15512 H 1409.36 6.00968 1.08026 0
M  V30 15513 H 1410.78 5.61511 -1.15664 0
M  V30 15514 H 1409.17 5.67692 -1.94541 0
M  V30 15515 H 1410.24 4.29622 -2.24839 0
M  V30 15516 N 1411.59 0.596556 1.45873 0
M  V30 15517 C 1413 0.259317 1.57479 0
M  V30 15518 C 1413.2 -1.23829 1.58961 0
M  V30 15519 O 1412.26 -2.02076 1.51399 0
M  V30 15520 C 1413.57 0.920755 2.86256 0
M  V30 15521 C 1415.12 0.895638 2.99912 0
M  V30 15522 C 1415.59 1.53688 4.31444 0
M  V30 15523 N 1417.08 1.50186 4.38176 0
M  V30 15524 C 1417.82 1.96727 5.38596 0
M  V30 15525 N 1417.32 2.51304 6.45615 0
M  V30 15526 N 1419.11 1.87561 5.29884 0
M  V30 15527 H 1411.26 1.56909 1.43155 0
M  V30 15528 H 1413.52 0.656664 0.683737 0
M  V30 15529 H 1413.23 1.97481 2.91023 0
M  V30 15530 H 1413.1 0.437331 3.74656 0
M  V30 15531 H 1415.49 -0.149838 2.94719 0
M  V30 15532 H 1415.57 1.41722 2.12952 0
M  V30 15533 H 1415.21 2.58163 4.37395 0
M  V30 15534 H 1415.14 0.990408 5.17203 0
M  V30 15535 H 1417.64 1.10305 3.61443 0
M  V30 15536 H 1417.95 2.84639 7.18471 0
M  V30 15537 H 1416.29 2.55337 6.46396 0
M  V30 15538 H 1419.48 1.4467 4.45183 0
M  V30 15539 H 1419.66 2.24146 6.07999 0
M  V30 15540 N 1413.06 -1.53996 0.335095 0
M  V30 15541 C 1413.99 -2.2768 -0.518087 0
M  V30 15542 C 1414.97 -1.28915 -1.10972 0
M  V30 15543 O 1416.16 -1.57745 -1.1327 0
M  V30 15544 C 1413.29 -3.04327 -1.67339 0
M  V30 15545 C 1412.24 -4.10525 -1.2105 0
M  V30 15546 C 1411.57 -4.75078 -2.45366 0
M  V30 15547 C 1412.87 -5.21337 -0.317055 0
M  V30 15548 H 1414.56 -2.99244 0.0965669 0
M  V30 15549 H 1412.11 -1.4392 0.0478842 0
M  V30 15550 H 1414.06 -3.54608 -2.27664 0
M  V30 15551 H 1412.79 -2.30399 -2.31481 0
M  V30 15552 H 1411.45 -3.61144 -0.630124 0
M  V30 15553 H 1411.09 -3.97754 -3.07897 0
M  V30 15554 H 1410.79 -5.46822 -2.1508 0
M  V30 15555 H 1412.32 -5.2814 -3.06432 0
M  V30 15556 H 1413.73 -5.67305 -0.826905 0
M  V30 15557 H 1412.13 -6.00006 -0.106458 0
M  V30 15558 H 1413.2 -4.80536 0.649068 0
M  V30 15559 N 1414.54 -0.0635198 -1.57472 0
M  V30 15560 C 1415.47 0.93602 -2.09216 0
M  V30 15561 C 1416.49 1.2668 -1.02255 0
M  V30 15562 O 1417.68 1.22543 -1.2979 0
M  V30 15563 C 1414.78 2.25417 -2.53062 0
M  V30 15564 C 1413.95 2.10347 -3.83501 0
M  V30 15565 C 1413.01 3.25394 -4.13528 0
M  V30 15566 O 1412.03 3.00751 -4.83257 0
M  V30 15567 N 1413.24 4.50243 -3.66417 0
M  V30 15568 H 1416 0.494288 -2.95596 0
M  V30 15569 H 1413.56 0.122416 -1.61437 0
M  V30 15570 H 1415.55 3.01272 -2.70217 0
M  V30 15571 H 1414.12 2.61116 -1.71864 0
M  V30 15572 H 1413.34 1.19009 -3.75807 0
M  V30 15573 H 1414.63 1.97519 -4.68896 0
M  V30 15574 H 1414.03 4.73152 -3.1007 0
M  V30 15575 H 1412.59 5.23152 -3.88787 0
M  V30 15576 N 1416.02 1.56195 0.209972 0
M  V30 15577 C 1417.26 1.81525 0.939574 0
M  V30 15578 C 1417.62 0.638789 1.81062 0
M  V30 15579 O 1418.82 0.771648 2.57486 0
M  V30 15580 C 1417.1 3.11809 1.7467 0
M  V30 15581 S 1418.65 3.58494 2.53036 0
M  V30 15582 H 1415.47 0.637211 0.31541 0
M  V30 15583 H 1418.07 1.94431 0.204175 0
M  V30 15584 H 1416.78 3.95463 1.09715 0
M  V30 15585 H 1416.31 3.01742 2.52419 0
M  V30 15586 H 1418.32 3.2275 3.76891 0
M  V30 15587 N 1417.5 -0.477127 1.50204 0
M  V30 15588 C 1418.74 -1.22964 1.60891 0
M  V30 15589 C 1419.07 -1.9207 0.306464 0
M  V30 15590 O 1418.33 -1.82472 -0.707272 0
M  V30 15591 C 1418.63 -2.30126 2.73453 0
M  V30 15592 C 1418.29 -1.78314 4.14143 0
M  V30 15593 C 1416.95 -1.63904 4.52425 0
M  V30 15594 C 1419.31 -1.3981 5.02098 0
M  V30 15595 C 1416.63 -1.09404 5.76409 0
M  V30 15596 C 1418.99 -0.867538 6.26623 0
M  V30 15597 C 1417.65 -0.710022 6.63713 0
M  V30 15598 H 1416.92 -0.449959 0.588743 0
M  V30 15599 H 1419.57 -0.526592 1.84118 0
M  V30 15600 H 1417.87 -3.06315 2.44291 0
M  V30 15601 H 1419.57 -2.88099 2.78927 0
M  V30 15602 H 1416.16 -1.90496 3.83939 0
M  V30 15603 H 1420.34 -1.49779 4.73159 0
M  V30 15604 H 1415.6 -0.959413 6.03825 0
M  V30 15605 H 1419.77 -0.560496 6.94141 0
M  V30 15606 H 1417.4 -0.285555 7.59663 0
M  V30 15607 N 1418.98 -1.3968 -0.729882 0
M  V30 15608 C 1420.39 -1.21396 -1.0361 0
M  V30 15609 C 1420.59 -0.0791302 -2.01345 0
M  V30 15610 O 1419.65 0.567575 -2.46038 0
M  V30 15611 C 1420.96 -2.55006 -1.59349 0
M  V30 15612 C 1422.51 -2.61896 -1.71405 0
M  V30 15613 C 1422.98 -3.9574 -2.30552 0
M  V30 15614 N 1424.48 -3.97406 -2.37955 0
M  V30 15615 C 1425.21 -4.97745 -2.8467 0
M  V30 15616 N 1424.71 -6.08482 -3.31243 0
M  V30 15617 N 1426.5 -4.85121 -2.83925 0
M  V30 15618 H 1418.65 -2.12242 -0.081787 0
M  V30 15619 H 1420.91 -0.942827 -0.0989005 0
M  V30 15620 H 1420.62 -3.38626 -0.950005 0
M  V30 15621 H 1420.49 -2.75087 -2.58083 0
M  V30 15622 H 1422.88 -1.78656 -2.34874 0
M  V30 15623 H 1422.96 -2.45659 -0.7131 0
M  V30 15624 H 1422.61 -4.79412 -1.67709 0
M  V30 15625 H 1422.54 -4.09299 -3.31334 0
M  V30 15626 H 1425.03 -3.17435 -2.05044 0
M  V30 15627 H 1425.34 -6.8095 -3.65414 0
M  V30 15628 H 1423.68 -6.12068 -3.29239 0
M  V30 15629 H 1426.88 -3.97711 -2.46867 0
M  V30 15630 H 1427.05 -5.63465 -3.20017 0
M  V30 15631 N 1420.45 0.960609 -1.2494 0
M  V30 15632 C 1421.7 1.70701 -1.09495 0
M  V30 15633 C 1422.03 1.90754 0.364214 0
M  V30 15634 O 1421.31 1.47417 1.26879 0
M  V30 15635 C 1421.59 3.09353 -1.84317 0
M  V30 15636 C 1421.44 2.96747 -3.38026 0
M  V30 15637 C 1422.76 4.09139 -1.62153 0
M  V30 15638 H 1419.88 0.61955 -0.399158 0
M  V30 15639 H 1422.52 1.11701 -1.53698 0
M  V30 15640 H 1420.67 3.59719 -1.46746 0
M  V30 15641 H 1422.35 2.53752 -3.85237 0
M  V30 15642 H 1420.59 2.32798 -3.66043 0
M  V30 15643 H 1421.26 3.95002 -3.85587 0
M  V30 15644 H 1423.74 3.67659 -1.94849 0
M  V30 15645 H 1422.61 5.04206 -2.16951 0
M  V30 15646 H 1422.87 4.38521 -0.561437 0
M  V30 15647 N 1421.93 1.0643 1.16234 0
M  V30 15648 C 1423.18 0.782998 1.87075 0
M  V30 15649 C 1423.51 -0.688852 1.81572 0
M  V30 15650 O 1422.79 -1.50478 1.23234 0
M  V30 15651 C 1423.07 1.27997 3.36584 0
M  V30 15652 C 1422.92 2.81568 3.5077 0
M  V30 15653 C 1424.24 0.888975 4.31028 0
M  V30 15654 H 1421.36 0.28591 0.679282 0
M  V30 15655 H 1424 1.32046 1.36615 0
M  V30 15656 H 1422.15 0.822756 3.79688 0
M  V30 15657 H 1423.82 3.35508 3.16595 0
M  V30 15658 H 1422.07 3.2023 2.92635 0
M  V30 15659 H 1422.74 3.11406 4.55774 0
M  V30 15660 H 1425.21 1.28279 3.95833 0
M  V30 15661 H 1424.09 1.26416 5.34144 0
M  V30 15662 H 1424.35 -0.205973 4.4162 0
M  V30 15663 N 1423.41 -1.329 0.847073 0
M  V30 15664 C 1424.34 -2.31546 0.301422 0
M  V30 15665 C 1425.32 -1.59342 -0.595317 0
M  V30 15666 O 1426.51 -1.87188 -0.517151 0
M  V30 15667 C 1423.64 -3.43423 -0.517454 0
M  V30 15668 C 1422.59 -4.27055 0.284195 0
M  V30 15669 C 1421.92 -5.30624 -0.658944 0
M  V30 15670 C 1423.22 -5.00123 1.50578 0
M  V30 15671 H 1424.91 -2.77433 1.12567 0
M  V30 15672 H 1422.46 -1.3338 0.542739 0
M  V30 15673 H 1424.41 -4.11467 -0.909543 0
M  V30 15674 H 1423.13 -2.96246 -1.37499 0
M  V30 15675 H 1421.79 -3.60648 0.657944 0
M  V30 15676 H 1421.44 -4.79702 -1.51311 0
M  V30 15677 H 1421.14 -5.87464 -0.12662 0
M  V30 15678 H 1422.66 -6.01533 -1.04837 0
M  V30 15679 H 1424.08 -5.6089 1.18641 0
M  V30 15680 H 1422.48 -5.66652 1.97549 0
M  V30 15681 H 1423.55 -4.28424 2.27115 0
M  V30 15682 N 1424.89 -0.604284 -1.45555 0
M  V30 15683 C 1426.14 -0.0979922 -2.01862 0
M  V30 15684 C 1426.46 1.27476 -1.47563 0
M  V30 15685 O 1425.73 1.84137 -0.668612 0
M  V30 15686 H 1424.31 -0.033235 -0.74626 0
M  V30 15687 H 1426.97 -0.784936 -1.78395 0
M  V30 15688 H 1426.07 -0.0452716 -3.12067 0
M  V30 15689 N 1426.37 1.53816 -0.343257 0
M  V30 15690 C 1427.6 2.05028 0.254375 0
M  V30 15691 C 1428 1.21793 1.44786 0
M  V30 15692 O 1427.35 0.246075 1.82044 0
M  V30 15693 C 1427.41 3.5194 0.733364 0
M  V30 15694 C 1427.07 4.5573 -0.340434 0
M  V30 15695 C 1428.07 5.06261 -1.18304 0
M  V30 15696 C 1425.76 4.99862 -0.494277 0
M  V30 15697 C 1427.75 5.99504 -2.16503 0
M  V30 15698 C 1425.44 5.92916 -1.47967 0
M  V30 15699 C 1426.43 6.42625 -2.3135 0
M  V30 15700 O 1426.12 7.33848 -3.28211 0
M  V30 15701 H 1425.85 0.673922 0.0529695 0
M  V30 15702 H 1428.41 1.99387 -0.493352 0
M  V30 15703 H 1426.64 3.55044 1.53233 0
M  V30 15704 H 1428.33 3.86124 1.25151 0
M  V30 15705 H 1429.09 4.7293 -1.07527 0
M  V30 15706 H 1424.97 4.60772 0.144904 0
M  V30 15707 H 1428.52 6.38227 -2.81624 0
M  V30 15708 H 1424.41 6.25662 -1.588 0
M  V30 15709 H 1425.18 7.51781 -3.23679 0
M  V30 15710 N 1427.84 0.0718701 1.57436 0
M  V30 15711 C 1428.77 -0.89288 2.15754 0
M  V30 15712 C 1429.76 -1.31036 1.0846 0
M  V30 15713 O 1430.94 -1.38139 1.36496 0
M  V30 15714 C 1428.07 -2.16044 2.71923 0
M  V30 15715 C 1427.02 -1.88236 3.84384 0
M  V30 15716 C 1426.35 -3.21624 4.27156 0
M  V30 15717 C 1427.65 -1.18758 5.0862 0
M  V30 15718 H 1429.34 -0.407061 2.9662 0
M  V30 15719 H 1426.89 -0.194354 1.42682 0
M  V30 15720 H 1428.84 -2.83952 3.11366 0
M  V30 15721 H 1427.57 -2.66868 1.88279 0
M  V30 15722 H 1426.23 -1.22734 3.45445 0
M  V30 15723 H 1425.87 -3.70289 3.40433 0
M  V30 15724 H 1425.57 -3.03809 5.02965 0
M  V30 15725 H 1427.1 -3.90729 4.69215 0
M  V30 15726 H 1428.51 -1.76735 5.45378 0
M  V30 15727 H 1426.91 -1.11201 5.89707 0
M  V30 15728 H 1427.98 -0.166682 4.84613 0
M  V30 15729 N 1429.32 -1.56304 -0.201686 0
M  V30 15730 C 1430.6 -1.71059 -0.948595 0
M  V30 15731 C 1430.98 -0.624794 -2.01642 0
M  V30 15732 O 1430.33 0.365235 -2.25562 0
M  V30 15733 C 1430.54 -3.13136 -1.54101 0
M  V30 15734 C 1431.89 -3.73165 -2.02567 0
M  V30 15735 O 1432.91 -3.16223 -1.63956 0
M  V30 15736 O 1431.77 -4.73084 -2.73594 0
M  V30 15737 H 1428.86 -0.697443 -0.444412 0
M  V30 15738 H 1431.41 -1.68611 -0.191901 0
M  V30 15739 H 1430.18 -3.8363 -0.770968 0
M  V30 15740 H 1429.8 -3.19784 -2.36271 0
M  V30 15741 N 1430.8 0.469154 -1.50455 0
M  V30 15742 C 1432.08 1.23033 -1.5206 0
M  V30 15743 C 1432.46 2.09412 -0.266388 0
M  V30 15744 O 1431.81 2.15837 0.750099 0
M  V30 15745 C 1432.02 2.05969 -2.81741 0
M  V30 15746 C 1433.36 2.64093 -3.32476 0
M  V30 15747 O 1434.39 2.1621 -2.83075 0
M  V30 15748 O 1433.25 3.51341 -4.18595 0
M  V30 15749 H 1430.34 0.55841 -0.610006 0
M  V30 15750 H 1432.89 0.480818 -1.62746 0
M  V30 15751 H 1431.66 1.42327 -3.64498 0
M  V30 15752 H 1431.28 2.8805 -2.74067 0
M  V30 15753 N 1432.28 1.40065 0.722464 0
M  V30 15754 C 1433.69 1.33876 1.30131 0
M  V30 15755 C 1434.04 0.00899369 1.96198 0
M  V30 15756 O 1433.17 -0.893082 1.97112 0
M  V30 15757 C 1433.76 2.42469 2.36631 0
M  V30 15758 C 1432.32 2.39762 2.90157 0
M  V30 15759 C 1431.47 2.23704 1.63865 0
M  V30 15760 H 1434.42 1.49971 0.519077 0
M  V30 15761 H 1434.44 2.0998 3.17315 0
M  V30 15762 H 1433.95 3.39239 1.88517 0
M  V30 15763 H 1432.05 1.46669 3.42519 0
M  V30 15764 H 1432.16 3.35092 3.42419 0
M  V30 15765 H 1430.53 1.71098 1.88674 0
M  V30 15766 H 1431.31 3.22462 1.17785 0
M  V30 15767 N 1433.76 -0.95397 1.25448 0
M  V30 15768 C 1434.98 -1.73863 1.13077 0
M  V30 15769 C 1435.41 -1.85503 -0.311481 0
M  V30 15770 O 1434.77 -1.33596 -1.22564 0
M  V30 15771 C 1434.81 -3.13 1.79062 0
M  V30 15772 O 1433.92 -3.98258 1.07072 0
M  V30 15773 H 1433.26 -0.533921 0.394746 0
M  V30 15774 H 1435.79 -1.19571 1.66024 0
M  V30 15775 H 1435.8 -3.63456 1.85374 0
M  V30 15776 H 1434.47 -3.03844 2.83992 0
M  V30 15777 H 1433.05 -3.56722 1.08645 0
M  V30 15778 N 1435.24 -1.07045 -1.15668 0
M  V30 15779 C 1436.15 -0.699332 -2.23934 0
M  V30 15780 C 1437.16 0.288036 -1.71599 0
M  V30 15781 O 1438.34 0.135447 -2.00944 0
M  V30 15782 C 1435.4 -0.0994775 -3.46557 0
M  V30 15783 C 1434.46 -1.13968 -4.13896 0
M  V30 15784 C 1433.7 -0.56836 -5.30665 0
M  V30 15785 O 1433.92 0.616556 -5.67058 0
M  V30 15786 O 1432.85 -1.31174 -5.87432 0
M  V30 15787 H 1436.68 -1.60212 -2.58003 0
M  V30 15788 H 1434.26 -0.843202 -1.23331 0
M  V30 15789 H 1436.15 0.23293 -4.20756 0
M  V30 15790 H 1434.82 0.776684 -3.14244 0
M  V30 15791 H 1433.73 -1.5244 -3.41633 0
M  V30 15792 H 1435.06 -1.98764 -4.50282 0
M  V30 15793 N 1436.71 1.32449 -0.85411 0
M  V30 15794 C 1437.99 1.91902 -0.378533 0
M  V30 15795 C 1438.37 1.77811 1.13782 0
M  V30 15796 O 1437.72 1.17588 1.95922 0
M  V30 15797 C 1437.93 3.38683 -0.842299 0
M  V30 15798 C 1439.28 4.15817 -0.859161 0
M  V30 15799 O 1440.3 3.47399 -0.786901 0
M  V30 15800 O 1439.16 5.37985 -0.960933 0
M  V30 15801 H 1436.25 0.819614 -0.110284 0
M  V30 15802 H 1438.8 1.41222 -0.940974 0
M  V30 15803 H 1437.57 3.4288 -1.88544 0
M  V30 15804 H 1437.19 3.96767 -0.257278 0
M  V30 15805 N 1438.19 0.611994 1.45232 0
M  V30 15806 C 1439.44 0.106467 2.01419 0
M  V30 15807 C 1439.75 -1.2723 1.48566 0
M  V30 15808 O 1440.96 -1.8708 1.96757 0
M  V30 15809 C 1439.42 0.139639 3.59629 0
M  V30 15810 C 1439.02 1.51853 4.21479 0
M  V30 15811 C 1440.77 -0.310417 4.23364 0
M  V30 15812 C 1438.67 1.50785 5.71855 0
M  V30 15813 H 1437.6 0.0360345 0.753138 0
M  V30 15814 H 1440.26 0.767974 1.66657 0
M  V30 15815 H 1438.64 -0.588606 3.91601 0
M  V30 15816 H 1439.81 2.26884 4.01074 0
M  V30 15817 H 1438.13 1.91105 3.69956 0
M  V30 15818 H 1440.72 -0.337656 5.33633 0
M  V30 15819 H 1441.07 -1.33398 3.94348 0
M  V30 15820 H 1441.6 0.364704 3.96125 0
M  V30 15821 H 1438.34 2.50916 6.05575 0
M  V30 15822 H 1437.86 0.800195 5.94438 0
M  V30 15823 H 1439.54 1.23341 6.35135 0
M  V30 15824 N 1439.67 -1.53632 0.351409 0
M  V30 15825 C 1440.6 -2.2284 -0.536204 0
M  V30 15826 C 1441.61 -1.23765 -1.05764 0
M  V30 15827 O 1442.8 -1.50073 -0.966449 0
M  V30 15828 C 1439.9 -2.9013 -1.75151 0
M  V30 15829 C 1439.08 -4.15588 -1.36401 0
M  V30 15830 C 1438.14 -4.66217 -2.43984 0
M  V30 15831 O 1437.16 -5.3024 -2.06964 0
M  V30 15832 N 1438.36 -4.42817 -3.75358 0
M  V30 15833 H 1441.13 -2.99647 0.0565368 0
M  V30 15834 H 1438.69 -1.60942 0.175905 0
M  V30 15835 H 1440.68 -3.20913 -2.4657 0
M  V30 15836 H 1439.25 -2.16862 -2.25144 0
M  V30 15837 H 1438.47 -3.91264 -0.480258 0
M  V30 15838 H 1439.76 -4.97179 -1.08121 0
M  V30 15839 H 1439.16 -3.9163 -4.08218 0
M  V30 15840 H 1437.71 -4.78186 -4.42924 0
M  V30 15841 N 1441.15 -0.0802183 -1.57396 0
M  V30 15842 C 1442.42 0.628419 -1.8523 0
M  V30 15843 C 1442.8 1.87272 -0.974288 0
M  V30 15844 O 1442.15 2.2846 -0.0427687 0
M  V30 15845 C 1442.36 0.958033 -3.35593 0
M  V30 15846 C 1443.71 1.3279 -4.03301 0
M  V30 15847 O 1444.73 1.04951 -3.40388 0
M  V30 15848 O 1443.59 1.84865 -5.14283 0
M  V30 15849 H 1440.69 0.312945 -0.765503 0
M  V30 15850 H 1443.23 -0.111788 -1.69331 0
M  V30 15851 H 1442.01 0.074648 -3.91229 0
M  V30 15852 H 1441.63 1.75472 -3.56785 0
M  V30 15853 N 1442.63 1.56409 0.193394 0
M  V30 15854 C 1444.04 1.70624 0.757915 0
M  V30 15855 C 1444.39 0.687074 1.83776 0
M  V30 15856 O 1443.51 -0.15616 2.15836 0
M  V30 15857 C 1444.11 3.09352 1.38156 0
M  V30 15858 C 1442.67 3.25326 1.89315 0
M  V30 15859 C 1441.81 2.66576 0.763727 0
M  V30 15860 H 1444.76 1.58668 -0.0317034 0
M  V30 15861 H 1444.79 3.06776 2.25098 0
M  V30 15862 H 1444.3 3.83506 0.595398 0
M  V30 15863 H 1442.4 2.5609 2.70644 0
M  V30 15864 H 1442.51 4.32848 2.05376 0
M  V30 15865 H 1440.88 2.25797 1.17846 0
M  V30 15866 H 1441.66 3.43298 -0.0102243 0
M  V30 15867 N 1444.1 -0.461169 1.50702 0
M  V30 15868 C 1445.35 -1.21431 1.62427 0
M  V30 15869 C 1445.68 -1.91406 0.328228 0
M  V30 15870 O 1444.96 -1.82563 -0.670898 0
M  V30 15871 C 1445.24 -2.25016 2.8114 0
M  V30 15872 C 1445.09 -1.5928 4.20654 0
M  V30 15873 C 1446.41 -3.26234 2.95397 0
M  V30 15874 H 1443.53 -0.440113 0.59116 0
M  V30 15875 H 1446.17 -0.506726 1.83118 0
M  V30 15876 H 1444.32 -2.85363 2.63629 0
M  V30 15877 H 1446 -1.02454 4.49779 0
M  V30 15878 H 1444.24 -0.895665 4.24453 0
M  V30 15879 H 1444.91 -2.34602 4.99666 0
M  V30 15880 H 1447.39 -2.7592 3.1146 0
M  V30 15881 H 1446.26 -3.96031 3.80067 0
M  V30 15882 H 1446.52 -3.90943 2.06436 0
M  V30 15883 N 1445.58 -1.40446 -0.715026 0
M  V30 15884 C 1446.81 -1.42263 -1.50917 0
M  V30 15885 C 1447.23 -0.0242402 -1.88084 0
M  V30 15886 O 1446.59 0.967817 -1.53307 0
M  V30 15887 C 1446.64 -2.31998 -2.7606 0
M  V30 15888 O 1445.74 -1.76361 -3.72787 0
M  V30 15889 H 1445.08 -0.483614 -0.454988 0
M  V30 15890 H 1447.61 -1.84682 -0.880549 0
M  V30 15891 H 1447.62 -2.47204 -3.24583 0
M  V30 15892 H 1446.3 -3.33614 -2.48343 0
M  V30 15893 H 1444.87 -1.70504 -3.31636 0
M  V30 15894 N 1447.06 0.947303 -1.25952 0
M  V30 15895 C 1448.34 1.66964 -1.01894 0
M  V30 15896 C 1448.72 2.06192 0.452555 0
M  V30 15897 O 1448.06 1.78098 1.43156 0
M  V30 15898 C 1448.27 2.88643 -1.96179 0
M  V30 15899 C 1449.62 3.60432 -2.24441 0
M  V30 15900 O 1450.65 2.98737 -1.93996 0
M  V30 15901 O 1449.51 4.7154 -2.76247 0
M  V30 15902 H 1446.6 0.730875 -0.386976 0
M  V30 15903 H 1449.15 0.999577 -1.37137 0
M  V30 15904 H 1447.92 2.565 -2.95506 0
M  V30 15905 H 1447.54 3.63377 -1.61379 0
M  V30 15906 N 1448.54 1.07657 1.15099 0
M  V30 15907 C 1449.49 0.699678 2.19939 0
M  V30 15908 C 1450.46 -0.310432 1.63173 0
M  V30 15909 O 1451.64 -0.196177 1.89789 0
M  V30 15910 C 1448.78 0.106963 3.44934 0
M  V30 15911 C 1447.89 1.16892 4.15885 0
M  V30 15912 C 1447.03 0.540884 5.28439 0
M  V30 15913 C 1446.07 1.58542 5.91211 0
M  V30 15914 N 1445.2 0.979731 6.95231 0
M  V30 15915 H 1450.04 1.59805 2.51528 0
M  V30 15916 H 1447.58 0.798746 1.23525 0
M  V30 15917 H 1449.54 -0.254335 4.16424 0
M  V30 15918 H 1448.17 -0.754756 3.13852 0
M  V30 15919 H 1447.22 1.64775 3.4286 0
M  V30 15920 H 1448.53 1.96078 4.58645 0
M  V30 15921 H 1447.69 0.127397 6.06566 0
M  V30 15922 H 1446.43 -0.282708 4.8688 0
M  V30 15923 H 1445.43 2.00865 5.11794 0
M  V30 15924 H 1446.66 2.41135 6.34847 0
M  V30 15925 H 1444.6 0.177098 6.55761 0
M  V30 15926 H 1444.52 1.70878 7.36435 0
M  V30 15927 H 1445.79 0.591849 7.7725 0
M  V30 15928 N 1450.02 -1.31994 0.861122 0
M  V30 15929 C 1451.26 -1.97025 0.467678 0
M  V30 15930 C 1451.59 -1.68116 -0.978129 0
M  V30 15931 O 1450.85 -0.965342 -1.70234 0
M  V30 15932 C 1451.15 -3.51232 0.661135 0
M  V30 15933 C 1450.81 -4.00142 2.07839 0
M  V30 15934 C 1449.47 -4.1321 2.466 0
M  V30 15935 C 1451.83 -4.25986 3.00309 0
M  V30 15936 C 1449.15 -4.49467 3.7709 0
M  V30 15937 C 1451.51 -4.63704 4.30304 0
M  V30 15938 C 1450.17 -4.74978 4.68991 0
M  V30 15939 H 1449.44 -0.720967 0.171136 0
M  V30 15940 H 1452.09 -1.57285 1.09242 0
M  V30 15941 H 1450.39 -3.91772 -0.0467947 0
M  V30 15942 H 1452.09 -3.99584 0.336669 0
M  V30 15943 H 1448.68 -3.90461 1.76743 0
M  V30 15944 H 1452.86 -4.15393 2.71592 0
M  V30 15945 H 1448.12 -4.56391 4.06838 0
M  V30 15946 H 1452.29 -4.82654 5.02014 0
M  V30 15947 H 1449.92 -5.02828 5.70147 0
M  V30 15948 N 1451.49 -0.619688 -1.44906 0
M  V30 15949 C 1452.74 -0.119633 -2.02146 0
M  V30 15950 C 1453.07 1.25432 -1.48651 0
M  V30 15951 O 1452.32 1.84372 -0.656155 0
M  V30 15952 C 1452.62 -0.0432891 -3.57374 0
M  V30 15953 C 1452.29 -1.35451 -4.30074 0
M  V30 15954 C 1450.95 -1.71365 -4.49653 0
M  V30 15955 C 1453.3 -2.22053 -4.71532 0
M  V30 15956 C 1450.63 -2.93611 -5.07946 0
M  V30 15957 C 1452.98 -3.43559 -5.31178 0
M  V30 15958 C 1451.65 -3.7971 -5.48977 0
M  V30 15959 H 1450.92 -0.0437769 -0.739706 0
M  V30 15960 H 1453.56 -0.803722 -1.73818 0
M  V30 15961 H 1451.87 0.72412 -3.8505 0
M  V30 15962 H 1453.57 0.359964 -3.99381 0
M  V30 15963 H 1450.16 -1.06499 -4.15158 0
M  V30 15964 H 1454.34 -1.95603 -4.56129 0
M  V30 15965 H 1449.6 -3.21712 -5.19915 0
M  V30 15966 H 1453.77 -4.10906 -5.62254 0
M  V30 15967 H 1451.4 -4.7452 -5.93915 0
M  V30 15968 N 1452.97 1.53444 -0.359552 0
M  V30 15969 C 1453.92 2.25544 0.48977 0
M  V30 15970 C 1454.89 1.25982 1.08248 0
M  V30 15971 O 1456.07 1.54751 1.1161 0
M  V30 15972 C 1453.21 3.04358 1.62666 0
M  V30 15973 C 1452.33 4.18801 1.0597 0
M  V30 15974 C 1451.46 4.85069 2.1652 0
M  V30 15975 C 1450.5 5.91554 1.57259 0
M  V30 15976 N 1449.64 6.51537 2.61617 0
M  V30 15977 H 1454.48 2.97709 -0.13158 0
M  V30 15978 H 1452.02 1.469 -0.0767056 0
M  V30 15979 H 1453.97 3.48324 2.29623 0
M  V30 15980 H 1452.6 2.34459 2.21876 0
M  V30 15981 H 1451.66 3.79364 0.280599 0
M  V30 15982 H 1452.97 4.95341 0.586383 0
M  V30 15983 H 1452.12 5.32187 2.9131 0
M  V30 15984 H 1450.86 4.07988 2.67202 0
M  V30 15985 H 1449.87 5.43803 0.809818 0
M  V30 15986 H 1451.09 6.70552 1.07409 0
M  V30 15987 H 1449.04 5.77312 3.11523 0
M  V30 15988 H 1448.95 7.23599 2.18954 0
M  V30 15989 H 1450.22 7.03306 3.36127 0
M  V30 15990 N 1454.45 0.0885642 1.57351 0
M  V30 15991 C 1455.36 -0.887092 2.17182 0
M  V30 15992 C 1456.38 -1.31498 1.13949 0
M  V30 15993 O 1457.55 -1.38424 1.4629 0
M  V30 15994 C 1454.62 -2.13053 2.73513 0
M  V30 15995 C 1453.68 -1.75747 3.91678 0
M  V30 15996 C 1452.91 -2.94163 4.45313 0
M  V30 15997 O 1453.13 -4.08693 3.97903 0
M  V30 15998 O 1452.07 -2.73008 5.36424 0
M  V30 15999 H 1455.89 -0.408073 3.00946 0
M  V30 16000 H 1453.48 -0.135431 1.48785 0
M  V30 16001 H 1455.36 -2.85937 3.09545 0
M  V30 16002 H 1454.04 -2.6002 1.92798 0
M  V30 16003 H 1452.94 -1.00064 3.60469 0
M  V30 16004 H 1454.28 -1.33549 4.73736 0
M  V30 16005 N 1455.93 -1.56509 -0.185096 0
M  V30 16006 C 1457.17 -1.81474 -0.905263 0
M  V30 16007 C 1457.51 -0.664225 -1.82488 0
M  V30 16008 O 1456.78 0.33466 -1.91599 0
M  V30 16009 C 1457.07 -3.16754 -1.71287 0
M  V30 16010 C 1456.92 -4.42312 -0.817302 0
M  V30 16011 C 1458.24 -3.48828 -2.68342 0
M  V30 16012 H 1455.36 -0.660155 -0.327664 0
M  V30 16013 H 1458 -1.89219 -0.172129 0
M  V30 16014 H 1456.15 -3.10282 -2.33789 0
M  V30 16015 H 1457.82 -4.60839 -0.206218 0
M  V30 16016 H 1456.06 -4.33621 -0.124564 0
M  V30 16017 H 1456.73 -5.33487 -1.41758 0
M  V30 16018 H 1459.21 -3.55663 -2.15969 0
M  V30 16019 H 1458.09 -4.44585 -3.21924 0
M  V30 16020 H 1458.35 -2.72829 -3.47875 0
M  V30 16021 N 1457.41 0.45317 -1.50944 0
M  V30 16022 C 1458.65 1.20269 -1.64033 0
M  V30 16023 C 1459.01 1.89287 -0.344707 0
M  V30 16024 O 1458.3 1.79927 0.65855 0
M  V30 16025 C 1458.49 2.25747 -2.7708 0
M  V30 16026 C 1458.32 1.67079 -4.1751 0
M  V30 16027 C 1457.09 1.46264 -4.83668 0
M  V30 16028 C 1459.29 1.15577 -5.01145 0
M  V30 16029 N 1457.27 0.830278 -6.08259 0
M  V30 16030 C 1458.64 0.647721 -6.16607 0
M  V30 16031 C 1460.7 1.04601 -4.86788 0
M  V30 16032 C 1459.4 0.0407277 -7.19288 0
M  V30 16033 C 1461.43 0.452936 -5.89663 0
M  V30 16034 C 1460.79 -0.0446434 -7.04386 0
M  V30 16035 H 1456.89 0.428334 -0.654259 0
M  V30 16036 H 1459.47 0.501782 -1.88123 0
M  V30 16037 H 1457.64 2.93244 -2.54681 0
M  V30 16038 H 1459.38 2.92745 -2.79432 0
M  V30 16039 H 1456.13 1.71995 -4.41265 0
M  V30 16040 H 1456.56 0.531994 -6.74907 0
M  V30 16041 H 1461.2 1.41661 -3.98362 0
M  V30 16042 H 1458.92 -0.34203 -8.07376 0
M  V30 16043 H 1462.5 0.370136 -5.80621 0
M  V30 16044 H 1461.38 -0.496363 -7.82628 0
M  V30 16045 N 1458.88 1.40823 0.707568 0
M  V30 16046 C 1460.13 1.39741 1.4697 0
M  V30 16047 C 1460.46 0.00231194 1.942 0
M  V30 16048 O 1459.74 -0.967798 1.68713 0
M  V30 16049 C 1460.02 2.39385 2.69011 0
M  V30 16050 C 1459.87 3.87953 2.27624 0
M  V30 16051 C 1461.19 2.3645 3.71186 0
M  V30 16052 H 1458.31 0.508904 0.533091 0
M  V30 16053 H 1460.95 1.72015 0.806888 0
M  V30 16054 H 1459.1 2.11993 3.25563 0
M  V30 16055 H 1460.78 4.26202 1.76492 0
M  V30 16056 H 1459.02 4.03399 1.59537 0
M  V30 16057 H 1459.69 4.53201 3.15139 0
M  V30 16058 H 1462.17 2.60731 3.24282 0
M  V30 16059 H 1461.04 3.08204 4.54204 0
M  V30 16060 H 1461.3 1.3789 4.20046 0
M  V30 16061 N 1460.36 -0.94061 1.26453 0
M  V30 16062 C 1461.59 -1.72654 1.14914 0
M  V30 16063 C 1462.01 -1.85823 -0.291789 0
M  V30 16064 O 1461.37 -1.34888 -1.2114 0
M  V30 16065 C 1461.42 -3.11083 1.82372 0
M  V30 16066 O 1460.52 -3.971 1.1129 0
M  V30 16067 H 1459.86 -0.529704 0.400387 0
M  V30 16068 H 1462.39 -1.17803 1.67283 0
M  V30 16069 H 1462.4 -3.6147 1.89219 0
M  V30 16070 H 1461.08 -3.00815 2.87199 0
M  V30 16071 H 1459.66 -3.5555 1.12423 0
M  V30 16072 N 1461.84 -1.08266 -1.14527 0
M  V30 16073 C 1463.07 -0.83288 -1.89396 0
M  V30 16074 C 1463.48 0.614823 -1.78509 0
M  V30 16075 O 1462.84 1.42239 -1.14343 0
M  V30 16076 C 1462.89 -1.244 -3.39421 0
M  V30 16077 O 1462.61 -2.63491 -3.50006 0
M  V30 16078 C 1464.11 -1.02488 -4.3129 0
M  V30 16079 H 1461.33 -0.300474 -0.599964 0
M  V30 16080 H 1463.88 -1.44155 -1.4505 0
M  V30 16081 H 1462.03 -0.679466 -3.81395 0
M  V30 16082 H 1462.45 -2.80517 -4.43182 0
M  V30 16083 H 1463.92 -1.36194 -5.34935 0
M  V30 16084 H 1464.4 0.0381961 -4.39183 0
M  V30 16085 H 1465 -1.57477 -3.95071 0
M  V30 16086 N 1463.32 1.31536 -0.86811 0
M  V30 16087 C 1464.28 2.26849 -0.327456 0
M  V30 16088 C 1465.28 1.52142 0.520514 0
M  V30 16089 O 1466.47 1.71044 0.330088 0
M  V30 16090 C 1463.6 3.36673 0.535174 0
M  V30 16091 H 1464.8 2.76184 -1.16886 0
M  V30 16092 H 1462.35 1.42437 -0.643545 0
M  V30 16093 H 1463.09 2.92627 1.39785 0
M  V30 16094 H 1462.87 3.92034 -0.0719835 0
M  V30 16095 H 1464.36 4.07658 0.905786 0
M  V30 16096 N 1464.8 0.627364 1.44575 0
M  V30 16097 C 1465.76 -0.0700881 2.29093 0
M  V30 16098 C 1466.76 -0.775969 1.40838 0
M  V30 16099 O 1467.95 -0.621129 1.6275 0
M  V30 16100 C 1465.08 -1.10977 3.2233 0
M  V30 16101 H 1466.28 0.673234 2.92246 0
M  V30 16102 H 1463.83 0.387322 1.51425 0
M  V30 16103 H 1464.56 -1.8832 2.64019 0
M  V30 16104 H 1464.35 -0.607587 3.87364 0
M  V30 16105 H 1465.84 -1.59764 3.8583 0
M  V30 16106 N 1466.28 -1.53251 0.367684 0
M  V30 16107 C 1467.69 -1.59591 0.0167132 0
M  V30 16108 C 1467.89 -1.38272 -1.46571 0
M  V30 16109 O 1466.95 -1.18893 -2.22757 0
M  V30 16110 C 1468.26 -2.96932 0.474534 0
M  V30 16111 C 1469.81 -3.10047 0.428934 0
M  V30 16112 C 1470.28 -4.49804 0.862599 0
M  V30 16113 N 1471.77 -4.55925 0.817742 0
M  V30 16114 C 1472.51 -5.62256 1.12496 0
M  V30 16115 N 1472.01 -6.76332 1.50156 0
M  V30 16116 N 1473.8 -5.52251 1.04762 0
M  V30 16117 H 1465.95 -1.6536 1.33303 0
M  V30 16118 H 1468.21 -0.775681 0.544998 0
M  V30 16119 H 1467.92 -3.17679 1.50907 0
M  V30 16120 H 1467.79 -3.76948 -0.137752 0
M  V30 16121 H 1470.18 -2.89009 -0.596473 0
M  V30 16122 H 1470.26 -2.32034 1.07674 0
M  V30 16123 H 1469.9 -4.7158 1.88613 0
M  V30 16124 H 1469.83 -5.2625 0.19202 0
M  V30 16125 H 1472.33 -3.74017 0.540323 0
M  V30 16126 H 1472.64 -7.53412 1.72019 0
M  V30 16127 H 1470.98 -6.77718 1.54024 0
M  V30 16128 H 1474.17 -4.62011 0.752571 0
M  V30 16129 H 1474.35 -6.35022 1.29038 0
M  V30 16130 N 1467.75 -0.0969077 -1.57302 0
M  V30 16131 C 1468.7 0.878876 -2.15357 0
M  V30 16132 C 1469.7 1.29091 -1.0969 0
M  V30 16133 O 1470.9 1.26523 -1.28031 0
M  V30 16134 H 1467.28 0.301458 -0.688932 0
M  V30 16135 H 1469.25 0.364542 -2.96165 0
M  V30 16136 C 1468 2.12761 -2.75006 0
M  V30 16137 H 1467.32 1.81944 -3.56 0
M  V30 16138 H 1468.76 2.79092 -3.19193 0
M  V30 16139 C 1467.22 2.90283 -1.70989 0
M  V30 16140 O 1467.75 3.84889 -1.14992 0
M  V30 16141 N 1465.95 2.53857 -1.41439 0
M  V30 16142 H 1465.5 1.76993 -1.87166 0
M  V30 16143 H 1465.46 3.06025 -0.720816 0
M  V30 16144 N 1469.23 1.56605 0.176793 0
M  V30 16145 C 1470.19 1.95109 1.20271 0
M  V30 16146 C 1471.19 0.83414 1.37473 0
M  V30 16147 O 1472.38 1.10128 1.34972 0
M  V30 16148 C 1469.52 2.24112 2.56878 0
M  V30 16149 H 1470.71 2.86909 0.87312 0
M  V30 16150 H 1468.26 1.50578 0.419033 0
M  V30 16151 H 1469 1.35009 2.94861 0
M  V30 16152 H 1468.78 3.05523 2.45761 0
M  V30 16153 H 1470.27 2.54842 3.30825 0
M  V30 16154 N 1470.71 -0.445159 1.51182 0
M  V30 16155 C 1471.94 -1.21787 1.67259 0
M  V30 16156 C 1472.35 -1.85206 0.366641 0
M  V30 16157 O 1471.71 -1.70376 -0.654095 0
M  V30 16158 C 1471.76 -2.30765 2.78262 0
M  V30 16159 O 1471.48 -1.69942 4.03796 0
M  V30 16160 C 1472.98 -3.21186 3.05539 0
M  V30 16161 H 1470.2 -0.367364 0.561502 0
M  V30 16162 H 1472.75 -0.528415 1.97555 0
M  V30 16163 H 1470.9 -2.9544 2.50587 0
M  V30 16164 H 1471.32 -2.41905 4.65384 0
M  V30 16165 H 1472.79 -3.93805 3.8681 0
M  V30 16166 H 1473.27 -3.81487 2.17634 0
M  V30 16167 H 1473.87 -2.62221 3.34844 0
M  V30 16168 N 1472.19 -1.41197 -0.700089 0
M  V30 16169 C 1473.44 -1.39611 -1.45574 0
M  V30 16170 C 1473.75 -0.00683378 -1.95599 0
M  V30 16171 O 1474.96 0.131643 -2.71181 0
M  V30 16172 C 1473.41 -2.45452 -2.63214 0
M  V30 16173 C 1473.02 -3.90265 -2.19993 0
M  V30 16174 C 1474.76 -2.52996 -3.40871 0
M  V30 16175 C 1472.67 -4.87668 -3.34565 0
M  V30 16176 H 1471.6 -0.51917 -0.546789 0
M  V30 16177 H 1474.25 -1.67001 -0.760456 0
M  V30 16178 H 1472.63 -2.11186 -3.34987 0
M  V30 16179 H 1473.81 -4.33756 -1.55539 0
M  V30 16180 H 1472.12 -3.86339 -1.55341 0
M  V30 16181 H 1474.72 -3.22952 -4.26153 0
M  V30 16182 H 1475.06 -1.56536 -3.85749 0
M  V30 16183 H 1475.6 -2.86331 -2.76151 0
M  V30 16184 H 1472.33 -5.85517 -2.94704 0
M  V30 16185 H 1471.85 -4.4883 -3.97884 0
M  V30 16186 H 1473.53 -5.08215 -4.00409 0
M  V30 16187 N 1473.67 0.933891 -1.2695 0
M  V30 16188 C 1474.9 1.71263 -1.15553 0
M  V30 16189 C 1475.3 1.86948 0.291059 0
M  V30 16190 O 1474.65 1.38173 1.21053 0
M  V30 16191 C 1474.71 3.13479 -1.75986 0
M  V30 16192 C 1474.37 3.21154 -3.2513 0
M  V30 16193 C 1475.37 3.03874 -4.21849 0
M  V30 16194 C 1473.05 3.44311 -3.65726 0
M  V30 16195 C 1475.05 3.09631 -5.57142 0
M  V30 16196 C 1472.74 3.49702 -5.01151 0
M  V30 16197 C 1473.73 3.32379 -5.96668 0
M  V30 16198 O 1473.42 3.37493 -7.29626 0
M  V30 16199 H 1473.15 0.542801 -0.402918 0
M  V30 16200 H 1475.71 1.17877 -1.68209 0
M  V30 16201 H 1473.94 3.6832 -1.178 0
M  V30 16202 H 1475.63 3.73295 -1.59391 0
M  V30 16203 H 1476.39 2.85832 -3.91823 0
M  V30 16204 H 1472.27 3.56847 -2.91859 0
M  V30 16205 H 1475.82 2.96028 -6.31675 0
M  V30 16206 H 1471.71 3.67267 -5.30835 0
M  V30 16207 H 1472.48 3.53988 -7.37994 0
M  V30 16208 N 1475.14 1.08871 1.13951 0
M  V30 16209 C 1476.42 0.73388 1.81311 0
M  V30 16210 C 1476.8 -0.781824 1.96089 0
M  V30 16211 O 1476.15 -1.70211 1.52448 0
M  V30 16212 C 1476.36 1.46631 3.16702 0
M  V30 16213 C 1477.71 1.62843 3.92132 0
M  V30 16214 O 1478.73 1.42836 3.26307 0
M  V30 16215 O 1477.59 1.95893 5.10185 0
M  V30 16216 H 1474.68 0.262976 0.784074 0
M  V30 16217 H 1477.23 1.19057 1.20927 0
M  V30 16218 H 1476 2.49863 3.01138 0
M  V30 16219 H 1475.62 1.00141 3.84782 0
M  V30 16220 N 1476.62 -1.31073 0.875073 0
M  V30 16221 C 1477.57 -2.28389 0.332718 0
M  V30 16222 C 1478.54 -1.55954 -0.571639 0
M  V30 16223 O 1479.72 -1.84073 -0.502185 0
M  V30 16224 C 1476.86 -3.42083 -0.455364 0
M  V30 16225 C 1475.98 -4.29358 0.477088 0
M  V30 16226 C 1475.11 -5.30201 -0.325619 0
M  V30 16227 C 1474.15 -6.09123 0.602935 0
M  V30 16228 N 1473.29 -7.01909 -0.163836 0
M  V30 16229 H 1478.13 -2.74166 1.16777 0
M  V30 16230 H 1475.66 -1.3487 0.587248 0
M  V30 16231 H 1477.62 -4.06746 -0.928104 0
M  V30 16232 H 1476.25 -2.97402 -1.25507 0
M  V30 16233 H 1475.3 -3.65091 1.06829 0
M  V30 16234 H 1476.62 -4.84425 1.18887 0
M  V30 16235 H 1475.77 -6.00565 -0.860647 0
M  V30 16236 H 1474.51 -4.75802 -1.07067 0
M  V30 16237 H 1473.51 -5.37645 1.14968 0
M  V30 16238 H 1474.74 -6.65609 1.34692 0
M  V30 16239 H 1472.69 -6.49913 -0.891604 0
M  V30 16240 H 1472.6 -7.5442 0.48851 0
M  V30 16241 H 1473.87 -7.76529 -0.679929 0
M  V30 16242 N 1478.1 -0.635022 -1.4424 0
M  V30 16243 C 1479.35 -0.141276 -2.02307 0
M  V30 16244 C 1479.68 1.23508 -1.49865 0
M  V30 16245 O 1478.95 1.82065 -0.684291 0
M  V30 16246 C 1479.24 -0.132196 -3.59857 0
M  V30 16247 C 1479.09 -1.54117 -4.22573 0
M  V30 16248 C 1480.41 0.541186 -4.3676 0
M  V30 16249 H 1477.53 -0.0528117 -0.735105 0
M  V30 16250 H 1480.17 -0.812239 -1.71763 0
M  V30 16251 H 1478.32 0.439156 -3.8601 0
M  V30 16252 H 1479.99 -2.16171 -4.07514 0
M  V30 16253 H 1478.24 -2.09389 -3.79919 0
M  V30 16254 H 1478.91 -1.48682 -5.31599 0
M  V30 16255 H 1481.38 0.0552603 -4.16063 0
M  V30 16256 H 1480.26 0.516742 -5.46462 0
M  V30 16257 H 1480.52 1.61222 -4.11655 0
M  V30 16258 N 1479.58 1.53054 -0.375806 0
M  V30 16259 C 1480.83 2.01401 0.210673 0
M  V30 16260 C 1481.15 1.26275 1.47935 0
M  V30 16261 O 1480.41 0.347611 1.92588 0
M  V30 16262 C 1480.71 3.53321 0.538419 0
M  V30 16263 C 1480.37 4.46376 -0.637126 0
M  V30 16264 C 1479.04 4.71534 -0.959653 0
M  V30 16265 C 1481.39 5.01364 -1.42421 0
M  V30 16266 C 1478.72 5.4893 -2.07105 0
M  V30 16267 C 1481.07 5.79975 -2.5261 0
M  V30 16268 C 1479.73 6.03416 -2.85386 0
M  V30 16269 H 1479 0.736979 0.0770907 0
M  V30 16270 H 1481.65 1.84574 -0.510376 0
M  V30 16271 H 1479.95 3.6815 1.34062 0
M  V30 16272 H 1481.65 3.88212 1.00461 0
M  V30 16273 H 1478.24 4.2695 -0.375722 0
M  V30 16274 H 1482.42 4.81865 -1.18828 0
M  V30 16275 H 1477.68 5.65309 -2.32886 0
M  V30 16276 H 1481.85 6.21588 -3.14008 0
M  V30 16277 H 1479.48 6.63172 -3.71627 0
M  V30 16278 N 1481.06 0.105248 1.57248 0
M  V30 16279 C 1482.47 -0.251385 1.57608 0
M  V30 16280 C 1482.67 -1.677 1.11709 0
M  V30 16281 O 1481.73 -2.39552 0.798182 0
M  V30 16282 C 1483.04 -0.0305755 3.00684 0
M  V30 16283 C 1484.59 -0.0975409 3.12848 0
M  V30 16284 C 1485.06 0.0954024 4.57901 0
M  V30 16285 N 1486.56 0.040908 4.63182 0
M  V30 16286 C 1487.29 0.165298 5.73162 0
M  V30 16287 N 1486.79 0.345091 6.9194 0
M  V30 16288 N 1488.58 0.105847 5.62 0
M  V30 16289 H 1480.73 1.03658 1.85388 0
M  V30 16290 H 1482.99 0.407074 0.856151 0
M  V30 16291 H 1482.7 0.954461 3.38501 0
M  V30 16292 H 1482.57 -0.768477 3.69289 0
M  V30 16293 H 1484.96 -1.07309 2.74898 0
M  V30 16294 H 1485.04 0.672017 2.46815 0
M  V30 16295 H 1484.69 1.06786 4.96547 0
M  V30 16296 H 1484.62 -0.693974 5.22007 0
M  V30 16297 H 1487.11 -0.0951009 3.7778 0
M  V30 16298 H 1487.42 0.431243 7.71596 0
M  V30 16299 H 1485.76 0.38089 6.93955 0
M  V30 16300 H 1488.96 -0.0335544 4.68088 0
M  V30 16301 H 1489.13 0.206235 6.47672 0
M  V30 16302 N 1482.53 -1.56697 -0.168486 0
M  V30 16303 C 1483.77 -1.83952 -0.891116 0
M  V30 16304 C 1484.14 -0.68657 -1.79305 0
M  V30 16305 O 1485.34 -0.839644 -2.5535 0
M  V30 16306 C 1483.61 -3.16331 -1.66342 0
M  V30 16307 S 1485.17 -3.65077 -2.43442 0
M  V30 16308 H 1481.99 -0.645349 -0.298405 0
M  V30 16309 H 1484.59 -1.94904 -0.152554 0
M  V30 16310 H 1483.29 -3.98233 -0.991915 0
M  V30 16311 H 1482.82 -3.08328 -2.4433 0
M  V30 16312 H 1484.84 -3.32629 -3.68201 0
M  V30 16313 N 1484.01 0.437135 -1.51416 0
M  V30 16314 C 1484.94 1.538 -1.75692 0
M  V30 16315 C 1485.92 1.5891 -0.606759 0
M  V30 16316 O 1487.11 1.74635 -0.849492 0
M  V30 16317 C 1484.24 2.91877 -1.88215 0
M  V30 16318 C 1483.19 3.01628 -3.03652 0
M  V30 16319 C 1482.52 4.41687 -3.01358 0
M  V30 16320 C 1483.82 2.75691 -4.43612 0
M  V30 16321 H 1485.51 1.33737 -2.67871 0
M  V30 16322 H 1483.06 0.641936 -1.289 0
M  V30 16323 H 1485.01 3.68851 -2.03781 0
M  V30 16324 H 1483.74 3.13173 -0.926847 0
M  V30 16325 H 1482.39 2.27094 -2.87791 0
M  V30 16326 H 1482.04 4.5995 -2.03605 0
M  V30 16327 H 1481.74 4.49141 -3.78875 0
M  V30 16328 H 1483.27 5.20634 -3.19018 0
M  V30 16329 H 1484.68 3.42398 -4.59822 0
M  V30 16330 H 1483.08 2.94554 -5.22836 0
M  V30 16331 H 1484.15 1.71297 -4.53636 0
M  V30 16332 N 1485.49 1.41566 0.692592 0
M  V30 16333 C 1486.9 1.36606 1.27262 0
M  V30 16334 C 1487.25 0.0506082 1.96135 0
M  V30 16335 O 1486.38 -0.851071 1.98962 0
M  V30 16336 C 1486.97 2.47434 2.31434 0
M  V30 16337 C 1485.53 2.45863 2.85006 0
M  V30 16338 C 1484.68 2.2713 1.59083 0
M  V30 16339 H 1487.63 1.51038 0.487149 0
M  V30 16340 H 1487.65 2.16663 3.12789 0
M  V30 16341 H 1487.16 3.43161 1.81278 0
M  V30 16342 H 1485.26 1.53901 3.3933 0
M  V30 16343 H 1485.38 3.42279 3.35234 0
M  V30 16344 H 1483.74 1.75061 1.85002 0
M  V30 16345 H 1484.52 3.24887 1.10919 0
M  V30 16346 N 1486.97 -0.927146 1.27443 0
M  V30 16347 C 1487.92 -2.04917 1.10053 0
M  V30 16348 C 1488.91 -1.69384 0.0234668 0
M  V30 16349 O 1490.12 -1.79085 0.181228 0
M  V30 16350 H 1486.49 -0.671189 0.33913 0
M  V30 16351 H 1488.46 -2.16732 2.05109 0
M  V30 16352 C 1487.21 -3.39178 0.765072 0
M  V30 16353 H 1486.53 -3.67006 1.58577 0
M  V30 16354 H 1487.97 -4.18458 0.683266 0
M  V30 16355 C 1486.43 -3.32696 -0.530578 0
M  V30 16356 O 1486.96 -3.69967 -1.56484 0
M  V30 16357 N 1485.17 -2.85793 -0.526396 0
M  V30 16358 H 1484.72 -2.55658 0.315675 0
M  V30 16359 H 1484.67 -2.81838 -1.39337 0
M  V30 16360 N 1488.45 -1.09474 -1.13372 0
M  V30 16361 C 1489.72 -0.743485 -1.80919 0
M  V30 16362 C 1490.1 0.771414 -1.965 0
M  V30 16363 O 1489.45 1.694 -1.53349 0
M  V30 16364 C 1489.66 -1.48309 -3.1592 0
M  V30 16365 C 1491.01 -1.64921 -3.91263 0
M  V30 16366 O 1492.03 -1.44564 -3.25545 0
M  V30 16367 O 1490.89 -1.98595 -5.09139 0
M  V30 16368 H 1487.99 -0.26713 -0.782669 0
M  V30 16369 H 1490.53 -1.19697 -1.20294 0
M  V30 16370 H 1489.3 -2.51456 -2.99809 0
M  V30 16371 H 1488.93 -1.02181 -3.84246 0
M  V30 16372 N 1489.92 1.30607 -0.882012 0
M  V30 16373 C 1490.83 2.31967 -0.350503 0
M  V30 16374 C 1491.85 1.6522 0.54575 0
M  V30 16375 O 1493.03 1.96544 0.439581 0
M  V30 16376 C 1490.09 3.44037 0.428924 0
M  V30 16377 C 1489.15 4.26417 -0.496727 0
M  V30 16378 C 1488.39 5.33135 0.245597 0
M  V30 16379 O 1488.61 5.51077 1.47209 0
M  V30 16380 O 1487.54 6.00551 -0.402767 0
M  V30 16381 H 1491.37 2.79374 -1.19095 0
M  V30 16382 H 1488.95 1.34723 -0.645754 0
M  V30 16383 H 1490.84 4.12314 0.870346 0
M  V30 16384 H 1489.51 2.9877 1.24573 0
M  V30 16385 H 1488.42 3.60848 -0.986899 0
M  V30 16386 H 1489.75 4.7528 -1.27945 0
M  V30 16387 N 1491.4 0.642663 1.43901 0
M  V30 16388 C 1492.65 0.152003 2.0223 0
M  V30 16389 C 1492.98 -1.22711 1.50518 0
M  V30 16390 O 1492.26 -1.817 0.693937 0
M  V30 16391 C 1492.54 0.151278 3.59782 0
M  V30 16392 C 1492.39 1.56356 4.2175 0
M  V30 16393 C 1493.71 -0.518016 4.37041 0
M  V30 16394 H 1490.83 0.0567094 0.734815 0
M  V30 16395 H 1493.47 0.821337 1.7133 0
M  V30 16396 H 1491.62 -0.418679 3.86237 0
M  V30 16397 H 1493.29 2.18329 4.06362 0
M  V30 16398 H 1491.54 2.11401 3.78803 0
M  V30 16399 H 1492.21 1.51499 5.30803 0
M  V30 16400 H 1494.68 -0.0331947 4.16087 0
M  V30 16401 H 1493.56 -0.487754 5.46729 0
M  V30 16402 H 1493.82 -1.59036 4.12504 0
M  V30 16403 N 1492.88 -1.52852 0.383918 0
M  V30 16404 C 1493.83 -2.23089 -0.470652 0
M  V30 16405 C 1494.82 -1.23278 -1.03399 0
M  V30 16406 O 1496.01 -1.48641 -0.960985 0
M  V30 16407 C 1493.14 -3.03721 -1.60025 0
M  V30 16408 C 1492.22 -4.10924 -1.04892 0
M  V30 16409 N 1492.61 -5.05312 -0.222083 0
M  V30 16410 C 1490.91 -4.25958 -1.32195 0
M  V30 16411 C 1491.61 -5.81642 0.0818929 0
M  V30 16412 N 1490.59 -5.41101 -0.520629 0
M  V30 16413 H 1494.39 -2.93421 0.167663 0
M  V30 16414 H 1491.9 -1.6125 0.192927 0
M  V30 16415 H 1493.9 -3.52572 -2.22482 0
M  V30 16416 H 1492.56 -2.34924 -2.24145 0
M  V30 16417 H 1493.57 -5.1771 0.140223 0
M  V30 16418 H 1490.25 -3.68389 -1.96457 0
M  V30 16419 H 1491.64 -6.67684 0.751481 0
M  V30 16420 N 1494.36 -0.113586 -1.5719 0
M  V30 16421 C 1495.31 0.855985 -2.16277 0
M  V30 16422 C 1496.3 1.2792 -1.11053 0
M  V30 16423 O 1497.51 1.25158 -1.29366 0
M  V30 16424 H 1493.88 0.294134 -0.692091 0
M  V30 16425 H 1495.85 0.333109 -2.96535 0
M  V30 16426 C 1494.6 2.09832 -2.77247 0
M  V30 16427 H 1493.93 1.78158 -3.5791 0
M  V30 16428 H 1495.37 2.7569 -3.22135 0
M  V30 16429 C 1493.82 2.88453 -1.74059 0
M  V30 16430 O 1494.35 3.83648 -1.19068 0
M  V30 16431 N 1492.56 2.52342 -1.44124 0
M  V30 16432 H 1492.11 1.74998 -1.89033 0
M  V30 16433 H 1492.07 3.05244 -0.753234 0
M  V30 16434 N 1495.84 1.56784 0.160173 0
M  V30 16435 C 1496.77 2.00298 1.20012 0
M  V30 16436 C 1497.75 0.880356 1.45546 0
M  V30 16437 O 1498.93 1.14724 1.56691 0
M  V30 16438 C 1496.06 2.37238 2.53645 0
M  V30 16439 C 1495.02 3.52563 2.42658 0
M  V30 16440 C 1494.34 3.75278 3.80881 0
M  V30 16441 C 1495.64 4.85657 1.92183 0
M  V30 16442 H 1497.34 2.87423 0.838362 0
M  V30 16443 H 1494.88 1.3828 0.401838 0
M  V30 16444 H 1496.84 2.66278 3.2661 0
M  V30 16445 H 1495.56 1.47035 2.9163 0
M  V30 16446 H 1494.22 3.23669 1.72146 0
M  V30 16447 H 1493.87 2.82347 4.1628 0
M  V30 16448 H 1493.57 4.52882 3.74396 0
M  V30 16449 H 1495.09 4.0673 4.55415 0
M  V30 16450 H 1496.51 5.13501 2.54931 0
M  V30 16451 H 1494.9 5.66975 1.96619 0
M  V30 16452 H 1495.97 4.76908 0.876742 0
M  V30 16453 N 1497.32 -0.429099 1.51646 0
M  V30 16454 C 1498.56 -1.17482 1.63954 0
M  V30 16455 C 1498.88 -1.92152 0.36565 0
M  V30 16456 O 1500.08 -2.68991 0.368221 0
M  V30 16457 C 1498.54 -2.13703 2.89585 0
M  V30 16458 C 1498.15 -1.44642 4.24008 0
M  V30 16459 C 1499.89 -2.88657 3.11252 0
M  V30 16460 C 1497.8 -2.39395 5.40781 0
M  V30 16461 H 1496.73 -0.442234 0.610692 0
M  V30 16462 H 1499.38 -0.441088 1.7812 0
M  V30 16463 H 1497.76 -2.90545 2.69071 0
M  V30 16464 H 1498.94 -0.733012 4.54932 0
M  V30 16465 H 1497.25 -0.818084 4.08285 0
M  V30 16466 H 1499.85 -3.59653 3.95669 0
M  V30 16467 H 1500.19 -3.50473 2.24664 0
M  V30 16468 H 1500.72 -2.18919 3.32144 0
M  V30 16469 H 1497.46 -1.82255 6.29653 0
M  V30 16470 H 1496.98 -3.08766 5.14222 0
M  V30 16471 H 1498.66 -3.0035 5.73061 0
M  V30 16472 N 1498.79 -1.41931 -0.685074 0
M  V30 16473 C 1499.73 -1.40545 -1.81052 0
M  V30 16474 C 1500.74 -0.306024 -1.59898 0
M  V30 16475 O 1501.93 -0.568444 -1.69207 0
M  V30 16476 C 1499.03 -1.17194 -3.17992 0
M  V30 16477 C 1498.2 -2.39376 -3.66084 0
M  V30 16478 C 1497.26 -2.11725 -4.81725 0
M  V30 16479 O 1496.29 -2.84847 -4.92799 0
M  V30 16480 N 1497.49 -1.11399 -5.69711 0
M  V30 16481 H 1500.25 -2.37549 -1.8273 0
M  V30 16482 H 1497.81 -1.36679 -0.86779 0
M  V30 16483 H 1499.81 -0.966307 -3.92994 0
M  V30 16484 H 1498.38 -0.287499 -3.11275 0
M  V30 16485 H 1497.6 -2.75575 -2.81873 0
M  V30 16486 H 1498.88 -3.2076 -3.94956 0
M  V30 16487 H 1498.28 -0.509008 -5.63405 0
M  V30 16488 H 1496.84 -0.968239 -6.44568 0
M  V30 16489 N 1500.27 0.920374 -1.27933 0
M  V30 16490 C 1501.2 2.03882 -1.13817 0
M  V30 16491 C 1502.18 1.70058 -0.0376853 0
M  V30 16492 O 1503.37 1.93023 -0.213492 0
M  V30 16493 C 1500.5 3.38142 -0.792296 0
M  V30 16494 C 1499.45 3.86104 -1.84683 0
M  V30 16495 C 1498.78 5.17253 -1.35474 0
M  V30 16496 C 1500.08 4.0869 -3.25223 0
M  V30 16497 H 1501.77 2.15949 -2.07379 0
M  V30 16498 H 1499.32 1.03764 -0.998454 0
M  V30 16499 H 1501.27 4.15872 -0.680337 0
M  V30 16500 H 1499.99 3.26109 0.179029 0
M  V30 16501 H 1498.65 3.10573 -1.94782 0
M  V30 16502 H 1498.3 5.01618 -0.372666 0
M  V30 16503 H 1498 5.50314 -2.05982 0
M  V30 16504 H 1499.53 5.97545 -1.25587 0
M  V30 16505 H 1500.94 4.76965 -3.18083 0
M  V30 16506 H 1499.34 4.5307 -3.93507 0
M  V30 16507 H 1500.41 3.13729 -3.69733 0
M  V30 16508 N 1501.75 1.10074 1.1279 0
M  V30 16509 C 1503.17 0.831776 1.36212 0
M  V30 16510 C 1503.37 -0.550632 1.93831 0
M  V30 16511 O 1502.42 -1.30422 2.16209 0
M  V30 16512 C 1503.73 1.92844 2.3072 0
M  V30 16513 C 1505.28 1.95645 2.4432 0
M  V30 16514 C 1505.76 3.04474 3.4214 0
M  V30 16515 N 1507.25 3.03756 3.49695 0
M  V30 16516 C 1507.98 3.84605 4.25284 0
M  V30 16517 N 1507.48 4.7538 5.0397 0
M  V30 16518 N 1509.27 3.72838 4.20652 0
M  V30 16519 H 1501.42 1.99187 0.737452 0
M  V30 16520 H 1503.69 0.865383 0.387062 0
M  V30 16521 H 1503.39 2.92323 1.9555 0
M  V30 16522 H 1503.27 1.81241 3.30805 0
M  V30 16523 H 1505.65 0.968004 2.78772 0
M  V30 16524 H 1505.73 2.11325 1.44136 0
M  V30 16525 H 1505.38 4.03536 3.08418 0
M  V30 16526 H 1505.31 2.86036 4.42144 0
M  V30 16527 H 1507.8 2.37977 2.93556 0
M  V30 16528 H 1508.11 5.33637 5.58974 0
M  V30 16529 H 1506.46 4.79411 5.0318 0
M  V30 16530 H 1509.65 3.01276 3.5826 0
M  V30 16531 H 1509.82 4.36083 4.79308 0
M  V30 16532 N 1503.23 -1.30138 0.888926 0
M  V30 16533 C 1504.5 -1.90831 0.42928 0
M  V30 16534 C 1504.88 -1.80765 -1.09028 0
M  V30 16535 O 1504.23 -1.22741 -1.92735 0
M  V30 16536 C 1504.44 -3.36331 0.931798 0
M  V30 16537 C 1505.79 -4.13393 0.969106 0
M  V30 16538 O 1506.81 -3.45191 0.878731 0
M  V30 16539 O 1505.67 -5.35249 1.10323 0
M  V30 16540 H 1502.77 -0.816401 0.131976 0
M  V30 16541 H 1505.31 -1.38678 0.978086 0
M  V30 16542 H 1504.09 -3.37761 1.97568 0
M  V30 16543 H 1503.71 -3.95945 0.362383 0
M  V30 16544 N 1504.71 -0.650285 -1.43559 0
M  V30 16545 C 1505.95 -0.162484 -2.01847 0
M  V30 16546 C 1506.28 1.22251 -1.51278 0
M  V30 16547 O 1505.54 1.82939 -0.695115 0
M  V30 16548 C 1505.83 -0.119084 -3.57202 0
M  V30 16549 C 1505.5 -1.44543 -4.27104 0
M  V30 16550 C 1504.16 -1.80864 -4.45917 0
M  V30 16551 C 1506.51 -2.32005 -4.66715 0
M  V30 16552 C 1503.84 -3.04319 -5.01604 0
M  V30 16553 C 1506.19 -3.54748 -5.23771 0
M  V30 16554 C 1504.86 -3.9127 -5.408 0
M  V30 16555 H 1504.13 -0.0594573 -0.738611 0
M  V30 16556 H 1506.78 -0.84041 -1.72074 0
M  V30 16557 H 1505.08 0.642282 -3.865 0
M  V30 16558 H 1506.78 0.275168 -4.00055 0
M  V30 16559 H 1503.37 -1.15281 -4.12805 0
M  V30 16560 H 1507.55 -2.05234 -4.51877 0
M  V30 16561 H 1502.81 -3.32668 -5.12974 0
M  V30 16562 H 1506.98 -4.2274 -5.53411 0
M  V30 16563 H 1504.61 -4.87011 -5.83716 0
M  V30 16564 N 1506.18 1.52647 -0.392018 0
M  V30 16565 C 1507.43 2.00798 0.19056 0
M  V30 16566 C 1507.75 1.28265 1.47673 0
M  V30 16567 O 1508.95 1.67142 2.13953 0
M  V30 16568 C 1507.41 3.57779 0.390148 0
M  V30 16569 C 1507.02 4.39213 -0.882933 0
M  V30 16570 C 1508.76 4.14211 0.928945 0
M  V30 16571 C 1506.67 5.87801 -0.651474 0
M  V30 16572 H 1505.6 0.750262 0.0749879 0
M  V30 16573 H 1508.25 1.7613 -0.514835 0
M  V30 16574 H 1506.63 3.78707 1.15746 0
M  V30 16575 H 1507.8 4.30051 -1.65507 0
M  V30 16576 H 1506.12 3.94015 -1.34688 0
M  V30 16577 H 1508.72 5.22884 1.11787 0
M  V30 16578 H 1509.06 3.70475 1.89878 0
M  V30 16579 H 1509.59 3.97185 0.221135 0
M  V30 16580 H 1506.33 6.35864 -1.59239 0
M  V30 16581 H 1505.85 5.99744 0.0816786 0
M  V30 16582 H 1507.53 6.46363 -0.287057 0
M  V30 16583 N 1507.66 0.121921 1.57128 0
M  V30 16584 C 1508.61 -0.844503 2.16728 0
M  V30 16585 C 1509.6 -1.2733 1.1173 0
M  V30 16586 O 1510.81 -1.2447 1.30028 0
M  V30 16587 H 1507.19 -0.290459 0.693641 0
M  V30 16588 H 1509.16 -0.317379 2.96707 0
M  V30 16589 C 1507.91 -2.08359 2.78356 0
M  V30 16590 H 1507.23 -1.76258 3.5885 0
M  V30 16591 H 1508.67 -2.73978 3.23592 0
M  V30 16592 C 1507.13 -2.87526 1.75586 0
M  V30 16593 O 1507.66 -3.83011 1.21101 0
M  V30 16594 N 1505.86 -2.51575 1.4546 0
M  V30 16595 H 1505.41 -1.73993 1.89958 0
M  V30 16596 H 1505.37 -3.0484 0.769411 0
M  V30 16597 N 1509.14 -1.56867 -0.151857 0
M  V30 16598 C 1510.09 -1.97899 -1.18763 0
M  V30 16599 C 1511.06 -0.845833 -1.42951 0
M  V30 16600 O 1512.24 -1.10751 -1.55367 0
M  V30 16601 C 1509.38 -2.36063 -2.5173 0
M  V30 16602 C 1508.5 -3.62647 -2.34757 0
M  V30 16603 C 1507.63 -3.89936 -3.60726 0
M  V30 16604 C 1506.67 -5.09806 -3.38769 0
M  V30 16605 N 1505.81 -5.33129 -4.56856 0
M  V30 16606 H 1510.65 -2.86187 -0.830713 0
M  V30 16607 H 1508.18 -1.41592 -0.398745 0
M  V30 16608 H 1510.14 -2.56218 -3.29254 0
M  V30 16609 H 1508.77 -1.50861 -2.85379 0
M  V30 16610 H 1507.82 -3.50297 -1.48312 0
M  V30 16611 H 1509.14 -4.50328 -2.1449 0
M  V30 16612 H 1508.29 -4.10563 -4.4668 0
M  V30 16613 H 1507.03 -3.00668 -3.83993 0
M  V30 16614 H 1506.03 -4.89057 -2.51203 0
M  V30 16615 H 1507.26 -6.00623 -3.16906 0
M  V30 16616 H 1505.2 -4.46815 -4.80305 0
M  V30 16617 H 1505.12 -6.1507 -4.39574 0
M  V30 16618 H 1506.39 -5.5825 -5.44038 0
M  V30 16619 N 1510.62 0.421051 -1.51871 0
M  V30 16620 C 1512.03 1.00033 -1.5764 0
M  V30 16621 C 1512.38 1.91875 -0.409665 0
M  V30 16622 O 1511.51 2.11201 0.471516 0
M  V30 16623 C 1512.1 1.82099 -2.85701 0
M  V30 16624 C 1510.66 2.35049 -2.93988 0
M  V30 16625 C 1509.81 1.14703 -2.52465 0
M  V30 16626 H 1512.76 0.201715 -1.57413 0
M  V30 16627 H 1512.78 2.67719 -2.70382 0
M  V30 16628 H 1512.29 1.15229 -3.706 0
M  V30 16629 H 1510.39 3.05327 -2.13556 0
M  V30 16630 H 1510.5 2.66731 -3.97984 0
M  V30 16631 H 1508.87 1.49736 -2.06037 0
M  V30 16632 H 1509.65 0.494171 -3.39725 0
M  V30 16633 N 1512.1 1.42293 0.677538 0
M  V30 16634 C 1513.34 1.42827 1.43973 0
M  V30 16635 C 1513.68 0.0435041 1.94151 0
M  V30 16636 O 1512.95 -0.931794 1.70727 0
M  V30 16637 C 1513.23 2.45037 2.63873 0
M  V30 16638 C 1513.09 3.92694 2.19344 0
M  V30 16639 C 1514.41 2.4427 3.66087 0
M  V30 16640 H 1511.52 0.520097 0.522176 0
M  V30 16641 H 1514.17 1.73688 0.770219 0
M  V30 16642 H 1512.32 2.18851 3.20993 0
M  V30 16643 H 1513.99 4.2985 1.67412 0
M  V30 16644 H 1512.23 4.06692 1.50944 0
M  V30 16645 H 1512.9 4.59784 3.05455 0
M  V30 16646 H 1515.38 2.67551 3.18678 0
M  V30 16647 H 1514.25 3.17769 4.47564 0
M  V30 16648 H 1514.52 1.46769 4.17027 0
M  V30 16649 N 1513.57 -0.913576 1.28419 0
M  V30 16650 C 1514.5 -2.03275 1.14897 0
M  V30 16651 C 1515.49 -1.70036 0.0467034 0
M  V30 16652 O 1516.67 -1.92907 0.223725 0
M  V30 16653 C 1513.8 -3.37717 0.810217 0
M  V30 16654 C 1512.75 -3.85119 1.86728 0
M  V30 16655 C 1512.08 -5.16527 1.38215 0
M  V30 16656 C 1513.38 -4.06959 3.27386 0
M  V30 16657 H 1515.07 -2.14847 2.08522 0
M  V30 16658 H 1512.62 -1.03233 1.00394 0
M  V30 16659 H 1514.57 -4.15505 0.702382 0
M  V30 16660 H 1513.3 -3.26199 -0.161732 0
M  V30 16661 H 1511.96 -3.09536 1.96426 0
M  V30 16662 H 1511.6 -5.01413 0.399263 0
M  V30 16663 H 1511.3 -5.49213 2.08898 0
M  V30 16664 H 1512.83 -5.96871 1.28754 0
M  V30 16665 H 1514.24 -4.75272 3.20608 0
M  V30 16666 H 1512.64 -4.50977 3.95904 0
M  V30 16667 H 1513.71 -3.11764 3.71391 0
M  V30 16668 N 1515.05 -1.1067 -1.12204 0
M  V30 16669 C 1516.02 -0.761145 -2.16193 0
M  V30 16670 C 1517.02 0.215599 -1.59348 0
M  V30 16671 O 1518.21 -0.00786723 -1.74198 0
M  V30 16672 C 1515.34 -0.127863 -3.4066 0
M  V30 16673 H 1516.53 -1.68225 -2.48275 0
M  V30 16674 H 1514.08 -0.907542 -1.27253 0
M  V30 16675 H 1514.82 0.803851 -3.14179 0
M  V30 16676 H 1514.6 -0.83085 -3.83196 0
M  V30 16677 H 1516.09 0.0980593 -4.17485 0
M  V30 16678 N 1516.53 1.29665 -0.895815 0
M  V30 16679 C 1517.48 2.27831 -0.369011 0
M  V30 16680 C 1518.45 1.56843 0.546756 0
M  V30 16681 O 1519.63 1.84848 0.472837 0
M  V30 16682 C 1516.77 3.42764 0.400884 0
M  V30 16683 C 1515.89 4.28544 -0.545335 0
M  V30 16684 C 1515.02 5.30652 0.241228 0
M  V30 16685 C 1514.06 6.08087 -0.699765 0
M  V30 16686 N 1513.2 7.02081 0.0521477 0
M  V30 16687 H 1518.04 2.72274 -1.21124 0
M  V30 16688 H 1515.57 1.33918 -0.608631 0
M  V30 16689 H 1517.53 4.08171 0.863277 0
M  V30 16690 H 1516.16 2.99361 1.2076 0
M  V30 16691 H 1515.21 3.63346 -1.12624 0
M  V30 16692 H 1516.53 4.82472 -1.26579 0
M  V30 16693 H 1515.68 6.01858 0.764994 0
M  V30 16694 H 1514.42 4.77446 0.994838 0
M  V30 16695 H 1513.42 5.35748 -1.23507 0
M  V30 16696 H 1514.65 6.63382 -1.45264 0
M  V30 16697 H 1512.59 6.51249 0.788096 0
M  V30 16698 H 1512.51 7.53547 -0.60847 0
M  V30 16699 H 1513.78 7.77512 0.556304 0
M  V30 16700 N 1518.01 0.657889 1.43212 0
M  V30 16701 C 1518.92 -0.0313677 2.34579 0
M  V30 16702 C 1519.93 -0.807153 1.54146 0
M  V30 16703 O 1521.11 -0.753335 1.8678 0
M  V30 16704 C 1518.18 -0.982659 3.32483 0
M  V30 16705 C 1517.24 -0.203288 4.28818 0
M  V30 16706 C 1516.47 -1.10927 5.22045 0
M  V30 16707 O 1516.69 -2.34861 5.19804 0
M  V30 16708 O 1515.63 -0.57916 5.99107 0
M  V30 16709 H 1519.45 0.720808 2.95022 0
M  V30 16710 H 1517.04 0.418083 1.43431 0
M  V30 16711 H 1518.92 -1.52923 3.92673 0
M  V30 16712 H 1517.59 -1.71498 2.74536 0
M  V30 16713 H 1516.5 0.386982 3.72093 0
M  V30 16714 H 1517.83 0.489562 4.89759 0
M  V30 16715 N 1519.49 -1.52437 0.400108 0
M  V30 16716 C 1520.76 -1.94162 -0.23671 0
M  V30 16717 C 1521.14 -1.33636 -1.63416 0
M  V30 16718 O 1520.49 -0.508643 -2.22767 0
M  V30 16719 C 1520.7 -3.48088 -0.252159 0
M  V30 16720 C 1522.05 -4.21925 -0.475887 0
M  V30 16721 O 1523.07 -3.5465 -0.331905 0
M  V30 16722 O 1521.93 -5.41205 -0.758895 0
M  V30 16723 H 1519.03 -0.813294 -0.14994 0
M  V30 16724 H 1521.57 -1.63475 0.455399 0
M  V30 16725 H 1520.34 -3.84501 0.726263 0
M  V30 16726 H 1519.97 -3.8511 -0.988742 0
M  V30 16727 N 1520.96 -0.130252 -1.57061 0
M  V30 16728 C 1522.38 0.393318 -1.8251 0
M  V30 16729 C 1522.73 1.65862 -1.04806 0
M  V30 16730 O 1521.85 2.14473 -0.288118 0
M  V30 16731 C 1522.45 0.720366 -3.31053 0
M  V30 16732 C 1521.01 1.18852 -3.57143 0
M  V30 16733 C 1520.15 0.202964 -2.76556 0
M  V30 16734 H 1523.1 -0.355217 -1.54674 0
M  V30 16735 H 1523.12 1.57671 -3.46295 0
M  V30 16736 H 1522.64 -0.200719 -3.87581 0
M  V30 16737 H 1520.74 2.12612 -3.05985 0
M  V30 16738 H 1520.85 1.12607 -4.65678 0
M  V30 16739 H 1519.21 0.692264 -2.45112 0
M  V30 16740 H 1520 -0.711417 -3.35848 0
M  V30 16741 N 1522.44 1.56945 0.143535 0
M  V30 16742 C 1523.69 1.82728 0.854011 0
M  V30 16743 C 1524.01 0.712048 1.82179 0
M  V30 16744 O 1525.21 0.855579 2.57667 0
M  V30 16745 C 1523.67 3.23882 1.56934 0
M  V30 16746 C 1523.28 4.4335 0.643789 0
M  V30 16747 C 1525.02 3.58936 2.26639 0
M  V30 16748 C 1522.93 5.75528 1.36094 0
M  V30 16749 H 1521.86 0.681474 0.32266 0
M  V30 16750 H 1524.51 1.83189 0.106741 0
M  V30 16751 H 1522.89 3.17819 2.36236 0
M  V30 16752 H 1524.06 4.60658 -0.114257 0
M  V30 16753 H 1522.38 4.16364 0.0549721 0
M  V30 16754 H 1524.98 4.54948 2.80939 0
M  V30 16755 H 1525.32 2.85163 3.03295 0
M  V30 16756 H 1525.85 3.66676 1.54252 0
M  V30 16757 H 1522.59 6.52406 0.636157 0
M  V30 16758 H 1522.11 5.62149 2.09161 0
M  V30 16759 H 1523.79 6.18445 1.9009 0
M  V30 16760 N 1523.92 -0.412991 1.52093 0
M  V30 16761 C 1525.34 -0.751324 1.40809 0
M  V30 16762 C 1525.54 -1.94951 0.509543 0
M  V30 16763 O 1524.59 -2.52486 -0.026132 0
M  V30 16764 C 1525.91 -1.00888 2.8327 0
M  V30 16765 C 1527.45 -1.11183 2.92587 0
M  V30 16766 C 1527.93 -1.40217 4.36008 0
M  V30 16767 N 1529.42 -1.4709 4.39225 0
M  V30 16768 C 1530.16 -1.71174 5.47254 0
M  V30 16769 N 1529.65 -1.92887 6.65407 0
M  V30 16770 N 1531.44 -1.73157 5.34765 0
M  V30 16771 H 1523.6 0.375774 2.0905 0
M  V30 16772 H 1525.86 0.105817 0.942076 0
M  V30 16773 H 1525.56 -0.200872 3.51126 0
M  V30 16774 H 1525.44 -1.93008 3.2408 0
M  V30 16775 H 1527.83 -1.91043 2.24915 0
M  V30 16776 H 1527.91 -0.169078 2.55241 0
M  V30 16777 H 1527.55 -0.608754 5.04239 0
M  V30 16778 H 1527.48 -2.35737 4.70888 0
M  V30 16779 H 1529.97 -1.32114 3.54054 0
M  V30 16780 H 1530.28 -2.10704 7.43521 0
M  V30 16781 H 1528.63 -1.9016 6.68479 0
M  V30 16782 H 1531.82 -1.55728 4.41437 0
M  V30 16783 H 1531.99 -1.91587 6.1903 0
M  V30 16784 N 1525.4 -1.4265 -0.669982 0
M  V30 16785 C 1526.36 -1.46196 -1.7652 0
M  V30 16786 C 1527.36 -0.348884 -1.5697 0
M  V30 16787 O 1528.55 -0.609921 -1.63174 0
M  V30 16788 C 1525.68 -1.29829 -3.1521 0
M  V30 16789 H 1526.88 -2.43718 -1.74762 0
M  V30 16790 H 1524.43 -1.29168 -0.88007 0
M  V30 16791 H 1525.17 -0.332493 -3.22591 0
M  V30 16792 H 1524.95 -2.10501 -3.30804 0
M  V30 16793 H 1526.44 -1.35205 -3.95107 0
M  V30 16794 N 1526.88 0.906753 -1.28902 0
M  V30 16795 C 1527.79 2.04313 -1.15296 0
M  V30 16796 C 1528.8 1.73826 -0.0778619 0
M  V30 16797 O 1529.98 1.99322 -0.288543 0
M  V30 16798 C 1527.04 3.36782 -0.823317 0
M  V30 16799 C 1526.11 3.80834 -1.98152 0
M  V30 16800 C 1525.34 5.06981 -1.66751 0
M  V30 16801 O 1525.56 5.67391 -0.58513 0
M  V30 16802 O 1524.5 5.46915 -2.51332 0
M  V30 16803 H 1528.32 2.18713 -2.10709 0
M  V30 16804 H 1525.91 1.02928 -1.08287 0
M  V30 16805 H 1527.79 4.16298 -0.653735 0
M  V30 16806 H 1526.46 3.23542 0.101097 0
M  V30 16807 H 1525.37 3.02115 -2.2063 0
M  V30 16808 H 1526.7 3.98648 -2.88688 0
M  V30 16809 N 1528.36 1.11264 1.11616 0
M  V30 16810 C 1529.27 0.781961 2.21184 0
M  V30 16811 C 1530.28 -0.224149 1.7255 0
M  V30 16812 O 1531.46 -0.0607743 2.01308 0
M  V30 16813 C 1528.52 0.228031 3.45949 0
M  V30 16814 C 1527.58 1.29251 4.09381 0
M  V30 16815 C 1526.82 0.764921 5.2819 0
M  V30 16816 O 1527.04 -0.405671 5.68956 0
M  V30 16817 O 1525.97 1.52886 5.82159 0
M  V30 16818 H 1529.8 1.69678 2.51879 0
M  V30 16819 H 1527.38 0.888394 1.20116 0
M  V30 16820 H 1529.27 -0.0766085 4.2133 0
M  V30 16821 H 1527.94 -0.659519 3.1691 0
M  V30 16822 H 1526.85 1.65014 3.3574 0
M  V30 16823 H 1528.18 2.15339 4.42595 0
M  V30 16824 N 1529.83 -1.29188 0.902679 0
M  V30 16825 C 1530.74 -2.3138 0.387363 0
M  V30 16826 C 1531.76 -1.66067 -0.519396 0
M  V30 16827 O 1532.94 -1.97219 -0.408257 0
M  V30 16828 C 1530 -3.44675 -0.374137 0
M  V30 16829 C 1529.06 -4.25572 0.564503 0
M  V30 16830 C 1528.29 -5.33458 -0.160748 0
M  V30 16831 O 1528.52 -5.53349 -1.38423 0
M  V30 16832 O 1527.45 -5.99834 0.498259 0
M  V30 16833 H 1531.28 -2.77444 1.23525 0
M  V30 16834 H 1528.86 -1.33679 0.667106 0
M  V30 16835 H 1530.74 -4.13647 -0.80464 0
M  V30 16836 H 1529.42 -3.00714 -1.19804 0
M  V30 16837 H 1528.33 -3.59232 1.04418 0
M  V30 16838 H 1529.66 -4.73184 1.3549 0
M  V30 16839 N 1531.31 -0.665475 -1.42861 0
M  V30 16840 C 1532.24 0.00482845 -2.335 0
M  V30 16841 C 1533.22 0.799135 -1.50159 0
M  V30 16842 O 1534.41 0.75816 -1.78789 0
M  V30 16843 C 1531.54 0.963347 -3.33672 0
M  V30 16844 C 1530.49 0.278294 -4.27094 0
M  V30 16845 C 1529.82 1.34911 -5.174 0
M  V30 16846 C 1531.12 -0.836925 -5.15551 0
M  V30 16847 H 1532.81 -0.752129 -2.89799 0
M  V30 16848 H 1530.36 -0.363139 -1.39346 0
M  V30 16849 H 1532.31 1.44128 -3.95986 0
M  V30 16850 H 1531.03 1.75161 -2.75656 0
M  V30 16851 H 1529.69 -0.179314 -3.66161 0
M  V30 16852 H 1529.34 2.12912 -4.55716 0
M  V30 16853 H 1529.04 0.895919 -5.8073 0
M  V30 16854 H 1530.57 1.82816 -5.8259 0
M  V30 16855 H 1531.98 -0.440617 -5.71604 0
M  V30 16856 H 1530.38 -1.21533 -5.87665 0
M  V30 16857 H 1531.45 -1.6897 -4.54507 0
M  V30 16858 N 1532.79 1.52222 -0.408187 0
M  V30 16859 C 1533.74 2.26988 0.417767 0
M  V30 16860 C 1534.71 1.29362 1.04185 0
M  V30 16861 O 1535.89 1.58223 1.06631 0
M  V30 16862 C 1533.03 3.09379 1.52901 0
M  V30 16863 C 1532.14 4.2196 0.92593 0
M  V30 16864 C 1531.28 4.91712 2.00979 0
M  V30 16865 C 1530.32 5.96258 1.3836 0
M  V30 16866 N 1529.46 6.59531 2.40756 0
M  V30 16867 H 1534.3 2.9714 -0.226228 0
M  V30 16868 H 1531.83 1.46581 -0.123402 0
M  V30 16869 H 1533.79 3.55452 2.18425 0
M  V30 16870 H 1532.42 2.41399 2.14304 0
M  V30 16871 H 1531.47 3.80064 0.159765 0
M  V30 16872 H 1532.78 4.96956 0.428497 0
M  V30 16873 H 1531.94 5.41186 2.74231 0
M  V30 16874 H 1530.68 4.16282 2.54087 0
M  V30 16875 H 1529.68 5.46104 0.636402 0
M  V30 16876 H 1530.91 6.7363 0.860218 0
M  V30 16877 H 1528.85 5.86931 2.92999 0
M  V30 16878 H 1528.77 7.30198 1.95822 0
M  V30 16879 H 1530.04 7.13643 3.13581 0
M  V30 16880 N 1534.27 0.138579 1.5699 0
M  V30 16881 C 1535.21 -0.804305 2.16332 0
M  V30 16882 C 1536.18 -1.25002 1.09379 0
M  V30 16883 O 1537.37 -1.32405 1.37381 0
M  V30 16884 C 1534.51 -2.04137 2.78248 0
M  V30 16885 C 1533.62 -1.64223 3.99568 0
M  V30 16886 C 1532.76 -2.83046 4.49509 0
M  V30 16887 C 1531.8 -2.39465 5.63314 0
M  V30 16888 N 1530.93 -3.51267 6.07911 0
M  V30 16889 H 1535.77 -0.29144 2.96571 0
M  V30 16890 H 1533.31 -0.132146 1.46505 0
M  V30 16891 H 1535.27 -2.76646 3.12286 0
M  V30 16892 H 1533.9 -2.52849 2.00667 0
M  V30 16893 H 1532.95 -0.815123 3.71564 0
M  V30 16894 H 1534.26 -1.2821 4.82041 0
M  V30 16895 H 1533.42 -3.63755 4.85559 0
M  V30 16896 H 1532.16 -3.22298 3.66026 0
M  V30 16897 H 1531.16 -1.57193 5.2685 0
M  V30 16898 H 1532.39 -2.01307 6.48577 0
M  V30 16899 H 1530.33 -3.90156 5.27365 0
M  V30 16900 H 1530.25 -3.19241 6.85289 0
M  V30 16901 H 1531.52 -4.32358 6.48604 0
M  V30 16902 N 1535.75 -1.57019 -0.13521 0
M  V30 16903 C 1536.99 -1.83178 -0.844308 0
M  V30 16904 C 1537.31 -0.7217 -1.81799 0
M  V30 16905 O 1538.51 -0.869232 -2.57209 0
M  V30 16906 C 1536.97 -3.2471 -1.55214 0
M  V30 16907 C 1536.58 -4.43685 -0.620268 0
M  V30 16908 C 1538.32 -3.60133 -2.24732 0
M  V30 16909 C 1536.23 -5.76242 -1.3304 0
M  V30 16910 H 1535.16 -0.683175 -0.319041 0
M  V30 16911 H 1537.81 -1.83243 -0.0970242 0
M  V30 16912 H 1536.19 -3.19067 -2.34547 0
M  V30 16913 H 1537.37 -4.60591 0.138685 0
M  V30 16914 H 1535.68 -4.16387 -0.0328906 0
M  V30 16915 H 1538.28 -4.56431 -2.78522 0
M  V30 16916 H 1538.62 -2.86767 -3.01779 0
M  V30 16917 H 1539.15 -3.67489 -1.52305 0
M  V30 16918 H 1535.89 -6.52734 -0.60155 0
M  V30 16919 H 1535.41 -5.63251 -2.06176 0
M  V30 16920 H 1537.09 -6.19445 -1.86808 0
M  V30 16921 N 1537.22 0.404919 -1.52309 0
M  V30 16922 C 1538.64 0.743846 -1.41206 0
M  V30 16923 C 1538.84 1.94678 -0.519874 0
M  V30 16924 O 1537.9 2.52497 0.0127417 0
M  V30 16925 C 1539.21 0.99384 -2.83802 0
M  V30 16926 C 1540.76 1.0963 -2.93173 0
M  V30 16927 C 1541.23 1.37902 -4.36746 0
M  V30 16928 N 1542.72 1.44758 -4.39999 0
M  V30 16929 C 1543.46 1.68269 -5.48154 0
M  V30 16930 N 1542.95 1.89356 -6.6642 0
M  V30 16931 N 1544.75 1.70318 -5.35675 0
M  V30 16932 H 1536.9 -0.386855 -2.08847 0
M  V30 16933 H 1539.16 -0.110811 -0.941501 0
M  V30 16934 H 1538.87 0.182249 -3.51227 0
M  V30 16935 H 1538.74 1.91287 -3.25099 0
M  V30 16936 H 1541.13 1.89847 -2.25925 0
M  V30 16937 H 1541.21 0.155539 -2.55327 0
M  V30 16938 H 1540.85 0.582004 -5.04554 0
M  V30 16939 H 1540.78 2.33237 -4.72132 0
M  V30 16940 H 1543.27 1.30235 -3.5475 0
M  V30 16941 H 1543.59 2.06758 -7.44628 0
M  V30 16942 H 1541.93 1.86612 -6.69478 0
M  V30 16943 H 1545.12 1.53385 -4.42256 0
M  V30 16944 H 1545.3 1.88302 -6.20037 0
M  V30 16945 N 1538.7 1.43003 0.662408 0
M  V30 16946 C 1539.95 1.43848 1.41958 0
M  V30 16947 C 1540.27 0.06046 1.94906 0
M  V30 16948 O 1539.54 -0.90287 1.73854 0
M  V30 16949 H 1538.12 0.529587 0.526827 0
M  V30 16950 H 1540.78 1.7853 0.781867 0
M  V30 16951 H 1539.88 2.14562 2.26649 0
M  V30 16952 N 1540.18 -0.899904 1.29381 0
M  V30 16953 C 1541.43 -1.65038 1.17341 0
M  V30 16954 C 1541.76 -1.92544 -0.275135 0
M  V30 16955 O 1541.01 -1.53402 -1.21517 0
M  V30 16956 C 1541.31 -3.0069 1.93185 0
M  V30 16957 C 1540.98 -2.92792 3.42905 0
M  V30 16958 C 1539.64 -2.90345 3.83736 0
M  V30 16959 C 1541.99 -2.82015 4.38312 0
M  V30 16960 C 1539.32 -2.7494 5.1829 0
M  V30 16961 C 1541.67 -2.68149 5.72956 0
M  V30 16962 C 1540.33 -2.64068 6.13045 0
M  V30 16963 H 1539.6 -0.603915 0.42938 0
M  V30 16964 H 1542.25 -1.04743 1.60316 0
M  V30 16965 H 1540.56 -3.6485 1.428 0
M  V30 16966 H 1542.25 -3.57688 1.81274 0
M  V30 16967 H 1538.84 -2.95498 3.10449 0
M  V30 16968 H 1543.03 -2.82982 4.07719 0
M  V30 16969 H 1538.28 -2.70186 5.48461 0
M  V30 16970 H 1542.46 -2.58781 6.46533 0
M  V30 16971 H 1540.08 -2.51889 7.17256 0
M  V30 16972 N 1541.66 -1.11854 -1.11024 0
M  V30 16973 C 1542.59 -0.803129 -2.19253 0
M  V30 16974 C 1543.57 0.230417 -1.68532 0
M  V30 16975 O 1544.75 0.0929421 -1.93977 0
M  V30 16976 C 1541.88 -0.250265 -3.46397 0
M  V30 16977 C 1540.84 -1.21617 -4.10357 0
M  V30 16978 C 1540.16 -0.523821 -5.32128 0
M  V30 16979 C 1541.46 -2.56852 -4.54779 0
M  V30 16980 H 1543.16 -1.7081 -2.45895 0
M  V30 16981 H 1540.7 -0.822712 -1.18184 0
M  V30 16982 H 1542.66 -0.0173732 -4.21396 0
M  V30 16983 H 1541.38 0.690018 -3.19228 0
M  V30 16984 H 1540.04 -1.43477 -3.37357 0
M  V30 16985 H 1539.69 0.421408 -5.01232 0
M  V30 16986 H 1539.39 -1.16809 -5.75873 0
M  V30 16987 H 1540.91 -0.299823 -6.09863 0
M  V30 16988 H 1542.33 -2.39056 -5.21081 0
M  V30 16989 H 1540.72 -3.17301 -5.09353 0
M  V30 16990 H 1541.79 -3.15751 -3.68007 0
M  V30 16991 N 1543.14 1.28707 -0.909517 0
M  V30 16992 C 1544.38 1.95443 -0.541281 0
M  V30 16993 C 1544.72 1.71457 0.911934 0
M  V30 16994 O 1543.99 1.03312 1.64794 0
M  V30 16995 C 1544.27 3.50019 -0.846097 0
M  V30 16996 C 1544.13 3.83423 -2.35173 0
M  V30 16997 C 1545.45 4.3879 -0.339328 0
M  V30 16998 H 1542.56 0.709869 -0.198128 0
M  V30 16999 H 1545.21 1.52151 -1.13799 0
M  V30 17000 H 1543.36 3.87025 -0.338262 0
M  V30 17001 H 1545.03 3.5631 -2.92986 0
M  V30 17002 H 1543.27 3.30618 -2.80846 0
M  V30 17003 H 1543.94 4.91348 -2.51557 0
M  V30 17004 H 1546.42 4.08832 -0.774312 0
M  V30 17005 H 1545.29 5.45809 -0.581722 0
M  V30 17006 H 1545.56 4.35514 0.760244 0
M  V30 17007 N 1544.61 0.673042 1.42506 0
M  V30 17008 C 1545.55 -0.0452975 2.29155 0
M  V30 17009 C 1546.56 -0.767277 1.43585 0
M  V30 17010 O 1547.75 -0.621728 1.67322 0
M  V30 17011 C 1544.85 -1.0878 3.20967 0
M  V30 17012 C 1544.02 -0.439999 4.35181 0
M  V30 17013 C 1543.08 -1.38205 5.07726 0
M  V30 17014 O 1542.11 -0.883031 5.62309 0
M  V30 17015 N 1543.31 -2.7154 5.13075 0
M  V30 17016 H 1546.07 0.698517 2.91446 0
M  V30 17017 H 1543.63 0.517322 1.53412 0
M  V30 17018 H 1545.63 -1.71925 3.66366 0
M  V30 17019 H 1544.2 -1.73337 2.6014 0
M  V30 17020 H 1543.42 0.370926 3.92451 0
M  V30 17021 H 1544.7 0.0113738 5.08799 0
M  V30 17022 H 1544.1 -3.14623 4.70137 0
M  V30 17023 H 1542.66 -3.29937 5.62126 0
M  V30 17024 N 1546.09 -1.52004 0.416254 0
M  V30 17025 C 1547.34 -2.01889 -0.157201 0
M  V30 17026 C 1547.67 -1.30153 -1.44535 0
M  V30 17027 O 1546.92 -0.39855 -1.91599 0
M  V30 17028 C 1547.22 -3.54624 -0.444553 0
M  V30 17029 C 1546.89 -4.4453 0.755251 0
M  V30 17030 C 1545.55 -4.68824 1.08433 0
M  V30 17031 C 1547.9 -4.97412 1.55663 0
M  V30 17032 C 1545.23 -5.43246 2.21586 0
M  V30 17033 C 1547.58 -5.73074 2.67898 0
M  V30 17034 C 1546.25 -5.95637 3.01285 0
M  V30 17035 H 1545.52 -0.738764 -0.0575239 0
M  V30 17036 H 1548.16 -1.83156 0.559133 0
M  V30 17037 H 1546.47 -3.71575 -1.24254 0
M  V30 17038 H 1548.16 -3.90739 -0.901333 0
M  V30 17039 H 1544.75 -4.25804 0.488789 0
M  V30 17040 H 1548.94 -4.78545 1.31562 0
M  V30 17041 H 1544.19 -5.58936 2.47792 0
M  V30 17042 H 1548.37 -6.13044 3.30378 0
M  V30 17043 H 1546 -6.53086 3.89079 0
M  V30 17044 N 1547.57 -0.146903 -1.56914 0
M  V30 17045 C 1548.98 0.373938 -1.82917 0
M  V30 17046 C 1549.33 1.64741 -1.06559 0
M  V30 17047 O 1548.46 2.14156 -0.310849 0
M  V30 17048 C 1549.05 0.685213 -3.31799 0
M  V30 17049 C 1547.61 1.15058 -3.58383 0
M  V30 17050 C 1546.76 0.17362 -2.76756 0
M  V30 17051 H 1549.71 -0.371602 -1.54288 0
M  V30 17052 H 1549.73 1.53989 -3.47948 0
M  V30 17053 H 1549.24 -0.241816 -3.87346 0
M  V30 17054 H 1547.34 2.09355 -3.08223 0
M  V30 17055 H 1547.46 1.07662 -4.66847 0
M  V30 17056 H 1545.82 0.666227 -2.45832 0
M  V30 17057 H 1546.6 -0.746998 -3.35074 0
M  V30 17058 N 1549.05 1.57088 0.126881 0
M  V30 17059 C 1550.3 1.84436 0.836048 0
M  V30 17060 C 1550.62 0.730824 1.80248 0
M  V30 17061 O 1549.88 -0.278509 1.93708 0
M  V30 17062 C 1550.18 3.18225 1.62688 0
M  V30 17063 C 1549.84 4.43648 0.80545 0
M  V30 17064 C 1548.51 4.77705 0.578901 0
M  V30 17065 C 1550.86 5.20682 0.232355 0
M  V30 17066 C 1548.19 5.86245 -0.231126 0
M  V30 17067 C 1550.54 6.30073 -0.564819 0
M  V30 17068 C 1549.2 6.62667 -0.801759 0
M  V30 17069 H 1548.47 0.674898 0.305932 0
M  V30 17070 H 1551.12 1.91245 0.0987618 0
M  V30 17071 H 1549.42 3.06956 2.43485 0
M  V30 17072 H 1551.12 3.36604 2.17942 0
M  V30 17073 H 1547.71 4.16959 0.99211 0
M  V30 17074 H 1551.89 4.94729 0.394616 0
M  V30 17075 H 1547.15 6.09928 -0.423998 0
M  V30 17076 H 1551.32 6.8895 -1.01592 0
M  V30 17077 H 1548.95 7.46605 -1.43126 0
M  V30 17078 N 1550.53 -0.396836 1.52522 0
M  V30 17079 C 1551.76 -1.16235 1.70801 0
M  V30 17080 C 1552.16 -1.8442 0.422591 0
M  V30 17081 O 1551.51 -1.732 -0.612171 0
M  V30 17082 C 1551.57 -2.25922 2.79642 0
M  V30 17083 C 1551.23 -1.7777 4.21007 0
M  V30 17084 C 1552.23 -1.25873 5.04432 0
M  V30 17085 C 1549.92 -1.84231 4.67295 0
M  V30 17086 C 1551.91 -0.810733 6.32223 0
M  V30 17087 C 1549.6 -1.39043 5.95072 0
M  V30 17088 C 1550.59 -0.875508 6.77365 0
M  V30 17089 O 1550.28 -0.430197 8.02748 0
M  V30 17090 H 1550.01 -0.354799 0.575407 0
M  V30 17091 H 1552.57 -0.471344 1.99919 0
M  V30 17092 H 1550.8 -2.98424 2.45927 0
M  V30 17093 H 1552.49 -2.87629 2.86399 0
M  V30 17094 H 1553.25 -1.20244 4.69858 0
M  V30 17095 H 1549.13 -2.23253 4.03335 0
M  V30 17096 H 1552.68 -0.408137 6.96405 0
M  V30 17097 H 1548.57 -1.44354 6.29152 0
M  V30 17098 H 1549.34 -0.552389 8.16634 0
M  V30 17099 N 1552.01 -1.43353 -0.654814 0
M  V30 17100 C 1553.25 -1.44885 -1.41473 0
M  V30 17101 C 1553.58 -0.0725577 -1.94365 0
M  V30 17102 O 1552.84 0.9222 -1.72609 0
M  V30 17103 C 1553.13 -2.437 -2.61429 0
M  V30 17104 C 1552.8 -3.89612 -2.26965 0
M  V30 17105 C 1551.46 -4.29353 -2.17278 0
M  V30 17106 C 1553.81 -4.81569 -1.99351 0
M  V30 17107 C 1551.14 -5.59005 -1.7813 0
M  V30 17108 C 1553.49 -6.11584 -1.61702 0
M  V30 17109 C 1552.16 -6.50303 -1.50539 0
M  V30 17110 H 1551.43 -0.530172 -0.517686 0
M  V30 17111 H 1554.08 -1.76422 -0.744824 0
M  V30 17112 H 1552.38 -2.05561 -3.33544 0
M  V30 17113 H 1554.08 -2.42141 -3.19638 0
M  V30 17114 H 1550.67 -3.58159 -2.35414 0
M  V30 17115 H 1554.85 -4.51639 -2.05757 0
M  V30 17116 H 1550.11 -5.87845 -1.68072 0
M  V30 17117 H 1554.28 -6.82312 -1.39365 0
M  V30 17118 H 1551.91 -7.50673 -1.19975 0
M  V30 17119 N 1553.48 0.89303 -1.29857 0
M  V30 17120 C 1554.41 2.01422 -1.18117 0
M  V30 17121 C 1555.39 1.6994 -0.0737487 0
M  V30 17122 O 1556.58 1.92527 -0.254387 0
M  V30 17123 C 1553.71 3.36385 -0.863842 0
M  V30 17124 C 1552.66 3.821 -1.92831 0
M  V30 17125 C 1551.99 5.14263 -1.46415 0
M  V30 17126 C 1553.29 4.01699 -3.33819 0
M  V30 17127 H 1554.98 2.11502 -2.11913 0
M  V30 17128 H 1552.53 1.01622 -1.02024 0
M  V30 17129 H 1554.48 4.14335 -0.768397 0
M  V30 17130 H 1553.21 3.26415 0.109816 0
M  V30 17131 H 1551.87 3.06372 -2.01325 0
M  V30 17132 H 1551.51 5.00714 -0.478983 0
M  V30 17133 H 1551.21 5.45821 -2.17609 0
M  V30 17134 H 1552.74 5.94747 -1.38234 0
M  V30 17135 H 1554.15 4.70111 -3.28129 0
M  V30 17136 H 1552.55 4.44621 -4.03029 0
M  V30 17137 H 1553.62 3.05816 -3.76304 0
M  V30 17138 N 1554.96 1.12442 1.10429 0
M  V30 17139 C 1556.19 0.902914 1.86714 0
M  V30 17140 C 1556.61 -0.542514 1.80107 0
M  V30 17141 O 1555.97 -1.38406 1.17105 0
M  V30 17142 C 1556.02 1.38238 3.33051 0
M  V30 17143 O 1555.12 0.560877 4.08568 0
M  V30 17144 H 1554.46 0.324397 0.579364 0
M  V30 17145 H 1556.99 1.49652 1.39519 0
M  V30 17146 H 1557 1.38148 3.839 0
M  V30 17147 H 1555.68 2.43486 3.37176 0
M  V30 17148 H 1554.25 0.628771 3.67561 0
M  V30 17149 N 1556.44 -1.28223 0.91633 0
M  V30 17150 C 1557.35 -2.30956 0.411882 0
M  V30 17151 C 1558.37 -1.66609 -0.501753 0
M  V30 17152 O 1559.54 -1.97641 -0.387317 0
M  V30 17153 C 1556.61 -3.45053 -0.337558 0
M  V30 17154 C 1555.67 -4.2495 0.609609 0
M  V30 17155 C 1554.9 -5.33598 -0.104159 0
M  V30 17156 O 1555.12 -5.54786 -1.32546 0
M  V30 17157 O 1554.06 -5.99272 0.561851 0
M  V30 17158 H 1557.88 -2.76118 1.26461 0
M  V30 17159 H 1555.47 -1.32964 0.681246 0
M  V30 17160 H 1557.35 -4.14477 -0.760722 0
M  V30 17161 H 1556.03 -3.01968 -1.16607 0
M  V30 17162 H 1554.93 -3.58104 1.08222 0
M  V30 17163 H 1556.27 -4.7172 1.40502 0
M  V30 17164 N 1557.92 -0.68059 -1.42147 0
M  V30 17165 C 1558.83 -0.00595573 -2.34599 0
M  V30 17166 C 1559.84 0.782528 -1.55411 0
M  V30 17167 O 1561.02 0.723524 -1.87955 0
M  V30 17168 C 1558.08 0.92964 -3.34004 0
M  V30 17169 C 1557.15 0.135041 -4.29088 0
M  V30 17170 C 1556.38 1.02607 -5.23744 0
M  V30 17171 O 1556.6 2.26562 -5.23475 0
M  V30 17172 O 1555.54 0.483774 -5.99953 0
M  V30 17173 H 1559.36 -0.767652 -2.93838 0
M  V30 17174 H 1556.95 -0.440849 -1.42748 0
M  V30 17175 H 1558.83 1.46657 -3.95057 0
M  V30 17176 H 1557.5 1.67109 -2.7723 0
M  V30 17177 H 1556.41 -0.44613 -3.7143 0
M  V30 17178 H 1557.74 -0.567417 -4.88918 0
M  V30 17179 N 1559.4 1.51781 -0.424309 0
M  V30 17180 C 1560.62 2.06871 0.147968 0
M  V30 17181 C 1561.05 1.29093 1.36808 0
M  V30 17182 O 1560.4 0.325279 1.78358 0
M  V30 17183 C 1560.45 3.57631 0.461757 0
M  V30 17184 O 1559.56 3.82149 1.55035 0
M  V30 17185 H 1558.9 0.663957 0.00757275 0
M  V30 17186 H 1561.43 1.95547 -0.601888 0
M  V30 17187 H 1561.44 4.01668 0.716005 0
M  V30 17188 H 1560.11 4.1367 -0.430081 0
M  V30 17189 H 1558.69 3.49984 1.28709 0
M  V30 17190 N 1560.87 0.155222 1.56834 0
M  V30 17191 C 1561.8 -0.777258 2.20184 0
M  V30 17192 C 1562.78 -1.25102 1.15254 0
M  V30 17193 O 1563.97 -1.3071 1.43627 0
M  V30 17194 C 1561.1 -2.01326 2.82993 0
M  V30 17195 C 1560.05 -1.67596 3.93822 0
M  V30 17196 C 1559.38 -2.98529 4.43604 0
M  V30 17197 C 1560.68 -0.916302 5.142 0
M  V30 17198 H 1562.37 -0.249257 2.98361 0
M  V30 17199 H 1559.92 -0.118448 1.43512 0
M  V30 17200 H 1561.87 -2.67048 3.2598 0
M  V30 17201 H 1560.6 -2.56513 2.0216 0
M  V30 17202 H 1559.26 -1.0425 3.51465 0
M  V30 17203 H 1558.9 -3.51723 3.59583 0
M  V30 17204 H 1558.6 -2.76721 5.18362 0
M  V30 17205 H 1560.13 -3.65308 4.89267 0
M  V30 17206 H 1561.54 -1.47577 5.5398 0
M  V30 17207 H 1559.94 -0.797856 5.94772 0
M  V30 17208 H 1561.01 0.0904351 4.84816 0
M  V30 17209 N 1562.35 -1.57153 -0.118549 0
M  V30 17210 C 1563.28 -2.03409 -1.1466 0
M  V30 17211 C 1564.26 -0.918636 -1.43161 0
M  V30 17212 O 1565.45 -1.18838 -1.53594 0
M  V30 17213 C 1562.58 -2.43879 -2.47265 0
M  V30 17214 C 1561.53 -3.58873 -2.33225 0
M  V30 17215 C 1560.86 -3.85244 -3.70798 0
M  V30 17216 C 1562.16 -4.90582 -1.79239 0
M  V30 17217 H 1563.85 -2.89545 -0.761862 0
M  V30 17218 H 1561.4 -1.39296 -0.365034 0
M  V30 17219 H 1563.35 -2.74844 -3.19435 0
M  V30 17220 H 1562.07 -1.54715 -2.8763 0
M  V30 17221 H 1560.73 -3.28119 -1.63504 0
M  V30 17222 H 1560.38 -2.93285 -4.08648 0
M  V30 17223 H 1560.08 -4.62649 -3.62257 0
M  V30 17224 H 1561.61 -4.18661 -4.44472 0
M  V30 17225 H 1563.02 -5.20079 -2.41227 0
M  V30 17226 H 1561.42 -5.71989 -1.81518 0
M  V30 17227 H 1562.49 -4.79065 -0.74999 0
M  V30 17228 N 1563.83 0.388742 -1.5273 0
M  V30 17229 C 1565.24 0.966667 -1.59726 0
M  V30 17230 C 1565.59 1.90963 -0.450272 0
M  V30 17231 O 1564.72 2.12153 0.426611 0
M  V30 17232 C 1565.31 1.75998 -2.895 0
M  V30 17233 C 1563.87 2.28761 -2.98907 0
M  V30 17234 C 1563.02 1.09322 -2.54841 0
M  V30 17235 H 1565.97 0.16828 -1.57805 0
M  V30 17236 H 1565.99 2.61924 -2.76 0
M  V30 17237 H 1565.5 1.07342 -3.7296 0
M  V30 17238 H 1563.6 3.00728 -2.19985 0
M  V30 17239 H 1563.72 2.58229 -4.03552 0
M  V30 17240 H 1562.08 1.45332 -2.09167 0
M  V30 17241 H 1562.86 0.421999 -3.40696 0
M  V30 17242 N 1565.31 1.43698 0.647203 0
M  V30 17243 C 1566.53 1.49301 1.43958 0
M  V30 17244 C 1566.96 0.11395 1.87755 0
M  V30 17245 O 1566.32 -0.893571 1.5775 0
M  V30 17246 C 1566.36 2.44905 2.64677 0
M  V30 17247 O 1565.47 1.93947 3.63948 0
M  V30 17248 H 1564.81 0.504771 0.431396 0
M  V30 17249 H 1567.34 1.88673 0.791432 0
M  V30 17250 H 1567.35 2.62409 3.12419 0
M  V30 17251 H 1566.02 3.45083 2.32143 0
M  V30 17252 H 1564.6 1.86133 3.23124 0
M  V30 17253 N 1566.79 -0.886131 1.30328 0
M  V30 17254 C 1568.03 -1.64026 1.19261 0
M  V30 17255 C 1568.37 -1.92553 -0.252379 0
M  V30 17256 O 1567.64 -1.54564 -1.18069 0
M  V30 17257 C 1567.92 -2.9808 2.0204 0
M  V30 17258 C 1567.78 -2.76534 3.54752 0
M  V30 17259 C 1569.1 -3.98989 1.85731 0
M  V30 17260 H 1566.21 -0.595224 0.4346 0
M  V30 17261 H 1568.86 -1.0255 1.59949 0
M  V30 17262 H 1567.01 -3.50552 1.67469 0
M  V30 17263 H 1568.68 -2.3086 3.99376 0
M  V30 17264 H 1566.92 -2.1106 3.78993 0
M  V30 17265 H 1567.59 -3.71849 4.07961 0
M  V30 17266 H 1570.07 -3.55673 2.15953 0
M  V30 17267 H 1568.94 -4.90699 2.45979 0
M  V30 17268 H 1569.21 -4.34501 0.816152 0
M  V30 17269 N 1568.26 -1.13026 -1.09832 0
M  V30 17270 C 1569.51 -0.887662 -1.81563 0
M  V30 17271 C 1569.83 0.587935 -1.85926 0
M  V30 17272 O 1569.1 1.42732 -1.3418 0
M  V30 17273 H 1567.68 -0.32541 -0.672397 0
M  V30 17274 H 1570.35 -1.42597 -1.32861 0
M  V30 17275 H 1569.44 -1.2747 -2.84882 0
M  V30 17276 N 1569.74 1.27735 -0.923117 0
M  V30 17277 C 1570.97 1.98682 -0.577317 0
M  V30 17278 C 1571.39 1.68904 0.843608 0
M  V30 17279 O 1570.74 0.947021 1.56006 0
M  V30 17280 C 1570.79 3.52804 -0.788144 0
M  V30 17281 O 1570.51 3.81537 -2.15316 0
M  V30 17282 C 1572.02 4.41006 -0.450437 0
M  V30 17283 H 1569.24 0.634186 -0.2192 0
M  V30 17284 H 1571.78 1.62702 -1.23888 0
M  V30 17285 H 1569.93 3.87012 -0.173441 0
M  V30 17286 H 1570.35 4.76142 -2.19976 0
M  V30 17287 H 1571.82 5.48175 -0.648674 0
M  V30 17288 H 1572.3 4.3489 0.613806 0
M  V30 17289 H 1572.91 4.1231 -1.04308 0
M  V30 17290 N 1571.22 0.688118 1.41784 0
M  V30 17291 C 1572.17 0.018099 2.30793 0
M  V30 17292 C 1573.14 -0.779009 1.46699 0
M  V30 17293 O 1574.32 -0.748556 1.75503 0
M  V30 17294 C 1571.46 -0.91769 3.32675 0
M  V30 17295 C 1570.58 -0.11299 4.31852 0
M  V30 17296 C 1569.71 -1.04574 5.20805 0
M  V30 17297 C 1568.75 -0.233509 6.11654 0
M  V30 17298 N 1567.89 -1.11967 6.93115 0
M  V30 17299 H 1572.73 0.782911 2.87532 0
M  V30 17300 H 1570.26 0.397806 1.41619 0
M  V30 17301 H 1572.22 -1.47421 3.90286 0
M  V30 17302 H 1570.85 -1.64898 2.77504 0
M  V30 17303 H 1569.9 0.560344 3.7625 0
M  V30 17304 H 1571.22 0.517033 4.96113 0
M  V30 17305 H 1570.37 -1.67174 5.83213 0
M  V30 17306 H 1569.11 -1.70963 4.56753 0
M  V30 17307 H 1568.11 0.405614 5.48302 0
M  V30 17308 H 1569.34 0.426479 6.7776 0
M  V30 17309 H 1567.28 -1.76972 6.31678 0
M  V30 17310 H 1567.2 -0.545042 7.54033 0
M  V30 17311 H 1568.47 -1.73272 7.59998 0
M  V30 17312 N 1572.7 -1.51554 0.432352 0
M  V30 17313 C 1573.61 -2.31371 -0.387885 0
M  V30 17314 C 1574.62 -1.40072 -1.03227 0
M  V30 17315 O 1575.8 -1.73145 -1.02873 0
M  V30 17316 C 1572.87 -3.13662 -1.47705 0
M  V30 17317 C 1571.93 -4.20734 -0.853315 0
M  V30 17318 C 1571.16 -4.99092 -1.89058 0
M  V30 17319 O 1571.38 -4.78022 -3.11209 0
M  V30 17320 O 1570.32 -5.83322 -1.48389 0
M  V30 17321 H 1574.14 -3.02554 0.263578 0
M  V30 17322 H 1571.73 -1.48122 0.195004 0
M  V30 17323 H 1573.61 -3.64837 -2.10884 0
M  V30 17324 H 1572.28 -2.45249 -2.11269 0
M  V30 17325 H 1571.19 -3.73649 -0.183616 0
M  V30 17326 H 1572.52 -4.91506 -0.261244 0
M  V30 17327 N 1574.18 -0.163538 -1.56749 0
M  V30 17328 C 1575.14 0.755801 -2.1638 0
M  V30 17329 C 1576.14 1.16359 -1.10982 0
M  V30 17330 O 1577.33 1.08182 -1.36537 0
M  V30 17331 C 1574.46 2.02775 -2.74035 0
M  V30 17332 H 1575.65 0.23681 -2.98964 0
M  V30 17333 H 1573.21 0.0859925 -1.56063 0
M  V30 17334 H 1573.94 2.59002 -1.95163 0
M  V30 17335 H 1573.73 1.74439 -3.5116 0
M  V30 17336 H 1575.22 2.684 -3.19923 0
M  V30 17337 N 1575.65 1.57214 0.110213 0
M  V30 17338 C 1576.9 1.84498 0.815059 0
M  V30 17339 C 1577.22 0.750531 1.80628 0
M  V30 17340 O 1578.42 0.910042 2.55794 0
M  V30 17341 C 1576.88 3.27138 1.50028 0
M  V30 17342 C 1576.49 4.44616 0.549603 0
M  V30 17343 C 1578.23 3.63662 2.18975 0
M  V30 17344 C 1576.14 5.78285 1.23855 0
M  V30 17345 H 1575.07 0.688165 0.308132 0
M  V30 17346 H 1577.72 1.83374 0.0678595 0
M  V30 17347 H 1576.1 3.22758 2.29441 0
M  V30 17348 H 1577.27 4.60312 -0.211944 0
M  V30 17349 H 1575.59 4.16387 -0.0333571 0
M  V30 17350 H 1578.19 4.60804 2.71226 0
M  V30 17351 H 1578.53 2.91532 2.97178 0
M  V30 17352 H 1579.06 3.69865 1.46439 0
M  V30 17353 H 1575.8 6.53608 0.497629 0
M  V30 17354 H 1575.32 5.66459 1.9719 0
M  V30 17355 H 1577 6.22338 1.76929 0
M  V30 17356 N 1577.13 -0.380637 1.52934 0
M  V30 17357 C 1578.38 -1.1265 1.68635 0
M  V30 17358 C 1578.71 -1.89397 0.429227 0
M  V30 17359 O 1577.99 -1.85863 -0.573182 0
M  V30 17360 C 1578.27 -2.09797 2.92673 0
M  V30 17361 C 1578.12 -1.36758 4.28506 0
M  V30 17362 C 1579.44 -3.10117 3.12274 0
M  V30 17363 H 1576.56 -0.408158 0.613658 0
M  V30 17364 H 1579.2 -0.408947 1.85547 0
M  V30 17365 H 1577.35 -2.70987 2.78385 0
M  V30 17366 H 1579.02 -0.784679 4.54577 0
M  V30 17367 H 1577.27 -0.669413 4.28604 0
M  V30 17368 H 1577.94 -2.07786 5.11399 0
M  V30 17369 H 1580.41 -2.59022 3.25648 0
M  V30 17370 H 1579.29 -3.75328 4.00525 0
M  V30 17371 H 1579.55 -3.79451 2.26868 0
M  V30 17372 N 1578.61 -1.44039 -0.639573 0
M  V30 17373 C 1580.02 -1.41236 -1.22104 0
M  V30 17374 C 1580.37 -0.123367 -1.95812 0
M  V30 17375 O 1579.5 0.776641 -2.01983 0
M  V30 17376 C 1580.09 -2.55853 -2.22092 0
M  V30 17377 C 1578.65 -2.56271 -2.75685 0
M  V30 17378 C 1577.8 -2.32877 -1.50544 0
M  V30 17379 H 1580.75 -1.52742 -0.430756 0
M  V30 17380 H 1580.77 -2.28123 -3.04533 0
M  V30 17381 H 1580.28 -3.49653 -1.68417 0
M  V30 17382 H 1578.38 -1.66389 -3.33385 0
M  V30 17383 H 1578.5 -3.54486 -3.22299 0
M  V30 17384 H 1576.86 -1.81807 -1.78377 0
M  V30 17385 H 1577.64 -3.2878 -0.987845 0
M  V30 17386 N 1580.09 0.879207 -1.30796 0
M  V30 17387 C 1581.02 1.98828 -1.11994 0
M  V30 17388 C 1582 1.62579 -0.0259762 0
M  V30 17389 O 1583.18 1.87632 -0.180638 0
M  V30 17390 C 1580.31 3.3119 -0.709287 0
M  V30 17391 C 1579.36 3.86424 -1.80496 0
M  V30 17392 S 1580.19 4.1301 -3.40856 0
M  V30 17393 C 1581.35 5.48383 -3.01706 0
M  V30 17394 H 1581.58 2.14472 -2.05886 0
M  V30 17395 H 1579.11 1.02829 -1.15176 0
M  V30 17396 H 1581.07 4.07695 -0.479093 0
M  V30 17397 H 1579.73 3.13395 0.210364 0
M  V30 17398 H 1578.92 4.82085 -1.47004 0
M  V30 17399 H 1578.53 3.16679 -1.98973 0
M  V30 17400 H 1580.82 6.29678 -2.50025 0
M  V30 17401 H 1581.76 5.86818 -3.96296 0
M  V30 17402 H 1582.17 5.11218 -2.39409 0
M  V30 17403 N 1581.57 1.13606 1.09231 0
M  V30 17404 C 1582.48 0.828702 2.19476 0
M  V30 17405 C 1583.49 -0.187499 1.72987 0
M  V30 17406 O 1584.67 -0.0180602 2.01392 0
M  V30 17407 C 1581.73 0.301361 3.45388 0
M  V30 17408 C 1580.8 1.37906 4.06547 0
M  V30 17409 C 1580.03 0.876786 5.26449 0
M  V30 17410 O 1580.25 -0.284896 5.69688 0
M  V30 17411 O 1579.19 1.652 5.78785 0
M  V30 17412 H 1583.01 1.74982 2.48223 0
M  V30 17413 H 1580.6 0.913673 1.18205 0
M  V30 17414 H 1582.48 0.0127792 4.21398 0
M  V30 17415 H 1581.15 -0.592149 3.18238 0
M  V30 17416 H 1580.06 1.72098 3.32164 0
M  V30 17417 H 1581.39 2.24678 4.37927 0
M  V30 17418 N 1583.05 -1.27244 0.929878 0
M  V30 17419 C 1584.29 -1.94557 0.572306 0
M  V30 17420 C 1584.62 -1.72886 -0.884542 0
M  V30 17421 O 1583.9 -1.0592 -1.63129 0
M  V30 17422 C 1584.18 -3.48629 0.901675 0
M  V30 17423 C 1584.04 -3.79633 2.41244 0
M  V30 17424 C 1585.35 -4.38195 0.409093 0
M  V30 17425 H 1582.47 -0.706627 0.209397 0
M  V30 17426 H 1585.12 -1.50321 1.16205 0
M  V30 17427 H 1583.27 -3.86437 0.399791 0
M  V30 17428 H 1584.94 -3.51604 2.98618 0
M  V30 17429 H 1583.18 -3.26108 2.8607 0
M  V30 17430 H 1583.85 -4.87284 2.59342 0
M  V30 17431 H 1586.33 -4.07548 0.839256 0
M  V30 17432 H 1585.2 -5.44814 0.668482 0
M  V30 17433 H 1585.46 -4.36669 -0.690861 0
M  V30 17434 N 1584.52 -0.695628 -1.41417 0
M  V30 17435 C 1585.77 -0.235709 -2.0203 0
M  V30 17436 C 1586.12 1.15186 -1.5411 0
M  V30 17437 O 1585.42 1.76628 -0.742491 0
M  V30 17438 C 1585.61 -0.232664 -3.56642 0
M  V30 17439 C 1585.44 -1.61841 -4.19569 0
M  V30 17440 C 1584.21 -2.22126 -4.53859 0
M  V30 17441 C 1586.41 -2.56502 -4.4577 0
M  V30 17442 N 1584.39 -3.53264 -5.02073 0
M  V30 17443 C 1585.76 -3.72319 -4.9576 0
M  V30 17444 C 1587.82 -2.54768 -4.27782 0
M  V30 17445 C 1586.52 -4.86684 -5.29652 0
M  V30 17446 C 1588.55 -3.68245 -4.62763 0
M  V30 17447 C 1587.91 -4.82792 -5.12924 0
M  V30 17448 H 1584.01 -0.131642 -0.77084 0
M  V30 17449 H 1586.59 -0.913121 -1.7196 0
M  V30 17450 H 1584.76 0.414235 -3.86185 0
M  V30 17451 H 1586.49 0.242088 -4.03975 0
M  V30 17452 H 1583.25 -1.74412 -4.40315 0
M  V30 17453 H 1583.67 -4.20485 -5.30586 0
M  V30 17454 H 1588.31 -1.67424 -3.88238 0
M  V30 17455 H 1586.03 -5.74687 -5.6812 0
M  V30 17456 H 1589.62 -3.68155 -4.50504 0
M  V30 17457 H 1588.5 -5.69145 -5.39485 0
M  V30 17458 N 1586 1.51322 -0.440383 0
M  V30 17459 C 1587.23 2.0653 0.123649 0
M  V30 17460 C 1587.64 1.30751 1.36197 0
M  V30 17461 O 1587 0.367932 1.78753 0
M  V30 17462 C 1587.05 3.58778 0.442802 0
M  V30 17463 O 1586.77 4.31695 -0.746375 0
M  V30 17464 C 1588.27 4.3051 1.05717 0
M  V30 17465 H 1585.49 0.670968 0.00657466 0
M  V30 17466 H 1588.04 1.94864 -0.620341 0
M  V30 17467 H 1586.19 3.70349 1.13669 0
M  V30 17468 H 1586.61 5.22368 -0.472466 0
M  V30 17469 H 1588.08 5.38111 1.23046 0
M  V30 17470 H 1588.56 3.88999 2.03903 0
M  V30 17471 H 1589.16 4.2339 0.402574 0
M  V30 17472 O 1587.52 0.31293 1.58439 0
M  V30 17473 H 1588.21 -0.249185 1.9209 0
M  V30 END ATOM
M  V30 BEGIN BOND
M  V30 END BOND
M  V30 END CTAB
M  END
$$$$
