drugbank_target|Q13423 NAD(P) transhydrogenase, mitochondrial (DB00157; DB01763; DB03461; DB09092)
 OpenBabel12092119223D

  0  0  0     0  0            999 V3000
M  V30 BEGIN CTAB
M  V30 COUNTS 16229 16376 0 0 0
M  V30 BEGIN ATOM
M  V30 1 H -0.908 1.98254 -0.117106 0
M  V30 2 N 0 1.576 0 0
M  V30 3 C 0.933 2.03868 1.02534 0
M  V30 4 C 1.911 0.928543 1.3348 0
M  V30 5 O 3.095 1.19667 1.45644 0
M  V30 6 C 0.222 2.43627 2.35294 0
M  V30 7 C -0.732 3.65373 2.2001 0
M  V30 8 S 0.101 5.13292 1.52614 0
M  V30 9 C 1.257 5.56322 2.86805 0
M  V30 10 H 1.49 2.90518 0.631377 0
M  V30 11 H -0.977 1.52953 0.210867 0
M  V30 12 H 0.981 2.67203 3.11629 0
M  V30 13 H -0.358 1.57376 2.7183 0
M  V30 14 H -1.165 3.90944 3.18086 0
M  V30 15 H -1.563 3.418 1.51819 0
M  V30 16 H 0.729 5.58782 3.83104 0
M  V30 17 H 1.672 6.56266 2.65933 0
M  V30 18 H 2.08 4.83886 2.90714 0
M  V30 19 N 1.4781 -0.272755 1.55222 0
M  V30 20 C 2.4411 -1.32041 1.87344 0
M  V30 21 C 3.4411 -1.42342 0.74803 0
M  V30 22 O 4.6311 -1.41488 1.0162 0
M  V30 23 C 1.7631 -2.70173 2.07893 0
M  V30 24 H 2.9561 -1.04789 2.80997 0
M  V30 25 H 0.5091 -0.51083 1.47717 0
M  V30 26 H 1.2441 -3.02605 1.16622 0
M  V30 27 H 1.0291 -2.64082 2.89833 0
M  V30 28 H 2.5191 -3.45869 2.34017 0
M  V30 29 N 2.9562 -1.48159 -0.537278 0
M  V30 30 C 3.9042 -1.62573 -1.66352 0
M  V30 31 C 4.8982 -0.492366 -1.62087 0
M  V30 32 O 6.1042 -0.670847 -1.67032 0
M  V30 33 H 2.4792 -0.511992 -0.550789 0
M  V30 34 H 4.4502 -2.57176 -1.51337 0
M  V30 35 C 3.1992 -1.67583 -3.04649 0
M  V30 36 H 2.5222 -2.54151 -3.08622 0
M  V30 37 H 3.9622 -1.81713 -3.83088 0
M  V30 38 C 2.4212 -0.413039 -3.34358 0
M  V30 39 O 2.9512 0.477259 -3.98855 0
M  V30 40 N 1.1572 -0.286961 -2.8918 0
M  V30 41 H 0.7042 -1.01241 -2.36871 0
M  V30 42 H 0.6622 0.556963 -3.09427 0
M  V30 43 N 4.4343 0.785586 -1.36625 0
M  V30 44 C 5.3643 1.91259 -1.33949 0
M  V30 45 C 6.3453 1.68795 -0.210325 0
M  V30 46 O 7.5303 1.89854 -0.408561 0
M  V30 47 C 4.6603 3.28339 -1.13186 0
M  V30 48 C 3.6143 3.65335 -2.22967 0
M  V30 49 C 2.9403 5.00806 -1.87342 0
M  V30 50 C 4.2403 3.7352 -3.65075 0
M  V30 51 H 5.9343 1.93755 -2.28253 0
M  V30 52 H 3.4803 0.930788 -1.09874 0
M  V30 53 H 5.4333 4.06804 -1.09948 0
M  V30 54 H 4.1573 3.2624 -0.153332 0
M  V30 55 H 2.8163 2.89169 -2.25337 0
M  V30 56 H 2.4643 4.95233 -0.880545 0
M  V30 57 H 2.1643 5.26529 -2.60846 0
M  V30 58 H 3.6883 5.81687 -1.85667 0
M  V30 59 H 5.1023 4.42168 -3.64911 0
M  V30 60 H 3.4993 4.10731 -4.37516 0
M  V30 61 H 4.5693 2.74527 -3.99703 0
M  V30 62 N 5.9124 1.20967 1.01018 0
M  V30 63 C 6.8424 0.988272 2.11555 0
M  V30 64 C 7.8234 -0.0849778 1.69888 0
M  V30 65 O 9.0084 0.0738202 1.9406 0
M  V30 66 C 6.1384 0.546528 3.42973 0
M  V30 67 C 5.0924 1.56375 3.9841 0
M  V30 68 C 4.4184 0.97842 5.25672 0
M  V30 69 C 5.7184 2.94922 4.31066 0
M  V30 70 H 7.4124 1.91276 2.30334 0
M  V30 71 H 4.9584 0.921073 1.1069 0
M  V30 72 H 6.9114 0.378839 4.19694 0
M  V30 73 H 5.6354 -0.413598 3.23971 0
M  V30 74 H 4.2944 1.71891 3.23804 0
M  V30 75 H 3.9424 0.0101688 5.02999 0
M  V30 76 H 3.6424 1.65784 5.63728 0
M  V30 77 H 5.1664 0.821939 6.05043 0
M  V30 78 H 6.5804 2.8288 4.9865 0
M  V30 79 H 4.9774 3.5983 4.80253 0
M  V30 80 H 6.0474 3.4616 3.39561 0
M  V30 81 N 7.3905 -1.2043 1.01659 0
M  V30 82 C 8.3375 -2.23215 0.586822 0
M  V30 83 C 9.3075 -1.61382 -0.393085 0
M  V30 84 O 10.4925 -1.88544 -0.292525 0
M  V30 85 C 7.6325 -3.45032 -0.0687464 0
M  V30 86 C 6.7455 -4.21296 0.955724 0
M  V30 87 C 5.8805 -5.30507 0.271208 0
M  V30 88 C 4.9195 -5.98515 1.28244 0
M  V30 89 N 4.0565 -6.99316 0.62459 0
M  V30 90 H 8.8965 -2.59336 1.46796 0
M  V30 91 H 6.4335 -1.27431 0.734836 0
M  V30 92 H 8.3915 -4.1459 -0.465965 0
M  V30 93 H 7.0215 -3.09604 -0.913529 0
M  V30 94 H 6.0735 -3.50803 1.4711 0
M  V30 95 H 7.3855 -4.6803 1.72479 0
M  V30 96 H 6.5395 -6.06428 -0.18151 0
M  V30 97 H 5.2785 -4.8481 -0.530163 0
M  V30 98 H 4.2835 -5.21355 1.74554 0
M  V30 99 H 5.5085 -6.46298 2.08509 0
M  V30 100 H 3.4545 -6.55812 -0.156914 0
M  V30 101 H 3.3715 -7.44178 1.33172 0
M  V30 102 H 4.6395 -7.79255 0.195462 0
M  V30 103 N 8.8686 -0.792821 -1.36206 0
M  V30 104 C 10.0966 -0.378825 -2.03402 0
M  V30 105 C 10.5116 1.00586 -1.59774 0
M  V30 106 O 9.8686 1.64574 -0.788764 0
M  V30 107 C 9.9196 -0.43683 -3.58851 0
M  V30 108 O 9.6406 -1.76691 -4.00889 0
M  V30 109 C 11.1416 -0.0138943 -4.43298 0
M  V30 110 H 8.3616 -0.155673 -0.652692 0
M  V30 111 H 10.9056 -1.07261 -1.74113 0
M  V30 112 H 9.0606 0.208575 -3.86838 0
M  V30 113 H 9.4746 -1.72011 -4.95492 0
M  V30 114 H 10.9486 -0.105615 -5.51899 0
M  V30 115 H 11.4256 1.03915 -4.2673 0
M  V30 116 H 12.0316 -0.63192 -4.20579 0
M  V30 117 N 10.3467 1.47872 -0.545128 0
M  V30 118 C 11.5927 2.02793 -0.0166104 0
M  V30 119 C 11.9257 1.41987 1.32489 0
M  V30 120 O 11.2007 0.571045 1.85928 0
M  V30 121 C 11.4837 3.59989 0.0893294 0
M  V30 122 C 11.3367 4.3125 -1.27841 0
M  V30 123 C 12.6557 4.32606 0.808724 0
M  V30 124 H 9.7747 0.736962 -0.00751035 0
M  V30 125 H 12.4167 1.76433 -0.705085 0
M  V30 126 H 10.5667 3.82579 0.675681 0
M  V30 127 H 12.2387 4.20035 -1.90704 0
M  V30 128 H 10.4817 3.92076 -1.85632 0
M  V30 129 H 11.1527 5.39736 -1.15713 0
M  V30 130 H 13.6287 4.14936 0.310992 0
M  V30 131 H 12.5047 5.42251 0.851782 0
M  V30 132 H 12.7657 4.00963 1.86229 0
M  V30 133 N 11.8248 0.280983 1.55075 0
M  V30 134 C 13.0708 -0.33461 2.00021 0
M  V30 135 C 13.4038 -1.55063 1.16915 0
M  V30 136 O 12.6788 -1.93006 0.240646 0
M  V30 137 C 12.9618 -0.711007 3.53011 0
M  V30 138 C 12.8148 0.512766 4.46868 0
M  V30 139 C 14.1338 -1.54522 4.12081 0
M  V30 140 H 11.2528 -0.120147 0.727141 0
M  V30 141 H 13.8948 0.389097 1.85973 0
M  V30 142 H 12.0448 -1.32761 3.65112 0
M  V30 143 H 13.7168 1.15131 4.46702 0
M  V30 144 H 11.9598 1.14975 4.18286 0
M  V30 145 H 12.6308 0.205556 5.51617 0
M  V30 146 H 15.1068 -1.02442 4.03293 0
M  V30 147 H 13.9828 -1.77739 5.19327 0
M  V30 148 H 14.2438 -2.52813 3.62682 0
M  V30 149 N 13.3029 -1.57598 0.00835791 0
M  V30 150 C 14.5309 -1.95214 -0.68549 0
M  V30 151 C 14.9459 -0.883706 -1.66841 0
M  V30 152 O 14.3029 0.136565 -1.81988 0
M  V30 153 C 14.3539 -3.32865 -1.41007 0
M  V30 154 O 14.0749 -4.35609 -0.466552 0
M  V30 155 C 15.5759 -3.84991 -2.19765 0
M  V30 156 H 12.7959 -0.643422 -0.190392 0
M  V30 157 H 15.3399 -2.04406 0.0619607 0
M  V30 158 H 13.4949 -3.24956 -2.10908 0
M  V30 159 H 13.9089 -5.15288 -0.978699 0
M  V30 160 H 15.3829 -4.8371 -2.65948 0
M  V30 161 H 15.8599 -3.18137 -3.02796 0
M  V30 162 H 16.4659 -3.96103 -1.54864 0
M  V30 163 N 14.781 0.264519 -1.55364 0
M  V30 164 C 16.029 0.993021 -1.76021 0
M  V30 165 C 16.35 1.86511 -0.569099 0
M  V30 166 O 15.62 1.91438 0.415735 0
M  V30 167 H 14.2 0.369639 -0.649135 0
M  V30 168 H 16.862 0.286707 -1.9278 0
M  V30 169 H 15.958 1.62502 -2.66457 0
M  V30 170 N 16.2591 1.48442 0.529413 0
M  V30 171 C 17.4991 1.58086 1.29569 0
M  V30 172 C 17.8631 0.249302 1.90375 0
M  V30 173 O 19.0641 0.220738 2.67892 0
M  V30 174 C 17.3351 2.68793 2.35552 0
M  V30 175 S 18.8941 2.98207 3.21898 0
M  V30 176 H 15.7121 0.557922 0.440732 0
M  V30 177 H 18.3141 1.85966 0.603059 0
M  V30 178 H 17.0181 3.64102 1.89363 0
M  V30 179 H 16.5491 2.42817 3.09522 0
M  V30 180 H 18.5641 2.37548 4.35644 0
M  V30 181 N 17.7372 -0.778329 1.37039 0
M  V30 182 C 18.9622 -1.57248 1.35233 0
M  V30 183 C 19.3872 -1.87999 -0.0615568 0
M  V30 184 O 18.7452 -1.48734 -1.03672 0
M  V30 185 C 18.7932 -2.86353 2.19167 0
M  V30 186 O 17.8972 -3.80442 1.59178 0
M  V30 187 H 17.2382 -0.476569 0.462362 0
M  V30 188 H 19.7682 -0.963853 1.80474 0
M  V30 189 H 19.7782 -3.35519 2.32145 0
M  V30 190 H 18.4532 -2.63299 3.21942 0
M  V30 191 H 17.0302 -3.39067 1.55203 0
M  V30 192 N 19.2153 -1.21501 -1.00376 0
M  V30 193 C 20.4553 -1.04444 -1.75701 0
M  V30 194 C 20.8193 0.414644 -1.87469 0
M  V30 195 O 22.0203 0.705763 -2.59369 0
M  V30 196 C 20.2913 -1.72389 -3.13077 0
M  V30 197 S 21.8503 -1.70604 -4.04277 0
M  V30 198 H 18.6683 -0.374249 -0.604532 0
M  V30 199 H 21.2703 -1.54267 -1.20091 0
M  V30 200 H 19.9743 -2.77734 -3.02146 0
M  V30 201 H 19.5053 -1.22751 -3.73759 0
M  V30 202 H 21.5203 -0.748012 -4.9053 0
M  V30 203 N 20.6934 1.19889 -1.02296 0
M  V30 204 C 22.1044 1.71124 -0.746568 0
M  V30 205 C 22.4554 1.81939 0.734335 0
M  V30 206 O 21.5804 1.48639 1.57275 0
M  V30 207 C 22.1754 3.10804 -1.34857 0
M  V30 208 C 20.7344 3.59323 -1.1209 0
M  V30 209 C 19.8814 2.3635 -1.45031 0
M  V30 210 H 22.8324 1.04813 -1.19163 0
M  V30 211 H 22.8534 3.73186 -0.742437 0
M  V30 212 H 22.3654 3.029 -2.42638 0
M  V30 213 H 20.4664 3.7255 -0.0610337 0
M  V30 214 H 20.5794 4.4378 -1.80544 0
M  V30 215 H 18.9434 2.39399 -0.869487 0
M  V30 216 H 19.7264 2.31081 -2.53883 0
M  V30 217 N 22.1715 0.800033 1.35784 0
M  V30 218 C 23.1015 0.220184 2.3246 0
M  V30 219 C 24.0825 -0.65073 1.57161 0
M  V30 220 O 25.2675 -0.582359 1.85263 0
M  V30 221 C 22.3975 -0.637353 3.41402 0
M  V30 222 C 21.3515 0.134531 4.27789 0
M  V30 223 C 20.6775 -0.844285 5.27992 0
M  V30 224 C 21.9775 1.32979 5.05088 0
M  V30 225 H 23.6715 1.02787 2.81203 0
M  V30 226 H 21.2175 0.495717 1.35199 0
M  V30 227 H 23.1705 -1.05302 4.08031 0
M  V30 228 H 21.8945 -1.47785 2.91251 0
M  V30 229 H 20.5535 0.531296 3.6273 0
M  V30 230 H 20.2015 -1.68011 4.74111 0
M  V30 231 H 19.9015 -0.332184 5.8666 0
M  V30 232 H 21.4255 -1.2583 5.97494 0
M  V30 233 H 22.8395 0.98934 5.64699 0
M  V30 234 H 21.2365 1.77593 5.7322 0
M  V30 235 H 22.3065 2.11978 4.36111 0
M  V30 236 N 23.6496 -1.47581 0.552962 0
M  V30 237 C 24.5796 -2.32762 -0.185451 0
M  V30 238 C 25.5606 -1.43527 -0.912905 0
M  V30 239 O 26.7456 -1.72388 -0.894201 0
M  V30 240 C 23.8756 -3.25219 -1.21859 0
M  V30 241 C 22.8296 -4.23661 -0.607864 0
M  V30 242 C 22.1556 -5.05413 -1.74533 0
M  V30 243 C 23.4556 -5.20481 0.435582 0
M  V30 244 H 25.1496 -2.94749 0.525684 0
M  V30 245 H 22.6956 -1.41738 0.254251 0
M  V30 246 H 24.6486 -3.8365 -1.7433 0
M  V30 247 H 23.3726 -2.61279 -1.95961 0
M  V30 248 H 22.0316 -3.66451 -0.104489 0
M  V30 249 H 21.6796 -4.3788 -2.47529 0
M  V30 250 H 21.3796 -5.72059 -1.34249 0
M  V30 251 H 22.9036 -5.66701 -2.27338 0
M  V30 252 H 24.3176 -5.733 -0.00290157 0
M  V30 253 H 22.7146 -5.95305 0.757067 0
M  V30 254 H 23.7846 -4.66217 1.33303 0
M  V30 255 N 25.1277 -0.289203 -1.54924 0
M  V30 256 C 26.3527 0.329299 -2.04769 0
M  V30 257 C 26.7777 1.4763 -1.16564 0
M  V30 258 O 26.1357 1.80527 -0.167186 0
M  V30 259 C 26.1837 0.774438 -3.52186 0
M  V30 260 O 25.2877 1.88038 -3.67036 0
M  V30 261 H 24.6287 0.0659259 -0.660719 0
M  V30 262 H 27.1587 -0.42761 -2.00082 0
M  V30 263 H 27.1687 1.06642 -3.93816 0
M  V30 264 H 25.8437 -0.0646707 -4.1585 0
M  V30 265 H 24.4207 1.58985 -3.3731 0
M  V30 266 N 26.6058 1.57591 -0.0167156 0
M  V30 267 C 27.5538 2.10604 0.987353 0
M  V30 268 C 28.5478 1.02977 1.34507 0
M  V30 269 O 29.7538 1.21425 1.32875 0
M  V30 270 H 26.1288 0.672695 0.336134 0
M  V30 271 H 28.0998 2.93925 0.514817 0
M  V30 272 C 26.8488 2.6382 2.26483 0
M  V30 273 H 26.1718 3.46278 1.99829 0
M  V30 274 H 27.6118 3.04573 2.94977 0
M  V30 275 C 26.0708 1.55992 2.9861 0
M  V30 276 O 26.6008 0.952521 3.90243 0
M  V30 277 N 24.8068 1.28335 2.60727 0
M  V30 278 H 24.3538 1.77914 1.86291 0
M  V30 279 H 24.3118 0.564115 3.09298 0
M  V30 280 N 28.0839 -0.256276 1.55502 0
M  V30 281 C 29.0139 -1.32102 1.92539 0
M  V30 282 C 29.9949 -1.50684 0.789194 0
M  V30 283 O 31.1799 -1.63449 1.04872 0
M  V30 284 C 28.3099 -2.67752 2.21192 0
M  V30 285 C 27.2639 -2.63878 3.36975 0
M  V30 286 C 26.5899 -4.03236 3.51147 0
M  V30 287 C 27.8899 -2.21682 4.72921 0
M  V30 288 H 29.5839 -1.01351 2.81724 0
M  V30 289 H 27.1299 -0.486105 1.35547 0
M  V30 290 H 29.0829 -3.42365 2.45691 0
M  V30 291 H 27.8069 -3.0012 1.28824 0
M  V30 292 H 26.4659 -1.91722 3.12471 0
M  V30 293 H 26.1139 -4.32854 2.56216 0
M  V30 294 H 25.8139 -4.01535 4.29003 0
M  V30 295 H 27.3379 -4.79563 3.77957 0
M  V30 296 H 28.7519 -2.86023 4.96854 0
M  V30 297 H 27.1489 -2.3111 5.53812 0
M  V30 298 H 28.2189 -1.16833 4.70615 0
M  V30 299 N 29.562 -1.4872 -0.521534 0
M  V30 300 C 30.81 -1.56857 -1.27437 0
M  V30 301 C 31.131 -0.247982 -1.93417 0
M  V30 302 O 30.401 0.731151 -1.81744 0
M  V30 303 H 28.981 -0.577885 -0.473347 0
M  V30 304 H 31.643 -1.85233 -0.606205 0
M  V30 305 H 30.739 -2.35402 -2.0492 0
M  V30 306 N 31.0401 0.771051 -1.3745 0
M  V30 307 C 32.2651 1.56529 -1.36065 0
M  V30 308 C 32.6901 1.88029 0.0515859 0
M  V30 309 O 32.0481 1.49282 1.02882 0
M  V30 310 C 32.0961 2.85187 -2.20683 0
M  V30 311 O 31.2001 3.79593 -1.61193 0
M  V30 312 H 30.5411 0.47411 -0.464883 0
M  V30 313 H 33.0711 0.954269 -1.80983 0
M  V30 314 H 33.0811 3.34283 -2.33921 0
M  V30 315 H 31.7561 2.61588 -3.23334 0
M  V30 316 H 30.3331 3.38239 -1.56999 0
M  V30 317 N 32.5182 1.22032 0.997298 0
M  V30 318 C 33.7582 1.05375 1.75144 0
M  V30 319 C 34.1222 -0.404696 1.87686 0
M  V30 320 O 35.3232 -0.691998 2.5974 0
M  V30 321 C 33.5942 1.74046 3.12158 0
M  V30 322 S 35.1532 1.72745 4.03366 0
M  V30 323 H 31.9712 0.377449 0.602539 0
M  V30 324 H 34.5732 1.54902 1.19272 0
M  V30 325 H 33.2772 2.79332 3.00669 0
M  V30 326 H 32.8082 1.24731 3.73103 0
M  V30 327 H 34.8232 0.774015 4.90126 0
M  V30 328 N 33.9963 -1.19345 1.0293 0
M  V30 329 C 34.9433 -2.2258 0.610464 0
M  V30 330 C 35.9133 -1.6179 -0.375946 0
M  V30 331 O 37.0983 -1.88844 -0.272511 0
M  V30 332 C 34.2383 -3.45085 -0.0321473 0
M  V30 333 C 33.3513 -4.20258 1.00035 0
M  V30 334 C 32.4863 -5.3019 0.32746 0
M  V30 335 C 31.5253 -5.97121 1.34584 0
M  V30 336 N 30.6623 -6.98615 0.698726 0
M  V30 337 H 35.5023 -2.57764 1.49538 0
M  V30 338 H 33.0393 -1.26644 0.748311 0
M  V30 339 H 34.9973 -4.15061 -0.421966 0
M  V30 340 H 33.6273 -3.10555 -0.88064 0
M  V30 341 H 32.6793 -3.49223 1.50823 0
M  V30 342 H 33.9913 -4.66175 1.77433 0
M  V30 343 H 33.1453 -6.06587 -0.11718 0
M  V30 344 H 31.8843 -4.85345 -0.478713 0
M  V30 345 H 30.8893 -5.19474 1.80074 0
M  V30 346 H 32.1143 -6.4405 2.15352 0
M  V30 347 H 30.0603 -6.55942 -0.0873471 0
M  V30 348 H 29.9773 -7.42724 1.41058 0
M  V30 349 H 31.2453 -7.79004 0.278102 0
M  V30 350 N 35.4744 -0.807222 -1.35358 0
M  V30 351 C 36.7224 -0.387122 -1.98358 0
M  V30 352 C 37.0434 1.04942 -1.64354 0
M  V30 353 O 36.3134 1.72615 -0.926339 0
M  V30 354 H 34.8934 -0.140154 -0.733734 0
M  V30 355 H 37.5554 -1.0332 -1.6526 0
M  V30 356 H 36.6514 -0.493352 -3.08176 0
M  V30 357 N 36.9525 1.47285 -0.560781 0
M  V30 358 C 37.8825 2.32857 0.173105 0
M  V30 359 C 38.8635 1.44009 0.905281 0
M  V30 360 O 40.0485 1.7286 0.885046 0
M  V30 361 C 37.1785 3.25861 1.20133 0
M  V30 362 C 36.1325 4.23978 0.585388 0
M  V30 363 C 35.4585 5.06332 1.7185 0
M  V30 364 C 36.7585 5.20242 -0.463178 0
M  V30 365 H 38.4525 2.94466 -0.541307 0
M  V30 366 H 35.9985 1.41601 -0.261764 0
M  V30 367 H 37.9515 3.84569 1.72293 0
M  V30 368 H 36.6755 2.62315 1.94573 0
M  V30 369 H 35.3345 3.66501 0.085054 0
M  V30 370 H 34.9825 4.39186 2.45203 0
M  V30 371 H 34.6825 5.72762 1.31213 0
M  V30 372 H 36.2065 5.67899 2.24329 0
M  V30 373 H 37.6205 5.73293 -0.027502 0
M  V30 374 H 36.0175 5.94896 -0.788627 0
M  V30 375 H 37.0875 4.65504 -1.35773 0
M  V30 376 N 38.4306 0.297415 1.54768 0
M  V30 377 C 39.8466 -0.0560823 1.59501 0
M  V30 378 C 40.0466 -1.52725 1.31444 0
M  V30 379 O 39.1026 -2.27947 1.08611 0
M  V30 380 C 40.4156 0.338631 2.98787 0
M  V30 381 C 41.9636 0.287097 3.11681 0
M  V30 382 C 42.4386 0.656579 4.53269 0
M  V30 383 N 43.9296 0.608977 4.59179 0
M  V30 384 C 44.6646 0.867385 5.66802 0
M  V30 385 N 44.1606 1.19157 6.82476 0
M  V30 386 N 45.9536 0.794687 5.56454 0
M  V30 387 H 38.1046 1.25624 1.71267 0
M  V30 388 H 40.3676 0.509057 0.799728 0
M  V30 389 H 40.0736 1.36263 3.2423 0
M  V30 390 H 39.9476 -0.309508 3.75928 0
M  V30 391 H 42.3346 -0.727649 2.85988 0
M  V30 392 H 42.4156 0.969809 2.36703 0
M  V30 393 H 42.0596 1.66912 4.7969 0
M  V30 394 H 41.9896 -0.0481649 5.26578 0
M  V30 395 H 44.4806 0.369198 3.76092 0
M  V30 396 H 44.7936 1.37482 7.60473 0
M  V30 397 H 43.1386 1.22958 6.84037 0
M  V30 398 H 46.3296 0.541098 4.64962 0
M  V30 399 H 46.5026 0.999445 6.40246 0
M  V30 400 N 39.9087 -1.5758 0.0250728 0
M  V30 401 C 41.1547 -1.91917 -0.655413 0
M  V30 402 C 41.4877 -0.901433 -1.72011 0
M  V30 403 O 40.7627 0.0764069 -1.9435 0
M  V30 404 C 41.0457 -3.36751 -1.27558 0
M  V30 405 C 40.8987 -4.49258 -0.220719 0
M  V30 406 C 42.2177 -3.81469 -2.19475 0
M  V30 407 H 39.3367 -0.697925 -0.23679 0
M  V30 408 H 41.9787 -1.89825 0.0815036 0
M  V30 409 H 40.1287 -3.38664 -1.90365 0
M  V30 410 H 41.8007 -4.59478 0.409601 0
M  V30 411 H 40.0437 -4.31415 0.454264 0
M  V30 412 H 40.7147 -5.47618 -0.694175 0
M  V30 413 H 43.1907 -3.81266 -1.66659 0
M  V30 414 H 42.0667 -4.83512 -2.59822 0
M  V30 415 H 42.3277 -3.16744 -3.08424 0
M  V30 416 N 41.3868 0.248026 -1.55636 0
M  V30 417 C 42.3338 1.30707 -1.90222 0
M  V30 418 C 43.3038 1.47881 -0.756332 0
M  V30 419 O 44.4888 1.61883 -1.00988 0
M  V30 420 C 41.6288 2.65769 -2.20138 0
M  V30 421 C 40.7418 2.56612 -3.47526 0
M  V30 422 C 39.8768 3.8402 -3.67017 0
M  V30 423 C 38.9158 3.69476 -4.8801 0
M  V30 424 N 38.0528 4.88774 -5.04029 0
M  V30 425 H 42.8928 1.00512 -2.80538 0
M  V30 426 H 40.4298 0.485055 -1.38873 0
M  V30 427 H 42.3878 3.44386 -2.35487 0
M  V30 428 H 41.0178 2.94115 -1.33027 0
M  V30 429 H 40.0698 1.69571 -3.40514 0
M  V30 430 H 41.3818 2.41774 -4.36287 0
M  V30 431 H 40.5358 4.7108 -3.8232 0
M  V30 432 H 39.2748 4.01754 -2.76487 0
M  V30 433 H 38.2798 2.80799 -4.72686 0
M  V30 434 H 39.5048 3.53238 -5.8 0
M  V30 435 H 37.4508 5.0687 -4.16435 0
M  V30 436 H 37.3678 4.76562 -5.86877 0
M  V30 437 H 38.6358 5.77335 -5.23741 0
M  V30 438 N 42.8649 1.48995 0.513639 0
M  V30 439 C 43.8119 1.6473 1.61656 0
M  V30 440 C 44.7819 0.488984 1.58739 0
M  V30 441 O 45.9669 0.714478 1.76918 0
M  V30 442 C 43.1069 1.7082 2.99858 0
M  V30 443 C 42.2199 2.9787 3.12885 0
M  V30 444 C 41.3549 2.95017 4.41744 0
M  V30 445 C 40.3939 4.16702 4.48359 0
M  V30 446 N 39.5309 4.11832 5.68629 0
M  V30 447 H 44.3709 2.58909 1.47547 0
M  V30 448 H 41.9079 1.28382 0.71808 0
M  V30 449 H 43.8659 1.72331 3.79944 0
M  V30 450 H 42.4959 0.801181 3.12699 0
M  V30 451 H 41.5479 3.06029 2.25944 0
M  V30 452 H 42.8599 3.8786 3.13633 0
M  V30 453 H 42.0139 2.95021 5.30139 0
M  V30 454 H 40.7529 2.02784 4.43542 0
M  V30 455 H 39.7579 4.16955 3.58369 0
M  V30 456 H 40.9829 5.10113 4.48287 0
M  V30 457 H 38.9289 3.22428 5.71293 0
M  V30 458 H 38.8459 4.95543 5.7094 0
M  V30 459 H 40.1139 4.1592 6.59266 0
M  V30 460 N 44.343 -0.763751 1.37857 0
M  V30 461 C 45.62 -1.51244 1.24035 0
M  V30 462 C 46 -2.10472 -0.162649 0
M  V30 463 O 45.348 -1.96206 -1.17112 0
M  V30 464 C 45.558 -2.58694 2.34261 0
M  V30 465 C 46.906 -3.25878 2.72193 0
M  V30 466 O 47.93 -2.68993 2.33497 0
M  V30 467 O 46.789 -4.2874 3.38887 0
M  V30 468 H 43.883 -0.670243 0.484462 0
M  V30 469 H 46.429 -0.800031 1.49658 0
M  V30 470 H 45.201 -2.13105 3.2818 0
M  V30 471 H 44.824 -3.37527 2.10146 0
M  V30 472 N 45.8211 -1.22559 -0.990812 0
M  V30 473 C 47.0681 -1.05141 -1.73065 0
M  V30 474 C 47.3961 0.413191 -1.9006 0
M  V30 475 O 46.6511 1.32257 -1.44245 0
M  V30 476 C 46.9501 -1.71011 -3.13831 0
M  V30 477 C 46.6161 -3.20911 -3.16745 0
M  V30 478 C 45.2781 -3.61812 -3.17247 0
M  V30 479 C 47.6301 -4.16846 -3.12872 0
M  V30 480 C 44.9581 -4.97127 -3.1158 0
M  V30 481 C 47.3101 -5.5214 -3.08746 0
M  V30 482 C 45.9741 -5.92419 -3.07565 0
M  V30 483 H 45.2441 -0.384738 -0.633291 0
M  V30 484 H 47.8911 -1.5235 -1.16025 0
M  V30 485 H 46.1961 -1.16133 -3.74193 0
M  V30 486 H 47.8931 -1.55023 -3.69823 0
M  V30 487 H 44.4831 -2.88344 -3.17105 0
M  V30 488 H 48.6671 -3.86263 -3.11632 0
M  V30 489 H 43.9231 -5.27562 -3.09012 0
M  V30 490 H 48.0971 -6.26201 -3.04705 0
M  V30 491 H 45.7241 -6.97236 -3.02929 0
M  V30 492 N 47.2992 1.18797 -1.03562 0
M  V30 493 C 48.2292 2.24472 -0.643019 0
M  V30 494 C 49.2102 1.66433 0.351283 0
M  V30 495 O 50.3952 1.92803 0.232505 0
M  V30 496 C 47.5252 3.473 4.24935e-05 0
M  V30 497 C 46.4792 4.18055 -0.917257 0
M  V30 498 C 45.8052 5.34519 -0.138941 0
M  V30 499 C 47.1052 4.72109 -2.23407 0
M  V30 500 H 48.7992 2.57566 -1.52643 0
M  V30 501 H 46.3452 1.23806 -0.735394 0
M  V30 502 H 48.2982 4.20426 0.286383 0
M  V30 503 H 47.0222 3.13424 0.918299 0
M  V30 504 H 45.6812 3.46821 -1.1879 0
M  V30 505 H 45.3292 4.96891 0.781562 0
M  V30 506 H 45.0292 5.82794 -0.750005 0
M  V30 507 H 46.5532 6.10438 0.1405 0
M  V30 508 H 47.9672 5.36955 -2.00879 0
M  V30 509 H 46.3642 5.30897 -2.79765 0
M  V30 510 H 47.4342 3.89807 -2.88407 0
M  V30 511 N 48.7773 0.814389 1.34928 0
M  V30 512 C 50.1933 0.499084 1.51596 0
M  V30 513 C 50.3933 -0.978319 1.76157 0
M  V30 514 O 49.4493 -1.76309 1.80752 0
M  V30 515 C 50.7623 1.35121 2.68631 0
M  V30 516 C 52.3103 1.34746 2.82511 0
M  V30 517 C 52.7853 2.18388 4.0258 0
M  V30 518 N 54.2763 2.15966 4.09772 0
M  V30 519 C 55.0113 2.77437 5.01813 0
M  V30 520 N 54.5073 3.47866 5.99134 0
M  V30 521 N 56.3003 2.67037 4.94619 0
M  V30 522 H 48.4513 1.7711 1.17243 0
M  V30 523 H 50.7143 0.754256 0.574284 0
M  V30 524 H 50.4203 2.40001 2.57085 0
M  V30 525 H 50.2943 1.00991 3.63429 0
M  V30 526 H 52.6813 0.30648 2.93504 0
M  V30 527 H 52.7623 1.72869 1.88547 0
M  V30 528 H 52.4063 3.2253 3.92347 0
M  V30 529 H 52.3363 1.77621 4.9574 0
M  V30 530 H 54.8273 1.64729 3.40107 0
M  V30 531 H 55.1403 3.92038 6.65977 0
M  V30 532 H 53.4853 3.51972 5.99284 0
M  V30 533 H 56.6763 2.11597 4.17546 0
M  V30 534 H 56.8493 3.15232 5.66156 0
M  V30 535 N 50.2554 -1.46986 0.568584 0
M  V30 536 C 51.4834 -2.0683 0.0539956 0
M  V30 537 C 51.8984 -1.41953 -1.24478 0
M  V30 538 O 51.2554 -0.519933 -1.74937 0
M  V30 539 C 51.3064 -3.61254 -0.133362 0
M  V30 540 O 51.0274 -4.237 1.11399 0
M  V30 541 C 52.5284 -4.37992 -0.683927 0
M  V30 542 H 49.7484 -0.669058 0.0510141 0
M  V30 543 H 52.2924 -1.88824 0.785234 0
M  V30 544 H 50.4474 -3.78735 -0.81477 0
M  V30 545 H 50.8614 -5.16388 0.91888 0
M  V30 546 H 52.3354 -5.46684 -0.764263 0
M  V30 547 H 52.8124 -4.05058 -1.69778 0
M  V30 548 H 53.4184 -4.25283 -0.0378494 0
M  V30 549 N 51.7335 -0.305618 -1.54608 0
M  V30 550 C 52.9805 0.302298 -2.00231 0
M  V30 551 C 53.3085 1.5354 -1.19398 0
M  V30 552 O 52.5635 1.93973 -0.259423 0
M  V30 553 C 52.8625 0.698983 -3.50498 0
M  V30 554 C 52.5285 -0.432903 -4.48817 0
M  V30 555 C 51.1905 -0.743622 -4.75419 0
M  V30 556 C 53.5425 -1.19409 -5.07337 0
M  V30 557 C 50.8705 -1.81857 -5.57804 0
M  V30 558 C 53.2225 -2.25899 -5.90891 0
M  V30 559 C 51.8865 -2.57572 -6.15803 0
M  V30 560 H 51.1565 0.110619 -0.732697 0
M  V30 561 H 53.8035 -0.425674 -1.86709 0
M  V30 562 H 52.1085 1.50711 -3.61654 0
M  V30 563 H 53.8055 1.1806 -3.83227 0
M  V30 564 H 50.3955 -0.18063 -4.28219 0
M  V30 565 H 54.5795 -0.967295 -4.86782 0
M  V30 566 H 49.8355 -2.06864 -5.75341 0
M  V30 567 H 54.0095 -2.85335 -6.35261 0
M  V30 568 H 51.6365 -3.40998 -6.7943 0
M  V30 569 N 53.2116 1.57565 -0.0334293 0
M  V30 570 C 54.4416 1.95996 0.653398 0
M  V30 571 C 54.8496 0.908749 1.65947 0
M  V30 572 O 54.1926 -0.117471 1.83324 0
M  V30 573 C 54.2546 3.30589 1.41249 0
M  V30 574 C 53.9186 4.53503 0.564263 0
M  V30 575 C 54.9156 5.19647 -0.16225 0
M  V30 576 C 52.6006 4.99801 0.500398 0
M  V30 577 C 54.5946 6.30412 -0.941255 0
M  V30 578 C 52.2816 6.10448 -0.282308 0
M  V30 579 C 53.2796 6.75612 -1.00184 0
M  V30 580 O 52.9676 7.84134 -1.77171 0
M  V30 581 H 52.6996 0.65027 0.184728 0
M  V30 582 H 55.2536 2.05199 -0.0907841 0
M  V30 583 H 53.4836 3.17888 2.20191 0
M  V30 584 H 55.1726 3.53892 1.98784 0
M  V30 585 H 55.9386 4.84846 -0.12227 0
M  V30 586 H 51.8176 4.48883 1.05002 0
M  V30 587 H 55.3616 6.81208 -1.50339 0
M  V30 588 H 51.2586 6.44686 -0.323989 0
M  V30 589 H 52.0266 8.00822 -1.69194 0
M  V30 590 N 54.6897 -0.239769 1.55765 0
M  V30 591 C 55.9177 -0.98417 1.81994 0
M  V30 592 C 56.3327 -1.7867 0.610124 0
M  V30 593 O 55.6897 -1.77571 -0.421271 0
M  V30 594 C 55.7407 -1.91635 3.06526 0
M  V30 595 O 55.4617 -1.14629 4.22838 0
M  V30 596 C 56.9627 -2.77616 3.45607 0
M  V30 597 H 54.1827 -0.28928 0.605441 0
M  V30 598 H 56.7267 -0.260499 2.02834 0
M  V30 599 H 54.8817 -2.5942 2.87715 0
M  V30 600 H 55.2957 -1.77745 4.93464 0
M  V30 601 H 56.7697 -3.38759 4.35828 0
M  V30 602 H 57.2467 -3.4909 2.6652 0
M  V30 603 H 57.8527 -2.15271 3.66795 0
M  V30 604 N 56.1678 -1.49265 -0.50573 0
M  V30 605 C 57.1178 -1.6198 -1.60457 0
M  V30 606 C 58.1018 -0.47568 -1.53708 0
M  V30 607 O 59.2938 -0.728392 -1.61318 0
M  V30 608 C 56.4228 -1.68526 -2.99089 0
M  V30 609 C 55.5088 -2.885 -3.10852 0
M  V30 610 N 55.8998 -4.12635 -2.92517 0
M  V30 611 C 54.1978 -2.86338 -3.41945 0
M  V30 612 C 54.8988 -4.93258 -3.08337 0
M  V30 613 N 53.8748 -4.26533 -3.37003 0
M  V30 614 H 57.6768 -2.55681 -1.44928 0
M  V30 615 H 55.1908 -1.45972 -0.711752 0
M  V30 616 H 57.1878 -1.75732 -3.78053 0
M  V30 617 H 55.8478 -0.759584 -3.1569 0
M  V30 618 H 56.8588 -4.42689 -2.68787 0
M  V30 619 H 53.5358 -2.03129 -3.64753 0
M  V30 620 H 54.9258 -6.01856 -2.98695 0
M  V30 621 N 57.6459 0.756429 -1.3826 0
M  V30 622 C 58.5779 1.87971 -1.31147 0
M  V30 623 C 59.5909 1.61248 -0.224239 0
M  V30 624 O 60.7799 1.71881 -0.481581 0
M  V30 625 C 57.8799 3.23545 -1.00857 0
M  V30 626 C 57.0529 3.77794 -2.20432 0
M  V30 627 C 56.1119 4.91877 -1.86931 0
M  V30 628 O 55.1379 5.06659 -2.59395 0
M  V30 629 N 56.3399 5.74643 -0.822568 0
M  V30 630 H 59.1049 1.94585 -2.2794 0
M  V30 631 H 56.6659 0.936234 -1.32084 0
M  V30 632 H 58.6579 3.97403 -0.765021 0
M  V30 633 H 57.2279 3.12335 -0.128687 0
M  V30 634 H 56.4479 2.95534 -2.6087 0
M  V30 635 H 57.7359 4.10771 -3.00241 0
M  V30 636 H 57.1339 5.65266 -0.221575 0
M  V30 637 H 55.6909 6.48661 -0.638899 0
M  V30 638 N 59.124 1.23083 0.984299 0
M  V30 639 C 60.034 1.02515 2.11016 0
M  V30 640 C 61.05 -0.0291702 1.73976 0
M  V30 641 O 62.226 0.165434 2.00719 0
M  V30 642 C 59.291 0.614673 3.41208 0
M  V30 643 C 58.352 1.74359 3.92297 0
M  V30 644 C 57.585 1.35261 5.16275 0
M  V30 645 O 57.808 0.235136 5.69915 0
M  V30 646 O 56.742 2.17227 5.61334 0
M  V30 647 H 60.568 1.96862 2.31255 0
M  V30 648 H 58.153 1.01753 1.09392 0
M  V30 649 H 60.035 0.396518 4.1953 0
M  V30 650 H 58.71 -0.299851 3.22308 0
M  V30 651 H 57.617 2.01635 3.1511 0
M  V30 652 H 58.95 2.63629 4.15645 0
M  V30 653 N 60.6021 -1.18246 1.0419 0
M  V30 654 C 61.5321 -2.24127 0.654914 0
M  V30 655 C 62.5131 -1.66617 -0.342451 0
M  V30 656 O 63.6981 -1.92924 -0.222277 0
M  V30 657 C 60.8281 -3.47295 0.0183757 0
M  V30 658 C 59.7821 -4.17563 0.939414 0
M  V30 659 C 59.1081 -5.34438 0.167286 0
M  V30 660 C 60.4081 -4.70917 2.25908 0
M  V30 661 H 62.1021 -2.56753 1.54007 0
M  V30 662 H 59.6481 -1.23414 0.74195 0
M  V30 663 H 61.6011 -4.20572 -0.264082 0
M  V30 664 H 60.3251 -3.13907 -0.901664 0
M  V30 665 H 58.9841 -3.46186 1.20628 0
M  V30 666 H 58.6321 -4.97298 -0.7552 0
M  V30 667 H 58.3321 -5.82388 0.780901 0
M  V30 668 H 59.8561 -6.10504 -0.108125 0
M  V30 669 H 61.2701 -5.35882 2.03724 0
M  V30 670 H 59.6671 -5.29406 2.82577 0
M  V30 671 H 60.7371 -3.88272 2.9047 0
M  V30 672 N 62.0802 -0.821533 -1.34494 0
M  V30 673 C 63.3262 -0.418729 -1.99043 0
M  V30 674 C 63.6812 1.00672 -1.6396 0
M  V30 675 O 62.9742 1.69132 -0.900271 0
M  V30 676 C 63.1682 -0.556512 -3.53041 0
M  V30 677 C 62.9972 -1.9938 -4.03085 0
M  V30 678 C 61.7672 -2.62539 -4.31742 0
M  V30 679 C 63.9652 -2.96035 -4.20556 0
M  V30 680 N 61.9472 -3.97523 -4.67813 0
M  V30 681 C 63.3182 -4.15924 -4.59791 0
M  V30 682 C 65.3732 -2.9267 -4.02801 0
M  V30 683 C 64.0762 -5.32899 -4.83126 0
M  V30 684 C 66.1022 -4.08861 -4.27302 0
M  V30 685 C 65.4642 -5.275 -4.66822 0
M  V30 686 H 61.5632 -0.201299 -0.755647 0
M  V30 687 H 64.1472 -1.06594 -1.62929 0
M  V30 688 H 62.3182 0.0607924 -3.88352 0
M  V30 689 H 64.0502 -0.126842 -4.04501 0
M  V30 690 H 60.8052 -2.13789 -4.22601 0
M  V30 691 H 61.2292 -4.67061 -4.90085 0
M  V30 692 H 65.8712 -2.02088 -3.71376 0
M  V30 693 H 63.5892 -6.24041 -5.13418 0
M  V30 694 H 67.1752 -4.07654 -4.15101 0
M  V30 695 H 66.0552 -6.15913 -4.85408 0
M  V30 696 N 63.5583 1.46682 -0.576371 0
M  V30 697 C 64.7983 2.04306 -0.0621356 0
M  V30 698 C 65.1623 1.4389 1.2712 0
M  V30 699 O 66.3633 1.92675 1.87429 0
M  V30 700 C 64.6343 3.57399 0.00927922 0
M  V30 701 S 66.1933 4.36309 0.466859 0
M  V30 702 H 63.0113 0.710167 -0.0344016 0
M  V30 703 H 65.6133 1.79807 -0.767437 0
M  V30 704 H 64.3173 3.98889 -0.965178 0
M  V30 705 H 63.8483 3.86424 0.737547 0
M  V30 706 H 65.8633 4.6533 1.72287 0
M  V30 707 N 65.0364 0.313813 1.54444 0
M  V30 708 C 65.9834 -0.55655 2.23989 0
M  V30 709 C 66.9534 -1.11943 1.22711 0
M  V30 710 O 68.1384 -1.16158 1.51367 0
M  V30 711 C 65.2784 -1.71635 2.99392 0
M  V30 712 C 64.3914 -1.18364 4.15468 0
M  V30 713 C 63.5264 -2.30834 4.78424 0
M  V30 714 C 62.5654 -1.74762 5.86622 0
M  V30 715 N 61.7024 -2.80855 6.43479 0
M  V30 716 H 66.5424 0.0430893 2.97969 0
M  V30 717 H 64.0794 0.0330359 1.47063 0
M  V30 718 H 66.0374 -2.39868 3.41349 0
M  V30 719 H 64.6674 -2.28742 2.27765 0
M  V30 720 H 63.7194 -0.393163 3.78363 0
M  V30 721 H 65.0314 -0.733262 4.93381 0
M  V30 722 H 64.1854 -3.0699 5.23299 0
M  V30 723 H 62.9244 -2.79204 3.99871 0
M  V30 724 H 61.9294 -0.970995 5.41158 0
M  V30 725 H 63.1544 -1.2728 6.67066 0
M  V30 726 H 61.1004 -3.28535 5.67804 0
M  V30 727 H 61.0174 -2.40351 7.16776 0
M  V30 728 H 62.2854 -3.5687 6.93011 0
M  V30 729 N 66.5145 -1.57545 0.0417849 0
M  V30 730 C 67.4775 -2.09885 -0.92093 0
M  V30 731 C 68.4775 -1.01648 -1.24596 0
M  V30 732 O 69.6675 -1.27759 -1.1842 0
M  V30 733 C 66.7995 -2.57527 -2.23367 0
M  V30 734 H 67.9925 -2.96236 -0.467382 0
M  V30 735 H 65.5455 -1.5493 -0.206467 0
M  V30 736 H 66.2805 -1.74542 -2.73323 0
M  V30 737 H 66.0655 -3.36613 -2.01083 0
M  V30 738 H 67.5555 -2.98201 -2.92346 0
M  V30 739 N 67.9926 0.231505 -1.5589 0
M  V30 740 C 69.4036 0.799327 -1.68724 0
M  V30 741 C 69.7546 1.85398 -0.642022 0
M  V30 742 O 68.8796 2.1539 0.208784 0
M  V30 743 C 69.4746 1.45664 -3.05888 0
M  V30 744 C 68.0336 1.97197 -3.20609 0
M  V30 745 C 67.1806 0.828552 -2.64632 0
M  V30 746 H 70.1316 0.00702616 -1.58698 0
M  V30 747 H 70.1526 2.32517 -3.01191 0
M  V30 748 H 69.6646 0.688808 -3.81939 0
M  V30 749 H 67.7656 2.76813 -2.4941 0
M  V30 750 H 67.8786 2.15878 -4.27707 0
M  V30 751 H 66.2426 1.23321 -2.22854 0
M  V30 752 H 67.0256 0.0735544 -3.43221 0
M  V30 753 N 69.4707 1.49531 0.497807 0
M  V30 754 C 70.7167 1.59415 1.25358 0
M  V30 755 C 71.0497 0.281422 1.9215 0
M  V30 756 O 70.3247 -0.715249 1.80871 0
M  V30 757 C 70.6077 2.75566 2.3181 0
M  V30 758 C 70.4607 4.16642 1.69498 0
M  V30 759 C 71.7797 2.87347 3.33346 0
M  V30 760 H 68.8987 0.580244 0.454408 0
M  V30 761 H 71.5407 1.81827 0.551262 0
M  V30 762 H 69.6907 2.56587 2.91711 0
M  V30 763 H 71.3627 4.47145 1.13399 0
M  V30 764 H 69.6057 4.22141 0.998978 0
M  V30 765 H 70.2767 4.93792 2.46725 0
M  V30 766 H 72.7527 3.04634 2.83438 0
M  V30 767 H 71.6287 3.70289 4.05188 0
M  V30 768 H 71.8897 1.96834 3.95865 0
M  V30 769 N 70.9488 -0.749086 1.3866 0
M  V30 770 C 71.8958 -1.86291 1.36251 0
M  V30 771 C 72.8658 -1.64578 0.224347 0
M  V30 772 O 74.0508 -1.86181 0.417279 0
M  V30 773 C 71.1908 -3.23644 1.19786 0
M  V30 774 C 70.3038 -3.57158 2.43027 0
M  V30 775 C 69.4388 -4.83838 2.19258 0
M  V30 776 C 68.4778 -5.10152 3.38247 0
M  V30 777 N 67.6148 -6.28029 3.13884 0
M  V30 778 H 72.4548 -1.87685 2.3147 0
M  V30 779 H 69.9918 -0.917287 1.14997 0
M  V30 780 H 71.9498 -4.0291 1.08254 0
M  V30 781 H 70.5798 -3.21566 0.282031 0
M  V30 782 H 69.6318 -2.72701 2.65214 0
M  V30 783 H 70.9438 -3.7253 3.31697 0
M  V30 784 H 70.0978 -5.71057 2.04888 0
M  V30 785 H 68.8368 -4.70614 1.2796 0
M  V30 786 H 67.8418 -4.21401 3.53131 0
M  V30 787 H 69.0668 -5.25271 4.30427 0
M  V30 788 H 67.0128 -6.1612 2.25238 0
M  V30 789 H 66.9298 -6.43922 3.96106 0
M  V30 790 H 68.1978 -7.18124 3.03179 0
M  V30 791 N 72.4269 -1.23603 -0.977757 0
M  V30 792 C 73.8379 -1.06424 -1.53398 0
M  V30 793 C 74.1889 0.367578 -1.92726 0
M  V30 794 O 73.3139 1.25465 -1.76316 0
M  V30 795 C 73.9089 -1.92568 -2.78753 0
M  V30 796 C 72.4679 -1.79642 -3.30765 0
M  V30 797 C 71.6149 -1.88111 -2.03739 0
M  V30 798 H 74.5659 -1.37227 -0.797152 0
M  V30 799 H 74.5869 -1.45203 -3.51705 0
M  V30 800 H 74.0989 -2.96771 -2.50098 0
M  V30 801 H 72.1999 -0.782325 -3.64294 0
M  V30 802 H 72.3129 -2.63174 -4.00345 0
M  V30 803 H 70.6769 -1.31723 -2.17994 0
M  V30 804 H 71.4599 -2.93875 -1.77461 0
M  V30 805 N 73.905 1.17692 -1.04816 0
M  V30 806 C 75.153 1.87488 -0.754497 0
M  V30 807 C 75.474 1.81205 0.720407 0
M  V30 808 O 74.744 1.23544 1.52032 0
M  V30 809 H 73.324 0.694101 -0.276102 0
M  V30 810 H 75.986 1.42793 -1.32651 0
M  V30 811 H 75.082 2.93328 -1.06606 0
M  V30 812 N 75.3831 0.828654 1.34056 0
M  V30 813 C 76.6321 0.415828 1.97367 0
M  V30 814 C 76.9451 -1.02796 1.6641 0
M  V30 815 O 78.1511 -1.54497 2.23255 0
M  V30 816 C 76.6071 0.692601 3.53173 0
M  V30 817 C 76.2151 2.15038 3.93017 0
M  V30 818 C 77.9591 0.346222 4.23086 0
M  V30 819 C 75.8661 2.37174 5.41758 0
M  V30 820 H 74.7961 0.151755 0.738571 0
M  V30 821 H 77.4471 1.01581 1.52819 0
M  V30 822 H 75.8291 0.0223764 3.95994 0
M  V30 823 H 77.0031 2.86024 3.61285 0
M  V30 824 H 75.3181 2.45875 3.36057 0
M  V30 825 H 77.9151 0.48937 5.32456 0
M  V30 826 H 78.2581 -0.709842 4.10204 0
M  V30 827 H 78.7911 0.971258 3.85761 0
M  V30 828 H 75.5301 3.41308 5.59633 0
M  V30 829 H 75.0501 1.70738 5.74986 0
M  V30 830 H 76.7291 2.19818 6.08514 0
M  V30 831 N 76.8612 -1.46375 0.584142 0
M  V30 832 C 78.2722 -1.86031 0.157959 0
M  V30 833 C 78.6232 -1.48753 -1.27933 0
M  V30 834 O 77.7482 -0.903098 -1.96655 0
M  V30 835 C 78.3432 -3.37642 0.279892 0
M  V30 836 C 76.9022 -3.76289 -0.09143 0
M  V30 837 C 76.0492 -2.7039 0.615178 0
M  V30 838 H 79.0002 -1.37509 0.792274 0
M  V30 839 H 79.0212 -3.77275 -0.494364 0
M  V30 840 H 78.5332 -3.64742 1.32607 0
M  V30 841 H 76.6342 -3.54806 -1.13769 0
M  V30 842 H 76.7472 -4.78246 0.285886 0
M  V30 843 H 75.1112 -2.5464 0.0552833 0
M  V30 844 H 75.8942 -3.0033 1.66303 0
M  V30 845 N 78.3393 -0.321999 -1.54275 0
M  V30 846 C 79.5693 0.282642 -2.04658 0
M  V30 847 C 79.9773 1.46453 -1.19784 0
M  V30 848 O 79.3203 1.82367 -0.220932 0
M  V30 849 C 79.3823 0.781857 -3.50895 0
M  V30 850 C 79.0463 -0.277517 -4.56157 0
M  V30 851 C 80.0433 -1.11307 -5.07845 0
M  V30 852 C 77.7283 -0.425256 -5.00497 0
M  V30 853 C 79.7223 -2.08211 -6.02434 0
M  V30 854 C 77.4093 -1.39771 -5.94901 0
M  V30 855 C 78.4073 -2.2246 -6.45756 0
M  V30 856 O 78.0953 -3.18054 -7.38307 0
M  V30 857 H 77.8273 0.0622636 -0.673126 0
M  V30 858 H 80.3813 -0.465792 -2.00049 0
M  V30 859 H 78.6113 1.58118 -3.52896 0
M  V30 860 H 80.3003 1.30467 -3.84361 0
M  V30 861 H 81.0663 -1.00991 -4.74369 0
M  V30 862 H 76.9453 0.20847 -4.60528 0
M  V30 863 H 80.4893 -2.72791 -6.42052 0
M  V30 864 H 76.3863 -1.50152 -6.27794 0
M  V30 865 H 77.1543 -3.13275 -7.56175 0
M  V30 866 N 79.8174 1.5752 -0.0501392 0
M  V30 867 C 80.7644 2.1147 0.924603 0
M  V30 868 C 81.7344 1.02182 1.30951 0
M  V30 869 O 82.9194 1.29723 1.39916 0
M  V30 870 C 80.0594 2.66337 2.19451 0
M  V30 871 C 79.1724 3.89708 1.86418 0
M  V30 872 C 78.3074 4.32893 3.07859 0
M  V30 873 C 77.3464 5.48967 2.70742 0
M  V30 874 N 76.4834 5.87211 3.84874 0
M  V30 875 H 81.3234 2.94465 0.457639 0
M  V30 876 H 78.8604 1.45531 0.214266 0
M  V30 877 H 80.8184 2.96247 2.93758 0
M  V30 878 H 79.4484 1.86141 2.63726 0
M  V30 879 H 78.5004 3.66396 1.02264 0
M  V30 880 H 79.8124 4.74074 1.55096 0
M  V30 881 H 78.9664 4.6435 3.90466 0
M  V30 882 H 77.7054 3.47336 3.42358 0
M  V30 883 H 76.7104 5.17183 1.86551 0
M  V30 884 H 77.9354 6.3624 2.37436 0
M  V30 885 H 75.8814 5.04607 4.19175 0
M  V30 886 H 75.7984 6.66266 3.57247 0
M  V30 887 H 77.0664 6.23282 4.68123 0
M  V30 888 N 81.2955 -0.223234 1.56011 0
M  V30 889 C 82.2275 -1.30006 1.88762 0
M  V30 890 C 83.2405 -1.43129 0.775746 0
M  V30 891 O 84.4295 -1.44057 1.05403 0
M  V30 892 C 81.5295 -2.67589 2.07965 0
M  V30 893 C 80.7025 -2.76434 3.38973 0
M  V30 894 C 79.7615 -3.95019 3.47629 0
M  V30 895 O 78.7875 -3.83436 4.20672 0
M  V30 896 N 79.9895 -5.09249 2.78649 0
M  V30 897 H 82.7545 -1.02238 2.81722 0
M  V30 898 H 80.3155 -0.413278 1.56536 0
M  V30 899 H 82.3075 -3.45297 2.11073 0
M  V30 900 H 80.8775 -2.87964 1.21638 0
M  V30 901 H 80.0975 -1.85216 3.47978 0
M  V30 902 H 81.3855 -2.79313 4.25278 0
M  V30 903 H 80.7835 -5.21556 2.19081 0
M  V30 904 H 79.3405 -5.85007 2.8742 0
M  V30 905 N 82.7736 -1.49793 -0.48987 0
M  V30 906 C 83.7036 -1.70201 -1.59856 0
M  V30 907 C 84.6846 -0.55076 -1.60937 0
M  V30 908 O 85.8696 -0.787841 -1.77501 0
M  V30 909 C 82.9996 -1.77882 -2.98287 0
M  V30 910 C 81.9536 -2.92907 -3.12073 0
M  V30 911 C 81.2796 -2.85712 -4.51965 0
M  V30 912 C 82.5796 -4.3369 -2.91051 0
M  V30 913 H 84.2736 -2.63025 -1.43032 0
M  V30 914 H 81.8196 -1.26574 -0.686664 0
M  V30 915 H 83.7726 -1.90744 -3.75759 0
M  V30 916 H 82.4966 -0.816653 -3.16225 0
M  V30 917 H 81.1556 -2.79665 -2.37029 0
M  V30 918 H 80.8036 -1.8738 -4.66795 0
M  V30 919 H 80.5036 -3.62921 -4.62128 0
M  V30 920 H 82.0276 -3.00598 -5.31482 0
M  V30 921 H 83.4416 -4.47555 -3.58284 0
M  V30 922 H 81.8386 -5.12205 -3.12675 0
M  V30 923 H 82.9086 -4.47362 -1.87071 0
M  V30 924 N 84.2517 0.741722 -1.39055 0
M  V30 925 C 85.4797 1.53098 -1.39171 0
M  V30 926 C 85.8947 1.88794 0.0155099 0
M  V30 927 O 85.2517 1.53626 0.985159 0
M  V30 928 C 85.3027 2.82274 -2.2584 0
M  V30 929 O 85.0237 2.48097 -3.61081 0
M  V30 930 C 86.5247 3.76343 -2.34266 0
M  V30 931 H 83.7447 0.473335 -0.4756 0
M  V30 932 H 86.2887 0.917045 -1.82785 0
M  V30 933 H 84.4437 3.40015 -1.85656 0
M  V30 934 H 84.8577 3.31029 -4.06842 0
M  V30 935 H 86.3317 4.63898 -2.9917 0
M  V30 936 H 86.8087 4.17619 -1.35982 0
M  V30 937 H 87.4147 3.24523 -2.74891 0
M  V30 938 N 85.7298 1.2412 0.971189 0
M  V30 939 C 86.9758 1.08041 1.71625 0
M  V30 940 C 87.3088 -0.380407 1.90438 0
M  V30 941 O 86.5838 -1.28127 1.46334 0
M  V30 942 C 86.8668 1.81682 3.10908 0
M  V30 943 C 86.7198 3.35493 2.99608 0
M  V30 944 C 88.0388 1.58671 4.10501 0
M  V30 945 H 85.1578 0.39388 0.622919 0
M  V30 946 H 87.7998 1.52743 1.13003 0
M  V30 947 H 85.9498 1.43684 3.60953 0
M  V30 948 H 87.6218 3.83068 2.57015 0
M  V30 949 H 85.8648 3.64052 2.35899 0
M  V30 950 H 86.5358 3.82217 3.98264 0
M  V30 951 H 89.0118 1.91719 3.69301 0
M  V30 952 H 87.8878 2.1266 5.06031 0
M  V30 953 H 88.1488 0.524161 4.38982 0
M  V30 954 N 87.2079 -1.17134 1.05439 0
M  V30 955 C 88.4559 -1.87085 0.764429 0
M  V30 956 C 88.7769 -1.81584 -0.710787 0
M  V30 957 O 88.0469 -1.24349 -1.51374 0
M  V30 958 H 86.6269 -0.692627 0.279779 0
M  V30 959 H 89.2889 -1.42087 1.33406 0
M  V30 960 H 88.3849 -2.92759 1.0816 0
M  V30 961 N 88.686 -0.835752 -1.33615 0
M  V30 962 C 89.932 -0.430596 -1.98176 0
M  V30 963 C 90.265 1.00684 -1.66061 0
M  V30 964 O 89.54 1.70339 -0.938877 0
M  V30 965 C 89.823 -0.648065 -3.5422 0
M  V30 966 C 89.676 -2.13255 -3.96033 0
M  V30 967 C 90.995 -0.0922113 -4.40003 0
M  V30 968 H 88.114 -0.157924 -0.719881 0
M  V30 969 H 90.756 -1.05069 -1.58305 0
M  V30 970 H 88.906 -0.120237 -3.88314 0
M  V30 971 H 90.578 -2.725 -3.72211 0
M  V30 972 H 88.821 -2.61823 -3.45878 0
M  V30 973 H 89.492 -2.23547 -5.04708 0
M  V30 974 H 91.968 -0.543343 -4.12537 0
M  V30 975 H 90.844 -0.274083 -5.48215 0
M  V30 976 H 91.105 1.00378 -4.30554 0
M  V30 977 N 90.1641 1.46063 -0.591896 0
M  V30 978 C 91.5751 1.85944 -0.167822 0
M  V30 979 C 91.9261 1.49429 1.27143 0
M  V30 980 O 91.0511 0.913515 1.96173 0
M  V30 981 C 91.6461 3.37489 -0.297794 0
M  V30 982 C 90.2051 3.76332 0.0714732 0
M  V30 983 C 89.3521 2.7006 -0.629509 0
M  V30 984 H 92.3031 1.37087 -0.799555 0
M  V30 985 H 92.3241 3.77532 0.474349 0
M  V30 986 H 91.8361 3.64034 -1.3454 0
M  V30 987 H 89.9371 3.55405 1.11886 0
M  V30 988 H 90.0501 4.78088 -0.311245 0
M  V30 989 H 88.4141 2.54607 -0.0687867 0
M  V30 990 H 89.1971 2.99444 -1.67894 0
M  V30 991 N 91.6422 0.330177 1.54103 0
M  V30 992 C 92.5892 -0.532762 2.24567 0
M  V30 993 C 93.5592 -1.10635 1.23892 0
M  V30 994 O 94.7442 -1.14546 1.5259 0
M  V30 995 C 91.8842 -1.6845 3.01195 0
M  V30 996 C 90.9972 -1.13951 4.167 0
M  V30 997 C 90.1322 -2.25746 4.80845 0
M  V30 998 C 89.1712 -1.6853 5.88442 0
M  V30 999 N 88.3082 -2.74014 6.46421 0
M  V30 1000 H 93.1482 0.0746905 2.97906 0
M  V30 1001 H 90.6852 0.048632 1.4702 0
M  V30 1002 H 92.6432 -2.36234 3.43874 0
M  V30 1003 H 91.2732 -2.26314 2.30178 0
M  V30 1004 H 90.3252 -0.35301 3.78758 0
M  V30 1005 H 91.6372 -0.680892 4.94131 0
M  V30 1006 H 90.7912 -3.01422 5.26526 0
M  V30 1007 H 89.5302 -2.74947 4.0281 0
M  V30 1008 H 88.5352 -0.913543 5.42157 0
M  V30 1009 H 89.7602 -1.20198 6.68378 0
M  V30 1010 H 87.7062 -3.22494 5.71256 0
M  V30 1011 H 87.6232 -2.32735 7.19285 0
M  V30 1012 H 88.8912 -3.49499 6.96757 0
M  V30 1013 N 93.1203 -1.57491 0.0584922 0
M  V30 1014 C 94.0303 -2.15448 -0.928414 0
M  V30 1015 C 95.0463 -1.11416 -1.3365 0
M  V30 1016 O 96.2223 -1.4362 -1.41193 0
M  V30 1017 C 93.2873 -2.69393 -2.18239 0
M  V30 1018 C 92.3483 -3.88249 -1.83196 0
M  V30 1019 C 91.5813 -4.39613 -3.02616 0
M  V30 1020 O 91.8043 -3.90023 -4.16219 0
M  V30 1021 O 90.7383 -5.31111 -2.83204 0
M  V30 1022 H 94.5643 -3.00112 -0.465483 0
M  V30 1023 H 92.1493 -1.48499 -0.163826 0
M  V30 1024 H 94.0313 -3.04026 -2.91798 0
M  V30 1025 H 92.7063 -1.87796 -2.63656 0
M  V30 1026 H 91.6133 -3.58492 -1.06931 0
M  V30 1027 H 92.9463 -4.71098 -1.42573 0
M  V30 1028 N 94.5984 0.214957 -1.56127 0
M  V30 1029 C 95.8474 0.936451 -1.78643 0
M  V30 1030 C 96.1604 1.85237 -0.628229 0
M  V30 1031 O 97.3664 2.613 -0.737186 0
M  V30 1032 C 95.8224 1.7154 -3.16389 0
M  V30 1033 C 95.4304 0.845299 -4.39953 0
M  V30 1034 C 97.1744 2.42772 -3.48227 0
M  V30 1035 C 95.0814 1.62198 -5.68723 0
M  V30 1036 H 94.0114 0.353401 -0.666051 0
M  V30 1037 H 96.6624 0.190169 -1.82512 0
M  V30 1038 H 95.0444 2.50484 -3.06715 0
M  V30 1039 H 96.2184 0.0959353 -4.607 0
M  V30 1040 H 94.5334 0.244789 -4.1568 0
M  V30 1041 H 97.1304 3.01394 -4.41663 0
M  V30 1042 H 97.4734 3.15984 -2.71035 0
M  V30 1043 H 98.0064 1.70813 -3.5926 0
M  V30 1044 H 94.7454 0.933011 -6.48826 0
M  V30 1045 H 94.2654 2.34579 -5.52026 0
M  V30 1046 H 95.9444 2.18095 -6.09133 0
M  V30 1047 N 96.0765 1.50051 0.48192 0
M  V30 1048 C 97.3235 1.60498 1.23477 0
M  V30 1049 C 97.6515 0.300331 1.92167 0
M  V30 1050 O 96.9065 -0.713094 1.82246 0
M  V30 1051 C 97.2055 2.72717 2.30998 0
M  V30 1052 C 96.8715 4.13572 1.79636 0
M  V30 1053 C 95.5335 4.519 1.65348 0
M  V30 1054 C 97.8855 5.01649 1.41412 0
M  V30 1055 C 95.2135 5.76057 1.11244 0
M  V30 1056 C 97.5655 6.26343 0.887538 0
M  V30 1057 C 96.2295 6.63483 0.731207 0
M  V30 1058 H 95.4995 0.587303 0.451836 0
M  V30 1059 H 98.1465 1.83948 0.532468 0
M  V30 1060 H 96.4515 2.43312 3.07094 0
M  V30 1061 H 98.1485 2.78006 2.88988 0
M  V30 1062 H 94.7385 3.83329 1.91721 0
M  V30 1063 H 98.9225 4.72679 1.51289 0
M  V30 1064 H 94.1785 6.03516 0.978686 0
M  V30 1065 H 98.3525 6.93958 0.582654 0
M  V30 1066 H 95.9795 7.59568 0.309806 0
M  V30 1067 N 97.5546 -0.734337 1.39446 0
M  V30 1068 C 98.4866 -1.85861 1.34121 0
M  V30 1069 C 99.4996 -1.60871 0.249864 0
M  V30 1070 O 100.689 -1.71093 0.508865 0
M  V30 1071 C 97.7886 -3.21899 1.05991 0
M  V30 1072 C 96.9616 -3.74239 2.26415 0
M  V30 1073 C 96.0206 -4.88841 1.94733 0
M  V30 1074 O 95.0466 -5.02468 2.67422 0
M  V30 1075 N 96.2486 -5.73261 0.913884 0
M  V30 1076 H 99.0136 -1.90934 2.31007 0
M  V30 1077 H 96.5746 -0.915102 1.33557 0
M  V30 1078 H 98.5666 -3.96136 0.828147 0
M  V30 1079 H 97.1366 -3.12091 0.178361 0
M  V30 1080 H 96.3566 -2.91347 2.65539 0
M  V30 1081 H 97.6446 -4.05942 3.06738 0
M  V30 1082 H 97.0426 -5.64842 0.311476 0
M  V30 1083 H 95.5996 -6.47563 0.742015 0
M  V30 1084 N 99.0327 -1.24633 -0.964593 0
M  V30 1085 C 99.9807 -1.03917 -2.08096 0
M  V30 1086 C 100.975 0.0268581 -1.69379 0
M  V30 1087 O 102.181 -0.127952 -1.79545 0
M  V30 1088 H 98.5557 -0.319044 -0.680966 0
M  V30 1089 H 100.527 -1.98581 -2.22729 0
M  V30 1090 C 99.2757 -0.663983 -3.41301 0
M  V30 1091 H 98.5987 -1.47605 -3.71555 0
M  V30 1092 H 100.039 -0.558663 -4.20303 0
M  V30 1093 C 98.4977 0.629169 -3.30973 0
M  V30 1094 O 99.0277 1.67404 -3.65156 0
M  V30 1095 N 97.2337 0.611057 -2.84103 0
M  V30 1096 H 96.7807 -0.239593 -2.56483 0
M  V30 1097 H 96.7387 1.47647 -2.77575 0
M  V30 1098 N 100.511 1.16574 -1.06058 0
M  V30 1099 C 101.421 2.2452 -0.680282 0
M  V30 1100 C 102.437 1.71348 0.302604 0
M  V30 1101 O 103.613 2.00822 0.152513 0
M  V30 1102 C 100.678 3.46629 -0.0700315 0
M  V30 1103 C 99.7388 4.14849 -1.10448 0
M  V30 1104 C 98.9718 5.31129 -0.523256 0
M  V30 1105 O 99.1948 5.66514 0.664709 0
M  V30 1106 O 98.1288 5.88526 -1.26179 0
M  V30 1107 H 101.955 2.59355 -1.58015 0
M  V30 1108 H 99.5398 1.24043 -0.832694 0
M  V30 1109 H 101.422 4.20543 0.268667 0
M  V30 1110 H 100.097 3.13573 0.803353 0
M  V30 1111 H 99.0038 3.42916 -1.49532 0
M  V30 1112 H 100.337 4.51954 -1.94931 0
M  V30 1113 N 101.989 0.842826 1.3317 0
M  V30 1114 C 102.936 0.276885 2.29133 0
M  V30 1115 C 103.906 -0.609527 1.54512 0
M  V30 1116 O 105.091 -0.546955 1.82792 0
M  V30 1117 C 102.231 -0.538707 3.40869 0
M  V30 1118 C 101.344 0.372169 4.30394 0
M  V30 1119 C 100.479 -0.454908 5.29249 0
M  V30 1120 C 99.5179 0.45411 6.10413 0
M  V30 1121 N 98.6549 -0.335075 7.013 0
M  V30 1122 H 103.495 1.10052 2.76934 0
M  V30 1123 H 101.032 0.554161 1.36262 0
M  V30 1124 H 102.99 -1.02709 4.0436 0
M  V30 1125 H 101.62 -1.32727 2.9425 0
M  V30 1126 H 100.672 0.97888 3.6759 0
M  V30 1127 H 101.984 1.0703 4.87182 0
M  V30 1128 H 101.138 -1.00695 5.98285 0
M  V30 1129 H 99.8769 -1.18646 4.73048 0
M  V30 1130 H 98.8819 1.01813 5.40291 0
M  V30 1131 H 100.107 1.18409 6.68697 0
M  V30 1132 H 98.0529 -1.04994 6.47543 0
M  V30 1133 H 97.9699 0.304262 7.55387 0
M  V30 1134 H 99.2379 -0.869224 7.74638 0
M  V30 1135 N 103.467 -1.45747 0.599634 0
M  V30 1136 C 104.883 -1.57424 0.26264 0
M  V30 1137 C 105.083 -1.59222 -1.23493 0
M  V30 1138 O 104.139 -1.51825 -2.01756 0
M  V30 1139 C 105.452 -2.86061 0.926795 0
M  V30 1140 C 107 -2.99722 0.901967 0
M  V30 1141 C 107.475 -4.31119 1.54598 0
M  V30 1142 N 108.966 -4.37858 1.5111 0
M  V30 1143 C 109.701 -5.3818 1.97863 0
M  V30 1144 N 109.197 -6.45083 2.52666 0
M  V30 1145 N 110.99 -5.29487 1.88679 0
M  V30 1146 H 103.141 -1.42823 1.57211 0
M  V30 1147 H 105.404 -0.68235 0.658105 0
M  V30 1148 H 105.11 -2.90605 1.98095 0
M  V30 1149 H 104.984 -3.74563 0.445238 0
M  V30 1150 H 107.371 -2.9475 -0.143617 0
M  V30 1151 H 107.452 -2.12652 1.42171 0
M  V30 1152 H 107.096 -4.36849 2.59085 0
M  V30 1153 H 107.026 -5.16992 1.00132 0
M  V30 1154 H 109.517 -3.61209 1.11068 0
M  V30 1155 H 109.83 -7.17869 2.86155 0
M  V30 1156 H 108.175 -6.45856 2.56701 0
M  V30 1157 H 111.366 -4.44877 1.4561 0
M  V30 1158 H 111.539 -6.07524 2.25429 0
M  V30 1159 N 104.945 -0.338344 -1.53925 0
M  V30 1160 C 106.191 0.260143 -2.01125 0
M  V30 1161 C 106.524 1.50617 -1.22589 0
M  V30 1162 O 105.799 1.91979 -0.312113 0
M  V30 1163 C 106.082 0.579499 -3.55407 0
M  V30 1164 C 105.935 -0.678264 -4.44657 0
M  V30 1165 C 107.254 1.39122 -4.17532 0
M  V30 1166 H 104.373 0.0930772 -0.731099 0
M  V30 1167 H 107.015 -0.457852 -1.84401 0
M  V30 1168 H 105.165 1.19118 -3.69788 0
M  V30 1169 H 106.837 -1.31631 -4.42121 0
M  V30 1170 H 105.08 -1.3042 -4.13731 0
M  V30 1171 H 105.751 -0.410143 -5.50474 0
M  V30 1172 H 108.227 0.874035 -4.06817 0
M  V30 1173 H 107.103 1.58342 -5.25565 0
M  V30 1174 H 107.364 2.39178 -3.71815 0
M  V30 1175 N 106.423 1.57458 -0.0668435 0
M  V30 1176 C 107.386 2.11323 0.887422 0
M  V30 1177 C 108.386 1.03618 1.22964 0
M  V30 1178 O 109.576 1.29626 1.16373 0
M  V30 1179 C 106.708 2.61048 2.19242 0
M  V30 1180 H 107.901 2.96942 0.420194 0
M  V30 1181 H 105.454 1.55239 0.181793 0
M  V30 1182 H 106.189 1.78868 2.70512 0
M  V30 1183 H 105.974 3.39769 1.95702 0
M  V30 1184 H 107.464 3.02814 2.87565 0
M  V30 1185 N 107.901 -0.206675 1.56239 0
M  V30 1186 C 108.831 -1.25909 1.96645 0
M  V30 1187 C 109.812 -1.48097 0.836734 0
M  V30 1188 O 110.997 -1.6003 1.10019 0
M  V30 1189 C 108.127 -2.6058 2.29599 0
M  V30 1190 C 107.081 -2.53024 3.452 0
M  V30 1191 C 106.407 -3.91861 3.63798 0
M  V30 1192 C 107.707 -2.06524 4.79734 0
M  V30 1193 H 109.401 -0.923369 2.84806 0
M  V30 1194 H 106.947 -0.442735 1.37025 0
M  V30 1195 H 108.9 -3.34375 2.56459 0
M  V30 1196 H 107.624 -2.95869 1.38307 0
M  V30 1197 H 106.283 -1.81684 3.18412 0
M  V30 1198 H 105.931 -4.24483 2.69857 0
M  V30 1199 H 105.631 -3.87683 4.4156 0
M  V30 1200 H 107.155 -4.67296 3.93022 0
M  V30 1201 H 108.569 -2.70072 5.05702 0
M  V30 1202 H 106.966 -2.13374 5.60885 0
M  V30 1203 H 108.036 -1.01802 4.74093 0
M  V30 1204 N 109.379 -1.50304 -0.473955 0
M  V30 1205 C 110.604 -1.65175 -1.25427 0
M  V30 1206 C 111.029 -0.333673 -1.85117 0
M  V30 1207 O 110.387 0.702114 -1.67153 0
M  V30 1208 C 110.435 -2.74295 -2.34082 0
M  V30 1209 O 109.539 -2.35349 -3.38651 0
M  V30 1210 H 108.88 -0.551944 -0.369126 0
M  V30 1211 H 111.41 -1.96662 -0.564364 0
M  V30 1212 H 111.42 -2.97285 -2.79438 0
M  V30 1213 H 110.095 -3.69959 -1.90008 0
M  V30 1214 H 108.672 -2.22794 -2.99027 0
M  V30 1215 N 110.857 0.726932 -1.39834 0
M  V30 1216 C 112.268 1.30558 -1.3346 0
M  V30 1217 C 112.619 1.962 -0.00273003 0
M  V30 1218 O 111.744 1.96826 0.899371 0
M  V30 1219 C 112.339 2.37404 -2.41713 0
M  V30 1220 C 110.898 2.90921 -2.38835 0
M  V30 1221 C 110.045 1.64578 -2.2318 0
M  V30 1222 H 112.996 0.523862 -1.49804 0
M  V30 1223 H 113.017 3.17984 -2.08966 0
M  V30 1224 H 112.529 1.89599 -3.38635 0
M  V30 1225 H 110.63 3.42985 -1.45575 0
M  V30 1226 H 110.743 3.43487 -3.33997 0
M  V30 1227 H 109.107 1.89219 -1.70494 0
M  V30 1228 H 109.89 1.18814 -3.22084 0
M  V30 1229 N 112.336 1.25143 0.95797 0
M  V30 1230 C 113.299 1.05321 2.03569 0
M  V30 1231 C 114.299 0.007152 1.60798 0
M  V30 1232 O 115.489 0.24903 1.72411 0
M  V30 1233 C 112.621 0.598394 3.35607 0
M  V30 1234 H 113.814 2.00986 2.22586 0
M  V30 1235 H 111.367 1.07502 1.13459 0
M  V30 1236 H 112.102 -0.361014 3.22284 0
M  V30 1237 H 111.887 1.35351 3.67998 0
M  V30 1238 H 113.377 0.48104 4.1482 0
M  V30 1239 N 113.814 -1.1601 1.06675 0
M  V30 1240 C 115.062 -1.86264 0.784229 0
M  V30 1241 C 115.383 -1.82328 -0.691488 0
M  V30 1242 O 114.653 -1.25947 -1.50047 0
M  V30 1243 H 113.233 -0.689621 0.28711 0
M  V30 1244 H 115.895 -1.40664 1.34906 0
M  V30 1245 H 114.991 -2.91595 1.11259 0
M  V30 1246 N 115.292 -0.849877 -1.32721 0
M  V30 1247 C 116.538 -0.451591 -1.97708 0
M  V30 1248 C 116.871 0.989175 -1.6712 0
M  V30 1249 O 116.146 1.69334 -0.956891 0
M  V30 1250 C 116.429 -0.685598 -3.53513 0
M  V30 1251 C 116.282 -2.17444 -3.93749 0
M  V30 1252 C 117.601 -0.138874 -4.39881 0
M  V30 1253 H 114.72 -0.16555 -0.718166 0
M  V30 1254 H 117.362 -1.06742 -1.57182 0
M  V30 1255 H 115.512 -0.161416 -3.88165 0
M  V30 1256 H 117.184 -2.76433 -3.693 0
M  V30 1257 H 115.427 -2.65476 -3.43081 0
M  V30 1258 H 116.098 -2.28888 -5.02309 0
M  V30 1259 H 118.574 -0.587068 -4.11938 0
M  V30 1260 H 117.45 -0.332213 -5.47894 0
M  V30 1261 H 117.711 0.95806 -4.31594 0
M  V30 1262 N 116.77 1.45427 -0.607355 0
M  V30 1263 C 117.702 2.2871 0.149752 0
M  V30 1264 C 118.715 1.39937 0.831958 0
M  V30 1265 O 119.904 1.64313 0.697385 0
M  V30 1266 C 117.004 3.15673 1.23304 0
M  V30 1267 C 116.177 4.32722 0.637996 0
M  V30 1268 C 115.236 5.00895 1.61215 0
M  V30 1269 O 114.262 5.57697 1.13854 0
M  V30 1270 N 115.464 5.00159 2.94655 0
M  V30 1271 H 118.229 2.94328 -0.564882 0
M  V30 1272 H 115.79 1.55612 -0.446823 0
M  V30 1273 H 117.782 3.58144 1.88454 0
M  V30 1274 H 116.352 2.51965 1.8502 0
M  V30 1275 H 115.572 3.93734 -0.191572 0
M  V30 1276 H 116.86 5.08321 0.220665 0
M  V30 1277 H 116.258 4.553 3.35735 0
M  V30 1278 H 114.815 5.46495 3.55228 0
M  V30 1279 N 118.248 0.346503 1.53744 0
M  V30 1280 C 119.196 -0.52422 2.26616 0
M  V30 1281 C 120.19 -1.09948 1.28871 0
M  V30 1282 O 121.396 -1.04488 1.46568 0
M  V30 1283 H 117.771 -0.187743 0.728187 0
M  V30 1284 H 119.742 0.11239 2.98188 0
M  V30 1285 C 118.491 -1.66186 3.05414 0
M  V30 1286 H 117.814 -1.22848 3.80458 0
M  V30 1287 H 119.254 -2.24622 3.59612 0
M  V30 1288 C 117.713 -2.59302 2.1509 0
M  V30 1289 O 118.243 -3.61628 1.74895 0
M  V30 1290 N 116.449 -2.28055 1.8011 0
M  V30 1291 H 115.996 -1.44883 2.12994 0
M  V30 1292 H 115.954 -2.90615 1.19958 0
M  V30 1293 N 119.726 -1.57421 0.075193 0
M  V30 1294 C 120.656 -2.15942 -0.888324 0
M  V30 1295 C 121.637 -1.08737 -1.30806 0
M  V30 1296 O 122.822 -1.36787 -1.37851 0
M  V30 1297 C 119.952 -2.72379 -2.1547 0
M  V30 1298 C 118.906 -3.8478 -1.87425 0
M  V30 1299 C 118.232 -4.27834 -3.20721 0
M  V30 1300 C 119.532 -5.08869 -1.17684 0
M  V30 1301 H 121.226 -2.96705 -0.400799 0
M  V30 1302 H 118.772 -1.42723 -0.191342 0
M  V30 1303 H 120.725 -3.11965 -2.83295 0
M  V30 1304 H 119.449 -1.88841 -2.6647 0
M  V30 1305 H 118.108 -3.45703 -1.22004 0
M  V30 1306 H 117.756 -3.41214 -3.6957 0
M  V30 1307 H 117.456 -5.03605 -3.02746 0
M  V30 1308 H 118.98 -4.70039 -3.89738 0
M  V30 1309 H 120.394 -5.4575 -1.75584 0
M  V30 1310 H 118.791 -5.8994 -1.09956 0
M  V30 1311 H 119.861 -4.84648 -0.156453 0
M  V30 1312 N 121.204 0.198386 -1.56346 0
M  V30 1313 C 122.45 0.920648 -1.80698 0
M  V30 1314 C 122.783 1.83045 -0.648697 0
M  V30 1315 O 122.058 1.91308 0.350925 0
M  V30 1316 C 122.341 1.73971 -3.15287 0
M  V30 1317 C 122.194 0.85485 -4.41602 0
M  V30 1318 C 123.513 2.71296 -3.46535 0
M  V30 1319 H 120.632 0.333261 -0.657348 0
M  V30 1320 H 123.274 0.188198 -1.89066 0
M  V30 1321 H 121.424 2.36416 -3.08285 0
M  V30 1322 H 123.096 0.245362 -4.60647 0
M  V30 1323 H 121.339 0.161398 -4.335 0
M  V30 1324 H 122.01 1.46286 -5.32264 0
M  V30 1325 H 124.486 2.18983 -3.53816 0
M  V30 1326 H 123.362 3.2569 -4.41834 0
M  V30 1327 H 123.623 3.5018 -2.69864 0
M  V30 1328 N 122.682 1.50554 0.465978 0
M  V30 1329 C 123.629 1.6979 1.56333 0
M  V30 1330 C 124.599 0.539239 1.57103 0
M  V30 1331 O 125.784 0.770401 1.74555 0
M  V30 1332 C 122.924 1.80273 2.94271 0
M  V30 1333 C 122.037 3.07674 3.0325 0
M  V30 1334 C 121.172 3.08922 4.32135 0
M  V30 1335 C 120.211 4.30755 4.34875 0
M  V30 1336 N 119.348 4.29714 5.55239 0
M  V30 1337 H 124.188 2.63472 1.39235 0
M  V30 1338 H 121.725 1.30602 0.676873 0
M  V30 1339 H 123.683 1.84332 3.74269 0
M  V30 1340 H 122.313 0.900258 3.09992 0
M  V30 1341 H 121.365 3.13062 2.16094 0
M  V30 1342 H 122.677 3.97642 3.01135 0
M  V30 1343 H 121.831 3.11738 5.20485 0
M  V30 1344 H 120.57 2.16792 4.36866 0
M  V30 1345 H 119.575 4.28146 3.44922 0
M  V30 1346 H 120.8 5.24117 4.31831 0
M  V30 1347 H 118.746 3.4044 5.60746 0
M  V30 1348 H 118.663 5.13456 5.54886 0
M  V30 1349 H 119.931 4.36683 6.457 0
M  V30 1350 N 124.16 -0.719506 1.40217 0
M  V30 1351 C 125.092 -1.84428 1.36084 0
M  V30 1352 C 126.105 -1.60597 0.266913 0
M  V30 1353 O 127.294 -1.70544 0.526983 0
M  V30 1354 C 124.394 -3.20757 1.094 0
M  V30 1355 C 123.567 -3.71817 2.30372 0
M  V30 1356 C 122.626 -4.86748 1.99907 0
M  V30 1357 O 121.652 -4.99603 2.72737 0
M  V30 1358 N 122.854 -5.7226 0.974635 0
M  V30 1359 H 125.619 -1.88473 2.33019 0
M  V30 1360 H 123.18 -0.900885 1.3452 0
M  V30 1361 H 125.172 -3.95235 0.870116 0
M  V30 1362 H 123.742 -3.11884 0.211452 0
M  V30 1363 H 122.962 -2.88514 2.68614 0
M  V30 1364 H 124.25 -4.02666 3.11026 0
M  V30 1365 H 123.648 -5.6448 0.371368 0
M  V30 1366 H 122.205 -6.46739 0.810656 0
M  V30 1367 N 125.638 -1.25649 -0.95132 0
M  V30 1368 C 126.886 -1.10375 -1.69298 0
M  V30 1369 C 127.207 0.355339 -1.91735 0
M  V30 1370 O 126.477 1.25188 -1.50681 0
M  V30 1371 H 125.057 -0.405461 -0.627384 0
M  V30 1372 H 127.719 -1.57823 -1.14358 0
M  V30 1373 H 126.815 -1.61465 -2.67087 0
M  V30 1374 N 127.117 1.15442 -1.07289 0
M  V30 1375 C 128.364 1.86213 -0.795668 0
M  V30 1376 C 128.692 1.82291 0.678238 0
M  V30 1377 O 127.947 1.24057 1.51355 0
M  V30 1378 C 128.246 3.3489 -1.24834 0
M  V30 1379 C 127.912 3.59007 -2.72809 0
M  V30 1380 C 126.574 3.65298 -3.13227 0
M  V30 1381 C 128.926 3.68762 -3.68326 0
M  V30 1382 C 126.254 3.78854 -4.4798 0
M  V30 1383 C 128.606 3.83842 -5.0284 0
M  V30 1384 C 127.27 3.88378 -5.4288 0
M  V30 1385 H 126.54 0.681403 -0.291155 0
M  V30 1386 H 129.187 1.36435 -1.34379 0
M  V30 1387 H 127.492 3.8687 -0.619595 0
M  V30 1388 H 129.189 3.88052 -1.01076 0
M  V30 1389 H 125.779 3.5475 -2.40521 0
M  V30 1390 H 129.963 3.63202 -3.38227 0
M  V30 1391 H 125.219 3.80623 -4.78472 0
M  V30 1392 H 129.393 3.90332 -5.76727 0
M  V30 1393 H 127.02 3.98635 -6.47298 0
M  V30 1394 N 128.595 0.856903 1.32268 0
M  V30 1395 C 129.543 0.291987 2.3076 0
M  V30 1396 C 130.537 -0.585857 1.58947 0
M  V30 1397 O 131.743 -0.47341 1.73663 0
M  V30 1398 H 128.118 0.075721 0.748178 0
M  V30 1399 H 130.089 1.13687 2.75895 0
M  V30 1400 C 128.838 -0.502869 3.44044 0
M  V30 1401 H 128.161 0.163328 3.99466 0
M  V30 1402 H 129.601 -0.863691 4.1511 0
M  V30 1403 C 128.06 -1.68898 2.91505 0
M  V30 1404 O 128.59 -2.78811 2.89184 0
M  V30 1405 N 126.796 -1.51679 2.47875 0
M  V30 1406 H 126.343 -0.622666 2.49961 0
M  V30 1407 H 126.301 -2.31184 2.13076 0
M  V30 1408 N 130.073 -1.45103 0.615059 0
M  V30 1409 C 131.319 -2.02483 0.113347 0
M  V30 1410 C 131.652 -1.48146 -1.25564 0
M  V30 1411 O 130.927 -0.659104 -1.82992 0
M  V30 1412 C 131.21 -3.60005 0.0825278 0
M  V30 1413 C 131.063 -4.2466 1.48271 0
M  V30 1414 C 132.382 -4.35972 -0.601401 0
M  V30 1415 H 129.501 -0.735764 0.0426632 0
M  V30 1416 H 132.143 -1.72868 0.788461 0
M  V30 1417 H 130.293 -3.85367 -0.492378 0
M  V30 1418 H 131.965 -4.10458 2.10527 0
M  V30 1419 H 130.208 -3.82772 2.04127 0
M  V30 1420 H 130.879 -5.336 1.41332 0
M  V30 1421 H 133.355 -4.15947 -0.112666 0
M  V30 1422 H 132.231 -5.45697 -0.592097 0
M  V30 1423 H 132.492 -4.09391 -1.66887 0
M  V30 1424 N 131.551 -0.354651 -1.53558 0
M  V30 1425 C 132.797 0.238797 -2.01389 0
M  V30 1426 C 133.13 1.49309 -1.2418 0
M  V30 1427 O 132.405 1.91638 -0.332457 0
M  V30 1428 C 132.688 0.541771 -3.56001 0
M  V30 1429 C 132.541 -0.725388 -4.43912 0
M  V30 1430 C 133.86 1.34685 -4.18984 0
M  V30 1431 H 130.979 0.0853177 -0.732045 0
M  V30 1432 H 133.621 -0.477384 -1.83905 0
M  V30 1433 H 131.771 1.15189 -3.71031 0
M  V30 1434 H 133.443 -1.36313 -4.407 0
M  V30 1435 H 131.686 -1.34801 -4.12324 0
M  V30 1436 H 132.357 -0.468505 -5.50008 0
M  V30 1437 H 134.833 0.830837 -4.07721 0
M  V30 1438 H 133.709 1.52759 -5.27215 0
M  V30 1439 H 133.97 2.35221 -3.74331 0
M  V30 1440 N 133.029 1.57378 -0.0835403 0
M  V30 1441 C 134.275 1.94217 0.583733 0
M  V30 1442 C 134.608 0.964653 1.68547 0
M  V30 1443 O 133.883 -0.00422258 1.945 0
M  V30 1444 C 134.166 3.41253 1.14972 0
M  V30 1445 C 134.019 4.49768 0.0538277 0
M  V30 1446 C 135.338 3.89352 2.05166 0
M  V30 1447 H 132.457 0.706233 0.210724 0
M  V30 1448 H 135.099 1.89392 -0.1519 0
M  V30 1449 H 133.249 3.45496 1.77665 0
M  V30 1450 H 134.921 4.57641 -0.579851 0
M  V30 1451 H 133.164 4.29432 -0.614068 0
M  V30 1452 H 133.835 5.49817 0.490452 0
M  V30 1453 H 136.311 3.87189 1.52393 0
M  V30 1454 H 135.187 4.92822 2.41698 0
M  V30 1455 H 135.448 3.27973 2.96456 0
M  V30 1456 N 134.507 -0.190092 1.56449 0
M  V30 1457 C 135.417 -1.25591 1.98152 0
M  V30 1458 C 136.433 -1.49519 0.889944 0
M  V30 1459 O 137.609 -1.62036 1.19609 0
M  V30 1460 C 134.674 -2.57916 2.3169 0
M  V30 1461 C 133.735 -2.42015 3.5458 0
M  V30 1462 C 132.968 -3.6803 3.8651 0
M  V30 1463 O 133.191 -4.72413 3.1966 0
M  V30 1464 O 132.125 -3.6326 4.79923 0
M  V30 1465 H 135.951 -0.931988 2.89046 0
M  V30 1466 H 133.536 -0.395488 1.4407 0
M  V30 1467 H 135.418 -3.36008 2.54316 0
M  V30 1468 H 134.093 -2.89925 1.43963 0
M  V30 1469 H 133 -1.62017 3.37196 0
M  V30 1470 H 134.333 -2.14937 4.4279 0
M  V30 1471 N 135.985 -1.50799 -0.457987 0
M  V30 1472 C 137.21 -1.66496 -1.23668 0
M  V30 1473 C 137.635 -0.353288 -1.84752 0
M  V30 1474 O 136.993 0.684346 -1.67888 0
M  V30 1475 C 137.041 -2.76763 -2.3116 0
M  V30 1476 O 136.145 -2.38928 -3.36136 0
M  V30 1477 H 135.486 -0.555828 -0.363252 0
M  V30 1478 H 138.016 -1.9725 -0.543474 0
M  V30 1479 H 138.026 -3.00232 -2.76269 0
M  V30 1480 H 136.701 -3.71954 -1.86073 0
M  V30 1481 H 135.278 -2.25953 -2.96647 0
M  V30 1482 N 137.463 0.71206 -1.40597 0
M  V30 1483 C 138.711 1.46907 -1.38791 0
M  V30 1484 C 139.032 1.94998 0.00780391 0
M  V30 1485 O 138.302 1.70587 0.963174 0
M  V30 1486 H 136.882 0.545043 -0.51082 0
M  V30 1487 H 139.544 0.843882 -1.75683 0
M  V30 1488 H 138.64 2.34021 -2.06496 0
M  V30 1489 N 138.941 1.26152 0.944643 0
M  V30 1490 C 139.904 1.07474 2.0244 0
M  V30 1491 C 140.904 0.0242064 1.60782 0
M  V30 1492 O 142.094 0.267302 1.72137 0
M  V30 1493 C 139.226 0.633956 3.34953 0
M  V30 1494 H 140.419 2.03336 2.20442 0
M  V30 1495 H 137.972 1.087 1.12312 0
M  V30 1496 H 138.707 -0.326811 3.22649 0
M  V30 1497 H 138.492 1.39247 3.66542 0
M  V30 1498 H 139.982 0.52501 4.14287 0
M  V30 1499 N 140.419 -1.14872 1.07899 0
M  V30 1500 C 141.667 -1.85422 0.803941 0
M  V30 1501 C 141.988 -1.83051 -0.67211 0
M  V30 1502 O 141.258 -1.27532 -1.48703 0
M  V30 1503 H 139.838 -0.686537 0.294408 0
M  V30 1504 H 142.5 -1.39226 1.3639 0
M  V30 1505 H 141.596 -2.90399 1.14346 0
M  V30 1506 N 141.898 -0.863906 -1.31812 0
M  V30 1507 C 142.808 -0.318461 -2.32428 0
M  V30 1508 C 143.824 0.568496 -1.64451 0
M  V30 1509 O 145 0.46666 -1.95919 0
M  V30 1510 C 142.065 0.476355 -3.43412 0
M  V30 1511 C 141.126 -0.43784 -4.27061 0
M  V30 1512 C 140.359 0.319138 -5.32745 0
M  V30 1513 O 140.582 1.54799 -5.48993 0
M  V30 1514 O 139.516 -0.319861 -6.01049 0
M  V30 1515 H 143.342 -1.15229 -2.80991 0
M  V30 1516 H 140.927 -0.627103 -1.35602 0
M  V30 1517 H 142.809 0.927156 -4.11074 0
M  V30 1518 H 141.484 1.28683 -2.97022 0
M  V30 1519 H 140.391 -0.937013 -3.62175 0
M  V30 1520 H 141.724 -1.21375 -4.77 0
M  V30 1521 N 143.376 1.44774 -0.622745 0
M  V30 1522 C 144.339 2.29069 0.0774015 0
M  V30 1523 C 145.339 1.4059 0.780461 0
M  V30 1524 O 146.529 1.62551 0.626322 0
M  V30 1525 C 143.661 3.21974 1.12006 0
M  V30 1526 H 144.854 2.92459 -0.663901 0
M  V30 1527 H 142.407 1.51548 -0.382486 0
M  V30 1528 H 143.142 2.63417 1.89162 0
M  V30 1529 H 142.927 3.87168 0.619951 0
M  V30 1530 H 144.417 3.85318 1.60995 0
M  V30 1531 N 144.854 0.36279 1.53368 0
M  V30 1532 C 146.079 -0.231226 2.06107 0
M  V30 1533 C 146.504 -1.419 1.23474 0
M  V30 1534 O 145.862 -1.79524 0.253128 0
M  V30 1535 C 145.91 -0.605523 3.5548 0
M  V30 1536 O 145.014 -1.70312 3.7559 0
M  V30 1537 H 144.355 -0.034327 0.663112 0
M  V30 1538 H 146.885 0.522584 1.97814 0
M  V30 1539 H 146.895 -0.877314 3.98456 0
M  V30 1540 H 145.57 0.263004 4.15068 0
M  V30 1541 H 144.147 -1.4271 3.44512 0
M  V30 1542 N 146.332 -1.57332 0.0918853 0
M  V30 1543 C 147.279 -2.13847 -0.868211 0
M  V30 1544 C 148.249 -1.05618 -1.28196 0
M  V30 1545 O 149.434 -1.33387 -1.36427 0
M  V30 1546 C 146.574 -2.72062 -2.12312 0
M  V30 1547 C 145.687 -3.94514 -1.7602 0
M  V30 1548 C 144.822 -4.40903 -2.96273 0
M  V30 1549 C 143.861 -5.55953 -2.56092 0
M  V30 1550 N 142.998 -5.97209 -3.69169 0
M  V30 1551 H 147.838 -2.95575 -0.379406 0
M  V30 1552 H 145.375 -1.46048 -0.175606 0
M  V30 1553 H 147.333 -3.03931 -2.858 0
M  V30 1554 H 145.963 -1.93068 -2.58698 0
M  V30 1555 H 145.015 -3.68979 -0.925135 0
M  V30 1556 H 146.327 -4.7802 -1.42472 0
M  V30 1557 H 145.481 -4.74539 -3.78018 0
M  V30 1558 H 144.22 -3.56291 -3.33029 0
M  V30 1559 H 143.225 -5.21948 -1.72773 0
M  V30 1560 H 144.45 -6.42311 -2.20484 0
M  V30 1561 H 142.396 -5.15543 -4.05649 0
M  V30 1562 H 142.313 -6.75504 -3.39456 0
M  V30 1563 H 143.581 -6.35475 -4.51434 0
M  V30 1564 N 147.81 0.181792 -1.56548 0
M  V30 1565 C 149.057 0.900097 -1.81396 0
M  V30 1566 C 149.385 1.82695 -0.667281 0
M  V30 1567 O 148.64 1.92614 0.346146 0
M  V30 1568 C 148.939 1.73728 -3.12335 0
M  V30 1569 C 148.605 0.960255 -4.40556 0
M  V30 1570 C 147.267 0.745766 -4.75386 0
M  V30 1571 C 149.619 0.414477 -5.19549 0
M  V30 1572 C 146.947 -0.0257694 -5.86694 0
M  V30 1573 C 149.299 -0.343916 -6.31664 0
M  V30 1574 C 147.963 -0.569301 -6.65068 0
M  V30 1575 H 147.233 0.329369 -0.663775 0
M  V30 1576 H 149.88 0.165647 -1.90782 0
M  V30 1577 H 148.185 2.54081 -2.98245 0
M  V30 1578 H 149.882 2.29591 -3.28769 0
M  V30 1579 H 146.472 1.13746 -4.13231 0
M  V30 1580 H 150.656 0.567554 -4.93044 0
M  V30 1581 H 145.912 -0.210233 -6.11038 0
M  V30 1582 H 150.086 -0.774133 -6.92084 0
M  V30 1583 H 147.713 -1.16903 -7.51158 0
M  V30 1584 N 149.288 1.51039 0.449983 0
M  V30 1585 C 150.513 1.6715 1.22783 0
M  V30 1586 C 150.938 0.363081 1.84563 0
M  V30 1587 O 150.296 -0.675433 1.68249 0
M  V30 1588 C 150.344 2.77985 2.29689 0
M  V30 1589 O 149.448 2.40707 3.34864 0
M  V30 1590 H 148.789 0.557746 0.360299 0
M  V30 1591 H 151.319 1.97535 0.533005 0
M  V30 1592 H 151.329 3.01693 2.74673 0
M  V30 1593 H 150.004 3.72935 1.84098 0
M  V30 1594 H 148.581 2.27523 2.95445 0
M  V30 1595 N 150.766 -0.704594 1.40972 0
M  V30 1596 C 152.043 -1.45847 1.30338 0
M  V30 1597 C 152.423 -2.10973 -0.0732344 0
M  V30 1598 O 151.771 -2.00997 -1.08685 0
M  V30 1599 C 151.981 -2.48525 2.45023 0
M  V30 1600 C 153.329 -3.1404 2.8577 0
M  V30 1601 O 154.353 -2.58848 2.44696 0
M  V30 1602 O 153.212 -4.13981 3.56766 0
M  V30 1603 H 150.306 -0.649092 0.512454 0
M  V30 1604 H 152.852 -0.735836 1.52917 0
M  V30 1605 H 151.624 -1.98994 3.36923 0
M  V30 1606 H 151.247 -3.2831 2.24272 0
M  V30 1607 N 152.244 -1.26651 -0.937939 0
M  V30 1608 C 153.521 -1.0313 -1.66204 0
M  V30 1609 C 153.901 0.437256 -2.06522 0
M  V30 1610 O 153.249 1.41831 -1.79154 0
M  V30 1611 C 153.459 -1.98314 -2.87181 0
M  V30 1612 C 154.807 -2.27107 -3.58758 0
M  V30 1613 O 155.831 -1.96205 -2.97291 0
M  V30 1614 O 154.69 -2.79736 -4.69479 0
M  V30 1615 H 151.784 -0.392384 -0.727986 0
M  V30 1616 H 154.33 -1.37874 -0.989382 0
M  V30 1617 H 153.102 -2.97399 -2.54302 0
M  V30 1618 H 152.725 -1.64068 -3.6217 0
M  V30 1619 N 153.722 1.14298 -1.08507 0
M  V30 1620 C 154.672 2.17449 -0.685569 0
M  V30 1621 C 155.656 1.58167 0.295315 0
M  V30 1622 O 156.848 1.76675 0.107172 0
M  V30 1623 C 153.977 3.43161 -0.0975318 0
M  V30 1624 C 153.063 4.09471 -1.10426 0
M  V30 1625 N 153.454 4.51089 -2.28806 0
M  V30 1626 C 151.752 4.35976 -0.940258 0
M  V30 1627 C 152.453 5.02654 -2.9277 0
M  V30 1628 N 151.429 4.96927 -2.20374 0
M  V30 1629 H 155.231 2.47369 -1.587 0
M  V30 1630 H 152.745 1.30992 -0.959936 0
M  V30 1631 H 154.742 4.16388 0.20664 0
M  V30 1632 H 153.402 3.14719 0.798872 0
M  V30 1633 H 154.413 4.44097 -2.66455 0
M  V30 1634 H 151.09 4.17386 -0.0977441 0
M  V30 1635 H 152.48 5.44723 -3.93352 0
M  V30 1636 N 155.201 0.870884 1.31352 0
M  V30 1637 C 156.431 0.496049 2.00557 0
M  V30 1638 C 156.839 -0.916241 1.65534 0
M  V30 1639 O 156.182 -1.61188 0.881134 0
M  V30 1640 C 156.244 0.574418 3.54881 0
M  V30 1641 C 155.908 1.94849 4.1338 0
M  V30 1642 C 156.905 2.91611 4.30417 0
M  V30 1643 C 154.59 2.25005 4.49086 0
M  V30 1644 C 156.584 4.16672 4.82352 0
M  V30 1645 C 154.271 3.50315 5.00722 0
M  V30 1646 C 155.269 4.45964 5.17306 0
M  V30 1647 O 154.957 5.69052 5.67833 0
M  V30 1648 H 154.689 0.191664 0.64826 0
M  V30 1649 H 157.243 1.17409 1.68536 0
M  V30 1650 H 155.473 -0.160549 3.86367 0
M  V30 1651 H 157.162 0.212879 4.05341 0
M  V30 1652 H 157.928 2.69622 4.03149 0
M  V30 1653 H 153.807 1.51332 4.35453 0
M  V30 1654 H 157.351 4.91336 4.95211 0
M  V30 1655 H 153.248 3.72147 5.27424 0
M  V30 1656 H 154.016 5.71236 5.86201 0
M  V30 1657 N 156.679 -1.44442 0.630414 0
M  V30 1658 C 158.095 -1.56832 0.295973 0
M  V30 1659 C 158.295 -1.61806 -1.20088 0
M  V30 1660 O 157.351 -1.5607 -1.9849 0
M  V30 1661 C 158.664 -2.84031 0.987264 0
M  V30 1662 C 160.212 -2.97742 0.96534 0
M  V30 1663 C 160.687 -4.27743 1.63708 0
M  V30 1664 N 162.178 -4.34555 1.60364 0
M  V30 1665 C 162.913 -5.33862 2.09234 0
M  V30 1666 N 162.409 -6.39578 2.66292 0
M  V30 1667 N 164.202 -5.25366 1.99867 0
M  V30 1668 H 156.353 -1.39457 1.60205 0
M  V30 1669 H 158.616 -0.668237 0.672431 0
M  V30 1670 H 158.322 -2.86338 2.04215 0
M  V30 1671 H 158.196 -3.73534 0.524588 0
M  V30 1672 H 160.583 -2.94989 -0.0810639 0
M  V30 1673 H 160.664 -2.09589 1.4665 0
M  V30 1674 H 160.308 -4.31255 2.68293 0
M  V30 1675 H 160.238 -5.14752 1.11076 0
M  V30 1676 H 162.729 -3.58772 1.18705 0
M  V30 1677 H 163.042 -7.11637 3.01317 0
M  V30 1678 H 161.387 -6.40265 2.70343 0
M  V30 1679 H 164.578 -4.41688 1.55013 0
M  V30 1680 H 164.751 -6.02606 2.38265 0
M  V30 1681 N 158.157 -0.370918 -1.53173 0
M  V30 1682 C 159.403 0.217423 -2.01631 0
M  V30 1683 C 159.736 1.47983 -1.25756 0
M  V30 1684 O 159.011 1.91274 -0.352764 0
M  V30 1685 C 159.294 0.503982 -3.56556 0
M  V30 1686 C 159.147 -0.77243 -4.43118 0
M  V30 1687 C 160.466 1.30234 -4.20389 0
M  V30 1688 H 157.585 0.0775486 -0.732909 0
M  V30 1689 H 160.227 -0.496863 -1.83388 0
M  V30 1690 H 158.377 1.11248 -3.72231 0
M  V30 1691 H 160.049 -1.4098 -4.39229 0
M  V30 1692 H 158.292 -1.39167 -4.10871 0
M  V30 1693 H 158.963 -0.526815 -5.4948 0
M  V30 1694 H 161.439 0.787546 -4.08579 0
M  V30 1695 H 160.315 1.47158 -5.28806 0
M  V30 1696 H 160.576 2.31237 -3.76805 0
M  V30 1697 N 159.635 1.57281 -0.100228 0
M  V30 1698 C 160.598 2.13158 0.842398 0
M  V30 1699 C 161.598 1.06202 1.20738 0
M  V30 1700 O 162.788 1.32066 1.13597 0
M  V30 1701 C 159.92 2.65639 2.13655 0
M  V30 1702 H 161.113 2.97766 0.357114 0
M  V30 1703 H 158.666 1.5559 0.148823 0
M  V30 1704 H 159.401 1.84566 2.66657 0
M  V30 1705 H 159.186 3.43844 1.88451 0
M  V30 1706 H 160.676 3.08846 2.81077 0
M  V30 1707 N 161.113 -0.173488 1.56642 0
M  V30 1708 C 162.361 -0.888706 1.81512 0
M  V30 1709 C 162.682 -1.82875 0.676872 0
M  V30 1710 O 161.952 -1.93536 -0.303414 0
M  V30 1711 H 160.532 -0.331164 0.669582 0
M  V30 1712 H 163.194 -0.173823 1.94123 0
M  V30 1713 H 162.29 -1.46691 2.75478 0
M  V30 1714 N 162.591 -1.51276 -0.441967 0
M  V30 1715 C 163.554 -1.7167 -1.51862 0
M  V30 1716 C 164.554 -0.586793 -1.49711 0
M  V30 1717 O 165.744 -0.854276 -1.51815 0
M  V30 1718 C 162.876 -1.76889 -2.91416 0
M  V30 1719 H 164.069 -2.67754 -1.35084 0
M  V30 1720 H 161.622 -1.41196 -0.670333 0
M  V30 1721 H 162.357 -0.826026 -3.13604 0
M  V30 1722 H 162.142 -2.59001 -2.94382 0
M  V30 1723 H 163.632 -1.94522 -3.69528 0
M  V30 1724 N 164.069 0.697108 -1.41344 0
M  V30 1725 C 165.001 1.8224 -1.39001 0
M  V30 1726 C 166.014 1.60152 -0.292428 0
M  V30 1727 O 167.203 1.69684 -0.554048 0
M  V30 1728 C 164.303 3.18976 -1.14489 0
M  V30 1729 C 163.476 3.68105 -2.36258 0
M  V30 1730 C 162.535 4.83506 -2.07625 0
M  V30 1731 O 161.561 4.95201 -2.8065 0
M  V30 1732 N 162.763 5.70637 -1.06555 0
M  V30 1733 H 165.528 1.84742 -2.35988 0
M  V30 1734 H 163.089 0.87937 -1.35936 0
M  V30 1735 H 165.081 3.93801 -0.932885 0
M  V30 1736 H 163.651 3.11508 -0.261043 0
M  V30 1737 H 162.871 2.84204 -2.7317 0
M  V30 1738 H 164.159 3.97667 -3.17393 0
M  V30 1739 H 163.557 5.63817 -0.461125 0
M  V30 1740 H 162.114 6.45368 -0.913444 0
M  V30 1741 N 165.547 1.27147 0.931209 0
M  V30 1742 C 166.796 1.12664 1.67302 0
M  V30 1743 C 167.109 -0.327718 1.92835 0
M  V30 1744 O 168.315 -0.593392 2.64936 0
M  V30 1745 C 166.771 1.9683 3.01307 0
M  V30 1746 C 166.379 3.46901 2.83485 0
M  V30 1747 C 168.123 1.90985 3.79111 0
M  V30 1748 C 166.03 4.23279 4.13024 0
M  V30 1749 H 164.96 0.41803 0.627509 0
M  V30 1750 H 167.611 1.51539 1.03481 0
M  V30 1751 H 165.993 1.50797 3.66164 0
M  V30 1752 H 167.167 4.00773 2.27415 0
M  V30 1753 H 165.482 3.54088 2.19113 0
M  V30 1754 H 168.079 2.45328 4.75098 0
M  V30 1755 H 168.422 0.882718 4.06834 0
M  V30 1756 H 168.955 2.34895 3.21044 0
M  V30 1757 H 165.694 5.26503 3.90481 0
M  V30 1758 H 165.214 3.74186 4.6877 0
M  V30 1759 H 166.893 4.32265 4.81411 0
M  V30 1760 N 167.025 -1.13721 1.09112 0
M  V30 1761 C 167.957 -2.1871 0.685467 0
M  V30 1762 C 168.97 -1.60527 -0.271068 0
M  V30 1763 O 170.159 -1.78407 -0.0576148 0
M  V30 1764 C 167.259 -3.38898 -0.0111255 0
M  V30 1765 C 166.432 -4.26597 0.966131 0
M  V30 1766 C 165.491 -5.25324 0.303539 0
M  V30 1767 O 164.517 -5.61213 0.950177 0
M  V30 1768 N 165.719 -5.72779 -0.943651 0
M  V30 1769 H 168.484 -2.54126 1.58871 0
M  V30 1770 H 166.045 -1.29012 0.978143 0
M  V30 1771 H 168.037 -4.02014 -0.465517 0
M  V30 1772 H 166.607 -3.01747 -0.816565 0
M  V30 1773 H 165.827 -3.60306 1.59917 0
M  V30 1774 H 167.115 -4.82048 1.6281 0
M  V30 1775 H 166.513 -5.45762 -1.48862 0
M  V30 1776 H 165.07 -6.37847 -1.34142 0
M  V30 1777 N 168.503 -0.877838 -1.30888 0
M  V30 1778 C 169.751 -0.491723 -1.96027 0
M  V30 1779 C 170.072 0.960827 -1.69685 0
M  V30 1780 O 169.342 1.67462 -1.01654 0
M  V30 1781 H 167.922 -0.17885 -0.725273 0
M  V30 1782 H 170.584 -1.11935 -1.59551 0
M  V30 1783 H 169.68 -0.656016 -3.05128 0
M  V30 1784 N 169.982 1.44106 -0.638065 0
M  V30 1785 C 170.945 2.29138 0.0531013 0
M  V30 1786 C 171.945 1.41409 0.765506 0
M  V30 1787 O 173.135 1.63206 0.609046 0
M  V30 1788 C 170.267 3.23144 1.08584 0
M  V30 1789 H 171.46 2.91739 -0.694883 0
M  V30 1790 H 169.013 1.51134 -0.398538 0
M  V30 1791 H 169.748 2.65408 1.86357 0
M  V30 1792 H 169.533 3.87804 0.578852 0
M  V30 1793 H 171.023 3.87004 1.56899 0
M  V30 1794 N 171.46 0.379036 1.52974 0
M  V30 1795 C 172.407 -0.461048 2.26148 0
M  V30 1796 C 173.377 -1.06637 1.27349 0
M  V30 1797 O 174.562 -1.09633 1.56157 0
M  V30 1798 C 171.702 -1.58782 3.06402 0
M  V30 1799 C 170.815 -1.00636 4.20115 0
M  V30 1800 C 169.95 -2.10334 4.87784 0
M  V30 1801 C 168.989 -1.49724 5.93506 0
M  V30 1802 N 168.126 -2.5331 6.54812 0
M  V30 1803 H 172.966 0.169429 2.97518 0
M  V30 1804 H 170.503 0.0953806 1.4679 0
M  V30 1805 H 172.461 -2.25174 3.51215 0
M  V30 1806 H 171.091 -2.18876 2.37261 0
M  V30 1807 H 170.143 -0.232332 3.7969 0
M  V30 1808 H 171.455 -0.523343 4.96047 0
M  V30 1809 H 170.609 -2.84519 5.35849 0
M  V30 1810 H 169.348 -2.61992 4.11353 0
M  V30 1811 H 168.353 -0.740598 5.44789 0
M  V30 1812 H 169.578 -0.988732 6.71864 0
M  V30 1813 H 167.524 -3.04156 5.81227 0
M  V30 1814 H 167.441 -2.09734 7.26325 0
M  V30 1815 H 168.709 -3.27155 7.07524 0
M  V30 1816 N 172.938 -1.57226 0.108567 0
M  V30 1817 C 173.848 -2.18292 -0.859401 0
M  V30 1818 C 174.864 -1.15612 -1.30038 0
M  V30 1819 O 176.04 -1.48039 -1.36552 0
M  V30 1820 C 173.105 -2.762 -2.09558 0
M  V30 1821 C 172.166 -3.93881 -1.70752 0
M  V30 1822 C 171.399 -4.49018 -2.88477 0
M  V30 1823 O 171.622 -4.03068 -4.036 0
M  V30 1824 O 170.556 -5.39852 -2.66164 0
M  V30 1825 H 174.382 -3.01441 -0.369769 0
M  V30 1826 H 171.967 -1.48945 -0.1165 0
M  V30 1827 H 173.849 -3.13156 -2.81978 0
M  V30 1828 H 172.524 -1.96089 -2.57548 0
M  V30 1829 H 171.431 -3.61713 -0.954714 0
M  V30 1830 H 172.764 -4.75396 -1.27513 0
M  V30 1831 N 174.416 0.165178 -1.56732 0
M  V30 1832 C 175.662 0.882112 -1.82611 0
M  V30 1833 C 175.995 1.81628 -0.687378 0
M  V30 1834 O 175.27 1.92009 0.310267 0
M  V30 1835 C 175.553 1.67245 -3.18906 0
M  V30 1836 C 175.406 0.760987 -4.43316 0
M  V30 1837 C 176.725 2.63884 -3.52212 0
M  V30 1838 H 173.844 0.319242 -0.664269 0
M  V30 1839 H 176.486 0.148052 -1.89422 0
M  V30 1840 H 174.636 2.29824 -3.1323 0
M  V30 1841 H 176.308 0.147596 -4.61064 0
M  V30 1842 H 174.551 0.0694102 -4.33744 0
M  V30 1843 H 175.222 1.34962 -5.35247 0
M  V30 1844 H 177.698 2.11429 -3.58381 0
M  V30 1845 H 176.574 3.16245 -4.48643 0
M  V30 1846 H 176.835 3.44377 -2.77231 0
M  V30 1847 N 175.894 1.51508 0.433938 0
M  V30 1848 C 176.824 1.76016 1.53429 0
M  V30 1849 C 177.805 0.610112 1.58782 0
M  V30 1850 O 178.99 0.853177 1.74455 0
M  V30 1851 C 176.12 1.88831 2.9148 0
M  V30 1852 C 175.074 3.04288 3.00987 0
M  V30 1853 C 174.4 3.0229 4.4105 0
M  V30 1854 C 175.7 4.44193 2.74754 0
M  V30 1855 H 177.394 2.68152 1.33171 0
M  V30 1856 H 174.94 1.29035 0.639214 0
M  V30 1857 H 176.893 2.04559 3.6842 0
M  V30 1858 H 175.617 0.933455 3.12976 0
M  V30 1859 H 174.276 2.8827 2.26486 0
M  V30 1860 H 173.924 2.04576 4.59519 0
M  V30 1861 H 173.624 3.79822 4.4834 0
M  V30 1862 H 175.148 3.20116 5.1996 0
M  V30 1863 H 176.562 4.60544 3.41426 0
M  V30 1864 H 174.959 5.23457 2.9345 0
M  V30 1865 H 176.029 4.53996 1.70339 0
M  V30 1866 N 177.372 -0.689602 1.41712 0
M  V30 1867 C 178.335 -1.78521 1.43746 0
M  V30 1868 C 179.335 -1.57436 0.327191 0
M  V30 1869 O 180.525 -1.64 0.587348 0
M  V30 1870 C 177.657 -3.16971 1.25467 0
M  V30 1871 H 178.85 -1.78108 2.41283 0
M  V30 1872 H 176.403 -0.89781 1.27942 0
M  V30 1873 H 177.138 -3.23019 0.287948 0
M  V30 1874 H 176.923 -3.33678 2.05917 0
M  V30 1875 H 178.413 -3.96935 1.2974 0
M  V30 1876 N 178.85 -1.27639 -0.924453 0
M  V30 1877 C 180.075 -1.17101 -1.71179 0
M  V30 1878 C 180.5 0.268134 -1.86179 0
M  V30 1879 O 179.858 1.19415 -1.36418 0
M  V30 1880 C 179.906 -1.86313 -3.08739 0
M  V30 1881 O 179.01 -1.16331 -3.95652 0
M  V30 1882 H 178.351 -0.407091 -0.524569 0
M  V30 1883 H 180.881 -1.68767 -1.15666 0
M  V30 1884 H 180.891 -1.938 -3.59034 0
M  V30 1885 H 179.566 -2.91001 -2.97138 0
M  V30 1886 H 178.143 -1.16935 -3.54091 0
M  V30 1887 N 180.328 1.1314 -1.09713 0
M  V30 1888 C 181.605 1.80762 -0.747302 0
M  V30 1889 C 181.985 1.96663 0.767265 0
M  V30 1890 O 181.333 1.53706 1.69076 0
M  V30 1891 C 181.543 3.15606 -1.48975 0
M  V30 1892 C 182.891 3.90914 -1.65746 0
M  V30 1893 O 183.915 3.25239 -1.45251 0
M  V30 1894 O 182.774 5.08718 -1.9967 0
M  V30 1895 H 179.868 0.782103 -0.268782 0
M  V30 1896 H 182.414 1.20041 -1.19951 0
M  V30 1897 H 181.186 2.99278 -2.52088 0
M  V30 1898 H 180.809 3.84029 -1.02991 0
M  V30 1899 N 181.806 0.884767 1.30421 0
M  V30 1900 C 182.736 0.367574 2.30589 0
M  V30 1901 C 183.717 -0.549464 1.60981 0
M  V30 1902 O 184.902 -0.46336 1.88591 0
M  V30 1903 C 182.032 -0.418944 3.44764 0
M  V30 1904 C 180.986 0.406316 4.26067 0
M  V30 1905 C 180.312 -0.506793 5.32293 0
M  V30 1906 C 181.612 1.64832 4.95608 0
M  V30 1907 H 183.306 1.20462 2.74097 0
M  V30 1908 H 180.852 0.580695 1.31772 0
M  V30 1909 H 182.805 -0.791395 4.13902 0
M  V30 1910 H 181.529 -1.28964 3.0006 0
M  V30 1911 H 180.188 0.760903 3.58617 0
M  V30 1912 H 179.836 -1.37519 4.83836 0
M  V30 1913 H 179.536 0.0415828 5.87585 0
M  V30 1914 H 181.06 -0.875764 6.04287 0
M  V30 1915 H 182.474 1.34646 5.57264 0
M  V30 1916 H 180.871 2.13688 5.60765 0
M  V30 1917 H 181.941 2.39284 4.21748 0
M  V30 1918 N 183.284 -1.43765 0.645699 0
M  V30 1919 C 184.53 -2.02197 0.156271 0
M  V30 1920 C 184.863 -1.50776 -1.22393 0
M  V30 1921 O 184.138 -0.697771 -1.81553 0
M  V30 1922 C 184.421 -3.59749 0.158872 0
M  V30 1923 C 184.274 -4.21419 1.57245 0
M  V30 1924 C 185.593 -4.37149 -0.50879 0
M  V30 1925 H 182.712 -0.734694 0.0582602 0
M  V30 1926 H 185.354 -1.71157 0.824951 0
M  V30 1927 H 183.504 -3.86325 -0.410525 0
M  V30 1928 H 185.176 -4.059 2.19186 0
M  V30 1929 H 183.419 -3.78356 2.122 0
M  V30 1930 H 184.09 -5.30482 1.52619 0
M  V30 1931 H 186.566 -4.16093 -0.024412 0
M  V30 1932 H 185.442 -5.4683 -0.476213 0
M  V30 1933 H 185.703 -4.12839 -1.58165 0
M  V30 1934 N 184.763 -0.387143 -1.52771 0
M  V30 1935 C 186.009 0.196025 -2.0185 0
M  V30 1936 C 186.342 1.46641 -1.27319 0
M  V30 1937 O 185.617 1.90889 -0.373032 0
M  V30 1938 C 185.9 0.466136 -3.5707 0
M  V30 1939 C 185.753 -0.819385 -4.42274 0
M  V30 1940 C 187.072 1.25768 -4.21747 0
M  V30 1941 H 184.191 0.0697708 -0.73369 0
M  V30 1942 H 186.833 -0.516286 -1.82851 0
M  V30 1943 H 184.983 1.07293 -3.7339 0
M  V30 1944 H 186.655 -1.4563 -4.37709 0
M  V30 1945 H 184.898 -1.43517 -4.09372 0
M  V30 1946 H 185.569 -0.585065 -5.48891 0
M  V30 1947 H 188.045 0.744167 -4.09391 0
M  V30 1948 H 186.921 1.41541 -5.30337 0
M  V30 1949 H 187.182 2.27228 -3.79236 0
M  V30 1950 N 186.241 1.57166 -0.116904 0
M  V30 1951 C 187.188 2.15202 0.83408 0
M  V30 1952 C 188.158 1.07644 1.26499 0
M  V30 1953 O 189.343 1.35541 1.34288 0
M  V30 1954 C 186.483 2.75405 2.07957 0
M  V30 1955 C 185.596 3.97264 1.69721 0
M  V30 1956 C 184.731 4.45561 2.89221 0
M  V30 1957 C 183.77 5.59956 2.47215 0
M  V30 1958 N 182.907 6.03006 3.59622 0
M  V30 1959 H 187.747 2.96141 0.332335 0
M  V30 1960 H 185.284 1.46309 0.152349 0
M  V30 1961 H 187.242 3.08439 2.80929 0
M  V30 1962 H 185.872 1.97159 2.55594 0
M  V30 1963 H 184.924 3.70404 0.866316 0
M  V30 1964 H 186.236 4.80226 1.34849 0
M  V30 1965 H 185.39 4.80493 3.7042 0
M  V30 1966 H 184.129 3.61544 3.27318 0
M  V30 1967 H 183.134 5.2463 1.64448 0
M  V30 1968 H 184.359 6.45738 2.10238 0
M  V30 1969 H 182.305 5.21931 3.97396 0
M  V30 1970 H 182.222 6.80819 3.28667 0
M  V30 1971 H 183.49 6.42576 4.41267 0
M  V30 1972 N 187.719 -0.156864 1.56817 0
M  V30 1973 C 188.965 -0.872416 1.83076 0
M  V30 1974 C 189.298 -1.81261 0.697001 0
M  V30 1975 O 188.573 -1.92171 -0.30008 0
M  V30 1976 C 188.856 -1.65551 3.19789 0
M  V30 1977 C 188.709 -0.737467 4.43713 0
M  V30 1978 C 190.028 -2.62012 3.53606 0
M  V30 1979 H 187.147 -0.315715 0.665953 0
M  V30 1980 H 189.789 -0.138004 1.89498 0
M  V30 1981 H 187.939 -2.28159 3.14445 0
M  V30 1982 H 189.611 -0.123143 4.61136 0
M  V30 1983 H 187.854 -0.0464067 4.33775 0
M  V30 1984 H 188.525 -1.32122 5.35955 0
M  V30 1985 H 191.001 -2.09525 3.59497 0
M  V30 1986 H 189.877 -3.13861 4.50314 0
M  V30 1987 H 190.138 -3.42902 2.79053 0
M  V30 1988 N 189.197 -1.51736 -0.425897 0
M  V30 1989 C 190.613 -1.40166 -0.76326 0
M  V30 1990 C 190.813 -0.492962 -1.95377 0
M  V30 1991 O 189.869 0.0475815 -2.52455 0
M  V30 1992 C 191.182 -2.82403 -1.03291 0
M  V30 1993 C 192.73 -2.91632 -1.13665 0
M  V30 1994 C 193.205 -4.34801 -1.43916 0
M  V30 1995 N 194.696 -4.3796 -1.50816 0
M  V30 1996 C 195.431 -5.4578 -1.75817 0
M  V30 1997 N 194.927 -6.63744 -1.98534 0
M  V30 1998 N 196.72 -5.33274 -1.77694 0
M  V30 1999 H 188.871 -2.09361 0.358 0
M  V30 2000 H 191.134 -0.942941 0.0978094 0
M  V30 2001 H 190.84 -3.50943 -0.230696 0
M  V30 2002 H 190.714 -3.22428 -1.95754 0
M  V30 2003 H 193.101 -2.23284 -1.92947 0
M  V30 2004 H 193.182 -2.55088 -0.190756 0
M  V30 2005 H 192.826 -5.03703 -0.65157 0
M  V30 2006 H 192.756 -4.68868 -2.39729 0
M  V30 2007 H 195.247 -3.52919 -1.35118 0
M  V30 2008 H 195.56 -7.41704 -2.17013 0
M  V30 2009 H 193.905 -6.66839 -1.95832 0
M  V30 2010 H 197.096 -4.40098 -1.59473 0
M  V30 2011 H 197.269 -6.1738 -1.9684 0
M  V30 2012 N 190.675 0.682077 -1.42076 0
M  V30 2013 C 191.638 1.77756 -1.44691 0
M  V30 2014 C 192.638 1.5726 -0.335535 0
M  V30 2015 O 193.828 1.63686 -0.596037 0
M  V30 2016 C 190.96 3.16301 -1.27146 0
M  V30 2017 H 192.153 1.76826 -2.42224 0
M  V30 2018 H 189.706 0.891012 -1.28416 0
M  V30 2019 H 190.441 3.22862 -0.305075 0
M  V30 2020 H 190.226 3.32581 -2.07683 0
M  V30 2021 H 191.716 3.96241 -1.31843 0
M  V30 2022 N 192.153 1.28127 0.917671 0
M  V30 2023 C 193.564 1.13622 1.48145 0
M  V30 2024 C 193.915 -0.275207 1.9426 0
M  V30 2025 O 193.04 -1.1691 1.82102 0
M  V30 2026 C 193.635 2.05648 2.69248 0
M  V30 2027 C 192.194 1.95219 3.21818 0
M  V30 2028 C 191.341 1.97618 1.94532 0
M  V30 2029 H 194.292 1.40874 0.730772 0
M  V30 2030 H 194.313 1.61818 3.44377 0
M  V30 2031 H 193.825 3.08365 2.35653 0
M  V30 2032 H 191.926 0.955244 3.60147 0
M  V30 2033 H 192.039 2.81976 3.87333 0
M  V30 2034 H 190.403 1.41973 2.11461 0
M  V30 2035 H 191.186 3.02007 1.63238 0
M  V30 2036 N 193.631 -1.12557 1.10312 0
M  V30 2037 C 194.564 -2.1737 0.694674 0
M  V30 2038 C 195.542 -1.59745 -0.303373 0
M  V30 2039 O 196.726 -1.87408 -0.202578 0
M  V30 2040 C 193.853 -3.38691 0.0248052 0
M  V30 2041 C 192.899 -4.14943 0.986121 0
M  V30 2042 S 193.732 -4.73413 2.50281 0
M  V30 2043 C 194.888 -5.9807 1.84562 0
M  V30 2044 H 195.121 -2.5168 1.58255 0
M  V30 2045 H 192.654 -1.23998 0.919992 0
M  V30 2046 H 194.612 -4.08959 -0.355361 0
M  V30 2047 H 193.273 -3.02664 -0.839851 0
M  V30 2048 H 192.466 -5.01854 0.464651 0
M  V30 2049 H 192.068 -3.50377 1.30813 0
M  V30 2050 H 194.36 -6.67232 1.17507 0
M  V30 2051 H 195.303 -6.54841 2.69423 0
M  V30 2052 H 195.711 -5.49073 1.31069 0
M  V30 2053 N 195.109 -0.891671 -1.2995 0
M  V30 2054 C 196.355 -0.514261 -1.96171 0
M  V30 2055 C 196.688 0.935506 -1.70182 0
M  V30 2056 O 195.963 1.66204 -1.01028 0
M  V30 2057 C 196.246 -0.797719 -3.51153 0
M  V30 2058 C 196.099 -2.2986 -3.86632 0
M  V30 2059 C 197.418 -0.278749 -4.39216 0
M  V30 2060 H 194.537 -0.188314 -0.712535 0
M  V30 2061 H 197.179 -1.11689 -1.53706 0
M  V30 2062 H 195.329 -0.284826 -3.87455 0
M  V30 2063 H 197.001 -2.88042 -3.60319 0
M  V30 2064 H 195.244 -2.76257 -3.34462 0
M  V30 2065 H 195.915 -2.44753 -4.94773 0
M  V30 2066 H 198.391 -0.717825 -4.09862 0
M  V30 2067 H 197.267 -0.506353 -5.46559 0
M  V30 2068 H 197.528 0.820266 -4.34424 0
M  V30 2069 N 196.587 1.43421 -0.653314 0
M  V30 2070 C 197.535 2.32546 0.0501531 0
M  V30 2071 C 198.529 1.48617 0.812985 0
M  V30 2072 O 199.735 1.64825 0.723375 0
M  V30 2073 H 196.11 0.751185 0.0350032 0
M  V30 2074 H 198.081 2.89602 -0.719261 0
M  V30 2075 C 196.83 3.32925 1.00279 0
M  V30 2076 H 196.153 3.97532 0.425236 0
M  V30 2077 H 197.593 3.9792 1.46409 0
M  V30 2078 C 196.052 2.63532 2.09886 0
M  V30 2079 O 196.582 2.45092 3.18265 0
M  V30 2080 N 194.788 2.22905 1.86445 0
M  V30 2081 H 194.335 2.38103 0.98309 0
M  V30 2082 H 194.293 1.76805 2.59976 0
M  V30 2083 N 198.065 0.39524 1.52563 0
M  V30 2084 C 199.476 -0.0774719 1.86539 0
M  V30 2085 C 199.827 -1.45641 1.31466 0
M  V30 2086 O 198.952 -2.06459 0.648367 0
M  V30 2087 C 199.547 -0.147356 3.38479 0
M  V30 2088 C 198.106 -0.564373 3.72145 0
M  V30 2089 C 197.253 0.269919 2.75983 0
M  V30 2090 H 200.204 0.612876 1.46388 0
M  V30 2091 H 200.225 -0.965343 3.68051 0
M  V30 2092 H 199.737 0.856387 3.78534 0
M  V30 2093 H 197.838 -1.57527 3.37663 0
M  V30 2094 H 197.951 -0.318402 4.78041 0
M  V30 2095 H 196.315 -0.265696 2.5331 0
M  V30 2096 H 197.098 1.27175 3.18875 0
M  V30 2097 N 199.544 -1.57102 0.125237 0
M  V30 2098 C 200.772 -1.99761 -0.538797 0
M  V30 2099 C 201.187 -1.00503 -1.59827 0
M  V30 2100 O 200.544 0.00119474 -1.825 0
M  V30 2101 C 200.595 -3.42408 -1.15927 0
M  V30 2102 O 200.316 -4.37869 -0.142143 0
M  V30 2103 C 201.817 -4.00232 -1.90602 0
M  V30 2104 H 199.037 -0.655772 -0.14214 0
M  V30 2105 H 201.581 -2.03383 0.213413 0
M  V30 2106 H 199.736 -3.39706 -1.86223 0
M  V30 2107 H 200.15 -5.21128 -0.593775 0
M  V30 2108 H 201.624 -5.02105 -2.29335 0
M  V30 2109 H 202.101 -3.39721 -2.78363 0
M  V30 2110 H 202.707 -4.06499 -1.25055 0
M  V30 2111 N 201.022 0.148545 -1.56898 0
M  V30 2112 C 201.952 1.18524 -2.01182 0
M  V30 2113 C 202.933 1.4489 -0.891123 0
M  V30 2114 O 204.118 1.55836 -1.15882 0
M  V30 2115 C 201.248 2.51879 -2.39112 0
M  V30 2116 C 200.202 2.40038 -3.54353 0
M  V30 2117 C 199.528 3.78089 -3.78091 0
M  V30 2118 C 200.828 1.88577 -4.87069 0
M  V30 2119 H 202.522 0.817029 -2.88036 0
M  V30 2120 H 200.068 0.391575 -1.38574 0
M  V30 2121 H 202.021 3.24627 -2.68692 0
M  V30 2122 H 200.745 2.90532 -1.49193 0
M  V30 2123 H 199.404 1.69742 -3.24936 0
M  V30 2124 H 199.052 4.14175 -2.85426 0
M  V30 2125 H 198.752 3.71028 -4.55645 0
M  V30 2126 H 200.276 4.52387 -4.10095 0
M  V30 2127 H 201.69 2.51117 -5.15377 0
M  V30 2128 H 200.087 1.9241 -5.68417 0
M  V30 2129 H 201.157 0.84136 -4.77545 0
M  V30 2130 N 202.5 1.5196 0.417844 0
M  V30 2131 C 203.748 1.65263 1.16329 0
M  V30 2132 C 204.069 0.380634 1.91249 0
M  V30 2133 O 203.339 -0.604214 1.86349 0
M  V30 2134 H 201.919 0.60912 0.432414 0
M  V30 2135 H 204.581 1.88969 0.477162 0
M  V30 2136 H 203.677 2.4896 1.88217 0
M  V30 2137 N 203.978 -0.674533 1.42435 0
M  V30 2138 C 205.224 -1.43671 1.43131 0
M  V30 2139 C 205.557 -1.94142 0.0476021 0
M  V30 2140 O 204.832 -1.70924 -0.928188 0
M  V30 2141 C 205.115 -2.63355 2.45594 0
M  V30 2142 C 204.968 -2.18514 3.93156 0
M  V30 2143 C 206.287 -3.65571 2.45043 0
M  V30 2144 H 203.406 -0.521077 0.521198 0
M  V30 2145 H 206.048 -0.766551 1.7385 0
M  V30 2146 H 204.198 -3.2053 2.19528 0
M  V30 2147 H 205.87 -1.66504 4.30202 0
M  V30 2148 H 204.113 -1.50086 4.07009 0
M  V30 2149 H 204.784 -3.04484 4.60428 0
M  V30 2150 H 207.26 -3.18113 2.68223 0
M  V30 2151 H 206.136 -4.46893 3.18713 0
M  V30 2152 H 206.397 -4.16716 1.47649 0
M  V30 2153 N 205.456 -1.28612 -0.910864 0
M  V30 2154 C 206.406 -1.09423 -2.00026 0
M  V30 2155 C 207.39 -0.0170079 -1.60891 0
M  V30 2156 O 208.582 -0.237472 -1.754 0
M  V30 2157 C 205.711 -0.76114 -3.34756 0
M  V30 2158 C 204.797 -1.87735 -3.80285 0
M  V30 2159 N 205.188 -3.11938 -3.98156 0
M  V30 2160 C 203.486 -1.76786 -4.09467 0
M  V30 2161 C 204.187 -3.84687 -4.36338 0
M  V30 2162 N 203.163 -3.12555 -4.44759 0
M  V30 2163 H 206.965 -2.03658 -2.11898 0
M  V30 2164 H 204.479 -1.19573 -1.09891 0
M  V30 2165 H 206.476 -0.604743 -4.12491 0
M  V30 2166 H 205.136 0.173403 -3.24237 0
M  V30 2167 H 206.147 -3.47516 -3.83996 0
M  V30 2168 H 202.824 -0.905284 -4.07567 0
M  V30 2169 H 204.214 -4.91518 -4.58104 0
M  V30 2170 N 206.934 1.1197 -1.10907 0
M  V30 2171 C 207.844 2.21433 -0.774896 0
M  V30 2172 C 208.86 1.72478 0.229657 0
M  V30 2173 O 210.036 2.01288 0.0672008 0
M  V30 2174 C 207.101 3.4602 -0.216986 0
M  V30 2175 C 206.162 4.09791 -1.27944 0
M  V30 2176 C 205.395 5.28431 -0.748055 0
M  V30 2177 O 205.618 5.68823 0.423833 0
M  V30 2178 O 204.552 5.82644 -1.51027 0
M  V30 2179 H 208.378 2.5242 -1.68873 0
M  V30 2180 H 205.963 1.20399 -0.884555 0
M  V30 2181 H 207.845 4.21304 0.090059 0
M  V30 2182 H 206.52 3.16698 0.669633 0
M  V30 2183 H 205.427 3.36265 -1.63941 0
M  V30 2184 H 206.76 4.4328 -2.13925 0
M  V30 2185 N 208.412 0.89855 1.29475 0
M  V30 2186 C 209.375 0.380272 2.26023 0
M  V30 2187 C 210.375 -0.484891 1.53315 0
M  V30 2188 O 211.565 -0.290108 1.71767 0
M  V30 2189 C 208.697 -0.45651 3.3783 0
M  V30 2190 H 209.89 1.23295 2.73383 0
M  V30 2191 H 207.443 0.676589 1.40897 0
M  V30 2192 H 208.178 -1.32922 2.95808 0
M  V30 2193 H 207.963 0.163393 3.91759 0
M  V30 2194 H 209.453 -0.810466 4.0966 0
M  V30 2195 N 209.89 -1.43072 0.660911 0
M  V30 2196 C 211.167 -1.95307 0.107017 0
M  V30 2197 C 211.547 -1.60192 -1.37484 0
M  V30 2198 O 210.895 -0.890949 -2.10415 0
M  V30 2199 C 211.105 -3.47124 0.361402 0
M  V30 2200 C 212.453 -4.23738 0.270455 0
M  V30 2201 O 213.477 -3.54981 0.294382 0
M  V30 2202 O 212.336 -5.46131 0.200737 0
M  V30 2203 H 209.43 -0.826984 -0.00517729 0
M  V30 2204 H 211.976 -1.52972 0.734681 0
M  V30 2205 H 210.748 -3.65837 1.38848 0
M  V30 2206 H 210.371 -3.96475 -0.298953 0
M  V30 2207 N 211.368 -0.403325 -1.52352 0
M  V30 2208 C 212.298 0.416205 -2.29761 0
M  V30 2209 C 213.279 1.05123 -1.33728 0
M  V30 2210 O 214.464 1.06134 -1.62632 0
M  V30 2211 C 211.594 1.53624 -3.11475 0
M  V30 2212 C 210.548 1.02653 -4.15507 0
M  V30 2213 C 209.874 2.23971 -4.85532 0
M  V30 2214 C 211.174 0.08463 -5.22231 0
M  V30 2215 H 212.868 -0.229701 -2.98518 0
M  V30 2216 H 210.414 -0.111913 -1.43564 0
M  V30 2217 H 212.367 2.1165 -3.64393 0
M  V30 2218 H 211.091 2.20994 -2.40477 0
M  V30 2219 H 209.75 0.46871 -3.63591 0
M  V30 2220 H 209.398 2.89883 -4.11068 0
M  V30 2221 H 209.098 1.90521 -5.55856 0
M  V30 2222 H 210.622 2.82614 -5.41259 0
M  V30 2223 H 212.036 0.573509 -5.70424 0
M  V30 2224 H 210.433 -0.160783 -5.99885 0
M  V30 2225 H 211.503 -0.86237 -4.7717 0
M  V30 2226 N 212.846 1.57033 -0.133567 0
M  V30 2227 C 213.776 2.1909 0.807567 0
M  V30 2228 C 214.757 1.13517 1.26681 0
M  V30 2229 O 215.942 1.41809 1.32679 0
M  V30 2230 C 213.072 2.80188 2.05212 0
M  V30 2231 C 212.026 3.91471 1.73015 0
M  V30 2232 C 211.352 4.39443 3.04622 0
M  V30 2233 C 212.652 5.12886 0.987168 0
M  V30 2234 H 214.346 2.97988 0.290403 0
M  V30 2235 H 211.892 1.43335 0.138239 0
M  V30 2236 H 213.845 3.22264 2.71521 0
M  V30 2237 H 212.569 1.98601 2.59278 0
M  V30 2238 H 211.228 3.49993 1.0909 0
M  V30 2239 H 210.876 3.54695 3.56651 0
M  V30 2240 H 210.576 5.14495 2.83847 0
M  V30 2241 H 212.1 4.8418 3.72024 0
M  V30 2242 H 213.514 5.51891 1.55208 0
M  V30 2243 H 211.911 5.93615 0.87985 0
M  V30 2244 H 212.981 4.84894 -0.0235286 0
M  V30 2245 N 214.325 -0.140222 1.56975 0
M  V30 2246 C 215.272 -1.17292 1.98774 0
M  V30 2247 C 216.242 -1.4232 0.856408 0
M  V30 2248 O 217.427 -1.54541 1.119 0
M  V30 2249 C 214.567 -2.49973 2.37923 0
M  V30 2250 C 213.68 -2.32062 3.64378 0
M  V30 2251 C 212.815 -3.57825 3.926 0
M  V30 2252 C 211.854 -3.3498 5.12303 0
M  V30 2253 N 210.991 -4.52891 5.36502 0
M  V30 2254 H 215.831 -0.809472 2.86795 0
M  V30 2255 H 213.368 -0.388237 1.41884 0
M  V30 2256 H 215.326 -3.27346 2.58652 0
M  V30 2257 H 213.956 -2.84252 1.52972 0
M  V30 2258 H 213.008 -1.45711 3.51387 0
M  V30 2259 H 214.32 -2.11145 4.51906 0
M  V30 2260 H 213.474 -4.43624 4.13863 0
M  V30 2261 H 212.213 -3.81753 3.03506 0
M  V30 2262 H 211.218 -2.4757 4.90906 0
M  V30 2263 H 212.443 -3.12444 6.02956 0
M  V30 2264 H 210.389 -4.76979 4.50363 0
M  V30 2265 H 210.306 -4.35001 6.18312 0
M  V30 2266 H 211.574 -5.39884 5.62268 0
M  V30 2267 N 215.803 -1.52179 -0.40978 0
M  V30 2268 C 217.031 -1.70054 -1.17853 0
M  V30 2269 C 217.446 -0.409735 -1.843 0
M  V30 2270 O 216.803 0.614183 -1.71855 0
M  V30 2271 C 216.854 -2.83568 -2.24213 0
M  V30 2272 O 216.575 -4.0765 -1.60478 0
M  V30 2273 C 218.076 -3.12947 -3.13973 0
M  V30 2274 H 215.296 -0.569917 -0.354169 0
M  V30 2275 H 217.84 -1.98734 -0.482198 0
M  V30 2276 H 215.995 -2.57409 -2.89516 0
M  V30 2277 H 216.409 -4.70899 -2.30986 0
M  V30 2278 H 217.883 -3.95889 -3.84677 0
M  V30 2279 H 218.36 -2.26472 -3.76307 0
M  V30 2280 H 218.966 -3.40868 -2.5434 0
M  V30 2281 N 217.281 0.66697 -1.42791 0
M  V30 2282 C 218.506 1.46004 -1.47301 0
M  V30 2283 C 218.931 1.87894 -0.0880317 0
M  V30 2284 O 218.289 1.56502 0.915253 0
M  V30 2285 C 218.337 2.68031 -2.41229 0
M  V30 2286 O 217.441 3.6659 -1.88906 0
M  V30 2287 H 216.782 0.43832 -0.49877 0
M  V30 2288 H 219.312 0.817391 -1.87563 0
M  V30 2289 H 219.322 3.1601 -2.58073 0
M  V30 2290 H 217.997 2.36883 -3.41847 0
M  V30 2291 H 216.574 3.25661 -1.81656 0
M  V30 2292 N 218.759 1.29093 0.90403 0
M  V30 2293 C 220.007 1.16583 1.65085 0
M  V30 2294 C 220.328 -0.283933 1.92922 0
M  V30 2295 O 219.598 -1.19509 1.55224 0
M  V30 2296 H 218.178 0.428467 0.611903 0
M  V30 2297 H 220.84 1.61959 1.08422 0
M  V30 2298 H 219.936 1.71266 2.6091 0
M  V30 2299 N 220.237 -1.11381 1.11499 0
M  V30 2300 C 221.465 -1.86934 0.88675 0
M  V30 2301 C 221.88 -1.80195 -0.563476 0
M  V30 2302 O 221.237 -1.18367 -1.38908 0
M  V30 2303 C 221.288 -3.35722 1.34064 0
M  V30 2304 O 221.009 -3.4232 2.73401 0
M  V30 2305 C 222.51 -4.2818 1.14791 0
M  V30 2306 H 219.73 -0.591117 0.317523 0
M  V30 2307 H 222.274 -1.40865 1.48248 0
M  V30 2308 H 220.429 -3.79294 0.788355 0
M  V30 2309 H 220.843 -4.34971 2.93087 0
M  V30 2310 H 222.317 -5.30817 1.5145 0
M  V30 2311 H 222.794 -4.39113 0.0875279 0
M  V30 2312 H 223.4 -3.90402 1.68721 0
M  V30 2313 N 221.715 -0.905404 -1.28997 0
M  V30 2314 C 222.645 -0.404212 -2.29975 0
M  V30 2315 C 223.626 0.523784 -1.61835 0
M  V30 2316 O 224.811 0.433298 -1.89304 0
M  V30 2317 C 221.941 0.364042 -3.45387 0
M  V30 2318 C 220.895 -0.474048 -4.25367 0
M  V30 2319 C 220.221 0.422045 -5.33032 0
M  V30 2320 C 221.521 -1.72696 -4.92923 0
M  V30 2321 H 223.215 -1.24807 -2.72146 0
M  V30 2322 H 220.761 -0.601585 -1.30832 0
M  V30 2323 H 222.714 0.725447 -4.15109 0
M  V30 2324 H 221.438 1.24174 -3.02074 0
M  V30 2325 H 220.097 -0.81786 -3.57361 0
M  V30 2326 H 219.745 1.29804 -4.85963 0
M  V30 2327 H 219.445 -0.135057 -5.87445 0
M  V30 2328 H 220.969 0.779517 -6.05604 0
M  V30 2329 H 222.383 -1.43495 -5.55051 0
M  V30 2330 H 220.78 -2.22582 -5.57295 0
M  V30 2331 H 221.85 -2.45964 -4.17887 0
M  V30 2332 N 223.193 1.4272 -0.668489 0
M  V30 2333 C 224.442 2.00846 -0.185389 0
M  V30 2334 C 224.755 1.53442 1.21305 0
M  V30 2335 O 225.961 2.03944 1.79218 0
M  V30 2336 C 224.417 3.58805 -0.280591 0
M  V30 2337 C 224.025 4.15198 -1.68268 0
M  V30 2338 C 225.769 4.24255 0.14412 0
M  V30 2339 C 223.676 5.655 -1.73099 0
M  V30 2340 H 222.606 0.751145 -0.0655475 0
M  V30 2341 H 225.257 1.63516 -0.832752 0
M  V30 2342 H 223.639 3.93608 0.434553 0
M  V30 2343 H 224.813 3.91866 -2.42441 0
M  V30 2344 H 223.128 3.62176 -2.05469 0
M  V30 2345 H 225.725 5.34547 0.128086 0
M  V30 2346 H 226.068 3.99277 1.17827 0
M  V30 2347 H 226.601 3.94389 -0.519798 0
M  V30 2348 H 223.34 5.95268 -2.74475 0
M  V30 2349 H 222.86 5.90842 -1.03274 0
M  V30 2350 H 224.539 6.29808 -1.48158 0
M  V30 2351 N 224.671 0.411399 1.52136 0
M  V30 2352 C 225.896 -0.165538 2.06738 0
M  V30 2353 C 226.321 -1.379 1.27926 0
M  V30 2354 O 225.679 -1.78628 0.310114 0
M  V30 2355 C 225.727 -0.492124 3.57226 0
M  V30 2356 O 224.831 -1.58276 3.80818 0
M  V30 2357 H 224.172 -0.0132132 0.663869 0
M  V30 2358 H 226.702 0.585253 1.96051 0
M  V30 2359 H 226.712 -0.750104 4.01045 0
M  V30 2360 H 225.387 0.394922 4.14021 0
M  V30 2361 H 223.964 -1.31677 3.48877 0
M  V30 2362 N 226.149 -1.5696 0.141893 0
M  V30 2363 C 227.396 -1.9596 -0.510492 0
M  V30 2364 C 227.724 -1.02648 -1.65208 0
M  V30 2365 O 226.979 -0.0546947 -1.95624 0
M  V30 2366 C 227.278 -3.41242 -1.06249 0
M  V30 2367 C 226.944 -4.50882 -0.0398791 0
M  V30 2368 C 225.606 -4.80595 0.241247 0
M  V30 2369 C 227.958 -5.17058 0.65578 0
M  V30 2370 C 225.286 -5.73792 1.22393 0
M  V30 2371 C 227.638 -6.11313 1.62724 0
M  V30 2372 C 226.302 -6.39407 1.91612 0
M  V30 2373 H 225.572 -0.717068 -0.186802 0
M  V30 2374 H 228.219 -1.90142 0.227643 0
M  V30 2375 H 226.524 -3.43866 -1.87785 0
M  V30 2376 H 228.221 -3.68742 -1.57576 0
M  V30 2377 H 224.811 -4.27754 -0.269174 0
M  V30 2378 H 228.995 -4.94239 0.451779 0
M  V30 2379 H 224.251 -5.93853 1.45424 0
M  V30 2380 H 228.425 -6.61668 2.17183 0
M  V30 2381 H 226.052 -7.11427 2.6791 0
M  V30 2382 N 227.627 0.131896 -1.57047 0
M  V30 2383 C 228.876 0.84044 -1.83356 0
M  V30 2384 C 229.189 1.81646 -0.725535 0
M  V30 2385 O 230.395 2.57025 -0.874659 0
M  V30 2386 C 228.851 1.54528 -3.25037 0
M  V30 2387 C 228.459 0.610902 -4.43815 0
M  V30 2388 C 230.203 2.23972 -3.60606 0
M  V30 2389 C 228.11 1.31823 -5.76521 0
M  V30 2390 H 227.04 0.317599 -0.683847 0
M  V30 2391 H 229.691 0.0931561 -1.83263 0
M  V30 2392 H 228.073 2.33873 -3.19561 0
M  V30 2393 H 229.247 -0.148407 -4.60561 0
M  V30 2394 H 227.562 0.0241016 -4.16393 0
M  V30 2395 H 230.159 2.77558 -4.57018 0
M  V30 2396 H 230.502 3.01173 -2.87403 0
M  V30 2397 H 231.035 1.51529 -3.6781 0
M  V30 2398 H 227.774 0.587771 -6.52859 0
M  V30 2399 H 227.294 2.04987 -5.63685 0
M  V30 2400 H 228.973 1.855 -6.19838 0
M  V30 2401 N 229.106 1.52395 0.401703 0
M  V30 2402 C 230.336 1.70429 1.1678 0
M  V30 2403 C 230.744 0.416702 1.84554 0
M  V30 2404 O 230.087 -0.617697 1.73003 0
M  V30 2405 C 230.149 2.78919 2.26814 0
M  V30 2406 C 229.813 4.20437 1.79113 0
M  V30 2407 C 230.81 5.04028 1.27482 0
M  V30 2408 C 228.495 4.66704 1.85722 0
M  V30 2409 C 230.489 6.31961 0.830913 0
M  V30 2410 C 228.176 5.94625 1.40942 0
M  V30 2411 C 229.174 6.77082 0.897128 0
M  V30 2412 O 228.862 8.02607 0.455822 0
M  V30 2413 H 228.594 0.574272 0.356634 0
M  V30 2414 H 231.148 1.99767 0.477724 0
M  V30 2415 H 229.378 2.44973 2.99207 0
M  V30 2416 H 231.067 2.8548 2.88541 0
M  V30 2417 H 231.833 4.69471 1.21744 0
M  V30 2418 H 227.712 4.0262 2.24539 0
M  V30 2419 H 231.256 6.96271 0.430368 0
M  V30 2420 H 227.153 6.28688 1.46362 0
M  V30 2421 H 227.921 8.16453 0.578457 0
M  V30 2422 N 230.584 -0.659388 1.43143 0
M  V30 2423 C 231.995 -1.24041 1.39537 0
M  V30 2424 C 232.346 -1.95963 0.0963364 0
M  V30 2425 O 231.471 -2.00892 -0.804438 0
M  V30 2426 C 232.066 -2.25601 2.52764 0
M  V30 2427 C 230.625 -2.79195 2.52443 0
M  V30 2428 C 229.772 -1.53743 2.30778 0
M  V30 2429 H 232.723 -0.451792 1.52133 0
M  V30 2430 H 232.744 -3.07651 2.23899 0
M  V30 2431 H 232.256 -1.73226 3.47296 0
M  V30 2432 H 230.357 -3.35649 1.61773 0
M  V30 2433 H 230.47 -3.2716 3.50004 0
M  V30 2434 H 228.834 -1.80869 1.79328 0
M  V30 2435 H 229.617 -1.03312 3.27386 0
M  V30 2436 N 232.062 -1.29571 -0.897171 0
M  V30 2437 C 233.025 -1.14913 -1.98312 0
M  V30 2438 C 234.025 -0.0838629 -1.60581 0
M  V30 2439 O 235.215 -0.331006 -1.71026 0
M  V30 2440 C 232.347 -0.757835 -3.3237 0
M  V30 2441 H 233.54 -2.11377 -2.12743 0
M  V30 2442 H 231.093 -1.12793 -1.08201 0
M  V30 2443 H 231.828 0.206837 -3.2364 0
M  V30 2444 H 231.613 -1.52755 -3.61121 0
M  V30 2445 H 233.103 -0.678408 -4.12053 0
M  V30 2446 N 233.54 1.10788 -1.12088 0
M  V30 2447 C 234.472 2.16816 -0.743213 0
M  V30 2448 C 235.485 1.6119 0.228412 0
M  V30 2449 O 236.674 1.78497 0.0102931 0
M  V30 2450 C 233.774 3.38809 -0.0787313 0
M  V30 2451 C 232.947 4.23885 -1.0789 0
M  V30 2452 C 232.006 5.24334 -0.442713 0
M  V30 2453 O 231.032 5.58497 -1.09864 0
M  V30 2454 N 232.234 5.75079 0.791457 0
M  V30 2455 H 234.999 2.49825 -1.65552 0
M  V30 2456 H 232.56 1.26373 -1.012 0
M  V30 2457 H 234.552 4.03107 0.358766 0
M  V30 2458 H 233.122 3.03805 0.736275 0
M  V30 2459 H 232.342 3.55939 -1.69414 0
M  V30 2460 H 233.63 4.77562 -1.75533 0
M  V30 2461 H 233.028 5.49517 1.3434 0
M  V30 2462 H 231.585 6.4118 1.17183 0
M  V30 2463 N 235.018 0.912232 1.28515 0
M  V30 2464 C 235.966 0.389597 2.29314 0
M  V30 2465 C 236.96 -0.517915 1.61289 0
M  V30 2466 O 238.166 -0.399328 1.75515 0
M  V30 2467 H 234.541 0.107386 0.744293 0
M  V30 2468 H 236.512 1.25286 2.70825 0
M  V30 2469 C 235.261 -0.356496 3.45868 0
M  V30 2470 H 234.584 0.332608 3.98414 0
M  V30 2471 H 236.024 -0.686851 4.184 0
M  V30 2472 C 234.483 -1.56383 2.98406 0
M  V30 2473 O 235.013 -2.66294 3.00749 0
M  V30 2474 N 233.219 -1.41029 2.54085 0
M  V30 2475 H 232.766 -0.516089 2.52377 0
M  V30 2476 H 232.724 -2.21939 2.22689 0
M  V30 2477 N 236.496 -1.42363 0.676048 0
M  V30 2478 C 237.907 -1.84649 0.275948 0
M  V30 2479 C 238.258 -1.56588 -1.18214 0
M  V30 2480 O 237.383 -1.02634 -1.90513 0
M  V30 2481 C 237.978 -3.35178 0.494053 0
M  V30 2482 C 236.537 -3.76109 0.148061 0
M  V30 2483 C 235.684 -2.65931 0.785891 0
M  V30 2484 H 238.635 -1.32192 0.878121 0
M  V30 2485 H 238.656 -3.79655 -0.25343 0
M  V30 2486 H 238.168 -3.55571 1.55535 0
M  V30 2487 H 236.269 -3.61323 -0.909742 0
M  V30 2488 H 236.382 -4.7546 0.589454 0
M  V30 2489 H 234.746 -2.53773 0.217113 0
M  V30 2490 H 235.529 -2.89146 1.85067 0
M  V30 2491 N 237.974 -0.419461 -1.51915 0
M  V30 2492 C 238.884 0.407528 -2.31033 0
M  V30 2493 C 239.9 1.04413 -1.3919 0
M  V30 2494 O 241.076 1.0434 -1.72265 0
M  V30 2495 C 238.141 1.50365 -3.12396 0
M  V30 2496 C 237.202 0.889029 -4.19994 0
M  V30 2497 C 236.435 1.93291 -4.97468 0
M  V30 2498 O 236.658 3.15259 -4.75361 0
M  V30 2499 O 235.592 1.53339 -5.8204 0
M  V30 2500 H 239.418 -0.237865 -3.02767 0
M  V30 2501 H 237.003 -0.182413 -1.48282 0
M  V30 2502 H 238.885 2.13975 -3.63032 0
M  V30 2503 H 237.56 2.13345 -2.43445 0
M  V30 2504 H 236.467 0.215353 -3.7348 0
M  V30 2505 H 237.8 0.302991 -4.91267 0
M  V30 2506 N 239.452 1.56882 -0.150215 0
M  V30 2507 C 240.382 2.19935 0.784284 0
M  V30 2508 C 241.363 1.14854 1.25469 0
M  V30 2509 O 242.548 1.43209 1.31168 0
M  V30 2510 C 239.678 2.82349 2.02229 0
M  V30 2511 C 238.632 3.93285 1.68853 0
M  V30 2512 C 237.958 4.42649 2.99944 0
M  V30 2513 C 239.258 5.13904 0.932714 0
M  V30 2514 H 240.952 2.9828 0.258781 0
M  V30 2515 H 238.498 1.43473 0.123029 0
M  V30 2516 H 240.451 3.25126 2.68088 0
M  V30 2517 H 239.175 2.0134 2.57157 0
M  V30 2518 H 237.834 3.5113 1.05371 0
M  V30 2519 H 237.482 3.58458 3.52869 0
M  V30 2520 H 237.182 5.17476 2.78374 0
M  V30 2521 H 238.706 4.88099 3.66868 0
M  V30 2522 H 240.12 5.53506 1.49345 0
M  V30 2523 H 238.517 5.94515 0.81684 0
M  V30 2524 H 239.587 4.84842 -0.0749568 0
M  V30 2525 N 240.93 -0.123565 1.57115 0
M  V30 2526 C 241.86 -1.15309 2.03042 0
M  V30 2527 C 242.841 -1.43454 0.914061 0
M  V30 2528 O 244.026 -1.53973 1.18347 0
M  V30 2529 C 241.156 -2.48043 2.43089 0
M  V30 2530 C 240.11 -2.3437 3.58127 0
M  V30 2531 C 239.436 -3.72026 3.84059 0
M  V30 2532 C 240.736 -1.80804 4.90007 0
M  V30 2533 H 242.43 -0.771102 2.893 0
M  V30 2534 H 239.976 -0.369479 1.39179 0
M  V30 2535 H 241.929 -3.20311 2.73823 0
M  V30 2536 H 240.653 -2.88122 1.53796 0
M  V30 2537 H 239.312 -1.64551 3.27595 0
M  V30 2538 H 238.96 -4.09582 2.91979 0
M  V30 2539 H 238.66 -3.63732 4.6149 0
M  V30 2540 H 240.184 -4.45806 4.1724 0
M  V30 2541 H 241.598 -2.42886 5.19307 0
M  V30 2542 H 239.995 -1.83343 5.71407 0
M  V30 2543 H 241.065 -0.76528 4.78823 0
M  V30 2544 N 242.408 -1.52605 -0.393616 0
M  V30 2545 C 243.356 -1.77688 -1.50099 0
M  V30 2546 C 244.35 -0.644615 -1.56656 0
M  V30 2547 O 245.556 -0.826997 -1.59877 0
M  V30 2548 H 241.931 -0.562159 -0.499481 0
M  V30 2549 H 243.902 -2.7043 -1.26135 0
M  V30 2550 C 242.651 -1.95858 -2.87289 0
M  V30 2551 H 241.974 -2.8241 -2.82992 0
M  V30 2552 H 243.414 -2.174 -3.64024 0
M  V30 2553 C 241.873 -0.729848 -3.28899 0
M  V30 2554 O 242.403 0.0949217 -4.01588 0
M  V30 2555 N 240.609 -0.561283 -2.85128 0
M  V30 2556 H 240.156 -1.23357 -2.26143 0
M  V30 2557 H 240.114 0.2595 -3.13327 0
M  V30 2558 N 243.887 0.651787 -1.4349 0
M  V30 2559 C 244.834 1.76462 -1.4876 0
M  V30 2560 C 245.804 1.62641 -0.337189 0
M  V30 2561 O 246.989 1.82864 -0.544544 0
M  V30 2562 C 244.129 3.14623 -1.41796 0
M  V30 2563 C 243.242 3.39568 -2.67053 0
M  V30 2564 C 242.377 4.67585 -2.52068 0
M  V30 2565 C 241.416 4.85639 -3.72587 0
M  V30 2566 N 240.553 6.04915 -3.56402 0
M  V30 2567 H 245.393 1.71293 -2.43849 0
M  V30 2568 H 242.93 0.835889 -1.21043 0
M  V30 2569 H 244.888 3.94496 -1.35753 0
M  V30 2570 H 243.518 3.18859 -0.50288 0
M  V30 2571 H 242.57 2.53783 -2.8337 0
M  V30 2572 H 243.882 3.48795 -3.56572 0
M  V30 2573 H 243.036 5.55586 -2.4374 0
M  V30 2574 H 241.775 4.60681 -1.60075 0
M  V30 2575 H 240.78 3.96073 -3.81321 0
M  V30 2576 H 242.005 4.94372 -4.65589 0
M  V30 2577 H 239.951 5.9914 -2.67146 0
M  V30 2578 H 239.868 6.15106 -4.39524 0
M  V30 2579 H 241.136 6.95533 -3.51929 0
M  V30 2580 N 245.365 1.30045 0.890287 0
M  V30 2581 C 246.295 1.18541 2.01172 0
M  V30 2582 C 247.276 0.0773356 1.69924 0
M  V30 2583 O 248.461 0.25845 1.92473 0
M  V30 2584 C 245.591 0.870941 3.36202 0
M  V30 2585 C 244.545 1.93637 3.81692 0
M  V30 2586 C 243.871 1.475 5.13953 0
M  V30 2587 C 245.171 3.34666 4.00994 0
M  V30 2588 H 246.865 2.12359 2.11054 0
M  V30 2589 H 244.411 1.02238 1.01407 0
M  V30 2590 H 246.364 0.777141 4.14172 0
M  V30 2591 H 245.088 -0.102926 3.26438 0
M  V30 2592 H 243.747 2.01972 3.05946 0
M  V30 2593 H 243.395 0.489551 5.00612 0
M  V30 2594 H 243.095 2.1876 5.4536 0
M  V30 2595 H 244.619 1.39489 5.94454 0
M  V30 2596 H 246.033 3.2912 4.69417 0
M  V30 2597 H 244.43 4.03966 4.43769 0
M  V30 2598 H 245.5 3.76949 3.05021 0
M  V30 2599 N 246.843 -1.10192 1.12674 0
M  V30 2600 C 248.068 -1.86523 0.906853 0
M  V30 2601 C 248.493 -1.80221 -0.538711 0
M  V30 2602 O 247.851 -1.17396 -1.38158 0
M  V30 2603 C 247.899 -3.32758 1.3894 0
M  V30 2604 O 247.003 -4.08449 0.5695 0
M  V30 2605 H 246.344 -0.578678 0.325619 0
M  V30 2606 H 248.874 -1.39203 1.49946 0
M  V30 2607 H 248.884 -3.83608 1.38958 0
M  V30 2608 H 247.559 -3.36661 2.44197 0
M  V30 2609 H 246.136 -3.67427 0.636528 0
M  V30 2610 N 248.321 -0.919034 -1.28029 0
M  V30 2611 C 249.253 -0.368762 -2.26214 0
M  V30 2612 C 250.266 0.495716 -1.55069 0
M  V30 2613 O 251.455 0.30974 -1.75792 0
M  V30 2614 C 248.555 0.491049 -3.35324 0
M  V30 2615 C 247.728 -0.352133 -4.3598 0
M  V30 2616 C 246.787 0.443622 -5.24327 0
M  V30 2617 O 245.813 -0.14566 -5.69014 0
M  V30 2618 N 247.015 1.74545 -5.53637 0
M  V30 2619 H 249.78 -1.21273 -2.74068 0
M  V30 2620 H 247.341 -0.785541 -1.41566 0
M  V30 2621 H 249.333 1.03026 -3.91366 0
M  V30 2622 H 247.903 1.23574 -2.87138 0
M  V30 2623 H 247.123 -1.07269 -3.79324 0
M  V30 2624 H 248.411 -0.928883 -5.00249 0
M  V30 2625 H 247.809 2.24666 -5.19174 0
M  V30 2626 H 246.366 2.23138 -6.12416 0
M  V30 2627 N 249.799 1.42003 -0.683588 0
M  V30 2628 C 251.215 1.55625 -0.353976 0
M  V30 2629 C 251.415 1.66151 1.14 0
M  V30 2630 O 250.471 1.63329 1.92561 0
M  V30 2631 C 251.784 2.80171 -1.092 0
M  V30 2632 C 253.332 2.93954 -1.07518 0
M  V30 2633 C 253.807 4.21372 -1.79471 0
M  V30 2634 N 255.298 4.28303 -1.76381 0
M  V30 2635 C 256.033 5.25729 -2.28904 0
M  V30 2636 N 255.529 6.29254 -2.89846 0
M  V30 2637 N 257.322 5.17586 -2.19228 0
M  V30 2638 H 249.473 1.33415 -1.6527 0
M  V30 2639 H 251.736 0.64282 -0.696769 0
M  V30 2640 H 251.442 2.78561 -2.14701 0
M  V30 2641 H 251.316 3.7133 -0.662862 0
M  V30 2642 H 253.703 2.95086 -0.028475 0
M  V30 2643 H 253.784 2.04002 -1.54328 0
M  V30 2644 H 253.428 4.21001 -2.84114 0
M  V30 2645 H 253.358 5.10275 -1.30104 0
M  V30 2646 H 255.849 3.54119 -1.31939 0
M  V30 2647 H 256.162 6.99964 -3.27522 0
M  V30 2648 H 254.507 6.29791 -2.93919 0
M  V30 2649 H 257.698 4.35631 -1.71299 0
M  V30 2650 H 257.871 5.93348 -2.60466 0
M  V30 2651 N 251.277 0.427512 1.51691 0
M  V30 2652 C 252.224 -0.388867 2.275 0
M  V30 2653 C 253.194 -1.02532 1.30677 0
M  V30 2654 O 254.379 -1.0461 1.59566 0
M  V30 2655 C 251.519 -1.48954 3.11298 0
M  V30 2656 C 250.632 -0.872194 4.23104 0
M  V30 2657 C 249.767 -1.94709 4.94228 0
M  V30 2658 C 248.806 -1.30766 5.97969 0
M  V30 2659 N 247.943 -2.32349 6.62539 0
M  V30 2660 H 252.783 0.263997 2.96828 0
M  V30 2661 H 250.32 0.142033 1.46413 0
M  V30 2662 H 252.278 -2.13887 3.58201 0
M  V30 2663 H 250.908 -2.11217 2.44105 0
M  V30 2664 H 249.96 -0.111419 3.80237 0
M  V30 2665 H 251.272 -0.365264 4.97461 0
M  V30 2666 H 250.426 -2.67327 5.44629 0
M  V30 2667 H 249.165 -2.48773 4.1948 0
M  V30 2668 H 248.17 -0.566902 5.4687 0
M  V30 2669 H 249.395 -0.774483 6.74669 0
M  V30 2670 H 247.341 -2.85511 5.90609 0
M  V30 2671 H 247.258 -1.8652 7.3263 0
M  V30 2672 H 248.526 -3.04481 7.17574 0
M  V30 2673 N 252.755 -1.56801 0.158532 0
M  V30 2674 C 253.983 -2.00859 -0.496303 0
M  V30 2675 C 254.398 -1.03871 -1.57659 0
M  V30 2676 O 253.755 -0.0375165 -1.82461 0
M  V30 2677 C 253.806 -3.4479 -1.08638 0
M  V30 2678 O 253.527 -4.38072 -0.0492322 0
M  V30 2679 C 255.028 -4.04185 -1.8207 0
M  V30 2680 H 252.248 -0.65864 -0.128199 0
M  V30 2681 H 254.792 -2.02885 0.256506 0
M  V30 2682 H 252.947 -3.43579 -1.78975 0
M  V30 2683 H 253.361 -5.2227 -0.483102 0
M  V30 2684 H 254.835 -5.06857 -2.18633 0
M  V30 2685 H 255.312 -3.45549 -2.71095 0
M  V30 2686 H 255.918 -4.0906 -1.16405 0
M  V30 2687 N 254.233 0.115231 -1.57178 0
M  V30 2688 C 255.461 0.836437 -1.89239 0
M  V30 2689 C 255.876 1.73256 -0.750175 0
M  V30 2690 O 255.233 1.80357 0.278832 0
M  V30 2691 C 255.284 1.66671 -3.20785 0
M  V30 2692 O 255.005 0.806652 -4.3061 0
M  V30 2693 C 256.506 2.49274 -3.66575 0
M  V30 2694 H 253.726 0.240253 -0.626514 0
M  V30 2695 H 256.27 0.0984932 -2.04263 0
M  V30 2696 H 254.425 2.35737 -3.0742 0
M  V30 2697 H 254.839 1.37969 -5.06028 0
M  V30 2698 H 256.313 3.03055 -4.6137 0
M  V30 2699 H 256.79 3.26807 -2.93417 0
M  V30 2700 H 257.396 1.85443 -3.82741 0
M  V30 2701 N 255.711 1.52812 0.385517 0
M  V30 2702 C 256.957 1.68275 1.13188 0
M  V30 2703 C 257.29 0.423179 1.89533 0
M  V30 2704 O 256.565 -0.579113 1.85679 0
M  V30 2705 C 256.848 2.92001 2.1073 0
M  V30 2706 C 256.701 4.28067 1.38125 0
M  V30 2707 C 258.02 3.11283 3.11113 0
M  V30 2708 H 255.139 0.612352 0.410115 0
M  V30 2709 H 257.781 1.85415 0.414869 0
M  V30 2710 H 255.931 2.77519 2.71874 0
M  V30 2711 H 257.603 4.54324 0.799187 0
M  V30 2712 H 255.846 4.28388 0.683092 0
M  V30 2713 H 256.517 5.10733 2.09417 0
M  V30 2714 H 258.993 3.2482 2.6006 0
M  V30 2715 H 257.869 3.99325 3.76605 0
M  V30 2716 H 258.13 2.25656 3.80173 0
M  V30 2717 N 257.189 -0.644168 1.43834 0
M  V30 2718 C 258.119 -1.76814 1.52509 0
M  V30 2719 C 259.1 -1.65823 0.379052 0
M  V30 2720 O 260.285 -1.84781 0.597466 0
M  V30 2721 C 257.415 -3.15288 1.4564 0
M  V30 2722 C 256.369 -3.41053 2.58586 0
M  V30 2723 C 255.695 -4.79421 2.36769 0
M  V30 2724 C 256.995 -3.34902 4.00797 0
M  V30 2725 H 258.689 -1.69812 2.46586 0
M  V30 2726 H 256.235 -0.815542 1.1868 0
M  V30 2727 H 258.188 -3.93681 1.50311 0
M  V30 2728 H 256.912 -3.23043 0.480725 0
M  V30 2729 H 255.571 -2.65035 2.53282 0
M  V30 2730 H 255.219 -4.83863 1.37424 0
M  V30 2731 H 254.919 -4.9762 3.12487 0
M  V30 2732 H 256.443 -5.6006 2.43238 0
M  V30 2733 H 257.857 -4.03218 4.07539 0
M  V30 2734 H 256.254 -3.64637 4.76613 0
M  V30 2735 H 257.324 -2.32928 4.25291 0
M  V30 2736 N 258.668 -1.30515 -0.883378 0
M  V30 2737 C 259.631 -1.1701 -1.97082 0
M  V30 2738 C 260.631 -0.10089 -1.60483 0
M  V30 2739 O 261.821 -0.349127 -1.70666 0
M  V30 2740 C 258.953 -0.793045 -3.31547 0
M  V30 2741 H 260.146 -2.13622 -2.10489 0
M  V30 2742 H 257.699 -1.13935 -1.06998 0
M  V30 2743 H 258.434 0.172499 -3.23841 0
M  V30 2744 H 258.219 -1.56576 -3.5948 0
M  V30 2745 H 259.709 -0.722073 -4.1131 0
M  V30 2746 N 260.146 1.09593 -1.13257 0
M  V30 2747 C 261.079 2.15451 -0.752061 0
M  V30 2748 C 262.057 1.60493 0.260913 0
M  V30 2749 O 263.241 1.8788 0.152819 0
M  V30 2750 C 260.368 3.38506 -0.114594 0
M  V30 2751 C 259.414 4.12183 -1.09579 0
M  V30 2752 S 260.247 4.6661 -2.62745 0
M  V30 2753 C 261.403 5.92966 -2.00354 0
M  V30 2754 H 261.636 2.47395 -1.64872 0
M  V30 2755 H 259.169 1.21515 -0.952545 0
M  V30 2756 H 261.127 4.09757 0.246808 0
M  V30 2757 H 259.788 3.04784 0.759309 0
M  V30 2758 H 258.981 5.00445 -0.597545 0
M  V30 2759 H 258.583 3.46785 -1.40057 0
M  V30 2760 H 260.875 6.63882 -1.35156 0
M  V30 2761 H 261.818 6.47467 -2.86691 0
M  V30 2762 H 262.226 5.45405 -1.4558 0
M  V30 2763 N 261.624 0.925811 1.2754 0
M  V30 2764 C 262.901 0.483726 1.89524 0
M  V30 2765 C 263.281 -1.03809 1.83812 0
M  V30 2766 O 262.629 -1.89143 1.28207 0
M  V30 2767 C 262.839 1.02769 3.33526 0
M  V30 2768 C 264.187 1.08703 4.10449 0
M  V30 2769 O 265.211 0.977175 3.42534 0
M  V30 2770 O 264.07 1.25599 5.31871 0
M  V30 2771 H 261.164 0.15529 0.812289 0
M  V30 2772 H 263.71 1.01738 1.35822 0
M  V30 2773 H 262.482 2.07155 3.31967 0
M  V30 2774 H 262.105 0.475567 3.94746 0
M  V30 2775 N 263.102 -1.41638 0.69111 0
M  V30 2776 C 264.034 -2.29194 -0.0161523 0
M  V30 2777 C 265.047 -1.44549 -0.748955 0
M  V30 2778 O 266.236 -1.681 -0.6004 0
M  V30 2779 C 263.336 -3.22325 -1.0469 0
M  V30 2780 C 262.509 -4.35706 -0.384621 0
M  V30 2781 C 261.568 -5.09443 -1.31737 0
M  V30 2782 O 260.594 -5.63386 -0.811451 0
M  V30 2783 N 261.796 -5.16487 -2.64993 0
M  V30 2784 H 264.561 -2.90534 0.735523 0
M  V30 2785 H 262.122 -1.52742 0.53679 0
M  V30 2786 H 264.114 -3.68522 -1.67252 0
M  V30 2787 H 262.684 -2.62323 -1.70015 0
M  V30 2788 H 261.904 -3.91948 0.420804 0
M  V30 2789 H 263.192 -5.08743 0.0760765 0
M  V30 2790 H 262.59 -4.741 -3.08619 0
M  V30 2791 H 261.147 -5.66276 -3.22761 0
M  V30 2792 N 264.58 -0.43555 -1.51462 0
M  V30 2793 C 265.826 0.131709 -2.02372 0
M  V30 2794 C 266.159 1.42516 -1.3192 0
M  V30 2795 O 265.434 1.89606 -0.433573 0
M  V30 2796 C 265.717 0.352301 -3.58373 0
M  V30 2797 C 265.57 -0.959676 -4.39443 0
M  V30 2798 C 266.889 1.12286 -4.25535 0
M  V30 2799 H 264.008 0.0463936 -0.735538 0
M  V30 2800 H 266.65 -0.574197 -1.81116 0
M  V30 2801 H 264.8 0.9536 -3.76615 0
M  V30 2802 H 266.472 -1.59482 -4.32855 0
M  V30 2803 H 264.715 -1.56468 -4.04599 0
M  V30 2804 H 265.386 -0.759394 -5.46752 0
M  V30 2805 H 267.862 0.613545 -4.11552 0
M  V30 2806 H 266.738 1.24598 -5.34571 0
M  V30 2807 H 266.999 2.15048 -3.86273 0
M  V30 2808 N 266.058 1.56714 -0.166846 0
M  V30 2809 C 267.469 1.83378 0.350646 0
M  V30 2810 C 267.82 1.08646 1.63372 0
M  V30 2811 O 266.945 0.338058 2.13743 0
M  V30 2812 C 267.54 3.32643 0.642963 0
M  V30 2813 C 266.099 3.59818 1.10491 0
M  V30 2814 C 265.246 2.76954 0.138411 0
M  V30 2815 H 268.197 1.53803 -0.391193 0
M  V30 2816 H 268.218 3.49878 1.49551 0
M  V30 2817 H 267.73 3.87007 -0.291055 0
M  V30 2818 H 265.831 3.1086 2.05418 0
M  V30 2819 H 265.944 4.68178 1.01716 0
M  V30 2820 H 264.308 2.4666 0.634911 0
M  V30 2821 H 265.091 3.34097 -0.789549 0
M  V30 2822 N 267.536 -0.106894 1.57237 0
M  V30 2823 C 268.952 -0.46078 1.52804 0
M  V30 2824 C 269.152 -1.81184 0.881746 0
M  V30 2825 O 268.208 -2.48102 0.469224 0
M  V30 2826 C 269.521 -0.434127 2.9755 0
M  V30 2827 C 271.069 -0.516821 3.08704 0
M  V30 2828 C 271.544 -0.520436 4.55033 0
M  V30 2829 N 273.035 -0.58153 4.59535 0
M  V30 2830 C 273.77 -0.605973 5.70189 0
M  V30 2831 N 273.266 -0.587331 6.90306 0
M  V30 2832 N 275.059 -0.649895 5.5833 0
M  V30 2833 H 267.21 0.778203 1.9763 0
M  V30 2834 H 269.473 0.288403 0.903066 0
M  V30 2835 H 269.179 0.491197 3.48253 0
M  V30 2836 H 269.053 -1.25748 3.55622 0
M  V30 2837 H 271.44 -1.43256 2.57995 0
M  V30 2838 H 271.521 0.334449 2.53604 0
M  V30 2839 H 271.165 0.391313 5.0639 0
M  V30 2840 H 271.095 -1.38876 5.07958 0
M  V30 2841 H 273.586 -0.60161 3.73081 0
M  V30 2842 H 273.899 -0.60894 7.70397 0
M  V30 2843 H 272.244 -0.554564 6.92784 0
M  V30 2844 H 275.435 -0.661907 4.63397 0
M  V30 2845 H 275.608 -0.665476 6.44574 0
M  V30 2846 N 269.014 -1.53014 -0.377408 0
M  V30 2847 C 270.26 -1.68872 -1.12294 0
M  V30 2848 C 270.593 -0.433224 -1.89306 0
M  V30 2849 O 269.868 0.569258 -1.85983 0
M  V30 2850 C 270.151 -2.93115 -2.09179 0
M  V30 2851 C 270.004 -4.28794 -1.35853 0
M  V30 2852 C 271.323 -3.12928 -3.09458 0
M  V30 2853 H 268.442 -0.614518 -0.406862 0
M  V30 2854 H 271.084 -1.85633 -0.40503 0
M  V30 2855 H 269.234 -2.78956 -2.70399 0
M  V30 2856 H 270.906 -4.54742 -0.775082 0
M  V30 2857 H 269.149 -4.28744 -0.660364 0
M  V30 2858 H 269.82 -5.11837 -2.06706 0
M  V30 2859 H 272.296 -3.26194 -2.58334 0
M  V30 2860 H 271.172 -4.01316 -3.74482 0
M  V30 2861 H 271.433 -2.27669 -3.78971 0
M  V30 2862 N 270.492 0.636531 -1.44174 0
M  V30 2863 C 271.72 1.42353 -1.50144 0
M  V30 2864 C 272.135 1.88389 -0.124575 0
M  V30 2865 O 271.492 1.6051 0.868489 0
M  V30 2866 C 271.543 2.64744 -2.46156 0
M  V30 2867 O 271.264 2.20629 -3.7849 0
M  V30 2868 C 272.765 3.57929 -2.61537 0
M  V30 2869 H 269.985 0.436752 -0.5094 0
M  V30 2870 H 272.529 0.778933 -1.89084 0
M  V30 2871 H 270.684 3.25307 -2.10366 0
M  V30 2872 H 271.098 2.99938 -4.30276 0
M  V30 2873 H 272.572 4.40428 -3.32757 0
M  V30 2874 H 273.049 4.06382 -1.66585 0
M  V30 2875 H 273.655 3.03238 -2.98206 0
M  V30 2876 N 271.97 1.30982 0.876444 0
M  V30 2877 C 273.219 1.19658 1.62373 0
M  V30 2878 C 273.532 -0.245636 1.94052 0
M  V30 2879 O 274.738 -0.48049 2.67214 0
M  V30 2880 C 273.194 2.09433 2.92687 0
M  V30 2881 C 272.802 3.58613 2.68516 0
M  V30 2882 C 274.546 2.06893 3.70669 0
M  V30 2883 C 272.453 4.40416 3.94699 0
M  V30 2884 H 271.383 0.444268 0.609214 0
M  V30 2885 H 274.034 1.55791 0.969605 0
M  V30 2886 H 272.416 1.66191 3.59439 0
M  V30 2887 H 273.59 4.10058 2.10212 0
M  V30 2888 H 271.905 3.63063 2.03898 0
M  V30 2889 H 274.502 2.65258 4.64265 0
M  V30 2890 H 274.845 1.05448 4.02724 0
M  V30 2891 H 275.378 2.48301 3.10792 0
M  V30 2892 H 272.117 5.42591 3.67798 0
M  V30 2893 H 271.637 3.93731 4.52477 0
M  V30 2894 H 273.316 4.52294 4.62644 0
M  V30 2895 N 273.449 -1.08991 1.13837 0
M  V30 2896 C 274.412 -2.13925 0.822715 0
M  V30 2897 C 275.412 -1.599 -0.1699 0
M  V30 2898 O 276.602 -1.74104 0.0577251 0
M  V30 2899 C 273.734 -3.40155 0.225318 0
M  V30 2900 H 274.927 -2.43358 1.75262 0
M  V30 2901 H 272.48 -1.24603 0.943594 0
M  V30 2902 H 273.215 -3.16352 -0.713594 0
M  V30 2903 H 273 -3.80661 0.940193 0
M  V30 2904 H 274.49 -4.17594 0.0214784 0
M  V30 2905 N 274.927 -0.932562 -1.27047 0
M  V30 2906 C 275.859 -0.392734 -2.2581 0
M  V30 2907 C 276.872 0.479241 -1.55586 0
M  V30 2908 O 278.061 0.291078 -1.76111 0
M  V30 2909 C 275.161 0.455456 -3.35826 0
M  V30 2910 C 274.334 -0.398355 -4.35582 0
M  V30 2911 C 273.393 0.387985 -5.24768 0
M  V30 2912 O 272.419 -0.206003 -5.68827 0
M  V30 2913 N 273.621 1.68664 -5.55457 0
M  V30 2914 H 276.386 -1.24173 -2.72766 0
M  V30 2915 H 273.947 -0.800511 -1.40725 0
M  V30 2916 H 275.939 0.988692 -3.92437 0
M  V30 2917 H 274.509 1.20522 -2.88432 0
M  V30 2918 H 273.729 -1.11286 -3.78165 0
M  V30 2919 H 275.017 -0.981889 -4.99236 0
M  V30 2920 H 274.415 2.19147 -5.21528 0
M  V30 2921 H 272.972 2.1663 -6.14748 0
M  V30 2922 N 276.405 1.4127 -0.698611 0
M  V30 2923 C 277.653 2.00782 -0.230409 0
M  V30 2924 C 277.974 1.5562 1.17505 0
M  V30 2925 O 277.244 0.78815 1.79346 0
M  V30 2926 H 275.824 0.742464 -0.0821944 0
M  V30 2927 H 278.486 1.72852 -0.90045 0
M  V30 2928 H 277.582 3.11095 -0.25021 0
M  V30 2929 N 277.883 0.443576 1.51229 0
M  V30 2930 C 279.113 -0.119117 2.06256 0
M  V30 2931 C 279.521 -1.36471 1.31043 0
M  V30 2932 O 278.864 -1.80034 0.365151 0
M  V30 2933 C 278.926 -0.500546 3.55998 0
M  V30 2934 C 278.59 0.639125 4.52509 0
M  V30 2935 C 279.587 1.51311 4.97394 0
M  V30 2936 C 277.272 0.821632 4.95535 0
M  V30 2937 C 279.266 2.55425 5.83984 0
M  V30 2938 C 276.953 1.86603 5.81913 0
M  V30 2939 C 277.951 2.73072 6.26036 0
M  V30 2940 O 277.639 3.75718 7.10698 0
M  V30 2941 H 277.371 -0.00857665 0.675946 0
M  V30 2942 H 279.925 0.623288 1.95715 0
M  V30 2943 H 278.155 -1.29575 3.64345 0
M  V30 2944 H 279.844 -0.995116 3.93513 0
M  V30 2945 H 280.61 1.38367 4.64844 0
M  V30 2946 H 276.489 0.158149 4.60729 0
M  V30 2947 H 280.033 3.22949 6.18344 0
M  V30 2948 H 275.93 1.99564 6.13876 0
M  V30 2949 H 276.698 3.72374 7.2889 0
M  V30 2950 N 279.361 -1.56624 0.175154 0
M  V30 2951 C 280.638 -1.88688 -0.515373 0
M  V30 2952 C 281.018 -1.08564 -1.81044 0
M  V30 2953 O 280.366 -0.180703 -2.27784 0
M  V30 2954 C 280.576 -3.40768 -0.753552 0
M  V30 2955 C 281.924 -4.10587 -1.08184 0
M  V30 2956 O 282.948 -3.46106 -0.841961 0
M  V30 2957 O 281.807 -5.24512 -1.53459 0
M  V30 2958 H 278.901 -0.78301 -0.26613 0
M  V30 2959 H 281.447 -1.68347 0.213877 0
M  V30 2960 H 280.219 -3.90965 0.161829 0
M  V30 2961 H 279.842 -3.66733 -1.53598 0
M  V30 2962 N 280.839 0.0985539 -1.57292 0
M  V30 2963 C 281.802 1.10402 -2.00858 0
M  V30 2964 C 282.802 1.33146 -0.901593 0
M  V30 2965 O 283.992 1.29318 -1.16716 0
M  V30 2966 C 281.124 2.45394 -2.36632 0
M  V30 2967 H 282.317 0.729099 -2.90902 0
M  V30 2968 H 279.87 0.343495 -1.52479 0
M  V30 2969 H 280.605 2.87769 -1.49531 0
M  V30 2970 H 280.39 2.30235 -3.17387 0
M  V30 2971 H 281.88 3.17718 -2.71007 0
M  V30 2972 N 282.317 1.53212 0.369288 0
M  V30 2973 C 283.247 1.82365 1.45826 0
M  V30 2974 C 284.228 0.676907 1.56051 0
M  V30 2975 O 285.413 0.926401 1.70679 0
M  V30 2976 C 282.543 2.01023 2.83208 0
M  V30 2977 C 281.497 3.1678 2.8781 0
M  V30 2978 C 280.823 3.20724 4.27832 0
M  V30 2979 C 282.123 4.55447 2.55667 0
M  V30 2980 H 283.817 2.73559 1.21678 0
M  V30 2981 H 281.363 1.3163 0.583911 0
M  V30 2982 H 283.316 2.20001 3.59413 0
M  V30 2983 H 282.04 1.06536 3.08736 0
M  V30 2984 H 280.699 2.97616 2.14056 0
M  V30 2985 H 280.347 2.23882 4.50429 0
M  V30 2986 H 280.047 3.98496 4.31827 0
M  V30 2987 H 281.571 3.41881 5.05915 0
M  V30 2988 H 282.985 4.74611 3.21586 0
M  V30 2989 H 281.382 5.35432 2.70984 0
M  V30 2990 H 282.452 4.60812 1.5093 0
M  V30 2991 N 283.795 -0.628877 1.44509 0
M  V30 2992 C 285.02 -1.42048 1.5112 0
M  V30 2993 C 285.445 -1.87594 0.137818 0
M  V30 2994 O 284.803 -1.58873 -0.873437 0
M  V30 2995 C 284.851 -2.61541 2.48251 0
M  V30 2996 O 283.955 -3.61453 1.98559 0
M  V30 2997 H 283.296 -0.424942 0.510216 0
M  V30 2998 H 285.826 -0.767374 1.89664 0
M  V30 2999 H 285.836 -3.09057 2.66361 0
M  V30 3000 H 284.511 -2.27736 3.48007 0
M  V30 3001 H 283.088 -3.20731 1.90227 0
M  V30 3002 N 285.273 -1.31445 -0.869486 0
M  V30 3003 C 286.498 -1.24256 -1.66058 0
M  V30 3004 C 286.923 0.188928 -1.87149 0
M  V30 3005 O 286.281 1.13522 -1.4136 0
M  V30 3006 C 286.329 -1.9924 -3.00559 0
M  V30 3007 O 285.433 -1.33007 -3.90362 0
M  V30 3008 H 284.774 -0.428973 -0.506831 0
M  V30 3009 H 287.304 -1.73521 -1.08404 0
M  V30 3010 H 287.314 -2.08854 -3.50491 0
M  V30 3011 H 285.989 -3.03342 -2.84528 0
M  V30 3012 H 284.566 -1.31848 -3.48813 0
M  V30 3013 N 286.751 1.08385 -1.14413 0
M  V30 3014 C 287.684 2.14642 -0.774871 0
M  V30 3015 C 288.662 1.60761 0.243876 0
M  V30 3016 O 289.846 1.88031 0.132883 0
M  V30 3017 C 286.973 3.38366 -0.150491 0
M  V30 3018 C 286.019 4.10997 -1.13945 0
M  V30 3019 S 286.852 4.63797 -2.67679 0
M  V30 3020 C 288.008 5.90808 -2.06631 0
M  V30 3021 H 288.241 2.45633 -1.67487 0
M  V30 3022 H 285.774 1.20498 -0.96538 0
M  V30 3023 H 287.732 4.09996 0.203334 0
M  V30 3024 H 286.393 3.05572 0.72694 0
M  V30 3025 H 285.586 4.99783 -0.65059 0
M  V30 3026 H 285.188 3.4528 -1.43727 0
M  V30 3027 H 287.48 6.62411 -1.4219 0
M  V30 3028 H 288.423 6.4439 -2.93542 0
M  V30 3029 H 288.831 5.4383 -1.51357 0
M  V30 3030 N 288.23 0.939286 1.26551 0
M  V30 3031 C 289.193 0.451987 2.24699 0
M  V30 3032 C 290.193 -0.435869 1.5478 0
M  V30 3033 O 291.383 -0.235314 1.72603 0
M  V30 3034 C 288.515 -0.348801 3.39111 0
M  V30 3035 H 289.708 1.3193 2.69322 0
M  V30 3036 H 287.261 0.721072 1.38673 0
M  V30 3037 H 287.996 -1.23444 2.99887 0
M  V30 3038 H 287.781 0.287945 3.91041 0
M  V30 3039 H 289.271 -0.679726 4.12031 0
M  V30 3040 N 289.708 -1.40897 0.706093 0
M  V30 3041 C 290.656 -2.32572 0.0361893 0
M  V30 3042 C 291.65 -1.51532 -0.757266 0
M  V30 3043 O 292.856 -1.67396 -0.661703 0
M  V30 3044 H 289.231 -0.751966 -0.00709935 0
M  V30 3045 H 291.202 -2.86733 0.826249 0
M  V30 3046 C 289.951 -3.36418 -0.87854 0
M  V30 3047 H 289.274 -3.98836 -0.277401 0
M  V30 3048 H 290.714 -4.0308 -1.3154 0
M  V30 3049 C 289.173 -2.71141 -1.99961 0
M  V30 3050 O 289.703 -2.56735 -3.0895 0
M  V30 3051 N 287.909 -2.29671 -1.78043 0
M  V30 3052 H 287.456 -2.41588 -0.894042 0
M  V30 3053 H 287.414 -1.86332 -2.53235 0
M  V30 3054 N 291.186 -0.45159 -1.50991 0
M  V30 3055 C 292.435 0.111653 -2.01391 0
M  V30 3056 C 292.748 1.42529 -1.33959 0
M  V30 3057 O 293.954 2.07232 -1.75405 0
M  V30 3058 C 292.41 0.249514 -3.59034 0
M  V30 3059 C 292.018 -1.05453 -4.35412 0
M  V30 3060 C 293.762 0.765762 -4.17536 0
M  V30 3061 C 291.669 -0.881529 -5.84793 0
M  V30 3062 H 290.599 0.0455022 -0.752626 0
M  V30 3063 H 293.25 -0.583524 -1.73975 0
M  V30 3064 H 291.632 1.00803 -3.82955 0
M  V30 3065 H 292.806 -1.82248 -4.23229 0
M  V30 3066 H 291.121 -1.50039 -3.88429 0
M  V30 3067 H 293.718 0.911913 -5.26866 0
M  V30 3068 H 294.061 1.75201 -3.77638 0
M  V30 3069 H 294.594 0.0651744 -3.97747 0
M  V30 3070 H 291.333 -1.84057 -6.29129 0
M  V30 3071 H 290.853 -0.153625 -5.99603 0
M  V30 3072 H 292.532 -0.540363 -6.4474 0
M  V30 3073 N 292.664 1.56529 -0.183458 0
M  V30 3074 C 293.627 2.17324 0.728223 0
M  V30 3075 C 294.627 1.12453 1.14939 0
M  V30 3076 O 295.817 1.37902 1.06437 0
M  V30 3077 C 292.949 2.76591 1.99274 0
M  V30 3078 H 294.142 2.99241 0.198772 0
M  V30 3079 H 291.695 1.5616 0.0661391 0
M  V30 3080 H 292.43 1.98441 2.56499 0
M  V30 3081 H 292.215 3.5335 1.69959 0
M  V30 3082 H 293.705 3.23311 2.6431 0
M  V30 3083 N 294.142 -0.090211 1.57342 0
M  V30 3084 C 295.39 -0.791241 1.85967 0
M  V30 3085 C 295.711 -1.7903 0.772859 0
M  V30 3086 O 294.981 -1.94872 -0.200398 0
M  V30 3087 H 293.561 -0.295205 0.686195 0
M  V30 3088 H 296.223 -0.0706782 1.94772 0
M  V30 3089 H 295.319 -1.31882 2.82867 0
M  V30 3090 N 295.62 -1.53406 -0.361157 0
M  V30 3091 C 296.85 -1.73465 -1.1222 0
M  V30 3092 C 297.258 -0.465486 -1.83384 0
M  V30 3093 O 296.601 0.571611 -1.7458 0
M  V30 3094 C 296.663 -2.84834 -2.19339 0
M  V30 3095 C 296.327 -4.25038 -1.67903 0
M  V30 3096 C 297.324 -5.07231 -1.14074 0
M  V30 3097 C 295.009 -4.71464 -1.73282 0
M  V30 3098 C 297.003 -6.33942 -0.663068 0
M  V30 3099 C 294.69 -5.98153 -1.25127 0
M  V30 3100 C 295.688 -6.79223 -0.717296 0
M  V30 3101 O 295.376 -8.03533 -0.242865 0
M  V30 3102 H 295.108 -0.583526 -0.341283 0
M  V30 3103 H 297.662 -2.00964 -0.424591 0
M  V30 3104 H 295.892 -2.5282 -2.92607 0
M  V30 3105 H 297.581 -2.9303 -2.80871 0
M  V30 3106 H 298.347 -4.72534 -1.09254 0
M  V30 3107 H 294.226 -4.08432 -2.13786 0
M  V30 3108 H 297.77 -6.97167 -0.245612 0
M  V30 3109 H 293.667 -6.32347 -1.29642 0
M  V30 3110 H 294.435 -8.177 -0.361786 0
M  V30 3111 N 297.098 0.621204 -1.44841 0
M  V30 3112 C 298.045 1.73267 -1.5247 0
M  V30 3113 C 299.015 1.6189 -0.371611 0
M  V30 3114 O 300.2 1.81668 -0.58321 0
M  V30 3115 C 297.34 3.11545 -1.48438 0
M  V30 3116 C 296.453 3.33827 -2.74196 0
M  V30 3117 C 295.588 4.62133 -2.61929 0
M  V30 3118 C 294.627 4.77627 -3.82804 0
M  V30 3119 N 293.764 5.97219 -3.69153 0
M  V30 3120 H 298.604 1.66082 -2.47428 0
M  V30 3121 H 296.141 0.810026 -1.22788 0
M  V30 3122 H 298.099 3.91528 -1.4409 0
M  V30 3123 H 296.729 3.1772 -0.570402 0
M  V30 3124 H 295.781 2.47715 -2.88689 0
M  V30 3125 H 297.093 3.41153 -3.6389 0
M  V30 3126 H 296.247 5.50291 -2.5547 0
M  V30 3127 H 294.986 4.57182 -1.69811 0
M  V30 3128 H 293.991 3.87896 -3.89637 0
M  V30 3129 H 295.216 4.84385 -4.75971 0
M  V30 3130 H 293.162 5.93339 -2.79794 0
M  V30 3131 H 293.079 6.05644 -4.52472 0
M  V30 3132 H 294.347 6.87912 -3.66603 0
M  V30 3133 N 298.576 1.31904 0.862503 0
M  V30 3134 C 299.539 1.20131 1.95195 0
M  V30 3135 C 300.539 0.126409 1.60302 0
M  V30 3136 O 301.729 0.376234 1.70089 0
M  V30 3137 C 298.861 0.845691 3.30244 0
M  V30 3138 H 300.054 2.16943 2.07064 0
M  V30 3139 H 297.607 1.15622 1.05172 0
M  V30 3140 H 298.342 -0.120957 3.24074 0
M  V30 3141 H 298.127 1.62276 3.56944 0
M  V30 3142 H 299.617 0.787418 4.10109 0
M  V30 3143 N 300.054 -1.07777 1.14986 0
M  V30 3144 C 301.3 -1.80557 0.923422 0
M  V30 3145 C 301.633 -1.86298 -0.548337 0
M  V30 3146 O 300.908 -1.34354 -1.40639 0
M  V30 3147 C 301.191 -3.25839 1.53299 0
M  V30 3148 C 301.044 -3.28269 3.07505 0
M  V30 3149 C 302.363 -4.22991 1.21518 0
M  V30 3150 H 299.482 -0.655493 0.336894 0
M  V30 3151 H 302.124 -1.26144 1.42083 0
M  V30 3152 H 300.274 -3.72306 1.10999 0
M  V30 3153 H 301.946 -2.90079 3.58681 0
M  V30 3154 H 300.189 -2.67355 3.4162 0
M  V30 3155 H 300.86 -4.30691 3.45266 0
M  V30 3156 H 303.336 -3.84894 1.581 0
M  V30 3157 H 302.212 -5.22945 1.66793 0
M  V30 3158 H 302.473 -4.41904 0.131505 0
M  V30 3159 N 301.532 -0.945985 -1.26051 0
M  V30 3160 C 302.778 -0.597002 -1.93814 0
M  V30 3161 C 303.111 0.862484 -1.73997 0
M  V30 3162 O 302.386 1.61769 -1.07986 0
M  V30 3163 C 302.669 -0.945937 -3.47454 0
M  V30 3164 C 302.522 -2.46052 -3.76535 0
M  V30 3165 C 303.841 -0.464785 -4.37639 0
M  V30 3166 H 300.96 -0.218366 -0.703907 0
M  V30 3167 H 303.602 -1.18107 -1.48831 0
M  V30 3168 H 301.752 -0.448902 -3.85898 0
M  V30 3169 H 303.424 -3.03065 -3.47778 0
M  V30 3170 H 301.667 -2.90194 -3.22444 0
M  V30 3171 H 302.338 -2.65517 -4.83947 0
M  V30 3172 H 304.814 -0.891016 -4.06448 0
M  V30 3173 H 303.69 -0.737712 -5.4392 0
M  V30 3174 H 303.951 0.635274 -4.37512 0
M  V30 3175 N 303.011 1.40521 -0.713556 0
M  V30 3176 C 303.941 2.33381 -0.0743864 0
M  V30 3177 C 304.922 1.52784 0.747735 0
M  V30 3178 O 306.107 1.81258 0.697071 0
M  V30 3179 C 303.237 3.36748 0.849598 0
M  V30 3180 C 302.191 4.27793 0.133247 0
M  V30 3181 C 301.517 5.21679 1.17281 0
M  V30 3182 C 302.817 5.12415 -1.01134 0
M  V30 3183 H 304.511 2.87081 -0.850007 0
M  V30 3184 H 302.057 1.38034 -0.410201 0
M  V30 3185 H 304.01 4.00648 1.30612 0
M  V30 3186 H 302.734 2.81439 1.65709 0
M  V30 3187 H 301.393 3.65342 -0.303426 0
M  V30 3188 H 301.041 4.62677 1.9733 0
M  V30 3189 H 300.741 5.83435 0.698397 0
M  V30 3190 H 302.265 5.88456 1.62947 0
M  V30 3191 H 303.679 5.69781 -0.634274 0
M  V30 3192 H 302.076 5.83203 -1.41399 0
M  V30 3193 H 303.146 4.48514 -1.84292 0
M  V30 3194 N 304.489 0.459591 1.5075 0
M  V30 3195 C 305.452 -0.329093 2.26825 0
M  V30 3196 C 306.452 -0.930481 1.31144 0
M  V30 3197 O 307.642 -0.801453 1.54669 0
M  V30 3198 C 304.774 -1.46768 3.07688 0
M  V30 3199 H 305.967 0.337924 2.9799 0
M  V30 3200 H 303.52 0.213336 1.54837 0
M  V30 3201 H 304.255 -2.17009 2.40993 0
M  V30 3202 H 304.04 -1.04238 3.77991 0
M  V30 3203 H 305.53 -2.02433 3.65254 0
M  V30 3204 N 305.967 -1.56429 0.191757 0
M  V30 3205 C 306.93 -2.17707 -0.716688 0
M  V30 3206 C 307.93 -1.13061 -1.14341 0
M  V30 3207 O 309.12 -1.38464 -1.05704 0
M  V30 3208 C 306.252 -2.77644 -1.97804 0
M  V30 3209 H 307.445 -2.99342 -0.1829 0
M  V30 3210 H 304.998 -1.56193 -0.0578566 0
M  V30 3211 H 305.733 -1.99799 -2.55443 0
M  V30 3212 H 305.518 -3.54246 -1.68083 0
M  V30 3213 H 307.008 -3.24708 -2.62592 0
M  V30 3214 N 307.445 0.0818655 -1.57387 0
M  V30 3215 C 308.393 1.11712 -2.04018 0
M  V30 3216 C 309.387 1.40683 -0.94364 0
M  V30 3217 O 310.593 1.40209 -1.12878 0
M  V30 3218 H 306.968 0.377542 -0.650358 0
M  V30 3219 H 308.939 0.697614 -2.90131 0
M  V30 3220 C 307.688 2.42537 -2.49141 0
M  V30 3221 H 307.011 2.21092 -3.33104 0
M  V30 3222 H 308.451 3.13446 -2.85531 0
M  V30 3223 C 306.91 3.0778 -1.37014 0
M  V30 3224 O 307.44 3.95436 -0.706621 0
M  V30 3225 N 305.646 2.68242 -1.11779 0
M  V30 3226 H 305.193 1.97052 -1.65917 0
M  V30 3227 H 305.151 3.1222 -0.369594 0
M  V30 3228 N 308.923 1.53595 0.353017 0
M  V30 3229 C 309.873 1.77299 1.43349 0
M  V30 3230 C 310.857 0.627884 1.48143 0
M  V30 3231 O 312.049 0.88697 1.53173 0
M  V30 3232 C 309.178 1.97757 2.80619 0
M  V30 3233 C 308.264 3.18305 2.80254 0
M  V30 3234 N 308.655 4.39967 2.49526 0
M  V30 3235 C 306.953 3.19283 3.11407 0
M  V30 3236 C 307.654 5.21772 2.57156 0
M  V30 3237 N 306.63 4.58269 2.92388 0
M  V30 3238 H 310.432 2.68963 1.18474 0
M  V30 3239 H 307.946 1.52391 0.561306 0
M  V30 3240 H 309.943 2.1287 3.58458 0
M  V30 3241 H 308.603 1.07329 3.06448 0
M  V30 3242 H 309.614 4.67482 2.22893 0
M  V30 3243 H 306.291 2.3879 3.4247 0
M  V30 3244 H 307.681 6.2885 2.36638 0
M  V30 3245 N 310.401 -0.613514 1.45168 0
M  V30 3246 C 311.648 -1.37268 1.48875 0
M  V30 3247 C 311.976 -1.94077 0.128161 0
M  V30 3248 O 311.231 -1.75178 -0.872416 0
M  V30 3249 C 311.53 -2.54347 2.51083 0
M  V30 3250 C 311.196 -2.1572 3.95949 0
M  V30 3251 C 309.858 -2.04899 4.35396 0
M  V30 3252 C 312.21 -1.85485 4.87078 0
M  V30 3253 C 309.538 -1.62057 5.63875 0
M  V30 3254 C 311.89 -1.4413 6.15962 0
M  V30 3255 C 310.554 -1.31863 6.54346 0
M  V30 3256 H 309.824 -0.502299 0.544773 0
M  V30 3257 H 312.471 -0.694021 1.78481 0
M  V30 3258 H 310.776 -3.27524 2.15024 0
M  V30 3259 H 312.473 -3.12577 2.51191 0
M  V30 3260 H 309.063 -2.25066 3.64751 0
M  V30 3261 H 313.247 -1.92745 4.57343 0
M  V30 3262 H 308.503 -1.51177 5.92415 0
M  V30 3263 H 312.677 -1.19778 6.86022 0
M  V30 3264 H 310.304 -0.984392 7.538 0
M  V30 3265 N 311.879 -1.3236 -0.855495 0
M  V30 3266 C 313.127 -1.22629 -1.60644 0
M  V30 3267 C 313.448 0.212136 -1.93843 0
M  V30 3268 O 312.718 1.13666 -1.59552 0
M  V30 3269 H 311.298 -0.450882 -0.595579 0
M  V30 3270 H 313.96 -1.65871 -1.02337 0
M  V30 3271 H 313.056 -1.80832 -2.54374 0
M  V30 3272 N 313.357 1.07166 -1.15556 0
M  V30 3273 C 314.773 1.31899 -0.898603 0
M  V30 3274 C 314.973 1.96333 0.453383 0
M  V30 3275 O 314.029 2.22438 1.19489 0
M  V30 3276 C 315.342 2.20826 -2.04099 0
M  V30 3277 C 316.89 2.34269 -2.07574 0
M  V30 3278 C 317.365 3.26546 -3.21141 0
M  V30 3279 N 318.856 3.34127 -3.20801 0
M  V30 3280 C 319.591 4.05595 -4.05315 0
M  V30 3281 N 319.087 4.79661 -4.99897 0
M  V30 3282 N 320.88 4.01555 -3.93332 0
M  V30 3283 H 313.031 0.637302 -2.02613 0
M  V30 3284 H 315.294 0.343468 -0.883591 0
M  V30 3285 H 315 1.80744 -3.01703 0
M  V30 3286 H 314.874 3.21364 -1.97496 0
M  V30 3287 H 317.261 2.73603 -1.10568 0
M  V30 3288 H 317.342 1.33429 -2.18244 0
M  V30 3289 H 316.986 2.87931 -4.184 0
M  V30 3290 H 316.916 4.27345 -3.07708 0
M  V30 3291 H 319.407 2.81336 -2.52306 0
M  V30 3292 H 319.72 5.31694 -5.60822 0
M  V30 3293 H 318.065 4.78671 -5.03884 0
M  V30 3294 H 321.256 3.42806 -3.18751 0
M  V30 3295 H 321.429 4.56987 -4.5942 0
M  V30 3296 N 314.835 0.952656 1.25548 0
M  V30 3297 C 316.082 0.606373 1.93208 0
M  V30 3298 C 316.41 -0.85631 1.74636 0
M  V30 3299 O 315.665 -1.62951 1.08376 0
M  V30 3300 C 315.964 0.908818 3.45652 0
M  V30 3301 C 315.63 2.35722 3.84378 0
M  V30 3302 C 314.292 2.75312 3.9466 0
M  V30 3303 C 316.644 3.29793 4.03591 0
M  V30 3304 C 313.972 4.08047 4.21562 0
M  V30 3305 C 316.324 4.62138 4.31985 0
M  V30 3306 C 314.988 5.01528 4.40484 0
M  V30 3307 H 314.258 0.221888 0.706998 0
M  V30 3308 H 316.905 1.20132 1.49133 0
M  V30 3309 H 315.21 0.231456 3.91116 0
M  V30 3310 H 316.907 0.619498 3.96186 0
M  V30 3311 H 313.497 2.04017 3.76928 0
M  V30 3312 H 317.681 3.00397 3.95064 0
M  V30 3313 H 312.937 4.38212 4.26357 0
M  V30 3314 H 317.111 5.35012 4.45797 0
M  V30 3315 H 314.738 6.04406 4.61083 0
M  V30 3316 N 316.313 -1.40141 0.720998 0
M  V30 3317 C 317.56 -2.00787 0.262842 0
M  V30 3318 C 317.888 -1.5718 -1.14563 0
M  V30 3319 O 317.143 -0.785391 -1.79249 0
M  V30 3320 C 317.442 -3.56165 0.296892 0
M  V30 3321 C 317.108 -4.19373 1.65641 0
M  V30 3322 C 315.77 -4.36352 2.02855 0
M  V30 3323 C 318.122 -4.54578 2.54968 0
M  V30 3324 C 315.45 -4.8582 3.28931 0
M  V30 3325 C 317.802 -5.05447 3.80402 0
M  V30 3326 C 316.466 -5.20635 4.17726 0
M  V30 3327 H 315.736 -0.734731 0.0961807 0
M  V30 3328 H 318.383 -1.67673 0.925093 0
M  V30 3329 H 316.688 -3.8922 -0.448932 0
M  V30 3330 H 318.385 -4.00929 -0.0755208 0
M  V30 3331 H 314.975 -4.06549 1.35704 0
M  V30 3332 H 319.159 -4.41091 2.27491 0
M  V30 3333 H 314.415 -4.95764 3.57811 0
M  V30 3334 H 318.589 -5.31663 4.49786 0
M  V30 3335 H 316.216 -5.58728 5.15487 0
M  V30 3336 N 317.792 -0.46758 -1.50504 0
M  V30 3337 C 319.02 0.0864133 -2.06719 0
M  V30 3338 C 319.435 1.33819 -1.33184 0
M  V30 3339 O 318.792 1.78061 -0.400083 0
M  V30 3340 C 318.843 0.378079 -3.59517 0
M  V30 3341 O 318.564 -0.824044 -4.3028 0
M  V30 3342 C 320.065 0.979426 -4.32345 0
M  V30 3343 H 317.285 -0.00551697 -0.670977 0
M  V30 3344 H 319.829 -0.655354 -1.93715 0
M  V30 3345 H 317.984 1.06977 -3.72337 0
M  V30 3346 H 318.398 -0.566518 -5.21432 0
M  V30 3347 H 319.872 1.1333 -5.40241 0
M  V30 3348 H 320.349 1.9686 -3.9261 0
M  V30 3349 H 320.955 0.326216 -4.24047 0
M  V30 3350 N 319.27 1.56325 -0.20005 0
M  V30 3351 C 320.518 1.97329 0.436547 0
M  V30 3352 C 320.839 1.08826 1.61808 0
M  V30 3353 O 320.109 0.160604 1.95241 0
M  V30 3354 H 318.689 0.728714 0.164272 0
M  V30 3355 H 321.351 1.92761 -0.287937 0
M  V30 3356 H 320.447 3.02264 0.777353 0
M  V30 3357 N 320.748 -0.0735177 1.57428 0
M  V30 3358 C 321.68 -1.11423 2.00294 0
M  V30 3359 C 322.693 -1.35084 0.908637 0
M  V30 3360 O 323.882 -1.33355 1.18654 0
M  V30 3361 C 320.982 -2.46548 2.32523 0
M  V30 3362 C 320.155 -2.42867 3.63778 0
M  V30 3363 C 319.214 -3.60087 3.83697 0
M  V30 3364 O 318.24 -3.41595 4.55304 0
M  V30 3365 N 319.442 -4.80372 3.25919 0
M  V30 3366 H 322.207 -0.749206 2.90184 0
M  V30 3367 H 319.768 -0.262195 1.59763 0
M  V30 3368 H 321.76 -3.23607 2.43024 0
M  V30 3369 H 320.33 -2.75059 1.48531 0
M  V30 3370 H 319.55 -1.51206 3.64047 0
M  V30 3371 H 320.838 -2.37506 4.49965 0
M  V30 3372 H 320.236 -4.983 2.67795 0
M  V30 3373 H 318.793 -5.54948 3.41871 0
M  V30 3374 N 322.226 -1.5378 -0.344866 0
M  V30 3375 C 323.475 -1.7018 -1.08267 0
M  V30 3376 C 323.788 -0.471 -1.89845 0
M  V30 3377 O 324.994 -0.515917 -2.66553 0
M  V30 3378 C 323.45 -3.00923 -1.97417 0
M  V30 3379 C 323.058 -4.31335 -1.21053 0
M  V30 3380 C 324.802 -3.26688 -2.71063 0
M  V30 3381 C 322.709 -5.53153 -2.09225 0
M  V30 3382 H 321.639 -0.634138 -0.407903 0
M  V30 3383 H 324.29 -1.8028 -0.342246 0
M  V30 3384 H 322.672 -2.84676 -2.75274 0
M  V30 3385 H 323.846 -4.58281 -0.481159 0
M  V30 3386 H 322.161 -4.12173 -0.591813 0
M  V30 3387 H 324.758 -4.1489 -3.37299 0
M  V30 3388 H 325.101 -2.43639 -3.37558 0
M  V30 3389 H 325.634 -3.43705 -2.0028 0
M  V30 3390 H 322.373 -6.38741 -1.47274 0
M  V30 3391 H 321.893 -5.30458 -2.79955 0
M  V30 3392 H 323.572 -5.88744 -2.68308 0
M  V30 3393 N 323.704 0.605807 -1.45491 0
M  V30 3394 C 324.932 1.39136 -1.5313 0
M  V30 3395 C 325.347 1.88082 -0.164507 0
M  V30 3396 O 324.704 1.62316 0.834247 0
M  V30 3397 C 324.755 2.59463 -2.51716 0
M  V30 3398 O 324.476 2.12551 -3.83084 0
M  V30 3399 C 325.977 3.52301 -2.6907 0
M  V30 3400 H 323.197 0.425849 -0.51855 0
M  V30 3401 H 325.741 0.73865 -1.90694 0
M  V30 3402 H 323.896 3.20772 -2.17219 0
M  V30 3403 H 324.31 2.90744 -4.36541 0
M  V30 3404 H 325.784 4.33271 -3.42024 0
M  V30 3405 H 326.261 4.02757 -1.75167 0
M  V30 3406 H 326.867 2.96845 -3.04571 0
M  V30 3407 N 325.182 1.32811 0.848464 0
M  V30 3408 C 326.145 1.22194 1.9391 0
M  V30 3409 C 327.145 0.143404 1.60159 0
M  V30 3410 O 328.335 0.394253 1.6968 0
M  V30 3411 C 325.467 0.88067 3.29328 0
M  V30 3412 H 326.66 2.19127 2.04752 0
M  V30 3413 H 324.213 1.16731 1.0394 0
M  V30 3414 H 324.948 -0.0865776 3.24184 0
M  V30 3415 H 324.733 1.66052 3.55203 0
M  V30 3416 H 326.223 0.830871 4.09251 0
M  V30 3417 N 326.66 -1.06551 1.16123 0
M  V30 3418 C 327.623 -2.12132 0.867906 0
M  V30 3419 C 328.623 -1.60224 -0.135944 0
M  V30 3420 O 329.813 -1.73943 0.0946422 0
M  V30 3421 C 326.945 -3.396 0.297419 0
M  V30 3422 H 328.138 -2.39586 1.80385 0
M  V30 3423 H 325.691 -1.22574 0.969812 0
M  V30 3424 H 326.426 -3.17794 -0.64633 0
M  V30 3425 H 326.211 -3.78581 1.02073 0
M  V30 3426 H 327.701 -4.17455 0.110052 0
M  V30 3427 N 328.138 -0.959301 -1.25041 0
M  V30 3428 C 329.386 -0.615393 -1.92503 0
M  V30 3429 C 329.707 0.850969 -1.75452 0
M  V30 3430 O 328.977 1.60658 -1.12098 0
M  V30 3431 H 327.557 -0.224613 -0.712431 0
M  V30 3432 H 330.219 -1.21855 -1.5211 0
M  V30 3433 H 329.315 -0.848738 -3.00338 0
M  V30 3434 N 329.616 1.39756 -0.72842 0
M  V30 3435 C 330.563 2.30647 -0.0841519 0
M  V30 3436 C 331.533 1.48869 0.7367 0
M  V30 3437 O 332.718 1.77574 0.698015 0
M  V30 3438 C 329.858 3.35165 0.822091 0
M  V30 3439 C 328.971 4.31999 -0.0106663 0
M  V30 3440 C 328.106 5.23585 0.896241 0
M  V30 3441 C 327.145 6.12072 0.0583381 0
M  V30 3442 N 326.282 6.96035 0.920818 0
M  V30 3443 H 331.122 2.85173 -0.864891 0
M  V30 3444 H 328.659 1.40422 -0.438179 0
M  V30 3445 H 330.617 3.94345 1.36189 0
M  V30 3446 H 329.247 2.8211 1.56888 0
M  V30 3447 H 328.299 3.74492 -0.66781 0
M  V30 3448 H 329.611 4.9443 -0.658825 0
M  V30 3449 H 328.765 5.87759 1.50412 0
M  V30 3450 H 327.504 4.61459 1.57819 0
M  V30 3451 H 326.509 5.46916 -0.562389 0
M  V30 3452 H 327.734 6.76261 -0.6203 0
M  V30 3453 H 325.68 6.36485 1.58818 0
M  V30 3454 H 325.597 7.55284 0.32899 0
M  V30 3455 H 326.865 7.64646 1.51447 0
M  V30 3456 N 331.094 0.475555 1.50254 0
M  V30 3457 C 332.34 -0.0780073 2.0265 0
M  V30 3458 C 332.673 -1.38968 1.35652 0
M  V30 3459 O 331.948 -1.8839 0.483691 0
M  V30 3460 C 332.231 -0.257161 3.59181 0
M  V30 3461 C 332.084 1.07585 4.36744 0
M  V30 3462 C 333.403 -1.00965 4.28362 0
M  V30 3463 H 330.522 -0.0268758 0.73651 0
M  V30 3464 H 333.164 0.622015 1.7953 0
M  V30 3465 H 331.314 -0.853412 3.79011 0
M  V30 3466 H 332.986 1.70902 4.28474 0
M  V30 3467 H 331.229 1.6714 4.00308 0
M  V30 3468 H 331.9 0.904088 5.44546 0
M  V30 3469 H 334.376 -0.504214 4.13034 0
M  V30 3470 H 333.252 -1.10381 5.37687 0
M  V30 3471 H 333.513 -2.04731 3.91839 0
M  V30 3472 N 332.573 -1.56217 0.208337 0
M  V30 3473 C 333.984 -1.84243 -0.301904 0
M  V30 3474 C 334.335 -1.12939 -1.60434 0
M  V30 3475 O 333.46 -0.39461 -2.12772 0
M  V30 3476 C 334.055 -3.34231 -0.554543 0
M  V30 3477 C 332.614 -3.62621 -1.00912 0
M  V30 3478 C 331.761 -2.77224 -0.064933 0
M  V30 3479 H 334.712 -1.52712 0.431833 0
M  V30 3480 H 334.733 -3.5372 -1.40223 0
M  V30 3481 H 334.245 -3.86099 0.393561 0
M  V30 3482 H 332.346 -3.16197 -1.97104 0
M  V30 3483 H 332.459 -4.7071 -0.892674 0
M  V30 3484 H 330.823 -2.48256 -0.56929 0
M  V30 3485 H 331.606 -3.31887 0.877851 0
M  V30 3486 N 334.051 0.0651679 -1.57465 0
M  V30 3487 C 335.462 0.616213 -1.76238 0
M  V30 3488 C 335.813 1.7756 -0.834689 0
M  V30 3489 O 334.938 2.1639 -0.0204156 0
M  V30 3490 C 335.533 1.12462 -3.1959 0
M  V30 3491 C 334.092 1.62147 -3.39684 0
M  V30 3492 C 333.239 0.543739 -2.71917 0
M  V30 3493 H 336.19 -0.161022 -1.57881 0
M  V30 3494 H 336.211 1.99324 -3.24114 0
M  V30 3495 H 335.723 0.280592 -3.87084 0
M  V30 3496 H 333.824 2.48854 -2.77313 0
M  V30 3497 H 333.937 1.69385 -4.48158 0
M  V30 3498 H 332.301 0.990352 -2.34657 0
M  V30 3499 H 333.084 -0.290216 -3.42071 0
M  V30 3500 N 335.529 1.53961 0.336706 0
M  V30 3501 C 336.492 1.81724 1.39675 0
M  V30 3502 C 337.492 0.688532 1.45313 0
M  V30 3503 O 338.682 0.956829 1.45569 0
M  V30 3504 C 335.814 1.96543 2.78538 0
M  V30 3505 H 337.007 2.76424 1.16318 0
M  V30 3506 H 334.56 1.45478 0.571474 0
M  V30 3507 H 335.295 1.0401 3.07168 0
M  V30 3508 H 335.08 2.78665 2.75841 0
M  V30 3509 H 336.57 2.19516 3.5525 0
M  V30 3510 N 337.007 -0.598083 1.45811 0
M  V30 3511 C 337.954 -1.7082 1.55207 0
M  V30 3512 C 338.924 -1.61278 0.39732 0
M  V30 3513 O 340.109 -1.80717 0.612038 0
M  V30 3514 C 337.249 -3.09144 1.53376 0
M  V30 3515 C 336.362 -3.29423 2.79472 0
M  V30 3516 C 335.497 -4.57907 2.69248 0
M  V30 3517 C 334.536 -4.71476 3.90354 0
M  V30 3518 N 333.673 -5.9127 3.78608 0
M  V30 3519 H 338.513 -1.62125 2.50039 0
M  V30 3520 H 336.05 -0.790389 1.24062 0
M  V30 3521 H 338.008 -3.89186 1.50301 0
M  V30 3522 H 336.638 -3.16773 0.620876 0
M  V30 3523 H 335.69 -2.43091 2.92594 0
M  V30 3524 H 337.002 -3.3532 3.69272 0
M  V30 3525 H 336.156 -5.46157 2.64192 0
M  V30 3526 H 334.895 -4.54423 1.77063 0
M  V30 3527 H 333.9 -3.81648 3.95759 0
M  V30 3528 H 335.125 -4.76751 4.83617 0
M  V30 3529 H 333.071 -5.88813 2.89199 0
M  V30 3530 H 332.988 -5.98369 4.6205 0
M  V30 3531 H 334.256 -6.81992 3.77501 0
M  V30 3532 N 338.485 -1.33259 -0.841409 0
M  V30 3533 C 339.734 -1.23921 -1.59143 0
M  V30 3534 C 340.047 0.1941 -1.94635 0
M  V30 3535 O 341.253 0.409474 -2.68394 0
M  V30 3536 C 339.709 -2.17119 -2.87032 0
M  V30 3537 C 339.317 -3.65606 -2.58914 0
M  V30 3538 C 341.061 -2.16648 -3.65053 0
M  V30 3539 C 338.968 -4.50726 -3.82884 0
M  V30 3540 H 337.898 -0.460264 -0.597221 0
M  V30 3541 H 340.549 -1.58307 -0.927959 0
M  V30 3542 H 338.931 -1.75663 -3.54906 0
M  V30 3543 H 340.105 -4.15487 -1.99267 0
M  V30 3544 H 338.42 -3.68341 -1.942 0
M  V30 3545 H 341.017 -2.77474 -4.57069 0
M  V30 3546 H 341.36 -1.16088 -3.99787 0
M  V30 3547 H 341.893 -2.56453 -3.041 0
M  V30 3548 H 338.632 -5.52151 -3.53283 0
M  V30 3549 H 338.152 -4.0559 -4.41879 0
M  V30 3550 H 339.831 -4.64401 -4.50489 0
M  V30 3551 N 339.963 1.05934 -1.16686 0
M  V30 3552 C 340.893 2.1546 -0.899949 0
M  V30 3553 C 341.874 1.69391 0.155154 0
M  V30 3554 O 343.059 1.94199 0.00648693 0
M  V30 3555 C 340.189 3.44939 -0.404241 0
M  V30 3556 C 339.143 4.04536 -1.39767 0
M  V30 3557 C 338.469 5.29268 -0.760216 0
M  V30 3558 C 339.769 4.42893 -2.76845 0
M  V30 3559 H 341.463 2.38046 -1.81588 0
M  V30 3560 H 339.009 1.14404 -0.874514 0
M  V30 3561 H 340.962 4.20901 -0.204971 0
M  V30 3562 H 339.686 3.21983 0.547206 0
M  V30 3563 H 338.345 3.30635 -1.58355 0
M  V30 3564 H 337.993 5.02611 0.197831 0
M  V30 3565 H 337.693 5.70101 -1.42332 0
M  V30 3566 H 339.217 6.07924 -0.57105 0
M  V30 3567 H 340.631 5.09921 -2.62019 0
M  V30 3568 H 339.028 4.94721 -3.39663 0
M  V30 3569 H 340.098 3.53584 -3.31823 0
M  V30 3570 N 341.441 0.965919 1.2453 0
M  V30 3571 C 342.69 0.622437 1.91856 0
M  V30 3572 C 343.003 -0.846006 1.76358 0
M  V30 3573 O 344.209 -1.29993 2.38357 0
M  V30 3574 C 342.665 1.0626 3.43856 0
M  V30 3575 C 342.273 2.55437 3.68043 0
M  V30 3576 C 344.017 0.792183 4.17043 0
M  V30 3577 C 341.924 2.93196 5.13605 0
M  V30 3578 H 340.854 0.229092 0.718354 0
M  V30 3579 H 343.505 1.17189 1.41206 0
M  V30 3580 H 341.887 0.441476 3.93531 0
M  V30 3581 H 343.061 3.22665 3.28974 0
M  V30 3582 H 341.376 2.8007 3.08139 0
M  V30 3583 H 343.973 1.05031 5.24283 0
M  V30 3584 H 344.316 -0.271584 4.15413 0
M  V30 3585 H 344.849 1.37419 3.73311 0
M  V30 3586 H 341.588 3.98636 5.20355 0
M  V30 3587 H 341.108 2.30651 5.53679 0
M  V30 3588 H 342.787 2.83004 5.81823 0
M  V30 3589 N 342.919 -1.39368 0.735821 0
M  V30 3590 C 344.165 -2.00794 0.284544 0
M  V30 3591 C 344.498 -1.58255 -1.12557 0
M  V30 3592 O 343.773 -0.811819 -1.76748 0
M  V30 3593 C 344.056 -3.58011 0.387337 0
M  V30 3594 C 343.909 -4.10566 1.83728 0
M  V30 3595 C 345.228 -4.395 -0.22975 0
M  V30 3596 H 342.347 -0.729501 0.104866 0
M  V30 3597 H 344.989 -1.65564 0.93213 0
M  V30 3598 H 343.139 -3.88154 -0.164006 0
M  V30 3599 H 344.811 -3.91139 2.44556 0
M  V30 3600 H 343.054 -3.64095 2.35833 0
M  V30 3601 H 343.725 -5.19702 1.86047 0
M  V30 3602 H 346.201 -4.15406 0.240257 0
M  V30 3603 H 345.077 -5.48752 -0.127485 0
M  V30 3604 H 345.338 -4.22062 -1.3159 0
M  V30 3605 N 344.397 -0.483516 -1.5 0
M  V30 3606 C 345.645 0.067027 -2.01989 0
M  V30 3607 C 345.966 1.3909 -1.36671 0
M  V30 3608 O 345.236 1.88978 -0.516152 0
M  V30 3609 H 343.816 0.0277606 -0.746484 0
M  V30 3610 H 346.478 -0.636773 -1.84204 0
M  V30 3611 H 345.574 0.209484 -3.11396 0
M  V30 3612 N 345.875 1.56104 -0.216619 0
M  V30 3613 C 347.123 1.97781 0.415593 0
M  V30 3614 C 347.444 1.10536 1.60645 0
M  V30 3615 O 346.714 0.181303 1.95059 0
M  V30 3616 H 345.294 0.730415 0.156534 0
M  V30 3617 H 347.956 1.92445 -0.308366 0
M  V30 3618 H 347.052 3.03072 0.74525 0
M  V30 3619 N 347.353 -0.0568162 1.57498 0
M  V30 3620 C 348.601 -0.751617 1.87604 0
M  V30 3621 C 348.922 -1.77351 0.81066 0
M  V30 3622 O 348.192 -1.95254 -0.159018 0
M  V30 3623 H 346.772 -0.280583 0.692302 0
M  V30 3624 H 349.434 -0.0293483 1.94878 0
M  V30 3625 H 348.53 -1.25852 2.856 0
M  V30 3626 N 348.832 -1.54138 -0.328536 0
M  V30 3627 C 350.078 -1.7236 -1.06865 0
M  V30 3628 C 350.411 -0.493231 -1.87832 0
M  V30 3629 O 349.686 0.5098 -1.877 0
M  V30 3630 C 349.969 -2.99621 -1.99747 0
M  V30 3631 C 349.822 -4.32899 -1.22143 0
M  V30 3632 C 351.141 -3.22615 -2.99345 0
M  V30 3633 H 348.26 -0.627151 -0.387105 0
M  V30 3634 H 350.902 -1.86827 -0.345767 0
M  V30 3635 H 349.052 -2.87418 -2.61387 0
M  V30 3636 H 350.724 -4.56978 -0.630017 0
M  V30 3637 H 348.967 -4.30628 -0.523628 0
M  V30 3638 H 349.638 -5.18154 -1.90318 0
M  V30 3639 H 352.114 -3.34248 -2.47826 0
M  V30 3640 H 350.99 -4.13027 -3.61524 0
M  V30 3641 H 351.251 -2.3961 -3.71536 0
M  V30 3642 N 350.31 0.590341 -1.46126 0
M  V30 3643 C 351.273 1.68194 -1.55703 0
M  V30 3644 C 352.273 1.54808 -0.434868 0
M  V30 3645 O 353.463 1.59564 -0.698928 0
M  V30 3646 C 350.595 3.07575 -1.47005 0
M  V30 3647 H 351.788 1.61064 -2.52979 0
M  V30 3648 H 349.341 0.807541 -1.33823 0
M  V30 3649 H 350.076 3.20268 -0.509785 0
M  V30 3650 H 349.861 3.187 -2.28414 0
M  V30 3651 H 351.351 3.87055 -1.56776 0
M  V30 3652 N 351.788 1.33704 0.83433 0
M  V30 3653 C 353.036 1.25169 1.58673 0
M  V30 3654 C 353.357 -0.18127 1.94156 0
M  V30 3655 O 352.627 -1.11113 1.6134 0
M  V30 3656 H 351.207 0.4603 0.58833 0
M  V30 3657 H 353.869 1.67478 0.996847 0
M  V30 3658 H 352.965 1.84856 2.51465 0
M  V30 3659 N 353.266 -1.05314 1.17247 0
M  V30 3660 C 354.196 -2.1498 0.911362 0
M  V30 3661 C 355.177 -1.69471 -0.146169 0
M  V30 3662 O 356.362 -1.942 0.003812 0
M  V30 3663 C 353.492 -3.4472 0.422528 0
M  V30 3664 C 352.446 -4.03789 1.4191 0
M  V30 3665 C 351.772 -5.28858 0.788274 0
M  V30 3666 C 353.072 -4.41418 2.7919 0
M  V30 3667 H 354.766 -2.3708 1.82848 0
M  V30 3668 H 352.312 -1.13938 0.880569 0
M  V30 3669 H 354.265 -4.20787 0.227289 0
M  V30 3670 H 352.989 -3.22269 -0.530123 0
M  V30 3671 H 351.648 -3.2979 1.60106 0
M  V30 3672 H 351.296 -5.02709 -0.171173 0
M  V30 3673 H 350.996 -5.69338 1.45353 0
M  V30 3674 H 352.52 -6.07612 0.603282 0
M  V30 3675 H 353.934 -5.08524 2.64719 0
M  V30 3676 H 352.331 -4.92913 3.42282 0
M  V30 3677 H 353.401 -3.51819 3.33693 0
M  V30 3678 N 354.744 -0.972509 -1.24016 0
M  V30 3679 C 355.707 -0.511403 -2.23422 0
M  V30 3680 C 356.707 0.394679 -1.55881 0
M  V30 3681 O 357.897 0.189469 -1.73167 0
M  V30 3682 C 355.029 0.258769 -3.39916 0
M  V30 3683 H 356.222 -1.39024 -2.6573 0
M  V30 3684 H 353.775 -0.757585 -1.36713 0
M  V30 3685 H 354.51 1.1545 -3.03054 0
M  V30 3686 H 354.295 -0.391522 -3.9014 0
M  V30 3687 H 355.785 0.570244 -4.13688 0
M  V30 3688 N 356.222 1.38976 -0.743202 0
M  V30 3689 C 357.447 2.05161 -0.303936 0
M  V30 3690 C 357.872 1.55677 1.05576 0
M  V30 3691 O 357.23 0.704131 1.67068 0
M  V30 3692 C 357.278 3.59138 -0.324373 0
M  V30 3693 O 356.382 4.06668 0.685204 0
M  V30 3694 H 355.723 0.649815 -0.136518 0
M  V30 3695 H 358.253 1.77852 -1.01142 0
M  V30 3696 H 358.263 4.07639 -0.171618 0
M  V30 3697 H 356.938 3.94515 -1.31647 0
M  V30 3698 H 355.515 3.69561 0.497913 0
M  V30 3699 N 357.7 0.491464 1.49741 0
M  V30 3700 C 358.663 -0.280906 2.27472 0
M  V30 3701 C 359.663 -0.902454 1.33088 0
M  V30 3702 O 360.853 -0.768465 1.56334 0
M  V30 3703 C 357.985 -1.40209 3.10732 0
M  V30 3704 H 359.178 0.401056 2.97206 0
M  V30 3705 H 356.731 0.246131 1.5435 0
M  V30 3706 H 357.466 -2.11849 2.45541 0
M  V30 3707 H 357.251 -0.961969 3.80117 0
M  V30 3708 H 358.741 -1.9464 3.69466 0
M  V30 3709 N 359.178 -1.55987 0.224894 0
M  V30 3710 C 360.426 -1.97998 -0.405099 0
M  V30 3711 C 360.747 -1.11387 -1.60056 0
M  V30 3712 O 360.017 -0.191645 -1.9496 0
M  V30 3713 H 358.597 -0.731235 -0.152658 0
M  V30 3714 H 361.259 -1.92279 0.318567 0
M  V30 3715 H 360.355 -3.03463 -0.729167 0
M  V30 3716 N 360.656 0.0484629 -1.57525 0
M  V30 3717 C 361.619 1.03956 -2.04269 0
M  V30 3718 C 362.619 1.30211 -0.943496 0
M  V30 3719 O 363.809 1.25539 -1.20771 0
M  V30 3720 C 360.941 2.37742 -2.44319 0
M  V30 3721 H 362.134 0.636182 -2.93075 0
M  V30 3722 H 359.687 0.294811 -1.53494 0
M  V30 3723 H 360.422 2.82866 -1.5861 0
M  V30 3724 H 360.207 2.20021 -3.24551 0
M  V30 3725 H 361.697 3.08936 -2.80978 0
M  V30 3726 N 362.134 1.5431 0.320358 0
M  V30 3727 C 363.097 1.83195 1.3774 0
M  V30 3728 C 364.097 0.703906 1.44575 0
M  V30 3729 O 365.287 0.972214 1.44546 0
M  V30 3730 C 362.419 1.99487 2.76438 0
M  V30 3731 H 363.612 2.77642 1.1338 0
M  V30 3732 H 361.165 1.46076 0.556012 0
M  V30 3733 H 361.9 1.07262 3.06048 0
M  V30 3734 H 361.685 2.81575 2.7287 0
M  V30 3735 H 363.175 2.23271 3.52902 0
M  V30 3736 N 363.613 -0.582584 1.46437 0
M  V30 3737 C 364.56 -1.69164 1.5701 0
M  V30 3738 C 365.53 -1.60847 0.414403 0
M  V30 3739 O 366.715 -1.80058 0.631171 0
M  V30 3740 C 363.855 -3.075 1.56646 0
M  V30 3741 C 362.968 -3.2644 2.82951 0
M  V30 3742 C 362.103 -4.55026 2.7409 0
M  V30 3743 C 361.142 -4.6731 3.95333 0
M  V30 3744 N 360.279 -5.87221 3.84858 0
M  V30 3745 H 365.119 -1.59464 2.51744 0
M  V30 3746 H 362.656 -0.777186 1.24893 0
M  V30 3747 H 364.614 -3.8757 1.5442 0
M  V30 3748 H 363.244 -3.16096 0.654439 0
M  V30 3749 H 362.296 -2.39974 2.95155 0
M  V30 3750 H 363.608 -3.31385 3.72808 0
M  V30 3751 H 362.762 -5.43324 2.6997 0
M  V30 3752 H 361.501 -4.52519 1.81873 0
M  V30 3753 H 360.506 -3.77429 3.99784 0
M  V30 3754 H 361.731 -4.71595 4.88646 0
M  V30 3755 H 359.677 -5.85712 2.95427 0
M  V30 3756 H 359.594 -5.93435 4.6837 0
M  V30 3757 H 360.862 -6.7795 3.84713 0
M  V30 3758 N 365.091 -1.34144 -0.827227 0
M  V30 3759 C 366.316 -1.29476 -1.62021 0
M  V30 3760 C 366.741 0.129292 -1.87655 0
M  V30 3761 O 366.099 1.08967 -1.449 0
M  V30 3762 C 366.147 -2.08702 -2.94068 0
M  V30 3763 O 365.251 -1.45359 -3.85933 0
M  V30 3764 H 364.592 -0.444881 -0.492927 0
M  V30 3765 H 367.122 -1.76882 -1.02829 0
M  V30 3766 H 367.132 -2.19898 -3.43669 0
M  V30 3767 H 365.807 -3.12241 -2.74734 0
M  V30 3768 H 364.384 -1.42879 -3.44442 0
M  V30 3769 N 366.569 1.04691 -1.17803 0
M  V30 3770 C 367.502 2.12068 -0.842765 0
M  V30 3771 C 368.48 1.61455 0.192608 0
M  V30 3772 O 369.664 1.88359 0.072995 0
M  V30 3773 C 366.791 3.37715 -0.258063 0
M  V30 3774 C 365.837 4.07164 -1.26962 0
M  V30 3775 S 366.67 4.55047 -2.82299 0
M  V30 3776 C 367.826 5.83935 -2.25323 0
M  V30 3777 H 368.059 2.4018 -1.75217 0
M  V30 3778 H 365.592 1.17366 -1.00323 0
M  V30 3779 H 367.55 4.10435 0.0727935 0
M  V30 3780 H 366.211 3.0773 0.629357 0
M  V30 3781 H 365.404 4.9746 -0.809263 0
M  V30 3782 H 365.006 3.40533 -1.54639 0
M  V30 3783 H 367.298 6.57552 -1.63192 0
M  V30 3784 H 368.241 6.34725 -3.13894 0
M  V30 3785 H 368.649 5.3874 -1.68582 0
M  V30 3786 N 368.047 0.979072 1.23499 0
M  V30 3787 C 369.295 0.645941 1.91499 0
M  V30 3788 C 369.616 -0.822948 1.76784 0
M  V30 3789 O 368.886 -1.58854 1.14639 0
M  V30 3790 H 367.466 0.235919 0.708767 0
M  V30 3791 H 370.128 1.2426 1.50152 0
M  V30 3792 H 369.224 0.896411 2.9895 0
M  V30 3793 N 369.525 -1.3858 0.750561 0
M  V30 3794 C 370.488 -2.28836 0.129152 0
M  V30 3795 C 371.488 -1.47045 -0.650714 0
M  V30 3796 O 372.678 -1.6753 -0.477428 0
M  V30 3797 C 369.81 -3.30751 -0.825622 0
M  V30 3798 H 371.003 -2.85294 0.924516 0
M  V30 3799 H 368.556 -1.47489 0.517376 0
M  V30 3800 H 369.291 -2.79378 -1.64677 0
M  V30 3801 H 369.076 -3.91177 -0.268852 0
M  V30 3802 H 370.566 -3.98249 -1.2565 0
M  V30 3803 N 371.003 -0.499398 -1.49478 0
M  V30 3804 C 372.252 0.0475259 -2.01644 0
M  V30 3805 C 372.565 1.38195 -1.38425 0
M  V30 3806 O 373.771 2.01547 -1.8191 0
M  V30 3807 C 372.227 0.135164 -3.59646 0
M  V30 3808 C 371.835 -1.19252 -4.31837 0
M  V30 3809 C 373.579 0.632538 -4.19761 0
M  V30 3810 C 371.486 -1.06713 -5.81693 0
M  V30 3811 H 370.416 0.0215349 -0.753692 0
M  V30 3812 H 373.067 -0.638577 -1.7203 0
M  V30 3813 H 371.449 0.885681 -3.85969 0
M  V30 3814 H 372.623 -1.9562 -4.17216 0
M  V30 3815 H 370.938 -1.62321 -3.83459 0
M  V30 3816 H 373.535 0.743833 -5.29501 0
M  V30 3817 H 373.878 1.63098 -3.83021 0
M  V30 3818 H 374.411 -0.0613987 -3.97753 0
M  V30 3819 H 371.15 -2.03979 -6.22955 0
M  V30 3820 H 370.67 -0.344307 -5.98811 0
M  V30 3821 H 372.349 -0.745208 -6.42694 0
M  V30 3822 N 372.481 1.55866 -0.233164 0
M  V30 3823 C 373.727 1.98897 0.395959 0
M  V30 3824 C 374.06 1.12091 1.58585 0
M  V30 3825 O 373.335 0.181182 1.93654 0
M  V30 3826 C 373.618 3.50658 0.819224 0
M  V30 3827 C 373.471 4.48233 -0.375109 0
M  V30 3828 C 374.79 4.07135 1.67121 0
M  V30 3829 H 371.909 0.723102 0.142451 0
M  V30 3830 H 374.551 1.87082 -0.331725 0
M  V30 3831 H 372.701 3.60857 1.43925 0
M  V30 3832 H 374.373 4.50031 -1.01341 0
M  V30 3833 H 372.616 4.21624 -1.02058 0
M  V30 3834 H 373.287 5.51988 -0.0358328 0
M  V30 3835 H 375.763 3.99952 1.14795 0
M  V30 3836 H 374.639 5.13615 1.93625 0
M  V30 3837 H 374.9 3.54736 2.63846 0
M  V30 3838 N 373.959 -0.0401083 1.57549 0
M  V30 3839 C 375.375 -0.395556 1.54621 0
M  V30 3840 C 375.575 -1.77281 0.957799 0
M  V30 3841 O 374.631 -2.45888 0.574031 0
M  V30 3842 C 375.944 -0.307535 2.99123 0
M  V30 3843 C 377.492 -0.385425 3.10618 0
M  V30 3844 C 377.967 -0.326973 4.56831 0
M  V30 3845 N 379.458 -0.386102 4.61588 0
M  V30 3846 C 380.193 -0.363591 5.72246 0
M  V30 3847 N 379.689 -0.29402 6.92176 0
M  V30 3848 N 381.482 -0.412503 5.60584 0
M  V30 3849 H 373.633 0.861325 1.94152 0
M  V30 3850 H 375.896 0.326445 0.890021 0
M  V30 3851 H 375.602 0.638461 3.45856 0
M  V30 3852 H 375.476 -1.10552 3.60636 0
M  V30 3853 H 377.863 -1.32185 2.63839 0
M  V30 3854 H 377.944 0.44171 2.51957 0
M  V30 3855 H 377.588 0.605738 5.04275 0
M  V30 3856 H 377.518 -1.17207 5.13391 0
M  V30 3857 H 380.009 -0.442832 3.75296 0
M  V30 3858 H 380.322 -0.28164 7.72287 0
M  V30 3859 H 378.667 -0.260232 6.94513 0
M  V30 3860 H 381.858 -0.464769 4.65787 0
M  V30 3861 H 382.031 -0.391492 6.46816 0
M  V30 3862 N 375.437 -1.54477 -0.31217 0
M  V30 3863 C 376.685 -1.72884 -1.04668 0
M  V30 3864 C 377.006 -0.511477 -1.88173 0
M  V30 3865 O 376.276 0.474407 -1.90069 0
M  V30 3866 H 374.856 -0.637461 -0.389425 0
M  V30 3867 H 377.518 -1.91807 -0.345852 0
M  V30 3868 H 376.614 -2.61334 -1.70619 0
M  V30 3869 N 376.915 0.57481 -1.46744 0
M  V30 3870 C 378.162 1.33272 -1.52462 0
M  V30 3871 C 378.49 1.93669 -0.179572 0
M  V30 3872 O 377.745 1.7743 0.825664 0
M  V30 3873 C 378.044 2.476 -2.57738 0
M  V30 3874 C 377.71 2.05146 -4.01529 0
M  V30 3875 C 376.372 1.93284 -4.40676 0
M  V30 3876 C 378.724 1.72506 -4.91824 0
M  V30 3877 C 376.052 1.47049 -5.67973 0
M  V30 3878 C 378.404 1.27748 -6.19567 0
M  V30 3879 C 377.068 1.14468 -6.57612 0
M  V30 3880 H 376.338 0.487678 -0.557899 0
M  V30 3881 H 378.985 0.646456 -1.80259 0
M  V30 3882 H 377.29 3.21708 -2.23632 0
M  V30 3883 H 378.987 3.05807 -2.5939 0
M  V30 3884 H 375.577 2.15316 -3.7059 0
M  V30 3885 H 379.761 1.80552 -4.62293 0
M  V30 3886 H 375.017 1.35417 -5.96215 0
M  V30 3887 H 379.191 1.01547 -6.88957 0
M  V30 3888 H 376.818 0.78419 -7.56145 0
M  V30 3889 N 378.394 1.34581 0.820102 0
M  V30 3890 C 379.671 1.17675 1.56244 0
M  V30 3891 C 380.051 -0.249541 2.0962 0
M  V30 3892 O 379.399 -1.25125 1.91196 0
M  V30 3893 C 379.609 2.23364 2.6816 0
M  V30 3894 C 380.957 2.58485 3.36854 0
M  V30 3895 O 381.981 2.22175 2.78418 0
M  V30 3896 O 380.84 3.20868 4.42386 0
M  V30 3897 H 377.934 0.456333 0.689702 0
M  V30 3898 H 380.48 1.46222 0.861231 0
M  V30 3899 H 379.252 3.19087 2.26493 0
M  V30 3900 H 378.875 1.96009 3.45928 0
M  V30 3901 N 379.872 -1.04064 1.18357 0
M  V30 3902 C 381.1 -1.80916 1.00384 0
M  V30 3903 C 381.515 -1.83414 -0.447738 0
M  V30 3904 O 380.872 -1.26962 -1.31099 0
M  V30 3905 C 380.923 -3.26516 1.55144 0
M  V30 3906 O 380.644 -3.2424 2.94618 0
M  V30 3907 C 382.145 -4.20013 1.41789 0
M  V30 3908 H 379.365 -0.569728 0.354474 0
M  V30 3909 H 381.909 -1.31151 1.56906 0
M  V30 3910 H 380.064 -3.73512 1.02798 0
M  V30 3911 H 380.478 -4.15452 3.20156 0
M  V30 3912 H 381.952 -5.20111 1.84901 0
M  V30 3913 H 382.429 -4.37667 0.36661 0
M  V30 3914 H 383.035 -3.78881 1.93207 0
M  V30 3915 N 381.35 -0.985608 -1.22978 0
M  V30 3916 C 382.766 -0.695104 -1.43668 0
M  V30 3917 C 382.966 0.736866 -1.87543 0
M  V30 3918 O 382.022 1.50868 -2.02473 0
M  V30 3919 C 383.335 -1.69447 -2.48412 0
M  V30 3920 C 384.883 -1.70909 -2.62219 0
M  V30 3921 C 385.358 -2.6969 -3.70178 0
M  V30 3922 N 386.849 -2.6824 -3.77626 0
M  V30 3923 C 387.584 -3.41339 -4.60733 0
M  V30 3924 N 387.08 -4.24015 -5.4789 0
M  V30 3925 N 388.873 -3.30079 -4.54977 0
M  V30 3926 H 381.024 -1.91054 -0.928016 0
M  V30 3927 H 383.287 -0.823553 -0.469536 0
M  V30 3928 H 382.993 -2.7188 -2.23102 0
M  V30 3929 H 382.867 -1.48147 -3.46889 0
M  V30 3930 H 385.254 -0.691785 -2.86877 0
M  V30 3931 H 385.335 -1.96276 -1.6404 0
M  V30 3932 H 384.979 -3.71566 -3.46268 0
M  V30 3933 H 384.909 -2.41595 -4.67909 0
M  V30 3934 H 387.4 -2.08243 -3.15346 0
M  V30 3935 H 387.713 -4.76636 -6.08308 0
M  V30 3936 H 386.058 -4.28104 -5.47496 0
M  V30 3937 H 389.249 -2.64937 -3.85909 0
M  V30 3938 H 389.422 -3.87308 -5.19516 0
M  V30 3939 N 382.828 1.3818 -0.7579 0
M  V30 3940 C 383.791 2.28764 -0.141286 0
M  V30 3941 C 384.791 1.47388 0.642907 0
M  V30 3942 O 385.981 1.67781 0.468536 0
M  V30 3943 C 383.113 3.31184 0.808069 0
M  V30 3944 H 384.306 2.848 -0.939633 0
M  V30 3945 H 381.859 1.47212 -0.525191 0
M  V30 3946 H 382.594 2.80247 1.63193 0
M  V30 3947 H 382.379 3.91314 0.248104 0
M  V30 3948 H 383.869 3.98909 1.23536 0
M  V30 3949 N 384.306 0.507319 1.49211 0
M  V30 3950 C 385.269 -0.256763 2.27757 0
M  V30 3951 C 386.269 -0.888287 1.34038 0
M  V30 3952 O 387.459 -0.751841 1.5714 0
M  V30 3953 C 384.591 -1.36905 3.12202 0
M  V30 3954 H 385.784 0.432557 2.96764 0
M  V30 3955 H 383.337 0.262488 1.5408 0
M  V30 3956 H 384.072 -2.09233 2.47775 0
M  V30 3957 H 383.857 -0.921599 3.81115 0
M  V30 3958 H 385.347 -1.9071 3.7151 0
M  V30 3959 N 385.784 -1.5574 0.241426 0
M  V30 3960 C 386.747 -2.19877 -0.647063 0
M  V30 3961 C 387.747 -1.16642 -1.10686 0
M  V30 3962 O 388.937 -1.41757 -1.01245 0
M  V30 3963 C 386.069 -2.83797 -1.88871 0
M  V30 3964 H 387.262 -2.99772 -0.087574 0
M  V30 3965 H 384.815 -1.56298 -0.00813574 0
M  V30 3966 H 385.55 -2.07824 -2.48957 0
M  V30 3967 H 385.335 -3.59414 -1.56728 0
M  V30 3968 H 386.825 -3.32898 -2.52129 0
M  V30 3969 N 387.262 0.0317525 -1.57568 0
M  V30 3970 C 388.192 1.03274 -2.0942 0
M  V30 3971 C 389.173 1.3788 -0.996143 0
M  V30 3972 O 390.358 1.46811 -1.27122 0
M  V30 3973 C 387.488 2.33448 -2.57137 0
M  V30 3974 C 386.442 2.13091 -3.71182 0
M  V30 3975 C 385.768 3.49001 -4.05095 0
M  V30 3976 C 387.068 1.51928 -4.99715 0
M  V30 3977 H 388.762 0.60112 -2.93303 0
M  V30 3978 H 386.308 0.287705 -1.41097 0
M  V30 3979 H 388.261 3.03802 -2.92032 0
M  V30 3980 H 386.985 2.78665 -1.70333 0
M  V30 3981 H 385.644 1.45171 -3.36632 0
M  V30 3982 H 385.292 3.91862 -3.15362 0
M  V30 3983 H 384.992 3.36207 -4.81911 0
M  V30 3984 H 386.516 4.20721 -4.42522 0
M  V30 3985 H 387.93 2.12196 -5.32584 0
M  V30 3986 H 386.327 1.49716 -5.81124 0
M  V30 3987 H 387.397 0.484811 -4.8247 0
M  V30 3988 N 388.74 1.54641 0.303973 0
M  V30 3989 C 389.65 1.88439 1.39743 0
M  V30 3990 C 390.666 0.778239 1.55626 0
M  V30 3991 O 391.842 1.07442 1.70347 0
M  V30 3992 C 388.907 2.12212 2.74166 0
M  V30 3993 C 387.968 3.35936 2.67293 0
M  V30 3994 C 387.201 3.58566 3.95305 0
M  V30 3995 O 387.424 2.84263 4.9452 0
M  V30 3996 O 386.358 4.52078 3.97378 0
M  V30 3997 H 390.184 2.81458 1.14083 0
M  V30 3998 H 387.769 1.40793 0.499768 0
M  V30 3999 H 389.651 2.29067 3.53704 0
M  V30 4000 H 388.326 1.22379 2.99675 0
M  V30 4001 H 387.233 3.24448 1.86237 0
M  V30 4002 H 388.566 4.2589 2.46736 0
M  V30 4003 N 390.218 -0.567019 1.47046 0
M  V30 4004 C 391.15 -1.68985 1.54844 0
M  V30 4005 C 392.163 -1.56869 0.435431 0
M  V30 4006 O 393.352 -1.64006 0.70457 0
M  V30 4007 C 390.452 -3.07373 1.42742 0
M  V30 4008 C 389.625 -3.45339 2.6844 0
M  V30 4009 C 388.684 -4.62849 2.50314 0
M  V30 4010 O 387.71 -4.67922 3.24095 0
M  V30 4011 N 388.912 -5.58726 1.57499 0
M  V30 4012 H 391.677 -1.62745 2.51663 0
M  V30 4013 H 389.238 -0.753411 1.43302 0
M  V30 4014 H 391.23 -3.83803 1.28365 0
M  V30 4015 H 389.8 -3.07893 0.540445 0
M  V30 4016 H 389.02 -2.58455 2.97648 0
M  V30 4017 H 390.308 -3.67476 3.51907 0
M  V30 4018 H 389.706 -5.57376 0.966876 0
M  V30 4019 H 388.263 -6.34523 1.49078 0
M  V30 4020 N 391.696 -1.35014 -0.812953 0
M  V30 4021 C 392.943 -1.27931 -1.56971 0
M  V30 4022 C 393.271 0.148034 -1.93936 0
M  V30 4023 O 392.526 1.11175 -1.61054 0
M  V30 4024 C 392.825 -2.12524 -2.87347 0
M  V30 4025 C 392.491 -3.61401 -2.6963 0
M  V30 4026 C 391.153 -4.01983 -2.64506 0
M  V30 4027 C 393.505 -4.55894 -2.52607 0
M  V30 4028 C 390.833 -5.35235 -2.40293 0
M  V30 4029 C 393.185 -5.89336 -2.29925 0
M  V30 4030 C 391.849 -6.2907 -2.23219 0
M  V30 4031 H 391.119 -0.468131 -0.574399 0
M  V30 4032 H 393.766 -1.66851 -0.939836 0
M  V30 4033 H 392.071 -1.66463 -3.54679 0
M  V30 4034 H 393.768 -2.04383 -3.45005 0
M  V30 4035 H 390.358 -3.29193 -2.74463 0
M  V30 4036 H 394.542 -4.25431 -2.55583 0
M  V30 4037 H 389.798 -5.65028 -2.33566 0
M  V30 4038 H 393.972 -6.62139 -2.15743 0
M  V30 4039 H 391.599 -7.32256 -2.04219 0
M  V30 4040 N 393.175 1.03435 -1.18907 0
M  V30 4041 C 394.122 2.11591 -0.921837 0
M  V30 4042 C 395.092 1.65499 0.141226 0
M  V30 4043 O 396.277 1.908 0.000242829 0
M  V30 4044 C 393.417 3.42012 -0.460616 0
M  V30 4045 C 392.53 4.01682 -1.58982 0
M  V30 4046 C 391.665 5.20091 -1.08069 0
M  V30 4047 C 390.704 5.71805 -2.18416 0
M  V30 4048 N 389.841 6.81494 -1.68849 0
M  V30 4049 H 394.681 2.33787 -1.8479 0
M  V30 4050 H 392.218 1.1467 -0.921373 0
M  V30 4051 H 394.176 4.16834 -0.174642 0
M  V30 4052 H 392.806 3.19944 0.428467 0
M  V30 4053 H 391.858 3.24127 -1.99113 0
M  V30 4054 H 393.17 4.36084 -2.4214 0
M  V30 4055 H 392.324 6.02051 -0.749615 0
M  V30 4056 H 391.063 4.87209 -0.218771 0
M  V30 4057 H 390.068 4.88461 -2.5236 0
M  V30 4058 H 391.293 6.06728 -3.05054 0
M  V30 4059 H 389.239 6.50475 -0.849572 0
M  V30 4060 H 389.156 7.14994 -2.45601 0
M  V30 4061 H 390.424 7.67063 -1.38689 0
M  V30 4062 N 394.653 0.992116 1.22453 0
M  V30 4063 C 395.878 0.685644 1.95739 0
M  V30 4064 C 396.303 -0.743 1.72804 0
M  V30 4065 O 395.661 -1.50778 1.00676 0
M  V30 4066 C 395.709 0.996293 3.46564 0
M  V30 4067 O 394.813 0.0945512 4.12292 0
M  V30 4068 H 394.154 0.256694 0.612376 0
M  V30 4069 H 396.684 1.32888 1.5557 0
M  V30 4070 H 396.694 0.93781 3.97076 0
M  V30 4071 H 395.369 2.03733 3.62582 0
M  V30 4072 H 393.946 0.208451 3.72317 0
M  V30 4073 N 396.131 -1.37776 0.765217 0
M  V30 4074 C 397.061 -2.32945 0.160953 0
M  V30 4075 C 398.042 -1.55454 -0.690516 0
M  V30 4076 O 399.227 -1.83721 -0.629318 0
M  V30 4077 C 396.357 -3.39669 -0.724031 0
M  V30 4078 C 395.311 -4.27992 0.0256173 0
M  V30 4079 C 394.637 -5.25673 -0.978383 0
M  V30 4080 C 395.937 -5.08309 1.20082 0
M  V30 4081 H 397.631 -2.83728 0.955969 0
M  V30 4082 H 395.177 -1.36416 0.461149 0
M  V30 4083 H 397.13 -4.05219 -1.15652 0
M  V30 4084 H 395.854 -2.87396 -1.5515 0
M  V30 4085 H 394.513 -3.63964 0.438812 0
M  V30 4086 H 394.161 -4.69682 -1.80022 0
M  V30 4087 H 393.861 -5.85625 -0.481378 0
M  V30 4088 H 395.385 -5.94098 -1.40995 0
M  V30 4089 H 396.799 -5.67034 0.845307 0
M  V30 4090 H 395.196 -5.77554 1.62947 0
M  V30 4091 H 396.266 -4.41365 2.00811 0
M  V30 4092 N 397.609 -0.515225 -1.4894 0
M  V30 4093 C 398.857 0.0241671 -2.02086 0
M  V30 4094 C 399.178 1.3616 -1.3959 0
M  V30 4095 O 398.448 1.87841 -0.556121 0
M  V30 4096 H 397.028 0.0119203 -0.746905 0
M  V30 4097 H 399.69 -0.675702 -1.82812 0
M  V30 4098 H 398.786 0.143385 -3.1177 0
M  V30 4099 N 399.087 1.5561 -0.249682 0
M  V30 4100 C 400.05 2.20217 0.635394 0
M  V30 4101 C 401.05 1.17227 1.10066 0
M  V30 4102 O 402.24 1.42292 1.00492 0
M  V30 4103 C 399.372 2.84794 1.87363 0
M  V30 4104 H 400.565 2.99814 0.0716752 0
M  V30 4105 H 398.118 1.563 -0.000153234 0
M  V30 4106 H 398.853 2.09142 2.47851 0
M  V30 4107 H 398.638 3.60241 1.5482 0
M  V30 4108 H 400.128 3.3423 2.5036 0
M  V30 4109 N 400.565 -0.0233959 1.57583 0
M  V30 4110 C 401.475 -1.03907 2.10334 0
M  V30 4111 C 402.491 -1.39257 1.04323 0
M  V30 4112 O 403.667 -1.48462 1.36091 0
M  V30 4113 C 400.732 -2.31938 2.57693 0
M  V30 4114 C 399.793 -2.03117 3.78209 0
M  V30 4115 C 399.026 -3.25043 4.233 0
M  V30 4116 O 399.249 -4.35916 3.67876 0
M  V30 4117 O 398.183 -3.10411 5.15683 0
M  V30 4118 H 402.009 -0.620748 2.97288 0
M  V30 4119 H 399.594 -0.240743 1.47448 0
M  V30 4120 H 401.476 -3.07196 2.88458 0
M  V30 4121 H 400.151 -2.73055 1.73847 0
M  V30 4122 H 399.058 -1.25408 3.52454 0
M  V30 4123 H 400.391 -1.66852 4.63056 0
M  V30 4124 N 402.043 -1.548 -0.295768 0
M  V30 4125 C 403.454 -1.65274 -0.868411 0
M  V30 4126 C 403.805 -0.56481 -1.87894 0
M  V30 4127 O 402.93 0.29767 -2.14343 0
M  V30 4128 C 403.525 -2.99603 -1.58188 0
M  V30 4129 C 402.084 -3.12181 -2.10286 0
M  V30 4130 C 401.231 -2.6098 -0.93727 0
M  V30 4131 H 404.182 -1.58534 -0.0726422 0
M  V30 4132 H 404.203 -2.91319 -2.44772 0
M  V30 4133 H 403.715 -3.78764 -0.846151 0
M  V30 4134 H 401.816 -2.3775 -2.8689 0
M  V30 4135 H 401.929 -4.18415 -2.33379 0
M  V30 4136 H 400.293 -2.17564 -1.32431 0
M  V30 4137 H 401.076 -3.42623 -0.215414 0
M  V30 4138 N 403.521 0.559213 -1.47345 0
M  V30 4139 C 404.451 1.67622 -1.62558 0
M  V30 4140 C 405.432 1.63331 -0.475087 0
M  V30 4141 O 406.617 1.80983 -0.704182 0
M  V30 4142 C 403.747 3.0626 -1.63774 0
M  V30 4143 C 402.701 3.25397 -2.7803 0
M  V30 4144 C 402.027 4.64801 -2.64318 0
M  V30 4145 C 403.327 3.10965 -4.19641 0
M  V30 4146 H 405.021 1.55146 -2.56067 0
M  V30 4147 H 402.567 0.744961 -1.23233 0
M  V30 4148 H 404.52 3.84247 -1.73008 0
M  V30 4149 H 403.244 3.1969 -0.66825 0
M  V30 4150 H 401.903 2.49817 -2.68304 0
M  V30 4151 H 401.551 4.75028 -1.65401 0
M  V30 4152 H 401.251 4.78555 -3.40968 0
M  V30 4153 H 402.775 5.44926 -2.75478 0
M  V30 4154 H 404.189 3.78772 -4.30354 0
M  V30 4155 H 402.586 3.36229 -4.97062 0
M  V30 4156 H 403.656 2.07736 -4.38148 0
M  V30 4157 N 404.999 1.35443 0.805782 0
M  V30 4158 C 405.909 1.30546 1.94923 0
M  V30 4159 C 406.925 0.210233 1.72725 0
M  V30 4160 O 408.101 0.43975 1.9654 0
M  V30 4161 C 405.166 1.07782 3.29521 0
M  V30 4162 C 404.227 2.26625 3.64609 0
M  V30 4163 C 403.46 2.04938 4.92784 0
M  V30 4164 O 403.683 1.01624 5.61274 0
M  V30 4165 O 402.617 2.9232 5.26149 0
M  V30 4166 H 406.443 2.26779 2.02002 0
M  V30 4167 H 404.028 1.15823 0.943682 0
M  V30 4168 H 405.91 0.969392 4.10098 0
M  V30 4169 H 404.585 0.146003 3.23371 0
M  V30 4170 H 403.492 2.43033 2.84404 0
M  V30 4171 H 404.825 3.18257 3.75464 0
M  V30 4172 N 406.477 -1.02803 1.19454 0
M  V30 4173 C 407.723 -1.76478 0.999171 0
M  V30 4174 C 408.056 -1.88456 -0.468828 0
M  V30 4175 O 407.331 -1.40198 -1.34814 0
M  V30 4176 C 407.614 -3.19044 1.66981 0
M  V30 4177 C 407.467 -3.14932 3.21151 0
M  V30 4178 C 408.786 -4.17456 1.39349 0
M  V30 4179 H 405.905 -0.640614 0.364393 0
M  V30 4180 H 408.547 -1.20005 1.47305 0
M  V30 4181 H 406.697 -3.67263 1.2669 0
M  V30 4182 H 408.369 -2.74605 3.70661 0
M  V30 4183 H 406.612 -2.52625 3.52652 0
M  V30 4184 H 407.283 -4.1566 3.63223 0
M  V30 4185 H 409.759 -3.77842 1.74283 0
M  V30 4186 H 408.635 -5.154 1.88823 0
M  V30 4187 H 408.896 -4.40949 0.318813 0
M  V30 4188 N 407.956 -0.998596 -1.21925 0
M  V30 4189 C 409.233 -0.593401 -1.86382 0
M  V30 4190 C 409.613 0.92916 -1.89552 0
M  V30 4191 O 408.961 1.81347 -1.39017 0
M  V30 4192 C 409.171 -1.22039 -3.26967 0
M  V30 4193 C 410.519 -1.32449 -4.03413 0
M  V30 4194 O 411.543 -1.17522 -3.36254 0
M  V30 4195 O 410.402 -1.56395 -5.23644 0
M  V30 4196 H 407.496 -0.202385 -0.801854 0
M  V30 4197 H 410.042 -1.09484 -1.29659 0
M  V30 4198 H 408.814 -2.26158 -3.19325 0
M  V30 4199 H 408.437 -0.704906 -3.91301 0
M  V30 4200 N 409.434 1.37368 -0.772513 0
M  V30 4201 C 410.364 2.32856 -0.173304 0
M  V30 4202 C 411.345 1.55818 0.682262 0
M  V30 4203 O 412.53 1.84052 0.619566 0
M  V30 4204 C 409.66 3.40048 0.706007 0
M  V30 4205 C 408.614 4.27973 -0.0483144 0
M  V30 4206 C 407.94 5.26184 0.950491 0
M  V30 4207 C 409.24 5.07665 -1.22776 0
M  V30 4208 H 410.934 2.83217 -0.971002 0
M  V30 4209 H 408.48 1.3617 -0.468377 0
M  V30 4210 H 410.433 4.05827 1.13501 0
M  V30 4211 H 409.157 2.88214 1.53623 0
M  V30 4212 H 407.816 3.63726 -0.458107 0
M  V30 4213 H 407.464 4.7063 1.77529 0
M  V30 4214 H 407.164 5.85872 0.450314 0
M  V30 4215 H 408.688 5.94838 1.37842 0
M  V30 4216 H 410.102 5.66578 -0.875366 0
M  V30 4217 H 408.499 5.76681 -1.66007 0
M  V30 4218 H 409.569 4.40294 -2.03149 0
M  V30 4219 N 410.912 0.523116 1.48665 0
M  V30 4220 C 411.859 -0.243398 2.29513 0
M  V30 4221 C 412.829 -0.940139 1.36933 0
M  V30 4222 O 414.014 -0.942503 1.65896 0
M  V30 4223 C 411.154 -1.28855 3.20141 0
M  V30 4224 C 410.267 -0.60135 4.27794 0
M  V30 4225 C 409.402 -1.62884 5.05611 0
M  V30 4226 C 408.441 -0.924726 6.05075 0
M  V30 4227 N 407.578 -1.89744 6.75975 0
M  V30 4228 H 412.418 0.452234 2.94549 0
M  V30 4229 H 409.955 0.234858 1.45213 0
M  V30 4230 H 411.913 -1.90674 3.71079 0
M  V30 4231 H 410.543 -1.95266 2.57043 0
M  V30 4232 H 409.595 0.130623 3.80176 0
M  V30 4233 H 410.907 -0.0481585 4.98777 0
M  V30 4234 H 410.061 -2.32149 5.60528 0
M  V30 4235 H 408.8 -2.21592 4.34452 0
M  V30 4236 H 407.805 -0.217966 5.49368 0
M  V30 4237 H 409.03 -0.343851 6.78229 0
M  V30 4238 H 406.976 -2.47373 6.07571 0
M  V30 4239 H 406.893 -1.3955 7.43009 0
M  V30 4240 H 408.161 -2.58229 7.35485 0
M  V30 4241 N 412.39 -1.55475 0.257931 0
M  V30 4242 C 413.3 -2.2549 -0.647425 0
M  V30 4243 C 414.316 -1.2748 -1.18427 0
M  V30 4244 O 415.492 -1.6038 -1.2182 0
M  V30 4245 C 412.557 -2.94916 -1.82278 0
M  V30 4246 C 411.618 -4.08363 -1.32432 0
M  V30 4247 C 410.851 -4.74469 -2.44366 0
M  V30 4248 O 411.074 -4.39701 -3.63344 0
M  V30 4249 O 410.008 -5.62763 -2.13497 0
M  V30 4250 H 413.834 -3.03593 -0.0807707 0
M  V30 4251 H 411.419 -1.49377 0.0259962 0
M  V30 4252 H 413.301 -3.38606 -2.50846 0
M  V30 4253 H 411.976 -2.19744 -2.37685 0
M  V30 4254 H 410.883 -3.69166 -0.605605 0
M  V30 4255 H 412.216 -4.85385 -0.816211 0
M  V30 4256 N 413.868 0.0150385 -1.57593 0
M  V30 4257 C 415.093 0.718067 -1.94573 0
M  V30 4258 C 415.518 1.6734 -0.859005 0
M  V30 4259 O 414.876 1.80362 0.184147 0
M  V30 4260 C 414.924 1.43918 -3.30636 0
M  V30 4261 O 414.028 2.55299 -3.23876 0
M  V30 4262 H 413.369 0.192125 -0.635597 0
M  V30 4263 H 415.899 -0.0336708 -2.04572 0
M  V30 4264 H 415.909 1.80598 -3.65853 0
M  V30 4265 H 414.584 0.738619 -4.09289 0
M  V30 4266 H 413.161 2.21058 -3.00312 0
M  V30 4267 N 415.346 1.54954 0.287554 0
M  V30 4268 C 416.594 1.74528 1.01904 0
M  V30 4269 C 416.915 0.541349 1.87335 0
M  V30 4270 O 416.185 -0.444108 1.908 0
M  V30 4271 H 414.765 0.643576 0.379235 0
M  V30 4272 H 417.427 1.92333 0.315294 0
M  V30 4273 H 416.523 2.64015 1.6644 0
M  V30 4274 N 416.824 -0.551391 1.4764 0
M  V30 4275 C 417.734 -1.68525 1.63207 0
M  V30 4276 C 418.75 -1.6621 0.514815 0
M  V30 4277 O 419.926 -1.85551 0.783113 0
M  V30 4278 C 416.991 -3.05025 1.64805 0
M  V30 4279 C 416.052 -3.18362 2.88 0
M  V30 4280 C 415.285 -4.4835 2.89513 0
M  V30 4281 O 415.508 -5.34163 2.00065 0
M  V30 4282 O 414.442 -4.65602 3.81443 0
M  V30 4283 H 418.268 -1.58333 2.59161 0
M  V30 4284 H 415.853 -0.722063 1.30792 0
M  V30 4285 H 417.735 -3.86245 1.68502 0
M  V30 4286 H 416.41 -3.15587 0.720197 0
M  V30 4287 H 415.317 -2.36518 2.89845 0
M  V30 4288 H 416.65 -3.12707 3.80099 0
M  V30 4289 N 418.302 -1.35869 -0.798587 0
M  V30 4290 C 419.55 -1.29332 -1.55298 0
M  V30 4291 C 419.871 0.129729 -1.94568 0
M  V30 4292 O 419.141 1.06796 -1.6423 0
M  V30 4293 H 417.721 -0.475737 -0.57592 0
M  V30 4294 H 420.383 -1.70062 -0.952093 0
M  V30 4295 H 419.479 -1.91458 -2.46476 0
M  V30 4296 N 419.78 1.02168 -1.19998 0
M  V30 4297 C 420.712 2.10705 -0.901994 0
M  V30 4298 C 421.725 1.6244 0.108216 0
M  V30 4299 O 422.914 1.78082 -0.12214 0
M  V30 4300 C 420.014 3.37291 -0.329834 0
M  V30 4301 C 419.187 4.14714 -1.39035 0
M  V30 4302 C 418.246 5.19606 -0.830432 0
M  V30 4303 O 417.272 5.48809 -1.50989 0
M  V30 4304 N 418.474 5.79366 0.362696 0
M  V30 4305 H 421.239 2.36856 -1.83628 0
M  V30 4306 H 418.8 1.18518 -1.10296 0
M  V30 4307 H 420.792 4.04657 0.0587633 0
M  V30 4308 H 419.362 3.0843 0.508891 0
M  V30 4309 H 418.582 3.42392 -1.9535 0
M  V30 4310 H 419.87 4.63226 -2.10474 0
M  V30 4311 H 419.268 5.57968 0.932081 0
M  V30 4312 H 417.825 6.48106 0.69299 0
M  V30 4313 N 421.258 1.00505 1.21394 0
M  V30 4314 C 422.506 0.686415 1.90086 0
M  V30 4315 C 422.827 -0.785264 1.7849 0
M  V30 4316 O 422.097 -1.56387 1.17983 0
M  V30 4317 H 420.677 0.2509 0.703604 0
M  V30 4318 H 423.339 1.27417 1.47482 0
M  V30 4319 H 422.435 0.959621 2.96981 0
M  V30 4320 N 422.737 -1.36956 0.779787 0
M  V30 4321 C 423.985 -1.99097 0.347079 0
M  V30 4322 C 424.306 -1.62206 -1.08232 0
M  V30 4323 O 423.576 -0.891373 -1.74446 0
M  V30 4324 H 422.156 -0.736409 0.125342 0
M  V30 4325 H 424.818 -1.67308 0.999696 0
M  V30 4326 H 423.914 -3.09107 0.431162 0
M  V30 4327 N 424.215 -0.530993 -1.48385 0
M  V30 4328 C 425.445 -0.00133928 -2.066 0
M  V30 4329 C 425.853 1.28599 -1.38777 0
M  V30 4330 O 425.196 1.77599 -0.469495 0
M  V30 4331 C 425.258 0.292137 -3.58311 0
M  V30 4332 C 424.922 -0.901864 -4.48013 0
M  V30 4333 C 425.919 -1.80053 -4.87726 0
M  V30 4334 C 423.604 -1.10915 -4.89901 0
M  V30 4335 C 425.598 -2.89038 -5.68098 0
M  V30 4336 C 423.285 -2.20213 -5.70043 0
M  V30 4337 C 424.283 -3.09107 -6.0905 0
M  V30 4338 O 423.971 -4.16514 -6.87583 0
M  V30 4339 H 423.703 -0.0308475 -0.675296 0
M  V30 4340 H 426.257 -0.736335 -1.91748 0
M  V30 4341 H 424.487 1.08112 -3.7128 0
M  V30 4342 H 426.176 0.763994 -3.98645 0
M  V30 4343 H 426.942 -1.65234 -4.55986 0
M  V30 4344 H 422.821 -0.426498 -4.59023 0
M  V30 4345 H 426.365 -3.58451 -5.98464 0
M  V30 4346 H 422.262 -2.35016 -6.01197 0
M  V30 4347 H 423.03 -4.14237 -7.05939 0
M  V30 4348 N 425.693 1.55336 -0.266172 0
M  V30 4349 C 426.656 2.20878 0.612001 0
M  V30 4350 C 427.656 1.18388 1.08816 0
M  V30 4351 O 428.846 1.4335 0.989774 0
M  V30 4352 C 425.978 2.86765 1.84332 0
M  V30 4353 H 427.171 2.99873 0.0398718 0
M  V30 4354 H 424.724 1.56291 -0.0167309 0
M  V30 4355 H 425.459 2.11759 2.45619 0
M  V30 4356 H 425.244 3.61862 1.5099 0
M  V30 4357 H 426.734 3.36867 2.46801 0
M  V30 4358 N 427.171 -0.0066808 1.57599 0
M  V30 4359 C 428.118 -1.00024 2.08 0
M  V30 4360 C 429.088 -1.34549 0.973943 0
M  V30 4361 O 430.273 -1.44502 1.24595 0
M  V30 4362 C 427.413 -2.2891 2.58252 0
M  V30 4363 C 426.526 -2.00346 3.82734 0
M  V30 4364 C 425.661 -3.23265 4.21513 0
M  V30 4365 C 424.7 -2.90357 5.3885 0
M  V30 4366 N 423.837 -4.05793 5.72954 0
M  V30 4367 H 428.677 -0.563499 2.92624 0
M  V30 4368 H 426.214 -0.266592 1.44664 0
M  V30 4369 H 428.172 -3.04247 2.85464 0
M  V30 4370 H 426.802 -2.70265 1.76512 0
M  V30 4371 H 425.854 -1.15406 3.62471 0
M  V30 4372 H 427.166 -1.72086 4.68175 0
M  V30 4373 H 426.32 -4.06953 4.49971 0
M  V30 4374 H 425.059 -3.54657 3.34768 0
M  V30 4375 H 424.064 -2.05075 5.10122 0
M  V30 4376 H 425.289 -2.60219 6.27266 0
M  V30 4377 H 423.235 -4.37094 4.89167 0
M  V30 4378 H 423.152 -3.81034 6.52954 0
M  V30 4379 H 424.42 -4.90289 6.06001 0
M  V30 4380 N 428.649 -1.55105 -0.279332 0
M  V30 4381 C 429.559 -1.90638 -1.36727 0
M  V30 4382 C 430.575 -0.802899 -1.54368 0
M  V30 4383 O 431.751 -1.10138 -1.68616 0
M  V30 4384 C 428.816 -2.16547 -2.70755 0
M  V30 4385 C 427.877 -3.40146 -2.61915 0
M  V30 4386 C 427.11 -3.6481 -3.8955 0
M  V30 4387 O 427.333 -2.92095 -4.89935 0
M  V30 4388 O 426.267 -4.58343 -3.90135 0
M  V30 4389 H 430.093 -2.83237 -1.09591 0
M  V30 4390 H 427.678 -1.4157 -0.477306 0
M  V30 4391 H 429.56 -2.34665 -3.50014 0
M  V30 4392 H 428.235 -1.27131 -2.9769 0
M  V30 4393 H 427.142 -3.2737 -1.81052 0
M  V30 4394 H 428.475 -4.29761 -2.3993 0
M  V30 4395 N 430.127 0.543554 -1.4793 0
M  V30 4396 C 431.06 1.66556 -1.55995 0
M  V30 4397 C 432.038 1.57315 -0.411205 0
M  V30 4398 O 433.222 1.7798 -0.620922 0
M  V30 4399 C 430.349 3.04883 -1.47527 0
M  V30 4400 C 429.395 3.32526 -2.67074 0
M  V30 4401 S 430.228 3.20282 -4.29162 0
M  V30 4402 C 431.384 4.61079 -4.23269 0
M  V30 4403 H 431.617 1.59462 -2.50917 0
M  V30 4404 H 429.15 0.725456 -1.36296 0
M  V30 4405 H 431.108 3.84665 -1.43328 0
M  V30 4406 H 429.769 3.09429 -0.539665 0
M  V30 4407 H 428.962 4.33403 -2.5725 0
M  V30 4408 H 428.564 2.60389 -2.68466 0
M  V30 4409 H 430.856 5.52318 -3.92365 0
M  V30 4410 H 431.799 4.75959 -5.24279 0
M  V30 4411 H 432.207 4.39766 -3.5393 0
M  V30 4412 N 431.605 1.3629 0.791371 0
M  V30 4413 C 432.83 1.33726 1.58531 0
M  V30 4414 C 433.255 -0.0794933 1.87932 0
M  V30 4415 O 432.613 -1.05087 1.47738 0
M  V30 4416 C 432.661 2.16425 2.88431 0
M  V30 4417 O 431.765 1.5554 3.81944 0
M  V30 4418 H 431.106 0.457793 0.480959 0
M  V30 4419 H 433.636 1.79547 0.981031 0
M  V30 4420 H 433.646 2.28933 3.37718 0
M  V30 4421 H 432.321 3.19415 2.66359 0
M  V30 4422 H 430.898 1.51961 3.40532 0
M  V30 4423 N 433.083 -1.0153 1.20538 0
M  V30 4424 C 434.03 -2.10098 0.955383 0
M  V30 4425 C 435 -1.65702 -0.114878 0
M  V30 4426 O 436.185 -1.90776 0.0301118 0
M  V30 4427 C 433.325 -3.41236 0.514969 0
M  V30 4428 C 432.438 -3.99102 1.65353 0
M  V30 4429 C 431.573 -5.18306 1.16329 0
M  V30 4430 C 430.612 -5.68258 2.27485 0
M  V30 4431 N 429.749 -6.78722 1.7967 0
M  V30 4432 H 434.589 -2.30818 1.88486 0
M  V30 4433 H 432.126 -1.13189 0.939499 0
M  V30 4434 H 434.084 -4.16504 0.240935 0
M  V30 4435 H 432.714 -3.20585 -0.377512 0
M  V30 4436 H 431.766 -3.20918 2.04245 0
M  V30 4437 H 433.078 -4.32177 2.49047 0
M  V30 4438 H 432.232 -6.00782 0.845302 0
M  V30 4439 H 430.971 -4.86799 0.296254 0
M  V30 4440 H 429.976 -4.84385 2.60099 0
M  V30 4441 H 431.201 -6.01798 3.14667 0
M  V30 4442 H 429.147 -6.49042 0.95295 0
M  V30 4443 H 429.064 -7.10996 2.56944 0
M  V30 4444 H 430.332 -7.64759 1.50875 0
M  V30 4445 N 434.561 -1.01147 -1.20859 0
M  V30 4446 C 435.471 -0.58686 -2.27141 0
M  V30 4447 C 436.487 0.373198 -1.69951 0
M  V30 4448 O 437.663 0.235423 -2.00019 0
M  V30 4449 C 434.728 0.0733602 -3.46622 0
M  V30 4450 C 433.789 -0.931995 -4.19061 0
M  V30 4451 C 433.022 -0.303186 -5.32838 0
M  V30 4452 O 433.245 0.898395 -5.63281 0
M  V30 4453 O 432.179 -1.01735 -5.9324 0
M  V30 4454 H 436.005 -1.47155 -2.65667 0
M  V30 4455 H 433.59 -0.780689 -1.2738 0
M  V30 4456 H 435.472 0.442333 -4.19072 0
M  V30 4457 H 434.147 0.932329 -3.09983 0
M  V30 4458 H 433.054 -1.35224 -3.48805 0
M  V30 4459 H 434.387 -1.76076 -4.59628 0
M  V30 4460 N 436.039 1.36541 -0.78704 0
M  V30 4461 C 437.286 1.99304 -0.358341 0
M  V30 4462 C 437.614 1.62467 1.06933 0
M  V30 4463 O 436.869 0.870019 1.75297 0
M  V30 4464 C 437.168 3.54343 -0.466485 0
M  V30 4465 C 436.834 4.10993 -1.85461 0
M  V30 4466 C 435.496 4.26177 -2.23443 0
M  V30 4467 C 437.848 4.41895 -2.76366 0
M  V30 4468 C 435.176 4.69573 -3.51736 0
M  V30 4469 C 437.528 4.86722 -4.04084 0
M  V30 4470 C 436.192 5.00112 -4.42091 0
M  V30 4471 H 435.462 0.729306 -0.131126 0
M  V30 4472 H 438.109 1.63068 -1.00404 0
M  V30 4473 H 436.414 3.90918 0.262719 0
M  V30 4474 H 438.111 4.00833 -0.115854 0
M  V30 4475 H 434.701 3.99612 -1.54946 0
M  V30 4476 H 438.885 4.29735 -2.48277 0
M  V30 4477 H 434.141 4.78127 -3.81057 0
M  V30 4478 H 438.315 5.09598 -4.7464 0
M  V30 4479 H 435.942 5.33498 -5.41557 0
M  V30 4480 N 437.518 0.538854 1.48102 0
M  V30 4481 C 438.767 0.0059532 2.01699 0
M  V30 4482 C 439.08 -1.34476 1.42041 0
M  V30 4483 O 440.286 -1.96653 1.87189 0
M  V30 4484 C 438.742 -0.0397627 3.59878 0
M  V30 4485 C 438.35 1.30659 4.28523 0
M  V30 4486 C 440.094 -0.521024 4.2129 0
M  V30 4487 C 438.001 1.22098 5.78659 0
M  V30 4488 H 436.931 -0.00154456 0.753998 0
M  V30 4489 H 439.582 0.683963 1.70277 0
M  V30 4490 H 437.964 -0.783037 3.88181 0
M  V30 4491 H 439.138 2.06613 4.11883 0
M  V30 4492 H 437.453 1.7243 3.79021 0
M  V30 4493 H 440.05 -0.603184 5.31287 0
M  V30 4494 H 440.393 -1.52885 3.8721 0
M  V30 4495 H 440.926 0.166834 3.9745 0
M  V30 4496 H 437.665 2.20424 6.17328 0
M  V30 4497 H 437.185 0.50295 5.97688 0
M  V30 4498 H 438.864 0.915345 6.40492 0
M  V30 4499 N 438.996 -1.55193 0.274407 0
M  V30 4500 C 439.906 -2.26164 -0.623473 0
M  V30 4501 C 440.922 -1.28729 -1.17068 0
M  V30 4502 O 442.098 -1.61663 -1.20112 0
M  V30 4503 C 439.163 -2.96833 -1.7914 0
M  V30 4504 C 438.224 -4.09745 -1.28093 0
M  V30 4505 C 437.457 -4.77034 -2.3932 0
M  V30 4506 O 437.68 -4.4353 -3.5866 0
M  V30 4507 O 436.614 -5.64996 -2.07516 0
M  V30 4508 H 440.44 -3.03661 -0.0485661 0
M  V30 4509 H 438.025 -1.49341 0.0418382 0
M  V30 4510 H 439.907 -3.41248 -2.4724 0
M  V30 4511 H 438.582 -2.22253 -2.35341 0
M  V30 4512 H 437.489 -3.69787 -0.566416 0
M  V30 4513 H 438.822 -4.86224 -0.764683 0
M  V30 4514 N 440.474 -0.00167713 -1.576 0
M  V30 4515 C 441.437 0.974046 -2.07473 0
M  V30 4516 C 442.437 1.27143 -0.984444 0
M  V30 4517 O 443.627 1.21633 -1.24703 0
M  V30 4518 C 440.759 2.29849 -2.51759 0
M  V30 4519 H 441.952 0.54262 -2.9495 0
M  V30 4520 H 439.505 0.245829 -1.54355 0
M  V30 4521 H 440.24 2.77677 -1.67529 0
M  V30 4522 H 440.025 2.09584 -3.31386 0
M  V30 4523 H 441.515 2.9984 -2.90664 0
M  V30 4524 N 441.952 1.55251 0.271103 0
M  V30 4525 C 442.862 1.9136 1.35714 0
M  V30 4526 C 443.878 0.811075 1.5394 0
M  V30 4527 O 445.054 1.11031 1.6803 0
M  V30 4528 C 442.119 2.1798 2.69603 0
M  V30 4529 C 441.18 3.4153 2.60107 0
M  V30 4530 C 440.413 3.66871 3.8761 0
M  V30 4531 O 440.636 2.94689 4.8838 0
M  V30 4532 O 439.57 4.60405 3.87699 0
M  V30 4533 H 443.396 2.83815 1.08088 0
M  V30 4534 H 440.981 1.41821 0.469792 0
M  V30 4535 H 442.863 2.36518 3.48765 0
M  V30 4536 H 441.538 1.28708 2.97012 0
M  V30 4537 H 440.445 3.28325 1.79314 0
M  V30 4538 H 441.778 4.31027 2.37647 0
M  V30 4539 N 443.43 -0.535701 1.48216 0
M  V30 4540 C 444.363 -1.65726 1.56876 0
M  V30 4541 C 445.341 -1.57094 0.419542 0
M  V30 4542 O 446.525 -1.77648 0.630352 0
M  V30 4543 C 443.652 -3.04096 1.49142 0
M  V30 4544 C 442.698 -3.31105 2.68834 0
M  V30 4545 S 443.531 -3.18001 4.30854 0
M  V30 4546 C 444.687 -4.58828 4.25709 0
M  V30 4547 H 444.92 -1.58129 2.51759 0
M  V30 4548 H 442.453 -0.718218 1.36678 0
M  V30 4549 H 444.411 -3.839 1.45366 0
M  V30 4550 H 443.072 -3.09139 0.556067 0
M  V30 4551 H 442.265 -4.32033 2.59545 0
M  V30 4552 H 441.867 -2.58961 2.69843 0
M  V30 4553 H 444.159 -5.5023 3.95289 0
M  V30 4554 H 445.102 -4.73172 5.26796 0
M  V30 4555 H 445.51 -4.37883 3.56257 0
M  V30 4556 N 444.908 -1.36708 -0.784132 0
M  V30 4557 C 445.855 -1.31466 -1.89698 0
M  V30 4558 C 446.825 -0.18239 -1.65096 0
M  V30 4559 O 448.01 -0.369762 -1.87183 0
M  V30 4560 C 445.15 -1.1151 -3.26588 0
M  V30 4561 C 444.263 -2.33859 -3.63227 0
M  V30 4562 C 443.398 -2.06873 -4.89262 0
M  V30 4563 C 442.437 -3.25154 -5.18595 0
M  V30 4564 N 441.574 -2.978 -6.35814 0
M  V30 4565 H 446.414 -2.26619 -1.93515 0
M  V30 4566 H 443.951 -1.12625 -0.946256 0
M  V30 4567 H 445.909 -0.979653 -4.05535 0
M  V30 4568 H 444.539 -0.200103 -3.22179 0
M  V30 4569 H 443.591 -2.58188 -2.79362 0
M  V30 4570 H 444.903 -3.22109 -3.8085 0
M  V30 4571 H 444.057 -1.90289 -5.76086 0
M  V30 4572 H 442.796 -1.15942 -4.73718 0
M  V30 4573 H 441.801 -3.42292 -4.30251 0
M  V30 4574 H 443.026 -4.1692 -5.36055 0
M  V30 4575 H 440.972 -2.09485 -6.21653 0
M  V30 4576 H 440.889 -3.7959 -6.53794 0
M  V30 4577 H 442.157 -2.84805 -7.25607 0
M  V30 4578 N 446.386 1.0089 -1.21074 0
M  V30 4579 C 447.316 2.1145 -0.990523 0
M  V30 4580 C 448.297 1.69897 0.0831699 0
M  V30 4581 O 449.482 1.94052 -0.0758853 0
M  V30 4582 C 446.612 3.42914 -0.550177 0
M  V30 4583 C 445.566 3.98244 -1.56799 0
M  V30 4584 C 444.892 5.25568 -0.984013 0
M  V30 4585 C 446.192 4.30752 -2.95381 0
M  V30 4586 H 447.886 2.3013 -1.91521 0
M  V30 4587 H 445.432 1.10592 -0.92225 0
M  V30 4588 H 447.385 4.19653 -0.383305 0
M  V30 4589 H 446.109 3.24014 0.41015 0
M  V30 4590 H 444.768 3.23621 -1.72236 0
M  V30 4591 H 444.416 5.02998 -0.0155216 0
M  V30 4592 H 444.116 5.63551 -1.66384 0
M  V30 4593 H 445.64 6.04955 -0.828378 0
M  V30 4594 H 447.054 4.98349 -2.8341 0
M  V30 4595 H 445.451 4.79869 -3.60341 0
M  V30 4596 H 446.521 3.39192 -3.46521 0
M  V30 4597 N 447.864 1.01787 1.20321 0
M  V30 4598 C 449.111 0.707936 1.89722 0
M  V30 4599 C 449.439 -0.762535 1.78929 0
M  V30 4600 O 448.694 -1.56977 1.16861 0
M  V30 4601 C 448.993 1.09076 3.40349 0
M  V30 4602 C 448.659 2.55765 3.71342 0
M  V30 4603 C 447.321 2.95845 3.79511 0
M  V30 4604 C 449.673 3.50723 3.85542 0
M  V30 4605 C 447.001 4.2982 3.99339 0
M  V30 4606 C 449.353 4.84387 4.06881 0
M  V30 4607 C 448.017 5.24172 4.1328 0
M  V30 4608 H 447.287 0.259052 0.694243 0
M  V30 4609 H 449.934 1.27868 1.42555 0
M  V30 4610 H 448.239 0.438453 3.89339 0
M  V30 4611 H 449.936 0.828636 3.92345 0
M  V30 4612 H 446.526 2.2371 3.65584 0
M  V30 4613 H 450.71 3.20916 3.78585 0
M  V30 4614 H 445.966 4.60196 4.02529 0
M  V30 4615 H 450.14 5.57891 4.1681 0
M  V30 4616 H 447.767 6.27997 4.28396 0
M  V30 4617 N 449.342 -1.36122 0.79427 0
M  V30 4618 C 450.305 -2.28309 0.201889 0
M  V30 4619 C 451.305 -1.49041 -0.603603 0
M  V30 4620 O 452.495 -1.68964 -0.423888 0
M  V30 4621 C 449.627 -3.3321 -0.719978 0
M  V30 4622 H 450.82 -2.82208 1.01481 0
M  V30 4623 H 448.373 -1.45768 0.564037 0
M  V30 4624 H 449.108 -2.84475 -1.55706 0
M  V30 4625 H 448.893 -3.91835 -0.144266 0
M  V30 4626 H 450.383 -4.02044 -1.12916 0
M  V30 4627 N 450.82 -0.546701 -1.47814 0
M  V30 4628 C 451.752 0.244196 -2.27895 0
M  V30 4629 C 452.765 0.88911 -1.36377 0
M  V30 4630 O 453.954 0.764733 -1.61289 0
M  V30 4631 C 451.054 1.36252 -3.10304 0
M  V30 4632 C 450.227 0.816382 -4.29714 0
M  V30 4633 C 449.286 1.81789 -4.93801 0
M  V30 4634 O 448.312 1.36818 -5.52512 0
M  V30 4635 N 449.514 3.15085 -4.87547 0
M  V30 4636 H 452.279 -0.442694 -2.96412 0
M  V30 4637 H 449.84 -0.382095 -1.57327 0
M  V30 4638 H 451.832 2.03102 -3.50045 0
M  V30 4639 H 450.402 1.95281 -2.44099 0
M  V30 4640 H 449.622 -0.0285981 -3.9419 0
M  V30 4641 H 450.91 0.430668 -5.06974 0
M  V30 4642 H 450.308 3.54275 -4.41028 0
M  V30 4643 H 448.865 3.77522 -5.31339 0
M  V30 4644 N 452.299 1.55045 -0.282633 0
M  V30 4645 C 453.231 2.2023 0.634924 0
M  V30 4646 C 454.244 1.18931 1.11172 0
M  V30 4647 O 455.433 1.4562 1.03233 0
M  V30 4648 C 452.533 2.82041 1.87899 0
M  V30 4649 C 451.706 4.091 1.54776 0
M  V30 4650 C 450.765 4.54887 2.64507 0
M  V30 4651 O 449.791 5.20496 2.30375 0
M  V30 4652 N 450.993 4.25659 3.94709 0
M  V30 4653 H 453.758 2.99601 0.0769811 0
M  V30 4654 H 451.319 1.61565 -0.104048 0
M  V30 4655 H 453.311 3.09613 2.60619 0
M  V30 4656 H 451.881 2.06618 2.3458 0
M  V30 4657 H 451.101 3.88736 0.654049 0
M  V30 4658 H 452.389 4.9187 1.30158 0
M  V30 4659 H 451.787 3.7306 4.25256 0
M  V30 4660 H 450.344 4.57984 4.63782 0
M  V30 4661 N 453.777 0.010035 1.57597 0
M  V30 4662 C 455.017 -0.677084 1.9286 0
M  V30 4663 C 455.381 -1.70377 0.885192 0
M  V30 4664 O 456.582 -2.44199 1.12339 0
M  V30 4665 C 454.853 -1.29452 3.33132 0
M  V30 4666 S 456.412 -2.00537 3.90295 0
M  V30 4667 H 453.23 -0.223409 0.674989 0
M  V30 4668 H 455.832 0.0691289 1.95378 0
M  V30 4669 H 454.536 -0.534593 4.06903 0
M  V30 4670 H 454.067 -2.07845 3.34012 0
M  V30 4671 H 456.082 -3.28168 3.72183 0
M  V30 4672 N 455.255 -1.55392 -0.262866 0
M  V30 4673 C 456.202 -1.88966 -1.32516 0
M  V30 4674 C 457.172 -0.742187 -1.48596 0
M  V30 4675 O 458.357 -0.99439 -1.62839 0
M  V30 4676 C 455.497 -2.17592 -2.67858 0
M  V30 4677 C 454.61 -3.45061 -2.59917 0
M  V30 4678 C 453.745 -3.63336 -3.87505 0
M  V30 4679 C 452.784 -4.84462 -3.74116 0
M  V30 4680 N 451.921 -4.99342 -4.93561 0
M  V30 4681 H 456.761 -2.79566 -1.03184 0
M  V30 4682 H 454.298 -1.38404 -0.498285 0
M  V30 4683 H 456.256 -2.3219 -3.46617 0
M  V30 4684 H 454.886 -1.30215 -2.95371 0
M  V30 4685 H 453.938 -3.38881 -1.72812 0
M  V30 4686 H 455.25 -4.3396 -2.45926 0
M  V30 4687 H 454.404 -3.77807 -4.74707 0
M  V30 4688 H 453.143 -2.72641 -4.04374 0
M  V30 4689 H 452.148 -4.69985 -2.85297 0
M  V30 4690 H 453.373 -5.76603 -3.58757 0
M  V30 4691 H 451.319 -4.1158 -5.10821 0
M  V30 4692 H 451.236 -5.82303 -4.82141 0
M  V30 4693 H 452.504 -5.18208 -5.82306 0
M  V30 4694 N 456.733 0.527833 -1.48498 0
M  V30 4695 C 457.643 1.65907 -1.65867 0
M  V30 4696 C 458.659 1.6537 -0.541192 0
M  V30 4697 O 459.835 1.84282 -0.812534 0
M  V30 4698 C 456.9 3.02364 -1.69637 0
M  V30 4699 C 455.961 3.1374 -2.93028 0
M  V30 4700 C 455.194 4.43688 -2.96609 0
M  V30 4701 O 455.417 5.30913 -2.08538 0
M  V30 4702 O 454.351 4.59475 -3.88802 0
M  V30 4703 H 458.177 1.5419 -2.61647 0
M  V30 4704 H 455.762 0.701163 -1.31924 0
M  V30 4705 H 457.644 3.83515 -1.74625 0
M  V30 4706 H 456.319 3.14401 -0.770312 0
M  V30 4707 H 455.226 2.31877 -2.93571 0
M  V30 4708 H 456.559 3.06621 -3.85026 0
M  V30 4709 N 458.211 1.37122 0.776871 0
M  V30 4710 C 459.457 1.32243 1.53752 0
M  V30 4711 C 459.79 -0.0944745 1.9397 0
M  V30 4712 O 459.065 -1.05068 1.6368 0
M  V30 4713 C 459.348 2.25681 2.80607 0
M  V30 4714 C 459.201 3.76127 2.46676 0
M  V30 4715 C 460.52 2.17657 3.82509 0
M  V30 4716 H 457.639 0.481704 0.557791 0
M  V30 4717 H 460.281 1.6778 0.891612 0
M  V30 4718 H 458.431 1.95505 3.35723 0
M  V30 4719 H 460.103 4.16877 1.97513 0
M  V30 4720 H 458.346 3.94946 1.79443 0
M  V30 4721 H 459.017 4.36933 3.37333 0
M  V30 4722 H 461.493 2.44245 3.36873 0
M  V30 4723 H 460.369 2.85185 4.69 0
M  V30 4724 H 460.63 1.16785 4.26396 0
M  V30 4725 N 459.689 -1.00246 1.21608 0
M  V30 4726 C 460.966 -1.71336 0.943568 0
M  V30 4727 C 461.346 -2.03972 -0.543943 0
M  V30 4728 O 460.694 -1.71545 -1.50946 0
M  V30 4729 C 460.904 -2.97094 1.83128 0
M  V30 4730 C 462.252 -3.70071 2.08165 0
M  V30 4731 O 463.276 -3.07081 1.80498 0
M  V30 4732 O 462.135 -4.83376 2.54971 0
M  V30 4733 H 459.229 -0.747386 0.354039 0
M  V30 4734 H 461.775 -1.05967 1.32549 0
M  V30 4735 H 460.547 -2.69407 2.83788 0
M  V30 4736 H 460.17 -3.70204 1.45034 0
M  V30 4737 N 461.167 -1.02423 -1.1978 0
M  V30 4738 C 462.416 -0.713265 -1.88667 0
M  V30 4739 C 462.729 0.7609 -1.80193 0
M  V30 4740 O 463.935 1.18473 -2.44288 0
M  V30 4741 C 462.391 -1.22545 -3.38394 0
M  V30 4742 C 461.999 -2.72706 -3.55437 0
M  V30 4743 C 463.743 -0.990257 -4.12788 0
M  V30 4744 C 461.65 -3.17367 -4.99031 0
M  V30 4745 H 460.58 -0.263105 -0.706606 0
M  V30 4746 H 463.231 -1.23792 -1.35454 0
M  V30 4747 H 461.613 -0.628732 -3.90977 0
M  V30 4748 H 462.787 -3.37993 -3.13205 0
M  V30 4749 H 461.102 -2.94453 -2.94425 0
M  V30 4750 H 463.699 -1.29926 -5.18675 0
M  V30 4751 H 464.042 0.0730761 -4.16236 0
M  V30 4752 H 464.575 -1.55074 -3.66329 0
M  V30 4753 H 461.314 -4.23009 -5.00743 0
M  V30 4754 H 460.834 -2.56805 -5.42044 0
M  V30 4755 H 462.513 -3.10441 -5.67658 0
M  V30 4756 N 462.645 1.35699 -0.801477 0
M  V30 4757 C 463.575 2.32436 -0.222658 0
M  V30 4758 C 464.556 1.5723 0.649057 0
M  V30 4759 O 465.741 1.85324 0.580387 0
M  V30 4760 C 462.871 3.41469 0.633719 0
M  V30 4761 C 461.825 4.27774 -0.139083 0
M  V30 4762 C 461.151 5.28082 0.838666 0
M  V30 4763 C 462.451 5.04946 -1.33517 0
M  V30 4764 H 464.145 2.81094 -1.03086 0
M  V30 4765 H 461.691 1.35146 -0.497155 0
M  V30 4766 H 463.644 4.08143 1.04868 0
M  V30 4767 H 462.368 2.91408 1.47475 0
M  V30 4768 H 461.027 3.62673 -0.535156 0
M  V30 4769 H 460.675 4.7429 1.67506 0
M  V30 4770 H 460.375 5.86695 0.32594 0
M  V30 4771 H 461.899 5.97628 1.25194 0
M  V30 4772 H 463.313 5.64593 -0.995349 0
M  V30 4773 H 461.71 5.7303 -1.78202 0
M  V30 4774 H 462.78 4.35886 -2.12442 0
M  V30 4775 N 464.123 0.554532 1.47522 0
M  V30 4776 C 465.372 0.0273458 2.01681 0
M  V30 4777 C 465.685 -1.32962 1.43459 0
M  V30 4778 O 466.891 -1.94657 1.89265 0
M  V30 4779 C 465.347 -0.00159057 3.599 0
M  V30 4780 C 464.955 1.35197 4.27113 0
M  V30 4781 C 466.699 -0.476311 4.21819 0
M  V30 4782 C 464.606 1.28229 5.77331 0
M  V30 4783 H 463.536 0.00645269 0.753972 0
M  V30 4784 H 466.187 0.701985 1.69542 0
M  V30 4785 H 464.569 -0.741821 3.8899 0
M  V30 4786 H 465.743 2.1097 4.09668 0
M  V30 4787 H 464.058 1.76441 3.77171 0
M  V30 4788 H 466.655 -0.5468 5.31897 0
M  V30 4789 H 466.998 -1.4877 3.8881 0
M  V30 4790 H 467.531 0.20898 3.97251 0
M  V30 4791 H 464.27 2.26959 6.14955 0
M  V30 4792 H 463.79 0.566314 5.97121 0
M  V30 4793 H 465.469 0.983226 6.39485 0
M  V30 4794 N 465.601 -1.54893 0.290851 0
M  V30 4795 C 466.826 -2.04804 -0.32712 0
M  V30 4796 C 467.251 -1.16721 -1.47506 0
M  V30 4797 O 466.609 -0.169107 -1.8051 0
M  V30 4798 C 466.657 -3.52268 -0.770689 0
M  V30 4799 O 465.761 -3.67236 -1.87647 0
M  V30 4800 H 465.102 -0.660789 -0.0652227 0
M  V30 4801 H 467.632 -2.00036 0.429739 0
M  V30 4802 H 467.642 -3.9393 -1.06223 0
M  V30 4803 H 466.317 -4.15843 0.069096 0
M  V30 4804 H 464.894 -3.37479 -1.58626 0
M  V30 4805 N 467.08 -0.0183926 -1.57589 0
M  V30 4806 C 468.308 0.673046 -1.95647 0
M  V30 4807 C 468.723 1.66275 -0.894312 0
M  V30 4808 O 468.08 1.82072 0.124975 0
M  V30 4809 C 468.131 1.38884 -3.33756 0
M  V30 4810 O 467.852 0.438806 -4.35897 0
M  V30 4811 C 469.353 2.1731 -3.86383 0
M  V30 4812 H 466.573 0.186292 -0.644621 0
M  V30 4813 H 469.117 -0.0749748 -2.04363 0
M  V30 4814 H 467.272 2.08835 -3.26293 0
M  V30 4815 H 467.686 0.945869 -5.15901 0
M  V30 4816 H 469.16 2.62863 -4.85394 0
M  V30 4817 H 469.637 3.00764 -3.20059 0
M  V30 4818 H 470.243 1.52339 -3.97081 0
M  V30 4819 N 468.558 1.5553 0.254621 0
M  V30 4820 C 469.521 1.88872 1.29846 0
M  V30 4821 C 470.521 0.764591 1.41459 0
M  V30 4822 O 471.711 1.03265 1.40293 0
M  V30 4823 C 468.843 2.11032 2.67728 0
M  V30 4824 H 470.036 2.82201 1.01502 0
M  V30 4825 H 467.589 1.48303 0.493556 0
M  V30 4826 H 468.324 1.20146 3.01223 0
M  V30 4827 H 468.109 2.92895 2.60682 0
M  V30 4828 H 469.599 2.38038 3.43115 0
M  V30 4829 N 470.036 -0.519951 1.48776 0
M  V30 4830 C 470.966 -1.63253 1.66945 0
M  V30 4831 C 471.947 -1.62014 0.518224 0
M  V30 4832 O 473.132 -1.79053 0.751919 0
M  V30 4833 C 470.262 -3.0181 1.71836 0
M  V30 4834 C 469.216 -3.17911 2.8656 0
M  V30 4835 C 468.542 -4.5763 2.76548 0
M  V30 4836 C 469.842 -2.99729 4.27738 0
M  V30 4837 H 471.536 -1.48302 2.6009 0
M  V30 4838 H 469.082 -0.712026 1.25165 0
M  V30 4839 H 471.035 -3.79525 1.83135 0
M  V30 4840 H 469.759 -3.17806 0.752775 0
M  V30 4841 H 468.418 -2.42616 2.74833 0
M  V30 4842 H 468.066 -4.70476 1.77937 0
M  V30 4843 H 467.766 -4.69346 3.53536 0
M  V30 4844 H 469.29 -5.37431 2.89828 0
M  V30 4845 H 470.704 -3.67228 4.40246 0
M  V30 4846 H 469.101 -3.22932 5.05801 0
M  V30 4847 H 470.171 -1.96047 4.43502 0
M  V30 4848 N 471.514 -1.37532 -0.769588 0
M  V30 4849 C 472.763 -1.32183 -1.5235 0
M  V30 4850 C 473.076 0.0906555 -1.9539 0
M  V30 4851 O 474.282 0.266628 -2.70188 0
M  V30 4852 C 472.738 -2.32029 -2.75119 0
M  V30 4853 C 472.346 -3.78816 -2.3917 0
M  V30 4854 C 474.09 -2.35694 -3.53056 0
M  V30 4855 C 471.997 -4.70388 -3.58453 0
M  V30 4856 H 470.927 -0.491275 -0.571984 0
M  V30 4857 H 473.578 -1.63004 -0.842739 0
M  V30 4858 H 471.96 -1.94229 -3.45096 0
M  V30 4859 H 473.134 -4.25466 -1.76962 0
M  V30 4860 H 471.449 -3.78117 -1.74402 0
M  V30 4861 H 474.046 -3.01312 -4.41718 0
M  V30 4862 H 474.389 -1.37117 -3.93071 0
M  V30 4863 H 474.922 -2.72212 -2.90078 0
M  V30 4864 H 471.661 -5.70102 -3.23518 0
M  V30 4865 H 471.181 -4.28442 -4.19758 0
M  V30 4866 H 472.86 -4.87628 -4.25239 0
M  V30 4867 N 472.992 0.995999 -1.22138 0
M  V30 4868 C 474.403 1.54961 -1.04135 0
M  V30 4869 C 474.754 1.92159 0.396147 0
M  V30 4870 O 473.879 1.74435 1.28069 0
M  V30 4871 C 474.474 2.81581 -1.88408 0
M  V30 4872 C 473.033 3.33396 -1.74712 0
M  V30 4873 C 472.18 2.06509 -1.85066 0
M  V30 4874 H 475.131 0.817436 -1.36028 0
M  V30 4875 H 475.152 3.53822 -1.39966 0
M  V30 4876 H 474.664 2.54476 -2.93025 0
M  V30 4877 H 472.765 3.65416 -0.728159 0
M  V30 4878 H 472.878 4.04208 -2.57202 0
M  V30 4879 H 471.242 2.19925 -1.28472 0
M  V30 4880 H 472.025 1.81804 -2.91208 0
M  V30 4881 N 474.47 1.03057 1.19235 0
M  V30 4882 C 475.718 0.726581 1.88587 0
M  V30 4883 C 476.039 -0.747227 1.80115 0
M  V30 4884 O 475.309 -1.53849 1.21274 0
M  V30 4885 H 473.889 0.265768 0.698124 0
M  V30 4886 H 476.551 1.30516 1.44746 0
M  V30 4887 H 475.647 1.0224 2.94879 0
M  V30 4888 N 475.948 -1.35272 0.808662 0
M  V30 4889 C 476.895 -2.29764 0.218482 0
M  V30 4890 C 477.865 -1.52911 -0.648652 0
M  V30 4891 O 479.05 -1.81341 -0.593297 0
M  V30 4892 C 476.19 -3.39388 -0.625282 0
M  V30 4893 C 475.303 -4.31202 0.262516 0
M  V30 4894 C 474.438 -5.27919 -0.589451 0
M  V30 4895 C 473.477 -6.11371 0.298617 0
M  V30 4896 N 472.614 -7.0022 -0.513443 0
M  V30 4897 H 477.454 -2.79645 1.02968 0
M  V30 4898 H 474.991 -1.37629 0.519303 0
M  V30 4899 H 476.949 -4.01615 -1.12966 0
M  V30 4900 H 475.579 -2.90777 -1.40173 0
M  V30 4901 H 474.631 -3.69962 0.885013 0
M  V30 4902 H 475.943 -4.89748 0.945971 0
M  V30 4903 H 475.097 -5.95529 -1.15888 0
M  V30 4904 H 473.836 -4.69875 -1.30647 0
M  V30 4905 H 472.841 -5.42707 0.880301 0
M  V30 4906 H 474.066 -6.71494 1.01352 0
M  V30 4907 H 472.012 -6.44662 -1.21439 0
M  V30 4908 H 471.929 -7.55917 0.111922 0
M  V30 4909 H 473.197 -7.72175 -1.06608 0
M  V30 4910 N 477.426 -0.562348 -1.47226 0
M  V30 4911 C 478.373 0.182461 -2.30078 0
M  V30 4912 C 479.343 0.903503 -1.39377 0
M  V30 4913 O 480.528 0.898188 -1.68337 0
M  V30 4914 C 477.668 1.20322 -3.23445 0
M  V30 4915 C 476.781 0.487717 -4.29238 0
M  V30 4916 C 475.916 1.49422 -5.09752 0
M  V30 4917 C 474.955 0.763976 -6.07314 0
M  V30 4918 N 474.092 1.71755 -6.80768 0
M  V30 4919 H 478.932 -0.530169 -2.93246 0
M  V30 4920 H 476.469 -0.273276 -1.44539 0
M  V30 4921 H 478.427 1.80768 -3.76004 0
M  V30 4922 H 477.057 1.88382 -2.6213 0
M  V30 4923 H 476.109 -0.231374 -3.79696 0
M  V30 4924 H 477.421 -0.0841003 -4.98729 0
M  V30 4925 H 476.575 2.17206 -5.66486 0
M  V30 4926 H 475.314 2.09995 -4.40174 0
M  V30 4927 H 474.319 0.0722344 -5.49753 0
M  V30 4928 H 475.544 0.16391 -6.78902 0
M  V30 4929 H 473.49 2.31177 -6.13916 0
M  V30 4930 H 473.407 1.19802 -7.46447 0
M  V30 4931 H 474.675 2.38638 -7.42073 0
M  V30 4932 N 478.904 1.54736 -0.299062 0
M  V30 4933 C 479.867 2.22127 0.565012 0
M  V30 4934 C 480.867 1.20669 1.06281 0
M  V30 4935 O 482.057 1.45417 0.959145 0
M  V30 4936 C 479.189 2.90611 1.78208 0
M  V30 4937 H 480.382 2.99891 -0.0237448 0
M  V30 4938 H 477.935 1.5622 -0.0498788 0
M  V30 4939 H 478.67 2.16921 2.41072 0
M  V30 4940 H 478.455 3.64984 1.43281 0
M  V30 4941 H 479.945 3.42026 2.396 0
M  V30 4942 N 480.382 0.0267497 1.57577 0
M  V30 4943 C 481.793 -0.512413 1.79531 0
M  V30 4944 C 482.144 -1.72391 0.936791 0
M  V30 4945 O 481.269 -2.15903 0.146543 0
M  V30 4946 C 481.864 -0.936378 3.25603 0
M  V30 4947 C 480.423 -1.42067 3.4856 0
M  V30 4948 C 479.57 -0.384278 2.74624 0
M  V30 4949 H 482.521 0.252797 1.56674 0
M  V30 4950 H 482.542 -1.80088 3.35184 0
M  V30 4951 H 482.054 -0.0544332 3.88062 0
M  V30 4952 H 480.155 -2.32262 2.9135 0
M  V30 4953 H 480.268 -1.42968 4.57271 0
M  V30 4954 H 478.632 -0.851855 2.40032 0
M  V30 4955 H 479.415 0.489159 3.39797 0
M  V30 4956 N 481.861 -1.55662 -0.24637 0
M  V30 4957 C 483.107 -1.77782 -0.975779 0
M  V30 4958 C 483.44 -0.592103 -1.84953 0
M  V30 4959 O 482.715 0.409588 -1.90138 0
M  V30 4960 C 482.998 -3.09788 -1.83584 0
M  V30 4961 C 482.851 -4.38764 -0.990241 0
M  V30 4962 C 484.17 -3.38029 -2.81823 0
M  V30 4963 H 481.289 -0.646789 -0.353317 0
M  V30 4964 H 483.931 -1.88398 -0.246248 0
M  V30 4965 H 482.081 -3.00869 -2.45784 0
M  V30 4966 H 483.753 -4.59675 -0.386897 0
M  V30 4967 H 481.996 -4.32798 -0.294626 0
M  V30 4968 H 482.667 -5.27514 -1.62584 0
M  V30 4969 H 485.143 -3.46915 -2.2976 0
M  V30 4970 H 484.019 -4.3161 -3.39122 0
M  V30 4971 H 484.28 -2.58968 -3.58313 0
M  V30 4972 N 483.339 0.512053 -1.4905 0
M  V30 4973 C 484.269 1.62365 -1.67809 0
M  V30 4974 C 485.25 1.61737 -0.526809 0
M  V30 4975 O 486.435 1.78651 -0.761404 0
M  V30 4976 C 483.565 3.00895 -1.73435 0
M  V30 4977 C 482.519 3.16387 -2.88242 0
M  V30 4978 C 481.845 4.56157 -2.78971 0
M  V30 4979 C 483.145 2.97457 -4.29321 0
M  V30 4980 H 484.839 1.46921 -2.60873 0
M  V30 4981 H 482.385 0.705379 -1.2554 0
M  V30 4982 H 484.338 3.78549 -1.85145 0
M  V30 4983 H 483.062 3.17403 -0.769619 0
M  V30 4984 H 481.721 2.41155 -2.76116 0
M  V30 4985 H 481.369 4.69525 -1.8043 0
M  V30 4986 H 481.069 4.67465 -3.5602 0
M  V30 4987 H 482.593 5.35886 -2.92675 0
M  V30 4988 H 484.007 3.64888 -4.42187 0
M  V30 4989 H 482.404 3.20245 -5.07507 0
M  V30 4990 H 483.474 1.93692 -4.44535 0
M  V30 4991 N 484.817 1.37938 0.762283 0
M  V30 4992 C 486.064 1.33668 1.52115 0
M  V30 4993 C 486.392 -0.0759538 1.94352 0
M  V30 4994 O 485.647 -1.05121 1.6507 0
M  V30 4995 C 485.946 2.23042 2.79261 0
M  V30 4996 C 485.612 3.71159 2.56031 0
M  V30 4997 C 484.274 4.11523 2.49404 0
M  V30 4998 C 486.626 4.64955 2.35513 0
M  V30 4999 C 483.954 5.43784 2.20263 0
M  V30 5000 C 486.306 5.97464 2.07894 0
M  V30 5001 C 484.97 6.36922 1.99718 0
M  V30 5002 H 484.24 0.489127 0.556629 0
M  V30 5003 H 486.887 1.70224 0.877262 0
M  V30 5004 H 485.192 1.79512 3.48256 0
M  V30 5005 H 486.889 2.17047 3.37182 0
M  V30 5006 H 483.479 3.39153 2.62056 0
M  V30 5007 H 487.663 4.34623 2.39617 0
M  V30 5008 H 482.919 5.73307 2.12435 0
M  V30 5009 H 487.093 6.6969 1.91019 0
M  V30 5010 H 484.72 7.39331 1.76902 0
M  V30 5011 N 486.295 -0.989507 1.22664 0
M  V30 5012 C 487.243 -2.10148 0.997035 0
M  V30 5013 C 488.237 -1.6929 -0.0609783 0
M  V30 5014 O 489.443 -1.79766 0.0917523 0
M  V30 5015 H 485.818 -0.687256 0.305259 0
M  V30 5016 H 487.789 -2.26685 1.94053 0
M  V30 5017 C 486.538 -3.4257 0.595085 0
M  V30 5018 H 485.861 -3.74453 1.40089 0
M  V30 5019 H 487.301 -4.21344 0.473869 0
M  V30 5020 C 485.76 -3.29638 -0.695725 0
M  V30 5021 O 486.29 -3.61709 -1.74727 0
M  V30 5022 N 484.496 -2.82814 -0.668173 0
M  V30 5023 H 484.043 -2.56914 0.18787 0
M  V30 5024 H 484.001 -2.74544 -1.5321 0
M  V30 5025 N 487.773 -1.03688 -1.18687 0
M  V30 5026 C 488.72 -0.624624 -2.22187 0
M  V30 5027 C 489.69 0.365636 -1.62026 0
M  V30 5028 O 490.875 0.260481 -1.89014 0
M  V30 5029 C 488.015 0.0101738 -3.45099 0
M  V30 5030 C 487.128 -1.02709 -4.19613 0
M  V30 5031 C 486.263 -0.361213 -5.2997 0
M  V30 5032 C 485.302 -1.38384 -5.96252 0
M  V30 5033 N 484.439 -0.743196 -6.98155 0
M  V30 5034 H 489.279 -1.51176 -2.56807 0
M  V30 5035 H 486.816 -0.75636 -1.26165 0
M  V30 5036 H 488.774 0.395528 -4.15321 0
M  V30 5037 H 487.404 0.860848 -3.1111 0
M  V30 5038 H 486.456 -1.53043 -3.48256 0
M  V30 5039 H 487.768 -1.80398 -4.65036 0
M  V30 5040 H 486.922 0.0785537 -6.06649 0
M  V30 5041 H 485.661 0.447799 -4.8564 0
M  V30 5042 H 484.666 -1.83378 -5.18317 0
M  V30 5043 H 485.891 -2.19448 -6.42666 0
M  V30 5044 H 483.837 0.0455789 -6.55984 0
M  V30 5045 H 483.754 -1.45784 -7.41811 0
M  V30 5046 H 485.022 -0.327698 -7.78811 0
M  V30 5047 N 489.251 1.34841 -0.815825 0
M  V30 5048 C 490.161 2.33425 -0.234462 0
M  V30 5049 C 491.177 1.62295 0.627413 0
M  V30 5050 O 492.353 1.94109 0.536987 0
M  V30 5051 C 489.418 3.41471 0.599849 0
M  V30 5052 C 488.479 4.28362 -0.283596 0
M  V30 5053 C 487.712 5.31248 0.51099 0
M  V30 5054 O 487.935 5.43056 1.7449 0
M  V30 5055 O 486.869 6.01812 -0.10297 0
M  V30 5056 H 490.695 2.84962 -1.05024 0
M  V30 5057 H 488.28 1.37774 -0.577809 0
M  V30 5058 H 490.162 4.07464 1.07475 0
M  V30 5059 H 488.837 2.9219 1.39308 0
M  V30 5060 H 487.744 3.65318 -0.805836 0
M  V30 5061 H 489.077 4.81066 -1.041 0
M  V30 5062 N 490.729 0.570148 1.46925 0
M  V30 5063 C 491.662 -0.218362 2.27153 0
M  V30 5064 C 492.64 -0.90847 1.34854 0
M  V30 5065 O 493.824 -0.924875 1.64251 0
M  V30 5066 C 490.951 -1.3122 3.12248 0
M  V30 5067 C 489.997 -0.729277 4.20219 0
M  V30 5068 S 490.83 0.434159 5.33737 0
M  V30 5069 C 491.986 -0.661188 6.22398 0
M  V30 5070 H 492.219 0.462393 2.93682 0
M  V30 5071 H 489.752 0.356753 1.50222 0
M  V30 5072 H 491.71 -1.93856 3.61842 0
M  V30 5073 H 490.371 -1.96485 2.45056 0
M  V30 5074 H 489.564 -1.5511 4.79538 0
M  V30 5075 H 489.166 -0.178836 3.73572 0
M  V30 5076 H 491.458 -1.55006 6.5953 0
M  V30 5077 H 492.401 -0.105046 7.08022 0
M  V30 5078 H 492.809 -0.959682 5.56283 0
M  V30 5079 N 492.207 -1.54576 0.307264 0
M  V30 5080 C 493.456 -1.99442 -0.300976 0
M  V30 5081 C 493.769 -1.19928 -1.5452 0
M  V30 5082 O 494.975 -1.55092 -2.22842 0
M  V30 5083 C 493.431 -3.55084 -0.586809 0
M  V30 5084 C 493.039 -4.43413 0.639438 0
M  V30 5085 C 494.783 -4.0846 -1.1559 0
M  V30 5086 C 492.69 -5.90499 0.326411 0
M  V30 5087 H 491.62 -0.744986 -0.116238 0
M  V30 5088 H 494.271 -1.787 0.416947 0
M  V30 5089 H 492.653 -3.71749 -1.36449 0
M  V30 5090 H 493.827 -4.38522 1.41545 0
M  V30 5091 H 492.142 -4.00842 1.1276 0
M  V30 5092 H 494.739 -5.15926 -1.40445 0
M  V30 5093 H 495.082 -3.59443 -2.10015 0
M  V30 5094 H 495.615 -3.95362 -0.439778 0
M  V30 5095 H 492.354 -6.43676 1.23939 0
M  V30 5096 H 491.874 -5.98382 -0.412212 0
M  V30 5097 H 493.553 -6.46962 -0.0697393 0
M  V30 5098 N 493.685 -0.035106 -1.57561 0
M  V30 5099 C 494.595 0.960295 -2.14046 0
M  V30 5100 C 495.611 1.3529 -1.0942 0
M  V30 5101 O 496.787 1.43309 -1.41508 0
M  V30 5102 C 493.852 2.22214 -2.66124 0
M  V30 5103 C 492.913 1.8894 -3.85487 0
M  V30 5104 C 492.146 3.09109 -4.35072 0
M  V30 5105 O 492.369 4.21963 -3.83802 0
M  V30 5106 O 491.303 2.91058 -5.26848 0
M  V30 5107 H 495.129 0.509983 -2.99387 0
M  V30 5108 H 492.714 0.185853 -1.48239 0
M  V30 5109 H 494.596 2.96279 -2.99661 0
M  V30 5110 H 493.271 2.66414 -1.83862 0
M  V30 5111 H 492.178 1.12241 -3.56865 0
M  V30 5112 H 493.511 1.49551 -4.6893 0
M  V30 5113 N 495.163 1.55791 0.238111 0
M  V30 5114 C 496.388 1.8244 0.986432 0
M  V30 5115 C 496.813 0.613314 1.7782 0
M  V30 5116 O 496.171 -0.437767 1.75935 0
M  V30 5117 C 496.219 3.06917 1.893 0
M  V30 5118 O 495.323 2.84449 2.98601 0
M  V30 5119 H 494.664 0.601975 0.280218 0
M  V30 5120 H 497.194 2.02987 0.256437 0
M  V30 5121 H 497.204 3.36583 2.30598 0
M  V30 5122 H 495.879 3.947 1.31091 0
M  V30 5123 H 494.456 2.65972 2.61368 0
M  V30 5124 N 496.642 -0.504142 1.49319 0
M  V30 5125 C 497.575 -1.62361 1.60356 0
M  V30 5126 C 498.553 -1.56169 0.45277 0
M  V30 5127 O 499.737 -1.76271 0.667892 0
M  V30 5128 C 496.864 -3.00864 1.55559 0
M  V30 5129 C 495.91 -3.25328 2.75797 0
M  V30 5130 S 496.743 -3.08791 4.37503 0
M  V30 5131 C 497.899 -4.49695 4.35345 0
M  V30 5132 H 498.132 -1.52753 2.55056 0
M  V30 5133 H 495.665 -0.689065 1.38171 0
M  V30 5134 H 497.623 -3.8073 1.53477 0
M  V30 5135 H 496.284 -3.0789 0.621515 0
M  V30 5136 H 495.477 -4.2643 2.68651 0
M  V30 5137 H 495.079 -2.53179 2.75275 0
M  V30 5138 H 497.371 -5.41721 4.06871 0
M  V30 5139 H 498.314 -4.61891 5.36714 0
M  V30 5140 H 498.722 -4.30227 3.65465 0
M  V30 5141 N 498.12 -1.38341 -0.754957 0
M  V30 5142 C 499.067 -1.3546 -1.86867 0
M  V30 5143 C 500.037 -0.217369 -1.64672 0
M  V30 5144 O 501.222 -0.409383 -1.86356 0
M  V30 5145 C 498.362 -1.18413 -3.24149 0
M  V30 5146 C 497.475 -2.41511 -3.58185 0
M  V30 5147 C 496.61 -2.17205 -4.84763 0
M  V30 5148 C 495.649 -3.36081 -5.11582 0
M  V30 5149 N 494.786 -3.11219 -6.29354 0
M  V30 5150 H 499.626 -2.30672 -1.88664 0
M  V30 5151 H 497.163 -1.14607 -0.922154 0
M  V30 5152 H 499.121 -1.06545 -4.03366 0
M  V30 5153 H 497.751 -0.268397 -3.21682 0
M  V30 5154 H 496.803 -2.64056 -2.73822 0
M  V30 5155 H 498.115 -3.30115 -3.73932 0
M  V30 5156 H 497.269 -2.02465 -5.7192 0
M  V30 5157 H 496.008 -1.25964 -4.71152 0
M  V30 5158 H 495.013 -3.51341 -4.22894 0
M  V30 5159 H 496.238 -4.28196 -5.27091 0
M  V30 5160 H 494.184 -2.22624 -6.17069 0
M  V30 5161 H 494.101 -3.93373 -6.45596 0
M  V30 5162 H 495.369 -3.00132 -7.19403 0
M  V30 5163 N 499.598 0.982988 -1.23187 0
M  V30 5164 C 500.508 2.10907 -1.02739 0
M  V30 5165 C 501.524 1.73979 0.0273188 0
M  V30 5166 O 502.7 2.00702 -0.16757 0
M  V30 5167 C 499.765 3.41142 -0.618304 0
M  V30 5168 C 498.826 3.92112 -1.74777 0
M  V30 5169 C 498.059 5.16131 -1.3581 0
M  V30 5170 O 498.282 5.6989 -0.241201 0
M  V30 5171 O 497.216 5.61103 -2.17824 0
M  V30 5172 H 501.042 2.31046 -1.97108 0
M  V30 5173 H 498.627 1.09284 -1.01869 0
M  V30 5174 H 500.509 4.19488 -0.400982 0
M  V30 5175 H 499.184 3.2234 0.296421 0
M  V30 5176 H 498.091 3.14895 -2.0197 0
M  V30 5177 H 499.424 4.15364 -2.64071 0
M  V30 5178 N 501.076 1.04316 1.18135 0
M  V30 5179 C 502.324 0.746542 1.87806 0
M  V30 5180 C 502.645 -0.728082 1.80898 0
M  V30 5181 O 501.915 -1.52554 1.22899 0
M  V30 5182 H 500.495 0.273157 0.695265 0
M  V30 5183 H 503.157 1.32044 1.43354 0
M  V30 5184 H 502.253 1.05362 2.93778 0
M  V30 5185 N 502.554 -1.34406 0.822964 0
M  V30 5186 C 503.779 -2.0304 0.423034 0
M  V30 5187 C 504.204 -1.61568 -0.963196 0
M  V30 5188 O 503.562 -0.800339 -1.62678 0
M  V30 5189 C 503.61 -3.56636 0.53321 0
M  V30 5190 O 502.714 -4.09971 -0.446939 0
M  V30 5191 H 502.055 -0.64075 0.174171 0
M  V30 5192 H 504.585 -1.71653 1.11339 0
M  V30 5193 H 504.595 -4.05945 0.408991 0
M  V30 5194 H 503.27 -3.86168 1.54425 0
M  V30 5195 H 501.847 -3.71835 -0.281601 0
M  V30 5196 N 504.032 -0.577932 -1.46621 0
M  V30 5197 C 505.278 -0.0617793 -2.02706 0
M  V30 5198 C 505.611 1.29294 -1.44903 0
M  V30 5199 O 504.886 1.8461 -0.61232 0
M  V30 5200 C 505.169 0.00911824 -3.60099 0
M  V30 5201 C 505.022 -1.37416 -4.28295 0
M  V30 5202 C 506.341 0.712159 -4.343 0
M  V30 5203 H 503.46 -0.0239246 -0.736612 0
M  V30 5204 H 506.102 -0.744211 -1.74818 0
M  V30 5205 H 504.252 0.590292 -3.83989 0
M  V30 5206 H 505.924 -2.00013 -4.15683 0
M  V30 5207 H 504.167 -1.94319 -3.87843 0
M  V30 5208 H 504.838 -1.27707 -5.37024 0
M  V30 5209 H 507.314 0.218486 -4.15526 0
M  V30 5210 H 506.19 0.730782 -5.44014 0
M  V30 5211 H 506.451 1.77251 -4.05012 0
M  V30 5212 N 505.51 1.54411 -0.315457 0
M  V30 5213 C 506.756 2.00716 0.289972 0
M  V30 5214 C 507.089 1.2034 1.5242 0
M  V30 5215 O 506.364 0.283579 1.92422 0
M  V30 5216 C 506.647 3.54507 0.632196 0
M  V30 5217 C 506.5 4.45615 -0.61218 0
M  V30 5218 C 507.819 4.15421 1.45305 0
M  V30 5219 H 504.938 0.729637 0.10392 0
M  V30 5220 H 507.58 1.8506 -0.430427 0
M  V30 5221 H 505.73 3.67979 1.24595 0
M  V30 5222 H 507.402 4.44026 -1.25053 0
M  V30 5223 H 505.645 4.15621 -1.24264 0
M  V30 5224 H 506.316 5.51022 -0.328379 0
M  V30 5225 H 508.792 4.05474 0.934331 0
M  V30 5226 H 507.668 5.23157 1.66127 0
M  V30 5227 H 507.929 3.68223 2.44671 0
M  V30 5228 N 506.988 0.0434614 1.5754 0
M  V30 5229 C 508.234 -0.632971 1.92669 0
M  V30 5230 C 508.567 -1.70947 0.921446 0
M  V30 5231 O 507.842 -1.94426 -0.0537202 0
M  V30 5232 C 508.125 -1.23619 3.38216 0
M  V30 5233 C 507.978 -0.168274 4.49485 0
M  V30 5234 C 509.297 -2.15008 3.84005 0
M  V30 5235 H 506.416 -0.228629 0.700641 0
M  V30 5236 H 509.058 0.103651 1.89717 0
M  V30 5237 H 507.208 -1.864 3.40863 0
M  V30 5238 H 508.88 0.463196 4.58969 0
M  V30 5239 H 507.123 0.504581 4.30855 0
M  V30 5240 H 507.794 -0.630218 5.48391 0
M  V30 5241 H 510.27 -1.62198 3.83185 0
M  V30 5242 H 509.146 -2.54161 4.86511 0
M  V30 5243 H 509.407 -3.04707 3.20322 0
M  V30 5244 N 508.466 -1.55915 -0.229846 0
M  V30 5245 C 509.743 -1.6932 -0.979295 0
M  V30 5246 C 510.123 -0.588321 -2.02736 0
M  V30 5247 O 509.471 0.40586 -2.24867 0
M  V30 5248 C 509.681 -3.10305 -1.59724 0
M  V30 5249 C 511.029 -3.6945 -2.09264 0
M  V30 5250 O 512.053 -3.13214 -1.69633 0
M  V30 5251 O 510.912 -4.68072 -2.82082 0
M  V30 5252 H 508.006 -0.689314 -0.456919 0
M  V30 5253 H 510.552 -1.68238 -0.222283 0
M  V30 5254 H 509.324 -3.82177 -0.840039 0
M  V30 5255 H 508.947 -3.1547 -2.42001 0
M  V30 5256 N 509.944 0.496216 -1.49584 0
M  V30 5257 C 510.874 1.60576 -1.69521 0
M  V30 5258 C 511.855 1.61169 -0.543933 0
M  V30 5259 O 513.04 1.77834 -0.78031 0
M  V30 5260 C 510.17 2.99038 -1.76616 0
M  V30 5261 C 509.124 3.13312 -2.91581 0
M  V30 5262 C 508.45 4.53172 -2.83794 0
M  V30 5263 C 509.75 2.92886 -4.32452 0
M  V30 5264 H 511.444 1.44146 -2.62416 0
M  V30 5265 H 508.99 0.692024 -1.26282 0
M  V30 5266 H 510.943 3.76564 -1.8915 0
M  V30 5267 H 509.667 3.16568 -0.80324 0
M  V30 5268 H 508.326 2.38213 -2.78658 0
M  V30 5269 H 507.974 4.67585 -1.854 0
M  V30 5270 H 507.674 4.63662 -3.60958 0
M  V30 5271 H 509.198 5.32752 -2.98342 0
M  V30 5272 H 510.612 3.60178 -4.46032 0
M  V30 5273 H 509.009 3.14844 -5.10875 0
M  V30 5274 H 510.079 1.88966 -4.46565 0
M  V30 5275 N 511.423 1.38739 0.74761 0
M  V30 5276 C 512.386 1.36241 1.84312 0
M  V30 5277 C 513.386 0.261811 1.58654 0
M  V30 5278 O 514.576 0.519031 1.66288 0
M  V30 5279 C 511.708 1.12253 3.21888 0
M  V30 5280 H 512.901 2.33712 1.87933 0
M  V30 5281 H 510.454 1.2412 0.949946 0
M  V30 5282 H 511.189 0.154133 3.23934 0
M  V30 5283 H 510.974 1.91943 3.41907 0
M  V30 5284 H 512.464 1.13215 4.0196 0
M  V30 5285 N 512.901 -0.976442 1.23707 0
M  V30 5286 C 513.864 -2.0511 1.02287 0
M  V30 5287 C 514.864 -1.60791 -0.0167195 0
M  V30 5288 O 516.054 -1.72761 0.223408 0
M  V30 5289 C 513.186 -3.36458 0.548507 0
M  V30 5290 H 514.379 -2.25545 1.9766 0
M  V30 5291 H 511.932 -1.15042 1.05806 0
M  V30 5292 H 512.667 -3.21713 -0.408818 0
M  V30 5293 H 512.452 -3.69967 1.29874 0
M  V30 5294 H 513.942 -4.15489 0.419406 0
M  V30 5295 N 514.379 -1.04941 -1.1758 0
M  V30 5296 C 515.289 -0.658826 -2.25159 0
M  V30 5297 C 516.305 0.318941 -1.71052 0
M  V30 5298 O 517.481 0.171669 -2.00667 0
M  V30 5299 C 514.546 -0.0369522 -3.4668 0
M  V30 5300 C 513.607 -1.06484 -4.15884 0
M  V30 5301 C 512.84 -0.472551 -5.31604 0
M  V30 5302 O 513.063 0.718736 -5.65854 0
M  V30 5303 O 511.997 -1.20557 -5.89703 0
M  V30 5304 H 515.823 -1.55533 -2.60851 0
M  V30 5305 H 513.408 -0.820819 -1.24832 0
M  V30 5306 H 515.29 0.308784 -4.20267 0
M  V30 5307 H 513.965 0.833238 -3.12792 0
M  V30 5308 H 512.872 -1.46253 -3.44327 0
M  V30 5309 H 514.205 -1.9061 -4.53794 0
M  V30 5310 N 515.857 1.33968 -0.830081 0
M  V30 5311 C 516.82 2.27694 -0.26235 0
M  V30 5312 C 517.82 1.50589 0.563876 0
M  V30 5313 O 519.01 1.70028 0.378941 0
M  V30 5314 C 516.142 3.35002 0.63138 0
M  V30 5315 H 517.335 2.79419 -1.08928 0
M  V30 5316 H 514.888 1.44221 -0.602486 0
M  V30 5317 H 515.623 2.88504 1.48109 0
M  V30 5318 H 515.408 3.92079 0.0403276 0
M  V30 5319 H 516.898 4.04897 1.02217 0
M  V30 5320 N 517.335 0.585699 1.46312 0
M  V30 5321 C 518.583 0.072278 2.01971 0
M  V30 5322 C 518.904 -1.29345 1.45928 0
M  V30 5323 O 518.174 -1.84973 0.645109 0
M  V30 5324 H 516.754 0.023729 0.746623 0
M  V30 5325 H 519.416 0.762155 1.7938 0
M  V30 5326 H 518.512 0.00552767 3.121 0
M  V30 5327 N 518.813 -1.54241 0.323641 0
M  V30 5328 C 520.061 -2.00174 -0.278359 0
M  V30 5329 C 520.382 -1.2134 -1.52648 0
M  V30 5330 O 519.652 -0.315244 -1.93347 0
M  V30 5331 H 518.232 -0.739463 -0.105845 0
M  V30 5332 H 520.894 -1.89864 0.440204 0
M  V30 5333 H 519.99 -3.07486 -0.5347 0
M  V30 5334 N 520.291 -0.0518155 -1.57515 0
M  V30 5335 C 521.239 0.940195 -2.12751 0
M  V30 5336 C 522.233 1.3218 -1.05948 0
M  V30 5337 O 523.439 1.30138 -1.24355 0
M  V30 5338 H 519.814 0.321066 -0.680015 0
M  V30 5339 H 521.785 0.449217 -2.94999 0
M  V30 5340 C 520.534 2.2055 -2.68799 0
M  V30 5341 H 519.857 1.92066 -3.50643 0
M  V30 5342 H 521.297 2.88119 -3.11068 0
M  V30 5343 C 519.756 2.95061 -1.62605 0
M  V30 5344 O 520.286 3.88025 -1.03921 0
M  V30 5345 N 518.492 2.57804 -1.34111 0
M  V30 5346 H 518.039 1.82281 -1.8202 0
M  V30 5347 H 517.997 3.07964 -0.632872 0
M  V30 5348 N 521.769 1.56035 0.221574 0
M  V30 5349 C 523.016 1.79047 0.94597 0
M  V30 5350 C 523.344 0.62057 1.84334 0
M  V30 5351 O 522.599 -0.395053 1.91671 0
M  V30 5352 C 522.898 3.07813 1.8162 0
M  V30 5353 C 522.564 4.3797 1.07206 0
M  V30 5354 C 521.226 4.73334 0.866508 0
M  V30 5355 C 523.578 5.18326 0.546565 0
M  V30 5356 C 520.906 5.8657 0.123549 0
M  V30 5357 C 523.258 6.32335 -0.18305 0
M  V30 5358 C 521.922 6.66301 -0.399861 0
M  V30 5359 H 521.192 0.655178 0.346155 0
M  V30 5360 H 523.839 1.90299 0.214146 0
M  V30 5361 H 522.144 2.91682 2.61589 0
M  V30 5362 H 523.841 3.2282 2.37884 0
M  V30 5363 H 520.431 4.10202 1.24226 0
M  V30 5364 H 524.615 4.9144 0.692847 0
M  V30 5365 H 519.871 6.11376 -0.0546591 0
M  V30 5366 H 524.045 6.9383 -0.59775 0
M  V30 5367 H 521.672 7.53889 -0.977489 0
M  V30 5368 N 523.247 -0.488276 1.49845 0
M  V30 5369 C 524.157 -1.61451 1.70207 0
M  V30 5370 C 525.173 -1.63877 0.584846 0
M  V30 5371 O 526.349 -1.82063 0.861107 0
M  V30 5372 C 523.414 -2.9776 1.77594 0
M  V30 5373 C 522.475 -3.05861 3.01243 0
M  V30 5374 C 521.708 -4.35668 3.08268 0
M  V30 5375 O 521.931 -5.25197 2.22541 0
M  V30 5376 O 520.865 -4.49005 4.00847 0
M  V30 5377 H 524.691 -1.47199 2.65643 0
M  V30 5378 H 522.276 -0.665939 1.33737 0
M  V30 5379 H 524.158 -3.7875 1.84732 0
M  V30 5380 H 522.833 -3.12248 0.8534 0
M  V30 5381 H 521.74 -2.24012 2.99616 0
M  V30 5382 H 523.073 -2.96304 3.9302 0
M  V30 5383 N 524.725 -1.39134 -0.740242 0
M  V30 5384 C 525.953 -1.39334 -1.5295 0
M  V30 5385 C 526.368 0.0135008 -1.88795 0
M  V30 5386 O 525.725 0.983524 -1.5373 0
M  V30 5387 C 525.776 -2.2614 -2.82034 0
M  V30 5388 O 525.497 -3.61345 -2.47712 0
M  V30 5389 C 526.998 -2.34666 -3.76094 0
M  V30 5390 H 524.218 -0.476103 -0.472828 0
M  V30 5391 H 526.762 -1.82883 -0.9151 0
M  V30 5392 H 524.917 -1.86018 -3.39818 0
M  V30 5393 H 525.331 -4.07194 -3.30595 0
M  V30 5394 H 526.805 -2.99663 -4.63579 0
M  V30 5395 H 527.282 -1.36426 -4.17474 0
M  V30 5396 H 527.888 -2.75236 -3.2423 0
M  V30 5397 N 526.204 0.969867 -1.24223 0
M  V30 5398 C 527.432 1.74756 -1.10761 0
M  V30 5399 C 527.847 1.85713 0.340041 0
M  V30 5400 O 527.204 1.34389 1.23474 0
M  V30 5401 C 527.255 3.16915 -1.73917 0
M  V30 5402 O 526.976 3.06511 -3.13021 0
M  V30 5403 C 528.477 4.11032 -1.66036 0
M  V30 5404 H 525.697 0.548092 -0.387087 0
M  V30 5405 H 528.241 1.2178 -1.64286 0
M  V30 5406 H 526.396 3.66884 -1.244 0
M  V30 5407 H 526.81 3.96079 -3.43834 0
M  V30 5408 H 528.284 5.08446 -2.14911 0
M  V30 5409 H 528.761 4.34785 -0.621159 0
M  V30 5410 H 529.367 3.66972 -2.14969 0
M  V30 5411 N 527.682 1.05563 1.17022 0
M  V30 5412 C 528.629 0.659893 2.21165 0
M  V30 5413 C 529.599 -0.339813 1.62587 0
M  V30 5414 O 530.784 -0.230378 1.89404 0
M  V30 5415 C 527.924 0.0447297 3.45071 0
M  V30 5416 C 527.037 1.09372 4.17926 0
M  V30 5417 C 526.172 0.445481 5.29329 0
M  V30 5418 C 525.211 1.47852 5.93975 0
M  V30 5419 N 524.348 0.854172 6.96885 0
M  V30 5420 H 529.188 1.55243 2.54369 0
M  V30 5421 H 526.725 0.776336 1.24946 0
M  V30 5422 H 528.683 -0.329404 4.15898 0
M  V30 5423 H 527.313 -0.811244 3.1244 0
M  V30 5424 H 526.365 1.58564 3.45777 0
M  V30 5425 H 527.677 1.87773 4.62107 0
M  V30 5426 H 526.831 0.0179688 6.06697 0
M  V30 5427 H 525.57 -0.370481 4.86291 0
M  V30 5428 H 524.575 1.91601 5.15334 0
M  V30 5429 H 525.8 2.29645 6.39093 0
M  V30 5430 H 523.746 0.0587882 6.55974 0
M  V30 5431 H 523.663 1.57567 7.39397 0
M  V30 5432 H 524.931 0.451559 7.78191 0
M  V30 5433 N 529.16 -1.33526 0.837174 0
M  V30 5434 C 530.571 -1.80182 0.489017 0
M  V30 5435 C 530.922 -1.69285 -0.991826 0
M  V30 5436 O 530.047 -1.24113 -1.77271 0
M  V30 5437 C 530.642 -3.27149 0.880866 0
M  V30 5438 C 529.201 -3.71828 0.584872 0
M  V30 5439 C 528.348 -2.54974 1.09011 0
M  V30 5440 H 531.299 -1.21071 1.02603 0
M  V30 5441 H 531.32 -3.80024 0.190239 0
M  V30 5442 H 530.832 -3.35048 1.95869 0
M  V30 5443 H 528.933 -3.69457 -0.48295 0
M  V30 5444 H 529.046 -4.65366 1.13892 0
M  V30 5445 H 527.41 -2.4952 0.511047 0
M  V30 5446 H 528.193 -2.65637 2.17467 0
M  V30 5447 N 530.638 -0.59345 -1.46 0
M  V30 5448 C 531.886 -0.082988 -2.0193 0
M  V30 5449 C 532.207 1.28569 -1.46612 0
M  V30 5450 O 531.477 1.84629 -0.654909 0
M  V30 5451 H 530.057 -0.0276882 -0.746487 0
M  V30 5452 H 532.719 -0.771657 -1.78973 0
M  V30 5453 H 531.815 -0.022079 -3.12092 0
M  V30 5454 N 532.116 1.54067 -0.331816 0
M  V30 5455 C 533.026 2.28322 0.539104 0
M  V30 5456 C 534.042 1.32985 1.1221 0
M  V30 5457 O 535.218 1.6601 1.1403 0
M  V30 5458 C 532.283 3.03277 1.68 0
M  V30 5459 C 531.344 4.14216 1.12798 0
M  V30 5460 C 530.577 4.85588 2.2145 0
M  V30 5461 O 530.8 4.56536 3.41952 0
M  V30 5462 O 529.734 5.72309 1.86404 0
M  V30 5463 H 533.56 3.03632 -0.0641692 0
M  V30 5464 H 531.145 1.49083 -0.0972365 0
M  V30 5465 H 533.027 3.50189 2.34405 0
M  V30 5466 H 531.702 2.30834 2.2693 0
M  V30 5467 H 530.609 3.71635 0.428782 0
M  V30 5468 H 531.942 4.88727 0.583698 0
M  V30 5469 N 533.594 0.0601682 1.57485 0
M  V30 5470 C 534.524 -0.90889 2.15085 0
M  V30 5471 C 535.505 -1.31838 1.07484 0
M  V30 5472 O 536.69 -1.3915 1.35466 0
M  V30 5473 C 533.82 -2.18059 2.7031 0
M  V30 5474 C 532.774 -1.91088 3.82974 0
M  V30 5475 C 532.1 -3.24789 4.24754 0
M  V30 5476 C 533.4 -1.22535 5.07723 0
M  V30 5477 H 535.094 -0.429093 2.96309 0
M  V30 5478 H 532.64 -0.204952 1.42534 0
M  V30 5479 H 534.593 -2.86258 3.09248 0
M  V30 5480 H 533.317 -2.6826 1.8629 0
M  V30 5481 H 531.976 -1.25297 3.44523 0
M  V30 5482 H 531.624 -3.72809 3.37672 0
M  V30 5483 H 531.324 -3.07538 5.00694 0
M  V30 5484 H 532.848 -3.94205 4.66299 0
M  V30 5485 H 534.262 -1.80783 5.4405 0
M  V30 5486 H 532.659 -1.1558 5.88864 0
M  V30 5487 H 533.729 -0.202692 4.84476 0
M  V30 5488 N 535.072 -1.5615 -0.213296 0
M  V30 5489 C 536.302 -1.83372 -0.951757 0
M  V30 5490 C 536.71 -0.638158 -1.78113 0
M  V30 5491 O 536.053 0.402609 -1.79234 0
M  V30 5492 C 536.115 -3.04444 -1.91192 0
M  V30 5493 C 535.779 -4.39107 -1.26627 0
M  V30 5494 C 536.776 -5.15794 -0.652087 0
M  V30 5495 C 534.461 -4.85834 -1.27556 0
M  V30 5496 C 536.455 -6.37376 -0.055814 0
M  V30 5497 C 534.142 -6.07356 -0.675451 0
M  V30 5498 C 535.14 -6.82967 -0.0666367 0
M  V30 5499 O 534.828 -8.0219 0.524119 0
M  V30 5500 H 534.56 -0.613398 -0.284111 0
M  V30 5501 H 537.114 -2.04096 -0.231112 0
M  V30 5502 H 535.344 -2.79559 -2.67178 0
M  V30 5503 H 537.033 -3.18466 -2.51662 0
M  V30 5504 H 537.799 -4.80796 -0.637172 0
M  V30 5505 H 533.678 -4.26949 -1.73883 0
M  V30 5506 H 537.222 -6.96334 0.420004 0
M  V30 5507 H 533.119 -6.41825 -0.687806 0
M  V30 5508 H 533.887 -8.17426 0.419243 0
M  V30 5509 N 536.55 0.480323 -1.50102 0
M  V30 5510 C 537.799 1.22979 -1.59872 0
M  V30 5511 C 538.112 1.93282 -0.30022 0
M  V30 5512 O 539.318 2.70086 -0.276709 0
M  V30 5513 C 537.774 2.23408 -2.82164 0
M  V30 5514 C 537.382 1.5895 -4.18854 0
M  V30 5515 C 539.126 2.99055 -3.01275 0
M  V30 5516 C 537.033 2.57611 -5.32344 0
M  V30 5517 H 535.963 0.462707 -0.59533 0
M  V30 5518 H 538.614 0.501291 -1.7652 0
M  V30 5519 H 536.996 2.99511 -2.59055 0
M  V30 5520 H 538.17 0.887 -4.52182 0
M  V30 5521 H 536.485 0.956191 -4.05273 0
M  V30 5522 H 539.082 3.72876 -3.83233 0
M  V30 5523 H 539.425 3.57897 -2.12639 0
M  V30 5524 H 539.958 2.30066 -3.24522 0
M  V30 5525 H 536.697 2.03521 -6.23105 0
M  V30 5526 H 536.217 3.26041 -5.03445 0
M  V30 5527 H 537.896 3.19627 -5.62537 0
M  V30 5528 N 538.028 1.39524 0.732853 0
M  V30 5529 C 538.978 1.34905 1.83806 0
M  V30 5530 C 539.962 0.229546 1.59254 0
M  V30 5531 O 541.154 0.467255 1.70721 0
M  V30 5532 C 538.283 1.19699 3.21756 0
M  V30 5533 C 537.369 2.36359 3.5213 0
M  V30 5534 N 537.76 3.61834 3.53426 0
M  V30 5535 C 536.058 2.29363 3.82503 0
M  V30 5536 C 536.759 4.38992 3.81655 0
M  V30 5537 N 535.735 3.68606 3.99538 0
M  V30 5538 H 539.537 2.29882 1.83116 0
M  V30 5539 H 537.051 1.33051 0.931194 0
M  V30 5540 H 539.048 1.14472 4.00876 0
M  V30 5541 H 537.708 0.256739 3.23683 0
M  V30 5542 H 538.719 3.95228 3.34686 0
M  V30 5543 H 535.396 1.43612 3.92023 0
M  V30 5544 H 536.786 5.47763 3.89108 0
M  V30 5545 N 539.506 -0.963266 1.24736 0
M  V30 5546 C 540.453 -2.05857 1.04363 0
M  V30 5547 C 541.423 -1.6604 -0.0444951 0
M  V30 5548 O 542.608 -1.90477 0.110999 0
M  V30 5549 C 539.748 -3.38745 0.659235 0
M  V30 5550 C 538.861 -3.9173 1.82131 0
M  V30 5551 C 537.996 -5.12906 1.38208 0
M  V30 5552 C 537.035 -5.58098 2.51382 0
M  V30 5553 N 536.172 -6.7049 2.08295 0
M  V30 5554 H 541.012 -2.22616 1.98107 0
M  V30 5555 H 538.549 -1.09103 0.986661 0
M  V30 5556 H 540.507 -4.15107 0.417371 0
M  V30 5557 H 539.137 -3.21898 -0.241201 0
M  V30 5558 H 538.189 -3.11966 2.17672 0
M  V30 5559 H 539.501 -4.21225 2.67153 0
M  V30 5560 H 538.655 -5.96657 1.09935 0
M  V30 5561 H 537.394 -4.85105 0.502456 0
M  V30 5562 H 536.399 -4.72917 2.80409 0
M  V30 5563 H 537.624 -5.87911 3.39909 0
M  V30 5564 H 535.57 -6.44416 1.22737 0
M  V30 5565 H 535.487 -6.99458 2.86869 0
M  V30 5566 H 536.755 -7.57672 1.83175 0
M  V30 5567 N 540.985 -1.06182 -1.16461 0
M  V30 5568 C 542.233 -0.776326 -1.86595 0
M  V30 5569 C 542.554 0.69921 -1.82033 0
M  V30 5570 O 541.824 1.50579 -1.2531 0
M  V30 5571 H 540.404 -0.284184 -0.690832 0
M  V30 5572 H 543.066 -1.34308 -1.41235 0
M  V30 5573 H 542.162 -1.10022 -2.92064 0
M  V30 5574 N 542.463 1.3308 -0.844243 0
M  V30 5575 C 543.712 1.96868 -0.438833 0
M  V30 5576 C 544.025 1.67599 1.00846 0
M  V30 5577 O 545.231 2.25043 1.51881 0
M  V30 5578 C 543.687 3.5234 -0.73377 0
M  V30 5579 C 543.295 3.90481 -2.1961 0
M  V30 5580 C 545.039 4.22653 -0.395574 0
M  V30 5581 C 542.946 5.38954 -2.43481 0
M  V30 5582 H 541.876 0.736749 -0.160364 0
M  V30 5583 H 544.527 1.51623 -1.03358 0
M  V30 5584 H 542.909 3.95941 -0.068589 0
M  V30 5585 H 544.083 3.57922 -2.90221 0
M  V30 5586 H 542.398 3.33165 -2.4978 0
M  V30 5587 H 544.995 5.31848 -0.551477 0
M  V30 5588 H 545.338 4.11004 0.661921 0
M  V30 5589 H 545.871 3.84601 -1.01621 0
M  V30 5590 H 542.61 5.55612 -3.47816 0
M  V30 5591 H 542.13 5.72954 -1.77437 0
M  V30 5592 H 543.809 6.05907 -2.26905 0
M  V30 5593 N 543.941 0.601185 1.45683 0
M  V30 5594 C 545.169 0.100054 2.06658 0
M  V30 5595 C 545.584 -1.21285 1.44691 0
M  V30 5596 O 544.941 -1.73735 0.558772 0
M  V30 5597 C 544.992 -0.0528579 3.61461 0
M  V30 5598 O 544.713 1.20809 4.21114 0
M  V30 5599 C 546.214 -0.586193 4.39407 0
M  V30 5600 H 543.434 0.065905 0.667756 0
M  V30 5601 H 545.978 0.827101 1.87028 0
M  V30 5602 H 544.133 -0.730203 3.80456 0
M  V30 5603 H 544.547 1.03368 5.14213 0
M  V30 5604 H 546.021 -0.642297 5.4825 0
M  V30 5605 H 546.498 -1.60713 4.0874 0
M  V30 5606 H 547.104 0.0568935 4.25262 0
M  V30 5607 N 545.419 -1.53889 0.339982 0
M  V30 5608 C 546.369 -2.2165 -0.534354 0
M  V30 5609 C 547.353 -1.20266 -1.06887 0
M  V30 5610 O 548.545 -1.45827 -1.00316 0
M  V30 5611 C 545.674 -2.99014 -1.68659 0
M  V30 5612 C 544.76 -4.07751 -1.16618 0
M  V30 5613 N 545.151 -5.04469 -0.366717 0
M  V30 5614 C 543.449 -4.21998 -1.4434 0
M  V30 5615 C 544.15 -5.81638 -0.0847275 0
M  V30 5616 N 543.126 -5.39388 -0.675391 0
M  V30 5617 H 546.928 -2.93781 0.0835562 0
M  V30 5618 H 544.442 -1.61736 0.146665 0
M  V30 5619 H 546.439 -3.46056 -2.32489 0
M  V30 5620 H 545.099 -2.28408 -2.30781 0
M  V30 5621 H 546.11 -5.17899 -0.00811038 0
M  V30 5622 H 542.787 -3.62612 -2.06928 0
M  V30 5623 H 544.177 -6.69563 0.559943 0
M  V30 5624 N 546.897 -0.0685191 -1.57451 0
M  V30 5625 C 548.146 0.600898 -1.92541 0
M  V30 5626 C 548.459 1.70967 -0.950239 0
M  V30 5627 O 549.665 2.43844 -1.19384 0
M  V30 5628 C 548.121 1.12019 -3.42023 0
M  V30 5629 C 547.729 0.0426028 -4.4798 0
M  V30 5630 C 549.473 1.76386 -3.86119 0
M  V30 5631 C 547.38 0.575759 -5.88591 0
M  V30 5632 H 546.31 0.228225 -0.71863 0
M  V30 5633 H 548.961 -0.140223 -1.82963 0
M  V30 5634 H 547.343 1.91418 -3.46663 0
M  V30 5635 H 548.517 -0.73182 -4.54952 0
M  V30 5636 H 546.832 -0.504642 -4.13331 0
M  V30 5637 H 549.429 2.17302 -4.88553 0
M  V30 5638 H 549.772 2.62255 -3.23308 0
M  V30 5639 H 550.305 1.03615 -3.84069 0
M  V30 5640 H 547.044 -0.245691 -6.55039 0
M  V30 5641 H 546.564 1.31778 -5.85145 0
M  V30 5642 H 548.243 1.0532 -6.3837 0
M  V30 5643 N 548.375 1.56261 0.205012 0
M  V30 5644 C 549.623 1.79684 0.925096 0
M  V30 5645 C 549.944 0.63989 1.84202 0
M  V30 5646 O 549.214 -0.342345 1.92885 0
M  V30 5647 H 547.794 0.662774 0.344587 0
M  V30 5648 H 550.456 1.93734 0.212899 0
M  V30 5649 H 549.552 2.72467 1.52211 0
M  V30 5650 N 549.853 -0.472356 1.50355 0
M  V30 5651 C 551.083 -1.24603 1.64796 0
M  V30 5652 C 551.491 -1.86297 0.330156 0
M  V30 5653 O 550.834 -1.69934 -0.697728 0
M  V30 5654 C 550.896 -2.39578 2.68035 0
M  V30 5655 C 550.56 -1.98531 4.11624 0
M  V30 5656 C 551.557 -1.50856 4.97532 0
M  V30 5657 C 549.242 -2.0729 4.57532 0
M  V30 5658 C 551.236 -1.12481 6.27397 0
M  V30 5659 C 548.923 -1.68527 5.87403 0
M  V30 5660 C 549.921 -1.212 6.7216 0
M  V30 5661 O 549.609 -0.829728 7.99607 0
M  V30 5662 H 549.341 -0.383035 0.55701 0
M  V30 5663 H 551.895 -0.570392 1.97321 0
M  V30 5664 H 550.125 -3.10309 2.30749 0
M  V30 5665 H 551.814 -3.01544 2.71709 0
M  V30 5666 H 552.58 -1.43511 4.63281 0
M  V30 5667 H 548.459 -2.43076 3.91708 0
M  V30 5668 H 552.003 -0.754698 6.93506 0
M  V30 5669 H 547.9 -1.7553 6.21176 0
M  V30 5670 H 548.668 -0.958689 8.12866 0
M  V30 5671 N 551.331 -1.39911 -0.725443 0
M  V30 5672 C 552.559 -1.40949 -1.51463 0
M  V30 5673 C 552.974 -0.0065242 -1.88799 0
M  V30 5674 O 552.331 0.967163 -1.54765 0
M  V30 5675 C 552.382 -2.29119 -2.79619 0
M  V30 5676 O 552.103 -3.63952 -2.43866 0
M  V30 5677 C 553.604 -2.38642 -3.73584 0
M  V30 5678 H 550.824 -0.481091 -0.467752 0
M  V30 5679 H 553.368 -1.83843 -0.895651 0
M  V30 5680 H 551.523 -1.89612 -3.37826 0
M  V30 5681 H 551.937 -4.10677 -3.26258 0
M  V30 5682 H 553.411 -3.04563 -4.60375 0
M  V30 5683 H 553.888 -1.40846 -4.16004 0
M  V30 5684 H 554.494 -2.78659 -3.21293 0
M  V30 5685 N 552.809 0.956637 -1.25245 0
M  V30 5686 C 554.086 1.67716 -1.00651 0
M  V30 5687 C 554.466 2.0585 0.467866 0
M  V30 5688 O 553.814 1.77029 1.44475 0
M  V30 5689 C 554.024 2.90093 -1.94028 0
M  V30 5690 C 555.372 3.6209 -2.21756 0
M  V30 5691 O 556.396 3.00171 -1.9177 0
M  V30 5692 O 555.255 4.7358 -2.72735 0
M  V30 5693 H 552.349 0.733731 -0.381533 0
M  V30 5694 H 554.895 1.00974 -1.3639 0
M  V30 5695 H 553.667 2.58689 -2.93591 0
M  V30 5696 H 553.29 3.64566 -1.58674 0
M  V30 5697 N 554.287 1.06798 1.15896 0
M  V30 5698 C 555.217 0.704677 2.22613 0
M  V30 5699 C 556.198 -0.305252 1.67339 0
M  V30 5700 O 557.383 -0.179247 1.93371 0
M  V30 5701 C 554.513 0.0957325 3.47168 0
M  V30 5702 C 553.467 1.0322 4.15367 0
M  V30 5703 C 552.793 0.286293 5.33933 0
M  V30 5704 C 554.093 2.36341 4.65768 0
M  V30 5705 H 555.787 1.59688 2.53259 0
M  V30 5706 H 553.333 0.769257 1.21731 0
M  V30 5707 H 555.286 -0.170333 4.21056 0
M  V30 5708 H 554.01 -0.831516 3.15838 0
M  V30 5709 H 552.669 1.28309 3.43413 0
M  V30 5710 H 552.317 -0.644237 4.98857 0
M  V30 5711 H 552.017 0.910436 5.80504 0
M  V30 5712 H 553.541 0.0278938 6.10594 0
M  V30 5713 H 554.955 2.1561 5.31211 0
M  V30 5714 H 553.352 2.94299 5.2298 0
M  V30 5715 H 554.422 2.99047 3.81705 0
M  V30 5716 N 555.766 -1.3263 0.851289 0
M  V30 5717 C 557.177 -1.79653 0.5081 0
M  V30 5718 C 557.528 -1.70327 -0.973815 0
M  V30 5719 O 556.653 -1.25986 -1.75944 0
M  V30 5720 C 557.248 -3.26196 0.915515 0
M  V30 5721 C 555.807 -3.71187 0.624277 0
M  V30 5722 C 554.954 -2.53804 1.11709 0
M  V30 5723 H 557.905 -1.19976 1.03882 0
M  V30 5724 H 557.926 -3.79801 0.230535 0
M  V30 5725 H 557.438 -3.32952 1.99411 0
M  V30 5726 H 555.539 -3.69948 -0.443737 0
M  V30 5727 H 555.652 -4.64132 1.18821 0
M  V30 5728 H 554.016 -2.48964 0.537484 0
M  V30 5729 H 554.799 -2.63315 2.20272 0
M  V30 5730 N 557.244 -0.608902 -1.45362 0
M  V30 5731 C 558.469 -0.10921 -2.07112 0
M  V30 5732 C 558.894 1.19779 -1.45033 0
M  V30 5733 O 558.252 1.72961 -0.543527 0
M  V30 5734 C 558.3 0.0155745 -3.60597 0
M  V30 5735 O 557.404 1.06546 -3.98399 0
M  V30 5736 H 556.745 -0.0746619 -0.659789 0
M  V30 5737 H 559.275 -0.839283 -1.86594 0
M  V30 5738 H 559.285 0.213364 -4.07442 0
M  V30 5739 H 557.96 -0.938765 -4.05167 0
M  V30 5740 H 556.537 0.844024 -3.63223 0
M  V30 5741 N 558.722 1.53707 -0.348139 0
M  V30 5742 C 560.138 1.596 0.00361134 0
M  V30 5743 C 560.338 1.36394 1.4832 0
M  V30 5744 O 559.394 1.16046 2.24253 0
M  V30 5745 C 560.707 2.97512 -0.436682 0
M  V30 5746 C 562.255 3.10568 -0.389416 0
M  V30 5747 C 562.73 4.50866 -0.805249 0
M  V30 5748 N 564.221 4.56929 -0.759616 0
M  V30 5749 C 564.956 5.63643 -1.05327 0
M  V30 5750 N 564.452 6.78189 -1.41531 0
M  V30 5751 N 566.245 5.5354 -0.977207 0
M  V30 5752 H 558.396 1.67044 -1.31187 0
M  V30 5753 H 560.659 0.782559 -0.535075 0
M  V30 5754 H 560.365 3.19575 -1.46849 0
M  V30 5755 H 560.239 3.76742 0.185744 0
M  V30 5756 H 562.626 2.88226 0.633228 0
M  V30 5757 H 562.707 2.33387 -1.04711 0
M  V30 5758 H 562.351 4.73943 -1.82593 0
M  V30 5759 H 562.281 5.26452 -0.124989 0
M  V30 5760 H 564.772 3.74675 -0.49265 0
M  V30 5761 H 565.085 7.55541 -1.62411 0
M  V30 5762 H 563.43 6.79624 -1.45381 0
M  V30 5763 H 566.621 4.62932 -0.693675 0
M  V30 5764 H 566.794 6.36614 -1.2094 0
M  V30 5765 N 560.2 0.0768682 1.57412 0
M  V30 5766 C 561.133 -0.924685 2.08626 0
M  V30 5767 C 562.111 -1.28792 0.992542 0
M  V30 5768 O 563.295 -1.39634 1.26628 0
M  V30 5769 C 560.422 -2.23131 2.54814 0
M  V30 5770 C 559.468 -2.01928 3.75669 0
M  V30 5771 S 560.301 -1.27397 5.20125 0
M  V30 5772 C 561.457 -2.59329 5.69648 0
M  V30 5773 H 561.69 -0.488928 2.93252 0
M  V30 5774 H 559.223 -0.136014 1.538 0
M  V30 5775 H 561.181 -2.98226 2.82084 0
M  V30 5776 H 559.842 -2.63831 1.70447 0
M  V30 5777 H 559.035 -2.98639 4.05993 0
M  V30 5778 H 558.637 -1.34967 3.48798 0
M  V30 5779 H 560.929 -3.55394 5.76803 0
M  V30 5780 H 561.872 -2.33608 6.68456 0
M  V30 5781 H 562.28 -2.66767 4.9749 0
M  V30 5782 N 561.678 -1.56367 -0.196722 0
M  V30 5783 C 562.641 -1.93561 -1.22746 0
M  V30 5784 C 563.641 -0.816566 -1.38524 0
M  V30 5785 O 564.831 -1.084 -1.36363 0
M  V30 5786 C 561.963 -2.20823 -2.59712 0
M  V30 5787 H 563.156 -2.85774 -0.909586 0
M  V30 5788 H 560.709 -1.50032 -0.438174 0
M  V30 5789 H 561.444 -1.31243 -2.96557 0
M  V30 5790 H 561.229 -3.02368 -2.49632 0
M  V30 5791 H 562.719 -2.50608 -3.34044 0
M  V30 5792 N 563.156 0.464375 -1.50603 0
M  V30 5793 C 564.384 1.23907 -1.65695 0
M  V30 5794 C 564.799 1.85658 -0.343027 0
M  V30 5795 O 564.156 1.69529 0.675739 0
M  V30 5796 C 564.207 2.3429 -2.75301 0
M  V30 5797 O 563.928 1.7507 -4.01599 0
M  V30 5798 C 565.429 3.25051 -3.01424 0
M  V30 5799 H 562.649 0.374485 -0.556778 0
M  V30 5800 H 565.193 0.55353 -1.96866 0
M  V30 5801 H 563.348 2.98607 -2.46804 0
M  V30 5802 H 563.762 2.47812 -4.62266 0
M  V30 5803 H 565.236 3.98699 -3.81763 0
M  V30 5804 H 565.713 3.84227 -2.12758 0
M  V30 5805 H 566.319 2.66463 -3.31477 0
M  V30 5806 N 564.634 1.40294 0.718013 0
M  V30 5807 C 565.566 1.36281 1.84283 0
M  V30 5808 C 566.579 0.268621 1.60569 0
M  V30 5809 O 567.768 0.528798 1.70487 0
M  V30 5810 C 564.868 1.09741 3.2064 0
M  V30 5811 C 564.041 2.30767 3.71571 0
M  V30 5812 C 563.1 2.00424 4.86535 0
M  V30 5813 O 562.126 2.73268 4.99313 0
M  V30 5814 N 563.328 0.980724 5.72156 0
M  V30 5815 H 566.093 2.3322 1.88225 0
M  V30 5816 H 563.654 1.34616 0.899453 0
M  V30 5817 H 565.646 0.874322 3.95143 0
M  V30 5818 H 564.216 0.214771 3.11861 0
M  V30 5819 H 563.436 2.68921 2.88228 0
M  V30 5820 H 564.724 3.11455 4.02335 0
M  V30 5821 H 564.122 0.377375 5.6444 0
M  V30 5822 H 562.679 0.817538 6.46653 0
M  V30 5823 N 566.112 -0.949982 1.2575 0
M  V30 5824 C 567.075 -2.02894 1.06615 0
M  V30 5825 C 568.075 -1.60791 0.0173905 0
M  V30 5826 O 569.265 -1.72249 0.260003 0
M  V30 5827 C 566.397 -3.35219 0.619751 0
M  V30 5828 H 567.59 -2.21302 2.02399 0
M  V30 5829 H 565.143 -1.12772 1.08223 0
M  V30 5830 H 565.878 -3.22508 -0.340486 0
M  V30 5831 H 565.663 -3.67129 1.37692 0
M  V30 5832 H 567.153 -4.14505 0.507443 0
M  V30 5833 N 567.59 -1.07411 -1.15328 0
M  V30 5834 C 568.815 -0.818856 -1.90551 0
M  V30 5835 C 569.24 0.622194 -1.77512 0
M  V30 5836 O 568.598 1.43484 -1.10824 0
M  V30 5837 C 568.646 -1.23267 -3.38877 0
M  V30 5838 O 567.75 -0.378345 -4.10661 0
M  V30 5839 H 567.091 -0.29827 -0.593238 0
M  V30 5840 H 569.621 -1.43289 -1.46046 0
M  V30 5841 H 569.631 -1.20912 -3.89672 0
M  V30 5842 H 568.306 -2.28226 -3.47686 0
M  V30 5843 H 566.883 -0.464437 -3.69996 0
M  V30 5844 N 569.068 1.32177 -0.85831 0
M  V30 5845 C 570.296 2.01313 -0.477582 0
M  V30 5846 C 570.711 1.6449 0.926736 0
M  V30 5847 O 570.068 0.868096 1.60531 0
M  V30 5848 C 570.119 3.56293 -0.611337 0
M  V30 5849 O 569.84 3.91794 -1.96034 0
M  V30 5850 C 571.341 4.42702 -0.230093 0
M  V30 5851 H 568.561 0.644323 -0.187322 0
M  V30 5852 H 571.105 1.68674 -1.15626 0
M  V30 5853 H 569.26 3.87395 0.0196494 0
M  V30 5854 H 569.674 4.86513 -1.95973 0
M  V30 5855 H 571.148 5.50727 -0.374674 0
M  V30 5856 H 571.625 4.3129 0.829779 0
M  V30 5857 H 572.231 4.16997 -0.836302 0
M  V30 5858 N 570.547 0.616602 1.45037 0
M  V30 5859 C 571.477 -0.0840787 2.33349 0
M  V30 5860 C 572.458 -0.849641 1.4736 0
M  V30 5861 O 573.643 -0.818407 1.76113 0
M  V30 5862 C 570.773 -1.07604 3.3021 0
M  V30 5863 C 569.727 -0.423096 4.25904 0
M  V30 5864 C 569.053 -1.52394 5.12523 0
M  V30 5865 C 570.353 0.661457 5.18095 0
M  V30 5866 H 572.047 0.653333 2.92185 0
M  V30 5867 H 569.593 0.315634 1.40498 0
M  V30 5868 H 571.546 -1.57485 3.90866 0
M  V30 5869 H 570.27 -1.84416 2.69552 0
M  V30 5870 H 568.929 0.05493 3.66559 0
M  V30 5871 H 568.577 -2.28257 4.48227 0
M  V30 5872 H 568.277 -1.09251 5.77354 0
M  V30 5873 H 569.801 -2.02485 5.76049 0
M  V30 5874 H 571.215 0.246353 5.7277 0
M  V30 5875 H 569.612 1.01517 5.91451 0
M  V30 5876 H 570.682 1.53446 4.59981 0
M  V30 5877 N 572.025 -1.5352 0.356285 0
M  V30 5878 C 573.255 -2.05236 -0.236983 0
M  V30 5879 C 573.663 -1.23016 -1.43749 0
M  V30 5880 O 573.006 -0.2615 -1.81829 0
M  V30 5881 C 573.068 -3.52549 -0.7035 0
M  V30 5882 C 572.732 -4.55425 0.379059 0
M  V30 5883 C 573.729 -5.0524 1.22592 0
M  V30 5884 C 571.414 -4.99425 0.536638 0
M  V30 5885 C 573.408 -5.97647 2.21578 0
M  V30 5886 C 571.095 -5.9164 1.52988 0
M  V30 5887 C 572.093 -6.4064 2.3679 0
M  V30 5888 O 571.781 -7.31039 3.34421 0
M  V30 5889 H 571.513 -0.674346 -0.047254 0
M  V30 5890 H 574.067 -1.98962 0.510238 0
M  V30 5891 H 572.297 -3.56331 -1.50217 0
M  V30 5892 H 573.986 -3.87171 -1.21873 0
M  V30 5893 H 574.752 -4.72002 1.11532 0
M  V30 5894 H 570.631 -4.60879 -0.105834 0
M  V30 5895 H 574.175 -6.35816 2.87025 0
M  V30 5896 H 570.072 -6.24293 1.64099 0
M  V30 5897 H 570.84 -7.49009 3.30041 0
M  V30 5898 N 573.503 -0.0852151 -1.57369 0
M  V30 5899 C 574.728 0.592872 -1.98746 0
M  V30 5900 C 575.153 1.61538 -0.963689 0
M  V30 5901 O 574.511 1.81168 0.069071 0
M  V30 5902 C 574.559 1.22599 -3.39119 0
M  V30 5903 O 573.663 2.34185 -3.39457 0
M  V30 5904 H 573.004 0.151314 -0.646529 0
M  V30 5905 H 575.534 -0.163703 -2.03944 0
M  V30 5906 H 575.544 1.56965 -3.76598 0
M  V30 5907 H 574.219 0.476831 -4.13158 0
M  V30 5908 H 572.796 2.01512 -3.13763 0
M  V30 5909 N 574.981 1.5647 0.188427 0
M  V30 5910 C 575.929 1.95971 1.25293 0
M  V30 5911 C 576.923 0.846047 1.4676 0
M  V30 5912 O 578.129 1.03109 1.47542 0
M  V30 5913 H 574.504 0.623253 0.420784 0
M  V30 5914 H 576.475 2.84731 0.892792 0
M  V30 5915 C 575.224 2.32116 2.58877 0
M  V30 5916 H 574.547 3.17341 2.43176 0
M  V30 5917 H 575.987 2.63613 3.3209 0
M  V30 5918 C 574.446 1.15823 3.16365 0
M  V30 5919 O 574.976 0.436785 3.99318 0
M  V30 5920 N 573.182 0.933278 2.75206 0
M  V30 5921 H 572.729 1.52169 2.07852 0
M  V30 5922 H 572.687 0.156976 3.14008 0
M  V30 5923 N 576.459 -0.456382 1.50847 0
M  V30 5924 C 577.407 -1.57318 1.71329 0
M  V30 5925 C 578.401 -1.59187 0.579287 0
M  V30 5926 O 579.607 -1.6316 0.76018 0
M  V30 5927 H 575.982 -0.5223 0.541024 0
M  V30 5928 H 577.953 -1.3721 2.64983 0
M  V30 5929 C 576.702 -2.95142 1.83811 0
M  V30 5930 H 576.025 -2.94428 2.70467 0
M  V30 5931 H 577.465 -3.72702 2.02161 0
M  V30 5932 C 575.924 -3.31636 0.593224 0
M  V30 5933 O 576.454 -4.00852 -0.260898 0
M  V30 5934 N 574.66 -2.87205 0.442902 0
M  V30 5935 H 574.207 -2.31051 1.13901 0
M  V30 5936 H 574.165 -3.11986 -0.38884 0
M  V30 5937 N 577.937 -1.40673 -0.710563 0
M  V30 5938 C 579.186 -1.38525 -1.46607 0
M  V30 5939 C 579.499 0.0077024 -1.95598 0
M  V30 5940 O 580.705 0.151792 -2.71075 0
M  V30 5941 C 579.161 -2.43489 -2.6503 0
M  V30 5942 C 578.769 -3.88619 -2.22888 0
M  V30 5943 C 580.513 -2.50456 -3.42742 0
M  V30 5944 C 578.42 -4.85168 -3.3818 0
M  V30 5945 H 577.35 -0.515092 -0.550632 0
M  V30 5946 H 580.001 -1.66431 -0.772846 0
M  V30 5947 H 578.383 -2.0869 -3.36548 0
M  V30 5948 H 579.557 -4.32588 -1.58758 0
M  V30 5949 H 577.872 -3.85174 -1.58208 0
M  V30 5950 H 580.469 -3.19776 -4.28541 0
M  V30 5951 H 580.812 -1.53665 -3.86902 0
M  V30 5952 H 581.345 -2.84271 -2.78271 0
M  V30 5953 H 578.084 -5.8331 -2.99047 0
M  V30 5954 H 577.604 -4.4586 -4.01209 0
M  V30 5955 H 579.283 -5.05225 -4.04174 0
M  V30 5956 N 579.415 0.9433 -1.26252 0
M  V30 5957 C 580.643 1.72367 -1.14443 0
M  V30 5958 C 581.058 1.86392 0.300572 0
M  V30 5959 O 580.415 1.36978 1.20596 0
M  V30 5960 C 580.466 3.13155 -1.806 0
M  V30 5961 O 580.187 2.99803 -3.19452 0
M  V30 5962 C 581.688 4.07417 -1.74717 0
M  V30 5963 H 578.908 0.539758 -0.398626 0
M  V30 5964 H 581.452 1.18268 -1.66832 0
M  V30 5965 H 579.607 3.64162 -1.32154 0
M  V30 5966 H 580.021 3.88697 -3.52158 0
M  V30 5967 H 581.495 5.03773 -2.25647 0
M  V30 5968 H 581.972 4.3337 -0.713244 0
M  V30 5969 H 582.578 3.6233 -2.22704 0
M  V30 5970 N 580.893 1.08022 1.14757 0
M  V30 5971 C 581.84 0.706657 2.19716 0
M  V30 5972 C 582.81 -0.30525 1.63271 0
M  V30 5973 O 583.995 -0.19015 1.8985 0
M  V30 5974 C 581.135 0.117914 3.44898 0
M  V30 5975 C 580.248 1.18212 4.15512 0
M  V30 5976 C 579.383 0.557659 5.28265 0
M  V30 5977 C 578.422 1.60418 5.90705 0
M  V30 5978 N 577.559 1.0018 6.94916 0
M  V30 5979 H 582.399 1.60603 2.51019 0
M  V30 5980 H 579.936 0.802664 1.23271 0
M  V30 5981 H 581.894 -0.241112 4.16503 0
M  V30 5982 H 580.524 -0.744788 3.1409 0
M  V30 5983 H 579.576 1.65863 3.42335 0
M  V30 5984 H 580.888 1.97533 4.5802 0
M  V30 5985 H 580.042 0.146654 6.06523 0
M  V30 5986 H 578.781 -0.267249 4.86967 0
M  V30 5987 H 577.786 2.02489 5.11154 0
M  V30 5988 H 579.011 2.43149 6.34078 0
M  V30 5989 H 576.957 0.197917 6.55701 0
M  V30 5990 H 576.874 1.73216 7.35889 0
M  V30 5991 H 578.142 0.616523 7.77058 0
M  V30 5992 N 582.371 -1.3172 0.865308 0
M  V30 5993 C 583.301 -2.31109 0.333302 0
M  V30 5994 C 584.282 -1.60148 -0.573301 0
M  V30 5995 O 585.467 -1.87882 -0.491305 0
M  V30 5996 C 582.597 -3.44104 -0.470078 0
M  V30 5997 C 581.551 -4.26623 0.343021 0
M  V30 5998 C 580.877 -5.31482 -0.585756 0
M  V30 5999 C 582.177 -4.98001 1.57456 0
M  V30 6000 H 583.871 -2.75855 1.1638 0
M  V30 6001 H 581.417 -1.3262 0.561069 0
M  V30 6002 H 583.37 -4.12682 -0.852752 0
M  V30 6003 H 582.094 -2.98112 -1.33404 0
M  V30 6004 H 580.753 -3.59707 0.707583 0
M  V30 6005 H 580.401 -4.81741 -1.44686 0
M  V30 6006 H 580.101 -5.87582 -0.0456494 0
M  V30 6007 H 581.625 -6.0292 -0.965375 0
M  V30 6008 H 583.039 -5.59201 1.26359 0
M  V30 6009 H 581.436 -5.63876 2.05339 0
M  V30 6010 H 582.506 -4.25253 2.32997 0
M  V30 6011 N 583.85 -0.624285 -1.44708 0
M  V30 6012 C 584.779 0.0717025 -2.3339 0
M  V30 6013 C 585.76 0.841814 -1.47809 0
M  V30 6014 O 586.946 0.809056 -1.76544 0
M  V30 6015 C 584.076 1.05852 -3.30776 0
M  V30 6016 C 583.029 0.400503 -4.26122 0
M  V30 6017 C 582.356 1.49674 -5.13324 0
M  V30 6018 C 583.656 -0.688924 -5.17737 0
M  V30 6019 H 585.35 -0.668819 -2.91834 0
M  V30 6020 H 582.896 -0.32308 -1.40329 0
M  V30 6021 H 584.849 1.5541 -3.91696 0
M  V30 6022 H 583.572 1.82984 -2.70526 0
M  V30 6023 H 582.231 -0.0743687 -3.66525 0
M  V30 6024 H 581.88 2.25877 -4.49431 0
M  V30 6025 H 581.58 1.06188 -5.77926 0
M  V30 6026 H 583.104 1.99427 -5.77115 0
M  V30 6027 H 584.518 -0.276724 -5.72632 0
M  V30 6028 H 582.915 -1.04652 -5.90904 0
M  V30 6029 H 583.985 -1.55884 -4.5916 0
M  V30 6030 N 585.328 1.53329 -0.364422 0
M  V30 6031 C 586.275 2.25698 0.482607 0
M  V30 6032 C 587.245 1.26325 1.07848 0
M  V30 6033 O 588.43 1.55104 1.11119 0
M  V30 6034 C 585.57 3.04873 1.61699 0
M  V30 6035 C 584.683 4.19135 1.0464 0
M  V30 6036 C 583.818 4.85754 2.14979 0
M  V30 6037 C 582.857 5.9205 1.5538 0
M  V30 6038 N 581.994 6.52365 2.59547 0
M  V30 6039 H 586.834 2.97666 -0.141032 0
M  V30 6040 H 584.371 1.46875 -0.0813692 0
M  V30 6041 H 586.329 3.49051 2.28516 0
M  V30 6042 H 584.959 2.35162 2.2113 0
M  V30 6043 H 584.011 3.79451 0.268553 0
M  V30 6044 H 585.323 4.95525 0.570653 0
M  V30 6045 H 584.477 5.3311 2.89619 0
M  V30 6046 H 583.216 4.08834 2.65906 0
M  V30 6047 H 582.221 5.44058 0.792549 0
M  V30 6048 H 583.446 6.7089 1.0528 0
M  V30 6049 H 581.392 5.78298 3.09689 0
M  V30 6050 H 581.309 7.2429 2.16655 0
M  V30 6051 H 582.577 7.0437 3.33892 0
M  V30 6052 N 586.806 0.0935595 1.57322 0
M  V30 6053 C 587.769 -0.851426 2.12799 0
M  V30 6054 C 588.769 -1.21187 1.0569 0
M  V30 6055 O 589.959 -1.14156 1.31583 0
M  V30 6056 C 587.091 -2.14779 2.64731 0
M  V30 6057 H 588.284 -0.369733 2.97612 0
M  V30 6058 H 585.837 -0.155417 1.55525 0
M  V30 6059 H 586.572 -2.67437 1.83434 0
M  V30 6060 H 586.357 -1.89907 3.43042 0
M  V30 6061 H 587.847 -2.82383 3.07651 0
M  V30 6062 N 588.284 -1.56567 -0.180126 0
M  V30 6063 C 589.533 -1.80685 -0.896426 0
M  V30 6064 C 589.846 -0.669335 -1.83791 0
M  V30 6065 O 591.052 -0.795209 -2.59593 0
M  V30 6066 C 589.508 -3.20132 -1.6445 0
M  V30 6067 C 589.116 -4.41727 -0.747088 0
M  V30 6068 C 590.86 -3.53549 -2.34955 0
M  V30 6069 C 588.767 -5.72195 -1.49489 0
M  V30 6070 H 587.697 -0.673758 -0.338477 0
M  V30 6071 H 590.348 -1.8289 -0.149467 0
M  V30 6072 H 588.73 -3.12218 -2.43589 0
M  V30 6073 H 589.904 -4.608 0.00671129 0
M  V30 6074 H 588.219 -4.16122 -0.152134 0
M  V30 6075 H 590.816 -4.48267 -2.91481 0
M  V30 6076 H 591.159 -2.78006 -3.09868 0
M  V30 6077 H 591.692 -3.62976 -1.62768 0
M  V30 6078 H 588.431 -6.50743 -0.788251 0
M  V30 6079 H 587.951 -5.57115 -2.22224 0
M  V30 6080 H 589.63 -6.1384 -2.04472 0
M  V30 6081 N 589.762 0.448376 -1.51087 0
M  V30 6082 C 590.987 1.22605 -1.6728 0
M  V30 6083 C 591.412 1.84524 -0.365045 0
M  V30 6084 O 590.77 1.6832 0.673642 0
M  V30 6085 C 590.818 2.29393 -2.78229 0
M  V30 6086 O 589.922 3.34608 -2.41063 0
M  V30 6087 H 589.263 0.359705 -0.558129 0
M  V30 6088 H 591.793 0.530903 -1.97592 0
M  V30 6089 H 591.803 2.74352 -3.01986 0
M  V30 6090 H 590.478 1.83701 -3.73131 0
M  V30 6091 H 589.055 2.95202 -2.27838 0
M  V30 6092 N 591.24 1.41047 0.703093 0
M  V30 6093 C 592.651 1.35657 1.28274 0
M  V30 6094 C 593.002 0.0360309 1.96167 0
M  V30 6095 O 592.127 -0.865833 1.98324 0
M  V30 6096 C 592.722 2.45707 2.33267 0
M  V30 6097 C 591.281 2.43738 2.86825 0
M  V30 6098 C 590.428 2.25941 1.60767 0
M  V30 6099 H 593.379 1.50672 0.49836 0
M  V30 6100 H 593.4 2.14333 3.14391 0
M  V30 6101 H 592.912 3.41805 1.83824 0
M  V30 6102 H 591.013 1.51375 3.40465 0
M  V30 6103 H 591.126 3.39779 3.37768 0
M  V30 6104 H 589.49 1.73681 1.86298 0
M  V30 6105 H 590.273 3.24054 1.1333 0
M  V30 6106 N 592.718 -0.936591 1.26751 0
M  V30 6107 C 593.995 -1.66094 1.03306 0
M  V30 6108 C 594.375 -2.06568 -0.435058 0
M  V30 6109 O 593.723 -1.79305 -1.41641 0
M  V30 6110 C 593.933 -2.86969 1.98619 0
M  V30 6111 C 595.281 -3.58516 2.27489 0
M  V30 6112 O 596.305 -2.97082 1.96522 0
M  V30 6113 O 595.164 -4.69181 2.80235 0
M  V30 6114 H 592.258 -0.727568 0.393158 0
M  V30 6115 H 594.804 -0.987914 1.3798 0
M  V30 6116 H 593.576 -2.53985 2.9767 0
M  V30 6117 H 593.199 -3.61996 1.64454 0
M  V30 6118 N 594.196 -1.08629 -1.14182 0
M  V30 6119 C 595.143 -0.718299 -2.19338 0
M  V30 6120 C 596.113 0.296587 -1.63431 0
M  V30 6121 O 597.298 0.180079 -1.89948 0
M  V30 6122 C 594.438 -0.136203 -3.44831 0
M  V30 6123 C 593.551 -1.20414 -4.14879 0
M  V30 6124 C 592.686 -0.585666 -5.27962 0
M  V30 6125 C 591.725 -1.63548 -5.89846 0
M  V30 6126 N 590.862 -1.03864 -6.94375 0
M  V30 6127 H 595.702 -1.61932 -2.50164 0
M  V30 6128 H 593.239 -0.80919 -1.22844 0
M  V30 6129 H 595.197 0.219021 -4.16625 0
M  V30 6130 H 593.827 0.728121 -3.14481 0
M  V30 6131 H 592.879 -1.67676 -3.41451 0
M  V30 6132 H 594.191 -1.99959 -4.56966 0
M  V30 6133 H 593.345 -0.178818 -6.06436 0
M  V30 6134 H 592.084 0.24142 -4.87102 0
M  V30 6135 H 591.089 -2.05197 -5.10073 0
M  V30 6136 H 592.314 -2.46509 -6.3278 0
M  V30 6137 H 590.26 -0.232687 -6.55587 0
M  V30 6138 H 590.177 -1.77116 -7.3496 0
M  V30 6139 H 591.445 -0.657724 -7.7672 0
M  V30 6140 N 595.674 1.31259 -0.872281 0
M  V30 6141 C 596.951 1.91362 -0.404943 0
M  V30 6142 C 597.331 1.79362 1.11321 0
M  V30 6143 O 596.679 1.20277 1.94283 0
M  V30 6144 C 596.889 3.3749 -0.888893 0
M  V30 6145 C 598.237 4.14593 -0.916384 0
M  V30 6146 O 599.261 3.46282 -0.834701 0
M  V30 6147 O 598.12 5.3661 -1.03498 0
M  V30 6148 H 595.214 0.818016 -0.121569 0
M  V30 6149 H 597.76 1.39912 -0.960346 0
M  V30 6150 H 596.532 3.40249 -1.93251 0
M  V30 6151 H 596.155 3.96375 -0.311932 0
M  V30 6152 N 597.152 0.631951 1.44375 0
M  V30 6153 C 598.1 -0.0846693 2.32446 0
M  V30 6154 C 599.094 -0.834957 1.47393 0
M  V30 6155 O 600.3 -0.747764 1.63733 0
M  V30 6156 H 596.675 -0.0461508 0.750583 0
M  V30 6157 H 598.646 0.67619 2.90638 0
M  V30 6158 C 597.395 -1.05211 3.314 0
M  V30 6159 H 596.718 -0.484203 3.96857 0
M  V30 6160 H 598.158 -1.523 3.95703 0
M  V30 6161 C 596.617 -2.13776 2.60387 0
M  V30 6162 O 597.147 -3.21869 2.4034 0
M  V30 6163 N 595.353 -1.89733 2.20113 0
M  V30 6164 H 594.9 -1.01833 2.36618 0
M  V30 6165 H 594.858 -2.62572 1.72926 0
M  V30 6166 N 598.631 -1.53133 0.372548 0
M  V30 6167 C 599.878 -2.01356 -0.214959 0
M  V30 6168 C 600.206 -1.2596 -1.48204 0
M  V30 6169 O 599.461 -0.343511 -1.92662 0
M  V30 6170 C 599.76 -3.53206 -0.545938 0
M  V30 6171 C 599.426 -4.46511 0.627624 0
M  V30 6172 C 598.088 -4.71737 0.949615 0
M  V30 6173 C 600.44 -5.01666 1.41353 0
M  V30 6174 C 597.768 -5.4937 2.05936 0
M  V30 6175 C 600.12 -5.80511 2.51375 0
M  V30 6176 C 598.784 -6.04022 2.84101 0
M  V30 6177 H 598.054 -0.736813 -0.078659 0
M  V30 6178 H 600.701 -1.84682 0.506447 0
M  V30 6179 H 599.006 -3.67864 -1.34845 0
M  V30 6180 H 600.703 -3.87997 -1.01287 0
M  V30 6181 H 597.293 -4.27029 0.366635 0
M  V30 6182 H 601.477 -4.82117 1.17802 0
M  V30 6183 H 596.733 -5.65803 2.31682 0
M  V30 6184 H 600.907 -6.22255 3.12684 0
M  V30 6185 H 598.534 -6.63962 3.70214 0
M  V30 6186 N 600.109 -0.101901 -1.5727 0
M  V30 6187 C 601.339 0.567568 -1.98651 0
M  V30 6188 C 601.747 1.61839 -0.980037 0
M  V30 6189 O 601.09 1.83661 0.0376564 0
M  V30 6190 C 601.152 1.26742 -3.36417 0
M  V30 6191 C 600.816 0.366561 -4.55528 0
M  V30 6192 C 601.813 -0.388022 -5.1845 0
M  V30 6193 C 599.498 0.282629 -5.01504 0
M  V30 6194 C 601.492 -1.21445 -6.25724 0
M  V30 6195 C 599.179 -0.547443 -6.08643 0
M  V30 6196 C 600.177 -1.29462 -6.70618 0
M  V30 6197 O 599.865 -2.11095 -7.7569 0
M  V30 6198 H 599.597 0.156282 -0.657687 0
M  V30 6199 H 602.151 -0.179912 -2.04611 0
M  V30 6200 H 600.381 2.06162 -3.27161 0
M  V30 6201 H 602.07 1.8321 -3.622 0
M  V30 6202 H 602.836 -0.332949 -4.83856 0
M  V30 6203 H 598.715 0.853868 -4.53023 0
M  V30 6204 H 602.259 -1.79814 -6.74027 0
M  V30 6205 H 598.156 -0.603971 -6.42668 0
M  V30 6206 H 598.924 -2.03851 -7.92709 0
M  V30 6207 N 601.587 1.56661 0.17182 0
M  V30 6208 C 602.834 1.81965 0.888529 0
M  V30 6209 C 603.162 0.6789 1.82267 0
M  V30 6210 O 602.417 -0.333875 1.92831 0
M  V30 6211 C 602.716 3.13435 1.71736 0
M  V30 6212 C 602.382 4.41159 0.932184 0
M  V30 6213 C 601.044 4.75851 0.715481 0
M  V30 6214 C 603.396 5.19803 0.381387 0
M  V30 6215 C 600.724 5.86666 -0.063126 0
M  V30 6216 C 603.076 6.31433 -0.384129 0
M  V30 6217 C 601.74 6.64692 -0.611637 0
M  V30 6218 H 601.01 0.665859 0.325136 0
M  V30 6219 H 603.657 1.90884 0.153495 0
M  V30 6220 H 601.962 2.99857 2.52177 0
M  V30 6221 H 603.659 3.30224 2.27493 0
M  V30 6222 H 600.249 4.13947 1.11112 0
M  V30 6223 H 604.433 4.93396 0.536148 0
M  V30 6224 H 599.689 6.10892 -0.249136 0
M  V30 6225 H 603.863 6.91577 -0.818185 0
M  V30 6226 H 601.49 7.50398 -1.21684 0
M  V30 6227 N 603.065 -0.440357 1.51323 0
M  V30 6228 C 604.342 -1.20109 1.5438 0
M  V30 6229 C 604.722 -2.08866 0.306303 0
M  V30 6230 O 604.07 -2.1723 -0.708773 0
M  V30 6231 C 604.28 -2.00555 2.8562 0
M  V30 6232 C 605.628 -2.577 3.37455 0
M  V30 6233 O 606.652 -2.10769 2.8715 0
M  V30 6234 O 605.511 -3.43289 4.25224 0
M  V30 6235 H 602.605 -0.546668 0.620551 0
M  V30 6236 H 605.151 -0.449672 1.63634 0
M  V30 6237 H 603.923 -1.35346 3.67147 0
M  V30 6238 H 603.546 -2.82768 2.79514 0
M  V30 6239 N 604.543 -1.41418 -0.695603 0
M  V30 6240 C 605.789 -1.40982 -1.4578 0
M  V30 6241 C 606.122 -0.0187763 -1.94191 0
M  V30 6242 O 605.397 0.95346 -1.69527 0
M  V30 6243 C 605.68 -2.41657 -2.66972 0
M  V30 6244 C 605.533 -3.89869 -2.24327 0
M  V30 6245 C 606.852 -2.39589 -3.69168 0
M  V30 6246 H 603.971 -0.513405 -0.528757 0
M  V30 6247 H 606.613 -1.72693 -0.792275 0
M  V30 6248 H 604.763 -2.14746 -3.23754 0
M  V30 6249 H 606.435 -4.27683 -1.72872 0
M  V30 6250 H 604.678 -4.04737 -1.56111 0
M  V30 6251 H 605.349 -4.55857 -3.11285 0
M  V30 6252 H 607.825 -2.63471 -3.2206 0
M  V30 6253 H 606.701 -3.12044 -4.51575 0
M  V30 6254 H 606.962 -1.41447 -4.18862 0
M  V30 6255 N 606.021 0.929856 -1.27246 0
M  V30 6256 C 606.968 2.03017 -1.09785 0
M  V30 6257 C 607.938 1.661 0.000456744 0
M  V30 6258 O 609.123 1.90116 -0.161462 0
M  V30 6259 C 606.263 3.36878 -0.748816 0
M  V30 6260 C 605.376 3.86763 -1.92453 0
M  V30 6261 C 604.511 5.09061 -1.51758 0
M  V30 6262 C 603.55 5.51237 -2.66091 0
M  V30 6263 N 602.687 6.64732 -2.25999 0
M  V30 6264 H 607.527 2.17285 -2.03939 0
M  V30 6265 H 605.064 1.06448 -1.01524 0
M  V30 6266 H 607.022 4.13855 -0.527283 0
M  V30 6267 H 605.652 3.22424 0.155771 0
M  V30 6268 H 604.704 3.06086 -2.25867 0
M  V30 6269 H 606.016 4.13994 -2.78227 0
M  V30 6270 H 605.17 5.93532 -1.25716 0
M  V30 6271 H 603.909 4.83602 -0.630896 0
M  V30 6272 H 602.914 4.65316 -2.92849 0
M  V30 6273 H 604.139 5.78692 -3.55377 0
M  V30 6274 H 602.085 6.40935 -1.3978 0
M  V30 6275 H 602.002 6.91607 -3.05313 0
M  V30 6276 H 603.27 7.52549 -2.03199 0
M  V30 6277 N 607.499 1.09233 1.13605 0
M  V30 6278 C 608.776 0.739633 1.81077 0
M  V30 6279 C 609.156 -0.775595 1.96336 0
M  V30 6280 O 608.504 -1.69726 1.52988 0
M  V30 6281 C 608.714 1.47636 3.16235 0
M  V30 6282 C 610.062 1.64087 3.91613 0
M  V30 6283 O 611.086 1.43871 3.25852 0
M  V30 6284 O 609.945 1.97511 5.0956 0
M  V30 6285 H 607.039 0.265464 0.783236 0
M  V30 6286 H 609.585 1.19441 1.20549 0
M  V30 6287 H 608.357 2.50818 3.00344 0
M  V30 6288 H 607.98 1.01362 3.84462 0
M  V30 6289 N 608.977 -1.30795 0.87923 0
M  V30 6290 C 610.254 -1.91145 0.415086 0
M  V30 6291 C 610.634 -1.7995 -1.10368 0
M  V30 6292 O 609.982 -1.21305 -1.93642 0
M  V30 6293 C 610.192 -3.37014 0.906778 0
M  V30 6294 C 611.54 -4.14101 0.938358 0
M  V30 6295 O 612.564 -3.45834 0.853053 0
M  V30 6296 O 611.423 -5.36054 1.06342 0
M  V30 6297 H 608.517 -0.81736 0.125905 0
M  V30 6298 H 611.063 -1.39401 0.967753 0
M  V30 6299 H 609.835 -3.3922 1.95053 0
M  V30 6300 H 609.458 -3.96204 0.332948 0
M  V30 6301 N 610.455 -0.639598 -1.44038 0
M  V30 6302 C 611.702 -0.14748 -2.01962 0
M  V30 6303 C 612.03 1.23372 -1.50365 0
M  V30 6304 O 611.285 1.8345 -0.681501 0
M  V30 6305 C 611.584 -0.0925348 -3.5728 0
M  V30 6306 C 611.25 -1.41365 -4.28167 0
M  V30 6307 C 609.912 -1.77545 -4.47248 0
M  V30 6308 C 612.264 -2.2853 -4.68427 0
M  V30 6309 C 609.592 -3.00583 -5.03852 0
M  V30 6310 C 611.944 -3.50846 -5.26393 0
M  V30 6311 C 610.608 -3.8724 -5.43692 0
M  V30 6312 H 609.878 -0.0539666 -0.739032 0
M  V30 6313 H 612.525 -0.827599 -1.72694 0
M  V30 6314 H 610.83 0.670987 -3.86012 0
M  V30 6315 H 612.527 0.304891 -3.99839 0
M  V30 6316 H 609.117 -1.1221 -4.13651 0
M  V30 6317 H 613.301 -2.0187 -4.5339 0
M  V30 6318 H 608.557 -3.28846 -5.15432 0
M  V30 6319 H 612.731 -4.18616 -5.56537 0
M  V30 6320 H 610.358 -4.8266 -5.87319 0
M  V30 6321 N 611.933 1.52934 -0.380664 0
M  V30 6322 C 613.21 1.93845 0.261417 0
M  V30 6323 C 613.59 1.31544 1.65104 0
M  V30 6324 O 612.938 0.480234 2.23397 0
M  V30 6325 C 613.148 3.47739 0.296466 0
M  V30 6326 C 614.496 4.21284 0.529578 0
M  V30 6327 O 615.52 3.54199 0.377041 0
M  V30 6328 O 614.379 5.40195 0.827753 0
M  V30 6329 H 611.473 0.811318 0.160285 0
M  V30 6330 H 614.019 1.64042 -0.434544 0
M  V30 6331 H 612.791 3.85395 -0.67724 0
M  V30 6332 H 612.414 3.8382 1.0377 0
M  V30 6333 N 613.412 0.11024 1.57214 0
M  V30 6334 C 614.659 -0.54987 1.94891 0
M  V30 6335 C 614.987 -1.67243 0.992984 0
M  V30 6336 O 614.242 -1.95694 0.0152703 0
M  V30 6337 C 614.541 -1.13102 3.39032 0
M  V30 6338 C 614.207 -0.130713 4.5071 0
M  V30 6339 C 612.869 0.14437 4.80983 0
M  V30 6340 C 615.221 0.551472 5.18274 0
M  V30 6341 C 612.549 1.10807 5.76141 0
M  V30 6342 C 614.901 1.50375 6.14467 0
M  V30 6343 C 613.565 1.78691 6.43138 0
M  V30 6344 H 612.835 -0.201212 0.713158 0
M  V30 6345 H 615.482 0.189288 1.90562 0
M  V30 6346 H 613.787 -1.94675 3.40013 0
M  V30 6347 H 615.484 -1.64973 3.65493 0
M  V30 6348 H 612.074 -0.355301 4.27125 0
M  V30 6349 H 616.258 0.35211 4.95049 0
M  V30 6350 H 611.514 1.3343 5.96663 0
M  V30 6351 H 615.688 2.03808 6.65909 0
M  V30 6352 H 613.315 2.53522 7.1668 0
M  V30 6353 N 614.89 -1.56749 -0.16351 0
M  V30 6354 C 616.138 -1.82074 -0.87713 0
M  V30 6355 C 616.459 -0.688503 -1.82441 0
M  V30 6356 O 615.729 0.291085 -1.93725 0
M  V30 6357 H 614.309 -0.671677 -0.326893 0
M  V30 6358 H 616.971 -1.9423 -0.161459 0
M  V30 6359 H 616.067 -2.76407 -1.44934 0
M  V30 6360 N 616.368 0.432326 -1.51554 0
M  V30 6361 C 617.596 1.20364 -1.68286 0
M  V30 6362 C 618.011 1.84888 -0.38233 0
M  V30 6363 O 617.368 1.70924 0.639627 0
M  V30 6364 C 617.419 2.28398 -2.80208 0
M  V30 6365 O 617.14 1.66512 -4.05223 0
M  V30 6366 C 618.641 3.18584 -3.08251 0
M  V30 6367 H 615.861 0.36259 -0.564596 0
M  V30 6368 H 618.405 0.511647 -1.97996 0
M  V30 6369 H 616.56 2.93305 -2.53083 0
M  V30 6370 H 616.974 2.37951 -4.67418 0
M  V30 6371 H 618.448 3.90511 -3.90135 0
M  V30 6372 H 618.925 3.79628 -2.2086 0
M  V30 6373 H 619.531 2.59372 -3.37055 0
M  V30 6374 N 617.846 1.41785 0.688094 0
M  V30 6375 C 618.779 1.38643 1.81255 0
M  V30 6376 C 619.757 0.252583 1.60626 0
M  V30 6377 O 620.941 0.440691 1.83276 0
M  V30 6378 C 618.068 1.16449 3.18053 0
M  V30 6379 C 617.114 2.32651 3.57457 0
M  V30 6380 S 617.947 3.95152 3.61407 0
M  V30 6381 C 619.103 3.75275 5.00919 0
M  V30 6382 H 619.336 2.33799 1.83644 0
M  V30 6383 H 616.869 1.28398 0.857513 0
M  V30 6384 H 618.827 1.0433 3.97021 0
M  V30 6385 H 617.488 0.229002 3.13264 0
M  V30 6386 H 616.681 2.12835 4.56856 0
M  V30 6387 H 616.283 2.41215 2.85817 0
M  V30 6388 H 618.575 3.35443 5.88629 0
M  V30 6389 H 619.518 4.74302 5.25778 0
M  V30 6390 H 619.926 3.08401 4.7281 0
M  V30 6391 N 619.324 -0.923095 1.27737 0
M  V30 6392 C 620.572 -1.66797 1.14119 0
M  V30 6393 C 620.893 -1.92479 -0.312541 0
M  V30 6394 O 620.163 -1.53432 -1.218 0
M  V30 6395 H 618.743 -0.618196 0.419336 0
M  V30 6396 H 621.405 -1.10815 1.60331 0
M  V30 6397 H 620.501 -2.63424 1.67374 0
M  V30 6398 N 620.802 -1.09834 -1.13024 0
M  V30 6399 C 621.752 -0.710899 -2.16634 0
M  V30 6400 C 622.736 0.276836 -1.58501 0
M  V30 6401 O 623.928 0.0865457 -1.76788 0
M  V30 6402 C 621.057 -0.137574 -3.43024 0
M  V30 6403 C 620.143 -1.15198 -4.08155 0
M  V30 6404 N 620.534 -2.34054 -4.48388 0
M  V30 6405 C 618.832 -0.991074 -4.34849 0
M  V30 6406 C 619.533 -2.98616 -4.99203 0
M  V30 6407 N 618.509 -2.26159 -4.94321 0
M  V30 6408 H 622.311 -1.61576 -2.455 0
M  V30 6409 H 619.825 -0.975158 -1.29863 0
M  V30 6410 H 621.822 0.158031 -4.166 0
M  V30 6411 H 620.482 0.762088 -3.1563 0
M  V30 6412 H 621.493 -2.7162 -4.40957 0
M  V30 6413 H 618.17 -0.146448 -4.17243 0
M  V30 6414 H 619.56 -3.99683 -5.40096 0
M  V30 6415 N 622.28 1.30327 -0.886154 0
M  V30 6416 C 623.526 1.96388 -0.505941 0
M  V30 6417 C 623.859 1.69784 0.942712 0
M  V30 6418 O 623.134 1.00322 1.6663 0
M  V30 6419 C 623.417 3.51488 -0.782826 0
M  V30 6420 C 623.27 3.87603 -2.28219 0
M  V30 6421 C 624.589 4.39331 -0.260128 0
M  V30 6422 H 621.708 0.713327 -0.185292 0
M  V30 6423 H 624.35 1.54178 -1.11036 0
M  V30 6424 H 622.5 3.87572 -0.268399 0
M  V30 6425 H 624.172 3.61537 -2.86512 0
M  V30 6426 H 622.415 3.3563 -2.74837 0
M  V30 6427 H 623.086 4.95806 -2.42653 0
M  V30 6428 H 625.562 4.10162 -0.700444 0
M  V30 6429 H 624.438 5.46769 -0.483179 0
M  V30 6430 H 624.699 4.34072 0.838674 0
M  V30 6431 N 623.758 0.647228 1.43697 0
M  V30 6432 C 625.007 0.155552 2.01099 0
M  V30 6433 C 625.32 -1.23569 1.51624 0
M  V30 6434 O 626.526 -1.82226 2.01261 0
M  V30 6435 C 624.982 0.227296 3.59182 0
M  V30 6436 C 624.59 1.62086 4.17651 0
M  V30 6437 C 626.334 -0.207085 4.23995 0
M  V30 6438 C 624.241 1.64685 5.68008 0
M  V30 6439 H 623.171 0.0543895 0.752036 0
M  V30 6440 H 625.822 0.808386 1.64734 0
M  V30 6441 H 624.204 -0.492937 3.9292 0
M  V30 6442 H 625.378 2.36597 3.95422 0
M  V30 6443 H 623.693 2.0007 3.65186 0
M  V30 6444 H 626.29 -0.207426 5.34298 0
M  V30 6445 H 626.633 -1.23742 3.97484 0
M  V30 6446 H 627.166 0.461193 3.95118 0
M  V30 6447 H 623.905 2.65608 5.99277 0
M  V30 6448 H 623.425 0.944914 5.9231 0
M  V30 6449 H 625.104 1.38792 6.31938 0
M  V30 6450 N 625.236 -1.5273 0.388769 0
M  V30 6451 C 626.652 -1.59553 0.0387049 0
M  V30 6452 C 626.852 -1.40278 -1.44652 0
M  V30 6453 O 625.908 -1.21951 -2.21098 0
M  V30 6454 C 627.221 -2.9625 0.515409 0
M  V30 6455 C 628.769 -3.09426 0.471621 0
M  V30 6456 C 629.244 -4.48572 0.924505 0
M  V30 6457 N 630.735 -4.54754 0.880496 0
M  V30 6458 C 631.47 -5.60653 1.20234 0
M  V30 6459 N 630.966 -6.74198 1.59463 0
M  V30 6460 N 632.759 -5.50755 1.12363 0
M  V30 6461 H 624.91 -1.63508 1.35569 0
M  V30 6462 H 627.173 -0.768097 0.555636 0
M  V30 6463 H 626.879 -3.15569 1.5527 0
M  V30 6464 H 626.753 -3.77102 -0.085792 0
M  V30 6465 H 629.14 -2.89804 -0.556588 0
M  V30 6466 H 629.221 -2.30528 1.10862 0
M  V30 6467 H 628.865 -4.68936 1.95094 0
M  V30 6468 H 628.795 -5.25935 0.264524 0
M  V30 6469 H 631.286 -3.73237 0.591815 0
M  V30 6470 H 631.599 -7.5097 1.82385 0
M  V30 6471 H 629.944 -6.75531 1.63349 0
M  V30 6472 H 633.135 -4.6093 0.816169 0
M  V30 6473 H 633.308 -6.33184 1.37777 0
M  V30 6474 N 626.714 -0.118576 -1.57153 0
M  V30 6475 C 627.962 0.538461 -1.94795 0
M  V30 6476 C 628.283 1.67243 -1.00274 0
M  V30 6477 O 627.553 1.95811 -0.0589692 0
M  V30 6478 H 626.133 0.201904 -0.719197 0
M  V30 6479 H 628.795 -0.187418 -1.93997 0
M  V30 6480 H 627.891 0.933315 -2.97818 0
M  V30 6481 N 628.193 1.56834 0.155195 0
M  V30 6482 C 629.421 1.87049 0.884326 0
M  V30 6483 C 629.836 0.705839 1.7511 0
M  V30 6484 O 629.193 -0.324641 1.79589 0
M  V30 6485 C 629.244 3.1644 1.74781 0
M  V30 6486 O 628.965 4.28417 0.915978 0
M  V30 6487 C 630.466 3.60113 2.58522 0
M  V30 6488 H 627.686 0.620196 0.25612 0
M  V30 6489 H 630.23 2.03946 0.150445 0
M  V30 6490 H 628.385 3.01321 2.43484 0
M  V30 6491 H 628.799 5.02353 1.50803 0
M  V30 6492 H 630.273 4.53508 3.14698 0
M  V30 6493 H 630.75 2.85005 3.34169 0
M  V30 6494 H 631.356 3.77898 1.95124 0
M  V30 6495 N 629.671 -0.424282 1.51781 0
M  V30 6496 C 630.917 -1.17434 1.6534 0
M  V30 6497 C 631.25 -1.90549 0.374806 0
M  V30 6498 O 630.525 -1.84145 -0.626179 0
M  V30 6499 C 630.808 -2.18093 2.86544 0
M  V30 6500 C 630.661 -1.48975 4.24413 0
M  V30 6501 C 631.98 -3.18934 3.03264 0
M  V30 6502 H 629.099 -0.425566 0.601716 0
M  V30 6503 H 631.741 -0.461921 1.84299 0
M  V30 6504 H 629.891 -2.78849 2.7051 0
M  V30 6505 H 631.563 -0.914551 4.52143 0
M  V30 6506 H 629.806 -0.791893 4.26511 0
M  V30 6507 H 630.477 -2.22347 5.05238 0
M  V30 6508 H 632.953 -2.68243 3.18096 0
M  V30 6509 H 631.829 -3.86645 3.89611 0
M  V30 6510 H 632.09 -3.85793 2.15908 0
M  V30 6511 N 631.149 -1.42148 -0.680565 0
M  V30 6512 C 632.395 -1.42521 -1.44277 0
M  V30 6513 C 632.728 -0.0393718 -1.9416 0
M  V30 6514 O 632.003 0.935425 -1.70529 0
M  V30 6515 C 632.286 -2.44475 -2.64394 0
M  V30 6516 C 632.139 -3.92226 -2.20179 0
M  V30 6517 C 633.458 -2.43491 -3.66606 0
M  V30 6518 H 630.577 -0.518985 -0.523282 0
M  V30 6519 H 633.219 -1.73524 -0.773914 0
M  V30 6520 H 631.369 -2.18168 -3.21458 0
M  V30 6521 H 633.041 -4.29493 -1.68327 0
M  V30 6522 H 631.284 -4.0637 -1.5181 0
M  V30 6523 H 631.955 -4.59133 -3.06433 0
M  V30 6524 H 634.431 -2.66872 -3.19247 0
M  V30 6525 H 633.307 -3.16816 -4.4824 0
M  V30 6526 H 633.568 -1.45881 -4.17338 0
M  V30 6527 N 632.627 0.916307 -1.28225 0
M  V30 6528 C 633.56 2.01954 -1.06254 0
M  V30 6529 C 634.538 1.62587 0.0205983 0
M  V30 6530 O 635.722 1.88073 -0.126824 0
M  V30 6531 C 632.849 3.33086 -0.614141 0
M  V30 6532 C 631.895 3.91435 -1.69354 0
M  V30 6533 S 632.728 4.22603 -3.28887 0
M  V30 6534 C 633.884 5.568 -2.85876 0
M  V30 6535 H 634.117 2.20281 -1.99659 0
M  V30 6536 H 631.65 1.06085 -1.12184 0
M  V30 6537 H 633.608 4.089 -0.36213 0
M  V30 6538 H 632.269 3.12664 0.300036 0
M  V30 6539 H 631.462 4.86098 -1.33136 0
M  V30 6540 H 631.064 3.22248 -1.89821 0
M  V30 6541 H 633.356 6.3658 -2.31888 0
M  V30 6542 H 634.299 5.97927 -3.79326 0
M  V30 6543 H 634.707 5.17865 -2.24669 0
M  V30 6544 N 634.105 1.10431 1.1244 0
M  V30 6545 C 635.052 0.753103 2.18167 0
M  V30 6546 C 636.022 -0.270549 1.63882 0
M  V30 6547 O 637.207 -0.149837 1.90211 0
M  V30 6548 C 634.347 0.191046 3.44571 0
M  V30 6549 C 633.46 1.26999 4.12911 0
M  V30 6550 C 632.595 0.669586 5.26963 0
M  V30 6551 C 631.634 1.72912 5.87169 0
M  V30 6552 N 630.771 1.14898 6.92635 0
M  V30 6553 H 635.611 1.65892 2.47556 0
M  V30 6554 H 633.148 0.828631 1.21541 0
M  V30 6555 H 635.106 -0.152712 4.1692 0
M  V30 6556 H 633.736 -0.677997 3.15599 0
M  V30 6557 H 632.788 1.73087 3.3874 0
M  V30 6558 H 634.1 2.07204 4.53727 0
M  V30 6559 H 633.254 0.275274 6.06075 0
M  V30 6560 H 631.993 -0.163895 4.87425 0
M  V30 6561 H 630.998 2.13286 5.06744 0
M  V30 6562 H 632.223 2.56544 6.28778 0
M  V30 6563 H 630.169 0.336956 6.55134 0
M  V30 6564 H 630.086 1.88786 7.32049 0
M  V30 6565 H 631.354 0.78121 7.75576 0
M  V30 6566 N 635.583 -1.29855 0.893053 0
M  V30 6567 C 636.86 -1.90694 0.435336 0
M  V30 6568 C 637.24 -1.8111 -1.08454 0
M  V30 6569 O 636.588 -1.23352 -1.92345 0
M  V30 6570 C 636.798 -3.36033 0.942472 0
M  V30 6571 C 638.146 -4.13083 0.982226 0
M  V30 6572 O 639.17 -3.4491 0.889686 0
M  V30 6573 O 638.029 -5.34896 1.12022 0
M  V30 6574 H 635.123 -0.815978 0.134567 0
M  V30 6575 H 637.669 -1.38367 0.982484 0
M  V30 6576 H 636.441 -3.37132 1.9864 0
M  V30 6577 H 636.064 -3.95828 0.374952 0
M  V30 6578 N 637.061 -0.65484 -1.43351 0
M  V30 6579 C 638.309 -0.168559 -2.01396 0
M  V30 6580 C 638.63 1.22235 -1.51933 0
M  V30 6581 O 637.9 1.81685 -0.732627 0
M  V30 6582 H 636.48 -0.0593244 -0.744641 0
M  V30 6583 H 639.142 -0.846871 -1.75539 0
M  V30 6584 H 638.238 -0.154428 -3.11718 0
M  V30 6585 N 638.539 1.52521 -0.396863 0
M  V30 6586 C 639.486 2.26671 0.434624 0
M  V30 6587 C 640.456 1.28584 1.05144 0
M  V30 6588 O 641.641 1.57426 1.07804 0
M  V30 6589 C 638.781 3.08234 1.55196 0
M  V30 6590 C 637.894 4.21261 0.957262 0
M  V30 6591 C 637.029 4.90205 2.04627 0
M  V30 6592 C 636.068 5.95213 1.42787 0
M  V30 6593 N 635.205 6.57723 2.45651 0
M  V30 6594 H 640.045 2.973 -0.204139 0
M  V30 6595 H 637.582 1.46669 -0.112505 0
M  V30 6596 H 639.54 3.53819 2.2106 0
M  V30 6597 H 638.17 2.398 2.16092 0
M  V30 6598 H 637.222 3.79935 0.188005 0
M  V30 6599 H 638.534 4.96624 0.465416 0
M  V30 6600 H 637.688 5.39133 2.78246 0
M  V30 6601 H 636.427 4.14383 2.57174 0
M  V30 6602 H 635.432 5.45616 0.676968 0
M  V30 6603 H 636.657 6.72972 0.910255 0
M  V30 6604 H 634.603 5.84737 2.97353 0
M  V30 6605 H 634.52 7.28723 2.01243 0
M  V30 6606 H 635.788 7.11293 3.18876 0
M  V30 6607 N 640.017 0.126909 1.57088 0
M  V30 6608 C 641.263 -0.529952 1.95753 0
M  V30 6609 C 641.596 -1.65823 1.01077 0
M  V30 6610 O 640.871 -1.94437 0.0494162 0
M  V30 6611 C 641.154 -1.05517 3.44294 0
M  V30 6612 C 641.007 0.0702253 4.49745 0
M  V30 6613 C 642.326 -1.9435 3.94862 0
M  V30 6614 H 639.445 -0.191168 0.711775 0
M  V30 6615 H 642.087 0.204071 1.88901 0
M  V30 6616 H 640.237 -1.68069 3.50264 0
M  V30 6617 H 641.909 0.705834 4.55868 0
M  V30 6618 H 640.152 0.732259 4.27575 0
M  V30 6619 H 640.823 -0.338642 5.5096 0
M  V30 6620 H 643.299 -1.41658 3.91244 0
M  V30 6621 H 642.175 -2.28015 4.993 0
M  V30 6622 H 642.436 -2.87299 3.36024 0
M  V30 6623 N 641.495 -1.56914 -0.146875 0
M  V30 6624 C 642.744 -1.82546 -0.857898 0
M  V30 6625 C 643.057 -0.708169 -1.8233 0
M  V30 6626 O 644.263 -0.850093 -2.57848 0
M  V30 6627 C 642.719 -3.23548 -1.57623 0
M  V30 6628 C 642.327 -4.43212 -0.653224 0
M  V30 6629 C 644.071 -3.58453 -2.27402 0
M  V30 6630 C 641.978 -5.75237 -1.37318 0
M  V30 6631 H 640.908 -0.680786 -0.32411 0
M  V30 6632 H 643.559 -1.83166 -0.110639 0
M  V30 6633 H 641.941 -3.17315 -2.36912 0
M  V30 6634 H 643.115 -4.60682 0.104452 0
M  V30 6635 H 641.43 -4.16351 -0.0638336 0
M  V30 6636 H 644.027 -4.54349 -2.81907 0
M  V30 6637 H 644.37 -2.84516 -3.03901 0
M  V30 6638 H 644.903 -3.66347 -1.55032 0
M  V30 6639 H 641.642 -6.52269 -0.650041 0
M  V30 6640 H 641.162 -5.61703 -2.10357 0
M  V30 6641 H 642.841 -6.18039 -1.91406 0
M  V30 6642 N 642.974 0.416227 -1.52004 0
M  V30 6643 C 644.221 1.16383 -1.65714 0
M  V30 6644 C 644.549 1.9068 -0.383594 0
M  V30 6645 O 643.804 1.85174 0.633185 0
M  V30 6646 C 644.103 2.18923 -2.82502 0
M  V30 6647 C 643.769 1.61485 -4.20991 0
M  V30 6648 C 642.431 1.45545 -4.58661 0
M  V30 6649 C 644.783 1.19468 -5.07323 0
M  V30 6650 C 642.111 0.860937 -5.80349 0
M  V30 6651 C 644.463 0.614386 -6.29609 0
M  V30 6652 C 643.127 0.442056 -6.66035 0
M  V30 6653 H 642.397 0.425875 -0.606392 0
M  V30 6654 H 645.044 0.45199 -1.8609 0
M  V30 6655 H 643.349 2.96225 -2.56433 0
M  V30 6656 H 645.046 2.76628 -2.90307 0
M  V30 6657 H 641.636 1.74873 -3.91302 0
M  V30 6658 H 645.82 1.30596 -4.78809 0
M  V30 6659 H 641.076 0.715372 -6.072 0
M  V30 6660 H 645.25 0.280393 -6.95835 0
M  V30 6661 H 642.877 -0.0207218 -7.60197 0
M  V30 6662 N 644.452 1.42507 0.673017 0
M  V30 6663 C 645.863 1.38347 1.25367 0
M  V30 6664 C 646.214 0.0776327 1.96046 0
M  V30 6665 O 645.339 -0.823571 2.00116 0
M  V30 6666 C 645.934 2.506 2.28002 0
M  V30 6667 C 644.493 2.49767 2.81591 0
M  V30 6668 C 643.64 2.293 1.55938 0
M  V30 6669 H 646.591 1.51695 0.466288 0
M  V30 6670 H 646.612 2.20953 3.09774 0
M  V30 6671 H 646.124 3.45627 1.76532 0
M  V30 6672 H 644.225 1.58563 3.37177 0
M  V30 6673 H 644.338 3.46867 3.30485 0
M  V30 6674 H 642.702 1.77594 1.82572 0
M  V30 6675 H 643.485 3.26385 1.06431 0
M  V30 6676 N 645.93 -0.909495 1.28709 0
M  V30 6677 C 646.893 -1.99399 1.13016 0
M  V30 6678 C 647.893 -1.60654 0.068536 0
M  V30 6679 O 649.083 -1.71334 0.314671 0
M  V30 6680 C 646.215 -3.33078 0.726085 0
M  V30 6681 H 647.408 -2.14751 2.09338 0
M  V30 6682 H 644.961 -1.09272 1.11756 0
M  V30 6683 H 645.696 -3.23428 -0.23771 0
M  V30 6684 H 645.481 -3.62562 1.49302 0
M  V30 6685 H 646.971 -4.12681 0.639058 0
M  V30 6686 N 647.408 -1.11026 -1.11852 0
M  V30 6687 C 648.819 -0.873203 -1.65021 0
M  V30 6688 C 649.17 0.595364 -1.86949 0
M  V30 6689 O 648.295 1.45645 -1.60051 0
M  V30 6690 C 648.89 -1.57859 -2.99777 0
M  V30 6691 C 647.449 -1.38807 -3.49871 0
M  V30 6692 C 646.596 -1.62403 -2.24768 0
M  V30 6693 H 649.547 -1.26712 -0.955503 0
M  V30 6694 H 649.568 -1.02111 -3.66543 0
M  V30 6695 H 649.08 -2.6474 -2.83786 0
M  V30 6696 H 647.181 -0.341163 -3.71035 0
M  V30 6697 H 647.294 -2.13421 -4.28938 0
M  V30 6698 H 645.658 -1.04714 -2.32179 0
M  V30 6699 H 646.441 -2.70549 -2.11324 0
M  V30 6700 N 648.886 1.2938 -0.899927 0
M  V30 6701 C 650.114 1.99691 -0.541386 0
M  V30 6702 C 650.529 1.67355 0.873936 0
M  V30 6703 O 649.886 0.918728 1.57688 0
M  V30 6704 C 649.937 3.54168 -0.72438 0
M  V30 6705 O 649.658 3.85359 -2.08399 0
M  V30 6706 C 651.159 4.41746 -0.370819 0
M  V30 6707 H 648.379 0.638037 -0.207726 0
M  V30 6708 H 650.923 1.6491 -1.20934 0
M  V30 6709 H 649.078 3.87261 -0.103607 0
M  V30 6710 H 649.492 4.80032 -2.11352 0
M  V30 6711 H 650.966 5.49256 -0.549693 0
M  V30 6712 H 651.443 4.33712 0.692148 0
M  V30 6713 H 652.049 4.14125 -0.968543 0
M  V30 6714 N 650.364 0.662433 1.43002 0
M  V30 6715 C 651.775 0.258315 1.84904 0
M  V30 6716 C 652.126 -1.19703 1.55453 0
M  V30 6717 O 651.251 -1.91484 1.00811 0
M  V30 6718 C 651.846 0.462047 3.35635 0
M  V30 6719 C 650.405 0.112165 3.76233 0
M  V30 6720 C 649.552 0.760479 2.66668 0
M  V30 6721 H 652.503 0.865467 1.33024 0
M  V30 6722 H 652.524 -0.289646 3.79396 0
M  V30 6723 H 652.036 1.52135 3.57039 0
M  V30 6724 H 650.137 -0.944179 3.60439 0
M  V30 6725 H 650.25 0.544058 4.76001 0
M  V30 6726 H 648.614 0.192887 2.53969 0
M  V30 6727 H 649.397 1.82299 2.90898 0
M  V30 6728 N 651.842 -1.52309 0.404946 0
M  V30 6729 C 652.789 -2.26898 -0.422597 0
M  V30 6730 C 653.759 -1.2914 -1.04461 0
M  V30 6731 O 654.944 -1.57996 -1.06967 0
M  V30 6732 C 652.084 -3.09053 -1.53559 0
M  V30 6733 C 651.197 -4.21762 -0.934908 0
M  V30 6734 C 650.332 -4.91283 -2.02025 0
M  V30 6735 C 649.371 -5.95962 -1.39628 0
M  V30 6736 N 648.508 -6.59017 -2.42159 0
M  V30 6737 H 653.348 -2.97188 0.219903 0
M  V30 6738 H 650.885 -1.46607 0.120282 0
M  V30 6739 H 652.843 -3.54987 -2.19181 0
M  V30 6740 H 651.473 -2.40942 -2.14818 0
M  V30 6741 H 650.525 -3.80029 -0.167854 0
M  V30 6742 H 651.837 -4.96864 -0.439073 0
M  V30 6743 H 650.991 -5.40601 -2.75383 0
M  V30 6744 H 649.73 -4.15741 -2.54973 0
M  V30 6745 H 648.735 -5.45968 -0.648023 0
M  V30 6746 H 649.96 -6.73445 -0.874553 0
M  V30 6747 H 647.906 -5.86306 -2.94247 0
M  V30 6748 H 647.823 -7.2978 -1.97376 0
M  V30 6749 H 649.091 -7.12974 -3.15099 0
M  V30 6750 N 653.32 -0.135238 -1.57019 0
M  V30 6751 C 654.268 0.826099 -2.17436 0
M  V30 6752 C 655.262 1.26378 -1.12805 0
M  V30 6753 O 656.468 1.23363 -1.31079 0
M  V30 6754 H 652.843 0.284568 -0.696078 0
M  V30 6755 H 654.814 0.292212 -2.96966 0
M  V30 6756 C 653.563 2.05991 -2.80112 0
M  V30 6757 H 652.886 1.73209 -3.60331 0
M  V30 6758 H 654.326 2.71225 -3.25903 0
M  V30 6759 C 652.785 2.86027 -1.78017 0
M  V30 6760 O 653.315 3.81971 -1.24344 0
M  V30 6761 N 651.521 2.50332 -1.47588 0
M  V30 6762 H 651.068 1.72377 -1.91426 0
M  V30 6763 H 651.026 3.04177 -0.795228 0
M  V30 6764 N 654.798 1.5699 0.138552 0
M  V30 6765 C 656.047 1.82998 0.848205 0
M  V30 6766 C 656.36 0.717829 1.81952 0
M  V30 6767 O 657.566 0.863756 2.57394 0
M  V30 6768 C 656.022 3.24379 1.55904 0
M  V30 6769 C 655.63 4.43552 0.62971 0
M  V30 6770 C 657.374 3.59654 2.25498 0
M  V30 6771 C 655.281 5.75957 1.34266 0
M  V30 6772 H 654.211 0.682495 0.320495 0
M  V30 6773 H 656.862 1.83222 0.100924 0
M  V30 6774 H 655.244 3.18567 2.35226 0
M  V30 6775 H 656.418 4.6062 -0.128882 0
M  V30 6776 H 654.733 4.16379 0.0417526 0
M  V30 6777 H 657.33 4.55837 2.79493 0
M  V30 6778 H 657.673 2.86124 3.02388 0
M  V30 6779 H 658.206 3.67164 1.53087 0
M  V30 6780 H 654.945 6.52604 0.615441 0
M  V30 6781 H 654.465 5.62811 2.07375 0
M  V30 6782 H 656.144 6.19046 1.88126 0
M  V30 6783 N 656.276 -0.40816 1.52223 0
M  V30 6784 C 657.687 -0.986929 1.58482 0
M  V30 6785 C 658.038 -1.91521 0.425917 0
M  V30 6786 O 657.163 -2.11593 -0.453593 0
M  V30 6787 C 657.758 -1.7967 2.87235 0
M  V30 6788 C 656.317 -2.32549 2.9597 0
M  V30 6789 C 655.464 -1.12558 2.53428 0
M  V30 6790 H 658.415 -0.188362 1.57578 0
M  V30 6791 H 658.436 -2.65417 2.72642 0
M  V30 6792 H 657.948 -1.12082 3.71563 0
M  V30 6793 H 656.049 -3.03505 2.16137 0
M  V30 6794 H 656.162 -2.63348 4.00231 0
M  V30 6795 H 654.526 -1.47984 2.07299 0
M  V30 6796 H 655.309 -0.465351 3.40131 0
M  V30 6797 N 657.755 -1.42862 -0.66545 0
M  V30 6798 C 658.687 -1.43026 -1.79098 0
M  V30 6799 C 659.7 -0.32803 -1.59461 0
M  V30 6800 O 660.889 -0.591709 -1.68407 0
M  V30 6801 C 657.989 -1.21566 -3.16346 0
M  V30 6802 C 657.162 -2.44399 -3.62751 0
M  V30 6803 C 656.221 -2.18344 -4.78761 0
M  V30 6804 O 655.247 -2.91611 -4.88827 0
M  V30 6805 N 656.449 -1.1924 -5.68122 0
M  V30 6806 H 659.214 -2.40045 -1.79439 0
M  V30 6807 H 656.775 -1.37861 -0.848872 0
M  V30 6808 H 658.767 -1.02037 -3.91625 0
M  V30 6809 H 657.337 -0.330368 -3.10849 0
M  V30 6810 H 656.557 -2.79433 -2.78048 0
M  V30 6811 H 657.845 -3.26173 -3.90498 0
M  V30 6812 H 657.243 -0.586603 -5.6265 0
M  V30 6813 H 655.8 -1.05698 -6.43173 0
M  V30 6814 N 659.233 0.902656 -1.29189 0
M  V30 6815 C 660.481 1.6496 -1.16758 0
M  V30 6816 C 660.802 1.92952 0.28188 0
M  V30 6817 O 660.072 1.55351 1.19344 0
M  V30 6818 H 658.652 0.611447 -0.429118 0
M  V30 6819 H 661.314 1.0825 -1.62074 0
M  V30 6820 H 660.41 2.60728 -1.71544 0
M  V30 6821 N 660.711 1.11618 1.11262 0
M  V30 6822 C 661.674 0.779447 2.15539 0
M  V30 6823 C 662.674 -0.202081 1.59525 0
M  V30 6824 O 663.864 0.0226356 1.74185 0
M  V30 6825 C 660.996 0.15674 3.40539 0
M  V30 6826 H 662.189 1.70324 2.4684 0
M  V30 6827 H 659.742 0.918298 1.26479 0
M  V30 6828 H 660.477 -0.777186 3.1485 0
M  V30 6829 H 660.262 0.863308 3.82478 0
M  V30 6830 H 661.752 -0.062661 4.17553 0
M  V30 6831 N 662.189 -1.289 0.906776 0
M  V30 6832 C 663.6 -1.77336 0.58384 0
M  V30 6833 C 663.951 -1.74304 -0.900697 0
M  V30 6834 O 663.076 -1.33335 -1.70443 0
M  V30 6835 C 663.671 -3.22019 1.05304 0
M  V30 6836 C 662.23 -3.68205 0.781148 0
M  V30 6837 C 661.377 -2.48837 1.22373 0
M  V30 6838 H 664.328 -1.15462 1.08877 0
M  V30 6839 H 664.349 -3.78481 0.391414 0
M  V30 6840 H 663.861 -3.24194 2.13353 0
M  V30 6841 H 661.962 -3.71497 -0.28643 0
M  V30 6842 H 662.075 -4.58675 1.384 0
M  V30 6843 H 660.439 -2.46461 0.642594 0
M  V30 6844 H 661.222 -2.53736 2.31242 0
M  V30 6845 N 663.667 -0.670007 -1.42649 0
M  V30 6846 C 664.913 -0.190568 -2.01903 0
M  V30 6847 C 665.246 1.19817 -1.52832 0
M  V30 6848 O 664.521 1.80342 -0.728485 0
M  V30 6849 C 664.804 -0.21991 -3.59428 0
M  V30 6850 C 664.657 -1.64376 -4.18689 0
M  V30 6851 C 665.976 0.434519 -4.3795 0
M  V30 6852 H 663.095 -0.0707219 -0.733599 0
M  V30 6853 H 665.737 -0.853883 -1.69732 0
M  V30 6854 H 663.887 0.344894 -3.86966 0
M  V30 6855 H 665.559 -2.26044 -4.02122 0
M  V30 6856 H 663.802 -2.18591 -3.747 0
M  V30 6857 H 664.473 -1.61601 -5.27815 0
M  V30 6858 H 666.949 -0.0462156 -4.16074 0
M  V30 6859 H 665.825 0.38333 -5.4756 0
M  V30 6860 H 666.086 1.51135 -4.15464 0
M  V30 6861 N 665.145 1.52092 -0.413018 0
M  V30 6862 C 666.092 2.27119 0.410558 0
M  V30 6863 C 667.062 1.29692 1.03774 0
M  V30 6864 O 668.247 1.58561 1.06128 0
M  V30 6865 C 665.387 3.09863 1.51918 0
M  V30 6866 C 664.5 4.22252 0.912528 0
M  V30 6867 C 663.635 4.92348 1.99417 0
M  V30 6868 C 662.674 5.96694 1.36466 0
M  V30 6869 N 661.811 6.60292 2.38661 0
M  V30 6870 H 666.651 2.97067 -0.235661 0
M  V30 6871 H 664.188 1.46542 -0.128055 0
M  V30 6872 H 666.146 3.56144 2.17295 0
M  V30 6873 H 664.776 2.42078 2.13537 0
M  V30 6874 H 663.828 3.80113 0.147697 0
M  V30 6875 H 665.14 4.9709 0.412717 0
M  V30 6876 H 664.294 5.42054 2.72512 0
M  V30 6877 H 663.033 4.17087 2.52764 0
M  V30 6878 H 662.038 5.46304 0.61906 0
M  V30 6879 H 663.263 6.73899 0.838827 0
M  V30 6880 H 661.209 5.87858 2.91134 0
M  V30 6881 H 661.126 7.30816 1.93503 0
M  V30 6882 H 662.394 7.14635 3.11314 0
M  V30 6883 N 666.623 0.143563 1.56945 0
M  V30 6884 C 667.555 -0.828353 2.13708 0
M  V30 6885 C 668.568 -1.21313 1.08568 0
M  V30 6886 O 669.757 -1.1578 1.35857 0
M  V30 6887 C 666.857 -2.12248 2.64204 0
M  V30 6888 C 666.03 -1.90561 3.93707 0
M  V30 6889 C 665.089 -3.03931 4.29549 0
M  V30 6890 O 664.115 -2.75772 4.97934 0
M  V30 6891 N 665.317 -4.31016 3.88852 0
M  V30 6892 H 668.082 -0.343242 2.97728 0
M  V30 6893 H 665.643 -0.0401152 1.6185 0
M  V30 6894 H 667.635 -2.87132 2.85197 0
M  V30 6895 H 666.205 -2.52033 1.84928 0
M  V30 6896 H 665.425 -0.997327 3.81375 0
M  V30 6897 H 666.713 -1.73405 4.78339 0
M  V30 6898 H 666.111 -4.56762 3.33743 0
M  V30 6899 H 664.668 -5.02691 4.14903 0
M  V30 6900 N 668.101 -1.57061 -0.130224 0
M  V30 6901 C 669.048 -1.99517 -1.16024 0
M  V30 6902 C 670.018 -0.865452 -1.41771 0
M  V30 6903 O 671.203 -1.12882 -1.53826 0
M  V30 6904 C 668.343 -2.3951 -2.48453 0
M  V30 6905 C 667.456 -3.65848 -2.29737 0
M  V30 6906 C 666.591 -3.9487 -3.55318 0
M  V30 6907 C 665.63 -5.14426 -3.31711 0
M  V30 6908 N 664.767 -5.39375 -4.49466 0
M  V30 6909 H 669.607 -2.87305 -0.791194 0
M  V30 6910 H 667.144 -1.42129 -0.379195 0
M  V30 6911 H 669.102 -2.60731 -3.25692 0
M  V30 6912 H 667.732 -1.54779 -2.83272 0
M  V30 6913 H 666.784 -3.52307 -1.4347 0
M  V30 6914 H 668.096 -4.53241 -2.08263 0
M  V30 6915 H 667.25 -4.16679 -4.4098 0
M  V30 6916 H 665.989 -3.05931 -3.79813 0
M  V30 6917 H 664.994 -4.92473 -2.44439 0
M  V30 6918 H 666.219 -6.04933 -3.08598 0
M  V30 6919 H 664.165 -4.53391 -4.74102 0
M  V30 6920 H 664.082 -6.21069 -4.31055 0
M  V30 6921 H 665.35 -5.65694 -5.36293 0
M  V30 6922 N 669.579 0.400081 -1.52437 0
M  V30 6923 C 670.807 1.16768 -1.70801 0
M  V30 6924 C 671.222 1.84036 -0.421462 0
M  V30 6925 O 670.579 1.72242 0.603228 0
M  V30 6926 C 670.63 2.22403 -2.8499 0
M  V30 6927 O 670.351 1.57879 -4.08663 0
M  V30 6928 C 671.852 3.11974 -3.1494 0
M  V30 6929 H 669.072 0.350533 -0.57216 0
M  V30 6930 H 671.616 0.469534 -1.99037 0
M  V30 6931 H 669.771 2.87871 -2.59247 0
M  V30 6932 H 670.185 2.27982 -4.7236 0
M  V30 6933 H 671.659 3.82148 -3.9833 0
M  V30 6934 H 672.136 3.74858 -2.28863 0
M  V30 6935 H 672.742 2.52165 -3.42481 0
M  V30 6936 N 671.057 1.43213 0.657864 0
M  V30 6937 C 672.303 1.44798 1.41991 0
M  V30 6938 C 672.636 0.070256 1.94073 0
M  V30 6939 O 671.911 -0.908177 1.71995 0
M  V30 6940 C 672.194 2.4865 2.60471 0
M  V30 6941 C 672.047 3.95679 2.13911 0
M  V30 6942 C 673.366 2.49292 3.62686 0
M  V30 6943 H 670.485 0.527244 0.514959 0
M  V30 6944 H 673.127 1.74733 0.74621 0
M  V30 6945 H 671.277 2.23254 3.17946 0
M  V30 6946 H 672.949 4.32116 1.61472 0
M  V30 6947 H 671.192 4.08733 1.45325 0
M  V30 6948 H 671.863 4.6395 2.99089 0
M  V30 6949 H 674.339 2.71917 3.14961 0
M  V30 6950 H 673.215 3.23907 4.43143 0
M  V30 6951 H 673.476 1.52502 4.14964 0
M  V30 6952 N 672.536 -0.895792 1.29666 0
M  V30 6953 C 673.499 -1.98189 1.15124 0
M  V30 6954 C 674.499 -1.60572 0.0855717 0
M  V30 6955 O 675.689 -1.70991 0.332826 0
M  V30 6956 C 672.821 -3.32289 0.761372 0
M  V30 6957 H 674.014 -2.12518 2.11603 0
M  V30 6958 H 671.567 -1.0808 1.12908 0
M  V30 6959 H 672.302 -3.23662 -0.203393 0
M  V30 6960 H 672.087 -3.60958 1.53139 0
M  V30 6961 H 673.577 -4.1198 0.682792 0
M  V30 6962 N 674.014 -1.12206 -1.10668 0
M  V30 6963 C 674.924 -0.800686 -2.20513 0
M  V30 6964 C 675.94 0.209512 -1.72734 0
M  V30 6965 O 677.116 0.043705 -2.01353 0
M  V30 6966 C 674.181 -0.257353 -3.45744 0
M  V30 6967 C 673.242 -1.32718 -4.0827 0
M  V30 6968 C 672.475 -0.809674 -5.27522 0
M  V30 6969 O 672.698 0.35742 -5.69279 0
M  V30 6970 O 671.632 -1.57816 -5.80842 0
M  V30 6971 H 675.458 -1.71807 -2.50432 0
M  V30 6972 H 673.043 -0.898546 -1.19359 0
M  V30 6973 H 674.925 0.0408849 -4.2138 0
M  V30 6974 H 673.6 0.632627 -3.17458 0
M  V30 6975 H 672.507 -1.67855 -3.34329 0
M  V30 6976 H 673.84 -2.19083 -4.40753 0
M  V30 6977 N 675.492 1.28418 -0.913599 0
M  V30 6978 C 676.422 2.29713 -0.418847 0
M  V30 6979 C 677.403 1.62165 0.513469 0
M  V30 6980 O 678.588 1.89576 0.421235 0
M  V30 6981 C 675.718 3.45612 0.342042 0
M  V30 6982 C 674.672 4.25056 -0.501123 0
M  V30 6983 C 673.998 5.3329 0.388097 0
M  V30 6984 C 675.298 4.91814 -1.75831 0
M  V30 6985 H 676.992 2.71346 -1.26538 0
M  V30 6986 H 674.538 1.30446 -0.609903 0
M  V30 6987 H 676.491 4.15562 0.699 0
M  V30 6988 H 675.215 3.02858 1.22248 0
M  V30 6989 H 673.874 3.56833 -0.840598 0
M  V30 6990 H 673.522 4.8678 1.26707 0
M  V30 6991 H 673.222 5.87347 -0.172459 0
M  V30 6992 H 674.746 6.06088 0.74094 0
M  V30 6993 H 676.16 5.54126 -1.47026 0
M  V30 6994 H 674.557 5.55866 -2.26126 0
M  V30 6995 H 675.627 4.16313 -2.4862 0
M  V30 6996 N 676.97 0.677563 1.42291 0
M  V30 6997 C 677.88 0.000962654 2.346 0
M  V30 6998 C 678.896 -0.785833 1.55244 0
M  V30 6999 O 680.072 -0.727523 1.87801 0
M  V30 7000 C 677.137 -0.936746 3.33805 0
M  V30 7001 C 676.198 -0.144173 4.29058 0
M  V30 7002 C 675.431 -1.03722 5.23524 0
M  V30 7003 O 675.654 -2.27675 5.22992 0
M  V30 7004 O 674.588 -0.496542 5.99848 0
M  V30 7005 H 678.414 0.761397 2.94001 0
M  V30 7006 H 675.999 0.43781 1.42841 0
M  V30 7007 H 677.881 -1.47497 3.94744 0
M  V30 7008 H 676.556 -1.67698 2.76874 0
M  V30 7009 H 675.463 0.438224 3.71524 0
M  V30 7010 H 676.796 0.55701 4.89038 0
M  V30 7011 N 678.448 -1.51871 0.421078 0
M  V30 7012 C 679.411 -2.25914 -0.386712 0
M  V30 7013 C 680.411 -1.28733 -0.963555 0
M  V30 7014 O 681.601 -1.52579 -0.840556 0
M  V30 7015 C 678.733 -3.03853 -1.54551 0
M  V30 7016 H 679.926 -2.98754 0.261978 0
M  V30 7017 H 677.479 -1.5533 0.173862 0
M  V30 7018 H 678.214 -2.35392 -2.23072 0
M  V30 7019 H 677.999 -3.75215 -1.13824 0
M  V30 7020 H 679.489 -3.59984 -2.11663 0
M  V30 7021 N 679.926 -0.151884 -1.56866 0
M  V30 7022 C 680.836 0.798876 -2.20579 0
M  V30 7023 C 681.852 1.268 -1.19154 0
M  V30 7024 O 683.028 1.32418 -1.51748 0
M  V30 7025 C 680.093 2.01861 -2.81874 0
M  V30 7026 C 679.154 1.59825 -3.9844 0
M  V30 7027 C 678.387 2.75984 -4.56802 0
M  V30 7028 O 678.61 3.92331 -4.14044 0
M  V30 7029 O 677.544 2.51175 -5.46987 0
M  V30 7030 H 681.37 0.2865 -3.02346 0
M  V30 7031 H 678.955 0.0753806 -1.4921 0
M  V30 7032 H 680.837 2.73235 -3.20813 0
M  V30 7033 H 679.512 2.52042 -2.03117 0
M  V30 7034 H 678.419 0.854601 -3.64208 0
M  V30 7035 H 679.752 1.14355 -4.78731 0
M  V30 7036 N 681.404 1.57128 0.121893 0
M  V30 7037 C 682.351 2.0013 1.14964 0
M  V30 7038 C 683.321 0.872959 1.4131 0
M  V30 7039 O 684.506 1.13696 1.53225 0
M  V30 7040 C 681.646 2.40824 2.4718 0
M  V30 7041 C 680.759 3.67061 2.27794 0
M  V30 7042 C 679.894 3.96749 3.53219 0
M  V30 7043 C 678.933 5.16178 3.28978 0
M  V30 7044 N 678.07 5.41751 4.46599 0
M  V30 7045 H 682.91 2.8772 0.775947 0
M  V30 7046 H 680.447 1.42328 0.371652 0
M  V30 7047 H 682.405 2.62454 3.24305 0
M  V30 7048 H 681.035 1.56279 2.82448 0
M  V30 7049 H 680.087 3.53063 1.416 0
M  V30 7050 H 681.399 4.5434 2.05857 0
M  V30 7051 H 680.553 4.19012 4.38764 0
M  V30 7052 H 679.292 3.07941 3.78185 0
M  V30 7053 H 678.297 4.93762 2.41824 0
M  V30 7054 H 679.522 6.06561 3.05386 0
M  V30 7055 H 677.468 4.55899 4.71691 0
M  V30 7056 H 677.385 6.23347 4.27756 0
M  V30 7057 H 678.653 5.68531 5.33285 0
M  V30 7058 N 682.882 -0.391992 1.52647 0
M  V30 7059 C 683.845 -1.46135 1.7657 0
M  V30 7060 C 684.845 -1.47701 0.635698 0
M  V30 7061 O 686.035 -1.48924 0.903728 0
M  V30 7062 C 683.167 -2.85443 1.86374 0
M  V30 7063 H 684.36 -1.26208 2.72051 0
M  V30 7064 H 681.913 -0.623549 1.43323 0
M  V30 7065 H 682.648 -3.10718 0.928685 0
M  V30 7066 H 682.433 -2.85708 2.68539 0
M  V30 7067 H 683.923 -3.62933 2.06566 0
M  V30 7068 N 684.36 -1.4356 -0.65026 0
M  V30 7069 C 685.323 -1.48615 -1.74489 0
M  V30 7070 C 686.323 -0.370483 -1.56474 0
M  V30 7071 O 687.513 -0.632351 -1.62317 0
M  V30 7072 C 684.645 -1.34161 -3.13391 0
M  V30 7073 H 685.838 -2.46103 -1.71387 0
M  V30 7074 H 683.391 -1.30369 -0.862186 0
M  V30 7075 H 684.126 -0.376918 -3.22102 0
M  V30 7076 H 683.911 -2.1504 -3.27872 0
M  V30 7077 H 685.401 -1.40637 -3.93206 0
M  V30 7078 N 685.838 0.888903 -1.30139 0
M  V30 7079 C 687.066 1.67358 -1.21651 0
M  V30 7080 C 687.481 1.87499 0.221246 0
M  V30 7081 O 686.838 1.41969 1.14677 0
M  V30 7082 C 686.889 3.05213 -1.93719 0
M  V30 7083 O 686.61 2.85984 -3.31881 0
M  V30 7084 C 688.111 3.9964 -1.9184 0
M  V30 7085 H 685.331 0.522365 -0.42116 0
M  V30 7086 H 687.875 1.11086 -1.71698 0
M  V30 7087 H 686.03 3.5823 -1.4748 0
M  V30 7088 H 686.444 3.73411 -3.68327 0
M  V30 7089 H 687.918 4.93749 -2.46811 0
M  V30 7090 H 688.395 4.29955 -0.896409 0
M  V30 7091 H 689.001 3.52558 -2.37872 0
M  V30 7092 N 687.317 1.12792 1.10072 0
M  V30 7093 C 688.566 0.880232 1.81479 0
M  V30 7094 C 688.879 -0.595575 1.86312 0
M  V30 7095 O 690.085 -0.959979 2.53962 0
M  V30 7096 C 688.541 1.52514 3.25987 0
M  V30 7097 C 688.149 3.036 3.29441 0
M  V30 7098 C 689.893 1.35788 4.02196 0
M  V30 7099 C 687.8 3.61007 4.68431 0
M  V30 7100 H 686.73 0.325654 0.680048 0
M  V30 7101 H 689.381 1.35485 1.23758 0
M  V30 7102 H 687.763 0.978188 3.83728 0
M  V30 7103 H 688.937 3.64819 2.81502 0
M  V30 7104 H 687.252 3.19765 2.66719 0
M  V30 7105 H 689.849 1.76096 5.0487 0
M  V30 7106 H 690.192 0.301972 4.15203 0
M  V30 7107 H 690.725 1.87426 3.50879 0
M  V30 7108 H 687.464 4.66375 4.60625 0
M  V30 7109 H 686.984 3.04564 5.16721 0
M  V30 7110 H 688.663 3.60289 5.37402 0
M  V30 7111 N 688.795 -1.27931 0.920396 0
M  V30 7112 C 690.023 -1.98805 0.573087 0
M  V30 7113 C 690.438 -1.68724 -0.847201 0
M  V30 7114 O 689.795 -0.943699 -1.56207 0
M  V30 7115 C 689.846 -3.52971 0.780633 0
M  V30 7116 O 689.567 -3.81994 2.14504 0
M  V30 7117 C 691.068 -4.411 0.44105 0
M  V30 7118 H 688.288 -0.634651 0.21785 0
M  V30 7119 H 690.832 -1.62965 1.23542 0
M  V30 7120 H 688.987 -3.87048 0.165204 0
M  V30 7121 H 689.401 -4.76609 2.18962 0
M  V30 7122 H 690.875 -5.48312 0.637006 0
M  V30 7123 H 691.352 -4.34758 -0.62306 0
M  V30 7124 H 691.958 -4.12532 1.0343 0
M  V30 7125 N 690.273 -0.685099 -1.4193 0
M  V30 7126 C 691.684 -0.287699 -1.8447 0
M  V30 7127 C 692.035 1.17215 -1.57338 0
M  V30 7128 O 691.16 1.89856 -1.03845 0
M  V30 7129 C 691.755 -0.515385 -3.34857 0
M  V30 7130 C 690.314 -0.172006 -3.76007 0
M  V30 7131 C 689.461 -0.802808 -2.65425 0
M  V30 7132 H 692.412 -0.88652 -1.3163 0
M  V30 7133 H 692.433 0.229251 -3.79809 0
M  V30 7134 H 691.945 -1.57796 -3.54573 0
M  V30 7135 H 690.046 0.886716 -3.61895 0
M  V30 7136 H 690.159 -0.619717 -4.75075 0
M  V30 7137 H 688.523 -0.233267 -2.5363 0
M  V30 7138 H 689.306 -1.86904 -2.87961 0
M  V30 7139 N 691.751 1.51645 -0.429126 0
M  V30 7140 C 692.998 2.02015 0.140079 0
M  V30 7141 C 693.326 1.31374 1.43427 0
M  V30 7142 O 692.581 0.414779 1.91254 0
M  V30 7143 C 692.88 3.54989 0.414472 0
M  V30 7144 C 692.546 4.43874 -0.792911 0
M  V30 7145 C 691.208 4.67887 -1.12404 0
M  V30 7146 C 693.56 4.96074 -1.59875 0
M  V30 7147 C 690.888 5.41348 -2.26184 0
M  V30 7148 C 693.24 5.70782 -2.72747 0
M  V30 7149 C 691.904 5.93062 -3.06324 0
M  V30 7150 H 691.174 0.739225 0.0512585 0
M  V30 7151 H 693.821 1.82675 -0.574641 0
M  V30 7152 H 692.126 3.72615 1.21099 0
M  V30 7153 H 693.823 3.91489 0.868173 0
M  V30 7154 H 690.413 4.25374 -0.524871 0
M  V30 7155 H 694.597 4.77412 -1.35614 0
M  V30 7156 H 689.853 5.56815 -2.52522 0
M  V30 7157 H 694.027 6.10221 -3.35564 0
M  V30 7158 H 691.654 6.49764 -3.94602 0
M  V30 7159 N 693.229 0.160201 1.56784 0
M  V30 7160 C 694.645 -0.196089 1.58391 0
M  V30 7161 C 694.845 -1.63689 1.17508 0
M  V30 7162 O 693.901 -2.36613 0.881506 0
M  V30 7163 C 695.214 0.0746449 3.00607 0
M  V30 7164 C 696.762 0.0119762 3.12998 0
M  V30 7165 C 697.237 0.255551 4.57286 0
M  V30 7166 N 698.728 0.202938 4.62755 0
M  V30 7167 C 699.463 0.365731 5.72232 0
M  V30 7168 N 698.959 0.586972 6.90309 0
M  V30 7169 N 700.752 0.302411 5.61286 0
M  V30 7170 H 692.903 1.1008 1.81648 0
M  V30 7171 H 695.166 0.436779 0.841384 0
M  V30 7172 H 694.872 1.07231 3.34954 0
M  V30 7173 H 694.746 -0.638802 3.71751 0
M  V30 7174 H 697.133 -0.976254 2.78484 0
M  V30 7175 H 697.214 0.75796 2.44313 0
M  V30 7176 H 696.858 1.24094 4.92507 0
M  V30 7177 H 696.788 -0.510912 5.24116 0
M  V30 7178 H 699.279 0.0371328 3.77882 0
M  V30 7179 H 699.592 0.700941 7.69615 0
M  V30 7180 H 697.937 0.623453 6.92198 0
M  V30 7181 H 701.128 0.130238 4.67919 0
M  V30 7182 H 701.301 0.432712 6.46554 0
M  V30 7183 N 694.707 -1.5719 -0.113559 0
M  V30 7184 C 695.654 -2.00736 -1.13901 0
M  V30 7185 C 696.624 -0.88044 -1.40846 0
M  V30 7186 O 697.809 -1.14507 -1.5262 0
M  V30 7187 C 694.949 -2.42132 -2.45899 0
M  V30 7188 C 694.062 -3.68264 -2.25844 0
M  V30 7189 C 693.197 -3.98617 -3.5111 0
M  V30 7190 C 692.236 -5.17915 -3.26236 0
M  V30 7191 N 691.373 -5.44111 -4.4372 0
M  V30 7192 H 696.213 -2.88128 -0.760677 0
M  V30 7193 H 693.75 -1.42523 -0.364099 0
M  V30 7194 H 695.708 -2.6417 -3.22908 0
M  V30 7195 H 694.338 -1.57775 -2.81615 0
M  V30 7196 H 693.39 -3.53809 -1.39726 0
M  V30 7197 H 694.702 -4.55425 -2.03444 0
M  V30 7198 H 693.856 -4.21333 -4.36536 0
M  V30 7199 H 692.595 -3.09942 -3.76546 0
M  V30 7200 H 691.6 -4.95038 -2.39202 0
M  V30 7201 H 692.825 -6.08172 -3.02165 0
M  V30 7202 H 690.771 -4.58394 -4.69266 0
M  V30 7203 H 690.688 -6.25606 -4.24444 0
M  V30 7204 H 691.956 -5.71351 -5.30263 0
M  V30 7205 N 696.185 0.383891 -1.52853 0
M  V30 7206 C 697.413 1.1495 -1.7203 0
M  V30 7207 C 697.828 1.83578 -0.440957 0
M  V30 7208 O 697.185 1.72872 0.584925 0
M  V30 7209 C 697.236 2.19368 -2.87333 0
M  V30 7210 O 696.957 1.53536 -4.10315 0
M  V30 7211 C 698.458 3.08616 -3.18231 0
M  V30 7212 H 695.678 0.344445 -0.575846 0
M  V30 7213 H 698.222 0.448397 -1.99524 0
M  V30 7214 H 696.377 2.85105 -2.62286 0
M  V30 7215 H 696.791 2.2296 -4.74752 0
M  V30 7216 H 698.265 3.77902 -4.02361 0
M  V30 7217 H 698.742 3.72409 -2.32826 0
M  V30 7218 H 699.348 2.48518 -3.45136 0
M  V30 7219 N 697.663 1.43903 0.642637 0
M  V30 7220 C 698.596 1.44339 1.76753 0
M  V30 7221 C 699.574 0.303558 1.59741 0
M  V30 7222 O 700.758 0.498775 1.81781 0
M  V30 7223 C 697.885 1.26508 3.14187 0
M  V30 7224 C 696.931 2.43905 3.49875 0
M  V30 7225 S 697.764 4.0645 3.48653 0
M  V30 7226 C 698.92 3.91021 4.88726 0
M  V30 7227 H 699.153 2.39523 1.76113 0
M  V30 7228 H 696.686 1.31061 0.81623 0
M  V30 7229 H 698.644 1.16908 3.93501 0
M  V30 7230 H 697.305 0.328548 3.12377 0
M  V30 7231 H 696.498 2.27262 4.49853 0
M  V30 7232 H 696.1 2.50186 2.77998 0
M  V30 7233 H 698.392 3.54 5.77659 0
M  V30 7234 H 699.335 4.9079 5.10423 0
M  V30 7235 H 699.743 3.23287 4.62759 0
M  V30 7236 N 699.141 -0.881989 1.30609 0
M  V30 7237 C 700.366 -1.67236 1.22665 0
M  V30 7238 C 700.791 -1.8696 -0.206777 0
M  V30 7239 O 700.149 -1.4027 -1.14865 0
M  V30 7240 C 700.197 -3.02446 1.96363 0
M  V30 7241 O 699.301 -3.91614 1.29276 0
M  V30 7242 H 698.642 -0.510902 0.424117 0
M  V30 7243 H 701.172 -1.10055 1.72479 0
M  V30 7244 H 701.182 -3.52468 2.055 0
M  V30 7245 H 699.857 -2.8741 3.00613 0
M  V30 7246 H 698.434 -3.50055 1.28514 0
M  V30 7247 N 700.619 -1.13374 -1.09472 0
M  V30 7248 C 701.847 -0.918351 -1.85402 0
M  V30 7249 C 702.262 0.53281 -1.81126 0
M  V30 7250 O 701.619 1.36879 -1.20708 0
M  V30 7251 C 701.67 -1.39743 -3.33398 0
M  V30 7252 O 701.391 -2.79172 -3.37631 0
M  V30 7253 C 702.892 -1.22042 -4.2617 0
M  V30 7254 H 700.112 -0.327511 -0.585643 0
M  V30 7255 H 702.656 -1.50617 -1.38328 0
M  V30 7256 H 700.811 -0.852619 -3.77901 0
M  V30 7257 H 701.225 -3.00428 -4.29934 0
M  V30 7258 H 702.699 -1.60438 -5.2817 0
M  V30 7259 H 703.176 -0.162047 -4.38901 0
M  V30 7260 H 703.782 -1.75323 -3.87482 0
M  V30 7261 N 702.098 1.27442 -0.927168 0
M  V30 7262 C 703.061 2.2512 -0.430525 0
M  V30 7263 C 704.061 1.54357 0.450619 0
M  V30 7264 O 705.251 1.72371 0.251774 0
M  V30 7265 C 702.383 3.38763 0.381144 0
M  V30 7266 H 703.576 2.70569 -1.29354 0
M  V30 7267 H 701.129 1.39355 -0.707806 0
M  V30 7268 H 701.864 2.98695 1.263 0
M  V30 7269 H 701.649 3.91298 -0.250618 0
M  V30 7270 H 703.139 4.11364 0.719012 0
M  V30 7271 N 703.576 0.692616 1.41565 0
M  V30 7272 C 704.801 0.229776 2.06123 0
M  V30 7273 C 705.226 -1.11119 1.5177 0
M  V30 7274 O 704.584 -1.69498 0.643444 0
M  V30 7275 C 704.632 0.19469 3.60074 0
M  V30 7276 O 703.736 -0.831366 4.03933 0
M  V30 7277 H 703.077 0.113002 0.654314 0
M  V30 7278 H 705.607 0.946645 1.81383 0
M  V30 7279 H 705.617 0.0245487 4.07993 0
M  V30 7280 H 704.292 1.17339 3.99004 0
M  V30 7281 H 702.869 -0.630819 3.67526 0
M  V30 7282 N 705.054 -1.51416 0.437162 0
M  V30 7283 C 706.017 -2.26312 -0.362729 0
M  V30 7284 C 707.017 -1.29748 -0.949847 0
M  V30 7285 O 708.207 -1.53462 -0.824325 0
M  V30 7286 C 705.339 -3.05475 -1.5132 0
M  V30 7287 H 706.532 -2.98459 0.29365 0
M  V30 7288 H 704.085 -1.55137 0.190327 0
M  V30 7289 H 704.82 -2.37744 -2.20563 0
M  V30 7290 H 704.605 -3.76401 -1.09838 0
M  V30 7291 H 706.095 -3.62209 -2.07833 0
M  V30 7292 N 706.532 -0.168513 -1.56696 0
M  V30 7293 C 707.762 0.482802 -2.0088 0
M  V30 7294 C 708.17 1.57537 -1.0478 0
M  V30 7295 O 707.513 1.83656 -0.0402746 0
M  V30 7296 C 707.575 1.1236 -3.4149 0
M  V30 7297 C 707.239 0.173027 -4.56672 0
M  V30 7298 C 708.236 -0.607565 -5.16338 0
M  V30 7299 C 705.921 0.0696691 -5.02252 0
M  V30 7300 C 707.915 -1.47874 -6.2001 0
M  V30 7301 C 705.602 -0.805096 -6.05773 0
M  V30 7302 C 706.6 -1.57789 -6.64524 0
M  V30 7303 O 706.288 -2.43804 -7.66038 0
M  V30 7304 H 706.02 0.128246 -0.663723 0
M  V30 7305 H 708.574 -0.266532 -2.03663 0
M  V30 7306 H 706.804 1.921 -3.35611 0
M  V30 7307 H 708.493 1.67683 -3.69645 0
M  V30 7308 H 709.259 -0.53787 -4.82008 0
M  V30 7309 H 705.138 0.660957 -4.56237 0
M  V30 7310 H 708.682 -2.0824 -6.65794 0
M  V30 7311 H 704.579 -0.876005 -6.39528 0
M  V30 7312 H 705.347 -2.37289 -7.83349 0
M  V30 7313 N 708.01 1.57248 0.105221 0
M  V30 7314 C 709.238 1.89768 0.82437 0
M  V30 7315 C 709.653 0.761192 1.72775 0
M  V30 7316 O 709.01 -0.267342 1.80531 0
M  V30 7317 C 709.061 3.2184 1.64625 0
M  V30 7318 O 708.782 4.31115 0.779217 0
M  V30 7319 C 710.283 3.68155 2.46935 0
M  V30 7320 H 707.503 0.628031 0.236259 0
M  V30 7321 H 710.047 2.04321 0.085485 0
M  V30 7322 H 708.202 3.08915 2.33775 0
M  V30 7323 H 708.616 5.06897 1.34745 0
M  V30 7324 H 710.09 4.6329 3.00111 0
M  V30 7325 H 710.567 2.95492 3.24932 0
M  V30 7326 H 711.173 3.83914 1.83002 0
M  V30 7327 N 709.488 -0.375779 1.53054 0
M  V30 7328 C 710.451 -1.44254 1.7811 0
M  V30 7329 C 711.451 -1.47018 0.651328 0
M  V30 7330 O 712.641 -1.47957 0.919472 0
M  V30 7331 C 709.773 -2.8345 1.89391 0
M  V30 7332 H 710.966 -1.23316 2.73374 0
M  V30 7333 H 708.519 -0.608312 1.43977 0
M  V30 7334 H 709.254 -3.09716 0.961589 0
M  V30 7335 H 709.039 -2.82844 2.71555 0
M  V30 7336 H 710.529 -3.60722 2.10404 0
M  V30 7337 N 710.966 -1.44241 -0.634997 0
M  V30 7338 C 712.214 -1.46531 -1.39187 0
M  V30 7339 C 712.535 -0.0976441 -1.94755 0
M  V30 7340 O 711.805 0.869528 -1.75545 0
M  V30 7341 H 710.385 -0.539544 -0.516625 0
M  V30 7342 H 713.047 -1.79989 -0.747655 0
M  V30 7343 H 712.143 -2.18848 -2.22513 0
M  V30 7344 N 712.444 0.87505 -1.31075 0
M  V30 7345 C 713.374 1.99775 -1.20881 0
M  V30 7346 C 714.355 1.69822 -0.0971612 0
M  V30 7347 O 715.54 1.92158 -0.280895 0
M  V30 7348 C 712.67 3.35163 -0.910118 0
M  V30 7349 C 711.624 3.79406 -1.98078 0
M  V30 7350 C 710.95 5.12197 -1.53488 0
M  V30 7351 C 712.25 3.97061 -3.39323 0
M  V30 7352 H 713.944 2.08562 -2.14808 0
M  V30 7353 H 711.49 1.00207 -1.03415 0
M  V30 7354 H 713.443 4.13237 -0.825423 0
M  V30 7355 H 712.167 3.26536 0.064822 0
M  V30 7356 H 710.826 3.03568 -2.05528 0
M  V30 7357 H 710.474 5.00007 -0.547941 0
M  V30 7358 H 710.174 5.4277 -2.2511 0
M  V30 7359 H 711.698 5.92785 -1.46417 0
M  V30 7360 H 713.112 4.65545 -3.34576 0
M  V30 7361 H 711.509 4.39025 -4.09118 0
M  V30 7362 H 712.579 3.00601 -3.80483 0
M  V30 7363 N 713.922 1.13953 1.08869 0
M  V30 7364 C 715.15 0.92817 1.84912 0
M  V30 7365 C 715.565 -0.523197 1.81406 0
M  V30 7366 O 714.922 -1.36237 1.21432 0
M  V30 7367 C 714.973 1.41509 3.32652 0
M  V30 7368 O 714.694 2.80959 3.36145 0
M  V30 7369 C 716.195 1.243 4.25517 0
M  V30 7370 H 713.415 0.330612 0.583898 0
M  V30 7371 H 715.959 1.51349 1.37527 0
M  V30 7372 H 714.114 0.872648 3.77444 0
M  V30 7373 H 714.528 3.02704 4.28335 0
M  V30 7374 H 716.002 1.63237 5.27312 0
M  V30 7375 H 716.479 0.18532 4.38809 0
M  V30 7376 H 717.085 1.77375 3.86546 0
M  V30 7377 N 715.4 -1.26948 0.933913 0
M  V30 7378 C 716.648 -1.93704 0.576484 0
M  V30 7379 C 716.969 -1.73702 -0.886145 0
M  V30 7380 O 716.239 -1.08838 -1.62884 0
M  V30 7381 H 714.819 -0.716812 0.210214 0
M  V30 7382 H 717.481 -1.54534 1.18766 0
M  V30 7383 H 716.577 -3.01987 0.788055 0
M  V30 7384 N 716.879 -0.700114 -1.41195 0
M  V30 7385 C 718.128 -0.230082 -2.00383 0
M  V30 7386 C 718.441 1.17857 -1.56106 0
M  V30 7387 O 719.647 1.74631 -2.07885 0
M  V30 7388 C 718.103 -0.360447 -3.5809 0
M  V30 7389 C 717.711 -1.77475 -4.11347 0
M  V30 7390 C 719.455 0.0495799 -4.24471 0
M  V30 7391 C 717.362 -1.85653 -5.61504 0
M  V30 7392 H 716.292 -0.0822633 -0.749499 0
M  V30 7393 H 718.943 -0.868969 -1.6162 0
M  V30 7394 H 717.325 0.346768 -3.94479 0
M  V30 7395 H 718.499 -2.51109 -3.86369 0
M  V30 7396 H 716.814 -2.13486 -3.57509 0
M  V30 7397 H 719.411 0.00898219 -5.34699 0
M  V30 7398 H 719.754 1.08904 -4.01803 0
M  V30 7399 H 720.287 -0.607521 -3.93134 0
M  V30 7400 H 717.026 -2.87667 -5.89006 0
M  V30 7401 H 716.546 -1.1641 -5.88395 0
M  V30 7402 H 718.225 -1.62151 -6.26351 0
M  V30 7403 N 718.357 1.51182 -0.445186 0
M  V30 7404 C 719.287 2.30821 0.352686 0
M  V30 7405 C 720.268 1.36576 1.01395 0
M  V30 7406 O 721.453 1.65497 1.01609 0
M  V30 7407 C 718.583 3.15593 1.44976 0
M  V30 7408 C 717.537 4.1818 0.911553 0
M  V30 7409 C 716.863 4.91523 2.10497 0
M  V30 7410 C 718.163 5.22266 -0.059418 0
M  V30 7411 H 719.857 2.97771 -0.311936 0
M  V30 7412 H 717.403 1.43201 -0.151461 0
M  V30 7413 H 719.356 3.70091 2.01521 0
M  V30 7414 H 718.08 2.4648 2.14278 0
M  V30 7415 H 716.739 3.64746 0.368264 0
M  V30 7416 H 716.387 4.18906 2.78437 0
M  V30 7417 H 716.087 5.60898 1.7512 0
M  V30 7418 H 717.611 5.48847 2.6758 0
M  V30 7419 H 719.025 5.71789 0.415985 0
M  V30 7420 H 717.422 5.99213 -0.326152 0
M  V30 7421 H 718.492 4.7461 -0.993631 0
M  V30 7422 N 719.835 0.176821 1.56605 0
M  V30 7423 C 721.083 -0.465793 1.96659 0
M  V30 7424 C 721.404 -1.63406 1.06412 0
M  V30 7425 O 720.674 -1.95457 0.131603 0
M  V30 7426 H 719.254 -0.175072 0.726195 0
M  V30 7427 H 721.916 0.25929 1.93168 0
M  V30 7428 H 721.012 -0.822138 3.01077 0
M  V30 7429 N 721.313 -1.57302 -0.09688 0
M  V30 7430 C 722.243 -2.0497 -1.11846 0
M  V30 7431 C 723.224 -0.938278 -1.41882 0
M  V30 7432 O 724.409 -1.20943 -1.51942 0
M  V30 7433 C 721.539 -2.47264 -2.43881 0
M  V30 7434 C 720.493 -3.62053 -2.28257 0
M  V30 7435 C 719.819 -3.90318 -3.65453 0
M  V30 7436 C 721.119 -4.93005 -1.72461 0
M  V30 7437 H 722.813 -2.90567 -0.721888 0
M  V30 7438 H 720.359 -1.39786 -0.345803 0
M  V30 7439 H 722.312 -2.7922 -3.15617 0
M  V30 7440 H 721.036 -1.58664 -2.8547 0
M  V30 7441 H 719.695 -3.30341 -1.58967 0
M  V30 7442 H 719.343 -2.98889 -4.04567 0
M  V30 7443 H 719.043 -4.67597 -3.55846 0
M  V30 7444 H 720.567 -4.24747 -4.3866 0
M  V30 7445 H 721.981 -5.23354 -2.34036 0
M  V30 7446 H 720.378 -5.74436 -1.73618 0
M  V30 7447 H 721.448 -4.80053 -0.683898 0
M  V30 7448 N 722.791 0.367657 -1.53252 0
M  V30 7449 C 724.039 1.10832 -1.68999 0
M  V30 7450 C 724.36 1.89894 -0.443306 0
M  V30 7451 O 723.63 1.88235 0.54262 0
M  V30 7452 H 722.21 0.412153 -0.623008 0
M  V30 7453 H 724.872 0.414775 -1.90435 0
M  V30 7454 H 723.968 1.7993 -2.55013 0
M  V30 7455 N 724.269 1.44576 0.627338 0
M  V30 7456 C 725.518 1.46837 1.38281 0
M  V30 7457 C 725.831 0.10635 1.95311 0
M  V30 7458 O 727.037 0.00651084 2.71499 0
M  V30 7459 C 725.493 2.58527 2.50384 0
M  V30 7460 C 725.101 4.00953 1.99851 0
M  V30 7461 C 726.845 2.70013 3.27557 0
M  V30 7462 C 724.752 5.0406 3.09318 0
M  V30 7463 H 723.682 0.546319 0.519664 0
M  V30 7464 H 726.333 1.70654 0.674497 0
M  V30 7465 H 724.715 2.27957 3.23808 0
M  V30 7466 H 725.889 4.41108 1.33267 0
M  V30 7467 H 724.204 3.93743 1.35482 0
M  V30 7468 H 726.801 3.44217 4.09168 0
M  V30 7469 H 727.144 1.75961 3.77284 0
M  V30 7470 H 727.677 3.00011 2.61224 0
M  V30 7471 H 724.416 5.99753 2.6453 0
M  V30 7472 H 723.936 4.68493 3.74532 0
M  V30 7473 H 725.615 5.2793 3.74031 0
M  V30 7474 N 725.747 -0.868086 1.31537 0
M  V30 7475 C 726.71 -1.95703 1.19302 0
M  V30 7476 C 727.71 -1.60355 0.119612 0
M  V30 7477 O 728.9 -1.70247 0.36902 0
M  V30 7478 C 726.032 -3.30599 0.831684 0
M  V30 7479 H 727.225 -2.07982 2.16064 0
M  V30 7480 H 724.778 -1.05661 1.15176 0
M  V30 7481 H 725.513 -3.2402 -0.134694 0
M  V30 7482 H 725.298 -3.57629 1.60761 0
M  V30 7483 H 726.788 -4.10439 0.770026 0
M  V30 7484 N 727.225 -1.14528 -1.08264 0
M  V30 7485 C 728.188 -0.83632 -2.13397 0
M  V30 7486 C 729.188 0.159715 -1.60005 0
M  V30 7487 O 730.378 -0.0688098 -1.74064 0
M  V30 7488 C 727.51 -0.246973 -3.40004 0
M  V30 7489 H 728.703 -1.76808 -2.42237 0
M  V30 7490 H 726.256 -0.951509 -1.24 0
M  V30 7491 H 726.991 0.693436 -3.168 0
M  V30 7492 H 726.776 -0.964412 -3.80055 0
M  V30 7493 H 728.266 -0.0480679 -4.17572 0
M  V30 7494 N 728.703 1.26451 -0.940633 0
M  V30 7495 C 730.114 1.75726 -0.630653 0
M  V30 7496 C 730.465 1.76631 0.854167 0
M  V30 7497 O 729.59 1.37807 1.66848 0
M  V30 7498 C 730.185 3.19114 -1.13805 0
M  V30 7499 C 728.744 3.66005 -0.878497 0
M  V30 7500 C 727.891 2.45505 -1.28928 0
M  V30 7501 H 730.842 1.12535 -1.119 0
M  V30 7502 H 730.863 3.77311 -0.491625 0
M  V30 7503 H 730.375 3.18424 -2.21874 0
M  V30 7504 H 728.476 3.72126 0.187833 0
M  V30 7505 H 728.589 4.54844 -1.50512 0
M  V30 7506 H 726.953 2.4467 -0.707713 0
M  V30 7507 H 727.736 2.47516 -2.37888 0
M  V30 7508 N 730.181 0.707592 1.40822 0
M  V30 7509 C 731.129 0.0386643 2.32568 0
M  V30 7510 C 732.123 -0.755653 1.51612 0
M  V30 7511 O 733.329 -0.659921 1.67467 0
M  V30 7512 H 729.704 -0.00629912 0.751974 0
M  V30 7513 H 731.675 0.8293 2.86645 0
M  V30 7514 C 730.424 -0.87496 3.36511 0
M  V30 7515 H 729.747 -0.273157 3.98866 0
M  V30 7516 H 731.187 -1.31111 4.03219 0
M  V30 7517 C 729.646 -1.99672 2.71353 0
M  V30 7518 O 730.176 -3.08676 2.57064 0
M  V30 7519 N 728.382 -1.77799 2.29861 0
M  V30 7520 H 727.929 -0.89147 2.41683 0
M  V30 7521 H 727.887 -2.53036 1.86601 0
M  V30 7522 N 731.66 -1.50943 0.453197 0
M  V30 7523 C 732.59 -2.31005 -0.34044 0
M  V30 7524 C 733.571 -1.37112 -1.00669 0
M  V30 7525 O 734.756 -1.66033 -1.0073 0
M  V30 7526 C 731.886 -3.16358 -1.433 0
M  V30 7527 C 730.84 -4.18658 -0.889363 0
M  V30 7528 C 730.166 -4.92633 -2.07887 0
M  V30 7529 C 731.466 -5.22227 0.0871142 0
M  V30 7530 H 733.16 -2.97601 0.327723 0
M  V30 7531 H 730.706 -1.43119 0.159054 0
M  V30 7532 H 732.659 -3.71155 -1.99555 0
M  V30 7533 H 731.383 -2.47613 -2.12968 0
M  V30 7534 H 730.042 -3.64936 -0.348915 0
M  V30 7535 H 729.69 -4.20376 -2.76211 0
M  V30 7536 H 729.39 -5.61819 -1.72143 0
M  V30 7537 H 730.914 -5.50258 -2.64666 0
M  V30 7538 H 732.328 -5.72001 -0.385656 0
M  V30 7539 H 730.725 -5.99032 0.357926 0
M  V30 7540 H 731.795 -4.74077 1.01879 0
M  V30 7541 N 733.138 -0.185124 -1.56509 0
M  V30 7542 C 734.101 0.72591 -2.17401 0
M  V30 7543 C 735.101 1.14819 -1.12575 0
M  V30 7544 O 736.291 1.0629 -1.38015 0
M  V30 7545 C 733.423 1.98979 -2.76803 0
M  V30 7546 H 734.616 0.195588 -2.99262 0
M  V30 7547 H 732.169 0.0644772 -1.56167 0
M  V30 7548 H 732.904 2.56287 -1.98714 0
M  V30 7549 H 732.689 1.69583 -3.53531 0
M  V30 7550 H 734.179 2.63966 -3.23592 0
M  V30 7551 N 734.616 1.57351 0.0885366 0
M  V30 7552 C 735.863 1.86419 0.790824 0
M  V30 7553 C 736.191 0.774561 1.78412 0
M  V30 7554 O 735.446 -0.23119 1.9433 0
M  V30 7555 C 735.745 3.22098 1.5488 0
M  V30 7556 C 735.411 4.4548 0.697025 0
M  V30 7557 C 734.073 4.78975 0.462237 0
M  V30 7558 C 736.425 5.21094 0.105315 0
M  V30 7559 C 733.753 5.85507 -0.374016 0
M  V30 7560 C 736.105 6.28509 -0.718298 0
M  V30 7561 C 734.769 6.60515 -0.963116 0
M  V30 7562 H 734.039 0.682157 0.289383 0
M  V30 7563 H 736.686 1.91429 0.0520961 0
M  V30 7564 H 734.991 3.12803 2.35927 0
M  V30 7565 H 736.688 3.41819 2.09669 0
M  V30 7566 H 733.278 4.19255 0.890137 0
M  V30 7567 H 737.462 4.95544 0.273856 0
M  V30 7568 H 732.718 6.08713 -0.572606 0
M  V30 7569 H 736.892 6.86268 -1.18362 0
M  V30 7570 H 734.519 7.42893 -1.6129 0
M  V30 7571 N 736.094 -0.359525 1.53444 0
M  V30 7572 C 737.319 -1.12644 1.74144 0
M  V30 7573 C 737.744 -1.82082 0.472007 0
M  V30 7574 O 737.102 -1.71962 -0.57436 0
M  V30 7575 C 737.15 -2.12781 2.9113 0
M  V30 7576 O 736.254 -3.19984 2.60162 0
M  V30 7577 H 735.595 -0.326553 0.578152 0
M  V30 7578 H 738.125 -0.414798 2.00351 0
M  V30 7579 H 738.135 -2.56278 3.17467 0
M  V30 7580 H 736.81 -1.61634 3.83207 0
M  V30 7581 H 735.387 -2.81417 2.44661 0
M  V30 7582 N 737.572 -1.44907 -0.619662 0
M  V30 7583 C 738.504 -1.48652 -1.74457 0
M  V30 7584 C 739.517 -0.378596 -1.58337 0
M  V30 7585 O 740.706 -0.644987 -1.6644 0
M  V30 7586 C 737.806 -1.31568 -3.12319 0
M  V30 7587 C 736.979 -2.55816 -3.54792 0
M  V30 7588 C 736.038 -2.33465 -4.71573 0
M  V30 7589 O 735.064 -3.07015 -4.79302 0
M  V30 7590 N 736.266 -1.37254 -5.6404 0
M  V30 7591 H 739.031 -2.45632 -1.71712 0
M  V30 7592 H 736.592 -1.40492 -0.804582 0
M  V30 7593 H 738.584 -1.14445 -3.88181 0
M  V30 7594 H 737.154 -0.429095 -3.09641 0
M  V30 7595 H 736.374 -2.88137 -2.69018 0
M  V30 7596 H 737.662 -3.38431 -3.79924 0
M  V30 7597 H 737.06 -0.765309 -5.60499 0
M  V30 7598 H 735.617 -1.26106 -6.39485 0
M  V30 7599 N 739.05 0.861098 -1.31996 0
M  V30 7600 C 739.983 1.97266 -1.14724 0
M  V30 7601 C 740.961 1.62528 -0.0483789 0
M  V30 7602 O 742.145 1.87366 -0.206478 0
M  V30 7603 C 739.272 3.30181 -0.754861 0
M  V30 7604 C 738.318 3.839 -1.85804 0
M  V30 7605 S 739.151 4.08274 -3.46515 0
M  V30 7606 C 740.307 5.44174 -3.09235 0
M  V30 7607 H 740.54 2.11614 -2.08822 0
M  V30 7608 H 738.073 1.01232 -1.16582 0
M  V30 7609 H 740.031 4.06996 -0.535232 0
M  V30 7610 H 738.692 3.13655 0.167155 0
M  V30 7611 H 737.885 4.80013 -1.53633 0
M  V30 7612 H 737.487 3.13907 -2.03318 0
M  V30 7613 H 739.779 6.26172 -2.58679 0
M  V30 7614 H 740.722 5.81301 -4.04345 0
M  V30 7615 H 741.13 5.0787 -2.46431 0
M  V30 7616 N 740.528 1.15101 1.07655 0
M  V30 7617 C 741.774 0.925343 1.80458 0
M  V30 7618 C 742.107 -0.546354 1.86356 0
M  V30 7619 O 741.382 -1.40496 1.34503 0
M  V30 7620 C 741.665 1.53646 3.25676 0
M  V30 7621 C 741.518 3.07854 3.27942 0
M  V30 7622 C 742.837 1.21968 4.22861 0
M  V30 7623 H 739.956 0.337592 0.655134 0
M  V30 7624 H 742.598 1.42217 1.25993 0
M  V30 7625 H 740.748 1.11395 3.72187 0
M  V30 7626 H 742.42 3.58989 2.89697 0
M  V30 7627 H 740.663 3.41904 2.66991 0
M  V30 7628 H 741.334 3.45725 4.30324 0
M  V30 7629 H 743.81 1.5851 3.84726 0
M  V30 7630 H 742.686 1.67349 5.22767 0
M  V30 7631 H 742.947 0.136207 4.4189 0
M  V30 7632 N 742.006 -1.2595 0.947325 0
M  V30 7633 C 743.234 -1.97544 0.615127 0
M  V30 7634 C 743.649 -1.70484 -0.811221 0
M  V30 7635 O 743.006 -0.97662 -1.5417 0
M  V30 7636 C 743.057 -3.51236 0.855328 0
M  V30 7637 O 742.778 -3.77359 2.22558 0
M  V30 7638 C 744.279 -4.40066 0.534515 0
M  V30 7639 H 741.499 -0.629888 0.231263 0
M  V30 7640 H 744.043 -1.60308 1.26971 0
M  V30 7641 H 742.198 -3.8661 0.247266 0
M  V30 7642 H 742.612 -4.71857 2.29022 0
M  V30 7643 H 744.086 -5.46838 0.753168 0
M  V30 7644 H 744.563 -4.35982 -0.530701 0
M  V30 7645 H 745.169 -4.10245 1.12158 0
M  V30 7646 N 743.484 -0.715051 -1.40445 0
M  V30 7647 C 744.712 -0.263959 -2.05209 0
M  V30 7648 C 745.127 1.09403 -1.53871 0
M  V30 7649 O 744.484 1.68746 -0.695064 0
M  V30 7650 C 744.535 -0.234545 -3.60738 0
M  V30 7651 O 744.256 -1.53891 -4.10182 0
M  V30 7652 C 745.757 0.235164 -4.42676 0
M  V30 7653 H 742.977 -0.11876 -0.660407 0
M  V30 7654 H 745.521 -0.973107 -1.79864 0
M  V30 7655 H 743.676 0.425563 -3.85055 0
M  V30 7656 H 744.09 -1.43903 -5.04373 0
M  V30 7657 H 745.564 0.204598 -5.51621 0
M  V30 7658 H 746.041 1.27724 -4.20218 0
M  V30 7659 H 746.647 -0.394649 -4.23465 0
M  V30 7660 N 744.962 1.50701 -0.461195 0
M  V30 7661 C 746.209 2.02267 0.0971971 0
M  V30 7662 C 746.537 1.34387 1.40608 0
M  V30 7663 O 745.792 0.455254 1.90331 0
M  V30 7664 C 746.091 3.55788 0.33908 0
M  V30 7665 C 745.757 4.42092 -0.886885 0
M  V30 7666 C 744.419 4.65398 -1.22304 0
M  V30 7667 C 746.771 4.92571 -1.70361 0
M  V30 7668 C 744.099 5.36429 -2.37616 0
M  V30 7669 C 746.451 5.64868 -2.84793 0
M  V30 7670 C 745.115 5.86431 -3.18834 0
M  V30 7671 H 744.385 0.740146 0.0355669 0
M  V30 7672 H 747.032 1.81415 -0.61326 0
M  V30 7673 H 745.337 3.751 1.13168 0
M  V30 7674 H 747.034 3.93243 0.784937 0
M  V30 7675 H 743.624 4.24165 -0.614981 0
M  V30 7676 H 747.808 4.74428 -1.4571 0
M  V30 7677 H 743.064 5.51333 -2.64276 0
M  V30 7678 H 747.238 6.02966 -3.48432 0
M  V30 7679 H 744.865 6.41248 -4.08296 0
M  V30 7680 N 746.441 0.193421 1.56409 0
M  V30 7681 C 747.689 -0.444908 1.97142 0
M  V30 7682 C 748.01 -1.62268 1.08139 0
M  V30 7683 O 747.28 -1.95307 0.152326 0
M  V30 7684 H 745.86 -0.16736 0.728011 0
M  V30 7685 H 748.522 0.279763 1.92882 0
M  V30 7686 H 747.618 -0.790159 3.01932 0
M  V30 7687 N 747.919 -1.57396 -0.0801906 0
M  V30 7688 C 748.849 -2.06145 -1.09665 0
M  V30 7689 C 749.83 -0.953273 -1.40878 0
M  V30 7690 O 751.015 -1.22548 -1.50651 0
M  V30 7691 C 748.145 -2.49836 -2.41245 0
M  V30 7692 C 747.099 -3.64454 -2.24405 0
M  V30 7693 C 746.425 -3.94172 -3.61293 0
M  V30 7694 C 747.725 -4.94807 -1.67223 0
M  V30 7695 H 749.419 -2.91316 -0.691028 0
M  V30 7696 H 746.965 -1.40145 -0.330957 0
M  V30 7697 H 748.918 -2.82552 -3.12638 0
M  V30 7698 H 747.642 -1.61683 -2.83771 0
M  V30 7699 H 746.301 -3.32008 -1.55454 0
M  V30 7700 H 745.949 -3.03163 -4.01374 0
M  V30 7701 H 745.649 -4.71345 -3.50867 0
M  V30 7702 H 747.173 -4.29376 -4.3413 0
M  V30 7703 H 748.587 -5.25807 -2.28472 0
M  V30 7704 H 746.984 -5.76245 -1.67515 0
M  V30 7705 H 748.054 -4.80751 -0.632944 0
M  V30 7706 N 749.397 0.351382 -1.53633 0
M  V30 7707 C 750.36 1.41403 -1.80383 0
M  V30 7708 C 751.36 1.45963 -0.674635 0
M  V30 7709 O 752.55 1.46476 -0.942895 0
M  V30 7710 C 749.682 2.80401 -1.93876 0
M  V30 7711 H 750.875 1.18951 -2.75301 0
M  V30 7712 H 748.428 0.58533 -1.44926 0
M  V30 7713 H 749.163 3.08147 -1.01074 0
M  V30 7714 H 748.948 2.78488 -2.7602 0
M  V30 7715 H 750.438 3.57329 -2.16116 0
M  V30 7716 N 750.875 1.45233 0.611969 0
M  V30 7717 C 752.123 1.48727 1.36838 0
M  V30 7718 C 752.444 0.128616 1.94575 0
M  V30 7719 O 751.714 -0.84149 1.76906 0
M  V30 7720 H 750.294 0.547695 0.507976 0
M  V30 7721 H 752.956 1.81156 0.718925 0
M  V30 7722 H 752.052 2.2236 2.19003 0
M  V30 7723 N 752.353 -0.854086 1.3245 0
M  V30 7724 C 753.602 -1.60318 1.22397 0
M  V30 7725 C 753.915 -1.9444 -0.212664 0
M  V30 7726 O 755.121 -2.67991 -0.435066 0
M  V30 7727 C 753.577 -2.8909 2.1437 0
M  V30 7728 C 753.185 -2.62391 3.63119 0
M  V30 7729 C 754.929 -3.67104 2.13155 0
M  V30 7730 C 752.836 -3.87167 4.47052 0
M  V30 7731 H 751.766 -0.601586 0.454544 0
M  V30 7732 H 754.417 -0.943023 1.57415 0
M  V30 7733 H 752.799 -3.56567 1.72268 0
M  V30 7734 H 753.973 -2.03222 4.13567 0
M  V30 7735 H 752.288 -1.97706 3.66471 0
M  V30 7736 H 754.885 -4.59696 2.731 0
M  V30 7737 H 755.228 -4.00876 1.12268 0
M  V30 7738 H 755.761 -3.06533 2.5354 0
M  V30 7739 H 752.5 -3.58536 5.48755 0
M  V30 7740 H 752.02 -4.45729 4.01355 0
M  V30 7741 H 753.699 -4.549 4.60081 0
M  V30 7742 N 753.831 -1.1567 -1.07043 0
M  V30 7743 C 755.077 -0.9349 -1.79965 0
M  V30 7744 C 755.41 0.536464 -1.86643 0
M  V30 7745 O 754.685 1.39781 -1.35247 0
M  V30 7746 C 754.968 -1.55371 -3.24857 0
M  V30 7747 C 754.821 -3.09589 -3.26305 0
M  V30 7748 C 756.14 -1.24209 -4.22209 0
M  V30 7749 H 753.259 -0.341061 -0.653335 0
M  V30 7750 H 755.901 -1.42883 -1.25237 0
M  V30 7751 H 754.051 -1.13368 -3.71591 0
M  V30 7752 H 755.723 -3.60521 -2.87789 0
M  V30 7753 H 753.966 -3.43315 -2.65174 0
M  V30 7754 H 754.637 -3.48002 -4.28484 0
M  V30 7755 H 757.113 -1.60548 -3.8388 0
M  V30 7756 H 755.989 -1.70119 -5.21872 0
M  V30 7757 H 756.25 -0.15964 -4.41812 0
M  V30 7758 N 755.309 1.25446 -0.953992 0
M  V30 7759 C 756.557 1.92762 -0.607227 0
M  V30 7760 C 756.878 1.7509 0.858399 0
M  V30 7761 O 756.148 1.11416 1.61132 0
M  V30 7762 H 754.728 0.713377 -0.221591 0
M  V30 7763 H 757.39 1.52625 -1.21209 0
M  V30 7764 H 756.486 3.00695 -0.835998 0
M  V30 7765 N 756.787 0.722489 1.40064 0
M  V30 7766 C 758.017 0.274439 2.04769 0
M  V30 7767 C 758.425 -1.09125 1.54559 0
M  V30 7768 O 757.768 -1.69834 0.700149 0
M  V30 7769 C 757.83 0.184091 3.59028 0
M  V30 7770 C 757.494 1.48619 4.32159 0
M  V30 7771 C 758.491 2.42947 4.59644 0
M  V30 7772 C 756.176 1.74703 4.7094 0
M  V30 7773 C 758.17 3.616 5.24904 0
M  V30 7774 C 755.857 2.93636 5.3593 0
M  V30 7775 C 756.855 3.86907 5.62843 0
M  V30 7776 O 756.543 5.03753 6.26489 0
M  V30 7777 H 756.275 0.119847 0.665292 0
M  V30 7778 H 758.829 0.983352 1.80331 0
M  V30 7779 H 757.059 -0.580821 3.82313 0
M  V30 7780 H 758.748 -0.230306 4.05246 0
M  V30 7781 H 759.514 2.24062 4.30141 0
M  V30 7782 H 755.393 1.02955 4.49356 0
M  V30 7783 H 758.937 4.34418 5.45827 0
M  V30 7784 H 754.834 3.12428 5.64853 0
M  V30 7785 H 755.602 5.03922 6.44984 0
M  V30 7786 N 758.265 -1.50454 0.469181 0
M  V30 7787 C 759.215 -2.25381 -0.344582 0
M  V30 7788 C 760.199 -1.28892 -0.963098 0
M  V30 7789 O 761.391 -1.53805 -0.875964 0
M  V30 7790 C 758.52 -3.12232 -1.4271 0
M  V30 7791 C 757.606 -4.16168 -0.816411 0
M  V30 7792 N 757.997 -5.05762 0.0621424 0
M  V30 7793 C 756.295 -4.32712 -1.08056 0
M  V30 7794 C 756.996 -5.80264 0.408519 0
M  V30 7795 N 755.972 -5.43171 -0.215827 0
M  V30 7796 H 759.774 -2.92016 0.332237 0
M  V30 7797 H 757.288 -1.59911 0.283209 0
M  V30 7798 H 759.285 -3.64514 -2.02324 0
M  V30 7799 H 757.945 -2.47145 -2.10593 0
M  V30 7800 H 758.956 -5.16105 0.430841 0
M  V30 7801 H 755.633 -3.78844 -1.75452 0
M  V30 7802 H 757.023 -6.62408 1.12539 0
M  V30 7803 N 759.743 -0.201713 -1.56304 0
M  V30 7804 C 760.971 0.440723 -2.02152 0
M  V30 7805 C 761.386 1.54735 -1.08179 0
M  V30 7806 O 760.743 1.82289 -0.0878196 0
M  V30 7807 C 760.794 0.990884 -3.47655 0
M  V30 7808 O 760.515 -0.0715937 -4.38041 0
M  V30 7809 C 762.016 1.70854 -4.09052 0
M  V30 7810 H 759.236 0.109987 -0.661924 0
M  V30 7811 H 761.78 -0.312358 -2.021 0
M  V30 7812 H 759.935 1.69432 -3.48384 0
M  V30 7813 H 760.349 0.338892 -5.23404 0
M  V30 7814 H 761.823 2.04572 -5.12693 0
M  V30 7815 H 762.3 2.61462 -3.52894 0
M  V30 7816 H 762.906 1.0508 -4.12114 0
M  V30 7817 N 761.222 1.57436 0.0718424 0
M  V30 7818 C 762.468 1.87525 0.772149 0
M  V30 7819 C 762.801 0.79399 1.77227 0
M  V30 7820 O 762.076 -0.195733 1.93513 0
M  V30 7821 C 762.359 3.28272 1.48018 0
M  V30 7822 C 762.212 4.47052 0.49647 0
M  V30 7823 C 763.531 3.67256 2.42509 0
M  V30 7824 H 760.65 0.682049 0.279245 0
M  V30 7825 H 763.292 1.89967 0.03534 0
M  V30 7826 H 761.442 3.26321 2.10824 0
M  V30 7827 H 763.114 4.61127 -0.126375 0
M  V30 7828 H 761.357 4.33392 -0.188205 0
M  V30 7829 H 762.028 5.42315 1.02949 0
M  V30 7830 H 764.504 3.70301 1.89781 0
M  V30 7831 H 763.38 4.66626 2.89053 0
M  V30 7832 H 763.641 2.97186 3.27312 0
M  V30 7833 N 762.7 -0.34323 1.53817 0
M  V30 7834 C 763.946 -1.08137 1.72273 0
M  V30 7835 C 764.301 -1.86311 0.480201 0
M  V30 7836 O 763.594 -1.84204 -0.527192 0
M  V30 7837 C 763.788 -2.05195 2.92626 0
M  V30 7838 C 763.617 -1.36561 4.28464 0
M  V30 7839 C 762.387 -1.11033 4.9295 0
M  V30 7840 C 764.585 -0.791663 5.0817 0
M  V30 7841 N 762.567 -0.389839 6.12661 0
M  V30 7842 C 763.938 -0.201742 6.19672 0
M  V30 7843 C 765.993 -0.692541 4.9306 0
M  V30 7844 C 764.696 0.477661 7.17712 0
M  V30 7845 C 766.722 -0.0268775 5.91394 0
M  V30 7846 C 766.084 0.552072 7.02233 0
M  V30 7847 H 762.183 -0.380078 0.683421 0
M  V30 7848 H 764.767 -0.364925 1.9125 0
M  V30 7849 H 762.938 -2.74131 2.75149 0
M  V30 7850 H 764.67 -2.7185 2.99799 0
M  V30 7851 H 761.425 -1.39752 4.52511 0
M  V30 7852 H 761.849 -0.0443076 6.76986 0
M  V30 7853 H 766.491 -1.12589 4.07534 0
M  V30 7854 H 764.209 0.922895 8.02813 0
M  V30 7855 H 767.795 0.0491921 5.81779 0
M  V30 7856 H 766.675 1.05899 7.77017 0
M  V30 7857 N 764.178 -1.45556 -0.604258 0
M  V30 7858 C 765.426 -1.4945 -1.36048 0
M  V30 7859 C 765.747 -0.138933 -1.94504 0
M  V30 7860 O 765.017 0.832097 -1.7735 0
M  V30 7861 H 763.597 -0.550381 -0.505064 0
M  V30 7862 H 766.259 -1.81535 -0.709308 0
M  V30 7863 H 765.355 -2.23519 -2.17821 0
M  V30 7864 N 765.656 0.84705 -1.32902 0
M  V30 7865 C 766.902 1.60414 -1.24078 0
M  V30 7866 C 767.235 1.93217 0.195105 0
M  V30 7867 O 766.51 1.58001 1.13428 0
M  V30 7868 C 766.793 2.91951 -2.108 0
M  V30 7869 C 766.646 2.6588 -3.62805 0
M  V30 7870 C 767.965 3.93299 -1.97494 0
M  V30 7871 H 765.084 0.58206 -0.452079 0
M  V30 7872 H 767.726 0.977562 -1.62922 0
M  V30 7873 H 765.876 3.45425 -1.77802 0
M  V30 7874 H 767.548 2.18902 -4.06054 0
M  V30 7875 H 765.791 1.99716 -3.85092 0
M  V30 7876 H 766.462 3.59574 -4.1882 0
M  V30 7877 H 768.938 3.49105 -2.26417 0
M  V30 7878 H 767.814 4.8318 -2.60438 0
M  V30 7879 H 768.075 4.31887 -0.944782 0
M  V30 7880 N 767.134 1.16236 1.06428 0
M  V30 7881 C 768.362 0.967184 1.82902 0
M  V30 7882 C 768.777 -0.484601 1.82475 0
M  V30 7883 O 768.134 -1.33631 1.24294 0
M  V30 7884 C 768.185 1.48534 3.29576 0
M  V30 7885 O 767.906 2.88026 3.3011 0
M  V30 7886 C 769.407 1.33298 4.22784 0
M  V30 7887 H 766.627 0.342923 0.576754 0
M  V30 7888 H 769.171 1.54232 1.34286 0
M  V30 7889 H 767.326 0.952513 3.75508 0
M  V30 7890 H 767.74 3.11721 4.21818 0
M  V30 7891 H 769.214 1.74385 5.23731 0
M  V30 7892 H 769.691 0.278356 4.38317 0
M  V30 7893 H 770.297 1.85535 3.82697 0
M  V30 7894 N 768.612 -1.24939 0.960631 0
M  V30 7895 C 770.023 -1.74701 0.658529 0
M  V30 7896 C 770.374 -1.77967 -0.825959 0
M  V30 7897 O 769.499 -1.40444 -1.64634 0
M  V30 7898 C 770.094 -3.17263 1.18867 0
M  V30 7899 C 768.653 -3.64561 0.936614 0
M  V30 7900 C 767.8 -2.43423 1.32817 0
M  V30 7901 H 770.751 -1.10741 1.13676 0
M  V30 7902 H 770.772 -3.76481 0.551589 0
M  V30 7903 H 770.284 -3.14854 2.26912 0
M  V30 7904 H 768.385 -3.72378 -0.128608 0
M  V30 7905 H 768.498 -4.52392 1.57729 0
M  V30 7906 H 766.862 -2.43513 0.746548 0
M  V30 7907 H 767.645 -2.437 2.41796 0
M  V30 7908 N 770.09 -0.729906 -1.39679 0
M  V30 7909 C 771.053 -0.0951668 -2.29002 0
M  V30 7910 C 772.053 0.672471 -1.46063 0
M  V30 7911 O 773.243 0.502245 -1.66803 0
M  V30 7912 C 770.375 0.874631 -3.29489 0
M  V30 7913 H 771.568 -0.882062 -2.86635 0
M  V30 7914 H 769.121 -0.495424 -1.4824 0
M  V30 7915 H 769.856 1.68807 -2.76902 0
M  V30 7916 H 769.641 0.326893 -3.90735 0
M  V30 7917 H 771.131 1.31548 -3.96339 0
M  V30 7918 N 771.568 1.50203 -0.477153 0
M  V30 7919 C 772.498 2.31517 0.303646 0
M  V30 7920 C 773.479 1.38696 0.984753 0
M  V30 7921 O 774.664 1.67615 0.980758 0
M  V30 7922 C 771.794 3.18598 1.38249 0
M  V30 7923 C 770.748 4.2002 0.822645 0
M  V30 7924 C 770.074 4.95878 2.00024 0
M  V30 7925 C 771.374 5.22023 -0.170185 0
M  V30 7926 H 773.068 2.97042 -0.375027 0
M  V30 7927 H 770.614 1.42848 -0.181802 0
M  V30 7928 H 772.567 3.74282 1.93625 0
M  V30 7929 H 771.291 2.5097 2.09002 0
M  V30 7930 H 769.95 3.65445 0.290813 0
M  V30 7931 H 769.598 4.24717 2.69489 0
M  V30 7932 H 769.298 5.64487 1.63183 0
M  V30 7933 H 770.822 5.54399 2.55878 0
M  V30 7934 H 772.236 5.72543 0.294606 0
M  V30 7935 H 770.633 5.98386 -0.453181 0
M  V30 7936 H 771.703 4.72396 -1.09408 0
M  V30 7937 N 773.046 0.209999 1.56195 0
M  V30 7938 C 773.996 -0.717978 2.164 0
M  V30 7939 C 774.98 -1.16577 1.10899 0
M  V30 7940 O 776.172 -1.12169 1.3692 0
M  V30 7941 C 773.301 -1.93091 2.8385 0
M  V30 7942 C 772.387 -1.50333 3.96561 0
M  V30 7943 N 772.778 -0.787621 4.9963 0
M  V30 7944 C 771.076 -1.79151 4.08437 0
M  V30 7945 C 771.777 -0.571204 5.78889 0
M  V30 7946 N 770.753 -1.12444 5.31843 0
M  V30 7947 H 774.555 -0.162603 2.9345 0
M  V30 7948 H 772.069 0.0107928 1.62396 0
M  V30 7949 H 774.066 -2.60635 3.25384 0
M  V30 7950 H 772.726 -2.49087 2.08293 0
M  V30 7951 H 773.737 -0.441513 5.16015 0
M  V30 7952 H 770.414 -2.36549 3.44022 0
M  V30 7953 H 771.804 -0.00237941 6.719 0
M  V30 7954 N 774.524 -1.57472 -0.0634922 0
M  V30 7955 C 775.749 -1.92273 -0.77756 0
M  V30 7956 C 776.174 -0.807141 -1.69902 0
M  V30 7957 O 775.532 0.239523 -1.79711 0
M  V30 7958 C 775.58 -3.26054 -1.54017 0
M  V30 7959 O 774.684 -3.15873 -2.65138 0
M  V30 7960 H 774.025 -0.629389 -0.211579 0
M  V30 7961 H 776.555 -2.04579 -0.0292523 0
M  V30 7962 H 776.565 -3.60127 -1.91763 0
M  V30 7963 H 775.24 -4.06824 -0.864128 0
M  V30 7964 H 773.817 -2.93373 -2.30189 0
M  V30 7965 N 776.003 0.335068 -1.53997 0
M  V30 7966 C 777.414 0.910191 -1.6301 0
M  V30 7967 C 777.765 1.89271 -0.516809 0
M  V30 7968 O 776.89 2.13516 0.352123 0
M  V30 7969 C 777.485 1.65761 -2.9548 0
M  V30 7970 C 776.044 2.18163 -3.06728 0
M  V30 7971 C 775.191 1.00338 -2.5851 0
M  V30 7972 H 778.142 0.112965 -1.58297 0
M  V30 7973 H 778.163 2.52107 -2.84995 0
M  V30 7974 H 777.675 0.94227 -3.76488 0
M  V30 7975 H 775.776 2.92847 -2.30372 0
M  V30 7976 H 775.889 2.43952 -4.1234 0
M  V30 7977 H 774.253 1.37925 -2.14124 0
M  V30 7978 H 775.036 0.30254 -3.41964 0
M  V30 7979 N 777.481 1.45874 0.596531 0
M  V30 7980 C 778.411 1.5824 1.71705 0
M  V30 7981 C 779.392 0.433366 1.64487 0
M  V30 7982 O 780.577 0.657895 1.82717 0
M  V30 7983 C 777.707 1.55927 3.10329 0
M  V30 7984 C 776.661 2.69659 3.32367 0
M  V30 7985 C 775.987 2.52403 4.71377 0
M  V30 7986 C 777.287 4.11591 3.21544 0
M  V30 7987 H 778.981 2.52035 1.61613 0
M  V30 7988 H 776.527 1.21297 0.776082 0
M  V30 7989 H 778.48 1.63173 3.88526 0
M  V30 7990 H 777.204 0.586674 3.21288 0
M  V30 7991 H 775.863 2.61859 2.56564 0
M  V30 7992 H 775.511 1.53258 4.79083 0
M  V30 7993 H 775.211 3.28679 4.87077 0
M  V30 7994 H 776.735 2.6152 5.5176 0
M  V30 7995 H 778.149 4.20576 3.89601 0
M  V30 7996 H 776.546 4.88344 3.4877 0
M  V30 7997 H 777.616 4.32719 2.1882 0
M  V30 7998 N 778.959 -0.83999 1.33349 0
M  V30 7999 C 779.892 -1.95415 1.17848 0
M  V30 8000 C 780.87 -1.6243 0.0742296 0
M  V30 8001 O 782.054 -1.87014 0.23626 0
M  V30 8002 C 779.181 -3.28938 0.807295 0
M  V30 8003 C 778.227 -3.80895 1.91888 0
M  V30 8004 S 779.06 -4.02709 3.52967 0
M  V30 8005 C 780.216 -5.39185 3.17853 0
M  V30 8006 H 780.449 -2.08265 2.12162 0
M  V30 8007 H 777.982 -0.993643 1.18178 0
M  V30 8008 H 779.94 -4.06093 0.599914 0
M  V30 8009 H 778.601 -3.13881 -0.117234 0
M  V30 8010 H 777.794 -4.77508 1.6125 0
M  V30 8011 H 777.396 -3.10633 2.08286 0
M  V30 8012 H 779.688 -6.21978 2.68608 0
M  V30 8013 H 780.631 -5.74795 4.13542 0
M  V30 8014 H 781.039 -5.03885 2.5448 0
M  V30 8015 N 780.437 -1.16799 -1.0581 0
M  V30 8016 C 781.662 -0.977402 -1.82925 0
M  V30 8017 C 782.087 0.469514 -1.82146 0
M  V30 8018 O 781.445 1.33576 -1.22585 0
M  V30 8019 C 781.493 -1.51543 -3.27211 0
M  V30 8020 O 780.597 -0.725021 -4.05977 0
M  V30 8021 H 779.938 -0.347474 -0.565825 0
M  V30 8022 H 782.468 -1.55151 -1.33376 0
M  V30 8023 H 782.478 -1.53502 -3.78023 0
M  V30 8024 H 781.153 -2.56872 -3.27093 0
M  V30 8025 H 779.73 -0.77634 -3.64729 0
M  V30 8026 N 781.915 1.24427 -0.967243 0
M  V30 8027 C 783.161 1.92772 -0.629812 0
M  V30 8028 C 783.494 1.75436 0.832827 0
M  V30 8029 O 782.769 1.10716 1.59913 0
M  V30 8030 C 783.052 3.45798 -1.00477 0
M  V30 8031 C 782.905 3.72304 -2.52407 0
M  V30 8032 C 784.224 4.36787 -0.538999 0
M  V30 8033 H 781.343 0.700099 -0.230282 0
M  V30 8034 H 783.985 1.46805 -1.20616 0
M  V30 8035 H 782.135 3.8508 -0.514336 0
M  V30 8036 H 783.807 3.42584 -3.08924 0
M  V30 8037 H 782.05 3.17472 -2.95625 0
M  V30 8038 H 782.721 4.7937 -2.73693 0
M  V30 8039 H 785.197 4.04877 -0.959874 0
M  V30 8040 H 784.073 5.4259 -0.829926 0
M  V30 8041 H 784.334 4.38527 0.560923 0
M  V30 8042 N 783.393 0.737304 1.3929 0
M  V30 8043 C 784.621 0.296573 2.04763 0
M  V30 8044 C 785.036 -1.06941 1.55592 0
M  V30 8045 O 784.393 -1.67619 0.721822 0
M  V30 8046 C 784.444 0.291906 3.6032 0
M  V30 8047 O 784.165 1.60397 4.07682 0
M  V30 8048 C 785.666 -0.164708 4.42994 0
M  V30 8049 H 782.886 0.129251 0.658434 0
M  V30 8050 H 785.43 1.0016 1.78293 0
M  V30 8051 H 783.585 -0.364251 3.85684 0
M  V30 8052 H 783.999 1.51909 5.0202 0
M  V30 8053 H 785.473 -0.116814 5.51876 0
M  V30 8054 H 785.95 -1.21022 4.22197 0
M  V30 8055 H 786.556 0.461968 4.22784 0
M  V30 8056 N 784.871 -1.49948 0.485112 0
M  V30 8057 C 785.819 -2.30449 -0.315609 0
M  V30 8058 C 786.813 -1.38351 -0.977516 0
M  V30 8059 O 788.019 -1.55477 -0.907019 0
M  V30 8060 H 784.394 -0.742262 -0.120629 0
M  V30 8061 H 786.365 -2.95925 0.383552 0
M  V30 8062 C 785.114 -3.19283 -1.37673 0
M  V30 8063 H 784.437 -3.90067 -0.876801 0
M  V30 8064 H 785.877 -3.78579 -1.90929 0
M  V30 8065 C 784.336 -2.37817 -2.38631 0
M  V30 8066 O 784.866 -2.0711 -3.44192 0
M  V30 8067 N 783.072 -2.00135 -2.107 0
M  V30 8068 H 782.619 -2.25307 -1.24878 0
M  V30 8069 H 782.577 -1.45933 -2.7848 0
M  V30 8070 N 786.349 -0.21828 -1.56081 0
M  V30 8071 C 787.312 0.679633 -2.18892 0
M  V30 8072 C 788.312 1.12405 -1.14986 0
M  V30 8073 O 789.502 1.03339 -1.40238 0
M  V30 8074 C 786.634 1.93063 -2.80962 0
M  V30 8075 H 787.827 0.132066 -2.99609 0
M  V30 8076 H 785.38 0.0313374 -1.56269 0
M  V30 8077 H 786.115 2.52015 -2.04106 0
M  V30 8078 H 785.9 1.62046 -3.57048 0
M  V30 8079 H 787.39 2.57043 -3.29118 0
M  V30 8080 N 787.827 1.57504 0.0551401 0
M  V30 8081 C 789.076 1.87237 0.750009 0
M  V30 8082 C 789.389 0.813268 1.77891 0
M  V30 8083 O 790.595 0.99898 2.52453 0
M  V30 8084 C 789.051 3.32187 1.38491 0
M  V30 8085 C 788.659 4.46267 0.393707 0
M  V30 8086 C 790.403 3.71101 2.06117 0
M  V30 8087 C 788.31 5.82265 1.03547 0
M  V30 8088 H 787.24 0.698524 0.283866 0
M  V30 8089 H 789.891 1.835 0.00365997 0
M  V30 8090 H 788.273 3.30588 2.18008 0
M  V30 8091 H 789.447 4.59289 -0.372865 0
M  V30 8092 H 787.762 4.16015 -0.17902 0
M  V30 8093 H 790.359 4.70012 2.54937 0
M  V30 8094 H 790.702 3.01751 2.86796 0
M  V30 8095 H 791.235 3.74762 1.33409 0
M  V30 8096 H 787.974 6.54949 0.268644 0
M  V30 8097 H 787.494 5.73012 1.7725 0
M  V30 8098 H 789.173 6.28148 1.55047 0
M  V30 8099 N 789.305 -0.326896 1.54172 0
M  V30 8100 C 790.53 -1.08924 1.76494 0
M  V30 8101 C 790.955 -1.81039 0.510523 0
M  V30 8102 O 790.313 -1.73141 -0.537756 0
M  V30 8103 C 790.361 -2.06558 2.95578 0
M  V30 8104 O 789.465 -3.14394 2.6689 0
M  V30 8105 H 788.806 -0.314216 0.584948 0
M  V30 8106 H 791.336 -0.372207 2.01186 0
M  V30 8107 H 791.346 -2.49487 3.22832 0
M  V30 8108 H 790.021 -1.53469 3.86549 0
M  V30 8109 H 788.598 -2.76164 2.50576 0
M  V30 8110 N 790.784 -1.46188 -0.588786 0
M  V30 8111 C 792.032 -1.50885 -1.34455 0
M  V30 8112 C 792.353 -0.159555 -1.94346 0
M  V30 8113 O 791.623 0.813239 -1.78222 0
M  V30 8114 H 790.203 -0.555707 -0.499198 0
M  V30 8115 H 792.865 -1.82277 -0.690014 0
M  V30 8116 H 791.961 -2.25816 -2.15438 0
M  V30 8117 N 792.262 0.832906 -1.33792 0
M  V30 8118 C 793.192 1.95828 -1.27176 0
M  V30 8119 C 794.173 1.69427 -0.15114 0
M  V30 8120 O 795.358 1.91167 -0.341886 0
M  V30 8121 C 792.488 3.32098 -1.01629 0
M  V30 8122 C 791.442 3.72912 -2.10049 0
M  V30 8123 C 790.768 5.07054 -1.69706 0
M  V30 8124 C 792.068 3.86064 -3.51783 0
M  V30 8125 H 793.762 2.01622 -2.21334 0
M  V30 8126 H 791.308 0.96866 -1.0655 0
M  V30 8127 H 793.261 4.10402 -0.956474 0
M  V30 8128 H 791.985 3.26577 -0.0390956 0
M  V30 8129 H 790.644 2.96876 -2.15082 0
M  V30 8130 H 790.292 4.9801 -0.706737 0
M  V30 8131 H 789.992 5.35333 -2.42264 0
M  V30 8132 H 791.516 5.87827 -1.65202 0
M  V30 8133 H 792.93 4.54665 -3.49218 0
M  V30 8134 H 791.327 4.25787 -4.22878 0
M  V30 8135 H 792.397 2.88344 -3.89854 0
M  V30 8136 N 793.74 1.17359 1.05189 0
M  V30 8137 C 794.968 0.986529 1.81866 0
M  V30 8138 C 795.383 -0.46522 1.82979 0
M  V30 8139 O 794.74 -1.32305 1.25705 0
M  V30 8140 C 794.791 1.52021 3.27982 0
M  V30 8141 O 794.512 2.91511 3.27037 0
M  V30 8142 C 796.013 1.37774 4.21347 0
M  V30 8143 H 793.233 0.349021 0.573084 0
M  V30 8144 H 795.777 1.55648 1.32643 0
M  V30 8145 H 793.932 0.992287 3.74476 0
M  V30 8146 H 794.346 3.16178 4.18488 0
M  V30 8147 H 795.82 1.7993 5.21852 0
M  V30 8148 H 796.297 0.32483 4.37997 0
M  V30 8149 H 796.903 1.89583 3.80708 0
M  V30 8150 N 795.218 -1.23913 0.973828 0
M  V30 8151 C 796.181 -2.23367 0.51378 0
M  V30 8152 C 797.181 -1.55923 -0.39302 0
M  V30 8153 O 798.371 -1.73187 -0.187626 0
M  V30 8154 C 795.503 -3.39944 -0.255152 0
M  V30 8155 H 796.696 -2.65581 1.39307 0
M  V30 8156 H 794.249 -1.36632 0.759039 0
M  V30 8157 H 794.984 -3.03177 -1.15127 0
M  V30 8158 H 794.769 -3.90098 0.395673 0
M  V30 8159 H 796.259 -4.13749 -0.565842 0
M  V30 8160 N 796.696 -0.74468 -1.38897 0
M  V30 8161 C 797.942 -0.297324 -2.00609 0
M  V30 8162 C 798.275 1.11547 -1.58968 0
M  V30 8163 O 797.55 1.76227 -0.823057 0
M  V30 8164 C 797.833 -0.410125 -3.57757 0
M  V30 8165 C 797.686 -1.86338 -4.09387 0
M  V30 8166 C 799.005 0.20176 -4.39637 0
M  V30 8167 H 796.124 -0.109509 -0.728819 0
M  V30 8168 H 798.766 -0.942653 -1.64967 0
M  V30 8169 H 796.916 0.139287 -3.8825 0
M  V30 8170 H 798.588 -2.47042 -3.89574 0
M  V30 8171 H 796.831 -2.38146 -3.62586 0
M  V30 8172 H 797.502 -1.89352 -5.18507 0
M  V30 8173 H 799.978 -0.266703 -4.15244 0
M  V30 8174 H 798.854 0.0925415 -5.48822 0
M  V30 8175 H 799.115 1.289 -4.22891 0
M  V30 8176 N 798.174 1.49689 -0.493057 0
M  V30 8177 C 799.422 2.02027 0.0541642 0
M  V30 8178 C 799.743 1.37554 1.38217 0
M  V30 8179 O 799.013 0.528174 1.88646 0
M  V30 8180 H 797.593 0.746646 0.0230069 0
M  V30 8181 H 800.255 1.83795 -0.648489 0
M  V30 8182 H 799.351 3.11523 0.189652 0
M  V30 8183 N 799.652 0.226554 1.55963 0
M  V30 8184 C 800.9 -0.402991 1.98041 0
M  V30 8185 C 801.221 -1.59938 1.11557 0
M  V30 8186 O 800.491 -1.9494 0.193719 0
M  V30 8187 H 799.071 -0.15188 0.731397 0
M  V30 8188 H 801.733 0.320613 1.92245 0
M  V30 8189 H 800.829 -0.725937 3.0354 0
M  V30 8190 N 801.13 -1.57531 -0.0467866 0
M  V30 8191 C 802.06 -2.08425 -1.05268 0
M  V30 8192 C 803.041 -0.982941 -1.38825 0
M  V30 8193 O 804.226 -1.25716 -1.48018 0
M  V30 8194 C 801.356 -2.54897 -2.35891 0
M  V30 8195 C 800.31 -3.69132 -2.16623 0
M  V30 8196 C 799.636 -4.01747 -3.52851 0
M  V30 8197 C 800.936 -4.98243 -1.56689 0
M  V30 8198 H 802.63 -2.92716 -0.62908 0
M  V30 8199 H 800.176 -1.40816 -0.301156 0
M  V30 8200 H 802.129 -2.8912 -3.06574 0
M  V30 8201 H 800.853 -1.67666 -2.80278 0
M  V30 8202 H 799.512 -3.35231 -1.48377 0
M  V30 8203 H 799.16 -3.11608 -3.94853 0
M  V30 8204 H 798.86 -4.78681 -3.4079 0
M  V30 8205 H 800.384 -4.38487 -4.24925 0
M  V30 8206 H 801.798 -5.30535 -2.17268 0
M  V30 8207 H 800.195 -5.79669 -1.55255 0
M  V30 8208 H 801.265 -4.81986 -0.530827 0
M  V30 8209 N 802.608 0.318715 -1.54344 0
M  V30 8210 C 803.571 1.37545 -1.83342 0
M  V30 8211 C 804.571 1.445 -0.705444 0
M  V30 8212 O 805.761 1.44443 -0.973752 0
M  V30 8213 C 802.893 2.76225 -1.99781 0
M  V30 8214 H 804.086 1.13084 -2.77762 0
M  V30 8215 H 801.639 0.554457 -1.46135 0
M  V30 8216 H 802.374 3.05934 -1.07588 0
M  V30 8217 H 802.159 2.7257 -2.81865 0
M  V30 8218 H 803.649 3.52664 -2.23647 0
M  V30 8219 N 804.086 1.46499 0.581025 0
M  V30 8220 C 805.016 1.60052 1.70017 0
M  V30 8221 C 805.997 0.450788 1.64018 0
M  V30 8222 O 807.182 0.677237 1.82009 0
M  V30 8223 C 804.312 1.5921 3.08658 0
M  V30 8224 C 803.266 2.73169 3.29488 0
M  V30 8225 C 802.592 2.57389 4.68674 0
M  V30 8226 C 803.892 4.14978 3.1716 0
M  V30 8227 H 805.586 2.53735 1.5893 0
M  V30 8228 H 803.132 1.22113 0.763173 0
M  V30 8229 H 805.085 1.67285 3.86773 0
M  V30 8230 H 803.809 0.620718 3.20647 0
M  V30 8231 H 802.468 2.64566 2.53773 0
M  V30 8232 H 802.116 1.58331 4.77431 0
M  V30 8233 H 801.816 3.33826 4.83564 0
M  V30 8234 H 803.34 2.67358 5.48956 0
M  V30 8235 H 804.754 4.24684 3.85119 0
M  V30 8236 H 803.151 4.92016 3.4357 0
M  V30 8237 H 804.221 4.35016 2.14218 0
M  V30 8238 N 805.565 -0.825799 1.34232 0
M  V30 8239 C 806.498 -1.94155 1.19914 0
M  V30 8240 C 807.476 -1.62343 0.0914533 0
M  V30 8241 O 808.66 -1.86752 0.256082 0
M  V30 8242 C 805.787 -3.28064 0.842138 0
M  V30 8243 C 804.833 -3.78839 1.95917 0
M  V30 8244 S 805.666 -3.98943 3.57218 0
M  V30 8245 C 806.822 -5.35783 3.23554 0
M  V30 8246 H 807.055 -2.06003 2.14359 0
M  V30 8247 H 804.588 -0.981053 1.19225 0
M  V30 8248 H 806.546 -4.05434 0.642952 0
M  V30 8249 H 805.207 -3.13988 -0.0839363 0
M  V30 8250 H 804.4 -4.75771 1.66306 0
M  V30 8251 H 804.002 -3.08406 2.11569 0
M  V30 8252 H 806.294 -6.19094 2.7519 0
M  V30 8253 H 807.237 -5.70376 4.19615 0
M  V30 8254 H 807.645 -5.01158 2.5981 0
M  V30 8255 N 807.043 -1.17915 -1.04565 0
M  V30 8256 C 808.291 -0.969505 -1.77327 0
M  V30 8257 C 808.612 0.502569 -1.88412 0
M  V30 8258 O 807.882 1.36467 -1.40547 0
M  V30 8259 H 806.462 -0.355723 -0.656864 0
M  V30 8260 H 809.124 -1.48506 -1.26223 0
M  V30 8261 H 808.22 -1.40324 -2.78775 0
M  V30 8262 N 808.521 1.23394 -0.980386 0
M  V30 8263 C 809.769 1.91431 -0.647978 0
M  V30 8264 C 810.09 1.76871 0.821066 0
M  V30 8265 O 809.36 1.14808 1.58732 0
M  V30 8266 H 807.94 0.708516 -0.236673 0
M  V30 8267 H 810.602 1.50019 -1.2442 0
M  V30 8268 H 809.698 2.98854 -0.899592 0
M  V30 8269 N 809.999 0.752036 1.385 0
M  V30 8270 C 810.949 0.0990189 2.27785 0
M  V30 8271 C 811.933 -0.694867 1.45122 0
M  V30 8272 O 813.125 -0.561077 1.67872 0
M  V30 8273 C 810.254 -0.794531 3.33979 0
M  V30 8274 C 809.34 0.00611984 4.241 0
M  V30 8275 N 809.731 1.04174 4.94956 0
M  V30 8276 C 808.029 -0.220934 4.45452 0
M  V30 8277 C 808.73 1.52601 5.61327 0
M  V30 8278 N 807.706 0.84159 5.37046 0
M  V30 8279 H 811.508 0.892208 2.8003 0
M  V30 8280 H 809.022 0.587934 1.51384 0
M  V30 8281 H 811.019 -1.27797 3.96829 0
M  V30 8282 H 809.679 -1.58669 2.83292 0
M  V30 8283 H 810.69 1.42349 4.97953 0
M  V30 8284 H 807.367 -0.986556 4.05676 0
M  V30 8285 H 808.757 2.38857 6.2801 0
M  V30 8286 N 811.477 -1.49425 0.500989 0
M  V30 8287 C 812.407 -2.31971 -0.266775 0
M  V30 8288 C 813.388 -1.40245 -0.962563 0
M  V30 8289 O 814.573 -1.69154 -0.953968 0
M  V30 8290 C 811.703 -3.20757 -1.33163 0
M  V30 8291 C 810.657 -4.21275 -0.75572 0
M  V30 8292 C 809.983 -4.98997 -1.92109 0
M  V30 8293 C 811.283 -5.21686 0.253213 0
M  V30 8294 H 812.977 -2.96408 0.422237 0
M  V30 8295 H 810.523 -1.4254 0.204505 0
M  V30 8296 H 812.476 -3.77315 -1.87646 0
M  V30 8297 H 811.2 -2.54263 -2.04983 0
M  V30 8298 H 809.859 -3.65861 -0.232637 0
M  V30 8299 H 809.507 -4.28951 -2.62698 0
M  V30 8300 H 809.207 -5.67011 -1.54182 0
M  V30 8301 H 810.731 -5.584 -2.47026 0
M  V30 8302 H 812.145 -5.72939 -0.203483 0
M  V30 8303 H 810.542 -5.9759 0.548322 0
M  V30 8304 H 811.612 -4.70596 1.16909 0
M  V30 8305 N 812.955 -0.234822 -1.55841 0
M  V30 8306 C 814.185 0.397168 -2.02746 0
M  V30 8307 C 814.593 1.52951 -1.11367 0
M  V30 8308 O 813.936 1.8332 -0.118133 0
M  V30 8309 C 813.998 0.977748 -3.45948 0
M  V30 8310 C 813.662 -0.0208193 -4.56995 0
M  V30 8311 C 814.659 -0.826015 -5.13296 0
M  V30 8312 C 812.344 -0.143416 -5.02095 0
M  V30 8313 C 814.338 -1.74038 -6.1318 0
M  V30 8314 C 812.025 -1.0613 -6.01814 0
M  V30 8315 C 813.023 -1.85832 -6.57233 0
M  V30 8316 O 812.711 -2.76075 -7.55008 0
M  V30 8317 H 812.443 0.0999802 -0.668566 0
M  V30 8318 H 814.997 -0.352673 -2.0235 0
M  V30 8319 H 813.227 1.77693 -3.43456 0
M  V30 8320 H 814.916 1.51854 -3.76424 0
M  V30 8321 H 815.682 -0.741822 -4.79293 0
M  V30 8322 H 811.561 0.466857 -4.5863 0
M  V30 8323 H 815.105 -2.36291 -6.56363 0
M  V30 8324 H 811.002 -1.14646 -6.35237 0
M  V30 8325 H 811.77 -2.703 -7.7258 0
M  V30 8326 N 814.433 1.57553 0.0384317 0
M  V30 8327 C 815.844 1.77258 0.586211 0
M  V30 8328 C 816.195 0.864706 1.76117 0
M  V30 8329 O 815.32 0.057141 2.16325 0
M  V30 8330 C 815.915 3.21453 1.07021 0
M  V30 8331 C 814.474 3.42387 1.56358 0
M  V30 8332 C 813.621 2.72801 0.497508 0
M  V30 8333 H 816.572 1.57585 -0.187796 0
M  V30 8334 H 816.593 3.27451 1.93794 0
M  V30 8335 H 816.105 3.87505 0.214851 0
M  V30 8336 H 814.206 2.81497 2.44111 0
M  V30 8337 H 814.319 4.50968 1.61754 0
M  V30 8338 H 812.683 2.36305 0.95038 0
M  V30 8339 H 813.466 3.41529 -0.348234 0
M  V30 8340 N 815.911 -0.310526 1.54511 0
M  V30 8341 C 817.136 -1.07046 1.7764 0
M  V30 8342 C 817.561 -1.80488 0.529696 0
M  V30 8343 O 816.919 -1.73702 -0.519361 0
M  V30 8344 C 816.967 -2.03411 2.97752 0
M  V30 8345 O 816.071 -3.11545 2.7021 0
M  V30 8346 H 815.412 -0.307994 0.588248 0
M  V30 8347 H 817.942 -0.350848 2.01569 0
M  V30 8348 H 817.952 -2.46048 3.2546 0
M  V30 8349 H 816.627 -1.49361 3.88155 0
M  V30 8350 H 815.204 -2.7349 2.53491 0
M  V30 8351 N 817.389 -1.46805 -0.573248 0
M  V30 8352 C 818.617 -1.56191 -1.3569 0
M  V30 8353 C 819.032 -0.206362 -1.87669 0
M  V30 8354 O 818.389 0.797883 -1.64134 0
M  V30 8355 C 818.44 -2.57433 -2.53792 0
M  V30 8356 O 818.161 -3.87724 -2.03965 0
M  V30 8357 C 819.662 -2.76851 -3.4622 0
M  V30 8358 H 816.882 -0.527907 -0.414192 0
M  V30 8359 H 819.426 -1.92292 -0.695989 0
M  V30 8360 H 817.581 -2.24311 -3.15854 0
M  V30 8361 H 817.995 -4.42909 -2.80948 0
M  V30 8362 H 819.469 -3.5159 -4.25545 0
M  V30 8363 H 819.946 -1.84095 -3.98755 0
M  V30 8364 H 820.552 -3.11107 -2.89987 0
M  V30 8365 N 818.867 0.818669 -1.34668 0
M  V30 8366 C 820.095 1.60674 -1.30351 0
M  V30 8367 C 820.51 1.88408 0.121546 0
M  V30 8368 O 819.867 1.47849 1.06991 0
M  V30 8369 C 819.918 2.94516 -2.09625 0
M  V30 8370 O 819.639 2.6799 -3.46573 0
M  V30 8371 C 821.14 3.8891 -2.12754 0
M  V30 8372 H 818.36 0.499306 -0.448258 0
M  V30 8373 H 820.904 1.01828 -1.77345 0
M  V30 8374 H 819.059 3.49908 -1.66262 0
M  V30 8375 H 819.473 3.53361 -3.87603 0
M  V30 8376 H 820.947 4.79972 -2.72637 0
M  V30 8377 H 821.424 4.24599 -1.12306 0
M  V30 8378 H 822.03 3.39453 -2.56225 0
M  V30 8379 N 820.346 1.18468 1.03938 0
M  V30 8380 C 821.571 1.00638 1.81347 0
M  V30 8381 C 821.996 -0.440477 1.8287 0
M  V30 8382 O 821.354 -1.31609 1.24695 0
M  V30 8383 C 821.402 1.5673 3.24759 0
M  V30 8384 O 820.506 0.789517 4.04772 0
M  V30 8385 H 819.847 0.356432 0.560225 0
M  V30 8386 H 822.377 1.57253 1.30891 0
M  V30 8387 H 822.387 1.59496 3.75533 0
M  V30 8388 H 821.062 2.62043 3.22965 0
M  V30 8389 H 819.639 0.834267 3.63448 0
M  V30 8390 N 821.824 -1.22873 0.986916 0
M  V30 8391 C 822.756 -2.23889 0.490537 0
M  V30 8392 C 823.769 -1.57523 -0.411144 0
M  V30 8393 O 824.958 -1.7721 -0.214236 0
M  V30 8394 C 822.058 -3.37488 -0.30902 0
M  V30 8395 C 821.231 -4.33438 0.587354 0
M  V30 8396 C 820.29 -5.25958 -0.159467 0
M  V30 8397 O 819.316 -5.67394 0.453115 0
M  V30 8398 N 820.518 -5.62265 -1.44355 0
M  V30 8399 H 823.283 -2.67109 1.35914 0
M  V30 8400 H 820.844 -1.37111 0.860937 0
M  V30 8401 H 822.836 -3.96365 -0.817139 0
M  V30 8402 H 821.406 -2.934 -1.07868 0
M  V30 8403 H 820.626 -3.72969 1.27622 0
M  V30 8404 H 821.914 -4.94495 1.19801 0
M  V30 8405 H 821.312 -5.30562 -1.96266 0
M  V30 8406 H 819.869 -6.23585 -1.89698 0
M  V30 8407 N 823.302 -0.75937 -1.38099 0
M  V30 8408 C 824.55 -0.317485 -1.99591 0
M  V30 8409 C 824.871 1.10628 -1.60581 0
M  V30 8410 O 824.141 1.7575 -0.865378 0
M  V30 8411 H 822.721 -0.114397 -0.738189 0
M  V30 8412 H 825.383 -0.974749 -1.68774 0
M  V30 8413 H 824.479 -0.385227 -3.09713 0
M  V30 8414 N 824.78 1.49157 -0.508906 0
M  V30 8415 C 825.71 2.32109 0.254469 0
M  V30 8416 C 826.691 1.40754 0.955111 0
M  V30 8417 O 827.876 1.69658 0.944983 0
M  V30 8418 C 825.006 3.21458 1.3146 0
M  V30 8419 C 823.96 4.2167 0.733368 0
M  V30 8420 C 823.286 5.00009 1.8946 0
M  V30 8421 C 824.586 5.21544 -0.280875 0
M  V30 8422 H 826.28 2.9618 -0.43795 0
M  V30 8423 H 823.826 1.4243 -0.212062 0
M  V30 8424 H 825.779 3.78305 1.85643 0
M  V30 8425 H 824.503 2.55346 2.03632 0
M  V30 8426 H 823.162 3.65979 0.213231 0
M  V30 8427 H 822.81 4.30338 2.60419 0
M  V30 8428 H 822.51 5.67821 1.51173 0
M  V30 8429 H 824.034 5.59702 2.44061 0
M  V30 8430 H 825.448 5.73039 0.173095 0
M  V30 8431 H 823.845 5.97291 -0.580006 0
M  V30 8432 H 824.915 4.69969 -1.19404 0
M  V30 8433 N 826.258 0.243083 1.55714 0
M  V30 8434 C 827.221 -0.644723 2.19945 0
M  V30 8435 C 828.221 -1.10562 1.16759 0
M  V30 8436 O 829.411 -1.01095 1.41865 0
M  V30 8437 C 826.543 -1.88569 2.83997 0
M  V30 8438 H 827.736 -0.0843839 2.99781 0
M  V30 8439 H 825.289 -0.00647246 1.56299 0
M  V30 8440 H 826.024 -2.48736 2.08089 0
M  V30 8441 H 825.809 -1.56345 3.59581 0
M  V30 8442 H 827.299 -2.51774 3.33166 0
M  V30 8443 N 827.736 -1.57571 -0.0300757 0
M  V30 8444 C 828.699 -2.05468 -1.01565 0
M  V30 8445 C 829.699 -0.958628 -1.29101 0
M  V30 8446 O 830.889 -1.22228 -1.24121 0
M  V30 8447 C 828.021 -2.47077 -2.34874 0
M  V30 8448 H 829.214 -2.93797 -0.601936 0
M  V30 8449 H 826.767 -1.53828 -0.276878 0
M  V30 8450 H 827.502 -1.61901 -2.80996 0
M  V30 8451 H 827.287 -3.27097 -2.16218 0
M  V30 8452 H 828.777 -2.84564 -3.05635 0
M  V30 8453 N 829.214 0.302327 -1.54673 0
M  V30 8454 C 830.144 1.37759 -1.88533 0
M  V30 8455 C 831.125 1.52961 -0.744113 0
M  V30 8456 O 832.31 1.6649 -0.999731 0
M  V30 8457 C 829.44 2.74201 -2.13146 0
M  V30 8458 C 828.394 2.73765 -3.28993 0
M  V30 8459 C 827.72 4.13483 -3.39022 0
M  V30 8460 C 829.02 2.35624 -4.66132 0
M  V30 8461 H 830.714 1.0967 -2.78591 0
M  V30 8462 H 828.26 0.52613 -1.34044 0
M  V30 8463 H 830.213 3.49508 -2.35419 0
M  V30 8464 H 828.937 3.03812 -1.19858 0
M  V30 8465 H 827.596 2.00914 -3.06642 0
M  V30 8466 H 827.244 4.40269 -2.43253 0
M  V30 8467 H 826.944 4.14093 -4.16894 0
M  V30 8468 H 828.468 4.90572 -3.63553 0
M  V30 8469 H 829.882 3.00647 -4.88143 0
M  V30 8470 H 828.279 2.47449 -5.46707 0
M  V30 8471 H 829.349 1.30753 -4.66939 0
M  V30 8472 N 830.692 1.47107 0.565454 0
M  V30 8473 C 831.655 1.58535 1.65527 0
M  V30 8474 C 832.655 0.461081 1.54048 0
M  V30 8475 O 833.845 0.725911 1.58355 0
M  V30 8476 C 830.977 1.52204 3.05036 0
M  V30 8477 H 832.17 2.55676 1.56747 0
M  V30 8478 H 829.723 1.35174 0.78471 0
M  V30 8479 H 830.458 0.564071 3.19357 0
M  V30 8480 H 830.243 2.3379 3.14777 0
M  V30 8481 H 831.733 1.63322 3.84338 0
M  V30 8482 N 832.17 -0.811516 1.35101 0
M  V30 8483 C 833.133 -1.90467 1.27495 0
M  V30 8484 C 834.133 -1.59703 0.187516 0
M  V30 8485 O 835.323 -1.68528 0.440896 0
M  V30 8486 C 832.455 -3.26774 0.971154 0
M  V30 8487 H 833.648 -1.98631 2.2469 0
M  V30 8488 H 831.201 -1.00681 1.19553 0
M  V30 8489 H 831.936 -3.243 0.0028557 0
M  V30 8490 H 831.721 -3.50488 1.75785 0
M  V30 8491 H 833.211 -4.06804 0.943414 0
M  V30 8492 N 833.648 -1.19017 -1.03309 0
M  V30 8493 C 834.895 -0.990214 -1.76638 0
M  V30 8494 C 835.223 0.479435 -1.88498 0
M  V30 8495 O 834.478 1.37223 -1.39529 0
M  V30 8496 C 834.777 -1.59927 -3.19622 0
M  V30 8497 C 834.443 -3.09632 -3.27779 0
M  V30 8498 C 833.105 -3.50491 -3.29712 0
M  V30 8499 C 835.457 -4.05644 -3.27264 0
M  V30 8500 C 832.785 -4.85921 -3.28782 0
M  V30 8501 C 835.137 -5.41 -3.27875 0
M  V30 8502 C 833.801 -5.81295 -3.28104 0
M  V30 8503 H 833.071 -0.362345 -0.646364 0
M  V30 8504 H 835.718 -1.48197 -1.21284 0
M  V30 8505 H 834.023 -1.0297 -3.78027 0
M  V30 8506 H 835.72 -1.41989 -3.7502 0
M  V30 8507 H 832.31 -2.77073 -3.26999 0
M  V30 8508 H 836.494 -3.75124 -3.24955 0
M  V30 8509 H 831.75 -5.16427 -3.27281 0
M  V30 8510 H 835.924 -6.15157 -3.26428 0
M  V30 8511 H 833.551 -6.86211 -3.27138 0
M  V30 8512 N 835.127 1.22348 -0.993418 0
M  V30 8513 C 836.376 1.90422 -0.665019 0
M  V30 8514 C 836.689 1.78199 0.806512 0
M  V30 8515 O 837.895 2.41193 1.24652 0
M  V30 8516 C 836.351 3.41403 -1.13893 0
M  V30 8517 C 835.959 3.62262 -2.63572 0
M  V30 8518 C 837.703 4.15175 -0.884884 0
M  V30 8519 C 835.61 5.06947 -3.04564 0
M  V30 8520 H 834.54 0.713073 -0.245037 0
M  V30 8521 H 837.191 1.3856 -1.20305 0
M  V30 8522 H 835.573 3.9245 -0.529027 0
M  V30 8523 H 836.747 3.21705 -3.29913 0
M  V30 8524 H 835.062 3.01824 -2.86865 0
M  V30 8525 H 837.659 5.21813 -1.16684 0
M  V30 8526 H 838.002 4.15915 0.178982 0
M  V30 8527 H 838.535 3.70157 -1.45701 0
M  V30 8528 H 835.274 5.11346 -4.10128 0
M  V30 8529 H 834.794 5.48404 -2.42927 0
M  V30 8530 H 836.473 5.75374 -2.95894 0
M  V30 8531 N 836.605 0.766683 1.37694 0
M  V30 8532 C 837.83 0.338715 2.04615 0
M  V30 8533 C 838.255 -1.02918 1.57447 0
M  V30 8534 O 837.613 -1.65849 0.732386 0
M  V30 8535 C 837.661 0.385284 3.58536 0
M  V30 8536 O 836.765 -0.616081 4.07772 0
M  V30 8537 H 836.106 0.147527 0.647404 0
M  V30 8538 H 838.636 1.04146 1.7611 0
M  V30 8539 H 838.646 0.240782 4.07289 0
M  V30 8540 H 837.321 1.38325 3.92223 0
M  V30 8541 H 835.898 -0.435115 3.70353 0
M  V30 8542 N 838.083 -1.48885 0.516809 0
M  V30 8543 C 839.308 -2.0739 -0.0205201 0
M  V30 8544 C 839.733 -1.37259 -1.28614 0
M  V30 8545 O 839.091 -0.434304 -1.76021 0
M  V30 8546 C 839.139 -3.59793 -0.24104 0
M  V30 8547 O 838.243 -3.90957 -1.31251 0
M  V30 8548 H 837.584 -0.663167 0.0332564 0
M  V30 8549 H 840.114 -1.91477 0.720956 0
M  V30 8550 H 840.124 -4.0531 -0.467737 0
M  V30 8551 H 838.799 -4.10244 0.68356 0
M  V30 8552 H 837.376 -3.57234 -1.06951 0
M  V30 8553 N 839.561 -0.251338 -1.55583 0
M  V30 8554 C 840.807 0.37272 -1.99346 0
M  V30 8555 C 841.14 1.57266 -1.13934 0
M  V30 8556 O 840.415 1.9343 -0.20377 0
M  V30 8557 C 840.698 0.778245 -3.5159 0
M  V30 8558 C 840.551 -0.427394 -4.47765 0
M  V30 8559 C 841.87 1.62358 -4.09057 0
M  V30 8560 H 838.989 0.134002 -0.724715 0
M  V30 8561 H 841.631 -0.353536 -1.86682 0
M  V30 8562 H 839.781 1.39704 -3.62512 0
M  V30 8563 H 841.453 -1.06586 -4.48818 0
M  V30 8564 H 839.696 -1.06972 -4.20404 0
M  V30 8565 H 840.367 -0.10025 -5.51909 0
M  V30 8566 H 842.843 1.1012 -4.01264 0
M  V30 8567 H 841.719 1.87617 -5.1584 0
M  V30 8568 H 841.98 2.59688 -3.57791 0
M  V30 8569 N 841.039 1.57585 0.0217189 0
M  V30 8570 C 841.987 2.08134 1.03842 0
M  V30 8571 C 842.981 0.996662 1.36978 0
M  V30 8572 O 844.187 1.18149 1.35797 0
M  V30 8573 H 840.562 0.664298 0.352438 0
M  V30 8574 H 842.533 2.92583 0.58634 0
M  V30 8575 C 841.282 2.58218 2.32849 0
M  V30 8576 H 840.605 3.41302 2.08214 0
M  V30 8577 H 842.045 2.97289 3.02316 0
M  V30 8578 C 840.504 1.48664 3.02325 0
M  V30 8579 O 841.034 0.857075 3.9245 0
M  V30 8580 N 839.24 1.21938 2.63779 0
M  V30 8581 H 838.787 1.73319 1.90574 0
M  V30 8582 H 838.745 0.488523 3.10581 0
M  V30 8583 N 842.517 -0.29412 1.54831 0
M  V30 8584 C 843.766 -1.02614 1.73647 0
M  V30 8585 C 844.079 -1.88193 0.533162 0
M  V30 8586 O 845.285 -2.64713 0.603275 0
M  V30 8587 C 843.741 -1.87417 3.07251 0
M  V30 8588 C 843.349 -1.06806 4.35082 0
M  V30 8589 C 845.093 -2.60176 3.35423 0
M  V30 8590 C 843 -1.90926 5.59733 0
M  V30 8591 H 841.93 -0.386834 0.647206 0
M  V30 8592 H 844.581 -0.282789 1.81308 0
M  V30 8593 H 842.963 -2.65765 2.93572 0
M  V30 8594 H 844.137 -0.330226 4.59615 0
M  V30 8595 H 842.452 -0.455979 4.13896 0
M  V30 8596 H 845.049 -3.23476 4.25755 0
M  V30 8597 H 845.392 -3.29365 2.54606 0
M  V30 8598 H 845.925 -1.88871 3.50103 0
M  V30 8599 H 842.664 -1.26194 6.43238 0
M  V30 8600 H 842.184 -2.62363 5.39375 0
M  V30 8601 H 843.863 -2.48807 5.97247 0
M  V30 8602 N 843.995 -1.47404 -0.557645 0
M  V30 8603 C 844.958 -1.59411 -1.64684 0
M  V30 8604 C 845.958 -0.469244 -1.53801 0
M  V30 8605 O 847.148 -0.734298 -1.57967 0
M  V30 8606 C 844.28 -1.5382 -3.04224 0
M  V30 8607 H 845.473 -2.56504 -1.55389 0
M  V30 8608 H 843.026 -1.35588 -0.777531 0
M  V30 8609 H 843.761 -0.581 -3.19053 0
M  V30 8610 H 843.546 -2.35456 -3.13533 0
M  V30 8611 H 845.036 -1.65358 -3.83466 0
M  V30 8612 N 845.473 0.80434 -1.35529 0
M  V30 8613 C 846.721 1.55845 -1.28673 0
M  V30 8614 C 847.042 1.94511 0.137976 0
M  V30 8615 O 846.312 1.63775 1.07492 0
M  V30 8616 H 844.892 0.577931 -0.473291 0
M  V30 8617 H 847.554 0.959293 -1.69657 0
M  V30 8618 H 846.65 2.47285 -1.90411 0
M  V30 8619 N 846.951 1.19563 1.02676 0
M  V30 8620 C 848.199 0.997593 1.75763 0
M  V30 8621 C 848.52 -0.47253 1.89188 0
M  V30 8622 O 847.79 -1.34214 1.42701 0
M  V30 8623 H 846.37 0.366128 0.651122 0
M  V30 8624 H 849.032 1.50495 1.23844 0
M  V30 8625 H 848.128 1.44741 2.76508 0
M  V30 8626 N 848.429 -1.21819 0.999893 0
M  V30 8627 C 849.676 -1.90752 0.679694 0
M  V30 8628 C 850.004 -1.77777 -0.789014 0
M  V30 8629 O 849.259 -1.14518 -1.58695 0
M  V30 8630 C 849.558 -3.4193 1.04012 0
M  V30 8631 C 849.224 -3.75098 2.50225 0
M  V30 8632 C 847.886 -3.83861 2.90179 0
M  V30 8633 C 850.238 -3.90706 3.44961 0
M  V30 8634 C 847.566 -4.05676 4.23844 0
M  V30 8635 C 849.918 -4.14027 4.78294 0
M  V30 8636 C 848.582 -4.21016 5.17979 0
M  V30 8637 H 847.852 -0.698012 0.248718 0
M  V30 8638 H 850.499 -1.44437 1.25738 0
M  V30 8639 H 848.804 -3.89947 0.380606 0
M  V30 8640 H 850.501 -3.93532 0.770301 0
M  V30 8641 H 847.091 -3.68865 2.18258 0
M  V30 8642 H 851.275 -3.83307 3.15261 0
M  V30 8643 H 846.531 -4.09316 4.5417 0
M  V30 8644 H 850.705 -4.25046 5.51642 0
M  V30 8645 H 848.332 -4.37672 6.21568 0
M  V30 8646 N 849.908 -0.773975 -1.37286 0
M  V30 8647 C 850.838 -0.175782 -2.32837 0
M  V30 8648 C 851.819 0.680603 -1.5589 0
M  V30 8649 O 853.004 0.617607 -1.84117 0
M  V30 8650 C 850.134 0.702388 -3.40123 0
M  V30 8651 C 849.088 -0.0528687 -4.27967 0
M  V30 8652 C 848.414 0.944891 -5.26285 0
M  V30 8653 C 849.714 -1.23316 -5.07534 0
M  V30 8654 H 851.408 -0.974016 -2.83114 0
M  V30 8655 H 848.954 -0.469826 -1.3612 0
M  V30 8656 H 850.907 1.13069 -4.05947 0
M  V30 8657 H 849.631 1.53316 -2.88378 0
M  V30 8658 H 848.29 -0.461978 -3.63678 0
M  V30 8659 H 847.938 1.77028 -4.70819 0
M  V30 8660 H 847.638 0.444079 -5.8592 0
M  V30 8661 H 849.162 1.37209 -5.94984 0
M  V30 8662 H 850.576 -0.881395 -5.66484 0
M  V30 8663 H 848.973 -1.66621 -5.76504 0
M  V30 8664 H 850.043 -2.03617 -4.40077 0
M  V30 8665 N 851.386 1.48609 -0.524698 0
M  V30 8666 C 852.632 2.02797 0.0113382 0
M  V30 8667 C 852.965 1.40147 1.34433 0
M  V30 8668 O 852.24 0.545368 1.86698 0
M  V30 8669 C 852.523 3.59832 0.138931 0
M  V30 8670 C 852.376 4.32971 -1.21886 0
M  V30 8671 C 853.695 4.3145 0.868265 0
M  V30 8672 H 850.814 0.736995 0.00264645 0
M  V30 8673 H 853.456 1.77388 -0.680704 0
M  V30 8674 H 851.606 3.81612 0.72834 0
M  V30 8675 H 853.278 4.22624 -1.84897 0
M  V30 8676 H 851.521 3.94597 -1.80211 0
M  V30 8677 H 852.192 5.41279 -1.08263 0
M  V30 8678 H 854.668 4.14468 0.368145 0
M  V30 8679 H 853.544 5.41025 0.926428 0
M  V30 8680 H 853.805 3.98358 1.91737 0
M  V30 8681 N 852.864 0.259585 1.55447 0
M  V30 8682 C 854.092 -0.365392 2.03648 0
M  V30 8683 C 854.507 -1.50613 1.13847 0
M  V30 8684 O 853.864 -1.81837 0.155414 0
M  V30 8685 C 853.915 -0.861172 3.51093 0
M  V30 8686 O 853.636 0.234121 4.37474 0
M  V30 8687 C 855.137 -1.55555 4.15111 0
M  V30 8688 H 852.357 -0.0853439 0.66555 0
M  V30 8689 H 854.901 0.387151 2.00802 0
M  V30 8690 H 853.056 -1.56385 3.54433 0
M  V30 8691 H 853.47 -0.1444 5.24301 0
M  V30 8692 H 854.944 -1.85403 5.19932 0
M  V30 8693 H 855.421 -2.48185 3.62355 0
M  V30 8694 H 856.027 -0.89712 4.15731 0
M  V30 8695 N 854.342 -1.57594 -0.0133615 0
M  V30 8696 C 855.274 -2.04402 -1.03695 0
M  V30 8697 C 856.287 -0.959546 -1.31516 0
M  V30 8698 O 857.476 -1.23659 -1.28727 0
M  V30 8699 C 854.576 -2.41766 -2.37491 0
M  V30 8700 C 853.749 -3.72785 -2.28802 0
M  V30 8701 C 852.808 -3.97165 -3.45176 0
M  V30 8702 O 851.834 -4.68013 -3.23963 0
M  V30 8703 N 853.036 -3.44021 -4.67579 0
M  V30 8704 H 855.801 -2.92833 -0.637874 0
M  V30 8705 H 853.362 -1.60647 -0.20101 0
M  V30 8706 H 855.354 -2.55201 -3.14093 0
M  V30 8707 H 853.924 -1.58924 -2.69188 0
M  V30 8708 H 853.144 -3.69555 -1.37197 0
M  V30 8709 H 854.432 -4.58704 -2.20154 0
M  V30 8710 H 853.83 -2.86623 -4.87713 0
M  V30 8711 H 852.387 -3.62808 -5.41492 0
M  V30 8712 N 855.82 0.285905 -1.54985 0
M  V30 8713 C 857.236 0.632405 -1.46536 0
M  V30 8714 C 857.436 1.90074 -0.668888 0
M  V30 8715 O 856.492 2.51839 -0.182586 0
M  V30 8716 C 857.805 0.771361 -2.90638 0
M  V30 8717 C 859.353 0.866262 -3.00774 0
M  V30 8718 C 859.828 1.0371 -4.46103 0
M  V30 8719 N 861.319 1.10294 -4.49877 0
M  V30 8720 C 862.054 1.25369 -5.59527 0
M  V30 8721 N 861.55 1.37246 -6.7907 0
M  V30 8722 N 863.343 1.28377 -5.47244 0
M  V30 8723 H 855.494 -0.547226 -2.0523 0
M  V30 8724 H 857.757 -0.183298 -0.930111 0
M  V30 8725 H 857.463 -0.0899485 -3.51585 0
M  V30 8726 H 857.337 1.65569 -3.3892 0
M  V30 8727 H 859.724 1.71805 -2.39931 0
M  V30 8728 H 859.805 -0.0424049 -2.55765 0
M  V30 8729 H 859.449 0.190021 -5.07544 0
M  V30 8730 H 859.379 1.96022 -4.88757 0
M  V30 8731 H 861.87 1.02407 -3.6376 0
M  V30 8732 H 862.183 1.48546 -7.58389 0
M  V30 8733 H 860.528 1.34274 -6.81906 0
M  V30 8734 H 863.719 1.1872 -4.52795 0
M  V30 8735 H 863.892 1.39782 -6.32744 0
M  V30 8736 N 857.298 1.47698 0.54982 0
M  V30 8737 C 858.231 1.55288 1.67215 0
M  V30 8738 C 859.209 0.404533 1.57487 0
M  V30 8739 O 860.393 0.613372 1.78241 0
M  V30 8740 C 857.52 1.46233 3.05505 0
M  V30 8741 C 856.566 2.65662 3.33655 0
M  V30 8742 S 857.399 4.278 3.22098 0
M  V30 8743 C 858.555 4.21311 4.62869 0
M  V30 8744 H 858.788 2.50238 1.60524 0
M  V30 8745 H 856.321 1.35987 0.731227 0
M  V30 8746 H 858.279 1.41696 3.85269 0
M  V30 8747 H 856.94 0.526543 3.09655 0
M  V30 8748 H 856.133 2.55411 4.3449 0
M  V30 8749 H 855.735 2.67359 2.61524 0
M  V30 8750 H 858.027 3.90021 5.53977 0
M  V30 8751 H 858.97 5.22257 4.78177 0
M  V30 8752 H 859.378 3.52063 4.41262 0
M  V30 8753 N 858.776 -0.797141 1.35954 0
M  V30 8754 C 859.706 -1.92387 1.32323 0
M  V30 8755 C 860.687 -1.68967 0.196007 0
M  V30 8756 O 861.872 -1.90193 0.39245 0
M  V30 8757 C 859.002 -3.29286 1.10398 0
M  V30 8758 C 857.956 -3.67212 2.19862 0
M  V30 8759 C 857.282 -5.02377 1.8309 0
M  V30 8760 C 858.582 -3.76602 3.61896 0
M  V30 8761 H 860.276 -1.95683 2.26602 0
M  V30 8762 H 857.822 -0.94007 1.09081 0
M  V30 8763 H 859.775 -4.07721 1.06495 0
M  V30 8764 H 858.499 -3.26358 0.125668 0
M  V30 8765 H 857.158 -2.91069 2.22878 0
M  V30 8766 H 856.806 -4.95961 0.838527 0
M  V30 8767 H 856.506 -5.28722 2.56372 0
M  V30 8768 H 858.03 -5.8324 1.80729 0
M  V30 8769 H 859.444 -4.45246 3.6115 0
M  V30 8770 H 857.841 -4.14425 4.34018 0
M  V30 8771 H 858.911 -2.77906 3.97361 0
M  V30 8772 N 860.254 -1.20106 -1.0204 0
M  V30 8773 C 861.531 -0.918029 -1.72718 0
M  V30 8774 C 861.911 0.574163 -2.03142 0
M  V30 8775 O 861.259 1.53476 -1.69285 0
M  V30 8776 C 861.469 -1.78698 -2.9978 0
M  V30 8777 C 862.817 -2.02648 -3.7312 0
M  V30 8778 O 863.841 -1.75919 -3.09727 0
M  V30 8779 O 862.7 -2.47767 -4.87107 0
M  V30 8780 H 859.794 -0.342904 -0.752559 0
M  V30 8781 H 862.34 -1.30961 -1.07923 0
M  V30 8782 H 861.112 -2.79757 -2.7359 0
M  V30 8783 H 860.735 -1.39522 -3.72316 0
M  V30 8784 N 861.732 1.21287 -1.00634 0
M  V30 8785 C 862.665 2.22366 -0.512687 0
M  V30 8786 C 863.643 1.56692 0.434332 0
M  V30 8787 O 864.827 1.85094 0.35674 0
M  V30 8788 C 861.954 3.37738 0.255139 0
M  V30 8789 C 861 4.21673 -0.639883 0
M  V30 8790 S 861.833 4.92474 -2.10308 0
M  V30 8791 C 862.989 6.11275 -1.34512 0
M  V30 8792 H 863.222 2.63896 -1.36918 0
M  V30 8793 H 860.755 1.31176 -0.814387 0
M  V30 8794 H 862.713 4.04624 0.692067 0
M  V30 8795 H 861.374 2.94689 1.08707 0
M  V30 8796 H 860.567 5.03977 -0.0483821 0
M  V30 8797 H 860.169 3.59988 -1.01414 0
M  V30 8798 H 862.461 6.7466 -0.619721 0
M  V30 8799 H 863.404 6.74864 -2.14393 0
M  V30 8800 H 863.812 5.58026 -0.852506 0
M  V30 8801 N 863.21 0.781244 1.36873 0
M  V30 8802 C 864.457 0.349889 1.99454 0
M  V30 8803 C 864.785 -1.07621 1.62013 0
M  V30 8804 O 864.04 -1.75665 0.86258 0
M  V30 8805 C 864.339 0.45146 3.54537 0
M  V30 8806 C 864.005 1.83718 4.11775 0
M  V30 8807 C 862.667 2.21634 4.2712 0
M  V30 8808 C 865.019 2.7449 4.43063 0
M  V30 8809 C 862.347 3.49742 4.7106 0
M  V30 8810 C 864.699 4.02017 4.88431 0
M  V30 8811 C 863.363 4.39967 5.01982 0
M  V30 8812 H 862.633 0.128033 0.729855 0
M  V30 8813 H 865.28 0.997117 1.63493 0
M  V30 8814 H 863.585 -0.279288 3.90803 0
M  V30 8815 H 865.282 0.0988609 4.00878 0
M  V30 8816 H 861.872 1.53251 4.00265 0
M  V30 8817 H 866.056 2.46453 4.30783 0
M  V30 8818 H 861.312 3.79026 4.79738 0
M  V30 8819 H 865.486 4.72475 5.11605 0
M  V30 8820 H 863.113 5.39291 5.35788 0
M  V30 8821 N 864.689 -1.48329 0.532571 0
M  V30 8822 C 865.636 -2.29663 -0.228779 0
M  V30 8823 C 866.606 -1.37529 -0.931401 0
M  V30 8824 O 867.791 -1.66493 -0.931921 0
M  V30 8825 C 864.931 -3.20955 -1.26814 0
M  V30 8826 C 864.044 -4.28168 -0.574099 0
M  V30 8827 C 863.179 -5.06638 -1.59661 0
M  V30 8828 C 862.218 -6.05651 -0.88618 0
M  V30 8829 N 861.355 -6.77169 -1.85436 0
M  V30 8830 H 866.195 -2.94255 0.47098 0
M  V30 8831 H 863.732 -1.45061 0.2441 0
M  V30 8832 H 865.69 -3.72285 -1.88307 0
M  V30 8833 H 864.32 -2.58281 -1.93625 0
M  V30 8834 H 863.372 -3.80085 0.154827 0
M  V30 8835 H 864.684 -4.98797 -0.0163984 0
M  V30 8836 H 863.838 -5.61995 -2.28576 0
M  V30 8837 H 862.577 -4.35854 -2.18821 0
M  V30 8838 H 861.582 -5.49495 -0.182981 0
M  V30 8839 H 862.807 -6.78434 -0.300659 0
M  V30 8840 H 860.753 -6.09134 -2.43499 0
M  V30 8841 H 860.67 -7.43882 -1.34816 0
M  V30 8842 H 861.938 -7.37114 -2.53541 0
M  V30 8843 N 866.167 -0.267825 -1.55308 0
M  V30 8844 C 867.583 0.0865107 -1.59365 0
M  V30 8845 C 867.783 1.55205 -1.28505 0
M  V30 8846 O 866.839 2.29978 -1.04241 0
M  V30 8847 C 868.152 -0.28155 -2.99379 0
M  V30 8848 C 869.7 -0.227565 -3.12172 0
M  V30 8849 C 870.175 -0.569959 -4.5444 0
M  V30 8850 N 871.666 -0.521238 -4.60258 0
M  V30 8851 C 872.401 -0.759061 -5.68354 0
M  V30 8852 N 871.897 -1.06112 -6.84626 0
M  V30 8853 N 873.69 -0.688351 -5.57869 0
M  V30 8854 H 865.841 -1.22332 -1.73633 0
M  V30 8855 H 868.104 -0.493703 -0.809297 0
M  V30 8856 H 867.81 -1.3005 -3.26772 0
M  V30 8857 H 867.684 0.381192 -3.75269 0
M  V30 8858 H 870.071 0.782093 -2.84548 0
M  V30 8859 H 870.152 -0.924461 -2.38511 0
M  V30 8860 H 869.796 -1.57727 -4.82788 0
M  V30 8861 H 869.726 0.148646 -5.2639 0
M  V30 8862 H 872.217 -0.297359 -3.76728 0
M  V30 8863 H 872.53 -1.22945 -7.62958 0
M  V30 8864 H 870.875 -1.09881 -6.86259 0
M  V30 8865 H 874.066 -0.452268 -4.6591 0
M  V30 8866 H 874.239 -0.877081 -6.42037 0
M  V30 8867 N 867.645 1.57599 0.00500368 0
M  V30 8868 C 869.056 1.78462 0.54848 0
M  V30 8869 C 869.407 0.901869 1.74243 0
M  V30 8870 O 868.532 0.103014 2.16155 0
M  V30 8871 C 869.127 3.2365 1.00179 0
M  V30 8872 C 867.686 3.45627 1.49061 0
M  V30 8873 C 866.833 2.73794 0.439531 0
M  V30 8874 H 869.784 1.57151 -0.22118 0
M  V30 8875 H 869.805 3.31488 1.86805 0
M  V30 8876 H 869.317 3.87873 0.132607 0
M  V30 8877 H 867.418 2.86612 2.38085 0
M  V30 8878 H 867.531 4.54298 1.52152 0
M  V30 8879 H 865.895 2.38267 0.900043 0
M  V30 8880 H 866.678 3.40714 -0.420599 0
M  V30 8881 N 869.123 -0.277682 1.55134 0
M  V30 8882 C 870.351 -1.02826 1.7954 0
M  V30 8883 C 870.766 -1.80105 0.566373 0
M  V30 8884 O 870.123 -1.76491 -0.464448 0
M  V30 8885 C 870.174 -1.99053 3.01762 0
M  V30 8886 O 869.895 -1.24906 4.19917 0
M  V30 8887 C 871.396 -2.85961 3.38735 0
M  V30 8888 H 868.616 -0.303958 0.598206 0
M  V30 8889 H 871.16 -0.309884 2.02138 0
M  V30 8890 H 869.315 -2.66359 2.81303 0
M  V30 8891 H 869.729 -1.89725 4.88983 0
M  V30 8892 H 871.203 -3.49286 4.27438 0
M  V30 8893 H 871.68 -3.55486 2.57928 0
M  V30 8894 H 872.286 -2.24152 3.61436 0
M  V30 8895 N 870.601 -1.47988 -0.541979 0
M  V30 8896 C 871.878 -1.45878 -1.30303 0
M  V30 8897 C 872.258 -0.163931 -2.10463 0
M  V30 8898 O 871.606 0.854479 -2.11922 0
M  V30 8899 C 871.816 -2.71359 -2.19466 0
M  V30 8900 C 873.164 -3.19199 -2.79995 0
M  V30 8901 O 874.188 -2.72193 -2.2976 0
M  V30 8902 O 873.047 -4.00961 -3.71339 0
M  V30 8903 H 870.141 -0.582043 -0.587498 0
M  V30 8904 H 872.687 -1.60207 -0.559623 0
M  V30 8905 H 871.459 -3.57122 -1.59936 0
M  V30 8906 H 871.082 -2.59692 -3.01075 0
M  V30 8907 N 872.079 0.78992 -1.36375 0
M  V30 8908 C 873.49 1.36506 -1.2737 0
M  V30 8909 C 873.841 1.96008 0.086711 0
M  V30 8910 O 872.966 1.92521 0.988159 0
M  V30 8911 C 873.561 2.48175 -2.30639 0
M  V30 8912 C 872.12 3.01506 -2.25325 0
M  V30 8913 C 871.267 1.74581 -2.15445 0
M  V30 8914 H 874.218 0.591606 -1.47261 0
M  V30 8915 H 874.239 3.27179 -1.94253 0
M  V30 8916 H 873.751 2.04838 -3.2964 0
M  V30 8917 H 871.852 3.49265 -1.29788 0
M  V30 8918 H 871.965 3.58355 -3.17992 0
M  V30 8919 H 870.329 1.96794 -1.61692 0
M  V30 8920 H 871.112 1.33373 -3.16333 0
M  V30 8921 N 873.557 1.20646 1.01402 0
M  V30 8922 C 874.968 1.01823 1.56489 0
M  V30 8923 C 875.319 -0.42463 1.9155 0
M  V30 8924 O 874.444 -1.30644 1.72514 0
M  V30 8925 C 875.039 1.84208 2.84347 0
M  V30 8926 C 873.598 1.69743 3.35953 0
M  V30 8927 C 872.745 1.8198 2.09233 0
M  V30 8928 H 875.696 1.348 0.837539 0
M  V30 8929 H 875.717 1.34698 3.55861 0
M  V30 8930 H 875.229 2.89215 2.58798 0
M  V30 8931 H 873.33 0.673833 3.66456 0
M  V30 8932 H 873.443 2.51173 4.07981 0
M  V30 8933 H 871.807 1.25193 2.21808 0
M  V30 8934 H 872.59 2.88477 1.86107 0
M  V30 8935 N 875.035 -1.20752 1.01276 0
M  V30 8936 C 875.945 -2.27079 0.589277 0
M  V30 8937 C 876.961 -1.6999 -0.371389 0
M  V30 8938 O 878.137 -2.00044 -0.233294 0
M  V30 8939 C 875.202 -3.4663 -0.0696715 0
M  V30 8940 C 874.263 -4.18962 0.936454 0
M  V30 8941 C 873.496 -5.32806 0.308856 0
M  V30 8942 O 873.719 -5.63376 -0.8924 0
M  V30 8943 O 872.653 -5.93131 1.02367 0
M  V30 8944 H 876.479 -2.6551 1.47438 0
M  V30 8945 H 874.064 -1.27297 0.782045 0
M  V30 8946 H 875.946 -4.19119 -0.437873 0
M  V30 8947 H 874.621 -3.10082 -0.929029 0
M  V30 8948 H 873.528 -3.48661 1.35595 0
M  V30 8949 H 874.861 -4.59441 1.76565 0
M  V30 8950 N 876.513 -0.788492 -1.36457 0
M  V30 8951 C 877.743 -0.371825 -2.03227 0
M  V30 8952 C 878.151 1.01627 -1.59589 0
M  V30 8953 O 877.494 1.663 -0.780382 0
M  V30 8954 C 877.556 -0.355179 -3.57741 0
M  V30 8955 C 877.22 -1.69069 -4.24576 0
M  V30 8956 C 878.217 -2.64601 -4.47529 0
M  V30 8957 C 875.902 -1.96973 -4.62068 0
M  V30 8958 C 877.896 -3.86232 -5.07054 0
M  V30 8959 C 875.583 -3.18872 -5.2131 0
M  V30 8960 C 876.581 -4.1332 -5.43742 0
M  V30 8961 O 876.269 -5.3307 -6.0174 0
M  V30 8962 H 876.001 -0.151452 -0.658816 0
M  V30 8963 H 878.555 -1.06827 -1.75434 0
M  V30 8964 H 876.785 0.397753 -3.84649 0
M  V30 8965 H 878.474 0.0366955 -4.05883 0
M  V30 8966 H 879.24 -2.44329 -4.18961 0
M  V30 8967 H 875.119 -1.24277 -4.43933 0
M  V30 8968 H 878.663 -4.59965 -5.24478 0
M  V30 8969 H 874.56 -3.39022 -5.49304 0
M  V30 8970 H 875.328 -5.34121 -6.20207 0
M  V30 8971 N 877.991 1.48044 -0.54043 0
M  V30 8972 C 878.939 2.31461 0.229862 0
M  V30 8973 C 879.933 1.41884 0.925495 0
M  V30 8974 O 881.139 1.58736 0.848689 0
M  V30 8975 H 877.514 0.746227 0.0929975 0
M  V30 8976 H 879.485 2.94297 -0.493118 0
M  V30 8977 C 878.234 3.24172 1.25729 0
M  V30 8978 H 877.557 3.93052 0.731426 0
M  V30 8979 H 878.997 3.85404 1.76747 0
M  V30 8980 C 877.456 2.4651 2.2964 0
M  V30 8981 O 877.986 2.19742 3.36268 0
M  V30 8982 N 876.192 2.07817 2.03127 0
M  V30 8983 H 875.739 2.29786 1.1643 0
M  V30 8984 H 875.697 1.56168 2.72872 0
M  V30 8985 N 879.47 0.276058 1.55163 0
M  V30 8986 C 880.7 -0.343274 2.03728 0
M  V30 8987 C 881.108 -1.49945 1.15383 0
M  V30 8988 O 880.451 -1.82942 0.166696 0
M  V30 8989 C 880.513 -0.885683 3.48419 0
M  V30 8990 C 880.177 0.141976 4.56779 0
M  V30 8991 C 881.174 0.961816 5.10926 0
M  V30 8992 C 878.859 0.276487 5.01538 0
M  V30 8993 C 880.853 1.90234 6.0835 0
M  V30 8994 C 878.54 1.22049 5.98788 0
M  V30 8995 C 879.538 2.03192 6.52075 0
M  V30 8996 O 879.226 2.95996 7.47423 0
M  V30 8997 H 878.958 -0.0822192 0.670981 0
M  V30 8998 H 881.512 0.406199 2.01343 0
M  V30 8999 H 879.742 -1.68524 3.48047 0
M  V30 9000 H 881.431 -1.4182 3.80318 0
M  V30 9001 H 882.197 0.868637 4.77158 0
M  V30 9002 H 878.076 -0.345095 4.59707 0
M  V30 9003 H 881.62 2.5361 6.49867 0
M  V30 9004 H 877.517 1.31448 6.31974 0
M  V30 9005 H 878.285 2.90688 7.65142 0
M  V30 9006 N 880.948 -1.576 0.00335426 0
M  V30 9007 C 881.878 -2.11668 -0.985839 0
M  V30 9008 C 882.859 -1.02661 -1.35627 0
M  V30 9009 O 884.044 -1.30361 -1.43943 0
M  V30 9010 C 881.174 -2.62273 -2.27662 0
M  V30 9011 C 880.128 -3.75837 -2.0477 0
M  V30 9012 C 879.454 -4.12769 -3.39891 0
M  V30 9013 C 880.754 -5.02975 -1.40759 0
M  V30 9014 H 882.448 -2.9457 -0.535637 0
M  V30 9015 H 879.994 -1.41702 -0.256204 0
M  V30 9016 H 881.947 -2.98727 -2.97221 0
M  V30 9017 H 880.671 -1.76498 -2.74802 0
M  V30 9018 H 879.33 -3.39782 -1.37636 0
M  V30 9019 H 878.978 -3.24013 -3.8474 0
M  V30 9020 H 878.678 -4.89281 -3.25389 0
M  V30 9021 H 880.202 -4.51784 -4.1076 0
M  V30 9022 H 881.616 -5.37179 -2.00279 0
M  V30 9023 H 880.013 -5.84315 -1.36734 0
M  V30 9024 H 881.083 -4.83431 -0.377218 0
M  V30 9025 N 882.426 0.269451 -1.5528 0
M  V30 9026 C 883.656 1.01724 -1.79821 0
M  V30 9027 C 884.064 1.80298 -0.573532 0
M  V30 9028 O 883.407 1.77666 0.466963 0
M  V30 9029 C 883.469 2.02043 -2.97353 0
M  V30 9030 C 883.133 1.42375 -4.34256 0
M  V30 9031 C 884.13 0.837611 -5.13108 0
M  V30 9032 C 881.815 1.44988 -4.8092 0
M  V30 9033 C 883.809 0.285557 -6.3676 0
M  V30 9034 C 881.496 0.893969 -6.04526 0
M  V30 9035 C 882.494 0.312809 -6.82283 0
M  V30 9036 O 882.182 -0.234582 -8.03558 0
M  V30 9037 H 881.914 0.30604 -0.602757 0
M  V30 9038 H 884.468 0.30454 -2.0313 0
M  V30 9039 H 882.698 2.77082 -2.69745 0
M  V30 9040 H 884.387 2.6298 -3.09187 0
M  V30 9041 H 885.153 0.81009 -4.78187 0
M  V30 9042 H 881.032 1.89162 -4.20403 0
M  V30 9043 H 884.576 -0.168696 -6.97396 0
M  V30 9044 H 880.473 0.918742 -6.38928 0
M  V30 9045 H 881.241 -0.124282 -8.18406 0
M  V30 9046 N 883.904 1.48273 0.534124 0
M  V30 9047 C 884.834 1.6538 1.64839 0
M  V30 9048 C 885.815 0.502741 1.62501 0
M  V30 9049 O 887 0.734799 1.79762 0
M  V30 9050 C 884.13 1.68949 3.03436 0
M  V30 9051 C 883.084 2.83513 3.20631 0
M  V30 9052 C 882.41 2.72169 4.60248 0
M  V30 9053 C 883.71 4.24858 3.03797 0
M  V30 9054 H 885.404 2.58663 1.50777 0
M  V30 9055 H 882.95 1.24479 0.723937 0
M  V30 9056 H 884.903 1.79505 3.81256 0
M  V30 9057 H 883.627 0.722415 3.1851 0
M  V30 9058 H 882.286 2.72505 2.45227 0
M  V30 9059 H 881.934 1.7344 4.72152 0
M  V30 9060 H 881.634 3.49042 4.72698 0
M  V30 9061 H 883.158 2.84687 5.40172 0
M  V30 9062 H 884.572 4.36721 3.71413 0
M  V30 9063 H 882.969 5.02697 3.27743 0
M  V30 9064 H 884.039 4.41611 2.0027 0
M  V30 9065 N 885.382 -0.782676 1.36792 0
M  V30 9066 C 886.312 -1.90973 1.34356 0
M  V30 9067 C 887.293 -1.6875 0.213917 0
M  V30 9068 O 888.478 -1.89766 0.412601 0
M  V30 9069 C 885.608 -3.28097 1.13884 0
M  V30 9070 C 884.562 -3.6486 2.23744 0
M  V30 9071 C 883.888 -5.00406 1.88408 0
M  V30 9072 C 885.188 -3.72742 3.6587 0
M  V30 9073 H 886.882 -1.93268 2.28665 0
M  V30 9074 H 884.428 -0.928447 1.10072 0
M  V30 9075 H 886.381 -4.06569 1.10813 0
M  V30 9076 H 885.105 -3.26206 0.160275 0
M  V30 9077 H 883.764 -2.88689 2.25952 0
M  V30 9078 H 883.412 -4.95044 0.891083 0
M  V30 9079 H 883.112 -5.25973 2.61966 0
M  V30 9080 H 884.636 -5.81291 1.86905 0
M  V30 9081 H 886.05 -4.4139 3.65852 0
M  V30 9082 H 884.447 -4.09798 4.38389 0
M  V30 9083 H 885.517 -2.73676 4.00287 0
M  V30 9084 N 886.86 -1.21182 -1.00761 0
M  V30 9085 C 888.271 -1.02652 -1.55947 0
M  V30 9086 C 888.622 0.414466 -1.91772 0
M  V30 9087 O 887.747 1.29727 -1.73204 0
M  V30 9088 C 888.342 -1.85713 -2.83366 0
M  V30 9089 C 886.901 -1.71523 -3.35048 0
M  V30 9090 C 886.048 -1.83087 -2.08265 0
M  V30 9091 H 888.999 -1.35242 -0.830379 0
M  V30 9092 H 889.02 -1.36583 -3.55141 0
M  V30 9093 H 888.532 -2.90584 -2.5726 0
M  V30 9094 H 886.633 -0.693257 -3.66094 0
M  V30 9095 H 886.746 -2.53333 -4.06644 0
M  V30 9096 H 885.11 -1.26367 -2.21141 0
M  V30 9097 H 885.893 -2.8946 -1.84575 0
M  V30 9098 N 888.338 1.20213 -1.01915 0
M  V30 9099 C 889.301 2.21307 -0.596327 0
M  V30 9100 C 890.301 1.57274 0.334879 0
M  V30 9101 O 891.491 1.73764 0.12322 0
M  V30 9102 C 888.623 3.40657 0.128808 0
M  V30 9103 H 889.816 2.60228 -1.49068 0
M  V30 9104 H 887.369 1.33721 -0.809226 0
M  V30 9105 H 888.104 3.07241 1.03796 0
M  V30 9106 H 887.889 3.88361 -0.540183 0
M  V30 9107 H 889.379 4.15564 0.411892 0
M  V30 9108 N 889.816 0.795718 1.36037 0
M  V30 9109 C 891.064 0.370291 1.98679 0
M  V30 9110 C 891.385 -1.06332 1.63458 0
M  V30 9111 O 890.655 -1.73394 0.911671 0
M  V30 9112 H 889.235 0.133928 0.734896 0
M  V30 9113 H 891.897 1.01915 1.6613 0
M  V30 9114 H 890.993 0.467207 3.08583 0
M  V30 9115 N 891.294 -1.47756 0.548274 0
M  V30 9116 C 892.522 -2.06884 0.0254873 0
M  V30 9117 C 892.937 -1.40225 -1.26422 0
M  V30 9118 O 892.294 -0.495776 -1.75637 0
M  V30 9119 C 892.345 -3.61036 -0.183134 0
M  V30 9120 O 892.066 -4.25195 1.05549 0
M  V30 9121 C 893.567 -4.37008 -0.744222 0
M  V30 9122 H 890.787 -0.669697 0.041789 0
M  V30 9123 H 893.331 -1.89888 0.759138 0
M  V30 9124 H 891.486 -3.77576 -0.866886 0
M  V30 9125 H 891.9 -5.17606 0.847629 0
M  V30 9126 H 893.374 -5.45579 -0.839529 0
M  V30 9127 H 893.851 -4.0268 -1.75344 0
M  V30 9128 H 894.457 -4.25191 -0.0964542 0
M  V30 9129 N 892.772 -0.284283 -1.55015 0
M  V30 9130 C 894.019 0.329864 -1.99795 0
M  V30 9131 C 894.347 1.55171 -1.1727 0
M  V30 9132 O 893.602 1.94312 -0.232667 0
M  V30 9133 C 893.901 0.747219 -3.49502 0
M  V30 9134 C 893.567 -0.37101 -4.49371 0
M  V30 9135 C 892.229 -0.678034 -4.76399 0
M  V30 9136 C 894.581 -1.12406 -5.08935 0
M  V30 9137 C 891.909 -1.74152 -5.60257 0
M  V30 9138 C 894.261 -2.17734 -5.93948 0
M  V30 9139 C 892.925 -2.49061 -6.19294 0
M  V30 9140 H 892.195 0.120706 -0.731103 0
M  V30 9141 H 894.842 -0.399904 -1.87278 0
M  V30 9142 H 893.147 1.55681 -3.59542 0
M  V30 9143 H 894.844 1.2333 -3.81563 0
M  V30 9144 H 891.434 -0.1216 -4.28427 0
M  V30 9145 H 895.618 -0.900119 -4.88069 0
M  V30 9146 H 890.874 -1.98915 -5.78137 0
M  V30 9147 H 895.048 -2.76553 -6.39133 0
M  V30 9148 H 892.675 -3.31602 -6.84064 0
M  V30 9149 N 894.251 1.57596 -0.0117121 0
M  V30 9150 C 895.497 1.91355 0.671661 0
M  V30 9151 C 895.83 0.886818 1.72769 0
M  V30 9152 O 895.105 -0.0928813 1.94278 0
M  V30 9153 C 895.388 3.35657 1.30409 0
M  V30 9154 C 895.241 4.49055 0.2588 0
M  V30 9155 C 896.56 3.79595 2.22701 0
M  V30 9156 H 893.679 0.695893 0.242698 0
M  V30 9157 H 896.321 1.89887 -0.0654071 0
M  V30 9158 H 894.471 3.37038 1.9323 0
M  V30 9159 H 896.143 4.59809 -0.370631 0
M  V30 9160 H 894.386 4.31785 -0.417672 0
M  V30 9161 H 895.057 5.4701 0.740578 0
M  V30 9162 H 897.533 3.7984 1.69885 0
M  V30 9163 H 896.409 4.81292 2.63912 0
M  V30 9164 H 896.67 3.14118 3.11098 0
M  V30 9165 N 895.729 -0.261212 1.5542 0
M  V30 9166 C 896.977 -0.989272 1.76232 0
M  V30 9167 C 897.298 -1.86389 0.573067 0
M  V30 9168 O 896.568 -1.91526 -0.41166 0
M  V30 9169 H 895.148 -0.368256 0.64992 0
M  V30 9170 H 897.81 -0.282603 1.9284 0
M  V30 9171 H 896.906 -1.61935 2.66802 0
M  V30 9172 N 897.207 -1.48554 -0.526253 0
M  V30 9173 C 898.455 -1.56452 -1.27935 0
M  V30 9174 C 898.776 -0.24184 -1.93495 0
M  V30 9175 O 898.046 0.736917 -1.81511 0
M  V30 9176 H 896.626 -0.576379 -0.47518 0
M  V30 9177 H 899.288 -1.85039 -0.612083 0
M  V30 9178 H 898.384 -2.34751 -2.05666 0
M  V30 9179 N 898.685 0.775411 -1.37205 0
M  V30 9180 C 899.915 1.56219 -1.352 0
M  V30 9181 C 900.323 1.89087 0.065456 0
M  V30 9182 O 899.666 1.51655 1.03665 0
M  V30 9183 C 899.728 2.9019 -2.12203 0
M  V30 9184 C 899.392 2.79978 -3.61195 0
M  V30 9185 C 900.389 2.51258 -4.55154 0
M  V30 9186 C 898.074 2.98115 -4.04268 0
M  V30 9187 C 900.068 2.40798 -5.90165 0
M  V30 9188 C 897.755 2.87276 -5.39366 0
M  V30 9189 C 898.753 2.58657 -6.32128 0
M  V30 9190 O 898.441 2.47838 -7.64743 0
M  V30 9191 H 898.173 0.490735 -0.464925 0
M  V30 9192 H 900.727 0.969201 -1.81096 0
M  V30 9193 H 898.957 3.51594 -1.60992 0
M  V30 9194 H 900.646 3.51561 -2.02879 0
M  V30 9195 H 901.412 2.36935 -4.23186 0
M  V30 9196 H 897.291 3.19392 -3.3243 0
M  V30 9197 H 900.835 2.18381 -6.62537 0
M  V30 9198 H 896.732 3.01166 -5.70937 0
M  V30 9199 H 897.5 2.63215 -7.75023 0
M  V30 9200 N 900.163 1.21714 1.00117 0
M  V30 9201 C 901.093 1.00397 2.10815 0
M  V30 9202 C 902.074 -0.0723502 1.69946 0
M  V30 9203 O 903.259 0.0882398 1.93999 0
M  V30 9204 C 900.389 0.572001 3.42557 0
M  V30 9205 C 899.343 1.59331 3.97237 0
M  V30 9206 C 898.669 1.01746 5.2493 0
M  V30 9207 C 899.969 2.98117 4.28863 0
M  V30 9208 H 901.663 1.92983 2.28906 0
M  V30 9209 H 899.209 0.929273 1.10002 0
M  V30 9210 H 901.162 0.410018 4.19401 0
M  V30 9211 H 899.886 -0.38951 3.24269 0
M  V30 9212 H 898.545 1.74293 3.22518 0
M  V30 9213 H 898.193 0.0475491 5.02978 0
M  V30 9214 H 897.893 1.69969 5.62481 0
M  V30 9215 H 899.417 0.866881 6.04415 0
M  V30 9216 H 900.831 2.86578 4.96534 0
M  V30 9217 H 899.228 3.63389 4.77565 0
M  V30 9218 H 900.298 3.48674 3.36979 0
M  V30 9219 N 901.641 -1.19671 1.02551 0
M  V30 9220 C 902.604 -2.20987 0.608055 0
M  V30 9221 C 903.604 -1.5745 -0.326534 0
M  V30 9222 O 904.794 -1.73827 -0.114003 0
M  V30 9223 C 901.926 -3.4072 -0.11074 0
M  V30 9224 H 903.119 -2.59434 1.50446 0
M  V30 9225 H 900.672 -1.3329 0.816307 0
M  V30 9226 H 901.407 -3.07787 -1.02165 0
M  V30 9227 H 901.192 -3.88069 0.560772 0
M  V30 9228 H 902.682 -4.15776 -0.389848 0
M  V30 9229 N 903.119 -0.802921 -1.35613 0
M  V30 9230 C 904.082 -0.216422 -2.28176 0
M  V30 9231 C 905.082 0.594101 -1.49422 0
M  V30 9232 O 906.272 0.41312 -1.6923 0
M  V30 9233 C 903.404 0.698746 -3.33662 0
M  V30 9234 H 904.597 -1.03276 -2.81557 0
M  V30 9235 H 902.15 -0.573307 -1.45406 0
M  V30 9236 H 902.885 1.53891 -2.85461 0
M  V30 9237 H 902.67 0.119314 -3.91918 0
M  V30 9238 H 904.16 1.10354 -4.02755 0
M  V30 9239 N 904.597 1.47463 -0.556102 0
M  V30 9240 C 905.527 2.32801 0.180497 0
M  V30 9241 C 906.508 1.43721 0.909848 0
M  V30 9242 O 907.693 1.72578 0.89053 0
M  V30 9243 C 904.823 3.25478 1.21167 0
M  V30 9244 C 903.777 4.2379 0.598846 0
M  V30 9245 C 903.103 5.05783 1.73457 0
M  V30 9246 C 904.403 5.20387 -0.446659 0
M  V30 9247 H 906.097 2.94636 -0.531956 0
M  V30 9248 H 903.643 1.41683 -0.257267 0
M  V30 9249 H 905.596 3.8402 1.73513 0
M  V30 9250 H 904.32 2.61695 1.95405 0
M  V30 9251 H 902.979 3.66472 0.0966897 0
M  V30 9252 H 902.627 4.38405 2.46596 0
M  V30 9253 H 902.327 5.72343 1.33031 0
M  V30 9254 H 903.851 5.67183 2.26131 0
M  V30 9255 H 905.265 5.73299 -0.00930019 0
M  V30 9256 H 903.662 5.95143 -0.769735 0
M  V30 9257 H 904.732 4.65932 -1.34295 0
M  V30 9258 N 906.075 0.2925 1.54862 0
M  V30 9259 C 907.305 -0.321646 2.04081 0
M  V30 9260 C 907.713 -1.48712 1.16967 0
M  V30 9261 O 907.056 -1.82755 0.18609 0
M  V30 9262 C 907.118 -0.848678 3.49339 0
M  V30 9263 C 906.782 0.190416 4.56603 0
M  V30 9264 C 907.779 1.01595 5.09877 0
M  V30 9265 C 905.464 0.329666 5.01217 0
M  V30 9266 C 907.458 1.96676 6.06298 0
M  V30 9267 C 905.145 1.28393 5.9746 0
M  V30 9268 C 906.143 2.10097 6.49883 0
M  V30 9269 O 905.831 3.03907 7.44242 0
M  V30 9270 H 905.563 -0.075098 0.671816 0
M  V30 9271 H 908.117 0.427531 2.00901 0
M  V30 9272 H 906.347 -1.64823 3.49815 0
M  V30 9273 H 908.036 -1.37779 3.81801 0
M  V30 9274 H 908.802 0.919197 4.7621 0
M  V30 9275 H 904.681 -0.296317 4.60047 0
M  V30 9276 H 908.225 2.60488 6.47141 0
M  V30 9277 H 904.122 1.38144 6.30545 0
M  V30 9278 H 904.89 2.98787 7.62016 0
M  V30 9279 N 907.553 -1.57587 0.0200696 0
M  V30 9280 C 908.778 -1.96124 -0.674547 0
M  V30 9281 C 909.203 -0.896068 -1.65385 0
M  V30 9282 O 908.561 0.143925 -1.80728 0
M  V30 9283 C 908.609 -3.3376 -1.36517 0
M  V30 9284 O 907.713 -3.29483 -2.48022 0
M  V30 9285 H 907.054 -0.639719 -0.177919 0
M  V30 9286 H 909.584 -2.04447 0.0792317 0
M  V30 9287 H 909.594 -3.69785 -1.72403 0
M  V30 9288 H 908.269 -4.10832 -0.647265 0
M  V30 9289 H 906.846 -3.05162 -2.14314 0
M  V30 9290 N 909.032 0.252966 -1.55557 0
M  V30 9291 C 910.28 0.979912 -1.76754 0
M  V30 9292 C 910.601 1.86083 -0.582944 0
M  V30 9293 O 909.871 1.91742 0.401497 0
M  V30 9294 H 908.451 0.364805 -0.651864 0
M  V30 9295 H 911.113 0.272372 -1.92987 0
M  V30 9296 H 910.209 1.60518 -2.67657 0
M  V30 9297 N 910.51 1.48831 0.518367 0
M  V30 9298 C 911.74 1.60886 1.29612 0
M  V30 9299 C 912.148 0.272713 1.87224 0
M  V30 9300 O 911.491 -0.749653 1.67708 0
M  V30 9301 C 911.553 2.60541 2.47707 0
M  V30 9302 C 911.217 4.05324 2.11095 0
M  V30 9303 C 912.214 4.92658 1.66084 0
M  V30 9304 C 909.899 4.50942 2.21262 0
M  V30 9305 C 911.893 6.23641 1.3172 0
M  V30 9306 C 909.58 5.81943 1.8651 0
M  V30 9307 C 910.578 6.68116 1.41812 0
M  V30 9308 O 910.266 7.96677 1.07522 0
M  V30 9309 H 909.998 0.544968 0.399982 0
M  V30 9310 H 912.552 1.95474 0.630799 0
M  V30 9311 H 910.782 2.21098 3.17258 0
M  V30 9312 H 912.471 2.62308 3.09757 0
M  V30 9313 H 913.237 4.58649 1.5769 0
M  V30 9314 H 909.116 3.84048 2.55007 0
M  V30 9315 H 912.66 6.90857 0.967598 0
M  V30 9316 H 908.557 6.15484 1.94549 0
M  V30 9317 H 909.325 8.09534 1.2082 0
M  V30 9318 N 911.988 -0.768124 1.37614 0
M  V30 9319 C 912.936 -1.9029 1.33763 0
M  V30 9320 C 913.93 -1.67888 0.225814 0
M  V30 9321 O 915.136 -1.75634 0.394043 0
M  V30 9322 H 911.511 -0.625828 0.416945 0
M  V30 9323 H 913.482 -1.90654 2.29551 0
M  V30 9324 C 912.231 -3.27598 1.16511 0
M  V30 9325 H 911.554 -3.45414 2.01318 0
M  V30 9326 H 912.994 -4.07288 1.17867 0
M  V30 9327 C 911.453 -3.36653 -0.129001 0
M  V30 9328 O 911.983 -3.86023 -1.11128 0
M  V30 9329 N 910.189 -2.90036 -0.180926 0
M  V30 9330 H 909.736 -2.5005 0.619076 0
M  V30 9331 H 909.694 -2.96475 -1.04641 0
M  V30 9332 N 913.466 -1.22244 -0.994698 0
M  V30 9333 C 914.715 -1.04005 -1.72817 0
M  V30 9334 C 915.028 0.425413 -1.90918 0
M  V30 9335 O 916.234 0.727429 -2.61574 0
M  V30 9336 C 914.69 -1.81244 -3.10932 0
M  V30 9337 C 914.298 -3.32028 -3.00768 0
M  V30 9338 C 916.042 -1.71448 -3.88337 0
M  V30 9339 C 913.949 -4.01716 -4.34026 0
M  V30 9340 H 912.879 -0.385559 -0.647966 0
M  V30 9341 H 915.53 -1.46077 -1.11058 0
M  V30 9342 H 913.912 -1.3197 -3.73363 0
M  V30 9343 H 915.086 -3.88682 -2.47513 0
M  V30 9344 H 913.401 -3.4248 -2.36846 0
M  V30 9345 H 915.998 -2.20836 -4.86965 0
M  V30 9346 H 916.341 -0.674568 -4.10798 0
M  V30 9347 H 916.874 -2.18256 -3.3258 0
M  V30 9348 H 913.613 -5.05952 -4.16765 0
M  V30 9349 H 913.133 -3.49849 -4.87202 0
M  V30 9350 H 914.812 -4.0721 -5.02782 0
M  V30 9351 N 914.944 1.19125 -1.03184 0
M  V30 9352 C 915.854 2.26112 -0.625329 0
M  V30 9353 C 916.87 1.7056 0.344298 0
M  V30 9354 O 918.046 2.0039 0.20144 0
M  V30 9355 C 915.111 3.46697 0.0145169 0
M  V30 9356 C 914.172 4.17419 -1.00299 0
M  V30 9357 C 913.405 5.32247 -0.393581 0
M  V30 9358 O 913.628 5.64724 0.802659 0
M  V30 9359 O 912.562 5.91428 -1.1179 0
M  V30 9360 H 916.388 2.63131 -1.51643 0
M  V30 9361 H 913.973 1.26036 -0.802197 0
M  V30 9362 H 915.855 4.19762 0.371139 0
M  V30 9363 H 914.53 3.11521 0.879581 0
M  V30 9364 H 913.437 3.4646 -1.41125 0
M  V30 9365 H 914.77 4.56573 -1.83852 0
M  V30 9366 N 916.422 0.810101 1.35185 0
M  V30 9367 C 917.354 0.180581 2.28488 0
M  V30 9368 C 918.367 -0.622154 1.50443 0
M  V30 9369 O 919.556 -0.453938 1.72632 0
M  V30 9370 C 916.656 -0.766447 3.30119 0
M  V30 9371 C 915.829 -0.00932028 4.37399 0
M  V30 9372 C 914.888 -0.875354 5.18868 0
M  V30 9373 O 913.914 -0.325012 5.68271 0
M  V30 9374 N 915.116 -2.19695 5.37321 0
M  V30 9375 H 917.881 0.98212 2.83151 0
M  V30 9376 H 915.442 0.665879 1.47573 0
M  V30 9377 H 917.434 -1.35012 3.81515 0
M  V30 9378 H 916.004 -1.46878 2.75945 0
M  V30 9379 H 915.224 0.755585 3.86891 0
M  V30 9380 H 916.512 0.512352 5.06214 0
M  V30 9381 H 915.91 -2.66797 4.98834 0
M  V30 9382 H 914.467 -2.72978 5.91884 0
M  V30 9383 N 917.9 -1.47166 0.563914 0
M  V30 9384 C 919.149 -2.0166 0.0401871 0
M  V30 9385 C 919.462 -1.44303 -1.32046 0
M  V30 9386 O 920.668 -1.905 -1.93448 0
M  V30 9387 C 919.124 -3.59894 0.0213257 0
M  V30 9388 C 918.732 -4.26244 1.37914 0
M  V30 9389 C 920.476 -4.22114 -0.449442 0
M  V30 9390 C 918.383 -5.76503 1.31902 0
M  V30 9391 H 917.313 -0.753916 0.0112534 0
M  V30 9392 H 919.964 -1.69091 0.712766 0
M  V30 9393 H 918.346 -3.89454 -0.717038 0
M  V30 9394 H 919.52 -4.08317 2.13574 0
M  V30 9395 H 917.835 -3.76039 1.78839 0
M  V30 9396 H 920.432 -5.32234 -0.51292 0
M  V30 9397 H 920.775 -3.89749 -1.46291 0
M  V30 9398 H 921.308 -3.9711 0.23427 0
M  V30 9399 H 918.047 -6.13498 2.3087 0
M  V30 9400 H 917.567 -5.96748 0.604324 0
M  V30 9401 H 919.246 -6.38846 1.02392 0
M  V30 9402 N 919.378 -0.300708 -1.54705 0
M  V30 9403 C 920.311 0.617513 -2.19686 0
M  V30 9404 C 921.289 1.1331 -1.16617 0
M  V30 9405 O 922.473 1.20135 -1.45258 0
M  V30 9406 C 919.6 1.84486 -2.84047 0
M  V30 9407 C 918.646 1.46253 -4.0064 0
M  V30 9408 S 919.479 0.518718 -5.32982 0
M  V30 9409 C 920.635 1.75387 -6.00825 0
M  V30 9410 H 920.868 0.0654548 -2.97228 0
M  V30 9411 H 918.401 -0.0848492 -1.54167 0
M  V30 9412 H 920.359 2.54921 -3.21754 0
M  V30 9413 H 919.02 2.36808 -2.06351 0
M  V30 9414 H 918.213 2.37648 -4.44454 0
M  V30 9415 H 917.815 0.838129 -3.64488 0
M  V30 9416 H 920.107 2.69448 -6.21614 0
M  V30 9417 H 921.05 1.35829 -6.9495 0
M  V30 9418 H 921.458 1.93045 -5.30466 0
M  V30 9419 N 920.856 1.57574 -0.0284266 0
M  V30 9420 C 922.086 1.95787 0.659617 0
M  V30 9421 C 922.494 0.903475 1.66235 0
M  V30 9422 O 921.837 -0.12329 1.83286 0
M  V30 9423 C 921.899 3.30139 1.42298 0
M  V30 9424 C 921.563 4.53322 0.578658 0
M  V30 9425 C 922.56 5.19696 -0.145751 0
M  V30 9426 C 920.245 4.9964 0.516264 0
M  V30 9427 C 922.239 6.30708 -0.921235 0
M  V30 9428 C 919.926 6.10534 -0.262925 0
M  V30 9429 C 920.924 6.75927 -0.980382 0
M  V30 9430 O 920.612 7.84692 -1.7468 0
M  V30 9431 H 920.344 0.649681 0.186792 0
M  V30 9432 H 922.898 2.05227 -0.0842687 0
M  V30 9433 H 921.128 3.17188 2.21199 0
M  V30 9434 H 922.817 3.53259 1.99906 0
M  V30 9435 H 923.583 4.84882 -0.106876 0
M  V30 9436 H 919.462 4.48547 1.06427 0
M  V30 9437 H 923.006 6.81682 -1.48176 0
M  V30 9438 H 918.903 6.44786 -0.303519 0
M  V30 9439 H 919.671 8.01355 -1.6665 0
M  V30 9440 N 922.334 -0.244713 1.55689 0
M  V30 9441 C 923.264 -1.30667 1.93516 0
M  V30 9442 C 924.245 -1.50094 0.800371 0
M  V30 9443 O 925.43 -1.62665 1.06083 0
M  V30 9444 C 922.56 -2.66101 2.23176 0
M  V30 9445 C 921.514 -2.61366 3.38927 0
M  V30 9446 C 920.84 -4.00616 3.54134 0
M  V30 9447 C 922.14 -2.18161 4.74555 0
M  V30 9448 H 923.834 -0.992546 2.82469 0
M  V30 9449 H 921.38 -0.476018 1.35905 0
M  V30 9450 H 923.333 -3.4053 2.48228 0
M  V30 9451 H 922.057 -2.99154 1.31051 0
M  V30 9452 H 920.716 -1.89395 3.13887 0
M  V30 9453 H 920.364 -4.30938 2.59426 0
M  V30 9454 H 920.064 -3.98335 4.31975 0
M  V30 9455 H 921.588 -4.76741 3.8151 0
M  V30 9456 H 923.002 -2.82323 4.98965 0
M  V30 9457 H 921.399 -2.26988 5.55515 0
M  V30 9458 H 922.469 -1.13333 4.7147 0
M  V30 9459 N 923.813 -1.49104 -0.510467 0
M  V30 9460 C 925.061 -1.578 -1.26268 0
M  V30 9461 C 925.382 -0.262349 -1.93227 0
M  V30 9462 O 924.652 0.717624 -1.82283 0
M  V30 9463 H 923.232 -0.581387 -0.46904 0
M  V30 9464 H 925.894 -1.85678 -0.592423 0
M  V30 9465 H 924.99 -2.36919 -2.03165 0
M  V30 9466 N 925.291 0.760815 -1.38019 0
M  V30 9467 C 926.516 1.55513 -1.37224 0
M  V30 9468 C 926.941 1.88062 0.037611 0
M  V30 9469 O 926.299 1.50042 1.0177 0
M  V30 9470 C 926.347 2.83539 -2.22796 0
M  V30 9471 O 925.451 3.78384 -1.64009 0
M  V30 9472 H 924.792 0.470642 -0.468393 0
M  V30 9473 H 927.322 0.940792 -1.81687 0
M  V30 9474 H 927.332 3.32535 -2.36399 0
M  V30 9475 H 926.007 2.59178 -3.25269 0
M  V30 9476 H 924.584 3.37063 -1.59508 0
M  V30 9477 N 926.769 1.22769 0.988202 0
M  V30 9478 C 928.017 1.05301 1.725 0
M  V30 9479 C 928.338 -0.412103 1.90596 0
M  V30 9480 O 927.608 -1.29606 1.46898 0
M  V30 9481 H 926.188 0.386658 0.639144 0
M  V30 9482 H 928.85 1.54359 1.18993 0
M  V30 9483 H 927.946 1.53465 2.71763 0
M  V30 9484 N 928.247 -1.18576 1.03814 0
M  V30 9485 C 929.177 -2.24334 0.647795 0
M  V30 9486 C 930.158 -1.66508 -0.34774 0
M  V30 9487 O 931.343 -1.92852 -0.228401 0
M  V30 9488 C 928.473 -3.47299 0.00734922 0
M  V30 9489 C 927.427 -4.17859 0.926152 0
M  V30 9490 C 926.753 -5.34489 0.150317 0
M  V30 9491 C 928.053 -4.71632 2.24411 0
M  V30 9492 H 929.747 -2.57241 1.53191 0
M  V30 9493 H 927.293 -1.23649 0.738028 0
M  V30 9494 H 929.246 -4.20486 -0.277434 0
M  V30 9495 H 927.97 -3.13619 -0.911626 0
M  V30 9496 H 926.629 -3.46567 1.19528 0
M  V30 9497 H 926.277 -4.97056 -0.770985 0
M  V30 9498 H 925.977 -5.82633 0.762407 0
M  V30 9499 H 927.501 -6.10467 -0.127508 0
M  V30 9500 H 928.915 -5.36526 2.02021 0
M  V30 9501 H 927.312 -5.303 2.80894 0
M  V30 9502 H 928.382 -3.89192 2.89236 0
M  V30 9503 N 929.725 -0.817259 -1.34754 0
M  V30 9504 C 930.965 -0.408429 -2.00278 0
M  V30 9505 C 931.329 1.00818 -1.634 0
M  V30 9506 O 932.53 1.51959 -2.21725 0
M  V30 9507 C 930.801 -0.598219 -3.52358 0
M  V30 9508 S 932.36 -0.281395 -4.37897 0
M  V30 9509 H 929.178 -0.154587 -0.693991 0
M  V30 9510 H 931.78 -1.06184 -1.6415 0
M  V30 9511 H 930.484 -1.62901 -3.76685 0
M  V30 9512 H 930.015 0.0701299 -3.93337 0
M  V30 9513 H 932.03 0.907024 -4.8784 0
M  V30 9514 N 931.203 1.46865 -0.571711 0
M  V30 9515 C 932.443 2.04324 -0.0556487 0
M  V30 9516 C 932.807 1.43486 1.27576 0
M  V30 9517 O 934.008 1.92079 1.8804 0
M  V30 9518 C 932.279 3.57394 0.0206263 0
M  V30 9519 S 933.838 4.36159 0.480709 0
M  V30 9520 H 930.656 0.710273 -0.0321467 0
M  V30 9521 H 933.258 1.8005 -0.761725 0
M  V30 9522 H 931.962 3.99193 -0.952509 0
M  V30 9523 H 931.493 3.86188 0.749812 0
M  V30 9524 H 933.508 4.6478 1.73763 0
M  V30 9525 N 932.681 0.308908 1.54543 0
M  V30 9526 C 933.927 -0.298478 2.00592 0
M  V30 9527 C 934.26 -1.52929 1.19692 0
M  V30 9528 O 933.535 -1.9254 0.27542 0
M  V30 9529 C 933.818 -0.647218 3.54236 0
M  V30 9530 C 933.671 0.593284 4.4587 0
M  V30 9531 C 934.99 -1.47064 4.14801 0
M  V30 9532 H 932.109 -0.107012 0.72919 0
M  V30 9533 H 934.751 0.422578 1.85241 0
M  V30 9534 H 932.901 -1.26153 3.67447 0
M  V30 9535 H 934.573 1.2317 4.44552 0
M  V30 9536 H 932.816 1.22501 4.16144 0
M  V30 9537 H 933.487 0.305018 5.51157 0
M  V30 9538 H 935.963 -0.951511 4.05075 0
M  V30 9539 H 934.839 -1.68343 5.22448 0
M  V30 9540 H 935.1 -2.4623 3.67183 0
M  V30 9541 N 934.159 -1.57557 0.0367827 0
M  V30 9542 C 935.407 -1.91735 -0.63892 0
M  V30 9543 C 935.728 -0.914515 -1.72226 0
M  V30 9544 O 934.998 0.0428248 -1.95853 0
M  V30 9545 H 933.578 -0.707738 -0.23899 0
M  V30 9546 H 936.24 -1.94708 0.0863931 0
M  V30 9547 H 935.336 -2.92568 -1.08676 0
M  V30 9548 N 935.637 0.236453 -1.55816 0
M  V30 9549 C 936.6 1.27633 -1.90375 0
M  V30 9550 C 937.6 1.40557 -0.781048 0
M  V30 9551 O 938.79 1.39078 -1.04895 0
M  V30 9552 C 935.922 2.65247 -2.14142 0
M  V30 9553 H 937.115 0.982019 -2.83366 0
M  V30 9554 H 934.668 0.476215 -1.48869 0
M  V30 9555 H 935.403 2.99801 -1.23653 0
M  V30 9556 H 935.188 2.57246 -2.95917 0
M  V30 9557 H 936.678 3.40313 -2.42026 0
M  V30 9558 N 937.115 1.49373 0.502552 0
M  V30 9559 C 938.045 1.68839 1.61294 0
M  V30 9560 C 939.026 0.537096 1.61398 0
M  V30 9561 O 940.211 0.772764 1.78163 0
M  V30 9562 C 937.341 1.75347 2.99784 0
M  V30 9563 C 936.295 2.90251 3.14545 0
M  V30 9564 C 935.621 2.8187 4.54371 0
M  V30 9565 C 936.921 4.31207 2.94717 0
M  V30 9566 H 938.615 2.61803 1.45257 0
M  V30 9567 H 936.161 1.25987 0.697371 0
M  V30 9568 H 938.114 1.87552 3.77362 0
M  V30 9569 H 936.838 0.789814 3.16906 0
M  V30 9570 H 935.497 2.77646 2.39392 0
M  V30 9571 H 935.145 1.83416 4.68367 0
M  V30 9572 H 934.845 3.5899 4.65188 0
M  V30 9573 H 936.369 2.96081 5.34012 0
M  V30 9574 H 937.783 4.44501 3.62065 0
M  V30 9575 H 936.18 5.09536 3.17007 0
M  V30 9576 H 937.25 4.45759 1.90857 0
M  V30 9577 N 938.594 -0.753485 1.38421 0
M  V30 9578 C 939.557 -1.84888 1.35459 0
M  V30 9579 C 940.557 -1.58764 0.255083 0
M  V30 9580 O 941.747 -1.66507 0.511978 0
M  V30 9581 C 938.879 -3.22361 1.10888 0
M  V30 9582 H 940.072 -1.88922 2.32913 0
M  V30 9583 H 937.625 -0.955199 1.23716 0
M  V30 9584 H 938.36 -3.23996 0.1404 0
M  V30 9585 H 938.145 -3.42717 1.90492 0
M  V30 9586 H 939.635 -4.02437 1.1151 0
M  V30 9587 N 940.072 -1.23292 -0.981677 0
M  V30 9588 C 941.32 -1.06214 -1.71939 0
M  V30 9589 C 941.641 0.401989 -1.90812 0
M  V30 9590 O 940.911 1.28825 -1.47584 0
M  V30 9591 H 939.491 -0.390042 -0.637084 0
M  V30 9592 H 942.153 -1.54988 -1.18173 0
M  V30 9593 H 941.249 -1.54904 -2.70945 0
M  V30 9594 N 941.55 1.18024 -1.04442 0
M  V30 9595 C 942.48 2.23988 -0.659683 0
M  V30 9596 C 943.461 1.6669 0.338904 0
M  V30 9597 O 944.646 1.92971 0.21817 0
M  V30 9598 C 941.776 3.4729 -0.0257672 0
M  V30 9599 C 940.73 4.17362 -0.948299 0
M  V30 9600 C 940.056 5.34401 -0.17866 0
M  V30 9601 C 941.356 4.70435 -2.26909 0
M  V30 9602 H 943.05 2.56425 -1.54553 0
M  V30 9603 H 940.596 1.23256 -0.744575 0
M  V30 9604 H 942.549 4.20627 0.255131 0
M  V30 9605 H 941.273 3.14098 0.894981 0
M  V30 9606 H 939.932 3.45928 -1.21364 0
M  V30 9607 H 939.58 4.97458 0.744614 0
M  V30 9608 H 939.28 5.8222 -0.793294 0
M  V30 9609 H 940.804 6.10526 0.0951315 0
M  V30 9610 H 942.218 5.35447 -2.04864 0
M  V30 9611 H 940.615 5.28803 -2.83703 0
M  V30 9612 H 941.685 3.87653 -2.91296 0
M  V30 9613 N 943.028 0.824394 1.34319 0
M  V30 9614 C 944.253 0.425194 2.02995 0
M  V30 9615 C 944.678 -0.961476 1.6167 0
M  V30 9616 O 944.036 -1.62593 0.80207 0
M  V30 9617 C 944.084 0.537004 3.56579 0
M  V30 9618 O 943.188 -0.442576 4.10018 0
M  V30 9619 H 942.529 0.174853 0.640564 0
M  V30 9620 H 945.059 1.11522 1.71534 0
M  V30 9621 H 945.069 0.413311 4.05901 0
M  V30 9622 H 943.744 1.54836 3.86004 0
M  V30 9623 H 942.321 -0.277644 3.71865 0
M  V30 9624 N 944.506 -1.46559 0.579492 0
M  V30 9625 C 945.734 -2.06784 0.0693648 0
M  V30 9626 C 946.149 -1.42875 -1.23419 0
M  V30 9627 O 945.506 -0.532919 -1.74546 0
M  V30 9628 C 945.557 -3.61343 -0.106511 0
M  V30 9629 O 945.278 -4.22861 1.14545 0
M  V30 9630 C 946.779 -4.38489 -0.651359 0
M  V30 9631 H 943.999 -0.66866 0.0559848 0
M  V30 9632 H 946.543 -1.88235 0.799245 0
M  V30 9633 H 944.698 -3.7933 -0.786601 0
M  V30 9634 H 945.112 -5.15691 0.95723 0
M  V30 9635 H 946.586 -5.47237 -0.723615 0
M  V30 9636 H 947.063 -4.06309 -1.66763 0
M  V30 9637 H 947.669 -4.253 -0.0062433 0
M  V30 9638 N 945.984 -0.3171 -1.54377 0
M  V30 9639 C 946.916 0.58571 -2.2159 0
M  V30 9640 C 947.929 1.08495 -1.21378 0
M  V30 9641 O 949.118 0.999638 -1.47883 0
M  V30 9642 C 946.218 1.8157 -2.86156 0
M  V30 9643 C 945.391 1.45625 -4.12447 0
M  V30 9644 C 944.45 2.54308 -4.60667 0
M  V30 9645 O 943.476 2.18724 -5.25498 0
M  V30 9646 N 944.678 3.85129 -4.34345 0
M  V30 9647 H 947.443 0.0102247 -2.99698 0
M  V30 9648 H 945.004 -0.140011 -1.61293 0
M  V30 9649 H 946.996 2.53657 -3.15341 0
M  V30 9650 H 945.566 2.29919 -2.11793 0
M  V30 9651 H 944.786 0.567294 -3.90097 0
M  V30 9652 H 946.074 1.19169 -4.94648 0
M  V30 9653 H 945.472 4.16841 -3.8244 0
M  V30 9654 H 944.029 4.53466 -4.68201 0
M  V30 9655 N 947.462 1.57535 -0.0451378 0
M  V30 9656 C 948.71 1.92071 0.628743 0
M  V30 9657 C 949.031 0.923635 1.71738 0
M  V30 9658 O 948.301 -0.0324376 1.95873 0
M  V30 9659 H 946.881 0.708995 0.235233 0
M  V30 9660 H 949.543 1.9466 -0.0967177 0
M  V30 9661 H 948.639 2.9314 1.07123 0
M  V30 9662 N 948.94 -0.228186 1.55939 0
M  V30 9663 C 950.168 -0.970618 1.8272 0
M  V30 9664 C 950.583 -1.78212 0.623385 0
M  V30 9665 O 949.94 -1.77879 -0.408063 0
M  V30 9666 C 949.991 -1.89352 3.07942 0
M  V30 9667 O 949.712 -1.11483 4.23678 0
M  V30 9668 C 951.213 -2.75039 3.47661 0
M  V30 9669 H 948.433 -0.284772 0.607574 0
M  V30 9670 H 950.977 -0.245419 2.03022 0
M  V30 9671 H 949.132 -2.57275 2.89635 0
M  V30 9672 H 949.546 -1.74073 4.94772 0
M  V30 9673 H 951.02 -3.35511 4.38334 0
M  V30 9674 H 951.497 -3.471 2.69106 0
M  V30 9675 H 952.103 -2.1254 3.68384 0
M  V30 9676 N 950.418 -1.49637 -0.494624 0
M  V30 9677 C 951.381 -1.66252 -1.57775 0
M  V30 9678 C 952.381 -0.534054 -1.51672 0
M  V30 9679 O 953.571 -0.800637 -1.54711 0
M  V30 9680 C 950.703 -1.66584 -2.97426 0
M  V30 9681 H 951.896 -2.62864 -1.4437 0
M  V30 9682 H 949.449 -1.38764 -0.719323 0
M  V30 9683 H 950.184 -0.715798 -3.16302 0
M  V30 9684 H 949.969 -2.48543 -3.03264 0
M  V30 9685 H 951.459 -1.81474 -3.76108 0
M  V30 9686 N 951.896 0.746133 -1.38819 0
M  V30 9687 C 953.312 1.0502 -1.20179 0
M  V30 9688 C 953.512 2.01423 -0.0556271 0
M  V30 9689 O 952.568 2.45359 0.59625 0
M  V30 9690 C 953.881 1.62315 -2.53129 0
M  V30 9691 C 955.429 1.74449 -2.59878 0
M  V30 9692 C 955.904 2.35155 -3.93022 0
M  V30 9693 N 957.395 2.42577 -3.94602 0
M  V30 9694 C 958.13 2.9046 -4.94389 0
M  V30 9695 N 957.626 3.38322 -6.04574 0
M  V30 9696 N 959.419 2.89568 -4.81775 0
M  V30 9697 H 951.57 0.106551 -2.12133 0
M  V30 9698 H 953.833 0.109897 -0.941609 0
M  V30 9699 H 953.539 0.98946 -3.37495 0
M  V30 9700 H 953.413 2.61276 -2.72057 0
M  V30 9701 H 955.8 2.36943 -1.75903 0
M  V30 9702 H 955.881 0.741721 -2.4481 0
M  V30 9703 H 955.525 1.73292 -4.77422 0
M  V30 9704 H 955.455 3.36088 -4.05404 0
M  V30 9705 H 957.946 2.08735 -3.15021 0
M  V30 9706 H 958.259 3.73336 -6.76639 0
M  V30 9707 H 956.604 3.3636 -6.08184 0
M  V30 9708 H 959.795 2.51492 -3.94803 0
M  V30 9709 H 959.968 3.26571 -5.59692 0
M  V30 9710 N 953.375 1.23811 0.975125 0
M  V30 9711 C 954.305 1.04846 2.08638 0
M  V30 9712 C 955.286 -0.0362859 1.70061 0
M  V30 9713 O 956.471 0.12937 1.93769 0
M  V30 9714 C 953.601 0.644534 3.41267 0
M  V30 9715 C 952.555 1.67722 3.93768 0
M  V30 9716 C 951.881 1.12857 5.22654 0
M  V30 9717 C 953.181 3.07147 4.22443 0
M  V30 9718 H 954.875 1.97795 2.24761 0
M  V30 9719 H 952.421 0.952397 1.08006 0
M  V30 9720 H 954.374 0.498887 4.18436 0
M  V30 9721 H 953.098 -0.320641 3.25022 0
M  V30 9722 H 951.757 1.81095 3.18748 0
M  V30 9723 H 951.405 0.154227 5.02764 0
M  V30 9724 H 951.105 1.81862 5.58749 0
M  V30 9725 H 952.629 0.994891 6.0244 0
M  V30 9726 H 954.043 2.97045 4.90344 0
M  V30 9727 H 952.44 3.73437 4.6975 0
M  V30 9728 H 953.51 3.55743 3.29507 0
M  V30 9729 N 954.853 -1.17469 1.05066 0
M  V30 9730 C 956.101 -1.87327 0.758485 0
M  V30 9731 C 956.422 -1.81358 -0.716549 0
M  V30 9732 O 955.692 -1.23868 -1.51768 0
M  V30 9733 H 954.272 -0.693512 0.277579 0
M  V30 9734 H 956.934 -1.4251 1.32954 0
M  V30 9735 H 956.03 -2.93101 1.0723 0
M  V30 9736 N 956.331 -0.831506 -1.3388 0
M  V30 9737 C 957.279 -0.247896 -2.31275 0
M  V30 9738 C 958.273 0.616083 -1.578 0
M  V30 9739 O 959.479 0.506465 -1.72728 0
M  V30 9740 H 955.854 -0.0614293 -0.749487 0
M  V30 9741 H 957.825 -1.08401 -2.78014 0
M  V30 9742 C 956.574 0.568434 -3.43022 0
M  V30 9743 H 955.897 -0.0870654 -3.99705 0
M  V30 9744 H 957.337 0.942751 -4.13386 0
M  V30 9745 C 955.796 1.74431 -2.88228 0
M  V30 9746 O 956.326 2.84278 -2.83811 0
M  V30 9747 N 954.532 1.56382 -2.44935 0
M  V30 9748 H 954.079 0.670255 -2.48727 0
M  V30 9749 H 954.037 2.35208 -2.08625 0
M  V30 9750 N 957.809 1.4625 -0.587256 0
M  V30 9751 C 958.772 2.28812 0.133238 0
M  V30 9752 C 959.772 1.38645 0.814513 0
M  V30 9753 O 960.962 1.60975 0.665774 0
M  V30 9754 C 958.094 3.19147 1.19824 0
M  V30 9755 H 959.287 2.93991 -0.592386 0
M  V30 9756 H 956.84 1.52435 -0.345416 0
M  V30 9757 H 957.575 2.58725 1.95529 0
M  V30 9758 H 957.36 3.85541 0.71418 0
M  V30 9759 H 958.85 3.81278 1.70344 0
M  V30 9760 N 959.287 0.325282 1.54207 0
M  V30 9761 C 960.217 -0.532574 2.27345 0
M  V30 9762 C 961.198 -1.11791 1.28206 0
M  V30 9763 O 962.383 -1.14272 1.57021 0
M  V30 9764 C 959.513 -1.69274 3.03255 0
M  V30 9765 C 958.467 -1.23662 4.09746 0
M  V30 9766 C 957.793 -2.48386 4.73506 0
M  V30 9767 C 959.093 -0.350244 5.21124 0
M  V30 9768 H 960.787 0.0775108 2.993 0
M  V30 9769 H 958.333 0.0387193 1.43948 0
M  V30 9770 H 960.286 -2.29917 3.53152 0
M  V30 9771 H 959.01 -2.32944 2.28921 0
M  V30 9772 H 957.669 -0.653106 3.60735 0
M  V30 9773 H 957.317 -3.10424 3.95786 0
M  V30 9774 H 957.017 -2.18558 5.45441 0
M  V30 9775 H 958.541 -3.09789 5.26178 0
M  V30 9776 H 959.955 -0.863011 5.66767 0
M  V30 9777 H 958.352 -0.14466 5.99926 0
M  V30 9778 H 959.422 0.618457 4.8094 0
M  V30 9779 N 960.765 -1.57509 0.0534917 0
M  V30 9780 C 962.013 -1.92402 -0.618548 0
M  V30 9781 C 962.334 -0.93273 -1.71246 0
M  V30 9782 O 961.604 0.0220495 -1.95888 0
M  V30 9783 H 960.184 -0.710233 -0.23147 0
M  V30 9784 H 962.846 -1.94606 0.10704 0
M  V30 9785 H 961.942 -2.93704 -1.05566 0
M  V30 9786 N 962.243 0.219913 -1.56058 0
M  V30 9787 C 963.176 1.29978 -1.87566 0
M  V30 9788 C 964.154 1.45131 -0.733203 0
M  V30 9789 O 965.338 1.60917 -0.981729 0
M  V30 9790 C 962.465 2.66988 -2.08411 0
M  V30 9791 C 961.511 2.68842 -3.31099 0
M  V30 9792 S 962.344 2.22745 -4.86975 0
M  V30 9793 C 963.5 3.61627 -5.10859 0
M  V30 9794 H 963.733 1.03059 -2.78866 0
M  V30 9795 H 961.266 0.422233 -1.48514 0
M  V30 9796 H 963.224 3.45866 -2.21104 0
M  V30 9797 H 961.885 2.91131 -1.17905 0
M  V30 9798 H 961.078 3.69526 -3.42734 0
M  V30 9799 H 960.68 1.98028 -3.17271 0
M  V30 9800 H 962.972 4.57328 -4.99857 0
M  V30 9801 H 963.915 3.54906 -6.12737 0
M  V30 9802 H 964.323 3.55391 -4.38586 0
M  V30 9803 N 963.721 1.49897 0.486681 0
M  V30 9804 C 964.97 1.59349 1.23656 0
M  V30 9805 C 965.283 0.292024 1.93408 0
M  V30 9806 O 966.489 0.265258 2.70201 0
M  V30 9807 C 964.945 2.81215 2.24602 0
M  V30 9808 C 964.553 4.18177 1.60725 0
M  V30 9809 C 966.297 3.00004 3.00329 0
M  V30 9810 C 964.204 5.31247 2.59866 0
M  V30 9811 H 963.134 0.593363 0.465227 0
M  V30 9812 H 965.785 1.76306 0.508769 0
M  V30 9813 H 964.167 2.57783 3.00606 0
M  V30 9814 H 965.341 4.51802 0.90616 0
M  V30 9815 H 963.656 4.04864 0.973362 0
M  V30 9816 H 966.253 3.81649 3.74497 0
M  V30 9817 H 966.596 2.1112 3.58795 0
M  V30 9818 H 967.129 3.23544 2.3144 0
M  V30 9819 H 963.868 6.22236 2.06161 0
M  V30 9820 H 963.388 5.02059 3.28172 0
M  V30 9821 H 965.067 5.61177 3.22009 0
M  V30 9822 N 965.199 -0.738761 1.39212 0
M  V30 9823 C 966.447 -1.49529 1.35962 0
M  V30 9824 C 966.768 -1.94948 -0.0450152 0
M  V30 9825 O 966.038 -1.68717 -0.995552 0
M  V30 9826 H 964.618 -0.554692 0.500326 0
M  V30 9827 H 967.28 -0.877255 1.74041 0
M  V30 9828 H 966.376 -2.37919 2.01993 0
M  V30 9829 N 966.677 -1.24326 -0.968545 0
M  V30 9830 C 967.923 -1.08406 -1.71394 0
M  V30 9831 C 968.256 0.376353 -1.90518 0
M  V30 9832 O 967.531 1.27816 -1.46606 0
M  V30 9833 C 967.814 -1.82344 -3.1052 0
M  V30 9834 C 967.667 -3.3613 -2.98893 0
M  V30 9835 C 968.986 -1.59545 -4.10163 0
M  V30 9836 H 966.105 -0.395205 -0.622079 0
M  V30 9837 H 968.747 -1.52983 -1.12677 0
M  V30 9838 H 966.897 -1.44452 -3.60646 0
M  V30 9839 H 968.569 -3.83614 -2.56199 0
M  V30 9840 H 966.812 -3.64553 -2.35124 0
M  V30 9841 H 967.483 -3.83064 -3.97449 0
M  V30 9842 H 969.959 -1.92504 -3.68892 0
M  V30 9843 H 968.835 -2.13736 -5.05577 0
M  V30 9844 H 969.096 -0.533503 -4.38869 0
M  V30 9845 N 968.156 1.1691 -1.05688 0
M  V30 9846 C 969.119 2.19297 -0.666433 0
M  V30 9847 C 970.119 1.5826 0.284674 0
M  V30 9848 O 971.309 1.74068 0.0678757 0
M  V30 9849 C 968.441 3.40894 0.0203656 0
M  V30 9850 H 969.634 2.55354 -1.57272 0
M  V30 9851 H 967.187 1.31078 -0.851359 0
M  V30 9852 H 967.922 3.10388 0.939686 0
M  V30 9853 H 967.707 3.86446 -0.663464 0
M  V30 9854 H 969.197 4.16664 0.279475 0
M  V30 9855 N 969.634 0.838594 1.33437 0
M  V30 9856 C 970.882 0.433312 1.974 0
M  V30 9857 C 971.203 -1.01078 1.66758 0
M  V30 9858 O 970.473 -1.70406 0.966373 0
M  V30 9859 H 969.053 0.15724 0.730263 0
M  V30 9860 H 971.715 1.07149 1.62804 0
M  V30 9861 H 970.811 0.565144 3.06941 0
M  V30 9862 N 971.112 -1.45937 0.595003 0
M  V30 9863 C 972.36 -2.01921 0.0851368 0
M  V30 9864 C 972.681 -1.46748 -1.28413 0
M  V30 9865 O 971.951 -0.656873 -1.84559 0
M  V30 9866 H 970.531 -0.746457 0.0284826 0
M  V30 9867 H 973.193 -1.78891 0.773561 0
M  V30 9868 H 972.289 -3.1209 0.0254002 0
M  V30 9869 N 972.59 -0.333456 -1.54032 0
M  V30 9870 C 973.52 0.52051 -2.27625 0
M  V30 9871 C 974.501 1.1111 -1.28797 0
M  V30 9872 O 975.686 1.13438 -1.57625 0
M  V30 9873 C 972.816 1.67663 -3.04149 0
M  V30 9874 C 971.77 1.21487 -4.10396 0
M  V30 9875 C 971.096 2.45872 -4.74817 0
M  V30 9876 C 972.396 0.322603 -5.21303 0
M  V30 9877 H 974.09 -0.0933823 -2.99254 0
M  V30 9878 H 971.636 -0.0463526 -1.43925 0
M  V30 9879 H 973.589 2.28041 -3.54366 0
M  V30 9880 H 972.313 2.31727 -2.30153 0
M  V30 9881 H 970.972 0.633966 -3.61077 0
M  V30 9882 H 970.62 3.0832 -3.97426 0
M  V30 9883 H 970.32 2.15662 -5.46593 0
M  V30 9884 H 971.844 3.06994 -5.27814 0
M  V30 9885 H 973.258 0.832942 -5.67217 0
M  V30 9886 H 971.655 0.112843 -5.99994 0
M  V30 9887 H 972.725 -0.643954 -4.80605 0
M  V30 9888 N 974.068 1.57479 -0.061844 0
M  V30 9889 C 975.031 2.1104 0.894127 0
M  V30 9890 C 976.031 1.03227 1.23292 0
M  V30 9891 O 977.221 1.29256 1.16784 0
M  V30 9892 C 974.353 2.6035 2.20069 0
M  V30 9893 H 975.546 2.96807 0.429619 0
M  V30 9894 H 973.099 1.55181 0.18672 0
M  V30 9895 H 973.834 1.78008 2.71079 0
M  V30 9896 H 973.619 3.39146 1.9678 0
M  V30 9897 H 975.109 3.019 2.88525 0
M  V30 9898 N 975.546 -0.211634 1.56173 0
M  V30 9899 C 976.509 -1.24588 1.92381 0
M  V30 9900 C 977.509 -1.39297 0.803311 0
M  V30 9901 O 978.699 -1.37392 1.07094 0
M  V30 9902 C 975.831 -2.61807 2.18335 0
M  V30 9903 H 977.024 -0.936814 2.84893 0
M  V30 9904 H 974.577 -0.452471 1.49607 0
M  V30 9905 H 975.312 -2.97795 1.28407 0
M  V30 9906 H 975.097 -2.52506 2.99972 0
M  V30 9907 H 976.587 -3.3642 2.4741 0
M  V30 9908 N 977.024 -1.50153 -0.478725 0
M  V30 9909 C 978.252 -1.64505 -1.25482 0
M  V30 9910 C 978.667 -0.325295 -1.85977 0
M  V30 9911 O 978.024 0.691885 -1.68876 0
M  V30 9912 C 978.075 -2.73052 -2.36906 0
M  V30 9913 O 977.796 -3.99911 -1.78894 0
M  V30 9914 C 979.297 -2.98309 -3.27912 0
M  V30 9915 H 976.517 -0.55318 -0.379781 0
M  V30 9916 H 979.061 -1.96329 -0.57229 0
M  V30 9917 H 977.216 -2.43944 -3.00949 0
M  V30 9918 H 977.63 -4.5988 -2.52211 0
M  V30 9919 H 979.104 -3.77942 -4.02323 0
M  V30 9920 H 979.581 -2.09082 -3.8624 0
M  V30 9921 H 980.187 -3.2892 -2.69614 0
M  V30 9922 N 978.502 0.731368 -1.39602 0
M  V30 9923 C 979.432 1.85855 -1.41351 0
M  V30 9924 C 980.413 1.67839 -0.2764 0
M  V30 9925 O 981.598 1.88104 -0.482747 0
M  V30 9926 C 978.728 3.23644 -1.25983 0
M  V30 9927 C 977.682 3.56304 -2.37132 0
M  V30 9928 C 977.008 4.93069 -2.0685 0
M  V30 9929 C 978.308 3.58906 -3.79452 0
M  V30 9930 H 980.002 1.84648 -2.3568 0
M  V30 9931 H 977.548 0.886955 -1.13442 0
M  V30 9932 H 979.501 4.02176 -1.25826 0
M  V30 9933 H 978.225 3.25387 -0.281234 0
M  V30 9934 H 976.884 2.80104 -2.36511 0
M  V30 9935 H 976.532 4.91396 -1.0742 0
M  V30 9936 H 976.232 5.15888 -2.81306 0
M  V30 9937 H 977.756 5.73953 -2.0835 0
M  V30 9938 H 979.17 4.27508 -3.81982 0
M  V30 9939 H 977.567 3.93246 -4.53297 0
M  V30 9940 H 978.637 2.58631 -4.10168 0
M  V30 9941 N 979.98 1.24838 0.961938 0
M  V30 9942 C 981.228 1.08936 1.70227 0
M  V30 9943 C 981.549 -0.371582 1.91427 0
M  V30 9944 O 980.819 -1.26461 1.49614 0
M  V30 9945 H 979.399 0.400128 0.630799 0
M  V30 9946 H 982.061 1.56848 1.15692 0
M  V30 9947 H 981.157 1.59195 2.68446 0
M  V30 9948 N 981.458 -1.16348 1.06306 0
M  V30 9949 C 982.704 -1.87158 0.781007 0
M  V30 9950 C 983.037 -1.81499 -0.690784 0
M  V30 9951 O 982.312 -1.23074 -1.50609 0
M  V30 9952 C 982.595 -3.3672 1.27639 0
M  V30 9953 C 982.448 -3.51069 2.81194 0
M  V30 9954 C 983.767 -4.31122 0.884388 0
M  V30 9955 H 980.886 -0.679586 0.285187 0
M  V30 9956 H 983.528 -1.36756 1.31901 0
M  V30 9957 H 981.678 -3.79775 0.818715 0
M  V30 9958 H 983.35 -3.16952 3.35171 0
M  V30 9959 H 981.593 -2.92976 3.19918 0
M  V30 9960 H 982.264 -4.56105 3.10921 0
M  V30 9961 H 984.74 -3.95969 1.27858 0
M  V30 9962 H 983.616 -5.34279 1.25847 0
M  V30 9963 H 983.877 -4.41598 -0.210673 0
M  V30 9964 N 982.937 -0.845659 -1.3299 0
M  V30 9965 C 983.867 -0.298957 -2.31578 0
M  V30 9966 C 984.848 0.597012 -1.59279 0
M  V30 9967 O 986.033 0.519142 -1.87132 0
M  V30 9968 C 983.163 0.521109 -3.43368 0
M  V30 9969 C 982.117 -0.279651 -4.27085 0
M  V30 9970 C 981.443 0.664591 -5.30554 0
M  V30 9971 C 982.743 -1.50046 -5.00283 0
M  V30 9972 H 984.437 -1.12272 -2.77552 0
M  V30 9973 H 981.983 -0.54132 -1.33438 0
M  V30 9974 H 983.936 0.913921 -4.1137 0
M  V30 9975 H 982.66 1.37815 -2.96099 0
M  V30 9976 H 981.319 -0.654106 -3.60717 0
M  V30 9977 H 980.967 1.51822 -4.79541 0
M  V30 9978 H 980.667 0.132871 -5.8745 0
M  V30 9979 H 982.191 1.05477 -6.01421 0
M  V30 9980 H 983.605 -1.18044 -5.61016 0
M  V30 9981 H 982.002 -1.96946 -5.66862 0
M  V30 9982 H 983.072 -2.26659 -4.28665 0
M  V30 9983 N 984.415 1.45619 -0.602734 0
M  V30 9984 C 985.362 2.30493 0.118944 0
M  V30 9985 C 986.332 1.41816 0.864723 0
M  V30 9986 O 987.517 1.7075 0.851424 0
M  V30 9987 C 984.657 3.2664 1.11356 0
M  V30 9988 C 983.77 4.3042 0.369161 0
M  V30 9989 C 982.905 5.13678 1.35307 0
M  V30 9990 C 981.944 6.09189 0.596207 0
M  V30 9991 N 981.081 6.85245 1.52916 0
M  V30 9992 H 985.921 2.91672 -0.610836 0
M  V30 9993 H 983.458 1.43731 -0.313032 0
M  V30 9994 H 985.416 3.80846 1.7033 0
M  V30 9995 H 984.046 2.67225 1.81081 0
M  V30 9996 H 983.098 3.78913 -0.335994 0
M  V30 9997 H 984.41 4.98307 -0.221603 0
M  V30 9998 H 983.564 5.7226 2.01502 0
M  V30 9999 H 982.303 4.45798 1.97777 0
M  V30 10000 H 981.308 5.49743 -0.0793984 0
M  V30 10001 H 982.533 6.79096 -0.0233734 0
M  V30 10002 H 980.479 6.20058 2.14159 0
M  V30 10003 H 980.396 7.49467 0.991713 0
M  V30 10004 H 981.664 7.48371 2.18083 0
M  V30 10005 N 985.893 0.34162 1.53853 0
M  V30 10006 C 987.304 -0.14269 1.86154 0
M  V30 10007 C 987.655 -1.50151 1.2629 0
M  V30 10008 O 986.78 -2.08601 0.575735 0
M  V30 10009 C 987.375 -0.265691 3.37757 0
M  V30 10010 C 985.934 -0.694231 3.69942 0
M  V30 10011 C 985.081 0.173195 2.76759 0
M  V30 10012 H 988.032 0.561284 1.48443 0
M  V30 10013 H 988.053 -1.09352 3.64448 0
M  V30 10014 H 987.565 0.723424 3.81298 0
M  V30 10015 H 985.666 -1.69244 3.31945 0
M  V30 10016 H 985.779 -0.485461 4.76634 0
M  V30 10017 H 984.143 -0.35416 2.52226 0
M  V30 10018 H 984.926 1.15941 3.23129 0
M  V30 10019 N 987.371 -1.57444 0.0701946 0
M  V30 10020 C 988.619 -1.93047 -0.598106 0
M  V30 10021 C 988.94 -0.950841 -1.70247 0
M  V30 10022 O 988.21 0.00127177 -1.959 0
M  V30 10023 H 986.79 -0.712648 -0.223924 0
M  V30 10024 H 989.452 -1.94481 0.127674 0
M  V30 10025 H 988.548 -2.94807 -1.02445 0
M  V30 10026 N 988.849 0.203349 -1.56283 0
M  V30 10027 C 990.26 0.768764 -1.70138 0
M  V30 10028 C 990.611 1.8421 -0.675358 0
M  V30 10029 O 989.736 2.15732 0.1699 0
M  V30 10030 C 990.331 1.40123 -3.08466 0
M  V30 10031 C 988.89 1.91382 -3.24114 0
M  V30 10032 C 988.037 0.780685 -2.66084 0
M  V30 10033 H 990.988 -0.0215997 -1.58685 0
M  V30 10034 H 991.009 2.27046 -3.05336 0
M  V30 10035 H 990.521 0.619805 -3.83119 0
M  V30 10036 H 988.622 2.7227 -2.54362 0
M  V30 10037 H 988.735 2.08128 -4.31531 0
M  V30 10038 H 987.099 1.19281 -2.25042 0
M  V30 10039 H 987.882 0.0116351 -3.43298 0
M  V30 10040 N 990.327 1.50405 0.470755 0
M  V30 10041 C 991.237 1.7208 1.59454 0
M  V30 10042 C 992.253 0.603932 1.63183 0
M  V30 10043 O 993.429 0.882296 1.81046 0
M  V30 10044 C 990.494 1.81057 2.95667 0
M  V30 10045 C 989.555 3.04792 3.02324 0
M  V30 10046 C 988.788 3.13332 4.3204 0
M  V30 10047 O 989.011 2.28655 5.22564 0
M  V30 10048 O 987.945 4.0606 4.44296 0
M  V30 10049 H 991.771 2.67343 1.44089 0
M  V30 10050 H 989.356 1.34505 0.650286 0
M  V30 10051 H 991.238 1.8914 3.76569 0
M  V30 10052 H 989.913 0.889782 3.11231 0
M  V30 10053 H 988.82 3.0221 2.205 0
M  V30 10054 H 990.153 3.96451 2.91698 0
M  V30 10055 N 991.805 -0.723954 1.39988 0
M  V30 10056 C 992.735 -1.85103 1.42335 0
M  V30 10057 C 993.716 -1.6769 0.285297 0
M  V30 10058 O 994.901 -1.87846 0.492716 0
M  V30 10059 C 992.031 -3.22972 1.27697 0
M  V30 10060 C 990.985 -3.55041 2.39018 0
M  V30 10061 C 990.311 -4.91965 2.09462 0
M  V30 10062 C 991.611 -3.56889 3.8135 0
M  V30 10063 H 993.305 -1.83396 2.36656 0
M  V30 10064 H 990.851 -0.880926 1.13911 0
M  V30 10065 H 992.804 -4.01503 1.27958 0
M  V30 10066 H 991.528 -3.25233 0.298487 0
M  V30 10067 H 990.187 -2.78845 2.37993 0
M  V30 10068 H 989.835 -4.90819 1.10025 0
M  V30 10069 H 989.535 -5.14389 2.84038 0
M  V30 10070 H 991.059 -5.7284 2.11391 0
M  V30 10071 H 992.473 -4.25476 3.84243 0
M  V30 10072 H 990.87 -3.90836 4.55376 0
M  V30 10073 H 991.94 -2.56452 4.11534 0
M  V30 10074 N 993.283 -1.25346 -0.955304 0
M  V30 10075 C 994.213 -1.08152 -2.06943 0
M  V30 10076 C 995.194 0.00922598 -1.70097 0
M  V30 10077 O 996.379 -0.160181 -1.93538 0
M  V30 10078 C 993.509 -0.698745 -3.40198 0
M  V30 10079 C 992.463 -1.73965 -3.9105 0
M  V30 10080 C 991.789 -1.21158 -5.20792 0
M  V30 10081 C 993.089 -3.13829 -4.17503 0
M  V30 10082 H 994.783 -2.01345 -2.21586 0
M  V30 10083 H 992.329 -0.969459 -1.06478 0
M  V30 10084 H 994.282 -0.565394 -4.1759 0
M  V30 10085 H 993.006 0.268892 -3.25491 0
M  V30 10086 H 991.665 -1.86143 -3.15827 0
M  V30 10087 H 991.313 -0.234193 -5.02455 0
M  V30 10088 H 991.013 -1.90728 -5.55785 0
M  V30 10089 H 992.537 -1.09061 -6.00781 0
M  V30 10090 H 993.951 -3.04809 -4.85556 0
M  V30 10091 H 992.348 -3.80863 -4.63749 0
M  V30 10092 H 993.418 -3.6094 -3.23806 0
M  V30 10093 N 994.761 1.15782 -1.06922 0
M  V30 10094 C 995.724 2.18578 -0.689654 0
M  V30 10095 C 996.724 1.58553 0.267872 0
M  V30 10096 O 997.914 1.7413 0.0494097 0
M  V30 10097 C 995.046 3.40896 -0.0157919 0
M  V30 10098 H 996.239 2.53672 -1.59971 0
M  V30 10099 H 993.792 1.30168 -0.865214 0
M  V30 10100 H 994.527 3.11367 0.906712 0
M  V30 10101 H 994.312 3.85721 -0.704415 0
M  V30 10102 H 995.802 4.16937 0.235266 0
M  V30 10103 N 996.239 0.8527 1.3254 0
M  V30 10104 C 997.171 0.253181 2.27797 0
M  V30 10105 C 998.184 -0.573977 1.52346 0
M  V30 10106 O 999.373 -0.398786 1.73988 0
M  V30 10107 C 996.473 -0.661034 3.32391 0
M  V30 10108 C 995.646 0.12984 4.37207 0
M  V30 10109 C 994.705 -0.709837 5.2139 0
M  V30 10110 O 993.731 -0.144056 5.69018 0
M  V30 10111 N 994.933 -2.0249 5.44039 0
M  V30 10112 H 997.698 1.07171 2.79883 0
M  V30 10113 H 995.259 0.712491 1.45379 0
M  V30 10114 H 997.251 -1.22806 3.85617 0
M  V30 10115 H 995.821 -1.38025 2.80478 0
M  V30 10116 H 995.041 0.878289 3.84291 0
M  V30 10117 H 996.329 0.673141 5.04328 0
M  V30 10118 H 995.727 -2.50792 5.0707 0
M  V30 10119 H 994.284 -2.5401 6.00269 0
M  V30 10120 N 997.718 -1.45297 0.610449 0
M  V30 10121 C 998.651 -2.27669 -0.155637 0
M  V30 10122 C 999.629 -1.37308 -0.870936 0
M  V30 10123 O 1000.81 -1.66739 -0.879228 0
M  V30 10124 C 997.94 -3.15748 -1.2256 0
M  V30 10125 C 996.986 -4.2207 -0.613116 0
M  V30 10126 S 997.819 -5.32337 0.581183 0
M  V30 10127 C 998.975 -6.23985 -0.489298 0
M  V30 10128 H 999.208 -2.92295 0.543205 0
M  V30 10129 H 996.741 -1.49181 0.398044 0
M  V30 10130 H 998.699 -3.67051 -1.83804 0
M  V30 10131 H 997.36 -2.50381 -1.89652 0
M  V30 10132 H 996.553 -4.83633 -1.41827 0
M  V30 10133 H 996.155 -3.73923 -0.0757482 0
M  V30 10134 H 998.447 -6.63553 -1.36759 0
M  V30 10135 H 999.39 -7.08042 0.0902456 0
M  V30 10136 H 999.798 -5.58718 -0.805911 0
M  V30 10137 N 999.196 -0.349774 -1.5367 0
M  V30 10138 C 1000.42 0.248692 -2.05904 0
M  V30 10139 C 1000.85 1.42942 -1.22267 0
M  V30 10140 O 1000.2 1.79732 -0.237899 0
M  V30 10141 C 1000.25 0.635639 -3.54953 0
M  V30 10142 O 999.356 1.7349 -3.74132 0
M  V30 10143 H 998.697 0.0399477 -0.662797 0
M  V30 10144 H 1001.23 -0.505795 -1.9825 0
M  V30 10145 H 1001.24 0.911064 -3.97698 0
M  V30 10146 H 999.912 -0.227805 -4.15276 0
M  V30 10147 H 998.489 1.45626 -3.43289 0
M  V30 10148 N 1000.67 1.57404 -0.0785433 0
M  V30 10149 C 1001.92 1.93361 0.58786 0
M  V30 10150 C 1002.24 0.959856 1.6974 0
M  V30 10151 O 1001.51 0.0091173 1.95898 0
M  V30 10152 H 1000.09 0.713825 0.220141 0
M  V30 10153 H 1002.75 1.94411 -0.137986 0
M  V30 10154 H 1001.85 2.95346 1.00881 0
M  V30 10155 N 1002.15 -0.195058 1.56388 0
M  V30 10156 C 1003.11 -1.2254 1.93692 0
M  V30 10157 C 1004.11 -1.38437 0.81804 0
M  V30 10158 O 1005.3 -1.36248 1.08545 0
M  V30 10159 C 1002.44 -2.59476 2.21099 0
M  V30 10160 H 1003.63 -0.906544 2.8587 0
M  V30 10161 H 1001.18 -0.436577 1.50079 0
M  V30 10162 H 1001.92 -2.96417 1.31558 0
M  V30 10163 H 1001.7 -2.4931 3.02634 0
M  V30 10164 H 1003.19 -3.33777 2.50964 0
M  V30 10165 N 1003.63 -1.50653 -0.462772 0
M  V30 10166 C 1004.56 -1.64773 -1.57877 0
M  V30 10167 C 1005.54 -0.495664 -1.54861 0
M  V30 10168 O 1006.72 -0.716248 -1.74362 0
M  V30 10169 C 1003.85 -1.63796 -2.9646 0
M  V30 10170 C 1002.9 -2.84663 -3.17599 0
M  V30 10171 S 1003.73 -4.45852 -2.96608 0
M  V30 10172 C 1004.89 -4.47581 -4.37518 0
M  V30 10173 H 1005.12 -2.59172 -1.45661 0
M  V30 10174 H 1002.65 -1.40019 -0.650699 0
M  V30 10175 H 1004.61 -1.63918 -3.76353 0
M  V30 10176 H 1003.27 -0.706185 -3.06059 0
M  V30 10177 H 1002.46 -2.80308 -4.1886 0
M  V30 10178 H 1002.07 -2.82152 -2.45492 0
M  V30 10179 H 1004.36 -4.21656 -5.30295 0
M  V30 10180 H 1005.3 -5.49248 -4.46914 0
M  V30 10181 H 1005.71 -3.7719 -4.19985 0
M  V30 10182 N 1005.11 0.71652 -1.4037 0
M  V30 10183 C 1006.07 1.81231 -1.40313 0
M  V30 10184 C 1007.07 1.58032 -0.297087 0
M  V30 10185 O 1008.26 1.65091 -0.555944 0
M  V30 10186 C 1005.39 3.19308 -1.19395 0
M  V30 10187 H 1006.59 1.8268 -2.3784 0
M  V30 10188 H 1004.14 0.922062 -1.26205 0
M  V30 10189 H 1004.87 3.2351 -0.226252 0
M  V30 10190 H 1004.66 3.37546 -1.99512 0
M  V30 10191 H 1006.15 3.99339 -1.22141 0
M  V30 10192 N 1006.59 1.25851 0.948643 0
M  V30 10193 C 1007.52 1.09248 2.06367 0
M  V30 10194 C 1008.5 -0.000205168 1.701 0
M  V30 10195 O 1009.68 0.170442 1.93451 0
M  V30 10196 C 1006.81 0.716777 3.39823 0
M  V30 10197 C 1005.77 1.76036 3.90122 0
M  V30 10198 C 1005.09 1.23918 5.20143 0
M  V30 10199 C 1006.39 3.16039 4.15833 0
M  V30 10200 H 1008.09 2.02518 2.20515 0
M  V30 10201 H 1005.63 0.975093 1.05962 0
M  V30 10202 H 1007.59 0.587531 4.17284 0
M  V30 10203 H 1006.31 -0.251626 3.25629 0
M  V30 10204 H 1004.97 1.87815 3.14835 0
M  V30 10205 H 1004.62 0.260836 5.02323 0
M  V30 10206 H 1004.32 1.93673 5.54765 0
M  V30 10207 H 1005.84 1.12245 6.00194 0
M  V30 10208 H 1007.25 3.0738 4.83933 0
M  V30 10209 H 1005.65 3.83317 4.61723 0
M  V30 10210 H 1006.72 3.62652 3.21887 0
M  V30 10211 N 1008.06 -1.15214 1.07534 0
M  V30 10212 C 1009.31 -1.85676 0.79805 0
M  V30 10213 C 1009.63 -1.82837 -0.677919 0
M  V30 10214 O 1008.9 -1.27059 -1.49107 0
M  V30 10215 H 1007.48 -0.687468 0.292227 0
M  V30 10216 H 1010.15 -1.39658 1.35947 0
M  V30 10217 H 1009.24 -2.9076 1.13423 0
M  V30 10218 N 1009.54 -0.859717 -1.32086 0
M  V30 10219 C 1010.79 -0.464662 -1.96686 0
M  V30 10220 C 1011.11 0.98412 -1.68345 0
M  V30 10221 O 1010.38 1.68847 -0.993361 0
M  V30 10222 H 1008.96 -0.168838 -0.727669 0
M  V30 10223 H 1011.62 -1.09726 -1.61079 0
M  V30 10224 H 1010.72 -0.613904 -3.06003 0
M  V30 10225 N 1011.02 1.44971 -0.618145 0
M  V30 10226 C 1012.25 2.06527 -0.124165 0
M  V30 10227 C 1012.66 1.46097 1.19588 0
M  V30 10228 O 1012.02 0.57901 1.73071 0
M  V30 10229 C 1012.07 3.61498 0.0106701 0
M  V30 10230 O 1011.79 4.19675 -1.25716 0
M  V30 10231 C 1013.29 4.40061 0.534872 0
M  V30 10232 H 1010.51 0.666941 -0.0736935 0
M  V30 10233 H 1013.06 1.8605 -0.848871 0
M  V30 10234 H 1011.21 3.81282 0.685752 0
M  V30 10235 H 1011.63 5.12972 -1.09362 0
M  V30 10236 H 1013.1 5.48963 0.57827 0
M  V30 10237 H 1013.58 4.10587 1.55931 0
M  V30 10238 H 1014.18 4.25167 -0.10652 0
M  V30 10239 N 1012.5 0.357919 1.53482 0
M  V30 10240 C 1013.75 -0.235241 2.00324 0
M  V30 10241 C 1014.06 -1.50494 1.24944 0
M  V30 10242 O 1015.27 -2.17623 1.62335 0
M  V30 10243 C 1013.72 -0.469748 3.56821 0
M  V30 10244 C 1013.33 0.784877 4.41071 0
M  V30 10245 C 1015.07 -1.02098 4.12039 0
M  V30 10246 C 1012.98 0.520377 5.89106 0
M  V30 10247 H 1011.91 -0.0916816 0.748405 0
M  V30 10248 H 1014.56 0.475474 1.77233 0
M  V30 10249 H 1012.94 -1.24153 3.76035 0
M  V30 10250 H 1014.12 1.55886 4.33631 0
M  V30 10251 H 1012.43 1.25878 3.96918 0
M  V30 10252 H 1015.03 -1.23406 5.20264 0
M  V30 10253 H 1015.37 -1.98084 3.66154 0
M  V30 10254 H 1015.91 -0.309554 3.96594 0
M  V30 10255 H 1012.65 1.45035 6.39254 0
M  V30 10256 H 1012.17 -0.215254 5.99414 0
M  V30 10257 H 1013.84 0.143006 6.46842 0
M  V30 10258 N 1013.98 -1.5736 0.0868897 0
M  V30 10259 C 1015.22 -1.9367 -0.577598 0
M  V30 10260 C 1015.55 -0.968844 -1.69229 0
M  V30 10261 O 1014.82 -0.0195061 -1.9589 0
M  V30 10262 H 1013.4 -0.714983 -0.216353 0
M  V30 10263 H 1016.06 -1.94335 0.148294 0
M  V30 10264 H 1015.15 -2.95877 -0.993128 0
M  V30 10265 N 1015.45 0.186762 -1.56489 0
M  V30 10266 C 1016.38 1.23395 -1.98232 0
M  V30 10267 C 1017.37 1.4702 -0.855526 0
M  V30 10268 O 1018.55 1.58616 -1.12048 0
M  V30 10269 C 1015.68 2.57635 -2.32898 0
M  V30 10270 C 1014.63 2.48607 -3.48394 0
M  V30 10271 C 1013.96 3.87196 -3.68759 0
M  V30 10272 C 1015.26 2.00398 -4.82325 0
M  V30 10273 H 1016.95 0.887026 -2.85958 0
M  V30 10274 H 1014.5 0.42525 -1.37578 0
M  V30 10275 H 1016.45 3.31082 -2.60696 0
M  V30 10276 H 1015.18 2.94084 -1.42064 0
M  V30 10277 H 1013.84 1.77615 -3.207 0
M  V30 10278 H 1013.48 4.21012 -2.75241 0
M  V30 10279 H 1013.18 3.82029 -4.46462 0
M  V30 10280 H 1014.71 4.62253 -3.98941 0
M  V30 10281 H 1016.12 2.6361 -5.091 0
M  V30 10282 H 1014.52 2.06214 -5.63556 0
M  V30 10283 H 1015.59 0.957562 -4.75351 0
M  V30 10284 N 1016.93 1.50896 0.454776 0
M  V30 10285 C 1018.16 1.6648 1.22849 0
M  V30 10286 C 1018.58 0.354841 1.85435 0
M  V30 10287 O 1017.93 -0.664931 1.69956 0
M  V30 10288 C 1017.98 2.76787 2.32532 0
M  V30 10289 O 1017.7 4.02706 1.72509 0
M  V30 10290 C 1019.21 3.03488 3.23125 0
M  V30 10291 H 1016.43 0.559152 0.370932 0
M  V30 10292 H 1018.97 1.97215 0.540983 0
M  V30 10293 H 1017.12 2.48701 2.9703 0
M  V30 10294 H 1017.54 4.63834 2.44863 0
M  V30 10295 H 1019.01 3.84294 3.9626 0
M  V30 10296 H 1019.49 2.152 3.82865 0
M  V30 10297 H 1020.1 3.33167 2.64347 0
M  V30 10298 N 1018.41 -0.709066 1.40748 0
M  V30 10299 C 1019.66 -1.4646 1.38681 0
M  V30 10300 C 1019.97 -1.95599 -0.0056209 0
M  V30 10301 O 1021.18 -2.71091 -0.148907 0
M  V30 10302 C 1019.63 -2.64771 2.43771 0
M  V30 10303 C 1019.24 -2.22474 3.88856 0
M  V30 10304 C 1020.99 -3.42475 2.50821 0
M  V30 10305 C 1018.89 -3.37663 4.85528 0
M  V30 10306 H 1017.82 -0.550084 0.515678 0
M  V30 10307 H 1020.47 -0.771074 1.66513 0
M  V30 10308 H 1018.86 -3.36325 2.09048 0
M  V30 10309 H 1020.03 -1.58297 4.32757 0
M  V30 10310 H 1018.35 -1.57798 3.85342 0
M  V30 10311 H 1020.94 -4.28201 3.20232 0
M  V30 10312 H 1021.29 -3.86738 1.54076 0
M  V30 10313 H 1021.82 -2.77969 2.84567 0
M  V30 10314 H 1018.56 -2.98426 5.83628 0
M  V30 10315 H 1018.08 -4.00734 4.46287 0
M  V30 10316 H 1019.76 -4.03636 5.05655 0
M  V30 10317 N 1019.89 -1.26353 -0.941956 0
M  V30 10318 C 1020.85 -1.07904 -2.02211 0
M  V30 10319 C 1021.85 -0.0276283 -1.60776 0
M  V30 10320 O 1023.04 -0.270965 -1.7208 0
M  V30 10321 C 1020.17 -0.641084 -3.34818 0
M  V30 10322 H 1021.37 -2.03804 -2.20009 0
M  V30 10323 H 1018.92 -1.08939 -1.12081 0
M  V30 10324 H 1019.66 0.319943 -3.22718 0
M  V30 10325 H 1019.44 -1.40027 -3.66244 0
M  V30 10326 H 1020.93 -0.533826 -4.14174 0
M  V30 10327 N 1021.37 1.14642 -1.08144 0
M  V30 10328 C 1022.31 2.1964 -0.708995 0
M  V30 10329 C 1023.28 1.63303 0.303512 0
M  V30 10330 O 1024.47 1.8987 0.18813 0
M  V30 10331 C 1021.61 3.44886 -0.121585 0
M  V30 10332 C 1020.72 4.15386 -1.18654 0
M  V30 10333 C 1019.86 5.28205 -0.56328 0
M  V30 10334 C 1018.9 5.90534 -1.61046 0
M  V30 10335 N 1018.03 6.94809 -1.00919 0
M  V30 10336 H 1022.87 2.50848 -1.6087 0
M  V30 10337 H 1020.41 1.23185 -0.803975 0
M  V30 10338 H 1022.37 4.16528 0.23668 0
M  V30 10339 H 1021 3.14169 0.741445 0
M  V30 10340 H 1020.05 3.42159 -1.66227 0
M  V30 10341 H 1021.36 4.57809 -1.9802 0
M  V30 10342 H 1020.52 6.06507 -0.153109 0
M  V30 10343 H 1019.26 4.86995 0.262066 0
M  V30 10344 H 1018.26 5.10938 -2.03033 0
M  V30 10345 H 1019.49 6.33819 -2.43824 0
M  V30 10346 H 1017.43 6.5568 -0.204894 0
M  V30 10347 H 1017.35 7.35704 -1.73999 0
M  V30 10348 H 1018.62 7.76992 -0.624792 0
M  V30 10349 N 1022.85 0.866709 1.31628 0
M  V30 10350 C 1024.26 0.558188 1.49521 0
M  V30 10351 C 1024.46 -0.90844 1.7986 0
M  V30 10352 O 1023.52 -1.6908 1.87531 0
M  V30 10353 C 1024.83 1.45559 2.63122 0
M  V30 10354 C 1026.38 1.45728 2.77006 0
M  V30 10355 C 1026.85 2.34017 3.937 0
M  V30 10356 N 1028.34 2.31879 4.00982 0
M  V30 10357 C 1029.08 2.96915 4.90539 0
M  V30 10358 N 1028.58 3.71109 5.85021 0
M  V30 10359 N 1030.37 2.86241 4.83759 0
M  V30 10360 H 1022.52 1.81574 1.10203 0
M  V30 10361 H 1024.78 0.77621 0.544244 0
M  V30 10362 H 1024.49 2.49904 2.47469 0
M  V30 10363 H 1024.36 1.15174 3.59186 0
M  V30 10364 H 1026.75 0.421419 2.92075 0
M  V30 10365 H 1026.83 1.80134 1.81619 0
M  V30 10366 H 1026.47 3.37678 3.79389 0
M  V30 10367 H 1026.4 1.96937 4.88388 0
M  V30 10368 H 1028.9 1.77948 3.33381 0
M  V30 10369 H 1029.21 4.1787 6.5008 0
M  V30 10370 H 1027.55 3.75217 5.8501 0
M  V30 10371 H 1030.74 2.27819 4.08921 0
M  V30 10372 H 1030.92 3.37206 5.5335 0
M  V30 10373 N 1024.32 -1.44642 0.625825 0
M  V30 10374 C 1025.57 -2.01308 0.125682 0
M  V30 10375 C 1025.89 -1.49773 -1.25807 0
M  V30 10376 O 1027.09 -1.98533 -1.85194 0
M  V30 10377 C 1025.55 -3.59479 0.17395 0
M  V30 10378 C 1025.16 -4.20011 1.55868 0
M  V30 10379 C 1026.9 -4.2364 -0.270005 0
M  V30 10380 C 1024.81 -5.7039 1.56235 0
M  V30 10381 H 1023.74 -0.75276 0.0432194 0
M  V30 10382 H 1026.39 -1.65916 0.783842 0
M  V30 10383 H 1024.77 -3.92145 -0.551212 0
M  V30 10384 H 1025.94 -3.98891 2.307 0
M  V30 10385 H 1024.26 -3.68116 1.94627 0
M  V30 10386 H 1026.86 -5.33931 -0.28672 0
M  V30 10387 H 1027.2 -3.95603 -1.29629 0
M  V30 10388 H 1027.73 -3.95759 0.402487 0
M  V30 10389 H 1024.47 -6.03154 2.56683 0
M  V30 10390 H 1023.99 -5.93648 0.856881 0
M  V30 10391 H 1025.67 -6.33929 1.29396 0
M  V30 10392 N 1025.8 -0.366053 -1.5329 0
M  V30 10393 C 1026.73 0.514916 -2.23341 0
M  V30 10394 C 1027.75 1.04579 -1.24768 0
M  V30 10395 O 1028.94 0.952084 -1.50989 0
M  V30 10396 C 1026.04 1.72374 -2.91788 0
M  V30 10397 C 1025.21 1.32429 -4.16871 0
M  V30 10398 C 1024.27 2.39524 -4.68524 0
M  V30 10399 O 1023.29 2.01895 -5.32191 0
M  V30 10400 N 1024.5 3.71116 -4.46378 0
M  V30 10401 H 1027.26 -0.0851272 -2.99579 0
M  V30 10402 H 1024.82 -0.191255 -1.60766 0
M  V30 10403 H 1026.81 2.43496 -3.23252 0
M  V30 10404 H 1025.38 2.23064 -2.19 0
M  V30 10405 H 1024.6 0.442901 -3.91704 0
M  V30 10406 H 1025.89 1.03372 -4.98188 0
M  V30 10407 H 1025.29 4.04463 -3.95508 0
M  V30 10408 H 1023.85 4.38341 -4.82391 0
M  V30 10409 N 1027.28 1.57312 -0.0952337 0
M  V30 10410 C 1028.53 1.93533 0.568131 0
M  V30 10411 C 1028.84 0.979121 1.6933 0
M  V30 10412 O 1030.05 1.23506 2.41782 0
M  V30 10413 C 1028.5 3.43875 1.06198 0
M  V30 10414 C 1028.11 4.47988 -0.0334397 0
M  V30 10415 C 1029.86 3.89057 1.69807 0
M  V30 10416 C 1027.76 5.89483 0.475774 0
M  V30 10417 H 1026.69 0.7224 0.215995 0
M  V30 10418 H 1029.34 1.82699 -0.171257 0
M  V30 10419 H 1027.73 3.49862 1.85506 0
M  V30 10420 H 1028.9 4.53644 -0.808934 0
M  V30 10421 H 1027.21 4.12415 -0.574725 0
M  V30 10422 H 1029.81 4.92171 2.08978 0
M  V30 10423 H 1030.15 3.27713 2.5673 0
M  V30 10424 H 1030.69 3.85772 0.970815 0
M  V30 10425 H 1027.43 6.54528 -0.356837 0
M  V30 10426 H 1026.95 5.87297 1.21827 0
M  V30 10427 H 1028.63 6.40066 0.944697 0
M  V30 10428 N 1028.76 -0.17846 1.56586 0
M  V30 10429 C 1029.98 -0.916061 1.86073 0
M  V30 10430 C 1030.41 -1.75349 0.680754 0
M  V30 10431 O 1029.77 -1.77479 -0.37028 0
M  V30 10432 C 1029.81 -1.77445 3.1392 0
M  V30 10433 O 1028.92 -2.87524 2.95641 0
M  V30 10434 H 1028.26 -0.257031 0.612234 0
M  V30 10435 H 1030.79 -0.178755 2.03818 0
M  V30 10436 H 1030.8 -2.1758 3.45142 0
M  V30 10437 H 1029.47 -1.15927 3.99417 0
M  V30 10438 H 1028.05 -2.51023 2.75757 0
M  V30 10439 N 1030.24 -1.51135 -0.446768 0
M  V30 10440 C 1031.51 -1.5387 -1.20762 0
M  V30 10441 C 1031.89 -0.297446 -2.08994 0
M  V30 10442 O 1031.24 0.717975 -2.16927 0
M  V30 10443 C 1031.45 -2.84767 -2.01764 0
M  V30 10444 C 1032.8 -3.3636 -2.59128 0
M  V30 10445 O 1033.82 -2.86254 -2.11984 0
M  V30 10446 O 1032.68 -4.23765 -3.45088 0
M  V30 10447 H 1029.78 -0.618228 -0.549293 0
M  V30 10448 H 1032.32 -1.63442 -0.456605 0
M  V30 10449 H 1031.09 -3.6657 -1.36901 0
M  V30 10450 H 1030.72 -2.78313 -2.8395 0
M  V30 10451 N 1031.71 0.701592 -1.41122 0
M  V30 10452 C 1032.64 1.82815 -1.45262 0
M  V30 10453 C 1033.62 1.67215 -0.311939 0
M  V30 10454 O 1034.81 1.87038 -0.522538 0
M  V30 10455 C 1031.94 3.20899 -1.32819 0
M  V30 10456 C 1030.89 3.51194 -2.44636 0
M  V30 10457 C 1030.22 4.8857 -2.17263 0
M  V30 10458 C 1031.52 3.50777 -3.86979 0
M  V30 10459 H 1033.21 1.79608 -2.39544 0
M  V30 10460 H 1030.76 0.862693 -1.15298 0
M  V30 10461 H 1032.71 3.99417 -1.34329 0
M  V30 10462 H 1031.44 3.24717 -0.350191 0
M  V30 10463 H 1030.1 2.75024 -2.42399 0
M  V30 10464 H 1029.74 4.89007 -1.17819 0
M  V30 10465 H 1029.44 5.09805 -2.92186 0
M  V30 10466 H 1030.97 5.69405 -2.20478 0
M  V30 10467 H 1032.38 4.19309 -3.90964 0
M  V30 10468 H 1030.78 3.83542 -4.61536 0
M  V30 10469 H 1031.85 2.49873 -4.15562 0
M  V30 10470 N 1033.19 1.2685 0.935242 0
M  V30 10471 C 1034.6 1.11569 1.49697 0
M  V30 10472 C 1034.95 -0.301952 1.93863 0
M  V30 10473 O 1034.08 -1.19408 1.80473 0
M  V30 10474 C 1034.67 2.01918 2.72056 0
M  V30 10475 C 1033.23 1.90765 3.24477 0
M  V30 10476 C 1032.38 1.94918 1.97237 0
M  V30 10477 H 1035.33 1.39853 0.750116 0
M  V30 10478 H 1035.35 1.57056 3.46574 0
M  V30 10479 H 1034.86 3.05088 2.39881 0
M  V30 10480 H 1032.96 0.905521 3.61429 0
M  V30 10481 H 1033.08 2.76611 3.91182 0
M  V30 10482 H 1031.44 1.39046 2.13397 0
M  V30 10483 H 1032.22 2.99729 1.67385 0
M  V30 10484 N 1034.67 -1.14067 1.0875 0
M  V30 10485 C 1035.6 -2.18926 0.67852 0
M  V30 10486 C 1036.62 -1.60441 -0.276163 0
M  V30 10487 O 1037.8 -1.78388 -0.0632788 0
M  V30 10488 C 1034.9 -3.38893 -0.0218852 0
M  V30 10489 C 1034.08 -4.26901 0.952582 0
M  V30 10490 C 1033.14 -5.25418 0.286859 0
M  V30 10491 O 1032.16 -5.61512 0.932354 0
M  V30 10492 N 1033.36 -5.72476 -0.961831 0
M  V30 10493 H 1036.13 -2.54629 1.58063 0
M  V30 10494 H 1033.69 -1.29321 0.974042 0
M  V30 10495 H 1035.68 -4.01864 -0.478278 0
M  V30 10496 H 1034.25 -3.01486 -0.826141 0
M  V30 10497 H 1033.47 -3.60812 1.58772 0
M  V30 10498 H 1034.76 -4.82563 1.61279 0
M  V30 10499 H 1034.16 -5.45287 -1.50594 0
M  V30 10500 H 1032.72 -6.37418 -1.36166 0
M  V30 10501 N 1036.15 -0.873678 -1.31166 0
M  V30 10502 C 1037.08 -0.348011 -2.30892 0
M  V30 10503 C 1038.06 0.563092 -1.60509 0
M  V30 10504 O 1039.24 0.479332 -1.88192 0
M  V30 10505 C 1036.37 0.448158 -3.44396 0
M  V30 10506 C 1035.33 -0.370179 -4.26396 0
M  V30 10507 C 1034.65 0.551903 -5.31844 0
M  V30 10508 C 1035.95 -1.60624 -4.96988 0
M  V30 10509 H 1037.65 -1.18134 -2.75109 0
M  V30 10510 H 1035.19 -0.569502 -1.3226 0
M  V30 10511 H 1037.15 0.826458 -4.13216 0
M  V30 10512 H 1035.87 1.31503 -2.98956 0
M  V30 10513 H 1034.53 -0.730472 -3.59249 0
M  V30 10514 H 1034.18 1.41616 -4.82653 0
M  V30 10515 H 1033.88 0.00823478 -5.87599 0
M  V30 10516 H 1035.4 0.926965 -6.03523 0
M  V30 10517 H 1036.82 -1.29917 -5.58386 0
M  V30 10518 H 1035.21 -2.08926 -5.62557 0
M  V30 10519 H 1036.28 -2.357 -4.23761 0
M  V30 10520 N 1037.63 1.44308 -0.633487 0
M  V30 10521 C 1038.87 2.02322 -0.139123 0
M  V30 10522 C 1039.21 1.49733 1.23667 0
M  V30 10523 O 1038.48 0.682353 1.82138 0
M  V30 10524 C 1038.76 3.59871 -0.128366 0
M  V30 10525 C 1038.62 4.22737 -1.53667 0
M  V30 10526 C 1039.94 4.36702 0.545834 0
M  V30 10527 H 1037.05 0.735161 -0.0520293 0
M  V30 10528 H 1039.7 1.7185 -0.810411 0
M  V30 10529 H 1037.85 3.85963 0.443263 0
M  V30 10530 H 1039.52 4.07744 -2.15737 0
M  V30 10531 H 1037.76 3.80142 -2.08985 0
M  V30 10532 H 1038.43 5.31757 -1.48116 0
M  V30 10533 H 1040.91 4.16057 0.0596879 0
M  V30 10534 H 1039.78 5.46407 0.522557 0
M  V30 10535 H 1040.05 4.11483 1.6166 0
M  V30 10536 N 1039.1 0.374177 1.53094 0
M  V30 10537 C 1040.07 -0.455999 2.24618 0
M  V30 10538 C 1041.07 -1.00269 1.25709 0
M  V30 10539 O 1042.26 -0.887077 1.49922 0
M  V30 10540 C 1039.39 -1.63822 2.98957 0
M  V30 10541 H 1040.58 0.169986 2.99418 0
M  V30 10542 H 1038.14 0.126015 1.55791 0
M  V30 10543 H 1038.87 -2.30205 2.28421 0
M  V30 10544 H 1038.66 -1.25308 3.71538 0
M  V30 10545 H 1040.15 -2.22633 3.53305 0
M  V30 10546 N 1040.58 -1.57259 0.103575 0
M  V30 10547 C 1041.55 -2.13337 -0.837859 0
M  V30 10548 C 1042.55 -1.06459 -1.20512 0
M  V30 10549 O 1043.74 -1.32307 -1.13316 0
M  V30 10550 C 1040.87 -2.66093 -2.13089 0
M  V30 10551 H 1042.06 -2.97842 -0.350775 0
M  V30 10552 H 1039.61 -1.55621 -0.145511 0
M  V30 10553 H 1040.35 -1.85133 -2.66264 0
M  V30 10554 H 1040.13 -3.44244 -1.87719 0
M  V30 10555 H 1041.62 -3.09443 -2.80419 0
M  V30 10556 N 1042.06 0.170153 -1.56679 0
M  V30 10557 C 1043.31 0.886592 -1.8206 0
M  V30 10558 C 1043.64 1.82194 -0.680839 0
M  V30 10559 O 1042.89 1.92866 0.331822 0
M  V30 10560 C 1043.19 1.71402 -3.13618 0
M  V30 10561 C 1042.86 0.927489 -4.41258 0
M  V30 10562 C 1041.52 0.710417 -4.75927 0
M  V30 10563 C 1043.87 0.375855 -5.19843 0
M  V30 10564 C 1041.2 -0.0693691 -5.86659 0
M  V30 10565 C 1043.55 -0.390849 -6.31391 0
M  V30 10566 C 1042.21 -0.61871 -6.64626 0
M  V30 10567 H 1041.48 0.324427 -0.666204 0
M  V30 10568 H 1044.13 0.151464 -1.909 0
M  V30 10569 H 1042.44 2.51858 -3.00125 0
M  V30 10570 H 1044.13 2.27141 -3.30466 0
M  V30 10571 H 1040.72 1.10672 -4.14065 0
M  V30 10572 H 1044.91 0.530897 -4.93452 0
M  V30 10573 H 1040.16 -0.255637 -6.10865 0
M  V30 10574 H 1044.34 -0.825544 -6.9149 0
M  V30 10575 H 1041.96 -1.22482 -7.50268 0
M  V30 10576 N 1043.54 1.5137 0.438746 0
M  V30 10577 C 1044.49 1.68966 1.53083 0
M  V30 10578 C 1045.47 0.543669 1.51437 0
M  V30 10579 O 1046.66 0.799519 1.57914 0
M  V30 10580 C 1043.79 1.8168 2.91286 0
M  V30 10581 C 1042.88 3.02059 2.97693 0
M  V30 10582 N 1043.27 4.25254 2.73848 0
M  V30 10583 C 1041.57 3.01284 3.28852 0
M  V30 10584 C 1042.27 5.06501 2.86062 0
M  V30 10585 N 1041.25 4.41119 3.17671 0
M  V30 10586 H 1045.05 2.61883 1.33397 0
M  V30 10587 H 1042.56 1.48997 0.64603 0
M  V30 10588 H 1044.56 1.92396 3.6985 0
M  V30 10589 H 1043.22 0.899438 3.11994 0
M  V30 10590 H 1044.23 4.54222 2.48803 0
M  V30 10591 H 1040.91 2.19174 3.55344 0
M  V30 10592 H 1042.3 6.14563 2.71592 0
M  V30 10593 N 1045.02 -0.694098 1.41492 0
M  V30 10594 C 1046.24 -1.48789 1.44488 0
M  V30 10595 C 1046.67 -1.88028 0.0521588 0
M  V30 10596 O 1046.02 -1.54727 -0.944952 0
M  V30 10597 C 1046.07 -2.72586 2.3607 0
M  V30 10598 O 1045.18 -3.70128 1.81876 0
M  V30 10599 H 1044.52 -0.447758 0.490315 0
M  V30 10600 H 1047.05 -0.853036 1.85969 0
M  V30 10601 H 1047.06 -3.20877 2.51995 0
M  V30 10602 H 1045.73 -2.43363 3.37264 0
M  V30 10603 H 1044.31 -3.29069 1.75408 0
M  V30 10604 N 1046.49 -1.27344 -0.928501 0
M  V30 10605 C 1047.42 -1.12517 -2.04602 0
M  V30 10606 C 1048.41 -0.0268563 -1.70079 0
M  V30 10607 O 1049.59 -0.201197 -1.93155 0
M  V30 10608 C 1046.72 -0.770749 -3.3864 0
M  V30 10609 C 1045.67 -1.8222 -3.87272 0
M  V30 10610 C 1045 -1.32178 -5.18105 0
M  V30 10611 C 1046.3 -3.22614 -4.10752 0
M  V30 10612 H 1047.99 -2.06 -2.17265 0
M  V30 10613 H 1045.54 -0.991827 -1.04397 0
M  V30 10614 H 1047.49 -0.653843 -4.16297 0
M  V30 10615 H 1046.22 0.19979 -3.25988 0
M  V30 10616 H 1044.88 -1.928 -3.11807 0
M  V30 10617 H 1044.52 -0.340719 -5.01845 0
M  V30 10618 H 1044.22 -2.02474 -5.51614 0
M  V30 10619 H 1045.75 -1.2178 -5.98333 0
M  V30 10620 H 1047.16 -3.1504 -4.78981 0
M  V30 10621 H 1045.56 -3.90614 -4.55566 0
M  V30 10622 H 1046.63 -3.67727 -3.16077 0
M  V30 10623 N 1047.97 1.13488 -1.09353 0
M  V30 10624 C 1049.22 1.85022 -0.830354 0
M  V30 10625 C 1049.55 1.83266 0.64242 0
M  V30 10626 O 1048.83 1.27024 1.47293 0
M  V30 10627 C 1049.11 3.33218 -1.36521 0
M  V30 10628 C 1048.96 3.43491 -2.90404 0
M  V30 10629 C 1050.28 4.28626 -0.998381 0
M  V30 10630 H 1047.4 0.671786 -0.303105 0
M  V30 10631 H 1050.04 1.33211 -1.3548 0
M  V30 10632 H 1048.19 3.77471 -0.919117 0
M  V30 10633 H 1049.86 3.07954 -3.43456 0
M  V30 10634 H 1048.11 2.84391 -3.27573 0
M  V30 10635 H 1048.78 4.47702 -3.22905 0
M  V30 10636 H 1051.25 3.9244 -1.38311 0
M  V30 10637 H 1050.13 5.30754 -1.39968 0
M  V30 10638 H 1050.39 4.42001 0.093517 0
M  V30 10639 N 1049.45 0.880621 1.30701 0
M  V30 10640 C 1050.7 0.495894 1.95922 0
M  V30 10641 C 1051.02 -0.957214 1.69889 0
M  V30 10642 O 1050.29 -1.67245 1.0201 0
M  V30 10643 H 1048.87 0.180394 0.724891 0
M  V30 10644 H 1051.53 1.12274 1.59313 0
M  V30 10645 H 1050.63 0.662508 3.04987 0
M  V30 10646 N 1050.93 -1.4397 0.641131 0
M  V30 10647 C 1051.86 -2.33458 -0.04446 0
M  V30 10648 C 1052.84 -1.48781 -0.824507 0
M  V30 10649 O 1054.03 -1.77477 -0.788397 0
M  V30 10650 C 1051.16 -3.31989 -1.01984 0
M  V30 10651 C 1050.11 -4.2656 -0.350745 0
M  V30 10652 C 1049.44 -5.15036 -1.43673 0
M  V30 10653 C 1050.74 -5.16897 0.749299 0
M  V30 10654 H 1052.43 -2.91034 0.702832 0
M  V30 10655 H 1049.98 -1.39942 0.339435 0
M  V30 10656 H 1051.93 -3.93483 -1.50828 0
M  V30 10657 H 1050.65 -2.72643 -1.79815 0
M  V30 10658 H 1049.31 -3.66413 0.117139 0
M  V30 10659 H 1048.96 -4.52037 -2.20617 0
M  V30 10660 H 1048.66 -5.79125 -0.994358 0
M  V30 10661 H 1050.18 -5.79403 -1.92678 0
M  V30 10662 H 1051.6 -5.7227 0.343534 0
M  V30 10663 H 1049.99 -5.89643 1.11541 0
M  V30 10664 H 1051.06 -4.5731 1.61232 0
M  V30 10665 N 1052.41 -0.382291 -1.52893 0
M  V30 10666 C 1053.37 0.44408 -2.24857 0
M  V30 10667 C 1054.37 0.996004 -1.26239 0
M  V30 10668 O 1055.56 0.879114 -1.5039 0
M  V30 10669 C 1052.69 1.62234 -2.99822 0
M  V30 10670 H 1053.89 -0.185862 -2.99324 0
M  V30 10671 H 1051.44 -0.134275 -1.55722 0
M  V30 10672 H 1052.17 2.28991 -2.29638 0
M  V30 10673 H 1051.96 1.23336 -3.72197 0
M  V30 10674 H 1053.45 2.20756 -3.54481 0
M  V30 10675 N 1053.89 1.57202 -0.111913 0
M  V30 10676 C 1054.85 2.13778 0.826534 0
M  V30 10677 C 1055.85 1.07097 1.19945 0
M  V30 10678 O 1057.04 1.32906 1.12613 0
M  V30 10679 C 1054.17 2.6722 2.11675 0
M  V30 10680 H 1055.36 2.98023 0.334975 0
M  V30 10681 H 1052.92 1.55696 0.137256 0
M  V30 10682 H 1053.65 1.86542 2.65278 0
M  V30 10683 H 1053.44 3.45235 1.8589 0
M  V30 10684 H 1054.93 3.10926 2.78774 0
M  V30 10685 N 1055.36 -0.161842 1.56767 0
M  V30 10686 C 1056.61 -0.878224 1.82798 0
M  V30 10687 C 1056.94 -1.81481 0.691242 0
M  V30 10688 O 1056.22 -1.92075 -0.30618 0
M  V30 10689 C 1056.5 -1.66565 3.19262 0
M  V30 10690 C 1056.35 -0.751551 4.43477 0
M  V30 10691 C 1057.67 -2.63134 3.52773 0
M  V30 10692 H 1054.79 -0.317828 0.664947 0
M  V30 10693 H 1057.43 -0.14402 1.89453 0
M  V30 10694 H 1055.58 -2.29157 3.13719 0
M  V30 10695 H 1057.26 -0.137783 4.61094 0
M  V30 10696 H 1055.5 -0.0601785 4.33758 0
M  V30 10697 H 1056.17 -1.33823 5.35533 0
M  V30 10698 H 1058.65 -2.10666 3.5883 0
M  V30 10699 H 1057.52 -3.15289 4.49315 0
M  V30 10700 H 1057.78 -3.43786 2.77963 0
M  V30 10701 N 1056.84 -1.516 -0.430713 0
M  V30 10702 C 1057.77 -1.76342 -1.53054 0
M  V30 10703 C 1058.75 -0.61349 -1.58652 0
M  V30 10704 O 1059.94 -0.856888 -1.74273 0
M  V30 10705 C 1057.07 -1.8945 -2.91077 0
M  V30 10706 C 1056.02 -3.04928 -3.00339 0
M  V30 10707 C 1055.35 -3.03228 -4.40405 0
M  V30 10708 C 1056.65 -4.44777 -2.73808 0
M  V30 10709 H 1058.34 -2.68435 -1.326 0
M  V30 10710 H 1055.89 -1.29171 -0.636466 0
M  V30 10711 H 1057.84 -2.05343 -3.67984 0
M  V30 10712 H 1056.56 -0.940114 -3.12777 0
M  V30 10713 H 1055.22 -2.88751 -2.25872 0
M  V30 10714 H 1054.87 -2.05553 -4.59083 0
M  V30 10715 H 1054.57 -3.80776 -4.47531 0
M  V30 10716 H 1056.1 -3.21222 -5.19277 0
M  V30 10717 H 1057.51 -4.6127 -3.40445 0
M  V30 10718 H 1055.91 -5.2408 -2.92335 0
M  V30 10719 H 1056.98 -4.54358 -1.69372 0
M  V30 10720 N 1058.32 0.686584 -1.41858 0
M  V30 10721 C 1059.55 1.47519 -1.45072 0
M  V30 10722 C 1059.96 1.88709 -0.0585868 0
M  V30 10723 O 1059.32 1.57373 0.924116 0
M  V30 10724 C 1059.37 2.73195 -2.36742 0
M  V30 10725 O 1059.09 2.33736 -3.70539 0
M  V30 10726 C 1060.59 3.66861 -2.48854 0
M  V30 10727 H 1057.81 0.454307 -0.493808 0
M  V30 10728 H 1060.36 0.844612 -1.86243 0
M  V30 10729 H 1058.51 3.32468 -1.98856 0
M  V30 10730 H 1058.93 3.14809 -4.19518 0
M  V30 10731 H 1060.4 4.51801 -3.17143 0
M  V30 10732 H 1060.88 4.11961 -1.52265 0
M  V30 10733 H 1061.48 3.13486 -2.87414 0
M  V30 10734 N 1059.8 1.27835 0.921735 0
M  V30 10735 C 1061.04 1.15766 1.68457 0
M  V30 10736 C 1061.4 -0.290542 1.89789 0
M  V30 10737 O 1062.6 -0.53378 2.63447 0
M  V30 10738 C 1060.87 1.92591 3.0107 0
M  V30 10739 S 1062.43 1.96804 3.92191 0
M  V30 10740 H 1059.25 0.413169 0.578629 0
M  V30 10741 H 1061.85 1.61826 1.09693 0
M  V30 10742 H 1060.56 2.96991 2.8324 0
M  V30 10743 H 1060.09 1.47049 3.64884 0
M  V30 10744 H 1062.1 1.06877 4.84553 0
M  V30 10745 N 1061.28 -1.12907 1.09954 0
M  V30 10746 C 1062.52 -1.83661 0.833761 0
M  V30 10747 C 1062.84 -1.84736 -0.642798 0
M  V30 10748 O 1064.04 -2.51437 -1.0243 0
M  V30 10749 C 1062.5 -3.29763 1.44168 0
M  V30 10750 C 1062.11 -3.3706 2.95118 0
M  V30 10751 C 1063.85 -4.05522 1.25509 0
M  V30 10752 C 1061.76 -4.77467 3.48969 0
M  V30 10753 H 1060.69 -0.688115 0.308242 0
M  V30 10754 H 1063.34 -1.27166 1.32291 0
M  V30 10755 H 1061.72 -3.86094 0.880215 0
M  V30 10756 H 1062.9 -2.90695 3.57537 0
M  V30 10757 H 1061.21 -2.7477 3.12874 0
M  V30 10758 H 1063.81 -5.09188 1.63191 0
M  V30 10759 H 1064.15 -4.15837 0.196208 0
M  V30 10760 H 1064.68 -3.55536 1.78435 0
M  V30 10761 H 1061.42 -4.72344 4.54501 0
M  V30 10762 H 1060.94 -5.24305 2.91315 0
M  V30 10763 H 1062.62 -5.46397 3.46495 0
M  V30 10764 N 1062.75 -0.88754 -1.30232 0
M  V30 10765 C 1063.72 -0.361095 -2.26338 0
M  V30 10766 C 1064.72 0.497871 -1.52898 0
M  V30 10767 O 1065.91 0.30466 -1.71515 0
M  V30 10768 C 1063.04 0.485135 -3.3743 0
M  V30 10769 H 1064.23 -1.20973 -2.74419 0
M  V30 10770 H 1061.78 -0.664619 -1.41466 0
M  V30 10771 H 1062.52 1.35425 -2.9467 0
M  V30 10772 H 1062.3 -0.130173 -3.91884 0
M  V30 10773 H 1063.79 0.845169 -4.08958 0
M  V30 10774 N 1064.23 1.43628 -0.648757 0
M  V30 10775 C 1065.14 2.34554 0.0463037 0
M  V30 10776 C 1066.16 1.53629 0.816952 0
M  V30 10777 O 1067.33 1.86297 0.765212 0
M  V30 10778 C 1064.4 3.3185 1.00381 0
M  V30 10779 C 1063.46 4.2868 0.230589 0
M  V30 10780 C 1062.69 5.21328 1.14249 0
M  V30 10781 O 1062.92 5.18298 2.38166 0
M  V30 10782 O 1061.85 5.98726 0.617296 0
M  V30 10783 H 1065.68 2.95475 -0.702008 0
M  V30 10784 H 1063.26 1.43694 -0.408942 0
M  V30 10785 H 1065.14 3.91692 1.5542 0
M  V30 10786 H 1063.82 2.73439 1.73243 0
M  V30 10787 H 1062.73 3.72332 -0.363282 0
M  V30 10788 H 1064.06 4.90061 -0.458368 0
M  V30 10789 N 1065.71 0.390394 1.52688 0
M  V30 10790 C 1066.94 -0.191207 2.05713 0
M  V30 10791 C 1067.35 -1.40973 1.26188 0
M  V30 10792 O 1066.69 -1.81202 0.301938 0
M  V30 10793 C 1066.75 -0.624794 3.54029 0
M  V30 10794 C 1066.42 0.480413 4.54468 0
M  V30 10795 C 1067.41 1.33816 5.02384 0
M  V30 10796 C 1065.1 0.647754 4.98106 0
M  V30 10797 C 1067.09 2.34836 5.92563 0
M  V30 10798 C 1064.78 1.66129 5.88085 0
M  V30 10799 C 1065.78 2.51001 6.35206 0
M  V30 10800 O 1065.47 3.50622 7.23408 0
M  V30 10801 H 1065.2 -0.032221 0.675232 0
M  V30 10802 H 1067.75 0.554431 1.97776 0
M  V30 10803 H 1065.98 -1.42243 3.59589 0
M  V30 10804 H 1067.67 -1.13219 3.8979 0
M  V30 10805 H 1068.44 1.22019 4.694 0
M  V30 10806 H 1064.32 -0.00314511 4.61 0
M  V30 10807 H 1067.86 3.01117 6.29265 0
M  V30 10808 H 1063.76 1.77964 6.20483 0
M  V30 10809 H 1064.53 3.46644 7.41472 0
M  V30 10810 N 1067.19 -1.57141 0.120249 0
M  V30 10811 C 1068.44 -1.94413 -0.53727 0
M  V30 10812 C 1068.75 -1.00594 -1.67751 0
M  V30 10813 O 1069.96 -1.27336 -2.39787 0
M  V30 10814 C 1068.41 -3.45521 -1.00714 0
M  V30 10815 C 1068.02 -4.47878 0.104706 0
M  V30 10816 C 1069.76 -3.9171 -1.63596 0
M  V30 10817 C 1067.67 -5.90165 -0.381932 0
M  V30 10818 H 1066.6 -0.725745 -0.204475 0
M  V30 10819 H 1069.25 -1.82404 0.200302 0
M  V30 10820 H 1067.63 -3.52769 -1.79917 0
M  V30 10821 H 1068.81 -4.523 0.881002 0
M  V30 10822 H 1067.12 -4.11448 0.640264 0
M  V30 10823 H 1069.72 -4.95433 -2.01122 0
M  V30 10824 H 1070.06 -3.31756 -2.51483 0
M  V30 10825 H 1070.6 -3.87268 -0.909319 0
M  V30 10826 H 1067.34 -6.53877 0.460921 0
M  V30 10827 H 1066.86 -5.89161 -1.12468 0
M  V30 10828 H 1068.53 -6.41488 -0.842748 0
M  V30 10829 N 1068.67 0.153526 -1.5685 0
M  V30 10830 C 1069.92 0.865628 -1.82181 0
M  V30 10831 C 1070.23 1.82629 -0.700434 0
M  V30 10832 O 1071.43 2.58206 -0.839155 0
M  V30 10833 C 1069.89 1.58993 -3.22877 0
M  V30 10834 C 1069.5 0.672006 -4.42931 0
M  V30 10835 C 1071.24 2.2892 -3.57486 0
M  V30 10836 C 1069.15 1.39755 -5.7465 0
M  V30 10837 H 1068.08 0.326993 -0.679406 0
M  V30 10838 H 1070.73 0.118403 -1.83118 0
M  V30 10839 H 1069.11 2.38255 -3.16308 0
M  V30 10840 H 1070.29 -0.0849226 -4.60722 0
M  V30 10841 H 1068.6 0.0814825 -4.1632 0
M  V30 10842 H 1071.2 2.8383 -4.5315 0
M  V30 10843 H 1071.54 3.05105 -2.83226 0
M  V30 10844 H 1072.07 1.56583 -3.65686 0
M  V30 10845 H 1068.81 0.677686 -6.51987 0
M  V30 10846 H 1068.33 2.12736 -5.60806 0
M  V30 10847 H 1070.01 1.94024 -6.17223 0
M  V30 10848 N 1070.14 1.51827 0.422667 0
M  V30 10849 C 1071.05 1.77066 1.53899 0
M  V30 10850 C 1072.07 0.655541 1.61179 0
M  V30 10851 O 1073.25 0.939448 1.78147 0
M  V30 10852 C 1070.31 1.90372 2.89758 0
M  V30 10853 C 1069.37 3.14256 2.92475 0
M  V30 10854 C 1068.61 3.26918 4.21853 0
M  V30 10855 O 1068.83 2.45164 5.15025 0
M  V30 10856 O 1067.76 4.19989 4.31153 0
M  V30 10857 H 1071.59 2.71791 1.35511 0
M  V30 10858 H 1069.17 1.36506 0.607165 0
M  V30 10859 H 1071.06 2.01024 3.70361 0
M  V30 10860 H 1069.73 0.988347 3.08242 0
M  V30 10861 H 1068.64 3.09072 2.10773 0
M  V30 10862 H 1069.97 4.0553 2.78937 0
M  V30 10863 N 1071.62 -0.679052 1.4222 0
M  V30 10864 C 1072.85 -1.46534 1.45641 0
M  V30 10865 C 1073.26 -1.89088 0.0649574 0
M  V30 10866 O 1072.6 -1.58436 -0.929712 0
M  V30 10867 C 1072.67 -2.74882 2.3169 0
M  V30 10868 C 1072.33 -2.5443 3.79624 0
M  V30 10869 C 1073.33 -2.19307 4.71382 0
M  V30 10870 C 1071.01 -2.69557 4.23845 0
M  V30 10871 C 1073.01 -1.99571 6.05351 0
M  V30 10872 C 1070.69 -2.49437 5.57875 0
M  V30 10873 C 1071.69 -2.14497 6.48444 0
M  V30 10874 O 1071.38 -1.94567 7.79999 0
M  V30 10875 H 1071.11 -0.457542 0.497626 0
M  V30 10876 H 1073.66 -0.842145 1.87342 0
M  V30 10877 H 1071.89 -3.39669 1.8483 0
M  V30 10878 H 1073.58 -3.3675 2.26615 0
M  V30 10879 H 1074.35 -2.0722 4.38503 0
M  V30 10880 H 1070.23 -2.95733 3.53642 0
M  V30 10881 H 1073.77 -1.72222 6.76007 0
M  V30 10882 H 1069.67 -2.61119 5.90328 0
M  V30 10883 H 1070.44 -2.092 7.91314 0
M  V30 10884 N 1073.1 -1.28322 -0.914942 0
M  V30 10885 C 1074.51 -1.13937 -1.47903 0
M  V30 10886 C 1074.86 0.271072 -1.94318 0
M  V30 10887 O 1073.99 1.16522 -1.8235 0
M  V30 10888 C 1074.58 -2.06221 -2.68809 0
M  V30 10889 C 1073.14 -1.95903 -3.21402 0
M  V30 10890 C 1072.29 -1.98031 -1.94111 0
M  V30 10891 H 1075.24 -1.41029 -0.727772 0
M  V30 10892 H 1075.26 -1.6255 -3.44031 0
M  V30 10893 H 1074.77 -3.08866 -2.34997 0
M  V30 10894 H 1072.87 -0.962907 -3.59943 0
M  V30 10895 H 1072.99 -2.82799 -3.86732 0
M  V30 10896 H 1071.35 -1.42423 -2.11158 0
M  V30 10897 H 1072.13 -3.02354 -1.62595 0
M  V30 10898 N 1074.58 1.12322 -1.10551 0
M  V30 10899 C 1075.53 2.16177 -0.724679 0
M  V30 10900 C 1076.51 1.58674 0.266739 0
M  V30 10901 O 1077.7 1.7684 0.0752872 0
M  V30 10902 C 1074.83 3.4293 -0.159413 0
M  V30 10903 C 1073.92 4.07413 -1.17794 0
M  V30 10904 N 1074.31 4.46889 -2.36905 0
M  V30 10905 C 1072.61 4.34209 -1.01874 0
M  V30 10906 C 1073.31 4.97291 -3.01789 0
M  V30 10907 N 1072.29 4.92871 -2.29302 0
M  V30 10908 H 1076.09 2.44466 -1.63136 0
M  V30 10909 H 1073.6 1.2924 -0.983407 0
M  V30 10910 H 1075.6 4.16693 0.131502 0
M  V30 10911 H 1074.26 3.16109 0.741975 0
M  V30 10912 H 1075.27 4.39219 -2.74422 0
M  V30 10913 H 1071.95 4.17141 -0.173013 0
M  V30 10914 H 1073.34 5.3754 -4.03114 0
M  V30 10915 N 1076.06 0.894434 1.2976 0
M  V30 10916 C 1077.3 0.517669 1.95771 0
M  V30 10917 C 1077.63 -0.935028 1.70551 0
M  V30 10918 O 1076.89 -1.67722 1.00835 0
M  V30 10919 C 1077.19 0.750307 3.49435 0
M  V30 10920 C 1076.85 2.17955 3.94723 0
M  V30 10921 C 1075.51 2.57036 4.068 0
M  V30 10922 C 1077.87 3.11053 4.18205 0
M  V30 10923 C 1075.19 3.88406 4.39724 0
M  V30 10924 C 1077.55 4.41966 4.52602 0
M  V30 10925 C 1076.21 4.80927 4.62888 0
M  V30 10926 H 1075.48 0.189428 0.716378 0
M  V30 10927 H 1078.13 1.13209 1.54454 0
M  V30 10928 H 1076.43 0.0529242 3.91764 0
M  V30 10929 H 1078.13 0.438251 3.98598 0
M  V30 10930 H 1074.72 1.86622 3.85837 0
M  V30 10931 H 1078.9 2.82076 4.08347 0
M  V30 10932 H 1074.16 4.18321 4.4589 0
M  V30 10933 H 1078.33 5.14134 4.69722 0
M  V30 10934 H 1075.96 5.82759 4.88156 0
M  V30 10935 N 1077.53 -1.43282 0.656365 0
M  V30 10936 C 1078.5 -2.29188 -0.0239173 0
M  V30 10937 C 1079.5 -1.42373 -0.747436 0
M  V30 10938 O 1080.69 -1.63969 -0.588213 0
M  V30 10939 C 1077.82 -3.24501 -1.0446 0
M  V30 10940 H 1079.01 -2.9083 0.731978 0
M  V30 10941 H 1076.57 -1.50614 0.417752 0
M  V30 10942 H 1077.3 -2.6776 -1.82962 0
M  V30 10943 H 1077.09 -3.88509 -0.52942 0
M  V30 10944 H 1078.58 -3.88971 -1.51958 0
M  V30 10945 N 1079.01 -0.398486 -1.52479 0
M  V30 10946 C 1080.24 0.180557 -2.06111 0
M  V30 10947 C 1080.66 1.39751 -1.26945 0
M  V30 10948 O 1080.01 1.79699 -0.318497 0
M  V30 10949 C 1080.06 0.541573 -3.5742 0
M  V30 10950 O 1079.79 -0.627043 -4.33589 0
M  V30 10951 C 1081.29 1.17549 -4.27431 0
M  V30 10952 H 1078.51 0.0250754 -0.670531 0
M  V30 10953 H 1081.05 -0.566368 -1.96501 0
M  V30 10954 H 1079.21 1.23839 -3.67073 0
M  V30 10955 H 1079.62 -0.328233 -5.23472 0
M  V30 10956 H 1081.09 1.37839 -5.34513 0
M  V30 10957 H 1081.57 2.14553 -3.83228 0
M  V30 10958 H 1082.18 0.51918 -4.22119 0
M  V30 10959 N 1080.49 1.57075 -0.12858 0
M  V30 10960 C 1081.77 1.87075 0.571162 0
M  V30 10961 C 1082.15 1.03141 1.84188 0
M  V30 10962 O 1081.5 0.113001 2.2822 0
M  V30 10963 C 1081.71 3.3838 0.854383 0
M  V30 10964 C 1083.05 4.07194 1.20326 0
M  V30 10965 O 1084.08 3.43454 0.944338 0
M  V30 10966 O 1082.94 5.19725 1.68963 0
M  V30 10967 H 1080.03 0.774764 0.289258 0
M  V30 10968 H 1082.58 1.68908 -0.163806 0
M  V30 10969 H 1081.35 3.91273 -0.0456925 0
M  V30 10970 H 1080.97 3.62012 1.64418 0
M  V30 10971 N 1081.97 -0.145205 1.5693 0
M  V30 10972 C 1082.93 -1.16316 1.97492 0
M  V30 10973 C 1083.93 -1.35764 0.861668 0
M  V30 10974 O 1085.12 -1.32726 1.12825 0
M  V30 10975 C 1082.25 -2.52311 2.29242 0
M  V30 10976 H 1083.45 -0.815138 2.8861 0
M  V30 10977 H 1081 -0.38861 1.51392 0
M  V30 10978 H 1081.74 -2.92081 1.40922 0
M  V30 10979 H 1081.52 -2.39555 3.10412 0
M  V30 10980 H 1083.01 -3.25624 2.61456 0
M  V30 10981 N 1083.45 -1.52049 -0.414609 0
M  V30 10982 C 1084.41 -1.74382 -1.4874 0
M  V30 10983 C 1085.41 -0.613701 -1.48628 0
M  V30 10984 O 1086.6 -0.88152 -1.50249 0
M  V30 10985 C 1083.73 -1.82116 -2.88178 0
M  V30 10986 H 1084.93 -2.70147 -1.30233 0
M  V30 10987 H 1082.48 -1.42382 -0.644756 0
M  V30 10988 H 1083.21 -0.882457 -3.12063 0
M  V30 10989 H 1083 -2.64268 -2.89663 0
M  V30 10990 H 1084.49 -2.01155 -3.65959 0
M  V30 10991 N 1084.93 0.6715 -1.42579 0
M  V30 10992 C 1085.89 1.76676 -1.46008 0
M  V30 10993 C 1086.89 1.57007 -0.347213 0
M  V30 10994 O 1088.08 1.63238 -0.608185 0
M  V30 10995 C 1085.21 3.15348 -1.29494 0
M  V30 10996 H 1086.4 1.75021 -2.43531 0
M  V30 10997 H 1083.96 0.881444 -1.29075 0
M  V30 10998 H 1084.69 3.22626 -0.32906 0
M  V30 10999 H 1084.48 3.31028 -2.10149 0
M  V30 11000 H 1085.97 3.95251 -1.34784 0
M  V30 11001 N 1086.4 1.28806 0.908124 0
M  V30 11002 C 1087.35 1.13083 2.03261 0
M  V30 11003 C 1088.35 0.0486094 1.6933 0
M  V30 11004 O 1089.55 0.207794 1.78797 0
M  V30 11005 H 1085.93 0.349057 0.666081 0
M  V30 11006 H 1087.9 2.08304 2.13663 0
M  V30 11007 C 1086.65 0.815339 3.38005 0
M  V30 11008 H 1085.97 1.64007 3.64612 0
M  V30 11009 H 1087.41 0.745311 4.17398 0
M  V30 11010 C 1085.87 -0.48113 3.33447 0
M  V30 11011 O 1086.4 -1.50974 3.7225 0
M  V30 11012 N 1084.6 -0.483912 2.86543 0
M  V30 11013 H 1084.15 0.353593 2.55162 0
M  V30 11014 H 1084.11 -1.35138 2.83875 0
M  V30 11015 N 1087.88 -1.11734 1.11145 0
M  V30 11016 C 1088.81 -2.1976 0.789152 0
M  V30 11017 C 1089.79 -1.68382 -0.241143 0
M  V30 11018 O 1090.98 -1.93914 -0.105292 0
M  V30 11019 C 1088.11 -3.46549 0.228204 0
M  V30 11020 C 1087.06 -4.11123 1.19002 0
M  V30 11021 C 1086.39 -5.32451 0.489928 0
M  V30 11022 C 1087.69 -4.56406 2.53951 0
M  V30 11023 H 1089.38 -2.46978 1.69241 0
M  V30 11024 H 1086.93 -1.18705 0.81517 0
M  V30 11025 H 1088.88 -4.21399 -0.00945908 0
M  V30 11026 H 1087.6 -3.18782 -0.71033 0
M  V30 11027 H 1086.26 -3.38264 1.41326 0
M  V30 11028 H 1085.91 -5.00953 -0.453315 0
M  V30 11029 H 1085.61 -5.76605 1.1314 0
M  V30 11030 H 1087.14 -6.10042 0.260984 0
M  V30 11031 H 1088.55 -5.22592 2.35733 0
M  V30 11032 H 1086.95 -5.11363 3.14051 0
M  V30 11033 H 1088.02 -3.7001 3.13402 0
M  V30 11034 N 1089.36 -0.901303 -1.29284 0
M  V30 11035 C 1090.59 -0.543511 -1.99634 0
M  V30 11036 C 1091 0.872154 -1.67448 0
M  V30 11037 O 1090.36 1.57591 -0.920406 0
M  V30 11038 C 1090.41 -0.728148 -3.54091 0
M  V30 11039 O 1090.13 -2.08809 -3.85137 0
M  V30 11040 C 1091.63 -0.375519 -4.41707 0
M  V30 11041 H 1088.85 -0.208405 -0.637815 0
M  V30 11042 H 1091.4 -1.21109 -1.64781 0
M  V30 11043 H 1089.55 -0.107728 -3.8725 0
M  V30 11044 H 1089.97 -2.11863 -4.79807 0
M  V30 11045 H 1091.44 -0.555538 -5.49197 0
M  V30 11046 H 1091.92 0.687532 -4.33785 0
M  V30 11047 H 1092.52 -0.972949 -4.14021 0
M  V30 11048 N 1090.84 1.42931 -0.663954 0
M  V30 11049 C 1091.78 2.3079 0.0210764 0
M  V30 11050 C 1092.75 1.45356 0.803796 0
M  V30 11051 O 1093.94 1.74207 0.778237 0
M  V30 11052 C 1091.08 3.31069 0.974023 0
M  V30 11053 C 1090.19 4.31598 0.186273 0
M  V30 11054 C 1089.33 5.18955 1.13399 0
M  V30 11055 C 1088.37 6.1117 0.337292 0
M  V30 11056 N 1087.5 6.91114 1.23715 0
M  V30 11057 H 1092.34 2.88819 -0.733995 0
M  V30 11058 H 1089.88 1.42274 -0.373711 0
M  V30 11059 H 1091.84 3.87727 1.54024 0
M  V30 11060 H 1090.47 2.74665 1.69585 0
M  V30 11061 H 1089.52 3.77147 -0.496402 0
M  V30 11062 H 1090.83 4.96919 -0.432753 0
M  V30 11063 H 1089.99 5.80292 1.77049 0
M  V30 11064 H 1088.73 4.53785 1.78691 0
M  V30 11065 H 1087.73 5.48911 -0.312492 0
M  V30 11066 H 1088.96 6.78386 -0.31138 0
M  V30 11067 H 1086.9 6.28583 1.87668 0
M  V30 11068 H 1086.82 7.52999 0.672946 0
M  V30 11069 H 1088.09 7.56948 1.86146 0
M  V30 11070 N 1092.32 0.406567 1.52266 0
M  V30 11071 C 1093.56 -0.171391 2.00971 0
M  V30 11072 C 1093.88 -1.46443 1.29668 0
M  V30 11073 O 1095.08 -2.12348 1.69176 0
M  V30 11074 C 1093.54 -0.35599 3.58135 0
M  V30 11075 C 1093.15 0.924803 4.38351 0
M  V30 11076 C 1094.89 -0.889378 4.15079 0
M  V30 11077 C 1092.8 0.707534 5.87152 0
M  V30 11078 H 1091.73 -0.0678253 0.750943 0
M  V30 11079 H 1094.38 0.531619 1.7563 0
M  V30 11080 H 1092.76 -1.12127 3.79794 0
M  V30 11081 H 1093.94 1.69603 4.28452 0
M  V30 11082 H 1092.25 1.38442 3.92712 0
M  V30 11083 H 1094.85 -1.06792 5.23927 0
M  V30 11084 H 1095.19 -1.86334 3.7227 0
M  V30 11085 H 1095.72 -0.183224 3.97378 0
M  V30 11086 H 1092.46 1.65299 6.34316 0
M  V30 11087 H 1091.98 -0.024446 5.99795 0
M  V30 11088 H 1093.66 0.348721 6.4606 0
M  V30 11089 N 1093.79 -1.57004 0.136909 0
M  V30 11090 C 1095.04 -1.96087 -0.517477 0
M  V30 11091 C 1095.37 -1.0213 -1.65176 0
M  V30 11092 O 1094.65 -0.0617958 -1.94402 0
M  V30 11093 C 1094.93 -3.44958 -1.03323 0
M  V30 11094 C 1094.78 -4.49691 0.0988609 0
M  V30 11095 C 1096.1 -3.96091 -1.91832 0
M  V30 11096 H 1093.22 -0.712978 -0.186632 0
M  V30 11097 H 1095.86 -1.88767 0.216095 0
M  V30 11098 H 1094.01 -3.51327 -1.65836 0
M  V30 11099 H 1095.69 -4.55409 0.734847 0
M  V30 11100 H 1093.93 -4.271 0.75947 0
M  V30 11101 H 1094.6 -5.51165 -0.303554 0
M  V30 11102 H 1097.08 -3.92139 -1.39164 0
M  V30 11103 H 1095.95 -5.00742 -2.24831 0
M  V30 11104 H 1096.21 -3.37846 -2.85153 0
M  V30 11105 N 1095.27 0.136881 -1.57004 0
M  V30 11106 C 1096.24 1.15267 -1.98106 0
M  V30 11107 C 1097.24 1.35305 -0.868856 0
M  V30 11108 O 1098.43 1.32126 -1.13527 0
M  V30 11109 C 1095.56 2.51092 -2.30577 0
M  V30 11110 H 1096.75 0.799821 -2.89038 0
M  V30 11111 H 1094.3 0.380576 -1.51596 0
M  V30 11112 H 1095.04 2.9133 -1.42469 0
M  V30 11113 H 1094.82 2.37906 -3.11678 0
M  V30 11114 H 1096.31 3.24232 -2.63179 0
M  V30 11115 N 1096.75 1.52266 0.40654 0
M  V30 11116 C 1097.98 1.70057 1.1732 0
M  V30 11117 C 1098.39 0.41084 1.84686 0
M  V30 11118 O 1097.73 -0.623187 1.72806 0
M  V30 11119 C 1097.79 2.78197 2.27698 0
M  V30 11120 C 1097.46 4.19866 1.80447 0
M  V30 11121 C 1098.45 5.03621 1.29082 0
M  V30 11122 C 1096.14 4.66112 1.87202 0
M  V30 11123 C 1098.13 6.31694 0.850973 0
M  V30 11124 C 1095.82 5.94174 1.42829 0
M  V30 11125 C 1096.82 6.76794 0.918621 0
M  V30 11126 O 1096.51 8.02458 0.481302 0
M  V30 11127 H 1096.24 0.573137 0.358455 0
M  V30 11128 H 1098.79 1.99615 0.484064 0
M  V30 11129 H 1097.02 2.44022 2.99983 0
M  V30 11130 H 1098.71 2.84562 2.89446 0
M  V30 11131 H 1099.48 4.69083 1.23234 0
M  V30 11132 H 1095.36 4.01905 2.25816 0
M  V30 11133 H 1098.9 6.96131 0.452471 0
M  V30 11134 H 1094.8 6.2822 1.48358 0
M  V30 11135 H 1095.57 8.16266 0.604376 0
M  V30 11136 N 1098.23 -0.663929 1.42933 0
M  V30 11137 C 1099.16 -1.78899 1.50058 0
M  V30 11138 C 1100.14 -1.66329 0.356164 0
M  V30 11139 O 1101.32 -1.85587 0.571944 0
M  V30 11140 C 1098.45 -3.17265 1.41281 0
M  V30 11141 C 1097.41 -3.44584 2.53861 0
M  V30 11142 C 1096.73 -4.82638 2.3014 0
M  V30 11143 C 1098.03 -3.40394 3.96143 0
M  V30 11144 H 1099.73 -1.73194 2.44222 0
M  V30 11145 H 1097.27 -0.83182 1.17545 0
M  V30 11146 H 1099.23 -3.95715 1.44872 0
M  V30 11147 H 1097.95 -3.23675 0.43616 0
M  V30 11148 H 1096.61 -2.685 2.49606 0
M  V30 11149 H 1096.26 -4.85711 1.30743 0
M  V30 11150 H 1095.96 -5.01879 3.056 0
M  V30 11151 H 1097.48 -5.63359 2.35497 0
M  V30 11152 H 1098.9 -4.08796 4.01943 0
M  V30 11153 H 1097.29 -3.7117 4.71543 0
M  V30 11154 H 1098.36 -2.38767 4.22041 0
M  V30 11155 N 1099.71 -1.29285 -0.901281 0
M  V30 11156 C 1100.95 -1.16934 -1.64836 0
M  V30 11157 C 1101.28 0.279826 -1.92982 0
M  V30 11158 O 1100.55 1.19179 -1.55478 0
M  V30 11159 H 1099.13 -0.429768 -0.61099 0
M  V30 11160 H 1101.79 -1.62189 -1.08077 0
M  V30 11161 H 1100.88 -1.71821 -2.60545 0
M  V30 11162 N 1101.18 1.11143 -1.11736 0
M  V30 11163 C 1102.41 1.86745 -0.890727 0
M  V30 11164 C 1102.83 1.80315 0.55964 0
M  V30 11165 O 1102.18 1.18663 1.38656 0
M  V30 11166 C 1102.24 3.35436 -1.34779 0
M  V30 11167 O 1101.96 3.41738 -2.74129 0
M  V30 11168 C 1103.46 4.27935 -1.15702 0
M  V30 11169 H 1100.68 0.59044 -0.318781 0
M  V30 11170 H 1103.22 1.40549 -1.48547 0
M  V30 11171 H 1101.38 3.79125 -0.796425 0
M  V30 11172 H 1101.79 4.34347 -2.94012 0
M  V30 11173 H 1103.26 5.30494 -1.52579 0
M  V30 11174 H 1103.74 4.39093 -0.0968735 0
M  V30 11175 H 1104.35 3.90042 -1.69551 0
M  V30 11176 N 1102.66 0.908147 1.28804 0
M  V30 11177 C 1103.89 0.553287 1.99054 0
M  V30 11178 C 1104.3 -0.868455 1.68091 0
M  V30 11179 O 1103.64 -1.58599 0.926939 0
M  V30 11180 C 1103.71 0.675823 3.5309 0
M  V30 11181 C 1103.37 2.06608 4.0763 0
M  V30 11182 C 1104.37 3.03819 4.21889 0
M  V30 11183 C 1102.05 2.37775 4.42457 0
M  V30 11184 C 1104.05 4.30316 4.7022 0
M  V30 11185 C 1101.73 3.64512 4.90484 0
M  V30 11186 C 1102.73 4.60597 5.04321 0
M  V30 11187 O 1102.42 5.85082 5.51302 0
M  V30 11188 H 1102.15 0.210152 0.642504 0
M  V30 11189 H 1104.7 1.22188 1.65104 0
M  V30 11190 H 1102.93 -0.0498253 3.86668 0
M  V30 11191 H 1104.62 0.328884 4.04565 0
M  V30 11192 H 1105.39 2.81057 3.95262 0
M  V30 11193 H 1101.27 1.63742 4.3094 0
M  V30 11194 H 1104.81 5.05318 4.80936 0
M  V30 11195 H 1100.71 3.87101 5.1655 0
M  V30 11196 H 1101.48 5.87791 5.69599 0
M  V30 11197 N 1104.14 -1.42577 0.671525 0
M  V30 11198 C 1105.39 -2.00806 0.189663 0
M  V30 11199 C 1105.7 -1.537 -1.20978 0
M  V30 11200 O 1106.91 -2.04325 -1.78784 0
M  V30 11201 C 1105.36 -3.58744 0.288227 0
M  V30 11202 C 1104.97 -4.14839 1.69152 0
M  V30 11203 C 1106.72 -4.24285 -0.13509 0
M  V30 11204 C 1104.62 -5.65131 1.74302 0
M  V30 11205 H 1103.55 -0.751004 0.067146 0
M  V30 11206 H 1106.2 -1.63338 0.83623 0
M  V30 11207 H 1104.59 -3.937 -0.426175 0
M  V30 11208 H 1105.76 -3.91349 2.43274 0
M  V30 11209 H 1104.08 -3.61738 2.0624 0
M  V30 11210 H 1106.67 -5.34573 -0.116709 0
M  V30 11211 H 1107.02 -3.99527 -1.16977 0
M  V30 11212 H 1107.55 -3.94278 0.528191 0
M  V30 11213 H 1104.29 -5.94682 2.75742 0
M  V30 11214 H 1103.81 -5.90621 1.04531 0
M  V30 11215 H 1105.49 -6.29491 1.49498 0
M  V30 11216 N 1105.62 -0.414636 -1.52048 0
M  V30 11217 C 1106.87 0.159034 -2.01473 0
M  V30 11218 C 1107.19 1.45176 -1.30188 0
M  V30 11219 O 1106.46 1.91134 -0.429469 0
M  V30 11220 H 1105.04 0.0617604 -0.744443 0
M  V30 11221 H 1107.7 -0.552141 -1.86916 0
M  V30 11222 H 1106.8 0.351217 -3.10118 0
M  V30 11223 N 1107.1 1.56929 -0.145233 0
M  V30 11224 C 1108.34 1.95681 0.50532 0
M  V30 11225 C 1108.67 1.03098 1.65516 0
M  V30 11226 O 1107.94 0.0921961 1.95683 0
M  V30 11227 H 1106.52 0.72252 0.189668 0
M  V30 11228 H 1109.18 1.93651 -0.220318 0
M  V30 11229 H 1108.27 2.99359 0.882631 0
M  V30 11230 N 1108.58 -0.128553 1.57075 0
M  V30 11231 C 1109.82 -0.839252 1.8462 0
M  V30 11232 C 1110.15 -1.79974 0.729582 0
M  V30 11233 O 1109.43 -1.92681 -0.265369 0
M  V30 11234 C 1109.71 -1.59756 3.22723 0
M  V30 11235 C 1109.57 -0.657313 4.44971 0
M  V30 11236 C 1110.88 -2.55592 3.58275 0
M  V30 11237 H 1108 -0.303652 0.671539 0
M  V30 11238 H 1110.65 -0.103802 1.89716 0
M  V30 11239 H 1108.8 -2.22451 3.18509 0
M  V30 11240 H 1110.47 -0.0399471 4.61283 0
M  V30 11241 H 1108.71 0.0318416 4.33788 0
M  V30 11242 H 1109.38 -1.22433 5.38251 0
M  V30 11243 H 1111.86 -2.03007 3.63218 0
M  V30 11244 H 1110.73 -3.05687 4.55902 0
M  V30 11245 H 1110.99 -3.37813 2.85193 0
M  V30 11246 N 1110.05 -1.5248 -0.398459 0
M  V30 11247 C 1111.28 -1.70925 -1.16586 0
M  V30 11248 C 1111.7 -0.42342 -1.83991 0
M  V30 11249 O 1111.05 0.601395 -1.72306 0
M  V30 11250 C 1111.1 -2.85226 -2.22099 0
M  V30 11251 O 1110.83 -4.08831 -1.57444 0
M  V30 11252 C 1112.33 -3.15272 -3.11639 0
M  V30 11253 H 1109.55 -0.572533 -0.349924 0
M  V30 11254 H 1112.09 -1.99087 -0.467416 0
M  V30 11255 H 1110.25 -2.59553 -2.87595 0
M  V30 11256 H 1110.66 -4.72603 -2.2748 0
M  V30 11257 H 1112.13 -3.98737 -3.81724 0
M  V30 11258 H 1112.61 -2.29262 -3.74614 0
M  V30 11259 H 1113.22 -3.42749 -2.518 0
M  V30 11260 N 1111.53 0.65634 -1.43283 0
M  V30 11261 C 1112.78 1.41627 -1.44734 0
M  V30 11262 C 1113.11 1.94372 -0.0704893 0
M  V30 11263 O 1112.36 1.72511 0.924037 0
M  V30 11264 C 1112.66 2.61688 -2.43421 0
M  V30 11265 C 1112.33 2.2738 -3.8937 0
M  V30 11266 C 1110.99 2.17735 -4.29121 0
M  V30 11267 C 1113.34 1.99863 -4.81357 0
M  V30 11268 C 1110.67 1.78725 -5.58815 0
M  V30 11269 C 1113.02 1.62352 -6.11412 0
M  V30 11270 C 1111.68 1.51231 -6.50143 0
M  V30 11271 H 1110.95 0.51825 -0.529621 0
M  V30 11272 H 1113.6 0.746701 -1.76342 0
M  V30 11273 H 1111.91 3.33763 -2.05206 0
M  V30 11274 H 1113.6 3.19896 -2.41801 0
M  V30 11275 H 1110.19 2.35795 -3.57908 0
M  V30 11276 H 1114.38 2.06237 -4.5142 0
M  V30 11277 H 1109.63 1.68698 -5.87666 0
M  V30 11278 H 1113.81 1.40091 -6.82164 0
M  V30 11279 H 1111.43 1.20774 -7.50545 0
M  V30 11280 N 1113.01 1.29761 0.894412 0
M  V30 11281 C 1114.23 1.21064 1.68399 0
M  V30 11282 C 1114.66 -0.224608 1.86754 0
M  V30 11283 O 1114.02 -1.16199 1.39167 0
M  V30 11284 C 1114.07 1.93468 3.04306 0
M  V30 11285 O 1113.17 1.25533 3.9283 0
M  V30 11286 H 1112.51 0.419223 0.514925 0
M  V30 11287 H 1115.04 1.71421 1.11696 0
M  V30 11288 H 1115.05 2.02127 3.54413 0
M  V30 11289 H 1113.73 2.97857 2.90265 0
M  V30 11290 H 1112.3 1.25168 3.51266 0
M  V30 11291 N 1114.49 -1.10549 1.12324 0
M  V30 11292 C 1115.74 -1.82124 0.876083 0
M  V30 11293 C 1116.06 -1.85547 -0.599761 0
M  V30 11294 O 1115.33 -1.33269 -1.43584 0
M  V30 11295 H 1113.91 -0.674455 0.321122 0
M  V30 11296 H 1116.57 -1.33766 1.41748 0
M  V30 11297 H 1115.66 -2.85688 1.25653 0
M  V30 11298 N 1115.97 -0.914965 -1.28321 0
M  V30 11299 C 1117.19 -0.564023 -1.99583 0
M  V30 11300 C 1117.62 0.847821 -1.6791 0
M  V30 11301 O 1116.97 1.56682 -0.912171 0
M  V30 11302 C 1117.02 -0.781368 -3.52033 0
M  V30 11303 O 1116.13 0.159072 -4.12093 0
M  V30 11304 H 1115.47 -0.218565 -0.626997 0
M  V30 11305 H 1118 -1.23074 -1.63444 0
M  V30 11306 H 1118.01 -0.691946 -4.0209 0
M  V30 11307 H 1116.68 -1.81059 -3.7442 0
M  V30 11308 H 1115.26 0.0208145 -3.72894 0
M  V30 11309 N 1117.44 1.42219 -0.679077 0
M  V30 11310 C 1118.37 2.33493 -0.0174528 0
M  V30 11311 C 1119.35 1.50915 0.78477 0
M  V30 11312 O 1120.54 1.79504 0.741065 0
M  V30 11313 C 1117.67 3.34576 0.931463 0
M  V30 11314 C 1116.62 4.2734 0.237527 0
M  V30 11315 C 1115.95 5.18664 1.29967 0
M  V30 11316 C 1117.25 5.14729 -0.886082 0
M  V30 11317 H 1118.94 2.89068 -0.779748 0
M  V30 11318 H 1116.49 1.38993 -0.376419 0
M  V30 11319 H 1118.44 3.97343 1.40343 0
M  V30 11320 H 1117.17 2.77315 1.72523 0
M  V30 11321 H 1115.83 3.65973 -0.214245 0
M  V30 11322 H 1115.47 4.57727 2.08554 0
M  V30 11323 H 1115.17 5.81558 0.840463 0
M  V30 11324 H 1116.7 5.84308 1.77249 0
M  V30 11325 H 1118.11 5.71158 -0.495141 0
M  V30 11326 H 1116.51 5.86478 -1.27135 0
M  V30 11327 H 1117.58 4.52874 -1.733 0
M  V30 11328 N 1118.92 0.422693 1.51826 0
M  V30 11329 C 1120.17 -0.150066 2.01141 0
M  V30 11330 C 1120.48 -1.45059 1.31214 0
M  V30 11331 O 1121.69 -2.10542 1.71419 0
M  V30 11332 C 1120.15 -0.317985 3.58492 0
M  V30 11333 C 1119.75 0.971244 4.37345 0
M  V30 11334 C 1121.5 -0.845303 4.15999 0
M  V30 11335 C 1119.4 0.769769 5.86369 0
M  V30 11336 H 1118.33 -0.0598567 0.75162 0
M  V30 11337 H 1120.99 0.550217 1.75057 0
M  V30 11338 H 1119.37 -1.08092 3.80962 0
M  V30 11339 H 1120.54 1.74138 4.26629 0
M  V30 11340 H 1118.86 1.42599 3.91222 0
M  V30 11341 H 1121.45 -1.01229 5.2503 0
M  V30 11342 H 1121.8 -1.82375 3.74226 0
M  V30 11343 H 1122.33 -0.141067 3.9755 0
M  V30 11344 H 1119.07 1.72017 6.32527 0
M  V30 11345 H 1118.59 0.0391717 5.99787 0
M  V30 11346 H 1120.27 0.417225 6.45653 0
M  V30 11347 N 1120.4 -1.5685 0.153553 0
M  V30 11348 C 1121.36 -2.15894 -0.769564 0
M  V30 11349 C 1122.36 -1.10239 -1.17064 0
M  V30 11350 O 1123.55 -1.35845 -1.09049 0
M  V30 11351 C 1120.68 -2.72738 -2.04516 0
M  V30 11352 H 1121.88 -2.98807 -0.255842 0
M  V30 11353 H 1119.43 -1.56005 -0.0959279 0
M  V30 11354 H 1120.17 -1.9351 -2.60239 0
M  V30 11355 H 1119.95 -3.50042 -1.76672 0
M  V30 11356 H 1121.44 -3.18208 -2.70432 0
M  V30 11357 N 1121.88 0.120221 -1.57141 0
M  V30 11358 C 1123.11 0.841219 -1.88698 0
M  V30 11359 C 1123.52 1.7401 -0.74277 0
M  V30 11360 O 1122.86 1.81308 0.295497 0
M  V30 11361 C 1122.92 1.72781 -3.15257 0
M  V30 11362 C 1122.58 1.00336 -4.45849 0
M  V30 11363 C 1123.58 0.344734 -5.18756 0
M  V30 11364 C 1121.27 0.984899 -4.9255 0
M  V30 11365 C 1123.26 -0.322664 -6.36583 0
M  V30 11366 C 1120.95 0.313702 -6.10294 0
M  V30 11367 C 1121.95 -0.338926 -6.82159 0
M  V30 11368 O 1121.63 -0.999416 -7.97663 0
M  V30 11369 H 1121.37 0.247195 -0.629182 0
M  V30 11370 H 1123.92 0.109542 -2.05108 0
M  V30 11371 H 1122.15 2.5011 -2.94927 0
M  V30 11372 H 1123.84 2.32313 -3.32845 0
M  V30 11373 H 1124.6 0.350623 -4.83731 0
M  V30 11374 H 1120.48 1.4823 -4.36519 0
M  V30 11375 H 1124.03 -0.832643 -6.92613 0
M  V30 11376 H 1119.92 0.305572 -6.44776 0
M  V30 11377 H 1120.69 -0.90377 -8.13495 0
M  V30 11378 N 1123.36 1.52689 0.390367 0
M  V30 11379 C 1124.6 1.67335 1.13329 0
M  V30 11380 C 1124.93 0.415068 1.90531 0
M  V30 11381 O 1124.2 -0.570504 1.87409 0
M  V30 11382 H 1122.78 0.616821 0.421356 0
M  V30 11383 H 1125.44 1.89799 0.443 0
M  V30 11384 H 1124.53 2.52314 1.83696 0
M  V30 11385 N 1124.83 -0.648732 1.43629 0
M  V30 11386 C 1125.78 -1.76145 1.49136 0
M  V30 11387 C 1126.75 -1.62569 0.340649 0
M  V30 11388 O 1127.94 -1.82748 0.548435 0
M  V30 11389 C 1125.08 -3.14321 1.42466 0
M  V30 11390 C 1124.19 -3.38999 2.67776 0
M  V30 11391 C 1123.32 -4.67047 2.53062 0
M  V30 11392 C 1122.36 -4.84845 3.7362 0
M  V30 11393 N 1121.5 -6.04155 3.57689 0
M  V30 11394 H 1126.34 -1.70774 2.44213 0
M  V30 11395 H 1123.88 -0.833311 1.2122 0
M  V30 11396 H 1125.84 -3.94206 1.36592 0
M  V30 11397 H 1124.47 -3.18751 0.509666 0
M  V30 11398 H 1123.52 -2.53179 2.83909 0
M  V30 11399 H 1124.83 -3.48035 3.57314 0
M  V30 11400 H 1123.98 -5.55066 2.44922 0
M  V30 11401 H 1122.72 -4.60339 1.61056 0
M  V30 11402 H 1121.73 -3.95261 3.82163 0
M  V30 11403 H 1122.95 -4.9338 4.6664 0
M  V30 11404 H 1120.9 -5.9857 2.6842 0
M  V30 11405 H 1120.82 -6.14169 4.40832 0
M  V30 11406 H 1122.08 -6.94782 3.53409 0
M  V30 11407 N 1126.31 -1.30234 -0.887518 0
M  V30 11408 C 1127.24 -1.18969 -2.00919 0
M  V30 11409 C 1128.22 -0.080952 -1.69907 0
M  V30 11410 O 1129.41 -0.262546 -1.92417 0
M  V30 11411 C 1126.54 -0.878094 -3.36016 0
M  V30 11412 C 1125.49 -1.94449 -3.81279 0
M  V30 11413 C 1124.82 -1.48594 -5.13638 0
M  V30 11414 C 1126.12 -3.35519 -4.00281 0
M  V30 11415 H 1127.81 -2.12808 -2.10602 0
M  V30 11416 H 1125.36 -1.02454 -1.01189 0
M  V30 11417 H 1127.31 -0.785954 -4.14006 0
M  V30 11418 H 1126.04 0.0959779 -3.26459 0
M  V30 11419 H 1124.69 -2.02622 -3.05516 0
M  V30 11420 H 1124.34 -0.500204 -5.00507 0
M  V30 11421 H 1124.04 -2.19921 -5.44893 0
M  V30 11422 H 1125.57 -1.40754 -5.94156 0
M  V30 11423 H 1126.98 -3.30119 -4.68716 0
M  V30 11424 H 1125.38 -4.0491 -4.42909 0
M  V30 11425 H 1126.45 -3.77597 -3.04218 0
M  V30 11426 N 1127.79 1.09952 -1.12909 0
M  V30 11427 C 1128.72 2.16257 -0.759305 0
M  V30 11428 C 1129.74 1.61355 0.216427 0
M  V30 11429 O 1130.92 1.785 -0.00297224 0
M  V30 11430 C 1128.02 3.38741 -0.103908 0
M  V30 11431 C 1127.2 4.23072 -1.11037 0
M  V30 11432 C 1126.26 5.23991 -0.481667 0
M  V30 11433 O 1125.28 5.57665 -1.14011 0
M  V30 11434 N 1126.48 5.75652 0.748698 0
M  V30 11435 H 1129.25 2.48588 -1.67405 0
M  V30 11436 H 1126.81 1.25617 -1.02137 0
M  V30 11437 H 1128.8 4.03362 0.328799 0
M  V30 11438 H 1127.37 3.04344 0.713677 0
M  V30 11439 H 1126.59 3.5467 -1.72054 0
M  V30 11440 H 1127.88 4.76244 -1.79078 0
M  V30 11441 H 1127.28 5.505 1.30253 0
M  V30 11442 H 1125.84 6.42033 1.12415 0
M  V30 11443 N 1129.27 0.921757 1.27833 0
M  V30 11444 C 1130.52 0.557974 1.94245 0
M  V30 11445 C 1130.84 -0.90268 1.72849 0
M  V30 11446 O 1130.11 -1.63915 1.07279 0
M  V30 11447 H 1128.69 0.203364 0.718785 0
M  V30 11448 H 1131.35 1.17286 1.5566 0
M  V30 11449 H 1130.45 0.759202 3.02725 0
M  V30 11450 N 1130.75 -1.41857 0.686609 0
M  V30 11451 C 1131.68 -2.33481 0.0298353 0
M  V30 11452 C 1132.66 -1.51329 -0.776756 0
M  V30 11453 O 1133.84 -1.79895 -0.731535 0
M  V30 11454 C 1130.97 -3.35065 -0.913707 0
M  V30 11455 C 1129.93 -4.2746 -0.214861 0
M  V30 11456 C 1129.25 -5.19346 -1.27215 0
M  V30 11457 C 1130.55 -5.14252 0.913367 0
M  V30 11458 H 1132.25 -2.8865 0.795067 0
M  V30 11459 H 1129.79 -1.38792 0.383785 0
M  V30 11460 H 1131.75 -3.98082 -1.38234 0
M  V30 11461 H 1130.47 -2.78226 -1.7105 0
M  V30 11462 H 1129.13 -3.65855 0.233651 0
M  V30 11463 H 1128.78 -4.58827 -2.06124 0
M  V30 11464 H 1128.48 -5.81996 -0.80961 0
M  V30 11465 H 1130 -5.85239 -1.74147 0
M  V30 11466 H 1131.41 -5.70887 0.525424 0
M  V30 11467 H 1129.81 -5.85796 1.30244 0
M  V30 11468 H 1130.88 -4.51949 1.75699 0
M  V30 11469 N 1132.22 -0.430739 -1.51599 0
M  V30 11470 C 1133.15 0.374695 -2.30474 0
M  V30 11471 C 1134.14 1.02694 -1.35602 0
M  V30 11472 O 1135.32 1.03184 -1.6452 0
M  V30 11473 C 1132.45 1.47981 -3.14196 0
M  V30 11474 C 1131.4 0.951415 -4.17291 0
M  V30 11475 C 1130.73 2.15177 -4.89492 0
M  V30 11476 C 1132.03 -0.00957951 -5.22299 0
M  V30 11477 H 1133.72 -0.283508 -2.98055 0
M  V30 11478 H 1131.27 -0.13779 -1.43339 0
M  V30 11479 H 1133.22 2.05043 -3.68151 0
M  V30 11480 H 1131.95 2.16621 -2.44424 0
M  V30 11481 H 1130.61 0.403052 -3.64378 0
M  V30 11482 H 1130.25 2.82421 -4.1623 0
M  V30 11483 H 1129.95 1.80464 -5.59202 0
M  V30 11484 H 1131.48 2.72806 -5.46269 0
M  V30 11485 H 1132.89 0.470527 -5.71366 0
M  V30 11486 H 1131.29 -0.268959 -5.99497 0
M  V30 11487 H 1132.36 -0.948297 -4.75537 0
M  V30 11488 N 1133.7 1.56767 -0.161869 0
M  V30 11489 C 1134.65 2.17502 0.772102 0
M  V30 11490 C 1135.62 1.11223 1.23364 0
M  V30 11491 O 1136.8 1.39332 1.30351 0
M  V30 11492 C 1133.94 2.81248 1.99984 0
M  V30 11493 C 1133.06 4.01962 1.58274 0
M  V30 11494 C 1132.19 4.53662 2.76341 0
M  V30 11495 C 1131.23 5.66807 2.31076 0
M  V30 11496 N 1130.37 6.13059 3.42203 0
M  V30 11497 H 1135.21 2.96971 0.247382 0
M  V30 11498 H 1132.75 1.46685 0.110382 0
M  V30 11499 H 1134.7 3.16359 2.7198 0
M  V30 11500 H 1133.33 2.04398 2.49842 0
M  V30 11501 H 1132.39 3.72733 0.759874 0
M  V30 11502 H 1133.7 4.83891 1.2104 0
M  V30 11503 H 1132.85 4.90905 3.56507 0
M  V30 11504 H 1131.59 3.7077 3.16829 0
M  V30 11505 H 1130.6 5.29125 1.49354 0
M  V30 11506 H 1131.82 6.51494 1.91657 0
M  V30 11507 H 1129.77 5.33099 3.82285 0
M  V30 11508 H 1129.68 6.89953 3.09033 0
M  V30 11509 H 1130.95 6.54951 4.22682 0
M  V30 11510 N 1135.18 -0.111886 1.57202 0
M  V30 11511 C 1136.41 -0.836317 1.89791 0
M  V30 11512 C 1136.83 -1.72304 0.754513 0
M  V30 11513 O 1136.19 -1.78889 -0.294672 0
M  V30 11514 C 1136.24 -1.63971 3.21164 0
M  V30 11515 O 1135.34 -2.74726 3.0757 0
M  V30 11516 H 1134.68 -0.230833 0.622585 0
M  V30 11517 H 1137.21 -0.0921478 2.04392 0
M  V30 11518 H 1137.22 -2.02746 3.54059 0
M  V30 11519 H 1135.9 -0.98882 4.03974 0
M  V30 11520 H 1134.47 -2.39101 2.86156 0
M  V30 11521 N 1136.66 -1.52894 -0.382264 0
M  V30 11522 C 1137.62 -1.77497 -1.45008 0
M  V30 11523 C 1138.62 -0.64509 -1.47293 0
M  V30 11524 O 1139.81 -0.913192 -1.48346 0
M  V30 11525 C 1136.94 -1.88188 -2.8425 0
M  V30 11526 H 1138.14 -2.72849 -1.24473 0
M  V30 11527 H 1135.69 -1.43717 -0.61441 0
M  V30 11528 H 1136.42 -0.948451 -3.10121 0
M  V30 11529 H 1136.21 -2.70353 -2.83992 0
M  V30 11530 H 1137.7 -2.08873 -3.6161 0
M  V30 11531 N 1138.14 0.641106 -1.43971 0
M  V30 11532 C 1139.55 1.22254 -1.41106 0
M  V30 11533 C 1139.9 1.95825 -0.121284 0
M  V30 11534 O 1139.02 2.01901 0.77879 0
M  V30 11535 C 1139.62 2.22364 -2.55617 0
M  V30 11536 C 1138.18 2.75957 -2.55978 0
M  V30 11537 C 1137.33 1.50792 -2.32717 0
M  V30 11538 H 1140.28 0.432381 -1.52696 0
M  V30 11539 H 1140.3 3.04775 -2.27799 0
M  V30 11540 H 1139.81 1.68789 -3.49474 0
M  V30 11541 H 1137.91 3.33562 -1.66034 0
M  V30 11542 H 1138.02 3.22676 -3.54142 0
M  V30 11543 H 1136.39 1.7857 -1.81617 0
M  V30 11544 H 1137.17 0.991343 -3.28675 0
M  V30 11545 N 1139.62 1.30703 0.880598 0
M  V30 11546 C 1140.55 1.20033 2.00286 0
M  V30 11547 C 1141.53 0.0899614 1.69862 0
M  V30 11548 O 1142.71 0.272747 1.92275 0
M  V30 11549 C 1139.84 0.895902 3.35546 0
M  V30 11550 C 1138.8 1.96468 3.80242 0
M  V30 11551 C 1138.12 1.51316 5.12843 0
M  V30 11552 C 1139.42 3.37637 3.98496 0
M  V30 11553 H 1141.12 2.13922 2.0947 0
M  V30 11554 H 1138.66 1.02989 1.00644 0
M  V30 11555 H 1140.61 0.807899 4.13583 0
M  V30 11556 H 1139.34 -0.0786636 3.26505 0
M  V30 11557 H 1138 2.0424 3.04437 0
M  V30 11558 H 1137.65 0.52674 5.00234 0
M  V30 11559 H 1137.35 2.22807 5.43719 0
M  V30 11560 H 1138.87 1.43903 5.93401 0
M  V30 11561 H 1140.28 3.326 4.66959 0
M  V30 11562 H 1138.68 4.07253 4.40755 0
M  V30 11563 H 1139.75 3.79205 3.02211 0
M  V30 11564 N 1141.09 -1.09351 1.1349 0
M  V30 11565 C 1142.02 -2.18037 0.835588 0
M  V30 11566 C 1143 -1.68856 -0.205373 0
M  V30 11567 O 1144.19 -1.94094 -0.0641357 0
M  V30 11568 C 1141.32 -3.45987 0.301661 0
M  V30 11569 C 1140.27 -4.08507 1.27696 0
M  V30 11570 C 1139.6 -5.31292 0.602758 0
M  V30 11571 C 1140.9 -4.50916 2.63575 0
M  V30 11572 H 1142.59 -2.43332 1.74441 0
M  V30 11573 H 1140.14 -1.1695 0.840166 0
M  V30 11574 H 1142.09 -4.21324 0.079928 0
M  V30 11575 H 1140.82 -3.20217 -0.642552 0
M  V30 11576 H 1139.48 -3.3519 1.4847 0
M  V30 11577 H 1139.12 -5.01802 -0.346953 0
M  V30 11578 H 1138.82 -5.74075 1.25345 0
M  V30 11579 H 1140.35 -6.09351 0.390325 0
M  V30 11580 H 1141.76 -5.17474 2.46765 0
M  V30 11581 H 1140.16 -5.04586 3.24827 0
M  V30 11582 H 1141.23 -3.63279 3.2118 0
M  V30 11583 N 1142.57 -0.928524 -1.27343 0
M  V30 11584 C 1143.5 -0.445627 -2.29208 0
M  V30 11585 C 1144.48 0.494508 -1.62753 0
M  V30 11586 O 1145.67 0.399082 -1.90055 0
M  V30 11587 C 1142.8 0.301684 -3.45987 0
M  V30 11588 C 1141.75 -0.550695 -4.24442 0
M  V30 11589 C 1141.08 0.325833 -5.33706 0
M  V30 11590 C 1142.38 -1.81559 -4.89728 0
M  V30 11591 H 1144.07 -1.29696 -2.69851 0
M  V30 11592 H 1141.62 -0.625085 -1.29725 0
M  V30 11593 H 1143.57 0.650455 -4.1635 0
M  V30 11594 H 1142.29 1.18705 -3.04264 0
M  V30 11595 H 1140.95 -0.882185 -3.55827 0
M  V30 11596 H 1140.6 1.21018 -4.88225 0
M  V30 11597 H 1140.3 -0.240994 -5.87106 0
M  V30 11598 H 1141.83 0.670156 -6.06911 0
M  V30 11599 H 1143.24 -1.53483 -5.52373 0
M  V30 11600 H 1141.64 -2.32598 -5.53189 0
M  V30 11601 H 1142.71 -2.53461 -4.13383 0
M  V30 11602 N 1144.05 1.41491 -0.694123 0
M  V30 11603 C 1145.46 1.84283 -0.299439 0
M  V30 11604 C 1145.81 1.58081 1.16211 0
M  V30 11605 O 1144.94 1.05051 1.89191 0
M  V30 11606 C 1145.53 3.34522 -0.536696 0
M  V30 11607 C 1144.09 3.7589 -0.195944 0
M  V30 11608 C 1143.24 2.64908 -0.819692 0
M  V30 11609 H 1146.19 1.31063 -0.894884 0
M  V30 11610 H 1146.21 3.79947 0.205062 0
M  V30 11611 H 1145.72 3.53561 -1.6005 0
M  V30 11612 H 1143.82 3.62452 0.863655 0
M  V30 11613 H 1143.94 4.74671 -0.649954 0
M  V30 11614 H 1142.3 2.53476 -0.249412 0
M  V30 11615 H 1143.08 2.86765 -1.88734 0
M  V30 11616 N 1145.53 0.438773 1.51369 0
M  V30 11617 C 1146.78 -0.126962 2.01701 0
M  V30 11618 C 1147.1 -1.43086 1.32481 0
M  V30 11619 O 1146.37 -1.90427 0.459823 0
M  V30 11620 H 1144.95 -0.0499092 0.745331 0
M  V30 11621 H 1147.61 0.581808 1.86013 0
M  V30 11622 H 1146.7 -0.301836 3.10637 0
M  V30 11623 N 1147.01 -1.56678 0.170181 0
M  V30 11624 C 1148.42 -1.58512 -0.185999 0
M  V30 11625 C 1148.62 -1.18548 -1.62937 0
M  V30 11626 O 1147.68 -0.896554 -2.36047 0
M  V30 11627 C 1148.99 -3.00554 0.0937842 0
M  V30 11628 C 1150.54 -3.12984 0.0319057 0
M  V30 11629 C 1151.01 -4.57115 0.284664 0
M  V30 11630 N 1152.5 -4.62617 0.2324 0
M  V30 11631 C 1153.24 -5.71988 0.40216 0
M  V30 11632 N 1152.74 -6.89921 0.630915 0
M  V30 11633 N 1154.53 -5.61082 0.338144 0
M  V30 11634 H 1146.68 -1.80944 1.11235 0
M  V30 11635 H 1148.94 -0.838586 0.442128 0
M  V30 11636 H 1148.65 -3.34265 1.09362 0
M  V30 11637 H 1148.52 -3.72151 -0.615118 0
M  V30 11638 H 1150.91 -2.791 -0.958502 0
M  V30 11639 H 1150.99 -2.43825 0.773501 0
M  V30 11640 H 1150.63 -4.91707 1.27227 0
M  V30 11641 H 1150.56 -5.2443 -0.477529 0
M  V30 11642 H 1153.06 -3.7785 0.0611933 0
M  V30 11643 H 1153.37 -7.69153 0.749931 0
M  V30 11644 H 1151.71 -6.91787 0.667516 0
M  V30 11645 H 1154.9 -4.67826 0.16003 0
M  V30 11646 H 1155.08 -6.46265 0.473872 0
M  V30 11647 N 1148.48 0.103547 -1.57259 0
M  V30 11648 C 1149.43 1.13239 -1.97891 0
M  V30 11649 C 1150.42 1.36234 -0.856105 0
M  V30 11650 O 1151.61 1.37067 -1.11989 0
M  V30 11651 C 1148.74 2.4549 -2.39979 0
M  V30 11652 C 1147.82 2.25905 -3.58926 0
M  V30 11653 N 1148.22 1.76167 -4.7413 0
M  V30 11654 C 1146.51 2.56503 -3.64859 0
M  V30 11655 C 1147.21 1.70653 -5.56105 0
M  V30 11656 N 1146.19 2.15562 -4.99033 0
M  V30 11657 H 1149.99 0.740638 -2.84415 0
M  V30 11658 H 1147.51 0.311091 -1.59393 0
M  V30 11659 H 1149.5 3.19922 -2.67312 0
M  V30 11660 H 1148.16 2.8541 -1.54827 0
M  V30 11661 H 1149.17 1.45487 -4.97045 0
M  V30 11662 H 1145.85 3.00005 -2.9035 0
M  V30 11663 H 1147.24 1.33321 -6.5854 0
M  V30 11664 N 1149.96 1.53094 0.37415 0
M  V30 11665 C 1150.89 1.81901 1.46404 0
M  V30 11666 C 1151.87 0.671949 1.56265 0
M  V30 11667 O 1153.06 0.920978 1.70973 0
M  V30 11668 C 1150.19 2.00123 2.83845 0
M  V30 11669 C 1149.14 3.15864 2.88814 0
M  V30 11670 C 1148.47 3.19364 4.28848 0
M  V30 11671 C 1149.77 4.54633 2.57112 0
M  V30 11672 H 1151.46 2.73172 1.22546 0
M  V30 11673 H 1149.01 1.31444 0.588087 0
M  V30 11674 H 1150.96 2.18859 3.6011 0
M  V30 11675 H 1149.68 1.05555 3.09072 0
M  V30 11676 H 1148.34 2.96935 2.15 0
M  V30 11677 H 1147.99 2.2245 4.51137 0
M  V30 11678 H 1147.69 3.97123 4.3309 0
M  V30 11679 H 1149.22 3.40273 5.06997 0
M  V30 11680 H 1150.63 4.73587 3.23091 0
M  V30 11681 H 1149.03 5.34569 2.72683 0
M  V30 11682 H 1150.1 4.60331 1.52392 0
M  V30 11683 N 1151.44 -0.633461 1.44309 0
M  V30 11684 C 1152.37 -1.75676 1.53819 0
M  V30 11685 C 1153.35 -1.65537 0.391365 0
M  V30 11686 O 1154.54 -1.84332 0.611181 0
M  V30 11687 C 1151.67 -3.14197 1.47979 0
M  V30 11688 C 1150.62 -3.39122 2.61113 0
M  V30 11689 C 1149.95 -4.77648 2.40325 0
M  V30 11690 C 1151.25 -3.31914 4.03274 0
M  V30 11691 H 1152.94 -1.67974 2.47841 0
M  V30 11692 H 1150.49 -0.8067 1.19283 0
M  V30 11693 H 1152.44 -3.92553 1.53233 0
M  V30 11694 H 1151.16 -3.22677 0.504718 0
M  V30 11695 H 1149.82 -2.63145 2.55245 0
M  V30 11696 H 1149.47 -4.82829 1.41016 0
M  V30 11697 H 1149.17 -4.95284 3.16177 0
M  V30 11698 H 1150.69 -5.58237 2.47394 0
M  V30 11699 H 1152.11 -4.00178 4.10524 0
M  V30 11700 H 1150.5 -3.61085 4.7931 0
M  V30 11701 H 1151.57 -2.29761 4.2701 0
M  V30 11702 N 1152.92 -1.31168 -0.873655 0
M  V30 11703 C 1153.87 -1.18432 -2.00191 0
M  V30 11704 C 1154.86 -0.0934873 -1.69142 0
M  V30 11705 O 1156.07 -0.255126 -1.78183 0
M  V30 11706 H 1152.44 -0.366594 -0.656592 0
M  V30 11707 H 1154.41 -2.13896 -2.08065 0
M  V30 11708 C 1153.16 -0.904668 -3.35725 0
M  V30 11709 H 1152.48 -1.73617 -3.60135 0
M  V30 11710 H 1153.92 -0.855715 -4.15275 0
M  V30 11711 C 1152.38 0.392554 -3.34605 0
M  V30 11712 O 1152.91 1.41052 -3.76121 0
M  V30 11713 N 1151.12 0.40777 -2.87725 0
M  V30 11714 H 1150.67 -0.42112 -2.54134 0
M  V30 11715 H 1150.62 1.27564 -2.87358 0
M  V30 11716 N 1154.4 1.08748 -1.14068 0
M  V30 11717 C 1155.36 2.1375 -0.827266 0
M  V30 11718 C 1156.36 1.59936 0.166496 0
M  V30 11719 O 1157.55 1.74092 -0.0614305 0
M  V30 11720 C 1154.68 3.40106 -0.232557 0
M  V30 11721 H 1155.87 2.42985 -1.7578 0
M  V30 11722 H 1153.43 1.24402 -0.946244 0
M  V30 11723 H 1154.16 3.16503 0.706859 0
M  V30 11724 H 1153.95 3.8046 -0.948293 0
M  V30 11725 H 1155.44 4.17589 -0.0303662 0
M  V30 11726 N 1155.87 0.935264 1.26849 0
M  V30 11727 C 1157.12 0.578545 1.93642 0
M  V30 11728 C 1157.44 -0.884296 1.73796 0
M  V30 11729 O 1156.71 -1.62768 1.09011 0
M  V30 11730 H 1155.29 0.210976 0.716588 0
M  V30 11731 H 1157.96 1.1893 1.54407 0
M  V30 11732 H 1157.05 0.791268 3.01903 0
M  V30 11733 N 1157.35 -1.41121 0.701616 0
M  V30 11734 C 1158.28 -2.33436 0.0545974 0
M  V30 11735 C 1159.26 -1.52144 -0.760662 0
M  V30 11736 O 1160.45 -1.80661 -0.712414 0
M  V30 11737 C 1157.58 -3.36015 -0.878117 0
M  V30 11738 C 1156.53 -4.27664 -0.169511 0
M  V30 11739 C 1155.86 -5.20666 -1.21699 0
M  V30 11740 C 1157.16 -5.13254 0.967859 0
M  V30 11741 H 1158.85 -2.87791 0.825637 0
M  V30 11742 H 1156.4 -1.38377 0.398484 0
M  V30 11743 H 1158.35 -3.99526 -1.34004 0
M  V30 11744 H 1157.08 -2.80024 -1.68089 0
M  V30 11745 H 1155.73 -3.65586 0.272441 0
M  V30 11746 H 1155.38 -4.60987 -2.01246 0
M  V30 11747 H 1155.08 -5.82822 -0.747836 0
M  V30 11748 H 1156.61 -5.87053 -1.6793 0
M  V30 11749 H 1158.02 -5.70298 0.585944 0
M  V30 11750 H 1156.42 -5.84381 1.3645 0
M  V30 11751 H 1157.49 -4.5006 1.80483 0
M  V30 11752 N 1158.83 -0.446794 -1.51134 0
M  V30 11753 C 1159.76 0.350229 -2.30858 0
M  V30 11754 C 1160.74 1.0125 -1.36684 0
M  V30 11755 O 1161.93 1.01433 -1.65605 0
M  V30 11756 C 1159.06 1.4464 -3.15748 0
M  V30 11757 C 1158.01 0.907102 -4.18277 0
M  V30 11758 C 1157.34 2.09974 -4.91747 0
M  V30 11759 C 1158.64 -0.0649758 -5.2226 0
M  V30 11760 H 1160.33 -0.315105 -2.97737 0
M  V30 11761 H 1157.88 -0.152985 -1.43185 0
M  V30 11762 H 1159.83 2.01127 -3.70305 0
M  V30 11763 H 1158.55 2.14016 -2.46708 0
M  V30 11764 H 1157.21 0.364382 -3.64785 0
M  V30 11765 H 1156.86 2.77991 -4.19202 0
M  V30 11766 H 1156.56 1.74523 -5.61084 0
M  V30 11767 H 1158.08 2.66996 -5.49131 0
M  V30 11768 H 1159.5 0.4099 -5.71833 0
M  V30 11769 H 1157.9 -0.332529 -5.99178 0
M  V30 11770 H 1158.97 -0.998681 -4.74504 0
M  V30 11771 N 1160.31 1.56586 -0.178487 0
M  V30 11772 C 1161.27 2.17091 0.73512 0
M  V30 11773 C 1162.27 1.12088 1.15295 0
M  V30 11774 O 1163.46 1.37563 1.06874 0
M  V30 11775 C 1160.59 2.75957 2.00151 0
M  V30 11776 H 1161.79 2.99176 0.208272 0
M  V30 11777 H 1159.34 1.56138 0.0710967 0
M  V30 11778 H 1160.07 1.97626 2.57127 0
M  V30 11779 H 1159.86 3.52809 1.7108 0
M  V30 11780 H 1161.35 3.2247 2.65335 0
M  V30 11781 N 1161.79 -0.095206 1.57312 0
M  V30 11782 C 1162.75 -1.09974 2.01093 0
M  V30 11783 C 1163.75 -1.32954 0.904424 0
M  V30 11784 O 1164.94 -1.29069 1.16991 0
M  V30 11785 C 1162.07 -2.4489 2.37153 0
M  V30 11786 H 1163.26 -0.722906 2.91057 0
M  V30 11787 H 1160.82 -0.340249 1.52552 0
M  V30 11788 H 1161.55 -2.8745 1.50143 0
M  V30 11789 H 1161.34 -2.29559 3.17876 0
M  V30 11790 H 1162.83 -3.17141 2.71683 0
M  V30 11791 N 1163.26 -1.53291 -0.366026 0
M  V30 11792 C 1164.49 -1.73665 -1.13381 0
M  V30 11793 C 1164.91 -0.464284 -1.8228 0
M  V30 11794 O 1164.27 0.581645 -1.71717 0
M  V30 11795 C 1164.32 -2.90225 -2.14013 0
M  V30 11796 O 1163.42 -2.58803 -3.21084 0
M  V30 11797 H 1162.77 -0.576762 -0.329 0
M  V30 11798 H 1165.3 -2.00174 -0.423287 0
M  V30 11799 H 1165.31 -3.16378 -2.57622 0
M  V30 11800 H 1163.98 -3.82518 -1.63257 0
M  V30 11801 H 1162.56 -2.43466 -2.82451 0
M  V30 11802 N 1164.74 0.6258 -1.44643 0
M  V30 11803 C 1165.99 1.3873 -1.47925 0
M  V30 11804 C 1166.32 1.93868 -0.113469 0
M  V30 11805 O 1165.6 1.73976 0.869639 0
M  V30 11806 C 1165.88 2.54867 -2.54391 0
M  V30 11807 C 1165.73 2.05044 -4.00346 0
M  V30 11808 C 1167.05 3.57043 -2.57309 0
M  V30 11809 H 1164.17 0.503087 -0.538584 0
M  V30 11810 H 1166.81 0.707102 -1.76352 0
M  V30 11811 H 1164.96 3.12894 -2.30281 0
M  V30 11812 H 1166.63 1.51807 -4.35606 0
M  V30 11813 H 1164.88 1.36185 -4.11869 0
M  V30 11814 H 1165.55 2.88681 -4.70497 0
M  V30 11815 H 1168.02 3.08826 -2.78865 0
M  V30 11816 H 1166.9 4.35818 -3.33698 0
M  V30 11817 H 1167.16 4.11464 -1.61708 0
M  V30 11818 N 1166.22 1.31629 0.866686 0
M  V30 11819 C 1167.47 1.21263 1.61678 0
M  V30 11820 C 1167.79 -0.228562 1.93656 0
M  V30 11821 O 1167.06 -1.15014 1.58583 0
M  V30 11822 H 1165.64 0.445817 0.59938 0
M  V30 11823 H 1168.3 1.64998 1.03739 0
M  V30 11824 H 1167.4 1.78669 2.55898 0
M  V30 11825 N 1167.7 -1.08142 1.14644 0
M  V30 11826 C 1168.95 -1.80225 0.914517 0
M  V30 11827 C 1169.27 -1.86778 -0.560269 0
M  V30 11828 O 1168.54 -1.36284 -1.40724 0
M  V30 11829 H 1167.12 -0.667492 0.335356 0
M  V30 11830 H 1169.78 -1.30729 1.44554 0
M  V30 11831 H 1168.88 -2.82958 1.31685 0
M  V30 11832 N 1169.18 -0.941978 -1.26351 0
M  V30 11833 C 1170.43 -0.585711 -1.93009 0
M  V30 11834 C 1170.74 0.879507 -1.74711 0
M  V30 11835 O 1171.95 1.34518 -2.35833 0
M  V30 11836 C 1170.4 -0.996787 -3.45821 0
M  V30 11837 C 1170.01 -2.48367 -3.72851 0
M  V30 11838 C 1171.75 -0.712452 -4.18479 0
M  V30 11839 C 1169.66 -2.83341 -5.19107 0
M  V30 11840 H 1168.59 -0.215342 -0.722595 0
M  V30 11841 H 1171.24 -1.14472 -1.43417 0
M  V30 11842 H 1169.62 -0.366295 -3.94302 0
M  V30 11843 H 1170.8 -3.16328 -3.35072 0
M  V30 11844 H 1169.11 -2.74139 -3.13427 0
M  V30 11845 H 1171.71 -0.95007 -5.26192 0
M  V30 11846 H 1172.05 0.350811 -4.14819 0
M  V30 11847 H 1172.59 -1.3027 -3.75865 0
M  V30 11848 H 1169.32 -3.88633 -5.27868 0
M  V30 11849 H 1168.84 -2.20043 -5.5798 0
M  V30 11850 H 1170.52 -2.71849 -5.87118 0
M  V30 11851 N 1170.66 1.40747 -0.709091 0
M  V30 11852 C 1171.9 2.00233 -0.242836 0
M  V30 11853 C 1172.22 1.56853 1.1686 0
M  V30 11854 O 1173.42 2.08993 1.73304 0
M  V30 11855 C 1171.88 3.57854 -0.383241 0
M  V30 11856 C 1171.49 4.10209 -1.80091 0
M  V30 11857 C 1173.23 4.24494 0.0225511 0
M  V30 11858 C 1171.14 5.60311 -1.89225 0
M  V30 11859 H 1170.07 0.74896 -0.087034 0
M  V30 11860 H 1172.72 1.61064 -0.879243 0
M  V30 11861 H 1171.1 3.94692 0.321642 0
M  V30 11862 H 1172.28 3.84762 -2.53564 0
M  V30 11863 H 1170.59 3.56142 -2.15758 0
M  V30 11864 H 1173.19 5.34694 -0.0250644 0
M  V30 11865 H 1173.53 4.02488 1.06344 0
M  V30 11866 H 1174.06 3.92739 -0.632541 0
M  V30 11867 H 1170.8 5.87162 -2.91412 0
M  V30 11868 H 1170.32 5.87642 -1.20154 0
M  V30 11869 H 1172 6.25306 -1.66136 0
M  V30 11870 N 1172.13 0.454803 1.50895 0
M  V30 11871 C 1173.54 -0.00421212 1.867 0
M  V30 11872 C 1173.9 -1.4037 1.3708 0
M  V30 11873 O 1173.02 -2.03755 0.728884 0
M  V30 11874 C 1173.62 -0.0144196 3.38797 0
M  V30 11875 C 1172.17 -0.417905 3.74073 0
M  V30 11876 C 1171.32 0.37801 2.74711 0
M  V30 11877 H 1174.27 0.669849 1.4387 0
M  V30 11878 H 1174.29 -0.820172 3.71555 0
M  V30 11879 H 1173.81 1.00427 3.74881 0
M  V30 11880 H 1171.91 -1.44155 3.43584 0
M  V30 11881 H 1172.02 -0.130568 4.78922 0
M  V30 11882 H 1170.38 -0.166089 2.54158 0
M  V30 11883 H 1171.17 1.3959 3.13639 0
M  V30 11884 N 1173.61 -1.56489 0.186789 0
M  V30 11885 C 1174.86 -1.97341 -0.454158 0
M  V30 11886 C 1175.19 -1.07337 -1.622 0
M  V30 11887 O 1174.44 -0.1107 -1.95387 0
M  V30 11888 C 1174.74 -3.44145 -0.964315 0
M  V30 11889 C 1174.41 -4.50812 0.0892734 0
M  V30 11890 C 1173.07 -4.79707 0.378794 0
M  V30 11891 C 1175.42 -5.14968 0.8036 0
M  V30 11892 C 1172.75 -5.70051 1.38776 0
M  V30 11893 C 1175.1 -6.06402 1.80166 0
M  V30 11894 C 1173.76 -6.33657 2.09847 0
M  V30 11895 H 1173.03 -0.722124 -0.166188 0
M  V30 11896 H 1175.68 -1.89412 0.282008 0
M  V30 11897 H 1173.99 -3.49103 -1.7786 0
M  V30 11898 H 1175.68 -3.73104 -1.4695 0
M  V30 11899 H 1172.27 -4.28349 -0.146552 0
M  V30 11900 H 1176.46 -4.92743 0.593147 0
M  V30 11901 H 1171.71 -5.89445 1.62373 0
M  V30 11902 H 1175.89 -6.55176 2.36045 0
M  V30 11903 H 1173.51 -7.03462 2.88175 0
M  V30 11904 N 1175.09 0.086862 -1.5736 0
M  V30 11905 C 1176.02 1.13614 -1.97907 0
M  V30 11906 C 1177 1.38395 -0.853564 0
M  V30 11907 O 1178.18 1.52018 -1.11457 0
M  V30 11908 C 1175.31 2.48364 -2.30289 0
M  V30 11909 C 1174.36 2.39814 -3.52692 0
M  V30 11910 S 1175.19 1.80673 -5.04101 0
M  V30 11911 C 1176.35 3.17031 -5.39669 0
M  V30 11912 H 1176.58 0.790538 -2.86597 0
M  V30 11913 H 1174.11 0.294847 -1.51559 0
M  V30 11914 H 1176.07 3.25883 -2.49621 0
M  V30 11915 H 1174.73 2.80091 -1.42154 0
M  V30 11916 H 1173.92 3.3915 -3.72818 0
M  V30 11917 H 1173.53 1.70427 -3.32912 0
M  V30 11918 H 1175.82 4.13319 -5.36818 0
M  V30 11919 H 1176.76 3.017 -6.40611 0
M  V30 11920 H 1177.17 3.16942 -4.67128 0
M  V30 11921 N 1176.57 1.53483 0.357892 0
M  V30 11922 C 1177.81 1.70289 1.10134 0
M  V30 11923 C 1178.15 0.457296 1.88739 0
M  V30 11924 O 1177.42 -0.545527 1.86693 0
M  V30 11925 C 1177.7 2.95755 2.05429 0
M  V30 11926 C 1177.56 4.30489 1.30382 0
M  V30 11927 C 1178.88 3.16844 3.05447 0
M  V30 11928 H 1176 0.61965 0.399003 0
M  V30 11929 H 1178.64 1.86133 0.381357 0
M  V30 11930 H 1176.79 2.82377 2.66825 0
M  V30 11931 H 1178.46 4.55692 0.71711 0
M  V30 11932 H 1176.7 4.2955 0.605712 0
M  V30 11933 H 1177.37 5.14427 2.00171 0
M  V30 11934 H 1179.85 3.29458 2.54159 0
M  V30 11935 H 1178.73 4.06053 3.69341 0
M  V30 11936 H 1178.99 2.32476 3.76041 0
M  V30 11937 N 1178.05 -0.61812 1.44973 0
M  V30 11938 C 1179.32 -1.37705 1.38913 0
M  V30 11939 C 1179.7 -2.1103 0.054385 0
M  V30 11940 O 1179.05 -2.07197 -0.963409 0
M  V30 11941 C 1179.26 -2.33265 2.59593 0
M  V30 11942 C 1180.61 -2.96197 3.04224 0
M  V30 11943 O 1181.63 -2.43589 2.59891 0
M  V30 11944 O 1180.49 -3.91666 3.8113 0
M  V30 11945 H 1177.59 -0.61694 0.55074 0
M  V30 11946 H 1180.13 -0.642088 1.57084 0
M  V30 11947 H 1178.9 -1.78271 3.48332 0
M  V30 11948 H 1178.53 -3.14158 2.43702 0
M  V30 11949 N 1179.52 -1.32087 -0.859693 0
M  V30 11950 C 1180.93 -1.20107 -1.42938 0
M  V30 11951 C 1181.29 0.188411 -1.95293 0
M  V30 11952 O 1180.41 1.08683 -1.87128 0
M  V30 11953 C 1181.01 -2.17436 -2.59821 0
M  V30 11954 C 1179.56 -2.09359 -3.12803 0
M  V30 11955 C 1178.71 -2.06086 -1.85537 0
M  V30 11956 H 1181.66 -1.43989 -0.667302 0
M  V30 11957 H 1181.68 -1.76996 -3.36828 0
M  V30 11958 H 1181.2 -3.18555 -2.21685 0
M  V30 11959 H 1179.3 -1.1147 -3.55535 0
M  V30 11960 H 1179.41 -2.98947 -3.74389 0
M  V30 11961 H 1177.77 -1.51251 -2.04928 0
M  V30 11962 H 1178.56 -3.08978 -1.49625 0
M  V30 11963 N 1181 1.07532 -1.15215 0
M  V30 11964 C 1182.23 1.84356 -0.950139 0
M  V30 11965 C 1182.65 1.81429 0.496502 0
M  V30 11966 O 1182.01 1.20589 1.35381 0
M  V30 11967 C 1182.06 3.29425 -1.46669 0
M  V30 11968 O 1181.16 4.07008 -0.664674 0
M  V30 11969 H 1180.5 0.570921 -0.339036 0
M  V30 11970 H 1183.03 1.35665 -1.53154 0
M  V30 11971 H 1183.04 3.8026 -1.47873 0
M  V30 11972 H 1181.72 3.3087 -2.51988 0
M  V30 11973 H 1180.29 3.65841 -0.72211 0
M  V30 11974 N 1182.48 0.948665 1.2585 0
M  V30 11975 C 1183.73 0.600236 1.934 0
M  V30 11976 C 1184.06 -0.86185 1.74363 0
M  V30 11977 O 1183.31 -1.63294 1.07858 0
M  V30 11978 C 1183.61 0.89784 3.45939 0
M  V30 11979 C 1183.28 2.345 3.85124 0
M  V30 11980 C 1181.94 2.74058 3.95532 0
M  V30 11981 C 1184.29 3.2851 4.04636 0
M  V30 11982 C 1181.62 4.06707 4.22855 0
M  V30 11983 C 1183.97 4.60764 4.3345 0
M  V30 11984 C 1182.63 5.00127 4.42074 0
M  V30 11985 H 1181.9 0.219642 0.707699 0
M  V30 11986 H 1184.55 1.19658 1.49513 0
M  V30 11987 H 1182.86 0.219037 3.91187 0
M  V30 11988 H 1184.55 0.606916 3.96381 0
M  V30 11989 H 1181.14 2.02819 3.77574 0
M  V30 11990 H 1185.33 2.99141 3.96015 0
M  V30 11991 H 1180.58 4.36856 4.27746 0
M  V30 11992 H 1184.76 5.33594 4.47493 0
M  V30 11993 H 1182.38 6.02939 4.63 0
M  V30 11994 N 1183.96 -1.40369 0.716545 0
M  V30 11995 C 1185.19 -2.05181 0.266143 0
M  V30 11996 C 1185.6 -1.53988 -1.09239 0
M  V30 11997 O 1184.96 -0.696859 -1.68672 0
M  V30 11998 C 1185.01 -3.60713 0.238384 0
M  V30 11999 O 1184.73 -4.10018 1.54328 0
M  V30 12000 C 1186.23 -4.42701 -0.230453 0
M  V30 12001 H 1183.45 -0.66028 0.119463 0
M  V30 12002 H 1186 -1.7976 0.97502 0
M  V30 12003 H 1184.15 -3.85101 -0.421466 0
M  V30 12004 H 1184.56 -5.0422 1.4444 0
M  V30 12005 H 1186.04 -5.51642 -0.198728 0
M  V30 12006 H 1186.52 -4.20354 -1.27276 0
M  V30 12007 H 1187.12 -4.23423 0.399155 0
M  V30 12008 N 1185.44 -0.462799 -1.50652 0
M  V30 12009 C 1186.66 0.0929761 -2.06691 0
M  V30 12010 C 1187.08 1.34241 -1.32758 0
M  V30 12011 O 1186.44 1.78187 -0.394427 0
M  V30 12012 C 1186.49 0.389492 -3.59396 0
M  V30 12013 O 1186.21 -0.810379 -4.3054 0
M  V30 12014 C 1187.71 0.993147 -4.32032 0
M  V30 12015 H 1184.93 -0.00338664 -0.670991 0
M  V30 12016 H 1187.47 -0.649201 -1.93922 0
M  V30 12017 H 1185.63 1.08159 -3.71995 0
M  V30 12018 H 1186.04 -0.54996 -5.21609 0
M  V30 12019 H 1187.52 1.15044 -5.39878 0
M  V30 12020 H 1187.99 1.98106 -3.91983 0
M  V30 12021 H 1188.6 0.339677 -4.23941 0
M  V30 12022 N 1186.91 1.56388 -0.195085 0
M  V30 12023 C 1188.16 1.97189 0.44281 0
M  V30 12024 C 1188.48 1.08312 1.62153 0
M  V30 12025 O 1187.75 0.154404 1.95291 0
M  V30 12026 H 1186.33 0.728188 0.166585 0
M  V30 12027 H 1189 1.92852 -0.281815 0
M  V30 12028 H 1188.09 3.02016 0.786945 0
M  V30 12029 N 1188.39 -0.0785156 1.57404 0
M  V30 12030 C 1189.64 -0.777722 1.86103 0
M  V30 12031 C 1189.95 -1.79079 0.786771 0
M  V30 12032 O 1191.16 -2.53908 0.961393 0
M  V30 12033 C 1189.62 -1.43407 3.30095 0
M  V30 12034 C 1189.22 -0.459912 4.45633 0
M  V30 12035 C 1190.97 -2.11603 3.68 0
M  V30 12036 C 1188.88 -1.12179 5.80663 0
M  V30 12037 H 1187.81 -0.294205 0.694233 0
M  V30 12038 H 1190.46 -0.0309003 1.83474 0
M  V30 12039 H 1188.84 -2.22892 3.27315 0
M  V30 12040 H 1190.01 0.304642 4.59792 0
M  V30 12041 H 1188.33 0.117242 4.16235 0
M  V30 12042 H 1190.92 -2.61887 4.66175 0
M  V30 12043 H 1191.27 -2.91244 2.9746 0
M  V30 12044 H 1191.8 -1.38958 3.72741 0
M  V30 12045 H 1188.54 -0.365842 6.54478 0
M  V30 12046 H 1188.06 -1.85737 5.70317 0
M  V30 12047 H 1189.74 -1.64355 6.25777 0
M  V30 12048 N 1189.87 -1.5367 -0.349747 0
M  V30 12049 C 1191.1 -1.74547 -1.11089 0
M  V30 12050 C 1191.51 -0.481741 -1.82551 0
M  V30 12051 O 1190.87 0.546272 -1.74132 0
M  V30 12052 C 1190.92 -2.92148 -2.12913 0
M  V30 12053 O 1190.64 -4.13633 -1.44358 0
M  V30 12054 C 1192.14 -3.25027 -3.01451 0
M  V30 12055 H 1189.36 -0.583376 -0.331532 0
M  V30 12056 H 1191.91 -2.00473 -0.403841 0
M  V30 12057 H 1190.06 -2.68572 -2.79192 0
M  V30 12058 H 1190.48 -4.79601 -2.12329 0
M  V30 12059 H 1191.95 -4.10679 -3.68845 0
M  V30 12060 H 1192.43 -2.41064 -3.67131 0
M  V30 12061 H 1193.03 -3.50586 -2.40768 0
M  V30 12062 N 1191.35 0.610423 -1.45298 0
M  V30 12063 C 1192.59 1.38085 -1.50705 0
M  V30 12064 C 1192.95 1.91459 -0.143997 0
M  V30 12065 O 1194.15 2.68702 -0.0727521 0
M  V30 12066 C 1192.42 2.50009 -2.55402 0
M  V30 12067 S 1193.98 3.37844 -2.80012 0
M  V30 12068 H 1190.8 0.470812 -0.532783 0
M  V30 12069 H 1193.4 0.704638 -1.8236 0
M  V30 12070 H 1192.11 2.09143 -3.53111 0
M  V30 12071 H 1191.64 3.22434 -2.25388 0
M  V30 12072 H 1193.65 4.48074 -2.13176 0
M  V30 12073 N 1192.83 1.32541 0.852676 0
M  V30 12074 C 1193.76 1.24254 1.97694 0
M  V30 12075 C 1194.74 0.125971 1.69633 0
M  V30 12076 O 1195.92 0.31347 1.91653 0
M  V30 12077 C 1193.05 0.966874 3.3357 0
M  V30 12078 C 1192.01 2.0449 3.75989 0
M  V30 12079 C 1191.33 1.6216 5.09518 0
M  V30 12080 C 1192.63 3.46013 3.91244 0
M  V30 12081 H 1194.33 2.18317 2.04886 0
M  V30 12082 H 1191.87 1.05101 0.984371 0
M  V30 12083 H 1193.83 0.895444 4.11776 0
M  V30 12084 H 1192.55 -0.0093893 3.26599 0
M  V30 12085 H 1191.21 2.10651 3.00036 0
M  V30 12086 H 1190.86 0.632729 4.99005 0
M  V30 12087 H 1190.56 2.3429 5.38871 0
M  V30 12088 H 1192.08 1.56457 5.90215 0
M  V30 12089 H 1193.49 3.4243 4.59799 0
M  V30 12090 H 1191.89 4.1651 4.32017 0
M  V30 12091 H 1192.96 3.8553 2.941 0
M  V30 12092 N 1194.3 -1.0692 1.15784 0
M  V30 12093 C 1195.55 -1.79245 0.933581 0
M  V30 12094 C 1195.87 -1.87362 -0.540427 0
M  V30 12095 O 1195.14 -1.37769 -1.39271 0
M  V30 12096 H 1193.72 -0.663898 0.342416 0
M  V30 12097 H 1196.39 -1.29189 1.45932 0
M  V30 12098 H 1195.48 -2.81546 1.34679 0
M  V30 12099 N 1195.78 -0.955326 -1.25345 0
M  V30 12100 C 1197.01 -0.627233 -1.97688 0
M  V30 12101 C 1197.43 0.793973 -1.70522 0
M  V30 12102 O 1196.79 1.537 -0.961556 0
M  V30 12103 C 1196.84 -0.892969 -3.49369 0
M  V30 12104 O 1195.94 0.0278871 -4.12391 0
M  V30 12105 H 1195.28 -0.238402 -0.619726 0
M  V30 12106 H 1197.81 -1.28211 -1.59446 0
M  V30 12107 H 1197.82 -0.819517 -3.99685 0
M  V30 12108 H 1196.5 -1.92879 -3.6847 0
M  V30 12109 H 1195.08 -0.0978295 -3.72772 0
M  V30 12110 N 1197.26 1.39987 -0.723979 0
M  V30 12111 C 1198.51 2.01028 -0.267511 0
M  V30 12112 C 1198.84 1.57295 1.13894 0
M  V30 12113 O 1198.12 0.796805 1.7743 0
M  V30 12114 C 1198.4 3.58326 -0.356971 0
M  V30 12115 C 1198.25 4.12109 -1.8024 0
M  V30 12116 C 1199.57 4.39289 0.267003 0
M  V30 12117 H 1196.69 0.730364 -0.0986775 0
M  V30 12118 H 1199.33 1.66348 -0.91806 0
M  V30 12119 H 1197.48 3.88001 0.196908 0
M  V30 12120 H 1199.15 3.93199 -2.41231 0
M  V30 12121 H 1197.4 3.66082 -2.32737 0
M  V30 12122 H 1198.07 5.21261 -1.81634 0
M  V30 12123 H 1200.54 4.15595 -0.20503 0
M  V30 12124 H 1199.42 5.48624 0.174004 0
M  V30 12125 H 1199.68 4.20931 1.35164 0
M  V30 12126 N 1198.74 0.470782 1.50404 0
M  V30 12127 C 1199.96 -0.084284 2.07229 0
M  V30 12128 C 1200.39 -1.32774 1.33239 0
M  V30 12129 O 1199.75 -1.77274 0.379971 0
M  V30 12130 C 1199.8 -0.351565 3.58882 0
M  V30 12131 O 1198.9 -1.43211 3.86736 0
M  V30 12132 H 1198.24 0.0128479 0.663876 0
M  V30 12133 H 1200.77 0.661735 1.93603 0
M  V30 12134 H 1200.78 -0.592151 4.0368 0
M  V30 12135 H 1199.46 0.557084 4.12152 0
M  V30 12136 H 1198.03 -1.17886 3.53776 0
M  V30 12137 N 1200.22 -1.56282 0.203376 0
M  V30 12138 C 1201.18 -2.18233 -0.700489 0
M  V30 12139 C 1202.18 -1.13908 -1.13497 0
M  V30 12140 O 1203.37 -1.39246 -1.04672 0
M  V30 12141 C 1200.5 -2.79107 -1.95735 0
M  V30 12142 H 1201.7 -2.99469 -0.160649 0
M  V30 12143 H 1199.25 -1.56232 -0.0462475 0
M  V30 12144 H 1199.98 -2.01691 -2.53951 0
M  V30 12145 H 1199.77 -3.55486 -1.65446 0
M  V30 12146 H 1201.26 -3.2665 -2.60172 0
M  V30 12147 N 1201.7 0.070167 -1.57444 0
M  V30 12148 C 1202.63 1.08351 -2.06839 0
M  V30 12149 C 1203.61 1.40269 -0.962224 0
M  V30 12150 O 1204.79 1.49867 -1.23505 0
M  V30 12151 C 1201.92 2.39649 -2.51368 0
M  V30 12152 C 1200.88 2.22079 -3.65875 0
M  V30 12153 C 1200.2 3.58776 -3.96464 0
M  V30 12154 C 1201.5 1.64069 -4.95862 0
M  V30 12155 H 1203.2 0.672465 -2.9175 0
M  V30 12156 H 1200.74 0.322027 -1.40353 0
M  V30 12157 H 1202.69 3.10833 -2.84537 0
M  V30 12158 H 1201.42 2.82736 -1.63487 0
M  V30 12159 H 1200.08 1.53337 -3.32992 0
M  V30 12160 H 1199.73 3.99436 -3.05712 0
M  V30 12161 H 1199.43 3.47859 -4.7357 0
M  V30 12162 H 1200.95 4.31387 -4.32131 0
M  V30 12163 H 1202.36 2.2512 -5.27251 0
M  V30 12164 H 1200.76 1.63843 -5.773 0
M  V30 12165 H 1201.83 0.60232 -4.81145 0
M  V30 12166 N 1203.17 1.53854 0.341593 0
M  V30 12167 C 1204.4 1.75447 1.10604 0
M  V30 12168 C 1204.82 0.493225 1.81518 0
M  V30 12169 O 1204.18 -0.554253 1.7262 0
M  V30 12170 C 1204.23 2.93593 2.09369 0
M  V30 12171 O 1203.33 2.63878 3.16926 0
M  V30 12172 H 1202.67 0.581923 0.319783 0
M  V30 12173 H 1205.2 2.00822 0.391388 0
M  V30 12174 H 1205.21 3.20437 2.52556 0
M  V30 12175 H 1203.89 3.85067 1.57151 0
M  V30 12176 H 1202.47 2.47929 2.78542 0
M  V30 12177 N 1204.65 -0.602709 1.4562 0
M  V30 12178 C 1205.61 -1.69508 1.54271 0
M  V30 12179 C 1206.61 -1.55171 0.421727 0
M  V30 12180 O 1207.8 -1.60151 0.685375 0
M  V30 12181 C 1204.94 -3.0881 1.44392 0
M  V30 12182 H 1206.13 -1.63203 2.51605 0
M  V30 12183 H 1203.68 -0.818857 1.33133 0
M  V30 12184 H 1204.42 -3.20689 0.482614 0
M  V30 12185 H 1204.2 -3.20625 2.25704 0
M  V30 12186 H 1205.69 -3.8837 1.53488 0
M  V30 12187 N 1206.13 -1.32992 -0.845635 0
M  V30 12188 C 1207.38 -1.24249 -1.60281 0
M  V30 12189 C 1207.71 0.193049 -1.93238 0
M  V30 12190 O 1206.98 1.1326 -1.58122 0
M  V30 12191 C 1207.27 -2.1111 -2.91727 0
M  V30 12192 C 1207.12 -3.63088 -2.65494 0
M  V30 12193 C 1208.44 -1.97913 -3.93089 0
M  V30 12194 H 1205.56 -0.452698 -0.581578 0
M  V30 12195 H 1208.2 -1.63026 -0.975828 0
M  V30 12196 H 1206.35 -1.78169 -3.45236 0
M  V30 12197 H 1208.02 -4.06287 -2.18469 0
M  V30 12198 H 1206.26 -3.85304 -1.99306 0
M  V30 12199 H 1206.94 -4.19202 -3.59129 0
M  V30 12200 H 1209.41 -2.26788 -3.48864 0
M  V30 12201 H 1208.29 -2.60952 -4.82903 0
M  V30 12202 H 1208.55 -0.949378 -4.31786 0
M  V30 12203 N 1207.61 1.06304 -1.1635 0
M  V30 12204 C 1208.54 2.13209 -0.81346 0
M  V30 12205 C 1209.52 1.61174 0.21484 0
M  V30 12206 O 1210.7 1.8824 0.0989458 0
M  V30 12207 C 1207.83 3.38039 -0.211498 0
M  V30 12208 C 1206.88 4.08875 -1.21339 0
M  V30 12209 S 1207.71 4.58894 -2.76001 0
M  V30 12210 C 1208.86 5.86985 -2.17254 0
M  V30 12211 H 1209.1 2.42572 -1.7189 0
M  V30 12212 H 1206.63 1.18737 -0.986957 0
M  V30 12213 H 1208.59 4.10296 0.129349 0
M  V30 12214 H 1207.25 3.06834 0.671705 0
M  V30 12215 H 1206.44 4.98528 -0.740631 0
M  V30 12216 H 1206.04 3.42632 -1.49932 0
M  V30 12217 H 1208.34 6.59738 -1.54115 0
M  V30 12218 H 1209.28 6.38991 -3.05117 0
M  V30 12219 H 1209.69 5.41012 -1.61141 0
M  V30 12220 N 1209.09 0.96196 1.24836 0
M  V30 12221 C 1210.33 0.619489 1.92371 0
M  V30 12222 C 1210.65 -0.847233 1.75633 0
M  V30 12223 O 1209.92 -1.60419 1.12439 0
M  V30 12224 H 1208.5 0.226129 0.711951 0
M  V30 12225 H 1211.17 1.22179 1.5185 0
M  V30 12226 H 1210.26 0.855128 3.00157 0
M  V30 12227 N 1210.56 -1.39601 0.731392 0
M  V30 12228 C 1211.81 -2.00883 0.278168 0
M  V30 12229 C 1212.14 -1.57897 -1.13059 0
M  V30 12230 O 1211.42 -0.806203 -1.77005 0
M  V30 12231 C 1211.7 -3.58132 0.375969 0
M  V30 12232 C 1211.55 -4.11147 1.82423 0
M  V30 12233 C 1212.87 -4.39425 -0.243702 0
M  V30 12234 H 1209.99 -0.729831 0.102549 0
M  V30 12235 H 1212.63 -1.65859 0.926869 0
M  V30 12236 H 1210.78 -3.881 -0.176329 0
M  V30 12237 H 1212.46 -3.91914 2.43313 0
M  V30 12238 H 1210.7 -3.64842 2.34675 0
M  V30 12239 H 1211.37 -5.20291 1.84396 0
M  V30 12240 H 1213.85 -4.1548 0.227067 0
M  V30 12241 H 1212.72 -5.48709 -0.144907 0
M  V30 12242 H 1212.98 -4.21642 -1.32929 0
M  V30 12243 N 1212.04 -0.478751 -1.50152 0
M  V30 12244 C 1213.27 0.0710485 -2.06778 0
M  V30 12245 C 1213.69 1.32826 -1.34174 0
M  V30 12246 O 1213.04 1.77758 -0.413304 0
M  V30 12247 C 1213.09 0.351351 -3.59789 0
M  V30 12248 O 1212.81 -0.855998 -4.29656 0
M  V30 12249 C 1214.32 0.947269 -4.33061 0
M  V30 12250 H 1211.54 -0.0105032 -0.670918 0
M  V30 12251 H 1214.08 -0.669732 -1.93222 0
M  V30 12252 H 1212.23 1.04207 -3.73121 0
M  V30 12253 H 1212.65 -0.605252 -5.20996 0
M  V30 12254 H 1214.12 1.09312 -5.41068 0
M  V30 12255 H 1214.6 1.93937 -3.94062 0
M  V30 12256 H 1215.21 0.294693 -4.24278 0
M  V30 12257 N 1213.52 1.56172 -0.211661 0
M  V30 12258 C 1214.45 2.22843 0.697375 0
M  V30 12259 C 1215.43 1.19689 1.20866 0
M  V30 12260 O 1216.62 1.48245 1.25447 0
M  V30 12261 C 1213.75 2.90067 1.90993 0
M  V30 12262 C 1212.7 3.99608 1.5329 0
M  V30 12263 C 1212.03 4.54078 2.82343 0
M  V30 12264 C 1213.33 5.17169 0.730333 0
M  V30 12265 H 1215.02 2.99065 0.141533 0
M  V30 12266 H 1212.57 1.43846 0.0666337 0
M  V30 12267 H 1214.52 3.35396 2.55123 0
M  V30 12268 H 1213.24 2.11276 2.49058 0
M  V30 12269 H 1211.9 3.54995 0.915115 0
M  V30 12270 H 1211.55 3.72029 3.38531 0
M  V30 12271 H 1211.25 5.28001 2.57853 0
M  V30 12272 H 1212.77 5.02119 3.47432 0
M  V30 12273 H 1214.19 5.5894 1.2751 0
M  V30 12274 H 1212.59 5.97262 0.582916 0
M  V30 12275 H 1213.66 4.84174 -0.265157 0
M  V30 12276 N 1215 -0.0618163 1.57479 0
M  V30 12277 C 1216.23 -0.771724 1.91969 0
M  V30 12278 C 1216.64 -1.7061 0.808549 0
M  V30 12279 O 1216 -1.812 -0.217455 0
M  V30 12280 C 1216.05 -1.55687 3.26257 0
M  V30 12281 O 1215.77 -0.660032 4.331 0
M  V30 12282 C 1217.27 -2.36688 3.74825 0
M  V30 12283 H 1214.49 -0.21885 0.634307 0
M  V30 12284 H 1217.04 -0.0291068 2.04479 0
M  V30 12285 H 1215.19 -2.25167 3.15244 0
M  V30 12286 H 1215.6 -1.20715 5.1042 0
M  V30 12287 H 1217.08 -2.8722 4.7139 0
M  V30 12288 H 1217.56 -3.1666 3.0434 0
M  V30 12289 H 1218.16 -1.72346 3.88815 0
M  V30 12290 N 1216.48 -1.54033 -0.333429 0
M  V30 12291 C 1217.44 -1.82021 -1.39288 0
M  V30 12292 C 1218.44 -0.691623 -1.45166 0
M  V30 12293 O 1219.63 -0.959925 -1.45365 0
M  V30 12294 C 1216.76 -1.97136 -2.78119 0
M  V30 12295 H 1217.95 -2.76671 -1.1573 0
M  V30 12296 H 1215.51 -1.45599 -0.568376 0
M  V30 12297 H 1216.24 -1.04663 -3.06946 0
M  V30 12298 H 1216.03 -2.79251 -2.75247 0
M  V30 12299 H 1217.52 -2.20271 -3.54782 0
M  V30 12300 N 1217.95 0.594978 -1.45938 0
M  V30 12301 C 1218.92 1.68688 -1.55168 0
M  V30 12302 C 1219.92 1.54945 -0.429951 0
M  V30 12303 O 1221.11 1.59785 -0.693859 0
M  V30 12304 C 1218.24 3.0804 -1.46027 0
M  V30 12305 H 1219.43 1.61866 -2.52467 0
M  V30 12306 H 1216.99 0.811785 -1.33565 0
M  V30 12307 H 1217.72 3.20428 -0.499614 0
M  V30 12308 H 1217.51 3.19423 -2.27401 0
M  V30 12309 H 1219 3.8755 -1.55546 0
M  V30 12310 N 1219.43 1.33438 0.838571 0
M  V30 12311 C 1220.68 1.24259 1.58879 0
M  V30 12312 C 1220.99 -0.189957 1.94675 0
M  V30 12313 O 1222.2 -0.40376 2.68481 0
M  V30 12314 C 1220.66 2.1773 2.86569 0
M  V30 12315 C 1220.26 3.66156 2.58135 0
M  V30 12316 C 1222.01 2.17424 3.64591 0
M  V30 12317 C 1219.92 4.5154 3.81923 0
M  V30 12318 H 1218.85 0.461534 0.59624 0
M  V30 12319 H 1221.5 1.58504 0.924588 0
M  V30 12320 H 1219.88 1.76418 3.54532 0
M  V30 12321 H 1221.05 4.1591 1.98382 0
M  V30 12322 H 1219.37 3.68754 1.93416 0
M  V30 12323 H 1221.96 2.78446 4.56478 0
M  V30 12324 H 1222.31 1.16939 3.99539 0
M  V30 12325 H 1222.84 2.571 3.03553 0
M  V30 12326 H 1219.58 5.52902 3.52107 0
M  V30 12327 H 1219.1 4.06529 4.41015 0
M  V30 12328 H 1220.78 4.65359 4.495 0
M  V30 12329 N 1220.91 -1.05686 1.16912 0
M  V30 12330 C 1222.16 -1.78244 0.95254 0
M  V30 12331 C 1222.48 -1.87924 -0.520525 0
M  V30 12332 O 1221.75 -1.39239 -1.37802 0
M  V30 12333 H 1220.33 -0.660228 0.349439 0
M  V30 12334 H 1222.99 -1.27634 1.47294 0
M  V30 12335 H 1222.09 -2.80102 1.37657 0
M  V30 12336 N 1222.39 -0.968567 -1.24324 0
M  V30 12337 C 1223.64 -0.629682 -1.9204 0
M  V30 12338 C 1223.96 0.837906 -1.7608 0
M  V30 12339 O 1223.23 1.5982 -1.13289 0
M  V30 12340 H 1221.81 -0.229901 -0.710742 0
M  V30 12341 H 1224.47 -1.22982 -1.512 0
M  V30 12342 H 1223.57 -0.871034 -2.99699 0
M  V30 12343 N 1223.87 1.39211 -0.738786 0
M  V30 12344 C 1224.83 2.28937 -0.109746 0
M  V30 12345 C 1225.83 1.46488 0.663157 0
M  V30 12346 O 1227.02 1.67119 0.491614 0
M  V30 12347 C 1224.15 3.30039 0.853633 0
M  V30 12348 H 1225.34 2.86068 -0.900295 0
M  V30 12349 H 1222.9 1.47922 -0.504853 0
M  V30 12350 H 1223.63 2.77971 1.6704 0
M  V30 12351 H 1223.42 3.90935 0.302007 0
M  V30 12352 H 1224.91 3.97169 1.29022 0
M  V30 12353 N 1225.34 0.486708 1.49896 0
M  V30 12354 C 1226.62 -0.125183 1.95199 0
M  V30 12355 C 1227 -1.55498 1.42771 0
M  V30 12356 O 1226.35 -2.1949 0.635322 0
M  V30 12357 C 1226.56 -0.0524982 3.48961 0
M  V30 12358 C 1227.91 -0.233595 4.23957 0
M  V30 12359 O 1228.93 -0.128357 3.55969 0
M  V30 12360 O 1227.79 -0.447862 5.44662 0
M  V30 12361 H 1224.88 -0.103141 0.820543 0
M  V30 12362 H 1227.43 0.548226 1.60601 0
M  V30 12363 H 1226.2 0.945163 3.79714 0
M  V30 12364 H 1225.83 -0.766683 3.90138 0
M  V30 12365 N 1226.82 -1.56058 0.219941 0
M  V30 12366 C 1227.76 -2.16182 -0.730796 0
M  V30 12367 C 1228.73 -1.10574 -1.19215 0
M  V30 12368 O 1229.92 -1.38821 -1.27518 0
M  V30 12369 C 1227.05 -2.7408 -1.98992 0
M  V30 12370 C 1226.09 -3.92502 -1.66867 0
M  V30 12371 S 1226.92 -5.29568 -0.794875 0
M  V30 12372 C 1228.08 -5.90903 -2.0636 0
M  V30 12373 H 1228.31 -2.96487 -0.219762 0
M  V30 12374 H 1225.85 -1.54399 0.00465254 0
M  V30 12375 H 1227.8 -3.08078 -2.7129 0
M  V30 12376 H 1226.47 -1.93771 -2.47207 0
M  V30 12377 H 1225.66 -4.31509 -2.60414 0
M  V30 12378 H 1225.26 -3.59642 -1.02633 0
M  V30 12379 H 1227.55 -6.06778 -3.01374 0
M  V30 12380 H 1228.5 -6.86957 -1.71745 0
M  V30 12381 H 1228.9 -5.19722 -2.2034 0
M  V30 12382 N 1228.3 0.053464 -1.57509 0
M  V30 12383 C 1229.71 0.603099 -1.76691 0
M  V30 12384 C 1230.06 1.76934 -0.847861 0
M  V30 12385 O 1229.19 2.16369 -0.0364962 0
M  V30 12386 C 1229.78 1.10084 -3.20417 0
M  V30 12387 C 1228.34 1.59618 -3.4088 0
M  V30 12388 C 1227.49 0.523516 -2.72313 0
M  V30 12389 H 1230.44 -0.172751 -1.57757 0
M  V30 12390 H 1230.46 1.9691 -3.25587 0
M  V30 12391 H 1229.97 0.251818 -3.87282 0
M  V30 12392 H 1228.07 2.46786 -2.79155 0
M  V30 12393 H 1228.19 1.6605 -4.49404 0
M  V30 12394 H 1226.55 0.972886 -2.35387 0
M  V30 12395 H 1227.33 -0.315629 -3.41846 0
M  V30 12396 N 1229.78 1.54207 0.325255 0
M  V30 12397 C 1231.03 1.72587 1.06497 0
M  V30 12398 C 1231.36 0.497228 1.87727 0
M  V30 12399 O 1230.63 -0.505804 1.87808 0
M  V30 12400 C 1230.92 3.00046 1.99109 0
M  V30 12401 C 1230.77 4.33158 1.21221 0
M  V30 12402 C 1232.09 3.23251 2.98658 0
M  V30 12403 H 1229.21 0.627974 0.38577 0
M  V30 12404 H 1231.85 1.869 0.34179 0
M  V30 12405 H 1230 2.87973 2.60775 0
M  V30 12406 H 1231.67 4.57111 0.620289 0
M  V30 12407 H 1229.91 4.30739 0.514462 0
M  V30 12408 H 1230.59 5.18558 1.89214 0
M  V30 12409 H 1233.06 3.34774 2.47114 0
M  V30 12410 H 1231.94 4.13796 3.60645 0
M  V30 12411 H 1232.2 2.40401 3.71026 0
M  V30 12412 N 1231.26 -0.58723 1.46251 0
M  V30 12413 C 1232.5 -1.3476 1.51551 0
M  V30 12414 C 1232.84 -1.93499 0.16483 0
M  V30 12415 O 1232.11 -1.7622 -0.823207 0
M  V30 12416 C 1232.39 -2.48033 2.61059 0
M  V30 12417 C 1232.25 -1.94358 4.05642 0
M  V30 12418 C 1233.57 -3.50096 2.66685 0
M  V30 12419 H 1230.69 -0.48863 0.551733 0
M  V30 12420 H 1233.33 -0.660097 1.78165 0
M  V30 12421 H 1231.48 -3.06679 2.38496 0
M  V30 12422 H 1233.15 -1.40204 4.39478 0
M  V30 12423 H 1231.39 -1.25217 4.15335 0
M  V30 12424 H 1232.06 -2.76105 4.77986 0
M  V30 12425 H 1234.54 -3.01324 2.86955 0
M  V30 12426 H 1233.42 -4.26817 3.45135 0
M  V30 12427 H 1233.68 -4.07032 1.7256 0
M  V30 12428 N 1232.74 -1.33881 -0.831482 0
M  V30 12429 C 1233.98 -1.251 -1.58218 0
M  V30 12430 C 1234.3 0.17963 -1.94773 0
M  V30 12431 O 1235.5 0.389516 -2.68691 0
M  V30 12432 C 1233.96 -2.19246 -2.8541 0
M  V30 12433 C 1233.57 -3.6752 -2.5619 0
M  V30 12434 C 1235.31 -2.19355 -3.63433 0
M  V30 12435 C 1233.22 -4.53559 -3.79523 0
M  V30 12436 H 1232.15 -0.46469 -0.593784 0
M  V30 12437 H 1234.8 -1.58992 -0.916169 0
M  V30 12438 H 1233.18 -1.78295 -3.53591 0
M  V30 12439 H 1234.36 -4.16956 -1.96173 0
M  V30 12440 H 1232.67 -3.69774 -1.91458 0
M  V30 12441 H 1235.27 -2.80863 -4.54995 0
M  V30 12442 H 1235.61 -1.19056 -3.98913 0
M  V30 12443 H 1236.14 -2.58706 -3.02185 0
M  V30 12444 H 1232.88 -5.54762 -3.4917 0
M  V30 12445 H 1232.4 -4.08862 -4.38853 0
M  V30 12446 H 1234.08 -4.67736 -4.47025 0
M  V30 12447 N 1234.21 1.05064 -1.1747 0
M  V30 12448 C 1235.44 1.81761 -0.988464 0
M  V30 12449 C 1235.86 1.83028 0.463272 0
M  V30 12450 O 1235.21 1.25846 1.32171 0
M  V30 12451 C 1235.26 3.2782 -1.5237 0
M  V30 12452 O 1234.99 3.26726 -2.91859 0
M  V30 12453 C 1236.49 4.212 -1.38223 0
M  V30 12454 H 1233.71 0.572712 -0.349631 0
M  V30 12455 H 1236.25 1.32477 -1.55789 0
M  V30 12456 H 1234.41 3.7437 -0.996272 0
M  V30 12457 H 1234.82 4.18151 -3.16623 0
M  V30 12458 H 1236.29 5.2166 -1.80485 0
M  V30 12459 H 1236.77 4.37962 -0.329491 0
M  V30 12460 H 1237.38 3.80506 -1.89988 0
M  V30 12461 N 1235.69 0.975146 1.23809 0
M  V30 12462 C 1236.94 0.642074 1.92367 0
M  V30 12463 C 1237.27 -0.82164 1.75962 0
M  V30 12464 O 1236.55 -1.59205 1.11732 0
M  V30 12465 C 1236.83 1.02677 3.45151 0
M  V30 12466 C 1236.68 2.54773 3.7069 0
M  V30 12467 C 1238 0.5668 4.36435 0
M  V30 12468 H 1235.12 0.234735 0.698619 0
M  V30 12469 H 1237.76 1.21549 1.46034 0
M  V30 12470 H 1235.91 0.538846 3.84745 0
M  V30 12471 H 1237.58 3.11099 3.4061 0
M  V30 12472 H 1235.83 2.97641 3.15583 0
M  V30 12473 H 1236.5 2.7674 4.77618 0
M  V30 12474 H 1238.97 0.985635 4.04258 0
M  V30 12475 H 1237.85 0.864458 5.4205 0
M  V30 12476 H 1238.11 -0.532989 4.38875 0
M  V30 12477 N 1237.17 -1.38817 0.746158 0
M  V30 12478 C 1238.1 -2.33144 0.128836 0
M  V30 12479 C 1239.08 -1.54487 -0.711873 0
M  V30 12480 O 1240.27 -1.82836 -0.654577 0
M  V30 12481 C 1237.4 -3.38639 -0.770772 0
M  V30 12482 C 1236.35 -4.27987 -0.0333669 0
M  V30 12483 C 1235.68 -5.24274 -1.05073 0
M  V30 12484 C 1236.98 -5.09915 1.13066 0
M  V30 12485 H 1238.67 -2.85019 0.916778 0
M  V30 12486 H 1236.22 -1.37039 0.442306 0
M  V30 12487 H 1238.17 -4.03587 -1.21225 0
M  V30 12488 H 1236.89 -2.8523 -1.59095 0
M  V30 12489 H 1235.55 -3.64534 0.388612 0
M  V30 12490 H 1235.2 -4.67156 -1.86478 0
M  V30 12491 H 1234.9 -5.84906 -0.562037 0
M  V30 12492 H 1236.42 -5.92099 -1.49169 0
M  V30 12493 H 1237.84 -5.68145 0.767084 0
M  V30 12494 H 1236.23 -5.79744 1.54972 0
M  V30 12495 H 1237.3 -4.4409 1.94709 0
M  V30 12496 N 1238.65 -0.49465 -1.49636 0
M  V30 12497 C 1239.6 0.300929 -2.30645 0
M  V30 12498 C 1240.59 0.968687 -1.38971 0
M  V30 12499 O 1241.8 0.897101 -1.56052 0
M  V30 12500 H 1238.17 0.1159 -0.743015 0
M  V30 12501 H 1240.14 -0.402387 -2.95674 0
M  V30 12502 C 1238.89 1.35638 -3.20153 0
M  V30 12503 H 1238.21 0.851946 -3.90617 0
M  V30 12504 H 1239.65 1.88515 -3.79787 0
M  V30 12505 C 1238.11 2.37112 -2.39331 0
M  V30 12506 O 1238.64 3.42867 -2.09298 0
M  V30 12507 N 1236.85 2.09421 -2.01473 0
M  V30 12508 H 1236.4 1.23441 -2.26097 0
M  V30 12509 H 1236.35 2.77545 -1.47703 0
M  V30 12510 N 1240.13 1.55939 -0.228214 0
M  V30 12511 C 1241.35 2.0332 0.409364 0
M  V30 12512 C 1241.78 1.10683 1.52088 0
M  V30 12513 O 1241.13 0.0962484 1.81044 0
M  V30 12514 C 1241.18 3.48877 0.911981 0
M  V30 12515 O 1240.29 3.59378 2.02289 0
M  V30 12516 H 1239.63 0.657625 0.0917909 0
M  V30 12517 H 1242.16 2.01605 -0.348802 0
M  V30 12518 H 1242.17 3.89331 1.22007 0
M  V30 12519 H 1240.84 4.15783 0.0984902 0
M  V30 12520 H 1239.42 3.30815 1.72093 0
M  V30 12521 N 1241.6 -0.0451101 1.57535 0
M  V30 12522 C 1242.83 -0.750231 1.92497 0
M  V30 12523 C 1243.24 -1.70268 0.824946 0
M  V30 12524 O 1242.59 -1.82511 -0.208656 0
M  V30 12525 C 1242.65 -1.57543 3.23141 0
M  V30 12526 C 1242.31 -0.789495 4.50129 0
M  V30 12527 C 1243.31 -0.0968367 5.1981 0
M  V30 12528 C 1240.99 -0.748776 4.96688 0
M  V30 12529 C 1242.99 0.626018 6.34318 0
M  V30 12530 C 1240.67 -0.0221652 6.11096 0
M  V30 12531 C 1241.67 0.664006 6.79765 0
M  V30 12532 O 1241.36 1.37885 7.91987 0
M  V30 12533 H 1241.09 -0.216895 0.64026 0
M  V30 12534 H 1243.65 -0.011558 2.05397 0
M  V30 12535 H 1241.88 -2.35754 3.06524 0
M  V30 12536 H 1243.57 -2.16168 3.4355 0
M  V30 12537 H 1244.33 -0.119429 4.84853 0
M  V30 12538 H 1240.21 -1.27235 4.43094 0
M  V30 12539 H 1243.75 1.16215 6.87852 0
M  V30 12540 H 1239.65 0.00240707 6.455 0
M  V30 12541 H 1240.42 1.29087 8.08257 0
M  V30 12542 N 1243.08 -1.54377 -0.317073 0
M  V30 12543 C 1244.31 -1.77184 -1.07798 0
M  V30 12544 C 1244.73 -0.52204 -1.80711 0
M  V30 12545 O 1244.09 0.52672 -1.7348 0
M  V30 12546 C 1244.14 -2.96887 -2.04671 0
M  V30 12547 O 1243.24 -2.68887 -3.12688 0
M  V30 12548 H 1242.58 -0.586937 -0.310485 0
M  V30 12549 H 1245.11 -2.01419 -0.35939 0
M  V30 12550 H 1245.12 -3.24414 -2.47426 0
M  V30 12551 H 1243.8 -3.87518 -1.51005 0
M  V30 12552 H 1242.38 -2.52329 -2.74562 0
M  V30 12553 N 1244.56 0.579466 -1.4656 0
M  V30 12554 C 1245.81 1.33492 -1.51738 0
M  V30 12555 C 1246.13 1.94241 -0.171926 0
M  V30 12556 O 1245.4 1.78737 0.801875 0
M  V30 12557 H 1243.98 0.49565 -0.558874 0
M  V30 12558 H 1246.64 0.678394 -1.82712 0
M  V30 12559 H 1245.74 2.13995 -2.27183 0
M  V30 12560 N 1246.04 1.3432 0.824371 0
M  V30 12561 C 1247.28 1.27792 1.58243 0
M  V30 12562 C 1247.64 -0.151189 1.91805 0
M  V30 12563 O 1246.93 -1.09708 1.57082 0
M  V30 12564 C 1247.13 2.1008 2.89139 0
M  V30 12565 C 1246.96 3.60848 2.68363 0
M  V30 12566 C 1245.73 4.3013 2.65172 0
M  V30 12567 C 1247.92 4.54878 2.39979 0
M  V30 12568 N 1245.91 5.66756 2.35927 0
M  V30 12569 C 1247.28 5.79497 2.20415 0
M  V30 12570 C 1249.33 4.43809 2.25695 0
M  V30 12571 C 1248.03 6.94293 1.88015 0
M  V30 12572 C 1250.06 5.58435 1.9469 0
M  V30 12573 C 1249.42 6.82071 1.75948 0
M  V30 12574 H 1245.52 0.522853 0.581505 0
M  V30 12575 H 1248.11 1.69017 0.96651 0
M  V30 12576 H 1246.28 1.71154 3.48656 0
M  V30 12577 H 1248.01 1.95208 3.54508 0
M  V30 12578 H 1244.76 3.82554 2.79194 0
M  V30 12579 H 1245.19 6.38817 2.24148 0
M  V30 12580 H 1249.83 3.48842 2.38891 0
M  V30 12581 H 1247.55 7.89242 1.73557 0
M  V30 12582 H 1251.13 5.51814 1.84372 0
M  V30 12583 H 1250.01 7.69268 1.52304 0
M  V30 12584 N 1247.52 -1.0444 1.18026 0
M  V30 12585 C 1248.48 -2.10532 0.906028 0
M  V30 12586 C 1249.48 -1.60443 -0.107022 0
M  V30 12587 O 1250.67 -1.73744 0.126001 0
M  V30 12588 C 1247.8 -3.39008 0.358625 0
M  V30 12589 H 1248.99 -2.36293 1.84677 0
M  V30 12590 H 1246.55 -1.20805 0.991763 0
M  V30 12591 H 1247.28 -3.18908 -0.588904 0
M  V30 12592 H 1247.07 -3.76678 1.08884 0
M  V30 12593 H 1248.56 -4.17189 0.185331 0
M  V30 12594 N 1248.99 -0.981699 -1.2329 0
M  V30 12595 C 1249.92 -0.542441 -2.27112 0
M  V30 12596 C 1250.91 0.425034 -1.64704 0
M  V30 12597 O 1252.09 0.318114 -1.91577 0
M  V30 12598 C 1249.22 0.154668 -3.46955 0
M  V30 12599 C 1248.17 -0.73022 -4.21725 0
M  V30 12600 C 1247.5 0.0991766 -5.34608 0
M  V30 12601 C 1248.8 -2.02166 -4.81587 0
M  V30 12602 H 1250.49 -1.41024 -2.64107 0
M  V30 12603 H 1248.04 -0.679544 -1.26957 0
M  V30 12604 H 1249.99 0.473281 -4.18734 0
M  V30 12605 H 1248.72 1.05693 -3.09025 0
M  V30 12606 H 1247.38 -1.03231 -3.51765 0
M  V30 12607 H 1247.02 1.00201 -4.92919 0
M  V30 12608 H 1246.72 -0.489788 -5.85555 0
M  V30 12609 H 1248.25 0.412141 -6.09207 0
M  V30 12610 H 1249.66 -1.76773 -5.45366 0
M  V30 12611 H 1248.06 -2.55851 -5.42826 0
M  V30 12612 H 1249.13 -2.70766 -4.02261 0
M  V30 12613 N 1250.47 1.3842 -0.753509 0
M  V30 12614 C 1251.71 2.01965 -0.314558 0
M  V30 12615 C 1252.08 1.58519 1.08331 0
M  V30 12616 O 1253.28 2.14395 1.62137 0
M  V30 12617 C 1251.55 3.54765 -0.433199 0
M  V30 12618 S 1253.11 4.38733 -0.0768176 0
M  V30 12619 H 1249.93 0.700447 -0.122045 0
M  V30 12620 H 1252.53 1.68925 -0.98411 0
M  V30 12621 H 1251.23 3.83874 -1.45152 0
M  V30 12622 H 1250.76 3.92582 0.253539 0
M  V30 12623 H 1252.78 4.83077 1.13361 0
M  V30 12624 N 1251.95 0.502579 1.49372 0
M  V30 12625 C 1252.91 -0.263993 2.27675 0
M  V30 12626 C 1253.91 -0.892538 1.33755 0
M  V30 12627 O 1255.1 -0.756826 1.56901 0
M  V30 12628 C 1252.24 -1.37895 3.11765 0
M  V30 12629 H 1253.43 0.423132 2.969 0
M  V30 12630 H 1250.98 0.257595 1.54163 0
M  V30 12631 H 1251.72 -2.10018 2.47109 0
M  V30 12632 H 1251.5 -0.933694 3.80821 0
M  V30 12633 H 1252.99 -1.91889 3.70902 0
M  V30 12634 N 1253.43 -1.55816 0.23648 0
M  V30 12635 C 1254.34 -2.24576 -0.678439 0
M  V30 12636 C 1255.35 -1.25836 -1.20172 0
M  V30 12637 O 1256.53 -1.58686 -1.24019 0
M  V30 12638 C 1253.6 -2.92376 -1.86325 0
M  V30 12639 C 1252.66 -4.06499 -1.38047 0
M  V30 12640 C 1251.89 -4.71057 -2.50881 0
M  V30 12641 O 1252.11 -4.34652 -3.69369 0
M  V30 12642 O 1251.05 -5.59768 -2.21232 0
M  V30 12643 H 1254.87 -3.03452 -0.122601 0
M  V30 12644 H 1252.46 -1.49399 0.00540803 0
M  V30 12645 H 1254.34 -3.35117 -2.55488 0
M  V30 12646 H 1253.01 -2.16448 -2.40691 0
M  V30 12647 H 1251.92 -3.68296 -0.656422 0
M  V30 12648 H 1253.25 -4.84214 -0.883024 0
M  V30 12649 N 1254.91 0.036755 -1.57557 0
M  V30 12650 C 1256.15 0.727665 -1.88546 0
M  V30 12651 C 1256.48 1.76304 -0.833179 0
M  V30 12652 O 1255.75 1.9544 0.13414 0
M  V30 12653 H 1254.33 0.271744 -0.695819 0
M  V30 12654 H 1256.99 0.00452915 -1.94899 0
M  V30 12655 H 1256.08 1.22205 -2.8718 0
M  V30 12656 N 1256.39 1.54543 0.308881 0
M  V30 12657 C 1257.63 1.73449 1.04506 0
M  V30 12658 C 1257.96 0.516034 1.8753 0
M  V30 12659 O 1257.22 -0.502106 1.89149 0
M  V30 12660 C 1257.51 2.97124 1.98626 0
M  V30 12661 C 1257.18 4.31256 1.31641 0
M  V30 12662 C 1255.84 4.67719 1.13105 0
M  V30 12663 C 1258.19 5.14437 0.836888 0
M  V30 12664 C 1255.52 5.84949 0.452878 0
M  V30 12665 C 1257.87 6.32365 0.172473 0
M  V30 12666 C 1256.54 6.67495 -0.0249143 0
M  V30 12667 H 1255.81 0.634697 0.382415 0
M  V30 12668 H 1258.46 1.88795 0.320714 0
M  V30 12669 H 1256.76 2.76526 2.77562 0
M  V30 12670 H 1258.46 3.08946 2.55643 0
M  V30 12671 H 1255.05 4.02576 1.47074 0
M  V30 12672 H 1259.23 4.86772 0.967834 0
M  V30 12673 H 1254.49 6.10717 0.288886 0
M  V30 12674 H 1258.66 6.96092 -0.207027 0
M  V30 12675 H 1256.29 7.5819 -0.552425 0
M  V30 12676 N 1257.86 -0.571685 1.46866 0
M  V30 12677 C 1258.79 -1.68994 1.61131 0
M  V30 12678 C 1259.77 -1.63728 0.461222 0
M  V30 12679 O 1260.96 -1.81574 0.688813 0
M  V30 12680 C 1258.09 -3.07638 1.61172 0
M  V30 12681 C 1257.04 -3.27742 2.75262 0
M  V30 12682 C 1256.37 -4.67025 2.60368 0
M  V30 12683 C 1257.67 -3.14511 4.16989 0
M  V30 12684 H 1259.36 -1.57311 2.54742 0
M  V30 12685 H 1256.91 -0.755382 1.22597 0
M  V30 12686 H 1258.86 -3.857 1.69744 0
M  V30 12687 H 1257.59 -3.20245 0.641122 0
M  V30 12688 H 1256.25 -2.52083 2.66176 0
M  V30 12689 H 1255.89 -4.76413 1.61368 0
M  V30 12690 H 1255.59 -4.81428 3.36899 0
M  V30 12691 H 1257.12 -5.47242 2.70848 0
M  V30 12692 H 1258.53 -3.82407 4.27128 0
M  V30 12693 H 1256.93 -3.40431 4.94193 0
M  V30 12694 H 1258 -2.11443 4.36371 0
M  V30 12695 N 1259.34 -1.34755 -0.817236 0
M  V30 12696 C 1260.27 -1.29452 -1.94331 0
M  V30 12697 C 1261.25 -0.170902 -1.69239 0
M  V30 12698 O 1262.44 -0.364173 -1.90755 0
M  V30 12699 C 1259.57 -1.05497 -3.30889 0
M  V30 12700 C 1258.52 -2.14386 -3.70436 0
M  V30 12701 C 1257.85 -1.75612 -5.05039 0
M  V30 12702 C 1259.15 -3.56265 -3.81933 0
M  V30 12703 H 1260.84 -2.23672 -1.99025 0
M  V30 12704 H 1258.39 -1.07674 -0.956159 0
M  V30 12705 H 1260.34 -1.0043 -4.09257 0
M  V30 12706 H 1259.06 -0.0772059 -3.26509 0
M  V30 12707 H 1257.72 -2.18532 -2.94345 0
M  V30 12708 H 1257.37 -0.764809 -4.97152 0
M  V30 12709 H 1257.07 -2.48495 -5.3247 0
M  V30 12710 H 1258.6 -1.72051 -5.85859 0
M  V30 12711 H 1260.01 -3.545 -4.50558 0
M  V30 12712 H 1258.41 -4.27818 -4.20822 0
M  V30 12713 H 1259.48 -3.93192 -2.83775 0
M  V30 12714 N 1260.82 1.03812 -1.18578 0
M  V30 12715 C 1261.77 2.13994 -0.911563 0
M  V30 12716 C 1262.76 1.68907 0.129131 0
M  V30 12717 O 1263.97 1.7999 -0.0192557 0
M  V30 12718 H 1260.34 0.698996 -0.277324 0
M  V30 12719 H 1262.31 2.34318 -1.84763 0
M  V30 12720 C 1261.06 3.44689 -0.456591 0
M  V30 12721 H 1260.39 3.79793 -1.2489 0
M  V30 12722 H 1261.83 4.22911 -0.303738 0
M  V30 12723 C 1260.28 3.26568 0.827961 0
M  V30 12724 O 1260.81 3.54376 1.89158 0
M  V30 12725 N 1259.02 2.79893 0.781567 0
M  V30 12726 H 1258.57 2.57462 -0.0842145 0
M  V30 12727 H 1258.53 2.68148 1.64146 0
M  V30 12728 N 1262.3 0.988223 1.22768 0
M  V30 12729 C 1263.25 0.527454 2.26541 0
M  V30 12730 C 1264.24 -0.419506 1.64123 0
M  V30 12731 O 1265.45 -0.292539 1.77607 0
M  V30 12732 H 1261.82 0.152165 0.736444 0
M  V30 12733 H 1263.79 1.41422 2.62759 0
M  V30 12734 C 1262.54 -0.146845 3.4739 0
M  V30 12735 H 1261.86 0.572752 3.95676 0
M  V30 12736 H 1263.3 -0.432768 4.21786 0
M  V30 12737 C 1261.76 -1.38065 3.0731 0
M  V30 12738 O 1262.29 -2.47634 3.16291 0
M  V30 12739 N 1260.5 -1.25418 2.62143 0
M  V30 12740 H 1260.05 -0.362641 2.55035 0
M  V30 12741 H 1260 -2.08077 2.35694 0
M  V30 12742 N 1263.78 -1.38018 0.760839 0
M  V30 12743 C 1264.72 -2.32251 0.127425 0
M  V30 12744 C 1265.72 -1.54387 -0.69722 0
M  V30 12745 O 1266.92 -1.69864 -0.595505 0
M  V30 12746 H 1263.3 -0.751666 0.0224141 0
M  V30 12747 H 1265.27 -2.8327 0.93813 0
M  V30 12748 C 1264.02 -3.39606 -0.745849 0
M  V30 12749 H 1263.34 -3.99618 -0.120679 0
M  V30 12750 H 1264.78 -4.07931 -1.15621 0
M  V30 12751 C 1263.24 -2.78778 -1.89167 0
M  V30 12752 O 1263.77 -2.68661 -2.98637 0
M  V30 12753 N 1261.98 -2.36481 -1.68894 0
M  V30 12754 H 1261.52 -2.4491 -0.798551 0
M  V30 12755 H 1261.48 -1.96126 -2.45728 0
M  V30 12756 N 1265.25 -0.510493 -1.49103 0
M  V30 12757 C 1266.18 0.251999 -2.32136 0
M  V30 12758 C 1267.16 0.953613 -1.40855 0
M  V30 12759 O 1268.35 0.943178 -1.69758 0
M  V30 12760 C 1265.48 1.31118 -3.21598 0
M  V30 12761 C 1264.43 0.72888 -4.21748 0
M  V30 12762 C 1263.76 1.88928 -5.0021 0
M  V30 12763 C 1265.06 -0.286425 -5.21514 0
M  V30 12764 H 1266.75 -0.441102 -2.96133 0
M  V30 12765 H 1264.3 -0.213577 -1.42407 0
M  V30 12766 H 1266.25 1.8524 -3.78503 0
M  V30 12767 H 1264.98 2.0336 -2.55563 0
M  V30 12768 H 1263.64 0.209336 -3.66002 0
M  V30 12769 H 1263.28 2.59961 -4.30615 0
M  V30 12770 H 1262.98 1.50568 -5.67981 0
M  V30 12771 H 1264.51 2.43465 -5.59962 0
M  V30 12772 H 1265.92 0.166997 -5.73057 0
M  V30 12773 H 1264.32 -0.586361 -5.97228 0
M  V30 12774 H 1265.39 -1.19904 -4.69842 0
M  V30 12775 N 1266.73 1.55688 -0.24474 0
M  V30 12776 C 1267.66 2.24272 0.64995 0
M  V30 12777 C 1268.64 1.22226 1.183 0
M  V30 12778 O 1269.83 1.50873 1.22274 0
M  V30 12779 C 1266.96 2.94053 1.84798 0
M  V30 12780 C 1265.91 4.02769 1.44779 0
M  V30 12781 C 1265.24 4.59965 2.72647 0
M  V30 12782 C 1266.54 5.18601 0.62047 0
M  V30 12783 H 1268.23 2.99298 0.0780654 0
M  V30 12784 H 1265.78 1.43955 0.0361069 0
M  V30 12785 H 1267.73 3.40732 2.47951 0
M  V30 12786 H 1266.45 2.16511 2.44521 0
M  V30 12787 H 1265.11 3.56856 0.839609 0
M  V30 12788 H 1264.76 3.79126 3.30564 0
M  V30 12789 H 1264.46 5.33352 2.46596 0
M  V30 12790 H 1265.99 5.09376 3.36703 0
M  V30 12791 H 1267.4 5.61519 1.15625 0
M  V30 12792 H 1265.8 5.98364 0.456097 0
M  V30 12793 H 1266.87 4.83503 -0.367798 0
M  V30 12794 N 1268.21 -0.0283989 1.57574 0
M  V30 12795 C 1269.44 -0.730831 1.93563 0
M  V30 12796 C 1269.85 -1.68857 0.844556 0
M  V30 12797 O 1269.21 -1.8162 -0.178971 0
M  V30 12798 C 1269.26 -1.48731 3.29486 0
M  V30 12799 O 1268.98 -0.568017 4.34402 0
M  V30 12800 C 1270.48 -2.28684 3.79761 0
M  V30 12801 H 1267.7 -0.205346 0.638807 0
M  V30 12802 H 1270.25 0.0142728 2.04495 0
M  V30 12803 H 1268.4 -2.18429 3.19949 0
M  V30 12804 H 1268.82 -1.09861 5.12865 0
M  V30 12805 H 1270.29 -2.77157 4.77376 0
M  V30 12806 H 1270.77 -3.10133 3.10989 0
M  V30 12807 H 1271.37 -1.64059 3.92383 0
M  V30 12808 N 1269.69 -1.54705 -0.300681 0
M  V30 12809 C 1270.94 -1.73211 -1.03349 0
M  V30 12810 C 1271.25 -0.52518 -1.88418 0
M  V30 12811 O 1272.46 -0.592049 -2.64966 0
M  V30 12812 C 1270.91 -3.06453 -1.88717 0
M  V30 12813 C 1270.52 -4.34625 -1.0865 0
M  V30 12814 C 1272.26 -3.34317 -2.61595 0
M  V30 12815 C 1270.17 -5.58919 -1.93297 0
M  V30 12816 H 1269.1 -0.64556 -0.389574 0
M  V30 12817 H 1271.75 -1.81186 -0.290472 0
M  V30 12818 H 1270.13 -2.92443 -2.67008 0
M  V30 12819 H 1271.31 -4.59471 -0.349707 0
M  V30 12820 H 1269.62 -4.13699 -0.473521 0
M  V30 12821 H 1272.22 -4.2438 -3.25278 0
M  V30 12822 H 1272.56 -2.53207 -3.30442 0
M  V30 12823 H 1273.1 -3.493 -1.90354 0
M  V30 12824 H 1269.83 -6.42697 -1.2892 0
M  V30 12825 H 1269.35 -5.38258 -2.64647 0
M  V30 12826 H 1271.03 -5.96187 -2.51336 0
M  V30 12827 N 1271.17 0.563888 -1.47167 0
M  V30 12828 C 1272.41 1.32331 -1.53676 0
M  V30 12829 C 1272.75 1.93213 -0.195593 0
M  V30 12830 O 1272.02 1.77508 0.795068 0
M  V30 12831 C 1272.3 2.43848 -2.64972 0
M  V30 12832 C 1272.16 1.8788 -4.08682 0
M  V30 12833 C 1273.48 3.45809 -2.72221 0
M  V30 12834 H 1270.59 0.479791 -0.559437 0
M  V30 12835 H 1273.24 0.631669 -1.79192 0
M  V30 12836 H 1271.39 3.02846 -2.43345 0
M  V30 12837 H 1273.06 1.33195 -4.41652 0
M  V30 12838 H 1271.3 1.18593 -4.17275 0
M  V30 12839 H 1271.97 2.68465 -4.82318 0
M  V30 12840 H 1274.45 2.9672 -2.91713 0
M  V30 12841 H 1273.32 4.21272 -3.51882 0
M  V30 12842 H 1273.59 4.04236 -1.79014 0
M  V30 12843 N 1272.64 1.35187 0.810078 0
M  V30 12844 C 1273.89 1.28011 1.56389 0
M  V30 12845 C 1274.21 -0.14622 1.94451 0
M  V30 12846 O 1273.48 -1.08185 1.63318 0
M  V30 12847 H 1272.06 0.470837 0.579932 0
M  V30 12848 H 1274.73 1.69249 0.966476 0
M  V30 12849 H 1273.82 1.89362 2.4809 0
M  V30 12850 N 1274.12 -1.03182 1.19127 0
M  V30 12851 C 1275.09 -2.09559 0.928307 0
M  V30 12852 C 1276.09 -1.60548 -0.0899992 0
M  V30 12853 O 1277.28 -1.736 0.144422 0
M  V30 12854 C 1274.41 -3.38609 0.394561 0
M  V30 12855 H 1275.6 -2.34321 1.87173 0
M  V30 12856 H 1273.15 -1.19746 1.00452 0
M  V30 12857 H 1273.89 -3.19515 -0.555046 0
M  V30 12858 H 1273.67 -3.75502 1.12873 0
M  V30 12859 H 1275.16 -4.16969 0.229569 0
M  V30 12860 N 1275.6 -0.99472 -1.22242 0
M  V30 12861 C 1276.53 -0.566499 -2.26524 0
M  V30 12862 C 1277.51 0.407541 -1.65146 0
M  V30 12863 O 1278.7 0.297777 -1.91903 0
M  V30 12864 C 1275.83 0.11786 -3.471 0
M  V30 12865 C 1274.78 -0.774908 -4.20927 0
M  V30 12866 C 1274.11 0.0424687 -5.34683 0
M  V30 12867 C 1275.41 -2.07263 -4.79416 0
M  V30 12868 H 1277.1 -1.43818 -2.62596 0
M  V30 12869 H 1274.65 -0.692971 -1.2623 0
M  V30 12870 H 1276.6 0.428842 -4.19212 0
M  V30 12871 H 1275.32 1.0241 -3.10129 0
M  V30 12872 H 1273.98 -1.06956 -3.50651 0
M  V30 12873 H 1273.63 0.949677 -4.93954 0
M  V30 12874 H 1273.33 -0.551867 -5.85003 0
M  V30 12875 H 1274.85 0.347504 -6.0961 0
M  V30 12876 H 1276.27 -1.82548 -5.4346 0
M  V30 12877 H 1274.67 -2.61594 -5.40082 0
M  V30 12878 H 1275.74 -2.75017 -3.99366 0
M  V30 12879 N 1277.08 1.37613 -0.768148 0
M  V30 12880 C 1278.33 1.99023 -0.327543 0
M  V30 12881 C 1278.64 1.61669 1.10103 0
M  V30 12882 O 1279.85 2.16155 1.64284 0
M  V30 12883 C 1278.3 3.55906 -0.534674 0
M  V30 12884 C 1277.91 4.02201 -1.97327 0
M  V30 12885 C 1279.65 4.24208 -0.157512 0
M  V30 12886 C 1277.56 5.51781 -2.12819 0
M  V30 12887 H 1276.49 0.744595 -0.118722 0
M  V30 12888 H 1279.14 1.5719 -0.946764 0
M  V30 12889 H 1277.52 3.95701 0.153951 0
M  V30 12890 H 1278.7 3.73661 -2.69655 0
M  V30 12891 H 1277.01 3.46671 -2.30669 0
M  V30 12892 H 1279.61 5.34107 -0.251824 0
M  V30 12893 H 1279.95 4.06636 0.89177 0
M  V30 12894 H 1280.49 3.89703 -0.798546 0
M  V30 12895 H 1277.23 5.74274 -3.16053 0
M  V30 12896 H 1276.75 5.82017 -1.4497 0
M  V30 12897 H 1278.42 6.17697 -1.92508 0
M  V30 12898 N 1278.56 0.518393 1.4883 0
M  V30 12899 C 1279.8 -0.019866 2.0209 0
M  V30 12900 C 1280.13 -1.35863 1.3988 0
M  V30 12901 O 1279.4 -1.87722 0.560117 0
M  V30 12902 H 1277.98 -0.0103306 0.746929 0
M  V30 12903 H 1280.64 0.679591 1.82668 0
M  V30 12904 H 1279.73 -0.136749 3.118 0
M  V30 12905 N 1280.03 -1.55556 0.252993 0
M  V30 12906 C 1281.26 -2.03945 -0.376965 0
M  V30 12907 C 1281.68 -1.13089 -1.50308 0
M  V30 12908 O 1281.04 -0.125039 -1.80868 0
M  V30 12909 C 1281.09 -3.50284 -0.856363 0
M  V30 12910 O 1280.19 -3.62551 -1.96546 0
M  V30 12911 H 1279.54 -0.659002 -0.081317 0
M  V30 12912 H 1282.07 -2.01024 0.380831 0
M  V30 12913 H 1282.08 -3.91222 -1.15798 0
M  V30 12914 H 1280.75 -4.15887 -0.0323302 0
M  V30 12915 H 1279.33 -3.33511 -1.66808 0
M  V30 12916 N 1281.51 0.0200419 -1.57587 0
M  V30 12917 C 1282.74 0.724241 -1.94344 0
M  V30 12918 C 1283.16 1.67612 -0.853688 0
M  V30 12919 O 1282.52 1.80303 0.189873 0
M  V30 12920 C 1282.57 1.44967 -3.30177 0
M  V30 12921 O 1281.67 2.56326 -3.23064 0
M  V30 12922 H 1281.01 0.194142 -0.634984 0
M  V30 12923 H 1283.54 -0.0271756 -2.04582 0
M  V30 12924 H 1283.55 1.81758 -3.65278 0
M  V30 12925 H 1282.23 0.75161 -4.09052 0
M  V30 12926 H 1280.81 2.22011 -2.99609 0
M  V30 12927 N 1282.99 1.54862 0.292472 0
M  V30 12928 C 1284.24 1.74203 1.02458 0
M  V30 12929 C 1284.56 0.535398 1.87506 0
M  V30 12930 O 1283.83 -0.450164 1.90658 0
M  V30 12931 H 1282.41 0.642369 0.381276 0
M  V30 12932 H 1285.07 1.92232 0.321398 0
M  V30 12933 H 1284.17 2.63486 1.67277 0
M  V30 12934 N 1284.47 -0.556076 1.47464 0
M  V30 12935 C 1285.43 -1.64515 1.59586 0
M  V30 12936 C 1286.43 -1.53751 0.470881 0
M  V30 12937 O 1287.62 -1.57889 0.735979 0
M  V30 12938 C 1284.75 -3.0406 1.54143 0
M  V30 12939 H 1285.95 -1.55116 2.56669 0
M  V30 12940 H 1283.5 -0.776087 1.35671 0
M  V30 12941 H 1284.23 -3.18991 0.584395 0
M  V30 12942 H 1284.02 -3.13282 2.3579 0
M  V30 12943 H 1285.51 -3.8329 1.65766 0
M  V30 12944 N 1285.95 -1.35615 -0.802897 0
M  V30 12945 C 1287.2 -1.28428 -1.55528 0
M  V30 12946 C 1287.51 0.138275 -1.95111 0
M  V30 12947 O 1288.72 0.332435 -2.69457 0
M  V30 12948 C 1287.17 -2.25251 -2.80696 0
M  V30 12949 C 1286.78 -3.72871 -2.48336 0
M  V30 12950 C 1288.52 -2.27014 -3.58699 0
M  V30 12951 C 1286.43 -4.61507 -3.69817 0
M  V30 12952 H 1285.36 -0.47718 -0.583794 0
M  V30 12953 H 1288.01 -1.609 -0.882238 0
M  V30 12954 H 1286.39 -1.85755 -3.4973 0
M  V30 12955 H 1287.57 -4.21024 -1.87285 0
M  V30 12956 H 1285.88 -3.73752 -1.83571 0
M  V30 12957 H 1288.48 -2.90451 -4.48935 0
M  V30 12958 H 1288.82 -1.27491 -3.96298 0
M  V30 12959 H 1289.36 -2.65058 -2.9663 0
M  V30 12960 H 1286.09 -5.62043 -3.37324 0
M  V30 12961 H 1285.61 -4.18079 -4.30081 0
M  V30 12962 H 1287.29 -4.77113 -4.37004 0
M  V30 12963 N 1287.43 1.02549 -1.19673 0
M  V30 12964 C 1288.36 2.12794 -0.961289 0
M  V30 12965 C 1289.34 1.69766 0.106575 0
M  V30 12966 O 1290.52 1.94138 -0.0491358 0
M  V30 12967 C 1287.65 3.4364 -0.502868 0
M  V30 12968 C 1286.61 4.00367 -1.51296 0
M  V30 12969 C 1285.93 5.26874 -0.911491 0
M  V30 12970 C 1287.23 4.34782 -2.89416 0
M  V30 12971 H 1288.93 2.32748 -1.88331 0
M  V30 12972 H 1286.47 1.11852 -0.906922 0
M  V30 12973 H 1288.42 4.20141 -0.325436 0
M  V30 12974 H 1287.15 3.23418 0.454764 0
M  V30 12975 H 1285.81 3.25964 -1.67759 0
M  V30 12976 H 1285.46 5.02971 0.0537982 0
M  V30 12977 H 1285.16 5.65791 -1.58602 0
M  V30 12978 H 1286.68 6.06039 -0.74493 0
M  V30 12979 H 1288.09 5.02207 -2.76516 0
M  V30 12980 H 1286.49 4.8479 -3.53693 0
M  V30 12981 H 1287.56 3.43935 -3.41814 0
M  V30 12982 N 1288.9 1.00119 1.21713 0
M  V30 12983 C 1290.13 0.700172 1.95224 0
M  V30 12984 C 1290.55 -0.730138 1.73351 0
M  V30 12985 O 1289.91 -1.50026 1.01794 0
M  V30 12986 C 1289.96 1.02202 3.45814 0
M  V30 12987 O 1289.06 0.125188 4.1221 0
M  V30 12988 H 1288.4 0.261238 0.610451 0
M  V30 12989 H 1290.93 1.34041 1.54578 0
M  V30 12990 H 1290.94 0.967293 3.96368 0
M  V30 12991 H 1289.62 2.06422 3.61058 0
M  V30 12992 H 1288.2 0.236114 3.72152 0
M  V30 12993 N 1290.38 -1.37203 0.775435 0
M  V30 12994 C 1291.61 -2.03572 0.352416 0
M  V30 12995 C 1292.02 -1.58612 -1.03145 0
M  V30 12996 O 1291.36 -0.764478 -1.67037 0
M  V30 12997 C 1291.42 -3.58064 0.321026 0
M  V30 12998 C 1291.09 -4.2617 1.6501 0
M  V30 12999 C 1292.09 -4.50034 2.60318 0
M  V30 13000 C 1289.77 -4.63927 1.92555 0
M  V30 13001 C 1291.76 -5.10716 3.81376 0
M  V30 13002 C 1289.45 -5.24329 3.13883 0
M  V30 13003 C 1290.45 -5.47661 4.08113 0
M  V30 13004 O 1290.14 -6.068 5.27304 0
M  V30 13005 H 1289.87 -0.660231 0.145159 0
M  V30 13006 H 1292.42 -1.76446 1.05148 0
M  V30 13007 H 1290.65 -3.84252 -0.434439 0
M  V30 13008 H 1292.34 -4.0583 -0.0754241 0
M  V30 13009 H 1293.11 -4.21273 2.4032 0
M  V30 13010 H 1288.99 -4.45098 1.20036 0
M  V30 13011 H 1292.53 -5.28844 4.5494 0
M  V30 13012 H 1288.43 -5.52514 3.33765 0
M  V30 13013 H 1289.2 -6.25276 5.28179 0
M  V30 13014 N 1291.86 -0.526279 -1.48553 0
M  V30 13015 C 1293.11 0.0111473 -2.01697 0
M  V30 13016 C 1293.42 1.35675 -1.40895 0
M  V30 13017 O 1294.63 1.98233 -1.85515 0
M  V30 13018 C 1293.08 0.0702721 -3.59831 0
M  V30 13019 C 1292.69 -1.27022 -4.29616 0
M  V30 13020 C 1294.44 0.556722 -4.20834 0
M  V30 13021 C 1292.34 -1.17188 -5.79673 0
M  V30 13022 H 1291.27 0.00793697 -0.753958 0
M  V30 13023 H 1293.92 -0.669503 -1.70851 0
M  V30 13024 H 1292.31 0.81592 -3.87503 0
M  V30 13025 H 1293.48 -2.03114 -4.1362 0
M  V30 13026 H 1291.79 -1.69211 -3.80469 0
M  V30 13027 H 1294.39 0.648205 -5.30756 0
M  V30 13028 H 1294.73 1.56163 -3.859 0
M  V30 13029 H 1295.27 -0.133132 -3.97577 0
M  V30 13030 H 1292.01 -2.15182 -6.19174 0
M  V30 13031 H 1291.53 -0.452259 -5.98093 0
M  V30 13032 H 1293.21 -0.861011 -6.41245 0
M  V30 13033 N 1293.34 1.5542 -0.261239 0
M  V30 13034 C 1294.27 2.18043 0.673222 0
M  V30 13035 C 1295.25 1.13696 1.16242 0
M  V30 13036 O 1296.43 1.42153 1.23793 0
M  V30 13037 C 1293.56 2.7926 1.91655 0
M  V30 13038 C 1292.61 3.96788 1.56402 0
M  V30 13039 S 1293.44 5.31489 0.654191 0
M  V30 13040 C 1294.59 5.96167 1.9062 0
M  V30 13041 H 1294.83 2.96965 0.141076 0
M  V30 13042 H 1292.36 1.54333 -0.0455871 0
M  V30 13043 H 1294.32 3.15162 2.63026 0
M  V30 13044 H 1292.98 2.00257 2.41983 0
M  V30 13045 H 1292.17 4.38262 2.48882 0
M  V30 13046 H 1291.77 3.62237 0.930618 0
M  V30 13047 H 1294.07 6.14556 2.8518 0
M  V30 13048 H 1295.01 6.91269 1.53471 0
M  V30 13049 H 1295.42 5.25381 2.06483 0
M  V30 13050 N 1294.82 -0.0116844 1.57596 0
M  V30 13051 C 1296.06 -0.703597 1.91908 0
M  V30 13052 C 1296.42 -1.71581 0.861628 0
M  V30 13053 O 1297.62 -2.45724 1.08963 0
M  V30 13054 C 1295.89 -1.34031 3.31316 0
M  V30 13055 S 1297.45 -2.05896 3.87495 0
M  V30 13056 H 1294.27 -0.23269 0.671846 0
M  V30 13057 H 1296.87 0.0421973 1.95454 0
M  V30 13058 H 1295.57 -0.590617 4.06128 0
M  V30 13059 H 1295.11 -2.12428 3.31116 0
M  V30 13060 H 1297.12 -3.33266 3.67626 0
M  V30 13061 N 1296.29 -1.55015 -0.284256 0
M  V30 13062 C 1297.54 -1.7535 -1.01884 0
M  V30 13063 C 1297.87 -0.546825 -1.86342 0
M  V30 13064 O 1297.15 0.455832 -1.89083 0
M  V30 13065 C 1297.43 -3.05219 -1.91084 0
M  V30 13066 C 1297.28 -4.36219 -1.09694 0
M  V30 13067 C 1298.6 -3.31056 -2.89983 0
M  V30 13068 H 1295.72 -0.637981 -0.368984 0
M  V30 13069 H 1298.36 -1.87741 -0.292116 0
M  V30 13070 H 1296.51 -2.94786 -2.53048 0
M  V30 13071 H 1298.19 -4.58594 -0.498876 0
M  V30 13072 H 1296.43 -4.31951 -0.400078 0
M  V30 13073 H 1297.1 -5.23392 -1.75399 0
M  V30 13074 H 1299.58 -3.41209 -2.38151 0
M  V30 13075 H 1298.45 -4.23212 -3.49547 0
M  V30 13076 H 1298.71 -2.50153 -3.64521 0
M  V30 13077 N 1297.77 0.548248 -1.47757 0
M  V30 13078 C 1298.73 1.63666 -1.60456 0
M  V30 13079 C 1299.73 1.53499 -0.479028 0
M  V30 13080 O 1300.92 1.57497 -0.744342 0
M  V30 13081 C 1298.06 3.03239 -1.55754 0
M  V30 13082 H 1299.25 1.53752 -2.57488 0
M  V30 13083 H 1296.8 0.768881 -1.36081 0
M  V30 13084 H 1297.54 3.18677 -0.601303 0
M  V30 13085 H 1297.32 3.12027 -2.37448 0
M  V30 13086 H 1298.81 3.82406 -1.67797 0
M  V30 13087 N 1299.25 1.36039 0.795694 0
M  V30 13088 C 1300.18 1.24209 1.91435 0
M  V30 13089 C 1301.16 0.127593 1.62099 0
M  V30 13090 O 1302.34 0.297619 1.86136 0
M  V30 13091 C 1299.47 0.915006 3.26106 0
M  V30 13092 C 1298.52 2.04307 3.74381 0
M  V30 13093 S 1299.35 3.66016 3.90887 0
M  V30 13094 C 1300.51 3.35408 5.28443 0
M  V30 13095 H 1300.74 2.18895 2.01177 0
M  V30 13096 H 1298.27 1.21381 0.954251 0
M  V30 13097 H 1300.23 0.733104 4.03901 0
M  V30 13098 H 1298.89 -0.0139734 3.14097 0
M  V30 13099 H 1298.08 1.76863 4.71949 0
M  V30 13100 H 1297.69 2.18387 3.03617 0
M  V30 13101 H 1299.98 2.88912 6.1281 0
M  V30 13102 H 1300.92 4.32216 5.60887 0
M  V30 13103 H 1301.33 2.70909 4.95246 0
M  V30 13104 N 1300.73 -1.01913 1.20215 0
M  V30 13105 C 1301.68 -2.12516 0.945493 0
M  V30 13106 C 1302.67 -1.69091 -0.102243 0
M  V30 13107 O 1303.88 -1.79936 0.047888 0
M  V30 13108 H 1300.25 -0.694496 0.288409 0
M  V30 13109 H 1302.22 -2.31349 1.88468 0
M  V30 13110 C 1300.97 -3.43919 0.51137 0
M  V30 13111 H 1300.29 -3.77758 1.30916 0
M  V30 13112 H 1301.73 -4.22374 0.370981 0
M  V30 13113 C 1300.19 -3.27844 -0.775902 0
M  V30 13114 O 1300.72 -3.5734 -1.83496 0
M  V30 13115 N 1298.93 -2.81101 -0.73694 0
M  V30 13116 H 1298.48 -2.57296 0.125164 0
M  V30 13117 H 1298.43 -2.70726 -1.59859 0
M  V30 13118 N 1302.21 -1.00763 -1.2118 0
M  V30 13119 C 1303.62 -0.720905 -1.42391 0
M  V30 13120 C 1303.82 0.702918 -1.88842 0
M  V30 13121 O 1302.88 1.47191 -2.05161 0
M  V30 13122 C 1304.19 -1.739 -2.45315 0
M  V30 13123 C 1305.74 -1.75611 -2.59094 0
M  V30 13124 C 1306.21 -2.76323 -3.65253 0
M  V30 13125 N 1307.71 -2.75007 -3.72727 0
M  V30 13126 C 1308.44 -3.49594 -4.54502 0
M  V30 13127 N 1307.94 -4.33828 -5.40153 0
M  V30 13128 N 1309.73 -3.38232 -4.4895 0
M  V30 13129 H 1301.88 -1.92697 -0.893404 0
M  V30 13130 H 1304.14 -0.831888 -0.454606 0
M  V30 13131 H 1303.85 -2.75859 -2.18162 0
M  V30 13132 H 1303.72 -1.5438 -3.44161 0
M  V30 13133 H 1306.11 -0.743416 -2.85582 0
M  V30 13134 H 1306.19 -1.99203 -1.60474 0
M  V30 13135 H 1305.84 -3.77751 -3.39509 0
M  V30 13136 H 1305.77 -2.49996 -4.63476 0
M  V30 13137 H 1308.26 -2.13897 -3.11539 0
M  V30 13138 H 1308.57 -4.8753 -5.99612 0
M  V30 13139 H 1306.91 -4.3791 -5.39685 0
M  V30 13140 H 1310.11 -2.71855 -3.81068 0
M  V30 13141 H 1310.28 -3.96615 -5.12445 0
M  V30 13142 N 1303.68 1.3679 -0.7827 0
M  V30 13143 C 1304.91 2.04206 -0.362571 0
M  V30 13144 C 1305.33 1.58637 1.01074 0
M  V30 13145 O 1304.69 0.751692 1.64983 0
M  V30 13146 C 1304.74 3.58062 -0.4271 0
M  V30 13147 O 1303.84 4.08463 0.56845 0
M  V30 13148 H 1303.19 0.645638 -0.155073 0
M  V30 13149 H 1305.72 1.74883 -1.06194 0
M  V30 13150 H 1305.73 4.0698 -0.288298 0
M  V30 13151 H 1304.4 3.90582 -1.42893 0
M  V30 13152 H 1302.98 3.70835 0.391863 0
M  V30 13153 N 1305.16 0.53415 1.48272 0
M  V30 13154 C 1306.09 -0.215037 2.32508 0
M  V30 13155 C 1307.07 -0.931083 1.42355 0
M  V30 13156 O 1308.26 -0.916051 1.71237 0
M  V30 13157 C 1305.39 -1.25985 3.23643 0
M  V30 13158 C 1304.34 -0.661692 4.22854 0
M  V30 13159 C 1303.67 -1.80946 5.03153 0
M  V30 13160 C 1304.97 0.369358 5.20992 0
M  V30 13161 H 1306.66 0.488158 2.95394 0
M  V30 13162 H 1304.21 0.236206 1.4205 0
M  V30 13163 H 1306.16 -1.79195 3.81402 0
M  V30 13164 H 1304.89 -1.99268 2.58766 0
M  V30 13165 H 1303.54 -0.151082 3.66289 0
M  V30 13166 H 1303.19 -2.53077 4.34696 0
M  V30 13167 H 1302.89 -1.41513 5.70305 0
M  V30 13168 H 1304.42 -2.34526 5.63764 0
M  V30 13169 H 1305.83 -0.0758076 5.7325 0
M  V30 13170 H 1304.23 0.681301 5.9622 0
M  V30 13171 H 1305.3 1.27363 4.67875 0
M  V30 13172 N 1306.64 -1.55279 0.269478 0
M  V30 13173 C 1307.6 -2.21008 -0.607299 0
M  V30 13174 C 1308.6 -1.18619 -1.08564 0
M  V30 13175 O 1309.79 -1.4356 -0.986721 0
M  V30 13176 C 1306.93 -2.87157 -1.83721 0
M  V30 13177 H 1308.12 -2.99881 -0.0334894 0
M  V30 13178 H 1305.67 -1.56287 0.0200573 0
M  V30 13179 H 1306.41 -2.12281 -2.45168 0
M  V30 13180 H 1306.19 -3.62183 -1.5022 0
M  V30 13181 H 1307.68 -3.37391 -2.46083 0
M  V30 13182 N 1308.12 0.00332656 -1.576 0
M  V30 13183 C 1309.07 1.01406 -2.09331 0
M  V30 13184 C 1310.06 1.35806 -1.01258 0
M  V30 13185 O 1311.27 1.34409 -1.19726 0
M  V30 13186 H 1307.64 0.344661 -0.668366 0
M  V30 13187 H 1309.61 0.552154 -2.93247 0
M  V30 13188 C 1308.36 2.29819 -2.60918 0
M  V30 13189 H 1307.68 2.04216 -3.43709 0
M  V30 13190 H 1309.12 2.98826 -3.00797 0
M  V30 13191 C 1307.58 3.0057 -1.52182 0
M  V30 13192 O 1308.11 3.91423 -0.902817 0
M  V30 13193 N 1306.32 2.62338 -1.25009 0
M  V30 13194 H 1305.87 1.88538 -1.75531 0
M  V30 13195 H 1305.82 3.0999 -0.524736 0
M  V30 13196 N 1309.6 1.55164 0.276031 0
M  V30 13197 C 1310.84 1.75887 1.00953 0
M  V30 13198 C 1311.18 0.5567 1.8605 0
M  V30 13199 O 1310.45 -0.445799 1.89322 0
M  V30 13200 C 1310.73 3.06228 1.89463 0
M  V30 13201 C 1310.59 4.36795 1.07379 0
M  V30 13202 C 1311.91 3.32589 2.88223 0
M  V30 13203 H 1309.02 0.639929 0.365596 0
M  V30 13204 H 1311.67 1.87893 0.282156 0
M  V30 13205 H 1309.82 2.96124 2.51481 0
M  V30 13206 H 1311.49 4.58853 0.474549 0
M  V30 13207 H 1309.73 4.32157 0.377165 0
M  V30 13208 H 1310.4 5.24315 1.72621 0
M  V30 13209 H 1312.88 3.42467 2.36338 0
M  V30 13210 H 1311.75 4.2506 3.47297 0
M  V30 13211 H 1312.02 2.52083 3.6319 0
M  V30 13212 N 1311.07 -0.540404 1.48045 0
M  V30 13213 C 1312.32 -1.2932 1.54787 0
M  V30 13214 C 1312.64 -1.94335 0.222109 0
M  V30 13215 O 1313.84 -2.70982 0.167675 0
M  V30 13216 C 1312.3 -2.34594 2.72935 0
M  V30 13217 C 1311.91 -1.75696 4.1211 0
M  V30 13218 C 1313.65 -3.10949 2.88982 0
M  V30 13219 C 1311.56 -2.78849 5.21534 0
M  V30 13220 H 1310.49 -0.486315 0.576206 0
M  V30 13221 H 1313.14 -0.571998 1.74357 0
M  V30 13222 H 1311.52 -3.09704 2.46778 0
M  V30 13223 H 1312.69 -1.06845 4.48242 0
M  V30 13224 H 1311.01 -1.11869 4.01091 0
M  V30 13225 H 1313.61 -3.88012 3.679 0
M  V30 13226 H 1313.95 -3.66173 1.98048 0
M  V30 13227 H 1314.48 -2.42953 3.1499 0
M  V30 13228 H 1311.22 -2.28459 6.144 0
M  V30 13229 H 1310.74 -3.46059 4.89901 0
M  V30 13230 H 1312.42 -3.4203 5.49203 0
M  V30 13231 N 1312.55 -1.36459 -0.788468 0
M  V30 13232 C 1313.48 -1.33545 -1.91541 0
M  V30 13233 C 1314.46 -0.206762 -1.68839 0
M  V30 13234 O 1315.65 -0.404553 -1.89939 0
M  V30 13235 C 1312.78 -1.12492 -3.28577 0
M  V30 13236 C 1311.73 -2.22196 -3.65805 0
M  V30 13237 C 1311.06 -1.86285 -5.01201 0
M  V30 13238 C 1312.36 -3.64286 -3.7429 0
M  V30 13239 H 1314.05 -2.27844 -1.94236 0
M  V30 13240 H 1311.6 -1.09677 -0.933105 0
M  V30 13241 H 1313.55 -1.09089 -4.07035 0
M  V30 13242 H 1312.28 -0.146446 -3.26272 0
M  V30 13243 H 1310.93 -2.24727 -2.89644 0
M  V30 13244 H 1310.58 -0.87009 -4.95417 0
M  V30 13245 H 1310.28 -2.59734 -5.27079 0
M  V30 13246 H 1311.81 -1.84439 -5.82078 0
M  V30 13247 H 1313.22 -3.63977 -4.42937 0
M  V30 13248 H 1311.62 -4.36648 -4.11653 0
M  V30 13249 H 1312.69 -3.99123 -2.75371 0
M  V30 13250 N 1314.03 1.01274 -1.20754 0
M  V30 13251 C 1315.28 1.74586 -1.01804 0
M  V30 13252 C 1315.6 1.89727 0.450419 0
M  V30 13253 O 1314.87 1.44257 1.32539 0
M  V30 13254 H 1313.45 0.646804 -0.373702 0
M  V30 13255 H 1316.11 1.22079 -1.5193 0
M  V30 13256 H 1315.21 2.748 -1.47958 0
M  V30 13257 N 1315.51 1.01404 1.20644 0
M  V30 13258 C 1316.76 0.700523 1.89571 0
M  V30 13259 C 1317.08 -0.771978 1.79068 0
M  V30 13260 O 1316.35 -1.55506 1.19142 0
M  V30 13261 H 1314.93 0.256122 0.70172 0
M  V30 13262 H 1317.59 1.28509 1.46531 0
M  V30 13263 H 1316.69 0.981665 2.9626 0
M  V30 13264 N 1316.99 -1.36373 0.789944 0
M  V30 13265 C 1318.22 -2.03187 0.373987 0
M  V30 13266 C 1318.63 -1.59697 -1.01457 0
M  V30 13267 O 1317.97 -0.782151 -1.66217 0
M  V30 13268 C 1318.03 -3.57703 0.358985 0
M  V30 13269 C 1317.69 -4.24396 1.69521 0
M  V30 13270 C 1318.69 -4.47247 2.65077 0
M  V30 13271 C 1316.38 -4.61858 1.97465 0
M  V30 13272 C 1318.37 -5.06642 3.86772 0
M  V30 13273 C 1316.06 -5.2097 3.19426 0
M  V30 13274 C 1317.06 -5.43302 4.13899 0
M  V30 13275 O 1316.74 -6.01173 5.3371 0
M  V30 13276 H 1316.48 -0.658654 0.152153 0
M  V30 13277 H 1319.03 -1.7532 1.07014 0
M  V30 13278 H 1317.26 -3.84691 -0.39366 0
M  V30 13279 H 1318.95 -4.05887 -0.0323762 0
M  V30 13280 H 1319.71 -4.18701 2.44775 0
M  V30 13281 H 1315.59 -4.438 1.2475 0
M  V30 13282 H 1319.14 -5.23989 4.60523 0
M  V30 13283 H 1315.03 -5.48943 3.39606 0
M  V30 13284 H 1315.8 -6.19638 5.34781 0
M  V30 13285 N 1318.47 -0.542005 -1.47987 0
M  V30 13286 C 1319.71 -0.0122873 -2.02096 0
M  V30 13287 C 1320.03 1.3362 -1.42024 0
M  V30 13288 O 1319.3 1.86807 -0.589911 0
M  V30 13289 H 1317.88 -0.00155365 -0.746998 0
M  V30 13290 H 1320.55 -0.708566 -1.81564 0
M  V30 13291 H 1319.64 0.0871275 -3.11978 0
M  V30 13292 N 1319.94 1.55134 -0.277709 0
M  V30 13293 C 1321.17 2.04061 0.341601 0
M  V30 13294 C 1321.59 1.15597 1.49274 0
M  V30 13295 O 1320.94 0.176625 1.81643 0
M  V30 13296 C 1320.99 3.52074 0.820139 0
M  V30 13297 O 1320.72 4.37171 -0.28516 0
M  V30 13298 C 1322.22 4.16899 1.507 0
M  V30 13299 H 1319.44 0.666501 0.0775708 0
M  V30 13300 H 1321.98 2.00336 -0.410559 0
M  V30 13301 H 1320.14 3.56233 1.52238 0
M  V30 13302 H 1320.55 5.24434 0.0832022 0
M  V30 13303 H 1322.02 5.22061 1.79323 0
M  V30 13304 H 1322.5 3.65227 2.43939 0
M  V30 13305 H 1323.11 4.16749 0.848541 0
M  V30 13306 N 1321.42 0.00503138 1.57599 0
M  V30 13307 C 1322.65 -0.689609 1.95069 0
M  V30 13308 C 1323.06 -1.67028 0.880183 0
M  V30 13309 O 1322.42 -1.81959 -0.140406 0
M  V30 13310 C 1322.47 -1.41709 3.32567 0
M  V30 13311 O 1322.19 -0.475746 4.35509 0
M  V30 13312 C 1323.69 -2.20578 3.84526 0
M  V30 13313 H 1320.91 -0.19175 0.643019 0
M  V30 13314 H 1323.46 0.057646 2.04419 0
M  V30 13315 H 1321.61 -2.11593 3.2451 0
M  V30 13316 H 1322.03 -0.989573 5.1508 0
M  V30 13317 H 1323.5 -2.66969 4.83148 0
M  V30 13318 H 1323.98 -3.03467 3.17497 0
M  V30 13319 H 1324.58 -1.557 3.95775 0
M  V30 13320 N 1322.9 -1.55308 -0.267798 0
M  V30 13321 C 1324.12 -1.80524 -1.02107 0
M  V30 13322 C 1324.55 -0.579268 -1.78958 0
M  V30 13323 O 1323.91 0.471262 -1.75068 0
M  V30 13324 C 1323.96 -3.03248 -1.95123 0
M  V30 13325 O 1323.06 -2.78699 -3.03975 0
M  V30 13326 H 1322.4 -0.596518 -0.291655 0
M  V30 13327 H 1324.93 -2.0246 -0.295128 0
M  V30 13328 H 1324.94 -3.32121 -2.3698 0
M  V30 13329 H 1323.62 -3.92126 -1.386 0
M  V30 13330 H 1322.19 -2.60936 -2.66396 0
M  V30 13331 N 1324.38 0.532545 -1.4833 0
M  V30 13332 C 1325.61 1.31331 -1.59874 0
M  V30 13333 C 1326.02 1.87028 -0.258037 0
M  V30 13334 O 1325.38 1.66272 0.752317 0
M  V30 13335 C 1325.43 2.46596 -2.64334 0
M  V30 13336 O 1325.15 1.93195 -3.93201 0
M  V30 13337 C 1326.65 3.38454 -2.86294 0
M  V30 13338 H 1323.87 0.399476 -0.539129 0
M  V30 13339 H 1326.41 0.642696 -1.94138 0
M  V30 13340 H 1324.57 3.09548 -2.32936 0
M  V30 13341 H 1324.98 2.68627 -4.50489 0
M  V30 13342 H 1326.46 4.15687 -3.63192 0
M  V30 13343 H 1326.93 3.93526 -1.95022 0
M  V30 13344 H 1327.54 2.81297 -3.18986 0
M  V30 13345 N 1325.86 1.36875 0.78122 0
M  V30 13346 C 1326.82 1.31706 1.8758 0
M  V30 13347 C 1327.82 0.223044 1.59246 0
M  V30 13348 O 1329.01 0.478327 1.67504 0
M  V30 13349 C 1326.14 1.0437 3.2453 0
M  V30 13350 H 1327.33 2.29059 1.93576 0
M  V30 13351 H 1324.89 1.21766 0.979931 0
M  V30 13352 H 1325.62 0.0750941 3.24213 0
M  V30 13353 H 1325.41 1.83548 3.46486 0
M  V30 13354 H 1326.9 1.0338 4.04602 0
M  V30 13355 N 1327.33 -1.00632 1.21289 0
M  V30 13356 C 1328.58 -1.74044 1.02728 0
M  V30 13357 C 1328.9 -1.89963 -0.440351 0
M  V30 13358 O 1328.17 -1.44958 -1.31772 0
M  V30 13359 H 1326.75 -0.644813 0.377127 0
M  V30 13360 H 1329.41 -1.21272 1.52575 0
M  V30 13361 H 1328.51 -2.74011 1.49413 0
M  V30 13362 N 1328.81 -1.02043 -1.20104 0
M  V30 13363 C 1330.06 -0.710566 -1.89197 0
M  V30 13364 C 1330.38 0.762471 -1.79475 0
M  V30 13365 O 1329.65 1.54871 -1.19965 0
M  V30 13366 H 1328.23 -0.259839 -0.700352 0
M  V30 13367 H 1330.89 -1.29285 -1.45848 0
M  V30 13368 H 1329.99 -0.997363 -2.95735 0
M  V30 13369 N 1330.29 1.35952 -0.797165 0
M  V30 13370 C 1331.24 2.29941 -0.198995 0
M  V30 13371 C 1332.21 1.52355 0.661592 0
M  V30 13372 O 1333.39 1.80832 0.60865 0
M  V30 13373 C 1330.53 3.38846 0.654033 0
M  V30 13374 C 1329.65 4.31409 -0.225949 0
M  V30 13375 C 1328.78 5.27401 0.634188 0
M  V30 13376 C 1327.82 6.11602 -0.246773 0
M  V30 13377 N 1326.96 6.9976 0.57279 0
M  V30 13378 H 1331.8 2.80508 -1.00594 0
M  V30 13379 H 1329.33 1.38064 -0.507617 0
M  V30 13380 H 1331.29 4.00643 1.16367 0
M  V30 13381 H 1329.92 2.89578 1.42633 0
M  V30 13382 H 1328.97 3.70699 -0.853616 0
M  V30 13383 H 1330.29 4.90532 -0.904416 0
M  V30 13384 H 1329.44 5.94525 1.20933 0
M  V30 13385 H 1328.18 4.68751 1.34625 0
M  V30 13386 H 1327.18 5.43434 -0.834258 0
M  V30 13387 H 1328.41 6.72329 -0.956559 0
M  V30 13388 H 1326.35 6.43609 1.26901 0
M  V30 13389 H 1326.27 7.55985 -0.0478303 0
M  V30 13390 H 1327.54 7.71244 1.13151 0
M  V30 13391 N 1331.77 0.549846 1.47697 0
M  V30 13392 C 1333.18 0.11453 1.86348 0
M  V30 13393 C 1333.53 -1.31368 1.45729 0
M  V30 13394 O 1332.66 -1.98707 0.856989 0
M  V30 13395 C 1333.25 0.201072 3.38203 0
M  V30 13396 C 1331.81 -0.179162 3.75973 0
M  V30 13397 C 1330.96 0.551951 2.71751 0
M  V30 13398 H 1333.91 0.759989 1.39319 0
M  V30 13399 H 1333.93 -0.582216 3.76019 0
M  V30 13400 H 1333.44 1.24065 3.67736 0
M  V30 13401 H 1331.54 -1.22013 3.52056 0
M  V30 13402 H 1331.65 0.174273 4.78783 0
M  V30 13403 H 1330.02 -0.00411819 2.547 0
M  V30 13404 H 1330.8 1.59254 3.04127 0
M  V30 13405 N 1333.25 -1.54984 0.285932 0
M  V30 13406 C 1334.18 -2.19087 -0.638448 0
M  V30 13407 C 1335.16 -1.1553 -1.14418 0
M  V30 13408 O 1336.34 -1.44105 -1.21516 0
M  V30 13409 C 1333.47 -2.82273 -1.87188 0
M  V30 13410 C 1332.51 -3.99226 -1.5007 0
M  V30 13411 S 1333.35 -5.32463 -0.569552 0
M  V30 13412 C 1334.5 -5.99124 -1.81112 0
M  V30 13413 H 1334.74 -2.97152 -0.0938139 0
M  V30 13414 H 1332.27 -1.54241 0.0701344 0
M  V30 13415 H 1334.23 -3.19307 -2.57979 0
M  V30 13416 H 1332.89 -2.04082 -2.38767 0
M  V30 13417 H 1332.08 -4.42166 -2.41878 0
M  V30 13418 H 1331.68 -3.63671 -0.872871 0
M  V30 13419 H 1333.98 -6.19015 -2.75367 0
M  V30 13420 H 1334.92 -6.93623 -1.42454 0
M  V30 13421 H 1335.33 -5.28599 -1.98098 0
M  V30 13422 N 1334.72 -0.0133892 -1.57594 0
M  V30 13423 C 1335.63 0.989701 -2.12702 0
M  V30 13424 C 1336.65 1.36785 -1.07545 0
M  V30 13425 O 1337.83 1.45246 -1.39519 0
M  V30 13426 C 1334.89 2.2586 -2.63036 0
M  V30 13427 C 1333.95 1.94234 -3.82847 0
M  V30 13428 C 1333.19 3.15075 -4.30771 0
M  V30 13429 O 1333.41 4.27212 -3.7795 0
M  V30 13430 O 1332.34 2.98291 -5.22787 0
M  V30 13431 H 1336.17 0.551194 -2.98656 0
M  V30 13432 H 1333.75 0.206264 -1.47969 0
M  V30 13433 H 1335.64 3.0038 -2.9555 0
M  V30 13434 H 1334.31 2.68923 -1.80173 0
M  V30 13435 H 1333.22 1.17148 -3.55285 0
M  V30 13436 H 1334.55 1.55999 -4.66824 0
M  V30 13437 N 1336.2 1.55448 0.259558 0
M  V30 13438 C 1337.45 1.7589 0.987201 0
M  V30 13439 C 1337.76 0.574951 1.86959 0
M  V30 13440 O 1338.97 0.662091 2.63303 0
M  V30 13441 C 1337.43 3.11349 1.80526 0
M  V30 13442 C 1337.03 4.37353 0.970882 0
M  V30 13443 C 1338.78 3.41136 2.5264 0
M  V30 13444 C 1336.69 5.63847 1.7841 0
M  V30 13445 H 1335.62 0.655662 0.372321 0
M  V30 13446 H 1338.27 1.81893 0.242332 0
M  V30 13447 H 1336.65 2.9942 2.5916 0
M  V30 13448 H 1337.82 4.60237 0.227763 0
M  V30 13449 H 1336.14 4.14809 0.363669 0
M  V30 13450 H 1338.73 4.32855 3.13912 0
M  V30 13451 H 1339.08 2.61879 3.23612 0
M  V30 13452 H 1339.61 3.54224 1.81026 0
M  V30 13453 H 1336.35 6.4589 1.11834 0
M  V30 13454 H 1335.87 5.45086 2.50283 0
M  V30 13455 H 1337.55 6.02641 2.35441 0
M  V30 13456 N 1337.68 -0.524672 1.4861 0
M  V30 13457 C 1338.91 -1.30958 1.60825 0
M  V30 13458 C 1339.33 -1.86142 0.270682 0
M  V30 13459 O 1338.69 -1.64675 -0.758415 0
M  V30 13460 C 1338.74 -2.43252 2.66197 0
M  V30 13461 O 1337.84 -3.4644 2.23725 0
M  V30 13462 H 1337.18 -0.387638 0.539104 0
M  V30 13463 H 1339.71 -0.630755 1.94635 0
M  V30 13464 H 1339.72 -2.89362 2.87635 0
M  V30 13465 H 1338.4 -2.02449 3.63301 0
M  V30 13466 H 1336.97 -3.06413 2.12522 0
M  V30 13467 N 1339.16 -1.37287 -0.77395 0
M  V30 13468 C 1340.41 -1.32112 -1.5294 0
M  V30 13469 C 1340.73 0.0946137 -1.9477 0
M  V30 13470 O 1340 1.03817 -1.66129 0
M  V30 13471 H 1338.58 -0.486047 -0.567245 0
M  V30 13472 H 1341.24 -1.71752 -0.921263 0
M  V30 13473 H 1340.34 -1.95873 -2.42982 0
M  V30 13474 N 1340.64 0.999871 -1.21821 0
M  V30 13475 C 1341.86 1.77405 -1.06467 0
M  V30 13476 C 1342.28 1.84828 0.385227 0
M  V30 13477 O 1341.64 1.31338 1.26714 0
M  V30 13478 C 1341.69 3.21062 -1.66137 0
M  V30 13479 O 1341.41 3.14054 -3.05454 0
M  V30 13480 C 1342.91 4.14958 -1.55963 0
M  V30 13481 H 1340.13 0.557368 -0.373607 0
M  V30 13482 H 1342.67 1.2575 -1.61267 0
M  V30 13483 H 1340.83 3.69808 -1.15416 0
M  V30 13484 H 1341.24 4.04346 -3.34073 0
M  V30 13485 H 1342.72 5.13536 -2.02448 0
M  V30 13486 H 1343.19 4.36171 -0.514949 0
M  V30 13487 H 1343.8 3.72105 -2.05956 0
M  V30 13488 N 1342.11 1.02678 1.19562 0
M  V30 13489 C 1343.06 0.576385 2.20594 0
M  V30 13490 C 1344.05 -0.373747 1.56499 0
M  V30 13491 O 1345.24 -0.195058 1.75922 0
M  V30 13492 C 1342.37 -0.0735507 3.43221 0
M  V30 13493 C 1341.46 0.898896 4.14464 0
M  V30 13494 N 1341.85 2.06048 4.61928 0
M  V30 13495 C 1340.14 0.721889 4.40119 0
M  V30 13496 C 1340.85 2.67364 5.16615 0
M  V30 13497 N 1339.82 1.95344 5.07289 0
M  V30 13498 H 1343.62 1.46179 2.54968 0
M  V30 13499 H 1341.14 0.893484 1.35612 0
M  V30 13500 H 1343.13 -0.413825 4.14841 0
M  V30 13501 H 1341.79 -0.954671 3.10348 0
M  V30 13502 H 1342.81 2.43999 4.5682 0
M  V30 13503 H 1339.48 -0.110317 4.17354 0
M  V30 13504 H 1340.87 3.65726 5.63644 0
M  V30 13505 N 1343.59 -1.35528 0.804364 0
M  V30 13506 C 1344.82 -2.03073 0.396091 0
M  V30 13507 C 1345.24 -1.60623 -0.992252 0
M  V30 13508 O 1344.59 -0.802718 -1.63898 0
M  V30 13509 C 1344.64 -3.58467 0.467301 0
M  V30 13510 O 1344.36 -3.99373 1.80091 0
M  V30 13511 C 1345.87 -4.4327 0.0515549 0
M  V30 13512 H 1343.09 -0.651346 0.161212 0
M  V30 13513 H 1345.63 -1.73195 1.08737 0
M  V30 13514 H 1343.78 -3.87001 -0.175703 0
M  V30 13515 H 1344.2 -4.94013 1.76214 0
M  V30 13516 H 1345.67 -5.51789 0.152499 0
M  V30 13517 H 1346.15 -4.27597 -1.00286 0
M  V30 13518 H 1346.76 -4.20027 0.667628 0
M  V30 13519 N 1345.07 -0.557671 -1.47404 0
M  V30 13520 C 1345.98 0.19289 -2.33806 0
M  V30 13521 C 1347 0.911424 -1.4822 0
M  V30 13522 O 1348.17 0.880214 -1.81147 0
M  V30 13523 C 1345.24 1.20937 -3.24923 0
M  V30 13524 C 1344.3 0.498209 -4.26399 0
M  V30 13525 C 1343.53 1.46626 -5.13163 0
M  V30 13526 O 1343.76 2.70111 -5.0239 0
M  V30 13527 O 1342.69 0.990497 -5.93694 0
M  V30 13528 H 1346.52 -0.515861 -2.99287 0
M  V30 13529 H 1344.1 -0.318283 -1.4597 0
M  V30 13530 H 1345.98 1.7961 -3.81206 0
M  V30 13531 H 1344.66 1.90003 -2.6207 0
M  V30 13532 H 1343.56 -0.129736 -3.73875 0
M  V30 13533 H 1344.9 -0.151015 -4.91968 0
M  V30 13534 N 1346.55 1.54831 -0.294147 0
M  V30 13535 C 1347.8 1.99179 0.317874 0
M  V30 13536 C 1348.11 1.18614 1.55532 0
M  V30 13537 O 1349.32 1.53197 2.24149 0
M  V30 13538 C 1347.77 3.54574 0.616893 0
M  V30 13539 C 1347.38 4.43939 -0.601822 0
M  V30 13540 C 1349.13 4.07465 1.19049 0
M  V30 13541 C 1347.03 5.90754 -0.276336 0
M  V30 13542 H 1345.96 0.743974 0.12255 0
M  V30 13543 H 1348.61 1.79047 -0.401781 0
M  V30 13544 H 1347 3.70579 1.39596 0
M  V30 13545 H 1348.17 4.39706 -1.37822 0
M  V30 13546 H 1346.48 4.01783 -1.09357 0
M  V30 13547 H 1349.08 5.14716 1.44814 0
M  V30 13548 H 1349.42 3.5765 2.13055 0
M  V30 13549 H 1349.96 3.94975 0.473282 0
M  V30 13550 H 1346.7 6.44704 -1.18478 0
M  V30 13551 H 1346.22 5.98011 0.462928 0
M  V30 13552 H 1347.9 6.4688 0.124587 0
M  V30 13553 N 1348.03 0.0217466 1.57585 0
M  V30 13554 C 1348.98 -0.980624 2.10918 0
M  V30 13555 C 1349.97 -1.34178 1.03406 0
M  V30 13556 O 1351.18 -1.32487 1.21849 0
M  V30 13557 H 1347.55 -0.333984 0.673764 0
M  V30 13558 H 1349.52 -0.505431 2.94088 0
M  V30 13559 C 1348.27 -2.25639 2.64542 0
M  V30 13560 H 1347.59 -1.98722 3.46914 0
M  V30 13561 H 1349.03 -2.94003 3.05513 0
M  V30 13562 C 1347.49 -2.98111 1.56945 0
M  V30 13563 O 1348.02 -3.89937 0.964975 0
M  V30 13564 N 1346.23 -2.60316 1.29166 0
M  V30 13565 H 1345.78 -1.85722 1.78508 0
M  V30 13566 H 1345.73 -3.09116 0.573987 0
M  V30 13567 N 1349.51 -1.55583 -0.251311 0
M  V30 13568 C 1350.44 -1.9296 -1.31486 0
M  V30 13569 C 1351.42 -0.794001 -1.50431 0
M  V30 13570 O 1352.6 -1.05393 -1.63113 0
M  V30 13571 C 1349.73 -2.22046 -2.67045 0
M  V30 13572 C 1348.69 -3.37816 -2.62801 0
M  V30 13573 C 1348.01 -3.52433 -4.02113 0
M  V30 13574 C 1349.31 -4.73626 -2.20171 0
M  V30 13575 H 1351.01 -2.82046 -1.00451 0
M  V30 13576 H 1348.55 -1.35702 -0.481775 0
M  V30 13577 H 1350.5 -2.46783 -3.41579 0
M  V30 13578 H 1349.23 -1.29782 -2.99707 0
M  V30 13579 H 1347.89 -3.13081 -1.90724 0
M  V30 13580 H 1347.54 -2.57597 -4.32034 0
M  V30 13581 H 1347.24 -4.30283 -4.00163 0
M  V30 13582 H 1348.76 -3.79486 -4.78354 0
M  V30 13583 H 1350.17 -4.97764 -2.84436 0
M  V30 13584 H 1348.57 -5.54547 -2.29341 0
M  V30 13585 H 1349.64 -4.70985 -1.1533 0
M  V30 13586 N 1350.98 0.516783 -1.48886 0
M  V30 13587 C 1352.26 1.27808 -1.48069 0
M  V30 13588 C 1352.64 2.10154 -0.19963 0
M  V30 13589 O 1351.99 2.13342 0.818386 0
M  V30 13590 C 1352.2 2.14828 -2.75045 0
M  V30 13591 C 1353.55 2.74536 -3.23906 0
M  V30 13592 O 1354.57 2.25107 -2.76053 0
M  V30 13593 O 1353.43 3.6448 -4.07206 0
M  V30 13594 H 1350.52 0.577535 -0.591931 0
M  V30 13595 H 1353.07 0.532351 -1.61134 0
M  V30 13596 H 1351.84 1.53852 -3.59785 0
M  V30 13597 H 1351.46 2.96624 -2.64764 0
M  V30 13598 N 1352.46 1.37696 0.766659 0
M  V30 13599 C 1353.41 1.33966 1.90147 0
M  V30 13600 C 1354.4 0.2276 1.67864 0
M  V30 13601 O 1355.61 0.395912 1.75592 0
M  V30 13602 H 1351.98 0.417611 0.625384 0
M  V30 13603 H 1353.96 2.29753 1.9041 0
M  V30 13604 C 1352.7 1.16859 3.27474 0
M  V30 13605 H 1352.03 2.01686 3.452 0
M  V30 13606 H 1353.47 1.18301 4.07162 0
M  V30 13607 C 1351.93 -0.125418 3.36666 0
M  V30 13608 O 1352.46 -1.10717 3.86141 0
M  V30 13609 N 1350.66 -0.17784 2.90055 0
M  V30 13610 H 1350.21 0.621737 2.49984 0
M  V30 13611 H 1350.17 -1.04325 2.96587 0
M  V30 13612 N 1353.94 -0.993397 1.22349 0
M  V30 13613 C 1354.9 -2.065 0.994506 0
M  V30 13614 C 1355.9 -1.60753 -0.0388766 0
M  V30 13615 O 1357.09 -1.73053 0.199578 0
M  V30 13616 C 1354.22 -3.37182 0.502088 0
M  V30 13617 H 1355.42 -2.28248 1.94533 0
M  V30 13618 H 1352.97 -1.16489 1.04211 0
M  V30 13619 H 1353.71 -3.21119 -0.453114 0
M  V30 13620 H 1353.49 -3.71721 1.24763 0
M  V30 13621 H 1354.98 -4.16027 0.362108 0
M  V30 13622 N 1355.42 -1.03311 -1.19015 0
M  V30 13623 C 1356.67 -0.727266 -1.88132 0
M  V30 13624 C 1356.98 0.747488 -1.80754 0
M  V30 13625 O 1358.19 1.16654 -2.45161 0
M  V30 13626 C 1356.64 -1.25056 -3.37474 0
M  V30 13627 C 1356.25 -2.7534 -3.534 0
M  V30 13628 C 1357.99 -1.02091 -4.12041 0
M  V30 13629 C 1355.9 -3.21066 -4.96659 0
M  V30 13630 H 1354.83 -0.268349 -0.704631 0
M  V30 13631 H 1357.48 -1.24795 -1.3453 0
M  V30 13632 H 1355.86 -0.65777 -3.90499 0
M  V30 13633 H 1357.04 -3.40311 -3.10684 0
M  V30 13634 H 1355.35 -2.96633 -2.92229 0
M  V30 13635 H 1357.95 -1.33777 -5.17695 0
M  V30 13636 H 1358.29 0.0421413 -4.16279 0
M  V30 13637 H 1358.83 -1.57792 -3.65166 0
M  V30 13638 H 1355.56 -4.26719 -4.97586 0
M  V30 13639 H 1355.08 -2.60826 -5.4012 0
M  V30 13640 H 1356.76 -3.14651 -5.65335 0
M  V30 13641 N 1356.9 1.35099 -0.81154 0
M  V30 13642 C 1358.17 1.93009 -0.317289 0
M  V30 13643 C 1358.55 1.74101 1.19382 0
M  V30 13644 O 1357.9 1.11295 1.99564 0
M  V30 13645 C 1358.11 3.41191 -0.734123 0
M  V30 13646 C 1359.46 4.1834 -0.726437 0
M  V30 13647 O 1360.48 3.49727 -0.67598 0
M  V30 13648 O 1359.34 5.4077 -0.789291 0
M  V30 13649 H 1356.44 0.822707 -0.084153 0
M  V30 13650 H 1358.98 1.44145 -0.895569 0
M  V30 13651 H 1357.75 3.48705 -1.7754 0
M  V30 13652 H 1357.38 3.97384 -0.130919 0
M  V30 13653 N 1358.37 0.56548 1.47106 0
M  V30 13654 C 1359.31 -0.225573 2.27082 0
M  V30 13655 C 1360.28 -0.912747 1.34565 0
M  V30 13656 O 1361.47 -0.930085 1.63956 0
M  V30 13657 C 1358.6 -1.32211 3.1183 0
M  V30 13658 C 1357.64 -0.742615 4.19985 0
M  V30 13659 S 1358.47 0.417211 5.33872 0
M  V30 13660 C 1359.63 -0.680945 6.22185 0
M  V30 13661 H 1359.86 0.453066 2.93828 0
M  V30 13662 H 1357.4 0.351982 1.50334 0
M  V30 13663 H 1359.35 -1.95004 3.61225 0
M  V30 13664 H 1358.02 -1.97262 2.44431 0
M  V30 13665 H 1357.21 -1.56632 4.79043 0
M  V30 13666 H 1356.81 -0.190696 3.73514 0
M  V30 13667 H 1359.1 -1.57099 6.59034 0
M  V30 13668 H 1360.05 -0.127524 7.07985 0
M  V30 13669 H 1360.45 -0.977339 5.55975 0
M  V30 13670 N 1359.85 -1.54672 0.302354 0
M  V30 13671 C 1361.1 -1.99345 -0.307307 0
M  V30 13672 C 1361.41 -1.19437 -1.549 0
M  V30 13673 O 1362.62 -1.54384 -2.23334 0
M  V30 13674 C 1361.08 -3.54896 -0.59808 0
M  V30 13675 C 1360.68 -4.43614 0.625357 0
M  V30 13676 C 1362.43 -4.08091 -1.16886 0
M  V30 13677 C 1360.34 -5.90599 0.307661 0
M  V30 13678 H 1359.27 -0.744614 -0.118603 0
M  V30 13679 H 1361.92 -1.78832 0.411271 0
M  V30 13680 H 1360.3 -3.71314 -1.37629 0
M  V30 13681 H 1361.47 -4.38969 1.40152 0
M  V30 13682 H 1359.79 -4.01198 1.11487 0
M  V30 13683 H 1362.38 -5.15477 -1.42082 0
M  V30 13684 H 1362.73 -3.58775 -2.11155 0
M  V30 13685 H 1363.26 -3.9522 -0.452329 0
M  V30 13686 H 1360 -6.44067 1.21895 0
M  V30 13687 H 1359.52 -5.98248 -0.431208 0
M  V30 13688 H 1361.2 -6.46937 -0.0902796 0
M  V30 13689 N 1361.33 -0.0301034 -1.57571 0
M  V30 13690 C 1362.75 0.326296 -1.56229 0
M  V30 13691 C 1362.95 1.72839 -1.03581 0
M  V30 13692 O 1362 2.43088 -0.682979 0
M  V30 13693 C 1363.32 0.174001 -3.00196 0
M  V30 13694 C 1364.86 0.246694 -3.12026 0
M  V30 13695 C 1365.34 0.123177 -4.57834 0
M  V30 13696 N 1366.83 0.180129 -4.6285 0
M  V30 13697 C 1367.56 0.108353 -5.73298 0
M  V30 13698 N 1367.06 -0.0145648 -6.92798 0
M  V30 13699 N 1368.85 0.162411 -5.61865 0
M  V30 13700 H 1361 -0.946945 -1.90123 0
M  V30 13701 H 1363.27 -0.365762 -0.874598 0
M  V30 13702 H 1362.97 -0.791871 -3.42669 0
M  V30 13703 H 1362.85 0.943794 -3.65202 0
M  V30 13704 H 1365.23 1.20303 -2.69465 0
M  V30 13705 H 1365.32 -0.553493 -2.4974 0
M  V30 13706 H 1364.96 -0.82974 -5.01077 0
M  V30 13707 H 1364.89 0.94224 -5.18102 0
M  V30 13708 H 1367.38 0.275236 -3.76896 0
M  V30 13709 H 1367.69 -0.062614 -7.72775 0
M  V30 13710 H 1366.04 -0.0493606 -6.94982 0
M  V30 13711 H 1369.23 0.256847 -4.67395 0
M  V30 13712 H 1369.4 0.103013 -6.47918 0
M  V30 13713 N 1362.81 1.55714 0.243056 0
M  V30 13714 C 1363.72 1.93777 1.32241 0
M  V30 13715 C 1364.73 0.838709 1.52452 0
M  V30 13716 O 1365.91 1.14044 1.66 0
M  V30 13717 C 1362.98 2.22808 2.65627 0
M  V30 13718 C 1362.04 3.46166 2.53904 0
M  V30 13719 C 1361.27 3.73802 3.8093 0
M  V30 13720 O 1361.49 3.0345 4.82985 0
M  V30 13721 O 1360.43 4.67323 3.79332 0
M  V30 13722 H 1364.25 2.85718 1.02951 0
M  V30 13723 H 1361.84 1.42646 0.444135 0
M  V30 13724 H 1363.72 2.4277 3.44442 0
M  V30 13725 H 1362.39 1.34045 2.94642 0
M  V30 13726 H 1361.3 3.31506 1.73362 0
M  V30 13727 H 1362.63 4.35244 2.29834 0
M  V30 13728 N 1364.29 -0.50888 1.49158 0
M  V30 13729 C 1365.25 -1.59354 1.64739 0
M  V30 13730 C 1366.25 -1.52175 0.519557 0
M  V30 13731 O 1367.44 -1.55468 0.785838 0
M  V30 13732 C 1364.57 -2.99002 1.63739 0
M  V30 13733 H 1365.76 -1.46871 2.61474 0
M  V30 13734 H 1363.32 -0.732532 1.38071 0
M  V30 13735 H 1364.05 -3.1697 0.685583 0
M  V30 13736 H 1363.84 -3.05622 2.45637 0
M  V30 13737 H 1365.33 -3.77822 1.77877 0
M  V30 13738 N 1365.76 -1.381 -0.759346 0
M  V30 13739 C 1366.71 -1.34972 -1.89434 0
M  V30 13740 C 1367.71 -0.236499 -1.67741 0
M  V30 13741 O 1368.91 -0.405218 -1.7538 0
M  V30 13742 H 1365.29 -0.420922 -0.62316 0
M  V30 13743 H 1367.26 -2.3076 -1.89189 0
M  V30 13744 C 1366.01 -1.18594 -3.2685 0
M  V30 13745 H 1365.33 -2.03514 -3.44125 0
M  V30 13746 H 1366.77 -1.20458 -4.06529 0
M  V30 13747 C 1365.23 0.107562 -3.36728 0
M  V30 13748 O 1365.76 1.08668 -3.86722 0
M  V30 13749 N 1363.97 0.162455 -2.90146 0
M  V30 13750 H 1363.51 -0.634985 -2.49651 0
M  V30 13751 H 1363.47 1.02751 -2.97136 0
M  V30 13752 N 1367.24 0.986894 -1.22875 0
M  V30 13753 C 1368.47 1.768 -1.08427 0
M  V30 13754 C 1368.89 1.84612 0.360555 0
M  V30 13755 O 1368.25 1.30299 1.26063 0
M  V30 13756 C 1368.3 3.17638 -1.70701 0
M  V30 13757 O 1367.4 4.00957 -0.964752 0
M  V30 13758 H 1366.74 0.544199 -0.380451 0
M  V30 13759 H 1369.27 1.23931 -1.62795 0
M  V30 13760 H 1369.28 3.68243 -1.75672 0
M  V30 13761 H 1367.96 3.11267 -2.75837 0
M  V30 13762 H 1366.54 3.59477 -0.991493 0
M  V30 13763 N 1368.72 1.0394 1.18466 0
M  V30 13764 C 1369.97 0.737233 1.87744 0
M  V30 13765 C 1370.28 -0.737891 1.81148 0
M  V30 13766 O 1371.49 -1.15353 2.45776 0
M  V30 13767 C 1369.94 1.26844 3.36806 0
M  V30 13768 C 1369.55 2.7721 3.51935 0
M  V30 13769 C 1371.3 1.04274 4.11494 0
M  V30 13770 C 1369.2 3.23696 4.9495 0
M  V30 13771 H 1368.13 0.272082 0.703198 0
M  V30 13772 H 1370.78 1.25507 1.33866 0
M  V30 13773 H 1369.17 0.67847 3.90145 0
M  V30 13774 H 1370.34 3.41954 3.08875 0
M  V30 13775 H 1368.66 2.98179 2.90652 0
M  V30 13776 H 1371.25 1.3652 5.16978 0
M  V30 13777 H 1371.6 -0.0200645 4.16295 0
M  V30 13778 H 1372.13 1.59726 3.64325 0
M  V30 13779 H 1368.87 4.29351 4.95316 0
M  V30 13780 H 1368.39 2.63687 5.38729 0
M  V30 13781 H 1370.07 3.17645 5.63658 0
M  V30 13782 N 1370.2 -1.34667 0.818693 0
M  V30 13783 C 1371.45 -1.9767 0.401184 0
M  V30 13784 C 1371.76 -1.65644 -1.04027 0
M  V30 13785 O 1372.97 -2.22104 -1.56148 0
M  V30 13786 C 1371.42 -3.53677 0.666398 0
M  V30 13787 C 1371.03 -3.94601 2.12119 0
M  V30 13788 C 1372.77 -4.23331 0.314845 0
M  V30 13789 C 1370.68 -5.43502 2.33151 0
M  V30 13790 H 1369.61 -0.739675 0.146275 0
M  V30 13791 H 1372.26 -1.53568 1.00445 0
M  V30 13792 H 1370.64 -3.95999 -0.00698307 0
M  V30 13793 H 1371.82 -3.63396 2.83338 0
M  V30 13794 H 1370.13 -3.37871 2.43377 0
M  V30 13795 H 1372.73 -5.32804 0.449881 0
M  V30 13796 H 1373.07 -4.09666 -0.740235 0
M  V30 13797 H 1373.61 -3.8647 0.942631 0
M  V30 13798 H 1370.35 -5.62148 3.37149 0
M  V30 13799 H 1369.87 -5.76236 1.66471 0
M  V30 13800 H 1371.54 -6.10127 2.153 0
M  V30 13801 N 1371.68 -0.573274 -1.46804 0
M  V30 13802 C 1372.93 -0.0530267 -2.0163 0
M  V30 13803 C 1373.24 1.31124 -1.45141 0
M  V30 13804 O 1374.44 1.92231 -1.91728 0
M  V30 13805 C 1372.9 -0.0442411 -3.59873 0
M  V30 13806 C 1372.51 -1.40625 -4.25357 0
M  V30 13807 C 1374.25 0.422556 -4.22392 0
M  V30 13808 C 1372.16 -1.3557 -5.75652 0
M  V30 13809 H 1371.09 -0.0160537 -0.753829 0
M  V30 13810 H 1373.74 -0.723518 -1.68634 0
M  V30 13811 H 1372.12 0.692225 -3.89903 0
M  V30 13812 H 1373.3 -2.1617 -4.06949 0
M  V30 13813 H 1371.61 -1.81229 -3.74893 0
M  V30 13814 H 1374.21 0.479021 -5.3255 0
M  V30 13815 H 1374.55 1.43806 -3.90673 0
M  V30 13816 H 1375.08 -0.259551 -3.96952 0
M  V30 13817 H 1371.82 -2.34772 -6.12015 0
M  V30 13818 H 1371.34 -0.642309 -5.96351 0
M  V30 13819 H 1373.02 -1.06458 -6.38182 0
M  V30 13820 N 1373.15 1.5451 -0.310553 0
M  V30 13821 C 1374.38 2.04739 0.29824 0
M  V30 13822 C 1374.8 1.18737 1.46788 0
M  V30 13823 O 1374.15 0.215114 1.81228 0
M  V30 13824 C 1374.21 3.53734 0.745274 0
M  V30 13825 O 1373.93 4.36468 -0.377826 0
M  V30 13826 C 1375.43 4.20001 1.41823 0
M  V30 13827 H 1372.65 0.667997 0.0634159 0
M  V30 13828 H 1375.19 1.9942 -0.452961 0
M  V30 13829 H 1373.35 3.59383 1.44648 0
M  V30 13830 H 1373.76 5.24492 -0.0280567 0
M  V30 13831 H 1375.23 5.25747 1.68209 0
M  V30 13832 H 1375.71 3.70319 2.36137 0
M  V30 13833 H 1376.32 4.18455 0.759951 0
M  V30 13834 N 1374.63 0.0384594 1.57553 0
M  V30 13835 C 1376.04 -0.499057 1.79906 0
M  V30 13836 C 1376.4 -1.7169 0.949577 0
M  V30 13837 O 1375.52 -2.15788 0.162584 0
M  V30 13838 C 1376.12 -0.912155 3.2629 0
M  V30 13839 C 1374.67 -1.39473 3.49606 0
M  V30 13840 C 1373.82 -0.363859 2.74902 0
M  V30 13841 H 1376.77 0.264433 1.56481 0
M  V30 13842 H 1376.79 -1.77592 3.36513 0
M  V30 13843 H 1376.31 -0.0255928 3.88092 0
M  V30 13844 H 1374.41 -2.3009 2.93068 0
M  V30 13845 H 1374.52 -1.39566 4.58321 0
M  V30 13846 H 1372.88 -0.833993 2.40659 0
M  V30 13847 H 1373.67 0.514398 3.39424 0
M  V30 13848 N 1376.11 -1.55841 -0.234795 0
M  V30 13849 C 1377.36 -1.77886 -0.959217 0
M  V30 13850 C 1377.68 -0.604621 -1.8539 0
M  V30 13851 O 1376.95 0.379092 -1.92197 0
M  V30 13852 H 1375.53 -0.656077 -0.357172 0
M  V30 13853 H 1378.19 -1.93292 -0.249831 0
M  V30 13854 H 1377.29 -2.69512 -1.57383 0
M  V30 13855 N 1377.59 0.500963 -1.49426 0
M  V30 13856 C 1378.82 1.27725 -1.62388 0
M  V30 13857 C 1379.23 1.86893 -0.294544 0
M  V30 13858 O 1378.57 1.68571 0.73003 0
M  V30 13859 C 1378.63 2.44649 -2.63414 0
M  V30 13860 C 1378.3 2.0635 -4.0776 0
M  V30 13861 C 1379.29 1.60323 -4.94563 0
M  V30 13862 C 1376.98 2.15984 -4.53493 0
M  V30 13863 C 1378.97 1.24433 -6.25136 0
M  V30 13864 C 1376.66 1.79706 -5.8408 0
M  V30 13865 C 1377.66 1.34005 -6.69725 0
M  V30 13866 O 1377.35 0.982171 -7.97878 0
M  V30 13867 H 1377.08 0.393595 -0.549599 0
M  V30 13868 H 1379.63 0.607944 -1.96197 0
M  V30 13869 H 1377.86 3.14656 -2.24785 0
M  V30 13870 H 1379.55 3.06675 -2.65905 0
M  V30 13871 H 1380.32 1.52326 -4.60458 0
M  V30 13872 H 1376.2 2.50507 -3.86998 0
M  V30 13873 H 1379.74 0.886906 -6.91939 0
M  V30 13874 H 1375.64 1.87352 -6.17713 0
M  V30 13875 H 1376.4 1.11364 -8.10889 0
M  V30 13876 N 1379.07 1.38501 0.752011 0
M  V30 13877 C 1380.32 1.34529 1.50819 0
M  V30 13878 C 1380.64 -0.0636155 1.94896 0
M  V30 13879 O 1379.91 -1.01161 1.6776 0
M  V30 13880 H 1378.49 0.49501 0.559441 0
M  V30 13881 H 1381.15 1.73196 0.893822 0
M  V30 13882 H 1380.24 1.99713 2.39835 0
M  V30 13883 N 1380.55 -0.980364 1.23396 0
M  V30 13884 C 1381.48 -2.0908 1.0396 0
M  V30 13885 C 1382.46 -1.70044 -0.0434946 0
M  V30 13886 O 1383.64 -1.93822 0.121155 0
M  V30 13887 C 1380.77 -3.41537 0.630061 0
M  V30 13888 C 1379.73 -3.94476 1.66051 0
M  V30 13889 C 1379.05 -5.23128 1.10641 0
M  V30 13890 C 1380.35 -4.23741 3.05354 0
M  V30 13891 H 1382.05 -2.25598 1.9684 0
M  V30 13892 H 1379.59 -1.08409 0.94781 0
M  V30 13893 H 1381.54 -4.18644 0.481145 0
M  V30 13894 H 1380.27 -3.24883 -0.334416 0
M  V30 13895 H 1378.93 -3.19513 1.79742 0
M  V30 13896 H 1378.58 -5.02824 0.132913 0
M  V30 13897 H 1378.28 -5.59515 1.79492 0
M  V30 13898 H 1379.8 -6.02857 0.969344 0
M  V30 13899 H 1381.21 -4.91598 2.94964 0
M  V30 13900 H 1379.61 -4.71329 3.71442 0
M  V30 13901 H 1380.68 -3.31012 3.54343 0
M  V30 13902 N 1382.02 -1.04567 -1.17913 0
M  V30 13903 C 1383.26 -0.760977 -1.89706 0
M  V30 13904 C 1383.63 0.698804 -1.78832 0
M  V30 13905 O 1384.83 1.09733 -2.45382 0
M  V30 13906 C 1383.1 -1.22042 -3.35917 0
M  V30 13907 S 1384.66 -1.06214 -4.25751 0
M  V30 13908 H 1381.48 -0.276538 -0.655017 0
M  V30 13909 H 1384.08 -1.339 -1.42446 0
M  V30 13910 H 1382.78 -2.27813 -3.41364 0
M  V30 13911 H 1382.31 -0.636401 -3.88218 0
M  V30 13912 H 1384.33 0.0174486 -4.96197 0
M  V30 13913 N 1383.5 1.34231 -0.825823 0
M  V30 13914 C 1384.46 2.27776 -0.25512 0
M  V30 13915 C 1385.46 1.50409 0.568654 0
M  V30 13916 O 1386.65 1.69907 0.384337 0
M  V30 13917 C 1383.79 3.348 0.642013 0
M  V30 13918 H 1384.98 2.79763 -1.0804 0
M  V30 13919 H 1382.53 1.44412 -0.597904 0
M  V30 13920 H 1383.27 2.88032 1.49024 0
M  V30 13921 H 1383.05 3.92064 0.0527756 0
M  V30 13922 H 1384.54 4.0457 1.03502 0
M  V30 13923 N 1384.98 0.581051 1.46498 0
M  V30 13924 C 1385.94 -0.142937 2.28754 0
M  V30 13925 C 1386.94 -0.820383 1.38298 0
M  V30 13926 O 1388.13 -0.672592 1.60692 0
M  V30 13927 C 1385.26 -1.21176 3.18637 0
M  V30 13928 H 1386.46 0.579918 2.9424 0
M  V30 13929 H 1384.01 0.338951 1.52581 0
M  V30 13930 H 1384.75 -1.96624 2.57894 0
M  V30 13931 H 1384.53 -0.730517 3.85235 0
M  V30 13932 H 1386.02 -1.71958 3.80552 0
M  V30 13933 N 1386.46 -1.54343 0.318742 0
M  V30 13934 C 1387.4 -2.24166 -0.549397 0
M  V30 13935 C 1388.37 -1.23068 -1.1155 0
M  V30 13936 O 1389.56 -1.51737 -1.15674 0
M  V30 13937 C 1386.7 -2.99938 -1.70678 0
M  V30 13938 C 1385.81 -4.15844 -1.17037 0
M  V30 13939 C 1384.95 -4.79158 -2.29305 0
M  V30 13940 C 1383.99 -5.87176 -1.72888 0
M  V30 13941 N 1383.12 -6.44372 -2.78799 0
M  V30 13942 H 1387.96 -2.97954 0.0526018 0
M  V30 13943 H 1385.5 -1.47052 0.0377307 0
M  V30 13944 H 1387.46 -3.42113 -2.38777 0
M  V30 13945 H 1386.09 -2.28494 -2.28014 0
M  V30 13946 H 1385.14 -3.78486 -0.381082 0
M  V30 13947 H 1386.45 -4.93612 -0.717507 0
M  V30 13948 H 1385.61 -5.24277 -3.05317 0
M  V30 13949 H 1384.35 -4.0076 -2.77926 0
M  V30 13950 H 1383.35 -5.41465 -0.953714 0
M  V30 13951 H 1384.58 -6.67469 -1.2515 0
M  V30 13952 H 1382.52 -5.6885 -3.2672 0
M  V30 13953 H 1382.44 -7.17539 -2.38062 0
M  V30 13954 H 1383.71 -6.94147 -3.54655 0
M  V30 13955 N 1387.94 -0.0468143 -1.5753 0
M  V30 13956 C 1388.9 0.914225 -2.10177 0
M  V30 13957 C 1389.9 1.24271 -1.02045 0
M  V30 13958 O 1391.09 1.18012 -1.28136 0
M  V30 13959 C 1388.22 2.22544 -2.58238 0
M  V30 13960 H 1389.41 0.457922 -2.96383 0
M  V30 13961 H 1386.97 0.20152 -1.54995 0
M  V30 13962 H 1387.7 2.72765 -1.75413 0
M  V30 13963 H 1387.49 2.00007 -3.37253 0
M  V30 13964 H 1388.98 2.91392 -2.99133 0
M  V30 13965 N 1389.41 1.55964 0.226527 0
M  V30 13966 C 1390.35 1.88487 1.30405 0
M  V30 13967 C 1391.36 0.772723 1.43293 0
M  V30 13968 O 1392.55 1.05099 1.44279 0
M  V30 13969 C 1389.65 2.074 2.68027 0
M  V30 13970 C 1388.82 3.38389 2.77149 0
M  V30 13971 C 1387.88 3.46795 3.95752 0
M  V30 13972 O 1386.91 4.19862 3.84323 0
M  V30 13973 N 1388.11 2.77573 5.09836 0
M  V30 13974 H 1390.87 2.81506 1.02833 0
M  V30 13975 H 1388.43 1.56449 0.416581 0
M  V30 13976 H 1390.43 2.10344 3.45742 0
M  V30 13977 H 1389 1.2103 2.8822 0
M  V30 13978 H 1388.22 3.47586 1.8595 0
M  V30 13979 H 1389.5 4.24688 2.8021 0
M  V30 13980 H 1388.9 2.17979 5.22017 0
M  V30 13981 H 1387.46 2.86185 5.85612 0
M  V30 13982 N 1390.89 -0.493031 1.4969 0
M  V30 13983 C 1392.12 -1.26862 1.63063 0
M  V30 13984 C 1392.53 -1.86734 0.304451 0
M  V30 13985 O 1391.87 -1.68956 -0.72108 0
M  V30 13986 C 1391.94 -2.43249 2.64708 0
M  V30 13987 C 1391.6 -2.04185 4.08849 0
M  V30 13988 C 1392.6 -1.57698 4.95406 0
M  V30 13989 C 1390.28 -2.13576 4.54632 0
M  V30 13990 C 1392.28 -1.21116 6.25787 0
M  V30 13991 C 1389.96 -1.76606 5.85024 0
M  V30 13992 C 1390.96 -1.30451 6.70426 0
M  V30 13993 O 1390.65 -0.939844 7.98387 0
M  V30 13994 H 1390.38 -0.390674 0.551679 0
M  V30 13995 H 1392.93 -0.59753 1.96516 0
M  V30 13996 H 1391.16 -3.1346 2.26451 0
M  V30 13997 H 1392.85 -3.0526 2.67528 0
M  V30 13998 H 1393.62 -1.49882 4.6126 0
M  V30 13999 H 1389.5 -2.48451 3.88321 0
M  V30 14000 H 1393.04 -0.850198 6.924 0
M  V30 14001 H 1388.94 -1.84074 6.18698 0
M  V30 14002 H 1389.71 -1.07062 8.11468 0
M  V30 14003 N 1392.37 -1.38898 -0.744656 0
M  V30 14004 C 1393.78 -1.31789 -1.32244 0
M  V30 14005 C 1394.13 0.0222208 -1.96187 0
M  V30 14006 O 1393.26 0.924328 -1.95666 0
M  V30 14007 C 1393.85 -2.38674 -2.40458 0
M  V30 14008 C 1392.41 -2.35116 -2.93935 0
M  V30 14009 C 1391.56 -2.21069 -1.67403 0
M  V30 14010 H 1394.51 -1.49126 -0.54287 0
M  V30 14011 H 1394.53 -2.04905 -3.20615 0
M  V30 14012 H 1394.04 -3.36197 -1.9389 0
M  V30 14013 H 1392.14 -1.41201 -3.44809 0
M  V30 14014 H 1392.26 -3.29602 -3.47706 0
M  V30 14015 H 1390.62 -1.68074 -1.91372 0
M  V30 14016 H 1391.4 -3.20547 -1.229 0
M  V30 14017 N 1393.85 0.973806 -1.23914 0
M  V30 14018 C 1395.1 1.71027 -1.06923 0
M  V30 14019 C 1395.41 1.91612 0.392947 0
M  V30 14020 O 1396.62 2.62771 0.682927 0
M  V30 14021 C 1395.07 3.07811 -1.86496 0
M  V30 14022 C 1394.68 2.9509 -3.37085 0
M  V30 14023 C 1396.42 3.85371 -1.78015 0
M  V30 14024 C 1394.33 4.27145 -4.09024 0
M  V30 14025 H 1393.26 0.641329 -0.396501 0
M  V30 14026 H 1395.91 1.08562 -1.47941 0
M  V30 14027 H 1394.29 3.71069 -1.38288 0
M  V30 14028 H 1395.47 2.4088 -3.92827 0
M  V30 14029 H 1393.78 2.30999 -3.46451 0
M  V30 14030 H 1396.38 4.83147 -2.2907 0
M  V30 14031 H 1396.72 4.09594 -0.744196 0
M  V30 14032 H 1397.26 3.28827 -2.23869 0
M  V30 14033 H 1394 4.08117 -5.12953 0
M  V30 14034 H 1393.52 4.81194 -3.58068 0
M  V30 14035 H 1395.19 4.95798 -4.15685 0
M  V30 14036 N 1395.33 1.05191 1.17357 0
M  V30 14037 C 1396.29 0.65713 2.19578 0
M  V30 14038 C 1397.29 -0.29138 1.58138 0
M  V30 14039 O 1398.48 -0.075254 1.74037 0
M  V30 14040 C 1395.61 -0.0348162 3.40882 0
M  V30 14041 H 1396.8 1.56188 2.56018 0
M  V30 14042 H 1394.36 0.845795 1.31438 0
M  V30 14043 H 1395.09 -0.952835 3.09986 0
M  V30 14044 H 1394.88 0.647076 3.86724 0
M  V30 14045 H 1396.37 -0.297135 4.16542 0
M  V30 14046 N 1396.8 -1.33791 0.83293 0
M  V30 14047 C 1398.08 -1.9248 0.347955 0
M  V30 14048 C 1398.46 -1.75978 -1.16597 0
M  V30 14049 O 1397.81 -1.14456 -1.97768 0
M  V30 14050 C 1398.02 -3.3998 0.78831 0
M  V30 14051 C 1399.37 -4.17131 0.7929 0
M  V30 14052 O 1400.39 -3.48607 0.731533 0
M  V30 14053 O 1399.25 -5.39446 0.875223 0
M  V30 14054 H 1396.34 -0.821264 0.0972309 0
M  V30 14055 H 1398.89 -1.42702 0.918387 0
M  V30 14056 H 1397.66 -3.45836 1.83065 0
M  V30 14057 H 1397.29 -3.97126 0.194123 0
M  V30 14058 N 1398.28 -0.588812 -1.46187 0
M  V30 14059 C 1399.21 0.128595 -2.33146 0
M  V30 14060 C 1400.19 0.877608 -1.45712 0
M  V30 14061 O 1401.38 0.851866 -1.74519 0
M  V30 14062 C 1398.51 1.13886 -3.28096 0
M  V30 14063 C 1397.46 0.504296 -4.25019 0
M  V30 14064 C 1396.79 1.62147 -5.09522 0
M  V30 14065 C 1398.09 -0.562466 -5.19263 0
M  V30 14066 H 1399.78 -0.597455 -2.93378 0
M  V30 14067 H 1397.33 -0.288764 -1.41075 0
M  V30 14068 H 1399.28 1.64916 -3.8779 0
M  V30 14069 H 1398.01 1.89527 -2.65983 0
M  V30 14070 H 1396.66 0.0150325 -3.66597 0
M  V30 14071 H 1396.31 2.36769 -4.4379 0
M  V30 14072 H 1396.01 1.20249 -5.75164 0
M  V30 14073 H 1397.54 2.13441 -5.7208 0
M  V30 14074 H 1398.95 -0.137003 -5.73136 0
M  V30 14075 H 1397.35 -0.902115 -5.93281 0
M  V30 14076 H 1398.42 -1.4464 -4.62825 0
M  V30 14077 N 1399.76 1.54172 -0.326923 0
M  V30 14078 C 1401.01 2.00926 0.275047 0
M  V30 14079 C 1401.34 1.21469 1.51522 0
M  V30 14080 O 1400.61 0.297871 1.92206 0
M  V30 14081 C 1400.9 3.54967 0.605833 0
M  V30 14082 C 1400.75 4.45147 -0.645279 0
M  V30 14083 C 1402.07 4.16489 1.42213 0
M  V30 14084 H 1399.19 0.730389 0.098495 0
M  V30 14085 H 1401.83 1.84735 -0.444168 0
M  V30 14086 H 1399.98 3.68895 1.21857 0
M  V30 14087 H 1401.65 4.43085 -1.2835 0
M  V30 14088 H 1399.9 4.14686 -1.27349 0
M  V30 14089 H 1400.57 5.50763 -0.36932 0
M  V30 14090 H 1403.04 4.06158 0.904172 0
M  V30 14091 H 1401.92 5.24377 1.62234 0
M  V30 14092 H 1402.18 3.70032 2.41928 0
M  V30 14093 N 1401.24 0.0551678 1.57503 0
M  V30 14094 C 1402.19 -0.917847 2.11764 0
M  V30 14095 C 1403.16 -1.30624 1.02599 0
M  V30 14096 O 1404.34 -1.39501 1.30169 0
M  V30 14097 C 1401.48 -2.18599 2.67036 0
M  V30 14098 C 1400.59 -1.85173 3.90301 0
M  V30 14099 C 1399.73 -3.06475 4.33874 0
M  V30 14100 C 1398.77 -2.68988 5.49829 0
M  V30 14101 N 1397.9 -3.82997 5.88437 0
M  V30 14102 H 1402.74 -0.448236 2.9461 0
M  V30 14103 H 1400.28 -0.209619 1.45599 0
M  V30 14104 H 1402.24 -2.92811 2.97183 0
M  V30 14105 H 1400.87 -2.6313 1.86982 0
M  V30 14106 H 1399.92 -1.01094 3.66721 0
M  V30 14107 H 1401.23 -1.53582 4.74567 0
M  V30 14108 H 1400.39 -3.88982 4.65594 0
M  V30 14109 H 1399.13 -3.41247 3.48427 0
M  V30 14110 H 1398.13 -1.84899 5.17776 0
M  V30 14111 H 1399.36 -2.35404 6.36994 0
M  V30 14112 H 1397.3 -4.17562 5.05942 0
M  V30 14113 H 1397.22 -3.55118 6.67403 0
M  V30 14114 H 1398.49 -4.66131 6.24773 0
M  V30 14115 N 1402.72 -1.56081 -0.218252 0
M  V30 14116 C 1403.65 -1.87704 -1.29779 0
M  V30 14117 C 1404.63 -0.734747 -1.45053 0
M  V30 14118 O 1405.81 -0.98344 -1.60813 0
M  V30 14119 C 1402.94 -2.08695 -2.66766 0
M  V30 14120 C 1401.98 -3.31385 -2.68489 0
M  V30 14121 S 1402.82 -4.87212 -2.22227 0
M  V30 14122 C 1403.97 -5.11243 -3.61083 0
M  V30 14123 H 1404.21 -2.78975 -1.02762 0
M  V30 14124 H 1401.74 -1.48559 -0.420653 0
M  V30 14125 H 1403.7 -2.21472 -3.4563 0
M  V30 14126 H 1402.36 -1.18215 -2.91005 0
M  V30 14127 H 1401.55 -3.43127 -3.69161 0
M  V30 14128 H 1401.15 -3.17482 -1.9769 0
M  V30 14129 H 1403.45 -5.00344 -4.56796 0
M  V30 14130 H 1404.39 -6.13115 -3.54254 0
M  V30 14131 H 1404.8 -4.38964 -3.54924 0
M  V30 14132 N 1404.2 0.485086 -1.49949 0
M  V30 14133 C 1405.13 1.59312 -1.7071 0
M  V30 14134 C 1406.11 1.6076 -0.555896 0
M  V30 14135 O 1407.29 1.77249 -0.793504 0
M  V30 14136 C 1404.42 2.97718 -1.78834 0
M  V30 14137 C 1403.38 3.11136 -2.93902 0
M  V30 14138 C 1402.7 4.51051 -2.87154 0
M  V30 14139 C 1404 2.89665 -4.34617 0
M  V30 14140 H 1405.7 1.42192 -2.6348 0
M  V30 14141 H 1403.24 0.68262 -1.26792 0
M  V30 14142 H 1405.19 3.75148 -1.91943 0
M  V30 14143 H 1403.92 3.15963 -0.826744 0
M  V30 14144 H 1402.58 2.36135 -2.80421 0
M  V30 14145 H 1402.23 4.66195 -1.88869 0
M  V30 14146 H 1401.93 4.60967 -3.64394 0
M  V30 14147 H 1403.45 5.3052 -3.02293 0
M  V30 14148 H 1404.86 3.56853 -4.48697 0
M  V30 14149 H 1403.26 3.11039 -5.13201 0
M  V30 14150 H 1404.33 1.85642 -4.47956 0
M  V30 14151 N 1405.67 1.39291 0.737279 0
M  V30 14152 C 1406.9 1.39659 1.52653 0
M  V30 14153 C 1407.32 -0.00948259 1.88798 0
M  V30 14154 O 1406.67 -0.980249 1.53939 0
M  V30 14155 C 1406.72 2.2674 2.81552 0
M  V30 14156 O 1406.45 3.61871 2.46943 0
M  V30 14157 C 1407.95 2.35466 3.75594 0
M  V30 14158 H 1405.17 0.477108 0.471814 0
M  V30 14159 H 1407.71 1.83077 0.911205 0
M  V30 14160 H 1405.87 1.86741 3.39421 0
M  V30 14161 H 1406.28 4.07897 3.29728 0
M  V30 14162 H 1407.75 3.00649 4.62941 0
M  V30 14163 H 1408.23 1.37314 4.17183 0
M  V30 14164 H 1408.84 2.75925 3.23644 0
M  V30 14165 N 1407.15 -0.967221 1.24429 0
M  V30 14166 C 1408.06 -2.09582 1.05417 0
M  V30 14167 C 1409.08 -1.73999 -0.00516127 0
M  V30 14168 O 1410.25 -2.00472 0.193115 0
M  V30 14169 C 1407.32 -3.40327 0.661697 0
M  V30 14170 C 1406.38 -3.89854 1.79756 0
M  V30 14171 C 1405.61 -5.1436 1.42372 0
M  V30 14172 O 1405.84 -5.69536 0.313754 0
M  V30 14173 O 1404.77 -5.58283 2.24952 0
M  V30 14174 H 1408.6 -2.28517 2.00034 0
M  V30 14175 H 1406.18 -1.07978 1.03253 0
M  V30 14176 H 1408.06 -4.18943 0.454369 0
M  V30 14177 H 1406.74 -3.22691 -0.255348 0
M  V30 14178 H 1405.64 -3.12297 2.05964 0
M  V30 14179 H 1406.98 -4.11967 2.69339 0
M  V30 14180 N 1408.63 -1.05812 -1.16797 0
M  V30 14181 C 1409.56 -0.622584 -2.20582 0
M  V30 14182 C 1410.57 0.316905 -1.59686 0
M  V30 14183 O 1411.76 0.108657 -1.78169 0
M  V30 14184 C 1408.86 0.108124 -3.38727 0
M  V30 14185 C 1408.04 -0.84363 -4.29187 0
M  V30 14186 C 1407.1 -0.15305 -5.25977 0
M  V30 14187 O 1406.12 -0.78915 -5.63703 0
M  V30 14188 N 1407.32 1.10721 -5.69843 0
M  V30 14189 H 1410.09 -1.51532 -2.5857 0
M  V30 14190 H 1407.65 -0.940815 -1.31758 0
M  V30 14191 H 1409.64 0.580395 -4.00517 0
M  V30 14192 H 1408.21 0.902599 -2.99286 0
M  V30 14193 H 1407.43 -1.49538 -3.64735 0
M  V30 14194 H 1408.72 -1.48946 -4.86511 0
M  V30 14195 H 1408.12 1.64423 -5.41278 0
M  V30 14196 H 1406.67 1.52344 -6.33746 0
M  V30 14197 N 1410.11 1.33347 -0.840014 0
M  V30 14198 C 1411.36 1.97354 -0.435412 0
M  V30 14199 C 1411.68 1.66866 1.009 0
M  V30 14200 O 1410.95 0.968186 1.70303 0
M  V30 14201 H 1409.53 0.730096 -0.158017 0
M  V30 14202 H 1412.19 1.6269 -1.07322 0
M  V30 14203 H 1411.28 3.0688 -0.56841 0
M  V30 14204 N 1411.59 0.596556 1.45873 0
M  V30 14205 C 1412.53 -0.128713 2.30441 0
M  V30 14206 C 1413.5 -0.870727 1.41448 0
M  V30 14207 O 1414.69 -0.858654 1.70387 0
M  V30 14208 C 1411.83 -1.1274 3.26165 0
M  V30 14209 C 1410.94 -0.387403 4.30259 0
M  V30 14210 C 1410.08 -1.37484 5.131 0
M  V30 14211 C 1409.11 -0.622025 6.08931 0
M  V30 14212 N 1408.25 -1.5582 6.84591 0
M  V30 14213 H 1413.09 0.598466 2.91929 0
M  V30 14214 H 1410.63 0.306936 1.43862 0
M  V30 14215 H 1412.59 -1.71943 3.8012 0
M  V30 14216 H 1411.22 -1.82213 2.66455 0
M  V30 14217 H 1410.27 0.319929 3.79052 0
M  V30 14218 H 1411.58 0.200477 4.98397 0
M  V30 14219 H 1410.73 -2.03926 5.71401 0
M  V30 14220 H 1409.47 -1.99665 4.44955 0
M  V30 14221 H 1408.48 0.0560936 5.49771 0
M  V30 14222 H 1409.7 -0.00541426 6.791 0
M  V30 14223 H 1407.65 -2.16786 6.19145 0
M  V30 14224 H 1407.57 -1.02347 7.4904 0
M  V30 14225 H 1408.83 -2.21254 7.4744 0
M  V30 14226 N 1413.06 -1.53996 0.335095 0
M  V30 14227 C 1414.01 -2.24736 -0.52559 0
M  V30 14228 C 1414.98 -1.24244 -1.10239 0
M  V30 14229 O 1416.17 -1.52955 -1.14058 0
M  V30 14230 C 1413.31 -3.01732 -1.67487 0
M  V30 14231 C 1412.42 -4.17062 -1.1262 0
M  V30 14232 C 1411.55 -4.81563 -2.2421 0
M  V30 14233 C 1410.59 -5.88977 -1.6665 0
M  V30 14234 N 1409.73 -6.47293 -2.71949 0
M  V30 14235 H 1414.57 -2.97881 0.0842008 0
M  V30 14236 H 1412.11 -1.47003 0.0533254 0
M  V30 14237 H 1414.06 -3.44626 -2.35135 0
M  V30 14238 H 1412.69 -2.30899 -2.25578 0
M  V30 14239 H 1411.75 -3.78869 -0.340917 0
M  V30 14240 H 1413.06 -4.94346 -0.665113 0
M  V30 14241 H 1412.21 -5.27486 -2.9974 0
M  V30 14242 H 1410.95 -4.03685 -2.73659 0
M  V30 14243 H 1409.96 -5.42446 -0.89623 0
M  V30 14244 H 1411.18 -6.68758 -1.18064 0
M  V30 14245 H 1409.13 -5.72283 -3.20668 0
M  V30 14246 H 1409.04 -7.20024 -2.30438 0
M  V30 14247 H 1410.31 -6.97869 -3.47273 0
M  V30 14248 N 1414.54 -0.0635198 -1.57472 0
M  V30 14249 C 1415.79 0.608384 -1.93459 0
M  V30 14250 C 1416.12 1.6976 -0.943141 0
M  V30 14251 O 1415.4 1.94478 0.0289567 0
M  V30 14252 C 1415.68 1.19302 -3.39763 0
M  V30 14253 C 1415.53 0.11102 -4.49663 0
M  V30 14254 C 1416.85 2.101 -3.86712 0
M  V30 14255 H 1413.97 0.219688 -0.703496 0
M  V30 14256 H 1416.61 -0.127803 -1.8957 0
M  V30 14257 H 1414.76 1.82044 -3.43209 0
M  V30 14258 H 1416.43 -0.521606 -4.58342 0
M  V30 14259 H 1414.68 -0.559408 -4.30178 0
M  V30 14260 H 1415.35 0.560332 -5.49149 0
M  V30 14261 H 1417.82 1.57305 -3.8522 0
M  V30 14262 H 1416.7 2.47945 -4.89708 0
M  V30 14263 H 1416.96 3.00603 -3.24177 0
M  V30 14264 N 1416.02 1.56195 0.209972 0
M  V30 14265 C 1417.44 1.49446 0.56018 0
M  V30 14266 C 1417.64 0.760799 1.86585 0
M  V30 14267 O 1416.69 0.305201 2.50649 0
M  V30 14268 C 1418 2.94054 0.628687 0
M  V30 14269 C 1419.55 3.04641 0.718531 0
M  V30 14270 C 1420.03 4.50631 0.81828 0
M  V30 14271 N 1421.52 4.54721 0.8822 0
M  V30 14272 C 1422.25 5.64976 0.979292 0
M  V30 14273 N 1421.75 6.84955 1.03961 0
M  V30 14274 N 1423.54 5.52854 1.01533 0
M  V30 14275 H 1415.69 2.02316 -0.646674 0
M  V30 14276 H 1417.96 0.920063 -0.228446 0
M  V30 14277 H 1417.66 3.50728 -0.261324 0
M  V30 14278 H 1417.54 3.46592 1.48842 0
M  V30 14279 H 1419.92 2.48026 1.59898 0
M  V30 14280 H 1420 2.55254 -0.167102 0
M  V30 14281 H 1419.65 5.07867 -0.0577557 0
M  V30 14282 H 1419.58 4.97736 1.7195 0
M  V30 14283 H 1422.07 3.68322 0.845433 0
M  V30 14284 H 1422.38 7.64732 1.11379 0
M  V30 14285 H 1420.73 6.87643 1.00854 0
M  V30 14286 H 1423.92 4.58046 0.96494 0
M  V30 14287 H 1424.09 6.38809 1.08754 0
M  V30 14288 N 1417.5 -0.477127 1.50204 0
M  V30 14289 C 1418.74 -1.22964 1.60891 0
M  V30 14290 C 1419.07 -1.9207 0.306464 0
M  V30 14291 O 1418.33 -1.82472 -0.707272 0
M  V30 14292 C 1418.63 -2.30126 2.73453 0
M  V30 14293 C 1418.29 -1.78314 4.14143 0
M  V30 14294 C 1416.95 -1.63904 4.52425 0
M  V30 14295 C 1419.31 -1.3981 5.02098 0
M  V30 14296 C 1416.63 -1.09404 5.76409 0
M  V30 14297 C 1418.99 -0.867538 6.26623 0
M  V30 14298 C 1417.65 -0.710022 6.63713 0
M  V30 14299 H 1416.92 -0.449959 0.588743 0
M  V30 14300 H 1419.57 -0.526592 1.84118 0
M  V30 14301 H 1417.87 -3.06315 2.44291 0
M  V30 14302 H 1419.57 -2.88099 2.78927 0
M  V30 14303 H 1416.16 -1.90496 3.83939 0
M  V30 14304 H 1420.34 -1.49779 4.73159 0
M  V30 14305 H 1415.6 -0.959413 6.03825 0
M  V30 14306 H 1419.77 -0.560496 6.94141 0
M  V30 14307 H 1417.4 -0.285555 7.59663 0
M  V30 14308 N 1418.98 -1.3968 -0.729882 0
M  V30 14309 C 1420.22 -1.36911 -1.4866 0
M  V30 14310 C 1420.55 0.0326011 -1.94973 0
M  V30 14311 O 1419.82 0.984789 -1.69348 0
M  V30 14312 H 1418.4 -0.503848 -0.551495 0
M  V30 14313 H 1421.06 -1.74596 -0.866155 0
M  V30 14314 H 1420.15 -2.03504 -2.36628 0
M  V30 14315 N 1420.45 0.960609 -1.2494 0
M  V30 14316 C 1421.7 1.69884 -1.08731 0
M  V30 14317 C 1422.02 1.92018 0.372602 0
M  V30 14318 O 1423.22 2.6348 0.655018 0
M  V30 14319 C 1421.68 3.05815 -1.8975 0
M  V30 14320 C 1421.29 2.91498 -3.40196 0
M  V30 14321 C 1423.03 3.83462 -1.82092 0
M  V30 14322 C 1420.94 4.22783 -4.13532 0
M  V30 14323 H 1419.87 0.637087 -0.403281 0
M  V30 14324 H 1422.52 1.06987 -1.49084 0
M  V30 14325 H 1420.9 3.69582 -1.42216 0
M  V30 14326 H 1422.07 2.367 -3.9536 0
M  V30 14327 H 1420.39 2.27312 -3.48882 0
M  V30 14328 H 1422.99 4.8069 -2.34181 0
M  V30 14329 H 1423.33 4.08782 -0.787597 0
M  V30 14330 H 1423.86 3.26435 -2.27344 0
M  V30 14331 H 1420.6 4.02653 -5.17253 0
M  V30 14332 H 1420.12 4.77369 -3.63152 0
M  V30 14333 H 1421.8 4.91361 -4.2092 0
M  V30 14334 N 1421.93 1.0643 1.16234 0
M  V30 14335 C 1422.88 0.646274 2.18649 0
M  V30 14336 C 1423.87 -0.323768 1.57609 0
M  V30 14337 O 1425.06 -0.138991 1.76453 0
M  V30 14338 C 1422.19 0.0356797 3.43281 0
M  V30 14339 C 1421.27 1.0303 4.11395 0
M  V30 14340 N 1421.66 2.2064 4.55139 0
M  V30 14341 C 1419.96 0.861544 4.376 0
M  V30 14342 C 1420.66 2.83665 5.07848 0
M  V30 14343 N 1419.64 2.11384 5.00817 0
M  V30 14344 H 1423.44 1.54217 2.50189 0
M  V30 14345 H 1420.96 0.936176 1.32701 0
M  V30 14346 H 1422.95 -0.281637 4.15948 0
M  V30 14347 H 1421.61 -0.855453 3.13228 0
M  V30 14348 H 1422.62 2.58409 4.48826 0
M  V30 14349 H 1419.3 0.0225171 4.17494 0
M  V30 14350 H 1420.69 3.83473 5.51723 0
M  V30 14351 N 1423.41 -1.329 0.847073 0
M  V30 14352 C 1424.82 -1.79813 0.502394 0
M  V30 14353 C 1425.17 -1.70017 -0.979218 0
M  V30 14354 O 1424.3 -1.25427 -1.76344 0
M  V30 14355 C 1424.89 -3.26485 0.905154 0
M  V30 14356 C 1423.45 -3.71383 0.612489 0
M  V30 14357 C 1422.6 -2.54157 1.10903 0
M  V30 14358 H 1425.55 -1.20306 1.035 0
M  V30 14359 H 1425.57 -3.79872 0.218476 0
M  V30 14360 H 1425.08 -3.33583 1.98353 0
M  V30 14361 H 1423.18 -3.69806 -0.45548 0
M  V30 14362 H 1423.3 -4.64507 1.17347 0
M  V30 14363 H 1421.66 -2.49134 0.529576 0
M  V30 14364 H 1422.44 -2.64013 2.19435 0
M  V30 14365 N 1424.89 -0.604284 -1.45555 0
M  V30 14366 C 1426.13 -0.0983316 -2.02561 0
M  V30 14367 C 1426.47 1.26659 -1.47211 0
M  V30 14368 O 1425.74 1.83476 -0.645519 0
M  V30 14369 C 1426.03 -0.0558349 -3.60057 0
M  V30 14370 C 1425.88 -1.45119 -4.25747 0
M  V30 14371 C 1427.2 0.633708 -4.35514 0
M  V30 14372 H 1424.32 -0.0372071 -0.73606 0
M  V30 14373 H 1426.96 -0.775623 -1.73448 0
M  V30 14374 H 1425.11 0.520935 -3.84992 0
M  V30 14375 H 1426.78 -2.07478 -4.12008 0
M  V30 14376 H 1425.02 -2.01283 -3.84275 0
M  V30 14377 H 1425.69 -1.37372 -5.34633 0
M  V30 14378 H 1428.17 0.143501 -4.15852 0
M  V30 14379 H 1427.05 0.632538 -5.45243 0
M  V30 14380 H 1427.31 1.69917 -4.08143 0
M  V30 14381 N 1426.37 1.53816 -0.343257 0
M  V30 14382 C 1427.33 2.23654 0.501161 0
M  V30 14383 C 1428.33 1.23664 1.02781 0
M  V30 14384 O 1429.52 1.48104 0.917103 0
M  V30 14385 C 1426.65 2.95596 1.69812 0
M  V30 14386 H 1427.84 2.997 -0.109626 0
M  V30 14387 H 1425.4 1.56013 -0.0946011 0
M  V30 14388 H 1426.13 2.23736 2.34761 0
M  V30 14389 H 1425.92 3.68938 1.32768 0
M  V30 14390 H 1427.41 3.48748 2.29706 0
M  V30 14391 N 1427.84 0.0718701 1.57436 0
M  V30 14392 C 1429.09 -0.596052 1.9311 0
M  V30 14393 C 1429.41 -1.70146 0.952652 0
M  V30 14394 O 1428.68 -1.959 0.000812941 0
M  V30 14395 H 1427.26 -0.223165 0.712886 0
M  V30 14396 H 1429.93 0.129744 1.94468 0
M  V30 14397 H 1429.02 -1.02132 2.94916 0
M  V30 14398 N 1429.32 -1.56304 -0.201686 0
M  V30 14399 C 1430.74 -1.49741 -0.552247 0
M  V30 14400 C 1430.94 -0.770683 -1.86179 0
M  V30 14401 O 1429.99 -0.318489 -2.50483 0
M  V30 14402 C 1431.31 -2.94384 -0.613083 0
M  V30 14403 C 1432.86 -3.05018 -0.702365 0
M  V30 14404 C 1433.33 -4.51058 -0.794371 0
M  V30 14405 N 1434.82 -4.55183 -0.858072 0
M  V30 14406 C 1435.56 -5.65487 -0.949317 0
M  V30 14407 N 1435.05 -6.85497 -1.00327 0
M  V30 14408 N 1436.85 -5.53385 -0.985995 0
M  V30 14409 H 1429 -2.01971 0.657394 0
M  V30 14410 H 1431.26 -0.918839 0.233322 0
M  V30 14411 H 1430.97 -3.50584 0.279921 0
M  V30 14412 H 1430.84 -3.47376 -1.47002 0
M  V30 14413 H 1433.23 -2.4887 -1.5858 0
M  V30 14414 H 1433.31 -2.55161 0.180636 0
M  V30 14415 H 1432.95 -5.07829 0.0846883 0
M  V30 14416 H 1432.88 -4.98641 -1.69308 0
M  V30 14417 H 1435.37 -3.68765 -0.825888 0
M  V30 14418 H 1435.69 -7.65312 -1.07322 0
M  V30 14419 H 1434.03 -6.88169 -0.972061 0
M  V30 14420 H 1437.22 -4.58552 -0.940635 0
M  V30 14421 H 1437.39 -6.39376 -1.05365 0
M  V30 14422 N 1430.8 0.469154 -1.50455 0
M  V30 14423 C 1431.73 1.58574 -1.64102 0
M  V30 14424 C 1432.71 1.5507 -0.489095 0
M  V30 14425 O 1433.9 1.74664 -0.708851 0
M  V30 14426 C 1431.02 2.97151 -1.62538 0
M  V30 14427 C 1430.07 3.18803 -2.83315 0
M  V30 14428 S 1430.9 2.98496 -4.4459 0
M  V30 14429 C 1432.06 4.39412 -4.45722 0
M  V30 14430 H 1432.29 1.46759 -2.58552 0
M  V30 14431 H 1429.82 0.656629 -1.39742 0
M  V30 14432 H 1431.78 3.77044 -1.62321 0
M  V30 14433 H 1430.44 3.06355 -0.693205 0
M  V30 14434 H 1429.64 4.20044 -2.7853 0
M  V30 14435 H 1429.24 2.46685 -2.81109 0
M  V30 14436 H 1431.53 5.32078 -4.19404 0
M  V30 14437 H 1432.47 4.49239 -5.47348 0
M  V30 14438 H 1432.88 4.2158 -3.75407 0
M  V30 14439 N 1432.28 1.40065 0.722464 0
M  V30 14440 C 1433.69 1.33876 1.30131 0
M  V30 14441 C 1434.04 0.00899369 1.96198 0
M  V30 14442 O 1433.17 -0.893082 1.97112 0
M  V30 14443 C 1433.76 2.42469 2.36631 0
M  V30 14444 C 1432.32 2.39762 2.90157 0
M  V30 14445 C 1431.47 2.23704 1.63865 0
M  V30 14446 H 1434.42 1.49971 0.519077 0
M  V30 14447 H 1434.44 2.0998 3.17315 0
M  V30 14448 H 1433.95 3.39239 1.88517 0
M  V30 14449 H 1432.05 1.46669 3.42519 0
M  V30 14450 H 1432.16 3.35092 3.42419 0
M  V30 14451 H 1430.53 1.71098 1.88674 0
M  V30 14452 H 1431.31 3.22462 1.17785 0
M  V30 14453 N 1433.76 -0.95397 1.25448 0
M  V30 14454 C 1435.01 -1.6953 1.10018 0
M  V30 14455 C 1435.33 -1.9166 -0.359385 0
M  V30 14456 O 1434.6 -1.50417 -1.25506 0
M  V30 14457 H 1433.18 -0.628238 0.404136 0
M  V30 14458 H 1435.84 -1.14691 1.57581 0
M  V30 14459 H 1434.93 -2.67427 1.60901 0
M  V30 14460 N 1435.24 -1.07045 -1.15668 0
M  V30 14461 C 1436.17 -0.645945 -2.1991 0
M  V30 14462 C 1437.18 0.29995 -1.60013 0
M  V30 14463 O 1438.37 0.0897537 -1.78274 0
M  V30 14464 C 1435.47 0.0721917 -3.38823 0
M  V30 14465 C 1434.64 -0.889103 -4.28268 0
M  V30 14466 C 1433.7 -0.208829 -5.25785 0
M  V30 14467 O 1432.73 -0.848894 -5.62834 0
M  V30 14468 N 1433.93 1.04671 -5.70985 0
M  V30 14469 H 1436.69 -1.54266 -2.56948 0
M  V30 14470 H 1434.26 -0.954736 -1.30753 0
M  V30 14471 H 1436.25 0.537882 -4.0111 0
M  V30 14472 H 1434.82 0.870805 -3.00226 0
M  V30 14473 H 1434.04 -1.53399 -3.63129 0
M  V30 14474 H 1435.33 -1.54097 -4.84904 0
M  V30 14475 H 1434.72 1.58673 -5.42991 0
M  V30 14476 H 1433.28 1.45613 -6.35327 0
M  V30 14477 N 1436.71 1.32449 -0.85411 0
M  V30 14478 C 1437.64 2.31383 -0.313697 0
M  V30 14479 C 1438.62 1.59656 0.586858 0
M  V30 14480 O 1439.81 1.87459 0.507216 0
M  V30 14481 C 1436.94 3.43693 0.499235 0
M  V30 14482 C 1435.89 4.26899 -0.306839 0
M  V30 14483 C 1435.22 5.30966 0.630795 0
M  V30 14484 C 1436.52 4.99318 -1.53229 0
M  V30 14485 H 1438.21 2.76832 -1.14037 0
M  V30 14486 H 1435.76 1.33091 -0.549805 0
M  V30 14487 H 1437.71 4.11944 0.887709 0
M  V30 14488 H 1436.44 2.96971 1.35926 0
M  V30 14489 H 1435.1 3.60294 -0.677061 0
M  V30 14490 H 1434.74 4.80498 1.48765 0
M  V30 14491 H 1434.44 5.87522 0.0954635 0
M  V30 14492 H 1435.97 6.0208 1.01646 0
M  V30 14493 H 1437.38 5.60253 -1.21614 0
M  V30 14494 H 1435.78 5.65596 -2.00552 0
M  V30 14495 H 1436.85 4.27213 -2.29383 0
M  V30 14496 N 1438.19 0.611994 1.45232 0
M  V30 14497 C 1439.14 -0.116695 2.32307 0
M  V30 14498 C 1440.13 -0.85519 1.46229 0
M  V30 14499 O 1441.34 -0.770257 1.62687 0
M  V30 14500 H 1437.71 -0.0564902 0.749875 0
M  V30 14501 H 1439.69 0.636073 2.91542 0
M  V30 14502 C 1438.43 -1.09768 3.29919 0
M  V30 14503 H 1437.76 -0.538848 3.96152 0
M  V30 14504 H 1439.2 -1.57739 3.93566 0
M  V30 14505 C 1437.66 -2.17344 2.57417 0
M  V30 14506 O 1438.19 -3.2515 2.35882 0
M  V30 14507 N 1436.39 -1.92749 2.17477 0
M  V30 14508 H 1435.94 -1.05084 2.35192 0
M  V30 14509 H 1435.9 -2.6493 1.69291 0
M  V30 14510 N 1439.67 -1.53632 0.351409 0
M  V30 14511 C 1440.92 -2.01338 -0.243047 0
M  V30 14512 C 1441.25 -1.23864 -1.4957 0
M  V30 14513 O 1440.52 -0.328412 -1.91707 0
M  V30 14514 C 1440.81 -3.55886 -0.549284 0
M  V30 14515 C 1440.66 -4.44064 0.716016 0
M  V30 14516 C 1441.98 -4.18699 -1.35569 0
M  V30 14517 H 1439.1 -0.731863 -0.0868627 0
M  V30 14518 H 1441.74 -1.84005 0.473501 0
M  V30 14519 H 1439.89 -3.70787 -1.15972 0
M  V30 14520 H 1441.56 -4.40987 1.35383 0
M  V30 14521 H 1439.8 -4.12608 1.3393 0
M  V30 14522 H 1440.48 -5.50106 0.456895 0
M  V30 14523 H 1442.95 -4.07545 -0.839441 0
M  V30 14524 H 1441.83 -5.26892 -1.53871 0
M  V30 14525 H 1442.09 -3.73834 -2.3601 0
M  V30 14526 N 1441.15 -0.0802183 -1.57396 0
M  V30 14527 C 1442.08 0.881426 -2.16225 0
M  V30 14528 C 1443.06 1.30459 -1.09154 0
M  V30 14529 O 1444.24 1.37413 -1.37227 0
M  V30 14530 C 1441.37 2.14599 -2.73065 0
M  V30 14531 C 1440.33 1.86195 -3.85377 0
M  V30 14532 C 1439.65 3.19354 -4.28856 0
M  V30 14533 C 1440.95 1.16059 -5.09242 0
M  V30 14534 H 1442.65 0.391325 -2.96832 0
M  V30 14535 H 1440.19 0.186785 -1.42783 0
M  V30 14536 H 1442.15 2.82297 -3.12868 0
M  V30 14537 H 1440.87 2.65866 -1.89691 0
M  V30 14538 H 1439.53 1.209 -3.46091 0
M  V30 14539 H 1439.18 3.68479 -3.42392 0
M  V30 14540 H 1438.88 3.01137 -5.04569 0
M  V30 14541 H 1440.4 3.88235 -4.71281 0
M  V30 14542 H 1441.82 1.7384 -5.46308 0
M  V30 14543 H 1440.21 1.08072 -5.90288 0
M  V30 14544 H 1441.28 0.14098 -4.84695 0
M  V30 14545 N 1442.63 1.56409 0.193394 0
M  V30 14546 C 1443.56 1.97707 1.24234 0
M  V30 14547 C 1444.54 0.849286 1.47381 0
M  V30 14548 O 1445.72 1.11374 1.59089 0
M  V30 14549 C 1442.85 2.31804 2.5862 0
M  V30 14550 C 1441.81 3.47337 2.50082 0
M  V30 14551 C 1441.13 3.67114 3.88756 0
M  V30 14552 C 1442.43 4.81472 2.02441 0
M  V30 14553 H 1444.13 2.8558 0.89914 0
M  V30 14554 H 1441.67 1.37396 0.431078 0
M  V30 14555 H 1443.62 2.5929 3.32185 0
M  V30 14556 H 1442.35 1.40816 2.94684 0
M  V30 14557 H 1441.01 3.19944 1.78973 0
M  V30 14558 H 1440.66 2.73454 4.22175 0
M  V30 14559 H 1440.36 4.44838 3.83918 0
M  V30 14560 H 1441.88 3.96978 4.6394 0
M  V30 14561 H 1443.29 5.07978 2.65766 0
M  V30 14562 H 1441.69 5.62677 2.08601 0
M  V30 14563 H 1442.76 4.74941 0.977704 0
M  V30 14564 N 1444.1 -0.461169 1.50702 0
M  V30 14565 C 1445.07 -1.54032 1.69725 0
M  V30 14566 C 1446.07 -1.50445 0.567707 0
M  V30 14567 O 1447.26 -1.52889 0.834901 0
M  V30 14568 C 1444.39 -2.93642 1.73168 0
M  V30 14569 H 1445.58 -1.38478 2.66015 0
M  V30 14570 H 1443.13 -0.688235 1.40332 0
M  V30 14571 H 1443.87 -3.14629 0.786078 0
M  V30 14572 H 1443.65 -2.97652 2.55236 0
M  V30 14573 H 1445.14 -3.71972 1.89807 0
M  V30 14574 N 1445.58 -1.40446 -0.715026 0
M  V30 14575 C 1446.49 -1.43074 -1.85922 0
M  V30 14576 C 1447.51 -0.323294 -1.7097 0
M  V30 14577 O 1448.68 -0.567966 -1.93226 0
M  V30 14578 C 1445.75 -1.29206 -3.21725 0
M  V30 14579 C 1444.81 -2.50097 -3.48927 0
M  V30 14580 C 1444.04 -2.36881 -4.7825 0
M  V30 14581 O 1444.27 -1.38292 -5.53382 0
M  V30 14582 O 1443.2 -3.26266 -5.058 0
M  V30 14583 H 1447.03 -2.39565 -1.86661 0
M  V30 14584 H 1444.61 -1.21775 -0.865522 0
M  V30 14585 H 1446.49 -1.23681 -4.02841 0
M  V30 14586 H 1445.17 -0.358207 -3.21712 0
M  V30 14587 H 1444.07 -2.61199 -2.67817 0
M  V30 14588 H 1445.41 -3.42244 -3.53737 0
M  V30 14589 N 1447.06 0.947303 -1.25952 0
M  V30 14590 C 1448.02 2.02667 -1.07046 0
M  V30 14591 C 1449.02 1.60787 -0.0208127 0
M  V30 14592 O 1450.21 1.72193 -0.263668 0
M  V30 14593 C 1447.34 3.35087 -0.626885 0
M  V30 14594 H 1448.54 2.20871 -2.0287 0
M  V30 14595 H 1446.09 1.12541 -1.08462 0
M  V30 14596 H 1446.83 3.22579 0.333621 0
M  V30 14597 H 1446.61 3.66835 -1.38473 0
M  V30 14598 H 1448.1 4.14397 -0.516264 0
M  V30 14599 N 1448.54 1.07657 1.15099 0
M  V30 14600 C 1449.79 0.800025 1.85591 0
M  V30 14601 C 1450.11 -0.675973 1.82909 0
M  V30 14602 O 1449.38 -1.48971 1.27218 0
M  V30 14603 H 1447.96 0.292958 0.687157 0
M  V30 14604 H 1450.62 1.36096 1.39513 0
M  V30 14605 H 1449.72 1.13733 2.90639 0
M  V30 14606 N 1450.02 -1.31994 0.861122 0
M  V30 14607 C 1451.26 -1.97317 0.468371 0
M  V30 14608 C 1451.6 -1.67954 -0.974941 0
M  V30 14609 O 1450.87 -0.971243 -1.68514 0
M  V30 14610 C 1451.15 -3.52918 0.715607 0
M  V30 14611 C 1451.01 -3.91888 2.20781 0
M  V30 14612 C 1452.33 -4.39747 0.17624 0
M  V30 14613 H 1449.44 -0.716733 0.171646 0
M  V30 14614 H 1452.09 -1.56269 1.08074 0
M  V30 14615 H 1450.24 -3.88013 0.194387 0
M  V30 14616 H 1451.91 -3.66938 2.7956 0
M  V30 14617 H 1450.15 -3.40813 2.68382 0
M  V30 14618 H 1450.82 -5.00346 2.33147 0
M  V30 14619 H 1453.3 -4.11424 0.622043 0
M  V30 14620 H 1452.17 -5.47592 0.378748 0
M  V30 14621 H 1452.44 -4.32393 -0.921358 0
M  V30 14622 N 1451.49 -0.619688 -1.44906 0
M  V30 14623 C 1452.91 -0.203309 -1.8559 0
M  V30 14624 C 1453.26 1.24265 -1.51831 0
M  V30 14625 O 1452.38 1.94392 -0.950819 0
M  V30 14626 C 1452.98 -0.362204 -3.36858 0
M  V30 14627 C 1451.54 -0.000423575 -3.764 0
M  V30 14628 C 1450.68 -0.680979 -2.68808 0
M  V30 14629 H 1453.63 -0.825595 -1.35535 0
M  V30 14630 H 1453.65 0.402149 -3.78369 0
M  V30 14631 H 1453.17 -1.41468 -3.61398 0
M  V30 14632 H 1451.27 1.05077 -3.57477 0
M  V30 14633 H 1451.38 -0.402508 -4.77406 0
M  V30 14634 H 1449.74 -0.117407 -2.54429 0
M  V30 14635 H 1450.53 -1.73583 -2.96182 0
M  V30 14636 N 1452.97 1.53444 -0.359552 0
M  V30 14637 C 1454.2 2.05286 0.232615 0
M  V30 14638 C 1454.61 1.23322 1.43486 0
M  V30 14639 O 1453.95 0.265369 1.81773 0
M  V30 14640 C 1454.02 3.52698 0.695995 0
M  V30 14641 C 1453.68 4.55344 -0.388751 0
M  V30 14642 C 1454.68 5.04978 -1.23667 0
M  V30 14643 C 1452.36 4.9931 -0.547267 0
M  V30 14644 C 1454.36 5.97174 -2.2285 0
M  V30 14645 C 1452.04 5.91313 -1.54247 0
M  V30 14646 C 1453.04 6.40135 -2.38153 0
M  V30 14647 O 1452.73 7.30325 -3.35976 0
M  V30 14648 H 1452.46 0.674445 0.0458187 0
M  V30 14649 H 1455.01 1.98853 -0.514472 0
M  V30 14650 H 1453.24 3.5665 1.49459 0
M  V30 14651 H 1454.93 3.8743 1.21049 0
M  V30 14652 H 1455.7 4.71763 -1.12537 0
M  V30 14653 H 1451.58 4.609 0.0960246 0
M  V30 14654 H 1455.12 6.35204 -2.88378 0
M  V30 14655 H 1451.02 6.23942 -1.65427 0
M  V30 14656 H 1451.79 7.48305 -3.31635 0
M  V30 14657 N 1454.45 0.0885642 1.57351 0
M  V30 14658 C 1455.73 -0.618587 1.85561 0
M  V30 14659 C 1456.11 -1.86753 0.984206 0
M  V30 14660 O 1455.46 -2.28434 0.0548839 0
M  V30 14661 C 1455.67 -0.940222 3.36096 0
M  V30 14662 C 1457.01 -1.30649 4.04 0
M  V30 14663 O 1458.04 -1.03144 3.4094 0
M  V30 14664 O 1456.9 -1.82135 5.15256 0
M  V30 14665 H 1453.99 -0.308881 0.767152 0
M  V30 14666 H 1456.54 0.120767 1.6927 0
M  V30 14667 H 1455.31 -0.0538991 3.91263 0
M  V30 14668 H 1454.93 -1.73577 3.5771 0
M  V30 14669 N 1455.93 -1.56509 -0.185096 0
M  V30 14670 C 1457.18 -1.804 -0.902158 0
M  V30 14671 C 1457.49 -0.663496 -1.84003 0
M  V30 14672 O 1458.7 -0.786963 -2.59844 0
M  V30 14673 C 1457.15 -3.19608 -1.65466 0
M  V30 14674 C 1456.76 -4.41487 -0.761109 0
M  V30 14675 C 1458.5 -3.52801 -2.36076 0
M  V30 14676 C 1456.41 -5.71717 -1.51305 0
M  V30 14677 H 1455.34 -0.67268 -0.340614 0
M  V30 14678 H 1457.99 -1.82842 -0.155273 0
M  V30 14679 H 1456.37 -3.11443 -2.44579 0
M  V30 14680 H 1457.55 -4.60799 -0.00791878 0
M  V30 14681 H 1455.86 -4.16072 -0.165344 0
M  V30 14682 H 1458.46 -4.47339 -2.92902 0
M  V30 14683 H 1458.8 -2.77021 -3.10749 0
M  V30 14684 H 1459.34 -3.62457 -1.63919 0
M  V30 14685 H 1456.08 -6.5049 -0.808907 0
M  V30 14686 H 1455.6 -5.56406 -2.23992 0
M  V30 14687 H 1457.27 -6.13188 -2.0642 0
M  V30 14688 N 1457.41 0.45317 -1.50944 0
M  V30 14689 C 1458.65 1.20568 -1.63068 0
M  V30 14690 C 1458.99 1.91229 -0.338375 0
M  V30 14691 O 1458.26 1.82916 0.661207 0
M  V30 14692 C 1458.54 2.23522 -2.8233 0
M  V30 14693 C 1458.4 1.57047 -4.21493 0
M  V30 14694 C 1459.72 3.24663 -2.97123 0
M  V30 14695 H 1456.83 0.436971 -0.593486 0
M  V30 14696 H 1459.48 0.497008 -1.83384 0
M  V30 14697 H 1457.63 2.83961 -2.65139 0
M  V30 14698 H 1459.3 1.00067 -4.50316 0
M  V30 14699 H 1457.54 0.873143 -4.24922 0
M  V30 14700 H 1458.21 2.31949 -5.00903 0
M  V30 14701 H 1460.69 2.74264 -3.12919 0
M  V30 14702 H 1459.56 3.9401 -3.82161 0
M  V30 14703 H 1459.83 3.89843 -2.08506 0
M  V30 14704 N 1458.88 1.40823 0.707568 0
M  V30 14705 C 1459.81 1.44485 1.83429 0
M  V30 14706 C 1460.8 0.304848 1.67346 0
M  V30 14707 O 1461.98 0.514605 1.87258 0
M  V30 14708 C 1459.11 1.31458 3.21459 0
M  V30 14709 C 1458.06 2.43145 3.52228 0
M  V30 14710 C 1457.39 2.15189 4.89487 0
M  V30 14711 C 1458.69 3.85489 3.52414 0
M  V30 14712 H 1460.38 2.38781 1.80622 0
M  V30 14713 H 1457.93 1.14931 0.867572 0
M  V30 14714 H 1459.88 1.32635 3.99983 0
M  V30 14715 H 1458.61 0.336422 3.24863 0
M  V30 14716 H 1457.27 2.41231 2.76049 0
M  V30 14717 H 1456.91 1.15745 4.89502 0
M  V30 14718 H 1456.61 2.90022 5.11039 0
M  V30 14719 H 1458.14 2.18062 5.70334 0
M  V30 14720 H 1459.55 3.89183 4.20963 0
M  V30 14721 H 1457.95 4.59906 3.85495 0
M  V30 14722 H 1459.02 4.14499 2.51632 0
M  V30 14723 N 1460.36 -0.94061 1.26453 0
M  V30 14724 C 1461.27 -2.07298 1.09839 0
M  V30 14725 C 1462.29 -1.73971 0.0317477 0
M  V30 14726 O 1463.46 -2.00017 0.235594 0
M  V30 14727 C 1460.53 -3.38847 0.733736 0
M  V30 14728 C 1459.59 -3.85954 1.87985 0
M  V30 14729 C 1458.82 -5.11224 1.5325 0
M  V30 14730 O 1459.05 -5.68743 0.434491 0
M  V30 14731 O 1457.98 -5.53386 2.36743 0
M  V30 14732 H 1461.81 -2.24222 2.04837 0
M  V30 14733 H 1459.39 -1.05763 1.0552 0
M  V30 14734 H 1461.27 -4.17885 0.543131 0
M  V30 14735 H 1459.95 -3.2316 -0.186843 0
M  V30 14736 H 1458.86 -3.07858 2.12542 0
M  V30 14737 H 1460.19 -4.06162 2.78017 0
M  V30 14738 N 1461.84 -1.08266 -1.14527 0
M  V30 14739 C 1462.77 -0.655392 -2.18586 0
M  V30 14740 C 1463.75 0.332109 -1.59172 0
M  V30 14741 O 1464.94 0.236315 -1.87013 0
M  V30 14742 C 1462.06 0.0362295 -3.38681 0
M  V30 14743 C 1461.11 -0.91119 -4.16653 0
M  V30 14744 S 1461.94 -2.4171 -4.77846 0
M  V30 14745 C 1463.1 -1.73755 -6.01299 0
M  V30 14746 H 1463.33 -1.53694 -2.54491 0
M  V30 14747 H 1460.86 -0.897499 -1.25636 0
M  V30 14748 H 1462.82 0.428996 -4.08252 0
M  V30 14749 H 1461.48 0.894253 -3.01101 0
M  V30 14750 H 1460.68 -0.374143 -5.02609 0
M  V30 14751 H 1460.28 -1.24478 -3.52677 0
M  V30 14752 H 1462.57 -1.05465 -6.69241 0
M  V30 14753 H 1463.51 -2.5758 -6.59589 0
M  V30 14754 H 1463.92 -1.21153 -5.51346 0
M  V30 14755 N 1463.32 1.31536 -0.86811 0
M  V30 14756 C 1464.6 1.9149 -0.398866 0
M  V30 14757 C 1464.98 1.79008 1.1189 0
M  V30 14758 O 1464.32 1.19659 1.94664 0
M  V30 14759 C 1464.53 3.37771 -0.878173 0
M  V30 14760 C 1465.88 4.14882 -0.903216 0
M  V30 14761 O 1466.91 3.46545 -0.823703 0
M  V30 14762 O 1465.77 5.36936 -1.01794 0
M  V30 14763 H 1462.86 0.818398 -0.118971 0
M  V30 14764 H 1465.41 1.40216 -0.955899 0
M  V30 14765 H 1464.18 3.40861 -1.9217 0
M  V30 14766 H 1463.8 3.96472 -0.299346 0
M  V30 14767 N 1464.8 0.627364 1.44575 0
M  V30 14768 C 1465.71 -0.0811184 2.3446 0
M  V30 14769 C 1466.72 -0.839668 1.52399 0
M  V30 14770 O 1467.9 -0.792784 1.8514 0
M  V30 14771 C 1464.96 -1.05296 3.30323 0
M  V30 14772 C 1464.03 -0.294201 4.28291 0
M  V30 14773 C 1463.26 -1.21975 5.19575 0
M  V30 14774 O 1463.48 -2.45834 5.14706 0
M  V30 14775 O 1462.42 -0.70611 5.97744 0
M  V30 14776 H 1466.24 0.658067 2.96485 0
M  V30 14777 H 1463.83 0.387565 1.44285 0
M  V30 14778 H 1465.71 -1.61218 3.89341 0
M  V30 14779 H 1464.38 -1.77283 2.70837 0
M  V30 14780 H 1463.29 0.307969 3.7283 0
M  V30 14781 H 1464.62 0.385567 4.90687 0
M  V30 14782 N 1466.28 -1.53251 0.367684 0
M  V30 14783 C 1467.52 -2.00469 -0.222481 0
M  V30 14784 C 1467.84 -1.259 -1.49695 0
M  V30 14785 O 1469.04 -1.63717 -2.16585 0
M  V30 14786 C 1467.5 -3.57113 -0.447018 0
M  V30 14787 C 1467.11 -4.40562 0.812946 0
M  V30 14788 C 1468.85 -4.12681 -0.994725 0
M  V30 14789 C 1466.76 -5.88763 0.557877 0
M  V30 14790 H 1465.69 -0.748974 -0.0869144 0
M  V30 14791 H 1468.34 -1.76927 0.48675 0
M  V30 14792 H 1466.72 -3.76818 -1.21756 0
M  V30 14793 H 1467.9 -4.3263 1.58644 0
M  V30 14794 H 1466.21 -3.96108 1.28403 0
M  V30 14795 H 1468.81 -5.2104 -1.20091 0
M  V30 14796 H 1469.15 -3.67408 -1.95748 0
M  V30 14797 H 1469.68 -3.96783 -0.284295 0
M  V30 14798 H 1466.42 -6.38317 1.49102 0
M  V30 14799 H 1465.94 -5.99539 -0.177082 0
M  V30 14800 H 1467.62 -6.46738 0.18419 0
M  V30 14801 N 1467.75 -0.0969077 -1.57302 0
M  V30 14802 C 1468.7 0.878876 -2.15357 0
M  V30 14803 C 1469.7 1.29091 -1.0969 0
M  V30 14804 O 1470.9 1.26523 -1.28031 0
M  V30 14805 H 1467.28 0.301458 -0.688932 0
M  V30 14806 H 1469.25 0.364542 -2.96165 0
M  V30 14807 C 1468 2.12761 -2.75006 0
M  V30 14808 H 1467.32 1.81944 -3.56 0
M  V30 14809 H 1468.76 2.79092 -3.19193 0
M  V30 14810 C 1467.22 2.90283 -1.70989 0
M  V30 14811 O 1467.75 3.84889 -1.14992 0
M  V30 14812 N 1465.95 2.53857 -1.41439 0
M  V30 14813 H 1465.5 1.76993 -1.87166 0
M  V30 14814 H 1465.46 3.06025 -0.720816 0
M  V30 14815 N 1469.23 1.56605 0.176793 0
M  V30 14816 C 1470.18 1.92393 1.22347 0
M  V30 14817 C 1471.17 0.791622 1.40079 0
M  V30 14818 O 1472.36 1.05474 1.42142 0
M  V30 14819 C 1469.49 2.28266 2.56417 0
M  V30 14820 C 1468.57 3.47997 2.42402 0
M  V30 14821 N 1468.96 4.65396 1.98092 0
M  V30 14822 C 1467.26 3.52496 2.73244 0
M  V30 14823 C 1467.96 5.47539 1.96409 0
M  V30 14824 N 1466.94 4.88434 2.38606 0
M  V30 14825 H 1470.74 2.8065 0.872507 0
M  V30 14826 H 1468.25 1.57768 0.385107 0
M  V30 14827 H 1470.25 2.52097 3.32043 0
M  V30 14828 H 1468.91 1.41345 2.92321 0
M  V30 14829 H 1469.92 4.89717 1.68515 0
M  V30 14830 H 1466.6 2.7604 3.13223 0
M  V30 14831 H 1467.99 6.51604 1.63896 0
M  V30 14832 N 1470.71 -0.445159 1.51182 0
M  V30 14833 C 1471.99 -1.20598 1.53998 0
M  V30 14834 C 1472.37 -2.08962 0.29967 0
M  V30 14835 O 1471.71 -2.17003 -0.715666 0
M  V30 14836 C 1471.92 -2.01461 2.84982 0
M  V30 14837 C 1473.27 -2.5877 3.36635 0
M  V30 14838 O 1474.3 -2.11679 2.86479 0
M  V30 14839 O 1473.16 -3.44637 4.24132 0
M  V30 14840 H 1470.25 -0.548635 0.618812 0
M  V30 14841 H 1472.8 -0.454865 1.6349 0
M  V30 14842 H 1471.57 -1.36511 3.66716 0
M  V30 14843 H 1471.19 -2.83654 2.78615 0
M  V30 14844 N 1472.19 -1.41197 -0.700089 0
M  V30 14845 C 1473.43 -1.40311 -1.46011 0
M  V30 14846 C 1473.76 -0.0106853 -1.94497 0
M  V30 14847 O 1473.02 0.976648 -1.69588 0
M  V30 14848 C 1473.32 -2.35259 -2.6905 0
M  V30 14849 C 1472.98 -3.82194 -2.39245 0
M  V30 14850 C 1471.64 -4.22223 -2.30827 0
M  V30 14851 C 1474 -4.74983 -2.1457 0
M  V30 14852 C 1471.32 -5.53055 -1.95824 0
M  V30 14853 C 1473.68 -6.0613 -1.81077 0
M  V30 14854 C 1472.34 -6.45185 -1.71151 0
M  V30 14855 H 1471.61 -0.513434 -0.534291 0
M  V30 14856 H 1474.26 -1.73963 -0.800574 0
M  V30 14857 H 1472.56 -1.94845 -3.39915 0
M  V30 14858 H 1474.26 -2.31849 -3.2718 0
M  V30 14859 H 1470.85 -3.50488 -2.4669 0
M  V30 14860 H 1475.03 -4.44864 -2.20021 0
M  V30 14861 H 1470.29 -5.822 -1.86689 0
M  V30 14862 H 1474.46 -6.77533 -1.61002 0
M  V30 14863 H 1472.09 -7.46476 -1.43796 0
M  V30 14864 N 1473.67 0.933891 -1.2695 0
M  V30 14865 C 1475.08 1.49578 -1.11728 0
M  V30 14866 C 1475.43 1.93895 0.299889 0
M  V30 14867 O 1474.55 1.806 1.19216 0
M  V30 14868 C 1475.15 2.71841 -2.02208 0
M  V30 14869 C 1473.71 3.24274 -1.9111 0
M  V30 14870 C 1472.85 1.97029 -1.95128 0
M  V30 14871 H 1475.8 0.748628 -1.39933 0
M  V30 14872 H 1475.83 3.46407 -1.57425 0
M  V30 14873 H 1475.34 2.39556 -3.05343 0
M  V30 14874 H 1473.44 3.61333 -0.909367 0
M  V30 14875 H 1473.55 3.90887 -2.77027 0
M  V30 14876 H 1471.92 2.13249 -1.39273 0
M  V30 14877 H 1472.7 1.67066 -2.99907 0
M  V30 14878 N 1475.14 1.08871 1.13951 0
M  V30 14879 C 1476.42 0.73388 1.81311 0
M  V30 14880 C 1476.8 -0.781824 1.96089 0
M  V30 14881 O 1476.15 -1.70211 1.52448 0
M  V30 14882 C 1476.36 1.46631 3.16702 0
M  V30 14883 C 1477.71 1.62843 3.92132 0
M  V30 14884 O 1478.73 1.42836 3.26307 0
M  V30 14885 O 1477.59 1.95893 5.10185 0
M  V30 14886 H 1474.68 0.262976 0.784074 0
M  V30 14887 H 1477.23 1.19057 1.20927 0
M  V30 14888 H 1476 2.49863 3.01138 0
M  V30 14889 H 1475.62 1.00141 3.84782 0
M  V30 14890 N 1476.62 -1.31073 0.875073 0
M  V30 14891 C 1477.85 -2.00688 0.503179 0
M  V30 14892 C 1478.26 -1.65657 -0.905714 0
M  V30 14893 O 1477.62 -0.888468 -1.59413 0
M  V30 14894 C 1477.67 -3.55486 0.65666 0
M  V30 14895 O 1477.39 -3.89265 2.01007 0
M  V30 14896 C 1478.89 -4.42374 0.28645 0
M  V30 14897 H 1476.11 -0.641885 0.195512 0
M  V30 14898 H 1478.66 -1.67188 1.17765 0
M  V30 14899 H 1476.81 -3.87389 0.0296852 0
M  V30 14900 H 1477.23 -4.83978 2.02153 0
M  V30 14901 H 1478.7 -5.50205 0.444776 0
M  V30 14902 H 1479.18 -4.32312 -0.774789 0
M  V30 14903 H 1479.78 -4.15898 0.889336 0
M  V30 14904 N 1478.1 -0.635022 -1.4424 0
M  V30 14905 C 1479.38 -0.0718064 -1.95468 0
M  V30 14906 C 1479.76 1.40348 -1.57689 0
M  V30 14907 O 1479.11 2.11986 -0.852888 0
M  V30 14908 C 1479.32 -0.298793 -3.47719 0
M  V30 14909 C 1480.66 -0.194056 -4.24156 0
M  V30 14910 O 1481.69 -0.230368 -3.55454 0
M  V30 14911 O 1480.55 -0.102294 -5.46404 0
M  V30 14912 H 1477.64 0.0200784 -0.826756 0
M  V30 14913 H 1480.19 -0.706996 -1.54271 0
M  V30 14914 H 1478.96 -1.32233 -3.6828 0
M  V30 14915 H 1478.58 0.370347 -3.95871 0
M  V30 14916 N 1479.58 1.53054 -0.375806 0
M  V30 14917 C 1480.51 2.28973 0.45754 0
M  V30 14918 C 1481.49 1.31812 1.07516 0
M  V30 14919 O 1482.67 1.60693 1.09048 0
M  V30 14920 C 1479.8 3.08657 1.59212 0
M  V30 14921 C 1478.76 4.1359 1.10123 0
M  V30 14922 C 1478.08 4.81417 2.32684 0
M  V30 14923 C 1479.38 5.21994 0.17872 0
M  V30 14924 H 1481.08 2.98883 -0.175872 0
M  V30 14925 H 1478.62 1.43743 -0.0860253 0
M  V30 14926 H 1480.58 3.6052 2.18182 0
M  V30 14927 H 1479.3 2.36456 2.25291 0
M  V30 14928 H 1477.96 3.62688 0.534151 0
M  V30 14929 H 1477.61 4.05778 2.97243 0
M  V30 14930 H 1477.31 5.52332 2.00506 0
M  V30 14931 H 1478.83 5.36079 2.92322 0
M  V30 14932 H 1480.25 5.69298 0.676204 0
M  V30 14933 H 1478.64 6.00077 -0.0526605 0
M  V30 14934 H 1479.71 4.78646 -0.776246 0
M  V30 14935 N 1481.06 0.105248 1.57248 0
M  V30 14936 C 1482.3 -0.556878 1.95004 0
M  V30 14937 C 1482.64 -1.672 0.987818 0
M  V30 14938 O 1481.91 -1.94487 0.022616 0
M  V30 14939 C 1482.19 -1.10252 3.42807 0
M  V30 14940 C 1482.05 0.00823908 4.49799 0
M  V30 14941 C 1483.37 -1.99774 3.92146 0
M  V30 14942 H 1480.48 -0.200959 0.709073 0
M  V30 14943 H 1483.13 0.178019 1.89164 0
M  V30 14944 H 1481.28 -1.7288 3.47915 0
M  V30 14945 H 1482.95 0.642944 4.56797 0
M  V30 14946 H 1481.19 0.673265 4.28544 0
M  V30 14947 H 1481.86 -0.414538 5.50441 0
M  V30 14948 H 1484.34 -1.47036 3.89255 0
M  V30 14949 H 1483.21 -2.34874 4.9611 0
M  V30 14950 H 1483.48 -2.91902 3.32033 0
M  V30 14951 N 1482.53 -1.56697 -0.168486 0
M  V30 14952 C 1483.46 -1.99659 -1.21073 0
M  V30 14953 C 1484.45 -0.872625 -1.46011 0
M  V30 14954 O 1485.63 -1.13891 -1.57297 0
M  V30 14955 C 1482.76 -2.35889 -2.54899 0
M  V30 14956 C 1481.71 -3.51272 -2.44524 0
M  V30 14957 C 1481.04 -3.73253 -3.82866 0
M  V30 14958 C 1482.34 -4.84631 -1.94756 0
M  V30 14959 H 1484.03 -2.86974 -0.853593 0
M  V30 14960 H 1481.58 -1.38065 -0.409165 0
M  V30 14961 H 1483.53 -2.64542 -3.28017 0
M  V30 14962 H 1482.26 -1.45486 -2.92406 0
M  V30 14963 H 1480.92 -3.22751 -1.7386 0
M  V30 14964 H 1480.56 -2.80136 -4.17772 0
M  V30 14965 H 1480.26 -4.5089 -3.76792 0
M  V30 14966 H 1481.79 -4.04309 -4.57566 0
M  V30 14967 H 1483.2 -5.12142 -2.5765 0
M  V30 14968 H 1481.6 -5.65925 -1.99623 0
M  V30 14969 H 1482.67 -4.76436 -0.902021 0
M  V30 14970 N 1484.01 0.437135 -1.51416 0
M  V30 14971 C 1485.26 1.18831 -1.64338 0
M  V30 14972 C 1485.59 1.9086 -0.358638 0
M  V30 14973 O 1484.87 1.83607 0.641769 0
M  V30 14974 C 1485.15 2.20515 -2.84685 0
M  V30 14975 C 1485 1.52568 -4.23135 0
M  V30 14976 C 1486.32 3.21494 -3.00549 0
M  V30 14977 H 1483.44 0.430652 -0.598087 0
M  V30 14978 H 1486.08 0.47753 -1.83901 0
M  V30 14979 H 1484.23 2.81132 -2.68136 0
M  V30 14980 H 1485.9 0.952851 -4.51352 0
M  V30 14981 H 1484.15 0.828025 -4.25824 0
M  V30 14982 H 1484.82 2.26623 -5.03335 0
M  V30 14983 H 1487.29 2.7093 -3.1581 0
M  V30 14984 H 1486.17 3.89934 -3.86319 0
M  V30 14985 H 1486.43 3.8761 -2.12629 0
M  V30 14986 N 1485.49 1.41566 0.692592 0
M  V30 14987 C 1486.74 1.40381 1.44831 0
M  V30 14988 C 1487.05 0.0172068 1.95592 0
M  V30 14989 O 1488.26 -0.11726 2.71247 0
M  V30 14990 C 1486.71 2.46844 2.61908 0
M  V30 14991 C 1486.32 3.91426 2.17921 0
M  V30 14992 C 1488.07 2.548 3.39525 0
M  V30 14993 C 1485.97 4.89436 3.31974 0
M  V30 14994 H 1484.9 0.522062 0.544028 0
M  V30 14995 H 1487.55 1.67402 0.751589 0
M  V30 14996 H 1485.94 2.12959 3.33863 0
M  V30 14997 H 1487.11 4.34575 1.53236 0
M  V30 14998 H 1485.43 3.87158 1.5329 0
M  V30 14999 H 1488.02 3.25207 4.24434 0
M  V30 15000 H 1488.37 1.58579 3.84913 0
M  V30 15001 H 1488.9 2.87791 2.74629 0
M  V30 15002 H 1485.64 5.87071 2.91595 0
M  V30 15003 H 1485.16 4.50933 3.95499 0
M  V30 15004 H 1486.84 5.10331 3.97708 0
M  V30 15005 N 1486.97 -0.927146 1.27443 0
M  V30 15006 C 1488.22 -1.67159 1.13589 0
M  V30 15007 C 1488.54 -1.92379 -0.31865 0
M  V30 15008 O 1487.81 -1.53045 -1.22287 0
M  V30 15009 H 1486.39 -0.619524 0.417371 0
M  V30 15010 H 1489.05 -1.11323 1.59979 0
M  V30 15011 H 1488.15 -2.63954 1.66537 0
M  V30 15012 N 1488.45 -1.09474 -1.13372 0
M  V30 15013 C 1489.41 -0.738173 -2.16988 0
M  V30 15014 C 1490.41 0.232488 -1.5911 0
M  V30 15015 O 1491.6 0.0106093 -1.74197 0
M  V30 15016 C 1488.73 -0.091724 -3.40777 0
M  V30 15017 H 1489.92 -1.65582 -2.50045 0
M  V30 15018 H 1487.48 -0.893994 -1.28209 0
M  V30 15019 H 1488.21 0.837129 -3.13309 0
M  V30 15020 H 1488 -0.790161 -3.84056 0
M  V30 15021 H 1489.49 0.142334 -4.17357 0
M  V30 15022 N 1489.92 1.30607 -0.882012 0
M  V30 15023 C 1490.87 2.3016 -0.336011 0
M  V30 15024 C 1491.87 1.60037 0.555389 0
M  V30 15025 O 1493.07 1.74536 0.440152 0
M  V30 15026 H 1489.45 0.746595 -0.0899982 0
M  V30 15027 H 1491.42 2.73673 -1.18936 0
M  V30 15028 C 1490.17 3.44942 0.437061 0
M  V30 15029 H 1489.49 3.99081 -0.2396 0
M  V30 15030 H 1490.93 4.16684 0.784242 0
M  V30 15031 C 1489.39 2.94678 1.633 0
M  V30 15032 O 1489.92 2.94457 2.73236 0
M  V30 15033 N 1488.13 2.50727 1.46917 0
M  V30 15034 H 1487.67 2.51105 0.574807 0
M  V30 15035 H 1487.63 2.17453 2.27072 0
M  V30 15036 N 1491.4 0.642663 1.43901 0
M  V30 15037 C 1492.68 0.0821715 1.95427 0
M  V30 15038 C 1493.06 -1.3951 1.58431 0
M  V30 15039 O 1492.41 -2.11531 0.864118 0
M  V30 15040 C 1492.62 0.317229 3.47555 0
M  V30 15041 C 1493.97 0.216547 4.24047 0
M  V30 15042 O 1494.99 0.249216 3.55327 0
M  V30 15043 O 1493.85 0.131269 5.46342 0
M  V30 15044 H 1490.94 -0.0156936 0.826851 0
M  V30 15045 H 1493.49 0.715168 1.53894 0
M  V30 15046 H 1492.26 1.34184 3.67574 0
M  V30 15047 H 1491.88 -0.349348 3.96062 0
M  V30 15048 N 1492.88 -1.52852 0.383918 0
M  V30 15049 C 1494.11 -2.05929 -0.200216 0
M  V30 15050 C 1494.52 -1.25606 -1.40956 0
M  V30 15051 O 1493.88 -0.301336 -1.79995 0
M  V30 15052 C 1493.93 -3.56887 -0.575655 0
M  V30 15053 O 1493.65 -4.34168 0.58564 0
M  V30 15054 C 1495.15 -4.2629 -1.21623 0
M  V30 15055 H 1492.37 -0.670261 -0.0314727 0
M  V30 15056 H 1494.92 -1.97032 0.547591 0
M  V30 15057 H 1493.07 -3.65875 -1.27336 0
M  V30 15058 H 1493.49 -5.23761 0.278267 0
M  V30 15059 H 1494.96 -5.33174 -1.42933 0
M  V30 15060 H 1495.44 -3.81163 -2.182 0
M  V30 15061 H 1496.04 -4.21605 -0.559435 0
M  V30 15062 N 1494.36 -0.113586 -1.5719 0
M  V30 15063 C 1495.61 0.546529 -1.95297 0
M  V30 15064 C 1495.94 1.66674 -0.996671 0
M  V30 15065 O 1495.21 1.94472 -0.0329298 0
M  V30 15066 C 1495.5 1.08433 -3.43387 0
M  V30 15067 C 1495.35 -0.0320929 -4.49789 0
M  V30 15068 C 1496.67 1.97691 -3.932 0
M  V30 15069 H 1493.79 0.197195 -0.710129 0
M  V30 15070 H 1496.43 -0.188048 -1.89067 0
M  V30 15071 H 1494.58 1.71033 -3.48827 0
M  V30 15072 H 1496.25 -0.66716 -4.5645 0
M  V30 15073 H 1494.49 -0.695983 -4.2818 0
M  V30 15074 H 1495.17 0.385341 -5.50653 0
M  V30 15075 H 1497.64 1.4497 -3.90029 0
M  V30 15076 H 1496.52 2.3224 -4.97349 0
M  V30 15077 H 1496.78 2.90137 -3.33576 0
M  V30 15078 N 1495.84 1.56784 0.160173 0
M  V30 15079 C 1496.79 1.98199 1.21737 0
M  V30 15080 C 1497.78 0.872381 1.4521 0
M  V30 15081 O 1498.99 1.05753 1.45658 0
M  V30 15082 H 1495.36 0.630742 0.409474 0
M  V30 15083 H 1497.33 2.86295 0.841289 0
M  V30 15084 C 1496.08 2.36748 2.54648 0
M  V30 15085 H 1495.4 3.21676 2.37413 0
M  V30 15086 H 1496.84 2.69561 3.27281 0
M  V30 15087 C 1495.3 1.2151 3.14224 0
M  V30 15088 O 1495.83 0.508739 3.98465 0
M  V30 15089 N 1494.04 0.982766 2.73478 0
M  V30 15090 H 1493.59 1.55893 2.05073 0
M  V30 15091 H 1493.54 0.213589 3.13674 0
M  V30 15092 N 1497.32 -0.429099 1.51646 0
M  V30 15093 C 1498.54 -1.20465 1.68828 0
M  V30 15094 C 1498.97 -1.84044 0.388514 0
M  V30 15095 O 1498.32 -1.69165 -0.652152 0
M  V30 15096 C 1498.37 -2.25831 2.81128 0
M  V30 15097 O 1497.48 -3.31511 2.45305 0
M  V30 15098 H 1496.82 -0.352568 0.562665 0
M  V30 15099 H 1499.35 -0.505698 1.98252 0
M  V30 15100 H 1499.36 -2.70484 3.05455 0
M  V30 15101 H 1498.03 -1.78934 3.7544 0
M  V30 15102 H 1496.61 -2.92277 2.31579 0
M  V30 15103 N 1498.79 -1.41931 -0.685074 0
M  V30 15104 C 1499.76 -1.44315 -1.78061 0
M  V30 15105 C 1500.76 -0.332215 -1.57331 0
M  V30 15106 O 1501.95 -0.59258 -1.63811 0
M  V30 15107 C 1499.08 -1.26479 -3.16569 0
M  V30 15108 H 1500.27 -2.4185 -1.77337 0
M  V30 15109 H 1497.82 -1.28228 -0.893721 0
M  V30 15110 H 1498.56 -0.298259 -3.22926 0
M  V30 15111 H 1498.34 -2.06981 -3.33018 0
M  V30 15112 H 1499.83 -1.31006 -3.96519 0
M  V30 15113 N 1500.27 0.920374 -1.27933 0
M  V30 15114 C 1501.23 2.0035 -1.11321 0
M  V30 15115 C 1502.23 1.60706 -0.0549132 0
M  V30 15116 O 1503.42 1.71595 -0.300134 0
M  V30 15117 C 1500.56 3.33681 -0.69782 0
M  V30 15118 H 1501.75 2.16518 -2.07509 0
M  V30 15119 H 1499.3 1.10216 -1.10825 0
M  V30 15120 H 1500.04 3.23214 0.265122 0
M  V30 15121 H 1499.82 3.63815 -1.46223 0
M  V30 15122 H 1501.31 4.13208 -0.604048 0
M  V30 15123 N 1501.75 1.10074 1.1279 0
M  V30 15124 C 1502.68 0.704023 2.1812 0
M  V30 15125 C 1503.69 -0.25742 1.60752 0
M  V30 15126 O 1504.88 -0.0424559 1.7845 0
M  V30 15127 C 1501.98 0.0176666 3.38895 0
M  V30 15128 C 1501.16 1.00234 4.2576 0
M  V30 15129 C 1500.22 0.348158 5.25047 0
M  V30 15130 O 1499.24 0.997821 5.60386 0
M  V30 15131 N 1500.44 -0.894955 5.7356 0
M  V30 15132 H 1503.21 1.61024 2.52767 0
M  V30 15133 H 1500.77 0.989068 1.28176 0
M  V30 15134 H 1502.76 -0.431346 4.02395 0
M  V30 15135 H 1501.33 -0.7909 3.02429 0
M  V30 15136 H 1500.55 1.62972 3.58934 0
M  V30 15137 H 1501.84 1.669 4.80647 0
M  V30 15138 H 1501.24 -1.4422 5.47007 0
M  V30 15139 H 1499.79 -1.28718 6.38964 0
M  V30 15140 N 1503.23 -1.30138 0.888926 0
M  V30 15141 C 1504.14 -2.31778 0.3628 0
M  V30 15142 C 1505.15 -1.65507 -0.53698 0
M  V30 15143 O 1506.33 -1.96775 -0.429152 0
M  V30 15144 C 1503.39 -3.44259 -0.410673 0
M  V30 15145 C 1502.46 -4.26147 0.519334 0
M  V30 15146 C 1501.69 -5.33257 -0.21732 0
M  V30 15147 O 1501.91 -5.5185 -1.44284 0
M  V30 15148 O 1500.85 -6.00329 0.43461 0
M  V30 15149 H 1504.67 -2.78739 1.20575 0
M  V30 15150 H 1502.26 -1.34379 0.65289 0
M  V30 15151 H 1504.14 -4.1277 -0.848467 0
M  V30 15152 H 1502.81 -2.99426 -1.22986 0
M  V30 15153 H 1501.72 -3.60319 1.00602 0
M  V30 15154 H 1503.05 -4.74595 1.30464 0
M  V30 15155 N 1504.71 -0.650285 -1.43559 0
M  V30 15156 C 1505.98 -0.0925343 -1.95381 0
M  V30 15157 C 1506.36 1.38668 -1.59168 0
M  V30 15158 O 1505.71 2.11069 -0.875324 0
M  V30 15159 C 1505.92 -0.335657 -3.47382 0
M  V30 15160 C 1507.27 -0.239032 -4.23927 0
M  V30 15161 O 1508.29 -0.268056 -3.5519 0
M  V30 15162 O 1507.15 -0.160241 -5.46265 0
M  V30 15163 H 1504.25 0.0113084 -0.826923 0
M  V30 15164 H 1506.79 -0.723319 -1.53513 0
M  V30 15165 H 1505.56 -1.36132 -3.66857 0
M  V30 15166 H 1505.19 0.328339 -3.96242 0
M  V30 15167 N 1506.18 1.52647 -0.392018 0
M  V30 15168 C 1507.59 1.86522 0.0814091 0
M  V30 15169 C 1507.95 1.31158 1.45918 0
M  V30 15170 O 1507.07 0.644007 2.06595 0
M  V30 15171 C 1507.67 3.38448 0.1545 0
M  V30 15172 C 1506.22 3.72025 0.572227 0
M  V30 15173 C 1505.37 2.7604 -0.264093 0
M  V30 15174 H 1508.32 1.46517 -0.609785 0
M  V30 15175 H 1508.34 3.67846 0.973109 0
M  V30 15176 H 1507.86 3.78713 -0.848396 0
M  V30 15177 H 1505.96 3.37329 1.58239 0
M  V30 15178 H 1506.07 4.77973 0.328491 0
M  V30 15179 H 1504.43 2.53254 0.271042 0
M  V30 15180 H 1505.22 3.19143 -1.26502 0
M  V30 15181 N 1507.66 0.121921 1.57128 0
M  V30 15182 C 1508.61 -0.844503 2.16728 0
M  V30 15183 C 1509.6 -1.2733 1.1173 0
M  V30 15184 O 1510.81 -1.2447 1.30028 0
M  V30 15185 H 1507.19 -0.290459 0.693641 0
M  V30 15186 H 1509.16 -0.317379 2.96707 0
M  V30 15187 C 1507.91 -2.08359 2.78356 0
M  V30 15188 H 1507.23 -1.76258 3.5885 0
M  V30 15189 H 1508.67 -2.73978 3.23592 0
M  V30 15190 C 1507.13 -2.87526 1.75586 0
M  V30 15191 O 1507.66 -3.83011 1.21101 0
M  V30 15192 N 1505.86 -2.51575 1.4546 0
M  V30 15193 H 1505.41 -1.73993 1.89958 0
M  V30 15194 H 1505.37 -3.0484 0.769411 0
M  V30 15195 N 1509.14 -1.56867 -0.151857 0
M  V30 15196 C 1510.37 -1.87601 -0.884347 0
M  V30 15197 C 1510.79 -0.710419 -1.74168 0
M  V30 15198 O 1510.15 0.340103 -1.78081 0
M  V30 15199 C 1510.2 -3.16887 -1.72091 0
M  V30 15200 O 1509.3 -3.00479 -2.82464 0
M  V30 15201 H 1508.64 -0.616509 -0.246603 0
M  V30 15202 H 1511.17 -2.04092 -0.144135 0
M  V30 15203 H 1511.18 -3.48785 -2.11691 0
M  V30 15204 H 1509.86 -4.01327 -1.09131 0
M  V30 15205 H 1508.43 -2.79978 -2.46306 0
M  V30 15206 N 1510.62 0.421051 -1.51871 0
M  V30 15207 C 1511.87 1.16611 -1.64574 0
M  V30 15208 C 1512.18 1.91955 -0.375835 0
M  V30 15209 O 1513.39 2.68792 -0.382481 0
M  V30 15210 C 1511.84 2.12164 -2.90714 0
M  V30 15211 C 1511.45 1.42392 -4.24769 0
M  V30 15212 C 1513.19 2.87002 -3.12778 0
M  V30 15213 C 1511.1 2.36523 -5.42043 0
M  V30 15214 H 1510.03 0.438989 -0.613029 0
M  V30 15215 H 1512.68 0.431636 -1.78351 0
M  V30 15216 H 1511.06 2.89114 -2.70608 0
M  V30 15217 H 1512.24 0.708875 -4.55315 0
M  V30 15218 H 1510.55 0.796421 -4.08713 0
M  V30 15219 H 1513.15 3.5755 -3.9757 0
M  V30 15220 H 1513.49 3.49277 -2.2652 0
M  V30 15221 H 1514.03 2.17154 -3.333 0
M  V30 15222 H 1510.77 1.78913 -6.30611 0
M  V30 15223 H 1510.29 3.06034 -5.15852 0
M  V30 15224 H 1511.96 2.97306 -5.74646 0
M  V30 15225 N 1512.1 1.42293 0.677538 0
M  V30 15226 C 1513.35 1.41909 1.43334 0
M  V30 15227 C 1513.66 0.037951 1.95563 0
M  V30 15228 O 1514.86 -0.0884836 2.71356 0
M  V30 15229 C 1513.32 2.49608 2.59275 0
M  V30 15230 C 1512.93 3.93716 2.13757 0
M  V30 15231 C 1514.67 2.58387 3.36803 0
M  V30 15232 C 1512.58 4.92929 3.26764 0
M  V30 15233 H 1511.51 0.527803 0.538461 0
M  V30 15234 H 1514.16 1.6819 0.733791 0
M  V30 15235 H 1512.54 2.16488 3.31585 0
M  V30 15236 H 1513.72 4.36176 1.48618 0
M  V30 15237 H 1512.03 3.88762 1.49175 0
M  V30 15238 H 1514.63 3.29691 4.20961 0
M  V30 15239 H 1514.97 1.62653 3.8321 0
M  V30 15240 H 1515.5 2.90688 2.71561 0
M  V30 15241 H 1512.24 5.90131 2.85352 0
M  V30 15242 H 1511.76 4.55103 3.90694 0
M  V30 15243 H 1513.44 5.1452 3.92273 0
M  V30 15244 N 1513.57 -0.913576 1.28419 0
M  V30 15245 C 1514.54 -1.99757 1.12382 0
M  V30 15246 C 1515.54 -1.60675 0.063435 0
M  V30 15247 O 1516.73 -1.71433 0.30923 0
M  V30 15248 C 1513.86 -3.33307 0.715506 0
M  V30 15249 H 1515.05 -2.15414 2.08655 0
M  V30 15250 H 1512.61 -1.09626 1.11408 0
M  V30 15251 H 1513.34 -3.23351 -0.247977 0
M  V30 15252 H 1513.13 -3.63034 1.4815 0
M  V30 15253 H 1514.62 -4.12882 0.625953 0
M  V30 15254 N 1515.05 -1.1067 -1.12204 0
M  V30 15255 C 1516.3 -0.84895 -1.83405 0
M  V30 15256 C 1516.62 0.62724 -1.84637 0
M  V30 15257 O 1515.89 1.45546 -1.31123 0
M  V30 15258 H 1514.47 -0.311074 -0.679148 0
M  V30 15259 H 1517.13 -1.39747 -1.35856 0
M  V30 15260 H 1516.23 -1.21398 -2.87522 0
M  V30 15261 N 1516.53 1.29665 -0.895815 0
M  V30 15262 C 1517.46 2.26013 -0.315211 0
M  V30 15263 C 1518.44 1.52267 0.570404 0
M  V30 15264 O 1519.63 1.81241 0.518081 0
M  V30 15265 C 1516.75 3.34187 0.551068 0
M  V30 15266 C 1515.8 4.25665 -0.266698 0
M  V30 15267 S 1516.63 5.09056 -1.66198 0
M  V30 15268 C 1517.79 6.20734 -0.80252 0
M  V30 15269 H 1518.02 2.74911 -1.13187 0
M  V30 15270 H 1515.55 1.37827 -0.695913 0
M  V30 15271 H 1517.51 3.96973 1.04511 0
M  V30 15272 H 1516.17 2.83991 1.34193 0
M  V30 15273 H 1515.37 5.02451 0.394869 0
M  V30 15274 H 1514.97 3.6751 -0.69374 0
M  V30 15275 H 1517.26 6.77496 -0.0242039 0
M  V30 15276 H 1518.2 6.91099 -1.54233 0
M  V30 15277 H 1518.61 5.6336 -0.358625 0
M  V30 15278 N 1518.01 0.657889 1.43212 0
M  V30 15279 C 1519.42 0.252443 1.84985 0
M  V30 15280 C 1519.77 -1.20196 1.55072 0
M  V30 15281 O 1518.9 -1.91803 1.00202 0
M  V30 15282 C 1519.49 0.451388 3.3578 0
M  V30 15283 C 1518.05 0.100219 3.76267 0
M  V30 15284 C 1517.2 0.752009 2.66908 0
M  V30 15285 H 1520.15 0.861239 1.33298 0
M  V30 15286 H 1520.17 -0.30169 3.79302 0
M  V30 15287 H 1519.68 1.51001 3.5752 0
M  V30 15288 H 1517.78 -0.955618 3.60137 0
M  V30 15289 H 1517.89 0.528942 4.76171 0
M  V30 15290 H 1516.26 0.184823 2.54029 0
M  V30 15291 H 1517.04 1.81375 2.91476 0
M  V30 15292 N 1519.49 -1.52437 0.400108 0
M  V30 15293 C 1520.73 -2.0201 -0.17887 0
M  V30 15294 C 1521.07 -1.2856 -1.45554 0
M  V30 15295 O 1520.34 -0.389236 -1.90565 0
M  V30 15296 C 1520.62 -3.57453 -0.435784 0
M  V30 15297 C 1520.48 -4.41562 0.85693 0
M  V30 15298 C 1521.8 -4.228 -1.2218 0
M  V30 15299 H 1518.91 -0.734256 -0.063535 0
M  V30 15300 H 1521.56 -1.82406 0.531801 0
M  V30 15301 H 1519.71 -3.74288 -1.04117 0
M  V30 15302 H 1521.38 -4.36456 1.49344 0
M  V30 15303 H 1519.62 -4.08138 1.46989 0
M  V30 15304 H 1520.29 -5.48374 0.631675 0
M  V30 15305 H 1522.77 -4.10009 -0.709359 0
M  V30 15306 H 1521.64 -5.3152 -1.37031 0
M  V30 15307 H 1521.91 -3.81153 -2.23998 0
M  V30 15308 N 1520.96 -0.130252 -1.57061 0
M  V30 15309 C 1521.89 0.812189 -2.18919 0
M  V30 15310 C 1522.88 1.2692 -1.13249 0
M  V30 15311 O 1524.06 1.32978 -1.41529 0
M  V30 15312 C 1521.19 2.05803 -2.79754 0
M  V30 15313 C 1520.14 1.73841 -3.91105 0
M  V30 15314 C 1519.47 3.05549 -4.38799 0
M  V30 15315 C 1520.77 0.997991 -5.12677 0
M  V30 15316 H 1522.46 0.296692 -2.97926 0
M  V30 15317 H 1520.01 0.141265 -1.43305 0
M  V30 15318 H 1521.96 2.72201 -3.21691 0
M  V30 15319 H 1520.69 2.59697 -1.98053 0
M  V30 15320 H 1519.35 1.09828 -3.49762 0
M  V30 15321 H 1518.99 3.57399 -3.53942 0
M  V30 15322 H 1518.69 2.84932 -5.13894 0
M  V30 15323 H 1520.22 3.73045 -4.83394 0
M  V30 15324 H 1521.63 1.56372 -5.51562 0
M  V30 15325 H 1520.03 0.892378 -5.93428 0
M  V30 15326 H 1521.1 -0.0132936 -4.84898 0
M  V30 15327 N 1522.44 1.56945 0.143535 0
M  V30 15328 C 1523.35 2.01795 1.1965 0
M  V30 15329 C 1524.37 0.933965 1.4681 0
M  V30 15330 O 1525.55 1.2437 1.58411 0
M  V30 15331 C 1522.61 2.39249 2.5092 0
M  V30 15332 C 1521.67 3.61613 2.31376 0
M  V30 15333 C 1520.9 3.97271 3.56386 0
M  V30 15334 O 1521.13 3.33552 4.62709 0
M  V30 15335 O 1520.06 4.90501 3.48844 0
M  V30 15336 H 1523.89 2.91687 0.845718 0
M  V30 15337 H 1521.47 1.45182 0.352518 0
M  V30 15338 H 1523.35 2.64184 3.28306 0
M  V30 15339 H 1522.03 1.52511 2.85521 0
M  V30 15340 H 1520.94 3.4186 1.51929 0
M  V30 15341 H 1522.27 4.48979 2.01689 0
M  V30 15342 N 1523.92 -0.412991 1.52093 0
M  V30 15343 C 1525.17 -1.16202 1.66208 0
M  V30 15344 C 1525.5 -1.90265 0.388957 0
M  V30 15345 O 1524.78 -1.84605 -0.612477 0
M  V30 15346 C 1525.06 -2.15958 2.88157 0
M  V30 15347 C 1524.91 -1.45817 4.25509 0
M  V30 15348 C 1526.23 -3.16671 3.05626 0
M  V30 15349 H 1523.35 -0.421083 0.604862 0
M  V30 15350 H 1525.99 -0.448212 1.84638 0
M  V30 15351 H 1524.14 -2.76831 2.72574 0
M  V30 15352 H 1525.81 -0.880925 4.52811 0
M  V30 15353 H 1524.06 -0.760175 4.27088 0
M  V30 15354 H 1524.73 -2.18587 5.06877 0
M  V30 15355 H 1527.2 -2.65871 3.20081 0
M  V30 15356 H 1526.08 -3.83739 3.92474 0
M  V30 15357 H 1526.34 -3.84178 2.18769 0
M  V30 15358 N 1525.4 -1.4265 -0.669982 0
M  V30 15359 C 1526.65 -1.44587 -1.4306 0
M  V30 15360 C 1527 -0.0629167 -1.92297 0
M  V30 15361 O 1526.29 0.915708 -1.68301 0
M  V30 15362 C 1526.49 -2.40913 -2.63999 0
M  V30 15363 C 1526.32 -3.88438 -2.26597 0
M  V30 15364 C 1525.09 -4.56936 -2.15725 0
M  V30 15365 C 1527.28 -4.78731 -1.87938 0
M  V30 15366 N 1525.27 -5.89465 -1.71477 0
M  V30 15367 C 1526.64 -6.00404 -1.54645 0
M  V30 15368 C 1528.69 -4.66143 -1.74973 0
M  V30 15369 C 1527.4 -7.10888 -1.09688 0
M  V30 15370 C 1529.42 -5.76613 -1.3142 0
M  V30 15371 C 1528.78 -6.97401 -0.99054 0
M  V30 15372 H 1524.88 -0.584242 -0.519794 0
M  V30 15373 H 1527.47 -1.78711 -0.772679 0
M  V30 15374 H 1525.64 -2.08843 -3.27474 0
M  V30 15375 H 1527.37 -2.33398 -3.30617 0
M  V30 15376 H 1524.12 -4.11213 -2.34948 0
M  V30 15377 H 1524.55 -6.59771 -1.51762 0
M  V30 15378 H 1529.19 -3.73231 -1.98641 0
M  V30 15379 H 1526.91 -8.03642 -0.847666 0
M  V30 15380 H 1530.49 -5.68886 -1.21902 0
M  V30 15381 H 1529.37 -7.81429 -0.658653 0
M  V30 15382 N 1526.88 0.906753 -1.28902 0
M  V30 15383 C 1527.82 2.01004 -1.13429 0
M  V30 15384 C 1528.79 1.66074 -0.0295031 0
M  V30 15385 O 1529.98 1.89793 -0.195727 0
M  V30 15386 C 1527.12 3.35473 -0.809457 0
M  V30 15387 C 1526.23 3.83229 -1.99398 0
M  V30 15388 C 1525.37 5.06241 -1.60915 0
M  V30 15389 C 1524.41 5.46348 -2.7599 0
M  V30 15390 N 1523.54 6.60548 -2.37952 0
M  V30 15391 H 1528.38 2.13571 -2.07825 0
M  V30 15392 H 1525.92 1.046 -1.03428 0
M  V30 15393 H 1527.88 4.12836 -0.601845 0
M  V30 15394 H 1526.51 3.22652 0.0975896 0
M  V30 15395 H 1525.56 3.01962 -2.31351 0
M  V30 15396 H 1526.87 4.08908 -2.85649 0
M  V30 15397 H 1526.03 5.91168 -1.36401 0
M  V30 15398 H 1524.77 4.82385 -0.718021 0
M  V30 15399 H 1523.77 4.59959 -3.01195 0
M  V30 15400 H 1525 5.72188 -3.65757 0
M  V30 15401 H 1522.94 6.38309 -1.51318 0
M  V30 15402 H 1522.86 6.85987 -3.17738 0
M  V30 15403 H 1524.13 7.48762 -2.1674 0
M  V30 15404 N 1528.36 1.11264 1.11616 0
M  V30 15405 C 1529.58 0.88306 1.87661 0
M  V30 15406 C 1530.01 -0.561586 1.79521 0
M  V30 15407 O 1529.36 -1.3964 1.1563 0
M  V30 15408 C 1529.41 1.34698 3.34498 0
M  V30 15409 O 1528.52 0.517512 4.0914 0
M  V30 15410 H 1527.86 0.318233 0.582772 0
M  V30 15411 H 1530.39 1.48164 1.41098 0
M  V30 15412 H 1530.4 1.34068 3.85344 0
M  V30 15413 H 1529.07 2.39896 3.39739 0
M  V30 15414 H 1527.65 0.589751 3.68207 0
M  V30 15415 N 1529.83 -1.29188 0.902679 0
M  V30 15416 C 1530.78 -2.27632 0.381088 0
M  V30 15417 C 1531.75 -1.57131 -0.538431 0
M  V30 15418 O 1532.94 -1.85096 -0.463027 0
M  V30 15419 C 1530.08 -3.42971 -0.382701 0
M  V30 15420 C 1529.19 -4.28249 0.568054 0
M  V30 15421 C 1528.32 -5.30772 -0.213082 0
M  V30 15422 C 1527.36 -6.07707 0.732004 0
M  V30 15423 N 1526.5 -7.02098 -0.0149139 0
M  V30 15424 H 1531.34 -2.71628 1.22566 0
M  V30 15425 H 1528.88 -1.33594 0.615724 0
M  V30 15426 H 1530.83 -4.08623 -0.841619 0
M  V30 15427 H 1529.46 -2.99997 -1.19171 0
M  V30 15428 H 1528.52 -3.62743 1.14549 0
M  V30 15429 H 1529.83 -4.81794 1.29136 0
M  V30 15430 H 1528.98 -6.02255 -0.733065 0
M  V30 15431 H 1527.72 -4.77966 -0.969504 0
M  V30 15432 H 1526.73 -5.35086 1.26346 0
M  V30 15433 H 1527.95 -6.62602 1.4878 0
M  V30 15434 H 1525.9 -6.51658 -0.753548 0
M  V30 15435 H 1525.81 -7.53214 0.648423 0
M  V30 15436 H 1527.08 -7.77796 -0.515062 0
M  V30 15437 N 1531.31 -0.665475 -1.42861 0
M  V30 15438 C 1532.24 0.0574495 -2.29128 0
M  V30 15439 C 1533.26 0.774881 -1.43176 0
M  V30 15440 O 1534.45 0.630593 -1.6699 0
M  V30 15441 C 1531.55 1.10481 -3.20386 0
M  V30 15442 C 1530.72 0.463071 -4.34942 0
M  V30 15443 C 1529.78 1.40896 -5.06986 0
M  V30 15444 O 1528.8 0.912839 -5.61833 0
M  V30 15445 N 1530.01 2.74257 -5.11628 0
M  V30 15446 H 1532.77 -0.683051 -2.91812 0
M  V30 15447 H 1530.33 -0.509179 -1.53685 0
M  V30 15448 H 1532.32 1.73866 -3.65449 0
M  V30 15449 H 1530.89 1.74715 -2.59217 0
M  V30 15450 H 1530.11 -0.350109 -3.92642 0
M  V30 15451 H 1531.4 0.0156092 -5.08798 0
M  V30 15452 H 1530.8 3.17112 -4.68462 0
M  V30 15453 H 1529.36 3.32913 -5.60368 0
M  V30 15454 N 1532.79 1.52222 -0.408187 0
M  V30 15455 C 1534.04 2.02102 0.168154 0
M  V30 15456 C 1534.37 1.2933 1.4487 0
M  V30 15457 O 1533.64 0.399336 1.90356 0
M  V30 15458 C 1533.93 3.57679 0.416821 0
M  V30 15459 C 1533.78 4.41101 -0.880335 0
M  V30 15460 C 1535.1 4.23442 1.19936 0
M  V30 15461 H 1532.22 0.734583 0.0596402 0
M  V30 15462 H 1534.86 1.82121 -0.541467 0
M  V30 15463 H 1533.01 3.74835 1.02131 0
M  V30 15464 H 1534.68 4.35658 -1.51656 0
M  V30 15465 H 1532.92 4.07353 -1.49152 0
M  V30 15466 H 1533.6 5.48031 -0.660748 0
M  V30 15467 H 1536.07 4.10379 0.687605 0
M  V30 15468 H 1534.95 5.32239 1.3421 0
M  V30 15469 H 1535.21 3.82335 2.21973 0
M  V30 15470 N 1534.27 0.138579 1.5699 0
M  V30 15471 C 1535.52 -0.514545 1.95026 0
M  V30 15472 C 1535.83 -1.66565 1.02544 0
M  V30 15473 O 1537.04 -2.38284 1.30126 0
M  V30 15474 C 1535.49 -0.966746 3.46673 0
M  V30 15475 C 1535.1 0.156969 4.47725 0
M  V30 15476 C 1536.84 -1.59014 3.93592 0
M  V30 15477 C 1534.75 -0.313031 5.90571 0
M  V30 15478 H 1533.68 -0.195991 0.728082 0
M  V30 15479 H 1536.33 0.221575 1.82157 0
M  V30 15480 H 1534.71 -1.75788 3.54845 0
M  V30 15481 H 1535.89 0.933728 4.51241 0
M  V30 15482 H 1534.2 0.688238 4.10673 0
M  V30 15483 H 1536.8 -1.95326 4.97747 0
M  V30 15484 H 1537.14 -2.47595 3.34668 0
M  V30 15485 H 1537.68 -0.864061 3.88302 0
M  V30 15486 H 1534.41 0.5372 6.53295 0
M  V30 15487 H 1533.93 -1.05585 5.90434 0
M  V30 15488 H 1535.61 -0.767826 6.42428 0
M  V30 15489 N 1535.75 -1.57019 -0.13521 0
M  V30 15490 C 1536.99 -1.84262 -0.847071 0
M  V30 15491 C 1537.32 -0.721946 -1.80282 0
M  V30 15492 O 1536.6 0.273535 -1.92567 0
M  V30 15493 C 1536.88 -3.22043 -1.61123 0
M  V30 15494 C 1536.74 -4.44689 -0.67617 0
M  V30 15495 C 1538.05 -3.57188 -2.57108 0
M  V30 15496 H 1535.17 -0.670246 -0.306496 0
M  V30 15497 H 1537.82 -1.89671 -0.111843 0
M  V30 15498 H 1535.97 -3.17563 -2.23799 0
M  V30 15499 H 1537.64 -4.61262 -0.0595009 0
M  V30 15500 H 1535.88 -4.33798 0.0134526 0
M  V30 15501 H 1536.55 -5.37727 -1.24714 0
M  V30 15502 H 1539.03 -3.62354 -2.04545 0
M  V30 15503 H 1537.9 -4.54602 -3.07617 0
M  V30 15504 H 1538.16 -2.83758 -3.39019 0
M  V30 15505 N 1537.22 0.404919 -1.52309 0
M  V30 15506 C 1538.16 1.51471 -1.7068 0
M  V30 15507 C 1539.14 1.52856 -0.554425 0
M  V30 15508 O 1540.32 1.715 -0.782294 0
M  V30 15509 C 1537.45 2.8999 -1.74995 0
M  V30 15510 C 1536.49 3.06499 -2.96581 0
M  V30 15511 S 1537.33 2.7937 -4.56851 0
M  V30 15512 C 1538.48 4.20112 -4.63958 0
M  V30 15513 H 1538.71 1.35661 -2.64544 0
M  V30 15514 H 1536.25 0.596769 -1.42401 0
M  V30 15515 H 1538.21 3.6982 -1.78167 0
M  V30 15516 H 1536.87 3.03139 -0.822517 0
M  V30 15517 H 1536.06 4.07853 -2.96095 0
M  V30 15518 H 1535.66 2.34541 -2.91319 0
M  V30 15519 H 1537.95 5.13811 -4.41594 0
M  V30 15520 H 1538.9 4.2562 -5.6591 0
M  V30 15521 H 1539.3 4.05279 -3.9295 0
M  V30 15522 N 1538.7 1.43003 0.662408 0
M  V30 15523 C 1539.65 1.47448 1.77561 0
M  V30 15524 C 1540.62 0.325121 1.62887 0
M  V30 15525 O 1541.8 0.530971 1.83263 0
M  V30 15526 C 1538.94 1.3946 3.15666 0
M  V30 15527 C 1538.06 2.64529 3.41539 0
M  V30 15528 C 1537.19 2.48594 4.69441 0
M  V30 15529 C 1536.23 3.68976 4.88388 0
M  V30 15530 N 1535.37 3.51908 6.0754 0
M  V30 15531 H 1540.21 2.42573 1.73097 0
M  V30 15532 H 1537.75 1.2042 0.84484 0
M  V30 15533 H 1539.7 1.32824 3.95492 0
M  V30 15534 H 1538.33 0.479227 3.19223 0
M  V30 15535 H 1537.39 2.81481 2.55877 0
M  V30 15536 H 1538.7 3.53977 3.51429 0
M  V30 15537 H 1537.85 2.39614 5.57378 0
M  V30 15538 H 1536.59 1.56656 4.61855 0
M  V30 15539 H 1535.6 3.78374 3.9889 0
M  V30 15540 H 1536.82 4.61911 4.9781 0
M  V30 15541 H 1534.77 2.62697 6.01104 0
M  V30 15542 H 1534.68 4.34951 6.18347 0
M  V30 15543 H 1535.95 3.46763 6.98123 0
M  V30 15544 N 1540.18 -0.899904 1.29381 0
M  V30 15545 C 1541.6 -1.18067 1.07388 0
M  V30 15546 C 1541.8 -2.00739 -0.174951 0
M  V30 15547 O 1540.85 -2.36937 -0.872771 0
M  V30 15548 C 1542.17 -1.90182 2.32919 0
M  V30 15549 C 1543.71 -2.03009 2.38236 0
M  V30 15550 C 1544.19 -2.78533 3.6357 0
M  V30 15551 N 1545.68 -2.86088 3.64291 0
M  V30 15552 C 1546.41 -3.45062 4.57952 0
M  V30 15553 N 1545.91 -4.05204 5.61945 0
M  V30 15554 N 1547.7 -3.42734 4.45522 0
M  V30 15555 H 1539.85 -0.348306 2.09525 0
M  V30 15556 H 1542.12 -0.216796 0.922878 0
M  V30 15557 H 1541.82 -1.36871 3.23974 0
M  V30 15558 H 1541.7 -2.90658 2.40412 0
M  V30 15559 H 1544.08 -2.55495 1.47669 0
M  V30 15560 H 1544.17 -1.01666 2.34729 0
M  V30 15561 H 1543.81 -2.26723 4.54488 0
M  V30 15562 H 1543.74 -3.8022 3.64335 0
M  V30 15563 H 1546.23 -2.43372 2.891 0
M  V30 15564 H 1546.54 -4.48225 6.29535 0
M  V30 15565 H 1544.89 -4.03667 5.65755 0
M  V30 15566 H 1548.08 -2.94967 3.63472 0
M  V30 15567 H 1548.25 -3.884 5.187 0
M  V30 15568 N 1541.66 -1.11854 -1.11024 0
M  V30 15569 C 1542.88 -0.892999 -1.8719 0
M  V30 15570 C 1543.31 0.552058 -1.79816 0
M  V30 15571 O 1542.67 1.39025 -1.16369 0
M  V30 15572 C 1542.71 -1.3647 -3.33779 0
M  V30 15573 O 1541.82 -0.539202 -4.0886 0
M  V30 15574 H 1541.16 -0.321319 -0.581076 0
M  V30 15575 H 1543.69 -1.4891 -1.4031 0
M  V30 15576 H 1543.7 -1.3611 -3.84627 0
M  V30 15577 H 1542.37 -2.41694 -3.38462 0
M  V30 15578 H 1540.95 -0.60927 -3.67889 0
M  V30 15579 N 1543.14 1.28707 -0.909517 0
M  V30 15580 C 1544.07 2.29845 -0.411552 0
M  V30 15581 C 1545.05 1.62001 0.518615 0
M  V30 15582 O 1546.23 1.89442 0.427252 0
M  V30 15583 C 1543.36 3.45501 0.353013 0
M  V30 15584 C 1542.32 4.25213 -0.487625 0
M  V30 15585 C 1541.64 5.33164 0.405026 0
M  V30 15586 C 1542.94 4.9237 -1.74268 0
M  V30 15587 H 1544.64 2.71746 -1.25676 0
M  V30 15588 H 1542.18 1.30639 -0.605759 0
M  V30 15589 H 1544.14 4.15338 0.712191 0
M  V30 15590 H 1542.86 3.02469 1.23209 0
M  V30 15591 H 1541.52 3.57098 -0.829265 0
M  V30 15592 H 1541.17 4.86375 1.28252 0
M  V30 15593 H 1540.87 5.87399 -0.153811 0
M  V30 15594 H 1542.39 6.0585 0.760179 0
M  V30 15595 H 1543.8 5.5459 -1.45266 0
M  V30 15596 H 1542.2 5.56581 -2.2436 0
M  V30 15597 H 1543.27 4.171 -2.47297 0
M  V30 15598 N 1544.61 0.673042 1.42506 0
M  V30 15599 C 1545.86 0.194192 2.01165 0
M  V30 15600 C 1546.18 -1.2029 1.53477 0
M  V30 15601 O 1545.45 -1.80737 0.755704 0
M  V30 15602 H 1544.03 0.0688022 0.743825 0
M  V30 15603 H 1546.7 0.869157 1.74447 0
M  V30 15604 H 1545.79 0.194111 3.11496 0
M  V30 15605 N 1546.09 -1.52004 0.416254 0
M  V30 15606 C 1547.34 -2.02188 -0.157434 0
M  V30 15607 C 1547.67 -1.30097 -1.44182 0
M  V30 15608 O 1546.95 -0.409426 -1.90142 0
M  V30 15609 C 1547.23 -3.57896 -0.397847 0
M  V30 15610 C 1547.08 -4.40628 0.903715 0
M  V30 15611 C 1548.4 -4.24072 -1.17689 0
M  V30 15612 H 1545.52 -0.734889 -0.0557437 0
M  V30 15613 H 1548.16 -1.81831 0.551118 0
M  V30 15614 H 1546.31 -3.75372 -1.00142 0
M  V30 15615 H 1547.98 -4.34848 1.53964 0
M  V30 15616 H 1546.23 -4.06556 1.5131 0
M  V30 15617 H 1546.9 -5.47673 0.689802 0
M  V30 15618 H 1549.37 -4.10738 -0.665832 0
M  V30 15619 H 1548.25 -5.32944 -1.31386 0
M  V30 15620 H 1548.51 -3.83507 -2.19942 0
M  V30 15621 N 1547.57 -0.146903 -1.56914 0
M  V30 15622 C 1548.82 0.503237 -1.95734 0
M  V30 15623 C 1549.14 1.65407 -1.03275 0
M  V30 15624 O 1548.41 1.95673 -0.0942784 0
M  V30 15625 H 1546.99 0.188899 -0.722721 0
M  V30 15626 H 1549.65 -0.222379 -1.93627 0
M  V30 15627 H 1548.75 0.879445 -2.99453 0
M  V30 15628 N 1549.05 1.57088 0.126881 0
M  V30 15629 C 1550.28 1.8834 0.849211 0
M  V30 15630 C 1550.69 0.735386 1.74324 0
M  V30 15631 O 1550.03 -0.30318 1.81181 0
M  V30 15632 C 1550.09 3.14522 1.74116 0
M  V30 15633 C 1549.76 4.4542 1.02225 0
M  V30 15634 C 1550.75 5.18605 0.366722 0
M  V30 15635 C 1548.44 4.92128 1.00577 0
M  V30 15636 C 1550.43 6.36714 -0.295675 0
M  V30 15637 C 1548.12 6.10156 0.33957 0
M  V30 15638 C 1549.12 6.82296 -0.310005 0
M  V30 15639 O 1548.8 7.9808 -0.965594 0
M  V30 15640 H 1548.54 0.628129 0.24986 0
M  V30 15641 H 1551.09 2.05059 0.118236 0
M  V30 15642 H 1549.32 2.93864 2.51358 0
M  V30 15643 H 1551.01 3.31857 2.33722 0
M  V30 15644 H 1551.78 4.83578 0.371126 0
M  V30 15645 H 1547.65 4.35887 1.5008 0
M  V30 15646 H 1551.2 6.9296 -0.803275 0
M  V30 15647 H 1547.1 6.44641 0.332902 0
M  V30 15648 H 1547.86 8.13871 -0.869277 0
M  V30 15649 N 1550.53 -0.396836 1.52522 0
M  V30 15650 C 1551.49 -1.46695 1.76106 0
M  V30 15651 C 1552.49 -1.47902 0.631005 0
M  V30 15652 O 1553.68 -1.4921 0.898995 0
M  V30 15653 C 1550.81 -2.86033 1.85467 0
M  V30 15654 H 1552 -1.27071 2.71649 0
M  V30 15655 H 1549.56 -0.628096 1.43125 0
M  V30 15656 H 1550.29 -3.11012 0.918816 0
M  V30 15657 H 1550.08 -2.86559 2.67631 0
M  V30 15658 H 1551.57 -3.63587 2.05412 0
M  V30 15659 N 1552.01 -1.43353 -0.654814 0
M  V30 15660 C 1552.97 -1.4806 -1.7496 0
M  V30 15661 C 1553.97 -0.365513 -1.56591 0
M  V30 15662 O 1555.16 -0.627194 -1.62517 0
M  V30 15663 C 1552.29 -1.33165 -3.13815 0
M  V30 15664 H 1553.48 -2.45557 -1.72167 0
M  V30 15665 H 1551.04 -1.30094 -0.86632 0
M  V30 15666 H 1551.77 -0.366689 -3.2222 0
M  V30 15667 H 1551.56 -2.13998 -3.28553 0
M  V30 15668 H 1553.05 -1.39388 -3.93651 0
M  V30 15669 N 1553.48 0.89303 -1.29857 0
M  V30 15670 C 1554.73 1.64657 -1.18389 0
M  V30 15671 C 1555.06 1.92417 0.262587 0
M  V30 15672 O 1554.34 1.53936 1.18887 0
M  V30 15673 C 1554.62 2.99148 -2.00456 0
M  V30 15674 C 1554.47 2.78411 -3.53281 0
M  V30 15675 C 1555.79 3.99968 -1.83613 0
M  V30 15676 H 1552.91 0.59752 -0.431438 0
M  V30 15677 H 1555.55 1.03397 -1.59402 0
M  V30 15678 H 1553.7 3.51435 -1.65607 0
M  V30 15679 H 1555.38 2.32974 -3.98147 0
M  V30 15680 H 1553.62 2.13067 -3.77869 0
M  V30 15681 H 1554.29 3.74008 -4.05983 0
M  V30 15682 H 1556.77 3.56813 -2.14064 0
M  V30 15683 H 1555.64 4.91997 -2.43373 0
M  V30 15684 H 1555.9 4.34928 -0.793098 0
M  V30 15685 N 1554.96 1.12442 1.10429 0
M  V30 15686 C 1556.24 0.791191 1.78884 0
M  V30 15687 C 1556.62 -0.719044 1.98477 0
M  V30 15688 O 1555.97 -1.65275 1.57786 0
M  V30 15689 C 1556.18 1.56632 3.11877 0
M  V30 15690 C 1557.52 1.75236 3.86752 0
M  V30 15691 O 1558.55 1.53145 3.21598 0
M  V30 15692 O 1557.41 2.12025 5.03694 0
M  V30 15693 H 1554.5 0.287788 0.775311 0
M  V30 15694 H 1557.05 1.22844 1.17078 0
M  V30 15695 H 1555.82 2.59317 2.93037 0
M  V30 15696 H 1555.44 1.12332 3.81402 0
M  V30 15697 N 1556.44 -1.28223 0.91633 0
M  V30 15698 C 1557.39 -2.29188 0.396916 0
M  V30 15699 C 1558.38 -1.61453 -0.512763 0
M  V30 15700 O 1559.59 -1.75641 -0.393723 0
M  V30 15701 H 1555.96 -0.743947 0.109761 0
M  V30 15702 H 1557.93 -2.70423 1.2615 0
M  V30 15703 C 1556.68 -3.4598 -0.345452 0
M  V30 15704 H 1556.01 -3.98306 0.345326 0
M  V30 15705 H 1557.45 -4.18617 -0.67349 0
M  V30 15706 C 1555.9 -2.98904 -1.55429 0
M  V30 15707 O 1556.43 -3.01598 -2.65333 0
M  V30 15708 N 1554.64 -2.54534 -1.40217 0
M  V30 15709 H 1554.19 -2.52541 -0.508029 0
M  V30 15710 H 1554.15 -2.23397 -2.21227 0
M  V30 15711 N 1557.92 -0.68059 -1.42147 0
M  V30 15712 C 1559.33 -0.281841 -1.8456 0
M  V30 15713 C 1559.68 1.17714 -1.56965 0
M  V30 15714 O 1558.8 1.90185 -1.03241 0
M  V30 15715 C 1559.4 -0.504751 -3.35019 0
M  V30 15716 C 1557.96 -0.160067 -3.76059 0
M  V30 15717 C 1557.11 -0.794377 -2.65678 0
M  V30 15718 H 1560.06 -0.882337 -1.31911 0
M  V30 15719 H 1560.08 0.241308 -3.79734 0
M  V30 15720 H 1559.59 -1.56669 -3.55072 0
M  V30 15721 H 1557.69 0.898202 -3.61612 0
M  V30 15722 H 1557.8 -0.60463 -4.75269 0
M  V30 15723 H 1556.17 -0.225213 -2.53702 0
M  V30 15724 H 1556.95 -1.85989 -2.88553 0
M  V30 15725 N 1559.4 1.51781 -0.424309 0
M  V30 15726 C 1560.64 2.01157 0.147925 0
M  V30 15727 C 1560.96 1.31369 1.44919 0
M  V30 15728 O 1562.16 1.71643 2.10359 0
M  V30 15729 C 1560.62 3.58526 0.31417 0
M  V30 15730 C 1560.23 4.37242 -0.975898 0
M  V30 15731 C 1561.97 4.16088 0.840876 0
M  V30 15732 C 1559.88 5.86287 -0.776009 0
M  V30 15733 H 1558.81 0.751684 0.0590568 0
M  V30 15734 H 1561.46 1.74998 -0.552079 0
M  V30 15735 H 1559.84 3.81077 1.07687 0
M  V30 15736 H 1561.02 4.26444 -1.74592 0
M  V30 15737 H 1559.33 3.9107 -1.43015 0
M  V30 15738 H 1561.93 5.25138 1.0067 0
M  V30 15739 H 1562.27 3.7442 1.81977 0
M  V30 15740 H 1562.8 3.97565 0.136836 0
M  V30 15741 H 1559.54 6.32343 -1.7269 0
M  V30 15742 H 1559.06 5.99783 -0.0455544 0
M  V30 15743 H 1560.74 6.45609 -0.424095 0
M  V30 15744 N 1560.87 0.155222 1.56834 0
M  V30 15745 C 1562.12 -0.493826 1.96386 0
M  V30 15746 C 1562.45 -1.6433 1.04048 0
M  V30 15747 O 1561.7 -1.9557 0.0713123 0
M  V30 15748 C 1562 -1.03346 3.42132 0
M  V30 15749 C 1561.67 -0.00157215 4.509 0
M  V30 15750 C 1560.33 0.282068 4.80373 0
M  V30 15751 C 1562.68 0.699684 5.16482 0
M  V30 15752 C 1560.01 1.27263 5.72731 0
M  V30 15753 C 1562.36 1.67912 6.09908 0
M  V30 15754 C 1561.03 1.97037 6.37756 0
M  V30 15755 H 1560.3 -0.180704 0.718629 0
M  V30 15756 H 1562.94 0.243789 1.89942 0
M  V30 15757 H 1561.25 -1.84857 3.45449 0
M  V30 15758 H 1562.95 -1.54437 3.70068 0
M  V30 15759 H 1559.54 -0.232824 4.27967 0
M  V30 15760 H 1563.72 0.493751 4.93838 0
M  V30 15761 H 1558.98 1.50464 5.92597 0
M  V30 15762 H 1563.15 2.22796 6.59799 0
M  V30 15763 H 1560.78 2.73944 7.09125 0
M  V30 15764 N 1562.35 -1.57153 -0.118549 0
M  V30 15765 C 1563.58 -1.88788 -0.83921 0
M  V30 15766 C 1563.99 -0.744621 -1.73931 0
M  V30 15767 O 1563.33 0.293567 -1.81339 0
M  V30 15768 C 1563.39 -3.15441 -1.72446 0
M  V30 15769 C 1563.06 -4.45956 -0.998613 0
M  V30 15770 C 1564.06 -5.18792 -0.339214 0
M  V30 15771 C 1561.74 -4.92654 -0.979657 0
M  V30 15772 C 1563.73 -6.36548 0.329438 0
M  V30 15773 C 1561.42 -6.10327 -0.307207 0
M  V30 15774 C 1562.42 -6.82122 0.346185 0
M  V30 15775 O 1562.11 -7.97557 1.0079 0
M  V30 15776 H 1561.84 -0.629445 -0.246526 0
M  V30 15777 H 1564.39 -2.05119 -0.10736 0
M  V30 15778 H 1562.62 -2.95193 -2.49796 0
M  V30 15779 H 1564.31 -3.33092 -2.31958 0
M  V30 15780 H 1565.08 -4.83768 -0.345475 0
M  V30 15781 H 1560.96 -4.36676 -1.47766 0
M  V30 15782 H 1564.5 -6.92524 0.840013 0
M  V30 15783 H 1560.4 -6.44808 -0.29871 0
M  V30 15784 H 1561.17 -8.13398 0.912427 0
M  V30 15785 N 1563.83 0.388742 -1.5273 0
M  V30 15786 C 1564.78 1.47488 -1.77527 0
M  V30 15787 C 1565.75 1.54155 -0.618505 0
M  V30 15788 O 1566.93 1.70407 -0.858251 0
M  V30 15789 C 1564.07 2.84714 -1.95018 0
M  V30 15790 C 1563.18 2.87197 -3.2271 0
M  V30 15791 C 1562.32 4.15851 -3.30517 0
M  V30 15792 C 1561.36 4.12386 -4.52332 0
M  V30 15793 N 1560.5 5.32647 -4.57418 0
M  V30 15794 H 1565.34 1.25644 -2.70218 0
M  V30 15795 H 1562.87 0.609519 -1.33878 0
M  V30 15796 H 1564.83 3.64402 -2.03143 0
M  V30 15797 H 1563.46 3.05008 -1.05688 0
M  V30 15798 H 1562.51 1.99879 -3.23655 0
M  V30 15799 H 1563.82 2.80505 -4.12454 0
M  V30 15800 H 1562.98 5.03943 -3.37827 0
M  V30 15801 H 1561.72 4.25265 -2.38748 0
M  V30 15802 H 1560.72 3.22683 -4.45147 0
M  V30 15803 H 1561.95 4.04594 -5.45418 0
M  V30 15804 H 1559.89 5.42691 -3.68541 0
M  V30 15805 H 1559.81 5.28032 -5.41035 0
M  V30 15806 H 1561.08 6.22636 -4.68983 0
M  V30 15807 N 1565.31 1.43698 0.647203 0
M  V30 15808 C 1566.72 1.40586 1.22851 0
M  V30 15809 C 1567.07 0.112981 1.95874 0
M  V30 15810 O 1566.19 -0.787342 2.01569 0
M  V30 15811 C 1566.79 2.54672 2.23445 0
M  V30 15812 C 1565.35 2.54806 2.7704 0
M  V30 15813 C 1564.5 2.32076 1.51777 0
M  V30 15814 H 1567.45 1.52512 0.43885 0
M  V30 15815 H 1567.47 2.26505 3.05738 0
M  V30 15816 H 1566.98 3.48755 1.70269 0
M  V30 15817 H 1565.08 1.64619 3.34262 0
M  V30 15818 H 1565.19 3.52771 3.24175 0
M  V30 15819 H 1563.56 1.80858 1.79339 0
M  V30 15820 H 1564.34 3.28252 1.00527 0
M  V30 15821 N 1566.79 -0.886131 1.30328 0
M  V30 15822 C 1567.73 -2.01312 1.16516 0
M  V30 15823 C 1568.73 -1.69223 0.0773431 0
M  V30 15824 O 1569.93 -1.78418 0.238111 0
M  V30 15825 H 1566.31 -0.66006 0.360312 0
M  V30 15826 H 1568.28 -2.10097 2.11901 0
M  V30 15827 C 1567.03 -3.36573 0.872592 0
M  V30 15828 H 1566.35 -3.61775 1.70172 0
M  V30 15829 H 1567.79 -4.16073 0.816049 0
M  V30 15830 C 1566.25 -3.34215 -0.424465 0
M  V30 15831 O 1566.78 -3.74758 -1.44634 0
M  V30 15832 N 1564.99 -2.87323 -0.435207 0
M  V30 15833 H 1564.53 -2.54525 0.396851 0
M  V30 15834 H 1564.49 -2.86128 -1.303 0
M  V30 15835 N 1568.26 -1.13026 -1.09832 0
M  V30 15836 C 1569.49 -0.91246 -1.85693 0
M  V30 15837 C 1569.91 0.538558 -1.80956 0
M  V30 15838 O 1569.26 1.37262 -1.20273 0
M  V30 15839 C 1569.32 -1.38684 -3.3384 0
M  V30 15840 O 1569.04 -2.78099 -3.38515 0
M  V30 15841 C 1570.54 -1.20688 -4.26555 0
M  V30 15842 H 1567.76 -0.32565 -0.58668 0
M  V30 15843 H 1570.3 -1.50177 -1.38806 0
M  V30 15844 H 1568.46 -0.840617 -3.7817 0
M  V30 15845 H 1568.87 -2.99061 -4.30886 0
M  V30 15846 H 1570.34 -1.5876 -5.28677 0
M  V30 15847 H 1570.82 -0.148111 -4.3895 0
M  V30 15848 H 1571.43 -1.74092 -3.88036 0
M  V30 15849 N 1569.74 1.27735 -0.923117 0
M  V30 15850 C 1570.71 2.25256 -0.423375 0
M  V30 15851 C 1571.71 1.54213 0.455517 0
M  V30 15852 O 1572.9 1.7229 0.257245 0
M  V30 15853 C 1570.03 3.3864 0.391897 0
M  V30 15854 H 1571.22 2.70978 -1.28495 0
M  V30 15855 H 1568.77 1.39579 -0.703378 0
M  V30 15856 H 1569.51 2.98293 1.27248 0
M  V30 15857 H 1569.29 3.91376 -0.238194 0
M  V30 15858 H 1570.78 4.11133 0.732069 0
M  V30 15859 N 1571.22 0.688118 1.41784 0
M  V30 15860 C 1572.15 -0.0323076 2.28177 0
M  V30 15861 C 1573.13 -0.795419 1.41816 0
M  V30 15862 O 1574.32 -0.787785 1.71249 0
M  V30 15863 C 1571.44 -1.05308 3.21913 0
M  V30 15864 C 1570.49 -0.384003 4.24768 0
M  V30 15865 S 1571.32 0.86817 5.28416 0
M  V30 15866 C 1572.48 -0.151191 6.25717 0
M  V30 15867 H 1572.71 0.700456 2.88931 0
M  V30 15868 H 1570.24 0.478125 1.46811 0
M  V30 15869 H 1572.2 -1.63689 3.76452 0
M  V30 15870 H 1570.86 -1.75837 2.6027 0
M  V30 15871 H 1570.06 -1.15469 4.90594 0
M  V30 15872 H 1569.66 0.126545 3.73786 0
M  V30 15873 H 1571.95 -1.0068 6.69977 0
M  V30 15874 H 1572.89 0.472955 7.06519 0
M  V30 15875 H 1573.3 -0.502631 5.62258 0
M  V30 15876 N 1572.7 -1.51554 0.432352 0
M  V30 15877 C 1573.63 -2.30514 -0.372243 0
M  V30 15878 C 1574.61 -1.35712 -1.02549 0
M  V30 15879 O 1575.79 -1.6463 -1.03009 0
M  V30 15880 C 1572.92 -3.14353 -1.47646 0
M  V30 15881 C 1571.88 -4.17392 -0.946974 0
M  V30 15882 C 1571.2 -4.89721 -2.14656 0
M  V30 15883 C 1572.5 -5.22298 0.0151377 0
M  V30 15884 H 1574.2 -2.98024 0.28668 0
M  V30 15885 H 1571.74 -1.43325 0.139315 0
M  V30 15886 H 1573.7 -3.68369 -2.04651 0
M  V30 15887 H 1572.42 -2.44654 -2.1636 0
M  V30 15888 H 1571.08 -3.6442 -0.399174 0
M  V30 15889 H 1570.73 -4.1653 -2.81978 0
M  V30 15890 H 1570.43 -5.59393 -1.79869 0
M  V30 15891 H 1571.95 -5.46559 -2.72224 0
M  V30 15892 H 1573.37 -5.71416 -0.464447 0
M  V30 15893 H 1571.76 -5.99468 0.275339 0
M  V30 15894 H 1572.83 -4.75436 0.953357 0
M  V30 15895 N 1574.18 -0.163538 -1.56749 0
M  V30 15896 C 1575.11 0.765571 -2.20593 0
M  V30 15897 C 1576.09 1.24489 -1.15916 0
M  V30 15898 O 1577.27 1.29946 -1.44318 0
M  V30 15899 C 1574.4 1.99823 -2.84057 0
M  V30 15900 C 1573.36 1.65506 -3.94705 0
M  V30 15901 C 1572.68 2.96172 -4.45181 0
M  V30 15902 C 1573.98 0.88902 -5.14678 0
M  V30 15903 H 1575.68 0.233431 -2.98489 0
M  V30 15904 H 1573.22 0.110836 -1.43573 0
M  V30 15905 H 1575.18 2.65316 -3.27392 0
M  V30 15906 H 1573.9 2.55437 -2.03517 0
M  V30 15907 H 1572.56 1.02384 -3.52013 0
M  V30 15908 H 1572.21 3.49811 -3.61443 0
M  V30 15909 H 1571.91 2.73968 -5.19823 0
M  V30 15910 H 1573.43 3.62708 -4.91198 0
M  V30 15911 H 1574.84 1.44637 -5.54755 0
M  V30 15912 H 1573.24 0.766302 -5.95187 0
M  V30 15913 H 1574.31 -0.116145 -4.84761 0
M  V30 15914 N 1575.65 1.57214 0.110213 0
M  V30 15915 C 1576.9 1.84946 0.814827 0
M  V30 15916 C 1577.22 0.750029 1.79999 0
M  V30 15917 O 1576.49 -0.225164 1.94602 0
M  V30 15918 H 1575.07 0.682385 0.303907 0
M  V30 15919 H 1577.74 1.94666 0.0954415 0
M  V30 15920 H 1576.83 2.81167 1.35469 0
M  V30 15921 N 1577.13 -0.380637 1.52934 0
M  V30 15922 C 1578.41 -1.13958 1.58975 0
M  V30 15923 C 1578.79 -2.07503 0.388028 0
M  V30 15924 O 1578.14 -2.19844 -0.622984 0
M  V30 15925 C 1578.35 -1.89192 2.9327 0
M  V30 15926 C 1579.7 -2.44259 3.47308 0
M  V30 15927 O 1580.72 -1.99338 2.95199 0
M  V30 15928 O 1579.58 -3.26338 4.38367 0
M  V30 15929 H 1576.67 -0.521896 0.641525 0
M  V30 15930 H 1579.22 -0.385114 1.65272 0
M  V30 15931 H 1577.99 -1.20834 3.72176 0
M  V30 15932 H 1577.61 -2.71581 2.90395 0
M  V30 15933 N 1578.61 -1.44039 -0.639573 0
M  V30 15934 C 1579.57 -1.49907 -1.7338 0
M  V30 15935 C 1580.57 -0.382101 -1.56194 0
M  V30 15936 O 1581.76 -0.644396 -1.61843 0
M  V30 15937 C 1578.9 -1.36486 -3.12385 0
M  V30 15938 H 1580.09 -2.4737 -1.69553 0
M  V30 15939 H 1577.64 -1.31006 -0.852474 0
M  V30 15940 H 1578.38 -0.400845 -3.21813 0
M  V30 15941 H 1578.16 -2.17471 -3.26265 0
M  V30 15942 H 1579.65 -1.43555 -3.9215 0
M  V30 15943 N 1580.09 0.879207 -1.30796 0
M  V30 15944 C 1581.04 1.98553 -1.17667 0
M  V30 15945 C 1582.01 1.65974 -0.0647231 0
M  V30 15946 O 1583.19 1.89336 -0.235941 0
M  V30 15947 C 1580.33 3.3368 -0.880434 0
M  V30 15948 C 1579.44 3.78913 -2.07482 0
M  V30 15949 C 1578.58 5.02714 -1.71617 0
M  V30 15950 C 1577.62 5.40371 -2.87517 0
M  V30 15951 N 1576.75 6.55352 -2.5191 0
M  V30 15952 H 1581.59 2.09115 -2.12309 0
M  V30 15953 H 1579.13 1.02382 -1.05623 0
M  V30 15954 H 1581.09 4.11467 -0.689278 0
M  V30 15955 H 1579.72 3.22787 0.0291283 0
M  V30 15956 H 1578.77 2.96987 -2.37704 0
M  V30 15957 H 1580.08 4.02757 -2.94259 0
M  V30 15958 H 1579.24 5.88142 -1.4891 0
M  V30 15959 H 1577.98 4.80754 -0.820181 0
M  V30 15960 H 1576.98 4.53466 -3.10883 0
M  V30 15961 H 1578.21 5.64301 -3.77811 0
M  V30 15962 H 1576.15 6.34956 -1.64823 0
M  V30 15963 H 1576.07 6.79093 -3.32217 0
M  V30 15964 H 1577.34 7.43996 -2.32573 0
M  V30 15965 N 1581.57 1.13606 1.09231 0
M  V30 15966 C 1582.51 0.815279 2.15921 0
M  V30 15967 C 1583.48 -0.223501 1.64589 0
M  V30 15968 O 1584.67 -0.0952982 1.90562 0
M  V30 15969 C 1581.81 0.289655 3.43882 0
M  V30 15970 C 1580.92 1.38773 4.09104 0
M  V30 15971 C 1580.06 0.820238 5.24829 0
M  V30 15972 C 1579.1 1.89658 5.81976 0
M  V30 15973 N 1578.23 1.34688 6.8906 0
M  V30 15974 H 1583.07 1.72914 2.42703 0
M  V30 15975 H 1580.61 0.863101 1.19117 0
M  V30 15976 H 1582.57 -0.0332398 4.17187 0
M  V30 15977 H 1581.2 -0.587329 3.17412 0
M  V30 15978 H 1580.25 1.82718 3.33644 0
M  V30 15979 H 1581.56 2.20114 4.47606 0
M  V30 15980 H 1580.72 0.448745 6.05038 0
M  V30 15981 H 1579.46 -0.0242261 4.87694 0
M  V30 15982 H 1578.46 2.27712 5.00427 0
M  V30 15983 H 1579.69 2.74448 6.21172 0
M  V30 15984 H 1577.63 0.524453 6.539 0
M  V30 15985 H 1577.55 2.09675 7.26342 0
M  V30 15986 H 1578.82 1.00302 7.7302 0
M  V30 15987 N 1583.05 -1.27244 0.929878 0
M  V30 15988 C 1584.27 -1.98373 0.587845 0
M  V30 15989 C 1584.69 -1.69349 -0.834638 0
M  V30 15990 O 1584.05 -0.955281 -1.55501 0
M  V30 15991 C 1584.1 -3.52381 0.806843 0
M  V30 15992 O 1583.82 -3.8039 2.17337 0
M  V30 15993 C 1585.32 -4.40761 0.473818 0
M  V30 15994 H 1582.54 -0.633015 0.22256 0
M  V30 15995 H 1585.08 -1.62043 1.2475 0
M  V30 15996 H 1583.24 -3.86914 0.193963 0
M  V30 15997 H 1583.65 -4.74968 2.22498 0
M  V30 15998 H 1585.13 -5.47824 0.677736 0
M  V30 15999 H 1585.6 -4.35209 -0.590734 0
M  V30 16000 H 1586.21 -4.11751 1.06493 0
M  V30 16001 N 1584.52 -0.695628 -1.41417 0
M  V30 16002 C 1585.76 -0.230776 -2.03093 0
M  V30 16003 C 1586.13 1.14793 -1.53904 0
M  V30 16004 O 1587.33 1.70864 -2.07507 0
M  V30 16005 C 1585.6 -0.286132 -3.56253 0
M  V30 16006 S 1587.16 0.104665 -4.38675 0
M  V30 16007 H 1583.98 -0.0929772 -0.704894 0
M  V30 16008 H 1586.58 -0.913417 -1.72849 0
M  V30 16009 H 1585.28 -1.29155 -3.89547 0
M  V30 16010 H 1584.81 0.415655 -3.91198 0
M  V30 16011 H 1586.83 1.33239 -4.77977 0
M  V30 16012 N 1586 1.51322 -0.440383 0
M  V30 16013 C 1587.28 1.94722 0.185148 0
M  V30 16014 C 1587.66 1.37922 1.59815 0
M  V30 16015 O 1587.01 0.567527 2.2134 0
M  V30 16016 C 1587.22 3.48634 0.159781 0
M  V30 16017 C 1588.56 4.23038 0.363853 0
M  V30 16018 O 1589.59 3.55406 0.237759 0
M  V30 16019 O 1588.45 5.43027 0.615137 0
M  V30 16020 H 1585.54 0.816983 0.128325 0
M  V30 16021 H 1588.09 1.62211 -0.498581 0
M  V30 16022 H 1586.86 3.8244 -0.827952 0
M  V30 16023 H 1586.48 3.87596 0.88629 0
M  V30 16024 N 1587.48 0.171848 1.5666 0
M  V30 16025 C 1588.44 -0.744316 2.16778 0
M  V30 16026 C 1589.44 -1.15769 1.11598 0
M  V30 16027 O 1590.63 -1.07456 1.37109 0
M  V30 16028 C 1587.76 -2.01319 2.75106 0
M  V30 16029 H 1588.96 -0.220952 2.99085 0
M  V30 16030 H 1586.51 -0.0777149 1.56107 0
M  V30 16031 H 1587.25 -2.57963 1.96534 0
M  V30 16032 H 1587.03 -1.72575 3.5208 0
M  V30 16033 H 1588.52 -2.667 3.21342 0
M  V30 16034 N 1588.96 -1.5727 -0.101874 0
M  V30 16035 C 1589.89 -2.04614 -1.12496 0
M  V30 16036 C 1590.87 -0.933768 -1.42179 0
M  V30 16037 O 1592.05 -1.2046 -1.52325 0
M  V30 16038 C 1589.18 -2.46488 -2.44665 0
M  V30 16039 C 1588.14 -3.61327 -2.29406 0
M  V30 16040 C 1587.46 -3.89155 -3.66691 0
M  V30 16041 C 1588.76 -4.92455 -1.74026 0
M  V30 16042 H 1590.46 -2.90336 -0.731109 0
M  V30 16043 H 1588 -1.39676 -0.350239 0
M  V30 16044 H 1589.96 -2.78216 -3.16502 0
M  V30 16045 H 1588.68 -1.57757 -2.85972 0
M  V30 16046 H 1587.34 -3.29835 -1.60015 0
M  V30 16047 H 1586.99 -2.97603 -4.05514 0
M  V30 16048 H 1586.69 -4.66465 -3.57329 0
M  V30 16049 H 1588.21 -4.23352 -4.40006 0
M  V30 16050 H 1589.63 -5.22609 -2.35697 0
M  V30 16051 H 1588.02 -5.73882 -1.75441 0
M  V30 16052 H 1589.09 -4.79833 -0.699136 0
M  V30 16053 N 1590.44 0.372521 -1.53134 0
M  V30 16054 C 1591.37 1.4759 -1.75357 0
M  V30 16055 C 1592.38 1.49938 -0.634223 0
M  V30 16056 O 1593.57 1.53543 -0.910322 0
M  V30 16057 C 1590.67 2.86382 -1.81214 0
M  V30 16058 C 1589.84 3.0781 -3.1076 0
M  V30 16059 C 1588.9 4.26677 -3.07949 0
M  V30 16060 O 1587.93 4.22186 -3.81769 0
M  V30 16061 N 1589.13 5.33729 -2.28283 0
M  V30 16062 H 1591.89 1.28908 -2.7056 0
M  V30 16063 H 1589.46 0.562186 -1.51826 0
M  V30 16064 H 1591.45 3.64029 -1.7682 0
M  V30 16065 H 1590.02 2.98344 -0.933249 0
M  V30 16066 H 1589.24 2.17884 -3.28512 0
M  V30 16067 H 1590.53 3.18991 -3.96386 0
M  V30 16068 H 1589.92 5.40238 -1.67806 0
M  V30 16069 H 1588.48 6.09979 -2.29714 0
M  V30 16070 N 1591.91 1.44376 0.631925 0
M  V30 16071 C 1592.88 1.50825 1.72582 0
M  V30 16072 C 1593.88 0.390379 1.55989 0
M  V30 16073 O 1595.07 0.65297 1.61499 0
M  V30 16074 C 1592.2 1.38141 3.11657 0
M  V30 16075 H 1593.39 2.48265 1.68239 0
M  V30 16076 H 1590.94 1.31456 0.845514 0
M  V30 16077 H 1591.68 0.417905 3.21596 0
M  V30 16078 H 1591.46 2.19198 3.25107 0
M  V30 16079 H 1592.95 1.45633 3.91383 0
M  V30 16080 N 1593.39 -0.872258 1.31261 0
M  V30 16081 C 1594.34 -1.97926 1.18718 0
M  V30 16082 C 1595.31 -1.65937 0.0735242 0
M  V30 16083 O 1596.49 -1.89208 0.245979 0
M  V30 16084 C 1593.63 -3.33208 0.898117 0
M  V30 16085 C 1592.75 -3.77808 2.09488 0
M  V30 16086 C 1591.88 -5.01796 1.74281 0
M  V30 16087 C 1590.92 -5.38838 2.90379 0
M  V30 16088 N 1590.06 -6.54007 2.55382 0
M  V30 16089 H 1594.9 -2.07986 2.13415 0
M  V30 16090 H 1592.43 -1.01821 1.06165 0
M  V30 16091 H 1594.39 -4.11095 0.711089 0
M  V30 16092 H 1593.02 -3.22798 -0.0120097 0
M  V30 16093 H 1592.07 -2.95722 2.39276 0
M  V30 16094 H 1593.39 -4.01191 2.96391 0
M  V30 16095 H 1592.54 -5.87344 1.52027 0
M  V30 16096 H 1591.28 -4.80312 0.845665 0
M  V30 16097 H 1590.28 -4.51811 3.13284 0
M  V30 16098 H 1591.51 -5.62289 3.80799 0
M  V30 16099 H 1589.46 -6.34073 1.68188 0
M  V30 16100 H 1589.37 -6.77322 3.35814 0
M  V30 16101 H 1590.64 -7.42752 2.36516 0
M  V30 16102 N 1594.87 -1.14184 -1.08627 0
M  V30 16103 C 1596.12 -0.91001 -1.81236 0
M  V30 16104 C 1596.45 0.562134 -1.85886 0
M  V30 16105 O 1595.72 1.41631 -1.33307 0
M  V30 16106 C 1596.01 -1.50879 -3.26967 0
M  V30 16107 C 1595.86 -3.05063 -3.3054 0
M  V30 16108 C 1597.18 -1.18379 -4.2388 0
M  V30 16109 H 1594.3 -0.332025 -0.657973 0
M  V30 16110 H 1596.94 -1.41144 -1.27194 0
M  V30 16111 H 1595.09 -1.08236 -3.73118 0
M  V30 16112 H 1596.76 -3.5652 -2.9273 0
M  V30 16113 H 1595 -3.39628 -2.6988 0
M  V30 16114 H 1595.68 -3.42064 -4.33239 0
M  V30 16115 H 1598.15 -1.55242 -3.86056 0
M  V30 16116 H 1597.03 -1.62911 -5.24167 0
M  V30 16117 H 1597.29 -0.0987385 -4.4199 0
M  V30 16118 N 1596.35 1.26749 -0.936613 0
M  V30 16119 C 1597.76 1.46284 -0.638218 0
M  V30 16120 C 1597.96 1.84509 0.80986 0
M  V30 16121 O 1597.02 1.96399 1.58693 0
M  V30 16122 C 1598.33 2.54867 -1.59573 0
M  V30 16123 C 1599.88 2.68721 -1.60493 0
M  V30 16124 C 1600.36 3.80471 -2.54963 0
M  V30 16125 N 1601.85 3.87857 -2.53221 0
M  V30 16126 C 1602.58 4.73767 -3.23005 0
M  V30 16127 N 1602.08 5.641 -4.02198 0
M  V30 16128 N 1603.87 4.67574 -3.11979 0
M  V30 16129 H 1596.02 1.00224 -1.87267 0
M  V30 16130 H 1598.29 0.501478 -0.804502 0
M  V30 16131 H 1597.99 2.33594 -2.62919 0
M  V30 16132 H 1597.87 3.52433 -1.34427 0
M  V30 16133 H 1600.25 2.8937 -0.578729 0
M  V30 16134 H 1600.33 1.71613 -1.89691 0
M  V30 16135 H 1599.98 3.60575 -3.57698 0
M  V30 16136 H 1599.91 4.77026 -2.23056 0
M  V30 16137 H 1602.4 3.23272 -1.95714 0
M  V30 16138 H 1602.71 6.26535 -4.52409 0
M  V30 16139 H 1601.06 5.63866 -4.063 0
M  V30 16140 H 1604.25 3.96004 -2.49596 0
M  V30 16141 H 1604.42 5.34308 -3.66633 0
M  V30 16142 N 1597.83 0.703118 1.41046 0
M  V30 16143 C 1598.74 0.0432777 2.3456 0
M  V30 16144 C 1599.75 -0.757704 1.56636 0
M  V30 16145 O 1600.93 -0.693531 1.89082 0
M  V30 16146 C 1597.99 -0.876385 3.35441 0
M  V30 16147 C 1597.05 -0.06676 4.29248 0
M  V30 16148 C 1596.29 -0.942622 5.2531 0
M  V30 16149 O 1596.51 -2.18205 5.27013 0
M  V30 16150 O 1595.44 -0.388266 6.00646 0
M  V30 16151 H 1599.27 0.814302 2.9258 0
M  V30 16152 H 1596.86 0.463503 1.42028 0
M  V30 16153 H 1598.74 -1.40353 3.9734 0
M  V30 16154 H 1597.41 -1.62677 2.79853 0
M  V30 16155 H 1596.32 0.505165 3.70674 0
M  V30 16156 H 1597.65 0.645128 4.87954 0
M  V30 16157 N 1599.3 -1.51086 0.448402 0
M  V30 16158 C 1600.53 -2.07081 -0.115038 0
M  V30 16159 C 1600.95 -1.31253 -1.34737 0
M  V30 16160 O 1600.31 -0.353613 -1.77818 0
M  V30 16161 C 1600.36 -3.58321 -0.404803 0
M  V30 16162 O 1599.46 -3.84567 -1.48936 0
M  V30 16163 H 1598.81 -0.663993 0.00299118 0
M  V30 16164 H 1601.34 -1.94564 0.632921 0
M  V30 16165 H 1601.35 -4.02756 -0.652013 0
M  V30 16166 H 1600.02 -4.12934 0.495838 0
M  V30 16167 H 1598.6 -3.51987 -1.23124 0
M  V30 16168 N 1600.78 -0.180154 -1.56567 0
M  V30 16169 C 1602.01 0.467861 -2.01233 0
M  V30 16170 C 1602.42 1.56754 -1.05948 0
M  V30 16171 O 1601.76 1.83621 -0.0539219 0
M  V30 16172 C 1601.83 1.09819 -3.42316 0
M  V30 16173 C 1601.49 0.139084 -4.56788 0
M  V30 16174 C 1602.49 -0.64592 -5.15872 0
M  V30 16175 C 1600.17 0.0323422 -5.0229 0
M  V30 16176 C 1602.17 -1.52478 -6.18894 0
M  V30 16177 C 1599.85 -0.850092 -6.05158 0
M  V30 16178 C 1600.85 -1.62723 -6.63333 0
M  V30 16179 O 1600.54 -2.4949 -7.64205 0
M  V30 16180 H 1600.27 0.12331 -0.664658 0
M  V30 16181 H 1602.82 -0.28166 -2.0346 0
M  V30 16182 H 1601.05 1.89601 -3.37029 0
M  V30 16183 H 1602.74 1.64931 -3.70881 0
M  V30 16184 H 1603.51 -0.573675 -4.81595 0
M  V30 16185 H 1599.39 0.627034 -4.56716 0
M  V30 16186 H 1602.93 -2.13182 -6.64228 0
M  V30 16187 H 1598.83 -0.923507 -6.3886 0
M  V30 16188 H 1599.6 -2.43104 -7.81564 0
M  V30 16189 N 1602.26 1.57322 0.0935319 0
M  V30 16190 C 1603.19 1.98861 1.13961 0
M  V30 16191 C 1604.21 0.891385 1.36228 0
M  V30 16192 O 1605.39 1.16949 1.34853 0
M  V30 16193 C 1602.49 2.29369 2.49485 0
M  V30 16194 C 1601.67 3.6066 2.47473 0
M  V30 16195 C 1600.73 3.79087 3.64937 0
M  V30 16196 O 1599.75 4.50923 3.47357 0
M  V30 16197 N 1600.95 3.19784 4.84478 0
M  V30 16198 H 1603.72 2.89208 0.786048 0
M  V30 16199 H 1601.28 1.59416 0.282491 0
M  V30 16200 H 1603.27 2.38889 3.26671 0
M  V30 16201 H 1601.84 1.45021 2.76925 0
M  V30 16202 H 1601.06 3.62095 1.55823 0
M  V30 16203 H 1602.35 4.46908 2.43209 0
M  V30 16204 H 1601.75 2.61436 5.01665 0
M  V30 16205 H 1600.31 3.34786 5.59251 0
M  V30 16206 N 1603.74 -0.364395 1.53329 0
M  V30 16207 C 1604.69 -1.44645 1.79851 0
M  V30 16208 C 1605.66 -1.53151 0.642951 0
M  V30 16209 O 1606.84 -1.6902 0.885252 0
M  V30 16210 C 1603.98 -2.81575 1.99523 0
M  V30 16211 C 1603.09 -2.82026 3.27239 0
M  V30 16212 C 1602.23 -4.1054 3.37091 0
M  V30 16213 C 1601.27 -4.05138 4.58835 0
M  V30 16214 N 1600.4 -5.25303 4.65834 0
M  V30 16215 H 1605.24 -1.21329 2.72182 0
M  V30 16216 H 1602.78 -0.588143 1.34831 0
M  V30 16217 H 1604.74 -3.61124 2.08915 0
M  V30 16218 H 1603.37 -3.03288 1.10527 0
M  V30 16219 H 1602.42 -1.94704 3.26794 0
M  V30 16220 H 1603.73 -2.73907 4.16865 0
M  V30 16221 H 1602.89 -4.98504 3.45801 0
M  V30 16222 H 1601.63 -4.21413 2.45483 0
M  V30 16223 H 1600.63 -3.1556 4.50224 0
M  V30 16224 H 1601.86 -3.95866 5.51785 0
M  V30 16225 H 1599.8 -5.36759 3.77128 0
M  V30 16226 H 1599.72 -5.19358 5.49367 0
M  V30 16227 H 1600.99 -6.15096 4.78829 0
M  V30 16228 O 1605.26 -1.53224 -0.51037 0
M  V30 16229 H 1605.95 -1.54724 -1.16534 0
M  V30 END ATOM
M  V30 BEGIN BOND
M  V30 END BOND
M  V30 END CTAB
M  END
$$$$
