drugbank_target|Q13426 DNA repair protein XRCC4 (DB03963)
 OpenBabel12092119563D

  0  0  0     0  0            999 V3000
M  V30 BEGIN CTAB
M  V30 COUNTS 12865 13778 0 0 0
M  V30 BEGIN ATOM
M  V30 1 H -1.547 9.37743 -1.21644 0
M  V30 2 O -1.44 8.89599 -0.40059 0
M  V30 3 P 0 8.91 0 0
M  V30 4 O 0.22 10.1746 0.733838 0
M  V30 5 O 0.79 8.73346 -1.23964 0
M  V30 6 O 0.25 7.66872 0.971405 0
M  V30 7 C -0.69 7.42405 2.04668 0
M  V30 8 C 0.04 6.86059 3.24661 0
M  V30 9 O 0.25 5.42934 3.03695 0
M  V30 10 C 1.44 7.41287 3.50796 0
M  V30 11 O 1.83 7.27073 4.86816 0
M  V30 12 C 2.32 6.5273 2.63741 0
M  V30 13 C 1.61 5.1842 2.73198 0
M  V30 14 N 1.66 4.38762 1.4784 0
M  V30 15 H -1.178 8.36899 2.3252 0
M  V30 16 H -1.45 6.70391 1.71179 0
M  V30 17 H -0.582 7.03638 4.13219 0
M  V30 18 H 2.073 4.59931 3.54016 0
M  V30 19 H 2.353 6.88995 1.59871 0
M  V30 20 H 3.344 6.4684 3.0373 0
M  V30 21 H 1.51 8.47002 3.20749 0
M  V30 22 P 3.37998 7.20834 5.23717 0
M  V30 23 O 3.59998 7.79853 6.57286 0
M  V30 24 O 4.16998 7.79239 4.12957 0
M  V30 25 O 3.62998 5.63315 5.29344 0
M  V30 26 C 2.68998 4.80255 6.01876 0
M  V30 27 C 3.41998 3.64202 6.65911 0
M  V30 28 O 3.62998 2.60694 5.64732 0
M  V30 29 C 4.81998 3.93473 7.1943 0
M  V30 30 O 5.20998 3.02071 8.21205 0
M  V30 31 C 5.69998 3.73047 5.97036 0
M  V30 32 C 4.98998 2.58828 5.25741 0
M  V30 33 N 5.03998 2.68068 3.77503 0
M  V30 34 H 2.20098 5.40332 6.79951 0
M  V30 35 H 1.93098 4.41613 5.32378 0
M  V30 36 H 2.79798 3.26331 7.47797 0
M  V30 37 P 6.75996 2.75334 8.47391 0
M  V30 38 O 6.97996 2.44571 9.90142 0
M  V30 39 O 7.54996 3.87688 7.92115 0
M  V30 40 O 7.00996 1.4459 7.59357 0
M  V30 41 C 6.06996 0.347608 7.69215 0
M  V30 42 C 6.79996 -0.96767 7.52806 0
M  V30 43 O 7.00996 -1.21036 6.1011 0
M  V30 44 C 8.19996 -1.04544 8.13308 0
M  V30 45 O 8.58996 -2.38311 8.41922 0
M  V30 46 C 9.07996 -0.491279 7.02284 0
M  V30 47 C 8.36996 -0.996264 5.77469 0
M  V30 48 N 8.41996 -0.0501916 4.62973 0
M  V30 49 C 8.33996 1.32786 4.63244 0
M  V30 50 N 8.41996 1.86957 3.44545 0
M  V30 51 C 8.55996 0.780241 2.58481 0
M  V30 52 C 8.68996 0.738536 1.17757 0
M  V30 53 N 8.80996 -0.58337 0.711393 0
M  V30 54 C 8.80996 -1.70816 1.51017 0
M  V30 55 N 8.93996 -2.87826 0.880757 0
M  V30 56 N 8.67996 -1.67126 2.8339 0
M  V30 57 C 8.55996 -0.401421 3.30572 0
M  V30 58 H 5.58096 0.374722 8.67691 0
M  V30 59 H 5.31096 0.443485 6.90277 0
M  V30 60 H 6.17796 -1.75537 7.96793 0
M  V30 61 P 10.1399 -2.75334 8.47391 0
M  V30 62 O 10.3599 -3.84128 9.44797 0
M  V30 63 O 10.9299 -1.51947 8.68712 0
M  V30 64 O 10.3899 -3.29363 6.99321 0
M  V30 65 C 9.44994 -4.24011 6.4274 0
M  V30 66 C 10.1799 -5.20775 5.52155 0
M  V30 67 O 10.3899 -4.56534 4.22446 0
M  V30 68 C 11.5799 -5.62629 5.96531 0
M  V30 69 O 11.9699 -6.87667 5.41053 0
M  V30 70 C 12.4599 -4.52537 5.39283 0
M  V30 71 C 11.7499 -4.20027 4.08623 0
M  V30 72 N 11.7999 -2.76189 3.71603 0
M  V30 73 H 8.96094 -4.797 7.24003 0
M  V30 74 H 8.69094 -3.69856 5.84513 0
M  V30 75 H 9.55794 -6.10356 5.41441 0
M  V30 76 P 13.5199 -7.20834 5.23717 0
M  V30 77 O 13.7399 -8.66104 5.38572 0
M  V30 78 O 14.3099 -6.33544 6.1349 0
M  V30 79 O 13.7699 -6.7751 3.72168 0
M  V30 80 C 12.8299 -7.20825 2.7076 0
M  V30 81 C 13.5599 -7.45864 1.40599 0
M  V30 82 O 13.7699 -6.17651 0.734225 0
M  V30 83 C 14.9599 -8.05808 1.51899 0
M  V30 84 O 15.3499 -8.74358 0.335205 0
M  V30 85 C 15.8399 -6.83093 1.70294 0
M  V30 86 C 15.1299 -5.79992 0.836974 0
M  V30 87 N 15.1799 -4.41864 1.38293 0
M  V30 88 H 12.3409 -8.13644 3.0377 0
M  V30 89 H 12.0709 -6.42788 2.55485 0
M  V30 90 H 12.9379 -8.12039 0.792769 0
M  V30 91 P 16.8999 -8.91 1.09116e-15 0
M  V30 92 O 17.1199 -10.1726 -0.733694 0
M  V30 93 O 17.6899 -8.73148 1.23936 0
M  V30 94 O 17.1499 -7.66872 -0.971405 0
M  V30 95 C 16.2099 -7.42309 -2.04641 0
M  V30 96 C 16.9399 -6.86059 -3.24661 0
M  V30 97 O 17.1499 -5.42847 -3.03646 0
M  V30 98 C 18.3399 -7.41196 -3.50753 0
M  V30 99 O 18.7299 -7.27073 -4.86816 0
M  V30 100 C 19.2199 -6.5273 -2.63741 0
M  V30 101 C 18.5099 -5.1842 -2.73198 0
M  V30 102 N 18.5599 -4.38762 -1.4784 0
M  V30 103 H 15.7209 -8.36803 -2.32493 0
M  V30 104 H 15.4509 -6.70197 -1.71129 0
M  V30 105 H 16.3179 -7.03551 -4.13168 0
M  V30 106 P 20.2799 -7.20834 -5.23717 0
M  V30 107 O 20.4999 -7.79853 -6.57286 0
M  V30 108 O 21.0699 -7.79239 -4.12957 0
M  V30 109 O 20.5299 -5.63315 -5.29344 0
M  V30 110 C 19.5899 -4.80255 -6.01876 0
M  V30 111 C 20.3199 -3.64202 -6.65911 0
M  V30 112 O 20.5299 -2.60694 -5.64732 0
M  V30 113 C 21.7199 -3.93473 -7.1943 0
M  V30 114 O 22.1099 -3.02071 -8.21205 0
M  V30 115 C 22.5999 -3.73047 -5.97036 0
M  V30 116 C 21.8899 -2.58828 -5.25741 0
M  V30 117 N 21.9399 -2.68068 -3.77503 0
M  V30 118 C 21.8599 -3.79715 -2.96723 0
M  V30 119 N 21.9399 -3.5377 -1.68852 0
M  V30 120 C 22.0799 -2.15054 -1.63254 0
M  V30 121 C 22.2099 -1.28964 -0.518571 0
M  V30 122 N 22.3299 0.0538097 -0.918425 0
M  V30 123 C 22.3299 0.494275 -2.22578 0
M  V30 124 N 22.4599 1.81086 -2.40434 0
M  V30 125 N 22.1999 -0.313645 -3.27502 0
M  V30 126 C 22.0799 -1.61829 -2.91033 0
M  V30 127 H 19.1009 -5.40332 -6.79951 0
M  V30 128 H 18.8309 -4.41613 -5.32378 0
M  V30 129 H 19.6979 -3.26331 -7.47797 0
M  V30 130 P 23.6599 -2.75334 -8.47391 0
M  V30 131 O 23.8799 -2.44571 -9.90142 0
M  V30 132 O 24.4499 -3.87688 -7.92115 0
M  V30 133 O 23.9099 -1.4459 -7.59357 0
M  V30 134 C 22.9699 -0.347608 -7.69215 0
M  V30 135 C 23.6999 0.96767 -7.52806 0
M  V30 136 O 23.9099 1.21036 -6.1011 0
M  V30 137 C 25.0999 1.04544 -8.13308 0
M  V30 138 O 25.4899 2.38311 -8.41922 0
M  V30 139 C 25.9799 0.491279 -7.02284 0
M  V30 140 C 25.2699 0.996264 -5.77469 0
M  V30 141 N 25.3199 0.0501916 -4.62973 0
M  V30 142 H 22.4809 -0.374722 -8.67691 0
M  V30 143 H 22.2109 -0.443485 -6.90277 0
M  V30 144 H 23.0779 1.75537 -7.96793 0
M  V30 145 P 27.0398 2.75334 -8.47391 0
M  V30 146 O 27.2598 3.84204 -9.44982 0
M  V30 147 O 27.8298 1.51982 -8.68909 0
M  V30 148 O 27.2898 3.29363 -6.99321 0
M  V30 149 C 26.3498 4.24066 -6.42823 0
M  V30 150 C 27.0798 5.20775 -5.52155 0
M  V30 151 O 27.2898 4.56607 -4.22514 0
M  V30 152 C 28.4798 5.62697 -5.96604 0
M  V30 153 O 28.8698 6.87667 -5.41053 0
M  V30 154 C 29.3598 4.52537 -5.39283 0
M  V30 155 C 28.6498 4.20027 -4.08623 0
M  V30 156 N 28.6998 2.76189 -3.71603 0
M  V30 157 H 25.8618 4.79756 -7.24086 0
M  V30 158 H 25.5898 3.69963 -5.84682 0
M  V30 159 H 26.4578 6.10431 -5.41508 0
M  V30 160 H 29.1128 4.78816 -3.28024 0
M  V30 161 H 29.3928 3.64957 -6.05871 0
M  V30 162 H 30.3838 4.88748 -5.21323 0
M  V30 163 H 28.5498 5.66789 -7.0643 0
M  V30 164 P 30.4198 7.20834 -5.23717 0
M  V30 165 O 30.6398 8.66104 -5.38572 0
M  V30 166 O 31.2098 6.33544 -6.1349 0
M  V30 167 O 30.6698 6.7751 -3.72168 0
M  V30 168 C 29.7298 7.20825 -2.7076 0
M  V30 169 C 30.4598 7.45864 -1.40599 0
M  V30 170 O 30.6698 6.17651 -0.734225 0
M  V30 171 C 31.8598 8.05808 -1.51899 0
M  V30 172 O 32.2498 8.74358 -0.335205 0
M  V30 173 C 32.7398 6.83093 -1.70294 0
M  V30 174 C 32.0298 5.79992 -0.836974 0
M  V30 175 N 32.0798 4.41864 -1.38293 0
M  V30 176 H 29.2408 8.13644 -3.0377 0
M  V30 177 H 28.9708 6.42788 -2.55485 0
M  V30 178 H 29.8378 8.12039 -0.792769 0
M  V30 179 P 33.7998 8.91 -2.18232e-15 0
M  V30 180 O 34.0198 10.1726 0.733694 0
M  V30 181 O 34.5898 8.73148 -1.23936 0
M  V30 182 O 34.0498 7.66872 0.971405 0
M  V30 183 C 33.1098 7.42309 2.04641 0
M  V30 184 C 33.8398 6.86059 3.24661 0
M  V30 185 O 34.0498 5.42847 3.03646 0
M  V30 186 C 35.2398 7.41196 3.50753 0
M  V30 187 O 35.6298 7.27073 4.86816 0
M  V30 188 C 36.1198 6.5273 2.63741 0
M  V30 189 C 35.4098 5.1842 2.73198 0
M  V30 190 N 35.4598 4.38762 1.4784 0
M  V30 191 H 32.6208 8.36803 2.32493 0
M  V30 192 H 32.3508 6.70197 1.71129 0
M  V30 193 H 33.2178 7.03551 4.13168 0
M  V30 194 P 37.1798 7.20834 5.23717 0
M  V30 195 O 37.3998 7.79853 6.57286 0
M  V30 196 O 37.9698 7.79239 4.12957 0
M  V30 197 O 37.4298 5.63315 5.29344 0
M  V30 198 C 36.4898 4.80255 6.01876 0
M  V30 199 C 37.2198 3.64202 6.65911 0
M  V30 200 O 37.4298 2.60694 5.64732 0
M  V30 201 C 38.6198 3.93473 7.1943 0
M  V30 202 O 39.0098 3.02071 8.21205 0
M  V30 203 C 39.4998 3.73047 5.97036 0
M  V30 204 C 38.7898 2.58828 5.25741 0
M  V30 205 N 38.8398 2.68068 3.77503 0
M  V30 206 H 36.0008 5.40332 6.79951 0
M  V30 207 H 35.7308 4.41613 5.32378 0
M  V30 208 H 36.5978 3.26331 7.47797 0
M  V30 209 P 40.5598 2.75334 8.47391 0
M  V30 210 O 40.7798 2.44571 9.90142 0
M  V30 211 O 41.3498 3.87688 7.92115 0
M  V30 212 O 40.8098 1.4459 7.59357 0
M  V30 213 C 39.8698 0.347608 7.69215 0
M  V30 214 C 40.5998 -0.96767 7.52806 0
M  V30 215 O 40.8098 -1.21036 6.1011 0
M  V30 216 C 41.9998 -1.04544 8.13308 0
M  V30 217 O 42.3898 -2.38311 8.41922 0
M  V30 218 C 42.8798 -0.491279 7.02284 0
M  V30 219 C 42.1698 -0.996264 5.77469 0
M  V30 220 N 42.2198 -0.0501916 4.62973 0
M  V30 221 H 39.3808 0.374722 8.67691 0
M  V30 222 H 39.1108 0.443485 6.90277 0
M  V30 223 H 39.9778 -1.75537 7.96793 0
M  V30 224 P 43.9397 -2.75334 8.47391 0
M  V30 225 O 44.1597 -3.84128 9.44797 0
M  V30 226 O 44.7297 -1.51947 8.68712 0
M  V30 227 O 44.1897 -3.29363 6.99321 0
M  V30 228 C 43.2497 -4.24011 6.4274 0
M  V30 229 C 43.9797 -5.20775 5.52155 0
M  V30 230 O 44.1897 -4.56534 4.22446 0
M  V30 231 C 45.3797 -5.62629 5.96531 0
M  V30 232 O 45.7697 -6.87667 5.41053 0
M  V30 233 C 46.2597 -4.52537 5.39283 0
M  V30 234 C 45.5497 -4.20027 4.08623 0
M  V30 235 N 45.5997 -2.76189 3.71603 0
M  V30 236 H 42.7607 -4.797 7.24003 0
M  V30 237 H 42.4907 -3.69856 5.84513 0
M  V30 238 H 43.3577 -6.10356 5.41441 0
M  V30 239 P 47.3197 -7.20834 5.23717 0
M  V30 240 O 47.5397 -8.66104 5.38572 0
M  V30 241 O 48.1097 -6.33544 6.1349 0
M  V30 242 O 47.5697 -6.7751 3.72168 0
M  V30 243 C 46.6297 -7.20825 2.7076 0
M  V30 244 C 47.3597 -7.45864 1.40599 0
M  V30 245 O 47.5697 -6.17651 0.734225 0
M  V30 246 C 48.7597 -8.05808 1.51899 0
M  V30 247 O 49.1497 -8.74358 0.335205 0
M  V30 248 C 49.6397 -6.83093 1.70294 0
M  V30 249 C 48.9297 -5.79992 0.836974 0
M  V30 250 N 48.9797 -4.41864 1.38293 0
M  V30 251 H 46.1407 -8.13644 3.0377 0
M  V30 252 H 45.8707 -6.42788 2.55485 0
M  V30 253 H 46.7377 -8.12039 0.792769 0
M  V30 254 P 50.6997 -8.91 3.27348e-15 0
M  V30 255 O 50.9197 -10.1726 -0.733694 0
M  V30 256 O 51.4897 -8.73148 1.23936 0
M  V30 257 O 50.9497 -7.66872 -0.971405 0
M  V30 258 C 50.0097 -7.42309 -2.04641 0
M  V30 259 C 50.7397 -6.86059 -3.24661 0
M  V30 260 O 50.9497 -5.42847 -3.03646 0
M  V30 261 C 52.1397 -7.41196 -3.50753 0
M  V30 262 O 52.5297 -7.27073 -4.86816 0
M  V30 263 C 53.0197 -6.5273 -2.63741 0
M  V30 264 C 52.3097 -5.1842 -2.73198 0
M  V30 265 N 52.3597 -4.38762 -1.4784 0
M  V30 266 H 49.5207 -8.36803 -2.32493 0
M  V30 267 H 49.2507 -6.70197 -1.71129 0
M  V30 268 H 50.1177 -7.03551 -4.13168 0
M  V30 269 P 54.0797 -7.20834 -5.23717 0
M  V30 270 O 54.2997 -7.7993 -6.57351 0
M  V30 271 O 54.8697 -7.79328 -4.13004 0
M  V30 272 O 54.3297 -5.63315 -5.29344 0
M  V30 273 C 53.3897 -4.80193 -6.01798 0
M  V30 274 C 54.1197 -3.64202 -6.65911 0
M  V30 275 O 54.3297 -2.60694 -5.64732 0
M  V30 276 C 55.5197 -3.93473 -7.1943 0
M  V30 277 O 55.9097 -3.02071 -8.21205 0
M  V30 278 C 56.3997 -3.73047 -5.97036 0
M  V30 279 C 55.6897 -2.58828 -5.25741 0
M  V30 280 N 55.7397 -2.6801 -3.77422 0
M  V30 281 C 55.8897 -1.50443 -3.07133 0
M  V30 282 O 55.9797 -0.419406 -3.61576 0
M  V30 283 N 55.9297 -1.6403 -1.69677 0
M  V30 284 C 55.8397 -2.81206 -0.986255 0
M  V30 285 O 55.8897 -2.80892 0.249754 0
M  V30 286 C 55.6897 -3.99158 -1.80325 0
M  V30 287 C 55.5797 -5.29309 -1.06921 0
M  V30 288 C 55.6397 -3.89779 -3.1476 0
M  V30 289 H 52.8997 -5.40332 -6.79951 0
M  V30 290 H 52.6307 -4.41549 -5.32301 0
M  V30 291 H 53.4977 -3.26331 -7.47797 0
M  V30 292 H 56.1527 -1.6395 -5.56554 0
M  V30 293 H 56.4317 -4.63439 -5.3432 0
M  V30 294 H 57.4237 -3.44728 -6.25838 0
M  V30 295 H 55.5897 -4.96652 -7.57263 0
M  V30 296 H 55.5187 -4.80159 -3.74441 0
M  V30 297 H 56.5487 -5.81459 -1.09608 0
M  V30 298 H 54.8117 -5.9187 -1.54487 0
M  V30 299 H 55.2997 -5.10095 -0.0220288 0
M  V30 300 H 56.0357 -0.798962 -1.16664 0
M  V30 301 P 57.4597 -2.75334 -8.47391 0
M  V30 302 O 57.6797 -2.44619 -9.90336 0
M  V30 303 O 58.2497 -3.87776 -7.92294 0
M  V30 304 O 57.7097 -1.4459 -7.59357 0
M  V30 305 C 56.7697 -0.347653 -7.69315 0
M  V30 306 C 57.4997 0.96767 -7.52806 0
M  V30 307 O 57.7097 1.21055 -6.10208 0
M  V30 308 C 58.8997 1.04557 -8.13408 0
M  V30 309 O 59.2897 2.38311 -8.41922 0
M  V30 310 C 59.7797 0.491279 -7.02284 0
M  V30 311 C 59.0697 0.996264 -5.77469 0
M  V30 312 N 59.1197 0.0501916 -4.62973 0
M  V30 313 H 56.2817 -0.374765 -8.67791 0
M  V30 314 H 56.0097 -0.443613 -6.90476 0
M  V30 315 H 56.8777 1.75559 -7.96891 0
M  V30 316 H 59.5327 1.94563 -5.46818 0
M  V30 317 H 59.8127 -0.608651 -7.04676 0
M  V30 318 H 60.8037 0.889796 -7.09039 0
M  V30 319 H 58.9697 0.433128 -9.04664 0
M  V30 320 P 60.8396 2.75334 -8.47391 0
M  V30 321 O 61.0596 3.84128 -9.44797 0
M  V30 322 O 61.6296 1.51947 -8.68712 0
M  V30 323 O 61.0896 3.29363 -6.99321 0
M  V30 324 C 60.1496 4.24011 -6.4274 0
M  V30 325 C 60.8796 5.20775 -5.52155 0
M  V30 326 O 61.0896 4.56534 -4.22446 0
M  V30 327 C 62.2796 5.62629 -5.96531 0
M  V30 328 O 62.6696 6.87667 -5.41053 0
M  V30 329 C 63.1596 4.52537 -5.39283 0
M  V30 330 C 62.4496 4.20027 -4.08623 0
M  V30 331 N 62.4996 2.76189 -3.71603 0
M  V30 332 H 59.6606 4.797 -7.24003 0
M  V30 333 H 59.3906 3.69856 -5.84513 0
M  V30 334 H 60.2576 6.10356 -5.41441 0
M  V30 335 P 64.2196 7.20834 -5.23717 0
M  V30 336 O 64.4396 8.66104 -5.38572 0
M  V30 337 O 65.0096 6.33544 -6.1349 0
M  V30 338 O 64.4696 6.7751 -3.72168 0
M  V30 339 C 63.5296 7.20825 -2.7076 0
M  V30 340 C 64.2596 7.45864 -1.40599 0
M  V30 341 O 64.4696 6.17651 -0.734225 0
M  V30 342 C 65.6596 8.05808 -1.51899 0
M  V30 343 O 66.0496 8.74358 -0.335205 0
M  V30 344 C 66.5396 6.83093 -1.70294 0
M  V30 345 C 65.8296 5.79992 -0.836974 0
M  V30 346 N 65.8796 4.41864 -1.38293 0
M  V30 347 H 63.0406 8.13644 -3.0377 0
M  V30 348 H 62.7706 6.42788 -2.55485 0
M  V30 349 H 63.6376 8.12039 -0.792769 0
M  V30 350 P 67.5996 8.91 -4.36464e-15 0
M  V30 351 O 67.8196 10.1726 0.733694 0
M  V30 352 O 68.3896 8.73148 -1.23936 0
M  V30 353 O 67.8496 7.66872 0.971405 0
M  V30 354 C 66.9096 7.42309 2.04641 0
M  V30 355 C 67.6396 6.86059 3.24661 0
M  V30 356 O 67.8496 5.42847 3.03646 0
M  V30 357 C 69.0396 7.41196 3.50753 0
M  V30 358 O 69.4296 7.27073 4.86816 0
M  V30 359 C 69.9196 6.5273 2.63741 0
M  V30 360 C 69.2096 5.1842 2.73198 0
M  V30 361 N 69.2596 4.38762 1.4784 0
M  V30 362 H 66.4206 8.36803 2.32493 0
M  V30 363 H 66.1506 6.70197 1.71129 0
M  V30 364 H 67.0176 7.03551 4.13168 0
M  V30 365 P 70.9796 7.20834 5.23717 0
M  V30 366 O 71.1996 7.79853 6.57286 0
M  V30 367 O 71.7696 7.79239 4.12957 0
M  V30 368 O 71.2296 5.63315 5.29344 0
M  V30 369 C 70.2896 4.80255 6.01876 0
M  V30 370 C 71.0196 3.64202 6.65911 0
M  V30 371 O 71.2296 2.60694 5.64732 0
M  V30 372 C 72.4196 3.93473 7.1943 0
M  V30 373 O 72.8096 3.02071 8.21205 0
M  V30 374 C 73.2996 3.73047 5.97036 0
M  V30 375 C 72.5896 2.58828 5.25741 0
M  V30 376 N 72.6396 2.68068 3.77503 0
M  V30 377 H 69.8006 5.40332 6.79951 0
M  V30 378 H 69.5306 4.41613 5.32378 0
M  V30 379 H 70.3976 3.26331 7.47797 0
M  V30 380 P 74.3596 2.75334 8.47391 0
M  V30 381 O 74.5796 2.44571 9.90142 0
M  V30 382 O 75.1496 3.87688 7.92115 0
M  V30 383 O 74.6096 1.4459 7.59357 0
M  V30 384 C 73.6696 0.347608 7.69215 0
M  V30 385 C 74.3996 -0.96767 7.52806 0
M  V30 386 O 74.6096 -1.21036 6.1011 0
M  V30 387 C 75.7996 -1.04544 8.13308 0
M  V30 388 O 76.1896 -2.38311 8.41922 0
M  V30 389 C 76.6796 -0.491279 7.02284 0
M  V30 390 C 75.9696 -0.996264 5.77469 0
M  V30 391 N 76.0196 -0.0501916 4.62973 0
M  V30 392 H 73.1806 0.374722 8.67691 0
M  V30 393 H 72.9106 0.443485 6.90277 0
M  V30 394 H 73.7776 -1.75537 7.96793 0
M  V30 395 P 77.7395 -2.75334 8.47391 0
M  V30 396 O 77.9595 -3.84204 9.44982 0
M  V30 397 O 78.5295 -1.51982 8.68909 0
M  V30 398 O 77.9895 -3.29363 6.99321 0
M  V30 399 C 77.0495 -4.24066 6.42823 0
M  V30 400 C 77.7795 -5.20775 5.52155 0
M  V30 401 O 77.9895 -4.56607 4.22514 0
M  V30 402 C 79.1795 -5.62697 5.96604 0
M  V30 403 O 79.5695 -6.87667 5.41053 0
M  V30 404 C 80.0595 -4.52537 5.39283 0
M  V30 405 C 79.3495 -4.20027 4.08623 0
M  V30 406 N 79.3995 -2.76189 3.71603 0
M  V30 407 H 76.5615 -4.79756 7.24086 0
M  V30 408 H 76.2895 -3.69963 5.84682 0
M  V30 409 H 77.1575 -6.10431 5.41508 0
M  V30 410 H 79.8125 -4.78816 3.28024 0
M  V30 411 H 80.0925 -3.64957 6.05871 0
M  V30 412 H 81.0835 -4.88748 5.21323 0
M  V30 413 H 79.2495 -5.66789 7.0643 0
M  V30 414 P 81.1195 -7.20834 5.23717 0
M  V30 415 O 81.3395 -8.66104 5.38572 0
M  V30 416 O 81.9095 -6.33544 6.1349 0
M  V30 417 O 81.3695 -6.7751 3.72168 0
M  V30 418 C 80.4295 -7.20825 2.7076 0
M  V30 419 C 81.1595 -7.45864 1.40599 0
M  V30 420 O 81.3695 -6.17651 0.734225 0
M  V30 421 C 82.5595 -8.05808 1.51899 0
M  V30 422 O 82.9495 -8.74358 0.335205 0
M  V30 423 C 83.4395 -6.83093 1.70294 0
M  V30 424 C 82.7295 -5.79992 0.836974 0
M  V30 425 N 82.7795 -4.41864 1.38293 0
M  V30 426 H 79.9405 -8.13644 3.0377 0
M  V30 427 H 79.6705 -6.42788 2.55485 0
M  V30 428 H 80.5375 -8.12039 0.792769 0
M  V30 429 P 84.4995 -8.91 5.4558e-15 0
M  V30 430 O 84.7195 -10.1726 -0.733694 0
M  V30 431 O 85.2895 -8.73148 1.23936 0
M  V30 432 O 84.7495 -7.66872 -0.971405 0
M  V30 433 C 83.8095 -7.42309 -2.04641 0
M  V30 434 C 84.5395 -6.86059 -3.24661 0
M  V30 435 O 84.7495 -5.42847 -3.03646 0
M  V30 436 C 85.9395 -7.41196 -3.50753 0
M  V30 437 O 86.3295 -7.27073 -4.86816 0
M  V30 438 C 86.8195 -6.5273 -2.63741 0
M  V30 439 C 86.1095 -5.1842 -2.73198 0
M  V30 440 N 86.1595 -4.38762 -1.4784 0
M  V30 441 H 83.3205 -8.36803 -2.32493 0
M  V30 442 H 83.0505 -6.70197 -1.71129 0
M  V30 443 H 83.9175 -7.03551 -4.13168 0
M  V30 444 P 87.8795 -7.20834 -5.23717 0
M  V30 445 O 88.0995 -7.7993 -6.57351 0
M  V30 446 O 88.6695 -7.79328 -4.13004 0
M  V30 447 O 88.1295 -5.63315 -5.29344 0
M  V30 448 C 87.1895 -4.80193 -6.01798 0
M  V30 449 C 87.9195 -3.64202 -6.65911 0
M  V30 450 O 88.1295 -2.60694 -5.64732 0
M  V30 451 C 89.3195 -3.93473 -7.1943 0
M  V30 452 O 89.7095 -3.02071 -8.21205 0
M  V30 453 C 90.1995 -3.73047 -5.97036 0
M  V30 454 C 89.4895 -2.58828 -5.25741 0
M  V30 455 N 89.5395 -2.6801 -3.77422 0
M  V30 456 C 89.6895 -1.50443 -3.07133 0
M  V30 457 O 89.7795 -0.419406 -3.61576 0
M  V30 458 N 89.7295 -1.6403 -1.69677 0
M  V30 459 C 89.6395 -2.81206 -0.986255 0
M  V30 460 O 89.6895 -2.80892 0.249754 0
M  V30 461 C 89.4895 -3.99158 -1.80325 0
M  V30 462 C 89.3795 -5.29309 -1.06921 0
M  V30 463 C 89.4395 -3.89779 -3.1476 0
M  V30 464 H 86.6995 -5.40332 -6.79951 0
M  V30 465 H 86.4305 -4.41549 -5.32301 0
M  V30 466 H 87.2975 -3.26331 -7.47797 0
M  V30 467 H 89.9525 -1.6395 -5.56554 0
M  V30 468 H 90.2315 -4.63439 -5.3432 0
M  V30 469 H 91.2235 -3.44728 -6.25838 0
M  V30 470 H 89.3895 -4.96652 -7.57263 0
M  V30 471 H 89.3185 -4.80159 -3.74441 0
M  V30 472 H 90.3485 -5.81459 -1.09608 0
M  V30 473 H 88.6115 -5.9187 -1.54487 0
M  V30 474 H 89.0995 -5.10095 -0.0220288 0
M  V30 475 H 89.8355 -0.798962 -1.16664 0
M  V30 476 P 91.2595 -2.75334 -8.47391 0
M  V30 477 O 91.4795 -2.44571 -9.90142 0
M  V30 478 O 92.0495 -3.87688 -7.92115 0
M  V30 479 O 91.5095 -1.4459 -7.59357 0
M  V30 480 C 90.5695 -0.347608 -7.69215 0
M  V30 481 C 91.2995 0.96767 -7.52806 0
M  V30 482 O 91.5095 1.21036 -6.1011 0
M  V30 483 C 92.6995 1.04544 -8.13308 0
M  V30 484 O 93.0895 2.38311 -8.41922 0
M  V30 485 C 93.5795 0.491279 -7.02284 0
M  V30 486 C 92.8695 0.996264 -5.77469 0
M  V30 487 N 92.9195 0.0501916 -4.62973 0
M  V30 488 H 90.0805 -0.374722 -8.67691 0
M  V30 489 H 89.8105 -0.443485 -6.90277 0
M  V30 490 H 90.6775 1.75537 -7.96793 0
M  V30 491 P 94.6394 2.75334 -8.47391 0
M  V30 492 O 94.8594 3.84128 -9.44797 0
M  V30 493 O 95.4294 1.51947 -8.68712 0
M  V30 494 O 94.8894 3.29363 -6.99321 0
M  V30 495 C 93.9494 4.24011 -6.4274 0
M  V30 496 C 94.6794 5.20775 -5.52155 0
M  V30 497 O 94.8894 4.56534 -4.22446 0
M  V30 498 C 96.0794 5.62629 -5.96531 0
M  V30 499 O 96.4694 6.87667 -5.41053 0
M  V30 500 C 96.9594 4.52537 -5.39283 0
M  V30 501 C 96.2494 4.20027 -4.08623 0
M  V30 502 N 96.2994 2.76189 -3.71603 0
M  V30 503 H 93.4604 4.797 -7.24003 0
M  V30 504 H 93.1904 3.69856 -5.84513 0
M  V30 505 H 94.0574 6.10356 -5.41441 0
M  V30 506 P 98.0194 7.20834 -5.23717 0
M  V30 507 O 98.2394 8.66104 -5.38572 0
M  V30 508 O 98.8094 6.33544 -6.1349 0
M  V30 509 O 98.2694 6.7751 -3.72168 0
M  V30 510 C 97.3294 7.20825 -2.7076 0
M  V30 511 C 98.0594 7.45864 -1.40599 0
M  V30 512 O 98.2694 6.17651 -0.734225 0
M  V30 513 C 99.4594 8.05808 -1.51899 0
M  V30 514 O 99.8494 8.74358 -0.335205 0
M  V30 515 C 100.339 6.83093 -1.70294 0
M  V30 516 C 99.6294 5.79992 -0.836974 0
M  V30 517 N 99.6794 4.41864 -1.38293 0
M  V30 518 H 96.8404 8.13644 -3.0377 0
M  V30 519 H 96.5704 6.42788 -2.55485 0
M  V30 520 H 97.4374 8.12039 -0.792769 0
M  V30 521 P 101.399 8.91 -6.54696e-15 0
M  V30 522 O 101.619 10.1726 0.733694 0
M  V30 523 O 102.189 8.73148 -1.23936 0
M  V30 524 O 101.649 7.66872 0.971405 0
M  V30 525 C 100.709 7.42309 2.04641 0
M  V30 526 C 101.439 6.86059 3.24661 0
M  V30 527 O 101.649 5.42847 3.03646 0
M  V30 528 C 102.839 7.41196 3.50753 0
M  V30 529 O 103.229 7.27073 4.86816 0
M  V30 530 C 103.719 6.5273 2.63741 0
M  V30 531 C 103.009 5.1842 2.73198 0
M  V30 532 N 103.059 4.38762 1.4784 0
M  V30 533 C 102.979 4.81605 0.168631 0
M  V30 534 N 103.059 3.85454 -0.713363 0
M  V30 535 C 103.199 2.6994 0.0566958 0
M  V30 536 C 103.329 1.34815 -0.338502 0
M  V30 537 O 103.349 0.869548 -1.47125 0
M  V30 538 N 103.449 0.496304 0.77465 0
M  V30 539 C 103.449 0.908403 2.09122 0
M  V30 540 N 103.579 -0.0517805 3.00955 0
M  V30 541 N 103.319 2.17875 2.46519 0
M  V30 542 C 103.199 3.01988 1.4033 0
M  V30 543 H 100.22 8.36803 2.32493 0
M  V30 544 H 99.9504 6.70197 1.71129 0
M  V30 545 H 100.817 7.03551 4.13168 0
M  V30 546 H 103.472 4.59498 3.54415 0
M  V30 547 H 103.751 6.88898 1.59848 0
M  V30 548 H 104.743 6.46749 3.03687 0
M  V30 549 H 102.909 8.46908 3.20714 0
M  V30 550 H 102.86 5.86405 -0.105564 0
M  V30 551 H 103.542 -0.483664 0.597855 0
M  V30 552 H 103.579 0.187865 4.0116 0
M  V30 553 H 103.68 -1.03585 2.71726 0
M  V30 554 P 104.779 7.20834 5.23717 0
M  V30 555 O 104.999 7.79853 6.57286 0
M  V30 556 O 105.569 7.79239 4.12957 0
M  V30 557 O 105.029 5.63315 5.29344 0
M  V30 558 C 104.089 4.80255 6.01876 0
M  V30 559 C 104.819 3.64202 6.65911 0
M  V30 560 O 105.029 2.60694 5.64732 0
M  V30 561 C 106.219 3.93473 7.1943 0
M  V30 562 O 106.609 3.02071 8.21205 0
M  V30 563 C 107.099 3.73047 5.97036 0
M  V30 564 C 106.389 2.58828 5.25741 0
M  V30 565 N 106.439 2.68068 3.77503 0
M  V30 566 H 103.6 5.40332 6.79951 0
M  V30 567 H 103.33 4.41613 5.32378 0
M  V30 568 H 104.197 3.26331 7.47797 0
M  V30 569 P 108.159 2.75334 8.47391 0
M  V30 570 O 108.379 2.44571 9.90142 0
M  V30 571 O 108.949 3.87688 7.92115 0
M  V30 572 O 108.409 1.4459 7.59357 0
M  V30 573 C 107.469 0.347608 7.69215 0
M  V30 574 C 108.199 -0.96767 7.52806 0
M  V30 575 O 108.409 -1.21036 6.1011 0
M  V30 576 C 109.599 -1.04544 8.13308 0
M  V30 577 O 109.989 -2.38311 8.41922 0
M  V30 578 C 110.479 -0.491279 7.02284 0
M  V30 579 C 109.769 -0.996264 5.77469 0
M  V30 580 N 109.819 -0.0501916 4.62973 0
M  V30 581 H 106.98 0.374722 8.67691 0
M  V30 582 H 106.71 0.443485 6.90277 0
M  V30 583 H 107.577 -1.75537 7.96793 0
M  V30 584 P 111.539 -2.75334 8.47391 0
M  V30 585 O 111.759 -3.84128 9.44797 0
M  V30 586 O 112.329 -1.51947 8.68712 0
M  V30 587 O 111.789 -3.29363 6.99321 0
M  V30 588 C 110.849 -4.24011 6.4274 0
M  V30 589 C 111.579 -5.20775 5.52155 0
M  V30 590 O 111.789 -4.56534 4.22446 0
M  V30 591 C 112.979 -5.62629 5.96531 0
M  V30 592 O 113.369 -6.87667 5.41053 0
M  V30 593 C 113.859 -4.52537 5.39283 0
M  V30 594 C 113.149 -4.20027 4.08623 0
M  V30 595 N 113.199 -2.76189 3.71603 0
M  V30 596 H 110.36 -4.797 7.24003 0
M  V30 597 H 110.09 -3.69856 5.84513 0
M  V30 598 H 110.957 -6.10356 5.41441 0
M  V30 599 P 114.919 -7.20834 5.23717 0
M  V30 600 O 115.139 -8.66189 5.38625 0
M  V30 601 O 115.709 -6.33615 6.1356 0
M  V30 602 O 115.169 -6.7751 3.72168 0
M  V30 603 C 114.229 -7.20732 2.70725 0
M  V30 604 C 114.959 -7.45864 1.40599 0
M  V30 605 O 115.169 -6.17651 0.734225 0
M  V30 606 C 116.359 -8.05808 1.51899 0
M  V30 607 O 116.749 -8.74358 0.335205 0
M  V30 608 C 117.239 -6.83093 1.70294 0
M  V30 609 C 116.529 -5.79992 0.836974 0
M  V30 610 N 116.579 -4.41769 1.38263 0
M  V30 611 C 116.729 -3.38591 0.481702 0
M  V30 612 O 116.819 -3.56839 -0.718452 0
M  V30 613 N 116.769 -2.1206 1.03569 0
M  V30 614 C 116.679 -1.80696 2.36966 0
M  V30 615 O 116.729 -0.630473 2.74862 0
M  V30 616 C 116.529 -2.94845 3.23898 0
M  V30 617 C 116.419 -2.65253 4.70362 0
M  V30 618 C 116.479 -4.19803 2.73435 0
M  V30 619 H 113.739 -8.13644 3.0377 0
M  V30 620 H 113.47 -6.42695 2.55448 0
M  V30 621 H 114.337 -8.12039 0.792769 0
M  V30 622 H 116.992 -5.79978 -0.160587 0
M  V30 623 H 117.271 -6.51379 2.75643 0
M  V30 624 H 118.263 -7.01734 1.34462 0
M  V30 625 H 116.429 -8.73674 2.38337 0
M  V30 626 H 116.358 -5.04492 3.4095 0
M  V30 627 H 117.388 -2.83924 5.1913 0
M  V30 628 H 115.651 -3.29824 5.15163 0
M  V30 629 H 116.139 -1.59723 4.84449 0
M  V30 630 H 116.875 -1.35644 0.399345 0
M  V30 631 P 118.299 -8.91 7.63812e-15 0
M  V30 632 O 118.519 -10.1726 -0.733694 0
M  V30 633 O 119.089 -8.73148 1.23936 0
M  V30 634 O 118.549 -7.66872 -0.971405 0
M  V30 635 C 117.609 -7.42309 -2.04641 0
M  V30 636 C 118.339 -6.86059 -3.24661 0
M  V30 637 O 118.549 -5.42847 -3.03646 0
M  V30 638 C 119.739 -7.41196 -3.50753 0
M  V30 639 O 120.129 -7.27073 -4.86816 0
M  V30 640 C 120.619 -6.5273 -2.63741 0
M  V30 641 C 119.909 -5.1842 -2.73198 0
M  V30 642 N 119.959 -4.38762 -1.4784 0
M  V30 643 H 117.12 -8.36803 -2.32493 0
M  V30 644 H 116.85 -6.70197 -1.71129 0
M  V30 645 H 117.717 -7.03551 -4.13168 0
M  V30 646 P 121.679 -7.20834 -5.23717 0
M  V30 647 O 121.899 -7.7993 -6.57351 0
M  V30 648 O 122.469 -7.79328 -4.13004 0
M  V30 649 O 121.929 -5.63315 -5.29344 0
M  V30 650 C 120.989 -4.80193 -6.01798 0
M  V30 651 C 121.719 -3.64202 -6.65911 0
M  V30 652 O 121.929 -2.60694 -5.64732 0
M  V30 653 C 123.119 -3.93473 -7.1943 0
M  V30 654 O 123.509 -3.02071 -8.21205 0
M  V30 655 C 123.999 -3.73047 -5.97036 0
M  V30 656 C 123.289 -2.58828 -5.25741 0
M  V30 657 N 123.339 -2.6801 -3.77422 0
M  V30 658 C 123.489 -1.50443 -3.07133 0
M  V30 659 O 123.579 -0.419406 -3.61576 0
M  V30 660 N 123.529 -1.6403 -1.69677 0
M  V30 661 C 123.439 -2.81206 -0.986255 0
M  V30 662 O 123.489 -2.80892 0.249754 0
M  V30 663 C 123.289 -3.99158 -1.80325 0
M  V30 664 C 123.179 -5.29309 -1.06921 0
M  V30 665 C 123.239 -3.89779 -3.1476 0
M  V30 666 H 120.499 -5.40332 -6.79951 0
M  V30 667 H 120.23 -4.41549 -5.32301 0
M  V30 668 H 121.097 -3.26331 -7.47797 0
M  V30 669 H 123.752 -1.6395 -5.56554 0
M  V30 670 H 124.031 -4.63439 -5.3432 0
M  V30 671 H 125.023 -3.44728 -6.25838 0
M  V30 672 H 123.189 -4.96652 -7.57263 0
M  V30 673 H 123.118 -4.80159 -3.74441 0
M  V30 674 H 124.148 -5.81459 -1.09608 0
M  V30 675 H 122.411 -5.9187 -1.54487 0
M  V30 676 H 122.899 -5.10095 -0.0220288 0
M  V30 677 H 123.635 -0.798962 -1.16664 0
M  V30 678 P 125.059 -2.75334 -8.47391 0
M  V30 679 O 125.279 -2.44571 -9.90142 0
M  V30 680 O 125.849 -3.87688 -7.92115 0
M  V30 681 O 125.309 -1.4459 -7.59357 0
M  V30 682 C 124.369 -0.347608 -7.69215 0
M  V30 683 C 125.099 0.96767 -7.52806 0
M  V30 684 O 125.309 1.21036 -6.1011 0
M  V30 685 C 126.499 1.04544 -8.13308 0
M  V30 686 O 126.889 2.38311 -8.41922 0
M  V30 687 C 127.379 0.491279 -7.02284 0
M  V30 688 C 126.669 0.996264 -5.77469 0
M  V30 689 N 126.719 0.0501916 -4.62973 0
M  V30 690 H 123.88 -0.374722 -8.67691 0
M  V30 691 H 123.61 -0.443485 -6.90277 0
M  V30 692 H 124.477 1.75537 -7.96793 0
M  V30 693 P 128.439 2.75334 -8.47391 0
M  V30 694 O 128.659 3.84128 -9.44797 0
M  V30 695 O 129.229 1.51947 -8.68712 0
M  V30 696 O 128.689 3.29363 -6.99321 0
M  V30 697 C 127.749 4.24011 -6.4274 0
M  V30 698 C 128.479 5.20775 -5.52155 0
M  V30 699 O 128.689 4.56534 -4.22446 0
M  V30 700 C 129.879 5.62629 -5.96531 0
M  V30 701 O 130.269 6.87667 -5.41053 0
M  V30 702 C 130.759 4.52537 -5.39283 0
M  V30 703 C 130.049 4.20027 -4.08623 0
M  V30 704 N 130.099 2.76189 -3.71603 0
M  V30 705 C 130.019 1.64862 -4.52822 0
M  V30 706 N 130.099 0.512671 -3.88633 0
M  V30 707 C 130.239 0.888083 -2.54977 0
M  V30 708 C 130.369 0.094668 -1.38677 0
M  V30 709 O 130.389 -1.13053 -1.28163 0
M  V30 710 N 130.489 0.890102 -0.232633 0
M  V30 711 C 130.489 2.26958 -0.21772 0
M  V30 712 N 130.619 2.84626 0.97925 0
M  V30 713 N 130.359 3.0178 -1.31033 0
M  V30 714 C 130.239 2.26781 -2.43843 0
M  V30 715 H 127.26 4.797 -7.24003 0
M  V30 716 H 126.99 3.69856 -5.84513 0
M  V30 717 H 127.857 6.10356 -5.41441 0
M  V30 718 H 130.512 4.79061 -3.27488 0
M  V30 719 H 130.791 3.64906 -6.05785 0
M  V30 720 H 131.783 4.8868 -5.2125 0
M  V30 721 H 129.949 5.66726 -7.06352 0
M  V30 722 H 129.9 1.71169 -5.60966 0
M  V30 723 H 130.582 0.419134 0.644739 0
M  V30 724 H 130.619 3.87332 1.06098 0
M  V30 725 H 130.72 2.26417 1.82483 0
M  V30 726 P 131.819 7.20834 -5.23717 0
M  V30 727 O 132.039 8.66274 -5.38678 0
M  V30 728 O 132.609 6.33687 -6.13629 0
M  V30 729 O 132.069 6.7751 -3.72168 0
M  V30 730 C 131.129 7.20919 -2.70795 0
M  V30 731 C 131.859 7.45864 -1.40599 0
M  V30 732 O 132.069 6.17751 -0.734343 0
M  V30 733 C 133.259 8.05906 -1.51917 0
M  V30 734 O 133.649 8.74358 -0.335205 0
M  V30 735 C 134.139 6.83093 -1.70294 0
M  V30 736 C 133.429 5.79992 -0.836974 0
M  V30 737 N 133.479 4.41864 -1.38293 0
M  V30 738 H 130.641 8.13738 -3.03804 0
M  V30 739 H 130.369 6.42974 -2.55559 0
M  V30 740 H 131.237 8.12139 -0.792866 0
M  V30 741 H 133.892 5.80178 0.160643 0
M  V30 742 H 134.172 6.51379 -2.75643 0
M  V30 743 H 135.163 7.01832 -1.3448 0
M  V30 744 H 133.329 8.73771 -2.38364 0
M  V30 745 P 135.199 8.91 -8.72928e-15 0
M  V30 746 O 135.419 10.1726 0.733694 0
M  V30 747 O 135.989 8.73148 -1.23936 0
M  V30 748 O 135.449 7.66872 0.971405 0
M  V30 749 C 134.509 7.42309 2.04641 0
M  V30 750 C 135.239 6.86059 3.24661 0
M  V30 751 O 135.449 5.42847 3.03646 0
M  V30 752 C 136.639 7.41196 3.50753 0
M  V30 753 O 137.029 7.27073 4.86816 0
M  V30 754 C 137.519 6.5273 2.63741 0
M  V30 755 C 136.809 5.1842 2.73198 0
M  V30 756 N 136.859 4.38762 1.4784 0
M  V30 757 H 134.02 8.36803 2.32493 0
M  V30 758 H 133.75 6.70197 1.71129 0
M  V30 759 H 134.617 7.03551 4.13168 0
M  V30 760 P 138.579 7.20834 5.23717 0
M  V30 761 O 138.799 7.80006 6.57415 0
M  V30 762 O 139.369 7.79416 4.13051 0
M  V30 763 O 138.829 5.63315 5.29344 0
M  V30 764 C 137.889 4.80318 6.01954 0
M  V30 765 C 138.619 3.64202 6.65911 0
M  V30 766 O 138.829 2.60736 5.64823 0
M  V30 767 C 140.019 3.93521 7.19518 0
M  V30 768 O 140.409 3.02071 8.21205 0
M  V30 769 C 140.899 3.73047 5.97036 0
M  V30 770 C 140.189 2.58828 5.25741 0
M  V30 771 N 140.239 2.68068 3.77503 0
M  V30 772 C 140.159 3.80474 2.99159 0
M  V30 773 N 140.229 3.55622 1.71925 0
M  V30 774 C 140.379 2.1832 1.65733 0
M  V30 775 C 140.509 1.28842 0.572777 0
M  V30 776 N 140.519 1.66875 -0.70098 0
M  V30 777 N 140.629 -0.016788 0.859836 0
M  V30 778 C 140.619 -0.398145 2.13316 0
M  V30 779 N 140.499 0.328224 3.22333 0
M  V30 780 C 140.379 1.62992 2.90383 0
M  V30 781 H 137.401 5.40394 6.8003 0
M  V30 782 H 137.129 4.41741 5.32532 0
M  V30 783 H 137.997 3.26371 7.47889 0
M  V30 784 H 140.652 1.64007 5.56746 0
M  V30 785 H 140.932 4.63439 5.3432 0
M  V30 786 H 141.923 3.44776 6.25925 0
M  V30 787 H 140.089 4.96707 7.57347 0
M  V30 788 H 140.048 4.8089 3.39924 0
M  V30 789 H 140.429 2.66547 -0.941919 0
M  V30 790 H 140.618 0.965341 -1.44766 0
M  V30 791 H 140.726 -1.46427 2.29697 0
M  V30 792 P 141.959 2.75334 8.47391 0
M  V30 793 O 142.179 2.44619 9.90336 0
M  V30 794 O 142.749 3.87776 7.92294 0
M  V30 795 O 142.209 1.4459 7.59357 0
M  V30 796 C 141.269 0.347653 7.69315 0
M  V30 797 C 141.999 -0.96767 7.52806 0
M  V30 798 O 142.209 -1.21055 6.10208 0
M  V30 799 C 143.399 -1.04557 8.13408 0
M  V30 800 O 143.789 -2.38311 8.41922 0
M  V30 801 C 144.279 -0.491279 7.02284 0
M  V30 802 C 143.569 -0.996264 5.77469 0
M  V30 803 N 143.619 -0.0501916 4.62973 0
M  V30 804 H 140.781 0.374765 8.67791 0
M  V30 805 H 140.509 0.443613 6.90476 0
M  V30 806 H 141.377 -1.75559 7.96891 0
M  V30 807 H 144.032 -1.94563 5.46818 0
M  V30 808 H 144.312 0.608651 7.04676 0
M  V30 809 H 145.303 -0.889796 7.09039 0
M  V30 810 H 143.469 -0.433128 9.04664 0
M  V30 811 P 145.339 -2.75334 8.47391 0
M  V30 812 O 145.559 -3.84166 9.4489 0
M  V30 813 O 146.129 -1.51964 8.6881 0
M  V30 814 O 145.589 -3.29363 6.99321 0
M  V30 815 C 144.649 -4.23956 6.42656 0
M  V30 816 C 145.379 -5.20775 5.52155 0
M  V30 817 O 145.589 -4.56534 4.22446 0
M  V30 818 C 146.779 -5.62629 5.96531 0
M  V30 819 O 147.169 -6.87667 5.41053 0
M  V30 820 C 147.659 -4.52537 5.39283 0
M  V30 821 C 146.949 -4.20027 4.08623 0
M  V30 822 N 146.999 -2.7613 3.71522 0
M  V30 823 C 147.149 -2.45612 2.37989 0
M  V30 824 O 147.239 -3.30919 1.51621 0
M  V30 825 N 147.189 -1.10684 2.08435 0
M  V30 826 C 147.099 -0.0690084 2.9792 0
M  V30 827 O 147.149 1.10553 2.59426 0
M  V30 828 C 146.949 -0.481522 4.35345 0
M  V30 829 C 146.839 0.618778 5.36443 0
M  V30 830 C 146.899 -1.78906 4.67968 0
M  V30 831 H 144.159 -4.797 7.24003 0
M  V30 832 H 143.89 -3.69802 5.84429 0
M  V30 833 H 144.757 -6.10356 5.41441 0
M  V30 834 H 147.412 -4.78651 3.27911 0
M  V30 835 H 147.691 -3.64957 6.05871 0
M  V30 836 H 148.683 -4.8868 5.2125 0
M  V30 837 H 146.849 -5.66726 7.06352 0
M  V30 838 H 146.778 -2.07737 5.72367 0
M  V30 839 H 147.808 0.754375 5.86871 0
M  V30 840 H 146.071 0.359721 6.10641 0
M  V30 841 H 146.559 1.55533 4.8581 0
M  V30 842 H 147.295 -0.862651 1.12037 0
M  V30 843 P 148.719 -7.20834 5.23717 0
M  V30 844 O 148.939 -8.66104 5.38572 0
M  V30 845 O 149.509 -6.33544 6.1349 0
M  V30 846 O 148.969 -6.7751 3.72168 0
M  V30 847 C 148.029 -7.20825 2.7076 0
M  V30 848 C 148.759 -7.45864 1.40599 0
M  V30 849 O 148.969 -6.17651 0.734225 0
M  V30 850 C 150.159 -8.05808 1.51899 0
M  V30 851 O 150.549 -8.74358 0.335205 0
M  V30 852 C 151.039 -6.83093 1.70294 0
M  V30 853 C 150.329 -5.79992 0.836974 0
M  V30 854 N 150.379 -4.41864 1.38293 0
M  V30 855 C 150.299 -3.99538 2.69438 0
M  V30 856 N 150.379 -2.69909 2.84277 0
M  V30 857 C 150.519 -2.21719 1.5408 0
M  V30 858 C 150.649 -0.891712 1.06628 0
M  V30 859 O 150.669 0.161298 1.70137 0
M  V30 860 N 150.769 -0.856846 -0.334985 0
M  V30 861 C 150.769 -1.9641 -1.15789 0
M  V30 862 N 150.899 -1.72708 -2.46522 0
M  V30 863 N 150.639 -3.21165 -0.713741 0
M  V30 864 C 150.519 -3.26797 0.639748 0
M  V30 865 H 147.54 -8.13644 3.0377 0
M  V30 866 H 147.27 -6.42788 2.55485 0
M  V30 867 H 148.137 -8.12039 0.792769 0
M  V30 868 H 150.792 -5.80061 -0.166416 0
M  V30 869 H 151.071 -6.51287 2.75604 0
M  V30 870 H 152.063 -7.01734 1.34462 0
M  V30 871 H 150.229 -8.73674 2.38337 0
M  V30 872 H 150.18 -4.68207 3.53221 0
M  V30 873 H 150.862 0.0398818 -0.767965 0
M  V30 874 H 150.899 -2.50995 -3.13503 0
M  V30 875 H 151 -0.759148 -2.80716 0
M  V30 876 P 152.099 -8.91 9.82044e-15 0
M  V30 877 O 152.319 -10.1736 -0.733766 0
M  V30 878 O 152.889 -8.73247 1.2395 0
M  V30 879 O 152.349 -7.66872 -0.971405 0
M  V30 880 C 151.409 -7.42212 -2.04614 0
M  V30 881 C 152.139 -6.86059 -3.24661 0
M  V30 882 O 152.349 -5.42847 -3.03646 0
M  V30 883 C 153.539 -7.41196 -3.50753 0
M  V30 884 O 153.929 -7.27073 -4.86816 0
M  V30 885 C 154.419 -6.5273 -2.63741 0
M  V30 886 C 153.709 -5.1842 -2.73198 0
M  V30 887 N 153.759 -4.38668 -1.47808 0
M  V30 888 C 153.909 -3.02239 -1.60048 0
M  V30 889 O 153.999 -2.46459 -2.67869 0
M  V30 890 N 153.949 -2.32436 -0.408571 0
M  V30 891 C 153.859 -2.85471 0.854993 0
M  V30 892 O 153.909 -2.12566 1.8531 0
M  V30 893 C 153.709 -4.28918 0.887335 0
M  V30 894 C 153.599 -4.91066 2.24619 0
M  V30 895 C 153.659 -5.00349 -0.255399 0
M  V30 896 H 150.919 -8.36803 -2.32493 0
M  V30 897 H 150.65 -6.701 -1.71105 0
M  V30 898 H 151.517 -7.03551 -4.13168 0
M  V30 899 H 154.172 -4.59773 -3.53894 0
M  V30 900 H 154.451 -6.88995 -1.59871 0
M  V30 901 H 155.443 -6.46749 -3.03687 0
M  V30 902 H 153.609 -8.46908 -3.20714 0
M  V30 903 H 153.538 -6.08548 -0.206986 0
M  V30 904 H 154.568 -5.34836 2.53099 0
M  V30 905 H 152.831 -5.69638 2.2291 0
M  V30 906 H 153.319 -4.13971 2.98044 0
M  V30 907 H 154.055 -1.33211 -0.474216 0
M  V30 908 P 155.479 -7.20834 -5.23717 0
M  V30 909 O 155.699 -7.79853 -6.57286 0
M  V30 910 O 156.269 -7.79239 -4.12957 0
M  V30 911 O 155.729 -5.63315 -5.29344 0
M  V30 912 C 154.789 -4.80255 -6.01876 0
M  V30 913 C 155.519 -3.64202 -6.65911 0
M  V30 914 O 155.729 -2.60694 -5.64732 0
M  V30 915 C 156.919 -3.93473 -7.1943 0
M  V30 916 O 157.309 -3.02071 -8.21205 0
M  V30 917 C 157.799 -3.73047 -5.97036 0
M  V30 918 C 157.089 -2.58828 -5.25741 0
M  V30 919 N 157.139 -2.68068 -3.77503 0
M  V30 920 H 154.3 -5.40332 -6.79951 0
M  V30 921 H 154.03 -4.41613 -5.32378 0
M  V30 922 H 154.897 -3.26331 -7.47797 0
M  V30 923 P 158.859 -2.75334 -8.47391 0
M  V30 924 O 159.079 -2.44571 -9.90142 0
M  V30 925 O 159.649 -3.87688 -7.92115 0
M  V30 926 O 159.109 -1.4459 -7.59357 0
M  V30 927 C 158.169 -0.347608 -7.69215 0
M  V30 928 C 158.899 0.96767 -7.52806 0
M  V30 929 O 159.109 1.21036 -6.1011 0
M  V30 930 C 160.299 1.04544 -8.13308 0
M  V30 931 O 160.689 2.38311 -8.41922 0
M  V30 932 C 161.179 0.491279 -7.02284 0
M  V30 933 C 160.469 0.996264 -5.77469 0
M  V30 934 N 160.519 0.0501916 -4.62973 0
M  V30 935 H 157.68 -0.374722 -8.67691 0
M  V30 936 H 157.41 -0.443485 -6.90277 0
M  V30 937 H 158.277 1.75537 -7.96793 0
M  V30 938 P 162.239 2.75334 -8.47391 0
M  V30 939 O 162.459 3.84128 -9.44797 0
M  V30 940 O 163.029 1.51947 -8.68712 0
M  V30 941 O 162.489 3.29363 -6.99321 0
M  V30 942 C 161.549 4.24011 -6.4274 0
M  V30 943 C 162.279 5.20775 -5.52155 0
M  V30 944 O 162.489 4.56534 -4.22446 0
M  V30 945 C 163.679 5.62629 -5.96531 0
M  V30 946 O 164.069 6.87667 -5.41053 0
M  V30 947 C 164.559 4.52537 -5.39283 0
M  V30 948 C 163.849 4.20027 -4.08623 0
M  V30 949 N 163.899 2.76189 -3.71603 0
M  V30 950 H 161.06 4.797 -7.24003 0
M  V30 951 H 160.79 3.69856 -5.84513 0
M  V30 952 H 161.657 6.10356 -5.41441 0
M  V30 953 P 165.619 7.20834 -5.23717 0
M  V30 954 O 165.839 8.66104 -5.38572 0
M  V30 955 O 166.409 6.33544 -6.1349 0
M  V30 956 O 165.869 6.7751 -3.72168 0
M  V30 957 C 164.929 7.20825 -2.7076 0
M  V30 958 C 165.659 7.45864 -1.40599 0
M  V30 959 O 165.869 6.17651 -0.734225 0
M  V30 960 C 167.059 8.05808 -1.51899 0
M  V30 961 O 167.449 8.74358 -0.335205 0
M  V30 962 C 167.939 6.83093 -1.70294 0
M  V30 963 C 167.229 5.79992 -0.836974 0
M  V30 964 N 167.279 4.41864 -1.38293 0
M  V30 965 H 164.44 8.13644 -3.0377 0
M  V30 966 H 164.17 6.42788 -2.55485 0
M  V30 967 H 165.037 8.12039 -0.792769 0
M  V30 968 P 168.999 8.91 -1.09116e-14 0
M  V30 969 O 169.219 10.1726 0.733694 0
M  V30 970 O 169.789 8.73148 -1.23936 0
M  V30 971 O 169.249 7.66872 0.971405 0
M  V30 972 C 168.309 7.42309 2.04641 0
M  V30 973 C 169.039 6.86059 3.24661 0
M  V30 974 O 169.249 5.42847 3.03646 0
M  V30 975 C 170.439 7.41196 3.50753 0
M  V30 976 O 170.829 7.27073 4.86816 0
M  V30 977 C 171.319 6.5273 2.63741 0
M  V30 978 C 170.609 5.1842 2.73198 0
M  V30 979 N 170.659 4.38762 1.4784 0
M  V30 980 H 167.82 8.36803 2.32493 0
M  V30 981 H 167.55 6.70197 1.71129 0
M  V30 982 H 168.417 7.03551 4.13168 0
M  V30 983 P 172.379 7.20834 5.23717 0
M  V30 984 O 172.599 7.79853 6.57286 0
M  V30 985 O 173.169 7.79239 4.12957 0
M  V30 986 O 172.629 5.63315 5.29344 0
M  V30 987 C 171.689 4.80255 6.01876 0
M  V30 988 C 172.419 3.64202 6.65911 0
M  V30 989 O 172.629 2.60694 5.64732 0
M  V30 990 C 173.819 3.93473 7.1943 0
M  V30 991 O 174.209 3.02071 8.21205 0
M  V30 992 C 174.699 3.73047 5.97036 0
M  V30 993 C 173.989 2.58828 5.25741 0
M  V30 994 N 174.039 2.68068 3.77503 0
M  V30 995 H 171.2 5.40332 6.79951 0
M  V30 996 H 170.93 4.41613 5.32378 0
M  V30 997 H 171.797 3.26331 7.47797 0
M  V30 998 P 175.759 2.75334 8.47391 0
M  V30 999 O 175.979 2.44571 9.90142 0
M  V30 1000 O 176.549 3.87688 7.92115 0
M  V30 1001 O 176.009 1.4459 7.59357 0
M  V30 1002 C 175.069 0.347608 7.69215 0
M  V30 1003 C 175.799 -0.96767 7.52806 0
M  V30 1004 O 176.009 -1.21036 6.1011 0
M  V30 1005 C 177.199 -1.04544 8.13308 0
M  V30 1006 O 177.589 -2.38311 8.41922 0
M  V30 1007 C 178.079 -0.491279 7.02284 0
M  V30 1008 C 177.369 -0.996264 5.77469 0
M  V30 1009 N 177.419 -0.0501916 4.62973 0
M  V30 1010 H 174.58 0.374722 8.67691 0
M  V30 1011 H 174.31 0.443485 6.90277 0
M  V30 1012 H 175.177 -1.75537 7.96793 0
M  V30 1013 P 179.139 -2.75334 8.47391 0
M  V30 1014 O 179.359 -3.84128 9.44797 0
M  V30 1015 O 179.929 -1.51947 8.68712 0
M  V30 1016 O 179.389 -3.29363 6.99321 0
M  V30 1017 C 178.449 -4.24011 6.4274 0
M  V30 1018 C 179.179 -5.20775 5.52155 0
M  V30 1019 O 179.389 -4.56534 4.22446 0
M  V30 1020 C 180.579 -5.62629 5.96531 0
M  V30 1021 O 180.969 -6.87667 5.41053 0
M  V30 1022 C 181.459 -4.52537 5.39283 0
M  V30 1023 C 180.749 -4.20027 4.08623 0
M  V30 1024 N 180.799 -2.76189 3.71603 0
M  V30 1025 H 177.96 -4.797 7.24003 0
M  V30 1026 H 177.69 -3.69856 5.84513 0
M  V30 1027 H 178.557 -6.10356 5.41441 0
M  V30 1028 P 182.519 -7.20834 5.23717 0
M  V30 1029 O 182.739 -8.66104 5.38572 0
M  V30 1030 O 183.309 -6.33544 6.1349 0
M  V30 1031 O 182.769 -6.7751 3.72168 0
M  V30 1032 C 181.829 -7.20825 2.7076 0
M  V30 1033 C 182.559 -7.45864 1.40599 0
M  V30 1034 O 182.769 -6.17651 0.734225 0
M  V30 1035 C 183.959 -8.05808 1.51899 0
M  V30 1036 O 184.349 -8.74358 0.335205 0
M  V30 1037 C 184.839 -6.83093 1.70294 0
M  V30 1038 C 184.129 -5.79992 0.836974 0
M  V30 1039 N 184.179 -4.41864 1.38293 0
M  V30 1040 H 181.34 -8.13644 3.0377 0
M  V30 1041 H 181.07 -6.42788 2.55485 0
M  V30 1042 H 181.937 -8.12039 0.792769 0
M  V30 1043 P 185.899 -8.91 -8.29613e-14 0
M  V30 1044 O 186.119 -10.1746 -0.733838 0
M  V30 1045 O 186.689 -8.73346 1.23964 0
M  V30 1046 O 186.149 -7.66872 -0.971405 0
M  V30 1047 C 185.209 -7.42405 -2.04668 0
M  V30 1048 C 185.939 -6.86059 -3.24661 0
M  V30 1049 O 186.149 -5.42934 -3.03695 0
M  V30 1050 C 187.339 -7.41287 -3.50796 0
M  V30 1051 O 187.729 -7.27073 -4.86816 0
M  V30 1052 C 188.219 -6.5273 -2.63741 0
M  V30 1053 C 187.509 -5.1842 -2.73198 0
M  V30 1054 N 187.559 -4.38762 -1.4784 0
M  V30 1055 C 187.479 -4.83651 -0.183876 0
M  V30 1056 N 187.549 -3.88759 0.699393 0
M  V30 1057 C 187.699 -2.7404 -0.0575568 0
M  V30 1058 C 187.829 -1.37902 0.293928 0
M  V30 1059 N 187.839 -0.938021 1.54797 0
M  V30 1060 N 187.949 -0.491817 -0.70549 0
M  V30 1061 C 187.939 -0.931735 -1.95979 0
M  V30 1062 N 187.819 -2.16017 -2.41481 0
M  V30 1063 C 187.699 -3.02547 -1.39121 0
M  V30 1064 H 184.721 -8.36899 -2.3252 0
M  V30 1065 H 184.449 -6.70391 -1.71179 0
M  V30 1066 H 185.317 -7.03638 -4.13219 0
M  V30 1067 H 187.972 -4.59931 -3.54016 0
M  V30 1068 H 188.252 -6.88995 -1.59871 0
M  V30 1069 H 189.243 -6.4684 -3.0373 0
M  V30 1070 H 187.409 -8.47002 -3.20749 0
M  V30 1071 H 187.368 -5.8885 0.0765548 0
M  V30 1072 H 187.749 -1.60276 2.32875 0
M  V30 1073 H 187.938 0.0699355 1.73859 0
M  V30 1074 H 188.046 -0.165507 -2.71897 0
M  V30 1075 P 189.279 -7.20834 -5.23717 0
M  V30 1076 O 189.499 -7.79853 -6.57286 0
M  V30 1077 O 190.069 -7.79239 -4.12957 0
M  V30 1078 O 189.529 -5.63315 -5.29344 0
M  V30 1079 C 188.589 -4.80255 -6.01876 0
M  V30 1080 C 189.319 -3.64202 -6.65911 0
M  V30 1081 O 189.529 -2.60694 -5.64732 0
M  V30 1082 C 190.719 -3.93473 -7.1943 0
M  V30 1083 O 191.109 -3.02071 -8.21205 0
M  V30 1084 C 191.599 -3.73047 -5.97036 0
M  V30 1085 C 190.889 -2.58828 -5.25741 0
M  V30 1086 N 190.939 -2.68068 -3.77503 0
M  V30 1087 H 188.1 -5.40332 -6.79951 0
M  V30 1088 H 187.83 -4.41613 -5.32378 0
M  V30 1089 H 188.697 -3.26331 -7.47797 0
M  V30 1090 P 192.659 -2.75334 -8.47391 0
M  V30 1091 O 192.879 -2.44571 -9.90142 0
M  V30 1092 O 193.449 -3.87688 -7.92115 0
M  V30 1093 O 192.909 -1.4459 -7.59357 0
M  V30 1094 C 191.969 -0.347608 -7.69215 0
M  V30 1095 C 192.699 0.96767 -7.52806 0
M  V30 1096 O 192.909 1.21036 -6.1011 0
M  V30 1097 C 194.099 1.04544 -8.13308 0
M  V30 1098 O 194.489 2.38311 -8.41922 0
M  V30 1099 C 194.979 0.491279 -7.02284 0
M  V30 1100 C 194.269 0.996264 -5.77469 0
M  V30 1101 N 194.319 0.0501916 -4.62973 0
M  V30 1102 H 191.48 -0.374722 -8.67691 0
M  V30 1103 H 191.21 -0.443485 -6.90277 0
M  V30 1104 H 192.077 1.75537 -7.96793 0
M  V30 1105 P 196.039 2.75334 -8.47391 0
M  V30 1106 O 196.259 3.84204 -9.44982 0
M  V30 1107 O 196.829 1.51982 -8.68909 0
M  V30 1108 O 196.289 3.29363 -6.99321 0
M  V30 1109 C 195.349 4.24066 -6.42823 0
M  V30 1110 C 196.079 5.20775 -5.52155 0
M  V30 1111 O 196.289 4.56607 -4.22514 0
M  V30 1112 C 197.479 5.62697 -5.96604 0
M  V30 1113 O 197.869 6.87667 -5.41053 0
M  V30 1114 C 198.359 4.52537 -5.39283 0
M  V30 1115 C 197.649 4.20027 -4.08623 0
M  V30 1116 N 197.699 2.76189 -3.71603 0
M  V30 1117 H 194.861 4.79756 -7.24086 0
M  V30 1118 H 194.589 3.69963 -5.84682 0
M  V30 1119 H 195.457 6.10431 -5.41508 0
M  V30 1120 H 198.112 4.78816 -3.28024 0
M  V30 1121 H 198.392 3.64957 -6.05871 0
M  V30 1122 H 199.383 4.88748 -5.21323 0
M  V30 1123 H 197.549 5.66789 -7.0643 0
M  V30 1124 P 199.419 7.20834 -5.23717 0
M  V30 1125 O 199.639 8.66274 -5.38678 0
M  V30 1126 O 200.209 6.33687 -6.13629 0
M  V30 1127 O 199.669 6.7751 -3.72168 0
M  V30 1128 C 198.729 7.20919 -2.70795 0
M  V30 1129 C 199.459 7.45864 -1.40599 0
M  V30 1130 O 199.669 6.17751 -0.734343 0
M  V30 1131 C 200.859 8.05906 -1.51917 0
M  V30 1132 O 201.249 8.74358 -0.335205 0
M  V30 1133 C 201.739 6.83093 -1.70294 0
M  V30 1134 C 201.029 5.79992 -0.836974 0
M  V30 1135 N 201.079 4.41864 -1.38293 0
M  V30 1136 C 200.999 4.02089 -2.69407 0
M  V30 1137 N 201.069 2.73403 -2.85089 0
M  V30 1138 C 201.219 2.25086 -1.5642 0
M  V30 1139 C 201.349 0.942887 -1.04836 0
M  V30 1140 N 201.359 -0.150999 -1.80369 0
M  V30 1141 N 201.469 0.812565 0.28167 0
M  V30 1142 C 201.459 1.90572 1.03784 0
M  V30 1143 N 201.339 3.167 0.683905 0
M  V30 1144 C 201.219 3.26538 -0.652815 0
M  V30 1145 H 198.241 8.13738 -3.03804 0
M  V30 1146 H 197.969 6.42974 -2.55559 0
M  V30 1147 H 198.837 8.12139 -0.792866 0
M  V30 1148 H 201.492 5.80178 0.160643 0
M  V30 1149 H 201.772 6.51379 -2.75643 0
M  V30 1150 H 202.763 7.01832 -1.3448 0
M  V30 1151 H 200.929 8.73771 -2.38364 0
M  V30 1152 H 200.888 4.7189 -3.52311 0
M  V30 1153 H 201.269 -0.0721434 -2.82608 0
M  V30 1154 H 201.458 -1.0785 -1.36544 0
M  V30 1155 H 201.566 1.73207 2.10241 0
M  V30 1156 P 202.799 8.91 2.40144e-13 0
M  V30 1157 O 203.019 10.1746 0.733838 0
M  V30 1158 O 203.589 8.73346 -1.23964 0
M  V30 1159 O 203.049 7.66872 0.971405 0
M  V30 1160 C 202.109 7.42405 2.04668 0
M  V30 1161 C 202.839 6.86059 3.24661 0
M  V30 1162 O 203.049 5.42934 3.03695 0
M  V30 1163 C 204.239 7.41287 3.50796 0
M  V30 1164 O 204.629 7.27073 4.86816 0
M  V30 1165 C 205.119 6.5273 2.63741 0
M  V30 1166 C 204.409 5.1842 2.73198 0
M  V30 1167 N 204.459 4.38762 1.4784 0
M  V30 1168 H 201.621 8.36899 2.3252 0
M  V30 1169 H 201.349 6.70391 1.71179 0
M  V30 1170 H 202.217 7.03638 4.13219 0
M  V30 1171 H 204.872 4.59931 3.54016 0
M  V30 1172 H 205.152 6.88995 1.59871 0
M  V30 1173 H 206.143 6.4684 3.0373 0
M  V30 1174 H 204.309 8.47002 3.20749 0
M  V30 1175 P 206.179 7.20834 5.23717 0
M  V30 1176 O 206.399 7.79853 6.57286 0
M  V30 1177 O 206.969 7.79239 4.12957 0
M  V30 1178 O 206.429 5.63315 5.29344 0
M  V30 1179 C 205.489 4.80255 6.01876 0
M  V30 1180 C 206.219 3.64202 6.65911 0
M  V30 1181 O 206.429 2.60694 5.64732 0
M  V30 1182 C 207.619 3.93473 7.1943 0
M  V30 1183 O 208.009 3.02071 8.21205 0
M  V30 1184 C 208.499 3.73047 5.97036 0
M  V30 1185 C 207.789 2.58828 5.25741 0
M  V30 1186 N 207.839 2.68068 3.77503 0
M  V30 1187 H 205 5.40332 6.79951 0
M  V30 1188 H 204.73 4.41613 5.32378 0
M  V30 1189 H 205.597 3.26331 7.47797 0
M  V30 1190 P 209.559 2.75334 8.47391 0
M  V30 1191 O 209.779 2.44571 9.90142 0
M  V30 1192 O 210.349 3.87688 7.92115 0
M  V30 1193 O 209.809 1.4459 7.59357 0
M  V30 1194 C 208.869 0.347608 7.69215 0
M  V30 1195 C 209.599 -0.96767 7.52806 0
M  V30 1196 O 209.809 -1.21036 6.1011 0
M  V30 1197 C 210.999 -1.04544 8.13308 0
M  V30 1198 O 211.389 -2.38311 8.41922 0
M  V30 1199 C 211.879 -0.491279 7.02284 0
M  V30 1200 C 211.169 -0.996264 5.77469 0
M  V30 1201 N 211.219 -0.0501916 4.62973 0
M  V30 1202 H 208.38 0.374722 8.67691 0
M  V30 1203 H 208.11 0.443485 6.90277 0
M  V30 1204 H 208.977 -1.75537 7.96793 0
M  V30 1205 P 212.939 -2.75334 8.47391 0
M  V30 1206 O 213.159 -3.84128 9.44797 0
M  V30 1207 O 213.729 -1.51947 8.68712 0
M  V30 1208 O 213.189 -3.29363 6.99321 0
M  V30 1209 C 212.249 -4.24011 6.4274 0
M  V30 1210 C 212.979 -5.20775 5.52155 0
M  V30 1211 O 213.189 -4.56534 4.22446 0
M  V30 1212 C 214.379 -5.62629 5.96531 0
M  V30 1213 O 214.769 -6.87667 5.41053 0
M  V30 1214 C 215.259 -4.52537 5.39283 0
M  V30 1215 C 214.549 -4.20027 4.08623 0
M  V30 1216 N 214.599 -2.76189 3.71603 0
M  V30 1217 C 214.519 -1.64862 4.52822 0
M  V30 1218 N 214.599 -0.512671 3.88633 0
M  V30 1219 C 214.739 -0.888083 2.54977 0
M  V30 1220 C 214.869 -0.094668 1.38677 0
M  V30 1221 O 214.889 1.13053 1.28163 0
M  V30 1222 N 214.989 -0.890102 0.232633 0
M  V30 1223 C 214.989 -2.26958 0.21772 0
M  V30 1224 N 215.119 -2.84626 -0.97925 0
M  V30 1225 N 214.859 -3.0178 1.31033 0
M  V30 1226 C 214.739 -2.26781 2.43843 0
M  V30 1227 H 211.76 -4.797 7.24003 0
M  V30 1228 H 211.49 -3.69856 5.84513 0
M  V30 1229 H 212.357 -6.10356 5.41441 0
M  V30 1230 H 215.012 -4.79061 3.27488 0
M  V30 1231 H 215.291 -3.64906 6.05785 0
M  V30 1232 H 216.283 -4.8868 5.2125 0
M  V30 1233 H 214.449 -5.66726 7.06352 0
M  V30 1234 H 214.4 -1.71169 5.60966 0
M  V30 1235 H 215.082 -0.419134 -0.644739 0
M  V30 1236 H 215.119 -3.87332 -1.06098 0
M  V30 1237 H 215.22 -2.26417 -1.82483 0
M  V30 1238 P 216.319 -7.20834 5.23717 0
M  V30 1239 O 216.539 -8.66104 5.38572 0
M  V30 1240 O 217.109 -6.33544 6.1349 0
M  V30 1241 O 216.569 -6.7751 3.72168 0
M  V30 1242 C 215.629 -7.20825 2.7076 0
M  V30 1243 C 216.359 -7.45864 1.40599 0
M  V30 1244 O 216.569 -6.17651 0.734225 0
M  V30 1245 C 217.759 -8.05808 1.51899 0
M  V30 1246 O 218.149 -8.74358 0.335205 0
M  V30 1247 C 218.639 -6.83093 1.70294 0
M  V30 1248 C 217.929 -5.79992 0.836974 0
M  V30 1249 N 217.979 -4.41864 1.38293 0
M  V30 1250 H 215.14 -8.13644 3.0377 0
M  V30 1251 H 214.87 -6.42788 2.55485 0
M  V30 1252 H 215.737 -8.12039 0.792769 0
M  V30 1253 P 219.699 -8.91 -3.97326e-13 0
M  V30 1254 O 219.919 -10.1736 -0.733766 0
M  V30 1255 O 220.489 -8.73247 1.2395 0
M  V30 1256 O 219.949 -7.66872 -0.971405 0
M  V30 1257 C 219.009 -7.42212 -2.04614 0
M  V30 1258 C 219.739 -6.86059 -3.24661 0
M  V30 1259 O 219.949 -5.42847 -3.03646 0
M  V30 1260 C 221.139 -7.41196 -3.50753 0
M  V30 1261 O 221.529 -7.27073 -4.86816 0
M  V30 1262 C 222.019 -6.5273 -2.63741 0
M  V30 1263 C 221.309 -5.1842 -2.73198 0
M  V30 1264 N 221.359 -4.38668 -1.47808 0
M  V30 1265 C 221.509 -3.02239 -1.60048 0
M  V30 1266 O 221.599 -2.46459 -2.67869 0
M  V30 1267 N 221.549 -2.32436 -0.408571 0
M  V30 1268 C 221.459 -2.85471 0.854993 0
M  V30 1269 C 221.309 -4.28918 0.887335 0
M  V30 1270 C 221.259 -5.00349 -0.255399 0
M  V30 1271 H 218.519 -8.36803 -2.32493 0
M  V30 1272 H 218.25 -6.701 -1.71105 0
M  V30 1273 H 219.117 -7.03551 -4.13168 0
M  V30 1274 H 221.772 -4.59773 -3.53894 0
M  V30 1275 H 222.051 -6.88995 -1.59871 0
M  V30 1276 H 223.043 -6.46749 -3.03687 0
M  V30 1277 H 221.209 -8.46908 -3.20714 0
M  V30 1278 H 221.138 -6.08548 -0.206986 0
M  V30 1279 P 223.079 -7.20834 -5.23717 0
M  V30 1280 O 223.299 -7.79853 -6.57286 0
M  V30 1281 O 223.869 -7.79239 -4.12957 0
M  V30 1282 O 223.329 -5.63315 -5.29344 0
M  V30 1283 C 222.389 -4.80255 -6.01876 0
M  V30 1284 C 223.119 -3.64202 -6.65911 0
M  V30 1285 O 223.329 -2.60694 -5.64732 0
M  V30 1286 C 224.519 -3.93473 -7.1943 0
M  V30 1287 O 224.909 -3.02071 -8.21205 0
M  V30 1288 C 225.399 -3.73047 -5.97036 0
M  V30 1289 C 224.689 -2.58828 -5.25741 0
M  V30 1290 N 224.739 -2.68068 -3.77503 0
M  V30 1291 H 221.9 -5.40332 -6.79951 0
M  V30 1292 H 221.63 -4.41613 -5.32378 0
M  V30 1293 H 222.497 -3.26331 -7.47797 0
M  V30 1294 P 226.459 -2.75334 -8.47391 0
M  V30 1295 O 226.679 -2.44571 -9.90142 0
M  V30 1296 O 227.249 -3.87688 -7.92115 0
M  V30 1297 O 226.709 -1.4459 -7.59357 0
M  V30 1298 C 225.769 -0.347608 -7.69215 0
M  V30 1299 C 226.499 0.96767 -7.52806 0
M  V30 1300 O 226.709 1.21036 -6.1011 0
M  V30 1301 C 227.899 1.04544 -8.13308 0
M  V30 1302 O 228.289 2.38311 -8.41922 0
M  V30 1303 C 228.779 0.491279 -7.02284 0
M  V30 1304 C 228.069 0.996264 -5.77469 0
M  V30 1305 N 228.119 0.0501916 -4.62973 0
M  V30 1306 C 228.039 -1.32786 -4.63244 0
M  V30 1307 N 228.119 -1.86957 -3.44545 0
M  V30 1308 C 228.259 -0.780241 -2.58481 0
M  V30 1309 C 228.389 -0.738536 -1.17757 0
M  V30 1310 O 228.409 -1.66794 -0.372349 0
M  V30 1311 N 228.509 0.58337 -0.711393 0
M  V30 1312 C 228.509 1.70816 -1.51017 0
M  V30 1313 N 228.639 2.87826 -0.880757 0
M  V30 1314 N 228.379 1.67126 -2.8339 0
M  V30 1315 C 228.259 0.401421 -3.30572 0
M  V30 1316 H 225.28 -0.374722 -8.67691 0
M  V30 1317 H 225.01 -0.443485 -6.90277 0
M  V30 1318 H 225.877 1.75537 -7.96793 0
M  V30 1319 H 228.532 1.95076 -5.46529 0
M  V30 1320 H 228.811 -0.608565 -7.04577 0
M  V30 1321 H 229.803 0.889672 -7.08939 0
M  V30 1322 H 227.969 0.43308 -9.04564 0
M  V30 1323 H 227.92 -1.91249 -5.54442 0
M  V30 1324 H 228.602 0.718054 0.275244 0
M  V30 1325 H 228.639 3.75721 -1.41832 0
M  V30 1326 H 228.74 2.90436 0.145468 0
M  V30 1327 P 229.839 2.75334 -8.47391 0
M  V30 1328 O 230.059 3.84128 -9.44797 0
M  V30 1329 O 230.629 1.51947 -8.68712 0
M  V30 1330 O 230.089 3.29363 -6.99321 0
M  V30 1331 C 229.149 4.24011 -6.4274 0
M  V30 1332 C 229.879 5.20775 -5.52155 0
M  V30 1333 O 230.089 4.56534 -4.22446 0
M  V30 1334 C 231.279 5.62629 -5.96531 0
M  V30 1335 O 231.669 6.87667 -5.41053 0
M  V30 1336 C 232.159 4.52537 -5.39283 0
M  V30 1337 C 231.449 4.20027 -4.08623 0
M  V30 1338 N 231.499 2.76189 -3.71603 0
M  V30 1339 H 228.66 4.797 -7.24003 0
M  V30 1340 H 228.39 3.69856 -5.84513 0
M  V30 1341 H 229.257 6.10356 -5.41441 0
M  V30 1342 P 233.219 7.20834 -5.23717 0
M  V30 1343 O 233.439 8.66104 -5.38572 0
M  V30 1344 O 234.009 6.33544 -6.1349 0
M  V30 1345 O 233.469 6.7751 -3.72168 0
M  V30 1346 C 232.529 7.20825 -2.7076 0
M  V30 1347 C 233.259 7.45864 -1.40599 0
M  V30 1348 O 233.469 6.17651 -0.734225 0
M  V30 1349 C 234.659 8.05808 -1.51899 0
M  V30 1350 O 235.049 8.74358 -0.335205 0
M  V30 1351 C 235.539 6.83093 -1.70294 0
M  V30 1352 C 234.829 5.79992 -0.836974 0
M  V30 1353 N 234.879 4.41864 -1.38293 0
M  V30 1354 H 232.04 8.13644 -3.0377 0
M  V30 1355 H 231.77 6.42788 -2.55485 0
M  V30 1356 H 232.637 8.12039 -0.792769 0
M  V30 1357 P 236.599 8.91 5.54508e-13 0
M  V30 1358 O 236.819 10.1726 0.733694 0
M  V30 1359 O 237.389 8.73148 -1.23936 0
M  V30 1360 O 236.849 7.66872 0.971405 0
M  V30 1361 C 235.909 7.42309 2.04641 0
M  V30 1362 C 236.639 6.86059 3.24661 0
M  V30 1363 O 236.849 5.42847 3.03646 0
M  V30 1364 C 238.039 7.41196 3.50753 0
M  V30 1365 O 238.429 7.27073 4.86816 0
M  V30 1366 C 238.919 6.5273 2.63741 0
M  V30 1367 C 238.209 5.1842 2.73198 0
M  V30 1368 N 238.259 4.38762 1.4784 0
M  V30 1369 C 238.179 4.81605 0.168631 0
M  V30 1370 N 238.259 3.85454 -0.713363 0
M  V30 1371 C 238.399 2.6994 0.0566958 0
M  V30 1372 C 238.529 1.34815 -0.338502 0
M  V30 1373 N 238.649 0.496304 0.77465 0
M  V30 1374 C 238.649 0.908403 2.09122 0
M  V30 1375 N 238.779 -0.0517805 3.00955 0
M  V30 1376 N 238.519 2.17875 2.46519 0
M  V30 1377 C 238.399 3.01988 1.4033 0
M  V30 1378 H 235.42 8.36803 2.32493 0
M  V30 1379 H 235.15 6.70197 1.71129 0
M  V30 1380 H 236.017 7.03551 4.13168 0
M  V30 1381 P 239.979 7.20834 5.23717 0
M  V30 1382 O 240.199 7.79853 6.57286 0
M  V30 1383 O 240.769 7.79239 4.12957 0
M  V30 1384 O 240.229 5.63315 5.29344 0
M  V30 1385 C 239.289 4.80255 6.01876 0
M  V30 1386 C 240.019 3.64202 6.65911 0
M  V30 1387 O 240.229 2.60694 5.64732 0
M  V30 1388 C 241.419 3.93473 7.1943 0
M  V30 1389 O 241.809 3.02071 8.21205 0
M  V30 1390 C 242.299 3.73047 5.97036 0
M  V30 1391 C 241.589 2.58828 5.25741 0
M  V30 1392 N 241.639 2.68068 3.77503 0
M  V30 1393 H 238.8 5.40332 6.79951 0
M  V30 1394 H 238.53 4.41613 5.32378 0
M  V30 1395 H 239.397 3.26331 7.47797 0
M  V30 1396 P 243.359 2.75334 8.47391 0
M  V30 1397 O 243.579 2.44619 9.90336 0
M  V30 1398 O 244.149 3.87776 7.92294 0
M  V30 1399 O 243.609 1.4459 7.59357 0
M  V30 1400 C 242.669 0.347653 7.69315 0
M  V30 1401 C 243.399 -0.96767 7.52806 0
M  V30 1402 O 243.609 -1.21055 6.10208 0
M  V30 1403 C 244.799 -1.04557 8.13408 0
M  V30 1404 O 245.189 -2.38311 8.41922 0
M  V30 1405 C 245.679 -0.491279 7.02284 0
M  V30 1406 C 244.969 -0.996264 5.77469 0
M  V30 1407 N 245.019 -0.0501916 4.62973 0
M  V30 1408 C 244.939 1.31969 4.65661 0
M  V30 1409 N 245.009 1.86649 3.48119 0
M  V30 1410 C 245.159 0.792089 2.62406 0
M  V30 1411 C 245.289 0.705684 1.2207 0
M  V30 1412 N 245.299 1.76207 0.413762 0
M  V30 1413 N 245.409 -0.518981 0.685754 0
M  V30 1414 C 245.399 -1.57595 1.49174 0
M  V30 1415 N 245.279 -1.62909 2.80066 0
M  V30 1416 C 245.159 -0.388195 3.3073 0
M  V30 1417 H 242.181 0.374765 8.67791 0
M  V30 1418 H 241.909 0.443613 6.90476 0
M  V30 1419 H 242.777 -1.75559 7.96891 0
M  V30 1420 H 245.432 -1.94563 5.46818 0
M  V30 1421 H 245.712 0.608651 7.04676 0
M  V30 1422 H 246.703 -0.889796 7.09039 0
M  V30 1423 H 244.869 -0.433128 9.04664 0
M  V30 1424 H 244.828 1.89246 5.57664 0
M  V30 1425 H 245.209 2.71005 0.804694 0
M  V30 1426 H 245.398 1.63189 -0.603768 0
M  V30 1427 H 245.506 -2.53475 0.997614 0
M  V30 1428 P 246.739 -2.75334 8.47391 0
M  V30 1429 O 246.959 -3.84128 9.44797 0
M  V30 1430 O 247.529 -1.51947 8.68712 0
M  V30 1431 O 246.989 -3.29363 6.99321 0
M  V30 1432 C 246.049 -4.24011 6.4274 0
M  V30 1433 C 246.779 -5.20775 5.52155 0
M  V30 1434 O 246.989 -4.56534 4.22446 0
M  V30 1435 C 248.179 -5.62629 5.96531 0
M  V30 1436 O 248.569 -6.87667 5.41053 0
M  V30 1437 C 249.059 -4.52537 5.39283 0
M  V30 1438 C 248.349 -4.20027 4.08623 0
M  V30 1439 N 248.399 -2.76189 3.71603 0
M  V30 1440 H 245.56 -4.797 7.24003 0
M  V30 1441 H 245.29 -3.69856 5.84513 0
M  V30 1442 H 246.157 -6.10356 5.41441 0
M  V30 1443 P 250.119 -7.20834 5.23717 0
M  V30 1444 O 250.339 -8.66104 5.38572 0
M  V30 1445 O 250.909 -6.33544 6.1349 0
M  V30 1446 O 250.369 -6.7751 3.72168 0
M  V30 1447 C 249.429 -7.20825 2.7076 0
M  V30 1448 C 250.159 -7.45864 1.40599 0
M  V30 1449 O 250.369 -6.17651 0.734225 0
M  V30 1450 C 251.559 -8.05808 1.51899 0
M  V30 1451 O 251.949 -8.74358 0.335205 0
M  V30 1452 C 252.439 -6.83093 1.70294 0
M  V30 1453 C 251.729 -5.79992 0.836974 0
M  V30 1454 N 251.779 -4.41864 1.38293 0
M  V30 1455 H 248.94 -8.13644 3.0377 0
M  V30 1456 H 248.67 -6.42788 2.55485 0
M  V30 1457 H 249.537 -8.12039 0.792769 0
M  V30 1458 P 253.498 -8.91 -7.1169e-13 0
M  V30 1459 O 253.718 -10.1726 -0.733694 0
M  V30 1460 O 254.288 -8.73148 1.23936 0
M  V30 1461 O 253.748 -7.66872 -0.971405 0
M  V30 1462 C 252.808 -7.42309 -2.04641 0
M  V30 1463 C 253.538 -6.86059 -3.24661 0
M  V30 1464 O 253.748 -5.42847 -3.03646 0
M  V30 1465 C 254.938 -7.41196 -3.50753 0
M  V30 1466 O 255.328 -7.27073 -4.86816 0
M  V30 1467 C 255.818 -6.5273 -2.63741 0
M  V30 1468 C 255.108 -5.1842 -2.73198 0
M  V30 1469 N 255.158 -4.38762 -1.4784 0
M  V30 1470 H 252.319 -8.36803 -2.32493 0
M  V30 1471 H 252.049 -6.70197 -1.71129 0
M  V30 1472 H 252.916 -7.03551 -4.13168 0
M  V30 1473 P 256.878 -7.20834 -5.23717 0
M  V30 1474 O 257.098 -7.79853 -6.57286 0
M  V30 1475 O 257.668 -7.79239 -4.12957 0
M  V30 1476 O 257.128 -5.63315 -5.29344 0
M  V30 1477 C 256.188 -4.80255 -6.01876 0
M  V30 1478 C 256.918 -3.64202 -6.65911 0
M  V30 1479 O 257.128 -2.60694 -5.64732 0
M  V30 1480 C 258.318 -3.93473 -7.1943 0
M  V30 1481 O 258.708 -3.02071 -8.21205 0
M  V30 1482 C 259.198 -3.73047 -5.97036 0
M  V30 1483 C 258.488 -2.58828 -5.25741 0
M  V30 1484 N 258.538 -2.68068 -3.77503 0
M  V30 1485 C 258.458 -3.79715 -2.96723 0
M  V30 1486 N 258.538 -3.5377 -1.68852 0
M  V30 1487 C 258.678 -2.15054 -1.63254 0
M  V30 1488 C 258.808 -1.28964 -0.518571 0
M  V30 1489 O 258.828 -1.56826 0.679156 0
M  V30 1490 N 258.928 0.0538097 -0.918425 0
M  V30 1491 C 258.928 0.494275 -2.22578 0
M  V30 1492 N 259.058 1.81086 -2.40434 0
M  V30 1493 N 258.798 -0.313645 -3.27502 0
M  V30 1494 C 258.678 -1.61829 -2.91033 0
M  V30 1495 H 255.699 -5.40332 -6.79951 0
M  V30 1496 H 255.429 -4.41613 -5.32378 0
M  V30 1497 H 256.296 -3.26331 -7.47797 0
M  V30 1498 H 258.951 -1.63422 -5.56814 0
M  V30 1499 H 259.23 -4.63374 -5.34244 0
M  V30 1500 H 260.222 -3.44728 -6.25838 0
M  V30 1501 H 258.388 -4.96652 -7.57263 0
M  V30 1502 H 258.339 -4.80617 -3.3614 0
M  V30 1503 H 259.021 0.742702 -0.199384 0
M  V30 1504 H 259.058 2.20598 -3.35588 0
M  V30 1505 H 259.159 2.43518 -1.58945 0
M  V30 1506 P 260.258 -2.75334 -8.47391 0
M  V30 1507 O 260.478 -2.44619 -9.90336 0
M  V30 1508 O 261.048 -3.87776 -7.92294 0
M  V30 1509 O 260.508 -1.4459 -7.59357 0
M  V30 1510 C 259.568 -0.347653 -7.69315 0
M  V30 1511 C 260.298 0.96767 -7.52806 0
M  V30 1512 O 260.508 1.21055 -6.10208 0
M  V30 1513 C 261.698 1.04557 -8.13408 0
M  V30 1514 O 262.088 2.38311 -8.41922 0
M  V30 1515 C 262.578 0.491279 -7.02284 0
M  V30 1516 C 261.868 0.996264 -5.77469 0
M  V30 1517 N 261.918 0.0501916 -4.62973 0
M  V30 1518 C 261.838 -1.31969 -4.65661 0
M  V30 1519 N 261.908 -1.86649 -3.48119 0
M  V30 1520 C 262.058 -0.792089 -2.62406 0
M  V30 1521 C 262.188 -0.705684 -1.2207 0
M  V30 1522 N 262.198 -1.76207 -0.413762 0
M  V30 1523 N 262.308 0.518981 -0.685754 0
M  V30 1524 C 262.298 1.57595 -1.49174 0
M  V30 1525 N 262.178 1.62909 -2.80066 0
M  V30 1526 C 262.058 0.388195 -3.3073 0
M  V30 1527 H 259.08 -0.374765 -8.67791 0
M  V30 1528 H 258.808 -0.443613 -6.90476 0
M  V30 1529 H 259.676 1.75559 -7.96891 0
M  V30 1530 H 262.331 1.94563 -5.46818 0
M  V30 1531 H 262.611 -0.608651 -7.04676 0
M  V30 1532 H 263.602 0.889796 -7.09039 0
M  V30 1533 H 261.768 0.433128 -9.04664 0
M  V30 1534 H 261.727 -1.89246 -5.57664 0
M  V30 1535 H 262.108 -2.71005 -0.804694 0
M  V30 1536 H 262.297 -1.63189 0.603768 0
M  V30 1537 H 262.405 2.53475 -0.997614 0
M  V30 1538 P 263.638 2.75334 -8.47391 0
M  V30 1539 O 263.858 3.84128 -9.44797 0
M  V30 1540 O 264.428 1.51947 -8.68712 0
M  V30 1541 O 263.888 3.29363 -6.99321 0
M  V30 1542 C 262.948 4.24011 -6.4274 0
M  V30 1543 C 263.678 5.20775 -5.52155 0
M  V30 1544 O 263.888 4.56534 -4.22446 0
M  V30 1545 C 265.078 5.62629 -5.96531 0
M  V30 1546 O 265.468 6.87667 -5.41053 0
M  V30 1547 C 265.958 4.52537 -5.39283 0
M  V30 1548 C 265.248 4.20027 -4.08623 0
M  V30 1549 N 265.298 2.76189 -3.71603 0
M  V30 1550 C 265.218 1.64862 -4.52822 0
M  V30 1551 N 265.298 0.512671 -3.88633 0
M  V30 1552 C 265.438 0.888083 -2.54977 0
M  V30 1553 C 265.568 0.094668 -1.38677 0
M  V30 1554 O 265.588 -1.13053 -1.28163 0
M  V30 1555 N 265.688 0.890102 -0.232633 0
M  V30 1556 C 265.688 2.26958 -0.21772 0
M  V30 1557 N 265.818 2.84626 0.97925 0
M  V30 1558 N 265.558 3.0178 -1.31033 0
M  V30 1559 C 265.438 2.26781 -2.43843 0
M  V30 1560 H 262.459 4.797 -7.24003 0
M  V30 1561 H 262.189 3.69856 -5.84513 0
M  V30 1562 H 263.056 6.10356 -5.41441 0
M  V30 1563 H 265.711 4.79061 -3.27488 0
M  V30 1564 H 265.99 3.64906 -6.05785 0
M  V30 1565 H 266.982 4.8868 -5.2125 0
M  V30 1566 H 265.148 5.66726 -7.06352 0
M  V30 1567 H 265.099 1.71169 -5.60966 0
M  V30 1568 H 265.781 0.419134 0.644739 0
M  V30 1569 H 265.818 3.87332 1.06098 0
M  V30 1570 H 265.919 2.26417 1.82483 0
M  V30 1571 P 267.018 7.20834 -5.23717 0
M  V30 1572 O 267.238 8.66104 -5.38572 0
M  V30 1573 O 267.808 6.33544 -6.1349 0
M  V30 1574 O 267.268 6.7751 -3.72168 0
M  V30 1575 C 266.328 7.20825 -2.7076 0
M  V30 1576 C 267.058 7.45864 -1.40599 0
M  V30 1577 O 267.268 6.17651 -0.734225 0
M  V30 1578 C 268.458 8.05808 -1.51899 0
M  V30 1579 O 268.848 8.74358 -0.335205 0
M  V30 1580 C 269.338 6.83093 -1.70294 0
M  V30 1581 C 268.628 5.79992 -0.836974 0
M  V30 1582 N 268.678 4.41864 -1.38293 0
M  V30 1583 H 265.839 8.13644 -3.0377 0
M  V30 1584 H 265.569 6.42788 -2.55485 0
M  V30 1585 H 266.436 8.12039 -0.792769 0
M  V30 1586 P 270.398 8.91 8.68872e-13 0
M  V30 1587 O 270.618 10.1746 0.733838 0
M  V30 1588 O 271.188 8.73346 -1.23964 0
M  V30 1589 O 270.648 7.66872 0.971405 0
M  V30 1590 C 269.708 7.42405 2.04668 0
M  V30 1591 C 270.438 6.86059 3.24661 0
M  V30 1592 O 270.648 5.42934 3.03695 0
M  V30 1593 C 271.838 7.41287 3.50796 0
M  V30 1594 O 272.228 7.27073 4.86816 0
M  V30 1595 C 272.718 6.5273 2.63741 0
M  V30 1596 C 272.008 5.1842 2.73198 0
M  V30 1597 N 272.058 4.38762 1.4784 0
M  V30 1598 C 271.978 4.83651 0.183876 0
M  V30 1599 N 272.048 3.88759 -0.699393 0
M  V30 1600 C 272.198 2.7404 0.0575568 0
M  V30 1601 C 272.328 1.37902 -0.293928 0
M  V30 1602 N 272.338 0.938021 -1.54797 0
M  V30 1603 N 272.448 0.491817 0.70549 0
M  V30 1604 C 272.438 0.931735 1.95979 0
M  V30 1605 N 272.318 2.16017 2.41481 0
M  V30 1606 C 272.198 3.02547 1.39121 0
M  V30 1607 H 269.22 8.36899 2.3252 0
M  V30 1608 H 268.948 6.70391 1.71179 0
M  V30 1609 H 269.816 7.03638 4.13219 0
M  V30 1610 H 272.471 4.59931 3.54016 0
M  V30 1611 H 272.751 6.88995 1.59871 0
M  V30 1612 H 273.742 6.4684 3.0373 0
M  V30 1613 H 271.908 8.47002 3.20749 0
M  V30 1614 H 271.867 5.8885 -0.0765548 0
M  V30 1615 H 272.248 1.60276 -2.32875 0
M  V30 1616 H 272.437 -0.0699355 -1.73859 0
M  V30 1617 H 272.545 0.165507 2.71897 0
M  V30 1618 P 273.778 7.20834 5.23717 0
M  V30 1619 O 273.998 7.79853 6.57286 0
M  V30 1620 O 274.568 7.79239 4.12957 0
M  V30 1621 O 274.028 5.63315 5.29344 0
M  V30 1622 C 273.088 4.80255 6.01876 0
M  V30 1623 C 273.818 3.64202 6.65911 0
M  V30 1624 O 274.028 2.60694 5.64732 0
M  V30 1625 C 275.218 3.93473 7.1943 0
M  V30 1626 O 275.608 3.02071 8.21205 0
M  V30 1627 C 276.098 3.73047 5.97036 0
M  V30 1628 C 275.388 2.58828 5.25741 0
M  V30 1629 N 275.438 2.68068 3.77503 0
M  V30 1630 H 272.599 5.40332 6.79951 0
M  V30 1631 H 272.329 4.41613 5.32378 0
M  V30 1632 H 273.196 3.26331 7.47797 0
M  V30 1633 P 277.158 2.75334 8.47391 0
M  V30 1634 O 277.378 2.44571 9.90142 0
M  V30 1635 O 277.948 3.87688 7.92115 0
M  V30 1636 O 277.408 1.4459 7.59357 0
M  V30 1637 C 276.468 0.347608 7.69215 0
M  V30 1638 C 277.198 -0.96767 7.52806 0
M  V30 1639 O 277.408 -1.21036 6.1011 0
M  V30 1640 C 278.598 -1.04544 8.13308 0
M  V30 1641 O 278.988 -2.38311 8.41922 0
M  V30 1642 C 279.478 -0.491279 7.02284 0
M  V30 1643 C 278.768 -0.996264 5.77469 0
M  V30 1644 N 278.818 -0.0501916 4.62973 0
M  V30 1645 H 275.979 0.374722 8.67691 0
M  V30 1646 H 275.709 0.443485 6.90277 0
M  V30 1647 H 276.576 -1.75537 7.96793 0
M  V30 1648 P 280.538 -2.75334 8.47391 0
M  V30 1649 O 280.758 -3.84166 9.4489 0
M  V30 1650 O 281.328 -1.51964 8.6881 0
M  V30 1651 O 280.788 -3.29363 6.99321 0
M  V30 1652 C 279.848 -4.23956 6.42656 0
M  V30 1653 C 280.578 -5.20775 5.52155 0
M  V30 1654 O 280.788 -4.56534 4.22446 0
M  V30 1655 C 281.978 -5.62629 5.96531 0
M  V30 1656 O 282.368 -6.87667 5.41053 0
M  V30 1657 C 282.858 -4.52537 5.39283 0
M  V30 1658 C 282.148 -4.20027 4.08623 0
M  V30 1659 N 282.198 -2.7613 3.71522 0
M  V30 1660 C 282.348 -2.45612 2.37989 0
M  V30 1661 O 282.438 -3.30919 1.51621 0
M  V30 1662 N 282.388 -1.10684 2.08435 0
M  V30 1663 C 282.298 -0.0690084 2.9792 0
M  V30 1664 C 282.148 -0.481522 4.35345 0
M  V30 1665 C 282.098 -1.78906 4.67968 0
M  V30 1666 H 279.358 -4.797 7.24003 0
M  V30 1667 H 279.089 -3.69802 5.84429 0
M  V30 1668 H 279.956 -6.10356 5.41441 0
M  V30 1669 H 282.611 -4.78651 3.27911 0
M  V30 1670 H 282.89 -3.64957 6.05871 0
M  V30 1671 H 283.882 -4.8868 5.2125 0
M  V30 1672 H 282.048 -5.66726 7.06352 0
M  V30 1673 H 281.977 -2.07737 5.72367 0
M  V30 1674 P 283.918 -7.20834 5.23717 0
M  V30 1675 O 284.138 -8.66189 5.38625 0
M  V30 1676 O 284.708 -6.33615 6.1356 0
M  V30 1677 O 284.168 -6.7751 3.72168 0
M  V30 1678 C 283.228 -7.20732 2.70725 0
M  V30 1679 C 283.958 -7.45864 1.40599 0
M  V30 1680 O 284.168 -6.17651 0.734225 0
M  V30 1681 C 285.358 -8.05808 1.51899 0
M  V30 1682 O 285.748 -8.74358 0.335205 0
M  V30 1683 C 286.238 -6.83093 1.70294 0
M  V30 1684 C 285.528 -5.79992 0.836974 0
M  V30 1685 N 285.578 -4.41769 1.38263 0
M  V30 1686 C 285.728 -3.38591 0.481702 0
M  V30 1687 O 285.818 -3.56839 -0.718452 0
M  V30 1688 N 285.768 -2.1206 1.03569 0
M  V30 1689 C 285.678 -1.80696 2.36966 0
M  V30 1690 O 285.728 -0.630473 2.74862 0
M  V30 1691 C 285.528 -2.94845 3.23898 0
M  V30 1692 C 285.418 -2.65253 4.70362 0
M  V30 1693 C 285.478 -4.19803 2.73435 0
M  V30 1694 H 282.738 -8.13644 3.0377 0
M  V30 1695 H 282.469 -6.42695 2.55448 0
M  V30 1696 H 283.336 -8.12039 0.792769 0
M  V30 1697 H 285.991 -5.79978 -0.160587 0
M  V30 1698 H 286.27 -6.51379 2.75643 0
M  V30 1699 H 287.262 -7.01734 1.34462 0
M  V30 1700 H 285.428 -8.73674 2.38337 0
M  V30 1701 H 285.357 -5.04492 3.4095 0
M  V30 1702 H 286.387 -2.83924 5.1913 0
M  V30 1703 H 284.65 -3.29824 5.15163 0
M  V30 1704 H 285.138 -1.59723 4.84449 0
M  V30 1705 H 285.874 -1.35644 0.399345 0
M  V30 1706 P 287.298 -8.91 -1.02605e-12 0
M  V30 1707 O 287.518 -10.1726 -0.733694 0
M  V30 1708 O 288.088 -8.73148 1.23936 0
M  V30 1709 O 287.548 -7.66872 -0.971405 0
M  V30 1710 C 286.608 -7.42309 -2.04641 0
M  V30 1711 C 287.338 -6.86059 -3.24661 0
M  V30 1712 O 287.548 -5.42847 -3.03646 0
M  V30 1713 C 288.738 -7.41196 -3.50753 0
M  V30 1714 O 289.128 -7.27073 -4.86816 0
M  V30 1715 C 289.618 -6.5273 -2.63741 0
M  V30 1716 C 288.908 -5.1842 -2.73198 0
M  V30 1717 N 288.958 -4.38762 -1.4784 0
M  V30 1718 H 286.119 -8.36803 -2.32493 0
M  V30 1719 H 285.849 -6.70197 -1.71129 0
M  V30 1720 H 286.716 -7.03551 -4.13168 0
M  V30 1721 P 290.678 -7.20834 -5.23717 0
M  V30 1722 O 290.898 -7.79853 -6.57286 0
M  V30 1723 O 291.468 -7.79239 -4.12957 0
M  V30 1724 O 290.928 -5.63315 -5.29344 0
M  V30 1725 C 289.988 -4.80255 -6.01876 0
M  V30 1726 C 290.718 -3.64202 -6.65911 0
M  V30 1727 O 290.928 -2.60694 -5.64732 0
M  V30 1728 C 292.118 -3.93473 -7.1943 0
M  V30 1729 O 292.508 -3.02071 -8.21205 0
M  V30 1730 C 292.998 -3.73047 -5.97036 0
M  V30 1731 C 292.288 -2.58828 -5.25741 0
M  V30 1732 N 292.338 -2.68068 -3.77503 0
M  V30 1733 H 289.499 -5.40332 -6.79951 0
M  V30 1734 H 289.229 -4.41613 -5.32378 0
M  V30 1735 H 290.096 -3.26331 -7.47797 0
M  V30 1736 P 294.058 -2.75334 -8.47391 0
M  V30 1737 O 294.278 -2.44571 -9.90142 0
M  V30 1738 O 294.848 -3.87688 -7.92115 0
M  V30 1739 O 294.308 -1.4459 -7.59357 0
M  V30 1740 C 293.368 -0.347608 -7.69215 0
M  V30 1741 C 294.098 0.96767 -7.52806 0
M  V30 1742 O 294.308 1.21036 -6.1011 0
M  V30 1743 C 295.498 1.04544 -8.13308 0
M  V30 1744 O 295.888 2.38311 -8.41922 0
M  V30 1745 C 296.378 0.491279 -7.02284 0
M  V30 1746 C 295.668 0.996264 -5.77469 0
M  V30 1747 N 295.718 0.0501916 -4.62973 0
M  V30 1748 H 292.879 -0.374722 -8.67691 0
M  V30 1749 H 292.609 -0.443485 -6.90277 0
M  V30 1750 H 293.476 1.75537 -7.96793 0
M  V30 1751 P 297.438 2.75334 -8.47391 0
M  V30 1752 O 297.658 3.84128 -9.44797 0
M  V30 1753 O 298.228 1.51947 -8.68712 0
M  V30 1754 O 297.688 3.29363 -6.99321 0
M  V30 1755 C 296.748 4.24011 -6.4274 0
M  V30 1756 C 297.478 5.20775 -5.52155 0
M  V30 1757 O 297.688 4.56534 -4.22446 0
M  V30 1758 C 298.878 5.62629 -5.96531 0
M  V30 1759 O 299.268 6.87667 -5.41053 0
M  V30 1760 C 299.758 4.52537 -5.39283 0
M  V30 1761 C 299.048 4.20027 -4.08623 0
M  V30 1762 N 299.098 2.76189 -3.71603 0
M  V30 1763 H 296.259 4.797 -7.24003 0
M  V30 1764 H 295.989 3.69856 -5.84513 0
M  V30 1765 H 296.856 6.10356 -5.41441 0
M  V30 1766 P 300.818 7.20834 -5.23717 0
M  V30 1767 O 301.038 8.66104 -5.38572 0
M  V30 1768 O 301.608 6.33544 -6.1349 0
M  V30 1769 O 301.068 6.7751 -3.72168 0
M  V30 1770 C 300.128 7.20825 -2.7076 0
M  V30 1771 C 300.858 7.45864 -1.40599 0
M  V30 1772 O 301.068 6.17651 -0.734225 0
M  V30 1773 C 302.258 8.05808 -1.51899 0
M  V30 1774 O 302.648 8.74358 -0.335205 0
M  V30 1775 C 303.138 6.83093 -1.70294 0
M  V30 1776 C 302.428 5.79992 -0.836974 0
M  V30 1777 N 302.478 4.41864 -1.38293 0
M  V30 1778 H 299.639 8.13644 -3.0377 0
M  V30 1779 H 299.369 6.42788 -2.55485 0
M  V30 1780 H 300.236 8.12039 -0.792769 0
M  V30 1781 P 304.198 8.91 1.18324e-12 0
M  V30 1782 O 304.418 10.1726 0.733694 0
M  V30 1783 O 304.988 8.73148 -1.23936 0
M  V30 1784 O 304.448 7.66872 0.971405 0
M  V30 1785 C 303.508 7.42309 2.04641 0
M  V30 1786 C 304.238 6.86059 3.24661 0
M  V30 1787 O 304.448 5.42847 3.03646 0
M  V30 1788 C 305.638 7.41196 3.50753 0
M  V30 1789 O 306.028 7.27073 4.86816 0
M  V30 1790 C 306.518 6.5273 2.63741 0
M  V30 1791 C 305.808 5.1842 2.73198 0
M  V30 1792 N 305.858 4.38762 1.4784 0
M  V30 1793 H 303.019 8.36803 2.32493 0
M  V30 1794 H 302.749 6.70197 1.71129 0
M  V30 1795 H 303.616 7.03551 4.13168 0
M  V30 1796 P 307.578 7.20834 5.23717 0
M  V30 1797 O 307.798 7.79853 6.57286 0
M  V30 1798 O 308.368 7.79239 4.12957 0
M  V30 1799 O 307.828 5.63315 5.29344 0
M  V30 1800 C 306.888 4.80255 6.01876 0
M  V30 1801 C 307.618 3.64202 6.65911 0
M  V30 1802 O 307.828 2.60694 5.64732 0
M  V30 1803 C 309.018 3.93473 7.1943 0
M  V30 1804 O 309.408 3.02071 8.21205 0
M  V30 1805 C 309.898 3.73047 5.97036 0
M  V30 1806 C 309.188 2.58828 5.25741 0
M  V30 1807 N 309.238 2.68068 3.77503 0
M  V30 1808 H 306.399 5.40332 6.79951 0
M  V30 1809 H 306.129 4.41613 5.32378 0
M  V30 1810 H 306.996 3.26331 7.47797 0
M  V30 1811 P 310.958 2.75334 8.47391 0
M  V30 1812 O 311.178 2.44595 9.90239 0
M  V30 1813 O 311.748 3.87732 7.92204 0
M  V30 1814 O 311.208 1.4459 7.59357 0
M  V30 1815 C 310.268 0.347608 7.69215 0
M  V30 1816 C 310.998 -0.96767 7.52806 0
M  V30 1817 O 311.208 -1.21036 6.1011 0
M  V30 1818 C 312.398 -1.04544 8.13308 0
M  V30 1819 O 312.788 -2.38311 8.41922 0
M  V30 1820 C 313.278 -0.491279 7.02284 0
M  V30 1821 C 312.568 -0.996264 5.77469 0
M  V30 1822 N 312.618 -0.0501808 4.62873 0
M  V30 1823 C 312.768 -0.578037 3.3505 0
M  V30 1824 O 312.858 -1.8073 3.21711 0
M  V30 1825 N 312.818 0.468541 2.263 0
M  V30 1826 C 312.718 1.59186 2.47176 0
M  V30 1827 N 312.768 2.37626 1.40392 0
M  V30 1828 C 312.568 2.16203 3.77467 0
M  V30 1829 C 312.518 1.29324 4.8195 0
M  V30 1830 H 309.778 0.374679 8.67591 0
M  V30 1831 H 309.509 0.443421 6.90177 0
M  V30 1832 H 310.376 -1.75559 7.96891 0
M  V30 1833 H 313.031 -1.94529 5.46723 0
M  V30 1834 H 313.31 0.608651 7.04676 0
M  V30 1835 H 314.302 -0.889672 7.08939 0
M  V30 1836 H 312.468 -0.43308 9.04564 0
M  V30 1837 H 312.396 1.67758 5.83046 0
M  V30 1838 H 312.498 3.23869 3.92281 0
M  V30 1839 H 312.886 1.96317 0.467202 0
M  V30 1840 H 312.689 3.39693 1.51142 0
M  V30 1841 P 314.338 -2.75334 8.47391 0
M  V30 1842 O 314.558 -3.84166 9.4489 0
M  V30 1843 O 315.128 -1.51964 8.6881 0
M  V30 1844 O 314.588 -3.29363 6.99321 0
M  V30 1845 C 313.648 -4.23956 6.42656 0
M  V30 1846 C 314.378 -5.20775 5.52155 0
M  V30 1847 O 314.588 -4.56534 4.22446 0
M  V30 1848 C 315.778 -5.62629 5.96531 0
M  V30 1849 O 316.168 -6.87667 5.41053 0
M  V30 1850 C 316.658 -4.52537 5.39283 0
M  V30 1851 C 315.948 -4.20027 4.08623 0
M  V30 1852 N 315.998 -2.7613 3.71522 0
M  V30 1853 C 316.148 -2.45612 2.37989 0
M  V30 1854 O 316.238 -3.30919 1.51621 0
M  V30 1855 N 316.188 -1.10684 2.08435 0
M  V30 1856 C 316.098 -0.0690084 2.9792 0
M  V30 1857 C 315.948 -0.481522 4.35345 0
M  V30 1858 C 315.898 -1.78906 4.67968 0
M  V30 1859 H 313.158 -4.797 7.24003 0
M  V30 1860 H 312.889 -3.69802 5.84429 0
M  V30 1861 H 313.756 -6.10356 5.41441 0
M  V30 1862 H 316.411 -4.78651 3.27911 0
M  V30 1863 H 316.69 -3.64957 6.05871 0
M  V30 1864 H 317.682 -4.8868 5.2125 0
M  V30 1865 H 315.848 -5.66726 7.06352 0
M  V30 1866 H 315.777 -2.07737 5.72367 0
M  V30 1867 P 317.718 -7.20834 5.23717 0
M  V30 1868 O 317.938 -8.66104 5.38572 0
M  V30 1869 O 318.508 -6.33544 6.1349 0
M  V30 1870 O 317.968 -6.7751 3.72168 0
M  V30 1871 C 317.028 -7.20825 2.7076 0
M  V30 1872 C 317.758 -7.45864 1.40599 0
M  V30 1873 O 317.968 -6.17651 0.734225 0
M  V30 1874 C 319.158 -8.05808 1.51899 0
M  V30 1875 O 319.548 -8.74358 0.335205 0
M  V30 1876 C 320.038 -6.83093 1.70294 0
M  V30 1877 C 319.328 -5.79992 0.836974 0
M  V30 1878 N 319.378 -4.41864 1.38293 0
M  V30 1879 H 316.539 -8.13644 3.0377 0
M  V30 1880 H 316.269 -6.42788 2.55485 0
M  V30 1881 H 317.136 -8.12039 0.792769 0
M  V30 1882 P 321.098 -8.91 -1.34042e-12 0
M  V30 1883 O 321.318 -10.1726 -0.733694 0
M  V30 1884 O 321.888 -8.73148 1.23936 0
M  V30 1885 O 321.348 -7.66872 -0.971405 0
M  V30 1886 C 320.408 -7.42309 -2.04641 0
M  V30 1887 C 321.138 -6.86059 -3.24661 0
M  V30 1888 O 321.348 -5.42847 -3.03646 0
M  V30 1889 C 322.538 -7.41196 -3.50753 0
M  V30 1890 O 322.928 -7.27073 -4.86816 0
M  V30 1891 C 323.418 -6.5273 -2.63741 0
M  V30 1892 C 322.708 -5.1842 -2.73198 0
M  V30 1893 N 322.758 -4.38762 -1.4784 0
M  V30 1894 H 319.919 -8.36803 -2.32493 0
M  V30 1895 H 319.649 -6.70197 -1.71129 0
M  V30 1896 H 320.516 -7.03551 -4.13168 0
M  V30 1897 P 324.478 -7.20834 -5.23717 0
M  V30 1898 O 324.698 -7.79853 -6.57286 0
M  V30 1899 O 325.268 -7.79239 -4.12957 0
M  V30 1900 O 324.728 -5.63315 -5.29344 0
M  V30 1901 C 323.788 -4.80255 -6.01876 0
M  V30 1902 C 324.518 -3.64202 -6.65911 0
M  V30 1903 O 324.728 -2.60694 -5.64732 0
M  V30 1904 C 325.918 -3.93473 -7.1943 0
M  V30 1905 O 326.308 -3.02071 -8.21205 0
M  V30 1906 C 326.798 -3.73047 -5.97036 0
M  V30 1907 C 326.088 -2.58828 -5.25741 0
M  V30 1908 N 326.138 -2.68068 -3.77503 0
M  V30 1909 H 323.299 -5.40332 -6.79951 0
M  V30 1910 H 323.029 -4.41613 -5.32378 0
M  V30 1911 H 323.896 -3.26331 -7.47797 0
M  V30 1912 P 327.858 -2.75334 -8.47391 0
M  V30 1913 O 328.078 -2.44571 -9.90142 0
M  V30 1914 O 328.648 -3.87688 -7.92115 0
M  V30 1915 O 328.108 -1.4459 -7.59357 0
M  V30 1916 C 327.168 -0.347608 -7.69215 0
M  V30 1917 C 327.898 0.96767 -7.52806 0
M  V30 1918 O 328.108 1.21036 -6.1011 0
M  V30 1919 C 329.298 1.04544 -8.13308 0
M  V30 1920 O 329.688 2.38311 -8.41922 0
M  V30 1921 C 330.178 0.491279 -7.02284 0
M  V30 1922 C 329.468 0.996264 -5.77469 0
M  V30 1923 N 329.518 0.0501916 -4.62973 0
M  V30 1924 H 326.679 -0.374722 -8.67691 0
M  V30 1925 H 326.409 -0.443485 -6.90277 0
M  V30 1926 H 327.276 1.75537 -7.96793 0
M  V30 1927 P 331.238 2.75334 -8.47391 0
M  V30 1928 O 331.458 3.84128 -9.44797 0
M  V30 1929 O 332.028 1.51947 -8.68712 0
M  V30 1930 O 331.488 3.29363 -6.99321 0
M  V30 1931 C 330.548 4.24011 -6.4274 0
M  V30 1932 C 331.278 5.20775 -5.52155 0
M  V30 1933 O 331.488 4.56534 -4.22446 0
M  V30 1934 C 332.678 5.62629 -5.96531 0
M  V30 1935 O 333.068 6.87667 -5.41053 0
M  V30 1936 C 333.558 4.52537 -5.39283 0
M  V30 1937 C 332.848 4.20027 -4.08623 0
M  V30 1938 N 332.898 2.76189 -3.71603 0
M  V30 1939 H 330.059 4.797 -7.24003 0
M  V30 1940 H 329.789 3.69856 -5.84513 0
M  V30 1941 H 330.656 6.10356 -5.41441 0
M  V30 1942 P 334.618 7.20834 -5.23717 0
M  V30 1943 O 334.838 8.66104 -5.38572 0
M  V30 1944 O 335.408 6.33544 -6.1349 0
M  V30 1945 O 334.868 6.7751 -3.72168 0
M  V30 1946 C 333.928 7.20825 -2.7076 0
M  V30 1947 C 334.658 7.45864 -1.40599 0
M  V30 1948 O 334.868 6.17651 -0.734225 0
M  V30 1949 C 336.058 8.05808 -1.51899 0
M  V30 1950 O 336.448 8.74358 -0.335205 0
M  V30 1951 C 336.938 6.83093 -1.70294 0
M  V30 1952 C 336.228 5.79992 -0.836974 0
M  V30 1953 N 336.278 4.41864 -1.38293 0
M  V30 1954 H 333.439 8.13644 -3.0377 0
M  V30 1955 H 333.169 6.42788 -2.55485 0
M  V30 1956 H 334.036 8.12039 -0.792769 0
M  V30 1957 P 337.998 8.91 1.4976e-12 0
M  V30 1958 O 338.218 10.1726 0.733694 0
M  V30 1959 O 338.788 8.73148 -1.23936 0
M  V30 1960 O 338.248 7.66872 0.971405 0
M  V30 1961 C 337.308 7.42309 2.04641 0
M  V30 1962 C 338.038 6.86059 3.24661 0
M  V30 1963 O 338.248 5.42847 3.03646 0
M  V30 1964 C 339.438 7.41196 3.50753 0
M  V30 1965 O 339.828 7.27073 4.86816 0
M  V30 1966 C 340.318 6.5273 2.63741 0
M  V30 1967 C 339.608 5.1842 2.73198 0
M  V30 1968 N 339.658 4.38762 1.4784 0
M  V30 1969 H 336.819 8.36803 2.32493 0
M  V30 1970 H 336.549 6.70197 1.71129 0
M  V30 1971 H 337.416 7.03551 4.13168 0
M  V30 1972 P 341.378 7.20834 5.23717 0
M  V30 1973 O 341.598 7.79853 6.57286 0
M  V30 1974 O 342.168 7.79239 4.12957 0
M  V30 1975 O 341.628 5.63315 5.29344 0
M  V30 1976 C 340.688 4.80255 6.01876 0
M  V30 1977 C 341.418 3.64202 6.65911 0
M  V30 1978 O 341.628 2.60694 5.64732 0
M  V30 1979 C 342.818 3.93473 7.1943 0
M  V30 1980 O 343.208 3.02071 8.21205 0
M  V30 1981 C 343.698 3.73047 5.97036 0
M  V30 1982 C 342.988 2.58828 5.25741 0
M  V30 1983 N 343.038 2.68068 3.77503 0
M  V30 1984 H 340.199 5.40332 6.79951 0
M  V30 1985 H 339.929 4.41613 5.32378 0
M  V30 1986 H 340.796 3.26331 7.47797 0
M  V30 1987 P 344.758 2.75334 8.47391 0
M  V30 1988 O 344.978 2.44571 9.90142 0
M  V30 1989 O 345.548 3.87688 7.92115 0
M  V30 1990 O 345.008 1.4459 7.59357 0
M  V30 1991 C 344.068 0.347608 7.69215 0
M  V30 1992 C 344.798 -0.96767 7.52806 0
M  V30 1993 O 345.008 -1.21036 6.1011 0
M  V30 1994 C 346.198 -1.04544 8.13308 0
M  V30 1995 O 346.588 -2.38311 8.41922 0
M  V30 1996 C 347.078 -0.491279 7.02284 0
M  V30 1997 C 346.368 -0.996264 5.77469 0
M  V30 1998 N 346.418 -0.0501916 4.62973 0
M  V30 1999 H 343.579 0.374722 8.67691 0
M  V30 2000 H 343.309 0.443485 6.90277 0
M  V30 2001 H 344.176 -1.75537 7.96793 0
M  V30 2002 P 348.138 -2.75334 8.47391 0
M  V30 2003 O 348.358 -3.84128 9.44797 0
M  V30 2004 O 348.928 -1.51947 8.68712 0
M  V30 2005 O 348.388 -3.29363 6.99321 0
M  V30 2006 C 347.448 -4.24011 6.4274 0
M  V30 2007 C 348.178 -5.20775 5.52155 0
M  V30 2008 O 348.388 -4.56534 4.22446 0
M  V30 2009 C 349.578 -5.62629 5.96531 0
M  V30 2010 O 349.968 -6.87667 5.41053 0
M  V30 2011 C 350.458 -4.52537 5.39283 0
M  V30 2012 C 349.748 -4.20027 4.08623 0
M  V30 2013 N 349.798 -2.76189 3.71603 0
M  V30 2014 H 346.959 -4.797 7.24003 0
M  V30 2015 H 346.689 -3.69856 5.84513 0
M  V30 2016 H 347.556 -6.10356 5.41441 0
M  V30 2017 P 351.518 -7.20834 5.23717 0
M  V30 2018 O 351.738 -8.66104 5.38572 0
M  V30 2019 O 352.308 -6.33544 6.1349 0
M  V30 2020 O 351.768 -6.7751 3.72168 0
M  V30 2021 C 350.828 -7.20825 2.7076 0
M  V30 2022 C 351.558 -7.45864 1.40599 0
M  V30 2023 O 351.768 -6.17651 0.734225 0
M  V30 2024 C 352.958 -8.05808 1.51899 0
M  V30 2025 O 353.348 -8.74358 0.335205 0
M  V30 2026 C 353.838 -6.83093 1.70294 0
M  V30 2027 C 353.128 -5.79992 0.836974 0
M  V30 2028 N 353.178 -4.41864 1.38293 0
M  V30 2029 H 350.339 -8.13644 3.0377 0
M  V30 2030 H 350.069 -6.42788 2.55485 0
M  V30 2031 H 350.936 -8.12039 0.792769 0
M  V30 2032 P 354.898 -8.91 -1.65478e-12 0
M  V30 2033 O 355.118 -10.1726 -0.733694 0
M  V30 2034 O 355.688 -8.73148 1.23936 0
M  V30 2035 O 355.148 -7.66872 -0.971405 0
M  V30 2036 C 354.208 -7.42309 -2.04641 0
M  V30 2037 C 354.938 -6.86059 -3.24661 0
M  V30 2038 O 355.148 -5.42847 -3.03646 0
M  V30 2039 C 356.338 -7.41196 -3.50753 0
M  V30 2040 O 356.728 -7.27073 -4.86816 0
M  V30 2041 C 357.218 -6.5273 -2.63741 0
M  V30 2042 C 356.508 -5.1842 -2.73198 0
M  V30 2043 N 356.558 -4.38762 -1.4784 0
M  V30 2044 H 353.719 -8.36803 -2.32493 0
M  V30 2045 H 353.449 -6.70197 -1.71129 0
M  V30 2046 H 354.316 -7.03551 -4.13168 0
M  V30 2047 P 358.278 -7.20834 -5.23717 0
M  V30 2048 O 358.498 -7.79853 -6.57286 0
M  V30 2049 O 359.068 -7.79239 -4.12957 0
M  V30 2050 O 358.528 -5.63315 -5.29344 0
M  V30 2051 C 357.588 -4.80255 -6.01876 0
M  V30 2052 C 358.318 -3.64202 -6.65911 0
M  V30 2053 O 358.528 -2.60694 -5.64732 0
M  V30 2054 C 359.718 -3.93473 -7.1943 0
M  V30 2055 O 360.108 -3.02071 -8.21205 0
M  V30 2056 C 360.598 -3.73047 -5.97036 0
M  V30 2057 C 359.888 -2.58828 -5.25741 0
M  V30 2058 N 359.938 -2.68068 -3.77503 0
M  V30 2059 C 359.858 -3.79715 -2.96723 0
M  V30 2060 N 359.938 -3.5377 -1.68852 0
M  V30 2061 C 360.078 -2.15054 -1.63254 0
M  V30 2062 C 360.208 -1.28964 -0.518571 0
M  V30 2063 N 360.328 0.0538097 -0.918425 0
M  V30 2064 C 360.328 0.494275 -2.22578 0
M  V30 2065 N 360.458 1.81086 -2.40434 0
M  V30 2066 N 360.198 -0.313645 -3.27502 0
M  V30 2067 C 360.078 -1.61829 -2.91033 0
M  V30 2068 H 357.099 -5.40332 -6.79951 0
M  V30 2069 H 356.829 -4.41613 -5.32378 0
M  V30 2070 H 357.696 -3.26331 -7.47797 0
M  V30 2071 P 361.658 -2.75334 -8.47391 0
M  V30 2072 O 361.878 -2.44571 -9.90142 0
M  V30 2073 O 362.448 -3.87688 -7.92115 0
M  V30 2074 O 361.908 -1.4459 -7.59357 0
M  V30 2075 C 360.968 -0.347608 -7.69215 0
M  V30 2076 C 361.698 0.96767 -7.52806 0
M  V30 2077 O 361.908 1.21036 -6.1011 0
M  V30 2078 C 363.098 1.04544 -8.13308 0
M  V30 2079 O 363.488 2.38311 -8.41922 0
M  V30 2080 C 363.978 0.491279 -7.02284 0
M  V30 2081 C 363.268 0.996264 -5.77469 0
M  V30 2082 N 363.318 0.0501916 -4.62973 0
M  V30 2083 H 360.479 -0.374722 -8.67691 0
M  V30 2084 H 360.209 -0.443485 -6.90277 0
M  V30 2085 H 361.076 1.75537 -7.96793 0
M  V30 2086 P 365.038 2.75334 -8.47391 0
M  V30 2087 O 365.258 3.84128 -9.44797 0
M  V30 2088 O 365.828 1.51947 -8.68712 0
M  V30 2089 O 365.288 3.29363 -6.99321 0
M  V30 2090 C 364.348 4.24011 -6.4274 0
M  V30 2091 C 365.078 5.20775 -5.52155 0
M  V30 2092 O 365.288 4.56534 -4.22446 0
M  V30 2093 C 366.478 5.62629 -5.96531 0
M  V30 2094 O 366.868 6.87667 -5.41053 0
M  V30 2095 C 367.358 4.52537 -5.39283 0
M  V30 2096 C 366.648 4.20027 -4.08623 0
M  V30 2097 N 366.698 2.76189 -3.71603 0
M  V30 2098 C 366.618 1.64862 -4.52822 0
M  V30 2099 N 366.698 0.512671 -3.88633 0
M  V30 2100 C 366.838 0.888083 -2.54977 0
M  V30 2101 C 366.968 0.094668 -1.38677 0
M  V30 2102 O 366.988 -1.13053 -1.28163 0
M  V30 2103 N 367.088 0.890102 -0.232633 0
M  V30 2104 C 367.088 2.26958 -0.21772 0
M  V30 2105 N 367.218 2.84626 0.97925 0
M  V30 2106 N 366.958 3.0178 -1.31033 0
M  V30 2107 C 366.838 2.26781 -2.43843 0
M  V30 2108 H 363.859 4.797 -7.24003 0
M  V30 2109 H 363.589 3.69856 -5.84513 0
M  V30 2110 H 364.456 6.10356 -5.41441 0
M  V30 2111 H 367.111 4.79061 -3.27488 0
M  V30 2112 H 367.39 3.64906 -6.05785 0
M  V30 2113 H 368.382 4.8868 -5.2125 0
M  V30 2114 H 366.548 5.66726 -7.06352 0
M  V30 2115 H 366.499 1.71169 -5.60966 0
M  V30 2116 H 367.181 0.419134 0.644739 0
M  V30 2117 H 367.218 3.87332 1.06098 0
M  V30 2118 H 367.319 2.26417 1.82483 0
M  V30 2119 P 368.418 7.20834 -5.23717 0
M  V30 2120 O 368.638 8.66104 -5.38572 0
M  V30 2121 O 369.208 6.33544 -6.1349 0
M  V30 2122 O 368.668 6.7751 -3.72168 0
M  V30 2123 C 367.728 7.20825 -2.7076 0
M  V30 2124 C 368.458 7.45864 -1.40599 0
M  V30 2125 O 368.668 6.17651 -0.734225 0
M  V30 2126 C 369.858 8.05808 -1.51899 0
M  V30 2127 O 370.248 8.74358 -0.335205 0
M  V30 2128 C 370.738 6.83093 -1.70294 0
M  V30 2129 C 370.028 5.79992 -0.836974 0
M  V30 2130 N 370.078 4.41864 -1.38293 0
M  V30 2131 H 367.239 8.13644 -3.0377 0
M  V30 2132 H 366.969 6.42788 -2.55485 0
M  V30 2133 H 367.836 8.12039 -0.792769 0
M  V30 2134 P 371.798 8.91 1.81197e-12 0
M  V30 2135 O 372.018 10.1726 0.733694 0
M  V30 2136 O 372.588 8.73148 -1.23936 0
M  V30 2137 O 372.048 7.66872 0.971405 0
M  V30 2138 C 371.108 7.42309 2.04641 0
M  V30 2139 C 371.838 6.86059 3.24661 0
M  V30 2140 O 372.048 5.42847 3.03646 0
M  V30 2141 C 373.238 7.41196 3.50753 0
M  V30 2142 O 373.628 7.27073 4.86816 0
M  V30 2143 C 374.118 6.5273 2.63741 0
M  V30 2144 C 373.408 5.1842 2.73198 0
M  V30 2145 N 373.458 4.38762 1.4784 0
M  V30 2146 H 370.619 8.36803 2.32493 0
M  V30 2147 H 370.349 6.70197 1.71129 0
M  V30 2148 H 371.216 7.03551 4.13168 0
M  V30 2149 P 375.178 7.20834 5.23717 0
M  V30 2150 O 375.398 7.79853 6.57286 0
M  V30 2151 O 375.968 7.79239 4.12957 0
M  V30 2152 O 375.428 5.63315 5.29344 0
M  V30 2153 C 374.488 4.80255 6.01876 0
M  V30 2154 C 375.218 3.64202 6.65911 0
M  V30 2155 O 375.428 2.60694 5.64732 0
M  V30 2156 C 376.618 3.93473 7.1943 0
M  V30 2157 O 377.008 3.02071 8.21205 0
M  V30 2158 C 377.498 3.73047 5.97036 0
M  V30 2159 C 376.788 2.58828 5.25741 0
M  V30 2160 N 376.838 2.68068 3.77503 0
M  V30 2161 H 373.999 5.40332 6.79951 0
M  V30 2162 H 373.729 4.41613 5.32378 0
M  V30 2163 H 374.596 3.26331 7.47797 0
M  V30 2164 P 378.558 2.75334 8.47391 0
M  V30 2165 O 378.778 2.44571 9.90142 0
M  V30 2166 O 379.348 3.87688 7.92115 0
M  V30 2167 O 378.808 1.4459 7.59357 0
M  V30 2168 C 377.868 0.347608 7.69215 0
M  V30 2169 C 378.598 -0.96767 7.52806 0
M  V30 2170 O 378.808 -1.21036 6.1011 0
M  V30 2171 C 379.998 -1.04544 8.13308 0
M  V30 2172 O 380.388 -2.38311 8.41922 0
M  V30 2173 C 380.878 -0.491279 7.02284 0
M  V30 2174 C 380.168 -0.996264 5.77469 0
M  V30 2175 N 380.218 -0.0501916 4.62973 0
M  V30 2176 H 377.379 0.374722 8.67691 0
M  V30 2177 H 377.109 0.443485 6.90277 0
M  V30 2178 H 377.976 -1.75537 7.96793 0
M  V30 2179 P 381.938 -2.75334 8.47391 0
M  V30 2180 O 382.158 -3.84128 9.44797 0
M  V30 2181 O 382.728 -1.51947 8.68712 0
M  V30 2182 O 382.188 -3.29363 6.99321 0
M  V30 2183 C 381.248 -4.24011 6.4274 0
M  V30 2184 C 381.978 -5.20775 5.52155 0
M  V30 2185 O 382.188 -4.56534 4.22446 0
M  V30 2186 C 383.378 -5.62629 5.96531 0
M  V30 2187 O 383.768 -6.87667 5.41053 0
M  V30 2188 C 384.258 -4.52537 5.39283 0
M  V30 2189 C 383.548 -4.20027 4.08623 0
M  V30 2190 N 383.598 -2.76189 3.71603 0
M  V30 2191 H 380.759 -4.797 7.24003 0
M  V30 2192 H 380.489 -3.69856 5.84513 0
M  V30 2193 H 381.356 -6.10356 5.41441 0
M  V30 2194 P 385.318 -7.20834 5.23717 0
M  V30 2195 O 385.538 -8.66104 5.38572 0
M  V30 2196 O 386.108 -6.33544 6.1349 0
M  V30 2197 O 385.568 -6.7751 3.72168 0
M  V30 2198 C 384.628 -7.20825 2.7076 0
M  V30 2199 C 385.358 -7.45864 1.40599 0
M  V30 2200 O 385.568 -6.17651 0.734225 0
M  V30 2201 C 386.758 -8.05808 1.51899 0
M  V30 2202 O 387.148 -8.74358 0.335205 0
M  V30 2203 C 387.638 -6.83093 1.70294 0
M  V30 2204 C 386.928 -5.79992 0.836974 0
M  V30 2205 N 386.978 -4.41864 1.38293 0
M  V30 2206 H 384.139 -8.13644 3.0377 0
M  V30 2207 H 383.869 -6.42788 2.55485 0
M  V30 2208 H 384.736 -8.12039 0.792769 0
M  V30 2209 P 388.698 -8.91 -1.96915e-12 0
M  V30 2210 O 388.918 -10.1726 -0.733694 0
M  V30 2211 O 389.488 -8.73148 1.23936 0
M  V30 2212 O 388.948 -7.66872 -0.971405 0
M  V30 2213 C 388.008 -7.42309 -2.04641 0
M  V30 2214 C 388.738 -6.86059 -3.24661 0
M  V30 2215 O 388.948 -5.42847 -3.03646 0
M  V30 2216 C 390.138 -7.41196 -3.50753 0
M  V30 2217 O 390.528 -7.27073 -4.86816 0
M  V30 2218 C 391.018 -6.5273 -2.63741 0
M  V30 2219 C 390.308 -5.1842 -2.73198 0
M  V30 2220 N 390.358 -4.38762 -1.4784 0
M  V30 2221 H 387.519 -8.36803 -2.32493 0
M  V30 2222 H 387.249 -6.70197 -1.71129 0
M  V30 2223 H 388.116 -7.03551 -4.13168 0
M  V30 2224 P 392.078 -7.20834 -5.23717 0
M  V30 2225 O 392.298 -7.79853 -6.57286 0
M  V30 2226 O 392.868 -7.79239 -4.12957 0
M  V30 2227 O 392.328 -5.63315 -5.29344 0
M  V30 2228 C 391.388 -4.80255 -6.01876 0
M  V30 2229 C 392.118 -3.64202 -6.65911 0
M  V30 2230 O 392.328 -2.60694 -5.64732 0
M  V30 2231 C 393.518 -3.93473 -7.1943 0
M  V30 2232 O 393.908 -3.02071 -8.21205 0
M  V30 2233 C 394.398 -3.73047 -5.97036 0
M  V30 2234 C 393.688 -2.58828 -5.25741 0
M  V30 2235 N 393.738 -2.68068 -3.77503 0
M  V30 2236 H 390.899 -5.40332 -6.79951 0
M  V30 2237 H 390.629 -4.41613 -5.32378 0
M  V30 2238 H 391.496 -3.26331 -7.47797 0
M  V30 2239 P 395.458 -2.75334 -8.47391 0
M  V30 2240 O 395.678 -2.44571 -9.90142 0
M  V30 2241 O 396.248 -3.87688 -7.92115 0
M  V30 2242 O 395.708 -1.4459 -7.59357 0
M  V30 2243 C 394.768 -0.347608 -7.69215 0
M  V30 2244 C 395.498 0.96767 -7.52806 0
M  V30 2245 O 395.708 1.21036 -6.1011 0
M  V30 2246 C 396.898 1.04544 -8.13308 0
M  V30 2247 O 397.288 2.38311 -8.41922 0
M  V30 2248 C 397.778 0.491279 -7.02284 0
M  V30 2249 C 397.068 0.996264 -5.77469 0
M  V30 2250 N 397.118 0.0501916 -4.62973 0
M  V30 2251 H 394.279 -0.374722 -8.67691 0
M  V30 2252 H 394.009 -0.443485 -6.90277 0
M  V30 2253 H 394.876 1.75537 -7.96793 0
M  V30 2254 P 398.838 2.75334 -8.47391 0
M  V30 2255 O 399.058 3.84128 -9.44797 0
M  V30 2256 O 399.628 1.51947 -8.68712 0
M  V30 2257 O 399.088 3.29363 -6.99321 0
M  V30 2258 C 398.148 4.24011 -6.4274 0
M  V30 2259 C 398.878 5.20775 -5.52155 0
M  V30 2260 O 399.088 4.56534 -4.22446 0
M  V30 2261 C 400.278 5.62629 -5.96531 0
M  V30 2262 O 400.668 6.87667 -5.41053 0
M  V30 2263 C 401.158 4.52537 -5.39283 0
M  V30 2264 C 400.448 4.20027 -4.08623 0
M  V30 2265 N 400.498 2.76189 -3.71603 0
M  V30 2266 H 397.659 4.797 -7.24003 0
M  V30 2267 H 397.389 3.69856 -5.84513 0
M  V30 2268 H 398.256 6.10356 -5.41441 0
M  V30 2269 P 402.218 7.20834 -5.23717 0
M  V30 2270 O 402.438 8.66274 -5.38678 0
M  V30 2271 O 403.008 6.33687 -6.13629 0
M  V30 2272 O 402.468 6.7751 -3.72168 0
M  V30 2273 C 401.528 7.20919 -2.70795 0
M  V30 2274 C 402.258 7.45864 -1.40599 0
M  V30 2275 O 402.468 6.17751 -0.734343 0
M  V30 2276 C 403.658 8.05906 -1.51917 0
M  V30 2277 O 404.048 8.74358 -0.335205 0
M  V30 2278 C 404.538 6.83093 -1.70294 0
M  V30 2279 C 403.828 5.79992 -0.836974 0
M  V30 2280 N 403.878 4.41864 -1.38293 0
M  V30 2281 C 403.798 4.02089 -2.69407 0
M  V30 2282 N 403.868 2.73403 -2.85089 0
M  V30 2283 C 404.018 2.25086 -1.5642 0
M  V30 2284 C 404.148 0.942887 -1.04836 0
M  V30 2285 N 404.158 -0.150999 -1.80369 0
M  V30 2286 N 404.268 0.812565 0.28167 0
M  V30 2287 C 404.258 1.90572 1.03784 0
M  V30 2288 N 404.138 3.167 0.683905 0
M  V30 2289 C 404.018 3.26538 -0.652815 0
M  V30 2290 H 401.04 8.13738 -3.03804 0
M  V30 2291 H 400.768 6.42974 -2.55559 0
M  V30 2292 H 401.636 8.12139 -0.792866 0
M  V30 2293 H 404.291 5.80178 0.160643 0
M  V30 2294 H 404.571 6.51379 -2.75643 0
M  V30 2295 H 405.562 7.01832 -1.3448 0
M  V30 2296 H 403.728 8.73771 -2.38364 0
M  V30 2297 H 403.687 4.7189 -3.52311 0
M  V30 2298 H 404.068 -0.0721434 -2.82608 0
M  V30 2299 H 404.257 -1.0785 -1.36544 0
M  V30 2300 H 404.365 1.73207 2.10241 0
M  V30 2301 P 405.598 8.91 2.12633e-12 0
M  V30 2302 O 405.818 10.1726 0.733694 0
M  V30 2303 O 406.388 8.73148 -1.23936 0
M  V30 2304 O 405.848 7.66872 0.971405 0
M  V30 2305 C 404.908 7.42309 2.04641 0
M  V30 2306 C 405.638 6.86059 3.24661 0
M  V30 2307 O 405.848 5.42847 3.03646 0
M  V30 2308 C 407.038 7.41196 3.50753 0
M  V30 2309 O 407.428 7.27073 4.86816 0
M  V30 2310 C 407.918 6.5273 2.63741 0
M  V30 2311 C 407.208 5.1842 2.73198 0
M  V30 2312 N 407.258 4.38762 1.4784 0
M  V30 2313 H 404.419 8.36803 2.32493 0
M  V30 2314 H 404.149 6.70197 1.71129 0
M  V30 2315 H 405.016 7.03551 4.13168 0
M  V30 2316 P 408.978 7.20834 5.23717 0
M  V30 2317 O 409.198 7.79853 6.57286 0
M  V30 2318 O 409.768 7.79239 4.12957 0
M  V30 2319 O 409.228 5.63315 5.29344 0
M  V30 2320 C 408.288 4.80255 6.01876 0
M  V30 2321 C 409.018 3.64202 6.65911 0
M  V30 2322 O 409.228 2.60694 5.64732 0
M  V30 2323 C 410.418 3.93473 7.1943 0
M  V30 2324 O 410.808 3.02071 8.21205 0
M  V30 2325 C 411.298 3.73047 5.97036 0
M  V30 2326 C 410.588 2.58828 5.25741 0
M  V30 2327 N 410.638 2.68068 3.77503 0
M  V30 2328 H 407.799 5.40332 6.79951 0
M  V30 2329 H 407.529 4.41613 5.32378 0
M  V30 2330 H 408.396 3.26331 7.47797 0
M  V30 2331 P 412.358 2.75334 8.47391 0
M  V30 2332 O 412.578 2.44571 9.90142 0
M  V30 2333 O 413.148 3.87688 7.92115 0
M  V30 2334 O 412.608 1.4459 7.59357 0
M  V30 2335 C 411.668 0.347608 7.69215 0
M  V30 2336 C 412.398 -0.96767 7.52806 0
M  V30 2337 O 412.608 -1.21036 6.1011 0
M  V30 2338 C 413.798 -1.04544 8.13308 0
M  V30 2339 O 414.188 -2.38311 8.41922 0
M  V30 2340 C 414.678 -0.491279 7.02284 0
M  V30 2341 C 413.968 -0.996264 5.77469 0
M  V30 2342 N 414.018 -0.0501916 4.62973 0
M  V30 2343 H 411.179 0.374722 8.67691 0
M  V30 2344 H 410.909 0.443485 6.90277 0
M  V30 2345 H 411.776 -1.75537 7.96793 0
M  V30 2346 P 415.738 -2.75334 8.47391 0
M  V30 2347 O 415.958 -3.84128 9.44797 0
M  V30 2348 O 416.528 -1.51947 8.68712 0
M  V30 2349 O 415.988 -3.29363 6.99321 0
M  V30 2350 C 415.048 -4.24011 6.4274 0
M  V30 2351 C 415.778 -5.20775 5.52155 0
M  V30 2352 O 415.988 -4.56534 4.22446 0
M  V30 2353 C 417.178 -5.62629 5.96531 0
M  V30 2354 O 417.568 -6.87667 5.41053 0
M  V30 2355 C 418.058 -4.52537 5.39283 0
M  V30 2356 C 417.348 -4.20027 4.08623 0
M  V30 2357 N 417.398 -2.76189 3.71603 0
M  V30 2358 C 417.318 -1.64862 4.52822 0
M  V30 2359 N 417.398 -0.512671 3.88633 0
M  V30 2360 C 417.538 -0.888083 2.54977 0
M  V30 2361 C 417.668 -0.094668 1.38677 0
M  V30 2362 N 417.788 -0.890102 0.232633 0
M  V30 2363 C 417.788 -2.26958 0.21772 0
M  V30 2364 N 417.918 -2.84626 -0.97925 0
M  V30 2365 N 417.658 -3.0178 1.31033 0
M  V30 2366 C 417.538 -2.26781 2.43843 0
M  V30 2367 H 414.559 -4.797 7.24003 0
M  V30 2368 H 414.289 -3.69856 5.84513 0
M  V30 2369 H 415.156 -6.10356 5.41441 0
M  V30 2370 P 419.118 -7.20834 5.23717 0
M  V30 2371 O 419.338 -8.66104 5.38572 0
M  V30 2372 O 419.908 -6.33544 6.1349 0
M  V30 2373 O 419.368 -6.7751 3.72168 0
M  V30 2374 C 418.428 -7.20825 2.7076 0
M  V30 2375 C 419.158 -7.45864 1.40599 0
M  V30 2376 O 419.368 -6.17651 0.734225 0
M  V30 2377 C 420.558 -8.05808 1.51899 0
M  V30 2378 O 420.948 -8.74358 0.335205 0
M  V30 2379 C 421.438 -6.83093 1.70294 0
M  V30 2380 C 420.728 -5.79992 0.836974 0
M  V30 2381 N 420.778 -4.41864 1.38293 0
M  V30 2382 H 417.939 -8.13644 3.0377 0
M  V30 2383 H 417.669 -6.42788 2.55485 0
M  V30 2384 H 418.536 -8.12039 0.792769 0
M  V30 2385 P 422.497 -8.91 -2.28351e-12 0
M  V30 2386 O 422.717 -10.1726 -0.733694 0
M  V30 2387 O 423.287 -8.73148 1.23936 0
M  V30 2388 O 422.747 -7.66872 -0.971405 0
M  V30 2389 C 421.807 -7.42309 -2.04641 0
M  V30 2390 C 422.537 -6.86059 -3.24661 0
M  V30 2391 O 422.747 -5.42847 -3.03646 0
M  V30 2392 C 423.937 -7.41196 -3.50753 0
M  V30 2393 O 424.327 -7.27073 -4.86816 0
M  V30 2394 C 424.817 -6.5273 -2.63741 0
M  V30 2395 C 424.107 -5.1842 -2.73198 0
M  V30 2396 N 424.157 -4.38762 -1.4784 0
M  V30 2397 H 421.318 -8.36803 -2.32493 0
M  V30 2398 H 421.048 -6.70197 -1.71129 0
M  V30 2399 H 421.915 -7.03551 -4.13168 0
M  V30 2400 P 425.877 -7.20834 -5.23717 0
M  V30 2401 O 426.097 -7.79853 -6.57286 0
M  V30 2402 O 426.667 -7.79239 -4.12957 0
M  V30 2403 O 426.127 -5.63315 -5.29344 0
M  V30 2404 C 425.187 -4.80255 -6.01876 0
M  V30 2405 C 425.917 -3.64202 -6.65911 0
M  V30 2406 O 426.127 -2.60694 -5.64732 0
M  V30 2407 C 427.317 -3.93473 -7.1943 0
M  V30 2408 O 427.707 -3.02071 -8.21205 0
M  V30 2409 C 428.197 -3.73047 -5.97036 0
M  V30 2410 C 427.487 -2.58828 -5.25741 0
M  V30 2411 N 427.537 -2.68068 -3.77503 0
M  V30 2412 H 424.698 -5.40332 -6.79951 0
M  V30 2413 H 424.428 -4.41613 -5.32378 0
M  V30 2414 H 425.295 -3.26331 -7.47797 0
M  V30 2415 P 429.257 -2.75334 -8.47391 0
M  V30 2416 O 429.477 -2.44595 -9.90239 0
M  V30 2417 O 430.047 -3.87732 -7.92204 0
M  V30 2418 O 429.507 -1.4459 -7.59357 0
M  V30 2419 C 428.567 -0.347608 -7.69215 0
M  V30 2420 C 429.297 0.96767 -7.52806 0
M  V30 2421 O 429.507 1.21036 -6.1011 0
M  V30 2422 C 430.697 1.04544 -8.13308 0
M  V30 2423 O 431.087 2.38311 -8.41922 0
M  V30 2424 C 431.577 0.491279 -7.02284 0
M  V30 2425 C 430.867 0.996264 -5.77469 0
M  V30 2426 N 430.917 0.0501808 -4.62873 0
M  V30 2427 C 431.067 0.578037 -3.3505 0
M  V30 2428 O 431.157 1.8073 -3.21711 0
M  V30 2429 N 431.117 -0.468541 -2.263 0
M  V30 2430 C 431.017 -1.59186 -2.47176 0
M  V30 2431 N 431.067 -2.37626 -1.40392 0
M  V30 2432 C 430.867 -2.16203 -3.77467 0
M  V30 2433 C 430.817 -1.29324 -4.8195 0
M  V30 2434 H 428.077 -0.374679 -8.67591 0
M  V30 2435 H 427.808 -0.443421 -6.90177 0
M  V30 2436 H 428.675 1.75559 -7.96891 0
M  V30 2437 H 431.33 1.94529 -5.46723 0
M  V30 2438 H 431.609 -0.608651 -7.04676 0
M  V30 2439 H 432.601 0.889672 -7.08939 0
M  V30 2440 H 430.767 0.43308 -9.04564 0
M  V30 2441 H 430.695 -1.67758 -5.83046 0
M  V30 2442 H 430.797 -3.23869 -3.92281 0
M  V30 2443 H 431.185 -1.96317 -0.467202 0
M  V30 2444 H 430.988 -3.39693 -1.51142 0
M  V30 2445 P 432.637 2.75334 -8.47391 0
M  V30 2446 O 432.857 3.84166 -9.4489 0
M  V30 2447 O 433.427 1.51964 -8.6881 0
M  V30 2448 O 432.887 3.29363 -6.99321 0
M  V30 2449 C 431.947 4.23956 -6.42656 0
M  V30 2450 C 432.677 5.20775 -5.52155 0
M  V30 2451 O 432.887 4.56534 -4.22446 0
M  V30 2452 C 434.077 5.62629 -5.96531 0
M  V30 2453 O 434.467 6.87667 -5.41053 0
M  V30 2454 C 434.957 4.52537 -5.39283 0
M  V30 2455 C 434.247 4.20027 -4.08623 0
M  V30 2456 N 434.297 2.7613 -3.71522 0
M  V30 2457 C 434.447 2.45612 -2.37989 0
M  V30 2458 O 434.537 3.30919 -1.51621 0
M  V30 2459 N 434.487 1.10684 -2.08435 0
M  V30 2460 C 434.397 0.0690084 -2.9792 0
M  V30 2461 C 434.247 0.481522 -4.35345 0
M  V30 2462 C 434.197 1.78906 -4.67968 0
M  V30 2463 H 431.457 4.797 -7.24003 0
M  V30 2464 H 431.188 3.69802 -5.84429 0
M  V30 2465 H 432.055 6.10356 -5.41441 0
M  V30 2466 H 434.71 4.78651 -3.27911 0
M  V30 2467 H 434.989 3.64957 -6.05871 0
M  V30 2468 H 435.981 4.8868 -5.2125 0
M  V30 2469 H 434.147 5.66726 -7.06352 0
M  V30 2470 H 434.076 2.07737 -5.72367 0
M  V30 2471 P 436.017 7.20834 -5.23717 0
M  V30 2472 O 436.237 8.66189 -5.38625 0
M  V30 2473 O 436.807 6.33615 -6.1356 0
M  V30 2474 O 436.267 6.7751 -3.72168 0
M  V30 2475 C 435.327 7.20825 -2.7076 0
M  V30 2476 C 436.057 7.45864 -1.40599 0
M  V30 2477 O 436.267 6.17651 -0.734225 0
M  V30 2478 C 437.457 8.05808 -1.51899 0
M  V30 2479 O 437.847 8.74358 -0.335205 0
M  V30 2480 C 438.337 6.83093 -1.70294 0
M  V30 2481 C 437.627 5.79992 -0.836974 0
M  V30 2482 N 437.677 4.41769 -1.38263 0
M  V30 2483 C 437.827 3.36514 -0.485617 0
M  V30 2484 O 437.917 3.61814 0.724703 0
M  V30 2485 N 437.877 2.00746 -1.14492 0
M  V30 2486 C 437.777 1.85887 -2.27776 0
M  V30 2487 N 437.827 0.600907 -2.69379 0
M  V30 2488 C 437.627 2.92182 -3.22265 0
M  V30 2489 C 437.577 4.18399 -2.71925 0
M  V30 2490 H 434.837 8.1355 -3.03735 0
M  V30 2491 H 434.568 6.42695 -2.55448 0
M  V30 2492 H 435.435 8.12139 -0.792866 0
M  V30 2493 H 438.09 5.80078 0.160615 0
M  V30 2494 H 438.369 6.51379 -2.75643 0
M  V30 2495 H 439.361 7.01734 -1.34462 0
M  V30 2496 H 437.527 8.73674 -2.38337 0
M  V30 2497 H 437.455 5.02669 -3.39718 0
M  V30 2498 H 437.557 2.73001 -4.29239 0
M  V30 2499 H 437.945 -0.162318 -2.01146 0
M  V30 2500 H 437.748 0.387742 -3.69773 0
M  V30 2501 P 439.397 8.91 2.44069e-12 0
M  V30 2502 O 439.617 10.1726 0.733694 0
M  V30 2503 O 440.187 8.73148 -1.23936 0
M  V30 2504 O 439.647 7.66872 0.971405 0
M  V30 2505 C 438.707 7.42309 2.04641 0
M  V30 2506 C 439.437 6.86059 3.24661 0
M  V30 2507 O 439.647 5.42847 3.03646 0
M  V30 2508 C 440.837 7.41196 3.50753 0
M  V30 2509 O 441.227 7.27073 4.86816 0
M  V30 2510 C 441.717 6.5273 2.63741 0
M  V30 2511 C 441.007 5.1842 2.73198 0
M  V30 2512 N 441.057 4.38762 1.4784 0
M  V30 2513 H 438.218 8.36803 2.32493 0
M  V30 2514 H 437.948 6.70197 1.71129 0
M  V30 2515 H 438.815 7.03551 4.13168 0
M  V30 2516 P 442.777 7.20834 5.23717 0
M  V30 2517 O 442.997 7.79853 6.57286 0
M  V30 2518 O 443.567 7.79239 4.12957 0
M  V30 2519 O 443.027 5.63315 5.29344 0
M  V30 2520 C 442.087 4.80255 6.01876 0
M  V30 2521 C 442.817 3.64202 6.65911 0
M  V30 2522 O 443.027 2.60694 5.64732 0
M  V30 2523 C 444.217 3.93473 7.1943 0
M  V30 2524 O 444.607 3.02071 8.21205 0
M  V30 2525 C 445.097 3.73047 5.97036 0
M  V30 2526 C 444.387 2.58828 5.25741 0
M  V30 2527 N 444.437 2.68068 3.77503 0
M  V30 2528 H 441.598 5.40332 6.79951 0
M  V30 2529 H 441.328 4.41613 5.32378 0
M  V30 2530 H 442.195 3.26331 7.47797 0
M  V30 2531 P 446.157 2.75334 8.47391 0
M  V30 2532 O 446.377 2.44595 9.90239 0
M  V30 2533 O 446.947 3.87732 7.92204 0
M  V30 2534 O 446.407 1.4459 7.59357 0
M  V30 2535 C 445.467 0.347563 7.69115 0
M  V30 2536 C 446.197 -0.96767 7.52806 0
M  V30 2537 O 446.407 -1.21036 6.1011 0
M  V30 2538 C 447.597 -1.04544 8.13308 0
M  V30 2539 O 447.987 -2.38311 8.41922 0
M  V30 2540 C 448.477 -0.491279 7.02284 0
M  V30 2541 C 447.767 -0.996264 5.77469 0
M  V30 2542 N 447.817 -0.0501808 4.62873 0
M  V30 2543 C 447.967 -0.588177 3.36904 0
M  V30 2544 O 448.057 -1.78598 3.17173 0
M  V30 2545 N 448.007 0.329694 2.33686 0
M  V30 2546 C 447.917 1.6953 2.45079 0
M  V30 2547 O 447.967 2.41926 1.44899 0
M  V30 2548 C 447.767 2.16933 3.80505 0
M  V30 2549 C 447.657 3.65373 3.97621 0
M  V30 2550 C 447.717 1.30326 4.83752 0
M  V30 2551 H 444.977 0.374722 8.67691 0
M  V30 2552 H 444.708 0.443421 6.90177 0
M  V30 2553 H 445.575 -1.75537 7.96793 0
M  V30 2554 H 448.23 -1.94496 5.46629 0
M  V30 2555 H 448.509 0.608651 7.04676 0
M  V30 2556 H 449.501 -0.889672 7.08939 0
M  V30 2557 H 447.667 -0.43308 9.04564 0
M  V30 2558 H 447.596 1.68366 5.8516 0
M  V30 2559 H 448.626 4.05985 4.30448 0
M  V30 2560 H 446.889 3.88028 4.72875 0
M  V30 2561 H 447.377 4.11381 3.01609 0
M  V30 2562 H 448.113 -0.0393617 1.41345 0
M  V30 2563 P 449.537 -2.75334 8.47391 0
M  V30 2564 O 449.757 -3.84128 9.44797 0
M  V30 2565 O 450.327 -1.51947 8.68712 0
M  V30 2566 O 449.787 -3.29363 6.99321 0
M  V30 2567 C 448.847 -4.24011 6.4274 0
M  V30 2568 C 449.577 -5.20775 5.52155 0
M  V30 2569 O 449.787 -4.56534 4.22446 0
M  V30 2570 C 450.977 -5.62629 5.96531 0
M  V30 2571 O 451.367 -6.87667 5.41053 0
M  V30 2572 C 451.857 -4.52537 5.39283 0
M  V30 2573 C 451.147 -4.20027 4.08623 0
M  V30 2574 N 451.197 -2.76189 3.71603 0
M  V30 2575 H 448.358 -4.797 7.24003 0
M  V30 2576 H 448.088 -3.69856 5.84513 0
M  V30 2577 H 448.955 -6.10356 5.41441 0
M  V30 2578 P 452.917 -7.20834 5.23717 0
M  V30 2579 O 453.137 -8.66274 5.38678 0
M  V30 2580 O 453.707 -6.33687 6.13629 0
M  V30 2581 O 453.167 -6.7751 3.72168 0
M  V30 2582 C 452.227 -7.20919 2.70795 0
M  V30 2583 C 452.957 -7.45864 1.40599 0
M  V30 2584 O 453.167 -6.17751 0.734343 0
M  V30 2585 C 454.357 -8.05906 1.51917 0
M  V30 2586 O 454.747 -8.74358 0.335205 0
M  V30 2587 C 455.237 -6.83093 1.70294 0
M  V30 2588 C 454.527 -5.79992 0.836974 0
M  V30 2589 N 454.577 -4.41864 1.38293 0
M  V30 2590 C 454.497 -4.02089 2.69407 0
M  V30 2591 N 454.567 -2.73403 2.85089 0
M  V30 2592 C 454.717 -2.25086 1.5642 0
M  V30 2593 C 454.847 -0.942887 1.04836 0
M  V30 2594 N 454.857 0.150999 1.80369 0
M  V30 2595 N 454.967 -0.812565 -0.28167 0
M  V30 2596 C 454.957 -1.90572 -1.03784 0
M  V30 2597 N 454.837 -3.167 -0.683905 0
M  V30 2598 C 454.717 -3.26538 0.652815 0
M  V30 2599 H 451.739 -8.13738 3.03804 0
M  V30 2600 H 451.467 -6.42974 2.55559 0
M  V30 2601 H 452.335 -8.12139 0.792866 0
M  V30 2602 H 454.99 -5.80178 -0.160643 0
M  V30 2603 H 455.27 -6.51379 2.75643 0
M  V30 2604 H 456.261 -7.01832 1.3448 0
M  V30 2605 H 454.427 -8.73771 2.38364 0
M  V30 2606 H 454.386 -4.7189 3.52311 0
M  V30 2607 H 454.767 0.0721434 2.82608 0
M  V30 2608 H 454.956 1.0785 1.36544 0
M  V30 2609 H 455.064 -1.73207 -2.10241 0
M  V30 2610 P 456.297 -8.91 -2.59788e-12 0
M  V30 2611 O 456.517 -10.1726 -0.733694 0
M  V30 2612 O 457.087 -8.73148 1.23936 0
M  V30 2613 O 456.547 -7.66872 -0.971405 0
M  V30 2614 C 455.607 -7.42309 -2.04641 0
M  V30 2615 C 456.337 -6.86059 -3.24661 0
M  V30 2616 O 456.547 -5.42847 -3.03646 0
M  V30 2617 C 457.737 -7.41196 -3.50753 0
M  V30 2618 O 458.127 -7.27073 -4.86816 0
M  V30 2619 C 458.617 -6.5273 -2.63741 0
M  V30 2620 C 457.907 -5.1842 -2.73198 0
M  V30 2621 N 457.957 -4.38762 -1.4784 0
M  V30 2622 H 455.118 -8.36803 -2.32493 0
M  V30 2623 H 454.848 -6.70197 -1.71129 0
M  V30 2624 H 455.715 -7.03551 -4.13168 0
M  V30 2625 P 459.677 -7.20834 -5.23717 0
M  V30 2626 O 459.897 -7.79853 -6.57286 0
M  V30 2627 O 460.467 -7.79239 -4.12957 0
M  V30 2628 O 459.927 -5.63315 -5.29344 0
M  V30 2629 C 458.987 -4.80255 -6.01876 0
M  V30 2630 C 459.717 -3.64202 -6.65911 0
M  V30 2631 O 459.927 -2.60694 -5.64732 0
M  V30 2632 C 461.117 -3.93473 -7.1943 0
M  V30 2633 O 461.507 -3.02071 -8.21205 0
M  V30 2634 C 461.997 -3.73047 -5.97036 0
M  V30 2635 C 461.287 -2.58828 -5.25741 0
M  V30 2636 N 461.337 -2.68068 -3.77503 0
M  V30 2637 H 458.498 -5.40332 -6.79951 0
M  V30 2638 H 458.228 -4.41613 -5.32378 0
M  V30 2639 H 459.095 -3.26331 -7.47797 0
M  V30 2640 P 463.057 -2.75334 -8.47391 0
M  V30 2641 O 463.277 -2.44571 -9.90142 0
M  V30 2642 O 463.847 -3.87688 -7.92115 0
M  V30 2643 O 463.307 -1.4459 -7.59357 0
M  V30 2644 C 462.367 -0.347608 -7.69215 0
M  V30 2645 C 463.097 0.96767 -7.52806 0
M  V30 2646 O 463.307 1.21036 -6.1011 0
M  V30 2647 C 464.497 1.04544 -8.13308 0
M  V30 2648 O 464.887 2.38311 -8.41922 0
M  V30 2649 C 465.377 0.491279 -7.02284 0
M  V30 2650 C 464.667 0.996264 -5.77469 0
M  V30 2651 N 464.717 0.0501916 -4.62973 0
M  V30 2652 H 461.878 -0.374722 -8.67691 0
M  V30 2653 H 461.608 -0.443485 -6.90277 0
M  V30 2654 H 462.475 1.75537 -7.96793 0
M  V30 2655 P 466.437 2.75334 -8.47391 0
M  V30 2656 O 466.657 3.84204 -9.44982 0
M  V30 2657 O 467.227 1.51982 -8.68909 0
M  V30 2658 O 466.687 3.29363 -6.99321 0
M  V30 2659 C 465.747 4.24066 -6.42823 0
M  V30 2660 C 466.477 5.20775 -5.52155 0
M  V30 2661 O 466.687 4.56607 -4.22514 0
M  V30 2662 C 467.877 5.62697 -5.96604 0
M  V30 2663 O 468.267 6.87667 -5.41053 0
M  V30 2664 C 468.757 4.52537 -5.39283 0
M  V30 2665 C 468.047 4.20027 -4.08623 0
M  V30 2666 N 468.097 2.76189 -3.71603 0
M  V30 2667 C 468.017 1.66944 -4.54297 0
M  V30 2668 N 468.087 0.536169 -3.91344 0
M  V30 2669 C 468.237 0.901569 -2.58849 0
M  V30 2670 C 468.367 0.146599 -1.40236 0
M  V30 2671 N 468.377 -1.18234 -1.37046 0
M  V30 2672 N 468.487 0.822941 -0.249738 0
M  V30 2673 C 468.477 2.15179 -0.280525 0
M  V30 2674 N 468.357 2.96414 -1.30822 0
M  V30 2675 C 468.237 2.25804 -2.44748 0
M  V30 2676 H 465.259 4.79756 -7.24086 0
M  V30 2677 H 464.987 3.69963 -5.84682 0
M  V30 2678 H 465.855 6.10431 -5.41508 0
M  V30 2679 H 468.51 4.78816 -3.28024 0
M  V30 2680 H 468.79 3.64957 -6.05871 0
M  V30 2681 H 469.781 4.88748 -5.21323 0
M  V30 2682 H 467.947 5.66789 -7.0643 0
M  V30 2683 H 467.906 1.74684 -5.62396 0
M  V30 2684 H 468.287 -1.71949 -2.24394 0
M  V30 2685 H 468.476 -1.67511 -0.470742 0
M  V30 2686 H 468.584 2.63704 0.6828 0
M  V30 2687 P 469.817 7.20834 -5.23717 0
M  V30 2688 O 470.037 8.66104 -5.38572 0
M  V30 2689 O 470.607 6.33544 -6.1349 0
M  V30 2690 O 470.067 6.7751 -3.72168 0
M  V30 2691 C 469.127 7.20825 -2.7076 0
M  V30 2692 C 469.857 7.45864 -1.40599 0
M  V30 2693 O 470.067 6.17651 -0.734225 0
M  V30 2694 C 471.257 8.05808 -1.51899 0
M  V30 2695 O 471.647 8.74358 -0.335205 0
M  V30 2696 C 472.137 6.83093 -1.70294 0
M  V30 2697 C 471.427 5.79992 -0.836974 0
M  V30 2698 N 471.477 4.41864 -1.38293 0
M  V30 2699 H 468.638 8.13644 -3.0377 0
M  V30 2700 H 468.368 6.42788 -2.55485 0
M  V30 2701 H 469.235 8.12039 -0.792769 0
M  V30 2702 P 473.197 8.91 2.75506e-12 0
M  V30 2703 O 473.417 10.1726 0.733694 0
M  V30 2704 O 473.987 8.73148 -1.23936 0
M  V30 2705 O 473.447 7.66872 0.971405 0
M  V30 2706 C 472.507 7.42309 2.04641 0
M  V30 2707 C 473.237 6.86059 3.24661 0
M  V30 2708 O 473.447 5.42847 3.03646 0
M  V30 2709 C 474.637 7.41196 3.50753 0
M  V30 2710 O 475.027 7.27073 4.86816 0
M  V30 2711 C 475.517 6.5273 2.63741 0
M  V30 2712 C 474.807 5.1842 2.73198 0
M  V30 2713 N 474.857 4.38762 1.4784 0
M  V30 2714 H 472.018 8.36803 2.32493 0
M  V30 2715 H 471.748 6.70197 1.71129 0
M  V30 2716 H 472.615 7.03551 4.13168 0
M  V30 2717 P 476.577 7.20834 5.23717 0
M  V30 2718 O 476.797 7.79853 6.57286 0
M  V30 2719 O 477.367 7.79239 4.12957 0
M  V30 2720 O 476.827 5.63315 5.29344 0
M  V30 2721 C 475.887 4.80255 6.01876 0
M  V30 2722 C 476.617 3.64202 6.65911 0
M  V30 2723 O 476.827 2.60694 5.64732 0
M  V30 2724 C 478.017 3.93473 7.1943 0
M  V30 2725 O 478.407 3.02071 8.21205 0
M  V30 2726 C 478.897 3.73047 5.97036 0
M  V30 2727 C 478.187 2.58828 5.25741 0
M  V30 2728 N 478.237 2.68068 3.77503 0
M  V30 2729 H 475.398 5.40332 6.79951 0
M  V30 2730 H 475.128 4.41613 5.32378 0
M  V30 2731 H 475.995 3.26331 7.47797 0
M  V30 2732 P 479.957 2.75334 8.47391 0
M  V30 2733 O 480.177 2.44619 9.90336 0
M  V30 2734 O 480.747 3.87776 7.92294 0
M  V30 2735 O 480.207 1.4459 7.59357 0
M  V30 2736 C 479.267 0.347653 7.69315 0
M  V30 2737 C 479.997 -0.96767 7.52806 0
M  V30 2738 O 480.207 -1.21055 6.10208 0
M  V30 2739 C 481.397 -1.04557 8.13408 0
M  V30 2740 O 481.787 -2.38311 8.41922 0
M  V30 2741 C 482.277 -0.491279 7.02284 0
M  V30 2742 C 481.567 -0.996264 5.77469 0
M  V30 2743 N 481.617 -0.0501916 4.62973 0
M  V30 2744 H 478.779 0.374765 8.67791 0
M  V30 2745 H 478.507 0.443613 6.90476 0
M  V30 2746 H 479.375 -1.75559 7.96891 0
M  V30 2747 H 482.03 -1.94563 5.46818 0
M  V30 2748 H 482.31 0.608651 7.04676 0
M  V30 2749 H 483.301 -0.889796 7.09039 0
M  V30 2750 H 481.467 -0.433128 9.04664 0
M  V30 2751 P 483.337 -2.75334 8.47391 0
M  V30 2752 O 483.557 -3.84128 9.44797 0
M  V30 2753 O 484.127 -1.51947 8.68712 0
M  V30 2754 O 483.587 -3.29363 6.99321 0
M  V30 2755 C 482.647 -4.24011 6.4274 0
M  V30 2756 C 483.377 -5.20775 5.52155 0
M  V30 2757 O 483.587 -4.56534 4.22446 0
M  V30 2758 C 484.777 -5.62629 5.96531 0
M  V30 2759 O 485.167 -6.87667 5.41053 0
M  V30 2760 C 485.657 -4.52537 5.39283 0
M  V30 2761 C 484.947 -4.20027 4.08623 0
M  V30 2762 N 484.997 -2.76189 3.71603 0
M  V30 2763 H 482.158 -4.797 7.24003 0
M  V30 2764 H 481.888 -3.69856 5.84513 0
M  V30 2765 H 482.755 -6.10356 5.41441 0
M  V30 2766 P 486.717 -7.20834 5.23717 0
M  V30 2767 O 486.937 -8.66104 5.38572 0
M  V30 2768 O 487.507 -6.33544 6.1349 0
M  V30 2769 O 486.967 -6.7751 3.72168 0
M  V30 2770 C 486.027 -7.20825 2.7076 0
M  V30 2771 C 486.757 -7.45864 1.40599 0
M  V30 2772 O 486.967 -6.17651 0.734225 0
M  V30 2773 C 488.157 -8.05808 1.51899 0
M  V30 2774 O 488.547 -8.74358 0.335205 0
M  V30 2775 C 489.037 -6.83093 1.70294 0
M  V30 2776 C 488.327 -5.79992 0.836974 0
M  V30 2777 N 488.377 -4.41864 1.38293 0
M  V30 2778 H 485.538 -8.13644 3.0377 0
M  V30 2779 H 485.268 -6.42788 2.55485 0
M  V30 2780 H 486.135 -8.12039 0.792769 0
M  V30 2781 P 490.097 -8.91 -2.91224e-12 0
M  V30 2782 O 490.317 -10.1726 -0.733694 0
M  V30 2783 O 490.887 -8.73148 1.23936 0
M  V30 2784 O 490.347 -7.66872 -0.971405 0
M  V30 2785 C 489.407 -7.42309 -2.04641 0
M  V30 2786 C 490.137 -6.86059 -3.24661 0
M  V30 2787 O 490.347 -5.42847 -3.03646 0
M  V30 2788 C 491.537 -7.41196 -3.50753 0
M  V30 2789 O 491.927 -7.27073 -4.86816 0
M  V30 2790 C 492.417 -6.5273 -2.63741 0
M  V30 2791 C 491.707 -5.1842 -2.73198 0
M  V30 2792 N 491.757 -4.38762 -1.4784 0
M  V30 2793 H 488.918 -8.36803 -2.32493 0
M  V30 2794 H 488.648 -6.70197 -1.71129 0
M  V30 2795 H 489.515 -7.03551 -4.13168 0
M  V30 2796 P 493.477 -7.20834 -5.23717 0
M  V30 2797 O 493.697 -7.79853 -6.57286 0
M  V30 2798 O 494.267 -7.79239 -4.12957 0
M  V30 2799 O 493.727 -5.63315 -5.29344 0
M  V30 2800 C 492.787 -4.80255 -6.01876 0
M  V30 2801 C 493.517 -3.64202 -6.65911 0
M  V30 2802 O 493.727 -2.60694 -5.64732 0
M  V30 2803 C 494.917 -3.93473 -7.1943 0
M  V30 2804 O 495.307 -3.02071 -8.21205 0
M  V30 2805 C 495.797 -3.73047 -5.97036 0
M  V30 2806 C 495.087 -2.58828 -5.25741 0
M  V30 2807 N 495.137 -2.68068 -3.77503 0
M  V30 2808 H 492.298 -5.40332 -6.79951 0
M  V30 2809 H 492.028 -4.41613 -5.32378 0
M  V30 2810 H 492.895 -3.26331 -7.47797 0
M  V30 2811 P 496.857 -2.75334 -8.47391 0
M  V30 2812 O 497.077 -2.44571 -9.90142 0
M  V30 2813 O 497.647 -3.87688 -7.92115 0
M  V30 2814 O 497.107 -1.4459 -7.59357 0
M  V30 2815 C 496.167 -0.347608 -7.69215 0
M  V30 2816 C 496.897 0.96767 -7.52806 0
M  V30 2817 O 497.107 1.21036 -6.1011 0
M  V30 2818 C 498.297 1.04544 -8.13308 0
M  V30 2819 O 498.687 2.38311 -8.41922 0
M  V30 2820 C 499.177 0.491279 -7.02284 0
M  V30 2821 C 498.467 0.996264 -5.77469 0
M  V30 2822 N 498.517 0.0501916 -4.62973 0
M  V30 2823 H 495.678 -0.374722 -8.67691 0
M  V30 2824 H 495.408 -0.443485 -6.90277 0
M  V30 2825 H 496.275 1.75537 -7.96793 0
M  V30 2826 P 500.237 2.75334 -8.47391 0
M  V30 2827 O 500.457 3.84128 -9.44797 0
M  V30 2828 O 501.027 1.51947 -8.68712 0
M  V30 2829 O 500.487 3.29363 -6.99321 0
M  V30 2830 C 499.547 4.24011 -6.4274 0
M  V30 2831 C 500.277 5.20775 -5.52155 0
M  V30 2832 O 500.487 4.56534 -4.22446 0
M  V30 2833 C 501.677 5.62629 -5.96531 0
M  V30 2834 O 502.067 6.87667 -5.41053 0
M  V30 2835 C 502.557 4.52537 -5.39283 0
M  V30 2836 C 501.847 4.20027 -4.08623 0
M  V30 2837 N 501.897 2.76189 -3.71603 0
M  V30 2838 H 499.058 4.797 -7.24003 0
M  V30 2839 H 498.788 3.69856 -5.84513 0
M  V30 2840 H 499.655 6.10356 -5.41441 0
M  V30 2841 P 503.617 7.20834 -5.23717 0
M  V30 2842 O 503.837 8.66104 -5.38572 0
M  V30 2843 O 504.407 6.33544 -6.1349 0
M  V30 2844 O 503.867 6.7751 -3.72168 0
M  V30 2845 C 502.927 7.20825 -2.7076 0
M  V30 2846 C 503.657 7.45864 -1.40599 0
M  V30 2847 O 503.867 6.17651 -0.734225 0
M  V30 2848 C 505.057 8.05808 -1.51899 0
M  V30 2849 O 505.447 8.74358 -0.335205 0
M  V30 2850 C 505.937 6.83093 -1.70294 0
M  V30 2851 C 505.227 5.79992 -0.836974 0
M  V30 2852 N 505.277 4.41864 -1.38293 0
M  V30 2853 C 505.197 3.99538 -2.69438 0
M  V30 2854 N 505.277 2.69909 -2.84277 0
M  V30 2855 C 505.417 2.21719 -1.5408 0
M  V30 2856 C 505.547 0.891712 -1.06628 0
M  V30 2857 N 505.667 0.856846 0.334985 0
M  V30 2858 C 505.667 1.9641 1.15789 0
M  V30 2859 N 505.797 1.72708 2.46522 0
M  V30 2860 N 505.537 3.21165 0.713741 0
M  V30 2861 C 505.417 3.26797 -0.639748 0
M  V30 2862 H 502.438 8.13644 -3.0377 0
M  V30 2863 H 502.168 6.42788 -2.55485 0
M  V30 2864 H 503.035 8.12039 -0.792769 0
M  V30 2865 P 506.997 8.91 3.06942e-12 0
M  V30 2866 O 507.217 10.1726 0.733694 0
M  V30 2867 O 507.787 8.73148 -1.23936 0
M  V30 2868 O 507.247 7.66872 0.971405 0
M  V30 2869 C 506.307 7.42309 2.04641 0
M  V30 2870 C 507.037 6.86059 3.24661 0
M  V30 2871 O 507.247 5.42847 3.03646 0
M  V30 2872 C 508.437 7.41196 3.50753 0
M  V30 2873 O 508.827 7.27073 4.86816 0
M  V30 2874 C 509.317 6.5273 2.63741 0
M  V30 2875 C 508.607 5.1842 2.73198 0
M  V30 2876 N 508.657 4.38762 1.4784 0
M  V30 2877 H 505.818 8.36803 2.32493 0
M  V30 2878 H 505.548 6.70197 1.71129 0
M  V30 2879 H 506.415 7.03551 4.13168 0
M  V30 2880 P 510.377 7.20834 5.23717 0
M  V30 2881 O 510.597 7.79853 6.57286 0
M  V30 2882 O 511.167 7.79239 4.12957 0
M  V30 2883 O 510.627 5.63315 5.29344 0
M  V30 2884 C 509.687 4.80255 6.01876 0
M  V30 2885 C 510.417 3.64202 6.65911 0
M  V30 2886 O 510.627 2.60694 5.64732 0
M  V30 2887 C 511.817 3.93473 7.1943 0
M  V30 2888 O 512.207 3.02071 8.21205 0
M  V30 2889 C 512.697 3.73047 5.97036 0
M  V30 2890 C 511.987 2.58828 5.25741 0
M  V30 2891 N 512.037 2.68068 3.77503 0
M  V30 2892 H 509.198 5.40332 6.79951 0
M  V30 2893 H 508.928 4.41613 5.32378 0
M  V30 2894 H 509.795 3.26331 7.47797 0
M  V30 2895 P 513.757 2.75334 8.47391 0
M  V30 2896 O 513.977 2.44571 9.90142 0
M  V30 2897 O 514.547 3.87688 7.92115 0
M  V30 2898 O 514.007 1.4459 7.59357 0
M  V30 2899 C 513.067 0.347608 7.69215 0
M  V30 2900 C 513.797 -0.96767 7.52806 0
M  V30 2901 O 514.007 -1.21036 6.1011 0
M  V30 2902 C 515.197 -1.04544 8.13308 0
M  V30 2903 O 515.587 -2.38311 8.41922 0
M  V30 2904 C 516.077 -0.491279 7.02284 0
M  V30 2905 C 515.367 -0.996264 5.77469 0
M  V30 2906 N 515.417 -0.0501916 4.62973 0
M  V30 2907 C 515.337 1.32786 4.63244 0
M  V30 2908 N 515.417 1.86957 3.44545 0
M  V30 2909 C 515.557 0.780241 2.58481 0
M  V30 2910 C 515.687 0.738536 1.17757 0
M  V30 2911 N 515.807 -0.58337 0.711393 0
M  V30 2912 C 515.807 -1.70816 1.51017 0
M  V30 2913 N 515.937 -2.87826 0.880757 0
M  V30 2914 N 515.677 -1.67126 2.8339 0
M  V30 2915 C 515.557 -0.401421 3.30572 0
M  V30 2916 H 512.578 0.374722 8.67691 0
M  V30 2917 H 512.308 0.443485 6.90277 0
M  V30 2918 H 513.175 -1.75537 7.96793 0
M  V30 2919 P 517.137 -2.75334 8.47391 0
M  V30 2920 O 517.357 -3.84128 9.44797 0
M  V30 2921 O 517.927 -1.51947 8.68712 0
M  V30 2922 O 517.387 -3.29363 6.99321 0
M  V30 2923 C 516.447 -4.24011 6.4274 0
M  V30 2924 C 517.177 -5.20775 5.52155 0
M  V30 2925 O 517.387 -4.56534 4.22446 0
M  V30 2926 C 518.577 -5.62629 5.96531 0
M  V30 2927 O 518.967 -6.87667 5.41053 0
M  V30 2928 C 519.457 -4.52537 5.39283 0
M  V30 2929 C 518.747 -4.20027 4.08623 0
M  V30 2930 N 518.797 -2.76189 3.71603 0
M  V30 2931 H 515.958 -4.797 7.24003 0
M  V30 2932 H 515.688 -3.69856 5.84513 0
M  V30 2933 H 516.555 -6.10356 5.41441 0
M  V30 2934 P 520.517 -7.20834 5.23717 0
M  V30 2935 O 520.737 -8.66274 5.38678 0
M  V30 2936 O 521.307 -6.33687 6.13629 0
M  V30 2937 O 520.767 -6.7751 3.72168 0
M  V30 2938 C 519.827 -7.20919 2.70795 0
M  V30 2939 C 520.557 -7.45864 1.40599 0
M  V30 2940 O 520.767 -6.17751 0.734343 0
M  V30 2941 C 521.957 -8.05906 1.51917 0
M  V30 2942 O 522.347 -8.74358 0.335205 0
M  V30 2943 C 522.837 -6.83093 1.70294 0
M  V30 2944 C 522.127 -5.79992 0.836974 0
M  V30 2945 N 522.177 -4.41864 1.38293 0
M  V30 2946 H 519.339 -8.13738 3.03804 0
M  V30 2947 H 519.067 -6.42974 2.55559 0
M  V30 2948 H 519.935 -8.12139 0.792866 0
M  V30 2949 H 522.59 -5.80178 -0.160643 0
M  V30 2950 H 522.87 -6.51379 2.75643 0
M  V30 2951 H 523.861 -7.01832 1.3448 0
M  V30 2952 H 522.027 -8.73771 2.38364 0
M  V30 2953 P 523.897 -8.91 -3.22661e-12 0
M  V30 2954 O 524.117 -10.1726 -0.733694 0
M  V30 2955 O 524.687 -8.73148 1.23936 0
M  V30 2956 O 524.147 -7.66872 -0.971405 0
M  V30 2957 C 523.207 -7.42309 -2.04641 0
M  V30 2958 C 523.937 -6.86059 -3.24661 0
M  V30 2959 O 524.147 -5.42847 -3.03646 0
M  V30 2960 C 525.337 -7.41196 -3.50753 0
M  V30 2961 O 525.727 -7.27073 -4.86816 0
M  V30 2962 C 526.217 -6.5273 -2.63741 0
M  V30 2963 C 525.507 -5.1842 -2.73198 0
M  V30 2964 N 525.557 -4.38762 -1.4784 0
M  V30 2965 H 522.718 -8.36803 -2.32493 0
M  V30 2966 H 522.448 -6.70197 -1.71129 0
M  V30 2967 H 523.315 -7.03551 -4.13168 0
M  V30 2968 P 527.277 -7.20834 -5.23717 0
M  V30 2969 O 527.497 -7.79853 -6.57286 0
M  V30 2970 O 528.067 -7.79239 -4.12957 0
M  V30 2971 O 527.527 -5.63315 -5.29344 0
M  V30 2972 C 526.587 -4.80255 -6.01876 0
M  V30 2973 C 527.317 -3.64202 -6.65911 0
M  V30 2974 O 527.527 -2.60694 -5.64732 0
M  V30 2975 C 528.717 -3.93473 -7.1943 0
M  V30 2976 O 529.107 -3.02071 -8.21205 0
M  V30 2977 C 529.597 -3.73047 -5.97036 0
M  V30 2978 C 528.887 -2.58828 -5.25741 0
M  V30 2979 N 528.937 -2.68068 -3.77503 0
M  V30 2980 H 526.098 -5.40332 -6.79951 0
M  V30 2981 H 525.828 -4.41613 -5.32378 0
M  V30 2982 H 526.695 -3.26331 -7.47797 0
M  V30 2983 P 530.657 -2.75334 -8.47391 0
M  V30 2984 O 530.877 -2.44571 -9.90142 0
M  V30 2985 O 531.447 -3.87688 -7.92115 0
M  V30 2986 O 530.907 -1.4459 -7.59357 0
M  V30 2987 C 529.967 -0.347608 -7.69215 0
M  V30 2988 C 530.697 0.96767 -7.52806 0
M  V30 2989 O 530.907 1.21036 -6.1011 0
M  V30 2990 C 532.097 1.04544 -8.13308 0
M  V30 2991 O 532.487 2.38311 -8.41922 0
M  V30 2992 C 532.977 0.491279 -7.02284 0
M  V30 2993 C 532.267 0.996264 -5.77469 0
M  V30 2994 N 532.317 0.0501916 -4.62973 0
M  V30 2995 H 529.478 -0.374722 -8.67691 0
M  V30 2996 H 529.208 -0.443485 -6.90277 0
M  V30 2997 H 530.075 1.75537 -7.96793 0
M  V30 2998 P 534.037 2.75334 -8.47391 0
M  V30 2999 O 534.257 3.84128 -9.44797 0
M  V30 3000 O 534.827 1.51947 -8.68712 0
M  V30 3001 O 534.287 3.29363 -6.99321 0
M  V30 3002 C 533.347 4.24011 -6.4274 0
M  V30 3003 C 534.077 5.20775 -5.52155 0
M  V30 3004 O 534.287 4.56534 -4.22446 0
M  V30 3005 C 535.477 5.62629 -5.96531 0
M  V30 3006 O 535.867 6.87667 -5.41053 0
M  V30 3007 C 536.357 4.52537 -5.39283 0
M  V30 3008 C 535.647 4.20027 -4.08623 0
M  V30 3009 N 535.697 2.76189 -3.71603 0
M  V30 3010 H 532.858 4.797 -7.24003 0
M  V30 3011 H 532.588 3.69856 -5.84513 0
M  V30 3012 H 533.455 6.10356 -5.41441 0
M  V30 3013 P 537.417 7.20834 -5.23717 0
M  V30 3014 O 537.637 8.66104 -5.38572 0
M  V30 3015 O 538.207 6.33544 -6.1349 0
M  V30 3016 O 537.667 6.7751 -3.72168 0
M  V30 3017 C 536.727 7.20825 -2.7076 0
M  V30 3018 C 537.457 7.45864 -1.40599 0
M  V30 3019 O 537.667 6.17651 -0.734225 0
M  V30 3020 C 538.857 8.05808 -1.51899 0
M  V30 3021 O 539.247 8.74358 -0.335205 0
M  V30 3022 C 539.737 6.83093 -1.70294 0
M  V30 3023 C 539.027 5.79992 -0.836974 0
M  V30 3024 N 539.077 4.41864 -1.38293 0
M  V30 3025 C 538.997 3.99538 -2.69438 0
M  V30 3026 N 539.077 2.69909 -2.84277 0
M  V30 3027 C 539.217 2.21719 -1.5408 0
M  V30 3028 C 539.347 0.891712 -1.06628 0
M  V30 3029 O 539.367 -0.161298 -1.70137 0
M  V30 3030 N 539.467 0.856846 0.334985 0
M  V30 3031 C 539.467 1.9641 1.15789 0
M  V30 3032 N 539.597 1.72708 2.46522 0
M  V30 3033 N 539.337 3.21165 0.713741 0
M  V30 3034 C 539.217 3.26797 -0.639748 0
M  V30 3035 H 536.238 8.13644 -3.0377 0
M  V30 3036 H 535.968 6.42788 -2.55485 0
M  V30 3037 H 536.835 8.12039 -0.792769 0
M  V30 3038 H 539.49 5.80061 0.166416 0
M  V30 3039 H 539.769 6.51287 -2.75604 0
M  V30 3040 H 540.761 7.01734 -1.34462 0
M  V30 3041 H 538.927 8.73674 -2.38337 0
M  V30 3042 H 538.878 4.68207 -3.53221 0
M  V30 3043 H 539.56 -0.0398818 0.767965 0
M  V30 3044 H 539.597 2.50995 3.13503 0
M  V30 3045 H 539.698 0.759148 2.80716 0
M  V30 3046 P 540.797 8.91 3.38379e-12 0
M  V30 3047 O 541.017 10.1726 0.733694 0
M  V30 3048 O 541.587 8.73148 -1.23936 0
M  V30 3049 O 541.047 7.66872 0.971405 0
M  V30 3050 C 540.107 7.42309 2.04641 0
M  V30 3051 C 540.837 6.86059 3.24661 0
M  V30 3052 O 541.047 5.42847 3.03646 0
M  V30 3053 C 542.237 7.41196 3.50753 0
M  V30 3054 O 542.627 7.27073 4.86816 0
M  V30 3055 C 543.117 6.5273 2.63741 0
M  V30 3056 C 542.407 5.1842 2.73198 0
M  V30 3057 N 542.457 4.38762 1.4784 0
M  V30 3058 C 542.377 4.81605 0.168631 0
M  V30 3059 N 542.457 3.85454 -0.713363 0
M  V30 3060 C 542.597 2.6994 0.0566958 0
M  V30 3061 C 542.727 1.34815 -0.338502 0
M  V30 3062 N 542.847 0.496304 0.77465 0
M  V30 3063 C 542.847 0.908403 2.09122 0
M  V30 3064 N 542.977 -0.0517805 3.00955 0
M  V30 3065 N 542.717 2.17875 2.46519 0
M  V30 3066 C 542.597 3.01988 1.4033 0
M  V30 3067 H 539.618 8.36803 2.32493 0
M  V30 3068 H 539.348 6.70197 1.71129 0
M  V30 3069 H 540.215 7.03551 4.13168 0
M  V30 3070 P 544.177 7.20834 5.23717 0
M  V30 3071 O 544.397 7.79853 6.57286 0
M  V30 3072 O 544.967 7.79239 4.12957 0
M  V30 3073 O 544.427 5.63315 5.29344 0
M  V30 3074 C 543.487 4.80255 6.01876 0
M  V30 3075 C 544.217 3.64202 6.65911 0
M  V30 3076 O 544.427 2.60694 5.64732 0
M  V30 3077 C 545.617 3.93473 7.1943 0
M  V30 3078 O 546.007 3.02071 8.21205 0
M  V30 3079 C 546.497 3.73047 5.97036 0
M  V30 3080 C 545.787 2.58828 5.25741 0
M  V30 3081 N 545.837 2.68068 3.77503 0
M  V30 3082 H 542.998 5.40332 6.79951 0
M  V30 3083 H 542.728 4.41613 5.32378 0
M  V30 3084 H 543.595 3.26331 7.47797 0
M  V30 3085 P 547.557 2.75334 8.47391 0
M  V30 3086 O 547.777 2.44571 9.90142 0
M  V30 3087 O 548.347 3.87688 7.92115 0
M  V30 3088 O 547.807 1.4459 7.59357 0
M  V30 3089 C 546.867 0.347608 7.69215 0
M  V30 3090 C 547.597 -0.96767 7.52806 0
M  V30 3091 O 547.807 -1.21036 6.1011 0
M  V30 3092 C 548.997 -1.04544 8.13308 0
M  V30 3093 O 549.387 -2.38311 8.41922 0
M  V30 3094 C 549.877 -0.491279 7.02284 0
M  V30 3095 C 549.167 -0.996264 5.77469 0
M  V30 3096 N 549.217 -0.0501916 4.62973 0
M  V30 3097 H 546.378 0.374722 8.67691 0
M  V30 3098 H 546.108 0.443485 6.90277 0
M  V30 3099 H 546.975 -1.75537 7.96793 0
M  V30 3100 P 550.937 -2.75334 8.47391 0
M  V30 3101 O 551.157 -3.84128 9.44797 0
M  V30 3102 O 551.727 -1.51947 8.68712 0
M  V30 3103 O 551.187 -3.29363 6.99321 0
M  V30 3104 C 550.247 -4.24011 6.4274 0
M  V30 3105 C 550.977 -5.20775 5.52155 0
M  V30 3106 O 551.187 -4.56534 4.22446 0
M  V30 3107 C 552.377 -5.62629 5.96531 0
M  V30 3108 O 552.767 -6.87667 5.41053 0
M  V30 3109 C 553.257 -4.52537 5.39283 0
M  V30 3110 C 552.547 -4.20027 4.08623 0
M  V30 3111 N 552.597 -2.76189 3.71603 0
M  V30 3112 H 549.758 -4.797 7.24003 0
M  V30 3113 H 549.488 -3.69856 5.84513 0
M  V30 3114 H 550.355 -6.10356 5.41441 0
M  V30 3115 P 554.317 -7.20834 5.23717 0
M  V30 3116 O 554.537 -8.66189 5.38625 0
M  V30 3117 O 555.107 -6.33615 6.1356 0
M  V30 3118 O 554.567 -6.7751 3.72168 0
M  V30 3119 C 553.627 -7.20825 2.7076 0
M  V30 3120 C 554.357 -7.45864 1.40599 0
M  V30 3121 O 554.567 -6.17651 0.734225 0
M  V30 3122 C 555.757 -8.05808 1.51899 0
M  V30 3123 O 556.147 -8.74358 0.335205 0
M  V30 3124 C 556.637 -6.83093 1.70294 0
M  V30 3125 C 555.927 -5.79992 0.836974 0
M  V30 3126 N 555.977 -4.41769 1.38263 0
M  V30 3127 C 556.127 -3.36514 0.485617 0
M  V30 3128 O 556.217 -3.61814 -0.724703 0
M  V30 3129 N 556.177 -2.00746 1.14492 0
M  V30 3130 C 556.077 -1.85887 2.27776 0
M  V30 3131 N 556.127 -0.600907 2.69379 0
M  V30 3132 C 555.927 -2.92182 3.22265 0
M  V30 3133 C 555.877 -4.18399 2.71925 0
M  V30 3134 H 553.137 -8.1355 3.03735 0
M  V30 3135 H 552.868 -6.42695 2.55448 0
M  V30 3136 H 553.735 -8.12139 0.792866 0
M  V30 3137 H 556.39 -5.80078 -0.160615 0
M  V30 3138 H 556.669 -6.51379 2.75643 0
M  V30 3139 H 557.661 -7.01734 1.34462 0
M  V30 3140 H 555.827 -8.73674 2.38337 0
M  V30 3141 H 555.755 -5.02669 3.39718 0
M  V30 3142 H 555.857 -2.73001 4.29239 0
M  V30 3143 H 556.245 0.162318 2.01146 0
M  V30 3144 H 556.048 -0.387742 3.69773 0
M  V30 3145 P 557.697 -8.91 -3.54097e-12 0
M  V30 3146 O 557.917 -10.1726 -0.733694 0
M  V30 3147 O 558.487 -8.73148 1.23936 0
M  V30 3148 O 557.947 -7.66872 -0.971405 0
M  V30 3149 C 557.007 -7.42309 -2.04641 0
M  V30 3150 C 557.737 -6.86059 -3.24661 0
M  V30 3151 O 557.947 -5.42847 -3.03646 0
M  V30 3152 C 559.137 -7.41196 -3.50753 0
M  V30 3153 O 559.527 -7.27073 -4.86816 0
M  V30 3154 C 560.017 -6.5273 -2.63741 0
M  V30 3155 C 559.307 -5.1842 -2.73198 0
M  V30 3156 N 559.357 -4.38762 -1.4784 0
M  V30 3157 H 556.518 -8.36803 -2.32493 0
M  V30 3158 H 556.248 -6.70197 -1.71129 0
M  V30 3159 H 557.115 -7.03551 -4.13168 0
M  V30 3160 P 561.077 -7.20834 -5.23717 0
M  V30 3161 O 561.297 -7.79853 -6.57286 0
M  V30 3162 O 561.867 -7.79239 -4.12957 0
M  V30 3163 O 561.327 -5.63315 -5.29344 0
M  V30 3164 C 560.387 -4.80255 -6.01876 0
M  V30 3165 C 561.117 -3.64202 -6.65911 0
M  V30 3166 O 561.327 -2.60694 -5.64732 0
M  V30 3167 C 562.517 -3.93473 -7.1943 0
M  V30 3168 O 562.907 -3.02071 -8.21205 0
M  V30 3169 C 563.397 -3.73047 -5.97036 0
M  V30 3170 C 562.687 -2.58828 -5.25741 0
M  V30 3171 N 562.737 -2.68068 -3.77503 0
M  V30 3172 H 559.898 -5.40332 -6.79951 0
M  V30 3173 H 559.628 -4.41613 -5.32378 0
M  V30 3174 H 560.495 -3.26331 -7.47797 0
M  V30 3175 P 564.457 -2.75334 -8.47391 0
M  V30 3176 O 564.677 -2.44619 -9.90336 0
M  V30 3177 O 565.247 -3.87776 -7.92294 0
M  V30 3178 O 564.707 -1.4459 -7.59357 0
M  V30 3179 C 563.767 -0.347653 -7.69315 0
M  V30 3180 C 564.497 0.96767 -7.52806 0
M  V30 3181 O 564.707 1.21055 -6.10208 0
M  V30 3182 C 565.897 1.04557 -8.13408 0
M  V30 3183 O 566.287 2.38311 -8.41922 0
M  V30 3184 C 566.777 0.491279 -7.02284 0
M  V30 3185 C 566.067 0.996264 -5.77469 0
M  V30 3186 N 566.117 0.0501916 -4.62973 0
M  V30 3187 C 566.037 -1.31969 -4.65661 0
M  V30 3188 N 566.107 -1.86649 -3.48119 0
M  V30 3189 C 566.257 -0.792089 -2.62406 0
M  V30 3190 C 566.387 -0.705684 -1.2207 0
M  V30 3191 N 566.397 -1.76207 -0.413762 0
M  V30 3192 N 566.507 0.518981 -0.685754 0
M  V30 3193 C 566.497 1.57595 -1.49174 0
M  V30 3194 N 566.377 1.62909 -2.80066 0
M  V30 3195 C 566.257 0.388195 -3.3073 0
M  V30 3196 H 563.279 -0.374765 -8.67791 0
M  V30 3197 H 563.007 -0.443613 -6.90476 0
M  V30 3198 H 563.875 1.75559 -7.96891 0
M  V30 3199 H 566.53 1.94563 -5.46818 0
M  V30 3200 H 566.81 -0.608651 -7.04676 0
M  V30 3201 H 567.801 0.889796 -7.09039 0
M  V30 3202 H 565.967 0.433128 -9.04664 0
M  V30 3203 H 565.926 -1.89246 -5.57664 0
M  V30 3204 H 566.307 -2.71005 -0.804694 0
M  V30 3205 H 566.496 -1.63189 0.603768 0
M  V30 3206 H 566.604 2.53475 -0.997614 0
M  V30 3207 P 567.837 2.75334 -8.47391 0
M  V30 3208 O 568.057 3.84128 -9.44797 0
M  V30 3209 O 568.627 1.51947 -8.68712 0
M  V30 3210 O 568.087 3.29363 -6.99321 0
M  V30 3211 C 567.147 4.24011 -6.4274 0
M  V30 3212 C 567.877 5.20775 -5.52155 0
M  V30 3213 O 568.087 4.56534 -4.22446 0
M  V30 3214 C 569.277 5.62629 -5.96531 0
M  V30 3215 O 569.667 6.87667 -5.41053 0
M  V30 3216 C 570.157 4.52537 -5.39283 0
M  V30 3217 C 569.447 4.20027 -4.08623 0
M  V30 3218 N 569.497 2.76189 -3.71603 0
M  V30 3219 H 566.658 4.797 -7.24003 0
M  V30 3220 H 566.388 3.69856 -5.84513 0
M  V30 3221 H 567.255 6.10356 -5.41441 0
M  V30 3222 P 571.217 7.20834 -5.23717 0
M  V30 3223 O 571.437 8.66104 -5.38572 0
M  V30 3224 O 572.007 6.33544 -6.1349 0
M  V30 3225 O 571.467 6.7751 -3.72168 0
M  V30 3226 C 570.527 7.20825 -2.7076 0
M  V30 3227 C 571.257 7.45864 -1.40599 0
M  V30 3228 O 571.467 6.17651 -0.734225 0
M  V30 3229 C 572.657 8.05808 -1.51899 0
M  V30 3230 O 573.047 8.74358 -0.335205 0
M  V30 3231 C 573.537 6.83093 -1.70294 0
M  V30 3232 C 572.827 5.79992 -0.836974 0
M  V30 3233 N 572.877 4.41864 -1.38293 0
M  V30 3234 H 570.038 8.13644 -3.0377 0
M  V30 3235 H 569.768 6.42788 -2.55485 0
M  V30 3236 H 570.635 8.12039 -0.792769 0
M  V30 3237 P 574.597 8.91 3.69815e-12 0
M  V30 3238 O 574.817 10.1746 0.733838 0
M  V30 3239 O 575.387 8.73346 -1.23964 0
M  V30 3240 O 574.847 7.66872 0.971405 0
M  V30 3241 C 573.907 7.42405 2.04668 0
M  V30 3242 C 574.637 6.86059 3.24661 0
M  V30 3243 O 574.847 5.42934 3.03695 0
M  V30 3244 C 576.037 7.41287 3.50796 0
M  V30 3245 O 576.427 7.27073 4.86816 0
M  V30 3246 C 576.917 6.5273 2.63741 0
M  V30 3247 C 576.207 5.1842 2.73198 0
M  V30 3248 N 576.257 4.38762 1.4784 0
M  V30 3249 C 576.177 4.83651 0.183876 0
M  V30 3250 N 576.247 3.88759 -0.699393 0
M  V30 3251 C 576.397 2.7404 0.0575568 0
M  V30 3252 C 576.527 1.37902 -0.293928 0
M  V30 3253 N 576.537 0.938021 -1.54797 0
M  V30 3254 N 576.647 0.491817 0.70549 0
M  V30 3255 C 576.637 0.931735 1.95979 0
M  V30 3256 N 576.517 2.16017 2.41481 0
M  V30 3257 C 576.397 3.02547 1.39121 0
M  V30 3258 H 573.419 8.36899 2.3252 0
M  V30 3259 H 573.147 6.70391 1.71179 0
M  V30 3260 H 574.015 7.03638 4.13219 0
M  V30 3261 H 576.67 4.59931 3.54016 0
M  V30 3262 H 576.95 6.88995 1.59871 0
M  V30 3263 H 577.941 6.4684 3.0373 0
M  V30 3264 H 576.107 8.47002 3.20749 0
M  V30 3265 H 576.066 5.8885 -0.0765548 0
M  V30 3266 H 576.447 1.60276 -2.32875 0
M  V30 3267 H 576.636 -0.0699355 -1.73859 0
M  V30 3268 H 576.744 0.165507 2.71897 0
M  V30 3269 P 577.977 7.20834 5.23717 0
M  V30 3270 O 578.197 7.79853 6.57286 0
M  V30 3271 O 578.767 7.79239 4.12957 0
M  V30 3272 O 578.227 5.63315 5.29344 0
M  V30 3273 C 577.287 4.80255 6.01876 0
M  V30 3274 C 578.017 3.64202 6.65911 0
M  V30 3275 O 578.227 2.60694 5.64732 0
M  V30 3276 C 579.417 3.93473 7.1943 0
M  V30 3277 O 579.807 3.02071 8.21205 0
M  V30 3278 C 580.297 3.73047 5.97036 0
M  V30 3279 C 579.587 2.58828 5.25741 0
M  V30 3280 N 579.637 2.68068 3.77503 0
M  V30 3281 H 576.798 5.40332 6.79951 0
M  V30 3282 H 576.528 4.41613 5.32378 0
M  V30 3283 H 577.395 3.26331 7.47797 0
M  V30 3284 P 581.357 2.75334 8.47391 0
M  V30 3285 O 581.577 2.44571 9.90142 0
M  V30 3286 O 582.147 3.87688 7.92115 0
M  V30 3287 O 581.607 1.4459 7.59357 0
M  V30 3288 C 580.667 0.347608 7.69215 0
M  V30 3289 C 581.397 -0.96767 7.52806 0
M  V30 3290 O 581.607 -1.21036 6.1011 0
M  V30 3291 C 582.797 -1.04544 8.13308 0
M  V30 3292 O 583.187 -2.38311 8.41922 0
M  V30 3293 C 583.677 -0.491279 7.02284 0
M  V30 3294 C 582.967 -0.996264 5.77469 0
M  V30 3295 N 583.017 -0.0501916 4.62973 0
M  V30 3296 H 580.178 0.374722 8.67691 0
M  V30 3297 H 579.908 0.443485 6.90277 0
M  V30 3298 H 580.775 -1.75537 7.96793 0
M  V30 3299 P 584.737 -2.75334 8.47391 0
M  V30 3300 O 584.957 -3.84166 9.4489 0
M  V30 3301 O 585.527 -1.51964 8.6881 0
M  V30 3302 O 584.987 -3.29363 6.99321 0
M  V30 3303 C 584.047 -4.23956 6.42656 0
M  V30 3304 C 584.777 -5.20775 5.52155 0
M  V30 3305 O 584.987 -4.56534 4.22446 0
M  V30 3306 C 586.177 -5.62629 5.96531 0
M  V30 3307 O 586.567 -6.87667 5.41053 0
M  V30 3308 C 587.057 -4.52537 5.39283 0
M  V30 3309 C 586.347 -4.20027 4.08623 0
M  V30 3310 N 586.397 -2.7613 3.71522 0
M  V30 3311 C 586.547 -2.45612 2.37989 0
M  V30 3312 O 586.637 -3.30919 1.51621 0
M  V30 3313 N 586.587 -1.10684 2.08435 0
M  V30 3314 C 586.497 -0.0690084 2.9792 0
M  V30 3315 O 586.547 1.10553 2.59426 0
M  V30 3316 C 586.347 -0.481522 4.35345 0
M  V30 3317 C 586.237 0.618778 5.36443 0
M  V30 3318 C 586.297 -1.78906 4.67968 0
M  V30 3319 H 583.557 -4.797 7.24003 0
M  V30 3320 H 583.288 -3.69802 5.84429 0
M  V30 3321 H 584.155 -6.10356 5.41441 0
M  V30 3322 H 586.81 -4.78651 3.27911 0
M  V30 3323 H 587.089 -3.64957 6.05871 0
M  V30 3324 H 588.081 -4.8868 5.2125 0
M  V30 3325 H 586.247 -5.66726 7.06352 0
M  V30 3326 H 586.176 -2.07737 5.72367 0
M  V30 3327 H 587.206 0.754375 5.86871 0
M  V30 3328 H 585.469 0.359721 6.10641 0
M  V30 3329 H 585.957 1.55533 4.8581 0
M  V30 3330 H 586.693 -0.862651 1.12037 0
M  V30 3331 P 588.117 -7.20834 5.23717 0
M  V30 3332 O 588.337 -8.66104 5.38572 0
M  V30 3333 O 588.907 -6.33544 6.1349 0
M  V30 3334 O 588.367 -6.7751 3.72168 0
M  V30 3335 C 587.427 -7.20825 2.7076 0
M  V30 3336 C 588.157 -7.45864 1.40599 0
M  V30 3337 O 588.367 -6.17651 0.734225 0
M  V30 3338 C 589.557 -8.05808 1.51899 0
M  V30 3339 O 589.947 -8.74358 0.335205 0
M  V30 3340 C 590.437 -6.83093 1.70294 0
M  V30 3341 C 589.727 -5.79992 0.836974 0
M  V30 3342 N 589.777 -4.41864 1.38293 0
M  V30 3343 H 586.938 -8.13644 3.0377 0
M  V30 3344 H 586.668 -6.42788 2.55485 0
M  V30 3345 H 587.535 -8.12039 0.792769 0
M  V30 3346 P 591.496 -8.91 -3.85533e-12 0
M  V30 3347 O 591.716 -10.1726 -0.733694 0
M  V30 3348 O 592.286 -8.73148 1.23936 0
M  V30 3349 O 591.746 -7.66872 -0.971405 0
M  V30 3350 C 590.806 -7.42309 -2.04641 0
M  V30 3351 C 591.536 -6.86059 -3.24661 0
M  V30 3352 O 591.746 -5.42847 -3.03646 0
M  V30 3353 C 592.937 -7.41196 -3.50753 0
M  V30 3354 O 593.327 -7.27073 -4.86816 0
M  V30 3355 C 593.817 -6.5273 -2.63741 0
M  V30 3356 C 593.106 -5.1842 -2.73198 0
M  V30 3357 N 593.156 -4.38762 -1.4784 0
M  V30 3358 H 590.317 -8.36803 -2.32493 0
M  V30 3359 H 590.048 -6.70197 -1.71129 0
M  V30 3360 H 590.914 -7.03551 -4.13168 0
M  V30 3361 P 594.876 -7.20834 -5.23717 0
M  V30 3362 O 595.096 -7.7993 -6.57351 0
M  V30 3363 O 595.666 -7.79328 -4.13004 0
M  V30 3364 O 595.126 -5.63315 -5.29344 0
M  V30 3365 C 594.186 -4.80193 -6.01798 0
M  V30 3366 C 594.916 -3.64202 -6.65911 0
M  V30 3367 O 595.126 -2.60694 -5.64732 0
M  V30 3368 C 596.316 -3.93473 -7.1943 0
M  V30 3369 O 596.706 -3.02071 -8.21205 0
M  V30 3370 C 597.196 -3.73047 -5.97036 0
M  V30 3371 C 596.486 -2.58828 -5.25741 0
M  V30 3372 N 596.536 -2.6801 -3.77422 0
M  V30 3373 C 596.686 -1.50443 -3.07133 0
M  V30 3374 O 596.776 -0.419406 -3.61576 0
M  V30 3375 N 596.726 -1.6403 -1.69677 0
M  V30 3376 C 596.636 -2.81206 -0.986255 0
M  V30 3377 C 596.486 -3.99158 -1.80325 0
M  V30 3378 C 596.436 -3.89779 -3.1476 0
M  V30 3379 H 593.696 -5.40332 -6.79951 0
M  V30 3380 H 593.427 -4.41549 -5.32301 0
M  V30 3381 H 594.294 -3.26331 -7.47797 0
M  V30 3382 H 596.949 -1.6395 -5.56554 0
M  V30 3383 H 597.228 -4.63439 -5.3432 0
M  V30 3384 H 598.22 -3.44728 -6.25838 0
M  V30 3385 H 596.386 -4.96652 -7.57263 0
M  V30 3386 H 596.315 -4.80159 -3.74441 0
M  V30 3387 P 598.256 -2.75334 -8.47391 0
M  V30 3388 O 598.476 -2.44571 -9.90142 0
M  V30 3389 O 599.046 -3.87688 -7.92115 0
M  V30 3390 O 598.506 -1.4459 -7.59357 0
M  V30 3391 C 597.566 -0.347608 -7.69215 0
M  V30 3392 C 598.296 0.96767 -7.52806 0
M  V30 3393 O 598.506 1.21036 -6.1011 0
M  V30 3394 C 599.696 1.04544 -8.13308 0
M  V30 3395 O 600.086 2.38311 -8.41922 0
M  V30 3396 C 600.576 0.491279 -7.02284 0
M  V30 3397 C 599.866 0.996264 -5.77469 0
M  V30 3398 N 599.916 0.0501916 -4.62973 0
M  V30 3399 H 597.077 -0.374722 -8.67691 0
M  V30 3400 H 596.807 -0.443485 -6.90277 0
M  V30 3401 H 597.674 1.75537 -7.96793 0
M  V30 3402 P 601.636 2.75334 -8.47391 0
M  V30 3403 O 601.856 3.84128 -9.44797 0
M  V30 3404 O 602.426 1.51947 -8.68712 0
M  V30 3405 O 601.886 3.29363 -6.99321 0
M  V30 3406 C 600.946 4.24011 -6.4274 0
M  V30 3407 C 601.676 5.20775 -5.52155 0
M  V30 3408 O 601.886 4.56534 -4.22446 0
M  V30 3409 C 603.076 5.62629 -5.96531 0
M  V30 3410 O 603.466 6.87667 -5.41053 0
M  V30 3411 C 603.956 4.52537 -5.39283 0
M  V30 3412 C 603.246 4.20027 -4.08623 0
M  V30 3413 N 603.296 2.76189 -3.71603 0
M  V30 3414 C 603.216 1.64862 -4.52822 0
M  V30 3415 N 603.296 0.512671 -3.88633 0
M  V30 3416 C 603.436 0.888083 -2.54977 0
M  V30 3417 C 603.566 0.094668 -1.38677 0
M  V30 3418 N 603.686 0.890102 -0.232633 0
M  V30 3419 C 603.686 2.26958 -0.21772 0
M  V30 3420 N 603.816 2.84626 0.97925 0
M  V30 3421 N 603.556 3.0178 -1.31033 0
M  V30 3422 C 603.436 2.26781 -2.43843 0
M  V30 3423 H 600.457 4.797 -7.24003 0
M  V30 3424 H 600.187 3.69856 -5.84513 0
M  V30 3425 H 601.054 6.10356 -5.41441 0
M  V30 3426 P 605.016 7.20834 -5.23717 0
M  V30 3427 O 605.236 8.66104 -5.38572 0
M  V30 3428 O 605.806 6.33544 -6.1349 0
M  V30 3429 O 605.266 6.7751 -3.72168 0
M  V30 3430 C 604.326 7.20825 -2.7076 0
M  V30 3431 C 605.056 7.45864 -1.40599 0
M  V30 3432 O 605.266 6.17651 -0.734225 0
M  V30 3433 C 606.456 8.05808 -1.51899 0
M  V30 3434 O 606.846 8.74358 -0.335205 0
M  V30 3435 C 607.336 6.83093 -1.70294 0
M  V30 3436 C 606.626 5.79992 -0.836974 0
M  V30 3437 N 606.676 4.41864 -1.38293 0
M  V30 3438 H 603.837 8.13644 -3.0377 0
M  V30 3439 H 603.567 6.42788 -2.55485 0
M  V30 3440 H 604.434 8.12039 -0.792769 0
M  V30 3441 P 608.396 8.91 4.01252e-12 0
M  V30 3442 O 608.616 10.1726 0.733694 0
M  V30 3443 O 609.186 8.73148 -1.23936 0
M  V30 3444 O 608.646 7.66872 0.971405 0
M  V30 3445 C 607.706 7.42309 2.04641 0
M  V30 3446 C 608.436 6.86059 3.24661 0
M  V30 3447 O 608.646 5.42847 3.03646 0
M  V30 3448 C 609.836 7.41196 3.50753 0
M  V30 3449 O 610.226 7.27073 4.86816 0
M  V30 3450 C 610.716 6.5273 2.63741 0
M  V30 3451 C 610.006 5.1842 2.73198 0
M  V30 3452 N 610.056 4.38762 1.4784 0
M  V30 3453 H 607.217 8.36803 2.32493 0
M  V30 3454 H 606.947 6.70197 1.71129 0
M  V30 3455 H 607.814 7.03551 4.13168 0
M  V30 3456 P 611.776 7.20834 5.23717 0
M  V30 3457 O 611.996 7.79853 6.57286 0
M  V30 3458 O 612.566 7.79239 4.12957 0
M  V30 3459 O 612.026 5.63315 5.29344 0
M  V30 3460 C 611.086 4.80255 6.01876 0
M  V30 3461 C 611.816 3.64202 6.65911 0
M  V30 3462 O 612.026 2.60694 5.64732 0
M  V30 3463 C 613.216 3.93473 7.1943 0
M  V30 3464 O 613.606 3.02071 8.21205 0
M  V30 3465 C 614.096 3.73047 5.97036 0
M  V30 3466 C 613.386 2.58828 5.25741 0
M  V30 3467 N 613.436 2.68068 3.77503 0
M  V30 3468 H 610.597 5.40332 6.79951 0
M  V30 3469 H 610.327 4.41613 5.32378 0
M  V30 3470 H 611.194 3.26331 7.47797 0
M  V30 3471 P 615.156 2.75334 8.47391 0
M  V30 3472 O 615.376 2.44571 9.90142 0
M  V30 3473 O 615.946 3.87688 7.92115 0
M  V30 3474 O 615.406 1.4459 7.59357 0
M  V30 3475 C 614.466 0.347608 7.69215 0
M  V30 3476 C 615.196 -0.96767 7.52806 0
M  V30 3477 O 615.406 -1.21036 6.1011 0
M  V30 3478 C 616.596 -1.04544 8.13308 0
M  V30 3479 O 616.986 -2.38311 8.41922 0
M  V30 3480 C 617.476 -0.491279 7.02284 0
M  V30 3481 C 616.766 -0.996264 5.77469 0
M  V30 3482 N 616.816 -0.0501916 4.62973 0
M  V30 3483 H 613.977 0.374722 8.67691 0
M  V30 3484 H 613.707 0.443485 6.90277 0
M  V30 3485 H 614.574 -1.75537 7.96793 0
M  V30 3486 P 618.536 -2.75334 8.47391 0
M  V30 3487 O 618.756 -3.84128 9.44797 0
M  V30 3488 O 619.326 -1.51947 8.68712 0
M  V30 3489 O 618.786 -3.29363 6.99321 0
M  V30 3490 C 617.846 -4.24011 6.4274 0
M  V30 3491 C 618.576 -5.20775 5.52155 0
M  V30 3492 O 618.786 -4.56534 4.22446 0
M  V30 3493 C 619.976 -5.62629 5.96531 0
M  V30 3494 O 620.366 -6.87667 5.41053 0
M  V30 3495 C 620.856 -4.52537 5.39283 0
M  V30 3496 C 620.146 -4.20027 4.08623 0
M  V30 3497 N 620.196 -2.76189 3.71603 0
M  V30 3498 H 617.357 -4.797 7.24003 0
M  V30 3499 H 617.087 -3.69856 5.84513 0
M  V30 3500 H 617.954 -6.10356 5.41441 0
M  V30 3501 P 621.916 -7.20834 5.23717 0
M  V30 3502 O 622.136 -8.66104 5.38572 0
M  V30 3503 O 622.706 -6.33544 6.1349 0
M  V30 3504 O 622.166 -6.7751 3.72168 0
M  V30 3505 C 621.226 -7.20825 2.7076 0
M  V30 3506 C 621.956 -7.45864 1.40599 0
M  V30 3507 O 622.166 -6.17651 0.734225 0
M  V30 3508 C 623.356 -8.05808 1.51899 0
M  V30 3509 O 623.746 -8.74358 0.335205 0
M  V30 3510 C 624.236 -6.83093 1.70294 0
M  V30 3511 C 623.526 -5.79992 0.836974 0
M  V30 3512 N 623.576 -4.41864 1.38293 0
M  V30 3513 H 620.737 -8.13644 3.0377 0
M  V30 3514 H 620.467 -6.42788 2.55485 0
M  V30 3515 H 621.334 -8.12039 0.792769 0
M  V30 3516 P 625.296 -8.91 -4.1697e-12 0
M  V30 3517 O 625.516 -10.1726 -0.733694 0
M  V30 3518 O 626.086 -8.73148 1.23936 0
M  V30 3519 O 625.546 -7.66872 -0.971405 0
M  V30 3520 C 624.606 -7.42309 -2.04641 0
M  V30 3521 C 625.336 -6.86059 -3.24661 0
M  V30 3522 O 625.546 -5.42847 -3.03646 0
M  V30 3523 C 626.736 -7.41196 -3.50753 0
M  V30 3524 O 627.126 -7.27073 -4.86816 0
M  V30 3525 C 627.616 -6.5273 -2.63741 0
M  V30 3526 C 626.906 -5.1842 -2.73198 0
M  V30 3527 N 626.956 -4.38762 -1.4784 0
M  V30 3528 H 624.117 -8.36803 -2.32493 0
M  V30 3529 H 623.847 -6.70197 -1.71129 0
M  V30 3530 H 624.714 -7.03551 -4.13168 0
M  V30 3531 P 628.676 -7.20834 -5.23717 0
M  V30 3532 O 628.896 -7.79853 -6.57286 0
M  V30 3533 O 629.466 -7.79239 -4.12957 0
M  V30 3534 O 628.926 -5.63315 -5.29344 0
M  V30 3535 C 627.986 -4.80255 -6.01876 0
M  V30 3536 C 628.716 -3.64202 -6.65911 0
M  V30 3537 O 628.926 -2.60694 -5.64732 0
M  V30 3538 C 630.116 -3.93473 -7.1943 0
M  V30 3539 O 630.506 -3.02071 -8.21205 0
M  V30 3540 C 630.996 -3.73047 -5.97036 0
M  V30 3541 C 630.286 -2.58828 -5.25741 0
M  V30 3542 N 630.336 -2.68068 -3.77503 0
M  V30 3543 H 627.497 -5.40332 -6.79951 0
M  V30 3544 H 627.227 -4.41613 -5.32378 0
M  V30 3545 H 628.094 -3.26331 -7.47797 0
M  V30 3546 P 632.056 -2.75334 -8.47391 0
M  V30 3547 O 632.276 -2.44571 -9.90142 0
M  V30 3548 O 632.846 -3.87688 -7.92115 0
M  V30 3549 O 632.306 -1.4459 -7.59357 0
M  V30 3550 C 631.366 -0.347608 -7.69215 0
M  V30 3551 C 632.096 0.96767 -7.52806 0
M  V30 3552 O 632.306 1.21036 -6.1011 0
M  V30 3553 C 633.496 1.04544 -8.13308 0
M  V30 3554 O 633.886 2.38311 -8.41922 0
M  V30 3555 C 634.376 0.491279 -7.02284 0
M  V30 3556 C 633.666 0.996264 -5.77469 0
M  V30 3557 N 633.716 0.0501916 -4.62973 0
M  V30 3558 H 630.877 -0.374722 -8.67691 0
M  V30 3559 H 630.607 -0.443485 -6.90277 0
M  V30 3560 H 631.474 1.75537 -7.96793 0
M  V30 3561 P 635.436 2.75334 -8.47391 0
M  V30 3562 O 635.656 3.84166 -9.4489 0
M  V30 3563 O 636.226 1.51964 -8.6881 0
M  V30 3564 O 635.686 3.29363 -6.99321 0
M  V30 3565 C 634.746 4.23956 -6.42656 0
M  V30 3566 C 635.476 5.20775 -5.52155 0
M  V30 3567 O 635.686 4.56534 -4.22446 0
M  V30 3568 C 636.876 5.62629 -5.96531 0
M  V30 3569 O 637.266 6.87667 -5.41053 0
M  V30 3570 C 637.756 4.52537 -5.39283 0
M  V30 3571 C 637.046 4.20027 -4.08623 0
M  V30 3572 N 637.096 2.7613 -3.71522 0
M  V30 3573 C 637.246 2.45612 -2.37989 0
M  V30 3574 O 637.336 3.30919 -1.51621 0
M  V30 3575 N 637.286 1.10684 -2.08435 0
M  V30 3576 C 637.196 0.0690084 -2.9792 0
M  V30 3577 O 637.246 -1.10553 -2.59426 0
M  V30 3578 C 637.046 0.481522 -4.35345 0
M  V30 3579 C 636.936 -0.618778 -5.36443 0
M  V30 3580 C 636.996 1.78906 -4.67968 0
M  V30 3581 H 634.256 4.797 -7.24003 0
M  V30 3582 H 633.987 3.69802 -5.84429 0
M  V30 3583 H 634.854 6.10356 -5.41441 0
M  V30 3584 H 637.509 4.78651 -3.27911 0
M  V30 3585 H 637.788 3.64957 -6.05871 0
M  V30 3586 H 638.78 4.8868 -5.2125 0
M  V30 3587 H 636.946 5.66726 -7.06352 0
M  V30 3588 H 636.875 2.07737 -5.72367 0
M  V30 3589 H 637.905 -0.754375 -5.86871 0
M  V30 3590 H 636.168 -0.359721 -6.10641 0
M  V30 3591 H 636.656 -1.55533 -4.8581 0
M  V30 3592 H 637.392 0.862651 -1.12037 0
M  V30 3593 P 638.816 7.20834 -5.23717 0
M  V30 3594 O 639.036 8.66104 -5.38572 0
M  V30 3595 O 639.606 6.33544 -6.1349 0
M  V30 3596 O 639.066 6.7751 -3.72168 0
M  V30 3597 C 638.126 7.20825 -2.7076 0
M  V30 3598 C 638.856 7.45864 -1.40599 0
M  V30 3599 O 639.066 6.17651 -0.734225 0
M  V30 3600 C 640.256 8.05808 -1.51899 0
M  V30 3601 O 640.646 8.74358 -0.335205 0
M  V30 3602 C 641.136 6.83093 -1.70294 0
M  V30 3603 C 640.426 5.79992 -0.836974 0
M  V30 3604 N 640.476 4.41864 -1.38293 0
M  V30 3605 H 637.637 8.13644 -3.0377 0
M  V30 3606 H 637.367 6.42788 -2.55485 0
M  V30 3607 H 638.234 8.12039 -0.792769 0
M  V30 3608 P 642.196 8.91 4.32688e-12 0
M  V30 3609 O 642.416 10.1726 0.733694 0
M  V30 3610 O 642.986 8.73148 -1.23936 0
M  V30 3611 O 642.446 7.66872 0.971405 0
M  V30 3612 C 641.506 7.42309 2.04641 0
M  V30 3613 C 642.236 6.86059 3.24661 0
M  V30 3614 O 642.446 5.42847 3.03646 0
M  V30 3615 C 643.636 7.41196 3.50753 0
M  V30 3616 O 644.026 7.27073 4.86816 0
M  V30 3617 C 644.516 6.5273 2.63741 0
M  V30 3618 C 643.806 5.1842 2.73198 0
M  V30 3619 N 643.856 4.38762 1.4784 0
M  V30 3620 H 641.017 8.36803 2.32493 0
M  V30 3621 H 640.747 6.70197 1.71129 0
M  V30 3622 H 641.614 7.03551 4.13168 0
M  V30 3623 P 645.576 7.20834 5.23717 0
M  V30 3624 O 645.796 7.79853 6.57286 0
M  V30 3625 O 646.366 7.79239 4.12957 0
M  V30 3626 O 645.826 5.63315 5.29344 0
M  V30 3627 C 644.886 4.80255 6.01876 0
M  V30 3628 C 645.616 3.64202 6.65911 0
M  V30 3629 O 645.826 2.60694 5.64732 0
M  V30 3630 C 647.016 3.93473 7.1943 0
M  V30 3631 O 647.406 3.02071 8.21205 0
M  V30 3632 C 647.896 3.73047 5.97036 0
M  V30 3633 C 647.186 2.58828 5.25741 0
M  V30 3634 N 647.236 2.68068 3.77503 0
M  V30 3635 C 647.156 3.79715 2.96723 0
M  V30 3636 N 647.236 3.5377 1.68852 0
M  V30 3637 C 647.376 2.15054 1.63254 0
M  V30 3638 C 647.506 1.28964 0.518571 0
M  V30 3639 N 647.626 -0.0538097 0.918425 0
M  V30 3640 C 647.626 -0.494275 2.22578 0
M  V30 3641 N 647.756 -1.81086 2.40434 0
M  V30 3642 N 647.496 0.313645 3.27502 0
M  V30 3643 C 647.376 1.61829 2.91033 0
M  V30 3644 H 644.397 5.40332 6.79951 0
M  V30 3645 H 644.127 4.41613 5.32378 0
M  V30 3646 H 644.994 3.26331 7.47797 0
M  V30 3647 P 648.956 2.75334 8.47391 0
M  V30 3648 O 649.176 2.44571 9.90142 0
M  V30 3649 O 649.746 3.87688 7.92115 0
M  V30 3650 O 649.206 1.4459 7.59357 0
M  V30 3651 C 648.266 0.347608 7.69215 0
M  V30 3652 C 648.996 -0.96767 7.52806 0
M  V30 3653 O 649.206 -1.21036 6.1011 0
M  V30 3654 C 650.396 -1.04544 8.13308 0
M  V30 3655 O 650.786 -2.38311 8.41922 0
M  V30 3656 C 651.276 -0.491279 7.02284 0
M  V30 3657 C 650.566 -0.996264 5.77469 0
M  V30 3658 N 650.616 -0.0501916 4.62973 0
M  V30 3659 H 647.777 0.374722 8.67691 0
M  V30 3660 H 647.507 0.443485 6.90277 0
M  V30 3661 H 648.374 -1.75537 7.96793 0
M  V30 3662 P 652.336 -2.75334 8.47391 0
M  V30 3663 O 652.556 -3.84128 9.44797 0
M  V30 3664 O 653.126 -1.51947 8.68712 0
M  V30 3665 O 652.586 -3.29363 6.99321 0
M  V30 3666 C 651.646 -4.24011 6.4274 0
M  V30 3667 C 652.376 -5.20775 5.52155 0
M  V30 3668 O 652.586 -4.56534 4.22446 0
M  V30 3669 C 653.776 -5.62629 5.96531 0
M  V30 3670 O 654.166 -6.87667 5.41053 0
M  V30 3671 C 654.656 -4.52537 5.39283 0
M  V30 3672 C 653.946 -4.20027 4.08623 0
M  V30 3673 N 653.996 -2.76189 3.71603 0
M  V30 3674 H 651.157 -4.797 7.24003 0
M  V30 3675 H 650.887 -3.69856 5.84513 0
M  V30 3676 H 651.754 -6.10356 5.41441 0
M  V30 3677 P 655.716 -7.20834 5.23717 0
M  V30 3678 O 655.936 -8.66274 5.38678 0
M  V30 3679 O 656.506 -6.33687 6.13629 0
M  V30 3680 O 655.966 -6.7751 3.72168 0
M  V30 3681 C 655.026 -7.20919 2.70795 0
M  V30 3682 C 655.756 -7.45864 1.40599 0
M  V30 3683 O 655.966 -6.17751 0.734343 0
M  V30 3684 C 657.156 -8.05906 1.51917 0
M  V30 3685 O 657.546 -8.74358 0.335205 0
M  V30 3686 C 658.036 -6.83093 1.70294 0
M  V30 3687 C 657.326 -5.79992 0.836974 0
M  V30 3688 N 657.376 -4.41864 1.38293 0
M  V30 3689 H 654.538 -8.13738 3.03804 0
M  V30 3690 H 654.266 -6.42974 2.55559 0
M  V30 3691 H 655.134 -8.12139 0.792866 0
M  V30 3692 H 657.789 -5.80178 -0.160643 0
M  V30 3693 H 658.069 -6.51379 2.75643 0
M  V30 3694 H 659.06 -7.01832 1.3448 0
M  V30 3695 H 657.226 -8.73771 2.38364 0
M  V30 3696 P 659.096 -8.91 -4.48406e-12 0
M  V30 3697 O 659.316 -10.1726 -0.733694 0
M  V30 3698 O 659.886 -8.73148 1.23936 0
M  V30 3699 O 659.346 -7.66872 -0.971405 0
M  V30 3700 C 658.406 -7.42309 -2.04641 0
M  V30 3701 C 659.136 -6.86059 -3.24661 0
M  V30 3702 O 659.346 -5.42847 -3.03646 0
M  V30 3703 C 660.536 -7.41196 -3.50753 0
M  V30 3704 O 660.926 -7.27073 -4.86816 0
M  V30 3705 C 661.416 -6.5273 -2.63741 0
M  V30 3706 C 660.706 -5.1842 -2.73198 0
M  V30 3707 N 660.756 -4.38762 -1.4784 0
M  V30 3708 H 657.917 -8.36803 -2.32493 0
M  V30 3709 H 657.647 -6.70197 -1.71129 0
M  V30 3710 H 658.514 -7.03551 -4.13168 0
M  V30 3711 P 662.476 -7.20834 -5.23717 0
M  V30 3712 O 662.696 -7.79853 -6.57286 0
M  V30 3713 O 663.266 -7.79239 -4.12957 0
M  V30 3714 O 662.726 -5.63315 -5.29344 0
M  V30 3715 C 661.786 -4.80255 -6.01876 0
M  V30 3716 C 662.516 -3.64202 -6.65911 0
M  V30 3717 O 662.726 -2.60694 -5.64732 0
M  V30 3718 C 663.916 -3.93473 -7.1943 0
M  V30 3719 O 664.306 -3.02071 -8.21205 0
M  V30 3720 C 664.796 -3.73047 -5.97036 0
M  V30 3721 C 664.086 -2.58828 -5.25741 0
M  V30 3722 N 664.136 -2.68068 -3.77503 0
M  V30 3723 H 661.297 -5.40332 -6.79951 0
M  V30 3724 H 661.027 -4.41613 -5.32378 0
M  V30 3725 H 661.894 -3.26331 -7.47797 0
M  V30 3726 P 665.856 -2.75334 -8.47391 0
M  V30 3727 O 666.076 -2.44571 -9.90142 0
M  V30 3728 O 666.646 -3.87688 -7.92115 0
M  V30 3729 O 666.106 -1.4459 -7.59357 0
M  V30 3730 C 665.166 -0.347608 -7.69215 0
M  V30 3731 C 665.896 0.96767 -7.52806 0
M  V30 3732 O 666.106 1.21036 -6.1011 0
M  V30 3733 C 667.296 1.04544 -8.13308 0
M  V30 3734 O 667.686 2.38311 -8.41922 0
M  V30 3735 C 668.176 0.491279 -7.02284 0
M  V30 3736 C 667.466 0.996264 -5.77469 0
M  V30 3737 N 667.516 0.0501916 -4.62973 0
M  V30 3738 H 664.677 -0.374722 -8.67691 0
M  V30 3739 H 664.407 -0.443485 -6.90277 0
M  V30 3740 H 665.274 1.75537 -7.96793 0
M  V30 3741 P 669.236 2.75334 -8.47391 0
M  V30 3742 O 669.456 3.84128 -9.44797 0
M  V30 3743 O 670.026 1.51947 -8.68712 0
M  V30 3744 O 669.486 3.29363 -6.99321 0
M  V30 3745 C 668.546 4.24011 -6.4274 0
M  V30 3746 C 669.276 5.20775 -5.52155 0
M  V30 3747 O 669.486 4.56534 -4.22446 0
M  V30 3748 C 670.676 5.62629 -5.96531 0
M  V30 3749 O 671.066 6.87667 -5.41053 0
M  V30 3750 C 671.556 4.52537 -5.39283 0
M  V30 3751 C 670.846 4.20027 -4.08623 0
M  V30 3752 N 670.896 2.76189 -3.71603 0
M  V30 3753 H 668.057 4.797 -7.24003 0
M  V30 3754 H 667.787 3.69856 -5.84513 0
M  V30 3755 H 668.654 6.10356 -5.41441 0
M  V30 3756 P 672.616 7.20834 -5.23717 0
M  V30 3757 O 672.836 8.66104 -5.38572 0
M  V30 3758 O 673.406 6.33544 -6.1349 0
M  V30 3759 O 672.866 6.7751 -3.72168 0
M  V30 3760 C 671.926 7.20825 -2.7076 0
M  V30 3761 C 672.656 7.45864 -1.40599 0
M  V30 3762 O 672.866 6.17651 -0.734225 0
M  V30 3763 C 674.056 8.05808 -1.51899 0
M  V30 3764 O 674.446 8.74358 -0.335205 0
M  V30 3765 C 674.936 6.83093 -1.70294 0
M  V30 3766 C 674.226 5.79992 -0.836974 0
M  V30 3767 N 674.276 4.41864 -1.38293 0
M  V30 3768 H 671.437 8.13644 -3.0377 0
M  V30 3769 H 671.167 6.42788 -2.55485 0
M  V30 3770 H 672.034 8.12039 -0.792769 0
M  V30 3771 P 675.996 8.91 4.64125e-12 0
M  V30 3772 O 676.216 10.1746 0.733838 0
M  V30 3773 O 676.786 8.73346 -1.23964 0
M  V30 3774 O 676.246 7.66872 0.971405 0
M  V30 3775 C 675.306 7.42405 2.04668 0
M  V30 3776 C 676.036 6.86059 3.24661 0
M  V30 3777 O 676.246 5.42934 3.03695 0
M  V30 3778 C 677.436 7.41287 3.50796 0
M  V30 3779 O 677.826 7.27073 4.86816 0
M  V30 3780 C 678.316 6.5273 2.63741 0
M  V30 3781 C 677.606 5.1842 2.73198 0
M  V30 3782 N 677.656 4.38762 1.4784 0
M  V30 3783 C 677.576 4.83651 0.183876 0
M  V30 3784 N 677.646 3.88759 -0.699393 0
M  V30 3785 C 677.796 2.7404 0.0575568 0
M  V30 3786 C 677.926 1.37902 -0.293928 0
M  V30 3787 N 677.936 0.938021 -1.54797 0
M  V30 3788 N 678.046 0.491817 0.70549 0
M  V30 3789 C 678.036 0.931735 1.95979 0
M  V30 3790 N 677.916 2.16017 2.41481 0
M  V30 3791 C 677.796 3.02547 1.39121 0
M  V30 3792 H 674.818 8.36899 2.3252 0
M  V30 3793 H 674.546 6.70391 1.71179 0
M  V30 3794 H 675.414 7.03638 4.13219 0
M  V30 3795 H 678.069 4.59931 3.54016 0
M  V30 3796 H 678.349 6.88995 1.59871 0
M  V30 3797 H 679.34 6.4684 3.0373 0
M  V30 3798 H 677.506 8.47002 3.20749 0
M  V30 3799 H 677.465 5.8885 -0.0765548 0
M  V30 3800 H 677.846 1.60276 -2.32875 0
M  V30 3801 H 678.035 -0.0699355 -1.73859 0
M  V30 3802 H 678.143 0.165507 2.71897 0
M  V30 3803 P 679.376 7.20834 5.23717 0
M  V30 3804 O 679.596 7.80006 6.57415 0
M  V30 3805 O 680.166 7.79416 4.13051 0
M  V30 3806 O 679.626 5.63315 5.29344 0
M  V30 3807 C 678.686 4.80318 6.01954 0
M  V30 3808 C 679.416 3.64202 6.65911 0
M  V30 3809 O 679.626 2.60736 5.64823 0
M  V30 3810 C 680.816 3.93521 7.19518 0
M  V30 3811 O 681.206 3.02071 8.21205 0
M  V30 3812 C 681.696 3.73047 5.97036 0
M  V30 3813 C 680.986 2.58828 5.25741 0
M  V30 3814 N 681.036 2.68068 3.77503 0
M  V30 3815 C 680.956 3.80474 2.99159 0
M  V30 3816 N 681.026 3.55622 1.71925 0
M  V30 3817 C 681.176 2.1832 1.65733 0
M  V30 3818 C 681.306 1.28842 0.572777 0
M  V30 3819 N 681.316 1.66875 -0.70098 0
M  V30 3820 N 681.426 -0.016788 0.859836 0
M  V30 3821 C 681.416 -0.398145 2.13316 0
M  V30 3822 N 681.296 0.328224 3.22333 0
M  V30 3823 C 681.176 1.62992 2.90383 0
M  V30 3824 H 678.198 5.40394 6.8003 0
M  V30 3825 H 677.926 4.41741 5.32532 0
M  V30 3826 H 678.794 3.26371 7.47889 0
M  V30 3827 H 681.449 1.64007 5.56746 0
M  V30 3828 H 681.729 4.63439 5.3432 0
M  V30 3829 H 682.72 3.44776 6.25925 0
M  V30 3830 H 680.886 4.96707 7.57347 0
M  V30 3831 H 680.845 4.8089 3.39924 0
M  V30 3832 H 681.226 2.66547 -0.941919 0
M  V30 3833 H 681.415 0.965341 -1.44766 0
M  V30 3834 H 681.523 -1.46427 2.29697 0
M  V30 3835 P 682.756 2.75334 8.47391 0
M  V30 3836 O 682.976 2.44571 9.90142 0
M  V30 3837 O 683.546 3.87688 7.92115 0
M  V30 3838 O 683.006 1.4459 7.59357 0
M  V30 3839 C 682.066 0.347608 7.69215 0
M  V30 3840 C 682.796 -0.96767 7.52806 0
M  V30 3841 O 683.006 -1.21036 6.1011 0
M  V30 3842 C 684.196 -1.04544 8.13308 0
M  V30 3843 O 684.586 -2.38311 8.41922 0
M  V30 3844 C 685.076 -0.491279 7.02284 0
M  V30 3845 C 684.366 -0.996264 5.77469 0
M  V30 3846 N 684.416 -0.0501916 4.62973 0
M  V30 3847 H 681.577 0.374722 8.67691 0
M  V30 3848 H 681.307 0.443485 6.90277 0
M  V30 3849 H 682.174 -1.75537 7.96793 0
M  V30 3850 P 686.136 -2.75334 8.47391 0
M  V30 3851 O 686.356 -3.84128 9.44797 0
M  V30 3852 O 686.926 -1.51947 8.68712 0
M  V30 3853 O 686.386 -3.29363 6.99321 0
M  V30 3854 C 685.446 -4.24011 6.4274 0
M  V30 3855 C 686.176 -5.20775 5.52155 0
M  V30 3856 O 686.386 -4.56534 4.22446 0
M  V30 3857 C 687.576 -5.62629 5.96531 0
M  V30 3858 O 687.966 -6.87667 5.41053 0
M  V30 3859 C 688.456 -4.52537 5.39283 0
M  V30 3860 C 687.746 -4.20027 4.08623 0
M  V30 3861 N 687.796 -2.76189 3.71603 0
M  V30 3862 H 684.957 -4.797 7.24003 0
M  V30 3863 H 684.687 -3.69856 5.84513 0
M  V30 3864 H 685.554 -6.10356 5.41441 0
M  V30 3865 P 689.516 -7.20834 5.23717 0
M  V30 3866 O 689.736 -8.66104 5.38572 0
M  V30 3867 O 690.306 -6.33544 6.1349 0
M  V30 3868 O 689.766 -6.7751 3.72168 0
M  V30 3869 C 688.826 -7.20825 2.7076 0
M  V30 3870 C 689.556 -7.45864 1.40599 0
M  V30 3871 O 689.766 -6.17651 0.734225 0
M  V30 3872 C 690.956 -8.05808 1.51899 0
M  V30 3873 O 691.346 -8.74358 0.335205 0
M  V30 3874 C 691.836 -6.83093 1.70294 0
M  V30 3875 C 691.126 -5.79992 0.836974 0
M  V30 3876 N 691.176 -4.41864 1.38293 0
M  V30 3877 C 691.096 -3.99538 2.69438 0
M  V30 3878 N 691.176 -2.69909 2.84277 0
M  V30 3879 C 691.316 -2.21719 1.5408 0
M  V30 3880 C 691.446 -0.891712 1.06628 0
M  V30 3881 N 691.566 -0.856846 -0.334985 0
M  V30 3882 C 691.566 -1.9641 -1.15789 0
M  V30 3883 N 691.696 -1.72708 -2.46522 0
M  V30 3884 N 691.436 -3.21165 -0.713741 0
M  V30 3885 C 691.316 -3.26797 0.639748 0
M  V30 3886 H 688.337 -8.13644 3.0377 0
M  V30 3887 H 688.067 -6.42788 2.55485 0
M  V30 3888 H 688.934 -8.12039 0.792769 0
M  V30 3889 P 692.896 -8.91 -4.67181e-12 0
M  V30 3890 O 693.116 -10.1726 -0.733694 0
M  V30 3891 O 693.686 -8.73148 1.23936 0
M  V30 3892 O 693.146 -7.66872 -0.971405 0
M  V30 3893 C 692.206 -7.42309 -2.04641 0
M  V30 3894 C 692.936 -6.86059 -3.24661 0
M  V30 3895 O 693.146 -5.42847 -3.03646 0
M  V30 3896 C 694.336 -7.41196 -3.50753 0
M  V30 3897 O 694.726 -7.27073 -4.86816 0
M  V30 3898 C 695.216 -6.5273 -2.63741 0
M  V30 3899 C 694.506 -5.1842 -2.73198 0
M  V30 3900 N 694.556 -4.38762 -1.4784 0
M  V30 3901 H 691.717 -8.36803 -2.32493 0
M  V30 3902 H 691.447 -6.70197 -1.71129 0
M  V30 3903 H 692.314 -7.03551 -4.13168 0
M  V30 3904 P 696.276 -7.20834 -5.23717 0
M  V30 3905 O 696.496 -7.79853 -6.57286 0
M  V30 3906 O 697.066 -7.79239 -4.12957 0
M  V30 3907 O 696.526 -5.63315 -5.29344 0
M  V30 3908 C 695.586 -4.80255 -6.01876 0
M  V30 3909 C 696.316 -3.64202 -6.65911 0
M  V30 3910 O 696.526 -2.60694 -5.64732 0
M  V30 3911 C 697.716 -3.93473 -7.1943 0
M  V30 3912 O 698.106 -3.02071 -8.21205 0
M  V30 3913 C 698.596 -3.73047 -5.97036 0
M  V30 3914 C 697.886 -2.58828 -5.25741 0
M  V30 3915 N 697.936 -2.68068 -3.77503 0
M  V30 3916 H 695.097 -5.40332 -6.79951 0
M  V30 3917 H 694.827 -4.41613 -5.32378 0
M  V30 3918 H 695.694 -3.26331 -7.47797 0
M  V30 3919 P 699.656 -2.75334 -8.47391 0
M  V30 3920 O 699.876 -2.44571 -9.90142 0
M  V30 3921 O 700.446 -3.87688 -7.92115 0
M  V30 3922 O 699.906 -1.4459 -7.59357 0
M  V30 3923 C 698.966 -0.347608 -7.69215 0
M  V30 3924 C 699.696 0.96767 -7.52806 0
M  V30 3925 O 699.906 1.21036 -6.1011 0
M  V30 3926 C 701.096 1.04544 -8.13308 0
M  V30 3927 O 701.486 2.38311 -8.41922 0
M  V30 3928 C 701.976 0.491279 -7.02284 0
M  V30 3929 C 701.266 0.996264 -5.77469 0
M  V30 3930 N 701.316 0.0501916 -4.62973 0
M  V30 3931 H 698.477 -0.374722 -8.67691 0
M  V30 3932 H 698.207 -0.443485 -6.90277 0
M  V30 3933 H 699.074 1.75537 -7.96793 0
M  V30 3934 P 703.036 2.75334 -8.47391 0
M  V30 3935 O 703.256 3.84128 -9.44797 0
M  V30 3936 O 703.826 1.51947 -8.68712 0
M  V30 3937 O 703.286 3.29363 -6.99321 0
M  V30 3938 C 702.346 4.24011 -6.4274 0
M  V30 3939 C 703.076 5.20775 -5.52155 0
M  V30 3940 O 703.286 4.56534 -4.22446 0
M  V30 3941 C 704.476 5.62629 -5.96531 0
M  V30 3942 O 704.866 6.87667 -5.41053 0
M  V30 3943 C 705.356 4.52537 -5.39283 0
M  V30 3944 C 704.646 4.20027 -4.08623 0
M  V30 3945 N 704.696 2.76189 -3.71603 0
M  V30 3946 H 701.857 4.797 -7.24003 0
M  V30 3947 H 701.587 3.69856 -5.84513 0
M  V30 3948 H 702.454 6.10356 -5.41441 0
M  V30 3949 P 706.416 7.20834 -5.23717 0
M  V30 3950 O 706.636 8.66104 -5.38572 0
M  V30 3951 O 707.206 6.33544 -6.1349 0
M  V30 3952 O 706.666 6.7751 -3.72168 0
M  V30 3953 C 705.726 7.20825 -2.7076 0
M  V30 3954 C 706.456 7.45864 -1.40599 0
M  V30 3955 O 706.666 6.17651 -0.734225 0
M  V30 3956 C 707.856 8.05808 -1.51899 0
M  V30 3957 O 708.246 8.74358 -0.335205 0
M  V30 3958 C 708.736 6.83093 -1.70294 0
M  V30 3959 C 708.026 5.79992 -0.836974 0
M  V30 3960 N 708.076 4.41864 -1.38293 0
M  V30 3961 H 705.237 8.13644 -3.0377 0
M  V30 3962 H 704.967 6.42788 -2.55485 0
M  V30 3963 H 705.834 8.12039 -0.792769 0
M  V30 3964 P 709.796 8.91 4.82899e-12 0
M  V30 3965 O 710.016 10.1726 0.733694 0
M  V30 3966 O 710.586 8.73148 -1.23936 0
M  V30 3967 O 710.046 7.66872 0.971405 0
M  V30 3968 C 709.106 7.42309 2.04641 0
M  V30 3969 C 709.836 6.86059 3.24661 0
M  V30 3970 O 710.046 5.42847 3.03646 0
M  V30 3971 C 711.236 7.41196 3.50753 0
M  V30 3972 O 711.626 7.27073 4.86816 0
M  V30 3973 C 712.116 6.5273 2.63741 0
M  V30 3974 C 711.406 5.1842 2.73198 0
M  V30 3975 N 711.456 4.38762 1.4784 0
M  V30 3976 H 708.617 8.36803 2.32493 0
M  V30 3977 H 708.347 6.70197 1.71129 0
M  V30 3978 H 709.214 7.03551 4.13168 0
M  V30 3979 P 713.176 7.20834 5.23717 0
M  V30 3980 O 713.396 7.79853 6.57286 0
M  V30 3981 O 713.966 7.79239 4.12957 0
M  V30 3982 O 713.426 5.63315 5.29344 0
M  V30 3983 C 712.486 4.80255 6.01876 0
M  V30 3984 C 713.216 3.64202 6.65911 0
M  V30 3985 O 713.426 2.60694 5.64732 0
M  V30 3986 C 714.616 3.93473 7.1943 0
M  V30 3987 O 715.006 3.02071 8.21205 0
M  V30 3988 C 715.496 3.73047 5.97036 0
M  V30 3989 C 714.786 2.58828 5.25741 0
M  V30 3990 N 714.836 2.68068 3.77503 0
M  V30 3991 H 711.997 5.40332 6.79951 0
M  V30 3992 H 711.727 4.41613 5.32378 0
M  V30 3993 H 712.594 3.26331 7.47797 0
M  V30 3994 P 716.556 2.75334 8.47391 0
M  V30 3995 O 716.776 2.44571 9.90142 0
M  V30 3996 O 717.346 3.87688 7.92115 0
M  V30 3997 O 716.806 1.4459 7.59357 0
M  V30 3998 C 715.866 0.347608 7.69215 0
M  V30 3999 C 716.596 -0.96767 7.52806 0
M  V30 4000 O 716.806 -1.21036 6.1011 0
M  V30 4001 C 717.996 -1.04544 8.13308 0
M  V30 4002 O 718.386 -2.38311 8.41922 0
M  V30 4003 C 718.876 -0.491279 7.02284 0
M  V30 4004 C 718.166 -0.996264 5.77469 0
M  V30 4005 N 718.216 -0.0501916 4.62973 0
M  V30 4006 C 718.136 1.32786 4.63244 0
M  V30 4007 N 718.216 1.86957 3.44545 0
M  V30 4008 C 718.356 0.780241 2.58481 0
M  V30 4009 C 718.486 0.738536 1.17757 0
M  V30 4010 O 718.506 1.66794 0.372349 0
M  V30 4011 N 718.606 -0.58337 0.711393 0
M  V30 4012 C 718.606 -1.70816 1.51017 0
M  V30 4013 N 718.736 -2.87826 0.880757 0
M  V30 4014 N 718.476 -1.67126 2.8339 0
M  V30 4015 C 718.356 -0.401421 3.30572 0
M  V30 4016 H 715.377 0.374722 8.67691 0
M  V30 4017 H 715.107 0.443485 6.90277 0
M  V30 4018 H 715.974 -1.75537 7.96793 0
M  V30 4019 H 718.629 -1.95076 5.46529 0
M  V30 4020 H 718.908 0.608565 7.04577 0
M  V30 4021 H 719.9 -0.889672 7.08939 0
M  V30 4022 H 718.066 -0.43308 9.04564 0
M  V30 4023 H 718.017 1.91249 5.54442 0
M  V30 4024 H 718.699 -0.718054 -0.275244 0
M  V30 4025 H 718.736 -3.75721 1.41832 0
M  V30 4026 H 718.837 -2.90436 -0.145468 0
M  V30 4027 P 719.936 -2.75334 8.47391 0
M  V30 4028 O 720.156 -3.84128 9.44797 0
M  V30 4029 O 720.726 -1.51947 8.68712 0
M  V30 4030 O 720.186 -3.29363 6.99321 0
M  V30 4031 C 719.246 -4.24011 6.4274 0
M  V30 4032 C 719.976 -5.20775 5.52155 0
M  V30 4033 O 720.186 -4.56534 4.22446 0
M  V30 4034 C 721.376 -5.62629 5.96531 0
M  V30 4035 O 721.766 -6.87667 5.41053 0
M  V30 4036 C 722.256 -4.52537 5.39283 0
M  V30 4037 C 721.546 -4.20027 4.08623 0
M  V30 4038 N 721.596 -2.76189 3.71603 0
M  V30 4039 H 718.757 -4.797 7.24003 0
M  V30 4040 H 718.487 -3.69856 5.84513 0
M  V30 4041 H 719.354 -6.10356 5.41441 0
M  V30 4042 P 723.316 -7.20834 5.23717 0
M  V30 4043 O 723.536 -8.66189 5.38625 0
M  V30 4044 O 724.106 -6.33615 6.1356 0
M  V30 4045 O 723.566 -6.7751 3.72168 0
M  V30 4046 C 722.626 -7.20732 2.70725 0
M  V30 4047 C 723.356 -7.45864 1.40599 0
M  V30 4048 O 723.566 -6.17651 0.734225 0
M  V30 4049 C 724.756 -8.05808 1.51899 0
M  V30 4050 O 725.146 -8.74358 0.335205 0
M  V30 4051 C 725.636 -6.83093 1.70294 0
M  V30 4052 C 724.926 -5.79992 0.836974 0
M  V30 4053 N 724.976 -4.41769 1.38263 0
M  V30 4054 C 725.126 -3.38591 0.481702 0
M  V30 4055 O 725.216 -3.56839 -0.718452 0
M  V30 4056 N 725.166 -2.1206 1.03569 0
M  V30 4057 C 725.076 -1.80696 2.36966 0
M  V30 4058 O 725.126 -0.630473 2.74862 0
M  V30 4059 C 724.926 -2.94845 3.23898 0
M  V30 4060 C 724.816 -2.65253 4.70362 0
M  V30 4061 C 724.876 -4.19803 2.73435 0
M  V30 4062 H 722.136 -8.13644 3.0377 0
M  V30 4063 H 721.867 -6.42695 2.55448 0
M  V30 4064 H 722.734 -8.12039 0.792769 0
M  V30 4065 H 725.389 -5.79978 -0.160587 0
M  V30 4066 H 725.668 -6.51379 2.75643 0
M  V30 4067 H 726.66 -7.01734 1.34462 0
M  V30 4068 H 724.826 -8.73674 2.38337 0
M  V30 4069 H 724.755 -5.04492 3.4095 0
M  V30 4070 H 725.785 -2.83924 5.1913 0
M  V30 4071 H 724.048 -3.29824 5.15163 0
M  V30 4072 H 724.536 -1.59723 4.84449 0
M  V30 4073 H 725.272 -1.35644 0.399345 0
M  V30 4074 P 726.696 -8.91 -4.98617e-12 0
M  V30 4075 O 726.916 -10.1746 -0.733838 0
M  V30 4076 O 727.486 -8.73346 1.23964 0
M  V30 4077 O 726.946 -7.66872 -0.971405 0
M  V30 4078 C 726.006 -7.42405 -2.04668 0
M  V30 4079 C 726.736 -6.86059 -3.24661 0
M  V30 4080 O 726.946 -5.42934 -3.03695 0
M  V30 4081 C 728.136 -7.41287 -3.50796 0
M  V30 4082 O 728.526 -7.27073 -4.86816 0
M  V30 4083 C 729.016 -6.5273 -2.63741 0
M  V30 4084 C 728.306 -5.1842 -2.73198 0
M  V30 4085 N 728.356 -4.38762 -1.4784 0
M  V30 4086 C 728.276 -4.83651 -0.183876 0
M  V30 4087 N 728.346 -3.88759 0.699393 0
M  V30 4088 C 728.496 -2.7404 -0.0575568 0
M  V30 4089 C 728.626 -1.37902 0.293928 0
M  V30 4090 N 728.636 -0.938021 1.54797 0
M  V30 4091 N 728.746 -0.491817 -0.70549 0
M  V30 4092 C 728.736 -0.931735 -1.95979 0
M  V30 4093 N 728.616 -2.16017 -2.41481 0
M  V30 4094 C 728.496 -3.02547 -1.39121 0
M  V30 4095 H 725.518 -8.36899 -2.3252 0
M  V30 4096 H 725.246 -6.70391 -1.71179 0
M  V30 4097 H 726.114 -7.03638 -4.13219 0
M  V30 4098 H 728.769 -4.59931 -3.54016 0
M  V30 4099 H 729.049 -6.88995 -1.59871 0
M  V30 4100 H 730.04 -6.4684 -3.0373 0
M  V30 4101 H 728.206 -8.47002 -3.20749 0
M  V30 4102 H 728.165 -5.8885 0.0765548 0
M  V30 4103 H 728.546 -1.60276 2.32875 0
M  V30 4104 H 728.735 0.0699355 1.73859 0
M  V30 4105 H 728.843 -0.165507 -2.71897 0
M  V30 4106 P 730.076 -7.20834 -5.23717 0
M  V30 4107 O 730.296 -7.79853 -6.57286 0
M  V30 4108 O 730.866 -7.79239 -4.12957 0
M  V30 4109 O 730.326 -5.63315 -5.29344 0
M  V30 4110 C 729.386 -4.80255 -6.01876 0
M  V30 4111 C 730.116 -3.64202 -6.65911 0
M  V30 4112 O 730.326 -2.60694 -5.64732 0
M  V30 4113 C 731.516 -3.93473 -7.1943 0
M  V30 4114 O 731.906 -3.02071 -8.21205 0
M  V30 4115 C 732.396 -3.73047 -5.97036 0
M  V30 4116 C 731.686 -2.58828 -5.25741 0
M  V30 4117 N 731.736 -2.68068 -3.77503 0
M  V30 4118 H 728.897 -5.40332 -6.79951 0
M  V30 4119 H 728.627 -4.41613 -5.32378 0
M  V30 4120 H 729.494 -3.26331 -7.47797 0
M  V30 4121 P 733.456 -2.75334 -8.47391 0
M  V30 4122 O 733.676 -2.44595 -9.90239 0
M  V30 4123 O 734.246 -3.87732 -7.92204 0
M  V30 4124 O 733.706 -1.4459 -7.59357 0
M  V30 4125 C 732.766 -0.347608 -7.69215 0
M  V30 4126 C 733.496 0.96767 -7.52806 0
M  V30 4127 O 733.706 1.21036 -6.1011 0
M  V30 4128 C 734.896 1.04544 -8.13308 0
M  V30 4129 O 735.286 2.38311 -8.41922 0
M  V30 4130 C 735.776 0.491279 -7.02284 0
M  V30 4131 C 735.066 0.996264 -5.77469 0
M  V30 4132 N 735.116 0.0501808 -4.62873 0
M  V30 4133 C 735.266 0.578037 -3.3505 0
M  V30 4134 O 735.356 1.8073 -3.21711 0
M  V30 4135 N 735.316 -0.468541 -2.263 0
M  V30 4136 C 735.216 -1.59186 -2.47176 0
M  V30 4137 N 735.266 -2.37626 -1.40392 0
M  V30 4138 C 735.066 -2.16203 -3.77467 0
M  V30 4139 C 735.016 -1.29324 -4.8195 0
M  V30 4140 H 732.276 -0.374679 -8.67591 0
M  V30 4141 H 732.007 -0.443421 -6.90177 0
M  V30 4142 H 732.874 1.75559 -7.96891 0
M  V30 4143 H 735.529 1.94529 -5.46723 0
M  V30 4144 H 735.808 -0.608651 -7.04676 0
M  V30 4145 H 736.8 0.889672 -7.08939 0
M  V30 4146 H 734.966 0.43308 -9.04564 0
M  V30 4147 H 734.894 -1.67758 -5.83046 0
M  V30 4148 H 734.996 -3.23869 -3.92281 0
M  V30 4149 H 735.384 -1.96317 -0.467202 0
M  V30 4150 H 735.187 -3.39693 -1.51142 0
M  V30 4151 P 736.836 2.75334 -8.47391 0
M  V30 4152 O 737.056 3.84128 -9.44797 0
M  V30 4153 O 737.626 1.51947 -8.68712 0
M  V30 4154 O 737.086 3.29363 -6.99321 0
M  V30 4155 C 736.146 4.24011 -6.4274 0
M  V30 4156 C 736.876 5.20775 -5.52155 0
M  V30 4157 O 737.086 4.56534 -4.22446 0
M  V30 4158 C 738.276 5.62629 -5.96531 0
M  V30 4159 O 738.666 6.87667 -5.41053 0
M  V30 4160 C 739.156 4.52537 -5.39283 0
M  V30 4161 C 738.446 4.20027 -4.08623 0
M  V30 4162 N 738.496 2.76189 -3.71603 0
M  V30 4163 H 735.657 4.797 -7.24003 0
M  V30 4164 H 735.387 3.69856 -5.84513 0
M  V30 4165 H 736.254 6.10356 -5.41441 0
M  V30 4166 P 740.216 7.20834 -5.23717 0
M  V30 4167 O 740.436 8.66104 -5.38572 0
M  V30 4168 O 741.006 6.33544 -6.1349 0
M  V30 4169 O 740.466 6.7751 -3.72168 0
M  V30 4170 C 739.526 7.20825 -2.7076 0
M  V30 4171 C 740.256 7.45864 -1.40599 0
M  V30 4172 O 740.466 6.17651 -0.734225 0
M  V30 4173 C 741.656 8.05808 -1.51899 0
M  V30 4174 O 742.046 8.74358 -0.335205 0
M  V30 4175 C 742.536 6.83093 -1.70294 0
M  V30 4176 C 741.826 5.79992 -0.836974 0
M  V30 4177 N 741.876 4.41864 -1.38293 0
M  V30 4178 H 739.037 8.13644 -3.0377 0
M  V30 4179 H 738.767 6.42788 -2.55485 0
M  V30 4180 H 739.634 8.12039 -0.792769 0
M  V30 4181 P 743.596 8.91 5.14336e-12 0
M  V30 4182 O 743.816 10.1746 0.733838 0
M  V30 4183 O 744.386 8.73346 -1.23964 0
M  V30 4184 O 743.846 7.66872 0.971405 0
M  V30 4185 C 742.906 7.42405 2.04668 0
M  V30 4186 C 743.636 6.86059 3.24661 0
M  V30 4187 O 743.846 5.42934 3.03695 0
M  V30 4188 C 745.036 7.41287 3.50796 0
M  V30 4189 O 745.426 7.27073 4.86816 0
M  V30 4190 C 745.916 6.5273 2.63741 0
M  V30 4191 C 745.206 5.1842 2.73198 0
M  V30 4192 N 745.256 4.38762 1.4784 0
M  V30 4193 H 742.418 8.36899 2.3252 0
M  V30 4194 H 742.146 6.70391 1.71179 0
M  V30 4195 H 743.014 7.03638 4.13219 0
M  V30 4196 H 745.669 4.59931 3.54016 0
M  V30 4197 H 745.949 6.88995 1.59871 0
M  V30 4198 H 746.94 6.4684 3.0373 0
M  V30 4199 H 745.106 8.47002 3.20749 0
M  V30 4200 P 746.976 7.20834 5.23717 0
M  V30 4201 O 747.196 7.7993 6.57351 0
M  V30 4202 O 747.766 7.79328 4.13004 0
M  V30 4203 O 747.226 5.63315 5.29344 0
M  V30 4204 C 746.286 4.80193 6.01798 0
M  V30 4205 C 747.016 3.64202 6.65911 0
M  V30 4206 O 747.226 2.60694 5.64732 0
M  V30 4207 C 748.416 3.93473 7.1943 0
M  V30 4208 O 748.806 3.02071 8.21205 0
M  V30 4209 C 749.296 3.73047 5.97036 0
M  V30 4210 C 748.586 2.58828 5.25741 0
M  V30 4211 N 748.636 2.6801 3.77422 0
M  V30 4212 C 748.786 1.50443 3.07133 0
M  V30 4213 O 748.876 0.419406 3.61576 0
M  V30 4214 N 748.826 1.6403 1.69677 0
M  V30 4215 C 748.736 2.81206 0.986255 0
M  V30 4216 O 748.786 2.80892 -0.249754 0
M  V30 4217 C 748.586 3.99158 1.80325 0
M  V30 4218 C 748.476 5.29309 1.06921 0
M  V30 4219 C 748.536 3.89779 3.1476 0
M  V30 4220 H 745.796 5.40332 6.79951 0
M  V30 4221 H 745.527 4.41549 5.32301 0
M  V30 4222 H 746.394 3.26331 7.47797 0
M  V30 4223 H 749.049 1.6395 5.56554 0
M  V30 4224 H 749.328 4.63439 5.3432 0
M  V30 4225 H 750.32 3.44728 6.25838 0
M  V30 4226 H 748.486 4.96652 7.57263 0
M  V30 4227 H 748.415 4.80159 3.74441 0
M  V30 4228 H 749.445 5.81459 1.09608 0
M  V30 4229 H 747.708 5.9187 1.54487 0
M  V30 4230 H 748.196 5.10095 0.0220288 0
M  V30 4231 H 748.932 0.798962 1.16664 0
M  V30 4232 P 750.356 2.75334 8.47391 0
M  V30 4233 O 750.576 2.44619 9.90336 0
M  V30 4234 O 751.146 3.87776 7.92294 0
M  V30 4235 O 750.606 1.4459 7.59357 0
M  V30 4236 C 749.666 0.347653 7.69315 0
M  V30 4237 C 750.396 -0.96767 7.52806 0
M  V30 4238 O 750.606 -1.21055 6.10208 0
M  V30 4239 C 751.796 -1.04557 8.13408 0
M  V30 4240 O 752.186 -2.38311 8.41922 0
M  V30 4241 C 752.676 -0.491279 7.02284 0
M  V30 4242 C 751.966 -0.996264 5.77469 0
M  V30 4243 N 752.016 -0.0501916 4.62973 0
M  V30 4244 C 751.936 1.31969 4.65661 0
M  V30 4245 N 752.006 1.86649 3.48119 0
M  V30 4246 C 752.156 0.792089 2.62406 0
M  V30 4247 C 752.286 0.705684 1.2207 0
M  V30 4248 N 752.296 1.76207 0.413762 0
M  V30 4249 N 752.406 -0.518981 0.685754 0
M  V30 4250 C 752.396 -1.57595 1.49174 0
M  V30 4251 N 752.276 -1.62909 2.80066 0
M  V30 4252 C 752.156 -0.388195 3.3073 0
M  V30 4253 H 749.178 0.374765 8.67791 0
M  V30 4254 H 748.906 0.443613 6.90476 0
M  V30 4255 H 749.774 -1.75559 7.96891 0
M  V30 4256 H 752.429 -1.94563 5.46818 0
M  V30 4257 H 752.709 0.608651 7.04676 0
M  V30 4258 H 753.7 -0.889796 7.09039 0
M  V30 4259 H 751.866 -0.433128 9.04664 0
M  V30 4260 H 751.825 1.89246 5.57664 0
M  V30 4261 H 752.206 2.71005 0.804694 0
M  V30 4262 H 752.395 1.63189 -0.603768 0
M  V30 4263 H 752.503 -2.53475 0.997614 0
M  V30 4264 P 753.736 -2.75334 8.47391 0
M  V30 4265 O 753.956 -3.84128 9.44797 0
M  V30 4266 O 754.526 -1.51947 8.68712 0
M  V30 4267 O 753.986 -3.29363 6.99321 0
M  V30 4268 C 753.046 -4.24011 6.4274 0
M  V30 4269 C 753.776 -5.20775 5.52155 0
M  V30 4270 O 753.986 -4.56534 4.22446 0
M  V30 4271 C 755.176 -5.62629 5.96531 0
M  V30 4272 O 755.566 -6.87667 5.41053 0
M  V30 4273 C 756.056 -4.52537 5.39283 0
M  V30 4274 C 755.346 -4.20027 4.08623 0
M  V30 4275 N 755.396 -2.76189 3.71603 0
M  V30 4276 H 752.557 -4.797 7.24003 0
M  V30 4277 H 752.287 -3.69856 5.84513 0
M  V30 4278 H 753.154 -6.10356 5.41441 0
M  V30 4279 P 757.116 -7.20834 5.23717 0
M  V30 4280 O 757.336 -8.66104 5.38572 0
M  V30 4281 O 757.906 -6.33544 6.1349 0
M  V30 4282 O 757.366 -6.7751 3.72168 0
M  V30 4283 C 756.426 -7.20825 2.7076 0
M  V30 4284 C 757.156 -7.45864 1.40599 0
M  V30 4285 O 757.366 -6.17651 0.734225 0
M  V30 4286 C 758.556 -8.05808 1.51899 0
M  V30 4287 O 758.946 -8.74358 0.335205 0
M  V30 4288 C 759.436 -6.83093 1.70294 0
M  V30 4289 C 758.726 -5.79992 0.836974 0
M  V30 4290 N 758.776 -4.41864 1.38293 0
M  V30 4291 C 758.696 -3.99538 2.69438 0
M  V30 4292 N 758.776 -2.69909 2.84277 0
M  V30 4293 C 758.916 -2.21719 1.5408 0
M  V30 4294 C 759.046 -0.891712 1.06628 0
M  V30 4295 N 759.166 -0.856846 -0.334985 0
M  V30 4296 C 759.166 -1.9641 -1.15789 0
M  V30 4297 N 759.296 -1.72708 -2.46522 0
M  V30 4298 N 759.036 -3.21165 -0.713741 0
M  V30 4299 C 758.916 -3.26797 0.639748 0
M  V30 4300 H 755.937 -8.13644 3.0377 0
M  V30 4301 H 755.667 -6.42788 2.55485 0
M  V30 4302 H 756.534 -8.12039 0.792769 0
M  V30 4303 P 760.496 -8.91 -5.30054e-12 0
M  V30 4304 O 760.716 -10.1726 -0.733694 0
M  V30 4305 O 761.286 -8.73148 1.23936 0
M  V30 4306 O 760.746 -7.66872 -0.971405 0
M  V30 4307 C 759.806 -7.42309 -2.04641 0
M  V30 4308 C 760.536 -6.86059 -3.24661 0
M  V30 4309 O 760.746 -5.42847 -3.03646 0
M  V30 4310 C 761.936 -7.41196 -3.50753 0
M  V30 4311 O 762.326 -7.27073 -4.86816 0
M  V30 4312 C 762.816 -6.5273 -2.63741 0
M  V30 4313 C 762.106 -5.1842 -2.73198 0
M  V30 4314 N 762.156 -4.38762 -1.4784 0
M  V30 4315 H 759.317 -8.36803 -2.32493 0
M  V30 4316 H 759.047 -6.70197 -1.71129 0
M  V30 4317 H 759.914 -7.03551 -4.13168 0
M  V30 4318 P 763.875 -7.20834 -5.23717 0
M  V30 4319 O 764.095 -7.79853 -6.57286 0
M  V30 4320 O 764.665 -7.79239 -4.12957 0
M  V30 4321 O 764.125 -5.63315 -5.29344 0
M  V30 4322 C 763.185 -4.80255 -6.01876 0
M  V30 4323 C 763.915 -3.64202 -6.65911 0
M  V30 4324 O 764.125 -2.60694 -5.64732 0
M  V30 4325 C 765.315 -3.93473 -7.1943 0
M  V30 4326 O 765.705 -3.02071 -8.21205 0
M  V30 4327 C 766.195 -3.73047 -5.97036 0
M  V30 4328 C 765.485 -2.58828 -5.25741 0
M  V30 4329 N 765.535 -2.68068 -3.77503 0
M  V30 4330 H 762.696 -5.40332 -6.79951 0
M  V30 4331 H 762.426 -4.41613 -5.32378 0
M  V30 4332 H 763.293 -3.26331 -7.47797 0
M  V30 4333 P 767.255 -2.75334 -8.47391 0
M  V30 4334 O 767.475 -2.44571 -9.90142 0
M  V30 4335 O 768.045 -3.87688 -7.92115 0
M  V30 4336 O 767.505 -1.4459 -7.59357 0
M  V30 4337 C 766.565 -0.347608 -7.69215 0
M  V30 4338 C 767.295 0.96767 -7.52806 0
M  V30 4339 O 767.505 1.21036 -6.1011 0
M  V30 4340 C 768.695 1.04544 -8.13308 0
M  V30 4341 O 769.085 2.38311 -8.41922 0
M  V30 4342 C 769.575 0.491279 -7.02284 0
M  V30 4343 C 768.865 0.996264 -5.77469 0
M  V30 4344 N 768.915 0.0501916 -4.62973 0
M  V30 4345 H 766.076 -0.374722 -8.67691 0
M  V30 4346 H 765.806 -0.443485 -6.90277 0
M  V30 4347 H 766.673 1.75537 -7.96793 0
M  V30 4348 P 770.635 2.75334 -8.47391 0
M  V30 4349 O 770.855 3.84166 -9.4489 0
M  V30 4350 O 771.425 1.51964 -8.6881 0
M  V30 4351 O 770.885 3.29363 -6.99321 0
M  V30 4352 C 769.945 4.23956 -6.42656 0
M  V30 4353 C 770.675 5.20775 -5.52155 0
M  V30 4354 O 770.885 4.56534 -4.22446 0
M  V30 4355 C 772.075 5.62629 -5.96531 0
M  V30 4356 O 772.465 6.87667 -5.41053 0
M  V30 4357 C 772.955 4.52537 -5.39283 0
M  V30 4358 C 772.245 4.20027 -4.08623 0
M  V30 4359 N 772.295 2.7613 -3.71522 0
M  V30 4360 C 772.445 2.45612 -2.37989 0
M  V30 4361 O 772.535 3.30919 -1.51621 0
M  V30 4362 N 772.485 1.10684 -2.08435 0
M  V30 4363 C 772.395 0.0690084 -2.9792 0
M  V30 4364 C 772.245 0.481522 -4.35345 0
M  V30 4365 C 772.195 1.78906 -4.67968 0
M  V30 4366 H 769.455 4.797 -7.24003 0
M  V30 4367 H 769.186 3.69802 -5.84429 0
M  V30 4368 H 770.053 6.10356 -5.41441 0
M  V30 4369 H 772.708 4.78651 -3.27911 0
M  V30 4370 H 772.987 3.64957 -6.05871 0
M  V30 4371 H 773.979 4.8868 -5.2125 0
M  V30 4372 H 772.145 5.66726 -7.06352 0
M  V30 4373 H 772.074 2.07737 -5.72367 0
M  V30 4374 P 774.015 7.20834 -5.23717 0
M  V30 4375 O 774.235 8.66104 -5.38572 0
M  V30 4376 O 774.805 6.33544 -6.1349 0
M  V30 4377 O 774.265 6.7751 -3.72168 0
M  V30 4378 C 773.325 7.20825 -2.7076 0
M  V30 4379 C 774.055 7.45864 -1.40599 0
M  V30 4380 O 774.265 6.17651 -0.734225 0
M  V30 4381 C 775.455 8.05808 -1.51899 0
M  V30 4382 O 775.845 8.74358 -0.335205 0
M  V30 4383 C 776.335 6.83093 -1.70294 0
M  V30 4384 C 775.625 5.79992 -0.836974 0
M  V30 4385 N 775.675 4.41864 -1.38293 0
M  V30 4386 H 772.836 8.13644 -3.0377 0
M  V30 4387 H 772.566 6.42788 -2.55485 0
M  V30 4388 H 773.433 8.12039 -0.792769 0
M  V30 4389 P 777.395 8.91 5.45772e-12 0
M  V30 4390 O 777.615 10.1726 0.733694 0
M  V30 4391 O 778.185 8.73148 -1.23936 0
M  V30 4392 O 777.645 7.66872 0.971405 0
M  V30 4393 C 776.705 7.42309 2.04641 0
M  V30 4394 C 777.435 6.86059 3.24661 0
M  V30 4395 O 777.645 5.42847 3.03646 0
M  V30 4396 C 778.835 7.41196 3.50753 0
M  V30 4397 O 779.225 7.27073 4.86816 0
M  V30 4398 C 779.715 6.5273 2.63741 0
M  V30 4399 C 779.005 5.1842 2.73198 0
M  V30 4400 N 779.055 4.38762 1.4784 0
M  V30 4401 H 776.216 8.36803 2.32493 0
M  V30 4402 H 775.946 6.70197 1.71129 0
M  V30 4403 H 776.813 7.03551 4.13168 0
M  V30 4404 P 780.775 7.20834 5.23717 0
M  V30 4405 O 780.995 7.79853 6.57286 0
M  V30 4406 O 781.565 7.79239 4.12957 0
M  V30 4407 O 781.025 5.63315 5.29344 0
M  V30 4408 C 780.085 4.80255 6.01876 0
M  V30 4409 C 780.815 3.64202 6.65911 0
M  V30 4410 O 781.025 2.60694 5.64732 0
M  V30 4411 C 782.215 3.93473 7.1943 0
M  V30 4412 O 782.605 3.02071 8.21205 0
M  V30 4413 C 783.095 3.73047 5.97036 0
M  V30 4414 C 782.385 2.58828 5.25741 0
M  V30 4415 N 782.435 2.68068 3.77503 0
M  V30 4416 H 779.596 5.40332 6.79951 0
M  V30 4417 H 779.326 4.41613 5.32378 0
M  V30 4418 H 780.193 3.26331 7.47797 0
M  V30 4419 P 784.155 2.75334 8.47391 0
M  V30 4420 O 784.375 2.44595 9.90239 0
M  V30 4421 O 784.945 3.87732 7.92204 0
M  V30 4422 O 784.405 1.4459 7.59357 0
M  V30 4423 C 783.465 0.347563 7.69115 0
M  V30 4424 C 784.195 -0.96767 7.52806 0
M  V30 4425 O 784.405 -1.21036 6.1011 0
M  V30 4426 C 785.595 -1.04544 8.13308 0
M  V30 4427 O 785.985 -2.38311 8.41922 0
M  V30 4428 C 786.475 -0.491279 7.02284 0
M  V30 4429 C 785.765 -0.996264 5.77469 0
M  V30 4430 N 785.815 -0.0501808 4.62873 0
M  V30 4431 C 785.965 -0.588177 3.36904 0
M  V30 4432 O 786.055 -1.78598 3.17173 0
M  V30 4433 N 786.005 0.329694 2.33686 0
M  V30 4434 C 785.915 1.6953 2.45079 0
M  V30 4435 O 785.965 2.41926 1.44899 0
M  V30 4436 C 785.765 2.16933 3.80505 0
M  V30 4437 C 785.655 3.65373 3.97621 0
M  V30 4438 C 785.715 1.30326 4.83752 0
M  V30 4439 H 782.975 0.374722 8.67691 0
M  V30 4440 H 782.706 0.443421 6.90177 0
M  V30 4441 H 783.573 -1.75537 7.96793 0
M  V30 4442 H 786.228 -1.94496 5.46629 0
M  V30 4443 H 786.507 0.608651 7.04676 0
M  V30 4444 H 787.499 -0.889672 7.08939 0
M  V30 4445 H 785.665 -0.43308 9.04564 0
M  V30 4446 H 785.594 1.68366 5.8516 0
M  V30 4447 H 786.624 4.05985 4.30448 0
M  V30 4448 H 784.887 3.88028 4.72875 0
M  V30 4449 H 785.375 4.11381 3.01609 0
M  V30 4450 H 786.111 -0.0393617 1.41345 0
M  V30 4451 P 787.535 -2.75334 8.47391 0
M  V30 4452 O 787.755 -3.84128 9.44797 0
M  V30 4453 O 788.325 -1.51947 8.68712 0
M  V30 4454 O 787.785 -3.29363 6.99321 0
M  V30 4455 C 786.845 -4.24011 6.4274 0
M  V30 4456 C 787.575 -5.20775 5.52155 0
M  V30 4457 O 787.785 -4.56534 4.22446 0
M  V30 4458 C 788.975 -5.62629 5.96531 0
M  V30 4459 O 789.365 -6.87667 5.41053 0
M  V30 4460 C 789.855 -4.52537 5.39283 0
M  V30 4461 C 789.145 -4.20027 4.08623 0
M  V30 4462 N 789.195 -2.76189 3.71603 0
M  V30 4463 H 786.356 -4.797 7.24003 0
M  V30 4464 H 786.086 -3.69856 5.84513 0
M  V30 4465 H 786.953 -6.10356 5.41441 0
M  V30 4466 P 790.915 -7.20834 5.23717 0
M  V30 4467 O 791.135 -8.66104 5.38572 0
M  V30 4468 O 791.705 -6.33544 6.1349 0
M  V30 4469 O 791.165 -6.7751 3.72168 0
M  V30 4470 C 790.225 -7.20825 2.7076 0
M  V30 4471 C 790.955 -7.45864 1.40599 0
M  V30 4472 O 791.165 -6.17651 0.734225 0
M  V30 4473 C 792.355 -8.05808 1.51899 0
M  V30 4474 O 792.745 -8.74358 0.335205 0
M  V30 4475 C 793.235 -6.83093 1.70294 0
M  V30 4476 C 792.525 -5.79992 0.836974 0
M  V30 4477 N 792.575 -4.41864 1.38293 0
M  V30 4478 H 789.736 -8.13644 3.0377 0
M  V30 4479 H 789.466 -6.42788 2.55485 0
M  V30 4480 H 790.333 -8.12039 0.792769 0
M  V30 4481 P 794.295 -8.91 -5.6149e-12 0
M  V30 4482 O 794.515 -10.1726 -0.733694 0
M  V30 4483 O 795.085 -8.73148 1.23936 0
M  V30 4484 O 794.545 -7.66872 -0.971405 0
M  V30 4485 C 793.605 -7.42309 -2.04641 0
M  V30 4486 C 794.335 -6.86059 -3.24661 0
M  V30 4487 O 794.545 -5.42847 -3.03646 0
M  V30 4488 C 795.735 -7.41196 -3.50753 0
M  V30 4489 O 796.125 -7.27073 -4.86816 0
M  V30 4490 C 796.615 -6.5273 -2.63741 0
M  V30 4491 C 795.905 -5.1842 -2.73198 0
M  V30 4492 N 795.955 -4.38762 -1.4784 0
M  V30 4493 H 793.116 -8.36803 -2.32493 0
M  V30 4494 H 792.846 -6.70197 -1.71129 0
M  V30 4495 H 793.713 -7.03551 -4.13168 0
M  V30 4496 P 797.675 -7.20834 -5.23717 0
M  V30 4497 O 797.895 -7.79853 -6.57286 0
M  V30 4498 O 798.465 -7.79239 -4.12957 0
M  V30 4499 O 797.925 -5.63315 -5.29344 0
M  V30 4500 C 796.985 -4.80255 -6.01876 0
M  V30 4501 C 797.715 -3.64202 -6.65911 0
M  V30 4502 O 797.925 -2.60694 -5.64732 0
M  V30 4503 C 799.115 -3.93473 -7.1943 0
M  V30 4504 O 799.505 -3.02071 -8.21205 0
M  V30 4505 C 799.995 -3.73047 -5.97036 0
M  V30 4506 C 799.285 -2.58828 -5.25741 0
M  V30 4507 N 799.335 -2.68068 -3.77503 0
M  V30 4508 H 796.496 -5.40332 -6.79951 0
M  V30 4509 H 796.226 -4.41613 -5.32378 0
M  V30 4510 H 797.093 -3.26331 -7.47797 0
M  V30 4511 P 801.055 -2.75334 -8.47391 0
M  V30 4512 O 801.275 -2.44571 -9.90142 0
M  V30 4513 O 801.845 -3.87688 -7.92115 0
M  V30 4514 O 801.305 -1.4459 -7.59357 0
M  V30 4515 C 800.365 -0.347608 -7.69215 0
M  V30 4516 C 801.095 0.96767 -7.52806 0
M  V30 4517 O 801.305 1.21036 -6.1011 0
M  V30 4518 C 802.495 1.04544 -8.13308 0
M  V30 4519 O 802.885 2.38311 -8.41922 0
M  V30 4520 C 803.375 0.491279 -7.02284 0
M  V30 4521 C 802.665 0.996264 -5.77469 0
M  V30 4522 N 802.715 0.0501916 -4.62973 0
M  V30 4523 H 799.876 -0.374722 -8.67691 0
M  V30 4524 H 799.606 -0.443485 -6.90277 0
M  V30 4525 H 800.473 1.75537 -7.96793 0
M  V30 4526 P 804.435 2.75334 -8.47391 0
M  V30 4527 O 804.655 3.84128 -9.44797 0
M  V30 4528 O 805.225 1.51947 -8.68712 0
M  V30 4529 O 804.685 3.29363 -6.99321 0
M  V30 4530 C 803.745 4.24011 -6.4274 0
M  V30 4531 C 804.475 5.20775 -5.52155 0
M  V30 4532 O 804.685 4.56534 -4.22446 0
M  V30 4533 C 805.875 5.62629 -5.96531 0
M  V30 4534 O 806.265 6.87667 -5.41053 0
M  V30 4535 C 806.755 4.52537 -5.39283 0
M  V30 4536 C 806.045 4.20027 -4.08623 0
M  V30 4537 N 806.095 2.76189 -3.71603 0
M  V30 4538 H 803.256 4.797 -7.24003 0
M  V30 4539 H 802.986 3.69856 -5.84513 0
M  V30 4540 H 803.853 6.10356 -5.41441 0
M  V30 4541 P 807.815 7.20834 -5.23717 0
M  V30 4542 O 808.035 8.66104 -5.38572 0
M  V30 4543 O 808.605 6.33544 -6.1349 0
M  V30 4544 O 808.065 6.7751 -3.72168 0
M  V30 4545 C 807.125 7.20825 -2.7076 0
M  V30 4546 C 807.855 7.45864 -1.40599 0
M  V30 4547 O 808.065 6.17651 -0.734225 0
M  V30 4548 C 809.255 8.05808 -1.51899 0
M  V30 4549 O 809.645 8.74358 -0.335205 0
M  V30 4550 C 810.135 6.83093 -1.70294 0
M  V30 4551 C 809.425 5.79992 -0.836974 0
M  V30 4552 N 809.475 4.41864 -1.38293 0
M  V30 4553 H 806.636 8.13644 -3.0377 0
M  V30 4554 H 806.366 6.42788 -2.55485 0
M  V30 4555 H 807.233 8.12039 -0.792769 0
M  V30 4556 P 811.195 8.91 5.77209e-12 0
M  V30 4557 O 811.415 10.1736 0.733766 0
M  V30 4558 O 811.985 8.73247 -1.2395 0
M  V30 4559 O 811.445 7.66872 0.971405 0
M  V30 4560 C 810.505 7.42212 2.04614 0
M  V30 4561 C 811.235 6.86059 3.24661 0
M  V30 4562 O 811.445 5.42847 3.03646 0
M  V30 4563 C 812.635 7.41196 3.50753 0
M  V30 4564 O 813.025 7.27073 4.86816 0
M  V30 4565 C 813.515 6.5273 2.63741 0
M  V30 4566 C 812.805 5.1842 2.73198 0
M  V30 4567 N 812.855 4.38668 1.47808 0
M  V30 4568 C 813.005 3.02239 1.60048 0
M  V30 4569 O 813.095 2.46459 2.67869 0
M  V30 4570 N 813.045 2.32436 0.408571 0
M  V30 4571 C 812.955 2.85471 -0.854993 0
M  V30 4572 O 813.005 2.12566 -1.8531 0
M  V30 4573 C 812.805 4.28918 -0.887335 0
M  V30 4574 C 812.695 4.91066 -2.24619 0
M  V30 4575 C 812.755 5.00349 0.255399 0
M  V30 4576 H 810.015 8.36803 2.32493 0
M  V30 4577 H 809.746 6.701 1.71105 0
M  V30 4578 H 810.613 7.03551 4.13168 0
M  V30 4579 H 813.268 4.59773 3.53894 0
M  V30 4580 H 813.547 6.88995 1.59871 0
M  V30 4581 H 814.539 6.46749 3.03687 0
M  V30 4582 H 812.705 8.46908 3.20714 0
M  V30 4583 H 812.634 6.08548 0.206986 0
M  V30 4584 H 813.664 5.34836 -2.53099 0
M  V30 4585 H 811.927 5.69638 -2.2291 0
M  V30 4586 H 812.415 4.13971 -2.98044 0
M  V30 4587 H 813.151 1.33211 0.474216 0
M  V30 4588 P 814.575 7.20834 5.23717 0
M  V30 4589 O 814.795 7.79853 6.57286 0
M  V30 4590 O 815.365 7.79239 4.12957 0
M  V30 4591 O 814.825 5.63315 5.29344 0
M  V30 4592 C 813.885 4.80255 6.01876 0
M  V30 4593 C 814.615 3.64202 6.65911 0
M  V30 4594 O 814.825 2.60694 5.64732 0
M  V30 4595 C 816.015 3.93473 7.1943 0
M  V30 4596 O 816.405 3.02071 8.21205 0
M  V30 4597 C 816.895 3.73047 5.97036 0
M  V30 4598 C 816.185 2.58828 5.25741 0
M  V30 4599 N 816.235 2.68068 3.77503 0
M  V30 4600 H 813.396 5.40332 6.79951 0
M  V30 4601 H 813.126 4.41613 5.32378 0
M  V30 4602 H 813.993 3.26331 7.47797 0
M  V30 4603 P 817.955 2.75334 8.47391 0
M  V30 4604 O 818.175 2.44571 9.90142 0
M  V30 4605 O 818.745 3.87688 7.92115 0
M  V30 4606 O 818.205 1.4459 7.59357 0
M  V30 4607 C 817.265 0.347608 7.69215 0
M  V30 4608 C 817.995 -0.96767 7.52806 0
M  V30 4609 O 818.205 -1.21036 6.1011 0
M  V30 4610 C 819.395 -1.04544 8.13308 0
M  V30 4611 O 819.785 -2.38311 8.41922 0
M  V30 4612 C 820.275 -0.491279 7.02284 0
M  V30 4613 C 819.565 -0.996264 5.77469 0
M  V30 4614 N 819.615 -0.0501916 4.62973 0
M  V30 4615 H 816.776 0.374722 8.67691 0
M  V30 4616 H 816.506 0.443485 6.90277 0
M  V30 4617 H 817.373 -1.75537 7.96793 0
M  V30 4618 P 821.335 -2.75334 8.47391 0
M  V30 4619 O 821.555 -3.84128 9.44797 0
M  V30 4620 O 822.125 -1.51947 8.68712 0
M  V30 4621 O 821.585 -3.29363 6.99321 0
M  V30 4622 C 820.645 -4.24011 6.4274 0
M  V30 4623 C 821.375 -5.20775 5.52155 0
M  V30 4624 O 821.585 -4.56534 4.22446 0
M  V30 4625 C 822.775 -5.62629 5.96531 0
M  V30 4626 O 823.165 -6.87667 5.41053 0
M  V30 4627 C 823.655 -4.52537 5.39283 0
M  V30 4628 C 822.945 -4.20027 4.08623 0
M  V30 4629 N 822.995 -2.76189 3.71603 0
M  V30 4630 H 820.156 -4.797 7.24003 0
M  V30 4631 H 819.886 -3.69856 5.84513 0
M  V30 4632 H 820.753 -6.10356 5.41441 0
M  V30 4633 P 824.715 -7.20834 5.23717 0
M  V30 4634 O 824.935 -8.66104 5.38572 0
M  V30 4635 O 825.505 -6.33544 6.1349 0
M  V30 4636 O 824.965 -6.7751 3.72168 0
M  V30 4637 C 824.025 -7.20825 2.7076 0
M  V30 4638 C 824.755 -7.45864 1.40599 0
M  V30 4639 O 824.965 -6.17651 0.734225 0
M  V30 4640 C 826.155 -8.05808 1.51899 0
M  V30 4641 O 826.545 -8.74358 0.335205 0
M  V30 4642 C 827.035 -6.83093 1.70294 0
M  V30 4643 C 826.325 -5.79992 0.836974 0
M  V30 4644 N 826.375 -4.41864 1.38293 0
M  V30 4645 C 826.295 -3.99538 2.69438 0
M  V30 4646 N 826.375 -2.69909 2.84277 0
M  V30 4647 C 826.515 -2.21719 1.5408 0
M  V30 4648 C 826.645 -0.891712 1.06628 0
M  V30 4649 O 826.665 0.161298 1.70137 0
M  V30 4650 N 826.765 -0.856846 -0.334985 0
M  V30 4651 C 826.765 -1.9641 -1.15789 0
M  V30 4652 N 826.895 -1.72708 -2.46522 0
M  V30 4653 N 826.635 -3.21165 -0.713741 0
M  V30 4654 C 826.515 -3.26797 0.639748 0
M  V30 4655 H 823.536 -8.13644 3.0377 0
M  V30 4656 H 823.266 -6.42788 2.55485 0
M  V30 4657 H 824.133 -8.12039 0.792769 0
M  V30 4658 H 826.788 -5.80061 -0.166416 0
M  V30 4659 H 827.067 -6.51287 2.75604 0
M  V30 4660 H 828.059 -7.01734 1.34462 0
M  V30 4661 H 826.225 -8.73674 2.38337 0
M  V30 4662 H 826.176 -4.68207 3.53221 0
M  V30 4663 H 826.858 0.0398818 -0.767965 0
M  V30 4664 H 826.895 -2.50995 -3.13503 0
M  V30 4665 H 826.996 -0.759148 -2.80716 0
M  V30 4666 P 828.095 -8.91 -5.92927e-12 0
M  V30 4667 O 828.315 -10.1726 -0.733694 0
M  V30 4668 O 828.885 -8.73148 1.23936 0
M  V30 4669 O 828.345 -7.66872 -0.971405 0
M  V30 4670 C 827.405 -7.42309 -2.04641 0
M  V30 4671 C 828.135 -6.86059 -3.24661 0
M  V30 4672 O 828.345 -5.42847 -3.03646 0
M  V30 4673 C 829.535 -7.41196 -3.50753 0
M  V30 4674 O 829.925 -7.27073 -4.86816 0
M  V30 4675 C 830.415 -6.5273 -2.63741 0
M  V30 4676 C 829.705 -5.1842 -2.73198 0
M  V30 4677 N 829.755 -4.38762 -1.4784 0
M  V30 4678 H 826.916 -8.36803 -2.32493 0
M  V30 4679 H 826.646 -6.70197 -1.71129 0
M  V30 4680 H 827.513 -7.03551 -4.13168 0
M  V30 4681 P 831.475 -7.20834 -5.23717 0
M  V30 4682 O 831.695 -7.80006 -6.57415 0
M  V30 4683 O 832.265 -7.79416 -4.13051 0
M  V30 4684 O 831.725 -5.63315 -5.29344 0
M  V30 4685 C 830.785 -4.80318 -6.01954 0
M  V30 4686 C 831.515 -3.64202 -6.65911 0
M  V30 4687 O 831.725 -2.60736 -5.64823 0
M  V30 4688 C 832.915 -3.93521 -7.19518 0
M  V30 4689 O 833.305 -3.02071 -8.21205 0
M  V30 4690 C 833.795 -3.73047 -5.97036 0
M  V30 4691 C 833.085 -2.58828 -5.25741 0
M  V30 4692 N 833.135 -2.68068 -3.77503 0
M  V30 4693 C 833.055 -3.80474 -2.99159 0
M  V30 4694 N 833.125 -3.55622 -1.71925 0
M  V30 4695 C 833.275 -2.1832 -1.65733 0
M  V30 4696 C 833.405 -1.28842 -0.572777 0
M  V30 4697 N 833.415 -1.66875 0.70098 0
M  V30 4698 N 833.525 0.016788 -0.859836 0
M  V30 4699 C 833.515 0.398145 -2.13316 0
M  V30 4700 N 833.395 -0.328224 -3.22333 0
M  V30 4701 C 833.275 -1.62992 -2.90383 0
M  V30 4702 H 830.297 -5.40394 -6.8003 0
M  V30 4703 H 830.025 -4.41741 -5.32532 0
M  V30 4704 H 830.893 -3.26371 -7.47889 0
M  V30 4705 H 833.548 -1.64007 -5.56746 0
M  V30 4706 H 833.828 -4.63439 -5.3432 0
M  V30 4707 H 834.819 -3.44776 -6.25925 0
M  V30 4708 H 832.985 -4.96707 -7.57347 0
M  V30 4709 H 832.944 -4.8089 -3.39924 0
M  V30 4710 H 833.325 -2.66547 0.941919 0
M  V30 4711 H 833.514 -0.965341 1.44766 0
M  V30 4712 H 833.622 1.46427 -2.29697 0
M  V30 4713 P 834.855 -2.75334 -8.47391 0
M  V30 4714 O 835.075 -2.44571 -9.90142 0
M  V30 4715 O 835.645 -3.87688 -7.92115 0
M  V30 4716 O 835.105 -1.4459 -7.59357 0
M  V30 4717 C 834.165 -0.347608 -7.69215 0
M  V30 4718 C 834.895 0.96767 -7.52806 0
M  V30 4719 O 835.105 1.21036 -6.1011 0
M  V30 4720 C 836.295 1.04544 -8.13308 0
M  V30 4721 O 836.685 2.38311 -8.41922 0
M  V30 4722 C 837.175 0.491279 -7.02284 0
M  V30 4723 C 836.465 0.996264 -5.77469 0
M  V30 4724 N 836.515 0.0501916 -4.62973 0
M  V30 4725 H 833.676 -0.374722 -8.67691 0
M  V30 4726 H 833.406 -0.443485 -6.90277 0
M  V30 4727 H 834.273 1.75537 -7.96793 0
M  V30 4728 P 838.235 2.75334 -8.47391 0
M  V30 4729 O 838.455 3.84204 -9.44982 0
M  V30 4730 O 839.025 1.51982 -8.68909 0
M  V30 4731 O 838.485 3.29363 -6.99321 0
M  V30 4732 C 837.545 4.24066 -6.42823 0
M  V30 4733 C 838.275 5.20775 -5.52155 0
M  V30 4734 O 838.485 4.56607 -4.22514 0
M  V30 4735 C 839.675 5.62697 -5.96604 0
M  V30 4736 O 840.065 6.87667 -5.41053 0
M  V30 4737 C 840.555 4.52537 -5.39283 0
M  V30 4738 C 839.845 4.20027 -4.08623 0
M  V30 4739 N 839.895 2.76189 -3.71603 0
M  V30 4740 C 839.815 1.66944 -4.54297 0
M  V30 4741 N 839.885 0.536169 -3.91344 0
M  V30 4742 C 840.035 0.901569 -2.58849 0
M  V30 4743 C 840.165 0.146599 -1.40236 0
M  V30 4744 N 840.175 -1.18234 -1.37046 0
M  V30 4745 N 840.285 0.822941 -0.249738 0
M  V30 4746 C 840.275 2.15179 -0.280525 0
M  V30 4747 N 840.155 2.96414 -1.30822 0
M  V30 4748 C 840.035 2.25804 -2.44748 0
M  V30 4749 H 837.057 4.79756 -7.24086 0
M  V30 4750 H 836.785 3.69963 -5.84682 0
M  V30 4751 H 837.653 6.10431 -5.41508 0
M  V30 4752 H 840.308 4.78816 -3.28024 0
M  V30 4753 H 840.588 3.64957 -6.05871 0
M  V30 4754 H 841.579 4.88748 -5.21323 0
M  V30 4755 H 839.745 5.66789 -7.0643 0
M  V30 4756 H 839.704 1.74684 -5.62396 0
M  V30 4757 H 840.085 -1.71949 -2.24394 0
M  V30 4758 H 840.274 -1.67511 -0.470742 0
M  V30 4759 H 840.382 2.63704 0.6828 0
M  V30 4760 P 841.615 7.20834 -5.23717 0
M  V30 4761 O 841.835 8.66274 -5.38678 0
M  V30 4762 O 842.405 6.33687 -6.13629 0
M  V30 4763 O 841.865 6.7751 -3.72168 0
M  V30 4764 C 840.925 7.20919 -2.70795 0
M  V30 4765 C 841.655 7.45864 -1.40599 0
M  V30 4766 O 841.865 6.17751 -0.734343 0
M  V30 4767 C 843.055 8.05906 -1.51917 0
M  V30 4768 O 843.445 8.74358 -0.335205 0
M  V30 4769 C 843.935 6.83093 -1.70294 0
M  V30 4770 C 843.225 5.79992 -0.836974 0
M  V30 4771 N 843.275 4.41864 -1.38293 0
M  V30 4772 C 843.195 4.02089 -2.69407 0
M  V30 4773 N 843.265 2.73403 -2.85089 0
M  V30 4774 C 843.415 2.25086 -1.5642 0
M  V30 4775 C 843.545 0.942887 -1.04836 0
M  V30 4776 N 843.555 -0.150999 -1.80369 0
M  V30 4777 N 843.665 0.812565 0.28167 0
M  V30 4778 C 843.655 1.90572 1.03784 0
M  V30 4779 N 843.535 3.167 0.683905 0
M  V30 4780 C 843.415 3.26538 -0.652815 0
M  V30 4781 H 840.437 8.13738 -3.03804 0
M  V30 4782 H 840.165 6.42974 -2.55559 0
M  V30 4783 H 841.033 8.12139 -0.792866 0
M  V30 4784 H 843.688 5.80178 0.160643 0
M  V30 4785 H 843.968 6.51379 -2.75643 0
M  V30 4786 H 844.959 7.01832 -1.3448 0
M  V30 4787 H 843.125 8.73771 -2.38364 0
M  V30 4788 H 843.084 4.7189 -3.52311 0
M  V30 4789 H 843.465 -0.0721434 -2.82608 0
M  V30 4790 H 843.654 -1.0785 -1.36544 0
M  V30 4791 H 843.762 1.73207 2.10241 0
M  V30 4792 P 844.995 8.91 6.08645e-12 0
M  V30 4793 O 845.215 10.1726 0.733694 0
M  V30 4794 O 845.785 8.73148 -1.23936 0
M  V30 4795 O 845.245 7.66872 0.971405 0
M  V30 4796 C 844.305 7.42309 2.04641 0
M  V30 4797 C 845.035 6.86059 3.24661 0
M  V30 4798 O 845.245 5.42847 3.03646 0
M  V30 4799 C 846.435 7.41196 3.50753 0
M  V30 4800 O 846.825 7.27073 4.86816 0
M  V30 4801 C 847.315 6.5273 2.63741 0
M  V30 4802 C 846.605 5.1842 2.73198 0
M  V30 4803 N 846.655 4.38762 1.4784 0
M  V30 4804 H 843.816 8.36803 2.32493 0
M  V30 4805 H 843.546 6.70197 1.71129 0
M  V30 4806 H 844.413 7.03551 4.13168 0
M  V30 4807 P 848.375 7.20834 5.23717 0
M  V30 4808 O 848.595 7.79853 6.57286 0
M  V30 4809 O 849.165 7.79239 4.12957 0
M  V30 4810 O 848.625 5.63315 5.29344 0
M  V30 4811 C 847.685 4.80255 6.01876 0
M  V30 4812 C 848.415 3.64202 6.65911 0
M  V30 4813 O 848.625 2.60694 5.64732 0
M  V30 4814 C 849.815 3.93473 7.1943 0
M  V30 4815 O 850.205 3.02071 8.21205 0
M  V30 4816 C 850.695 3.73047 5.97036 0
M  V30 4817 C 849.985 2.58828 5.25741 0
M  V30 4818 N 850.035 2.68068 3.77503 0
M  V30 4819 H 847.196 5.40332 6.79951 0
M  V30 4820 H 846.926 4.41613 5.32378 0
M  V30 4821 H 847.793 3.26331 7.47797 0
M  V30 4822 P 851.755 2.75334 8.47391 0
M  V30 4823 O 851.975 2.44571 9.90142 0
M  V30 4824 O 852.545 3.87688 7.92115 0
M  V30 4825 O 852.005 1.4459 7.59357 0
M  V30 4826 C 851.065 0.347608 7.69215 0
M  V30 4827 C 851.795 -0.96767 7.52806 0
M  V30 4828 O 852.005 -1.21036 6.1011 0
M  V30 4829 C 853.195 -1.04544 8.13308 0
M  V30 4830 O 853.585 -2.38311 8.41922 0
M  V30 4831 C 854.075 -0.491279 7.02284 0
M  V30 4832 C 853.365 -0.996264 5.77469 0
M  V30 4833 N 853.415 -0.0501916 4.62973 0
M  V30 4834 H 850.576 0.374722 8.67691 0
M  V30 4835 H 850.306 0.443485 6.90277 0
M  V30 4836 H 851.173 -1.75537 7.96793 0
M  V30 4837 P 855.135 -2.75334 8.47391 0
M  V30 4838 O 855.355 -3.84128 9.44797 0
M  V30 4839 O 855.925 -1.51947 8.68712 0
M  V30 4840 O 855.385 -3.29363 6.99321 0
M  V30 4841 C 854.445 -4.24011 6.4274 0
M  V30 4842 C 855.175 -5.20775 5.52155 0
M  V30 4843 O 855.385 -4.56534 4.22446 0
M  V30 4844 C 856.575 -5.62629 5.96531 0
M  V30 4845 O 856.965 -6.87667 5.41053 0
M  V30 4846 C 857.455 -4.52537 5.39283 0
M  V30 4847 C 856.745 -4.20027 4.08623 0
M  V30 4848 N 856.795 -2.76189 3.71603 0
M  V30 4849 H 853.956 -4.797 7.24003 0
M  V30 4850 H 853.686 -3.69856 5.84513 0
M  V30 4851 H 854.553 -6.10356 5.41441 0
M  V30 4852 P 858.515 -7.20834 5.23717 0
M  V30 4853 O 858.735 -8.66104 5.38572 0
M  V30 4854 O 859.305 -6.33544 6.1349 0
M  V30 4855 O 858.765 -6.7751 3.72168 0
M  V30 4856 C 857.825 -7.20825 2.7076 0
M  V30 4857 C 858.555 -7.45864 1.40599 0
M  V30 4858 O 858.765 -6.17651 0.734225 0
M  V30 4859 C 859.955 -8.05808 1.51899 0
M  V30 4860 O 860.345 -8.74358 0.335205 0
M  V30 4861 C 860.835 -6.83093 1.70294 0
M  V30 4862 C 860.125 -5.79992 0.836974 0
M  V30 4863 N 860.175 -4.41864 1.38293 0
M  V30 4864 H 857.336 -8.13644 3.0377 0
M  V30 4865 H 857.066 -6.42788 2.55485 0
M  V30 4866 H 857.933 -8.12039 0.792769 0
M  V30 4867 P 861.895 -8.91 -6.24363e-12 0
M  V30 4868 O 862.115 -10.1726 -0.733694 0
M  V30 4869 O 862.685 -8.73148 1.23936 0
M  V30 4870 O 862.145 -7.66872 -0.971405 0
M  V30 4871 C 861.205 -7.42309 -2.04641 0
M  V30 4872 C 861.935 -6.86059 -3.24661 0
M  V30 4873 O 862.145 -5.42847 -3.03646 0
M  V30 4874 C 863.335 -7.41196 -3.50753 0
M  V30 4875 O 863.725 -7.27073 -4.86816 0
M  V30 4876 C 864.215 -6.5273 -2.63741 0
M  V30 4877 C 863.505 -5.1842 -2.73198 0
M  V30 4878 N 863.555 -4.38762 -1.4784 0
M  V30 4879 H 860.716 -8.36803 -2.32493 0
M  V30 4880 H 860.446 -6.70197 -1.71129 0
M  V30 4881 H 861.313 -7.03551 -4.13168 0
M  V30 4882 P 865.275 -7.20834 -5.23717 0
M  V30 4883 O 865.495 -7.79853 -6.57286 0
M  V30 4884 O 866.065 -7.79239 -4.12957 0
M  V30 4885 O 865.525 -5.63315 -5.29344 0
M  V30 4886 C 864.585 -4.80255 -6.01876 0
M  V30 4887 C 865.315 -3.64202 -6.65911 0
M  V30 4888 O 865.525 -2.60694 -5.64732 0
M  V30 4889 C 866.715 -3.93473 -7.1943 0
M  V30 4890 O 867.105 -3.02071 -8.21205 0
M  V30 4891 C 867.595 -3.73047 -5.97036 0
M  V30 4892 C 866.885 -2.58828 -5.25741 0
M  V30 4893 N 866.935 -2.68068 -3.77503 0
M  V30 4894 H 864.096 -5.40332 -6.79951 0
M  V30 4895 H 863.826 -4.41613 -5.32378 0
M  V30 4896 H 864.693 -3.26331 -7.47797 0
M  V30 4897 P 868.655 -2.75334 -8.47391 0
M  V30 4898 O 868.875 -2.44571 -9.90142 0
M  V30 4899 O 869.445 -3.87688 -7.92115 0
M  V30 4900 O 868.905 -1.4459 -7.59357 0
M  V30 4901 C 867.965 -0.347608 -7.69215 0
M  V30 4902 C 868.695 0.96767 -7.52806 0
M  V30 4903 O 868.905 1.21036 -6.1011 0
M  V30 4904 C 870.095 1.04544 -8.13308 0
M  V30 4905 O 870.485 2.38311 -8.41922 0
M  V30 4906 C 870.975 0.491279 -7.02284 0
M  V30 4907 C 870.265 0.996264 -5.77469 0
M  V30 4908 N 870.315 0.0501916 -4.62973 0
M  V30 4909 H 867.476 -0.374722 -8.67691 0
M  V30 4910 H 867.206 -0.443485 -6.90277 0
M  V30 4911 H 868.073 1.75537 -7.96793 0
M  V30 4912 P 872.035 2.75334 -8.47391 0
M  V30 4913 O 872.255 3.84128 -9.44797 0
M  V30 4914 O 872.825 1.51947 -8.68712 0
M  V30 4915 O 872.285 3.29363 -6.99321 0
M  V30 4916 C 871.345 4.24011 -6.4274 0
M  V30 4917 C 872.075 5.20775 -5.52155 0
M  V30 4918 O 872.285 4.56534 -4.22446 0
M  V30 4919 C 873.475 5.62629 -5.96531 0
M  V30 4920 O 873.865 6.87667 -5.41053 0
M  V30 4921 C 874.355 4.52537 -5.39283 0
M  V30 4922 C 873.645 4.20027 -4.08623 0
M  V30 4923 N 873.695 2.76189 -3.71603 0
M  V30 4924 H 870.856 4.797 -7.24003 0
M  V30 4925 H 870.586 3.69856 -5.84513 0
M  V30 4926 H 871.453 6.10356 -5.41441 0
M  V30 4927 P 875.415 7.20834 -5.23717 0
M  V30 4928 O 875.635 8.66104 -5.38572 0
M  V30 4929 O 876.205 6.33544 -6.1349 0
M  V30 4930 O 875.665 6.7751 -3.72168 0
M  V30 4931 C 874.725 7.20825 -2.7076 0
M  V30 4932 C 875.455 7.45864 -1.40599 0
M  V30 4933 O 875.665 6.17651 -0.734225 0
M  V30 4934 C 876.855 8.05808 -1.51899 0
M  V30 4935 O 877.245 8.74358 -0.335205 0
M  V30 4936 C 877.735 6.83093 -1.70294 0
M  V30 4937 C 877.025 5.79992 -0.836974 0
M  V30 4938 N 877.075 4.41864 -1.38293 0
M  V30 4939 H 874.236 8.13644 -3.0377 0
M  V30 4940 H 873.966 6.42788 -2.55485 0
M  V30 4941 H 874.833 8.12039 -0.792769 0
M  V30 4942 P 878.795 8.91 6.40081e-12 0
M  V30 4943 O 879.015 10.1726 0.733694 0
M  V30 4944 O 879.585 8.73148 -1.23936 0
M  V30 4945 O 879.045 7.66872 0.971405 0
M  V30 4946 C 878.105 7.42309 2.04641 0
M  V30 4947 C 878.835 6.86059 3.24661 0
M  V30 4948 O 879.045 5.42847 3.03646 0
M  V30 4949 C 880.235 7.41196 3.50753 0
M  V30 4950 O 880.625 7.27073 4.86816 0
M  V30 4951 C 881.115 6.5273 2.63741 0
M  V30 4952 C 880.405 5.1842 2.73198 0
M  V30 4953 N 880.455 4.38762 1.4784 0
M  V30 4954 H 877.616 8.36803 2.32493 0
M  V30 4955 H 877.346 6.70197 1.71129 0
M  V30 4956 H 878.213 7.03551 4.13168 0
M  V30 4957 P 882.175 7.20834 5.23717 0
M  V30 4958 O 882.395 7.79853 6.57286 0
M  V30 4959 O 882.965 7.79239 4.12957 0
M  V30 4960 O 882.425 5.63315 5.29344 0
M  V30 4961 C 881.485 4.80255 6.01876 0
M  V30 4962 C 882.215 3.64202 6.65911 0
M  V30 4963 O 882.425 2.60694 5.64732 0
M  V30 4964 C 883.615 3.93473 7.1943 0
M  V30 4965 O 884.005 3.02071 8.21205 0
M  V30 4966 C 884.495 3.73047 5.97036 0
M  V30 4967 C 883.785 2.58828 5.25741 0
M  V30 4968 N 883.835 2.68068 3.77503 0
M  V30 4969 H 880.996 5.40332 6.79951 0
M  V30 4970 H 880.726 4.41613 5.32378 0
M  V30 4971 H 881.593 3.26331 7.47797 0
M  V30 4972 P 885.555 2.75334 8.47391 0
M  V30 4973 O 885.775 2.44571 9.90142 0
M  V30 4974 O 886.345 3.87688 7.92115 0
M  V30 4975 O 885.805 1.4459 7.59357 0
M  V30 4976 C 884.865 0.347608 7.69215 0
M  V30 4977 C 885.595 -0.96767 7.52806 0
M  V30 4978 O 885.805 -1.21036 6.1011 0
M  V30 4979 C 886.995 -1.04544 8.13308 0
M  V30 4980 O 887.385 -2.38311 8.41922 0
M  V30 4981 C 887.875 -0.491279 7.02284 0
M  V30 4982 C 887.165 -0.996264 5.77469 0
M  V30 4983 N 887.215 -0.0501916 4.62973 0
M  V30 4984 H 884.376 0.374722 8.67691 0
M  V30 4985 H 884.106 0.443485 6.90277 0
M  V30 4986 H 884.973 -1.75537 7.96793 0
M  V30 4987 P 888.935 -2.75334 8.47391 0
M  V30 4988 O 889.155 -3.84166 9.4489 0
M  V30 4989 O 889.725 -1.51964 8.6881 0
M  V30 4990 O 889.185 -3.29363 6.99321 0
M  V30 4991 C 888.245 -4.23956 6.42656 0
M  V30 4992 C 888.975 -5.20775 5.52155 0
M  V30 4993 O 889.185 -4.56534 4.22446 0
M  V30 4994 C 890.375 -5.62629 5.96531 0
M  V30 4995 O 890.765 -6.87667 5.41053 0
M  V30 4996 C 891.255 -4.52537 5.39283 0
M  V30 4997 C 890.545 -4.20027 4.08623 0
M  V30 4998 N 890.595 -2.7613 3.71522 0
M  V30 4999 C 890.745 -2.45612 2.37989 0
M  V30 5000 O 890.835 -3.30919 1.51621 0
M  V30 5001 N 890.785 -1.10684 2.08435 0
M  V30 5002 C 890.695 -0.0690084 2.9792 0
M  V30 5003 O 890.745 1.10553 2.59426 0
M  V30 5004 C 890.545 -0.481522 4.35345 0
M  V30 5005 C 890.435 0.618778 5.36443 0
M  V30 5006 C 890.495 -1.78906 4.67968 0
M  V30 5007 H 887.755 -4.797 7.24003 0
M  V30 5008 H 887.486 -3.69802 5.84429 0
M  V30 5009 H 888.353 -6.10356 5.41441 0
M  V30 5010 H 891.008 -4.78651 3.27911 0
M  V30 5011 H 891.287 -3.64957 6.05871 0
M  V30 5012 H 892.279 -4.8868 5.2125 0
M  V30 5013 H 890.445 -5.66726 7.06352 0
M  V30 5014 H 890.374 -2.07737 5.72367 0
M  V30 5015 H 891.404 0.754375 5.86871 0
M  V30 5016 H 889.667 0.359721 6.10641 0
M  V30 5017 H 890.155 1.55533 4.8581 0
M  V30 5018 H 890.891 -0.862651 1.12037 0
M  V30 5019 P 892.315 -7.20834 5.23717 0
M  V30 5020 O 892.535 -8.66104 5.38572 0
M  V30 5021 O 893.105 -6.33544 6.1349 0
M  V30 5022 O 892.565 -6.7751 3.72168 0
M  V30 5023 C 891.625 -7.20825 2.7076 0
M  V30 5024 C 892.355 -7.45864 1.40599 0
M  V30 5025 O 892.565 -6.17651 0.734225 0
M  V30 5026 C 893.755 -8.05808 1.51899 0
M  V30 5027 O 894.145 -8.74358 0.335205 0
M  V30 5028 C 894.635 -6.83093 1.70294 0
M  V30 5029 C 893.925 -5.79992 0.836974 0
M  V30 5030 N 893.975 -4.41864 1.38293 0
M  V30 5031 H 891.136 -8.13644 3.0377 0
M  V30 5032 H 890.866 -6.42788 2.55485 0
M  V30 5033 H 891.733 -8.12039 0.792769 0
M  V30 5034 P 895.695 -8.91 -6.558e-12 0
M  V30 5035 O 895.915 -10.1726 -0.733694 0
M  V30 5036 O 896.485 -8.73148 1.23936 0
M  V30 5037 O 895.945 -7.66872 -0.971405 0
M  V30 5038 C 895.005 -7.42309 -2.04641 0
M  V30 5039 C 895.735 -6.86059 -3.24661 0
M  V30 5040 O 895.945 -5.42847 -3.03646 0
M  V30 5041 C 897.135 -7.41196 -3.50753 0
M  V30 5042 O 897.525 -7.27073 -4.86816 0
M  V30 5043 C 898.015 -6.5273 -2.63741 0
M  V30 5044 C 897.305 -5.1842 -2.73198 0
M  V30 5045 N 897.355 -4.38762 -1.4784 0
M  V30 5046 H 894.516 -8.36803 -2.32493 0
M  V30 5047 H 894.246 -6.70197 -1.71129 0
M  V30 5048 H 895.113 -7.03551 -4.13168 0
M  V30 5049 P 899.075 -7.20834 -5.23717 0
M  V30 5050 O 899.295 -7.80006 -6.57415 0
M  V30 5051 O 899.865 -7.79416 -4.13051 0
M  V30 5052 O 899.325 -5.63315 -5.29344 0
M  V30 5053 C 898.385 -4.80318 -6.01954 0
M  V30 5054 C 899.115 -3.64202 -6.65911 0
M  V30 5055 O 899.325 -2.60736 -5.64823 0
M  V30 5056 C 900.515 -3.93521 -7.19518 0
M  V30 5057 O 900.905 -3.02071 -8.21205 0
M  V30 5058 C 901.395 -3.73047 -5.97036 0
M  V30 5059 C 900.685 -2.58828 -5.25741 0
M  V30 5060 N 900.735 -2.68068 -3.77503 0
M  V30 5061 C 900.655 -3.80474 -2.99159 0
M  V30 5062 N 900.725 -3.55622 -1.71925 0
M  V30 5063 C 900.875 -2.1832 -1.65733 0
M  V30 5064 C 901.005 -1.28842 -0.572777 0
M  V30 5065 N 901.015 -1.66875 0.70098 0
M  V30 5066 N 901.125 0.016788 -0.859836 0
M  V30 5067 C 901.115 0.398145 -2.13316 0
M  V30 5068 N 900.995 -0.328224 -3.22333 0
M  V30 5069 C 900.875 -1.62992 -2.90383 0
M  V30 5070 H 897.897 -5.40394 -6.8003 0
M  V30 5071 H 897.625 -4.41741 -5.32532 0
M  V30 5072 H 898.493 -3.26371 -7.47889 0
M  V30 5073 H 901.148 -1.64007 -5.56746 0
M  V30 5074 H 901.428 -4.63439 -5.3432 0
M  V30 5075 H 902.419 -3.44776 -6.25925 0
M  V30 5076 H 900.585 -4.96707 -7.57347 0
M  V30 5077 H 900.544 -4.8089 -3.39924 0
M  V30 5078 H 900.925 -2.66547 0.941919 0
M  V30 5079 H 901.114 -0.965341 1.44766 0
M  V30 5080 H 901.222 1.46427 -2.29697 0
M  V30 5081 P 902.455 -2.75334 -8.47391 0
M  V30 5082 O 902.675 -2.44571 -9.90142 0
M  V30 5083 O 903.245 -3.87688 -7.92115 0
M  V30 5084 O 902.705 -1.4459 -7.59357 0
M  V30 5085 C 901.765 -0.347608 -7.69215 0
M  V30 5086 C 902.495 0.96767 -7.52806 0
M  V30 5087 O 902.705 1.21036 -6.1011 0
M  V30 5088 C 903.895 1.04544 -8.13308 0
M  V30 5089 O 904.285 2.38311 -8.41922 0
M  V30 5090 C 904.775 0.491279 -7.02284 0
M  V30 5091 C 904.065 0.996264 -5.77469 0
M  V30 5092 N 904.115 0.0501916 -4.62973 0
M  V30 5093 H 901.276 -0.374722 -8.67691 0
M  V30 5094 H 901.006 -0.443485 -6.90277 0
M  V30 5095 H 901.873 1.75537 -7.96793 0
M  V30 5096 P 905.835 2.75334 -8.47391 0
M  V30 5097 O 906.055 3.84128 -9.44797 0
M  V30 5098 O 906.625 1.51947 -8.68712 0
M  V30 5099 O 906.085 3.29363 -6.99321 0
M  V30 5100 C 905.145 4.24011 -6.4274 0
M  V30 5101 C 905.875 5.20775 -5.52155 0
M  V30 5102 O 906.085 4.56534 -4.22446 0
M  V30 5103 C 907.275 5.62629 -5.96531 0
M  V30 5104 O 907.665 6.87667 -5.41053 0
M  V30 5105 C 908.155 4.52537 -5.39283 0
M  V30 5106 C 907.445 4.20027 -4.08623 0
M  V30 5107 N 907.495 2.76189 -3.71603 0
M  V30 5108 H 904.656 4.797 -7.24003 0
M  V30 5109 H 904.386 3.69856 -5.84513 0
M  V30 5110 H 905.253 6.10356 -5.41441 0
M  V30 5111 P 909.215 7.20834 -5.23717 0
M  V30 5112 O 909.435 8.66104 -5.38572 0
M  V30 5113 O 910.005 6.33544 -6.1349 0
M  V30 5114 O 909.465 6.7751 -3.72168 0
M  V30 5115 C 908.525 7.20825 -2.7076 0
M  V30 5116 C 909.255 7.45864 -1.40599 0
M  V30 5117 O 909.465 6.17651 -0.734225 0
M  V30 5118 C 910.655 8.05808 -1.51899 0
M  V30 5119 O 911.045 8.74358 -0.335205 0
M  V30 5120 C 911.535 6.83093 -1.70294 0
M  V30 5121 C 910.825 5.79992 -0.836974 0
M  V30 5122 N 910.875 4.41864 -1.38293 0
M  V30 5123 C 910.795 3.99538 -2.69438 0
M  V30 5124 N 910.875 2.69909 -2.84277 0
M  V30 5125 C 911.015 2.21719 -1.5408 0
M  V30 5126 C 911.145 0.891712 -1.06628 0
M  V30 5127 N 911.265 0.856846 0.334985 0
M  V30 5128 C 911.265 1.9641 1.15789 0
M  V30 5129 N 911.395 1.72708 2.46522 0
M  V30 5130 N 911.135 3.21165 0.713741 0
M  V30 5131 C 911.015 3.26797 -0.639748 0
M  V30 5132 H 908.036 8.13644 -3.0377 0
M  V30 5133 H 907.766 6.42788 -2.55485 0
M  V30 5134 H 908.633 8.12039 -0.792769 0
M  V30 5135 P 912.595 8.91 6.71518e-12 0
M  V30 5136 O 912.815 10.1726 0.733694 0
M  V30 5137 O 913.385 8.73148 -1.23936 0
M  V30 5138 O 912.845 7.66872 0.971405 0
M  V30 5139 C 911.905 7.42309 2.04641 0
M  V30 5140 C 912.635 6.86059 3.24661 0
M  V30 5141 O 912.845 5.42847 3.03646 0
M  V30 5142 C 914.035 7.41196 3.50753 0
M  V30 5143 O 914.425 7.27073 4.86816 0
M  V30 5144 C 914.915 6.5273 2.63741 0
M  V30 5145 C 914.205 5.1842 2.73198 0
M  V30 5146 N 914.255 4.38762 1.4784 0
M  V30 5147 H 911.416 8.36803 2.32493 0
M  V30 5148 H 911.146 6.70197 1.71129 0
M  V30 5149 H 912.013 7.03551 4.13168 0
M  V30 5150 P 915.975 7.20834 5.23717 0
M  V30 5151 O 916.195 7.79853 6.57286 0
M  V30 5152 O 916.765 7.79239 4.12957 0
M  V30 5153 O 916.225 5.63315 5.29344 0
M  V30 5154 C 915.285 4.80255 6.01876 0
M  V30 5155 C 916.015 3.64202 6.65911 0
M  V30 5156 O 916.225 2.60694 5.64732 0
M  V30 5157 C 917.415 3.93473 7.1943 0
M  V30 5158 O 917.805 3.02071 8.21205 0
M  V30 5159 C 918.295 3.73047 5.97036 0
M  V30 5160 C 917.585 2.58828 5.25741 0
M  V30 5161 N 917.635 2.68068 3.77503 0
M  V30 5162 C 917.555 3.79715 2.96723 0
M  V30 5163 N 917.635 3.5377 1.68852 0
M  V30 5164 C 917.775 2.15054 1.63254 0
M  V30 5165 C 917.905 1.28964 0.518571 0
M  V30 5166 N 918.025 -0.0538097 0.918425 0
M  V30 5167 C 918.025 -0.494275 2.22578 0
M  V30 5168 N 918.155 -1.81086 2.40434 0
M  V30 5169 N 917.895 0.313645 3.27502 0
M  V30 5170 C 917.775 1.61829 2.91033 0
M  V30 5171 H 914.796 5.40332 6.79951 0
M  V30 5172 H 914.526 4.41613 5.32378 0
M  V30 5173 H 915.393 3.26331 7.47797 0
M  V30 5174 P 919.355 2.75334 8.47391 0
M  V30 5175 O 919.575 2.44571 9.90142 0
M  V30 5176 O 920.145 3.87688 7.92115 0
M  V30 5177 O 919.605 1.4459 7.59357 0
M  V30 5178 C 918.665 0.347608 7.69215 0
M  V30 5179 C 919.395 -0.96767 7.52806 0
M  V30 5180 O 919.605 -1.21036 6.1011 0
M  V30 5181 C 920.795 -1.04544 8.13308 0
M  V30 5182 O 921.185 -2.38311 8.41922 0
M  V30 5183 C 921.675 -0.491279 7.02284 0
M  V30 5184 C 920.965 -0.996264 5.77469 0
M  V30 5185 N 921.015 -0.0501916 4.62973 0
M  V30 5186 C 920.935 1.32786 4.63244 0
M  V30 5187 N 921.015 1.86957 3.44545 0
M  V30 5188 C 921.155 0.780241 2.58481 0
M  V30 5189 C 921.285 0.738536 1.17757 0
M  V30 5190 N 921.405 -0.58337 0.711393 0
M  V30 5191 C 921.405 -1.70816 1.51017 0
M  V30 5192 N 921.535 -2.87826 0.880757 0
M  V30 5193 N 921.275 -1.67126 2.8339 0
M  V30 5194 C 921.155 -0.401421 3.30572 0
M  V30 5195 H 918.176 0.374722 8.67691 0
M  V30 5196 H 917.906 0.443485 6.90277 0
M  V30 5197 H 918.773 -1.75537 7.96793 0
M  V30 5198 P 922.735 -2.75334 8.47391 0
M  V30 5199 O 922.955 -3.84128 9.44797 0
M  V30 5200 O 923.525 -1.51947 8.68712 0
M  V30 5201 O 922.985 -3.29363 6.99321 0
M  V30 5202 C 922.045 -4.24011 6.4274 0
M  V30 5203 C 922.775 -5.20775 5.52155 0
M  V30 5204 O 922.985 -4.56534 4.22446 0
M  V30 5205 C 924.175 -5.62629 5.96531 0
M  V30 5206 O 924.565 -6.87667 5.41053 0
M  V30 5207 C 925.055 -4.52537 5.39283 0
M  V30 5208 C 924.345 -4.20027 4.08623 0
M  V30 5209 N 924.395 -2.76189 3.71603 0
M  V30 5210 H 921.556 -4.797 7.24003 0
M  V30 5211 H 921.286 -3.69856 5.84513 0
M  V30 5212 H 922.153 -6.10356 5.41441 0
M  V30 5213 P 926.115 -7.20834 5.23717 0
M  V30 5214 O 926.335 -8.66104 5.38572 0
M  V30 5215 O 926.905 -6.33544 6.1349 0
M  V30 5216 O 926.365 -6.7751 3.72168 0
M  V30 5217 C 925.425 -7.20825 2.7076 0
M  V30 5218 C 926.155 -7.45864 1.40599 0
M  V30 5219 O 926.365 -6.17651 0.734225 0
M  V30 5220 C 927.555 -8.05808 1.51899 0
M  V30 5221 O 927.945 -8.74358 0.335205 0
M  V30 5222 C 928.435 -6.83093 1.70294 0
M  V30 5223 C 927.725 -5.79992 0.836974 0
M  V30 5224 N 927.775 -4.41864 1.38293 0
M  V30 5225 C 927.695 -3.99538 2.69438 0
M  V30 5226 N 927.775 -2.69909 2.84277 0
M  V30 5227 C 927.915 -2.21719 1.5408 0
M  V30 5228 C 928.045 -0.891712 1.06628 0
M  V30 5229 N 928.165 -0.856846 -0.334985 0
M  V30 5230 C 928.165 -1.9641 -1.15789 0
M  V30 5231 N 928.295 -1.72708 -2.46522 0
M  V30 5232 N 928.035 -3.21165 -0.713741 0
M  V30 5233 C 927.915 -3.26797 0.639748 0
M  V30 5234 H 924.936 -8.13644 3.0377 0
M  V30 5235 H 924.666 -6.42788 2.55485 0
M  V30 5236 H 925.533 -8.12039 0.792769 0
M  V30 5237 P 929.495 -8.91 -6.87236e-12 0
M  V30 5238 O 929.715 -10.1746 -0.733838 0
M  V30 5239 O 930.285 -8.73346 1.23964 0
M  V30 5240 O 929.745 -7.66872 -0.971405 0
M  V30 5241 C 928.805 -7.42405 -2.04668 0
M  V30 5242 C 929.535 -6.86059 -3.24661 0
M  V30 5243 O 929.745 -5.42934 -3.03695 0
M  V30 5244 C 930.935 -7.41287 -3.50796 0
M  V30 5245 O 931.325 -7.27073 -4.86816 0
M  V30 5246 C 931.815 -6.5273 -2.63741 0
M  V30 5247 C 931.105 -5.1842 -2.73198 0
M  V30 5248 N 931.155 -4.38762 -1.4784 0
M  V30 5249 H 928.317 -8.36899 -2.3252 0
M  V30 5250 H 928.045 -6.70391 -1.71179 0
M  V30 5251 H 928.913 -7.03638 -4.13219 0
M  V30 5252 H 931.568 -4.59931 -3.54016 0
M  V30 5253 H 931.848 -6.88995 -1.59871 0
M  V30 5254 H 932.839 -6.4684 -3.0373 0
M  V30 5255 H 931.005 -8.47002 -3.20749 0
M  V30 5256 P 932.874 -7.20834 -5.23717 0
M  V30 5257 O 933.094 -7.79853 -6.57286 0
M  V30 5258 O 933.664 -7.79239 -4.12957 0
M  V30 5259 O 933.124 -5.63315 -5.29344 0
M  V30 5260 C 932.184 -4.80255 -6.01876 0
M  V30 5261 C 932.914 -3.64202 -6.65911 0
M  V30 5262 O 933.124 -2.60694 -5.64732 0
M  V30 5263 C 934.314 -3.93473 -7.1943 0
M  V30 5264 O 934.704 -3.02071 -8.21205 0
M  V30 5265 C 935.194 -3.73047 -5.97036 0
M  V30 5266 C 934.484 -2.58828 -5.25741 0
M  V30 5267 N 934.534 -2.68068 -3.77503 0
M  V30 5268 H 931.695 -5.40332 -6.79951 0
M  V30 5269 H 931.425 -4.41613 -5.32378 0
M  V30 5270 H 932.292 -3.26331 -7.47797 0
M  V30 5271 P 936.254 -2.75334 -8.47391 0
M  V30 5272 O 936.474 -2.44571 -9.90142 0
M  V30 5273 O 937.044 -3.87688 -7.92115 0
M  V30 5274 O 936.504 -1.4459 -7.59357 0
M  V30 5275 C 935.564 -0.347608 -7.69215 0
M  V30 5276 C 936.294 0.96767 -7.52806 0
M  V30 5277 O 936.504 1.21036 -6.1011 0
M  V30 5278 C 937.694 1.04544 -8.13308 0
M  V30 5279 O 938.084 2.38311 -8.41922 0
M  V30 5280 C 938.574 0.491279 -7.02284 0
M  V30 5281 C 937.864 0.996264 -5.77469 0
M  V30 5282 N 937.914 0.0501916 -4.62973 0
M  V30 5283 C 937.834 -1.32786 -4.63244 0
M  V30 5284 N 937.914 -1.86957 -3.44545 0
M  V30 5285 C 938.054 -0.780241 -2.58481 0
M  V30 5286 C 938.184 -0.738536 -1.17757 0
M  V30 5287 N 938.304 0.58337 -0.711393 0
M  V30 5288 C 938.304 1.70816 -1.51017 0
M  V30 5289 N 938.434 2.87826 -0.880757 0
M  V30 5290 N 938.174 1.67126 -2.8339 0
M  V30 5291 C 938.054 0.401421 -3.30572 0
M  V30 5292 H 935.075 -0.374722 -8.67691 0
M  V30 5293 H 934.805 -0.443485 -6.90277 0
M  V30 5294 H 935.672 1.75537 -7.96793 0
M  V30 5295 P 939.634 2.75334 -8.47391 0
M  V30 5296 O 939.854 3.84128 -9.44797 0
M  V30 5297 O 940.424 1.51947 -8.68712 0
M  V30 5298 O 939.884 3.29363 -6.99321 0
M  V30 5299 C 938.944 4.24011 -6.4274 0
M  V30 5300 C 939.674 5.20775 -5.52155 0
M  V30 5301 O 939.884 4.56534 -4.22446 0
M  V30 5302 C 941.074 5.62629 -5.96531 0
M  V30 5303 O 941.464 6.87667 -5.41053 0
M  V30 5304 C 941.954 4.52537 -5.39283 0
M  V30 5305 C 941.244 4.20027 -4.08623 0
M  V30 5306 N 941.294 2.76189 -3.71603 0
M  V30 5307 H 938.455 4.797 -7.24003 0
M  V30 5308 H 938.185 3.69856 -5.84513 0
M  V30 5309 H 939.052 6.10356 -5.41441 0
M  V30 5310 P 943.014 7.20834 -5.23717 0
M  V30 5311 O 943.234 8.66104 -5.38572 0
M  V30 5312 O 943.804 6.33544 -6.1349 0
M  V30 5313 O 943.264 6.7751 -3.72168 0
M  V30 5314 C 942.324 7.20825 -2.7076 0
M  V30 5315 C 943.054 7.45864 -1.40599 0
M  V30 5316 O 943.264 6.17651 -0.734225 0
M  V30 5317 C 944.454 8.05808 -1.51899 0
M  V30 5318 O 944.844 8.74358 -0.335205 0
M  V30 5319 C 945.334 6.83093 -1.70294 0
M  V30 5320 C 944.624 5.79992 -0.836974 0
M  V30 5321 N 944.674 4.41864 -1.38293 0
M  V30 5322 H 941.835 8.13644 -3.0377 0
M  V30 5323 H 941.565 6.42788 -2.55485 0
M  V30 5324 H 942.432 8.12039 -0.792769 0
M  V30 5325 P 946.394 8.91 7.02954e-12 0
M  V30 5326 O 946.614 10.1726 0.733694 0
M  V30 5327 O 947.184 8.73148 -1.23936 0
M  V30 5328 O 946.644 7.66872 0.971405 0
M  V30 5329 C 945.704 7.42309 2.04641 0
M  V30 5330 C 946.434 6.86059 3.24661 0
M  V30 5331 O 946.644 5.42847 3.03646 0
M  V30 5332 C 947.834 7.41196 3.50753 0
M  V30 5333 O 948.224 7.27073 4.86816 0
M  V30 5334 C 948.714 6.5273 2.63741 0
M  V30 5335 C 948.004 5.1842 2.73198 0
M  V30 5336 N 948.054 4.38762 1.4784 0
M  V30 5337 C 947.974 4.81605 0.168631 0
M  V30 5338 N 948.054 3.85454 -0.713363 0
M  V30 5339 C 948.194 2.6994 0.0566958 0
M  V30 5340 C 948.324 1.34815 -0.338502 0
M  V30 5341 O 948.344 0.869548 -1.47125 0
M  V30 5342 N 948.444 0.496304 0.77465 0
M  V30 5343 C 948.444 0.908403 2.09122 0
M  V30 5344 N 948.574 -0.0517805 3.00955 0
M  V30 5345 N 948.314 2.17875 2.46519 0
M  V30 5346 C 948.194 3.01988 1.4033 0
M  V30 5347 H 945.215 8.36803 2.32493 0
M  V30 5348 H 944.945 6.70197 1.71129 0
M  V30 5349 H 945.812 7.03551 4.13168 0
M  V30 5350 H 948.467 4.59498 3.54415 0
M  V30 5351 H 948.746 6.88898 1.59848 0
M  V30 5352 H 949.738 6.46749 3.03687 0
M  V30 5353 H 947.904 8.46908 3.20714 0
M  V30 5354 H 947.855 5.86405 -0.105564 0
M  V30 5355 H 948.537 -0.483664 0.597855 0
M  V30 5356 H 948.574 0.187865 4.0116 0
M  V30 5357 H 948.675 -1.03585 2.71726 0
M  V30 5358 P 949.774 7.20834 5.23717 0
M  V30 5359 O 949.994 7.7993 6.57351 0
M  V30 5360 O 950.564 7.79328 4.13004 0
M  V30 5361 O 950.024 5.63315 5.29344 0
M  V30 5362 C 949.084 4.80193 6.01798 0
M  V30 5363 C 949.814 3.64202 6.65911 0
M  V30 5364 O 950.024 2.60694 5.64732 0
M  V30 5365 C 951.214 3.93473 7.1943 0
M  V30 5366 O 951.604 3.02071 8.21205 0
M  V30 5367 C 952.094 3.73047 5.97036 0
M  V30 5368 C 951.384 2.58828 5.25741 0
M  V30 5369 N 951.434 2.6801 3.77422 0
M  V30 5370 C 951.584 1.50443 3.07133 0
M  V30 5371 O 951.674 0.419406 3.61576 0
M  V30 5372 N 951.624 1.6403 1.69677 0
M  V30 5373 C 951.534 2.81206 0.986255 0
M  V30 5374 O 951.584 2.80892 -0.249754 0
M  V30 5375 C 951.384 3.99158 1.80325 0
M  V30 5376 C 951.274 5.29309 1.06921 0
M  V30 5377 C 951.334 3.89779 3.1476 0
M  V30 5378 H 948.594 5.40332 6.79951 0
M  V30 5379 H 948.325 4.41549 5.32301 0
M  V30 5380 H 949.192 3.26331 7.47797 0
M  V30 5381 H 951.847 1.6395 5.56554 0
M  V30 5382 H 952.126 4.63439 5.3432 0
M  V30 5383 H 953.118 3.44728 6.25838 0
M  V30 5384 H 951.284 4.96652 7.57263 0
M  V30 5385 H 951.213 4.80159 3.74441 0
M  V30 5386 H 952.243 5.81459 1.09608 0
M  V30 5387 H 950.506 5.9187 1.54487 0
M  V30 5388 H 950.994 5.10095 0.0220288 0
M  V30 5389 H 951.73 0.798962 1.16664 0
M  V30 5390 P 953.154 2.75334 8.47391 0
M  V30 5391 O 953.374 2.44571 9.90142 0
M  V30 5392 O 953.944 3.87688 7.92115 0
M  V30 5393 O 953.404 1.4459 7.59357 0
M  V30 5394 C 952.464 0.347608 7.69215 0
M  V30 5395 C 953.194 -0.96767 7.52806 0
M  V30 5396 O 953.404 -1.21036 6.1011 0
M  V30 5397 C 954.594 -1.04544 8.13308 0
M  V30 5398 O 954.984 -2.38311 8.41922 0
M  V30 5399 C 955.474 -0.491279 7.02284 0
M  V30 5400 C 954.764 -0.996264 5.77469 0
M  V30 5401 N 954.814 -0.0501916 4.62973 0
M  V30 5402 H 951.975 0.374722 8.67691 0
M  V30 5403 H 951.705 0.443485 6.90277 0
M  V30 5404 H 952.572 -1.75537 7.96793 0
M  V30 5405 P 956.534 -2.75334 8.47391 0
M  V30 5406 O 956.754 -3.84128 9.44797 0
M  V30 5407 O 957.324 -1.51947 8.68712 0
M  V30 5408 O 956.784 -3.29363 6.99321 0
M  V30 5409 C 955.844 -4.24011 6.4274 0
M  V30 5410 C 956.574 -5.20775 5.52155 0
M  V30 5411 O 956.784 -4.56534 4.22446 0
M  V30 5412 C 957.974 -5.62629 5.96531 0
M  V30 5413 O 958.364 -6.87667 5.41053 0
M  V30 5414 C 958.854 -4.52537 5.39283 0
M  V30 5415 C 958.144 -4.20027 4.08623 0
M  V30 5416 N 958.194 -2.76189 3.71603 0
M  V30 5417 H 955.355 -4.797 7.24003 0
M  V30 5418 H 955.085 -3.69856 5.84513 0
M  V30 5419 H 955.952 -6.10356 5.41441 0
M  V30 5420 P 959.914 -7.20834 5.23717 0
M  V30 5421 O 960.134 -8.66104 5.38572 0
M  V30 5422 O 960.704 -6.33544 6.1349 0
M  V30 5423 O 960.164 -6.7751 3.72168 0
M  V30 5424 C 959.224 -7.20825 2.7076 0
M  V30 5425 C 959.954 -7.45864 1.40599 0
M  V30 5426 O 960.164 -6.17651 0.734225 0
M  V30 5427 C 961.354 -8.05808 1.51899 0
M  V30 5428 O 961.744 -8.74358 0.335205 0
M  V30 5429 C 962.234 -6.83093 1.70294 0
M  V30 5430 C 961.524 -5.79992 0.836974 0
M  V30 5431 N 961.574 -4.41864 1.38293 0
M  V30 5432 H 958.735 -8.13644 3.0377 0
M  V30 5433 H 958.465 -6.42788 2.55485 0
M  V30 5434 H 959.332 -8.12039 0.792769 0
M  V30 5435 P 963.294 -8.91 -7.18673e-12 0
M  V30 5436 O 963.514 -10.1746 -0.733838 0
M  V30 5437 O 964.084 -8.73346 1.23964 0
M  V30 5438 O 963.544 -7.66872 -0.971405 0
M  V30 5439 C 962.604 -7.42405 -2.04668 0
M  V30 5440 C 963.334 -6.86059 -3.24661 0
M  V30 5441 O 963.544 -5.42934 -3.03695 0
M  V30 5442 C 964.734 -7.41287 -3.50796 0
M  V30 5443 O 965.124 -7.27073 -4.86816 0
M  V30 5444 C 965.614 -6.5273 -2.63741 0
M  V30 5445 C 964.904 -5.1842 -2.73198 0
M  V30 5446 N 964.954 -4.38762 -1.4784 0
M  V30 5447 H 962.116 -8.36899 -2.3252 0
M  V30 5448 H 961.844 -6.70391 -1.71179 0
M  V30 5449 H 962.712 -7.03638 -4.13219 0
M  V30 5450 H 965.367 -4.59931 -3.54016 0
M  V30 5451 H 965.647 -6.88995 -1.59871 0
M  V30 5452 H 966.638 -6.4684 -3.0373 0
M  V30 5453 H 964.804 -8.47002 -3.20749 0
M  V30 5454 P 966.674 -7.20834 -5.23717 0
M  V30 5455 O 966.894 -7.80006 -6.57415 0
M  V30 5456 O 967.464 -7.79416 -4.13051 0
M  V30 5457 O 966.924 -5.63315 -5.29344 0
M  V30 5458 C 965.984 -4.80318 -6.01954 0
M  V30 5459 C 966.714 -3.64202 -6.65911 0
M  V30 5460 O 966.924 -2.60736 -5.64823 0
M  V30 5461 C 968.114 -3.93521 -7.19518 0
M  V30 5462 O 968.504 -3.02071 -8.21205 0
M  V30 5463 C 968.994 -3.73047 -5.97036 0
M  V30 5464 C 968.284 -2.58828 -5.25741 0
M  V30 5465 N 968.334 -2.68068 -3.77503 0
M  V30 5466 C 968.254 -3.80474 -2.99159 0
M  V30 5467 N 968.324 -3.55622 -1.71925 0
M  V30 5468 C 968.474 -2.1832 -1.65733 0
M  V30 5469 C 968.604 -1.28842 -0.572777 0
M  V30 5470 N 968.614 -1.66875 0.70098 0
M  V30 5471 N 968.724 0.016788 -0.859836 0
M  V30 5472 C 968.714 0.398145 -2.13316 0
M  V30 5473 N 968.594 -0.328224 -3.22333 0
M  V30 5474 C 968.474 -1.62992 -2.90383 0
M  V30 5475 H 965.496 -5.40394 -6.8003 0
M  V30 5476 H 965.224 -4.41741 -5.32532 0
M  V30 5477 H 966.092 -3.26371 -7.47889 0
M  V30 5478 H 968.747 -1.64007 -5.56746 0
M  V30 5479 H 969.027 -4.63439 -5.3432 0
M  V30 5480 H 970.018 -3.44776 -6.25925 0
M  V30 5481 H 968.184 -4.96707 -7.57347 0
M  V30 5482 H 968.143 -4.8089 -3.39924 0
M  V30 5483 H 968.524 -2.66547 0.941919 0
M  V30 5484 H 968.713 -0.965341 1.44766 0
M  V30 5485 H 968.821 1.46427 -2.29697 0
M  V30 5486 P 970.054 -2.75334 -8.47391 0
M  V30 5487 O 970.274 -2.44571 -9.90142 0
M  V30 5488 O 970.844 -3.87688 -7.92115 0
M  V30 5489 O 970.304 -1.4459 -7.59357 0
M  V30 5490 C 969.364 -0.347608 -7.69215 0
M  V30 5491 C 970.094 0.96767 -7.52806 0
M  V30 5492 O 970.304 1.21036 -6.1011 0
M  V30 5493 C 971.494 1.04544 -8.13308 0
M  V30 5494 O 971.884 2.38311 -8.41922 0
M  V30 5495 C 972.374 0.491279 -7.02284 0
M  V30 5496 C 971.664 0.996264 -5.77469 0
M  V30 5497 N 971.714 0.0501916 -4.62973 0
M  V30 5498 H 968.875 -0.374722 -8.67691 0
M  V30 5499 H 968.605 -0.443485 -6.90277 0
M  V30 5500 H 969.472 1.75537 -7.96793 0
M  V30 5501 P 973.434 2.75334 -8.47391 0
M  V30 5502 O 973.654 3.84128 -9.44797 0
M  V30 5503 O 974.224 1.51947 -8.68712 0
M  V30 5504 O 973.684 3.29363 -6.99321 0
M  V30 5505 C 972.744 4.24011 -6.4274 0
M  V30 5506 C 973.474 5.20775 -5.52155 0
M  V30 5507 O 973.684 4.56534 -4.22446 0
M  V30 5508 C 974.874 5.62629 -5.96531 0
M  V30 5509 O 975.264 6.87667 -5.41053 0
M  V30 5510 C 975.754 4.52537 -5.39283 0
M  V30 5511 C 975.044 4.20027 -4.08623 0
M  V30 5512 N 975.094 2.76189 -3.71603 0
M  V30 5513 H 972.255 4.797 -7.24003 0
M  V30 5514 H 971.985 3.69856 -5.84513 0
M  V30 5515 H 972.852 6.10356 -5.41441 0
M  V30 5516 P 976.814 7.20834 -5.23717 0
M  V30 5517 O 977.034 8.66104 -5.38572 0
M  V30 5518 O 977.604 6.33544 -6.1349 0
M  V30 5519 O 977.064 6.7751 -3.72168 0
M  V30 5520 C 976.124 7.20825 -2.7076 0
M  V30 5521 C 976.854 7.45864 -1.40599 0
M  V30 5522 O 977.064 6.17651 -0.734225 0
M  V30 5523 C 978.254 8.05808 -1.51899 0
M  V30 5524 O 978.644 8.74358 -0.335205 0
M  V30 5525 C 979.134 6.83093 -1.70294 0
M  V30 5526 C 978.424 5.79992 -0.836974 0
M  V30 5527 N 978.474 4.41864 -1.38293 0
M  V30 5528 H 975.635 8.13644 -3.0377 0
M  V30 5529 H 975.365 6.42788 -2.55485 0
M  V30 5530 H 976.232 8.12039 -0.792769 0
M  V30 5531 P 980.194 8.91 7.34391e-12 0
M  V30 5532 O 980.414 10.1726 0.733694 0
M  V30 5533 O 980.984 8.73148 -1.23936 0
M  V30 5534 O 980.444 7.66872 0.971405 0
M  V30 5535 C 979.504 7.42309 2.04641 0
M  V30 5536 C 980.234 6.86059 3.24661 0
M  V30 5537 O 980.444 5.42847 3.03646 0
M  V30 5538 C 981.634 7.41196 3.50753 0
M  V30 5539 O 982.024 7.27073 4.86816 0
M  V30 5540 C 982.514 6.5273 2.63741 0
M  V30 5541 C 981.804 5.1842 2.73198 0
M  V30 5542 N 981.854 4.38762 1.4784 0
M  V30 5543 H 979.015 8.36803 2.32493 0
M  V30 5544 H 978.745 6.70197 1.71129 0
M  V30 5545 H 979.612 7.03551 4.13168 0
M  V30 5546 P 983.574 7.20834 5.23717 0
M  V30 5547 O 983.794 7.79853 6.57286 0
M  V30 5548 O 984.364 7.79239 4.12957 0
M  V30 5549 O 983.824 5.63315 5.29344 0
M  V30 5550 C 982.884 4.80255 6.01876 0
M  V30 5551 C 983.614 3.64202 6.65911 0
M  V30 5552 O 983.824 2.60694 5.64732 0
M  V30 5553 C 985.014 3.93473 7.1943 0
M  V30 5554 O 985.404 3.02071 8.21205 0
M  V30 5555 C 985.894 3.73047 5.97036 0
M  V30 5556 C 985.184 2.58828 5.25741 0
M  V30 5557 N 985.234 2.68068 3.77503 0
M  V30 5558 H 982.395 5.40332 6.79951 0
M  V30 5559 H 982.125 4.41613 5.32378 0
M  V30 5560 H 982.992 3.26331 7.47797 0
M  V30 5561 P 986.954 2.75334 8.47391 0
M  V30 5562 O 987.174 2.44571 9.90142 0
M  V30 5563 O 987.744 3.87688 7.92115 0
M  V30 5564 O 987.204 1.4459 7.59357 0
M  V30 5565 C 986.264 0.347608 7.69215 0
M  V30 5566 C 986.994 -0.96767 7.52806 0
M  V30 5567 O 987.204 -1.21036 6.1011 0
M  V30 5568 C 988.394 -1.04544 8.13308 0
M  V30 5569 O 988.784 -2.38311 8.41922 0
M  V30 5570 C 989.274 -0.491279 7.02284 0
M  V30 5571 C 988.564 -0.996264 5.77469 0
M  V30 5572 N 988.614 -0.0501916 4.62973 0
M  V30 5573 H 985.775 0.374722 8.67691 0
M  V30 5574 H 985.505 0.443485 6.90277 0
M  V30 5575 H 986.372 -1.75537 7.96793 0
M  V30 5576 P 990.334 -2.75334 8.47391 0
M  V30 5577 O 990.554 -3.84128 9.44797 0
M  V30 5578 O 991.124 -1.51947 8.68712 0
M  V30 5579 O 990.584 -3.29363 6.99321 0
M  V30 5580 C 989.644 -4.24011 6.4274 0
M  V30 5581 C 990.374 -5.20775 5.52155 0
M  V30 5582 O 990.584 -4.56534 4.22446 0
M  V30 5583 C 991.774 -5.62629 5.96531 0
M  V30 5584 O 992.164 -6.87667 5.41053 0
M  V30 5585 C 992.654 -4.52537 5.39283 0
M  V30 5586 C 991.944 -4.20027 4.08623 0
M  V30 5587 N 991.994 -2.76189 3.71603 0
M  V30 5588 H 989.155 -4.797 7.24003 0
M  V30 5589 H 988.885 -3.69856 5.84513 0
M  V30 5590 H 989.752 -6.10356 5.41441 0
M  V30 5591 P 993.714 -7.20834 5.23717 0
M  V30 5592 O 993.934 -8.66104 5.38572 0
M  V30 5593 O 994.504 -6.33544 6.1349 0
M  V30 5594 O 993.964 -6.7751 3.72168 0
M  V30 5595 C 993.024 -7.20825 2.7076 0
M  V30 5596 C 993.754 -7.45864 1.40599 0
M  V30 5597 O 993.964 -6.17651 0.734225 0
M  V30 5598 C 995.154 -8.05808 1.51899 0
M  V30 5599 O 995.544 -8.74358 0.335205 0
M  V30 5600 C 996.034 -6.83093 1.70294 0
M  V30 5601 C 995.324 -5.79992 0.836974 0
M  V30 5602 N 995.374 -4.41864 1.38293 0
M  V30 5603 H 992.535 -8.13644 3.0377 0
M  V30 5604 H 992.265 -6.42788 2.55485 0
M  V30 5605 H 993.132 -8.12039 0.792769 0
M  V30 5606 P 997.094 -8.91 -7.50109e-12 0
M  V30 5607 O 997.314 -10.1726 -0.733694 0
M  V30 5608 O 997.884 -8.73148 1.23936 0
M  V30 5609 O 997.344 -7.66872 -0.971405 0
M  V30 5610 C 996.404 -7.42309 -2.04641 0
M  V30 5611 C 997.134 -6.86059 -3.24661 0
M  V30 5612 O 997.344 -5.42847 -3.03646 0
M  V30 5613 C 998.534 -7.41196 -3.50753 0
M  V30 5614 O 998.924 -7.27073 -4.86816 0
M  V30 5615 C 999.414 -6.5273 -2.63741 0
M  V30 5616 C 998.704 -5.1842 -2.73198 0
M  V30 5617 N 998.754 -4.38762 -1.4784 0
M  V30 5618 H 995.915 -8.36803 -2.32493 0
M  V30 5619 H 995.645 -6.70197 -1.71129 0
M  V30 5620 H 996.512 -7.03551 -4.13168 0
M  V30 5621 P 1000.47 -7.20834 -5.23717 0
M  V30 5622 O 1000.69 -7.79853 -6.57286 0
M  V30 5623 O 1001.26 -7.79239 -4.12957 0
M  V30 5624 O 1000.72 -5.63315 -5.29344 0
M  V30 5625 C 999.784 -4.80255 -6.01876 0
M  V30 5626 C 1000.51 -3.64202 -6.65911 0
M  V30 5627 O 1000.72 -2.60694 -5.64732 0
M  V30 5628 C 1001.91 -3.93473 -7.1943 0
M  V30 5629 O 1002.3 -3.02071 -8.21205 0
M  V30 5630 C 1002.79 -3.73047 -5.97036 0
M  V30 5631 C 1002.08 -2.58828 -5.25741 0
M  V30 5632 N 1002.13 -2.68068 -3.77503 0
M  V30 5633 H 999.295 -5.40332 -6.79951 0
M  V30 5634 H 999.025 -4.41613 -5.32378 0
M  V30 5635 H 999.892 -3.26331 -7.47797 0
M  V30 5636 P 1003.85 -2.75334 -8.47391 0
M  V30 5637 O 1004.07 -2.44571 -9.90142 0
M  V30 5638 O 1004.64 -3.87688 -7.92115 0
M  V30 5639 O 1004.1 -1.4459 -7.59357 0
M  V30 5640 C 1003.16 -0.347608 -7.69215 0
M  V30 5641 C 1003.89 0.96767 -7.52806 0
M  V30 5642 O 1004.1 1.21036 -6.1011 0
M  V30 5643 C 1005.29 1.04544 -8.13308 0
M  V30 5644 O 1005.68 2.38311 -8.41922 0
M  V30 5645 C 1006.17 0.491279 -7.02284 0
M  V30 5646 C 1005.46 0.996264 -5.77469 0
M  V30 5647 N 1005.51 0.0501916 -4.62973 0
M  V30 5648 H 1002.68 -0.374722 -8.67691 0
M  V30 5649 H 1002.41 -0.443485 -6.90277 0
M  V30 5650 H 1003.27 1.75537 -7.96793 0
M  V30 5651 P 1007.23 2.75334 -8.47391 0
M  V30 5652 O 1007.45 3.84128 -9.44797 0
M  V30 5653 O 1008.02 1.51947 -8.68712 0
M  V30 5654 O 1007.48 3.29363 -6.99321 0
M  V30 5655 C 1006.54 4.24011 -6.4274 0
M  V30 5656 C 1007.27 5.20775 -5.52155 0
M  V30 5657 O 1007.48 4.56534 -4.22446 0
M  V30 5658 C 1008.67 5.62629 -5.96531 0
M  V30 5659 O 1009.06 6.87667 -5.41053 0
M  V30 5660 C 1009.55 4.52537 -5.39283 0
M  V30 5661 C 1008.84 4.20027 -4.08623 0
M  V30 5662 N 1008.89 2.76189 -3.71603 0
M  V30 5663 H 1006.06 4.797 -7.24003 0
M  V30 5664 H 1005.79 3.69856 -5.84513 0
M  V30 5665 H 1006.65 6.10356 -5.41441 0
M  V30 5666 P 1010.61 7.20834 -5.23717 0
M  V30 5667 O 1010.83 8.66104 -5.38572 0
M  V30 5668 O 1011.4 6.33544 -6.1349 0
M  V30 5669 O 1010.86 6.7751 -3.72168 0
M  V30 5670 C 1009.92 7.20825 -2.7076 0
M  V30 5671 C 1010.65 7.45864 -1.40599 0
M  V30 5672 O 1010.86 6.17651 -0.734225 0
M  V30 5673 C 1012.05 8.05808 -1.51899 0
M  V30 5674 O 1012.44 8.74358 -0.335205 0
M  V30 5675 C 1012.93 6.83093 -1.70294 0
M  V30 5676 C 1012.22 5.79992 -0.836974 0
M  V30 5677 N 1012.27 4.41864 -1.38293 0
M  V30 5678 C 1012.19 3.99538 -2.69438 0
M  V30 5679 N 1012.27 2.69909 -2.84277 0
M  V30 5680 C 1012.41 2.21719 -1.5408 0
M  V30 5681 C 1012.54 0.891712 -1.06628 0
M  V30 5682 N 1012.66 0.856846 0.334985 0
M  V30 5683 C 1012.66 1.9641 1.15789 0
M  V30 5684 N 1012.79 1.72708 2.46522 0
M  V30 5685 N 1012.53 3.21165 0.713741 0
M  V30 5686 C 1012.41 3.26797 -0.639748 0
M  V30 5687 H 1009.44 8.13644 -3.0377 0
M  V30 5688 H 1009.17 6.42788 -2.55485 0
M  V30 5689 H 1010.03 8.12039 -0.792769 0
M  V30 5690 P 1013.99 8.91 7.65827e-12 0
M  V30 5691 O 1014.21 10.1726 0.733694 0
M  V30 5692 O 1014.78 8.73148 -1.23936 0
M  V30 5693 O 1014.24 7.66872 0.971405 0
M  V30 5694 C 1013.3 7.42309 2.04641 0
M  V30 5695 C 1014.03 6.86059 3.24661 0
M  V30 5696 O 1014.24 5.42847 3.03646 0
M  V30 5697 C 1015.43 7.41196 3.50753 0
M  V30 5698 O 1015.82 7.27073 4.86816 0
M  V30 5699 C 1016.31 6.5273 2.63741 0
M  V30 5700 C 1015.6 5.1842 2.73198 0
M  V30 5701 N 1015.65 4.38762 1.4784 0
M  V30 5702 H 1012.82 8.36803 2.32493 0
M  V30 5703 H 1012.55 6.70197 1.71129 0
M  V30 5704 H 1013.41 7.03551 4.13168 0
M  V30 5705 P 1017.37 7.20834 5.23717 0
M  V30 5706 O 1017.59 7.79853 6.57286 0
M  V30 5707 O 1018.16 7.79239 4.12957 0
M  V30 5708 O 1017.62 5.63315 5.29344 0
M  V30 5709 C 1016.68 4.80255 6.01876 0
M  V30 5710 C 1017.41 3.64202 6.65911 0
M  V30 5711 O 1017.62 2.60694 5.64732 0
M  V30 5712 C 1018.81 3.93473 7.1943 0
M  V30 5713 O 1019.2 3.02071 8.21205 0
M  V30 5714 C 1019.69 3.73047 5.97036 0
M  V30 5715 C 1018.98 2.58828 5.25741 0
M  V30 5716 N 1019.03 2.68068 3.77503 0
M  V30 5717 H 1016.19 5.40332 6.79951 0
M  V30 5718 H 1015.92 4.41613 5.32378 0
M  V30 5719 H 1016.79 3.26331 7.47797 0
M  V30 5720 P 1020.75 2.75334 8.47391 0
M  V30 5721 O 1020.97 2.44571 9.90142 0
M  V30 5722 O 1021.54 3.87688 7.92115 0
M  V30 5723 O 1021 1.4459 7.59357 0
M  V30 5724 C 1020.06 0.347608 7.69215 0
M  V30 5725 C 1020.79 -0.96767 7.52806 0
M  V30 5726 O 1021 -1.21036 6.1011 0
M  V30 5727 C 1022.19 -1.04544 8.13308 0
M  V30 5728 O 1022.58 -2.38311 8.41922 0
M  V30 5729 C 1023.07 -0.491279 7.02284 0
M  V30 5730 C 1022.36 -0.996264 5.77469 0
M  V30 5731 N 1022.41 -0.0501916 4.62973 0
M  V30 5732 H 1019.57 0.374722 8.67691 0
M  V30 5733 H 1019.3 0.443485 6.90277 0
M  V30 5734 H 1020.17 -1.75537 7.96793 0
M  V30 5735 P 1024.13 -2.75334 8.47391 0
M  V30 5736 O 1024.35 -3.84128 9.44797 0
M  V30 5737 O 1024.92 -1.51947 8.68712 0
M  V30 5738 O 1024.38 -3.29363 6.99321 0
M  V30 5739 C 1023.44 -4.24011 6.4274 0
M  V30 5740 C 1024.17 -5.20775 5.52155 0
M  V30 5741 O 1024.38 -4.56534 4.22446 0
M  V30 5742 C 1025.57 -5.62629 5.96531 0
M  V30 5743 O 1025.96 -6.87667 5.41053 0
M  V30 5744 C 1026.45 -4.52537 5.39283 0
M  V30 5745 C 1025.74 -4.20027 4.08623 0
M  V30 5746 N 1025.79 -2.76189 3.71603 0
M  V30 5747 H 1022.95 -4.797 7.24003 0
M  V30 5748 H 1022.68 -3.69856 5.84513 0
M  V30 5749 H 1023.55 -6.10356 5.41441 0
M  V30 5750 P 1027.51 -7.20834 5.23717 0
M  V30 5751 O 1027.73 -8.66104 5.38572 0
M  V30 5752 O 1028.3 -6.33544 6.1349 0
M  V30 5753 O 1027.76 -6.7751 3.72168 0
M  V30 5754 C 1026.82 -7.20825 2.7076 0
M  V30 5755 C 1027.55 -7.45864 1.40599 0
M  V30 5756 O 1027.76 -6.17651 0.734225 0
M  V30 5757 C 1028.95 -8.05808 1.51899 0
M  V30 5758 O 1029.34 -8.74358 0.335205 0
M  V30 5759 C 1029.83 -6.83093 1.70294 0
M  V30 5760 C 1029.12 -5.79992 0.836974 0
M  V30 5761 N 1029.17 -4.41864 1.38293 0
M  V30 5762 H 1026.33 -8.13644 3.0377 0
M  V30 5763 H 1026.06 -6.42788 2.55485 0
M  V30 5764 H 1026.93 -8.12039 0.792769 0
M  V30 5765 P 1030.89 -8.91 -7.81545e-12 0
M  V30 5766 O 1031.11 -10.1726 -0.733694 0
M  V30 5767 O 1031.68 -8.73148 1.23936 0
M  V30 5768 O 1031.14 -7.66872 -0.971405 0
M  V30 5769 C 1030.2 -7.42309 -2.04641 0
M  V30 5770 C 1030.93 -6.86059 -3.24661 0
M  V30 5771 O 1031.14 -5.42847 -3.03646 0
M  V30 5772 C 1032.33 -7.41196 -3.50753 0
M  V30 5773 O 1032.72 -7.27073 -4.86816 0
M  V30 5774 C 1033.21 -6.5273 -2.63741 0
M  V30 5775 C 1032.5 -5.1842 -2.73198 0
M  V30 5776 N 1032.55 -4.38762 -1.4784 0
M  V30 5777 H 1029.71 -8.36803 -2.32493 0
M  V30 5778 H 1029.44 -6.70197 -1.71129 0
M  V30 5779 H 1030.31 -7.03551 -4.13168 0
M  V30 5780 P 1034.27 -7.20834 -5.23717 0
M  V30 5781 O 1034.49 -7.79853 -6.57286 0
M  V30 5782 O 1035.06 -7.79239 -4.12957 0
M  V30 5783 O 1034.52 -5.63315 -5.29344 0
M  V30 5784 C 1033.58 -4.80255 -6.01876 0
M  V30 5785 C 1034.31 -3.64202 -6.65911 0
M  V30 5786 O 1034.52 -2.60694 -5.64732 0
M  V30 5787 C 1035.71 -3.93473 -7.1943 0
M  V30 5788 O 1036.1 -3.02071 -8.21205 0
M  V30 5789 C 1036.59 -3.73047 -5.97036 0
M  V30 5790 C 1035.88 -2.58828 -5.25741 0
M  V30 5791 N 1035.93 -2.68068 -3.77503 0
M  V30 5792 H 1033.09 -5.40332 -6.79951 0
M  V30 5793 H 1032.82 -4.41613 -5.32378 0
M  V30 5794 H 1033.69 -3.26331 -7.47797 0
M  V30 5795 P 1037.65 -2.75334 -8.47391 0
M  V30 5796 O 1037.87 -2.44595 -9.90239 0
M  V30 5797 O 1038.44 -3.87732 -7.92204 0
M  V30 5798 O 1037.9 -1.4459 -7.59357 0
M  V30 5799 C 1036.96 -0.347563 -7.69115 0
M  V30 5800 C 1037.69 0.96767 -7.52806 0
M  V30 5801 O 1037.9 1.21036 -6.1011 0
M  V30 5802 C 1039.09 1.04544 -8.13308 0
M  V30 5803 O 1039.48 2.38311 -8.41922 0
M  V30 5804 C 1039.97 0.491279 -7.02284 0
M  V30 5805 C 1039.26 0.996264 -5.77469 0
M  V30 5806 N 1039.31 0.0501808 -4.62873 0
M  V30 5807 C 1039.46 0.588177 -3.36904 0
M  V30 5808 O 1039.55 1.78598 -3.17173 0
M  V30 5809 N 1039.5 -0.329694 -2.33686 0
M  V30 5810 C 1039.41 -1.6953 -2.45079 0
M  V30 5811 O 1039.46 -2.41926 -1.44899 0
M  V30 5812 C 1039.26 -2.16933 -3.80505 0
M  V30 5813 C 1039.15 -3.65373 -3.97621 0
M  V30 5814 C 1039.21 -1.30326 -4.83752 0
M  V30 5815 H 1036.47 -0.374722 -8.67691 0
M  V30 5816 H 1036.2 -0.443421 -6.90177 0
M  V30 5817 H 1037.07 1.75537 -7.96793 0
M  V30 5818 H 1039.73 1.94496 -5.46629 0
M  V30 5819 H 1040.01 -0.608651 -7.04676 0
M  V30 5820 H 1041 0.889672 -7.08939 0
M  V30 5821 H 1039.16 0.43308 -9.04564 0
M  V30 5822 H 1039.09 -1.68366 -5.8516 0
M  V30 5823 H 1040.12 -4.05985 -4.30448 0
M  V30 5824 H 1038.39 -3.88028 -4.72875 0
M  V30 5825 H 1038.87 -4.11381 -3.01609 0
M  V30 5826 H 1039.61 0.0393617 -1.41345 0
M  V30 5827 P 1041.03 2.75334 -8.47391 0
M  V30 5828 O 1041.25 3.84128 -9.44797 0
M  V30 5829 O 1041.82 1.51947 -8.68712 0
M  V30 5830 O 1041.28 3.29363 -6.99321 0
M  V30 5831 C 1040.34 4.24011 -6.4274 0
M  V30 5832 C 1041.07 5.20775 -5.52155 0
M  V30 5833 O 1041.28 4.56534 -4.22446 0
M  V30 5834 C 1042.47 5.62629 -5.96531 0
M  V30 5835 O 1042.86 6.87667 -5.41053 0
M  V30 5836 C 1043.35 4.52537 -5.39283 0
M  V30 5837 C 1042.64 4.20027 -4.08623 0
M  V30 5838 N 1042.69 2.76189 -3.71603 0
M  V30 5839 H 1039.85 4.797 -7.24003 0
M  V30 5840 H 1039.58 3.69856 -5.84513 0
M  V30 5841 H 1040.45 6.10356 -5.41441 0
M  V30 5842 P 1044.41 7.20834 -5.23717 0
M  V30 5843 O 1044.63 8.66104 -5.38572 0
M  V30 5844 O 1045.2 6.33544 -6.1349 0
M  V30 5845 O 1044.66 6.7751 -3.72168 0
M  V30 5846 C 1043.72 7.20825 -2.7076 0
M  V30 5847 C 1044.45 7.45864 -1.40599 0
M  V30 5848 O 1044.66 6.17651 -0.734225 0
M  V30 5849 C 1045.85 8.05808 -1.51899 0
M  V30 5850 O 1046.24 8.74358 -0.335205 0
M  V30 5851 C 1046.73 6.83093 -1.70294 0
M  V30 5852 C 1046.02 5.79992 -0.836974 0
M  V30 5853 N 1046.07 4.41864 -1.38293 0
M  V30 5854 H 1043.23 8.13644 -3.0377 0
M  V30 5855 H 1042.96 6.42788 -2.55485 0
M  V30 5856 H 1043.83 8.12039 -0.792769 0
M  V30 5857 P 1047.79 8.91 7.97264e-12 0
M  V30 5858 O 1048.01 10.1726 0.733694 0
M  V30 5859 O 1048.58 8.73148 -1.23936 0
M  V30 5860 O 1048.04 7.66872 0.971405 0
M  V30 5861 C 1047.1 7.42309 2.04641 0
M  V30 5862 C 1047.83 6.86059 3.24661 0
M  V30 5863 O 1048.04 5.42847 3.03646 0
M  V30 5864 C 1049.23 7.41196 3.50753 0
M  V30 5865 O 1049.62 7.27073 4.86816 0
M  V30 5866 C 1050.11 6.5273 2.63741 0
M  V30 5867 C 1049.4 5.1842 2.73198 0
M  V30 5868 N 1049.45 4.38762 1.4784 0
M  V30 5869 H 1046.61 8.36803 2.32493 0
M  V30 5870 H 1046.34 6.70197 1.71129 0
M  V30 5871 H 1047.21 7.03551 4.13168 0
M  V30 5872 P 1051.17 7.20834 5.23717 0
M  V30 5873 O 1051.39 7.79853 6.57286 0
M  V30 5874 O 1051.96 7.79239 4.12957 0
M  V30 5875 O 1051.42 5.63315 5.29344 0
M  V30 5876 C 1050.48 4.80255 6.01876 0
M  V30 5877 C 1051.21 3.64202 6.65911 0
M  V30 5878 O 1051.42 2.60694 5.64732 0
M  V30 5879 C 1052.61 3.93473 7.1943 0
M  V30 5880 O 1053 3.02071 8.21205 0
M  V30 5881 C 1053.49 3.73047 5.97036 0
M  V30 5882 C 1052.78 2.58828 5.25741 0
M  V30 5883 N 1052.83 2.68068 3.77503 0
M  V30 5884 H 1049.99 5.40332 6.79951 0
M  V30 5885 H 1049.72 4.41613 5.32378 0
M  V30 5886 H 1050.59 3.26331 7.47797 0
M  V30 5887 P 1054.55 2.75334 8.47391 0
M  V30 5888 O 1054.77 2.44619 9.90336 0
M  V30 5889 O 1055.34 3.87776 7.92294 0
M  V30 5890 O 1054.8 1.4459 7.59357 0
M  V30 5891 C 1053.86 0.347653 7.69315 0
M  V30 5892 C 1054.59 -0.96767 7.52806 0
M  V30 5893 O 1054.8 -1.21055 6.10208 0
M  V30 5894 C 1055.99 -1.04557 8.13408 0
M  V30 5895 O 1056.38 -2.38311 8.41922 0
M  V30 5896 C 1056.87 -0.491279 7.02284 0
M  V30 5897 C 1056.16 -0.996264 5.77469 0
M  V30 5898 N 1056.21 -0.0501916 4.62973 0
M  V30 5899 H 1053.38 0.374765 8.67791 0
M  V30 5900 H 1053.1 0.443613 6.90476 0
M  V30 5901 H 1053.97 -1.75559 7.96891 0
M  V30 5902 H 1056.63 -1.94563 5.46818 0
M  V30 5903 H 1056.91 0.608651 7.04676 0
M  V30 5904 H 1057.9 -0.889796 7.09039 0
M  V30 5905 H 1056.06 -0.433128 9.04664 0
M  V30 5906 P 1057.93 -2.75334 8.47391 0
M  V30 5907 O 1058.15 -3.84128 9.44797 0
M  V30 5908 O 1058.72 -1.51947 8.68712 0
M  V30 5909 O 1058.18 -3.29363 6.99321 0
M  V30 5910 C 1057.24 -4.24011 6.4274 0
M  V30 5911 C 1057.97 -5.20775 5.52155 0
M  V30 5912 O 1058.18 -4.56534 4.22446 0
M  V30 5913 C 1059.37 -5.62629 5.96531 0
M  V30 5914 O 1059.76 -6.87667 5.41053 0
M  V30 5915 C 1060.25 -4.52537 5.39283 0
M  V30 5916 C 1059.54 -4.20027 4.08623 0
M  V30 5917 N 1059.59 -2.76189 3.71603 0
M  V30 5918 H 1056.75 -4.797 7.24003 0
M  V30 5919 H 1056.48 -3.69856 5.84513 0
M  V30 5920 H 1057.35 -6.10356 5.41441 0
M  V30 5921 P 1061.31 -7.20834 5.23717 0
M  V30 5922 O 1061.53 -8.66104 5.38572 0
M  V30 5923 O 1062.1 -6.33544 6.1349 0
M  V30 5924 O 1061.56 -6.7751 3.72168 0
M  V30 5925 C 1060.62 -7.20825 2.7076 0
M  V30 5926 C 1061.35 -7.45864 1.40599 0
M  V30 5927 O 1061.56 -6.17651 0.734225 0
M  V30 5928 C 1062.75 -8.05808 1.51899 0
M  V30 5929 O 1063.14 -8.74358 0.335205 0
M  V30 5930 C 1063.63 -6.83093 1.70294 0
M  V30 5931 C 1062.92 -5.79992 0.836974 0
M  V30 5932 N 1062.97 -4.41864 1.38293 0
M  V30 5933 H 1060.13 -8.13644 3.0377 0
M  V30 5934 H 1059.86 -6.42788 2.55485 0
M  V30 5935 H 1060.73 -8.12039 0.792769 0
M  V30 5936 P 1064.69 -8.91 -8.12982e-12 0
M  V30 5937 O 1064.91 -10.1746 -0.733838 0
M  V30 5938 O 1065.48 -8.73346 1.23964 0
M  V30 5939 O 1064.94 -7.66872 -0.971405 0
M  V30 5940 C 1064 -7.42405 -2.04668 0
M  V30 5941 C 1064.73 -6.86059 -3.24661 0
M  V30 5942 O 1064.94 -5.42934 -3.03695 0
M  V30 5943 C 1066.13 -7.41287 -3.50796 0
M  V30 5944 O 1066.52 -7.27073 -4.86816 0
M  V30 5945 C 1067.01 -6.5273 -2.63741 0
M  V30 5946 C 1066.3 -5.1842 -2.73198 0
M  V30 5947 N 1066.35 -4.38762 -1.4784 0
M  V30 5948 C 1066.27 -4.83651 -0.183876 0
M  V30 5949 N 1066.34 -3.88759 0.699393 0
M  V30 5950 C 1066.49 -2.7404 -0.0575568 0
M  V30 5951 C 1066.62 -1.37902 0.293928 0
M  V30 5952 N 1066.63 -0.938021 1.54797 0
M  V30 5953 N 1066.74 -0.491817 -0.70549 0
M  V30 5954 C 1066.73 -0.931735 -1.95979 0
M  V30 5955 N 1066.61 -2.16017 -2.41481 0
M  V30 5956 C 1066.49 -3.02547 -1.39121 0
M  V30 5957 H 1063.52 -8.36899 -2.3252 0
M  V30 5958 H 1063.24 -6.70391 -1.71179 0
M  V30 5959 H 1064.11 -7.03638 -4.13219 0
M  V30 5960 H 1066.77 -4.59931 -3.54016 0
M  V30 5961 H 1067.05 -6.88995 -1.59871 0
M  V30 5962 H 1068.04 -6.4684 -3.0373 0
M  V30 5963 H 1066.2 -8.47002 -3.20749 0
M  V30 5964 H 1066.16 -5.8885 0.0765548 0
M  V30 5965 H 1066.54 -1.60276 2.32875 0
M  V30 5966 H 1066.73 0.0699355 1.73859 0
M  V30 5967 H 1066.84 -0.165507 -2.71897 0
M  V30 5968 P 1068.07 -7.20834 -5.23717 0
M  V30 5969 O 1068.29 -7.79853 -6.57286 0
M  V30 5970 O 1068.86 -7.79239 -4.12957 0
M  V30 5971 O 1068.32 -5.63315 -5.29344 0
M  V30 5972 C 1067.38 -4.80255 -6.01876 0
M  V30 5973 C 1068.11 -3.64202 -6.65911 0
M  V30 5974 O 1068.32 -2.60694 -5.64732 0
M  V30 5975 C 1069.51 -3.93473 -7.1943 0
M  V30 5976 O 1069.9 -3.02071 -8.21205 0
M  V30 5977 C 1070.39 -3.73047 -5.97036 0
M  V30 5978 C 1069.68 -2.58828 -5.25741 0
M  V30 5979 N 1069.73 -2.68068 -3.77503 0
M  V30 5980 H 1066.89 -5.40332 -6.79951 0
M  V30 5981 H 1066.62 -4.41613 -5.32378 0
M  V30 5982 H 1067.49 -3.26331 -7.47797 0
M  V30 5983 P 1071.45 -2.75334 -8.47391 0
M  V30 5984 O 1071.67 -2.44571 -9.90142 0
M  V30 5985 O 1072.24 -3.87688 -7.92115 0
M  V30 5986 O 1071.7 -1.4459 -7.59357 0
M  V30 5987 C 1070.76 -0.347608 -7.69215 0
M  V30 5988 C 1071.49 0.96767 -7.52806 0
M  V30 5989 O 1071.7 1.21036 -6.1011 0
M  V30 5990 C 1072.89 1.04544 -8.13308 0
M  V30 5991 O 1073.28 2.38311 -8.41922 0
M  V30 5992 C 1073.77 0.491279 -7.02284 0
M  V30 5993 C 1073.06 0.996264 -5.77469 0
M  V30 5994 N 1073.11 0.0501916 -4.62973 0
M  V30 5995 H 1070.27 -0.374722 -8.67691 0
M  V30 5996 H 1070 -0.443485 -6.90277 0
M  V30 5997 H 1070.87 1.75537 -7.96793 0
M  V30 5998 P 1074.83 2.75334 -8.47391 0
M  V30 5999 O 1075.05 3.84204 -9.44982 0
M  V30 6000 O 1075.62 1.51982 -8.68909 0
M  V30 6001 O 1075.08 3.29363 -6.99321 0
M  V30 6002 C 1074.14 4.24066 -6.42823 0
M  V30 6003 C 1074.87 5.20775 -5.52155 0
M  V30 6004 O 1075.08 4.56607 -4.22514 0
M  V30 6005 C 1076.27 5.62697 -5.96604 0
M  V30 6006 O 1076.66 6.87667 -5.41053 0
M  V30 6007 C 1077.15 4.52537 -5.39283 0
M  V30 6008 C 1076.44 4.20027 -4.08623 0
M  V30 6009 N 1076.49 2.76189 -3.71603 0
M  V30 6010 H 1073.66 4.79756 -7.24086 0
M  V30 6011 H 1073.38 3.69963 -5.84682 0
M  V30 6012 H 1074.25 6.10431 -5.41508 0
M  V30 6013 H 1076.91 4.78816 -3.28024 0
M  V30 6014 H 1077.19 3.64957 -6.05871 0
M  V30 6015 H 1078.18 4.88748 -5.21323 0
M  V30 6016 H 1076.34 5.66789 -7.0643 0
M  V30 6017 P 1078.21 7.20834 -5.23717 0
M  V30 6018 O 1078.43 8.66104 -5.38572 0
M  V30 6019 O 1079 6.33544 -6.1349 0
M  V30 6020 O 1078.46 6.7751 -3.72168 0
M  V30 6021 C 1077.52 7.20825 -2.7076 0
M  V30 6022 C 1078.25 7.45864 -1.40599 0
M  V30 6023 O 1078.46 6.17651 -0.734225 0
M  V30 6024 C 1079.65 8.05808 -1.51899 0
M  V30 6025 O 1080.04 8.74358 -0.335205 0
M  V30 6026 C 1080.53 6.83093 -1.70294 0
M  V30 6027 C 1079.82 5.79992 -0.836974 0
M  V30 6028 N 1079.87 4.41864 -1.38293 0
M  V30 6029 H 1077.03 8.13644 -3.0377 0
M  V30 6030 H 1076.76 6.42788 -2.55485 0
M  V30 6031 H 1077.63 8.12039 -0.792769 0
M  V30 6032 P 1081.59 8.91 8.287e-12 0
M  V30 6033 O 1081.81 10.1726 0.733694 0
M  V30 6034 O 1082.38 8.73148 -1.23936 0
M  V30 6035 O 1081.84 7.66872 0.971405 0
M  V30 6036 C 1080.9 7.42309 2.04641 0
M  V30 6037 C 1081.63 6.86059 3.24661 0
M  V30 6038 O 1081.84 5.42847 3.03646 0
M  V30 6039 C 1083.03 7.41196 3.50753 0
M  V30 6040 O 1083.42 7.27073 4.86816 0
M  V30 6041 C 1083.91 6.5273 2.63741 0
M  V30 6042 C 1083.2 5.1842 2.73198 0
M  V30 6043 N 1083.25 4.38762 1.4784 0
M  V30 6044 H 1080.41 8.36803 2.32493 0
M  V30 6045 H 1080.14 6.70197 1.71129 0
M  V30 6046 H 1081.01 7.03551 4.13168 0
M  V30 6047 P 1084.97 7.20834 5.23717 0
M  V30 6048 O 1085.19 7.79853 6.57286 0
M  V30 6049 O 1085.76 7.79239 4.12957 0
M  V30 6050 O 1085.22 5.63315 5.29344 0
M  V30 6051 C 1084.28 4.80255 6.01876 0
M  V30 6052 C 1085.01 3.64202 6.65911 0
M  V30 6053 O 1085.22 2.60694 5.64732 0
M  V30 6054 C 1086.41 3.93473 7.1943 0
M  V30 6055 O 1086.8 3.02071 8.21205 0
M  V30 6056 C 1087.29 3.73047 5.97036 0
M  V30 6057 C 1086.58 2.58828 5.25741 0
M  V30 6058 N 1086.63 2.68068 3.77503 0
M  V30 6059 H 1083.79 5.40332 6.79951 0
M  V30 6060 H 1083.52 4.41613 5.32378 0
M  V30 6061 H 1084.39 3.26331 7.47797 0
M  V30 6062 P 1088.35 2.75334 8.47391 0
M  V30 6063 O 1088.57 2.44595 9.90239 0
M  V30 6064 O 1089.14 3.87732 7.92204 0
M  V30 6065 O 1088.6 1.4459 7.59357 0
M  V30 6066 C 1087.66 0.347563 7.69115 0
M  V30 6067 C 1088.39 -0.96767 7.52806 0
M  V30 6068 O 1088.6 -1.21036 6.1011 0
M  V30 6069 C 1089.79 -1.04544 8.13308 0
M  V30 6070 O 1090.18 -2.38311 8.41922 0
M  V30 6071 C 1090.67 -0.491279 7.02284 0
M  V30 6072 C 1089.96 -0.996264 5.77469 0
M  V30 6073 N 1090.01 -0.0501808 4.62873 0
M  V30 6074 C 1090.16 -0.588177 3.36904 0
M  V30 6075 O 1090.25 -1.78598 3.17173 0
M  V30 6076 N 1090.2 0.329694 2.33686 0
M  V30 6077 C 1090.11 1.6953 2.45079 0
M  V30 6078 O 1090.16 2.41926 1.44899 0
M  V30 6079 C 1089.96 2.16933 3.80505 0
M  V30 6080 C 1089.85 3.65373 3.97621 0
M  V30 6081 C 1089.91 1.30326 4.83752 0
M  V30 6082 H 1087.17 0.374722 8.67691 0
M  V30 6083 H 1086.9 0.443421 6.90177 0
M  V30 6084 H 1087.77 -1.75537 7.96793 0
M  V30 6085 H 1090.43 -1.94496 5.46629 0
M  V30 6086 H 1090.71 0.608651 7.04676 0
M  V30 6087 H 1091.7 -0.889672 7.08939 0
M  V30 6088 H 1089.86 -0.43308 9.04564 0
M  V30 6089 H 1089.79 1.68366 5.8516 0
M  V30 6090 H 1090.82 4.05985 4.30448 0
M  V30 6091 H 1089.09 3.88028 4.72875 0
M  V30 6092 H 1089.57 4.11381 3.01609 0
M  V30 6093 H 1090.31 -0.0393617 1.41345 0
M  V30 6094 P 1091.73 -2.75334 8.47391 0
M  V30 6095 O 1091.95 -3.84128 9.44797 0
M  V30 6096 O 1092.52 -1.51947 8.68712 0
M  V30 6097 O 1091.98 -3.29363 6.99321 0
M  V30 6098 C 1091.04 -4.24011 6.4274 0
M  V30 6099 C 1091.77 -5.20775 5.52155 0
M  V30 6100 O 1091.98 -4.56534 4.22446 0
M  V30 6101 C 1093.17 -5.62629 5.96531 0
M  V30 6102 O 1093.56 -6.87667 5.41053 0
M  V30 6103 C 1094.05 -4.52537 5.39283 0
M  V30 6104 C 1093.34 -4.20027 4.08623 0
M  V30 6105 N 1093.39 -2.76189 3.71603 0
M  V30 6106 H 1090.55 -4.797 7.24003 0
M  V30 6107 H 1090.28 -3.69856 5.84513 0
M  V30 6108 H 1091.15 -6.10356 5.41441 0
M  V30 6109 P 1095.11 -7.20834 5.23717 0
M  V30 6110 O 1095.33 -8.66104 5.38572 0
M  V30 6111 O 1095.9 -6.33544 6.1349 0
M  V30 6112 O 1095.36 -6.7751 3.72168 0
M  V30 6113 C 1094.42 -7.20825 2.7076 0
M  V30 6114 C 1095.15 -7.45864 1.40599 0
M  V30 6115 O 1095.36 -6.17651 0.734225 0
M  V30 6116 C 1096.55 -8.05808 1.51899 0
M  V30 6117 O 1096.94 -8.74358 0.335205 0
M  V30 6118 C 1097.43 -6.83093 1.70294 0
M  V30 6119 C 1096.72 -5.79992 0.836974 0
M  V30 6120 N 1096.77 -4.41864 1.38293 0
M  V30 6121 C 1096.69 -3.99538 2.69438 0
M  V30 6122 N 1096.77 -2.69909 2.84277 0
M  V30 6123 C 1096.91 -2.21719 1.5408 0
M  V30 6124 C 1097.04 -0.891712 1.06628 0
M  V30 6125 N 1097.16 -0.856846 -0.334985 0
M  V30 6126 C 1097.16 -1.9641 -1.15789 0
M  V30 6127 N 1097.29 -1.72708 -2.46522 0
M  V30 6128 N 1097.03 -3.21165 -0.713741 0
M  V30 6129 C 1096.91 -3.26797 0.639748 0
M  V30 6130 H 1093.93 -8.13644 3.0377 0
M  V30 6131 H 1093.66 -6.42788 2.55485 0
M  V30 6132 H 1094.53 -8.12039 0.792769 0
M  V30 6133 P 1098.49 -8.91 -8.44418e-12 0
M  V30 6134 O 1098.71 -10.1726 -0.733694 0
M  V30 6135 O 1099.28 -8.73148 1.23936 0
M  V30 6136 O 1098.74 -7.66872 -0.971405 0
M  V30 6137 C 1097.8 -7.42309 -2.04641 0
M  V30 6138 C 1098.53 -6.86059 -3.24661 0
M  V30 6139 O 1098.74 -5.42847 -3.03646 0
M  V30 6140 C 1099.93 -7.41196 -3.50753 0
M  V30 6141 O 1100.32 -7.27073 -4.86816 0
M  V30 6142 C 1100.81 -6.5273 -2.63741 0
M  V30 6143 C 1100.1 -5.1842 -2.73198 0
M  V30 6144 N 1100.15 -4.38762 -1.4784 0
M  V30 6145 H 1097.31 -8.36803 -2.32493 0
M  V30 6146 H 1097.04 -6.70197 -1.71129 0
M  V30 6147 H 1097.91 -7.03551 -4.13168 0
M  V30 6148 P 1101.87 -7.20834 -5.23717 0
M  V30 6149 O 1102.09 -7.79853 -6.57286 0
M  V30 6150 O 1102.66 -7.79239 -4.12957 0
M  V30 6151 O 1102.12 -5.63315 -5.29344 0
M  V30 6152 C 1101.18 -4.80255 -6.01876 0
M  V30 6153 C 1101.91 -3.64202 -6.65911 0
M  V30 6154 O 1102.12 -2.60694 -5.64732 0
M  V30 6155 C 1103.31 -3.93473 -7.1943 0
M  V30 6156 O 1103.7 -3.02071 -8.21205 0
M  V30 6157 C 1104.19 -3.73047 -5.97036 0
M  V30 6158 C 1103.48 -2.58828 -5.25741 0
M  V30 6159 N 1103.53 -2.68068 -3.77503 0
M  V30 6160 H 1100.69 -5.40332 -6.79951 0
M  V30 6161 H 1100.42 -4.41613 -5.32378 0
M  V30 6162 H 1101.29 -3.26331 -7.47797 0
M  V30 6163 P 1105.25 -2.75334 -8.47391 0
M  V30 6164 O 1105.47 -2.44571 -9.90142 0
M  V30 6165 O 1106.04 -3.87688 -7.92115 0
M  V30 6166 O 1105.5 -1.4459 -7.59357 0
M  V30 6167 C 1104.56 -0.347608 -7.69215 0
M  V30 6168 C 1105.29 0.96767 -7.52806 0
M  V30 6169 O 1105.5 1.21036 -6.1011 0
M  V30 6170 C 1106.69 1.04544 -8.13308 0
M  V30 6171 O 1107.08 2.38311 -8.41922 0
M  V30 6172 C 1107.57 0.491279 -7.02284 0
M  V30 6173 C 1106.86 0.996264 -5.77469 0
M  V30 6174 N 1106.91 0.0501916 -4.62973 0
M  V30 6175 H 1104.07 -0.374722 -8.67691 0
M  V30 6176 H 1103.8 -0.443485 -6.90277 0
M  V30 6177 H 1104.67 1.75537 -7.96793 0
M  V30 6178 P 1108.63 2.75334 -8.47391 0
M  V30 6179 O 1108.85 3.84128 -9.44797 0
M  V30 6180 O 1109.42 1.51947 -8.68712 0
M  V30 6181 O 1108.88 3.29363 -6.99321 0
M  V30 6182 C 1107.94 4.24011 -6.4274 0
M  V30 6183 C 1108.67 5.20775 -5.52155 0
M  V30 6184 O 1108.88 4.56534 -4.22446 0
M  V30 6185 C 1110.07 5.62629 -5.96531 0
M  V30 6186 O 1110.46 6.87667 -5.41053 0
M  V30 6187 C 1110.95 4.52537 -5.39283 0
M  V30 6188 C 1110.24 4.20027 -4.08623 0
M  V30 6189 N 1110.29 2.76189 -3.71603 0
M  V30 6190 H 1107.45 4.797 -7.24003 0
M  V30 6191 H 1107.18 3.69856 -5.84513 0
M  V30 6192 H 1108.05 6.10356 -5.41441 0
M  V30 6193 P 1112.01 7.20834 -5.23717 0
M  V30 6194 O 1112.23 8.66104 -5.38572 0
M  V30 6195 O 1112.8 6.33544 -6.1349 0
M  V30 6196 O 1112.26 6.7751 -3.72168 0
M  V30 6197 C 1111.32 7.20825 -2.7076 0
M  V30 6198 C 1112.05 7.45864 -1.40599 0
M  V30 6199 O 1112.26 6.17651 -0.734225 0
M  V30 6200 C 1113.45 8.05808 -1.51899 0
M  V30 6201 O 1113.84 8.74358 -0.335205 0
M  V30 6202 C 1114.33 6.83093 -1.70294 0
M  V30 6203 C 1113.62 5.79992 -0.836974 0
M  V30 6204 N 1113.67 4.41864 -1.38293 0
M  V30 6205 H 1110.83 8.13644 -3.0377 0
M  V30 6206 H 1110.56 6.42788 -2.55485 0
M  V30 6207 H 1111.43 8.12039 -0.792769 0
M  V30 6208 P 1115.39 8.91 8.60137e-12 0
M  V30 6209 O 1115.61 10.1726 0.733694 0
M  V30 6210 O 1116.18 8.73148 -1.23936 0
M  V30 6211 O 1115.64 7.66872 0.971405 0
M  V30 6212 C 1114.7 7.42309 2.04641 0
M  V30 6213 C 1115.43 6.86059 3.24661 0
M  V30 6214 O 1115.64 5.42847 3.03646 0
M  V30 6215 C 1116.83 7.41196 3.50753 0
M  V30 6216 O 1117.22 7.27073 4.86816 0
M  V30 6217 C 1117.71 6.5273 2.63741 0
M  V30 6218 C 1117 5.1842 2.73198 0
M  V30 6219 N 1117.05 4.38762 1.4784 0
M  V30 6220 H 1114.21 8.36803 2.32493 0
M  V30 6221 H 1113.94 6.70197 1.71129 0
M  V30 6222 H 1114.81 7.03551 4.13168 0
M  V30 6223 P 1118.77 7.20834 5.23717 0
M  V30 6224 O 1118.99 7.79853 6.57286 0
M  V30 6225 O 1119.56 7.79239 4.12957 0
M  V30 6226 O 1119.02 5.63315 5.29344 0
M  V30 6227 C 1118.08 4.80255 6.01876 0
M  V30 6228 C 1118.81 3.64202 6.65911 0
M  V30 6229 O 1119.02 2.60694 5.64732 0
M  V30 6230 C 1120.21 3.93473 7.1943 0
M  V30 6231 O 1120.6 3.02071 8.21205 0
M  V30 6232 C 1121.09 3.73047 5.97036 0
M  V30 6233 C 1120.38 2.58828 5.25741 0
M  V30 6234 N 1120.43 2.68068 3.77503 0
M  V30 6235 H 1117.59 5.40332 6.79951 0
M  V30 6236 H 1117.32 4.41613 5.32378 0
M  V30 6237 H 1118.19 3.26331 7.47797 0
M  V30 6238 P 1122.15 2.75334 8.47391 0
M  V30 6239 O 1122.37 2.44571 9.90142 0
M  V30 6240 O 1122.94 3.87688 7.92115 0
M  V30 6241 O 1122.4 1.4459 7.59357 0
M  V30 6242 C 1121.46 0.347608 7.69215 0
M  V30 6243 C 1122.19 -0.96767 7.52806 0
M  V30 6244 O 1122.4 -1.21036 6.1011 0
M  V30 6245 C 1123.59 -1.04544 8.13308 0
M  V30 6246 O 1123.98 -2.38311 8.41922 0
M  V30 6247 C 1124.47 -0.491279 7.02284 0
M  V30 6248 C 1123.76 -0.996264 5.77469 0
M  V30 6249 N 1123.81 -0.0501916 4.62973 0
M  V30 6250 H 1120.97 0.374722 8.67691 0
M  V30 6251 H 1120.7 0.443485 6.90277 0
M  V30 6252 H 1121.57 -1.75537 7.96793 0
M  V30 6253 P 1125.53 -2.75334 8.47391 0
M  V30 6254 O 1125.75 -3.84128 9.44797 0
M  V30 6255 O 1126.32 -1.51947 8.68712 0
M  V30 6256 O 1125.78 -3.29363 6.99321 0
M  V30 6257 C 1124.84 -4.24011 6.4274 0
M  V30 6258 C 1125.57 -5.20775 5.52155 0
M  V30 6259 O 1125.78 -4.56534 4.22446 0
M  V30 6260 C 1126.97 -5.62629 5.96531 0
M  V30 6261 O 1127.36 -6.87667 5.41053 0
M  V30 6262 C 1127.85 -4.52537 5.39283 0
M  V30 6263 C 1127.14 -4.20027 4.08623 0
M  V30 6264 N 1127.19 -2.76189 3.71603 0
M  V30 6265 H 1124.35 -4.797 7.24003 0
M  V30 6266 H 1124.08 -3.69856 5.84513 0
M  V30 6267 H 1124.95 -6.10356 5.41441 0
M  V30 6268 P 1128.91 -7.20834 5.23717 0
M  V30 6269 O 1129.13 -8.66104 5.38572 0
M  V30 6270 O 1129.7 -6.33544 6.1349 0
M  V30 6271 O 1129.16 -6.7751 3.72168 0
M  V30 6272 C 1128.22 -7.20825 2.7076 0
M  V30 6273 C 1128.95 -7.45864 1.40599 0
M  V30 6274 O 1129.16 -6.17651 0.734225 0
M  V30 6275 C 1130.35 -8.05808 1.51899 0
M  V30 6276 O 1130.74 -8.74358 0.335205 0
M  V30 6277 C 1131.23 -6.83093 1.70294 0
M  V30 6278 C 1130.52 -5.79992 0.836974 0
M  V30 6279 N 1130.57 -4.41864 1.38293 0
M  V30 6280 H 1127.73 -8.13644 3.0377 0
M  V30 6281 H 1127.46 -6.42788 2.55485 0
M  V30 6282 H 1128.33 -8.12039 0.792769 0
M  V30 6283 P 1132.29 -8.91 -8.75855e-12 0
M  V30 6284 O 1132.51 -10.1726 -0.733694 0
M  V30 6285 O 1133.08 -8.73148 1.23936 0
M  V30 6286 O 1132.54 -7.66872 -0.971405 0
M  V30 6287 C 1131.6 -7.42309 -2.04641 0
M  V30 6288 C 1132.33 -6.86059 -3.24661 0
M  V30 6289 O 1132.54 -5.42847 -3.03646 0
M  V30 6290 C 1133.73 -7.41196 -3.50753 0
M  V30 6291 O 1134.12 -7.27073 -4.86816 0
M  V30 6292 C 1134.61 -6.5273 -2.63741 0
M  V30 6293 C 1133.9 -5.1842 -2.73198 0
M  V30 6294 N 1133.95 -4.38762 -1.4784 0
M  V30 6295 H 1131.11 -8.36803 -2.32493 0
M  V30 6296 H 1130.84 -6.70197 -1.71129 0
M  V30 6297 H 1131.71 -7.03551 -4.13168 0
M  V30 6298 H 1133.99 -6.36132 -5.14416 0
M  V30 6299 H 1138.01 9.0732 2.85239 0
M  V30 6300 O 1137.89 8.67639 2.00036 0
M  V30 6301 P 1136.45 8.7635 1.60911 0
M  V30 6302 O 1136.23 10.1388 1.11561 0
M  V30 6303 O 1135.66 8.36503 2.79617 0
M  V30 6304 O 1136.2 7.71806 0.42951 0
M  V30 6305 C 1137.14 7.67148 -0.673689 0
M  V30 6306 C 1136.41 7.33374 -1.95559 0
M  V30 6307 O 1136.2 5.88721 -2.00726 0
M  V30 6308 C 1135.01 7.92526 -2.10483 0
M  V30 6309 O 1134.62 8.02971 -3.47653 0
M  V30 6310 C 1134.13 6.89602 -1.41652 0
M  V30 6311 C 1134.84 5.59201 -1.75185 0
M  V30 6312 N 1134.79 4.58235 -0.662552 0
M  V30 6313 H 1137.63 8.65116 -0.777161 0
M  V30 6314 H 1137.9 6.90173 -0.474152 0
M  V30 6315 H 1137.04 7.66548 -2.79458 0
M  V30 6316 P 1133.07 8.03563 -3.84925 0
M  V30 6317 O 1132.85 8.85821 -5.0569 0
M  V30 6318 O 1132.28 8.41101 -2.65469 0
M  V30 6319 O 1132.82 6.4965 -4.18908 0
M  V30 6320 C 1133.76 5.81037 -5.05421 0
M  V30 6321 C 1133.03 4.78366 -5.89277 0
M  V30 6322 O 1132.82 3.58302 -5.08433 0
M  V30 6323 C 1131.63 5.17448 -6.36119 0
M  V30 6324 O 1131.24 4.45271 -7.53232 0
M  V30 6325 C 1130.75 4.74639 -5.19936 0
M  V30 6326 C 1131.46 3.49432 -4.70418 0
M  V30 6327 N 1131.41 3.31776 -3.22945 0
M  V30 6328 H 1134.25 6.54213 -5.71376 0
M  V30 6329 H 1134.52 5.30492 -4.44033 0
M  V30 6330 H 1133.66 4.55889 -6.76652 0
M  V30 6331 P 1129.69 4.23843 -7.83734 0
M  V30 6332 O 1129.47 4.19407 -9.29784 0
M  V30 6333 O 1128.9 5.24426 -7.09156 0
M  V30 6334 O 1129.44 2.7935 -7.20758 0
M  V30 6335 C 1130.38 1.7299 -7.50419 0
M  V30 6336 C 1129.65 0.406376 -7.57911 0
M  V30 6337 O 1129.44 -0.0897726 -6.21935 0
M  V30 6338 C 1128.25 0.447224 -8.1878 0
M  V30 6339 O 1127.86 -0.825065 -8.71101 0
M  V30 6340 C 1127.37 0.783801 -6.99623 0
M  V30 6341 C 1128.08 0.0619192 -5.85967 0
M  V30 6342 N 1128.03 0.790462 -4.56202 0
M  V30 6343 H 1130.87 1.93423 -8.4679 0
M  V30 6344 H 1131.14 1.68852 -6.70877 0
M  V30 6345 H 1130.28 -0.289041 -8.15388 0
M  V30 6346 H 1127.62 -0.927006 -5.72848 0
M  V30 6347 H 1127.34 1.86973 -6.82036 0
M  V30 6348 H 1126.35 0.403953 -7.13357 0
M  V30 6349 H 1128.18 1.20599 -8.97534 0
M  V30 6350 P 1126.31 -1.17771 -8.83182 0
M  V30 6351 O 1126.09 -2.07206 -9.98732 0
M  V30 6352 O 1125.52 0.0743816 -8.81969 0
M  V30 6353 O 1126.06 -1.97652 -7.47304 0
M  V30 6354 C 1127 -3.01133 -7.08783 0
M  V30 6355 C 1126.27 -4.12613 -6.37049 0
M  V30 6356 O 1126.06 -3.72827 -4.97879 0
M  V30 6357 C 1124.87 -4.45085 -6.88694 0
M  V30 6358 O 1124.48 -5.7877 -6.5624 0
M  V30 6359 C 1123.99 -3.47817 -6.12078 0
M  V30 6360 C 1124.7 -3.39414 -4.77697 0
M  V30 6361 N 1124.65 -2.04615 -4.15333 0
M  V30 6362 H 1127.49 -3.41248 -7.98759 0
M  V30 6363 H 1127.76 -2.5837 -6.41742 0
M  V30 6364 H 1126.9 -5.02657 -6.42673 0
M  V30 6365 P 1122.93 -6.144 -6.45285 0
M  V30 6366 O 1122.71 -7.54673 -6.86199 0
M  V30 6367 O 1122.14 -5.12391 -7.179 0
M  V30 6368 O 1122.68 -5.99158 -4.88404 0
M  V30 6369 C 1123.62 -6.60234 -3.96415 0
M  V30 6370 C 1122.89 -7.08259 -2.72856 0
M  V30 6371 O 1122.68 -5.9427 -1.83651 0
M  V30 6372 C 1121.49 -7.64886 -2.9555 0
M  V30 6373 O 1121.1 -8.53963 -1.90717 0
M  V30 6374 C 1120.61 -6.4116 -2.90739 0
M  V30 6375 C 1121.32 -5.55375 -1.86963 0
M  V30 6376 N 1121.27 -4.09664 -2.15742 0
M  V30 6377 H 1124.11 -7.45574 -4.45629 0
M  V30 6378 H 1124.38 -5.86232 -3.67314 0
M  V30 6379 H 1123.52 -7.84412 -2.24479 0
M  V30 6380 P 1119.55 -8.7635 -1.60911 0
M  V30 6381 O 1119.33 -10.1388 -1.11561 0
M  V30 6382 O 1118.76 -8.36503 -2.79617 0
M  V30 6383 O 1119.3 -7.71806 -0.42951 0
M  V30 6384 C 1120.24 -7.67148 0.673689 0
M  V30 6385 C 1119.51 -7.33374 1.95559 0
M  V30 6386 O 1119.3 -5.88721 2.00726 0
M  V30 6387 C 1118.11 -7.92526 2.10483 0
M  V30 6388 O 1117.72 -8.02971 3.47653 0
M  V30 6389 C 1117.23 -6.89602 1.41652 0
M  V30 6390 C 1117.94 -5.59201 1.75185 0
M  V30 6391 N 1117.89 -4.58301 0.657969 0
M  V30 6392 H 1120.73 -8.65116 0.777161 0
M  V30 6393 H 1121 -6.9022 0.46725 0
M  V30 6394 H 1120.14 -7.66548 2.79458 0
M  V30 6395 H 1117.48 -5.16165 2.65183 0
M  V30 6396 H 1117.2 -7.06433 0.329384 0
M  V30 6397 H 1116.21 -6.90926 1.82021 0
M  V30 6398 H 1118.04 -8.90873 1.62657 0
M  V30 6399 P 1116.17 -8.03563 3.84925 0
M  V30 6400 O 1115.95 -8.85821 5.0569 0
M  V30 6401 O 1115.38 -8.41101 2.65469 0
M  V30 6402 O 1115.92 -6.4965 4.18908 0
M  V30 6403 C 1116.86 -5.81037 5.05421 0
M  V30 6404 C 1116.13 -4.78366 5.89277 0
M  V30 6405 O 1115.92 -3.58302 5.08433 0
M  V30 6406 C 1114.73 -5.17448 6.36119 0
M  V30 6407 O 1114.34 -4.45271 7.53232 0
M  V30 6408 C 1113.85 -4.74639 5.19936 0
M  V30 6409 C 1114.56 -3.49432 4.70418 0
M  V30 6410 N 1114.51 -3.31776 3.22945 0
M  V30 6411 H 1117.35 -6.54213 5.71376 0
M  V30 6412 H 1117.62 -5.30492 4.44033 0
M  V30 6413 H 1116.76 -4.55889 6.76652 0
M  V30 6414 P 1112.79 -4.23843 7.83734 0
M  V30 6415 O 1112.57 -4.19407 9.29784 0
M  V30 6416 O 1112 -5.24426 7.09156 0
M  V30 6417 O 1112.54 -2.7935 7.20758 0
M  V30 6418 C 1113.48 -1.7299 7.50419 0
M  V30 6419 C 1112.75 -0.406376 7.57911 0
M  V30 6420 O 1112.54 0.0897726 6.21935 0
M  V30 6421 C 1111.35 -0.447224 8.1878 0
M  V30 6422 O 1110.96 0.825065 8.71101 0
M  V30 6423 C 1110.47 -0.783801 6.99623 0
M  V30 6424 C 1111.18 -0.0619192 5.85967 0
M  V30 6425 N 1111.13 -0.7859 4.56281 0
M  V30 6426 H 1113.97 -1.93423 8.4679 0
M  V30 6427 H 1114.24 -1.68181 6.71046 0
M  V30 6428 H 1113.38 0.289041 8.15388 0
M  V30 6429 P 1109.41 1.17771 8.83182 0
M  V30 6430 O 1109.19 2.07206 9.98732 0
M  V30 6431 O 1108.62 -0.0743816 8.81969 0
M  V30 6432 O 1109.16 1.97652 7.47304 0
M  V30 6433 C 1110.1 3.01133 7.08783 0
M  V30 6434 C 1109.37 4.12613 6.37049 0
M  V30 6435 O 1109.16 3.72827 4.97879 0
M  V30 6436 C 1107.97 4.45085 6.88694 0
M  V30 6437 O 1107.58 5.7877 6.5624 0
M  V30 6438 C 1107.09 3.47817 6.12078 0
M  V30 6439 C 1107.8 3.39414 4.77697 0
M  V30 6440 N 1107.75 2.04199 4.15538 0
M  V30 6441 H 1110.59 3.41248 7.98759 0
M  V30 6442 H 1110.86 2.57728 6.42 0
M  V30 6443 H 1110 5.02657 6.42673 0
M  V30 6444 H 1107.34 4.11708 4.08956 0
M  V30 6445 H 1107.06 2.49626 6.61679 0
M  V30 6446 H 1106.07 3.8662 6.00862 0
M  V30 6447 H 1107.9 4.29991 7.97006 0
M  V30 6448 P 1106.03 6.144 6.45285 0
M  V30 6449 O 1105.81 7.54673 6.86199 0
M  V30 6450 O 1105.24 5.12391 7.179 0
M  V30 6451 O 1105.78 5.99158 4.88404 0
M  V30 6452 C 1106.72 6.60234 3.96415 0
M  V30 6453 C 1105.99 7.08259 2.72856 0
M  V30 6454 O 1105.78 5.9427 1.83651 0
M  V30 6455 C 1104.59 7.64886 2.9555 0
M  V30 6456 O 1104.2 8.53963 1.90717 0
M  V30 6457 C 1103.71 6.4116 2.90739 0
M  V30 6458 C 1104.42 5.55375 1.86963 0
M  V30 6459 N 1104.37 4.09448 2.16152 0
M  V30 6460 H 1107.21 7.45574 4.45629 0
M  V30 6461 H 1107.48 5.85864 3.679 0
M  V30 6462 H 1106.62 7.84412 2.24479 0
M  V30 6463 H 1103.96 5.73457 0.888562 0
M  V30 6464 H 1103.68 5.90877 3.88583 0
M  V30 6465 H 1102.69 6.6596 2.58858 0
M  V30 6466 H 1104.52 8.16339 3.92049 0
M  V30 6467 P 1102.65 8.7635 1.60911 0
M  V30 6468 O 1102.43 10.1388 1.11561 0
M  V30 6469 O 1101.86 8.36503 2.79617 0
M  V30 6470 O 1102.4 7.71806 0.42951 0
M  V30 6471 C 1103.34 7.67148 -0.673689 0
M  V30 6472 C 1102.61 7.33374 -1.95559 0
M  V30 6473 O 1102.4 5.88721 -2.00726 0
M  V30 6474 C 1101.21 7.92526 -2.10483 0
M  V30 6475 O 1100.82 8.02971 -3.47653 0
M  V30 6476 C 1100.33 6.89602 -1.41652 0
M  V30 6477 C 1101.04 5.59201 -1.75185 0
M  V30 6478 N 1100.99 4.58235 -0.662552 0
M  V30 6479 H 1103.83 8.65116 -0.777161 0
M  V30 6480 H 1104.1 6.90173 -0.474152 0
M  V30 6481 H 1103.24 7.66548 -2.79458 0
M  V30 6482 P 1099.27 8.03563 -3.84925 0
M  V30 6483 O 1099.05 8.85821 -5.0569 0
M  V30 6484 O 1098.48 8.41101 -2.65469 0
M  V30 6485 O 1099.02 6.4965 -4.18908 0
M  V30 6486 C 1099.96 5.80886 -5.05289 0
M  V30 6487 C 1099.23 4.78366 -5.89277 0
M  V30 6488 O 1099.02 3.58302 -5.08433 0
M  V30 6489 C 1097.83 5.16748 -6.36559 0
M  V30 6490 O 1097.44 4.45271 -7.53232 0
M  V30 6491 C 1096.95 4.74572 -5.19863 0
M  V30 6492 C 1097.66 3.49373 -4.70338 0
M  V30 6493 N 1097.61 3.31704 -3.22876 0
M  V30 6494 C 1097.46 2.03326 -2.74871 0
M  V30 6495 O 1097.37 1.06486 -3.48076 0
M  V30 6496 N 1097.42 1.91838 -1.37456 0
M  V30 6497 C 1097.51 2.94295 -0.462035 0
M  V30 6498 C 1097.66 4.25064 -1.05249 0
M  V30 6499 C 1097.71 4.40214 -2.39192 0
M  V30 6500 H 1100.45 6.54063 -5.71245 0
M  V30 6501 H 1100.72 5.30339 -4.43905 0
M  V30 6502 H 1099.86 4.55889 -6.76652 0
M  V30 6503 H 1097.2 2.6167 -5.17842 0
M  V30 6504 H 1096.92 5.52155 -4.41878 0
M  V30 6505 H 1095.93 4.51918 -5.53297 0
M  V30 6506 H 1097.76 6.25055 -6.55162 0
M  V30 6507 H 1097.84 5.39798 -2.81523 0
M  V30 6508 P 1095.89 4.23843 -7.83734 0
M  V30 6509 O 1095.67 4.19407 -9.29784 0
M  V30 6510 O 1095.1 5.24426 -7.09156 0
M  V30 6511 O 1095.64 2.7935 -7.20758 0
M  V30 6512 C 1096.58 1.7299 -7.50419 0
M  V30 6513 C 1095.85 0.406376 -7.57911 0
M  V30 6514 O 1095.64 -0.0897726 -6.21935 0
M  V30 6515 C 1094.45 0.447224 -8.1878 0
M  V30 6516 O 1094.06 -0.825065 -8.71101 0
M  V30 6517 C 1093.57 0.783801 -6.99623 0
M  V30 6518 C 1094.28 0.0619192 -5.85967 0
M  V30 6519 N 1094.23 0.7859 -4.56281 0
M  V30 6520 H 1097.07 1.93423 -8.4679 0
M  V30 6521 H 1097.34 1.68181 -6.71046 0
M  V30 6522 H 1096.48 -0.289041 -8.15388 0
M  V30 6523 P 1092.51 -1.17771 -8.83182 0
M  V30 6524 O 1092.29 -2.07206 -9.98732 0
M  V30 6525 O 1091.72 0.0743816 -8.81969 0
M  V30 6526 O 1092.26 -1.97652 -7.47304 0
M  V30 6527 C 1093.2 -3.01133 -7.08783 0
M  V30 6528 C 1092.47 -4.12613 -6.37049 0
M  V30 6529 O 1092.26 -3.72827 -4.97879 0
M  V30 6530 C 1091.07 -4.45085 -6.88694 0
M  V30 6531 O 1090.68 -5.7877 -6.5624 0
M  V30 6532 C 1090.19 -3.47817 -6.12078 0
M  V30 6533 C 1090.9 -3.39414 -4.77697 0
M  V30 6534 N 1090.85 -2.04199 -4.15538 0
M  V30 6535 C 1090.93 -0.821545 -4.76977 0
M  V30 6536 N 1090.86 0.1794 -3.94592 0
M  V30 6537 C 1090.71 -0.419121 -2.70776 0
M  V30 6538 C 1090.58 0.109072 -1.40577 0
M  V30 6539 N 1090.57 1.4104 -1.1344 0
M  V30 6540 N 1090.46 -0.764381 -0.39411 0
M  V30 6541 C 1090.47 -2.06587 -0.664135 0
M  V30 6542 N 1090.59 -2.67948 -1.82153 0
M  V30 6543 C 1090.71 -1.77942 -2.8147 0
M  V30 6544 H 1093.69 -3.41248 -7.98759 0
M  V30 6545 H 1093.96 -2.57728 -6.42 0
M  V30 6546 H 1093.1 -5.02657 -6.42673 0
M  V30 6547 H 1090.44 -4.11708 -4.08956 0
M  V30 6548 H 1090.16 -2.49626 -6.61679 0
M  V30 6549 H 1089.17 -3.8662 -6.00862 0
M  V30 6550 H 1091 -4.29991 -7.97006 0
M  V30 6551 H 1091.05 -0.702451 -5.84696 0
M  V30 6552 H 1090.66 2.09647 -1.89651 0
M  V30 6553 H 1090.48 1.73358 -0.160575 0
M  V30 6554 H 1090.37 -2.71695 0.195838 0
M  V30 6555 P 1089.13 -6.144 -6.45285 0
M  V30 6556 O 1088.91 -7.54673 -6.86199 0
M  V30 6557 O 1088.34 -5.12391 -7.179 0
M  V30 6558 O 1088.88 -5.99158 -4.88404 0
M  V30 6559 C 1089.82 -6.60234 -3.96415 0
M  V30 6560 C 1089.09 -7.08259 -2.72856 0
M  V30 6561 O 1088.88 -5.9427 -1.83651 0
M  V30 6562 C 1087.69 -7.64886 -2.9555 0
M  V30 6563 O 1087.3 -8.53963 -1.90717 0
M  V30 6564 C 1086.81 -6.4116 -2.90739 0
M  V30 6565 C 1087.52 -5.55375 -1.86963 0
M  V30 6566 N 1087.47 -4.09664 -2.15742 0
M  V30 6567 H 1090.31 -7.45574 -4.45629 0
M  V30 6568 H 1090.58 -5.86232 -3.67314 0
M  V30 6569 H 1089.72 -7.84412 -2.24479 0
M  V30 6570 P 1085.75 -8.7635 -1.60911 0
M  V30 6571 O 1085.53 -10.1388 -1.11561 0
M  V30 6572 O 1084.96 -8.36503 -2.79617 0
M  V30 6573 O 1085.5 -7.71806 -0.42951 0
M  V30 6574 C 1086.44 -7.67148 0.673689 0
M  V30 6575 C 1085.71 -7.33374 1.95559 0
M  V30 6576 O 1085.5 -5.88721 2.00726 0
M  V30 6577 C 1084.31 -7.92526 2.10483 0
M  V30 6578 O 1083.92 -8.02971 3.47653 0
M  V30 6579 C 1083.43 -6.89602 1.41652 0
M  V30 6580 C 1084.14 -5.59201 1.75185 0
M  V30 6581 N 1084.09 -4.58235 0.662552 0
M  V30 6582 H 1086.93 -8.65116 0.777161 0
M  V30 6583 H 1087.2 -6.90173 0.474152 0
M  V30 6584 H 1086.34 -7.66548 2.79458 0
M  V30 6585 P 1082.37 -8.03563 3.84925 0
M  V30 6586 O 1082.15 -8.85821 5.0569 0
M  V30 6587 O 1081.58 -8.41101 2.65469 0
M  V30 6588 O 1082.12 -6.4965 4.18908 0
M  V30 6589 C 1083.06 -5.81037 5.05421 0
M  V30 6590 C 1082.33 -4.78366 5.89277 0
M  V30 6591 O 1082.12 -3.58302 5.08433 0
M  V30 6592 C 1080.93 -5.17448 6.36119 0
M  V30 6593 O 1080.54 -4.45271 7.53232 0
M  V30 6594 C 1080.05 -4.74639 5.19936 0
M  V30 6595 C 1080.76 -3.49432 4.70418 0
M  V30 6596 N 1080.71 -3.32099 3.22613 0
M  V30 6597 H 1083.55 -6.54213 5.71376 0
M  V30 6598 H 1083.82 -5.30936 4.43503 0
M  V30 6599 H 1082.96 -4.55889 6.76652 0
M  V30 6600 H 1080.3 -2.61715 5.17932 0
M  V30 6601 H 1080.02 -5.52155 4.41878 0
M  V30 6602 H 1079.03 -4.51981 5.53374 0
M  V30 6603 H 1080.86 -6.25124 6.55234 0
M  V30 6604 P 1078.99 -4.23843 7.83734 0
M  V30 6605 O 1078.77 -4.19407 9.29784 0
M  V30 6606 O 1078.2 -5.24426 7.09156 0
M  V30 6607 O 1078.74 -2.7935 7.20758 0
M  V30 6608 C 1079.68 -1.7299 7.50419 0
M  V30 6609 C 1078.95 -0.406376 7.57911 0
M  V30 6610 O 1078.74 0.0897726 6.21935 0
M  V30 6611 C 1077.55 -0.447224 8.1878 0
M  V30 6612 O 1077.16 0.825065 8.71101 0
M  V30 6613 C 1076.67 -0.783801 6.99623 0
M  V30 6614 C 1077.38 -0.0619192 5.85967 0
M  V30 6615 N 1077.33 -0.7859 4.56281 0
M  V30 6616 H 1080.17 -1.93423 8.4679 0
M  V30 6617 H 1080.44 -1.68181 6.71046 0
M  V30 6618 H 1079.58 0.289041 8.15388 0
M  V30 6619 P 1075.61 1.17771 8.83182 0
M  V30 6620 O 1075.39 2.07206 9.98732 0
M  V30 6621 O 1074.82 -0.0743816 8.81969 0
M  V30 6622 O 1075.36 1.97652 7.47304 0
M  V30 6623 C 1076.3 3.01133 7.08783 0
M  V30 6624 C 1075.57 4.12613 6.37049 0
M  V30 6625 O 1075.36 3.72827 4.97879 0
M  V30 6626 C 1074.17 4.45085 6.88694 0
M  V30 6627 O 1073.78 5.7877 6.5624 0
M  V30 6628 C 1073.29 3.47817 6.12078 0
M  V30 6629 C 1074 3.39414 4.77697 0
M  V30 6630 N 1073.95 2.04615 4.15333 0
M  V30 6631 H 1076.79 3.41248 7.98759 0
M  V30 6632 H 1077.06 2.5837 6.41742 0
M  V30 6633 H 1076.2 5.02657 6.42673 0
M  V30 6634 P 1072.23 6.144 6.45285 0
M  V30 6635 O 1072.01 7.54673 6.86199 0
M  V30 6636 O 1071.44 5.12391 7.179 0
M  V30 6637 O 1071.98 5.99158 4.88404 0
M  V30 6638 C 1072.92 6.60234 3.96415 0
M  V30 6639 C 1072.19 7.08259 2.72856 0
M  V30 6640 O 1071.98 5.9427 1.83651 0
M  V30 6641 C 1070.79 7.64886 2.9555 0
M  V30 6642 O 1070.4 8.53963 1.90717 0
M  V30 6643 C 1069.91 6.4116 2.90739 0
M  V30 6644 C 1070.62 5.55375 1.86963 0
M  V30 6645 N 1070.57 4.09664 2.15742 0
M  V30 6646 H 1073.41 7.45574 4.45629 0
M  V30 6647 H 1073.68 5.86232 3.67314 0
M  V30 6648 H 1072.82 7.84412 2.24479 0
M  V30 6649 P 1068.85 8.7635 1.60911 0
M  V30 6650 O 1068.63 10.1388 1.11561 0
M  V30 6651 O 1068.06 8.36503 2.79617 0
M  V30 6652 O 1068.6 7.71806 0.42951 0
M  V30 6653 C 1069.54 7.66948 -0.673514 0
M  V30 6654 C 1068.81 7.33374 -1.95559 0
M  V30 6655 O 1068.6 5.88721 -2.00726 0
M  V30 6656 C 1067.41 7.92218 -2.1125 0
M  V30 6657 O 1067.02 8.02971 -3.47653 0
M  V30 6658 C 1066.53 6.89504 -1.41631 0
M  V30 6659 C 1067.24 5.59106 -1.75155 0
M  V30 6660 N 1067.19 4.58136 -0.662409 0
M  V30 6661 C 1067.04 3.26059 -1.02863 0
M  V30 6662 O 1066.95 2.90743 -2.19009 0
M  V30 6663 N 1067 2.35995 0.0155585 0
M  V30 6664 C 1067.09 2.65248 1.35603 0
M  V30 6665 O 1067.04 1.75605 2.20651 0
M  V30 6666 C 1067.24 4.05747 1.64698 0
M  V30 6667 C 1067.35 4.42345 3.09553 0
M  V30 6668 C 1067.29 4.96734 0.652411 0
M  V30 6669 H 1070.03 8.64917 -0.776982 0
M  V30 6670 H 1070.3 6.89974 -0.474015 0
M  V30 6671 H 1069.44 7.66548 -2.79458 0
M  V30 6672 H 1066.78 5.16076 -2.65138 0
M  V30 6673 H 1066.5 7.06433 -0.329384 0
M  V30 6674 H 1065.51 6.90829 -1.81996 0
M  V30 6675 H 1067.34 8.90774 -1.62639 0
M  V30 6676 H 1067.42 6.02181 0.895285 0
M  V30 6677 H 1066.39 4.80252 3.45468 0
M  V30 6678 H 1068.12 5.20015 3.22119 0
M  V30 6679 H 1067.63 3.53269 3.67833 0
M  V30 6680 H 1066.9 1.39558 -0.227499 0
M  V30 6681 P 1065.47 8.03563 -3.84925 0
M  V30 6682 O 1065.25 8.85821 -5.0569 0
M  V30 6683 O 1064.68 8.41101 -2.65469 0
M  V30 6684 O 1065.22 6.4965 -4.18908 0
M  V30 6685 C 1066.16 5.81037 -5.05421 0
M  V30 6686 C 1065.43 4.78366 -5.89277 0
M  V30 6687 O 1065.22 3.58302 -5.08433 0
M  V30 6688 C 1064.03 5.17448 -6.36119 0
M  V30 6689 O 1063.64 4.45271 -7.53232 0
M  V30 6690 C 1063.15 4.74639 -5.19936 0
M  V30 6691 C 1063.86 3.49432 -4.70418 0
M  V30 6692 N 1063.81 3.32099 -3.22613 0
M  V30 6693 H 1066.65 6.54213 -5.71376 0
M  V30 6694 H 1066.92 5.30936 -4.43503 0
M  V30 6695 H 1066.06 4.55889 -6.76652 0
M  V30 6696 H 1063.4 2.61715 -5.17932 0
M  V30 6697 H 1063.12 5.52155 -4.41878 0
M  V30 6698 H 1062.13 4.51981 -5.53374 0
M  V30 6699 H 1063.96 6.25124 -6.55234 0
M  V30 6700 P 1062.09 4.23843 -7.83734 0
M  V30 6701 O 1061.87 4.19407 -9.29784 0
M  V30 6702 O 1061.3 5.24426 -7.09156 0
M  V30 6703 O 1061.84 2.7935 -7.20758 0
M  V30 6704 C 1062.78 1.7299 -7.50419 0
M  V30 6705 C 1062.05 0.406376 -7.57911 0
M  V30 6706 O 1061.84 -0.0897726 -6.21935 0
M  V30 6707 C 1060.65 0.447224 -8.1878 0
M  V30 6708 O 1060.26 -0.825065 -8.71101 0
M  V30 6709 C 1059.77 0.783801 -6.99623 0
M  V30 6710 C 1060.48 0.0619192 -5.85967 0
M  V30 6711 N 1060.43 0.7859 -4.56281 0
M  V30 6712 H 1063.27 1.93423 -8.4679 0
M  V30 6713 H 1063.54 1.68181 -6.71046 0
M  V30 6714 H 1062.68 -0.289041 -8.15388 0
M  V30 6715 P 1058.71 -1.17771 -8.83182 0
M  V30 6716 O 1058.49 -2.07206 -9.98732 0
M  V30 6717 O 1057.92 0.0743816 -8.81969 0
M  V30 6718 O 1058.46 -1.97652 -7.47304 0
M  V30 6719 C 1059.4 -3.01133 -7.08783 0
M  V30 6720 C 1058.67 -4.12613 -6.37049 0
M  V30 6721 O 1058.46 -3.72827 -4.97879 0
M  V30 6722 C 1057.27 -4.45085 -6.88694 0
M  V30 6723 O 1056.88 -5.7877 -6.5624 0
M  V30 6724 C 1056.39 -3.47817 -6.12078 0
M  V30 6725 C 1057.1 -3.39414 -4.77697 0
M  V30 6726 N 1057.05 -2.04615 -4.15333 0
M  V30 6727 H 1059.89 -3.41248 -7.98759 0
M  V30 6728 H 1060.16 -2.5837 -6.41742 0
M  V30 6729 H 1059.3 -5.02657 -6.42673 0
M  V30 6730 P 1055.33 -6.144 -6.45285 0
M  V30 6731 O 1055.11 -7.54673 -6.86199 0
M  V30 6732 O 1054.54 -5.12391 -7.179 0
M  V30 6733 O 1055.08 -5.99158 -4.88404 0
M  V30 6734 C 1056.02 -6.60234 -3.96415 0
M  V30 6735 C 1055.29 -7.08259 -2.72856 0
M  V30 6736 O 1055.08 -5.9427 -1.83651 0
M  V30 6737 C 1053.89 -7.64886 -2.9555 0
M  V30 6738 O 1053.5 -8.53963 -1.90717 0
M  V30 6739 C 1053.01 -6.4116 -2.90739 0
M  V30 6740 C 1053.72 -5.55375 -1.86963 0
M  V30 6741 N 1053.67 -4.09664 -2.15742 0
M  V30 6742 H 1056.51 -7.45574 -4.45629 0
M  V30 6743 H 1056.78 -5.86232 -3.67314 0
M  V30 6744 H 1055.92 -7.84412 -2.24479 0
M  V30 6745 P 1051.95 -8.7635 -1.60911 0
M  V30 6746 O 1051.73 -10.1388 -1.11561 0
M  V30 6747 O 1051.16 -8.36503 -2.79617 0
M  V30 6748 O 1051.7 -7.71806 -0.42951 0
M  V30 6749 C 1052.64 -7.67148 0.673689 0
M  V30 6750 C 1051.91 -7.33374 1.95559 0
M  V30 6751 O 1051.7 -5.88721 2.00726 0
M  V30 6752 C 1050.51 -7.92526 2.10483 0
M  V30 6753 O 1050.12 -8.02971 3.47653 0
M  V30 6754 C 1049.63 -6.89602 1.41652 0
M  V30 6755 C 1050.34 -5.59201 1.75185 0
M  V30 6756 N 1050.29 -4.58301 0.657969 0
M  V30 6757 H 1053.13 -8.65116 0.777161 0
M  V30 6758 H 1053.4 -6.9022 0.46725 0
M  V30 6759 H 1052.54 -7.66548 2.79458 0
M  V30 6760 H 1049.88 -5.16165 2.65183 0
M  V30 6761 H 1049.6 -7.06433 0.329384 0
M  V30 6762 H 1048.61 -6.90926 1.82021 0
M  V30 6763 H 1050.44 -8.90873 1.62657 0
M  V30 6764 P 1048.57 -8.03563 3.84925 0
M  V30 6765 O 1048.35 -8.85821 5.0569 0
M  V30 6766 O 1047.78 -8.41101 2.65469 0
M  V30 6767 O 1048.32 -6.4965 4.18908 0
M  V30 6768 C 1049.26 -5.81037 5.05421 0
M  V30 6769 C 1048.53 -4.78366 5.89277 0
M  V30 6770 O 1048.32 -3.58302 5.08433 0
M  V30 6771 C 1047.13 -5.17448 6.36119 0
M  V30 6772 O 1046.74 -4.45271 7.53232 0
M  V30 6773 C 1046.25 -4.74639 5.19936 0
M  V30 6774 C 1046.96 -3.49432 4.70418 0
M  V30 6775 N 1046.91 -3.32099 3.22613 0
M  V30 6776 H 1049.75 -6.54213 5.71376 0
M  V30 6777 H 1050.02 -5.30936 4.43503 0
M  V30 6778 H 1049.16 -4.55889 6.76652 0
M  V30 6779 H 1046.5 -2.61715 5.17932 0
M  V30 6780 H 1046.22 -5.52155 4.41878 0
M  V30 6781 H 1045.23 -4.51981 5.53374 0
M  V30 6782 H 1047.06 -6.25124 6.55234 0
M  V30 6783 P 1045.19 -4.23843 7.83734 0
M  V30 6784 O 1044.97 -4.19407 9.29784 0
M  V30 6785 O 1044.4 -5.24426 7.09156 0
M  V30 6786 O 1044.94 -2.7935 7.20758 0
M  V30 6787 C 1045.88 -1.7299 7.50419 0
M  V30 6788 C 1045.15 -0.406376 7.57911 0
M  V30 6789 O 1044.94 0.0897726 6.21935 0
M  V30 6790 C 1043.75 -0.447224 8.1878 0
M  V30 6791 O 1043.36 0.825065 8.71101 0
M  V30 6792 C 1042.87 -0.783801 6.99623 0
M  V30 6793 C 1043.58 -0.0619192 5.85967 0
M  V30 6794 N 1043.53 -0.790462 4.56202 0
M  V30 6795 H 1046.37 -1.93423 8.4679 0
M  V30 6796 H 1046.64 -1.68852 6.70877 0
M  V30 6797 H 1045.78 0.289041 8.15388 0
M  V30 6798 H 1043.12 0.927006 5.72848 0
M  V30 6799 H 1042.84 -1.86973 6.82036 0
M  V30 6800 H 1041.85 -0.403953 7.13357 0
M  V30 6801 H 1043.68 -1.20599 8.97534 0
M  V30 6802 P 1041.81 1.17771 8.83182 0
M  V30 6803 O 1041.59 2.07206 9.98732 0
M  V30 6804 O 1041.02 -0.0743816 8.81969 0
M  V30 6805 O 1041.56 1.97652 7.47304 0
M  V30 6806 C 1042.5 3.01133 7.08783 0
M  V30 6807 C 1041.77 4.12613 6.37049 0
M  V30 6808 O 1041.56 3.72827 4.97879 0
M  V30 6809 C 1040.37 4.45085 6.88694 0
M  V30 6810 O 1039.98 5.7877 6.5624 0
M  V30 6811 C 1039.49 3.47817 6.12078 0
M  V30 6812 C 1040.2 3.39414 4.77697 0
M  V30 6813 N 1040.15 2.04199 4.15538 0
M  V30 6814 C 1040.23 0.821545 4.76977 0
M  V30 6815 N 1040.16 -0.1794 3.94592 0
M  V30 6816 C 1040.01 0.419121 2.70776 0
M  V30 6817 C 1039.88 -0.109072 1.40577 0
M  V30 6818 N 1039.87 -1.4104 1.1344 0
M  V30 6819 N 1039.76 0.764381 0.39411 0
M  V30 6820 C 1039.77 2.06587 0.664135 0
M  V30 6821 N 1039.89 2.67948 1.82153 0
M  V30 6822 C 1040.01 1.77942 2.8147 0
M  V30 6823 H 1042.99 3.41248 7.98759 0
M  V30 6824 H 1043.26 2.57728 6.42 0
M  V30 6825 H 1042.4 5.02657 6.42673 0
M  V30 6826 H 1039.74 4.11708 4.08956 0
M  V30 6827 H 1039.46 2.49626 6.61679 0
M  V30 6828 H 1038.47 3.8662 6.00862 0
M  V30 6829 H 1040.3 4.29991 7.97006 0
M  V30 6830 H 1040.35 0.702451 5.84696 0
M  V30 6831 H 1039.96 -2.09647 1.89651 0
M  V30 6832 H 1039.78 -1.73358 0.160575 0
M  V30 6833 H 1039.67 2.71695 -0.195838 0
M  V30 6834 P 1038.43 6.144 6.45285 0
M  V30 6835 O 1038.21 7.54673 6.86199 0
M  V30 6836 O 1037.64 5.12391 7.179 0
M  V30 6837 O 1038.18 5.99158 4.88404 0
M  V30 6838 C 1039.12 6.60234 3.96415 0
M  V30 6839 C 1038.39 7.08259 2.72856 0
M  V30 6840 O 1038.18 5.9427 1.83651 0
M  V30 6841 C 1036.99 7.64886 2.9555 0
M  V30 6842 O 1036.6 8.53963 1.90717 0
M  V30 6843 C 1036.11 6.4116 2.90739 0
M  V30 6844 C 1036.82 5.55375 1.86963 0
M  V30 6845 N 1036.77 4.09664 2.15742 0
M  V30 6846 H 1039.61 7.45574 4.45629 0
M  V30 6847 H 1039.88 5.86232 3.67314 0
M  V30 6848 H 1039.02 7.84412 2.24479 0
M  V30 6849 P 1035.05 8.7635 1.60911 0
M  V30 6850 O 1034.83 10.1388 1.11561 0
M  V30 6851 O 1034.26 8.36503 2.79617 0
M  V30 6852 O 1034.8 7.71806 0.42951 0
M  V30 6853 C 1035.74 7.67148 -0.673689 0
M  V30 6854 C 1035.01 7.33374 -1.95559 0
M  V30 6855 O 1034.8 5.88721 -2.00726 0
M  V30 6856 C 1033.61 7.92526 -2.10483 0
M  V30 6857 O 1033.22 8.02971 -3.47653 0
M  V30 6858 C 1032.73 6.89602 -1.41652 0
M  V30 6859 C 1033.44 5.59201 -1.75185 0
M  V30 6860 N 1033.39 4.58235 -0.662552 0
M  V30 6861 H 1036.23 8.65116 -0.777161 0
M  V30 6862 H 1036.5 6.90173 -0.474152 0
M  V30 6863 H 1035.64 7.66548 -2.79458 0
M  V30 6864 P 1031.67 8.03563 -3.84925 0
M  V30 6865 O 1031.45 8.85821 -5.0569 0
M  V30 6866 O 1030.88 8.41101 -2.65469 0
M  V30 6867 O 1031.42 6.4965 -4.18908 0
M  V30 6868 C 1032.36 5.81037 -5.05421 0
M  V30 6869 C 1031.63 4.78366 -5.89277 0
M  V30 6870 O 1031.42 3.58302 -5.08433 0
M  V30 6871 C 1030.23 5.17448 -6.36119 0
M  V30 6872 O 1029.84 4.45271 -7.53232 0
M  V30 6873 C 1029.35 4.74639 -5.19936 0
M  V30 6874 C 1030.06 3.49432 -4.70418 0
M  V30 6875 N 1030.01 3.31776 -3.22945 0
M  V30 6876 H 1032.85 6.54213 -5.71376 0
M  V30 6877 H 1033.12 5.30492 -4.44033 0
M  V30 6878 H 1032.26 4.55889 -6.76652 0
M  V30 6879 P 1028.29 4.23843 -7.83734 0
M  V30 6880 O 1028.07 4.19407 -9.29784 0
M  V30 6881 O 1027.5 5.24426 -7.09156 0
M  V30 6882 O 1028.04 2.7935 -7.20758 0
M  V30 6883 C 1028.98 1.7299 -7.50419 0
M  V30 6884 C 1028.25 0.406376 -7.57911 0
M  V30 6885 O 1028.04 -0.0897726 -6.21935 0
M  V30 6886 C 1026.85 0.447224 -8.1878 0
M  V30 6887 O 1026.46 -0.825065 -8.71101 0
M  V30 6888 C 1025.97 0.783801 -6.99623 0
M  V30 6889 C 1026.68 0.0619192 -5.85967 0
M  V30 6890 N 1026.63 0.790462 -4.56202 0
M  V30 6891 H 1029.47 1.93423 -8.4679 0
M  V30 6892 H 1029.74 1.68852 -6.70877 0
M  V30 6893 H 1028.88 -0.289041 -8.15388 0
M  V30 6894 H 1026.22 -0.927006 -5.72848 0
M  V30 6895 H 1025.94 1.86973 -6.82036 0
M  V30 6896 H 1024.95 0.403953 -7.13357 0
M  V30 6897 H 1026.78 1.20599 -8.97534 0
M  V30 6898 P 1024.91 -1.17771 -8.83182 0
M  V30 6899 O 1024.69 -2.07206 -9.98732 0
M  V30 6900 O 1024.12 0.0743816 -8.81969 0
M  V30 6901 O 1024.66 -1.97652 -7.47304 0
M  V30 6902 C 1025.6 -3.01133 -7.08783 0
M  V30 6903 C 1024.87 -4.12613 -6.37049 0
M  V30 6904 O 1024.66 -3.72827 -4.97879 0
M  V30 6905 C 1023.47 -4.45085 -6.88694 0
M  V30 6906 O 1023.08 -5.7877 -6.5624 0
M  V30 6907 C 1022.59 -3.47817 -6.12078 0
M  V30 6908 C 1023.3 -3.39414 -4.77697 0
M  V30 6909 N 1023.25 -2.04199 -4.15538 0
M  V30 6910 H 1026.09 -3.41248 -7.98759 0
M  V30 6911 H 1026.36 -2.57728 -6.42 0
M  V30 6912 H 1025.5 -5.02657 -6.42673 0
M  V30 6913 H 1022.84 -4.11708 -4.08956 0
M  V30 6914 H 1022.56 -2.49626 -6.61679 0
M  V30 6915 H 1021.57 -3.8662 -6.00862 0
M  V30 6916 H 1023.4 -4.29991 -7.97006 0
M  V30 6917 P 1021.53 -6.144 -6.45285 0
M  V30 6918 O 1021.31 -7.54673 -6.86199 0
M  V30 6919 O 1020.74 -5.12391 -7.179 0
M  V30 6920 O 1021.28 -5.99158 -4.88404 0
M  V30 6921 C 1022.22 -6.60234 -3.96415 0
M  V30 6922 C 1021.49 -7.08259 -2.72856 0
M  V30 6923 O 1021.28 -5.9427 -1.83651 0
M  V30 6924 C 1020.09 -7.64886 -2.9555 0
M  V30 6925 O 1019.7 -8.53963 -1.90717 0
M  V30 6926 C 1019.21 -6.4116 -2.90739 0
M  V30 6927 C 1019.92 -5.55375 -1.86963 0
M  V30 6928 N 1019.87 -4.09448 -2.16152 0
M  V30 6929 H 1022.71 -7.45574 -4.45629 0
M  V30 6930 H 1022.98 -5.85864 -3.679 0
M  V30 6931 H 1022.12 -7.84412 -2.24479 0
M  V30 6932 H 1019.46 -5.73457 -0.888562 0
M  V30 6933 H 1019.18 -5.90877 -3.88583 0
M  V30 6934 H 1018.19 -6.6596 -2.58858 0
M  V30 6935 H 1020.02 -8.16339 -3.92049 0
M  V30 6936 P 1018.15 -8.7635 -1.60911 0
M  V30 6937 O 1017.93 -10.1388 -1.11561 0
M  V30 6938 O 1017.36 -8.36503 -2.79617 0
M  V30 6939 O 1017.9 -7.71806 -0.42951 0
M  V30 6940 C 1018.84 -7.67148 0.673689 0
M  V30 6941 C 1018.11 -7.33374 1.95559 0
M  V30 6942 O 1017.9 -5.88721 2.00726 0
M  V30 6943 C 1016.71 -7.92526 2.10483 0
M  V30 6944 O 1016.32 -8.02971 3.47653 0
M  V30 6945 C 1015.83 -6.89602 1.41652 0
M  V30 6946 C 1016.54 -5.59201 1.75185 0
M  V30 6947 N 1016.49 -4.58235 0.662552 0
M  V30 6948 H 1019.33 -8.65116 0.777161 0
M  V30 6949 H 1019.61 -6.90173 0.474152 0
M  V30 6950 H 1018.74 -7.66548 2.79458 0
M  V30 6951 P 1014.77 -8.03563 3.84925 0
M  V30 6952 O 1014.55 -8.85821 5.0569 0
M  V30 6953 O 1013.98 -8.41101 2.65469 0
M  V30 6954 O 1014.52 -6.4965 4.18908 0
M  V30 6955 C 1015.46 -5.80886 5.05289 0
M  V30 6956 C 1014.73 -4.78366 5.89277 0
M  V30 6957 O 1014.52 -3.58302 5.08433 0
M  V30 6958 C 1013.33 -5.16748 6.36559 0
M  V30 6959 O 1012.94 -4.45271 7.53232 0
M  V30 6960 C 1012.45 -4.74572 5.19863 0
M  V30 6961 C 1013.16 -3.49373 4.70338 0
M  V30 6962 N 1013.11 -3.31704 3.22876 0
M  V30 6963 C 1012.96 -2.03326 2.74871 0
M  V30 6964 O 1012.87 -1.06486 3.48076 0
M  V30 6965 N 1012.92 -1.91838 1.37456 0
M  V30 6966 C 1013.01 -2.94295 0.462035 0
M  V30 6967 C 1013.16 -4.25064 1.05249 0
M  V30 6968 C 1013.21 -4.40214 2.39192 0
M  V30 6969 H 1015.96 -6.54063 5.71245 0
M  V30 6970 H 1016.22 -5.30339 4.43905 0
M  V30 6971 H 1015.36 -4.55889 6.76652 0
M  V30 6972 H 1012.7 -2.6167 5.17842 0
M  V30 6973 H 1012.42 -5.52155 4.41878 0
M  V30 6974 H 1011.43 -4.51918 5.53297 0
M  V30 6975 H 1013.27 -6.25055 6.55162 0
M  V30 6976 H 1013.34 -5.39798 2.81523 0
M  V30 6977 P 1011.39 -4.23843 7.83734 0
M  V30 6978 O 1011.17 -4.19407 9.29784 0
M  V30 6979 O 1010.6 -5.24426 7.09156 0
M  V30 6980 O 1011.14 -2.7935 7.20758 0
M  V30 6981 C 1012.08 -1.7299 7.50419 0
M  V30 6982 C 1011.35 -0.406376 7.57911 0
M  V30 6983 O 1011.14 0.0897726 6.21935 0
M  V30 6984 C 1009.95 -0.447224 8.1878 0
M  V30 6985 O 1009.56 0.825065 8.71101 0
M  V30 6986 C 1009.07 -0.783801 6.99623 0
M  V30 6987 C 1009.78 -0.0619192 5.85967 0
M  V30 6988 N 1009.73 -0.790462 4.56202 0
M  V30 6989 H 1012.57 -1.93423 8.4679 0
M  V30 6990 H 1012.85 -1.68852 6.70877 0
M  V30 6991 H 1011.98 0.289041 8.15388 0
M  V30 6992 H 1009.32 0.927006 5.72848 0
M  V30 6993 H 1009.04 -1.86973 6.82036 0
M  V30 6994 H 1008.05 -0.403953 7.13357 0
M  V30 6995 H 1009.89 -1.20599 8.97534 0
M  V30 6996 P 1008.01 1.17771 8.83182 0
M  V30 6997 O 1007.79 2.07206 9.98732 0
M  V30 6998 O 1007.22 -0.0743816 8.81969 0
M  V30 6999 O 1007.76 1.97652 7.47304 0
M  V30 7000 C 1008.7 3.01133 7.08783 0
M  V30 7001 C 1007.97 4.12613 6.37049 0
M  V30 7002 O 1007.76 3.72827 4.97879 0
M  V30 7003 C 1006.57 4.45085 6.88694 0
M  V30 7004 O 1006.18 5.7877 6.5624 0
M  V30 7005 C 1005.69 3.47817 6.12078 0
M  V30 7006 C 1006.4 3.39414 4.77697 0
M  V30 7007 N 1006.35 2.04615 4.15333 0
M  V30 7008 H 1009.19 3.41248 7.98759 0
M  V30 7009 H 1009.47 2.5837 6.41742 0
M  V30 7010 H 1008.6 5.02657 6.42673 0
M  V30 7011 P 1004.63 6.144 6.45285 0
M  V30 7012 O 1004.41 7.54673 6.86199 0
M  V30 7013 O 1003.84 5.12391 7.179 0
M  V30 7014 O 1004.38 5.99158 4.88404 0
M  V30 7015 C 1005.32 6.60234 3.96415 0
M  V30 7016 C 1004.59 7.08259 2.72856 0
M  V30 7017 O 1004.38 5.9427 1.83651 0
M  V30 7018 C 1003.19 7.64886 2.9555 0
M  V30 7019 O 1002.8 8.53963 1.90717 0
M  V30 7020 C 1002.31 6.4116 2.90739 0
M  V30 7021 C 1003.02 5.55375 1.86963 0
M  V30 7022 N 1002.97 4.09664 2.15742 0
M  V30 7023 H 1005.81 7.45574 4.45629 0
M  V30 7024 H 1006.09 5.86232 3.67314 0
M  V30 7025 H 1005.22 7.84412 2.24479 0
M  V30 7026 P 1001.25 8.7635 1.60911 0
M  V30 7027 O 1001.03 10.1388 1.11561 0
M  V30 7028 O 1000.46 8.36503 2.79617 0
M  V30 7029 O 1001 7.71806 0.42951 0
M  V30 7030 C 1001.94 7.67148 -0.673689 0
M  V30 7031 C 1001.21 7.33374 -1.95559 0
M  V30 7032 O 1001 5.88721 -2.00726 0
M  V30 7033 C 999.814 7.92526 -2.10483 0
M  V30 7034 O 999.424 8.02971 -3.47653 0
M  V30 7035 C 998.934 6.89602 -1.41652 0
M  V30 7036 C 999.644 5.59201 -1.75185 0
M  V30 7037 N 999.594 4.58301 -0.657969 0
M  V30 7038 H 1002.43 8.65116 -0.777161 0
M  V30 7039 H 1002.71 6.9022 -0.46725 0
M  V30 7040 H 1001.84 7.66548 -2.79458 0
M  V30 7041 H 999.182 5.16165 -2.65183 0
M  V30 7042 H 998.902 7.06433 -0.329384 0
M  V30 7043 H 997.911 6.90926 -1.82021 0
M  V30 7044 H 999.745 8.90873 -1.62657 0
M  V30 7045 P 997.874 8.03563 -3.84925 0
M  V30 7046 O 997.654 8.85821 -5.0569 0
M  V30 7047 O 997.084 8.41101 -2.65469 0
M  V30 7048 O 997.624 6.4965 -4.18908 0
M  V30 7049 C 998.564 5.81037 -5.05421 0
M  V30 7050 C 997.834 4.78366 -5.89277 0
M  V30 7051 O 997.624 3.58302 -5.08433 0
M  V30 7052 C 996.434 5.17448 -6.36119 0
M  V30 7053 O 996.044 4.45271 -7.53232 0
M  V30 7054 C 995.554 4.74639 -5.19936 0
M  V30 7055 C 996.264 3.49432 -4.70418 0
M  V30 7056 N 996.214 3.31776 -3.22945 0
M  V30 7057 H 999.053 6.54213 -5.71376 0
M  V30 7058 H 999.325 5.30492 -4.44033 0
M  V30 7059 H 998.457 4.55889 -6.76652 0
M  V30 7060 P 994.494 4.23843 -7.83734 0
M  V30 7061 O 994.274 4.19407 -9.29784 0
M  V30 7062 O 993.704 5.24426 -7.09156 0
M  V30 7063 O 994.244 2.7935 -7.20758 0
M  V30 7064 C 995.184 1.7299 -7.50419 0
M  V30 7065 C 994.454 0.406376 -7.57911 0
M  V30 7066 O 994.244 -0.0897726 -6.21935 0
M  V30 7067 C 993.054 0.447224 -8.1878 0
M  V30 7068 O 992.664 -0.825065 -8.71101 0
M  V30 7069 C 992.174 0.783801 -6.99623 0
M  V30 7070 C 992.884 0.0619192 -5.85967 0
M  V30 7071 N 992.834 0.7859 -4.56281 0
M  V30 7072 H 995.673 1.93423 -8.4679 0
M  V30 7073 H 995.945 1.68181 -6.71046 0
M  V30 7074 H 995.077 -0.289041 -8.15388 0
M  V30 7075 P 991.114 -1.17771 -8.83182 0
M  V30 7076 O 990.894 -2.07206 -9.98732 0
M  V30 7077 O 990.324 0.0743816 -8.81969 0
M  V30 7078 O 990.864 -1.97652 -7.47304 0
M  V30 7079 C 991.804 -3.01133 -7.08783 0
M  V30 7080 C 991.074 -4.12613 -6.37049 0
M  V30 7081 O 990.864 -3.72827 -4.97879 0
M  V30 7082 C 989.674 -4.45085 -6.88694 0
M  V30 7083 O 989.284 -5.7877 -6.5624 0
M  V30 7084 C 988.794 -3.47817 -6.12078 0
M  V30 7085 C 989.504 -3.39414 -4.77697 0
M  V30 7086 N 989.454 -2.04615 -4.15333 0
M  V30 7087 H 992.293 -3.41248 -7.98759 0
M  V30 7088 H 992.565 -2.5837 -6.41742 0
M  V30 7089 H 991.697 -5.02657 -6.42673 0
M  V30 7090 P 987.734 -6.144 -6.45285 0
M  V30 7091 O 987.514 -7.54673 -6.86199 0
M  V30 7092 O 986.944 -5.12391 -7.179 0
M  V30 7093 O 987.484 -5.99158 -4.88404 0
M  V30 7094 C 988.424 -6.60234 -3.96415 0
M  V30 7095 C 987.694 -7.08259 -2.72856 0
M  V30 7096 O 987.484 -5.9427 -1.83651 0
M  V30 7097 C 986.294 -7.64886 -2.9555 0
M  V30 7098 O 985.904 -8.53963 -1.90717 0
M  V30 7099 C 985.414 -6.4116 -2.90739 0
M  V30 7100 C 986.124 -5.55375 -1.86963 0
M  V30 7101 N 986.074 -4.09664 -2.15742 0
M  V30 7102 H 988.913 -7.45574 -4.45629 0
M  V30 7103 H 989.185 -5.86232 -3.67314 0
M  V30 7104 H 988.317 -7.84412 -2.24479 0
M  V30 7105 P 984.354 -8.7635 -1.60911 0
M  V30 7106 O 984.134 -10.1388 -1.11561 0
M  V30 7107 O 983.564 -8.36503 -2.79617 0
M  V30 7108 O 984.104 -7.71806 -0.42951 0
M  V30 7109 C 985.044 -7.67148 0.673689 0
M  V30 7110 C 984.314 -7.33374 1.95559 0
M  V30 7111 O 984.104 -5.88721 2.00726 0
M  V30 7112 C 982.914 -7.92526 2.10483 0
M  V30 7113 O 982.524 -8.02971 3.47653 0
M  V30 7114 C 982.034 -6.89602 1.41652 0
M  V30 7115 C 982.744 -5.59201 1.75185 0
M  V30 7116 N 982.694 -4.58235 0.662552 0
M  V30 7117 H 985.533 -8.65116 0.777161 0
M  V30 7118 H 985.805 -6.90173 0.474152 0
M  V30 7119 H 984.937 -7.66548 2.79458 0
M  V30 7120 P 980.974 -8.03563 3.84925 0
M  V30 7121 O 980.754 -8.85821 5.0569 0
M  V30 7122 O 980.184 -8.41101 2.65469 0
M  V30 7123 O 980.724 -6.4965 4.18908 0
M  V30 7124 C 981.664 -5.81037 5.05421 0
M  V30 7125 C 980.934 -4.78366 5.89277 0
M  V30 7126 O 980.724 -3.58302 5.08433 0
M  V30 7127 C 979.534 -5.17448 6.36119 0
M  V30 7128 O 979.144 -4.45271 7.53232 0
M  V30 7129 C 978.654 -4.74639 5.19936 0
M  V30 7130 C 979.364 -3.49432 4.70418 0
M  V30 7131 N 979.314 -3.31776 3.22945 0
M  V30 7132 H 982.153 -6.54213 5.71376 0
M  V30 7133 H 982.425 -5.30492 4.44033 0
M  V30 7134 H 981.557 -4.55889 6.76652 0
M  V30 7135 P 977.594 -4.23843 7.83734 0
M  V30 7136 O 977.374 -4.19407 9.29784 0
M  V30 7137 O 976.804 -5.24426 7.09156 0
M  V30 7138 O 977.344 -2.7935 7.20758 0
M  V30 7139 C 978.284 -1.7299 7.50419 0
M  V30 7140 C 977.554 -0.406376 7.57911 0
M  V30 7141 O 977.344 0.0897726 6.21935 0
M  V30 7142 C 976.154 -0.447224 8.1878 0
M  V30 7143 O 975.764 0.825065 8.71101 0
M  V30 7144 C 975.274 -0.783801 6.99623 0
M  V30 7145 C 975.984 -0.0619192 5.85967 0
M  V30 7146 N 975.934 -0.7859 4.56281 0
M  V30 7147 H 978.773 -1.93423 8.4679 0
M  V30 7148 H 979.045 -1.68181 6.71046 0
M  V30 7149 H 978.177 0.289041 8.15388 0
M  V30 7150 P 974.214 1.17771 8.83182 0
M  V30 7151 O 973.994 2.07206 9.98732 0
M  V30 7152 O 973.424 -0.0743816 8.81969 0
M  V30 7153 O 973.964 1.97652 7.47304 0
M  V30 7154 C 974.904 3.01133 7.08783 0
M  V30 7155 C 974.174 4.12613 6.37049 0
M  V30 7156 O 973.964 3.72827 4.97879 0
M  V30 7157 C 972.774 4.45085 6.88694 0
M  V30 7158 O 972.384 5.7877 6.5624 0
M  V30 7159 C 971.894 3.47817 6.12078 0
M  V30 7160 C 972.604 3.39414 4.77697 0
M  V30 7161 N 972.554 2.04615 4.15333 0
M  V30 7162 H 975.393 3.41248 7.98759 0
M  V30 7163 H 975.665 2.5837 6.41742 0
M  V30 7164 H 974.797 5.02657 6.42673 0
M  V30 7165 P 970.834 6.144 6.45285 0
M  V30 7166 O 970.614 7.54673 6.86199 0
M  V30 7167 O 970.044 5.12391 7.179 0
M  V30 7168 O 970.584 5.99158 4.88404 0
M  V30 7169 C 971.524 6.60062 3.96313 0
M  V30 7170 C 970.794 7.08259 2.72856 0
M  V30 7171 O 970.584 5.9427 1.83651 0
M  V30 7172 C 969.394 7.65087 2.94749 0
M  V30 7173 O 969.004 8.53963 1.90717 0
M  V30 7174 C 968.514 6.41069 2.90698 0
M  V30 7175 C 969.224 5.5528 1.86931 0
M  V30 7176 N 969.174 4.09575 2.15696 0
M  V30 7177 C 969.024 3.24249 1.08435 0
M  V30 7178 O 968.934 3.63946 -0.0628747 0
M  V30 7179 N 968.984 1.90009 1.39973 0
M  V30 7180 C 969.074 1.34884 2.65614 0
M  V30 7181 O 969.024 0.123716 2.81728 0
M  V30 7182 C 969.224 2.3145 3.71736 0
M  V30 7183 C 969.334 1.75913 5.10438 0
M  V30 7184 C 969.274 3.63518 3.44754 0
M  V30 7185 H 972.015 7.45402 4.45526 0
M  V30 7186 H 972.284 5.86062 3.67208 0
M  V30 7187 H 971.417 7.84412 2.24479 0
M  V30 7188 H 968.762 5.73358 0.888409 0
M  V30 7189 H 968.483 5.90877 3.88583 0
M  V30 7190 H 967.491 6.65867 2.58821 0
M  V30 7191 H 969.325 8.16248 3.92006 0
M  V30 7192 H 969.396 4.34551 4.26383 0
M  V30 7193 H 968.366 1.85471 5.61775 0
M  V30 7194 H 970.103 2.31364 5.66257 0
M  V30 7195 H 969.615 0.695936 5.05229 0
M  V30 7196 H 968.879 1.26277 0.63625 0
M  V30 7197 P 967.454 8.7635 1.60911 0
M  V30 7198 O 967.234 10.1388 1.11561 0
M  V30 7199 O 966.664 8.36503 2.79617 0
M  V30 7200 O 967.204 7.71806 0.42951 0
M  V30 7201 C 968.144 7.67148 -0.673689 0
M  V30 7202 C 967.414 7.33374 -1.95559 0
M  V30 7203 O 967.204 5.88721 -2.00726 0
M  V30 7204 C 966.014 7.92526 -2.10483 0
M  V30 7205 O 965.624 8.02971 -3.47653 0
M  V30 7206 C 965.134 6.89602 -1.41652 0
M  V30 7207 C 965.844 5.59201 -1.75185 0
M  V30 7208 N 965.794 4.58235 -0.662552 0
M  V30 7209 H 968.633 8.65116 -0.777161 0
M  V30 7210 H 968.905 6.90173 -0.474152 0
M  V30 7211 H 968.037 7.66548 -2.79458 0
M  V30 7212 P 964.074 8.03563 -3.84925 0
M  V30 7213 O 963.854 8.85821 -5.0569 0
M  V30 7214 O 963.284 8.41101 -2.65469 0
M  V30 7215 O 963.824 6.4965 -4.18908 0
M  V30 7216 C 964.764 5.81037 -5.05421 0
M  V30 7217 C 964.034 4.78366 -5.89277 0
M  V30 7218 O 963.824 3.58302 -5.08433 0
M  V30 7219 C 962.634 5.17448 -6.36119 0
M  V30 7220 O 962.244 4.45271 -7.53232 0
M  V30 7221 C 961.754 4.74639 -5.19936 0
M  V30 7222 C 962.464 3.49432 -4.70418 0
M  V30 7223 N 962.414 3.32099 -3.22613 0
M  V30 7224 H 965.253 6.54213 -5.71376 0
M  V30 7225 H 965.525 5.30936 -4.43503 0
M  V30 7226 H 964.657 4.55889 -6.76652 0
M  V30 7227 H 962.002 2.61715 -5.17932 0
M  V30 7228 H 961.722 5.52155 -4.41878 0
M  V30 7229 H 960.731 4.51981 -5.53374 0
M  V30 7230 H 962.565 6.25124 -6.55234 0
M  V30 7231 P 960.694 4.23843 -7.83734 0
M  V30 7232 O 960.474 4.19407 -9.29784 0
M  V30 7233 O 959.904 5.24426 -7.09156 0
M  V30 7234 O 960.444 2.7935 -7.20758 0
M  V30 7235 C 961.384 1.7299 -7.50419 0
M  V30 7236 C 960.654 0.406376 -7.57911 0
M  V30 7237 O 960.444 -0.0897726 -6.21935 0
M  V30 7238 C 959.254 0.447224 -8.1878 0
M  V30 7239 O 958.864 -0.825065 -8.71101 0
M  V30 7240 C 958.374 0.783801 -6.99623 0
M  V30 7241 C 959.084 0.0619192 -5.85967 0
M  V30 7242 N 959.034 0.7859 -4.56281 0
M  V30 7243 H 961.873 1.93423 -8.4679 0
M  V30 7244 H 962.145 1.68181 -6.71046 0
M  V30 7245 H 961.277 -0.289041 -8.15388 0
M  V30 7246 P 957.314 -1.17771 -8.83182 0
M  V30 7247 O 957.094 -2.07206 -9.98732 0
M  V30 7248 O 956.524 0.0743816 -8.81969 0
M  V30 7249 O 957.064 -1.97652 -7.47304 0
M  V30 7250 C 958.004 -3.01133 -7.08783 0
M  V30 7251 C 957.274 -4.12613 -6.37049 0
M  V30 7252 O 957.064 -3.72827 -4.97879 0
M  V30 7253 C 955.874 -4.45085 -6.88694 0
M  V30 7254 O 955.484 -5.7877 -6.5624 0
M  V30 7255 C 954.994 -3.47817 -6.12078 0
M  V30 7256 C 955.704 -3.39414 -4.77697 0
M  V30 7257 N 955.654 -2.04615 -4.15333 0
M  V30 7258 H 958.493 -3.41248 -7.98759 0
M  V30 7259 H 958.765 -2.5837 -6.41742 0
M  V30 7260 H 957.897 -5.02657 -6.42673 0
M  V30 7261 P 953.934 -6.144 -6.45285 0
M  V30 7262 O 953.714 -7.54673 -6.86199 0
M  V30 7263 O 953.144 -5.12391 -7.179 0
M  V30 7264 O 953.684 -5.99158 -4.88404 0
M  V30 7265 C 954.624 -6.60234 -3.96415 0
M  V30 7266 C 953.894 -7.08259 -2.72856 0
M  V30 7267 O 953.684 -5.9427 -1.83651 0
M  V30 7268 C 952.494 -7.64886 -2.9555 0
M  V30 7269 O 952.104 -8.53963 -1.90717 0
M  V30 7270 C 951.614 -6.4116 -2.90739 0
M  V30 7271 C 952.324 -5.55375 -1.86963 0
M  V30 7272 N 952.274 -4.09448 -2.16152 0
M  V30 7273 C 952.354 -3.46824 -3.37593 0
M  V30 7274 N 952.284 -2.17422 -3.29777 0
M  V30 7275 C 952.134 -1.93065 -1.94427 0
M  V30 7276 C 952.004 -0.738053 -1.20141 0
M  V30 7277 N 951.994 0.474256 -1.74676 0
M  V30 7278 N 951.884 -0.850049 0.13045 0
M  V30 7279 C 951.894 -2.06169 0.676992 0
M  V30 7280 N 952.014 -3.23842 0.101312 0
M  V30 7281 C 952.134 -3.09402 -1.23122 0
M  V30 7282 H 955.113 -7.45574 -4.45629 0
M  V30 7283 H 955.385 -5.85864 -3.679 0
M  V30 7284 H 954.517 -7.84412 -2.24479 0
M  V30 7285 H 951.862 -5.73457 -0.888562 0
M  V30 7286 H 951.582 -5.90877 -3.88583 0
M  V30 7287 H 950.591 -6.6596 -2.58858 0
M  V30 7288 H 952.425 -8.16339 -3.92049 0
M  V30 7289 H 952.466 -4.00505 -4.3174 0
M  V30 7290 H 952.085 0.581337 -2.76658 0
M  V30 7291 H 951.896 1.30811 -1.14888 0
M  V30 7292 H 951.788 -2.08295 1.75542 0
M  V30 7293 P 950.554 -8.7635 -1.60911 0
M  V30 7294 O 950.334 -10.1388 -1.11561 0
M  V30 7295 O 949.764 -8.36503 -2.79617 0
M  V30 7296 O 950.304 -7.71906 -0.429565 0
M  V30 7297 C 951.244 -7.67148 0.673689 0
M  V30 7298 C 950.514 -7.33666 1.94851 0
M  V30 7299 O 950.304 -5.88816 2.00759 0
M  V30 7300 C 949.114 -7.92526 2.10483 0
M  V30 7301 O 948.724 -8.03063 3.47693 0
M  V30 7302 C 948.234 -6.89602 1.41652 0
M  V30 7303 C 948.944 -5.59201 1.75185 0
M  V30 7304 N 948.894 -4.58235 0.662552 0
M  V30 7305 C 948.744 -3.24451 1.01643 0
M  V30 7306 O 948.654 -2.94958 2.21722 0
M  V30 7307 N 948.694 -2.30408 -0.165238 0
M  V30 7308 C 948.794 -2.66048 -1.25118 0
M  V30 7309 N 948.744 -1.70787 -2.16813 0
M  V30 7310 C 948.944 -4.02732 -1.64413 0
M  V30 7311 C 948.994 -4.9488 -0.63991 0
M  V30 7312 H 951.734 -8.65017 0.777072 0
M  V30 7313 H 952.004 -6.90173 0.474152 0
M  V30 7314 H 951.137 -7.66642 2.79492 0
M  V30 7315 H 948.482 -5.16254 2.65229 0
M  V30 7316 H 948.202 -7.06532 0.329431 0
M  V30 7317 H 947.211 -6.91023 1.82047 0
M  V30 7318 H 949.045 -8.90873 1.62657 0
M  V30 7319 H 949.117 -6.00104 -0.892197 0
M  V30 7320 H 949.015 -4.31733 -2.69229 0
M  V30 7321 H 948.627 -0.724835 -1.8844 0
M  V30 7322 H 948.823 -1.94716 -3.16734 0
M  V30 7323 P 947.174 -8.03563 3.84925 0
M  V30 7324 O 946.954 -8.85821 5.0569 0
M  V30 7325 O 946.384 -8.41101 2.65469 0
M  V30 7326 O 946.924 -6.4965 4.18908 0
M  V30 7327 C 947.864 -5.81037 5.05421 0
M  V30 7328 C 947.134 -4.78366 5.89277 0
M  V30 7329 O 946.924 -3.58302 5.08433 0
M  V30 7330 C 945.734 -5.17448 6.36119 0
M  V30 7331 O 945.344 -4.45271 7.53232 0
M  V30 7332 C 944.854 -4.74639 5.19936 0
M  V30 7333 C 945.564 -3.49432 4.70418 0
M  V30 7334 N 945.514 -3.31776 3.22945 0
M  V30 7335 H 948.353 -6.54213 5.71376 0
M  V30 7336 H 948.625 -5.30492 4.44033 0
M  V30 7337 H 947.757 -4.55889 6.76652 0
M  V30 7338 P 943.794 -4.23843 7.83734 0
M  V30 7339 O 943.574 -4.19407 9.29784 0
M  V30 7340 O 943.004 -5.24426 7.09156 0
M  V30 7341 O 943.544 -2.7935 7.20758 0
M  V30 7342 C 944.484 -1.7299 7.50419 0
M  V30 7343 C 943.754 -0.406376 7.57911 0
M  V30 7344 O 943.544 0.0897726 6.21935 0
M  V30 7345 C 942.354 -0.447224 8.1878 0
M  V30 7346 O 941.964 0.825065 8.71101 0
M  V30 7347 C 941.474 -0.783801 6.99623 0
M  V30 7348 C 942.184 -0.0619192 5.85967 0
M  V30 7349 N 942.134 -0.7859 4.56281 0
M  V30 7350 H 944.973 -1.93423 8.4679 0
M  V30 7351 H 945.245 -1.68181 6.71046 0
M  V30 7352 H 944.377 0.289041 8.15388 0
M  V30 7353 P 940.414 1.17771 8.83182 0
M  V30 7354 O 940.194 2.07206 9.98732 0
M  V30 7355 O 939.624 -0.0743816 8.81969 0
M  V30 7356 O 940.164 1.97652 7.47304 0
M  V30 7357 C 941.104 3.01055 7.08599 0
M  V30 7358 C 940.374 4.12613 6.37049 0
M  V30 7359 O 940.164 3.72827 4.97879 0
M  V30 7360 C 938.974 4.45719 6.88164 0
M  V30 7361 O 938.584 5.7877 6.5624 0
M  V30 7362 C 938.094 3.47768 6.11991 0
M  V30 7363 C 938.804 3.39356 4.77615 0
M  V30 7364 N 938.754 2.04571 4.15244 0
M  V30 7365 C 938.604 1.98587 2.78314 0
M  V30 7366 O 938.514 2.98134 2.08835 0
M  V30 7367 N 938.564 0.714467 2.24925 0
M  V30 7368 C 938.654 -0.470001 2.94169 0
M  V30 7369 C 938.804 -0.312541 4.36783 0
M  V30 7370 C 938.854 0.914512 4.92583 0
M  V30 7371 H 941.595 3.41169 7.98575 0
M  V30 7372 H 941.864 2.58295 6.41556 0
M  V30 7373 H 940.997 5.02657 6.42673 0
M  V30 7374 H 938.342 4.11637 4.08885 0
M  V30 7375 H 938.063 2.49626 6.61679 0
M  V30 7376 H 937.071 3.86566 6.00778 0
M  V30 7377 H 938.905 4.29943 7.96918 0
M  V30 7378 H 938.976 1.00937 6.00374 0
M  V30 7379 P 937.034 6.144 6.45285 0
M  V30 7380 O 936.814 7.54673 6.86199 0
M  V30 7381 O 936.244 5.12391 7.179 0
M  V30 7382 O 936.784 5.99158 4.88404 0
M  V30 7383 C 937.724 6.60234 3.96415 0
M  V30 7384 C 936.994 7.08259 2.72856 0
M  V30 7385 O 936.784 5.9427 1.83651 0
M  V30 7386 C 935.594 7.64886 2.9555 0
M  V30 7387 O 935.204 8.53963 1.90717 0
M  V30 7388 C 934.714 6.4116 2.90739 0
M  V30 7389 C 935.424 5.55375 1.86963 0
M  V30 7390 N 935.374 4.09664 2.15742 0
M  V30 7391 H 938.213 7.45574 4.45629 0
M  V30 7392 H 938.485 5.86232 3.67314 0
M  V30 7393 H 937.617 7.84412 2.24479 0
M  V30 7394 P 933.655 8.7635 1.60911 0
M  V30 7395 O 933.435 10.1388 1.11561 0
M  V30 7396 O 932.865 8.36503 2.79617 0
M  V30 7397 O 933.405 7.71806 0.42951 0
M  V30 7398 C 934.345 7.67148 -0.673689 0
M  V30 7399 C 933.615 7.33374 -1.95559 0
M  V30 7400 O 933.405 5.88721 -2.00726 0
M  V30 7401 C 932.215 7.92526 -2.10483 0
M  V30 7402 O 931.825 8.02971 -3.47653 0
M  V30 7403 C 931.335 6.89602 -1.41652 0
M  V30 7404 C 932.045 5.59201 -1.75185 0
M  V30 7405 N 931.995 4.58235 -0.662552 0
M  V30 7406 H 934.834 8.65116 -0.777161 0
M  V30 7407 H 935.106 6.90173 -0.474152 0
M  V30 7408 H 934.238 7.66548 -2.79458 0
M  V30 7409 P 930.275 8.03563 -3.84925 0
M  V30 7410 O 930.055 8.85821 -5.0569 0
M  V30 7411 O 929.485 8.41101 -2.65469 0
M  V30 7412 O 930.025 6.4965 -4.18908 0
M  V30 7413 C 930.965 5.80886 -5.05289 0
M  V30 7414 C 930.235 4.78366 -5.89277 0
M  V30 7415 O 930.025 3.58302 -5.08433 0
M  V30 7416 C 928.835 5.16748 -6.36559 0
M  V30 7417 O 928.445 4.45271 -7.53232 0
M  V30 7418 C 927.955 4.74572 -5.19863 0
M  V30 7419 C 928.665 3.49373 -4.70338 0
M  V30 7420 N 928.615 3.31704 -3.22876 0
M  V30 7421 C 928.465 2.03326 -2.74871 0
M  V30 7422 O 928.375 1.06486 -3.48076 0
M  V30 7423 N 928.425 1.91838 -1.37456 0
M  V30 7424 C 928.515 2.94295 -0.462035 0
M  V30 7425 C 928.665 4.25064 -1.05249 0
M  V30 7426 C 928.715 4.40214 -2.39192 0
M  V30 7427 H 931.456 6.54063 -5.71245 0
M  V30 7428 H 931.725 5.30339 -4.43905 0
M  V30 7429 H 930.858 4.55889 -6.76652 0
M  V30 7430 H 928.203 2.6167 -5.17842 0
M  V30 7431 H 927.924 5.52155 -4.41878 0
M  V30 7432 H 926.932 4.51918 -5.53297 0
M  V30 7433 H 928.766 6.25055 -6.55162 0
M  V30 7434 H 928.837 5.39798 -2.81523 0
M  V30 7435 P 926.895 4.23843 -7.83734 0
M  V30 7436 O 926.675 4.19407 -9.29784 0
M  V30 7437 O 926.105 5.24426 -7.09156 0
M  V30 7438 O 926.645 2.7935 -7.20758 0
M  V30 7439 C 927.585 1.7299 -7.50419 0
M  V30 7440 C 926.855 0.406376 -7.57911 0
M  V30 7441 O 926.645 -0.0897726 -6.21935 0
M  V30 7442 C 925.455 0.447224 -8.1878 0
M  V30 7443 O 925.065 -0.825065 -8.71101 0
M  V30 7444 C 924.575 0.783801 -6.99623 0
M  V30 7445 C 925.285 0.0619192 -5.85967 0
M  V30 7446 N 925.235 0.7859 -4.56281 0
M  V30 7447 H 928.074 1.93423 -8.4679 0
M  V30 7448 H 928.346 1.68181 -6.71046 0
M  V30 7449 H 927.478 -0.289041 -8.15388 0
M  V30 7450 P 923.515 -1.17771 -8.83182 0
M  V30 7451 O 923.295 -2.07206 -9.98732 0
M  V30 7452 O 922.725 0.0743816 -8.81969 0
M  V30 7453 O 923.265 -1.97652 -7.47304 0
M  V30 7454 C 924.205 -3.01055 -7.08599 0
M  V30 7455 C 923.475 -4.12613 -6.37049 0
M  V30 7456 O 923.265 -3.72827 -4.97879 0
M  V30 7457 C 922.075 -4.45719 -6.88164 0
M  V30 7458 O 921.685 -5.7877 -6.5624 0
M  V30 7459 C 921.195 -3.47768 -6.11991 0
M  V30 7460 C 921.905 -3.39356 -4.77615 0
M  V30 7461 N 921.855 -2.04571 -4.15244 0
M  V30 7462 C 921.705 -1.98587 -2.78314 0
M  V30 7463 O 921.615 -2.98134 -2.08835 0
M  V30 7464 N 921.665 -0.714467 -2.24925 0
M  V30 7465 C 921.755 0.470001 -2.94169 0
M  V30 7466 C 921.905 0.312541 -4.36783 0
M  V30 7467 C 921.955 -0.914512 -4.92583 0
M  V30 7468 H 924.696 -3.41169 -7.98575 0
M  V30 7469 H 924.965 -2.58295 -6.41556 0
M  V30 7470 H 924.098 -5.02657 -6.42673 0
M  V30 7471 H 921.443 -4.11637 -4.08885 0
M  V30 7472 H 921.164 -2.49626 -6.61679 0
M  V30 7473 H 920.172 -3.86566 -6.00778 0
M  V30 7474 H 922.006 -4.29943 -7.96918 0
M  V30 7475 H 922.077 -1.00937 -6.00374 0
M  V30 7476 P 920.135 -6.144 -6.45285 0
M  V30 7477 O 919.915 -7.54673 -6.86199 0
M  V30 7478 O 919.345 -5.12391 -7.179 0
M  V30 7479 O 919.885 -5.99158 -4.88404 0
M  V30 7480 C 920.825 -6.60062 -3.96313 0
M  V30 7481 C 920.095 -7.08259 -2.72856 0
M  V30 7482 O 919.885 -5.9427 -1.83651 0
M  V30 7483 C 918.695 -7.65087 -2.94749 0
M  V30 7484 O 918.305 -8.53963 -1.90717 0
M  V30 7485 C 917.815 -6.41069 -2.90698 0
M  V30 7486 C 918.525 -5.5528 -1.86931 0
M  V30 7487 N 918.475 -4.09575 -2.15696 0
M  V30 7488 C 918.325 -3.24249 -1.08435 0
M  V30 7489 O 918.235 -3.63946 0.0628747 0
M  V30 7490 N 918.285 -1.90009 -1.39973 0
M  V30 7491 C 918.375 -1.34884 -2.65614 0
M  V30 7492 C 918.525 -2.3145 -3.71736 0
M  V30 7493 C 918.575 -3.63518 -3.44754 0
M  V30 7494 H 921.316 -7.45402 -4.45526 0
M  V30 7495 H 921.585 -5.86062 -3.67208 0
M  V30 7496 H 920.718 -7.84412 -2.24479 0
M  V30 7497 H 918.063 -5.73358 -0.888409 0
M  V30 7498 H 917.784 -5.90877 -3.88583 0
M  V30 7499 H 916.792 -6.65867 -2.58821 0
M  V30 7500 H 918.626 -8.16248 -3.92006 0
M  V30 7501 H 918.697 -4.34551 -4.26383 0
M  V30 7502 P 916.755 -8.7635 -1.60911 0
M  V30 7503 O 916.535 -10.1388 -1.11561 0
M  V30 7504 O 915.965 -8.36503 -2.79617 0
M  V30 7505 O 916.505 -7.71806 -0.42951 0
M  V30 7506 C 917.445 -7.67148 0.673689 0
M  V30 7507 C 916.715 -7.33374 1.95559 0
M  V30 7508 O 916.505 -5.88721 2.00726 0
M  V30 7509 C 915.315 -7.92526 2.10483 0
M  V30 7510 O 914.925 -8.02971 3.47653 0
M  V30 7511 C 914.435 -6.89602 1.41652 0
M  V30 7512 C 915.145 -5.59201 1.75185 0
M  V30 7513 N 915.095 -4.58301 0.657969 0
M  V30 7514 H 917.934 -8.65116 0.777161 0
M  V30 7515 H 918.206 -6.9022 0.46725 0
M  V30 7516 H 917.338 -7.66548 2.79458 0
M  V30 7517 H 914.683 -5.16165 2.65183 0
M  V30 7518 H 914.403 -7.06433 0.329384 0
M  V30 7519 H 913.412 -6.90926 1.82021 0
M  V30 7520 H 915.246 -8.90873 1.62657 0
M  V30 7521 P 913.375 -8.03563 3.84925 0
M  V30 7522 O 913.155 -8.85821 5.0569 0
M  V30 7523 O 912.585 -8.41101 2.65469 0
M  V30 7524 O 913.125 -6.4965 4.18908 0
M  V30 7525 C 914.065 -5.80886 5.05289 0
M  V30 7526 C 913.335 -4.78366 5.89277 0
M  V30 7527 O 913.125 -3.58302 5.08433 0
M  V30 7528 C 911.935 -5.16748 6.36559 0
M  V30 7529 O 911.545 -4.45271 7.53232 0
M  V30 7530 C 911.055 -4.74572 5.19863 0
M  V30 7531 C 911.765 -3.49373 4.70338 0
M  V30 7532 N 911.715 -3.31704 3.22876 0
M  V30 7533 C 911.565 -2.03326 2.74871 0
M  V30 7534 O 911.475 -1.06486 3.48076 0
M  V30 7535 N 911.525 -1.91838 1.37456 0
M  V30 7536 C 911.615 -2.94295 0.462035 0
M  V30 7537 C 911.765 -4.25064 1.05249 0
M  V30 7538 C 911.815 -4.40214 2.39192 0
M  V30 7539 H 914.556 -6.54063 5.71245 0
M  V30 7540 H 914.825 -5.30339 4.43905 0
M  V30 7541 H 913.958 -4.55889 6.76652 0
M  V30 7542 H 911.303 -2.6167 5.17842 0
M  V30 7543 H 911.024 -5.52155 4.41878 0
M  V30 7544 H 910.032 -4.51918 5.53297 0
M  V30 7545 H 911.866 -6.25055 6.55162 0
M  V30 7546 H 911.937 -5.39798 2.81523 0
M  V30 7547 P 909.995 -4.23843 7.83734 0
M  V30 7548 O 909.775 -4.19407 9.29784 0
M  V30 7549 O 909.205 -5.24426 7.09156 0
M  V30 7550 O 909.745 -2.7935 7.20758 0
M  V30 7551 C 910.685 -1.7299 7.50419 0
M  V30 7552 C 909.955 -0.406376 7.57911 0
M  V30 7553 O 909.745 0.0897726 6.21935 0
M  V30 7554 C 908.555 -0.447224 8.1878 0
M  V30 7555 O 908.165 0.825065 8.71101 0
M  V30 7556 C 907.675 -0.783801 6.99623 0
M  V30 7557 C 908.385 -0.0619192 5.85967 0
M  V30 7558 N 908.335 -0.790462 4.56202 0
M  V30 7559 H 911.174 -1.93423 8.4679 0
M  V30 7560 H 911.446 -1.68852 6.70877 0
M  V30 7561 H 910.578 0.289041 8.15388 0
M  V30 7562 H 907.923 0.927006 5.72848 0
M  V30 7563 H 907.643 -1.86973 6.82036 0
M  V30 7564 H 906.652 -0.403953 7.13357 0
M  V30 7565 H 908.486 -1.20599 8.97534 0
M  V30 7566 P 906.615 1.17771 8.83182 0
M  V30 7567 O 906.395 2.07206 9.98732 0
M  V30 7568 O 905.825 -0.0743816 8.81969 0
M  V30 7569 O 906.365 1.97652 7.47304 0
M  V30 7570 C 907.305 3.01133 7.08783 0
M  V30 7571 C 906.575 4.12613 6.37049 0
M  V30 7572 O 906.365 3.72827 4.97879 0
M  V30 7573 C 905.175 4.45085 6.88694 0
M  V30 7574 O 904.785 5.7877 6.5624 0
M  V30 7575 C 904.295 3.47817 6.12078 0
M  V30 7576 C 905.005 3.39414 4.77697 0
M  V30 7577 N 904.955 2.04615 4.15333 0
M  V30 7578 H 907.794 3.41248 7.98759 0
M  V30 7579 H 908.066 2.5837 6.41742 0
M  V30 7580 H 907.198 5.02657 6.42673 0
M  V30 7581 P 903.235 6.144 6.45285 0
M  V30 7582 O 903.015 7.54673 6.86199 0
M  V30 7583 O 902.445 5.12391 7.179 0
M  V30 7584 O 902.985 5.99158 4.88404 0
M  V30 7585 C 903.925 6.60062 3.96313 0
M  V30 7586 C 903.195 7.08259 2.72856 0
M  V30 7587 O 902.985 5.9427 1.83651 0
M  V30 7588 C 901.795 7.65087 2.94749 0
M  V30 7589 O 901.405 8.53963 1.90717 0
M  V30 7590 C 900.915 6.41069 2.90698 0
M  V30 7591 C 901.625 5.5528 1.86931 0
M  V30 7592 N 901.575 4.09575 2.15696 0
M  V30 7593 C 901.425 3.24249 1.08435 0
M  V30 7594 O 901.335 3.63946 -0.0628747 0
M  V30 7595 N 901.385 1.90009 1.39973 0
M  V30 7596 C 901.475 1.34884 2.65614 0
M  V30 7597 O 901.425 0.123716 2.81728 0
M  V30 7598 C 901.625 2.3145 3.71736 0
M  V30 7599 C 901.735 1.75913 5.10438 0
M  V30 7600 C 901.675 3.63518 3.44754 0
M  V30 7601 H 904.416 7.45402 4.45526 0
M  V30 7602 H 904.685 5.86062 3.67208 0
M  V30 7603 H 903.818 7.84412 2.24479 0
M  V30 7604 H 901.163 5.73358 0.888409 0
M  V30 7605 H 900.884 5.90877 3.88583 0
M  V30 7606 H 899.892 6.65867 2.58821 0
M  V30 7607 H 901.726 8.16248 3.92006 0
M  V30 7608 H 901.797 4.34551 4.26383 0
M  V30 7609 H 900.767 1.85471 5.61775 0
M  V30 7610 H 902.504 2.31364 5.66257 0
M  V30 7611 H 902.016 0.695936 5.05229 0
M  V30 7612 H 901.28 1.26277 0.63625 0
M  V30 7613 P 899.855 8.7635 1.60911 0
M  V30 7614 O 899.635 10.1388 1.11561 0
M  V30 7615 O 899.065 8.36503 2.79617 0
M  V30 7616 O 899.605 7.71806 0.42951 0
M  V30 7617 C 900.545 7.67148 -0.673689 0
M  V30 7618 C 899.815 7.33374 -1.95559 0
M  V30 7619 O 899.605 5.88721 -2.00726 0
M  V30 7620 C 898.415 7.92526 -2.10483 0
M  V30 7621 O 898.025 8.02971 -3.47653 0
M  V30 7622 C 897.535 6.89602 -1.41652 0
M  V30 7623 C 898.245 5.59201 -1.75185 0
M  V30 7624 N 898.195 4.58235 -0.662552 0
M  V30 7625 H 901.034 8.65116 -0.777161 0
M  V30 7626 H 901.306 6.90173 -0.474152 0
M  V30 7627 H 900.438 7.66548 -2.79458 0
M  V30 7628 P 896.475 8.03563 -3.84925 0
M  V30 7629 O 896.255 8.85821 -5.0569 0
M  V30 7630 O 895.685 8.41101 -2.65469 0
M  V30 7631 O 896.225 6.4965 -4.18908 0
M  V30 7632 C 897.165 5.81037 -5.05421 0
M  V30 7633 C 896.435 4.78366 -5.89277 0
M  V30 7634 O 896.225 3.58302 -5.08433 0
M  V30 7635 C 895.035 5.17448 -6.36119 0
M  V30 7636 O 894.645 4.45271 -7.53232 0
M  V30 7637 C 894.155 4.74639 -5.19936 0
M  V30 7638 C 894.865 3.49432 -4.70418 0
M  V30 7639 N 894.815 3.32099 -3.22613 0
M  V30 7640 H 897.654 6.54213 -5.71376 0
M  V30 7641 H 897.926 5.30936 -4.43503 0
M  V30 7642 H 897.058 4.55889 -6.76652 0
M  V30 7643 H 894.403 2.61715 -5.17932 0
M  V30 7644 H 894.123 5.52155 -4.41878 0
M  V30 7645 H 893.132 4.51981 -5.53374 0
M  V30 7646 H 894.966 6.25124 -6.55234 0
M  V30 7647 P 893.095 4.23843 -7.83734 0
M  V30 7648 O 892.875 4.19407 -9.29784 0
M  V30 7649 O 892.305 5.24426 -7.09156 0
M  V30 7650 O 892.845 2.7935 -7.20758 0
M  V30 7651 C 893.785 1.7299 -7.50419 0
M  V30 7652 C 893.055 0.406376 -7.57911 0
M  V30 7653 O 892.845 -0.0897726 -6.21935 0
M  V30 7654 C 891.655 0.447224 -8.1878 0
M  V30 7655 O 891.265 -0.825065 -8.71101 0
M  V30 7656 C 890.775 0.783801 -6.99623 0
M  V30 7657 C 891.485 0.0619192 -5.85967 0
M  V30 7658 N 891.435 0.790462 -4.56202 0
M  V30 7659 C 891.515 2.13895 -4.34171 0
M  V30 7660 N 891.445 2.46449 -3.08687 0
M  V30 7661 C 891.295 1.2525 -2.43697 0
M  V30 7662 C 891.165 0.914535 -1.07318 0
M  V30 7663 N 891.155 1.80782 -0.0887348 0
M  V30 7664 N 891.045 -0.386745 -0.768133 0
M  V30 7665 C 891.055 -1.28096 -1.75159 0
M  V30 7666 N 891.175 -1.09708 -3.04861 0
M  V30 7667 C 891.295 0.214857 -3.32306 0
M  V30 7668 H 894.274 1.93423 -8.4679 0
M  V30 7669 H 894.546 1.68852 -6.70877 0
M  V30 7670 H 893.678 -0.289041 -8.15388 0
M  V30 7671 H 891.023 -0.927006 -5.72848 0
M  V30 7672 H 890.743 1.86973 -6.82036 0
M  V30 7673 H 889.752 0.403953 -7.13357 0
M  V30 7674 H 891.586 1.20599 -8.97534 0
M  V30 7675 H 891.627 2.86846 -5.14318 0
M  V30 7676 H 891.246 2.81082 -0.302037 0
M  V30 7677 H 891.057 1.49688 0.889064 0
M  V30 7678 H 890.949 -2.31317 -1.43855 0
M  V30 7679 P 889.715 -1.17771 -8.83182 0
M  V30 7680 O 889.495 -2.07206 -9.98732 0
M  V30 7681 O 888.925 0.0743816 -8.81969 0
M  V30 7682 O 889.465 -1.97652 -7.47304 0
M  V30 7683 C 890.405 -3.01133 -7.08783 0
M  V30 7684 C 889.675 -4.12613 -6.37049 0
M  V30 7685 O 889.465 -3.72827 -4.97879 0
M  V30 7686 C 888.275 -4.45085 -6.88694 0
M  V30 7687 O 887.885 -5.7877 -6.5624 0
M  V30 7688 C 887.395 -3.47817 -6.12078 0
M  V30 7689 C 888.105 -3.39414 -4.77697 0
M  V30 7690 N 888.055 -2.04615 -4.15333 0
M  V30 7691 H 890.894 -3.41248 -7.98759 0
M  V30 7692 H 891.166 -2.5837 -6.41742 0
M  V30 7693 H 890.298 -5.02657 -6.42673 0
M  V30 7694 P 886.335 -6.144 -6.45285 0
M  V30 7695 O 886.115 -7.54673 -6.86199 0
M  V30 7696 O 885.545 -5.12391 -7.179 0
M  V30 7697 O 886.085 -5.99158 -4.88404 0
M  V30 7698 C 887.025 -6.60234 -3.96415 0
M  V30 7699 C 886.295 -7.08259 -2.72856 0
M  V30 7700 O 886.085 -5.9427 -1.83651 0
M  V30 7701 C 884.895 -7.64886 -2.9555 0
M  V30 7702 O 884.505 -8.53963 -1.90717 0
M  V30 7703 C 884.015 -6.4116 -2.90739 0
M  V30 7704 C 884.725 -5.55375 -1.86963 0
M  V30 7705 N 884.675 -4.09448 -2.16152 0
M  V30 7706 H 887.514 -7.45574 -4.45629 0
M  V30 7707 H 887.786 -5.85864 -3.679 0
M  V30 7708 H 886.918 -7.84412 -2.24479 0
M  V30 7709 H 884.263 -5.73457 -0.888562 0
M  V30 7710 H 883.983 -5.90877 -3.88583 0
M  V30 7711 H 882.992 -6.6596 -2.58858 0
M  V30 7712 H 884.826 -8.16339 -3.92049 0
M  V30 7713 P 882.955 -8.7635 -1.60911 0
M  V30 7714 O 882.735 -10.1388 -1.11561 0
M  V30 7715 O 882.165 -8.36503 -2.79617 0
M  V30 7716 O 882.705 -7.71806 -0.42951 0
M  V30 7717 C 883.645 -7.67148 0.673689 0
M  V30 7718 C 882.915 -7.33374 1.95559 0
M  V30 7719 O 882.705 -5.88721 2.00726 0
M  V30 7720 C 881.515 -7.92526 2.10483 0
M  V30 7721 O 881.125 -8.02971 3.47653 0
M  V30 7722 C 880.635 -6.89602 1.41652 0
M  V30 7723 C 881.345 -5.59201 1.75185 0
M  V30 7724 N 881.295 -4.58235 0.662552 0
M  V30 7725 H 884.134 -8.65116 0.777161 0
M  V30 7726 H 884.406 -6.90173 0.474152 0
M  V30 7727 H 883.538 -7.66548 2.79458 0
M  V30 7728 P 879.575 -8.03563 3.84925 0
M  V30 7729 O 879.355 -8.85821 5.0569 0
M  V30 7730 O 878.785 -8.41101 2.65469 0
M  V30 7731 O 879.325 -6.4965 4.18908 0
M  V30 7732 C 880.265 -5.81037 5.05421 0
M  V30 7733 C 879.535 -4.78366 5.89277 0
M  V30 7734 O 879.325 -3.58302 5.08433 0
M  V30 7735 C 878.135 -5.17448 6.36119 0
M  V30 7736 O 877.745 -4.45271 7.53232 0
M  V30 7737 C 877.255 -4.74639 5.19936 0
M  V30 7738 C 877.965 -3.49432 4.70418 0
M  V30 7739 N 877.915 -3.32099 3.22613 0
M  V30 7740 H 880.754 -6.54213 5.71376 0
M  V30 7741 H 881.026 -5.30936 4.43503 0
M  V30 7742 H 880.158 -4.55889 6.76652 0
M  V30 7743 H 877.503 -2.61715 5.17932 0
M  V30 7744 H 877.223 -5.52155 4.41878 0
M  V30 7745 H 876.232 -4.51981 5.53374 0
M  V30 7746 H 878.066 -6.25124 6.55234 0
M  V30 7747 P 876.195 -4.23843 7.83734 0
M  V30 7748 O 875.975 -4.19407 9.29784 0
M  V30 7749 O 875.405 -5.24426 7.09156 0
M  V30 7750 O 875.945 -2.7935 7.20758 0
M  V30 7751 C 876.885 -1.7299 7.50419 0
M  V30 7752 C 876.155 -0.406376 7.57911 0
M  V30 7753 O 875.945 0.0897726 6.21935 0
M  V30 7754 C 874.755 -0.447224 8.1878 0
M  V30 7755 O 874.365 0.825065 8.71101 0
M  V30 7756 C 873.875 -0.783801 6.99623 0
M  V30 7757 C 874.585 -0.0619192 5.85967 0
M  V30 7758 N 874.535 -0.790462 4.56202 0
M  V30 7759 H 877.374 -1.93423 8.4679 0
M  V30 7760 H 877.646 -1.68852 6.70877 0
M  V30 7761 H 876.778 0.289041 8.15388 0
M  V30 7762 H 874.123 0.927006 5.72848 0
M  V30 7763 H 873.843 -1.86973 6.82036 0
M  V30 7764 H 872.852 -0.403953 7.13357 0
M  V30 7765 H 874.686 -1.20599 8.97534 0
M  V30 7766 P 872.815 1.17771 8.83182 0
M  V30 7767 O 872.595 2.07206 9.98732 0
M  V30 7768 O 872.025 -0.0743816 8.81969 0
M  V30 7769 O 872.565 1.97652 7.47304 0
M  V30 7770 C 873.505 3.01133 7.08783 0
M  V30 7771 C 872.775 4.12613 6.37049 0
M  V30 7772 O 872.565 3.72827 4.97879 0
M  V30 7773 C 871.375 4.45085 6.88694 0
M  V30 7774 O 870.985 5.7877 6.5624 0
M  V30 7775 C 870.495 3.47817 6.12078 0
M  V30 7776 C 871.205 3.39414 4.77697 0
M  V30 7777 N 871.155 2.04615 4.15333 0
M  V30 7778 H 873.994 3.41248 7.98759 0
M  V30 7779 H 874.266 2.5837 6.41742 0
M  V30 7780 H 873.398 5.02657 6.42673 0
M  V30 7781 P 869.435 6.144 6.45285 0
M  V30 7782 O 869.215 7.54673 6.86199 0
M  V30 7783 O 868.645 5.12391 7.179 0
M  V30 7784 O 869.185 5.99158 4.88404 0
M  V30 7785 C 870.125 6.60234 3.96415 0
M  V30 7786 C 869.395 7.08259 2.72856 0
M  V30 7787 O 869.185 5.9427 1.83651 0
M  V30 7788 C 867.995 7.64886 2.9555 0
M  V30 7789 O 867.605 8.53963 1.90717 0
M  V30 7790 C 867.115 6.4116 2.90739 0
M  V30 7791 C 867.825 5.55375 1.86963 0
M  V30 7792 N 867.775 4.09664 2.15742 0
M  V30 7793 H 870.614 7.45574 4.45629 0
M  V30 7794 H 870.886 5.86232 3.67314 0
M  V30 7795 H 870.018 7.84412 2.24479 0
M  V30 7796 P 866.055 8.7635 1.60911 0
M  V30 7797 O 865.835 10.1388 1.11561 0
M  V30 7798 O 865.265 8.36503 2.79617 0
M  V30 7799 O 865.805 7.71806 0.42951 0
M  V30 7800 C 866.745 7.67148 -0.673689 0
M  V30 7801 C 866.015 7.33374 -1.95559 0
M  V30 7802 O 865.805 5.88721 -2.00726 0
M  V30 7803 C 864.615 7.92526 -2.10483 0
M  V30 7804 O 864.225 8.02971 -3.47653 0
M  V30 7805 C 863.735 6.89602 -1.41652 0
M  V30 7806 C 864.445 5.59201 -1.75185 0
M  V30 7807 N 864.395 4.58301 -0.657969 0
M  V30 7808 H 867.234 8.65116 -0.777161 0
M  V30 7809 H 867.506 6.9022 -0.46725 0
M  V30 7810 H 866.638 7.66548 -2.79458 0
M  V30 7811 H 863.983 5.16165 -2.65183 0
M  V30 7812 H 863.703 7.06433 -0.329384 0
M  V30 7813 H 862.712 6.90926 -1.82021 0
M  V30 7814 H 864.546 8.90873 -1.62657 0
M  V30 7815 P 862.675 8.03563 -3.84925 0
M  V30 7816 O 862.455 8.85821 -5.0569 0
M  V30 7817 O 861.885 8.41101 -2.65469 0
M  V30 7818 O 862.425 6.4965 -4.18908 0
M  V30 7819 C 863.365 5.81037 -5.05421 0
M  V30 7820 C 862.635 4.78366 -5.89277 0
M  V30 7821 O 862.425 3.58302 -5.08433 0
M  V30 7822 C 861.235 5.17448 -6.36119 0
M  V30 7823 O 860.845 4.45271 -7.53232 0
M  V30 7824 C 860.355 4.74639 -5.19936 0
M  V30 7825 C 861.065 3.49432 -4.70418 0
M  V30 7826 N 861.015 3.32099 -3.22613 0
M  V30 7827 H 863.854 6.54213 -5.71376 0
M  V30 7828 H 864.126 5.30936 -4.43503 0
M  V30 7829 H 863.258 4.55889 -6.76652 0
M  V30 7830 H 860.603 2.61715 -5.17932 0
M  V30 7831 H 860.323 5.52155 -4.41878 0
M  V30 7832 H 859.332 4.51981 -5.53374 0
M  V30 7833 H 861.166 6.25124 -6.55234 0
M  V30 7834 P 859.295 4.23843 -7.83734 0
M  V30 7835 O 859.075 4.19407 -9.29784 0
M  V30 7836 O 858.505 5.24426 -7.09156 0
M  V30 7837 O 859.045 2.7935 -7.20758 0
M  V30 7838 C 859.985 1.7299 -7.50419 0
M  V30 7839 C 859.255 0.406376 -7.57911 0
M  V30 7840 O 859.045 -0.0897726 -6.21935 0
M  V30 7841 C 857.855 0.447224 -8.1878 0
M  V30 7842 O 857.465 -0.825065 -8.71101 0
M  V30 7843 C 856.975 0.783801 -6.99623 0
M  V30 7844 C 857.685 0.0619192 -5.85967 0
M  V30 7845 N 857.635 0.790462 -4.56202 0
M  V30 7846 H 860.474 1.93423 -8.4679 0
M  V30 7847 H 860.746 1.68852 -6.70877 0
M  V30 7848 H 859.878 -0.289041 -8.15388 0
M  V30 7849 H 857.223 -0.927006 -5.72848 0
M  V30 7850 H 856.943 1.86973 -6.82036 0
M  V30 7851 H 855.952 0.403953 -7.13357 0
M  V30 7852 H 857.786 1.20599 -8.97534 0
M  V30 7853 P 855.915 -1.17771 -8.83182 0
M  V30 7854 O 855.695 -2.07206 -9.98732 0
M  V30 7855 O 855.125 0.0743816 -8.81969 0
M  V30 7856 O 855.665 -1.97652 -7.47304 0
M  V30 7857 C 856.605 -3.01133 -7.08783 0
M  V30 7858 C 855.875 -4.12613 -6.37049 0
M  V30 7859 O 855.665 -3.72827 -4.97879 0
M  V30 7860 C 854.475 -4.45085 -6.88694 0
M  V30 7861 O 854.085 -5.7877 -6.5624 0
M  V30 7862 C 853.595 -3.47817 -6.12078 0
M  V30 7863 C 854.305 -3.39414 -4.77697 0
M  V30 7864 N 854.255 -2.04199 -4.15538 0
M  V30 7865 H 857.094 -3.41248 -7.98759 0
M  V30 7866 H 857.366 -2.57728 -6.42 0
M  V30 7867 H 856.498 -5.02657 -6.42673 0
M  V30 7868 H 853.843 -4.11708 -4.08956 0
M  V30 7869 H 853.563 -2.49626 -6.61679 0
M  V30 7870 H 852.572 -3.8662 -6.00862 0
M  V30 7871 H 854.406 -4.29991 -7.97006 0
M  V30 7872 P 852.535 -6.144 -6.45285 0
M  V30 7873 O 852.315 -7.54673 -6.86199 0
M  V30 7874 O 851.745 -5.12391 -7.179 0
M  V30 7875 O 852.285 -5.99158 -4.88404 0
M  V30 7876 C 853.225 -6.60234 -3.96415 0
M  V30 7877 C 852.495 -7.08259 -2.72856 0
M  V30 7878 O 852.285 -5.9427 -1.83651 0
M  V30 7879 C 851.095 -7.64886 -2.9555 0
M  V30 7880 O 850.705 -8.53963 -1.90717 0
M  V30 7881 C 850.215 -6.4116 -2.90739 0
M  V30 7882 C 850.925 -5.55375 -1.86963 0
M  V30 7883 N 850.875 -4.09448 -2.16152 0
M  V30 7884 H 853.714 -7.45574 -4.45629 0
M  V30 7885 H 853.986 -5.85864 -3.679 0
M  V30 7886 H 853.118 -7.84412 -2.24479 0
M  V30 7887 H 850.463 -5.73457 -0.888562 0
M  V30 7888 H 850.183 -5.90877 -3.88583 0
M  V30 7889 H 849.192 -6.6596 -2.58858 0
M  V30 7890 H 851.026 -8.16339 -3.92049 0
M  V30 7891 P 849.155 -8.7635 -1.60911 0
M  V30 7892 O 848.935 -10.1388 -1.11561 0
M  V30 7893 O 848.365 -8.36503 -2.79617 0
M  V30 7894 O 848.905 -7.71806 -0.42951 0
M  V30 7895 C 849.845 -7.67148 0.673689 0
M  V30 7896 C 849.115 -7.33374 1.95559 0
M  V30 7897 O 848.905 -5.88721 2.00726 0
M  V30 7898 C 847.715 -7.92526 2.10483 0
M  V30 7899 O 847.325 -8.02971 3.47653 0
M  V30 7900 C 846.835 -6.89602 1.41652 0
M  V30 7901 C 847.545 -5.59201 1.75185 0
M  V30 7902 N 847.495 -4.58235 0.662552 0
M  V30 7903 H 850.334 -8.65116 0.777161 0
M  V30 7904 H 850.606 -6.90173 0.474152 0
M  V30 7905 H 849.738 -7.66548 2.79458 0
M  V30 7906 P 845.775 -8.03563 3.84925 0
M  V30 7907 O 845.555 -8.85821 5.0569 0
M  V30 7908 O 844.985 -8.41101 2.65469 0
M  V30 7909 O 845.525 -6.4965 4.18908 0
M  V30 7910 C 846.465 -5.80886 5.05289 0
M  V30 7911 C 845.735 -4.78366 5.89277 0
M  V30 7912 O 845.525 -3.58302 5.08433 0
M  V30 7913 C 844.335 -5.16748 6.36559 0
M  V30 7914 O 843.945 -4.45271 7.53232 0
M  V30 7915 C 843.455 -4.74572 5.19863 0
M  V30 7916 C 844.165 -3.49373 4.70338 0
M  V30 7917 N 844.115 -3.31704 3.22876 0
M  V30 7918 C 843.965 -2.03326 2.74871 0
M  V30 7919 O 843.875 -1.06486 3.48076 0
M  V30 7920 N 843.925 -1.91838 1.37456 0
M  V30 7921 C 844.015 -2.94295 0.462035 0
M  V30 7922 O 843.965 -2.71763 -0.752928 0
M  V30 7923 C 844.165 -4.25064 1.05249 0
M  V30 7924 C 844.275 -5.39815 0.095697 0
M  V30 7925 C 844.215 -4.40214 2.39192 0
M  V30 7926 H 846.956 -6.54063 5.71245 0
M  V30 7927 H 847.225 -5.30339 4.43905 0
M  V30 7928 H 846.358 -4.55889 6.76652 0
M  V30 7929 H 843.703 -2.6167 5.17842 0
M  V30 7930 H 843.424 -5.52155 4.41878 0
M  V30 7931 H 842.432 -4.51918 5.53297 0
M  V30 7932 H 844.266 -6.25055 6.55162 0
M  V30 7933 H 844.337 -5.39798 2.81523 0
M  V30 7934 H 843.307 -5.91593 0.0279582 0
M  V30 7935 H 845.044 -6.10038 0.450573 0
M  V30 7936 H 844.556 -5.02007 -0.89937 0
M  V30 7937 H 843.82 -0.995326 1.00435 0
M  V30 7938 P 842.395 -4.23843 7.83734 0
M  V30 7939 O 842.175 -4.19407 9.29784 0
M  V30 7940 O 841.605 -5.24426 7.09156 0
M  V30 7941 O 842.145 -2.7935 7.20758 0
M  V30 7942 C 843.085 -1.72945 7.50224 0
M  V30 7943 C 842.355 -0.406376 7.57911 0
M  V30 7944 O 842.145 0.0897726 6.21935 0
M  V30 7945 C 840.955 -0.438983 8.18724 0
M  V30 7946 O 840.565 0.825065 8.71101 0
M  V30 7947 C 840.075 -0.783689 6.99524 0
M  V30 7948 C 840.785 -0.0619086 5.85867 0
M  V30 7949 N 840.735 -0.78573 4.56183 0
M  V30 7950 C 840.585 -0.0292889 3.41887 0
M  V30 7951 O 840.495 1.18445 3.4419 0
M  V30 7952 N 840.545 -0.744061 2.23964 0
M  V30 7953 C 840.635 -2.10932 2.10362 0
M  V30 7954 O 840.585 -2.64117 0.98825 0
M  V30 7955 C 840.785 -2.8202 3.34994 0
M  V30 7956 C 840.895 -4.31095 3.25037 0
M  V30 7957 C 840.835 -2.15547 4.52261 0
M  V30 7958 H 843.576 -1.93379 8.46595 0
M  V30 7959 H 843.845 -1.68132 6.70852 0
M  V30 7960 H 842.978 0.289041 8.15388 0
M  V30 7961 H 840.323 0.926847 5.72749 0
M  V30 7962 H 840.044 -1.86973 6.82036 0
M  V30 7963 H 839.052 -0.403896 7.13257 0
M  V30 7964 H 840.886 -1.20585 8.97435 0
M  V30 7965 H 840.957 -2.71231 5.45042 0
M  V30 7966 H 839.927 -4.76966 3.49992 0
M  V30 7967 H 841.664 -4.67047 3.95024 0
M  V30 7968 H 841.176 -4.58996 2.22312 0
M  V30 7969 H 840.44 -0.214893 1.39758 0
M  V30 7970 P 839.015 1.17771 8.83182 0
M  V30 7971 O 838.795 2.07206 9.98732 0
M  V30 7972 O 838.225 -0.0743816 8.81969 0
M  V30 7973 O 838.765 1.97652 7.47304 0
M  V30 7974 C 839.705 3.01133 7.08783 0
M  V30 7975 C 838.975 4.12613 6.37049 0
M  V30 7976 O 838.765 3.72827 4.97879 0
M  V30 7977 C 837.575 4.45085 6.88694 0
M  V30 7978 O 837.185 5.7877 6.5624 0
M  V30 7979 C 836.695 3.47817 6.12078 0
M  V30 7980 C 837.405 3.39414 4.77697 0
M  V30 7981 N 837.355 2.04199 4.15538 0
M  V30 7982 H 840.194 3.41248 7.98759 0
M  V30 7983 H 840.466 2.57728 6.42 0
M  V30 7984 H 839.598 5.02657 6.42673 0
M  V30 7985 H 836.943 4.11708 4.08956 0
M  V30 7986 H 836.663 2.49626 6.61679 0
M  V30 7987 H 835.672 3.8662 6.00862 0
M  V30 7988 H 837.506 4.29991 7.97006 0
M  V30 7989 P 835.635 6.144 6.45285 0
M  V30 7990 O 835.415 7.54673 6.86199 0
M  V30 7991 O 834.845 5.12391 7.179 0
M  V30 7992 O 835.385 5.99158 4.88404 0
M  V30 7993 C 836.325 6.60062 3.96313 0
M  V30 7994 C 835.595 7.08259 2.72856 0
M  V30 7995 O 835.385 5.9427 1.83651 0
M  V30 7996 C 834.195 7.65087 2.94749 0
M  V30 7997 O 833.805 8.53963 1.90717 0
M  V30 7998 C 833.315 6.41069 2.90698 0
M  V30 7999 C 834.025 5.5528 1.86931 0
M  V30 8000 N 833.975 4.09575 2.15696 0
M  V30 8001 C 833.825 3.24249 1.08435 0
M  V30 8002 O 833.735 3.63946 -0.0628747 0
M  V30 8003 N 833.785 1.90009 1.39973 0
M  V30 8004 C 833.875 1.34884 2.65614 0
M  V30 8005 O 833.825 0.123716 2.81728 0
M  V30 8006 C 834.025 2.3145 3.71736 0
M  V30 8007 C 834.135 1.75913 5.10438 0
M  V30 8008 C 834.075 3.63518 3.44754 0
M  V30 8009 H 836.816 7.45402 4.45526 0
M  V30 8010 H 837.085 5.86062 3.67208 0
M  V30 8011 H 836.218 7.84412 2.24479 0
M  V30 8012 H 833.563 5.73358 0.888409 0
M  V30 8013 H 833.284 5.90877 3.88583 0
M  V30 8014 H 832.292 6.65867 2.58821 0
M  V30 8015 H 834.126 8.16248 3.92006 0
M  V30 8016 H 834.197 4.34551 4.26383 0
M  V30 8017 H 833.167 1.85471 5.61775 0
M  V30 8018 H 834.904 2.31364 5.66257 0
M  V30 8019 H 834.416 0.695936 5.05229 0
M  V30 8020 H 833.68 1.26277 0.63625 0
M  V30 8021 P 832.255 8.7635 1.60911 0
M  V30 8022 O 832.035 10.1388 1.11561 0
M  V30 8023 O 831.465 8.36503 2.79617 0
M  V30 8024 O 832.005 7.71806 0.42951 0
M  V30 8025 C 832.945 7.67148 -0.673689 0
M  V30 8026 C 832.215 7.33374 -1.95559 0
M  V30 8027 O 832.005 5.88721 -2.00726 0
M  V30 8028 C 830.815 7.92526 -2.10483 0
M  V30 8029 O 830.425 8.02971 -3.47653 0
M  V30 8030 C 829.935 6.89602 -1.41652 0
M  V30 8031 C 830.645 5.59201 -1.75185 0
M  V30 8032 N 830.595 4.58235 -0.662552 0
M  V30 8033 H 833.434 8.65116 -0.777161 0
M  V30 8034 H 833.706 6.90173 -0.474152 0
M  V30 8035 H 832.838 7.66548 -2.79458 0
M  V30 8036 P 828.875 8.03563 -3.84925 0
M  V30 8037 O 828.655 8.85821 -5.0569 0
M  V30 8038 O 828.085 8.41101 -2.65469 0
M  V30 8039 O 828.625 6.49734 -4.18962 0
M  V30 8040 C 829.565 5.81037 -5.05421 0
M  V30 8041 C 828.835 4.79018 -5.88876 0
M  V30 8042 O 828.625 3.58359 -5.08515 0
M  V30 8043 C 827.435 5.17448 -6.36119 0
M  V30 8044 O 827.045 4.45322 -7.53318 0
M  V30 8045 C 826.555 4.74639 -5.19936 0
M  V30 8046 C 827.265 3.49432 -4.70418 0
M  V30 8047 N 827.215 3.31776 -3.22945 0
M  V30 8048 C 827.065 2.02742 -2.72939 0
M  V30 8049 O 826.975 1.08301 -3.52749 0
M  V30 8050 N 827.015 1.96117 -1.22063 0
M  V30 8051 C 827.115 2.8878 -0.551566 0
M  V30 8052 N 827.065 2.65609 0.750198 0
M  V30 8053 C 827.265 4.22457 -1.03707 0
M  V30 8054 C 827.315 4.37979 -2.39113 0
M  V30 8055 H 830.055 6.54138 -5.7131 0
M  V30 8056 H 830.325 5.30492 -4.44033 0
M  V30 8057 H 829.458 4.55945 -6.76735 0
M  V30 8058 H 826.803 2.6176 -5.18021 0
M  V30 8059 H 826.523 5.52233 -4.41941 0
M  V30 8060 H 825.532 4.52045 -5.53452 0
M  V30 8061 H 827.366 6.25124 -6.55234 0
M  V30 8062 H 827.438 5.37936 -2.80552 0
M  V30 8063 H 827.336 5.07528 -0.359553 0
M  V30 8064 H 826.948 1.69403 1.09847 0
M  V30 8065 H 827.144 3.43701 1.41792 0
M  V30 8066 P 825.495 4.23843 -7.83734 0
M  V30 8067 O 825.275 4.19407 -9.29784 0
M  V30 8068 O 824.705 5.24426 -7.09156 0
M  V30 8069 O 825.245 2.7935 -7.20758 0
M  V30 8070 C 826.185 1.7299 -7.50419 0
M  V30 8071 C 825.455 0.406376 -7.57911 0
M  V30 8072 O 825.245 -0.0897726 -6.21935 0
M  V30 8073 C 824.055 0.447224 -8.1878 0
M  V30 8074 O 823.665 -0.825065 -8.71101 0
M  V30 8075 C 823.175 0.783801 -6.99623 0
M  V30 8076 C 823.885 0.0619192 -5.85967 0
M  V30 8077 N 823.835 0.790462 -4.56202 0
M  V30 8078 H 826.674 1.93423 -8.4679 0
M  V30 8079 H 826.946 1.68852 -6.70877 0
M  V30 8080 H 826.078 -0.289041 -8.15388 0
M  V30 8081 H 823.423 -0.927006 -5.72848 0
M  V30 8082 H 823.143 1.86973 -6.82036 0
M  V30 8083 H 822.152 0.403953 -7.13357 0
M  V30 8084 H 823.986 1.20599 -8.97534 0
M  V30 8085 P 822.115 -1.17771 -8.83182 0
M  V30 8086 O 821.895 -2.07206 -9.98732 0
M  V30 8087 O 821.325 0.0743816 -8.81969 0
M  V30 8088 O 821.865 -1.97652 -7.47304 0
M  V30 8089 C 822.805 -3.01133 -7.08783 0
M  V30 8090 C 822.075 -4.12613 -6.37049 0
M  V30 8091 O 821.865 -3.72827 -4.97879 0
M  V30 8092 C 820.675 -4.45085 -6.88694 0
M  V30 8093 O 820.285 -5.7877 -6.5624 0
M  V30 8094 C 819.795 -3.47817 -6.12078 0
M  V30 8095 C 820.505 -3.39414 -4.77697 0
M  V30 8096 N 820.455 -2.04615 -4.15333 0
M  V30 8097 H 823.294 -3.41248 -7.98759 0
M  V30 8098 H 823.566 -2.5837 -6.41742 0
M  V30 8099 H 822.698 -5.02657 -6.42673 0
M  V30 8100 P 818.735 -6.144 -6.45285 0
M  V30 8101 O 818.515 -7.54673 -6.86199 0
M  V30 8102 O 817.945 -5.12391 -7.179 0
M  V30 8103 O 818.485 -5.99158 -4.88404 0
M  V30 8104 C 819.425 -6.60234 -3.96415 0
M  V30 8105 C 818.695 -7.08259 -2.72856 0
M  V30 8106 O 818.485 -5.9427 -1.83651 0
M  V30 8107 C 817.295 -7.64886 -2.9555 0
M  V30 8108 O 816.905 -8.53963 -1.90717 0
M  V30 8109 C 816.415 -6.4116 -2.90739 0
M  V30 8110 C 817.125 -5.55375 -1.86963 0
M  V30 8111 N 817.075 -4.09448 -2.16152 0
M  V30 8112 H 819.914 -7.45574 -4.45629 0
M  V30 8113 H 820.186 -5.85864 -3.679 0
M  V30 8114 H 819.318 -7.84412 -2.24479 0
M  V30 8115 H 816.663 -5.73457 -0.888562 0
M  V30 8116 H 816.383 -5.90877 -3.88583 0
M  V30 8117 H 815.392 -6.6596 -2.58858 0
M  V30 8118 H 817.226 -8.16339 -3.92049 0
M  V30 8119 P 815.355 -8.7635 -1.60911 0
M  V30 8120 O 815.135 -10.1388 -1.11561 0
M  V30 8121 O 814.565 -8.36503 -2.79617 0
M  V30 8122 O 815.105 -7.71806 -0.42951 0
M  V30 8123 C 816.045 -7.67148 0.673689 0
M  V30 8124 C 815.315 -7.33374 1.95559 0
M  V30 8125 O 815.105 -5.88721 2.00726 0
M  V30 8126 C 813.915 -7.92526 2.10483 0
M  V30 8127 O 813.525 -8.02971 3.47653 0
M  V30 8128 C 813.035 -6.89602 1.41652 0
M  V30 8129 C 813.745 -5.59201 1.75185 0
M  V30 8130 N 813.695 -4.58301 0.657969 0
M  V30 8131 C 813.775 -4.79019 -0.692603 0
M  V30 8132 N 813.705 -3.69736 -1.38998 0
M  V30 8133 C 813.555 -2.70474 -0.438135 0
M  V30 8134 C 813.425 -1.30327 -0.538142 0
M  V30 8135 N 813.415 -0.64304 -1.69192 0
M  V30 8136 N 813.305 -0.611027 0.605183 0
M  V30 8137 C 813.315 -1.27002 1.75953 0
M  V30 8138 N 813.435 -2.56038 1.98546 0
M  V30 8139 C 813.555 -3.22681 0.822541 0
M  V30 8140 H 816.534 -8.65116 0.777161 0
M  V30 8141 H 816.806 -6.9022 0.46725 0
M  V30 8142 H 815.938 -7.66548 2.79458 0
M  V30 8143 H 813.283 -5.16165 2.65183 0
M  V30 8144 H 813.003 -7.06433 0.329384 0
M  V30 8145 H 812.012 -6.90926 1.82021 0
M  V30 8146 H 813.846 -8.90873 1.62657 0
M  V30 8147 H 813.887 -5.77785 -1.13874 0
M  V30 8148 H 813.506 -1.15585 -2.57991 0
M  V30 8149 H 813.317 0.382989 -1.69835 0
M  V30 8150 H 813.209 -0.653331 2.64449 0
M  V30 8151 P 811.975 -8.03563 3.84925 0
M  V30 8152 O 811.755 -8.85821 5.0569 0
M  V30 8153 O 811.185 -8.41101 2.65469 0
M  V30 8154 O 811.725 -6.4965 4.18908 0
M  V30 8155 C 812.665 -5.81037 5.05421 0
M  V30 8156 C 811.935 -4.78366 5.89277 0
M  V30 8157 O 811.725 -3.58302 5.08433 0
M  V30 8158 C 810.535 -5.17448 6.36119 0
M  V30 8159 O 810.145 -4.45271 7.53232 0
M  V30 8160 C 809.655 -4.74639 5.19936 0
M  V30 8161 C 810.365 -3.49432 4.70418 0
M  V30 8162 N 810.315 -3.31776 3.22945 0
M  V30 8163 H 813.154 -6.54213 5.71376 0
M  V30 8164 H 813.426 -5.30492 4.44033 0
M  V30 8165 H 812.558 -4.55889 6.76652 0
M  V30 8166 P 808.595 -4.23843 7.83734 0
M  V30 8167 O 808.375 -4.19407 9.29784 0
M  V30 8168 O 807.805 -5.24426 7.09156 0
M  V30 8169 O 808.345 -2.7935 7.20758 0
M  V30 8170 C 809.285 -1.7299 7.50419 0
M  V30 8171 C 808.555 -0.406376 7.57911 0
M  V30 8172 O 808.345 0.0897726 6.21935 0
M  V30 8173 C 807.155 -0.447224 8.1878 0
M  V30 8174 O 806.765 0.825065 8.71101 0
M  V30 8175 C 806.275 -0.783801 6.99623 0
M  V30 8176 C 806.985 -0.0619192 5.85967 0
M  V30 8177 N 806.935 -0.7859 4.56281 0
M  V30 8178 H 809.774 -1.93423 8.4679 0
M  V30 8179 H 810.046 -1.68181 6.71046 0
M  V30 8180 H 809.178 0.289041 8.15388 0
M  V30 8181 P 805.215 1.17771 8.83182 0
M  V30 8182 O 804.995 2.07206 9.98732 0
M  V30 8183 O 804.425 -0.0743816 8.81969 0
M  V30 8184 O 804.965 1.97652 7.47304 0
M  V30 8185 C 805.905 3.01133 7.08783 0
M  V30 8186 C 805.175 4.12613 6.37049 0
M  V30 8187 O 804.965 3.72827 4.97879 0
M  V30 8188 C 803.775 4.45085 6.88694 0
M  V30 8189 O 803.385 5.7877 6.5624 0
M  V30 8190 C 802.895 3.47817 6.12078 0
M  V30 8191 C 803.605 3.39414 4.77697 0
M  V30 8192 N 803.555 2.04615 4.15333 0
M  V30 8193 H 806.394 3.41248 7.98759 0
M  V30 8194 H 806.666 2.5837 6.41742 0
M  V30 8195 H 805.798 5.02657 6.42673 0
M  V30 8196 P 801.835 6.144 6.45285 0
M  V30 8197 O 801.615 7.54673 6.86199 0
M  V30 8198 O 801.045 5.12391 7.179 0
M  V30 8199 O 801.585 5.99158 4.88404 0
M  V30 8200 C 802.525 6.60234 3.96415 0
M  V30 8201 C 801.795 7.08259 2.72856 0
M  V30 8202 O 801.585 5.9427 1.83651 0
M  V30 8203 C 800.395 7.64886 2.9555 0
M  V30 8204 O 800.005 8.53963 1.90717 0
M  V30 8205 C 799.515 6.4116 2.90739 0
M  V30 8206 C 800.225 5.55375 1.86963 0
M  V30 8207 N 800.175 4.09448 2.16152 0
M  V30 8208 H 803.014 7.45574 4.45629 0
M  V30 8209 H 803.286 5.85864 3.679 0
M  V30 8210 H 802.418 7.84412 2.24479 0
M  V30 8211 H 799.763 5.73457 0.888562 0
M  V30 8212 H 799.483 5.90877 3.88583 0
M  V30 8213 H 798.492 6.6596 2.58858 0
M  V30 8214 H 800.326 8.16339 3.92049 0
M  V30 8215 P 798.455 8.7635 1.60911 0
M  V30 8216 O 798.235 10.1388 1.11561 0
M  V30 8217 O 797.665 8.36503 2.79617 0
M  V30 8218 O 798.205 7.71806 0.42951 0
M  V30 8219 C 799.145 7.67148 -0.673689 0
M  V30 8220 C 798.415 7.33374 -1.95559 0
M  V30 8221 O 798.205 5.88721 -2.00726 0
M  V30 8222 C 797.015 7.92526 -2.10483 0
M  V30 8223 O 796.625 8.02971 -3.47653 0
M  V30 8224 C 796.135 6.89602 -1.41652 0
M  V30 8225 C 796.845 5.59201 -1.75185 0
M  V30 8226 N 796.795 4.58235 -0.662552 0
M  V30 8227 H 799.634 8.65116 -0.777161 0
M  V30 8228 H 799.906 6.90173 -0.474152 0
M  V30 8229 H 799.038 7.66548 -2.79458 0
M  V30 8230 P 795.075 8.03563 -3.84925 0
M  V30 8231 O 794.855 8.85821 -5.0569 0
M  V30 8232 O 794.285 8.41101 -2.65469 0
M  V30 8233 O 794.825 6.4965 -4.18908 0
M  V30 8234 C 795.765 5.81037 -5.05421 0
M  V30 8235 C 795.035 4.78366 -5.89277 0
M  V30 8236 O 794.825 3.58302 -5.08433 0
M  V30 8237 C 793.635 5.17448 -6.36119 0
M  V30 8238 O 793.245 4.45271 -7.53232 0
M  V30 8239 C 792.755 4.74639 -5.19936 0
M  V30 8240 C 793.465 3.49432 -4.70418 0
M  V30 8241 N 793.415 3.31776 -3.22945 0
M  V30 8242 H 796.254 6.54213 -5.71376 0
M  V30 8243 H 796.526 5.30492 -4.44033 0
M  V30 8244 H 795.658 4.55889 -6.76652 0
M  V30 8245 P 791.695 4.23843 -7.83734 0
M  V30 8246 O 791.475 4.19407 -9.29784 0
M  V30 8247 O 790.905 5.24426 -7.09156 0
M  V30 8248 O 791.445 2.7935 -7.20758 0
M  V30 8249 C 792.385 1.7299 -7.50419 0
M  V30 8250 C 791.655 0.406376 -7.57911 0
M  V30 8251 O 791.445 -0.0897726 -6.21935 0
M  V30 8252 C 790.255 0.447224 -8.1878 0
M  V30 8253 O 789.865 -0.825065 -8.71101 0
M  V30 8254 C 789.375 0.783801 -6.99623 0
M  V30 8255 C 790.085 0.0619192 -5.85967 0
M  V30 8256 N 790.035 0.790462 -4.56202 0
M  V30 8257 H 792.874 1.93423 -8.4679 0
M  V30 8258 H 793.146 1.68852 -6.70877 0
M  V30 8259 H 792.278 -0.289041 -8.15388 0
M  V30 8260 H 789.623 -0.927006 -5.72848 0
M  V30 8261 H 789.343 1.86973 -6.82036 0
M  V30 8262 H 788.352 0.403953 -7.13357 0
M  V30 8263 H 790.186 1.20599 -8.97534 0
M  V30 8264 P 788.315 -1.17771 -8.83182 0
M  V30 8265 O 788.095 -2.07206 -9.98732 0
M  V30 8266 O 787.525 0.0743816 -8.81969 0
M  V30 8267 O 788.065 -1.97652 -7.47304 0
M  V30 8268 C 789.005 -3.01133 -7.08783 0
M  V30 8269 C 788.275 -4.12613 -6.37049 0
M  V30 8270 O 788.065 -3.72827 -4.97879 0
M  V30 8271 C 786.875 -4.45085 -6.88694 0
M  V30 8272 O 786.485 -5.7877 -6.5624 0
M  V30 8273 C 785.995 -3.47817 -6.12078 0
M  V30 8274 C 786.705 -3.39414 -4.77697 0
M  V30 8275 N 786.655 -2.04199 -4.15538 0
M  V30 8276 C 786.735 -0.821545 -4.76977 0
M  V30 8277 N 786.665 0.1794 -3.94592 0
M  V30 8278 C 786.515 -0.419121 -2.70776 0
M  V30 8279 C 786.385 0.109072 -1.40577 0
M  V30 8280 N 786.375 1.4104 -1.1344 0
M  V30 8281 N 786.265 -0.764381 -0.39411 0
M  V30 8282 C 786.275 -2.06587 -0.664135 0
M  V30 8283 N 786.395 -2.67948 -1.82153 0
M  V30 8284 C 786.515 -1.77942 -2.8147 0
M  V30 8285 H 789.494 -3.41248 -7.98759 0
M  V30 8286 H 789.766 -2.57728 -6.42 0
M  V30 8287 H 788.898 -5.02657 -6.42673 0
M  V30 8288 H 786.243 -4.11708 -4.08956 0
M  V30 8289 H 785.963 -2.49626 -6.61679 0
M  V30 8290 H 784.972 -3.8662 -6.00862 0
M  V30 8291 H 786.806 -4.29991 -7.97006 0
M  V30 8292 H 786.847 -0.702451 -5.84696 0
M  V30 8293 H 786.466 2.09647 -1.89651 0
M  V30 8294 H 786.277 1.73358 -0.160575 0
M  V30 8295 H 786.169 -2.71695 0.195838 0
M  V30 8296 P 784.935 -6.144 -6.45285 0
M  V30 8297 O 784.715 -7.54673 -6.86199 0
M  V30 8298 O 784.145 -5.12391 -7.179 0
M  V30 8299 O 784.685 -5.99158 -4.88404 0
M  V30 8300 C 785.625 -6.60234 -3.96415 0
M  V30 8301 C 784.895 -7.08259 -2.72856 0
M  V30 8302 O 784.685 -5.9427 -1.83651 0
M  V30 8303 C 783.495 -7.64886 -2.9555 0
M  V30 8304 O 783.105 -8.53963 -1.90717 0
M  V30 8305 C 782.615 -6.4116 -2.90739 0
M  V30 8306 C 783.325 -5.55375 -1.86963 0
M  V30 8307 N 783.275 -4.09448 -2.16152 0
M  V30 8308 H 786.114 -7.45574 -4.45629 0
M  V30 8309 H 786.386 -5.85864 -3.679 0
M  V30 8310 H 785.518 -7.84412 -2.24479 0
M  V30 8311 H 782.863 -5.73457 -0.888562 0
M  V30 8312 H 782.583 -5.90877 -3.88583 0
M  V30 8313 H 781.592 -6.6596 -2.58858 0
M  V30 8314 H 783.426 -8.16339 -3.92049 0
M  V30 8315 P 781.555 -8.7635 -1.60911 0
M  V30 8316 O 781.335 -10.1388 -1.11561 0
M  V30 8317 O 780.765 -8.36503 -2.79617 0
M  V30 8318 O 781.305 -7.71806 -0.42951 0
M  V30 8319 C 782.245 -7.67148 0.673689 0
M  V30 8320 C 781.515 -7.33374 1.95559 0
M  V30 8321 O 781.305 -5.88721 2.00726 0
M  V30 8322 C 780.115 -7.92526 2.10483 0
M  V30 8323 O 779.725 -8.02971 3.47653 0
M  V30 8324 C 779.235 -6.89602 1.41652 0
M  V30 8325 C 779.945 -5.59201 1.75185 0
M  V30 8326 N 779.895 -4.58235 0.662552 0
M  V30 8327 H 782.734 -8.65116 0.777161 0
M  V30 8328 H 783.006 -6.90173 0.474152 0
M  V30 8329 H 782.138 -7.66548 2.79458 0
M  V30 8330 P 778.175 -8.03563 3.84925 0
M  V30 8331 O 777.955 -8.85821 5.0569 0
M  V30 8332 O 777.385 -8.41101 2.65469 0
M  V30 8333 O 777.925 -6.4965 4.18908 0
M  V30 8334 C 778.865 -5.81037 5.05421 0
M  V30 8335 C 778.135 -4.78366 5.89277 0
M  V30 8336 O 777.925 -3.58302 5.08433 0
M  V30 8337 C 776.735 -5.17448 6.36119 0
M  V30 8338 O 776.345 -4.45271 7.53232 0
M  V30 8339 C 775.855 -4.74639 5.19936 0
M  V30 8340 C 776.565 -3.49432 4.70418 0
M  V30 8341 N 776.515 -3.32099 3.22613 0
M  V30 8342 H 779.354 -6.54213 5.71376 0
M  V30 8343 H 779.626 -5.30936 4.43503 0
M  V30 8344 H 778.758 -4.55889 6.76652 0
M  V30 8345 H 776.103 -2.61715 5.17932 0
M  V30 8346 H 775.823 -5.52155 4.41878 0
M  V30 8347 H 774.832 -4.51981 5.53374 0
M  V30 8348 H 776.666 -6.25124 6.55234 0
M  V30 8349 P 774.795 -4.23843 7.83734 0
M  V30 8350 O 774.575 -4.19407 9.29784 0
M  V30 8351 O 774.005 -5.24426 7.09156 0
M  V30 8352 O 774.545 -2.7935 7.20758 0
M  V30 8353 C 775.485 -1.7299 7.50419 0
M  V30 8354 C 774.755 -0.406376 7.57911 0
M  V30 8355 O 774.545 0.0897726 6.21935 0
M  V30 8356 C 773.355 -0.447224 8.1878 0
M  V30 8357 O 772.965 0.825065 8.71101 0
M  V30 8358 C 772.475 -0.783801 6.99623 0
M  V30 8359 C 773.185 -0.0619192 5.85967 0
M  V30 8360 N 773.135 -0.7859 4.56281 0
M  V30 8361 C 773.215 -2.14308 4.31736 0
M  V30 8362 N 773.135 -2.46106 3.05116 0
M  V30 8363 C 772.995 -1.23422 2.4014 0
M  V30 8364 C 772.865 -0.938381 1.02409 0
M  V30 8365 N 772.745 0.444647 0.805413 0
M  V30 8366 C 772.745 1.40829 1.79435 0
M  V30 8367 N 772.615 2.67213 1.38558 0
M  V30 8368 N 772.875 1.12947 3.09005 0
M  V30 8369 C 772.995 -0.204887 3.32369 0
M  V30 8370 H 775.974 -1.93423 8.4679 0
M  V30 8371 H 776.246 -1.68181 6.71046 0
M  V30 8372 H 775.378 0.289041 8.15388 0
M  V30 8373 P 771.415 1.17771 8.83182 0
M  V30 8374 O 771.195 2.07206 9.98732 0
M  V30 8375 O 770.625 -0.0743816 8.81969 0
M  V30 8376 O 771.165 1.97652 7.47304 0
M  V30 8377 C 772.105 3.01133 7.08783 0
M  V30 8378 C 771.375 4.12613 6.37049 0
M  V30 8379 O 771.165 3.72827 4.97879 0
M  V30 8380 C 769.975 4.45085 6.88694 0
M  V30 8381 O 769.585 5.7877 6.5624 0
M  V30 8382 C 769.095 3.47817 6.12078 0
M  V30 8383 C 769.805 3.39414 4.77697 0
M  V30 8384 N 769.755 2.04615 4.15333 0
M  V30 8385 H 772.594 3.41248 7.98759 0
M  V30 8386 H 772.866 2.5837 6.41742 0
M  V30 8387 H 771.998 5.02657 6.42673 0
M  V30 8388 P 768.035 6.144 6.45285 0
M  V30 8389 O 767.815 7.54673 6.86199 0
M  V30 8390 O 767.245 5.12391 7.179 0
M  V30 8391 O 767.785 5.99158 4.88404 0
M  V30 8392 C 768.725 6.60234 3.96415 0
M  V30 8393 C 767.995 7.08259 2.72856 0
M  V30 8394 O 767.785 5.9427 1.83651 0
M  V30 8395 C 766.595 7.64886 2.9555 0
M  V30 8396 O 766.205 8.53963 1.90717 0
M  V30 8397 C 765.715 6.4116 2.90739 0
M  V30 8398 C 766.425 5.55375 1.86963 0
M  V30 8399 N 766.375 4.09664 2.15742 0
M  V30 8400 H 769.214 7.45574 4.45629 0
M  V30 8401 H 769.486 5.86232 3.67314 0
M  V30 8402 H 768.618 7.84412 2.24479 0
M  V30 8403 P 764.656 8.7635 1.60911 0
M  V30 8404 O 764.436 10.1388 1.11561 0
M  V30 8405 O 763.866 8.36503 2.79617 0
M  V30 8406 O 764.406 7.71806 0.42951 0
M  V30 8407 C 765.346 7.67148 -0.673689 0
M  V30 8408 C 764.616 7.33374 -1.95559 0
M  V30 8409 O 764.406 5.88721 -2.00726 0
M  V30 8410 C 763.216 7.92526 -2.10483 0
M  V30 8411 O 762.826 8.02971 -3.47653 0
M  V30 8412 C 762.336 6.89602 -1.41652 0
M  V30 8413 C 763.046 5.59201 -1.75185 0
M  V30 8414 N 762.996 4.58301 -0.657969 0
M  V30 8415 H 765.835 8.65116 -0.777161 0
M  V30 8416 H 766.107 6.9022 -0.46725 0
M  V30 8417 H 765.239 7.66548 -2.79458 0
M  V30 8418 H 762.584 5.16165 -2.65183 0
M  V30 8419 H 762.304 7.06433 -0.329384 0
M  V30 8420 H 761.313 6.90926 -1.82021 0
M  V30 8421 H 763.147 8.90873 -1.62657 0
M  V30 8422 P 761.276 8.03563 -3.84925 0
M  V30 8423 O 761.056 8.85821 -5.0569 0
M  V30 8424 O 760.486 8.41101 -2.65469 0
M  V30 8425 O 761.026 6.4965 -4.18908 0
M  V30 8426 C 761.966 5.80886 -5.05289 0
M  V30 8427 C 761.236 4.78366 -5.89277 0
M  V30 8428 O 761.026 3.58302 -5.08433 0
M  V30 8429 C 759.836 5.16748 -6.36559 0
M  V30 8430 O 759.446 4.45271 -7.53232 0
M  V30 8431 C 758.956 4.74572 -5.19863 0
M  V30 8432 C 759.666 3.49373 -4.70338 0
M  V30 8433 N 759.616 3.31704 -3.22876 0
M  V30 8434 C 759.466 2.03326 -2.74871 0
M  V30 8435 O 759.376 1.06486 -3.48076 0
M  V30 8436 N 759.426 1.91838 -1.37456 0
M  V30 8437 C 759.516 2.94295 -0.462035 0
M  V30 8438 C 759.666 4.25064 -1.05249 0
M  V30 8439 C 759.716 4.40214 -2.39192 0
M  V30 8440 H 762.457 6.54063 -5.71245 0
M  V30 8441 H 762.726 5.30339 -4.43905 0
M  V30 8442 H 761.859 4.55889 -6.76652 0
M  V30 8443 H 759.204 2.6167 -5.17842 0
M  V30 8444 H 758.925 5.52155 -4.41878 0
M  V30 8445 H 757.933 4.51918 -5.53297 0
M  V30 8446 H 759.767 6.25055 -6.55162 0
M  V30 8447 H 759.838 5.39798 -2.81523 0
M  V30 8448 P 757.896 4.23843 -7.83734 0
M  V30 8449 O 757.676 4.19407 -9.29784 0
M  V30 8450 O 757.106 5.24426 -7.09156 0
M  V30 8451 O 757.646 2.7935 -7.20758 0
M  V30 8452 C 758.586 1.7299 -7.50419 0
M  V30 8453 C 757.856 0.406376 -7.57911 0
M  V30 8454 O 757.646 -0.0897726 -6.21935 0
M  V30 8455 C 756.456 0.447224 -8.1878 0
M  V30 8456 O 756.066 -0.825065 -8.71101 0
M  V30 8457 C 755.576 0.783801 -6.99623 0
M  V30 8458 C 756.286 0.0619192 -5.85967 0
M  V30 8459 N 756.236 0.790462 -4.56202 0
M  V30 8460 H 759.075 1.93423 -8.4679 0
M  V30 8461 H 759.347 1.68852 -6.70877 0
M  V30 8462 H 758.479 -0.289041 -8.15388 0
M  V30 8463 H 755.824 -0.927006 -5.72848 0
M  V30 8464 H 755.544 1.86973 -6.82036 0
M  V30 8465 H 754.553 0.403953 -7.13357 0
M  V30 8466 H 756.387 1.20599 -8.97534 0
M  V30 8467 P 754.516 -1.17771 -8.83182 0
M  V30 8468 O 754.296 -2.07206 -9.98732 0
M  V30 8469 O 753.726 0.0743816 -8.81969 0
M  V30 8470 O 754.266 -1.97652 -7.47304 0
M  V30 8471 C 755.206 -3.01055 -7.08599 0
M  V30 8472 C 754.476 -4.12613 -6.37049 0
M  V30 8473 O 754.266 -3.72827 -4.97879 0
M  V30 8474 C 753.076 -4.45719 -6.88164 0
M  V30 8475 O 752.686 -5.7877 -6.5624 0
M  V30 8476 C 752.196 -3.47768 -6.11991 0
M  V30 8477 C 752.906 -3.39356 -4.77615 0
M  V30 8478 N 752.856 -2.04571 -4.15244 0
M  V30 8479 C 752.706 -1.98587 -2.78314 0
M  V30 8480 O 752.616 -2.98134 -2.08835 0
M  V30 8481 N 752.666 -0.714467 -2.24925 0
M  V30 8482 C 752.756 0.470001 -2.94169 0
M  V30 8483 O 752.706 1.55587 -2.35195 0
M  V30 8484 C 752.906 0.312541 -4.36783 0
M  V30 8485 C 753.016 1.57711 -5.16352 0
M  V30 8486 C 752.956 -0.914512 -4.92583 0
M  V30 8487 H 755.697 -3.41169 -7.98575 0
M  V30 8488 H 755.966 -2.58295 -6.41556 0
M  V30 8489 H 755.099 -5.02657 -6.42673 0
M  V30 8490 H 752.444 -4.11637 -4.08885 0
M  V30 8491 H 752.165 -2.49626 -6.61679 0
M  V30 8492 H 751.173 -3.86566 -6.00778 0
M  V30 8493 H 753.007 -4.29943 -7.96918 0
M  V30 8494 H 753.078 -1.00937 -6.00374 0
M  V30 8495 H 752.048 1.80153 -5.63503 0
M  V30 8496 H 753.785 1.4566 -5.94104 0
M  V30 8497 H 753.297 2.40664 -4.49645 0
M  V30 8498 H 752.561 -0.647622 -1.25697 0
M  V30 8499 P 751.136 -6.144 -6.45285 0
M  V30 8500 O 750.916 -7.54673 -6.86199 0
M  V30 8501 O 750.346 -5.12391 -7.179 0
M  V30 8502 O 750.886 -5.99158 -4.88404 0
M  V30 8503 C 751.826 -6.60234 -3.96415 0
M  V30 8504 C 751.096 -7.08259 -2.72856 0
M  V30 8505 O 750.886 -5.9427 -1.83651 0
M  V30 8506 C 749.696 -7.64886 -2.9555 0
M  V30 8507 O 749.306 -8.53963 -1.90717 0
M  V30 8508 C 748.816 -6.4116 -2.90739 0
M  V30 8509 C 749.526 -5.55375 -1.86963 0
M  V30 8510 N 749.476 -4.09448 -2.16152 0
M  V30 8511 C 749.556 -3.46824 -3.37593 0
M  V30 8512 N 749.486 -2.17422 -3.29777 0
M  V30 8513 C 749.336 -1.93065 -1.94427 0
M  V30 8514 C 749.206 -0.738053 -1.20141 0
M  V30 8515 N 749.196 0.474256 -1.74676 0
M  V30 8516 N 749.086 -0.850049 0.13045 0
M  V30 8517 C 749.096 -2.06169 0.676992 0
M  V30 8518 N 749.216 -3.23842 0.101312 0
M  V30 8519 C 749.336 -3.09402 -1.23122 0
M  V30 8520 H 752.315 -7.45574 -4.45629 0
M  V30 8521 H 752.587 -5.85864 -3.679 0
M  V30 8522 H 751.719 -7.84412 -2.24479 0
M  V30 8523 H 749.064 -5.73457 -0.888562 0
M  V30 8524 H 748.784 -5.90877 -3.88583 0
M  V30 8525 H 747.793 -6.6596 -2.58858 0
M  V30 8526 H 749.627 -8.16339 -3.92049 0
M  V30 8527 H 749.668 -4.00505 -4.3174 0
M  V30 8528 H 749.287 0.581337 -2.76658 0
M  V30 8529 H 749.098 1.30811 -1.14888 0
M  V30 8530 H 748.99 -2.08295 1.75542 0
M  V30 8531 P 747.756 -8.7635 -1.60911 0
M  V30 8532 O 747.536 -10.1388 -1.11561 0
M  V30 8533 O 746.966 -8.36503 -2.79617 0
M  V30 8534 O 747.506 -7.71806 -0.42951 0
M  V30 8535 C 748.446 -7.67148 0.673689 0
M  V30 8536 C 747.716 -7.33374 1.95559 0
M  V30 8537 O 747.506 -5.88721 2.00726 0
M  V30 8538 C 746.316 -7.92526 2.10483 0
M  V30 8539 O 745.926 -8.02971 3.47653 0
M  V30 8540 C 745.436 -6.89602 1.41652 0
M  V30 8541 C 746.146 -5.59201 1.75185 0
M  V30 8542 N 746.096 -4.58235 0.662552 0
M  V30 8543 H 748.935 -8.65116 0.777161 0
M  V30 8544 H 749.207 -6.90173 0.474152 0
M  V30 8545 H 748.339 -7.66548 2.79458 0
M  V30 8546 P 744.376 -8.03563 3.84925 0
M  V30 8547 O 744.156 -8.85821 5.0569 0
M  V30 8548 O 743.586 -8.41101 2.65469 0
M  V30 8549 O 744.126 -6.4965 4.18908 0
M  V30 8550 C 745.066 -5.81037 5.05421 0
M  V30 8551 C 744.336 -4.78366 5.89277 0
M  V30 8552 O 744.126 -3.58302 5.08433 0
M  V30 8553 C 742.936 -5.17448 6.36119 0
M  V30 8554 O 742.546 -4.45271 7.53232 0
M  V30 8555 C 742.056 -4.74639 5.19936 0
M  V30 8556 C 742.766 -3.49432 4.70418 0
M  V30 8557 N 742.716 -3.31776 3.22945 0
M  V30 8558 H 745.555 -6.54213 5.71376 0
M  V30 8559 H 745.827 -5.30492 4.44033 0
M  V30 8560 H 744.959 -4.55889 6.76652 0
M  V30 8561 P 740.996 -4.23843 7.83734 0
M  V30 8562 O 740.776 -4.19407 9.29784 0
M  V30 8563 O 740.206 -5.24426 7.09156 0
M  V30 8564 O 740.746 -2.7935 7.20758 0
M  V30 8565 C 741.686 -1.7299 7.50419 0
M  V30 8566 C 740.956 -0.406376 7.57911 0
M  V30 8567 O 740.746 0.0897726 6.21935 0
M  V30 8568 C 739.556 -0.447224 8.1878 0
M  V30 8569 O 739.166 0.825065 8.71101 0
M  V30 8570 C 738.676 -0.783801 6.99623 0
M  V30 8571 C 739.386 -0.0619192 5.85967 0
M  V30 8572 N 739.336 -0.790462 4.56202 0
M  V30 8573 H 742.175 -1.93423 8.4679 0
M  V30 8574 H 742.447 -1.68852 6.70877 0
M  V30 8575 H 741.579 0.289041 8.15388 0
M  V30 8576 H 738.924 0.927006 5.72848 0
M  V30 8577 H 738.644 -1.86973 6.82036 0
M  V30 8578 H 737.653 -0.403953 7.13357 0
M  V30 8579 H 739.487 -1.20599 8.97534 0
M  V30 8580 P 737.616 1.17771 8.83182 0
M  V30 8581 O 737.396 2.07206 9.98732 0
M  V30 8582 O 736.826 -0.0743816 8.81969 0
M  V30 8583 O 737.366 1.97652 7.47304 0
M  V30 8584 C 738.306 3.01133 7.08783 0
M  V30 8585 C 737.576 4.12613 6.37049 0
M  V30 8586 O 737.366 3.72827 4.97879 0
M  V30 8587 C 736.176 4.45085 6.88694 0
M  V30 8588 O 735.786 5.7877 6.5624 0
M  V30 8589 C 735.296 3.47817 6.12078 0
M  V30 8590 C 736.006 3.39414 4.77697 0
M  V30 8591 N 735.956 2.04615 4.15333 0
M  V30 8592 C 736.036 0.803897 4.75249 0
M  V30 8593 N 735.956 -0.197615 3.91502 0
M  V30 8594 C 735.816 0.413002 2.66823 0
M  V30 8595 C 735.686 -0.157221 1.38007 0
M  V30 8596 O 735.666 -1.34419 1.057 0
M  V30 8597 N 735.566 0.833136 0.390236 0
M  V30 8598 C 735.566 2.19402 0.623885 0
M  V30 8599 N 735.436 2.97622 -0.449677 0
M  V30 8600 N 735.696 2.73005 1.83601 0
M  V30 8601 C 735.816 1.78786 2.80935 0
M  V30 8602 H 738.795 3.41248 7.98759 0
M  V30 8603 H 739.067 2.5837 6.41742 0
M  V30 8604 H 738.199 5.02657 6.42673 0
M  V30 8605 H 735.544 4.11779 4.09026 0
M  V30 8606 H 735.264 2.49661 6.61772 0
M  V30 8607 H 734.273 3.86674 6.00946 0
M  V30 8608 H 736.107 4.30038 7.97094 0
M  V30 8609 H 736.156 0.670579 5.82754 0
M  V30 8610 H 735.474 0.528446 -0.557287 0
M  V30 8611 H 735.437 4.00117 -0.344773 0
M  V30 8612 H 735.336 2.55448 -1.38544 0
M  V30 8613 P 734.236 6.144 6.45285 0
M  V30 8614 O 734.016 7.54673 6.86199 0
M  V30 8615 O 733.446 5.12391 7.179 0
M  V30 8616 O 733.986 5.99158 4.88404 0
M  V30 8617 C 734.926 6.60234 3.96415 0
M  V30 8618 C 734.196 7.08259 2.72856 0
M  V30 8619 O 733.986 5.9427 1.83651 0
M  V30 8620 C 732.796 7.64886 2.9555 0
M  V30 8621 O 732.406 8.53963 1.90717 0
M  V30 8622 C 731.916 6.4116 2.90739 0
M  V30 8623 C 732.626 5.55375 1.86963 0
M  V30 8624 N 732.576 4.09664 2.15742 0
M  V30 8625 H 735.415 7.45574 4.45629 0
M  V30 8626 H 735.687 5.86232 3.67314 0
M  V30 8627 H 734.819 7.84412 2.24479 0
M  V30 8628 P 730.856 8.7635 1.60911 0
M  V30 8629 O 730.636 10.1388 1.11561 0
M  V30 8630 O 730.066 8.36503 2.79617 0
M  V30 8631 O 730.606 7.71806 0.42951 0
M  V30 8632 C 731.546 7.66948 -0.673514 0
M  V30 8633 C 730.816 7.33374 -1.95559 0
M  V30 8634 O 730.606 5.88721 -2.00726 0
M  V30 8635 C 729.416 7.92218 -2.1125 0
M  V30 8636 O 729.026 8.02971 -3.47653 0
M  V30 8637 C 728.536 6.89504 -1.41631 0
M  V30 8638 C 729.246 5.59106 -1.75155 0
M  V30 8639 N 729.196 4.58136 -0.662409 0
M  V30 8640 C 729.046 3.26059 -1.02863 0
M  V30 8641 O 728.956 2.90743 -2.19009 0
M  V30 8642 N 729.006 2.35995 0.0155585 0
M  V30 8643 C 729.096 2.65248 1.35603 0
M  V30 8644 O 729.046 1.75605 2.20651 0
M  V30 8645 C 729.246 4.05747 1.64698 0
M  V30 8646 C 729.356 4.42345 3.09553 0
M  V30 8647 C 729.296 4.96734 0.652411 0
M  V30 8648 H 732.037 8.64917 -0.776982 0
M  V30 8649 H 732.306 6.89974 -0.474015 0
M  V30 8650 H 731.439 7.66548 -2.79458 0
M  V30 8651 H 728.784 5.16076 -2.65138 0
M  V30 8652 H 728.505 7.06433 -0.329384 0
M  V30 8653 H 727.513 6.90829 -1.81996 0
M  V30 8654 H 729.347 8.90774 -1.62639 0
M  V30 8655 H 729.418 6.02181 0.895285 0
M  V30 8656 H 728.388 4.80252 3.45468 0
M  V30 8657 H 730.125 5.20015 3.22119 0
M  V30 8658 H 729.637 3.53269 3.67833 0
M  V30 8659 H 728.901 1.39558 -0.227499 0
M  V30 8660 P 727.476 8.03563 -3.84925 0
M  V30 8661 O 727.256 8.85821 -5.0569 0
M  V30 8662 O 726.686 8.41101 -2.65469 0
M  V30 8663 O 727.226 6.4965 -4.18908 0
M  V30 8664 C 728.166 5.81037 -5.05421 0
M  V30 8665 C 727.436 4.78366 -5.89277 0
M  V30 8666 O 727.226 3.58302 -5.08433 0
M  V30 8667 C 726.036 5.17448 -6.36119 0
M  V30 8668 O 725.646 4.45271 -7.53232 0
M  V30 8669 C 725.156 4.74639 -5.19936 0
M  V30 8670 C 725.866 3.49432 -4.70418 0
M  V30 8671 N 725.816 3.32099 -3.22613 0
M  V30 8672 C 725.896 4.28245 -2.25527 0
M  V30 8673 N 725.826 3.80823 -1.04874 0
M  V30 8674 C 725.676 2.44571 -1.23535 0
M  V30 8675 C 725.546 1.37068 -0.330675 0
M  V30 8676 N 725.536 1.51472 0.990824 0
M  V30 8677 N 725.426 0.138614 -0.848756 0
M  V30 8678 C 725.436 -0.00675923 -2.16999 0
M  V30 8679 N 725.556 0.904372 -3.11122 0
M  V30 8680 C 725.676 2.12707 -2.56212 0
M  V30 8681 H 728.655 6.54213 -5.71376 0
M  V30 8682 H 728.927 5.30936 -4.43503 0
M  V30 8683 H 728.059 4.55889 -6.76652 0
M  V30 8684 H 725.404 2.61715 -5.17932 0
M  V30 8685 H 725.124 5.52155 -4.41878 0
M  V30 8686 H 724.133 4.51981 -5.53374 0
M  V30 8687 H 725.967 6.25124 -6.55234 0
M  V30 8688 H 726.008 5.34372 -2.47488 0
M  V30 8689 H 725.627 2.45153 1.4078 0
M  V30 8690 H 725.438 0.688422 1.59911 0
M  V30 8691 H 725.33 -1.02584 -2.52346 0
M  V30 8692 P 724.096 4.23843 -7.83734 0
M  V30 8693 O 723.876 4.19407 -9.29784 0
M  V30 8694 O 723.306 5.24426 -7.09156 0
M  V30 8695 O 723.846 2.7935 -7.20758 0
M  V30 8696 C 724.786 1.7299 -7.50419 0
M  V30 8697 C 724.056 0.406376 -7.57911 0
M  V30 8698 O 723.846 -0.0897726 -6.21935 0
M  V30 8699 C 722.656 0.447224 -8.1878 0
M  V30 8700 O 722.266 -0.825065 -8.71101 0
M  V30 8701 C 721.776 0.783801 -6.99623 0
M  V30 8702 C 722.486 0.0619192 -5.85967 0
M  V30 8703 N 722.436 0.7859 -4.56281 0
M  V30 8704 H 725.275 1.93423 -8.4679 0
M  V30 8705 H 725.547 1.68181 -6.71046 0
M  V30 8706 H 724.679 -0.289041 -8.15388 0
M  V30 8707 P 720.716 -1.17771 -8.83182 0
M  V30 8708 O 720.496 -2.07206 -9.98732 0
M  V30 8709 O 719.926 0.0743816 -8.81969 0
M  V30 8710 O 720.466 -1.97678 -7.474 0
M  V30 8711 C 721.406 -3.01133 -7.08783 0
M  V30 8712 C 720.676 -4.1203 -6.37546 0
M  V30 8713 O 720.466 -3.72887 -4.9796 0
M  V30 8714 C 719.276 -4.45085 -6.88694 0
M  V30 8715 O 718.886 -5.78836 -6.56315 0
M  V30 8716 C 718.396 -3.47817 -6.12078 0
M  V30 8717 C 719.106 -3.39414 -4.77697 0
M  V30 8718 N 719.056 -2.04615 -4.15333 0
M  V30 8719 C 718.906 -1.96929 -2.77162 0
M  V30 8720 O 718.816 -3.02017 -2.12006 0
M  V30 8721 N 718.856 -0.55485 -2.24237 0
M  V30 8722 C 718.956 0.367808 -2.9169 0
M  V30 8723 N 718.906 1.53426 -2.29427 0
M  V30 8724 C 719.106 0.319148 -4.33828 0
M  V30 8725 C 719.156 -0.920672 -4.90433 0
M  V30 8726 H 721.896 -3.41209 -7.98667 0
M  V30 8727 H 722.166 -2.5837 -6.41742 0
M  V30 8728 H 721.299 -5.02718 -6.42752 0
M  V30 8729 H 718.644 -4.11779 -4.09026 0
M  V30 8730 H 718.364 -2.49661 -6.61772 0
M  V30 8731 H 717.373 -3.86674 -6.00946 0
M  V30 8732 H 719.207 -4.29991 -7.97006 0
M  V30 8733 H 719.279 -1.00589 -5.98303 0
M  V30 8734 H 719.177 1.22639 -4.93799 0
M  V30 8735 H 718.789 1.56819 -1.27167 0
M  V30 8736 H 718.985 2.41062 -2.83063 0
M  V30 8737 P 717.336 -6.144 -6.45285 0
M  V30 8738 O 717.116 -7.54673 -6.86199 0
M  V30 8739 O 716.546 -5.12391 -7.179 0
M  V30 8740 O 717.086 -5.99158 -4.88404 0
M  V30 8741 C 718.026 -6.60234 -3.96415 0
M  V30 8742 C 717.296 -7.08259 -2.72856 0
M  V30 8743 O 717.086 -5.9427 -1.83651 0
M  V30 8744 C 715.896 -7.64886 -2.9555 0
M  V30 8745 O 715.506 -8.53963 -1.90717 0
M  V30 8746 C 715.016 -6.4116 -2.90739 0
M  V30 8747 C 715.726 -5.55375 -1.86963 0
M  V30 8748 N 715.676 -4.09664 -2.15742 0
M  V30 8749 H 718.515 -7.45574 -4.45629 0
M  V30 8750 H 718.787 -5.86232 -3.67314 0
M  V30 8751 H 717.919 -7.84412 -2.24479 0
M  V30 8752 P 713.956 -8.7635 -1.60911 0
M  V30 8753 O 713.736 -10.1388 -1.11561 0
M  V30 8754 O 713.166 -8.36503 -2.79617 0
M  V30 8755 O 713.706 -7.71806 -0.42951 0
M  V30 8756 C 714.646 -7.67148 0.673689 0
M  V30 8757 C 713.916 -7.33374 1.95559 0
M  V30 8758 O 713.706 -5.88721 2.00726 0
M  V30 8759 C 712.516 -7.92526 2.10483 0
M  V30 8760 O 712.126 -8.02971 3.47653 0
M  V30 8761 C 711.636 -6.89602 1.41652 0
M  V30 8762 C 712.346 -5.59201 1.75185 0
M  V30 8763 N 712.296 -4.58235 0.662552 0
M  V30 8764 H 715.135 -8.65116 0.777161 0
M  V30 8765 H 715.407 -6.90173 0.474152 0
M  V30 8766 H 714.539 -7.66548 2.79458 0
M  V30 8767 P 710.576 -8.03563 3.84925 0
M  V30 8768 O 710.356 -8.85821 5.0569 0
M  V30 8769 O 709.786 -8.41101 2.65469 0
M  V30 8770 O 710.326 -6.4965 4.18908 0
M  V30 8771 C 711.266 -5.81037 5.05421 0
M  V30 8772 C 710.536 -4.78366 5.89277 0
M  V30 8773 O 710.326 -3.58302 5.08433 0
M  V30 8774 C 709.136 -5.17448 6.36119 0
M  V30 8775 O 708.746 -4.45271 7.53232 0
M  V30 8776 C 708.256 -4.74639 5.19936 0
M  V30 8777 C 708.966 -3.49432 4.70418 0
M  V30 8778 N 708.916 -3.32099 3.22613 0
M  V30 8779 H 711.755 -6.54213 5.71376 0
M  V30 8780 H 712.027 -5.30936 4.43503 0
M  V30 8781 H 711.159 -4.55889 6.76652 0
M  V30 8782 H 708.504 -2.61715 5.17932 0
M  V30 8783 H 708.224 -5.52155 4.41878 0
M  V30 8784 H 707.233 -4.51981 5.53374 0
M  V30 8785 H 709.067 -6.25124 6.55234 0
M  V30 8786 P 707.196 -4.23843 7.83734 0
M  V30 8787 O 706.976 -4.19407 9.29784 0
M  V30 8788 O 706.406 -5.24426 7.09156 0
M  V30 8789 O 706.946 -2.7935 7.20758 0
M  V30 8790 C 707.886 -1.7299 7.50419 0
M  V30 8791 C 707.156 -0.406376 7.57911 0
M  V30 8792 O 706.946 0.0897726 6.21935 0
M  V30 8793 C 705.756 -0.447224 8.1878 0
M  V30 8794 O 705.366 0.825065 8.71101 0
M  V30 8795 C 704.876 -0.783801 6.99623 0
M  V30 8796 C 705.586 -0.0619192 5.85967 0
M  V30 8797 N 705.536 -0.7859 4.56281 0
M  V30 8798 H 708.375 -1.93423 8.4679 0
M  V30 8799 H 708.647 -1.68181 6.71046 0
M  V30 8800 H 707.779 0.289041 8.15388 0
M  V30 8801 P 703.816 1.17771 8.83182 0
M  V30 8802 O 703.596 2.07206 9.98732 0
M  V30 8803 O 703.026 -0.0743816 8.81969 0
M  V30 8804 O 703.566 1.97652 7.47304 0
M  V30 8805 C 704.506 3.01133 7.08783 0
M  V30 8806 C 703.776 4.12613 6.37049 0
M  V30 8807 O 703.566 3.72827 4.97879 0
M  V30 8808 C 702.376 4.45085 6.88694 0
M  V30 8809 O 701.986 5.7877 6.5624 0
M  V30 8810 C 701.496 3.47817 6.12078 0
M  V30 8811 C 702.206 3.39414 4.77697 0
M  V30 8812 N 702.156 2.04199 4.15538 0
M  V30 8813 H 704.995 3.41248 7.98759 0
M  V30 8814 H 705.267 2.57728 6.42 0
M  V30 8815 H 704.399 5.02657 6.42673 0
M  V30 8816 H 701.744 4.11708 4.08956 0
M  V30 8817 H 701.464 2.49626 6.61679 0
M  V30 8818 H 700.473 3.8662 6.00862 0
M  V30 8819 H 702.307 4.29991 7.97006 0
M  V30 8820 P 700.436 6.144 6.45285 0
M  V30 8821 O 700.216 7.54673 6.86199 0
M  V30 8822 O 699.646 5.12391 7.179 0
M  V30 8823 O 700.186 5.99158 4.88404 0
M  V30 8824 C 701.126 6.60234 3.96415 0
M  V30 8825 C 700.396 7.08259 2.72856 0
M  V30 8826 O 700.186 5.9427 1.83651 0
M  V30 8827 C 698.996 7.64886 2.9555 0
M  V30 8828 O 698.606 8.53963 1.90717 0
M  V30 8829 C 698.116 6.4116 2.90739 0
M  V30 8830 C 698.826 5.55375 1.86963 0
M  V30 8831 N 698.776 4.09448 2.16152 0
M  V30 8832 H 701.615 7.45574 4.45629 0
M  V30 8833 H 701.887 5.85864 3.679 0
M  V30 8834 H 701.019 7.84412 2.24479 0
M  V30 8835 H 698.364 5.73457 0.888562 0
M  V30 8836 H 698.084 5.90877 3.88583 0
M  V30 8837 H 697.093 6.6596 2.58858 0
M  V30 8838 H 698.927 8.16339 3.92049 0
M  V30 8839 P 697.056 8.7635 1.60911 0
M  V30 8840 O 696.836 10.1388 1.11561 0
M  V30 8841 O 696.266 8.36503 2.79617 0
M  V30 8842 O 696.806 7.71806 0.42951 0
M  V30 8843 C 697.746 7.67148 -0.673689 0
M  V30 8844 C 697.016 7.33374 -1.95559 0
M  V30 8845 O 696.806 5.88721 -2.00726 0
M  V30 8846 C 695.616 7.92526 -2.10483 0
M  V30 8847 O 695.226 8.02971 -3.47653 0
M  V30 8848 C 694.736 6.89602 -1.41652 0
M  V30 8849 C 695.446 5.59201 -1.75185 0
M  V30 8850 N 695.396 4.58235 -0.662552 0
M  V30 8851 H 698.235 8.65116 -0.777161 0
M  V30 8852 H 698.507 6.90173 -0.474152 0
M  V30 8853 H 697.639 7.66548 -2.79458 0
M  V30 8854 P 693.676 8.03563 -3.84925 0
M  V30 8855 O 693.456 8.85821 -5.0569 0
M  V30 8856 O 692.886 8.41101 -2.65469 0
M  V30 8857 O 693.426 6.4965 -4.18908 0
M  V30 8858 C 694.366 5.80886 -5.05289 0
M  V30 8859 C 693.636 4.78366 -5.89277 0
M  V30 8860 O 693.426 3.58302 -5.08433 0
M  V30 8861 C 692.236 5.16748 -6.36559 0
M  V30 8862 O 691.846 4.45271 -7.53232 0
M  V30 8863 C 691.356 4.74572 -5.19863 0
M  V30 8864 C 692.066 3.49373 -4.70338 0
M  V30 8865 N 692.016 3.31704 -3.22876 0
M  V30 8866 C 691.866 2.03326 -2.74871 0
M  V30 8867 O 691.776 1.06486 -3.48076 0
M  V30 8868 N 691.826 1.91838 -1.37456 0
M  V30 8869 C 691.916 2.94295 -0.462035 0
M  V30 8870 C 692.066 4.25064 -1.05249 0
M  V30 8871 C 692.116 4.40214 -2.39192 0
M  V30 8872 H 694.857 6.54063 -5.71245 0
M  V30 8873 H 695.126 5.30339 -4.43905 0
M  V30 8874 H 694.259 4.55889 -6.76652 0
M  V30 8875 H 691.604 2.6167 -5.17842 0
M  V30 8876 H 691.325 5.52155 -4.41878 0
M  V30 8877 H 690.333 4.51918 -5.53297 0
M  V30 8878 H 692.167 6.25055 -6.55162 0
M  V30 8879 H 692.238 5.39798 -2.81523 0
M  V30 8880 P 690.296 4.23843 -7.83734 0
M  V30 8881 O 690.076 4.19407 -9.29784 0
M  V30 8882 O 689.506 5.24426 -7.09156 0
M  V30 8883 O 690.046 2.7935 -7.20758 0
M  V30 8884 C 690.986 1.7299 -7.50419 0
M  V30 8885 C 690.256 0.406376 -7.57911 0
M  V30 8886 O 690.046 -0.0897726 -6.21935 0
M  V30 8887 C 688.856 0.447224 -8.1878 0
M  V30 8888 O 688.466 -0.825065 -8.71101 0
M  V30 8889 C 687.976 0.783801 -6.99623 0
M  V30 8890 C 688.686 0.0619192 -5.85967 0
M  V30 8891 N 688.636 0.7859 -4.56281 0
M  V30 8892 H 691.475 1.93423 -8.4679 0
M  V30 8893 H 691.747 1.68181 -6.71046 0
M  V30 8894 H 690.879 -0.289041 -8.15388 0
M  V30 8895 P 686.916 -1.17771 -8.83182 0
M  V30 8896 O 686.696 -2.07206 -9.98732 0
M  V30 8897 O 686.126 0.0743816 -8.81969 0
M  V30 8898 O 686.666 -1.97652 -7.47304 0
M  V30 8899 C 687.606 -3.01133 -7.08783 0
M  V30 8900 C 686.876 -4.12613 -6.37049 0
M  V30 8901 O 686.666 -3.72827 -4.97879 0
M  V30 8902 C 685.476 -4.45085 -6.88694 0
M  V30 8903 O 685.086 -5.7877 -6.5624 0
M  V30 8904 C 684.596 -3.47817 -6.12078 0
M  V30 8905 C 685.306 -3.39414 -4.77697 0
M  V30 8906 N 685.256 -2.04615 -4.15333 0
M  V30 8907 H 688.095 -3.41248 -7.98759 0
M  V30 8908 H 688.367 -2.5837 -6.41742 0
M  V30 8909 H 687.499 -5.02657 -6.42673 0
M  V30 8910 P 683.536 -6.144 -6.45285 0
M  V30 8911 O 683.316 -7.54673 -6.86199 0
M  V30 8912 O 682.746 -5.12391 -7.179 0
M  V30 8913 O 683.286 -5.99158 -4.88404 0
M  V30 8914 C 684.226 -6.60062 -3.96313 0
M  V30 8915 C 683.496 -7.08259 -2.72856 0
M  V30 8916 O 683.286 -5.9427 -1.83651 0
M  V30 8917 C 682.096 -7.65087 -2.94749 0
M  V30 8918 O 681.706 -8.53963 -1.90717 0
M  V30 8919 C 681.216 -6.41069 -2.90698 0
M  V30 8920 C 681.926 -5.5528 -1.86931 0
M  V30 8921 N 681.876 -4.09575 -2.15696 0
M  V30 8922 C 681.726 -3.24249 -1.08435 0
M  V30 8923 O 681.636 -3.63946 0.0628747 0
M  V30 8924 N 681.686 -1.90009 -1.39973 0
M  V30 8925 C 681.776 -1.34884 -2.65614 0
M  V30 8926 O 681.726 -0.123716 -2.81728 0
M  V30 8927 C 681.926 -2.3145 -3.71736 0
M  V30 8928 C 682.036 -1.75913 -5.10438 0
M  V30 8929 C 681.976 -3.63518 -3.44754 0
M  V30 8930 H 684.717 -7.45402 -4.45526 0
M  V30 8931 H 684.986 -5.86062 -3.67208 0
M  V30 8932 H 684.119 -7.84412 -2.24479 0
M  V30 8933 H 681.464 -5.73358 -0.888409 0
M  V30 8934 H 681.185 -5.90877 -3.88583 0
M  V30 8935 H 680.193 -6.65867 -2.58821 0
M  V30 8936 H 682.027 -8.16248 -3.92006 0
M  V30 8937 H 682.098 -4.34551 -4.26383 0
M  V30 8938 H 681.068 -1.85471 -5.61775 0
M  V30 8939 H 682.805 -2.31364 -5.66257 0
M  V30 8940 H 682.317 -0.695936 -5.05229 0
M  V30 8941 H 681.581 -1.26277 -0.63625 0
M  V30 8942 P 680.156 -8.7635 -1.60911 0
M  V30 8943 O 679.936 -10.1388 -1.11561 0
M  V30 8944 O 679.366 -8.36503 -2.79617 0
M  V30 8945 O 679.906 -7.71806 -0.42951 0
M  V30 8946 C 680.846 -7.66948 0.673514 0
M  V30 8947 C 680.116 -7.33374 1.95559 0
M  V30 8948 O 679.906 -5.88721 2.00726 0
M  V30 8949 C 678.716 -7.92218 2.1125 0
M  V30 8950 O 678.326 -8.02971 3.47653 0
M  V30 8951 C 677.836 -6.89504 1.41631 0
M  V30 8952 C 678.546 -5.59106 1.75155 0
M  V30 8953 N 678.496 -4.58136 0.662409 0
M  V30 8954 C 678.346 -3.26059 1.02863 0
M  V30 8955 O 678.256 -2.90743 2.19009 0
M  V30 8956 N 678.306 -2.35995 -0.0155585 0
M  V30 8957 C 678.396 -2.65248 -1.35603 0
M  V30 8958 O 678.346 -1.75605 -2.20651 0
M  V30 8959 C 678.546 -4.05747 -1.64698 0
M  V30 8960 C 678.656 -4.42345 -3.09553 0
M  V30 8961 C 678.596 -4.96734 -0.652411 0
M  V30 8962 H 681.337 -8.64917 0.776982 0
M  V30 8963 H 681.606 -6.89974 0.474015 0
M  V30 8964 H 680.739 -7.66548 2.79458 0
M  V30 8965 H 678.084 -5.16076 2.65138 0
M  V30 8966 H 677.805 -7.06433 0.329384 0
M  V30 8967 H 676.813 -6.90829 1.81996 0
M  V30 8968 H 678.647 -8.90774 1.62639 0
M  V30 8969 H 678.718 -6.02181 -0.895285 0
M  V30 8970 H 677.688 -4.80252 -3.45468 0
M  V30 8971 H 679.425 -5.20015 -3.22119 0
M  V30 8972 H 678.937 -3.53269 -3.67833 0
M  V30 8973 H 678.201 -1.39558 0.227499 0
M  V30 8974 P 676.776 -8.03563 3.84925 0
M  V30 8975 O 676.556 -8.85821 5.0569 0
M  V30 8976 O 675.986 -8.41101 2.65469 0
M  V30 8977 O 676.526 -6.4965 4.18908 0
M  V30 8978 C 677.466 -5.81037 5.05421 0
M  V30 8979 C 676.736 -4.78366 5.89277 0
M  V30 8980 O 676.526 -3.58302 5.08433 0
M  V30 8981 C 675.336 -5.17448 6.36119 0
M  V30 8982 O 674.946 -4.45271 7.53232 0
M  V30 8983 C 674.456 -4.74639 5.19936 0
M  V30 8984 C 675.166 -3.49432 4.70418 0
M  V30 8985 N 675.116 -3.31776 3.22945 0
M  V30 8986 H 677.955 -6.54213 5.71376 0
M  V30 8987 H 678.227 -5.30492 4.44033 0
M  V30 8988 H 677.359 -4.55889 6.76652 0
M  V30 8989 P 673.396 -4.23843 7.83734 0
M  V30 8990 O 673.176 -4.19407 9.29784 0
M  V30 8991 O 672.606 -5.24426 7.09156 0
M  V30 8992 O 673.146 -2.7935 7.20758 0
M  V30 8993 C 674.086 -1.7299 7.50419 0
M  V30 8994 C 673.356 -0.406376 7.57911 0
M  V30 8995 O 673.146 0.0897726 6.21935 0
M  V30 8996 C 671.956 -0.447224 8.1878 0
M  V30 8997 O 671.566 0.825065 8.71101 0
M  V30 8998 C 671.076 -0.783801 6.99623 0
M  V30 8999 C 671.786 -0.0619192 5.85967 0
M  V30 9000 N 671.736 -0.7859 4.56281 0
M  V30 9001 H 674.575 -1.93423 8.4679 0
M  V30 9002 H 674.847 -1.68181 6.71046 0
M  V30 9003 H 673.979 0.289041 8.15388 0
M  V30 9004 P 670.016 1.17771 8.83182 0
M  V30 9005 O 669.796 2.07206 9.98732 0
M  V30 9006 O 669.226 -0.0743816 8.81969 0
M  V30 9007 O 669.766 1.97652 7.47304 0
M  V30 9008 C 670.706 3.01133 7.08783 0
M  V30 9009 C 669.976 4.12613 6.37049 0
M  V30 9010 O 669.766 3.72827 4.97879 0
M  V30 9011 C 668.576 4.45085 6.88694 0
M  V30 9012 O 668.186 5.7877 6.5624 0
M  V30 9013 C 667.696 3.47817 6.12078 0
M  V30 9014 C 668.406 3.39414 4.77697 0
M  V30 9015 N 668.356 2.04615 4.15333 0
M  V30 9016 H 671.195 3.41248 7.98759 0
M  V30 9017 H 671.467 2.5837 6.41742 0
M  V30 9018 H 670.599 5.02657 6.42673 0
M  V30 9019 P 666.636 6.144 6.45285 0
M  V30 9020 O 666.416 7.54673 6.86199 0
M  V30 9021 O 665.846 5.12391 7.179 0
M  V30 9022 O 666.386 5.99158 4.88404 0
M  V30 9023 C 667.326 6.60234 3.96415 0
M  V30 9024 C 666.596 7.08259 2.72856 0
M  V30 9025 O 666.386 5.9427 1.83651 0
M  V30 9026 C 665.196 7.64886 2.9555 0
M  V30 9027 O 664.806 8.53963 1.90717 0
M  V30 9028 C 664.316 6.4116 2.90739 0
M  V30 9029 C 665.026 5.55375 1.86963 0
M  V30 9030 N 664.976 4.09448 2.16152 0
M  V30 9031 H 667.815 7.45574 4.45629 0
M  V30 9032 H 668.087 5.85864 3.679 0
M  V30 9033 H 667.219 7.84412 2.24479 0
M  V30 9034 H 664.564 5.73457 0.888562 0
M  V30 9035 H 664.284 5.90877 3.88583 0
M  V30 9036 H 663.293 6.6596 2.58858 0
M  V30 9037 H 665.127 8.16339 3.92049 0
M  V30 9038 P 663.256 8.7635 1.60911 0
M  V30 9039 O 663.036 10.1388 1.11561 0
M  V30 9040 O 662.466 8.36503 2.79617 0
M  V30 9041 O 663.006 7.71806 0.42951 0
M  V30 9042 C 663.946 7.67148 -0.673689 0
M  V30 9043 C 663.216 7.33374 -1.95559 0
M  V30 9044 O 663.006 5.88721 -2.00726 0
M  V30 9045 C 661.816 7.92526 -2.10483 0
M  V30 9046 O 661.426 8.02971 -3.47653 0
M  V30 9047 C 660.936 6.89602 -1.41652 0
M  V30 9048 C 661.646 5.59201 -1.75185 0
M  V30 9049 N 661.596 4.58235 -0.662552 0
M  V30 9050 H 664.435 8.65116 -0.777161 0
M  V30 9051 H 664.707 6.90173 -0.474152 0
M  V30 9052 H 663.839 7.66548 -2.79458 0
M  V30 9053 P 659.876 8.03563 -3.84925 0
M  V30 9054 O 659.656 8.85821 -5.0569 0
M  V30 9055 O 659.086 8.41101 -2.65469 0
M  V30 9056 O 659.626 6.4965 -4.18908 0
M  V30 9057 C 660.566 5.81037 -5.05421 0
M  V30 9058 C 659.836 4.78366 -5.89277 0
M  V30 9059 O 659.626 3.58302 -5.08433 0
M  V30 9060 C 658.436 5.17448 -6.36119 0
M  V30 9061 O 658.046 4.45271 -7.53232 0
M  V30 9062 C 657.556 4.74639 -5.19936 0
M  V30 9063 C 658.266 3.49432 -4.70418 0
M  V30 9064 N 658.216 3.31776 -3.22945 0
M  V30 9065 H 661.055 6.54213 -5.71376 0
M  V30 9066 H 661.327 5.30492 -4.44033 0
M  V30 9067 H 660.459 4.55889 -6.76652 0
M  V30 9068 P 656.496 4.23843 -7.83734 0
M  V30 9069 O 656.276 4.19407 -9.29784 0
M  V30 9070 O 655.706 5.24426 -7.09156 0
M  V30 9071 O 656.246 2.7935 -7.20758 0
M  V30 9072 C 657.186 1.7299 -7.50419 0
M  V30 9073 C 656.456 0.406376 -7.57911 0
M  V30 9074 O 656.246 -0.0897726 -6.21935 0
M  V30 9075 C 655.056 0.447224 -8.1878 0
M  V30 9076 O 654.666 -0.825065 -8.71101 0
M  V30 9077 C 654.176 0.783801 -6.99623 0
M  V30 9078 C 654.886 0.0619192 -5.85967 0
M  V30 9079 N 654.836 0.7859 -4.56281 0
M  V30 9080 H 657.675 1.93423 -8.4679 0
M  V30 9081 H 657.947 1.68181 -6.71046 0
M  V30 9082 H 657.079 -0.289041 -8.15388 0
M  V30 9083 P 653.116 -1.17771 -8.83182 0
M  V30 9084 O 652.896 -2.07206 -9.98732 0
M  V30 9085 O 652.326 0.0743816 -8.81969 0
M  V30 9086 O 652.866 -1.97652 -7.47304 0
M  V30 9087 C 653.806 -3.01133 -7.08783 0
M  V30 9088 C 653.076 -4.12613 -6.37049 0
M  V30 9089 O 652.866 -3.72827 -4.97879 0
M  V30 9090 C 651.676 -4.45085 -6.88694 0
M  V30 9091 O 651.286 -5.7877 -6.5624 0
M  V30 9092 C 650.796 -3.47817 -6.12078 0
M  V30 9093 C 651.506 -3.39414 -4.77697 0
M  V30 9094 N 651.456 -2.04199 -4.15538 0
M  V30 9095 H 654.295 -3.41248 -7.98759 0
M  V30 9096 H 654.567 -2.57728 -6.42 0
M  V30 9097 H 653.699 -5.02657 -6.42673 0
M  V30 9098 H 651.044 -4.11708 -4.08956 0
M  V30 9099 H 650.764 -2.49626 -6.61679 0
M  V30 9100 H 649.773 -3.8662 -6.00862 0
M  V30 9101 H 651.607 -4.29991 -7.97006 0
M  V30 9102 P 649.736 -6.144 -6.45285 0
M  V30 9103 O 649.516 -7.54673 -6.86199 0
M  V30 9104 O 648.946 -5.12391 -7.179 0
M  V30 9105 O 649.486 -5.99158 -4.88404 0
M  V30 9106 C 650.426 -6.60062 -3.96313 0
M  V30 9107 C 649.696 -7.08259 -2.72856 0
M  V30 9108 O 649.486 -5.9427 -1.83651 0
M  V30 9109 C 648.296 -7.65087 -2.94749 0
M  V30 9110 O 647.906 -8.53963 -1.90717 0
M  V30 9111 C 647.416 -6.41069 -2.90698 0
M  V30 9112 C 648.126 -5.5528 -1.86931 0
M  V30 9113 N 648.076 -4.09575 -2.15696 0
M  V30 9114 C 647.926 -3.24249 -1.08435 0
M  V30 9115 O 647.836 -3.63946 0.0628747 0
M  V30 9116 N 647.886 -1.90009 -1.39973 0
M  V30 9117 C 647.976 -1.34884 -2.65614 0
M  V30 9118 C 648.126 -2.3145 -3.71736 0
M  V30 9119 C 648.176 -3.63518 -3.44754 0
M  V30 9120 H 650.917 -7.45402 -4.45526 0
M  V30 9121 H 651.186 -5.86062 -3.67208 0
M  V30 9122 H 650.319 -7.84412 -2.24479 0
M  V30 9123 H 647.664 -5.73358 -0.888409 0
M  V30 9124 H 647.385 -5.90877 -3.88583 0
M  V30 9125 H 646.393 -6.65867 -2.58821 0
M  V30 9126 H 648.227 -8.16248 -3.92006 0
M  V30 9127 H 648.298 -4.34551 -4.26383 0
M  V30 9128 P 646.356 -8.7635 -1.60911 0
M  V30 9129 O 646.136 -10.1388 -1.11561 0
M  V30 9130 O 645.566 -8.36503 -2.79617 0
M  V30 9131 O 646.106 -7.71806 -0.42951 0
M  V30 9132 C 647.046 -7.67148 0.673689 0
M  V30 9133 C 646.316 -7.33374 1.95559 0
M  V30 9134 O 646.106 -5.88721 2.00726 0
M  V30 9135 C 644.916 -7.92526 2.10483 0
M  V30 9136 O 644.526 -8.02971 3.47653 0
M  V30 9137 C 644.036 -6.89602 1.41652 0
M  V30 9138 C 644.746 -5.59201 1.75185 0
M  V30 9139 N 644.696 -4.58235 0.662552 0
M  V30 9140 H 647.535 -8.65116 0.777161 0
M  V30 9141 H 647.807 -6.90173 0.474152 0
M  V30 9142 H 646.939 -7.66548 2.79458 0
M  V30 9143 P 642.976 -8.03563 3.84925 0
M  V30 9144 O 642.756 -8.85821 5.0569 0
M  V30 9145 O 642.186 -8.41101 2.65469 0
M  V30 9146 O 642.726 -6.4965 4.18908 0
M  V30 9147 C 643.666 -5.81037 5.05421 0
M  V30 9148 C 642.936 -4.78366 5.89277 0
M  V30 9149 O 642.726 -3.58302 5.08433 0
M  V30 9150 C 641.536 -5.17448 6.36119 0
M  V30 9151 O 641.146 -4.45271 7.53232 0
M  V30 9152 C 640.656 -4.74639 5.19936 0
M  V30 9153 C 641.366 -3.49432 4.70418 0
M  V30 9154 N 641.316 -3.32099 3.22613 0
M  V30 9155 H 644.155 -6.54213 5.71376 0
M  V30 9156 H 644.427 -5.30936 4.43503 0
M  V30 9157 H 643.559 -4.55889 6.76652 0
M  V30 9158 H 640.904 -2.61715 5.17932 0
M  V30 9159 H 640.624 -5.52155 4.41878 0
M  V30 9160 H 639.633 -4.51981 5.53374 0
M  V30 9161 H 641.467 -6.25124 6.55234 0
M  V30 9162 P 639.596 -4.23843 7.83734 0
M  V30 9163 O 639.376 -4.19407 9.29784 0
M  V30 9164 O 638.806 -5.24426 7.09156 0
M  V30 9165 O 639.346 -2.7935 7.20758 0
M  V30 9166 C 640.286 -1.7299 7.50419 0
M  V30 9167 C 639.556 -0.406376 7.57911 0
M  V30 9168 O 639.346 0.0897726 6.21935 0
M  V30 9169 C 638.156 -0.447224 8.1878 0
M  V30 9170 O 637.766 0.825065 8.71101 0
M  V30 9171 C 637.276 -0.783801 6.99623 0
M  V30 9172 C 637.986 -0.0619192 5.85967 0
M  V30 9173 N 637.936 -0.790462 4.56202 0
M  V30 9174 C 638.016 -2.13895 4.34171 0
M  V30 9175 N 637.946 -2.46449 3.08687 0
M  V30 9176 C 637.796 -1.2525 2.43697 0
M  V30 9177 C 637.666 -0.914535 1.07318 0
M  V30 9178 N 637.656 -1.80782 0.0887348 0
M  V30 9179 N 637.546 0.386745 0.768133 0
M  V30 9180 C 637.556 1.28096 1.75159 0
M  V30 9181 N 637.676 1.09708 3.04861 0
M  V30 9182 C 637.796 -0.214857 3.32306 0
M  V30 9183 H 640.775 -1.93423 8.4679 0
M  V30 9184 H 641.047 -1.68852 6.70877 0
M  V30 9185 H 640.179 0.289041 8.15388 0
M  V30 9186 H 637.524 0.927006 5.72848 0
M  V30 9187 H 637.244 -1.86973 6.82036 0
M  V30 9188 H 636.253 -0.403953 7.13357 0
M  V30 9189 H 638.087 -1.20599 8.97534 0
M  V30 9190 H 638.128 -2.86846 5.14318 0
M  V30 9191 H 637.747 -2.81082 0.302037 0
M  V30 9192 H 637.558 -1.49688 -0.889064 0
M  V30 9193 H 637.45 2.31317 1.43855 0
M  V30 9194 P 636.216 1.17771 8.83182 0
M  V30 9195 O 635.996 2.07206 9.98732 0
M  V30 9196 O 635.426 -0.0743816 8.81969 0
M  V30 9197 O 635.966 1.97652 7.47304 0
M  V30 9198 C 636.906 3.01133 7.08783 0
M  V30 9199 C 636.176 4.12613 6.37049 0
M  V30 9200 O 635.966 3.72827 4.97879 0
M  V30 9201 C 634.776 4.45085 6.88694 0
M  V30 9202 O 634.386 5.7877 6.5624 0
M  V30 9203 C 633.896 3.47817 6.12078 0
M  V30 9204 C 634.606 3.39414 4.77697 0
M  V30 9205 N 634.556 2.04199 4.15538 0
M  V30 9206 H 637.395 3.41248 7.98759 0
M  V30 9207 H 637.667 2.57728 6.42 0
M  V30 9208 H 636.799 5.02657 6.42673 0
M  V30 9209 H 634.144 4.11708 4.08956 0
M  V30 9210 H 633.864 2.49626 6.61679 0
M  V30 9211 H 632.873 3.8662 6.00862 0
M  V30 9212 H 634.707 4.29991 7.97006 0
M  V30 9213 P 632.836 6.144 6.45285 0
M  V30 9214 O 632.616 7.54673 6.86199 0
M  V30 9215 O 632.046 5.12391 7.179 0
M  V30 9216 O 632.586 5.99158 4.88404 0
M  V30 9217 C 633.526 6.60234 3.96415 0
M  V30 9218 C 632.796 7.08259 2.72856 0
M  V30 9219 O 632.586 5.9427 1.83651 0
M  V30 9220 C 631.396 7.64886 2.9555 0
M  V30 9221 O 631.006 8.53963 1.90717 0
M  V30 9222 C 630.516 6.4116 2.90739 0
M  V30 9223 C 631.226 5.55375 1.86963 0
M  V30 9224 N 631.176 4.09448 2.16152 0
M  V30 9225 H 634.015 7.45574 4.45629 0
M  V30 9226 H 634.287 5.85864 3.679 0
M  V30 9227 H 633.419 7.84412 2.24479 0
M  V30 9228 H 630.764 5.73457 0.888562 0
M  V30 9229 H 630.484 5.90877 3.88583 0
M  V30 9230 H 629.493 6.6596 2.58858 0
M  V30 9231 H 631.327 8.16339 3.92049 0
M  V30 9232 P 629.456 8.7635 1.60911 0
M  V30 9233 O 629.236 10.1388 1.11561 0
M  V30 9234 O 628.666 8.36503 2.79617 0
M  V30 9235 O 629.206 7.71806 0.42951 0
M  V30 9236 C 630.146 7.67148 -0.673689 0
M  V30 9237 C 629.416 7.33374 -1.95559 0
M  V30 9238 O 629.206 5.88721 -2.00726 0
M  V30 9239 C 628.016 7.92526 -2.10483 0
M  V30 9240 O 627.626 8.02971 -3.47653 0
M  V30 9241 C 627.136 6.89602 -1.41652 0
M  V30 9242 C 627.846 5.59201 -1.75185 0
M  V30 9243 N 627.796 4.58235 -0.662552 0
M  V30 9244 H 630.635 8.65116 -0.777161 0
M  V30 9245 H 630.907 6.90173 -0.474152 0
M  V30 9246 H 630.039 7.66548 -2.79458 0
M  V30 9247 P 626.076 8.03563 -3.84925 0
M  V30 9248 O 625.856 8.85821 -5.0569 0
M  V30 9249 O 625.286 8.41101 -2.65469 0
M  V30 9250 O 625.826 6.4965 -4.18908 0
M  V30 9251 C 626.766 5.81037 -5.05421 0
M  V30 9252 C 626.036 4.78366 -5.89277 0
M  V30 9253 O 625.826 3.58302 -5.08433 0
M  V30 9254 C 624.636 5.17448 -6.36119 0
M  V30 9255 O 624.246 4.45271 -7.53232 0
M  V30 9256 C 623.756 4.74639 -5.19936 0
M  V30 9257 C 624.466 3.49432 -4.70418 0
M  V30 9258 N 624.416 3.31776 -3.22945 0
M  V30 9259 H 627.255 6.54213 -5.71376 0
M  V30 9260 H 627.527 5.30492 -4.44033 0
M  V30 9261 H 626.659 4.55889 -6.76652 0
M  V30 9262 P 622.696 4.23843 -7.83734 0
M  V30 9263 O 622.476 4.19407 -9.29784 0
M  V30 9264 O 621.906 5.24426 -7.09156 0
M  V30 9265 O 622.446 2.7935 -7.20758 0
M  V30 9266 C 623.386 1.7299 -7.50419 0
M  V30 9267 C 622.656 0.406376 -7.57911 0
M  V30 9268 O 622.446 -0.0897726 -6.21935 0
M  V30 9269 C 621.256 0.447224 -8.1878 0
M  V30 9270 O 620.866 -0.825065 -8.71101 0
M  V30 9271 C 620.376 0.783801 -6.99623 0
M  V30 9272 C 621.086 0.0619192 -5.85967 0
M  V30 9273 N 621.036 0.7859 -4.56281 0
M  V30 9274 H 623.875 1.93423 -8.4679 0
M  V30 9275 H 624.147 1.68181 -6.71046 0
M  V30 9276 H 623.279 -0.289041 -8.15388 0
M  V30 9277 P 619.316 -1.17771 -8.83182 0
M  V30 9278 O 619.096 -2.07206 -9.98732 0
M  V30 9279 O 618.526 0.0743816 -8.81969 0
M  V30 9280 O 619.066 -1.97652 -7.47304 0
M  V30 9281 C 620.006 -3.01133 -7.08783 0
M  V30 9282 C 619.276 -4.12613 -6.37049 0
M  V30 9283 O 619.066 -3.72827 -4.97879 0
M  V30 9284 C 617.876 -4.45085 -6.88694 0
M  V30 9285 O 617.486 -5.7877 -6.5624 0
M  V30 9286 C 616.996 -3.47817 -6.12078 0
M  V30 9287 C 617.706 -3.39414 -4.77697 0
M  V30 9288 N 617.656 -2.04615 -4.15333 0
M  V30 9289 H 620.495 -3.41248 -7.98759 0
M  V30 9290 H 620.767 -2.5837 -6.41742 0
M  V30 9291 H 619.899 -5.02657 -6.42673 0
M  V30 9292 P 615.936 -6.144 -6.45285 0
M  V30 9293 O 615.716 -7.54673 -6.86199 0
M  V30 9294 O 615.146 -5.12391 -7.179 0
M  V30 9295 O 615.686 -5.99158 -4.88404 0
M  V30 9296 C 616.626 -6.60234 -3.96415 0
M  V30 9297 C 615.896 -7.08259 -2.72856 0
M  V30 9298 O 615.686 -5.9427 -1.83651 0
M  V30 9299 C 614.496 -7.64886 -2.9555 0
M  V30 9300 O 614.106 -8.53963 -1.90717 0
M  V30 9301 C 613.616 -6.4116 -2.90739 0
M  V30 9302 C 614.326 -5.55375 -1.86963 0
M  V30 9303 N 614.276 -4.09664 -2.15742 0
M  V30 9304 H 617.115 -7.45574 -4.45629 0
M  V30 9305 H 617.387 -5.86232 -3.67314 0
M  V30 9306 H 616.519 -7.84412 -2.24479 0
M  V30 9307 P 612.556 -8.7635 -1.60911 0
M  V30 9308 O 612.336 -10.1388 -1.11561 0
M  V30 9309 O 611.766 -8.36503 -2.79617 0
M  V30 9310 O 612.306 -7.71806 -0.42951 0
M  V30 9311 C 613.246 -7.67148 0.673689 0
M  V30 9312 C 612.516 -7.33374 1.95559 0
M  V30 9313 O 612.306 -5.88721 2.00726 0
M  V30 9314 C 611.116 -7.92526 2.10483 0
M  V30 9315 O 610.726 -8.02971 3.47653 0
M  V30 9316 C 610.236 -6.89602 1.41652 0
M  V30 9317 C 610.946 -5.59201 1.75185 0
M  V30 9318 N 610.896 -4.58235 0.662552 0
M  V30 9319 H 613.735 -8.65116 0.777161 0
M  V30 9320 H 614.007 -6.90173 0.474152 0
M  V30 9321 H 613.139 -7.66548 2.79458 0
M  V30 9322 P 609.176 -8.03563 3.84925 0
M  V30 9323 O 608.956 -8.85821 5.0569 0
M  V30 9324 O 608.386 -8.41101 2.65469 0
M  V30 9325 O 608.926 -6.4965 4.18908 0
M  V30 9326 C 609.866 -5.81037 5.05421 0
M  V30 9327 C 609.136 -4.78366 5.89277 0
M  V30 9328 O 608.926 -3.58302 5.08433 0
M  V30 9329 C 607.736 -5.17448 6.36119 0
M  V30 9330 O 607.346 -4.45271 7.53232 0
M  V30 9331 C 606.856 -4.74639 5.19936 0
M  V30 9332 C 607.566 -3.49432 4.70418 0
M  V30 9333 N 607.516 -3.31776 3.22945 0
M  V30 9334 H 610.355 -6.54213 5.71376 0
M  V30 9335 H 610.627 -5.30492 4.44033 0
M  V30 9336 H 609.759 -4.55889 6.76652 0
M  V30 9337 P 605.796 -4.23843 7.83734 0
M  V30 9338 O 605.576 -4.19407 9.29784 0
M  V30 9339 O 605.006 -5.24426 7.09156 0
M  V30 9340 O 605.546 -2.7935 7.20758 0
M  V30 9341 C 606.486 -1.72945 7.50224 0
M  V30 9342 C 605.756 -0.406376 7.57911 0
M  V30 9343 O 605.546 0.0897726 6.21935 0
M  V30 9344 C 604.356 -0.438983 8.18724 0
M  V30 9345 O 603.966 0.825065 8.71101 0
M  V30 9346 C 603.476 -0.783689 6.99524 0
M  V30 9347 C 604.186 -0.0619086 5.85867 0
M  V30 9348 N 604.136 -0.78573 4.56183 0
M  V30 9349 C 603.986 -0.0292889 3.41887 0
M  V30 9350 O 603.896 1.18445 3.4419 0
M  V30 9351 N 603.946 -0.744061 2.23964 0
M  V30 9352 C 604.036 -2.10932 2.10362 0
M  V30 9353 C 604.186 -2.8202 3.34994 0
M  V30 9354 C 604.236 -2.15547 4.52261 0
M  V30 9355 H 606.977 -1.93379 8.46595 0
M  V30 9356 H 607.246 -1.68132 6.70852 0
M  V30 9357 H 606.379 0.289041 8.15388 0
M  V30 9358 H 603.724 0.926847 5.72749 0
M  V30 9359 H 603.445 -1.86973 6.82036 0
M  V30 9360 H 602.453 -0.403896 7.13257 0
M  V30 9361 H 604.287 -1.20585 8.97435 0
M  V30 9362 H 604.358 -2.71231 5.45042 0
M  V30 9363 P 602.416 1.17771 8.83182 0
M  V30 9364 O 602.196 2.07206 9.98732 0
M  V30 9365 O 601.626 -0.0743816 8.81969 0
M  V30 9366 O 602.166 1.97652 7.47304 0
M  V30 9367 C 603.106 3.01133 7.08783 0
M  V30 9368 C 602.376 4.12613 6.37049 0
M  V30 9369 O 602.166 3.72827 4.97879 0
M  V30 9370 C 600.976 4.45085 6.88694 0
M  V30 9371 O 600.586 5.7877 6.5624 0
M  V30 9372 C 600.096 3.47817 6.12078 0
M  V30 9373 C 600.806 3.39414 4.77697 0
M  V30 9374 N 600.756 2.04199 4.15538 0
M  V30 9375 H 603.595 3.41248 7.98759 0
M  V30 9376 H 603.867 2.57728 6.42 0
M  V30 9377 H 602.999 5.02657 6.42673 0
M  V30 9378 H 600.344 4.11708 4.08956 0
M  V30 9379 H 600.064 2.49626 6.61679 0
M  V30 9380 H 599.073 3.8662 6.00862 0
M  V30 9381 H 600.907 4.29991 7.97006 0
M  V30 9382 P 599.036 6.144 6.45285 0
M  V30 9383 O 598.816 7.54673 6.86199 0
M  V30 9384 O 598.246 5.12391 7.179 0
M  V30 9385 O 598.786 5.99158 4.88404 0
M  V30 9386 C 599.726 6.60234 3.96415 0
M  V30 9387 C 598.996 7.08259 2.72856 0
M  V30 9388 O 598.786 5.9427 1.83651 0
M  V30 9389 C 597.596 7.64886 2.9555 0
M  V30 9390 O 597.206 8.53963 1.90717 0
M  V30 9391 C 596.716 6.4116 2.90739 0
M  V30 9392 C 597.426 5.55375 1.86963 0
M  V30 9393 N 597.376 4.09664 2.15742 0
M  V30 9394 C 597.456 3.44381 3.37233 0
M  V30 9395 N 597.376 2.14131 3.28347 0
M  V30 9396 C 597.236 1.90247 1.91588 0
M  V30 9397 C 597.106 0.683992 1.20892 0
M  V30 9398 N 596.986 0.903396 -0.173998 0
M  V30 9399 C 596.986 2.14171 -0.784879 0
M  V30 9400 N 596.856 2.1435 -2.11317 0
M  V30 9401 N 597.116 3.28784 -0.119316 0
M  V30 9402 C 597.236 3.0977 1.22194 0
M  V30 9403 H 600.215 7.45574 4.45629 0
M  V30 9404 H 600.487 5.86232 3.67314 0
M  V30 9405 H 599.619 7.84412 2.24479 0
M  V30 9406 P 595.656 8.7635 1.60911 0
M  V30 9407 O 595.437 10.1388 1.11561 0
M  V30 9408 O 594.866 8.36503 2.79617 0
M  V30 9409 O 595.406 7.71806 0.42951 0
M  V30 9410 C 596.346 7.67148 -0.673689 0
M  V30 9411 C 595.616 7.33374 -1.95559 0
M  V30 9412 O 595.406 5.88721 -2.00726 0
M  V30 9413 C 594.216 7.92526 -2.10483 0
M  V30 9414 O 593.827 8.02971 -3.47653 0
M  V30 9415 C 593.337 6.89602 -1.41652 0
M  V30 9416 C 594.046 5.59201 -1.75185 0
M  V30 9417 N 593.996 4.58235 -0.662552 0
M  V30 9418 H 596.836 8.65116 -0.777161 0
M  V30 9419 H 597.107 6.90173 -0.474152 0
M  V30 9420 H 596.24 7.66548 -2.79458 0
M  V30 9421 P 592.277 8.03563 -3.84925 0
M  V30 9422 O 592.057 8.85821 -5.0569 0
M  V30 9423 O 591.487 8.41101 -2.65469 0
M  V30 9424 O 592.027 6.4965 -4.18908 0
M  V30 9425 C 592.967 5.81037 -5.05421 0
M  V30 9426 C 592.237 4.78366 -5.89277 0
M  V30 9427 O 592.027 3.58302 -5.08433 0
M  V30 9428 C 590.837 5.17448 -6.36119 0
M  V30 9429 O 590.447 4.45271 -7.53232 0
M  V30 9430 C 589.957 4.74639 -5.19936 0
M  V30 9431 C 590.667 3.49432 -4.70418 0
M  V30 9432 N 590.617 3.32099 -3.22613 0
M  V30 9433 H 593.456 6.54213 -5.71376 0
M  V30 9434 H 593.728 5.30936 -4.43503 0
M  V30 9435 H 592.86 4.55889 -6.76652 0
M  V30 9436 H 590.205 2.61715 -5.17932 0
M  V30 9437 H 589.925 5.52155 -4.41878 0
M  V30 9438 H 588.934 4.51981 -5.53374 0
M  V30 9439 H 590.768 6.25124 -6.55234 0
M  V30 9440 P 588.897 4.23843 -7.83734 0
M  V30 9441 O 588.677 4.19407 -9.29784 0
M  V30 9442 O 588.107 5.24426 -7.09156 0
M  V30 9443 O 588.647 2.7935 -7.20758 0
M  V30 9444 C 589.587 1.7299 -7.50419 0
M  V30 9445 C 588.857 0.406376 -7.57911 0
M  V30 9446 O 588.647 -0.0897726 -6.21935 0
M  V30 9447 C 587.457 0.447224 -8.1878 0
M  V30 9448 O 587.067 -0.825065 -8.71101 0
M  V30 9449 C 586.577 0.783801 -6.99623 0
M  V30 9450 C 587.287 0.0619192 -5.85967 0
M  V30 9451 N 587.237 0.790462 -4.56202 0
M  V30 9452 C 587.317 2.13895 -4.34171 0
M  V30 9453 N 587.247 2.46449 -3.08687 0
M  V30 9454 C 587.097 1.2525 -2.43697 0
M  V30 9455 C 586.967 0.914535 -1.07318 0
M  V30 9456 N 586.957 1.80782 -0.0887348 0
M  V30 9457 N 586.847 -0.386745 -0.768133 0
M  V30 9458 C 586.857 -1.28096 -1.75159 0
M  V30 9459 N 586.977 -1.09708 -3.04861 0
M  V30 9460 C 587.097 0.214857 -3.32306 0
M  V30 9461 H 590.076 1.93423 -8.4679 0
M  V30 9462 H 590.348 1.68852 -6.70877 0
M  V30 9463 H 589.48 -0.289041 -8.15388 0
M  V30 9464 H 586.825 -0.927006 -5.72848 0
M  V30 9465 H 586.545 1.86973 -6.82036 0
M  V30 9466 H 585.554 0.403953 -7.13357 0
M  V30 9467 H 587.388 1.20599 -8.97534 0
M  V30 9468 H 587.429 2.86846 -5.14318 0
M  V30 9469 H 587.048 2.81082 -0.302037 0
M  V30 9470 H 586.859 1.49688 0.889064 0
M  V30 9471 H 586.751 -2.31317 -1.43855 0
M  V30 9472 P 585.517 -1.17771 -8.83182 0
M  V30 9473 O 585.297 -2.07206 -9.98732 0
M  V30 9474 O 584.727 0.0743816 -8.81969 0
M  V30 9475 O 585.267 -1.97652 -7.47304 0
M  V30 9476 C 586.207 -3.01133 -7.08783 0
M  V30 9477 C 585.477 -4.12613 -6.37049 0
M  V30 9478 O 585.267 -3.72827 -4.97879 0
M  V30 9479 C 584.077 -4.45085 -6.88694 0
M  V30 9480 O 583.687 -5.7877 -6.5624 0
M  V30 9481 C 583.197 -3.47817 -6.12078 0
M  V30 9482 C 583.907 -3.39414 -4.77697 0
M  V30 9483 N 583.857 -2.04615 -4.15333 0
M  V30 9484 H 586.696 -3.41248 -7.98759 0
M  V30 9485 H 586.968 -2.5837 -6.41742 0
M  V30 9486 H 586.1 -5.02657 -6.42673 0
M  V30 9487 P 582.137 -6.144 -6.45285 0
M  V30 9488 O 581.917 -7.54673 -6.86199 0
M  V30 9489 O 581.347 -5.12391 -7.179 0
M  V30 9490 O 581.887 -5.99158 -4.88404 0
M  V30 9491 C 582.827 -6.60234 -3.96415 0
M  V30 9492 C 582.097 -7.08259 -2.72856 0
M  V30 9493 O 581.887 -5.9427 -1.83651 0
M  V30 9494 C 580.697 -7.64886 -2.9555 0
M  V30 9495 O 580.307 -8.53963 -1.90717 0
M  V30 9496 C 579.817 -6.4116 -2.90739 0
M  V30 9497 C 580.527 -5.55375 -1.86963 0
M  V30 9498 N 580.477 -4.09664 -2.15742 0
M  V30 9499 H 583.316 -7.45574 -4.45629 0
M  V30 9500 H 583.588 -5.86232 -3.67314 0
M  V30 9501 H 582.72 -7.84412 -2.24479 0
M  V30 9502 P 578.757 -8.7635 -1.60911 0
M  V30 9503 O 578.537 -10.1388 -1.11561 0
M  V30 9504 O 577.967 -8.36503 -2.79617 0
M  V30 9505 O 578.507 -7.71806 -0.42951 0
M  V30 9506 C 579.447 -7.66948 0.673514 0
M  V30 9507 C 578.717 -7.33374 1.95559 0
M  V30 9508 O 578.507 -5.88721 2.00726 0
M  V30 9509 C 577.317 -7.92218 2.1125 0
M  V30 9510 O 576.927 -8.02971 3.47653 0
M  V30 9511 C 576.437 -6.89504 1.41631 0
M  V30 9512 C 577.147 -5.59106 1.75155 0
M  V30 9513 N 577.097 -4.58136 0.662409 0
M  V30 9514 C 576.947 -3.26059 1.02863 0
M  V30 9515 O 576.857 -2.90743 2.19009 0
M  V30 9516 N 576.907 -2.35995 -0.0155585 0
M  V30 9517 C 576.997 -2.65248 -1.35603 0
M  V30 9518 O 576.947 -1.75605 -2.20651 0
M  V30 9519 C 577.147 -4.05747 -1.64698 0
M  V30 9520 C 577.257 -4.42345 -3.09553 0
M  V30 9521 C 577.197 -4.96734 -0.652411 0
M  V30 9522 H 579.938 -8.64917 0.776982 0
M  V30 9523 H 580.207 -6.89974 0.474015 0
M  V30 9524 H 579.34 -7.66548 2.79458 0
M  V30 9525 H 576.685 -5.16076 2.65138 0
M  V30 9526 H 576.406 -7.06433 0.329384 0
M  V30 9527 H 575.414 -6.90829 1.81996 0
M  V30 9528 H 577.248 -8.90774 1.62639 0
M  V30 9529 H 577.319 -6.02181 -0.895285 0
M  V30 9530 H 576.289 -4.80252 -3.45468 0
M  V30 9531 H 578.026 -5.20015 -3.22119 0
M  V30 9532 H 577.538 -3.53269 -3.67833 0
M  V30 9533 H 576.802 -1.39558 0.227499 0
M  V30 9534 P 575.377 -8.03563 3.84925 0
M  V30 9535 O 575.157 -8.85821 5.0569 0
M  V30 9536 O 574.587 -8.41101 2.65469 0
M  V30 9537 O 575.127 -6.4965 4.18908 0
M  V30 9538 C 576.067 -5.81037 5.05421 0
M  V30 9539 C 575.337 -4.78366 5.89277 0
M  V30 9540 O 575.127 -3.58302 5.08433 0
M  V30 9541 C 573.937 -5.17448 6.36119 0
M  V30 9542 O 573.547 -4.45271 7.53232 0
M  V30 9543 C 573.057 -4.74639 5.19936 0
M  V30 9544 C 573.767 -3.49432 4.70418 0
M  V30 9545 N 573.717 -3.31776 3.22945 0
M  V30 9546 H 576.556 -6.54213 5.71376 0
M  V30 9547 H 576.828 -5.30492 4.44033 0
M  V30 9548 H 575.96 -4.55889 6.76652 0
M  V30 9549 P 571.997 -4.23843 7.83734 0
M  V30 9550 O 571.777 -4.19407 9.29784 0
M  V30 9551 O 571.207 -5.24426 7.09156 0
M  V30 9552 O 571.747 -2.7935 7.20758 0
M  V30 9553 C 572.687 -1.7299 7.50419 0
M  V30 9554 C 571.957 -0.406376 7.57911 0
M  V30 9555 O 571.747 0.0897726 6.21935 0
M  V30 9556 C 570.557 -0.447224 8.1878 0
M  V30 9557 O 570.167 0.825065 8.71101 0
M  V30 9558 C 569.677 -0.783801 6.99623 0
M  V30 9559 C 570.387 -0.0619192 5.85967 0
M  V30 9560 N 570.337 -0.790462 4.56202 0
M  V30 9561 H 573.176 -1.93423 8.4679 0
M  V30 9562 H 573.448 -1.68852 6.70877 0
M  V30 9563 H 572.58 0.289041 8.15388 0
M  V30 9564 H 569.925 0.927006 5.72848 0
M  V30 9565 H 569.645 -1.86973 6.82036 0
M  V30 9566 H 568.654 -0.403953 7.13357 0
M  V30 9567 H 570.488 -1.20599 8.97534 0
M  V30 9568 P 568.617 1.17771 8.83182 0
M  V30 9569 O 568.397 2.07206 9.98732 0
M  V30 9570 O 567.827 -0.0743816 8.81969 0
M  V30 9571 O 568.367 1.97652 7.47304 0
M  V30 9572 C 569.307 3.01055 7.08599 0
M  V30 9573 C 568.577 4.12613 6.37049 0
M  V30 9574 O 568.367 3.72827 4.97879 0
M  V30 9575 C 567.177 4.45719 6.88164 0
M  V30 9576 O 566.787 5.7877 6.5624 0
M  V30 9577 C 566.297 3.47768 6.11991 0
M  V30 9578 C 567.007 3.39356 4.77615 0
M  V30 9579 N 566.957 2.04571 4.15244 0
M  V30 9580 C 566.807 1.98587 2.78314 0
M  V30 9581 O 566.717 2.98134 2.08835 0
M  V30 9582 N 566.767 0.714467 2.24925 0
M  V30 9583 C 566.857 -0.470001 2.94169 0
M  V30 9584 O 566.807 -1.55587 2.35195 0
M  V30 9585 C 567.007 -0.312541 4.36783 0
M  V30 9586 C 567.117 -1.57711 5.16352 0
M  V30 9587 C 567.057 0.914512 4.92583 0
M  V30 9588 H 569.798 3.41169 7.98575 0
M  V30 9589 H 570.067 2.58295 6.41556 0
M  V30 9590 H 569.2 5.02657 6.42673 0
M  V30 9591 H 566.545 4.11637 4.08885 0
M  V30 9592 H 566.266 2.49626 6.61679 0
M  V30 9593 H 565.274 3.86566 6.00778 0
M  V30 9594 H 567.108 4.29943 7.96918 0
M  V30 9595 H 567.179 1.00937 6.00374 0
M  V30 9596 H 566.149 -1.80153 5.63503 0
M  V30 9597 H 567.886 -1.4566 5.94104 0
M  V30 9598 H 567.398 -2.40664 4.49645 0
M  V30 9599 H 566.662 0.647622 1.25697 0
M  V30 9600 P 565.237 6.144 6.45285 0
M  V30 9601 O 565.017 7.54673 6.86199 0
M  V30 9602 O 564.447 5.12391 7.179 0
M  V30 9603 O 564.987 5.99158 4.88404 0
M  V30 9604 C 565.927 6.60234 3.96415 0
M  V30 9605 C 565.197 7.08259 2.72856 0
M  V30 9606 O 564.987 5.9427 1.83651 0
M  V30 9607 C 563.797 7.64886 2.9555 0
M  V30 9608 O 563.407 8.53963 1.90717 0
M  V30 9609 C 562.917 6.4116 2.90739 0
M  V30 9610 C 563.627 5.55375 1.86963 0
M  V30 9611 N 563.577 4.09448 2.16152 0
M  V30 9612 H 566.416 7.45574 4.45629 0
M  V30 9613 H 566.688 5.85864 3.679 0
M  V30 9614 H 565.82 7.84412 2.24479 0
M  V30 9615 H 563.165 5.73457 0.888562 0
M  V30 9616 H 562.885 5.90877 3.88583 0
M  V30 9617 H 561.894 6.6596 2.58858 0
M  V30 9618 H 563.728 8.16339 3.92049 0
M  V30 9619 P 561.857 8.7635 1.60911 0
M  V30 9620 O 561.637 10.1388 1.11561 0
M  V30 9621 O 561.067 8.36503 2.79617 0
M  V30 9622 O 561.607 7.71806 0.42951 0
M  V30 9623 C 562.547 7.67148 -0.673689 0
M  V30 9624 C 561.817 7.33374 -1.95559 0
M  V30 9625 O 561.607 5.88721 -2.00726 0
M  V30 9626 C 560.417 7.92526 -2.10483 0
M  V30 9627 O 560.027 8.02971 -3.47653 0
M  V30 9628 C 559.537 6.89602 -1.41652 0
M  V30 9629 C 560.247 5.59201 -1.75185 0
M  V30 9630 N 560.197 4.58235 -0.662552 0
M  V30 9631 H 563.036 8.65116 -0.777161 0
M  V30 9632 H 563.308 6.90173 -0.474152 0
M  V30 9633 H 562.44 7.66548 -2.79458 0
M  V30 9634 P 558.477 8.03563 -3.84925 0
M  V30 9635 O 558.257 8.85821 -5.0569 0
M  V30 9636 O 557.687 8.41101 -2.65469 0
M  V30 9637 O 558.227 6.4965 -4.18908 0
M  V30 9638 C 559.167 5.81037 -5.05421 0
M  V30 9639 C 558.437 4.78366 -5.89277 0
M  V30 9640 O 558.227 3.58302 -5.08433 0
M  V30 9641 C 557.037 5.17448 -6.36119 0
M  V30 9642 O 556.647 4.45271 -7.53232 0
M  V30 9643 C 556.157 4.74639 -5.19936 0
M  V30 9644 C 556.867 3.49432 -4.70418 0
M  V30 9645 N 556.817 3.31776 -3.22945 0
M  V30 9646 C 556.897 4.27147 -2.23315 0
M  V30 9647 N 556.817 3.78447 -1.02186 0
M  V30 9648 C 556.677 2.41001 -1.21732 0
M  V30 9649 C 556.547 1.36111 -0.27694 0
M  V30 9650 O 556.527 1.42065 0.951767 0
M  V30 9651 N 556.427 0.113683 -0.912949 0
M  V30 9652 C 556.427 -0.0846396 -2.27943 0
M  V30 9653 N 556.297 -1.34737 -2.6916 0
M  V30 9654 N 556.557 0.902521 -3.16379 0
M  V30 9655 C 556.677 2.11937 -2.56849 0
M  V30 9656 H 559.656 6.54213 -5.71376 0
M  V30 9657 H 559.928 5.30492 -4.44033 0
M  V30 9658 H 559.06 4.55889 -6.76652 0
M  V30 9659 H 556.405 2.6176 -5.18021 0
M  V30 9660 H 556.125 5.52233 -4.41941 0
M  V30 9661 H 555.134 4.52045 -5.53452 0
M  V30 9662 H 556.968 6.25193 -6.55307 0
M  V30 9663 H 557.017 5.3351 -2.43857 0
M  V30 9664 H 556.335 -0.69331 -0.330371 0
M  V30 9665 H 556.298 -1.56433 -3.6988 0
M  V30 9666 H 556.197 -2.10701 -2.00133 0
M  V30 9667 P 555.097 4.23843 -7.83734 0
M  V30 9668 O 554.877 4.19407 -9.29784 0
M  V30 9669 O 554.307 5.24426 -7.09156 0
M  V30 9670 O 554.847 2.7935 -7.20758 0
M  V30 9671 C 555.787 1.7299 -7.50419 0
M  V30 9672 C 555.057 0.406376 -7.57911 0
M  V30 9673 O 554.847 -0.0897726 -6.21935 0
M  V30 9674 C 553.657 0.447224 -8.1878 0
M  V30 9675 O 553.267 -0.825065 -8.71101 0
M  V30 9676 C 552.777 0.783801 -6.99623 0
M  V30 9677 C 553.487 0.0619192 -5.85967 0
M  V30 9678 N 553.437 0.790462 -4.56202 0
M  V30 9679 H 556.276 1.93423 -8.4679 0
M  V30 9680 H 556.548 1.68852 -6.70877 0
M  V30 9681 H 555.68 -0.289041 -8.15388 0
M  V30 9682 H 553.025 -0.927006 -5.72848 0
M  V30 9683 H 552.745 1.86973 -6.82036 0
M  V30 9684 H 551.754 0.403953 -7.13357 0
M  V30 9685 H 553.588 1.20599 -8.97534 0
M  V30 9686 P 551.717 -1.17771 -8.83182 0
M  V30 9687 O 551.497 -2.07206 -9.98732 0
M  V30 9688 O 550.927 0.0743816 -8.81969 0
M  V30 9689 O 551.467 -1.97652 -7.47304 0
M  V30 9690 C 552.407 -3.01133 -7.08783 0
M  V30 9691 C 551.677 -4.12613 -6.37049 0
M  V30 9692 O 551.467 -3.72827 -4.97879 0
M  V30 9693 C 550.277 -4.45085 -6.88694 0
M  V30 9694 O 549.887 -5.7877 -6.5624 0
M  V30 9695 C 549.397 -3.47817 -6.12078 0
M  V30 9696 C 550.107 -3.39414 -4.77697 0
M  V30 9697 N 550.057 -2.04615 -4.15333 0
M  V30 9698 H 552.896 -3.41248 -7.98759 0
M  V30 9699 H 553.168 -2.5837 -6.41742 0
M  V30 9700 H 552.3 -5.02657 -6.42673 0
M  V30 9701 P 548.337 -6.144 -6.45285 0
M  V30 9702 O 548.117 -7.54673 -6.86199 0
M  V30 9703 O 547.547 -5.12391 -7.179 0
M  V30 9704 O 548.087 -5.99158 -4.88404 0
M  V30 9705 C 549.027 -6.60234 -3.96415 0
M  V30 9706 C 548.297 -7.08259 -2.72856 0
M  V30 9707 O 548.087 -5.9427 -1.83651 0
M  V30 9708 C 546.897 -7.64886 -2.9555 0
M  V30 9709 O 546.507 -8.53963 -1.90717 0
M  V30 9710 C 546.017 -6.4116 -2.90739 0
M  V30 9711 C 546.727 -5.55375 -1.86963 0
M  V30 9712 N 546.677 -4.09664 -2.15742 0
M  V30 9713 H 549.516 -7.45574 -4.45629 0
M  V30 9714 H 549.788 -5.86232 -3.67314 0
M  V30 9715 H 548.92 -7.84412 -2.24479 0
M  V30 9716 P 544.957 -8.7635 -1.60911 0
M  V30 9717 O 544.737 -10.1388 -1.11561 0
M  V30 9718 O 544.167 -8.36503 -2.79617 0
M  V30 9719 O 544.707 -7.71806 -0.42951 0
M  V30 9720 C 545.647 -7.66948 0.673514 0
M  V30 9721 C 544.917 -7.33374 1.95559 0
M  V30 9722 O 544.707 -5.88721 2.00726 0
M  V30 9723 C 543.517 -7.92218 2.1125 0
M  V30 9724 O 543.127 -8.02971 3.47653 0
M  V30 9725 C 542.637 -6.89504 1.41631 0
M  V30 9726 C 543.347 -5.59106 1.75155 0
M  V30 9727 N 543.297 -4.58136 0.662409 0
M  V30 9728 C 543.147 -3.26059 1.02863 0
M  V30 9729 O 543.057 -2.90743 2.19009 0
M  V30 9730 N 543.107 -2.35995 -0.0155585 0
M  V30 9731 C 543.197 -2.65248 -1.35603 0
M  V30 9732 C 543.347 -4.05747 -1.64698 0
M  V30 9733 C 543.397 -4.96734 -0.652411 0
M  V30 9734 H 546.138 -8.64917 0.776982 0
M  V30 9735 H 546.407 -6.89974 0.474015 0
M  V30 9736 H 545.54 -7.66548 2.79458 0
M  V30 9737 H 542.885 -5.16076 2.65138 0
M  V30 9738 H 542.606 -7.06433 0.329384 0
M  V30 9739 H 541.614 -6.90829 1.81996 0
M  V30 9740 H 543.448 -8.90774 1.62639 0
M  V30 9741 H 543.519 -6.02181 -0.895285 0
M  V30 9742 P 541.577 -8.03563 3.84925 0
M  V30 9743 O 541.357 -8.85821 5.0569 0
M  V30 9744 O 540.787 -8.41101 2.65469 0
M  V30 9745 O 541.327 -6.49734 4.18962 0
M  V30 9746 C 542.267 -5.81037 5.05421 0
M  V30 9747 C 541.537 -4.79018 5.88876 0
M  V30 9748 O 541.327 -3.58359 5.08515 0
M  V30 9749 C 540.137 -5.17448 6.36119 0
M  V30 9750 O 539.747 -4.45322 7.53318 0
M  V30 9751 C 539.257 -4.74639 5.19936 0
M  V30 9752 C 539.967 -3.49432 4.70418 0
M  V30 9753 N 539.917 -3.31776 3.22945 0
M  V30 9754 C 539.767 -2.02742 2.72939 0
M  V30 9755 O 539.677 -1.08301 3.52749 0
M  V30 9756 N 539.717 -1.96117 1.22063 0
M  V30 9757 C 539.817 -2.8878 0.551566 0
M  V30 9758 N 539.767 -2.65609 -0.750198 0
M  V30 9759 C 539.967 -4.22457 1.03707 0
M  V30 9760 C 540.017 -4.37979 2.39113 0
M  V30 9761 H 542.757 -6.54138 5.7131 0
M  V30 9762 H 543.027 -5.30492 4.44033 0
M  V30 9763 H 542.16 -4.55945 6.76735 0
M  V30 9764 H 539.505 -2.6176 5.18021 0
M  V30 9765 H 539.225 -5.52233 4.41941 0
M  V30 9766 H 538.234 -4.52045 5.53452 0
M  V30 9767 H 540.068 -6.25124 6.55234 0
M  V30 9768 H 540.14 -5.37936 2.80552 0
M  V30 9769 H 540.038 -5.07528 0.359553 0
M  V30 9770 H 539.65 -1.69403 -1.09847 0
M  V30 9771 H 539.846 -3.43701 -1.41792 0
M  V30 9772 P 538.197 -4.23843 7.83734 0
M  V30 9773 O 537.977 -4.19407 9.29784 0
M  V30 9774 O 537.407 -5.24426 7.09156 0
M  V30 9775 O 537.947 -2.7935 7.20758 0
M  V30 9776 C 538.887 -1.7299 7.50419 0
M  V30 9777 C 538.157 -0.406376 7.57911 0
M  V30 9778 O 537.947 0.0897726 6.21935 0
M  V30 9779 C 536.757 -0.447224 8.1878 0
M  V30 9780 O 536.367 0.825065 8.71101 0
M  V30 9781 C 535.877 -0.783801 6.99623 0
M  V30 9782 C 536.587 -0.0619192 5.85967 0
M  V30 9783 N 536.537 -0.7859 4.56281 0
M  V30 9784 H 539.376 -1.93423 8.4679 0
M  V30 9785 H 539.648 -1.68181 6.71046 0
M  V30 9786 H 538.78 0.289041 8.15388 0
M  V30 9787 P 534.817 1.17771 8.83182 0
M  V30 9788 O 534.597 2.07206 9.98732 0
M  V30 9789 O 534.027 -0.0743816 8.81969 0
M  V30 9790 O 534.567 1.97652 7.47304 0
M  V30 9791 C 535.507 3.01133 7.08783 0
M  V30 9792 C 534.777 4.12613 6.37049 0
M  V30 9793 O 534.567 3.72827 4.97879 0
M  V30 9794 C 533.377 4.45085 6.88694 0
M  V30 9795 O 532.987 5.7877 6.5624 0
M  V30 9796 C 532.497 3.47817 6.12078 0
M  V30 9797 C 533.207 3.39414 4.77697 0
M  V30 9798 N 533.157 2.04615 4.15333 0
M  V30 9799 H 535.996 3.41248 7.98759 0
M  V30 9800 H 536.268 2.5837 6.41742 0
M  V30 9801 H 535.4 5.02657 6.42673 0
M  V30 9802 P 531.437 6.144 6.45285 0
M  V30 9803 O 531.217 7.54673 6.86199 0
M  V30 9804 O 530.647 5.12391 7.179 0
M  V30 9805 O 531.187 5.99158 4.88404 0
M  V30 9806 C 532.127 6.60234 3.96415 0
M  V30 9807 C 531.397 7.08259 2.72856 0
M  V30 9808 O 531.187 5.9427 1.83651 0
M  V30 9809 C 529.997 7.64886 2.9555 0
M  V30 9810 O 529.607 8.53963 1.90717 0
M  V30 9811 C 529.117 6.4116 2.90739 0
M  V30 9812 C 529.827 5.55375 1.86963 0
M  V30 9813 N 529.777 4.09448 2.16152 0
M  V30 9814 H 532.616 7.45574 4.45629 0
M  V30 9815 H 532.888 5.85864 3.679 0
M  V30 9816 H 532.02 7.84412 2.24479 0
M  V30 9817 H 529.365 5.73457 0.888562 0
M  V30 9818 H 529.085 5.90877 3.88583 0
M  V30 9819 H 528.094 6.6596 2.58858 0
M  V30 9820 H 529.928 8.16339 3.92049 0
M  V30 9821 P 528.057 8.7635 1.60911 0
M  V30 9822 O 527.837 10.1388 1.11561 0
M  V30 9823 O 527.267 8.36503 2.79617 0
M  V30 9824 O 527.807 7.71806 0.42951 0
M  V30 9825 C 528.747 7.67148 -0.673689 0
M  V30 9826 C 528.017 7.33374 -1.95559 0
M  V30 9827 O 527.807 5.88721 -2.00726 0
M  V30 9828 C 526.617 7.92526 -2.10483 0
M  V30 9829 O 526.227 8.02971 -3.47653 0
M  V30 9830 C 525.737 6.89602 -1.41652 0
M  V30 9831 C 526.447 5.59201 -1.75185 0
M  V30 9832 N 526.397 4.58235 -0.662552 0
M  V30 9833 H 529.236 8.65116 -0.777161 0
M  V30 9834 H 529.508 6.90173 -0.474152 0
M  V30 9835 H 528.64 7.66548 -2.79458 0
M  V30 9836 P 524.677 8.03563 -3.84925 0
M  V30 9837 O 524.457 8.85821 -5.0569 0
M  V30 9838 O 523.887 8.41101 -2.65469 0
M  V30 9839 O 524.427 6.4965 -4.18908 0
M  V30 9840 C 525.367 5.81037 -5.05421 0
M  V30 9841 C 524.637 4.78366 -5.89277 0
M  V30 9842 O 524.427 3.58302 -5.08433 0
M  V30 9843 C 523.237 5.17448 -6.36119 0
M  V30 9844 O 522.847 4.45271 -7.53232 0
M  V30 9845 C 522.357 4.74639 -5.19936 0
M  V30 9846 C 523.067 3.49432 -4.70418 0
M  V30 9847 N 523.017 3.31776 -3.22945 0
M  V30 9848 H 525.856 6.54213 -5.71376 0
M  V30 9849 H 526.128 5.30492 -4.44033 0
M  V30 9850 H 525.26 4.55889 -6.76652 0
M  V30 9851 P 521.297 4.23843 -7.83734 0
M  V30 9852 O 521.077 4.19407 -9.29784 0
M  V30 9853 O 520.507 5.24426 -7.09156 0
M  V30 9854 O 521.047 2.7935 -7.20758 0
M  V30 9855 C 521.987 1.7299 -7.50419 0
M  V30 9856 C 521.257 0.406376 -7.57911 0
M  V30 9857 O 521.047 -0.0897726 -6.21935 0
M  V30 9858 C 519.857 0.447224 -8.1878 0
M  V30 9859 O 519.467 -0.825065 -8.71101 0
M  V30 9860 C 518.977 0.783801 -6.99623 0
M  V30 9861 C 519.687 0.0619192 -5.85967 0
M  V30 9862 N 519.637 0.790462 -4.56202 0
M  V30 9863 H 522.476 1.93423 -8.4679 0
M  V30 9864 H 522.748 1.68852 -6.70877 0
M  V30 9865 H 521.88 -0.289041 -8.15388 0
M  V30 9866 H 519.225 -0.927006 -5.72848 0
M  V30 9867 H 518.945 1.86973 -6.82036 0
M  V30 9868 H 517.954 0.403953 -7.13357 0
M  V30 9869 H 519.788 1.20599 -8.97534 0
M  V30 9870 P 517.917 -1.17771 -8.83182 0
M  V30 9871 O 517.697 -2.07206 -9.98732 0
M  V30 9872 O 517.127 0.0743816 -8.81969 0
M  V30 9873 O 517.667 -1.97652 -7.47304 0
M  V30 9874 C 518.607 -3.01055 -7.08599 0
M  V30 9875 C 517.877 -4.12613 -6.37049 0
M  V30 9876 O 517.667 -3.72827 -4.97879 0
M  V30 9877 C 516.477 -4.45719 -6.88164 0
M  V30 9878 O 516.087 -5.7877 -6.5624 0
M  V30 9879 C 515.597 -3.47768 -6.11991 0
M  V30 9880 C 516.307 -3.39356 -4.77615 0
M  V30 9881 N 516.257 -2.04571 -4.15244 0
M  V30 9882 C 516.107 -1.98587 -2.78314 0
M  V30 9883 O 516.017 -2.98134 -2.08835 0
M  V30 9884 N 516.067 -0.714467 -2.24925 0
M  V30 9885 C 516.157 0.470001 -2.94169 0
M  V30 9886 C 516.307 0.312541 -4.36783 0
M  V30 9887 C 516.357 -0.914512 -4.92583 0
M  V30 9888 H 519.098 -3.41169 -7.98575 0
M  V30 9889 H 519.367 -2.58295 -6.41556 0
M  V30 9890 H 518.5 -5.02657 -6.42673 0
M  V30 9891 H 515.845 -4.11637 -4.08885 0
M  V30 9892 H 515.566 -2.49626 -6.61679 0
M  V30 9893 H 514.574 -3.86566 -6.00778 0
M  V30 9894 H 516.408 -4.29943 -7.96918 0
M  V30 9895 H 516.479 -1.00937 -6.00374 0
M  V30 9896 P 514.537 -6.144 -6.45285 0
M  V30 9897 O 514.317 -7.54673 -6.86199 0
M  V30 9898 O 513.747 -5.12391 -7.179 0
M  V30 9899 O 514.287 -5.99158 -4.88404 0
M  V30 9900 C 515.227 -6.60234 -3.96415 0
M  V30 9901 C 514.497 -7.08259 -2.72856 0
M  V30 9902 O 514.287 -5.9427 -1.83651 0
M  V30 9903 C 513.097 -7.64886 -2.9555 0
M  V30 9904 O 512.707 -8.53963 -1.90717 0
M  V30 9905 C 512.217 -6.4116 -2.90739 0
M  V30 9906 C 512.927 -5.55375 -1.86963 0
M  V30 9907 N 512.877 -4.09664 -2.15742 0
M  V30 9908 H 515.716 -7.45574 -4.45629 0
M  V30 9909 H 515.988 -5.86232 -3.67314 0
M  V30 9910 H 515.12 -7.84412 -2.24479 0
M  V30 9911 P 511.157 -8.7635 -1.60911 0
M  V30 9912 O 510.937 -10.1388 -1.11561 0
M  V30 9913 O 510.367 -8.36503 -2.79617 0
M  V30 9914 O 510.907 -7.71806 -0.42951 0
M  V30 9915 C 511.847 -7.67148 0.673689 0
M  V30 9916 C 511.117 -7.33374 1.95559 0
M  V30 9917 O 510.907 -5.88721 2.00726 0
M  V30 9918 C 509.717 -7.92526 2.10483 0
M  V30 9919 O 509.327 -8.02971 3.47653 0
M  V30 9920 C 508.837 -6.89602 1.41652 0
M  V30 9921 C 509.547 -5.59201 1.75185 0
M  V30 9922 N 509.497 -4.58235 0.662552 0
M  V30 9923 H 512.336 -8.65116 0.777161 0
M  V30 9924 H 512.608 -6.90173 0.474152 0
M  V30 9925 H 511.74 -7.66548 2.79458 0
M  V30 9926 P 507.777 -8.03563 3.84925 0
M  V30 9927 O 507.557 -8.85821 5.0569 0
M  V30 9928 O 506.987 -8.41101 2.65469 0
M  V30 9929 O 507.527 -6.4965 4.18908 0
M  V30 9930 C 508.467 -5.80886 5.05289 0
M  V30 9931 C 507.737 -4.78366 5.89277 0
M  V30 9932 O 507.527 -3.58302 5.08433 0
M  V30 9933 C 506.337 -5.16748 6.36559 0
M  V30 9934 O 505.947 -4.45271 7.53232 0
M  V30 9935 C 505.457 -4.74572 5.19863 0
M  V30 9936 C 506.167 -3.49373 4.70338 0
M  V30 9937 N 506.117 -3.31704 3.22876 0
M  V30 9938 C 505.967 -2.03326 2.74871 0
M  V30 9939 O 505.877 -1.06486 3.48076 0
M  V30 9940 N 505.927 -1.91838 1.37456 0
M  V30 9941 C 506.017 -2.94295 0.462035 0
M  V30 9942 C 506.167 -4.25064 1.05249 0
M  V30 9943 C 506.217 -4.40214 2.39192 0
M  V30 9944 H 508.958 -6.54063 5.71245 0
M  V30 9945 H 509.227 -5.30339 4.43905 0
M  V30 9946 H 508.36 -4.55889 6.76652 0
M  V30 9947 H 505.705 -2.6167 5.17842 0
M  V30 9948 H 505.426 -5.52155 4.41878 0
M  V30 9949 H 504.434 -4.51918 5.53297 0
M  V30 9950 H 506.268 -6.25055 6.55162 0
M  V30 9951 H 506.339 -5.39798 2.81523 0
M  V30 9952 P 504.397 -4.23843 7.83734 0
M  V30 9953 O 504.177 -4.19407 9.29784 0
M  V30 9954 O 503.607 -5.24426 7.09156 0
M  V30 9955 O 504.147 -2.7935 7.20758 0
M  V30 9956 C 505.087 -1.7299 7.50419 0
M  V30 9957 C 504.357 -0.406376 7.57911 0
M  V30 9958 O 504.147 0.0897726 6.21935 0
M  V30 9959 C 502.957 -0.447224 8.1878 0
M  V30 9960 O 502.567 0.825065 8.71101 0
M  V30 9961 C 502.077 -0.783801 6.99623 0
M  V30 9962 C 502.787 -0.0619192 5.85967 0
M  V30 9963 N 502.737 -0.7859 4.56281 0
M  V30 9964 H 505.576 -1.93423 8.4679 0
M  V30 9965 H 505.848 -1.68181 6.71046 0
M  V30 9966 H 504.98 0.289041 8.15388 0
M  V30 9967 P 501.017 1.17771 8.83182 0
M  V30 9968 O 500.797 2.07206 9.98732 0
M  V30 9969 O 500.227 -0.0743816 8.81969 0
M  V30 9970 O 500.767 1.97652 7.47304 0
M  V30 9971 C 501.707 3.01133 7.08783 0
M  V30 9972 C 500.977 4.12613 6.37049 0
M  V30 9973 O 500.767 3.72827 4.97879 0
M  V30 9974 C 499.577 4.45085 6.88694 0
M  V30 9975 O 499.187 5.7877 6.5624 0
M  V30 9976 C 498.697 3.47817 6.12078 0
M  V30 9977 C 499.407 3.39414 4.77697 0
M  V30 9978 N 499.357 2.04615 4.15333 0
M  V30 9979 H 502.196 3.41248 7.98759 0
M  V30 9980 H 502.468 2.5837 6.41742 0
M  V30 9981 H 501.6 5.02657 6.42673 0
M  V30 9982 P 497.637 6.144 6.45285 0
M  V30 9983 O 497.417 7.54673 6.86199 0
M  V30 9984 O 496.847 5.12391 7.179 0
M  V30 9985 O 497.387 5.99158 4.88404 0
M  V30 9986 C 498.327 6.60234 3.96415 0
M  V30 9987 C 497.597 7.08259 2.72856 0
M  V30 9988 O 497.387 5.9427 1.83651 0
M  V30 9989 C 496.197 7.64886 2.9555 0
M  V30 9990 O 495.807 8.53963 1.90717 0
M  V30 9991 C 495.317 6.4116 2.90739 0
M  V30 9992 C 496.027 5.55375 1.86963 0
M  V30 9993 N 495.977 4.09664 2.15742 0
M  V30 9994 H 498.816 7.45574 4.45629 0
M  V30 9995 H 499.088 5.86232 3.67314 0
M  V30 9996 H 498.22 7.84412 2.24479 0
M  V30 9997 P 494.257 8.7635 1.60911 0
M  V30 9998 O 494.037 10.1388 1.11561 0
M  V30 9999 O 493.467 8.36503 2.79617 0
M  V30 10000 O 494.007 7.71806 0.42951 0
M  V30 10001 C 494.947 7.67148 -0.673689 0
M  V30 10002 C 494.217 7.33374 -1.95559 0
M  V30 10003 O 494.007 5.88721 -2.00726 0
M  V30 10004 C 492.817 7.92526 -2.10483 0
M  V30 10005 O 492.427 8.02971 -3.47653 0
M  V30 10006 C 491.937 6.89602 -1.41652 0
M  V30 10007 C 492.647 5.59201 -1.75185 0
M  V30 10008 N 492.597 4.58301 -0.657969 0
M  V30 10009 H 495.436 8.65116 -0.777161 0
M  V30 10010 H 495.708 6.9022 -0.46725 0
M  V30 10011 H 494.84 7.66548 -2.79458 0
M  V30 10012 H 492.185 5.16165 -2.65183 0
M  V30 10013 H 491.905 7.06433 -0.329384 0
M  V30 10014 H 490.914 6.90926 -1.82021 0
M  V30 10015 H 492.748 8.90873 -1.62657 0
M  V30 10016 P 490.877 8.03563 -3.84925 0
M  V30 10017 O 490.657 8.85821 -5.0569 0
M  V30 10018 O 490.087 8.41101 -2.65469 0
M  V30 10019 O 490.627 6.4965 -4.18908 0
M  V30 10020 C 491.567 5.81037 -5.05421 0
M  V30 10021 C 490.837 4.78366 -5.89277 0
M  V30 10022 O 490.627 3.58302 -5.08433 0
M  V30 10023 C 489.437 5.17448 -6.36119 0
M  V30 10024 O 489.047 4.45271 -7.53232 0
M  V30 10025 C 488.557 4.74639 -5.19936 0
M  V30 10026 C 489.267 3.49432 -4.70418 0
M  V30 10027 N 489.217 3.31776 -3.22945 0
M  V30 10028 H 492.056 6.54213 -5.71376 0
M  V30 10029 H 492.328 5.30492 -4.44033 0
M  V30 10030 H 491.46 4.55889 -6.76652 0
M  V30 10031 P 487.497 4.23843 -7.83734 0
M  V30 10032 O 487.277 4.19407 -9.29784 0
M  V30 10033 O 486.707 5.24426 -7.09156 0
M  V30 10034 O 487.247 2.7935 -7.20758 0
M  V30 10035 C 488.187 1.7299 -7.50419 0
M  V30 10036 C 487.457 0.406376 -7.57911 0
M  V30 10037 O 487.247 -0.0897726 -6.21935 0
M  V30 10038 C 486.057 0.447224 -8.1878 0
M  V30 10039 O 485.667 -0.825065 -8.71101 0
M  V30 10040 C 485.177 0.783801 -6.99623 0
M  V30 10041 C 485.887 0.0619192 -5.85967 0
M  V30 10042 N 485.837 0.7859 -4.56281 0
M  V30 10043 H 488.676 1.93423 -8.4679 0
M  V30 10044 H 488.948 1.68181 -6.71046 0
M  V30 10045 H 488.08 -0.289041 -8.15388 0
M  V30 10046 P 484.117 -1.17771 -8.83182 0
M  V30 10047 O 483.897 -2.07206 -9.98732 0
M  V30 10048 O 483.327 0.0743816 -8.81969 0
M  V30 10049 O 483.867 -1.97652 -7.47304 0
M  V30 10050 C 484.807 -3.01133 -7.08783 0
M  V30 10051 C 484.077 -4.12613 -6.37049 0
M  V30 10052 O 483.867 -3.72827 -4.97879 0
M  V30 10053 C 482.677 -4.45085 -6.88694 0
M  V30 10054 O 482.287 -5.7877 -6.5624 0
M  V30 10055 C 481.797 -3.47817 -6.12078 0
M  V30 10056 C 482.507 -3.39414 -4.77697 0
M  V30 10057 N 482.457 -2.04615 -4.15333 0
M  V30 10058 H 485.296 -3.41248 -7.98759 0
M  V30 10059 H 485.568 -2.5837 -6.41742 0
M  V30 10060 H 484.7 -5.02657 -6.42673 0
M  V30 10061 P 480.737 -6.144 -6.45285 0
M  V30 10062 O 480.517 -7.54673 -6.86199 0
M  V30 10063 O 479.947 -5.12391 -7.179 0
M  V30 10064 O 480.487 -5.99158 -4.88404 0
M  V30 10065 C 481.427 -6.60234 -3.96415 0
M  V30 10066 C 480.697 -7.08259 -2.72856 0
M  V30 10067 O 480.487 -5.9427 -1.83651 0
M  V30 10068 C 479.297 -7.64886 -2.9555 0
M  V30 10069 O 478.907 -8.53963 -1.90717 0
M  V30 10070 C 478.417 -6.4116 -2.90739 0
M  V30 10071 C 479.127 -5.55375 -1.86963 0
M  V30 10072 N 479.077 -4.09664 -2.15742 0
M  V30 10073 H 481.916 -7.45574 -4.45629 0
M  V30 10074 H 482.188 -5.86232 -3.67314 0
M  V30 10075 H 481.32 -7.84412 -2.24479 0
M  V30 10076 P 477.357 -8.7635 -1.60911 0
M  V30 10077 O 477.137 -10.1388 -1.11561 0
M  V30 10078 O 476.567 -8.36503 -2.79617 0
M  V30 10079 O 477.107 -7.71806 -0.42951 0
M  V30 10080 C 478.047 -7.67148 0.673689 0
M  V30 10081 C 477.317 -7.33374 1.95559 0
M  V30 10082 O 477.107 -5.88721 2.00726 0
M  V30 10083 C 475.917 -7.92526 2.10483 0
M  V30 10084 O 475.527 -8.02971 3.47653 0
M  V30 10085 C 475.037 -6.89602 1.41652 0
M  V30 10086 C 475.747 -5.59201 1.75185 0
M  V30 10087 N 475.697 -4.58235 0.662552 0
M  V30 10088 H 478.536 -8.65116 0.777161 0
M  V30 10089 H 478.808 -6.90173 0.474152 0
M  V30 10090 H 477.94 -7.66548 2.79458 0
M  V30 10091 P 473.977 -8.03563 3.84925 0
M  V30 10092 O 473.757 -8.85821 5.0569 0
M  V30 10093 O 473.187 -8.41101 2.65469 0
M  V30 10094 O 473.727 -6.4965 4.18908 0
M  V30 10095 C 474.667 -5.81037 5.05421 0
M  V30 10096 C 473.937 -4.78366 5.89277 0
M  V30 10097 O 473.727 -3.58302 5.08433 0
M  V30 10098 C 472.537 -5.17448 6.36119 0
M  V30 10099 O 472.147 -4.45271 7.53232 0
M  V30 10100 C 471.657 -4.74639 5.19936 0
M  V30 10101 C 472.367 -3.49432 4.70418 0
M  V30 10102 N 472.317 -3.32099 3.22613 0
M  V30 10103 H 475.156 -6.54213 5.71376 0
M  V30 10104 H 475.428 -5.30936 4.43503 0
M  V30 10105 H 474.56 -4.55889 6.76652 0
M  V30 10106 H 471.905 -2.61715 5.17932 0
M  V30 10107 H 471.625 -5.52155 4.41878 0
M  V30 10108 H 470.634 -4.51981 5.53374 0
M  V30 10109 H 472.468 -6.25124 6.55234 0
M  V30 10110 P 470.597 -4.23843 7.83734 0
M  V30 10111 O 470.377 -4.19407 9.29784 0
M  V30 10112 O 469.807 -5.24426 7.09156 0
M  V30 10113 O 470.347 -2.7935 7.20758 0
M  V30 10114 C 471.287 -1.72945 7.50224 0
M  V30 10115 C 470.557 -0.406376 7.57911 0
M  V30 10116 O 470.347 0.0897726 6.21935 0
M  V30 10117 C 469.157 -0.438983 8.18724 0
M  V30 10118 O 468.767 0.825065 8.71101 0
M  V30 10119 C 468.277 -0.783689 6.99524 0
M  V30 10120 C 468.987 -0.0619086 5.85867 0
M  V30 10121 N 468.937 -0.78573 4.56183 0
M  V30 10122 C 468.787 -0.0292889 3.41887 0
M  V30 10123 O 468.697 1.18445 3.4419 0
M  V30 10124 N 468.747 -0.744061 2.23964 0
M  V30 10125 C 468.837 -2.10932 2.10362 0
M  V30 10126 O 468.787 -2.64117 0.98825 0
M  V30 10127 C 468.987 -2.8202 3.34994 0
M  V30 10128 C 469.097 -4.31095 3.25037 0
M  V30 10129 C 469.037 -2.15547 4.52261 0
M  V30 10130 H 471.778 -1.93379 8.46595 0
M  V30 10131 H 472.047 -1.68132 6.70852 0
M  V30 10132 H 471.18 0.289041 8.15388 0
M  V30 10133 H 468.525 0.926847 5.72749 0
M  V30 10134 H 468.246 -1.86973 6.82036 0
M  V30 10135 H 467.254 -0.403896 7.13257 0
M  V30 10136 H 469.088 -1.20585 8.97435 0
M  V30 10137 H 469.159 -2.71231 5.45042 0
M  V30 10138 H 468.129 -4.76966 3.49992 0
M  V30 10139 H 469.866 -4.67047 3.95024 0
M  V30 10140 H 469.378 -4.58996 2.22312 0
M  V30 10141 H 468.642 -0.214893 1.39758 0
M  V30 10142 P 467.217 1.17771 8.83182 0
M  V30 10143 O 466.997 2.07206 9.98732 0
M  V30 10144 O 466.427 -0.0743816 8.81969 0
M  V30 10145 O 466.967 1.97652 7.47304 0
M  V30 10146 C 467.907 3.01133 7.08783 0
M  V30 10147 C 467.177 4.12613 6.37049 0
M  V30 10148 O 466.967 3.72827 4.97879 0
M  V30 10149 C 465.777 4.45085 6.88694 0
M  V30 10150 O 465.387 5.7877 6.5624 0
M  V30 10151 C 464.897 3.47817 6.12078 0
M  V30 10152 C 465.607 3.39414 4.77697 0
M  V30 10153 N 465.557 2.04615 4.15333 0
M  V30 10154 H 468.396 3.41248 7.98759 0
M  V30 10155 H 468.668 2.5837 6.41742 0
M  V30 10156 H 467.8 5.02657 6.42673 0
M  V30 10157 P 463.837 6.144 6.45285 0
M  V30 10158 O 463.617 7.54673 6.86199 0
M  V30 10159 O 463.047 5.12391 7.179 0
M  V30 10160 O 463.587 5.99158 4.88404 0
M  V30 10161 C 464.527 6.60234 3.96415 0
M  V30 10162 C 463.797 7.08259 2.72856 0
M  V30 10163 O 463.587 5.9427 1.83651 0
M  V30 10164 C 462.397 7.64886 2.9555 0
M  V30 10165 O 462.007 8.53963 1.90717 0
M  V30 10166 C 461.517 6.4116 2.90739 0
M  V30 10167 C 462.227 5.55375 1.86963 0
M  V30 10168 N 462.177 4.09664 2.15742 0
M  V30 10169 H 465.016 7.45574 4.45629 0
M  V30 10170 H 465.288 5.86232 3.67314 0
M  V30 10171 H 464.42 7.84412 2.24479 0
M  V30 10172 P 460.457 8.7635 1.60911 0
M  V30 10173 O 460.237 10.1388 1.11561 0
M  V30 10174 O 459.667 8.36503 2.79617 0
M  V30 10175 O 460.207 7.71806 0.42951 0
M  V30 10176 C 461.147 7.67148 -0.673689 0
M  V30 10177 C 460.417 7.33374 -1.95559 0
M  V30 10178 O 460.207 5.88721 -2.00726 0
M  V30 10179 C 459.017 7.92526 -2.10483 0
M  V30 10180 O 458.627 8.02971 -3.47653 0
M  V30 10181 C 458.137 6.89602 -1.41652 0
M  V30 10182 C 458.847 5.59201 -1.75185 0
M  V30 10183 N 458.797 4.58235 -0.662552 0
M  V30 10184 H 461.636 8.65116 -0.777161 0
M  V30 10185 H 461.908 6.90173 -0.474152 0
M  V30 10186 H 461.04 7.66548 -2.79458 0
M  V30 10187 P 457.077 8.03563 -3.84925 0
M  V30 10188 O 456.857 8.85821 -5.0569 0
M  V30 10189 O 456.287 8.41101 -2.65469 0
M  V30 10190 O 456.827 6.4965 -4.18908 0
M  V30 10191 C 457.767 5.80886 -5.05289 0
M  V30 10192 C 457.037 4.78366 -5.89277 0
M  V30 10193 O 456.827 3.58302 -5.08433 0
M  V30 10194 C 455.637 5.16748 -6.36559 0
M  V30 10195 O 455.247 4.45271 -7.53232 0
M  V30 10196 C 454.757 4.74572 -5.19863 0
M  V30 10197 C 455.467 3.49373 -4.70338 0
M  V30 10198 N 455.417 3.31704 -3.22876 0
M  V30 10199 C 455.267 2.03326 -2.74871 0
M  V30 10200 O 455.177 1.06486 -3.48076 0
M  V30 10201 N 455.227 1.91838 -1.37456 0
M  V30 10202 C 455.317 2.94295 -0.462035 0
M  V30 10203 O 455.267 2.71763 0.752928 0
M  V30 10204 C 455.467 4.25064 -1.05249 0
M  V30 10205 C 455.577 5.39815 -0.095697 0
M  V30 10206 C 455.517 4.40214 -2.39192 0
M  V30 10207 H 458.258 6.54063 -5.71245 0
M  V30 10208 H 458.527 5.30339 -4.43905 0
M  V30 10209 H 457.66 4.55889 -6.76652 0
M  V30 10210 H 455.005 2.6167 -5.17842 0
M  V30 10211 H 454.726 5.52155 -4.41878 0
M  V30 10212 H 453.734 4.51918 -5.53297 0
M  V30 10213 H 455.568 6.25055 -6.55162 0
M  V30 10214 H 455.639 5.39798 -2.81523 0
M  V30 10215 H 454.609 5.91593 -0.0279582 0
M  V30 10216 H 456.346 6.10038 -0.450573 0
M  V30 10217 H 455.858 5.02007 0.89937 0
M  V30 10218 H 455.122 0.995326 -1.00435 0
M  V30 10219 P 453.697 4.23843 -7.83734 0
M  V30 10220 O 453.477 4.19407 -9.29784 0
M  V30 10221 O 452.907 5.24426 -7.09156 0
M  V30 10222 O 453.447 2.7935 -7.20758 0
M  V30 10223 C 454.387 1.7299 -7.50419 0
M  V30 10224 C 453.657 0.406376 -7.57911 0
M  V30 10225 O 453.447 -0.0897726 -6.21935 0
M  V30 10226 C 452.257 0.447224 -8.1878 0
M  V30 10227 O 451.867 -0.825065 -8.71101 0
M  V30 10228 C 451.377 0.783801 -6.99623 0
M  V30 10229 C 452.087 0.0619192 -5.85967 0
M  V30 10230 N 452.037 0.7859 -4.56281 0
M  V30 10231 H 454.876 1.93423 -8.4679 0
M  V30 10232 H 455.148 1.68181 -6.71046 0
M  V30 10233 H 454.28 -0.289041 -8.15388 0
M  V30 10234 P 450.317 -1.17771 -8.83182 0
M  V30 10235 O 450.097 -2.07206 -9.98732 0
M  V30 10236 O 449.527 0.0743816 -8.81969 0
M  V30 10237 O 450.067 -1.97652 -7.47304 0
M  V30 10238 C 451.007 -3.01133 -7.08783 0
M  V30 10239 C 450.277 -4.12613 -6.37049 0
M  V30 10240 O 450.067 -3.72827 -4.97879 0
M  V30 10241 C 448.877 -4.45085 -6.88694 0
M  V30 10242 O 448.487 -5.7877 -6.5624 0
M  V30 10243 C 447.997 -3.47817 -6.12078 0
M  V30 10244 C 448.707 -3.39414 -4.77697 0
M  V30 10245 N 448.657 -2.04199 -4.15538 0
M  V30 10246 C 448.737 -0.821545 -4.76977 0
M  V30 10247 N 448.667 0.1794 -3.94592 0
M  V30 10248 C 448.517 -0.419121 -2.70776 0
M  V30 10249 C 448.387 0.109072 -1.40577 0
M  V30 10250 N 448.377 1.4104 -1.1344 0
M  V30 10251 N 448.267 -0.764381 -0.39411 0
M  V30 10252 C 448.277 -2.06587 -0.664135 0
M  V30 10253 N 448.397 -2.67948 -1.82153 0
M  V30 10254 C 448.517 -1.77942 -2.8147 0
M  V30 10255 H 451.496 -3.41248 -7.98759 0
M  V30 10256 H 451.768 -2.57728 -6.42 0
M  V30 10257 H 450.9 -5.02657 -6.42673 0
M  V30 10258 H 448.245 -4.11708 -4.08956 0
M  V30 10259 H 447.965 -2.49626 -6.61679 0
M  V30 10260 H 446.974 -3.8662 -6.00862 0
M  V30 10261 H 448.808 -4.29991 -7.97006 0
M  V30 10262 H 448.849 -0.702451 -5.84696 0
M  V30 10263 H 448.468 2.09647 -1.89651 0
M  V30 10264 H 448.279 1.73358 -0.160575 0
M  V30 10265 H 448.171 -2.71695 0.195838 0
M  V30 10266 P 446.937 -6.144 -6.45285 0
M  V30 10267 O 446.717 -7.54673 -6.86199 0
M  V30 10268 O 446.147 -5.12391 -7.179 0
M  V30 10269 O 446.687 -5.99158 -4.88404 0
M  V30 10270 C 447.627 -6.60234 -3.96415 0
M  V30 10271 C 446.897 -7.08259 -2.72856 0
M  V30 10272 O 446.687 -5.9427 -1.83651 0
M  V30 10273 C 445.497 -7.64886 -2.9555 0
M  V30 10274 O 445.107 -8.53963 -1.90717 0
M  V30 10275 C 444.617 -6.4116 -2.90739 0
M  V30 10276 C 445.327 -5.55375 -1.86963 0
M  V30 10277 N 445.277 -4.09448 -2.16152 0
M  V30 10278 H 448.116 -7.45574 -4.45629 0
M  V30 10279 H 448.388 -5.85864 -3.679 0
M  V30 10280 H 447.52 -7.84412 -2.24479 0
M  V30 10281 H 444.865 -5.73457 -0.888562 0
M  V30 10282 H 444.585 -5.90877 -3.88583 0
M  V30 10283 H 443.594 -6.6596 -2.58858 0
M  V30 10284 H 445.428 -8.16339 -3.92049 0
M  V30 10285 P 443.557 -8.7635 -1.60911 0
M  V30 10286 O 443.337 -10.1388 -1.11561 0
M  V30 10287 O 442.767 -8.36503 -2.79617 0
M  V30 10288 O 443.307 -7.71806 -0.42951 0
M  V30 10289 C 444.247 -7.67148 0.673689 0
M  V30 10290 C 443.517 -7.33374 1.95559 0
M  V30 10291 O 443.307 -5.88721 2.00726 0
M  V30 10292 C 442.117 -7.92526 2.10483 0
M  V30 10293 O 441.727 -8.02971 3.47653 0
M  V30 10294 C 441.237 -6.89602 1.41652 0
M  V30 10295 C 441.947 -5.59201 1.75185 0
M  V30 10296 N 441.897 -4.58235 0.662552 0
M  V30 10297 H 444.736 -8.65116 0.777161 0
M  V30 10298 H 445.008 -6.90173 0.474152 0
M  V30 10299 H 444.14 -7.66548 2.79458 0
M  V30 10300 P 440.177 -8.03563 3.84925 0
M  V30 10301 O 439.957 -8.85821 5.0569 0
M  V30 10302 O 439.387 -8.41101 2.65469 0
M  V30 10303 O 439.927 -6.4965 4.18908 0
M  V30 10304 C 440.867 -5.81037 5.05421 0
M  V30 10305 C 440.137 -4.78366 5.89277 0
M  V30 10306 O 439.927 -3.58302 5.08433 0
M  V30 10307 C 438.737 -5.17448 6.36119 0
M  V30 10308 O 438.347 -4.45271 7.53232 0
M  V30 10309 C 437.857 -4.74639 5.19936 0
M  V30 10310 C 438.567 -3.49432 4.70418 0
M  V30 10311 N 438.517 -3.31776 3.22945 0
M  V30 10312 C 438.597 -4.27147 2.23315 0
M  V30 10313 N 438.517 -3.78447 1.02186 0
M  V30 10314 C 438.377 -2.41001 1.21732 0
M  V30 10315 C 438.247 -1.36111 0.27694 0
M  V30 10316 O 438.227 -1.42065 -0.951767 0
M  V30 10317 N 438.127 -0.113683 0.912949 0
M  V30 10318 C 438.127 0.0846396 2.27943 0
M  V30 10319 N 437.997 1.34737 2.6916 0
M  V30 10320 N 438.257 -0.902521 3.16379 0
M  V30 10321 C 438.377 -2.11937 2.56849 0
M  V30 10322 H 441.356 -6.54213 5.71376 0
M  V30 10323 H 441.628 -5.30492 4.44033 0
M  V30 10324 H 440.76 -4.55889 6.76652 0
M  V30 10325 H 438.105 -2.6176 5.18021 0
M  V30 10326 H 437.825 -5.52233 4.41941 0
M  V30 10327 H 436.834 -4.52045 5.53452 0
M  V30 10328 H 438.668 -6.25193 6.55307 0
M  V30 10329 H 438.717 -5.3351 2.43857 0
M  V30 10330 H 438.035 0.69331 0.330371 0
M  V30 10331 H 437.998 1.56433 3.6988 0
M  V30 10332 H 437.897 2.10701 2.00133 0
M  V30 10333 P 436.797 -4.23843 7.83734 0
M  V30 10334 O 436.577 -4.19407 9.29784 0
M  V30 10335 O 436.007 -5.24426 7.09156 0
M  V30 10336 O 436.547 -2.7935 7.20758 0
M  V30 10337 C 437.487 -1.7299 7.50419 0
M  V30 10338 C 436.757 -0.406376 7.57911 0
M  V30 10339 O 436.547 0.0897726 6.21935 0
M  V30 10340 C 435.357 -0.447224 8.1878 0
M  V30 10341 O 434.967 0.825065 8.71101 0
M  V30 10342 C 434.477 -0.783801 6.99623 0
M  V30 10343 C 435.187 -0.0619192 5.85967 0
M  V30 10344 N 435.137 -0.7859 4.56281 0
M  V30 10345 C 435.217 -2.14308 4.31736 0
M  V30 10346 N 435.137 -2.46106 3.05116 0
M  V30 10347 C 434.997 -1.23422 2.4014 0
M  V30 10348 C 434.867 -0.938381 1.02409 0
M  V30 10349 N 434.747 0.444647 0.805413 0
M  V30 10350 C 434.747 1.40829 1.79435 0
M  V30 10351 N 434.617 2.67213 1.38558 0
M  V30 10352 N 434.877 1.12947 3.09005 0
M  V30 10353 C 434.997 -0.204887 3.32369 0
M  V30 10354 H 437.976 -1.93423 8.4679 0
M  V30 10355 H 438.248 -1.68181 6.71046 0
M  V30 10356 H 437.38 0.289041 8.15388 0
M  V30 10357 P 433.417 1.17771 8.83182 0
M  V30 10358 O 433.197 2.07206 9.98732 0
M  V30 10359 O 432.627 -0.0743816 8.81969 0
M  V30 10360 O 433.167 1.97652 7.47304 0
M  V30 10361 C 434.107 3.01133 7.08783 0
M  V30 10362 C 433.377 4.12613 6.37049 0
M  V30 10363 O 433.167 3.72827 4.97879 0
M  V30 10364 C 431.977 4.45085 6.88694 0
M  V30 10365 O 431.587 5.7877 6.5624 0
M  V30 10366 C 431.097 3.47817 6.12078 0
M  V30 10367 C 431.807 3.39414 4.77697 0
M  V30 10368 N 431.757 2.04615 4.15333 0
M  V30 10369 C 431.837 0.803897 4.75249 0
M  V30 10370 N 431.757 -0.197615 3.91502 0
M  V30 10371 C 431.617 0.413002 2.66823 0
M  V30 10372 C 431.487 -0.157221 1.38007 0
M  V30 10373 O 431.467 -1.34419 1.057 0
M  V30 10374 N 431.367 0.833136 0.390236 0
M  V30 10375 C 431.367 2.19402 0.623885 0
M  V30 10376 N 431.237 2.97622 -0.449677 0
M  V30 10377 N 431.497 2.73005 1.83601 0
M  V30 10378 C 431.617 1.78786 2.80935 0
M  V30 10379 H 434.596 3.41248 7.98759 0
M  V30 10380 H 434.868 2.5837 6.41742 0
M  V30 10381 H 434 5.02657 6.42673 0
M  V30 10382 H 431.345 4.11779 4.09026 0
M  V30 10383 H 431.065 2.49661 6.61772 0
M  V30 10384 H 430.074 3.86674 6.00946 0
M  V30 10385 H 431.908 4.30038 7.97094 0
M  V30 10386 H 431.957 0.670579 5.82754 0
M  V30 10387 H 431.275 0.528446 -0.557287 0
M  V30 10388 H 431.238 4.00117 -0.344773 0
M  V30 10389 H 431.137 2.55448 -1.38544 0
M  V30 10390 P 430.037 6.144 6.45285 0
M  V30 10391 O 429.817 7.54673 6.86199 0
M  V30 10392 O 429.247 5.12391 7.179 0
M  V30 10393 O 429.787 5.99158 4.88404 0
M  V30 10394 C 430.727 6.60234 3.96415 0
M  V30 10395 C 429.997 7.08259 2.72856 0
M  V30 10396 O 429.787 5.9427 1.83651 0
M  V30 10397 C 428.597 7.64886 2.9555 0
M  V30 10398 O 428.207 8.53963 1.90717 0
M  V30 10399 C 427.717 6.4116 2.90739 0
M  V30 10400 C 428.427 5.55375 1.86963 0
M  V30 10401 N 428.377 4.09664 2.15742 0
M  V30 10402 H 431.216 7.45574 4.45629 0
M  V30 10403 H 431.488 5.86232 3.67314 0
M  V30 10404 H 430.62 7.84412 2.24479 0
M  V30 10405 P 426.657 8.7635 1.60911 0
M  V30 10406 O 426.437 10.1388 1.11561 0
M  V30 10407 O 425.867 8.36503 2.79617 0
M  V30 10408 O 426.407 7.71806 0.42951 0
M  V30 10409 C 427.347 7.67148 -0.673689 0
M  V30 10410 C 426.617 7.33374 -1.95559 0
M  V30 10411 O 426.407 5.88721 -2.00726 0
M  V30 10412 C 425.217 7.92526 -2.10483 0
M  V30 10413 O 424.827 8.02971 -3.47653 0
M  V30 10414 C 424.337 6.89602 -1.41652 0
M  V30 10415 C 425.047 5.59201 -1.75185 0
M  V30 10416 N 424.997 4.58235 -0.662552 0
M  V30 10417 H 427.836 8.65116 -0.777161 0
M  V30 10418 H 428.108 6.90173 -0.474152 0
M  V30 10419 H 427.24 7.66548 -2.79458 0
M  V30 10420 P 423.278 8.03563 -3.84925 0
M  V30 10421 O 423.058 8.85821 -5.0569 0
M  V30 10422 O 422.488 8.41101 -2.65469 0
M  V30 10423 O 423.028 6.4965 -4.18908 0
M  V30 10424 C 423.968 5.81037 -5.05421 0
M  V30 10425 C 423.238 4.78366 -5.89277 0
M  V30 10426 O 423.028 3.58302 -5.08433 0
M  V30 10427 C 421.838 5.17448 -6.36119 0
M  V30 10428 O 421.448 4.45271 -7.53232 0
M  V30 10429 C 420.958 4.74639 -5.19936 0
M  V30 10430 C 421.668 3.49432 -4.70418 0
M  V30 10431 N 421.618 3.31776 -3.22945 0
M  V30 10432 H 424.457 6.54213 -5.71376 0
M  V30 10433 H 424.729 5.30492 -4.44033 0
M  V30 10434 H 423.861 4.55889 -6.76652 0
M  V30 10435 P 419.898 4.23843 -7.83734 0
M  V30 10436 O 419.678 4.19407 -9.29784 0
M  V30 10437 O 419.108 5.24426 -7.09156 0
M  V30 10438 O 419.648 2.7935 -7.20758 0
M  V30 10439 C 420.588 1.72945 -7.50224 0
M  V30 10440 C 419.858 0.406376 -7.57911 0
M  V30 10441 O 419.648 -0.0897726 -6.21935 0
M  V30 10442 C 418.458 0.438983 -8.18724 0
M  V30 10443 O 418.068 -0.825065 -8.71101 0
M  V30 10444 C 417.578 0.783689 -6.99524 0
M  V30 10445 C 418.288 0.0619086 -5.85867 0
M  V30 10446 N 418.238 0.78573 -4.56183 0
M  V30 10447 C 418.088 0.0292889 -3.41887 0
M  V30 10448 O 417.998 -1.18445 -3.4419 0
M  V30 10449 N 418.048 0.744061 -2.23964 0
M  V30 10450 C 418.138 2.10932 -2.10362 0
M  V30 10451 C 418.288 2.8202 -3.34994 0
M  V30 10452 C 418.338 2.15547 -4.52261 0
M  V30 10453 H 421.079 1.93379 -8.46595 0
M  V30 10454 H 421.348 1.68132 -6.70852 0
M  V30 10455 H 420.481 -0.289041 -8.15388 0
M  V30 10456 H 417.826 -0.926847 -5.72749 0
M  V30 10457 H 417.547 1.86973 -6.82036 0
M  V30 10458 H 416.555 0.403896 -7.13257 0
M  V30 10459 H 418.389 1.20585 -8.97435 0
M  V30 10460 H 418.46 2.71231 -5.45042 0
M  V30 10461 P 416.518 -1.17771 -8.83182 0
M  V30 10462 O 416.298 -2.07206 -9.98732 0
M  V30 10463 O 415.728 0.0743816 -8.81969 0
M  V30 10464 O 416.268 -1.97652 -7.47304 0
M  V30 10465 C 417.208 -3.01133 -7.08783 0
M  V30 10466 C 416.478 -4.12613 -6.37049 0
M  V30 10467 O 416.268 -3.72827 -4.97879 0
M  V30 10468 C 415.078 -4.45085 -6.88694 0
M  V30 10469 O 414.688 -5.7877 -6.5624 0
M  V30 10470 C 414.198 -3.47817 -6.12078 0
M  V30 10471 C 414.908 -3.39414 -4.77697 0
M  V30 10472 N 414.858 -2.04615 -4.15333 0
M  V30 10473 H 417.697 -3.41248 -7.98759 0
M  V30 10474 H 417.969 -2.5837 -6.41742 0
M  V30 10475 H 417.101 -5.02657 -6.42673 0
M  V30 10476 P 413.138 -6.144 -6.45285 0
M  V30 10477 O 412.918 -7.54673 -6.86199 0
M  V30 10478 O 412.348 -5.12391 -7.179 0
M  V30 10479 O 412.888 -5.99158 -4.88404 0
M  V30 10480 C 413.828 -6.60234 -3.96415 0
M  V30 10481 C 413.098 -7.08259 -2.72856 0
M  V30 10482 O 412.888 -5.9427 -1.83651 0
M  V30 10483 C 411.698 -7.64886 -2.9555 0
M  V30 10484 O 411.308 -8.53963 -1.90717 0
M  V30 10485 C 410.818 -6.4116 -2.90739 0
M  V30 10486 C 411.528 -5.55375 -1.86963 0
M  V30 10487 N 411.478 -4.09664 -2.15742 0
M  V30 10488 H 414.317 -7.45574 -4.45629 0
M  V30 10489 H 414.589 -5.86232 -3.67314 0
M  V30 10490 H 413.721 -7.84412 -2.24479 0
M  V30 10491 P 409.758 -8.7635 -1.60911 0
M  V30 10492 O 409.538 -10.1388 -1.11561 0
M  V30 10493 O 408.968 -8.36503 -2.79617 0
M  V30 10494 O 409.508 -7.71806 -0.42951 0
M  V30 10495 C 410.448 -7.67148 0.673689 0
M  V30 10496 C 409.718 -7.33374 1.95559 0
M  V30 10497 O 409.508 -5.88721 2.00726 0
M  V30 10498 C 408.318 -7.92526 2.10483 0
M  V30 10499 O 407.928 -8.02971 3.47653 0
M  V30 10500 C 407.438 -6.89602 1.41652 0
M  V30 10501 C 408.148 -5.59201 1.75185 0
M  V30 10502 N 408.098 -4.58235 0.662552 0
M  V30 10503 H 410.937 -8.65116 0.777161 0
M  V30 10504 H 411.209 -6.90173 0.474152 0
M  V30 10505 H 410.341 -7.66548 2.79458 0
M  V30 10506 P 406.378 -8.03563 3.84925 0
M  V30 10507 O 406.158 -8.85821 5.0569 0
M  V30 10508 O 405.588 -8.41101 2.65469 0
M  V30 10509 O 406.128 -6.4965 4.18908 0
M  V30 10510 C 407.068 -5.80886 5.05289 0
M  V30 10511 C 406.338 -4.78366 5.89277 0
M  V30 10512 O 406.128 -3.58302 5.08433 0
M  V30 10513 C 404.938 -5.16748 6.36559 0
M  V30 10514 O 404.548 -4.45271 7.53232 0
M  V30 10515 C 404.058 -4.74572 5.19863 0
M  V30 10516 C 404.768 -3.49373 4.70338 0
M  V30 10517 N 404.718 -3.31704 3.22876 0
M  V30 10518 C 404.568 -2.03326 2.74871 0
M  V30 10519 O 404.478 -1.06486 3.48076 0
M  V30 10520 N 404.528 -1.91838 1.37456 0
M  V30 10521 C 404.618 -2.94295 0.462035 0
M  V30 10522 O 404.568 -2.71763 -0.752928 0
M  V30 10523 C 404.768 -4.25064 1.05249 0
M  V30 10524 C 404.878 -5.39815 0.095697 0
M  V30 10525 C 404.818 -4.40214 2.39192 0
M  V30 10526 H 407.559 -6.54063 5.71245 0
M  V30 10527 H 407.828 -5.30339 4.43905 0
M  V30 10528 H 406.961 -4.55889 6.76652 0
M  V30 10529 H 404.306 -2.6167 5.17842 0
M  V30 10530 H 404.027 -5.52155 4.41878 0
M  V30 10531 H 403.035 -4.51918 5.53297 0
M  V30 10532 H 404.869 -6.25055 6.55162 0
M  V30 10533 H 404.94 -5.39798 2.81523 0
M  V30 10534 H 403.91 -5.91593 0.0279582 0
M  V30 10535 H 405.647 -6.10038 0.450573 0
M  V30 10536 H 405.159 -5.02007 -0.89937 0
M  V30 10537 H 404.423 -0.995326 1.00435 0
M  V30 10538 P 402.998 -4.23843 7.83734 0
M  V30 10539 O 402.778 -4.19407 9.29784 0
M  V30 10540 O 402.208 -5.24426 7.09156 0
M  V30 10541 O 402.748 -2.7935 7.20758 0
M  V30 10542 C 403.688 -1.7299 7.50419 0
M  V30 10543 C 402.958 -0.406376 7.57911 0
M  V30 10544 O 402.748 0.0897726 6.21935 0
M  V30 10545 C 401.558 -0.447224 8.1878 0
M  V30 10546 O 401.168 0.825065 8.71101 0
M  V30 10547 C 400.678 -0.783801 6.99623 0
M  V30 10548 C 401.388 -0.0619192 5.85967 0
M  V30 10549 N 401.338 -0.7859 4.56281 0
M  V30 10550 H 404.177 -1.93423 8.4679 0
M  V30 10551 H 404.449 -1.68181 6.71046 0
M  V30 10552 H 403.581 0.289041 8.15388 0
M  V30 10553 P 399.618 1.17771 8.83182 0
M  V30 10554 O 399.398 2.07206 9.98732 0
M  V30 10555 O 398.828 -0.0743816 8.81969 0
M  V30 10556 O 399.368 1.97652 7.47304 0
M  V30 10557 C 400.308 3.01133 7.08783 0
M  V30 10558 C 399.578 4.12613 6.37049 0
M  V30 10559 O 399.368 3.72827 4.97879 0
M  V30 10560 C 398.178 4.45085 6.88694 0
M  V30 10561 O 397.788 5.7877 6.5624 0
M  V30 10562 C 397.298 3.47817 6.12078 0
M  V30 10563 C 398.008 3.39414 4.77697 0
M  V30 10564 N 397.958 2.04615 4.15333 0
M  V30 10565 H 400.797 3.41248 7.98759 0
M  V30 10566 H 401.069 2.5837 6.41742 0
M  V30 10567 H 400.201 5.02657 6.42673 0
M  V30 10568 P 396.238 6.144 6.45285 0
M  V30 10569 O 396.018 7.54673 6.86199 0
M  V30 10570 O 395.448 5.12391 7.179 0
M  V30 10571 O 395.988 5.99158 4.88404 0
M  V30 10572 C 396.928 6.60234 3.96415 0
M  V30 10573 C 396.198 7.08259 2.72856 0
M  V30 10574 O 395.988 5.9427 1.83651 0
M  V30 10575 C 394.798 7.64886 2.9555 0
M  V30 10576 O 394.408 8.53963 1.90717 0
M  V30 10577 C 393.918 6.4116 2.90739 0
M  V30 10578 C 394.628 5.55375 1.86963 0
M  V30 10579 N 394.578 4.09664 2.15742 0
M  V30 10580 H 397.417 7.45574 4.45629 0
M  V30 10581 H 397.689 5.86232 3.67314 0
M  V30 10582 H 396.821 7.84412 2.24479 0
M  V30 10583 P 392.858 8.7635 1.60911 0
M  V30 10584 O 392.638 10.1388 1.11561 0
M  V30 10585 O 392.068 8.36503 2.79617 0
M  V30 10586 O 392.608 7.71806 0.42951 0
M  V30 10587 C 393.548 7.67148 -0.673689 0
M  V30 10588 C 392.818 7.33374 -1.95559 0
M  V30 10589 O 392.608 5.88721 -2.00726 0
M  V30 10590 C 391.418 7.92526 -2.10483 0
M  V30 10591 O 391.028 8.02971 -3.47653 0
M  V30 10592 C 390.538 6.89602 -1.41652 0
M  V30 10593 C 391.248 5.59201 -1.75185 0
M  V30 10594 N 391.198 4.58235 -0.662552 0
M  V30 10595 H 394.037 8.65116 -0.777161 0
M  V30 10596 H 394.309 6.90173 -0.474152 0
M  V30 10597 H 393.441 7.66548 -2.79458 0
M  V30 10598 P 389.478 8.03563 -3.84925 0
M  V30 10599 O 389.258 8.85821 -5.0569 0
M  V30 10600 O 388.688 8.41101 -2.65469 0
M  V30 10601 O 389.228 6.4965 -4.18908 0
M  V30 10602 C 390.168 5.81037 -5.05421 0
M  V30 10603 C 389.438 4.78366 -5.89277 0
M  V30 10604 O 389.228 3.58302 -5.08433 0
M  V30 10605 C 388.038 5.17448 -6.36119 0
M  V30 10606 O 387.648 4.45271 -7.53232 0
M  V30 10607 C 387.158 4.74639 -5.19936 0
M  V30 10608 C 387.868 3.49432 -4.70418 0
M  V30 10609 N 387.818 3.32099 -3.22613 0
M  V30 10610 H 390.657 6.54213 -5.71376 0
M  V30 10611 H 390.929 5.30936 -4.43503 0
M  V30 10612 H 390.061 4.55889 -6.76652 0
M  V30 10613 H 387.406 2.61715 -5.17932 0
M  V30 10614 H 387.126 5.52155 -4.41878 0
M  V30 10615 H 386.135 4.51981 -5.53374 0
M  V30 10616 H 387.969 6.25124 -6.55234 0
M  V30 10617 P 386.098 4.23843 -7.83734 0
M  V30 10618 O 385.878 4.19407 -9.29784 0
M  V30 10619 O 385.308 5.24426 -7.09156 0
M  V30 10620 O 385.848 2.7935 -7.20758 0
M  V30 10621 C 386.788 1.7299 -7.50419 0
M  V30 10622 C 386.058 0.406376 -7.57911 0
M  V30 10623 O 385.848 -0.0897726 -6.21935 0
M  V30 10624 C 384.658 0.447224 -8.1878 0
M  V30 10625 O 384.268 -0.825065 -8.71101 0
M  V30 10626 C 383.778 0.783801 -6.99623 0
M  V30 10627 C 384.488 0.0619192 -5.85967 0
M  V30 10628 N 384.438 0.7859 -4.56281 0
M  V30 10629 H 387.277 1.93423 -8.4679 0
M  V30 10630 H 387.549 1.68181 -6.71046 0
M  V30 10631 H 386.681 -0.289041 -8.15388 0
M  V30 10632 P 382.718 -1.17771 -8.83182 0
M  V30 10633 O 382.498 -2.07206 -9.98732 0
M  V30 10634 O 381.928 0.0743816 -8.81969 0
M  V30 10635 O 382.468 -1.97652 -7.47304 0
M  V30 10636 C 383.408 -3.01133 -7.08783 0
M  V30 10637 C 382.678 -4.12613 -6.37049 0
M  V30 10638 O 382.468 -3.72827 -4.97879 0
M  V30 10639 C 381.278 -4.45085 -6.88694 0
M  V30 10640 O 380.888 -5.7877 -6.5624 0
M  V30 10641 C 380.398 -3.47817 -6.12078 0
M  V30 10642 C 381.108 -3.39414 -4.77697 0
M  V30 10643 N 381.058 -2.04615 -4.15333 0
M  V30 10644 H 383.897 -3.41248 -7.98759 0
M  V30 10645 H 384.169 -2.5837 -6.41742 0
M  V30 10646 H 383.301 -5.02657 -6.42673 0
M  V30 10647 P 379.338 -6.144 -6.45285 0
M  V30 10648 O 379.118 -7.54673 -6.86199 0
M  V30 10649 O 378.548 -5.12391 -7.179 0
M  V30 10650 O 379.088 -5.99158 -4.88404 0
M  V30 10651 C 380.028 -6.60234 -3.96415 0
M  V30 10652 C 379.298 -7.08259 -2.72856 0
M  V30 10653 O 379.088 -5.9427 -1.83651 0
M  V30 10654 C 377.898 -7.64886 -2.9555 0
M  V30 10655 O 377.508 -8.53963 -1.90717 0
M  V30 10656 C 377.018 -6.4116 -2.90739 0
M  V30 10657 C 377.728 -5.55375 -1.86963 0
M  V30 10658 N 377.678 -4.09664 -2.15742 0
M  V30 10659 H 380.517 -7.45574 -4.45629 0
M  V30 10660 H 380.789 -5.86232 -3.67314 0
M  V30 10661 H 379.921 -7.84412 -2.24479 0
M  V30 10662 P 375.958 -8.7635 -1.60911 0
M  V30 10663 O 375.738 -10.1388 -1.11561 0
M  V30 10664 O 375.168 -8.36503 -2.79617 0
M  V30 10665 O 375.708 -7.71806 -0.42951 0
M  V30 10666 C 376.648 -7.67148 0.673689 0
M  V30 10667 C 375.918 -7.33374 1.95559 0
M  V30 10668 O 375.708 -5.88721 2.00726 0
M  V30 10669 C 374.518 -7.92526 2.10483 0
M  V30 10670 O 374.128 -8.02971 3.47653 0
M  V30 10671 C 373.638 -6.89602 1.41652 0
M  V30 10672 C 374.348 -5.59201 1.75185 0
M  V30 10673 N 374.298 -4.58235 0.662552 0
M  V30 10674 H 377.137 -8.65116 0.777161 0
M  V30 10675 H 377.409 -6.90173 0.474152 0
M  V30 10676 H 376.541 -7.66548 2.79458 0
M  V30 10677 P 372.578 -8.03563 3.84925 0
M  V30 10678 O 372.358 -8.85821 5.0569 0
M  V30 10679 O 371.788 -8.41101 2.65469 0
M  V30 10680 O 372.328 -6.4965 4.18908 0
M  V30 10681 C 373.268 -5.81037 5.05421 0
M  V30 10682 C 372.538 -4.78366 5.89277 0
M  V30 10683 O 372.328 -3.58302 5.08433 0
M  V30 10684 C 371.138 -5.17448 6.36119 0
M  V30 10685 O 370.748 -4.45271 7.53232 0
M  V30 10686 C 370.258 -4.74639 5.19936 0
M  V30 10687 C 370.968 -3.49432 4.70418 0
M  V30 10688 N 370.918 -3.32099 3.22613 0
M  V30 10689 H 373.757 -6.54213 5.71376 0
M  V30 10690 H 374.029 -5.30936 4.43503 0
M  V30 10691 H 373.161 -4.55889 6.76652 0
M  V30 10692 H 370.506 -2.61715 5.17932 0
M  V30 10693 H 370.226 -5.52155 4.41878 0
M  V30 10694 H 369.235 -4.51981 5.53374 0
M  V30 10695 H 371.069 -6.25124 6.55234 0
M  V30 10696 P 369.198 -4.23843 7.83734 0
M  V30 10697 O 368.978 -4.19407 9.29784 0
M  V30 10698 O 368.408 -5.24426 7.09156 0
M  V30 10699 O 368.948 -2.79386 7.20852 0
M  V30 10700 C 369.888 -1.7299 7.50419 0
M  V30 10701 C 369.158 -0.41401 7.5797 0
M  V30 10702 O 368.948 0.089787 6.22035 0
M  V30 10703 C 367.758 -0.447224 8.1878 0
M  V30 10704 O 367.368 0.825159 8.71201 0
M  V30 10705 C 366.878 -0.783801 6.99623 0
M  V30 10706 C 367.588 -0.0619192 5.85967 0
M  V30 10707 N 367.538 -0.7859 4.56281 0
M  V30 10708 C 367.388 -0.0359258 3.39981 0
M  V30 10709 O 367.298 1.19723 3.49038 0
M  V30 10710 N 367.338 -0.869151 2.14025 0
M  V30 10711 C 367.438 -2.01207 2.14363 0
M  V30 10712 N 367.388 -2.58978 0.954287 0
M  V30 10713 C 367.588 -2.80817 3.32215 0
M  V30 10714 C 367.638 -2.13785 4.50884 0
M  V30 10715 H 370.378 -1.93401 8.46693 0
M  V30 10716 H 370.648 -1.68181 6.71046 0
M  V30 10717 H 369.781 0.289076 8.15488 0
M  V30 10718 H 367.126 0.927166 5.72947 0
M  V30 10719 H 366.846 -1.87 6.82132 0
M  V30 10720 H 365.855 -0.404009 7.13457 0
M  V30 10721 H 367.689 -1.20599 8.97534 0
M  V30 10722 H 367.761 -2.70295 5.43162 0
M  V30 10723 H 367.659 -3.89465 3.27406 0
M  V30 10724 H 367.271 -2.01616 0.107046 0
M  V30 10725 H 367.467 -3.61403 0.873101 0
M  V30 10726 P 365.818 1.17771 8.83182 0
M  V30 10727 O 365.598 2.07206 9.98732 0
M  V30 10728 O 365.028 -0.0743816 8.81969 0
M  V30 10729 O 365.568 1.97652 7.47304 0
M  V30 10730 C 366.508 3.01133 7.08783 0
M  V30 10731 C 365.778 4.12613 6.37049 0
M  V30 10732 O 365.568 3.72827 4.97879 0
M  V30 10733 C 364.378 4.45085 6.88694 0
M  V30 10734 O 363.988 5.7877 6.5624 0
M  V30 10735 C 363.498 3.47817 6.12078 0
M  V30 10736 C 364.208 3.39414 4.77697 0
M  V30 10737 N 364.158 2.04615 4.15333 0
M  V30 10738 H 366.997 3.41248 7.98759 0
M  V30 10739 H 367.269 2.5837 6.41742 0
M  V30 10740 H 366.401 5.02657 6.42673 0
M  V30 10741 P 362.438 6.144 6.45285 0
M  V30 10742 O 362.218 7.54673 6.86199 0
M  V30 10743 O 361.648 5.12391 7.179 0
M  V30 10744 O 362.188 5.99158 4.88404 0
M  V30 10745 C 363.128 6.60062 3.96313 0
M  V30 10746 C 362.398 7.08259 2.72856 0
M  V30 10747 O 362.188 5.9427 1.83651 0
M  V30 10748 C 360.998 7.65087 2.94749 0
M  V30 10749 O 360.608 8.53963 1.90717 0
M  V30 10750 C 360.118 6.41069 2.90698 0
M  V30 10751 C 360.828 5.5528 1.86931 0
M  V30 10752 N 360.778 4.09575 2.15696 0
M  V30 10753 C 360.628 3.24249 1.08435 0
M  V30 10754 O 360.538 3.63946 -0.0628747 0
M  V30 10755 N 360.588 1.90009 1.39973 0
M  V30 10756 C 360.678 1.34884 2.65614 0
M  V30 10757 C 360.828 2.3145 3.71736 0
M  V30 10758 C 360.878 3.63518 3.44754 0
M  V30 10759 H 363.619 7.45402 4.45526 0
M  V30 10760 H 363.888 5.86062 3.67208 0
M  V30 10761 H 363.021 7.84412 2.24479 0
M  V30 10762 H 360.366 5.73358 0.888409 0
M  V30 10763 H 360.087 5.90877 3.88583 0
M  V30 10764 H 359.095 6.65867 2.58821 0
M  V30 10765 H 360.929 8.16248 3.92006 0
M  V30 10766 H 361 4.34551 4.26383 0
M  V30 10767 P 359.058 8.7635 1.60911 0
M  V30 10768 O 358.838 10.1388 1.11561 0
M  V30 10769 O 358.268 8.36503 2.79617 0
M  V30 10770 O 358.808 7.71806 0.42951 0
M  V30 10771 C 359.748 7.67148 -0.673689 0
M  V30 10772 C 359.018 7.33374 -1.95559 0
M  V30 10773 O 358.808 5.88721 -2.00726 0
M  V30 10774 C 357.618 7.92526 -2.10483 0
M  V30 10775 O 357.228 8.02971 -3.47653 0
M  V30 10776 C 356.738 6.89602 -1.41652 0
M  V30 10777 C 357.448 5.59201 -1.75185 0
M  V30 10778 N 357.398 4.58235 -0.662552 0
M  V30 10779 H 360.237 8.65116 -0.777161 0
M  V30 10780 H 360.509 6.90173 -0.474152 0
M  V30 10781 H 359.641 7.66548 -2.79458 0
M  V30 10782 P 355.678 8.03563 -3.84925 0
M  V30 10783 O 355.458 8.85821 -5.0569 0
M  V30 10784 O 354.888 8.41101 -2.65469 0
M  V30 10785 O 355.428 6.4965 -4.18908 0
M  V30 10786 C 356.368 5.81037 -5.05421 0
M  V30 10787 C 355.638 4.78366 -5.89277 0
M  V30 10788 O 355.428 3.58302 -5.08433 0
M  V30 10789 C 354.238 5.17448 -6.36119 0
M  V30 10790 O 353.848 4.45271 -7.53232 0
M  V30 10791 C 353.358 4.74639 -5.19936 0
M  V30 10792 C 354.068 3.49432 -4.70418 0
M  V30 10793 N 354.018 3.32099 -3.22613 0
M  V30 10794 H 356.857 6.54213 -5.71376 0
M  V30 10795 H 357.129 5.30936 -4.43503 0
M  V30 10796 H 356.261 4.55889 -6.76652 0
M  V30 10797 H 353.606 2.61715 -5.17932 0
M  V30 10798 H 353.326 5.52155 -4.41878 0
M  V30 10799 H 352.335 4.51981 -5.53374 0
M  V30 10800 H 354.169 6.25124 -6.55234 0
M  V30 10801 P 352.298 4.23843 -7.83734 0
M  V30 10802 O 352.078 4.19407 -9.29784 0
M  V30 10803 O 351.508 5.24426 -7.09156 0
M  V30 10804 O 352.048 2.7935 -7.20758 0
M  V30 10805 C 352.988 1.7299 -7.50419 0
M  V30 10806 C 352.258 0.406376 -7.57911 0
M  V30 10807 O 352.048 -0.0897726 -6.21935 0
M  V30 10808 C 350.858 0.447224 -8.1878 0
M  V30 10809 O 350.468 -0.825065 -8.71101 0
M  V30 10810 C 349.978 0.783801 -6.99623 0
M  V30 10811 C 350.688 0.0619192 -5.85967 0
M  V30 10812 N 350.638 0.7859 -4.56281 0
M  V30 10813 H 353.477 1.93423 -8.4679 0
M  V30 10814 H 353.749 1.68181 -6.71046 0
M  V30 10815 H 352.881 -0.289041 -8.15388 0
M  V30 10816 P 348.918 -1.17771 -8.83182 0
M  V30 10817 O 348.698 -2.07206 -9.98732 0
M  V30 10818 O 348.128 0.0743816 -8.81969 0
M  V30 10819 O 348.668 -1.97652 -7.47304 0
M  V30 10820 C 349.608 -3.01133 -7.08783 0
M  V30 10821 C 348.878 -4.12613 -6.37049 0
M  V30 10822 O 348.668 -3.72827 -4.97879 0
M  V30 10823 C 347.478 -4.45085 -6.88694 0
M  V30 10824 O 347.088 -5.7877 -6.5624 0
M  V30 10825 C 346.598 -3.47817 -6.12078 0
M  V30 10826 C 347.308 -3.39414 -4.77697 0
M  V30 10827 N 347.258 -2.04199 -4.15538 0
M  V30 10828 H 350.097 -3.41248 -7.98759 0
M  V30 10829 H 350.369 -2.57728 -6.42 0
M  V30 10830 H 349.501 -5.02657 -6.42673 0
M  V30 10831 H 346.846 -4.11708 -4.08956 0
M  V30 10832 H 346.566 -2.49626 -6.61679 0
M  V30 10833 H 345.575 -3.8662 -6.00862 0
M  V30 10834 H 347.409 -4.29991 -7.97006 0
M  V30 10835 P 345.538 -6.144 -6.45285 0
M  V30 10836 O 345.318 -7.54673 -6.86199 0
M  V30 10837 O 344.748 -5.12391 -7.179 0
M  V30 10838 O 345.288 -5.99158 -4.88404 0
M  V30 10839 C 346.228 -6.60234 -3.96415 0
M  V30 10840 C 345.498 -7.08259 -2.72856 0
M  V30 10841 O 345.288 -5.9427 -1.83651 0
M  V30 10842 C 344.098 -7.64886 -2.9555 0
M  V30 10843 O 343.708 -8.53963 -1.90717 0
M  V30 10844 C 343.218 -6.4116 -2.90739 0
M  V30 10845 C 343.928 -5.55375 -1.86963 0
M  V30 10846 N 343.878 -4.09448 -2.16152 0
M  V30 10847 H 346.717 -7.45574 -4.45629 0
M  V30 10848 H 346.989 -5.85864 -3.679 0
M  V30 10849 H 346.121 -7.84412 -2.24479 0
M  V30 10850 H 343.466 -5.73457 -0.888562 0
M  V30 10851 H 343.186 -5.90877 -3.88583 0
M  V30 10852 H 342.195 -6.6596 -2.58858 0
M  V30 10853 H 344.029 -8.16339 -3.92049 0
M  V30 10854 P 342.158 -8.7635 -1.60911 0
M  V30 10855 O 341.938 -10.1388 -1.11561 0
M  V30 10856 O 341.368 -8.36503 -2.79617 0
M  V30 10857 O 341.908 -7.71806 -0.42951 0
M  V30 10858 C 342.848 -7.67148 0.673689 0
M  V30 10859 C 342.118 -7.33374 1.95559 0
M  V30 10860 O 341.908 -5.88721 2.00726 0
M  V30 10861 C 340.718 -7.92526 2.10483 0
M  V30 10862 O 340.328 -8.02971 3.47653 0
M  V30 10863 C 339.838 -6.89602 1.41652 0
M  V30 10864 C 340.548 -5.59201 1.75185 0
M  V30 10865 N 340.498 -4.58235 0.662552 0
M  V30 10866 H 343.337 -8.65116 0.777161 0
M  V30 10867 H 343.609 -6.90173 0.474152 0
M  V30 10868 H 342.741 -7.66548 2.79458 0
M  V30 10869 P 338.778 -8.03563 3.84925 0
M  V30 10870 O 338.558 -8.85821 5.0569 0
M  V30 10871 O 337.988 -8.41101 2.65469 0
M  V30 10872 O 338.528 -6.4965 4.18908 0
M  V30 10873 C 339.468 -5.81037 5.05421 0
M  V30 10874 C 338.738 -4.78366 5.89277 0
M  V30 10875 O 338.528 -3.58302 5.08433 0
M  V30 10876 C 337.338 -5.17448 6.36119 0
M  V30 10877 O 336.948 -4.45271 7.53232 0
M  V30 10878 C 336.458 -4.74639 5.19936 0
M  V30 10879 C 337.168 -3.49432 4.70418 0
M  V30 10880 N 337.118 -3.31776 3.22945 0
M  V30 10881 H 339.957 -6.54213 5.71376 0
M  V30 10882 H 340.229 -5.30492 4.44033 0
M  V30 10883 H 339.361 -4.55889 6.76652 0
M  V30 10884 P 335.398 -4.23843 7.83734 0
M  V30 10885 O 335.178 -4.19407 9.29784 0
M  V30 10886 O 334.608 -5.24426 7.09156 0
M  V30 10887 O 335.148 -2.7935 7.20758 0
M  V30 10888 C 336.088 -1.7299 7.50419 0
M  V30 10889 C 335.358 -0.406376 7.57911 0
M  V30 10890 O 335.148 0.0897726 6.21935 0
M  V30 10891 C 333.958 -0.447224 8.1878 0
M  V30 10892 O 333.568 0.825065 8.71101 0
M  V30 10893 C 333.078 -0.783801 6.99623 0
M  V30 10894 C 333.788 -0.0619192 5.85967 0
M  V30 10895 N 333.738 -0.790462 4.56202 0
M  V30 10896 H 336.577 -1.93423 8.4679 0
M  V30 10897 H 336.849 -1.68852 6.70877 0
M  V30 10898 H 335.981 0.289041 8.15388 0
M  V30 10899 H 333.326 0.927006 5.72848 0
M  V30 10900 H 333.046 -1.86973 6.82036 0
M  V30 10901 H 332.055 -0.403953 7.13357 0
M  V30 10902 H 333.889 -1.20599 8.97534 0
M  V30 10903 P 332.018 1.17771 8.83182 0
M  V30 10904 O 331.798 2.07206 9.98732 0
M  V30 10905 O 331.228 -0.0743816 8.81969 0
M  V30 10906 O 331.768 1.97652 7.47304 0
M  V30 10907 C 332.708 3.01133 7.08783 0
M  V30 10908 C 331.978 4.12613 6.37049 0
M  V30 10909 O 331.768 3.72827 4.97879 0
M  V30 10910 C 330.578 4.45085 6.88694 0
M  V30 10911 O 330.188 5.7877 6.5624 0
M  V30 10912 C 329.698 3.47817 6.12078 0
M  V30 10913 C 330.408 3.39414 4.77697 0
M  V30 10914 N 330.358 2.04615 4.15333 0
M  V30 10915 H 333.197 3.41248 7.98759 0
M  V30 10916 H 333.469 2.5837 6.41742 0
M  V30 10917 H 332.601 5.02657 6.42673 0
M  V30 10918 P 328.638 6.144 6.45285 0
M  V30 10919 O 328.418 7.54673 6.86199 0
M  V30 10920 O 327.848 5.12391 7.179 0
M  V30 10921 O 328.388 5.99158 4.88404 0
M  V30 10922 C 329.328 6.60234 3.96415 0
M  V30 10923 C 328.598 7.08259 2.72856 0
M  V30 10924 O 328.388 5.9427 1.83651 0
M  V30 10925 C 327.198 7.64886 2.9555 0
M  V30 10926 O 326.808 8.53963 1.90717 0
M  V30 10927 C 326.318 6.4116 2.90739 0
M  V30 10928 C 327.028 5.55375 1.86963 0
M  V30 10929 N 326.978 4.09664 2.15742 0
M  V30 10930 H 329.817 7.45574 4.45629 0
M  V30 10931 H 330.089 5.86232 3.67314 0
M  V30 10932 H 329.221 7.84412 2.24479 0
M  V30 10933 P 325.258 8.7635 1.60911 0
M  V30 10934 O 325.038 10.1388 1.11561 0
M  V30 10935 O 324.468 8.36503 2.79617 0
M  V30 10936 O 325.008 7.71806 0.42951 0
M  V30 10937 C 325.948 7.67148 -0.673689 0
M  V30 10938 C 325.218 7.33374 -1.95559 0
M  V30 10939 O 325.008 5.88721 -2.00726 0
M  V30 10940 C 323.818 7.92526 -2.10483 0
M  V30 10941 O 323.428 8.02971 -3.47653 0
M  V30 10942 C 322.938 6.89602 -1.41652 0
M  V30 10943 C 323.648 5.59201 -1.75185 0
M  V30 10944 N 323.598 4.58235 -0.662552 0
M  V30 10945 H 326.437 8.65116 -0.777161 0
M  V30 10946 H 326.709 6.90173 -0.474152 0
M  V30 10947 H 325.841 7.66548 -2.79458 0
M  V30 10948 P 321.878 8.03563 -3.84925 0
M  V30 10949 O 321.658 8.85821 -5.0569 0
M  V30 10950 O 321.088 8.41101 -2.65469 0
M  V30 10951 O 321.628 6.4965 -4.18908 0
M  V30 10952 C 322.568 5.81037 -5.05421 0
M  V30 10953 C 321.838 4.78366 -5.89277 0
M  V30 10954 O 321.628 3.58302 -5.08433 0
M  V30 10955 C 320.438 5.17448 -6.36119 0
M  V30 10956 O 320.048 4.45271 -7.53232 0
M  V30 10957 C 319.558 4.74639 -5.19936 0
M  V30 10958 C 320.268 3.49432 -4.70418 0
M  V30 10959 N 320.218 3.31776 -3.22945 0
M  V30 10960 H 323.057 6.54213 -5.71376 0
M  V30 10961 H 323.329 5.30492 -4.44033 0
M  V30 10962 H 322.461 4.55889 -6.76652 0
M  V30 10963 P 318.498 4.23843 -7.83734 0
M  V30 10964 O 318.278 4.19407 -9.29784 0
M  V30 10965 O 317.708 5.24426 -7.09156 0
M  V30 10966 O 318.248 2.7935 -7.20758 0
M  V30 10967 C 319.188 1.7299 -7.50419 0
M  V30 10968 C 318.458 0.406376 -7.57911 0
M  V30 10969 O 318.248 -0.0897726 -6.21935 0
M  V30 10970 C 317.058 0.447224 -8.1878 0
M  V30 10971 O 316.668 -0.825065 -8.71101 0
M  V30 10972 C 316.178 0.783801 -6.99623 0
M  V30 10973 C 316.888 0.0619192 -5.85967 0
M  V30 10974 N 316.838 0.7859 -4.56281 0
M  V30 10975 C 316.918 2.14308 -4.31736 0
M  V30 10976 N 316.838 2.46106 -3.05116 0
M  V30 10977 C 316.698 1.23422 -2.4014 0
M  V30 10978 C 316.568 0.938381 -1.02409 0
M  V30 10979 N 316.448 -0.444647 -0.805413 0
M  V30 10980 C 316.448 -1.40829 -1.79435 0
M  V30 10981 N 316.318 -2.67213 -1.38558 0
M  V30 10982 N 316.578 -1.12947 -3.09005 0
M  V30 10983 C 316.698 0.204887 -3.32369 0
M  V30 10984 H 319.677 1.93423 -8.4679 0
M  V30 10985 H 319.949 1.68181 -6.71046 0
M  V30 10986 H 319.081 -0.289041 -8.15388 0
M  V30 10987 P 315.118 -1.17771 -8.83182 0
M  V30 10988 O 314.898 -2.07206 -9.98732 0
M  V30 10989 O 314.328 0.0743816 -8.81969 0
M  V30 10990 O 314.868 -1.97652 -7.47304 0
M  V30 10991 C 315.808 -3.01133 -7.08783 0
M  V30 10992 C 315.078 -4.12613 -6.37049 0
M  V30 10993 O 314.868 -3.72827 -4.97879 0
M  V30 10994 C 313.678 -4.45085 -6.88694 0
M  V30 10995 O 313.288 -5.7877 -6.5624 0
M  V30 10996 C 312.798 -3.47817 -6.12078 0
M  V30 10997 C 313.508 -3.39414 -4.77697 0
M  V30 10998 N 313.458 -2.04615 -4.15333 0
M  V30 10999 C 313.538 -0.803897 -4.75249 0
M  V30 11000 N 313.458 0.197615 -3.91502 0
M  V30 11001 C 313.318 -0.413002 -2.66823 0
M  V30 11002 C 313.188 0.157221 -1.38007 0
M  V30 11003 O 313.168 1.34419 -1.057 0
M  V30 11004 N 313.068 -0.833136 -0.390236 0
M  V30 11005 C 313.068 -2.19402 -0.623885 0
M  V30 11006 N 312.938 -2.97622 0.449677 0
M  V30 11007 N 313.198 -2.73005 -1.83601 0
M  V30 11008 C 313.318 -1.78786 -2.80935 0
M  V30 11009 H 316.297 -3.41248 -7.98759 0
M  V30 11010 H 316.569 -2.5837 -6.41742 0
M  V30 11011 H 315.701 -5.02657 -6.42673 0
M  V30 11012 H 313.046 -4.11779 -4.09026 0
M  V30 11013 H 312.766 -2.49661 -6.61772 0
M  V30 11014 H 311.775 -3.86674 -6.00946 0
M  V30 11015 H 313.609 -4.30038 -7.97094 0
M  V30 11016 H 313.658 -0.670579 -5.82754 0
M  V30 11017 H 312.976 -0.528446 0.557287 0
M  V30 11018 H 312.939 -4.00117 0.344773 0
M  V30 11019 H 312.838 -2.55448 1.38544 0
M  V30 11020 P 311.738 -6.144 -6.45285 0
M  V30 11021 O 311.518 -7.54673 -6.86199 0
M  V30 11022 O 310.948 -5.12391 -7.179 0
M  V30 11023 O 311.488 -5.99158 -4.88404 0
M  V30 11024 C 312.428 -6.60234 -3.96415 0
M  V30 11025 C 311.698 -7.08259 -2.72856 0
M  V30 11026 O 311.488 -5.9427 -1.83651 0
M  V30 11027 C 310.298 -7.64886 -2.9555 0
M  V30 11028 O 309.908 -8.53963 -1.90717 0
M  V30 11029 C 309.418 -6.4116 -2.90739 0
M  V30 11030 C 310.128 -5.55375 -1.86963 0
M  V30 11031 N 310.078 -4.09448 -2.16152 0
M  V30 11032 H 312.917 -7.45574 -4.45629 0
M  V30 11033 H 313.189 -5.85864 -3.679 0
M  V30 11034 H 312.321 -7.84412 -2.24479 0
M  V30 11035 H 309.666 -5.73457 -0.888562 0
M  V30 11036 H 309.386 -5.90877 -3.88583 0
M  V30 11037 H 308.395 -6.6596 -2.58858 0
M  V30 11038 H 310.229 -8.16339 -3.92049 0
M  V30 11039 P 308.358 -8.7635 -1.60911 0
M  V30 11040 O 308.138 -10.1388 -1.11561 0
M  V30 11041 O 307.568 -8.36503 -2.79617 0
M  V30 11042 O 308.108 -7.71806 -0.42951 0
M  V30 11043 C 309.048 -7.67148 0.673689 0
M  V30 11044 C 308.318 -7.33374 1.95559 0
M  V30 11045 O 308.108 -5.88721 2.00726 0
M  V30 11046 C 306.918 -7.92526 2.10483 0
M  V30 11047 O 306.528 -8.02971 3.47653 0
M  V30 11048 C 306.038 -6.89602 1.41652 0
M  V30 11049 C 306.748 -5.59201 1.75185 0
M  V30 11050 N 306.698 -4.58235 0.662552 0
M  V30 11051 H 309.537 -8.65116 0.777161 0
M  V30 11052 H 309.809 -6.90173 0.474152 0
M  V30 11053 H 308.941 -7.66548 2.79458 0
M  V30 11054 P 304.978 -8.03563 3.84925 0
M  V30 11055 O 304.758 -8.85821 5.0569 0
M  V30 11056 O 304.188 -8.41101 2.65469 0
M  V30 11057 O 304.728 -6.4965 4.18908 0
M  V30 11058 C 305.668 -5.81037 5.05421 0
M  V30 11059 C 304.938 -4.78366 5.89277 0
M  V30 11060 O 304.728 -3.58302 5.08433 0
M  V30 11061 C 303.538 -5.17448 6.36119 0
M  V30 11062 O 303.148 -4.45271 7.53232 0
M  V30 11063 C 302.658 -4.74639 5.19936 0
M  V30 11064 C 303.368 -3.49432 4.70418 0
M  V30 11065 N 303.318 -3.32099 3.22613 0
M  V30 11066 H 306.157 -6.54213 5.71376 0
M  V30 11067 H 306.429 -5.30936 4.43503 0
M  V30 11068 H 305.561 -4.55889 6.76652 0
M  V30 11069 H 302.906 -2.61715 5.17932 0
M  V30 11070 H 302.626 -5.52155 4.41878 0
M  V30 11071 H 301.635 -4.51981 5.53374 0
M  V30 11072 H 303.469 -6.25124 6.55234 0
M  V30 11073 P 301.598 -4.23843 7.83734 0
M  V30 11074 O 301.378 -4.19407 9.29784 0
M  V30 11075 O 300.808 -5.24426 7.09156 0
M  V30 11076 O 301.348 -2.7935 7.20758 0
M  V30 11077 C 302.288 -1.7299 7.50419 0
M  V30 11078 C 301.558 -0.406376 7.57911 0
M  V30 11079 O 301.348 0.0897726 6.21935 0
M  V30 11080 C 300.158 -0.447224 8.1878 0
M  V30 11081 O 299.768 0.825065 8.71101 0
M  V30 11082 C 299.278 -0.783801 6.99623 0
M  V30 11083 C 299.988 -0.0619192 5.85967 0
M  V30 11084 N 299.938 -0.790462 4.56202 0
M  V30 11085 H 302.777 -1.93423 8.4679 0
M  V30 11086 H 303.049 -1.68852 6.70877 0
M  V30 11087 H 302.181 0.289041 8.15388 0
M  V30 11088 H 299.526 0.927006 5.72848 0
M  V30 11089 H 299.246 -1.86973 6.82036 0
M  V30 11090 H 298.255 -0.403953 7.13357 0
M  V30 11091 H 300.089 -1.20599 8.97534 0
M  V30 11092 P 298.218 1.17771 8.83182 0
M  V30 11093 O 297.998 2.07206 9.98732 0
M  V30 11094 O 297.428 -0.0743816 8.81969 0
M  V30 11095 O 297.968 1.97652 7.47304 0
M  V30 11096 C 298.908 3.01133 7.08783 0
M  V30 11097 C 298.178 4.12613 6.37049 0
M  V30 11098 O 297.968 3.72827 4.97879 0
M  V30 11099 C 296.778 4.45085 6.88694 0
M  V30 11100 O 296.388 5.7877 6.5624 0
M  V30 11101 C 295.898 3.47817 6.12078 0
M  V30 11102 C 296.608 3.39414 4.77697 0
M  V30 11103 N 296.558 2.04615 4.15333 0
M  V30 11104 H 299.397 3.41248 7.98759 0
M  V30 11105 H 299.669 2.5837 6.41742 0
M  V30 11106 H 298.801 5.02657 6.42673 0
M  V30 11107 P 294.838 6.144 6.45285 0
M  V30 11108 O 294.618 7.54673 6.86199 0
M  V30 11109 O 294.048 5.12391 7.179 0
M  V30 11110 O 294.588 5.99158 4.88404 0
M  V30 11111 C 295.528 6.60234 3.96415 0
M  V30 11112 C 294.798 7.08259 2.72856 0
M  V30 11113 O 294.588 5.9427 1.83651 0
M  V30 11114 C 293.398 7.64886 2.9555 0
M  V30 11115 O 293.008 8.53963 1.90717 0
M  V30 11116 C 292.518 6.4116 2.90739 0
M  V30 11117 C 293.228 5.55375 1.86963 0
M  V30 11118 N 293.178 4.09664 2.15742 0
M  V30 11119 H 296.017 7.45574 4.45629 0
M  V30 11120 H 296.289 5.86232 3.67314 0
M  V30 11121 H 295.421 7.84412 2.24479 0
M  V30 11122 P 291.458 8.7635 1.60911 0
M  V30 11123 O 291.238 10.1388 1.11561 0
M  V30 11124 O 290.668 8.36503 2.79617 0
M  V30 11125 O 291.208 7.71806 0.42951 0
M  V30 11126 C 292.148 7.67148 -0.673689 0
M  V30 11127 C 291.418 7.33374 -1.95559 0
M  V30 11128 O 291.208 5.88721 -2.00726 0
M  V30 11129 C 290.018 7.92526 -2.10483 0
M  V30 11130 O 289.628 8.02971 -3.47653 0
M  V30 11131 C 289.138 6.89602 -1.41652 0
M  V30 11132 C 289.848 5.59201 -1.75185 0
M  V30 11133 N 289.798 4.58235 -0.662552 0
M  V30 11134 H 292.637 8.65116 -0.777161 0
M  V30 11135 H 292.909 6.90173 -0.474152 0
M  V30 11136 H 292.041 7.66548 -2.79458 0
M  V30 11137 P 288.078 8.03563 -3.84925 0
M  V30 11138 O 287.858 8.85821 -5.0569 0
M  V30 11139 O 287.288 8.41101 -2.65469 0
M  V30 11140 O 287.828 6.4965 -4.18908 0
M  V30 11141 C 288.768 5.81037 -5.05421 0
M  V30 11142 C 288.038 4.78366 -5.89277 0
M  V30 11143 O 287.828 3.58302 -5.08433 0
M  V30 11144 C 286.638 5.17448 -6.36119 0
M  V30 11145 O 286.248 4.45271 -7.53232 0
M  V30 11146 C 285.758 4.74639 -5.19936 0
M  V30 11147 C 286.468 3.49432 -4.70418 0
M  V30 11148 N 286.418 3.32099 -3.22613 0
M  V30 11149 C 286.498 4.28245 -2.25527 0
M  V30 11150 N 286.428 3.80823 -1.04874 0
M  V30 11151 C 286.278 2.44571 -1.23535 0
M  V30 11152 C 286.148 1.37068 -0.330675 0
M  V30 11153 N 286.138 1.51472 0.990824 0
M  V30 11154 N 286.028 0.138614 -0.848756 0
M  V30 11155 C 286.038 -0.00675923 -2.16999 0
M  V30 11156 N 286.158 0.904372 -3.11122 0
M  V30 11157 C 286.278 2.12707 -2.56212 0
M  V30 11158 H 289.257 6.54213 -5.71376 0
M  V30 11159 H 289.529 5.30936 -4.43503 0
M  V30 11160 H 288.661 4.55889 -6.76652 0
M  V30 11161 H 286.006 2.61715 -5.17932 0
M  V30 11162 H 285.726 5.52155 -4.41878 0
M  V30 11163 H 284.735 4.51981 -5.53374 0
M  V30 11164 H 286.569 6.25124 -6.55234 0
M  V30 11165 H 286.61 5.34372 -2.47488 0
M  V30 11166 H 286.229 2.45153 1.4078 0
M  V30 11167 H 286.04 0.688422 1.59911 0
M  V30 11168 H 285.932 -1.02584 -2.52346 0
M  V30 11169 P 284.698 4.23843 -7.83734 0
M  V30 11170 O 284.478 4.19407 -9.29784 0
M  V30 11171 O 283.908 5.24426 -7.09156 0
M  V30 11172 O 284.448 2.7935 -7.20758 0
M  V30 11173 C 285.388 1.7299 -7.50419 0
M  V30 11174 C 284.658 0.406376 -7.57911 0
M  V30 11175 O 284.448 -0.0897726 -6.21935 0
M  V30 11176 C 283.258 0.447224 -8.1878 0
M  V30 11177 O 282.868 -0.825065 -8.71101 0
M  V30 11178 C 282.378 0.783801 -6.99623 0
M  V30 11179 C 283.088 0.0619192 -5.85967 0
M  V30 11180 N 283.038 0.7859 -4.56281 0
M  V30 11181 C 283.118 2.14308 -4.31736 0
M  V30 11182 N 283.038 2.46106 -3.05116 0
M  V30 11183 C 282.898 1.23422 -2.4014 0
M  V30 11184 C 282.768 0.938381 -1.02409 0
M  V30 11185 N 282.648 -0.444647 -0.805413 0
M  V30 11186 C 282.648 -1.40829 -1.79435 0
M  V30 11187 N 282.518 -2.67213 -1.38558 0
M  V30 11188 N 282.778 -1.12947 -3.09005 0
M  V30 11189 C 282.898 0.204887 -3.32369 0
M  V30 11190 H 285.877 1.93423 -8.4679 0
M  V30 11191 H 286.149 1.68181 -6.71046 0
M  V30 11192 H 285.281 -0.289041 -8.15388 0
M  V30 11193 P 281.318 -1.17771 -8.83182 0
M  V30 11194 O 281.098 -2.07206 -9.98732 0
M  V30 11195 O 280.528 0.0743816 -8.81969 0
M  V30 11196 O 281.068 -1.97652 -7.47304 0
M  V30 11197 C 282.008 -3.01133 -7.08783 0
M  V30 11198 C 281.278 -4.12613 -6.37049 0
M  V30 11199 O 281.068 -3.72827 -4.97879 0
M  V30 11200 C 279.878 -4.45085 -6.88694 0
M  V30 11201 O 279.488 -5.7877 -6.5624 0
M  V30 11202 C 278.998 -3.47817 -6.12078 0
M  V30 11203 C 279.708 -3.39414 -4.77697 0
M  V30 11204 N 279.658 -2.04615 -4.15333 0
M  V30 11205 H 282.497 -3.41248 -7.98759 0
M  V30 11206 H 282.769 -2.5837 -6.41742 0
M  V30 11207 H 281.901 -5.02657 -6.42673 0
M  V30 11208 P 277.938 -6.144 -6.45285 0
M  V30 11209 O 277.718 -7.54673 -6.86199 0
M  V30 11210 O 277.148 -5.12391 -7.179 0
M  V30 11211 O 277.688 -5.99158 -4.88404 0
M  V30 11212 C 278.628 -6.60234 -3.96415 0
M  V30 11213 C 277.898 -7.08259 -2.72856 0
M  V30 11214 O 277.688 -5.9427 -1.83651 0
M  V30 11215 C 276.498 -7.64886 -2.9555 0
M  V30 11216 O 276.108 -8.53963 -1.90717 0
M  V30 11217 C 275.618 -6.4116 -2.90739 0
M  V30 11218 C 276.328 -5.55375 -1.86963 0
M  V30 11219 N 276.278 -4.09448 -2.16152 0
M  V30 11220 H 279.117 -7.45574 -4.45629 0
M  V30 11221 H 279.389 -5.85864 -3.679 0
M  V30 11222 H 278.521 -7.84412 -2.24479 0
M  V30 11223 H 275.866 -5.73457 -0.888562 0
M  V30 11224 H 275.586 -5.90877 -3.88583 0
M  V30 11225 H 274.595 -6.6596 -2.58858 0
M  V30 11226 H 276.429 -8.16339 -3.92049 0
M  V30 11227 P 274.558 -8.7635 -1.60911 0
M  V30 11228 O 274.338 -10.1388 -1.11561 0
M  V30 11229 O 273.768 -8.36503 -2.79617 0
M  V30 11230 O 274.308 -7.71806 -0.42951 0
M  V30 11231 C 275.248 -7.66948 0.673514 0
M  V30 11232 C 274.518 -7.33374 1.95559 0
M  V30 11233 O 274.308 -5.88721 2.00726 0
M  V30 11234 C 273.118 -7.92218 2.1125 0
M  V30 11235 O 272.728 -8.02971 3.47653 0
M  V30 11236 C 272.238 -6.89504 1.41631 0
M  V30 11237 C 272.948 -5.59106 1.75155 0
M  V30 11238 N 272.898 -4.58136 0.662409 0
M  V30 11239 C 272.748 -3.26059 1.02863 0
M  V30 11240 O 272.658 -2.90743 2.19009 0
M  V30 11241 N 272.708 -2.35995 -0.0155585 0
M  V30 11242 C 272.798 -2.65248 -1.35603 0
M  V30 11243 O 272.748 -1.75605 -2.20651 0
M  V30 11244 C 272.948 -4.05747 -1.64698 0
M  V30 11245 C 273.058 -4.42345 -3.09553 0
M  V30 11246 C 272.998 -4.96734 -0.652411 0
M  V30 11247 H 275.739 -8.64917 0.776982 0
M  V30 11248 H 276.008 -6.89974 0.474015 0
M  V30 11249 H 275.141 -7.66548 2.79458 0
M  V30 11250 H 272.486 -5.16076 2.65138 0
M  V30 11251 H 272.207 -7.06433 0.329384 0
M  V30 11252 H 271.215 -6.90829 1.81996 0
M  V30 11253 H 273.049 -8.90774 1.62639 0
M  V30 11254 H 273.12 -6.02181 -0.895285 0
M  V30 11255 H 272.09 -4.80252 -3.45468 0
M  V30 11256 H 273.827 -5.20015 -3.22119 0
M  V30 11257 H 273.339 -3.53269 -3.67833 0
M  V30 11258 H 272.603 -1.39558 0.227499 0
M  V30 11259 P 271.178 -8.03563 3.84925 0
M  V30 11260 O 270.958 -8.85821 5.0569 0
M  V30 11261 O 270.388 -8.41101 2.65469 0
M  V30 11262 O 270.928 -6.4965 4.18908 0
M  V30 11263 C 271.868 -5.81037 5.05421 0
M  V30 11264 C 271.138 -4.78366 5.89277 0
M  V30 11265 O 270.928 -3.58302 5.08433 0
M  V30 11266 C 269.738 -5.17448 6.36119 0
M  V30 11267 O 269.348 -4.45271 7.53232 0
M  V30 11268 C 268.858 -4.74639 5.19936 0
M  V30 11269 C 269.568 -3.49432 4.70418 0
M  V30 11270 N 269.518 -3.31776 3.22945 0
M  V30 11271 H 272.357 -6.54213 5.71376 0
M  V30 11272 H 272.629 -5.30492 4.44033 0
M  V30 11273 H 271.761 -4.55889 6.76652 0
M  V30 11274 P 267.798 -4.23843 7.83734 0
M  V30 11275 O 267.578 -4.19407 9.29784 0
M  V30 11276 O 267.008 -5.24426 7.09156 0
M  V30 11277 O 267.548 -2.79386 7.20852 0
M  V30 11278 C 268.488 -1.7299 7.50419 0
M  V30 11279 C 267.758 -0.41401 7.5797 0
M  V30 11280 O 267.548 0.089787 6.22035 0
M  V30 11281 C 266.358 -0.447224 8.1878 0
M  V30 11282 O 265.968 0.825159 8.71201 0
M  V30 11283 C 265.478 -0.783801 6.99623 0
M  V30 11284 C 266.188 -0.0619192 5.85967 0
M  V30 11285 N 266.138 -0.7859 4.56281 0
M  V30 11286 C 265.988 -0.0359258 3.39981 0
M  V30 11287 O 265.898 1.19723 3.49038 0
M  V30 11288 N 265.938 -0.869151 2.14025 0
M  V30 11289 C 266.038 -2.01207 2.14363 0
M  V30 11290 N 265.988 -2.58978 0.954287 0
M  V30 11291 C 266.188 -2.80817 3.32215 0
M  V30 11292 C 266.238 -2.13785 4.50884 0
M  V30 11293 H 268.978 -1.93401 8.46693 0
M  V30 11294 H 269.248 -1.68181 6.71046 0
M  V30 11295 H 268.381 0.289076 8.15488 0
M  V30 11296 H 265.726 0.927166 5.72947 0
M  V30 11297 H 265.446 -1.87 6.82132 0
M  V30 11298 H 264.455 -0.404009 7.13457 0
M  V30 11299 H 266.289 -1.20599 8.97534 0
M  V30 11300 H 266.361 -2.70295 5.43162 0
M  V30 11301 H 266.259 -3.89465 3.27406 0
M  V30 11302 H 265.871 -2.01616 0.107046 0
M  V30 11303 H 266.067 -3.61403 0.873101 0
M  V30 11304 P 264.418 1.17771 8.83182 0
M  V30 11305 O 264.198 2.07206 9.98732 0
M  V30 11306 O 263.628 -0.0743816 8.81969 0
M  V30 11307 O 264.168 1.97652 7.47304 0
M  V30 11308 C 265.108 3.01055 7.08599 0
M  V30 11309 C 264.378 4.12613 6.37049 0
M  V30 11310 O 264.168 3.72827 4.97879 0
M  V30 11311 C 262.978 4.45719 6.88164 0
M  V30 11312 O 262.588 5.7877 6.5624 0
M  V30 11313 C 262.098 3.47768 6.11991 0
M  V30 11314 C 262.808 3.39356 4.77615 0
M  V30 11315 N 262.758 2.04571 4.15244 0
M  V30 11316 C 262.608 1.98587 2.78314 0
M  V30 11317 O 262.518 2.98134 2.08835 0
M  V30 11318 N 262.568 0.714467 2.24925 0
M  V30 11319 C 262.658 -0.470001 2.94169 0
M  V30 11320 O 262.608 -1.55587 2.35195 0
M  V30 11321 C 262.808 -0.312541 4.36783 0
M  V30 11322 C 262.918 -1.57711 5.16352 0
M  V30 11323 C 262.858 0.914512 4.92583 0
M  V30 11324 H 265.599 3.41169 7.98575 0
M  V30 11325 H 265.868 2.58295 6.41556 0
M  V30 11326 H 265.001 5.02657 6.42673 0
M  V30 11327 H 262.346 4.11637 4.08885 0
M  V30 11328 H 262.067 2.49626 6.61679 0
M  V30 11329 H 261.075 3.86566 6.00778 0
M  V30 11330 H 262.909 4.29943 7.96918 0
M  V30 11331 H 262.98 1.00937 6.00374 0
M  V30 11332 H 261.95 -1.80153 5.63503 0
M  V30 11333 H 263.687 -1.4566 5.94104 0
M  V30 11334 H 263.199 -2.40664 4.49645 0
M  V30 11335 H 262.463 0.647622 1.25697 0
M  V30 11336 P 261.038 6.144 6.45285 0
M  V30 11337 O 260.818 7.54673 6.86199 0
M  V30 11338 O 260.248 5.12391 7.179 0
M  V30 11339 O 260.788 5.99236 4.88467 0
M  V30 11340 C 261.728 6.60234 3.96415 0
M  V30 11341 C 260.998 7.08079 2.736 0
M  V30 11342 O 260.788 5.94365 1.8368 0
M  V30 11343 C 259.598 7.64886 2.9555 0
M  V30 11344 O 259.208 8.5406 1.90739 0
M  V30 11345 C 258.718 6.4116 2.90739 0
M  V30 11346 C 259.428 5.55375 1.86963 0
M  V30 11347 N 259.378 4.09664 2.15742 0
M  V30 11348 C 259.228 3.22231 1.08477 0
M  V30 11349 O 259.138 3.68951 -0.0600489 0
M  V30 11350 N 259.178 1.76692 1.48799 0
M  V30 11351 C 259.278 1.41695 2.57602 0
M  V30 11352 N 259.228 0.107296 2.75791 0
M  V30 11353 C 259.428 2.29178 3.69733 0
M  V30 11354 C 259.478 3.62753 3.42653 0
M  V30 11355 H 262.218 7.45488 4.45578 0
M  V30 11356 H 262.488 5.86232 3.67314 0
M  V30 11357 H 261.621 7.84508 2.24507 0
M  V30 11358 H 258.966 5.73556 0.888715 0
M  V30 11359 H 258.686 5.9096 3.88638 0
M  V30 11360 H 257.695 6.66053 2.58894 0
M  V30 11361 H 259.529 8.16339 3.92049 0
M  V30 11362 H 259.601 4.33052 4.24913 0
M  V30 11363 H 259.499 1.9103 4.71577 0
M  V30 11364 H 259.111 -0.521221 1.95056 0
M  V30 11365 H 259.307 -0.286429 3.70695 0
M  V30 11366 P 257.658 8.7635 1.60911 0
M  V30 11367 O 257.438 10.1388 1.11561 0
M  V30 11368 O 256.868 8.36503 2.79617 0
M  V30 11369 O 257.408 7.71806 0.42951 0
M  V30 11370 C 258.348 7.67148 -0.673689 0
M  V30 11371 C 257.618 7.33374 -1.95559 0
M  V30 11372 O 257.408 5.88721 -2.00726 0
M  V30 11373 C 256.218 7.92526 -2.10483 0
M  V30 11374 O 255.828 8.02971 -3.47653 0
M  V30 11375 C 255.338 6.89602 -1.41652 0
M  V30 11376 C 256.048 5.59201 -1.75185 0
M  V30 11377 N 255.998 4.58301 -0.657969 0
M  V30 11378 H 258.837 8.65116 -0.777161 0
M  V30 11379 H 259.109 6.9022 -0.46725 0
M  V30 11380 H 258.241 7.66548 -2.79458 0
M  V30 11381 H 255.586 5.16165 -2.65183 0
M  V30 11382 H 255.306 7.06433 -0.329384 0
M  V30 11383 H 254.315 6.90926 -1.82021 0
M  V30 11384 H 256.149 8.90873 -1.62657 0
M  V30 11385 P 254.279 8.03563 -3.84925 0
M  V30 11386 O 254.059 8.85821 -5.0569 0
M  V30 11387 O 253.489 8.41101 -2.65469 0
M  V30 11388 O 254.029 6.4965 -4.18908 0
M  V30 11389 C 254.969 5.81037 -5.05421 0
M  V30 11390 C 254.239 4.78366 -5.89277 0
M  V30 11391 O 254.029 3.58302 -5.08433 0
M  V30 11392 C 252.839 5.17448 -6.36119 0
M  V30 11393 O 252.449 4.45271 -7.53232 0
M  V30 11394 C 251.959 4.74639 -5.19936 0
M  V30 11395 C 252.669 3.49432 -4.70418 0
M  V30 11396 N 252.619 3.31776 -3.22945 0
M  V30 11397 H 255.458 6.54213 -5.71376 0
M  V30 11398 H 255.73 5.30492 -4.44033 0
M  V30 11399 H 254.862 4.55889 -6.76652 0
M  V30 11400 P 250.899 4.23843 -7.83734 0
M  V30 11401 O 250.679 4.19407 -9.29784 0
M  V30 11402 O 250.109 5.24426 -7.09156 0
M  V30 11403 O 250.649 2.7935 -7.20758 0
M  V30 11404 C 251.589 1.7299 -7.50419 0
M  V30 11405 C 250.859 0.406376 -7.57911 0
M  V30 11406 O 250.649 -0.0897726 -6.21935 0
M  V30 11407 C 249.459 0.447224 -8.1878 0
M  V30 11408 O 249.069 -0.825065 -8.71101 0
M  V30 11409 C 248.579 0.783801 -6.99623 0
M  V30 11410 C 249.289 0.0619192 -5.85967 0
M  V30 11411 N 249.239 0.7859 -4.56281 0
M  V30 11412 H 252.078 1.93423 -8.4679 0
M  V30 11413 H 252.35 1.68181 -6.71046 0
M  V30 11414 H 251.482 -0.289041 -8.15388 0
M  V30 11415 P 247.519 -1.17771 -8.83182 0
M  V30 11416 O 247.299 -2.07206 -9.98732 0
M  V30 11417 O 246.729 0.0743816 -8.81969 0
M  V30 11418 O 247.269 -1.97652 -7.47304 0
M  V30 11419 C 248.209 -3.01055 -7.08599 0
M  V30 11420 C 247.479 -4.12613 -6.37049 0
M  V30 11421 O 247.269 -3.72827 -4.97879 0
M  V30 11422 C 246.079 -4.45719 -6.88164 0
M  V30 11423 O 245.689 -5.7877 -6.5624 0
M  V30 11424 C 245.199 -3.47768 -6.11991 0
M  V30 11425 C 245.909 -3.39356 -4.77615 0
M  V30 11426 N 245.859 -2.04571 -4.15244 0
M  V30 11427 C 245.709 -1.98587 -2.78314 0
M  V30 11428 O 245.619 -2.98134 -2.08835 0
M  V30 11429 N 245.669 -0.714467 -2.24925 0
M  V30 11430 C 245.759 0.470001 -2.94169 0
M  V30 11431 O 245.709 1.55587 -2.35195 0
M  V30 11432 C 245.909 0.312541 -4.36783 0
M  V30 11433 C 246.019 1.57711 -5.16352 0
M  V30 11434 C 245.959 -0.914512 -4.92583 0
M  V30 11435 H 248.7 -3.41169 -7.98575 0
M  V30 11436 H 248.969 -2.58295 -6.41556 0
M  V30 11437 H 248.102 -5.02657 -6.42673 0
M  V30 11438 H 245.447 -4.11637 -4.08885 0
M  V30 11439 H 245.168 -2.49626 -6.61679 0
M  V30 11440 H 244.176 -3.86566 -6.00778 0
M  V30 11441 H 246.01 -4.29943 -7.96918 0
M  V30 11442 H 246.081 -1.00937 -6.00374 0
M  V30 11443 H 245.051 1.80153 -5.63503 0
M  V30 11444 H 246.788 1.4566 -5.94104 0
M  V30 11445 H 246.3 2.40664 -4.49645 0
M  V30 11446 H 245.564 -0.647622 -1.25697 0
M  V30 11447 P 244.139 -6.144 -6.45285 0
M  V30 11448 O 243.919 -7.54673 -6.86199 0
M  V30 11449 O 243.349 -5.12391 -7.179 0
M  V30 11450 O 243.889 -5.99158 -4.88404 0
M  V30 11451 C 244.829 -6.60234 -3.96415 0
M  V30 11452 C 244.099 -7.08259 -2.72856 0
M  V30 11453 O 243.889 -5.9427 -1.83651 0
M  V30 11454 C 242.699 -7.64886 -2.9555 0
M  V30 11455 O 242.309 -8.53963 -1.90717 0
M  V30 11456 C 241.819 -6.4116 -2.90739 0
M  V30 11457 C 242.529 -5.55375 -1.86963 0
M  V30 11458 N 242.479 -4.09448 -2.16152 0
M  V30 11459 H 245.318 -7.45574 -4.45629 0
M  V30 11460 H 245.59 -5.85864 -3.679 0
M  V30 11461 H 244.722 -7.84412 -2.24479 0
M  V30 11462 H 242.067 -5.73457 -0.888562 0
M  V30 11463 H 241.787 -5.90877 -3.88583 0
M  V30 11464 H 240.796 -6.6596 -2.58858 0
M  V30 11465 H 242.63 -8.16339 -3.92049 0
M  V30 11466 P 240.759 -8.7635 -1.60911 0
M  V30 11467 O 240.539 -10.1388 -1.11561 0
M  V30 11468 O 239.969 -8.36503 -2.79617 0
M  V30 11469 O 240.509 -7.71806 -0.42951 0
M  V30 11470 C 241.449 -7.66948 0.673514 0
M  V30 11471 C 240.719 -7.33374 1.95559 0
M  V30 11472 O 240.509 -5.88721 2.00726 0
M  V30 11473 C 239.319 -7.92218 2.1125 0
M  V30 11474 O 238.929 -8.02971 3.47653 0
M  V30 11475 C 238.439 -6.89504 1.41631 0
M  V30 11476 C 239.149 -5.59106 1.75155 0
M  V30 11477 N 239.099 -4.58136 0.662409 0
M  V30 11478 C 238.949 -3.26059 1.02863 0
M  V30 11479 O 238.859 -2.90743 2.19009 0
M  V30 11480 N 238.909 -2.35995 -0.0155585 0
M  V30 11481 C 238.999 -2.65248 -1.35603 0
M  V30 11482 C 239.149 -4.05747 -1.64698 0
M  V30 11483 C 239.199 -4.96734 -0.652411 0
M  V30 11484 H 241.94 -8.64917 0.776982 0
M  V30 11485 H 242.209 -6.89974 0.474015 0
M  V30 11486 H 241.342 -7.66548 2.79458 0
M  V30 11487 H 238.687 -5.16076 2.65138 0
M  V30 11488 H 238.408 -7.06433 0.329384 0
M  V30 11489 H 237.416 -6.90829 1.81996 0
M  V30 11490 H 239.25 -8.90774 1.62639 0
M  V30 11491 H 239.321 -6.02181 -0.895285 0
M  V30 11492 P 237.379 -8.03563 3.84925 0
M  V30 11493 O 237.159 -8.85821 5.0569 0
M  V30 11494 O 236.589 -8.41101 2.65469 0
M  V30 11495 O 237.129 -6.4965 4.18908 0
M  V30 11496 C 238.069 -5.81037 5.05421 0
M  V30 11497 C 237.339 -4.78366 5.89277 0
M  V30 11498 O 237.129 -3.58302 5.08433 0
M  V30 11499 C 235.939 -5.17448 6.36119 0
M  V30 11500 O 235.549 -4.45271 7.53232 0
M  V30 11501 C 235.059 -4.74639 5.19936 0
M  V30 11502 C 235.769 -3.49432 4.70418 0
M  V30 11503 N 235.719 -3.31776 3.22945 0
M  V30 11504 H 238.558 -6.54213 5.71376 0
M  V30 11505 H 238.83 -5.30492 4.44033 0
M  V30 11506 H 237.962 -4.55889 6.76652 0
M  V30 11507 P 233.999 -4.23843 7.83734 0
M  V30 11508 O 233.779 -4.19407 9.29784 0
M  V30 11509 O 233.209 -5.24426 7.09156 0
M  V30 11510 O 233.749 -2.7935 7.20758 0
M  V30 11511 C 234.689 -1.7299 7.50419 0
M  V30 11512 C 233.959 -0.406376 7.57911 0
M  V30 11513 O 233.749 0.0897726 6.21935 0
M  V30 11514 C 232.559 -0.447224 8.1878 0
M  V30 11515 O 232.169 0.825065 8.71101 0
M  V30 11516 C 231.679 -0.783801 6.99623 0
M  V30 11517 C 232.389 -0.0619192 5.85967 0
M  V30 11518 N 232.339 -0.7859 4.56281 0
M  V30 11519 H 235.178 -1.93423 8.4679 0
M  V30 11520 H 235.45 -1.68181 6.71046 0
M  V30 11521 H 234.582 0.289041 8.15388 0
M  V30 11522 P 230.619 1.17771 8.83182 0
M  V30 11523 O 230.399 2.07206 9.98732 0
M  V30 11524 O 229.829 -0.0743816 8.81969 0
M  V30 11525 O 230.369 1.97678 7.474 0
M  V30 11526 C 231.309 3.01133 7.08783 0
M  V30 11527 C 230.579 4.1203 6.37546 0
M  V30 11528 O 230.369 3.72887 4.9796 0
M  V30 11529 C 229.179 4.45085 6.88694 0
M  V30 11530 O 228.789 5.78836 6.56315 0
M  V30 11531 C 228.299 3.47817 6.12078 0
M  V30 11532 C 229.009 3.39414 4.77697 0
M  V30 11533 N 228.959 2.04615 4.15333 0
M  V30 11534 C 228.809 1.96929 2.77162 0
M  V30 11535 O 228.719 3.02017 2.12006 0
M  V30 11536 N 228.759 0.55485 2.24237 0
M  V30 11537 C 228.859 -0.367808 2.9169 0
M  V30 11538 N 228.809 -1.53426 2.29427 0
M  V30 11539 C 229.009 -0.319148 4.33828 0
M  V30 11540 C 229.059 0.920672 4.90433 0
M  V30 11541 H 231.799 3.41209 7.98667 0
M  V30 11542 H 232.069 2.5837 6.41742 0
M  V30 11543 H 231.202 5.02718 6.42752 0
M  V30 11544 H 228.547 4.11779 4.09026 0
M  V30 11545 H 228.267 2.49661 6.61772 0
M  V30 11546 H 227.276 3.86674 6.00946 0
M  V30 11547 H 229.11 4.29991 7.97006 0
M  V30 11548 H 229.182 1.00589 5.98303 0
M  V30 11549 H 229.08 -1.22639 4.93799 0
M  V30 11550 H 228.692 -1.56819 1.27167 0
M  V30 11551 H 228.888 -2.41062 2.83063 0
M  V30 11552 P 227.239 6.144 6.45285 0
M  V30 11553 O 227.019 7.54673 6.86199 0
M  V30 11554 O 226.449 5.12391 7.179 0
M  V30 11555 O 226.989 5.99158 4.88404 0
M  V30 11556 C 227.929 6.60234 3.96415 0
M  V30 11557 C 227.199 7.08259 2.72856 0
M  V30 11558 O 226.989 5.9427 1.83651 0
M  V30 11559 C 225.799 7.64886 2.9555 0
M  V30 11560 O 225.409 8.53963 1.90717 0
M  V30 11561 C 224.919 6.4116 2.90739 0
M  V30 11562 C 225.629 5.55375 1.86963 0
M  V30 11563 N 225.579 4.09664 2.15742 0
M  V30 11564 H 228.418 7.45574 4.45629 0
M  V30 11565 H 228.69 5.86232 3.67314 0
M  V30 11566 H 227.822 7.84412 2.24479 0
M  V30 11567 P 223.859 8.7635 1.60911 0
M  V30 11568 O 223.639 10.1388 1.11561 0
M  V30 11569 O 223.069 8.36503 2.79617 0
M  V30 11570 O 223.609 7.71806 0.42951 0
M  V30 11571 C 224.549 7.67148 -0.673689 0
M  V30 11572 C 223.819 7.33374 -1.95559 0
M  V30 11573 O 223.609 5.88721 -2.00726 0
M  V30 11574 C 222.419 7.92526 -2.10483 0
M  V30 11575 O 222.029 8.02971 -3.47653 0
M  V30 11576 C 221.539 6.89602 -1.41652 0
M  V30 11577 C 222.249 5.59201 -1.75185 0
M  V30 11578 N 222.199 4.58235 -0.662552 0
M  V30 11579 C 222.279 4.7683 0.704049 0
M  V30 11580 N 222.199 3.66233 1.39775 0
M  V30 11581 C 222.059 2.66526 0.431739 0
M  V30 11582 C 221.929 1.26394 0.575992 0
M  V30 11583 N 221.809 0.62859 -0.67177 0
M  V30 11584 C 221.809 1.27134 -1.89385 0
M  V30 11585 N 221.679 0.492035 -2.96951 0
M  V30 11586 N 221.939 2.58978 -2.02907 0
M  V30 11587 C 222.059 3.22433 -0.832218 0
M  V30 11588 H 225.038 8.65116 -0.777161 0
M  V30 11589 H 225.31 6.90173 -0.474152 0
M  V30 11590 H 224.442 7.66548 -2.79458 0
M  V30 11591 P 220.479 8.03563 -3.84925 0
M  V30 11592 O 220.259 8.85821 -5.0569 0
M  V30 11593 O 219.689 8.41101 -2.65469 0
M  V30 11594 O 220.229 6.4965 -4.18908 0
M  V30 11595 C 221.169 5.81037 -5.05421 0
M  V30 11596 C 220.439 4.78366 -5.89277 0
M  V30 11597 O 220.229 3.58302 -5.08433 0
M  V30 11598 C 219.039 5.17448 -6.36119 0
M  V30 11599 O 218.649 4.45271 -7.53232 0
M  V30 11600 C 218.159 4.74639 -5.19936 0
M  V30 11601 C 218.869 3.49432 -4.70418 0
M  V30 11602 N 218.819 3.32099 -3.22613 0
M  V30 11603 H 221.658 6.54213 -5.71376 0
M  V30 11604 H 221.93 5.30936 -4.43503 0
M  V30 11605 H 221.062 4.55889 -6.76652 0
M  V30 11606 H 218.407 2.61715 -5.17932 0
M  V30 11607 H 218.127 5.52155 -4.41878 0
M  V30 11608 H 217.136 4.51981 -5.53374 0
M  V30 11609 H 218.97 6.25124 -6.55234 0
M  V30 11610 P 217.099 4.23843 -7.83734 0
M  V30 11611 O 216.879 4.19407 -9.29784 0
M  V30 11612 O 216.309 5.24426 -7.09156 0
M  V30 11613 O 216.849 2.79386 -7.20852 0
M  V30 11614 C 217.789 1.7299 -7.50419 0
M  V30 11615 C 217.059 0.41401 -7.5797 0
M  V30 11616 O 216.849 -0.089787 -6.22035 0
M  V30 11617 C 215.659 0.447224 -8.1878 0
M  V30 11618 O 215.269 -0.825159 -8.71201 0
M  V30 11619 C 214.779 0.783801 -6.99623 0
M  V30 11620 C 215.489 0.0619192 -5.85967 0
M  V30 11621 N 215.439 0.7859 -4.56281 0
M  V30 11622 C 215.289 0.0359258 -3.39981 0
M  V30 11623 O 215.199 -1.19723 -3.49038 0
M  V30 11624 N 215.239 0.869151 -2.14025 0
M  V30 11625 C 215.339 2.01207 -2.14363 0
M  V30 11626 N 215.289 2.58978 -0.954287 0
M  V30 11627 C 215.489 2.80817 -3.32215 0
M  V30 11628 C 215.539 2.13785 -4.50884 0
M  V30 11629 H 218.279 1.93401 -8.46693 0
M  V30 11630 H 218.549 1.68181 -6.71046 0
M  V30 11631 H 217.682 -0.289076 -8.15488 0
M  V30 11632 H 215.027 -0.927166 -5.72947 0
M  V30 11633 H 214.747 1.87 -6.82132 0
M  V30 11634 H 213.756 0.404009 -7.13457 0
M  V30 11635 H 215.59 1.20599 -8.97534 0
M  V30 11636 H 215.662 2.70295 -5.43162 0
M  V30 11637 H 215.56 3.89465 -3.27406 0
M  V30 11638 H 215.172 2.01616 -0.107046 0
M  V30 11639 H 215.368 3.61403 -0.873101 0
M  V30 11640 P 213.719 -1.17771 -8.83182 0
M  V30 11641 O 213.499 -2.07206 -9.98732 0
M  V30 11642 O 212.929 0.0743816 -8.81969 0
M  V30 11643 O 213.469 -1.97652 -7.47304 0
M  V30 11644 C 214.409 -3.01133 -7.08783 0
M  V30 11645 C 213.679 -4.12613 -6.37049 0
M  V30 11646 O 213.469 -3.72827 -4.97879 0
M  V30 11647 C 212.279 -4.45085 -6.88694 0
M  V30 11648 O 211.889 -5.7877 -6.5624 0
M  V30 11649 C 211.399 -3.47817 -6.12078 0
M  V30 11650 C 212.109 -3.39414 -4.77697 0
M  V30 11651 N 212.059 -2.04199 -4.15538 0
M  V30 11652 H 214.898 -3.41248 -7.98759 0
M  V30 11653 H 215.17 -2.57728 -6.42 0
M  V30 11654 H 214.302 -5.02657 -6.42673 0
M  V30 11655 H 211.647 -4.11708 -4.08956 0
M  V30 11656 H 211.367 -2.49626 -6.61679 0
M  V30 11657 H 210.376 -3.8662 -6.00862 0
M  V30 11658 H 212.21 -4.29991 -7.97006 0
M  V30 11659 P 210.339 -6.144 -6.45285 0
M  V30 11660 O 210.119 -7.54673 -6.86199 0
M  V30 11661 O 209.549 -5.12391 -7.179 0
M  V30 11662 O 210.089 -5.99158 -4.88404 0
M  V30 11663 C 211.029 -6.60234 -3.96415 0
M  V30 11664 C 210.299 -7.08259 -2.72856 0
M  V30 11665 O 210.089 -5.9427 -1.83651 0
M  V30 11666 C 208.899 -7.64886 -2.9555 0
M  V30 11667 O 208.509 -8.53963 -1.90717 0
M  V30 11668 C 208.019 -6.4116 -2.90739 0
M  V30 11669 C 208.729 -5.55375 -1.86963 0
M  V30 11670 N 208.679 -4.09664 -2.15742 0
M  V30 11671 H 211.518 -7.45574 -4.45629 0
M  V30 11672 H 211.79 -5.86232 -3.67314 0
M  V30 11673 H 210.922 -7.84412 -2.24479 0
M  V30 11674 P 206.959 -8.7635 -1.60911 0
M  V30 11675 O 206.739 -10.1388 -1.11561 0
M  V30 11676 O 206.169 -8.36503 -2.79617 0
M  V30 11677 O 206.709 -7.71806 -0.42951 0
M  V30 11678 C 207.649 -7.67148 0.673689 0
M  V30 11679 C 206.919 -7.33374 1.95559 0
M  V30 11680 O 206.709 -5.88721 2.00726 0
M  V30 11681 C 205.519 -7.92526 2.10483 0
M  V30 11682 O 205.129 -8.02971 3.47653 0
M  V30 11683 C 204.639 -6.89602 1.41652 0
M  V30 11684 C 205.349 -5.59201 1.75185 0
M  V30 11685 N 205.299 -4.58235 0.662552 0
M  V30 11686 H 208.138 -8.65116 0.777161 0
M  V30 11687 H 208.41 -6.90173 0.474152 0
M  V30 11688 H 207.542 -7.66548 2.79458 0
M  V30 11689 P 203.579 -8.03563 3.84925 0
M  V30 11690 O 203.359 -8.85821 5.0569 0
M  V30 11691 O 202.789 -8.41101 2.65469 0
M  V30 11692 O 203.329 -6.4965 4.18908 0
M  V30 11693 C 204.269 -5.80886 5.05289 0
M  V30 11694 C 203.539 -4.78366 5.89277 0
M  V30 11695 O 203.329 -3.58302 5.08433 0
M  V30 11696 C 202.139 -5.16748 6.36559 0
M  V30 11697 O 201.749 -4.45271 7.53232 0
M  V30 11698 C 201.259 -4.74572 5.19863 0
M  V30 11699 C 201.969 -3.49373 4.70338 0
M  V30 11700 N 201.919 -3.31704 3.22876 0
M  V30 11701 C 201.769 -2.03326 2.74871 0
M  V30 11702 O 201.679 -1.06486 3.48076 0
M  V30 11703 N 201.729 -1.91838 1.37456 0
M  V30 11704 C 201.819 -2.94295 0.462035 0
M  V30 11705 O 201.769 -2.71763 -0.752928 0
M  V30 11706 C 201.969 -4.25064 1.05249 0
M  V30 11707 C 202.079 -5.39815 0.095697 0
M  V30 11708 C 202.019 -4.40214 2.39192 0
M  V30 11709 H 204.76 -6.54063 5.71245 0
M  V30 11710 H 205.029 -5.30339 4.43905 0
M  V30 11711 H 204.162 -4.55889 6.76652 0
M  V30 11712 H 201.507 -2.6167 5.17842 0
M  V30 11713 H 201.228 -5.52155 4.41878 0
M  V30 11714 H 200.236 -4.51918 5.53297 0
M  V30 11715 H 202.07 -6.25055 6.55162 0
M  V30 11716 H 202.141 -5.39798 2.81523 0
M  V30 11717 H 201.111 -5.91593 0.0279582 0
M  V30 11718 H 202.848 -6.10038 0.450573 0
M  V30 11719 H 202.36 -5.02007 -0.89937 0
M  V30 11720 H 201.624 -0.995326 1.00435 0
M  V30 11721 P 200.199 -4.23843 7.83734 0
M  V30 11722 O 199.979 -4.19407 9.29784 0
M  V30 11723 O 199.409 -5.24426 7.09156 0
M  V30 11724 O 199.949 -2.7935 7.20758 0
M  V30 11725 C 200.889 -1.7299 7.50419 0
M  V30 11726 C 200.159 -0.406376 7.57911 0
M  V30 11727 O 199.949 0.0897726 6.21935 0
M  V30 11728 C 198.759 -0.447224 8.1878 0
M  V30 11729 O 198.369 0.825065 8.71101 0
M  V30 11730 C 197.879 -0.783801 6.99623 0
M  V30 11731 C 198.589 -0.0619192 5.85967 0
M  V30 11732 N 198.539 -0.7859 4.56281 0
M  V30 11733 H 201.378 -1.93423 8.4679 0
M  V30 11734 H 201.65 -1.68181 6.71046 0
M  V30 11735 H 200.782 0.289041 8.15388 0
M  V30 11736 P 196.819 1.17771 8.83182 0
M  V30 11737 O 196.599 2.07206 9.98732 0
M  V30 11738 O 196.029 -0.0743816 8.81969 0
M  V30 11739 O 196.569 1.97652 7.47304 0
M  V30 11740 C 197.509 3.01133 7.08783 0
M  V30 11741 C 196.779 4.12613 6.37049 0
M  V30 11742 O 196.569 3.72827 4.97879 0
M  V30 11743 C 195.379 4.45085 6.88694 0
M  V30 11744 O 194.989 5.7877 6.5624 0
M  V30 11745 C 194.499 3.47817 6.12078 0
M  V30 11746 C 195.209 3.39414 4.77697 0
M  V30 11747 N 195.159 2.04199 4.15538 0
M  V30 11748 H 197.998 3.41248 7.98759 0
M  V30 11749 H 198.27 2.57728 6.42 0
M  V30 11750 H 197.402 5.02657 6.42673 0
M  V30 11751 H 194.747 4.11708 4.08956 0
M  V30 11752 H 194.467 2.49626 6.61679 0
M  V30 11753 H 193.476 3.8662 6.00862 0
M  V30 11754 H 195.31 4.29991 7.97006 0
M  V30 11755 P 193.439 6.144 6.45285 0
M  V30 11756 O 193.219 7.54673 6.86199 0
M  V30 11757 O 192.649 5.12391 7.179 0
M  V30 11758 O 193.189 5.99158 4.88404 0
M  V30 11759 C 194.129 6.60234 3.96415 0
M  V30 11760 C 193.399 7.08259 2.72856 0
M  V30 11761 O 193.189 5.9427 1.83651 0
M  V30 11762 C 191.999 7.64886 2.9555 0
M  V30 11763 O 191.609 8.53963 1.90717 0
M  V30 11764 C 191.119 6.4116 2.90739 0
M  V30 11765 C 191.829 5.55375 1.86963 0
M  V30 11766 N 191.779 4.09448 2.16152 0
M  V30 11767 H 194.618 7.45574 4.45629 0
M  V30 11768 H 194.89 5.85864 3.679 0
M  V30 11769 H 194.022 7.84412 2.24479 0
M  V30 11770 H 191.367 5.73457 0.888562 0
M  V30 11771 H 191.087 5.90877 3.88583 0
M  V30 11772 H 190.096 6.6596 2.58858 0
M  V30 11773 H 191.93 8.16339 3.92049 0
M  V30 11774 P 190.059 8.7635 1.60911 0
M  V30 11775 O 189.839 10.1388 1.11561 0
M  V30 11776 O 189.269 8.36503 2.79617 0
M  V30 11777 O 189.809 7.71806 0.42951 0
M  V30 11778 C 190.749 7.66948 -0.673514 0
M  V30 11779 C 190.019 7.33374 -1.95559 0
M  V30 11780 O 189.809 5.88721 -2.00726 0
M  V30 11781 C 188.619 7.92218 -2.1125 0
M  V30 11782 O 188.229 8.02971 -3.47653 0
M  V30 11783 C 187.739 6.89504 -1.41631 0
M  V30 11784 C 188.449 5.59106 -1.75155 0
M  V30 11785 N 188.399 4.58136 -0.662409 0
M  V30 11786 C 188.249 3.26059 -1.02863 0
M  V30 11787 O 188.159 2.90743 -2.19009 0
M  V30 11788 N 188.209 2.35995 0.0155585 0
M  V30 11789 C 188.299 2.65248 1.35603 0
M  V30 11790 O 188.249 1.75605 2.20651 0
M  V30 11791 C 188.449 4.05747 1.64698 0
M  V30 11792 C 188.559 4.42345 3.09553 0
M  V30 11793 C 188.499 4.96734 0.652411 0
M  V30 11794 H 191.24 8.64917 -0.776982 0
M  V30 11795 H 191.509 6.89974 -0.474015 0
M  V30 11796 H 190.642 7.66548 -2.79458 0
M  V30 11797 H 187.987 5.16076 -2.65138 0
M  V30 11798 H 187.708 7.06433 -0.329384 0
M  V30 11799 H 186.716 6.90829 -1.81996 0
M  V30 11800 H 188.55 8.90774 -1.62639 0
M  V30 11801 H 188.621 6.02181 0.895285 0
M  V30 11802 H 187.591 4.80252 3.45468 0
M  V30 11803 H 189.328 5.20015 3.22119 0
M  V30 11804 H 188.84 3.53269 3.67833 0
M  V30 11805 H 188.104 1.39558 -0.227499 0
M  V30 11806 P 186.679 8.03563 -3.84925 0
M  V30 11807 O 186.459 8.85821 -5.0569 0
M  V30 11808 O 185.889 8.41101 -2.65469 0
M  V30 11809 O 186.429 6.4965 -4.18908 0
M  V30 11810 C 187.369 5.81037 -5.05421 0
M  V30 11811 C 186.639 4.78366 -5.89277 0
M  V30 11812 O 186.429 3.58302 -5.08433 0
M  V30 11813 C 185.239 5.17448 -6.36119 0
M  V30 11814 O 184.849 4.45271 -7.53232 0
M  V30 11815 C 184.359 4.74639 -5.19936 0
M  V30 11816 C 185.069 3.49432 -4.70418 0
M  V30 11817 N 185.019 3.31776 -3.22945 0
M  V30 11818 H 187.858 6.54213 -5.71376 0
M  V30 11819 H 188.13 5.30492 -4.44033 0
M  V30 11820 H 187.262 4.55889 -6.76652 0
M  V30 11821 P 183.299 4.23843 -7.83734 0
M  V30 11822 O 183.079 4.19407 -9.29784 0
M  V30 11823 O 182.509 5.24426 -7.09156 0
M  V30 11824 O 183.049 2.7935 -7.20758 0
M  V30 11825 C 183.989 1.7299 -7.50419 0
M  V30 11826 C 183.259 0.406376 -7.57911 0
M  V30 11827 O 183.049 -0.0897726 -6.21935 0
M  V30 11828 C 181.859 0.447224 -8.1878 0
M  V30 11829 O 181.469 -0.825065 -8.71101 0
M  V30 11830 C 180.979 0.783801 -6.99623 0
M  V30 11831 C 181.689 0.0619192 -5.85967 0
M  V30 11832 N 181.639 0.7859 -4.56281 0
M  V30 11833 H 184.478 1.93423 -8.4679 0
M  V30 11834 H 184.75 1.68181 -6.71046 0
M  V30 11835 H 183.882 -0.289041 -8.15388 0
M  V30 11836 P 179.919 -1.17771 -8.83182 0
M  V30 11837 O 179.699 -2.07206 -9.98732 0
M  V30 11838 O 179.129 0.0743816 -8.81969 0
M  V30 11839 O 179.669 -1.97652 -7.47304 0
M  V30 11840 C 180.609 -3.01133 -7.08783 0
M  V30 11841 C 179.879 -4.12613 -6.37049 0
M  V30 11842 O 179.669 -3.72827 -4.97879 0
M  V30 11843 C 178.479 -4.45085 -6.88694 0
M  V30 11844 O 178.089 -5.7877 -6.5624 0
M  V30 11845 C 177.599 -3.47817 -6.12078 0
M  V30 11846 C 178.309 -3.39414 -4.77697 0
M  V30 11847 N 178.259 -2.04199 -4.15538 0
M  V30 11848 H 181.098 -3.41248 -7.98759 0
M  V30 11849 H 181.37 -2.57728 -6.42 0
M  V30 11850 H 180.502 -5.02657 -6.42673 0
M  V30 11851 H 177.847 -4.11708 -4.08956 0
M  V30 11852 H 177.567 -2.49626 -6.61679 0
M  V30 11853 H 176.576 -3.8662 -6.00862 0
M  V30 11854 H 178.41 -4.29991 -7.97006 0
M  V30 11855 P 176.539 -6.144 -6.45285 0
M  V30 11856 O 176.319 -7.54673 -6.86199 0
M  V30 11857 O 175.749 -5.12391 -7.179 0
M  V30 11858 O 176.289 -5.99158 -4.88404 0
M  V30 11859 C 177.229 -6.60234 -3.96415 0
M  V30 11860 C 176.499 -7.08259 -2.72856 0
M  V30 11861 O 176.289 -5.9427 -1.83651 0
M  V30 11862 C 175.099 -7.64886 -2.9555 0
M  V30 11863 O 174.709 -8.53963 -1.90717 0
M  V30 11864 C 174.219 -6.4116 -2.90739 0
M  V30 11865 C 174.929 -5.55375 -1.86963 0
M  V30 11866 N 174.879 -4.09664 -2.15742 0
M  V30 11867 H 177.718 -7.45574 -4.45629 0
M  V30 11868 H 177.99 -5.86232 -3.67314 0
M  V30 11869 H 177.122 -7.84412 -2.24479 0
M  V30 11870 P 173.159 -8.7635 -1.60911 0
M  V30 11871 O 172.939 -10.1388 -1.11561 0
M  V30 11872 O 172.369 -8.36503 -2.79617 0
M  V30 11873 O 172.909 -7.71806 -0.42951 0
M  V30 11874 C 173.849 -7.67148 0.673689 0
M  V30 11875 C 173.119 -7.33374 1.95559 0
M  V30 11876 O 172.909 -5.88721 2.00726 0
M  V30 11877 C 171.719 -7.92526 2.10483 0
M  V30 11878 O 171.329 -8.02971 3.47653 0
M  V30 11879 C 170.839 -6.89602 1.41652 0
M  V30 11880 C 171.549 -5.59201 1.75185 0
M  V30 11881 N 171.499 -4.58235 0.662552 0
M  V30 11882 H 174.338 -8.65116 0.777161 0
M  V30 11883 H 174.61 -6.90173 0.474152 0
M  V30 11884 H 173.742 -7.66548 2.79458 0
M  V30 11885 P 169.779 -8.03563 3.84925 0
M  V30 11886 O 169.559 -8.85821 5.0569 0
M  V30 11887 O 168.989 -8.41101 2.65469 0
M  V30 11888 O 169.529 -6.4965 4.18908 0
M  V30 11889 C 170.469 -5.81037 5.05421 0
M  V30 11890 C 169.739 -4.78366 5.89277 0
M  V30 11891 O 169.529 -3.58302 5.08433 0
M  V30 11892 C 168.339 -5.17448 6.36119 0
M  V30 11893 O 167.949 -4.45271 7.53232 0
M  V30 11894 C 167.459 -4.74639 5.19936 0
M  V30 11895 C 168.169 -3.49432 4.70418 0
M  V30 11896 N 168.119 -3.32099 3.22613 0
M  V30 11897 H 170.958 -6.54213 5.71376 0
M  V30 11898 H 171.23 -5.30936 4.43503 0
M  V30 11899 H 170.362 -4.55889 6.76652 0
M  V30 11900 H 167.707 -2.61715 5.17932 0
M  V30 11901 H 167.427 -5.52155 4.41878 0
M  V30 11902 H 166.436 -4.51981 5.53374 0
M  V30 11903 H 168.27 -6.25124 6.55234 0
M  V30 11904 P 166.399 -4.23843 7.83734 0
M  V30 11905 O 166.179 -4.19407 9.29784 0
M  V30 11906 O 165.609 -5.24426 7.09156 0
M  V30 11907 O 166.149 -2.7935 7.20758 0
M  V30 11908 C 167.089 -1.7299 7.50419 0
M  V30 11909 C 166.359 -0.406376 7.57911 0
M  V30 11910 O 166.149 0.0897726 6.21935 0
M  V30 11911 C 164.959 -0.447224 8.1878 0
M  V30 11912 O 164.569 0.825065 8.71101 0
M  V30 11913 C 164.079 -0.783801 6.99623 0
M  V30 11914 C 164.789 -0.0619192 5.85967 0
M  V30 11915 N 164.739 -0.7859 4.56281 0
M  V30 11916 H 167.578 -1.93423 8.4679 0
M  V30 11917 H 167.85 -1.68181 6.71046 0
M  V30 11918 H 166.982 0.289041 8.15388 0
M  V30 11919 P 163.019 1.17771 8.83182 0
M  V30 11920 O 162.799 2.07206 9.98732 0
M  V30 11921 O 162.229 -0.0743816 8.81969 0
M  V30 11922 O 162.769 1.97652 7.47304 0
M  V30 11923 C 163.709 3.01133 7.08783 0
M  V30 11924 C 162.979 4.12613 6.37049 0
M  V30 11925 O 162.769 3.72827 4.97879 0
M  V30 11926 C 161.579 4.45085 6.88694 0
M  V30 11927 O 161.189 5.7877 6.5624 0
M  V30 11928 C 160.699 3.47817 6.12078 0
M  V30 11929 C 161.409 3.39414 4.77697 0
M  V30 11930 N 161.359 2.04199 4.15538 0
M  V30 11931 H 164.198 3.41248 7.98759 0
M  V30 11932 H 164.47 2.57728 6.42 0
M  V30 11933 H 163.602 5.02657 6.42673 0
M  V30 11934 H 160.947 4.11708 4.08956 0
M  V30 11935 H 160.667 2.49626 6.61679 0
M  V30 11936 H 159.676 3.8662 6.00862 0
M  V30 11937 H 161.51 4.29991 7.97006 0
M  V30 11938 P 159.639 6.144 6.45285 0
M  V30 11939 O 159.419 7.54673 6.86199 0
M  V30 11940 O 158.849 5.12391 7.179 0
M  V30 11941 O 159.389 5.99158 4.88404 0
M  V30 11942 C 160.329 6.60234 3.96415 0
M  V30 11943 C 159.599 7.08259 2.72856 0
M  V30 11944 O 159.389 5.9427 1.83651 0
M  V30 11945 C 158.199 7.64886 2.9555 0
M  V30 11946 O 157.809 8.53963 1.90717 0
M  V30 11947 C 157.319 6.4116 2.90739 0
M  V30 11948 C 158.029 5.55375 1.86963 0
M  V30 11949 N 157.979 4.09664 2.15742 0
M  V30 11950 H 160.818 7.45574 4.45629 0
M  V30 11951 H 161.09 5.86232 3.67314 0
M  V30 11952 H 160.222 7.84412 2.24479 0
M  V30 11953 P 156.259 8.7635 1.60911 0
M  V30 11954 O 156.039 10.1388 1.11561 0
M  V30 11955 O 155.469 8.36503 2.79617 0
M  V30 11956 O 156.009 7.71806 0.42951 0
M  V30 11957 C 156.949 7.67148 -0.673689 0
M  V30 11958 C 156.219 7.33374 -1.95559 0
M  V30 11959 O 156.009 5.88721 -2.00726 0
M  V30 11960 C 154.819 7.92526 -2.10483 0
M  V30 11961 O 154.429 8.02971 -3.47653 0
M  V30 11962 C 153.939 6.89602 -1.41652 0
M  V30 11963 C 154.649 5.59201 -1.75185 0
M  V30 11964 N 154.599 4.58301 -0.657969 0
M  V30 11965 C 154.679 4.79019 0.692603 0
M  V30 11966 N 154.609 3.69736 1.38998 0
M  V30 11967 C 154.459 2.70474 0.438135 0
M  V30 11968 C 154.329 1.30327 0.538142 0
M  V30 11969 N 154.319 0.64304 1.69192 0
M  V30 11970 N 154.209 0.611027 -0.605183 0
M  V30 11971 C 154.219 1.27002 -1.75953 0
M  V30 11972 N 154.339 2.56038 -1.98546 0
M  V30 11973 C 154.459 3.22681 -0.822541 0
M  V30 11974 H 157.438 8.65116 -0.777161 0
M  V30 11975 H 157.71 6.9022 -0.46725 0
M  V30 11976 H 156.842 7.66548 -2.79458 0
M  V30 11977 H 154.187 5.16165 -2.65183 0
M  V30 11978 H 153.907 7.06433 -0.329384 0
M  V30 11979 H 152.916 6.90926 -1.82021 0
M  V30 11980 H 154.75 8.90873 -1.62657 0
M  V30 11981 H 154.791 5.77785 1.13874 0
M  V30 11982 H 154.41 1.15585 2.57991 0
M  V30 11983 H 154.221 -0.382989 1.69835 0
M  V30 11984 H 154.113 0.653331 -2.64449 0
M  V30 11985 P 152.879 8.03563 -3.84925 0
M  V30 11986 O 152.659 8.85821 -5.0569 0
M  V30 11987 O 152.089 8.41101 -2.65469 0
M  V30 11988 O 152.629 6.49734 -4.18962 0
M  V30 11989 C 153.569 5.81037 -5.05421 0
M  V30 11990 C 152.839 4.79018 -5.88876 0
M  V30 11991 O 152.629 3.58359 -5.08515 0
M  V30 11992 C 151.439 5.17448 -6.36119 0
M  V30 11993 O 151.049 4.45322 -7.53318 0
M  V30 11994 C 150.559 4.74639 -5.19936 0
M  V30 11995 C 151.269 3.49432 -4.70418 0
M  V30 11996 N 151.219 3.31776 -3.22945 0
M  V30 11997 C 151.069 2.02742 -2.72939 0
M  V30 11998 O 150.979 1.08301 -3.52749 0
M  V30 11999 N 151.019 1.96117 -1.22063 0
M  V30 12000 C 151.119 2.8878 -0.551566 0
M  V30 12001 N 151.069 2.65609 0.750198 0
M  V30 12002 C 151.269 4.22457 -1.03707 0
M  V30 12003 C 151.319 4.37979 -2.39113 0
M  V30 12004 H 154.059 6.54138 -5.7131 0
M  V30 12005 H 154.329 5.30492 -4.44033 0
M  V30 12006 H 153.462 4.55945 -6.76735 0
M  V30 12007 H 150.807 2.6176 -5.18021 0
M  V30 12008 H 150.527 5.52233 -4.41941 0
M  V30 12009 H 149.536 4.52045 -5.53452 0
M  V30 12010 H 151.37 6.25124 -6.55234 0
M  V30 12011 H 151.442 5.37936 -2.80552 0
M  V30 12012 H 151.34 5.07528 -0.359553 0
M  V30 12013 H 150.952 1.69403 1.09847 0
M  V30 12014 H 151.148 3.43701 1.41792 0
M  V30 12015 P 149.499 4.23843 -7.83734 0
M  V30 12016 O 149.279 4.19407 -9.29784 0
M  V30 12017 O 148.709 5.24426 -7.09156 0
M  V30 12018 O 149.249 2.7935 -7.20758 0
M  V30 12019 C 150.189 1.7299 -7.50419 0
M  V30 12020 C 149.459 0.406376 -7.57911 0
M  V30 12021 O 149.249 -0.0897726 -6.21935 0
M  V30 12022 C 148.059 0.447224 -8.1878 0
M  V30 12023 O 147.669 -0.825065 -8.71101 0
M  V30 12024 C 147.179 0.783801 -6.99623 0
M  V30 12025 C 147.889 0.0619192 -5.85967 0
M  V30 12026 N 147.839 0.790462 -4.56202 0
M  V30 12027 C 147.919 2.13895 -4.34171 0
M  V30 12028 N 147.849 2.46449 -3.08687 0
M  V30 12029 C 147.699 1.2525 -2.43697 0
M  V30 12030 C 147.569 0.914535 -1.07318 0
M  V30 12031 N 147.559 1.80782 -0.0887348 0
M  V30 12032 N 147.449 -0.386745 -0.768133 0
M  V30 12033 C 147.459 -1.28096 -1.75159 0
M  V30 12034 N 147.579 -1.09708 -3.04861 0
M  V30 12035 C 147.699 0.214857 -3.32306 0
M  V30 12036 H 150.678 1.93423 -8.4679 0
M  V30 12037 H 150.95 1.68852 -6.70877 0
M  V30 12038 H 150.082 -0.289041 -8.15388 0
M  V30 12039 H 147.427 -0.927006 -5.72848 0
M  V30 12040 H 147.147 1.86973 -6.82036 0
M  V30 12041 H 146.156 0.403953 -7.13357 0
M  V30 12042 H 147.99 1.20599 -8.97534 0
M  V30 12043 H 148.031 2.86846 -5.14318 0
M  V30 12044 H 147.65 2.81082 -0.302037 0
M  V30 12045 H 147.461 1.49688 0.889064 0
M  V30 12046 H 147.353 -2.31317 -1.43855 0
M  V30 12047 P 146.119 -1.17771 -8.83182 0
M  V30 12048 O 145.899 -2.07206 -9.98732 0
M  V30 12049 O 145.329 0.0743816 -8.81969 0
M  V30 12050 O 145.869 -1.97652 -7.47304 0
M  V30 12051 C 146.809 -3.01133 -7.08783 0
M  V30 12052 C 146.079 -4.12613 -6.37049 0
M  V30 12053 O 145.869 -3.72827 -4.97879 0
M  V30 12054 C 144.679 -4.45085 -6.88694 0
M  V30 12055 O 144.289 -5.7877 -6.5624 0
M  V30 12056 C 143.799 -3.47817 -6.12078 0
M  V30 12057 C 144.509 -3.39414 -4.77697 0
M  V30 12058 N 144.459 -2.04615 -4.15333 0
M  V30 12059 H 147.298 -3.41248 -7.98759 0
M  V30 12060 H 147.57 -2.5837 -6.41742 0
M  V30 12061 H 146.702 -5.02657 -6.42673 0
M  V30 12062 P 142.739 -6.144 -6.45285 0
M  V30 12063 O 142.519 -7.54673 -6.86199 0
M  V30 12064 O 141.949 -5.12391 -7.179 0
M  V30 12065 O 142.489 -5.99158 -4.88404 0
M  V30 12066 C 143.429 -6.60062 -3.96313 0
M  V30 12067 C 142.699 -7.08259 -2.72856 0
M  V30 12068 O 142.489 -5.9427 -1.83651 0
M  V30 12069 C 141.299 -7.65087 -2.94749 0
M  V30 12070 O 140.909 -8.53963 -1.90717 0
M  V30 12071 C 140.419 -6.41069 -2.90698 0
M  V30 12072 C 141.129 -5.5528 -1.86931 0
M  V30 12073 N 141.079 -4.09575 -2.15696 0
M  V30 12074 C 140.929 -3.24249 -1.08435 0
M  V30 12075 O 140.839 -3.63946 0.0628747 0
M  V30 12076 N 140.889 -1.90009 -1.39973 0
M  V30 12077 C 140.979 -1.34884 -2.65614 0
M  V30 12078 O 140.929 -0.123716 -2.81728 0
M  V30 12079 C 141.129 -2.3145 -3.71736 0
M  V30 12080 C 141.239 -1.75913 -5.10438 0
M  V30 12081 C 141.179 -3.63518 -3.44754 0
M  V30 12082 H 143.92 -7.45402 -4.45526 0
M  V30 12083 H 144.189 -5.86062 -3.67208 0
M  V30 12084 H 143.322 -7.84412 -2.24479 0
M  V30 12085 H 140.667 -5.73358 -0.888409 0
M  V30 12086 H 140.388 -5.90877 -3.88583 0
M  V30 12087 H 139.396 -6.65867 -2.58821 0
M  V30 12088 H 141.23 -8.16248 -3.92006 0
M  V30 12089 H 141.301 -4.34551 -4.26383 0
M  V30 12090 H 140.271 -1.85471 -5.61775 0
M  V30 12091 H 142.008 -2.31364 -5.66257 0
M  V30 12092 H 141.52 -0.695936 -5.05229 0
M  V30 12093 H 140.784 -1.26277 -0.63625 0
M  V30 12094 P 139.359 -8.7635 -1.60911 0
M  V30 12095 O 139.139 -10.1388 -1.11561 0
M  V30 12096 O 138.569 -8.36503 -2.79617 0
M  V30 12097 O 139.109 -7.71806 -0.42951 0
M  V30 12098 C 140.049 -7.67148 0.673689 0
M  V30 12099 C 139.319 -7.33374 1.95559 0
M  V30 12100 O 139.109 -5.88721 2.00726 0
M  V30 12101 C 137.919 -7.92526 2.10483 0
M  V30 12102 O 137.529 -8.02971 3.47653 0
M  V30 12103 C 137.039 -6.89602 1.41652 0
M  V30 12104 C 137.749 -5.59201 1.75185 0
M  V30 12105 N 137.699 -4.58301 0.657969 0
M  V30 12106 H 140.538 -8.65116 0.777161 0
M  V30 12107 H 140.81 -6.9022 0.46725 0
M  V30 12108 H 139.942 -7.66548 2.79458 0
M  V30 12109 H 137.287 -5.16165 2.65183 0
M  V30 12110 H 137.007 -7.06433 0.329384 0
M  V30 12111 H 136.016 -6.90926 1.82021 0
M  V30 12112 H 137.85 -8.90873 1.62657 0
M  V30 12113 P 135.979 -8.03563 3.84925 0
M  V30 12114 O 135.759 -8.85821 5.0569 0
M  V30 12115 O 135.189 -8.41101 2.65469 0
M  V30 12116 O 135.729 -6.4965 4.18908 0
M  V30 12117 C 136.669 -5.81037 5.05421 0
M  V30 12118 C 135.939 -4.78366 5.89277 0
M  V30 12119 O 135.729 -3.58302 5.08433 0
M  V30 12120 C 134.539 -5.17448 6.36119 0
M  V30 12121 O 134.149 -4.45271 7.53232 0
M  V30 12122 C 133.659 -4.74639 5.19936 0
M  V30 12123 C 134.369 -3.49432 4.70418 0
M  V30 12124 N 134.319 -3.31776 3.22945 0
M  V30 12125 H 137.158 -6.54213 5.71376 0
M  V30 12126 H 137.43 -5.30492 4.44033 0
M  V30 12127 H 136.562 -4.55889 6.76652 0
M  V30 12128 P 132.599 -4.23843 7.83734 0
M  V30 12129 O 132.379 -4.19407 9.29784 0
M  V30 12130 O 131.809 -5.24426 7.09156 0
M  V30 12131 O 132.349 -2.79386 7.20852 0
M  V30 12132 C 133.289 -1.7299 7.50419 0
M  V30 12133 C 132.559 -0.41401 7.5797 0
M  V30 12134 O 132.349 0.089787 6.22035 0
M  V30 12135 C 131.159 -0.447224 8.1878 0
M  V30 12136 O 130.769 0.825159 8.71201 0
M  V30 12137 C 130.279 -0.783801 6.99623 0
M  V30 12138 C 130.989 -0.0619192 5.85967 0
M  V30 12139 N 130.939 -0.7859 4.56281 0
M  V30 12140 C 130.789 -0.0359258 3.39981 0
M  V30 12141 O 130.699 1.19723 3.49038 0
M  V30 12142 N 130.739 -0.869151 2.14025 0
M  V30 12143 C 130.839 -2.01207 2.14363 0
M  V30 12144 N 130.789 -2.58978 0.954287 0
M  V30 12145 C 130.989 -2.80817 3.32215 0
M  V30 12146 C 131.039 -2.13785 4.50884 0
M  V30 12147 H 133.779 -1.93401 8.46693 0
M  V30 12148 H 134.049 -1.68181 6.71046 0
M  V30 12149 H 133.182 0.289076 8.15488 0
M  V30 12150 H 130.527 0.927166 5.72947 0
M  V30 12151 H 130.247 -1.87 6.82132 0
M  V30 12152 H 129.256 -0.404009 7.13457 0
M  V30 12153 H 131.09 -1.20599 8.97534 0
M  V30 12154 H 131.162 -2.70295 5.43162 0
M  V30 12155 H 131.06 -3.89465 3.27406 0
M  V30 12156 H 130.672 -2.01616 0.107046 0
M  V30 12157 H 130.868 -3.61403 0.873101 0
M  V30 12158 P 129.219 1.17771 8.83182 0
M  V30 12159 O 128.999 2.07206 9.98732 0
M  V30 12160 O 128.429 -0.0743816 8.81969 0
M  V30 12161 O 128.969 1.97652 7.47304 0
M  V30 12162 C 129.909 3.01133 7.08783 0
M  V30 12163 C 129.179 4.12613 6.37049 0
M  V30 12164 O 128.969 3.72827 4.97879 0
M  V30 12165 C 127.779 4.45085 6.88694 0
M  V30 12166 O 127.389 5.7877 6.5624 0
M  V30 12167 C 126.899 3.47817 6.12078 0
M  V30 12168 C 127.609 3.39414 4.77697 0
M  V30 12169 N 127.559 2.04199 4.15538 0
M  V30 12170 H 130.398 3.41248 7.98759 0
M  V30 12171 H 130.67 2.57728 6.42 0
M  V30 12172 H 129.802 5.02657 6.42673 0
M  V30 12173 H 127.147 4.11708 4.08956 0
M  V30 12174 H 126.867 2.49626 6.61679 0
M  V30 12175 H 125.876 3.8662 6.00862 0
M  V30 12176 H 127.71 4.29991 7.97006 0
M  V30 12177 P 125.839 6.144 6.45285 0
M  V30 12178 O 125.619 7.54673 6.86199 0
M  V30 12179 O 125.049 5.12391 7.179 0
M  V30 12180 O 125.589 5.99158 4.88404 0
M  V30 12181 C 126.529 6.60234 3.96415 0
M  V30 12182 C 125.799 7.08259 2.72856 0
M  V30 12183 O 125.589 5.9427 1.83651 0
M  V30 12184 C 124.399 7.64886 2.9555 0
M  V30 12185 O 124.009 8.53963 1.90717 0
M  V30 12186 C 123.519 6.4116 2.90739 0
M  V30 12187 C 124.229 5.55375 1.86963 0
M  V30 12188 N 124.179 4.09448 2.16152 0
M  V30 12189 C 124.259 3.46824 3.37593 0
M  V30 12190 N 124.189 2.17422 3.29777 0
M  V30 12191 C 124.039 1.93065 1.94427 0
M  V30 12192 C 123.909 0.738053 1.20141 0
M  V30 12193 N 123.899 -0.474256 1.74676 0
M  V30 12194 N 123.789 0.850049 -0.13045 0
M  V30 12195 C 123.799 2.06169 -0.676992 0
M  V30 12196 N 123.919 3.23842 -0.101312 0
M  V30 12197 C 124.039 3.09402 1.23122 0
M  V30 12198 H 127.018 7.45574 4.45629 0
M  V30 12199 H 127.29 5.85864 3.679 0
M  V30 12200 H 126.422 7.84412 2.24479 0
M  V30 12201 H 123.767 5.73457 0.888562 0
M  V30 12202 H 123.487 5.90877 3.88583 0
M  V30 12203 H 122.496 6.6596 2.58858 0
M  V30 12204 H 124.33 8.16339 3.92049 0
M  V30 12205 H 124.371 4.00505 4.3174 0
M  V30 12206 H 123.99 -0.581337 2.76658 0
M  V30 12207 H 123.801 -1.30811 1.14888 0
M  V30 12208 H 123.693 2.08295 -1.75542 0
M  V30 12209 P 122.459 8.7635 1.60911 0
M  V30 12210 O 122.239 10.1388 1.11561 0
M  V30 12211 O 121.669 8.36503 2.79617 0
M  V30 12212 O 122.209 7.71806 0.42951 0
M  V30 12213 C 123.149 7.67148 -0.673689 0
M  V30 12214 C 122.419 7.33374 -1.95559 0
M  V30 12215 O 122.209 5.88721 -2.00726 0
M  V30 12216 C 121.019 7.92526 -2.10483 0
M  V30 12217 O 120.629 8.02971 -3.47653 0
M  V30 12218 C 120.139 6.89602 -1.41652 0
M  V30 12219 C 120.849 5.59201 -1.75185 0
M  V30 12220 N 120.799 4.58235 -0.662552 0
M  V30 12221 H 123.638 8.65116 -0.777161 0
M  V30 12222 H 123.91 6.90173 -0.474152 0
M  V30 12223 H 123.042 7.66548 -2.79458 0
M  V30 12224 P 119.079 8.03563 -3.84925 0
M  V30 12225 O 118.859 8.85821 -5.0569 0
M  V30 12226 O 118.289 8.41101 -2.65469 0
M  V30 12227 O 118.829 6.4965 -4.18908 0
M  V30 12228 C 119.769 5.81037 -5.05421 0
M  V30 12229 C 119.039 4.78366 -5.89277 0
M  V30 12230 O 118.829 3.58302 -5.08433 0
M  V30 12231 C 117.639 5.17448 -6.36119 0
M  V30 12232 O 117.249 4.45271 -7.53232 0
M  V30 12233 C 116.759 4.74639 -5.19936 0
M  V30 12234 C 117.469 3.49432 -4.70418 0
M  V30 12235 N 117.419 3.32099 -3.22613 0
M  V30 12236 C 117.499 4.28245 -2.25527 0
M  V30 12237 N 117.429 3.80823 -1.04874 0
M  V30 12238 C 117.279 2.44571 -1.23535 0
M  V30 12239 C 117.149 1.37068 -0.330675 0
M  V30 12240 N 117.139 1.51472 0.990824 0
M  V30 12241 N 117.029 0.138614 -0.848756 0
M  V30 12242 C 117.039 -0.00675923 -2.16999 0
M  V30 12243 N 117.159 0.904372 -3.11122 0
M  V30 12244 C 117.279 2.12707 -2.56212 0
M  V30 12245 H 120.258 6.54213 -5.71376 0
M  V30 12246 H 120.53 5.30936 -4.43503 0
M  V30 12247 H 119.662 4.55889 -6.76652 0
M  V30 12248 H 117.007 2.61715 -5.17932 0
M  V30 12249 H 116.727 5.52155 -4.41878 0
M  V30 12250 H 115.736 4.51981 -5.53374 0
M  V30 12251 H 117.57 6.25124 -6.55234 0
M  V30 12252 H 117.611 5.34372 -2.47488 0
M  V30 12253 H 117.23 2.45153 1.4078 0
M  V30 12254 H 117.041 0.688422 1.59911 0
M  V30 12255 H 116.933 -1.02584 -2.52346 0
M  V30 12256 P 115.699 4.23843 -7.83734 0
M  V30 12257 O 115.479 4.19407 -9.29784 0
M  V30 12258 O 114.909 5.24426 -7.09156 0
M  V30 12259 O 115.449 2.7935 -7.20758 0
M  V30 12260 C 116.389 1.7299 -7.50419 0
M  V30 12261 C 115.659 0.406376 -7.57911 0
M  V30 12262 O 115.449 -0.0897726 -6.21935 0
M  V30 12263 C 114.259 0.447224 -8.1878 0
M  V30 12264 O 113.869 -0.825065 -8.71101 0
M  V30 12265 C 113.379 0.783801 -6.99623 0
M  V30 12266 C 114.089 0.0619192 -5.85967 0
M  V30 12267 N 114.039 0.7859 -4.56281 0
M  V30 12268 H 116.878 1.93423 -8.4679 0
M  V30 12269 H 117.15 1.68181 -6.71046 0
M  V30 12270 H 116.282 -0.289041 -8.15388 0
M  V30 12271 P 112.319 -1.17771 -8.83182 0
M  V30 12272 O 112.099 -2.07206 -9.98732 0
M  V30 12273 O 111.529 0.0743816 -8.81969 0
M  V30 12274 O 112.069 -1.97652 -7.47304 0
M  V30 12275 C 113.009 -3.01133 -7.08783 0
M  V30 12276 C 112.279 -4.12613 -6.37049 0
M  V30 12277 O 112.069 -3.72827 -4.97879 0
M  V30 12278 C 110.879 -4.45085 -6.88694 0
M  V30 12279 O 110.489 -5.7877 -6.5624 0
M  V30 12280 C 109.999 -3.47817 -6.12078 0
M  V30 12281 C 110.709 -3.39414 -4.77697 0
M  V30 12282 N 110.659 -2.04615 -4.15333 0
M  V30 12283 H 113.498 -3.41248 -7.98759 0
M  V30 12284 H 113.77 -2.5837 -6.41742 0
M  V30 12285 H 112.902 -5.02657 -6.42673 0
M  V30 12286 P 108.939 -6.144 -6.45285 0
M  V30 12287 O 108.719 -7.54673 -6.86199 0
M  V30 12288 O 108.149 -5.12391 -7.179 0
M  V30 12289 O 108.689 -5.99158 -4.88404 0
M  V30 12290 C 109.629 -6.60234 -3.96415 0
M  V30 12291 C 108.899 -7.08259 -2.72856 0
M  V30 12292 O 108.689 -5.9427 -1.83651 0
M  V30 12293 C 107.499 -7.64886 -2.9555 0
M  V30 12294 O 107.109 -8.53963 -1.90717 0
M  V30 12295 C 106.619 -6.4116 -2.90739 0
M  V30 12296 C 107.329 -5.55375 -1.86963 0
M  V30 12297 N 107.279 -4.09664 -2.15742 0
M  V30 12298 H 110.118 -7.45574 -4.45629 0
M  V30 12299 H 110.39 -5.86232 -3.67314 0
M  V30 12300 H 109.522 -7.84412 -2.24479 0
M  V30 12301 P 105.559 -8.7635 -1.60911 0
M  V30 12302 O 105.339 -10.1388 -1.11561 0
M  V30 12303 O 104.769 -8.36503 -2.79617 0
M  V30 12304 O 105.309 -7.71906 -0.429565 0
M  V30 12305 C 106.249 -7.67148 0.673689 0
M  V30 12306 C 105.519 -7.33666 1.94851 0
M  V30 12307 O 105.309 -5.88816 2.00759 0
M  V30 12308 C 104.119 -7.92526 2.10483 0
M  V30 12309 O 103.729 -8.03063 3.47693 0
M  V30 12310 C 103.239 -6.89602 1.41652 0
M  V30 12311 C 103.949 -5.59201 1.75185 0
M  V30 12312 N 103.899 -4.58235 0.662552 0
M  V30 12313 C 103.749 -3.24451 1.01643 0
M  V30 12314 O 103.659 -2.94958 2.21722 0
M  V30 12315 N 103.699 -2.30408 -0.165238 0
M  V30 12316 C 103.799 -2.66048 -1.25118 0
M  V30 12317 N 103.749 -1.70787 -2.16813 0
M  V30 12318 C 103.949 -4.02732 -1.64413 0
M  V30 12319 C 103.999 -4.9488 -0.63991 0
M  V30 12320 H 106.739 -8.65017 0.777072 0
M  V30 12321 H 107.009 -6.90173 0.474152 0
M  V30 12322 H 106.142 -7.66642 2.79492 0
M  V30 12323 H 103.487 -5.16254 2.65229 0
M  V30 12324 H 103.207 -7.06532 0.329431 0
M  V30 12325 H 102.216 -6.91023 1.82047 0
M  V30 12326 H 104.05 -8.90873 1.62657 0
M  V30 12327 H 104.122 -6.00104 -0.892197 0
M  V30 12328 H 104.02 -4.31733 -2.69229 0
M  V30 12329 H 103.632 -0.724835 -1.8844 0
M  V30 12330 H 103.828 -1.94716 -3.16734 0
M  V30 12331 P 102.179 -8.03563 3.84925 0
M  V30 12332 O 101.959 -8.85821 5.0569 0
M  V30 12333 O 101.389 -8.41101 2.65469 0
M  V30 12334 O 101.929 -6.4965 4.18908 0
M  V30 12335 C 102.869 -5.81037 5.05421 0
M  V30 12336 C 102.139 -4.78366 5.89277 0
M  V30 12337 O 101.929 -3.58302 5.08433 0
M  V30 12338 C 100.739 -5.17448 6.36119 0
M  V30 12339 O 100.349 -4.45271 7.53232 0
M  V30 12340 C 99.8594 -4.74639 5.19936 0
M  V30 12341 C 100.569 -3.49432 4.70418 0
M  V30 12342 N 100.519 -3.32099 3.22613 0
M  V30 12343 H 103.358 -6.54213 5.71376 0
M  V30 12344 H 103.63 -5.30936 4.43503 0
M  V30 12345 H 102.762 -4.55889 6.76652 0
M  V30 12346 H 100.107 -2.61715 5.17932 0
M  V30 12347 H 99.8274 -5.52155 4.41878 0
M  V30 12348 H 98.8364 -4.51981 5.53374 0
M  V30 12349 H 100.67 -6.25124 6.55234 0
M  V30 12350 P 98.7994 -4.23843 7.83734 0
M  V30 12351 O 98.5794 -4.19407 9.29784 0
M  V30 12352 O 98.0094 -5.24426 7.09156 0
M  V30 12353 O 98.5494 -2.7935 7.20758 0
M  V30 12354 C 99.4894 -1.7299 7.50419 0
M  V30 12355 C 98.7594 -0.406376 7.57911 0
M  V30 12356 O 98.5494 0.0897726 6.21935 0
M  V30 12357 C 97.3594 -0.447224 8.1878 0
M  V30 12358 O 96.9694 0.825065 8.71101 0
M  V30 12359 C 96.4794 -0.783801 6.99623 0
M  V30 12360 C 97.1894 -0.0619192 5.85967 0
M  V30 12361 N 97.1394 -0.7859 4.56281 0
M  V30 12362 H 99.9784 -1.93423 8.4679 0
M  V30 12363 H 100.25 -1.68181 6.71046 0
M  V30 12364 H 99.3824 0.289041 8.15388 0
M  V30 12365 P 95.4195 1.17771 8.83182 0
M  V30 12366 O 95.1995 2.07206 9.98732 0
M  V30 12367 O 94.6295 -0.0743816 8.81969 0
M  V30 12368 O 95.1695 1.97652 7.47304 0
M  V30 12369 C 96.1095 3.01133 7.08783 0
M  V30 12370 C 95.3795 4.12613 6.37049 0
M  V30 12371 O 95.1695 3.72827 4.97879 0
M  V30 12372 C 93.9795 4.45085 6.88694 0
M  V30 12373 O 93.5895 5.7877 6.5624 0
M  V30 12374 C 93.0995 3.47817 6.12078 0
M  V30 12375 C 93.8095 3.39414 4.77697 0
M  V30 12376 N 93.7595 2.04615 4.15333 0
M  V30 12377 H 96.5985 3.41248 7.98759 0
M  V30 12378 H 96.8705 2.5837 6.41742 0
M  V30 12379 H 96.0025 5.02657 6.42673 0
M  V30 12380 P 92.0395 6.144 6.45285 0
M  V30 12381 O 91.8195 7.54673 6.86199 0
M  V30 12382 O 91.2495 5.12391 7.179 0
M  V30 12383 O 91.7895 5.99158 4.88404 0
M  V30 12384 C 92.7295 6.60234 3.96415 0
M  V30 12385 C 91.9995 7.08259 2.72856 0
M  V30 12386 O 91.7895 5.9427 1.83651 0
M  V30 12387 C 90.5995 7.64886 2.9555 0
M  V30 12388 O 90.2095 8.53963 1.90717 0
M  V30 12389 C 89.7195 6.4116 2.90739 0
M  V30 12390 C 90.4295 5.55375 1.86963 0
M  V30 12391 N 90.3795 4.09448 2.16152 0
M  V30 12392 C 90.4595 3.46824 3.37593 0
M  V30 12393 N 90.3895 2.17422 3.29777 0
M  V30 12394 C 90.2395 1.93065 1.94427 0
M  V30 12395 C 90.1095 0.738053 1.20141 0
M  V30 12396 N 90.0995 -0.474256 1.74676 0
M  V30 12397 N 89.9895 0.850049 -0.13045 0
M  V30 12398 C 89.9995 2.06169 -0.676992 0
M  V30 12399 N 90.1195 3.23842 -0.101312 0
M  V30 12400 C 90.2395 3.09402 1.23122 0
M  V30 12401 H 93.2185 7.45574 4.45629 0
M  V30 12402 H 93.4905 5.85864 3.679 0
M  V30 12403 H 92.6225 7.84412 2.24479 0
M  V30 12404 H 89.9675 5.73457 0.888562 0
M  V30 12405 H 89.6875 5.90877 3.88583 0
M  V30 12406 H 88.6965 6.6596 2.58858 0
M  V30 12407 H 90.5305 8.16339 3.92049 0
M  V30 12408 H 90.5715 4.00505 4.3174 0
M  V30 12409 H 90.1905 -0.581337 2.76658 0
M  V30 12410 H 90.0015 -1.30811 1.14888 0
M  V30 12411 H 89.8935 2.08295 -1.75542 0
M  V30 12412 P 88.6595 8.7635 1.60911 0
M  V30 12413 O 88.4395 10.1388 1.11561 0
M  V30 12414 O 87.8695 8.36503 2.79617 0
M  V30 12415 O 88.4095 7.71806 0.42951 0
M  V30 12416 C 89.3495 7.67148 -0.673689 0
M  V30 12417 C 88.6195 7.33374 -1.95559 0
M  V30 12418 O 88.4095 5.88721 -2.00726 0
M  V30 12419 C 87.2195 7.92526 -2.10483 0
M  V30 12420 O 86.8295 8.02971 -3.47653 0
M  V30 12421 C 86.3395 6.89602 -1.41652 0
M  V30 12422 C 87.0495 5.59201 -1.75185 0
M  V30 12423 N 86.9995 4.58301 -0.657969 0
M  V30 12424 H 89.8385 8.65116 -0.777161 0
M  V30 12425 H 90.1105 6.9022 -0.46725 0
M  V30 12426 H 89.2425 7.66548 -2.79458 0
M  V30 12427 H 86.5875 5.16165 -2.65183 0
M  V30 12428 H 86.3075 7.06433 -0.329384 0
M  V30 12429 H 85.3165 6.90926 -1.82021 0
M  V30 12430 H 87.1505 8.90873 -1.62657 0
M  V30 12431 P 85.2795 8.03563 -3.84925 0
M  V30 12432 O 85.0595 8.85821 -5.0569 0
M  V30 12433 O 84.4895 8.41101 -2.65469 0
M  V30 12434 O 85.0295 6.4965 -4.18908 0
M  V30 12435 C 85.9695 5.81037 -5.05421 0
M  V30 12436 C 85.2395 4.78366 -5.89277 0
M  V30 12437 O 85.0295 3.58302 -5.08433 0
M  V30 12438 C 83.8395 5.17448 -6.36119 0
M  V30 12439 O 83.4495 4.45271 -7.53232 0
M  V30 12440 C 82.9595 4.74639 -5.19936 0
M  V30 12441 C 83.6695 3.49432 -4.70418 0
M  V30 12442 N 83.6195 3.31776 -3.22945 0
M  V30 12443 H 86.4585 6.54213 -5.71376 0
M  V30 12444 H 86.7305 5.30492 -4.44033 0
M  V30 12445 H 85.8625 4.55889 -6.76652 0
M  V30 12446 P 81.8995 4.23843 -7.83734 0
M  V30 12447 O 81.6795 4.19407 -9.29784 0
M  V30 12448 O 81.1095 5.24426 -7.09156 0
M  V30 12449 O 81.6495 2.7935 -7.20758 0
M  V30 12450 C 82.5895 1.7299 -7.50419 0
M  V30 12451 C 81.8595 0.406376 -7.57911 0
M  V30 12452 O 81.6495 -0.0897726 -6.21935 0
M  V30 12453 C 80.4595 0.447224 -8.1878 0
M  V30 12454 O 80.0695 -0.825065 -8.71101 0
M  V30 12455 C 79.5795 0.783801 -6.99623 0
M  V30 12456 C 80.2895 0.0619192 -5.85967 0
M  V30 12457 N 80.2395 0.7859 -4.56281 0
M  V30 12458 H 83.0785 1.93423 -8.4679 0
M  V30 12459 H 83.3505 1.68181 -6.71046 0
M  V30 12460 H 82.4825 -0.289041 -8.15388 0
M  V30 12461 P 78.5196 -1.17771 -8.83182 0
M  V30 12462 O 78.2996 -2.07206 -9.98732 0
M  V30 12463 O 77.7296 0.0743816 -8.81969 0
M  V30 12464 O 78.2696 -1.97652 -7.47304 0
M  V30 12465 C 79.2096 -3.01133 -7.08783 0
M  V30 12466 C 78.4796 -4.12613 -6.37049 0
M  V30 12467 O 78.2696 -3.72827 -4.97879 0
M  V30 12468 C 77.0796 -4.45085 -6.88694 0
M  V30 12469 O 76.6896 -5.7877 -6.5624 0
M  V30 12470 C 76.1996 -3.47817 -6.12078 0
M  V30 12471 C 76.9096 -3.39414 -4.77697 0
M  V30 12472 N 76.8596 -2.04199 -4.15538 0
M  V30 12473 H 79.6986 -3.41248 -7.98759 0
M  V30 12474 H 79.9706 -2.57728 -6.42 0
M  V30 12475 H 79.1026 -5.02657 -6.42673 0
M  V30 12476 H 76.4476 -4.11708 -4.08956 0
M  V30 12477 H 76.1676 -2.49626 -6.61679 0
M  V30 12478 H 75.1766 -3.8662 -6.00862 0
M  V30 12479 H 77.0106 -4.29991 -7.97006 0
M  V30 12480 P 75.1396 -6.144 -6.45285 0
M  V30 12481 O 74.9196 -7.54673 -6.86199 0
M  V30 12482 O 74.3496 -5.12391 -7.179 0
M  V30 12483 O 74.8896 -5.99158 -4.88404 0
M  V30 12484 C 75.8296 -6.60234 -3.96415 0
M  V30 12485 C 75.0996 -7.08259 -2.72856 0
M  V30 12486 O 74.8896 -5.9427 -1.83651 0
M  V30 12487 C 73.6996 -7.64886 -2.9555 0
M  V30 12488 O 73.3096 -8.53963 -1.90717 0
M  V30 12489 C 72.8196 -6.4116 -2.90739 0
M  V30 12490 C 73.5296 -5.55375 -1.86963 0
M  V30 12491 N 73.4796 -4.09664 -2.15742 0
M  V30 12492 H 76.3186 -7.45574 -4.45629 0
M  V30 12493 H 76.5906 -5.86232 -3.67314 0
M  V30 12494 H 75.7226 -7.84412 -2.24479 0
M  V30 12495 P 71.7596 -8.7635 -1.60911 0
M  V30 12496 O 71.5396 -10.1388 -1.11561 0
M  V30 12497 O 70.9696 -8.36503 -2.79617 0
M  V30 12498 O 71.5096 -7.71806 -0.42951 0
M  V30 12499 C 72.4496 -7.67148 0.673689 0
M  V30 12500 C 71.7196 -7.33374 1.95559 0
M  V30 12501 O 71.5096 -5.88721 2.00726 0
M  V30 12502 C 70.3196 -7.92526 2.10483 0
M  V30 12503 O 69.9296 -8.02971 3.47653 0
M  V30 12504 C 69.4396 -6.89602 1.41652 0
M  V30 12505 C 70.1496 -5.59201 1.75185 0
M  V30 12506 N 70.0996 -4.58235 0.662552 0
M  V30 12507 H 72.9386 -8.65116 0.777161 0
M  V30 12508 H 73.2106 -6.90173 0.474152 0
M  V30 12509 H 72.3426 -7.66548 2.79458 0
M  V30 12510 P 68.3796 -8.03563 3.84925 0
M  V30 12511 O 68.1596 -8.85821 5.0569 0
M  V30 12512 O 67.5896 -8.41101 2.65469 0
M  V30 12513 O 68.1296 -6.4965 4.18908 0
M  V30 12514 C 69.0696 -5.81037 5.05421 0
M  V30 12515 C 68.3396 -4.78366 5.89277 0
M  V30 12516 O 68.1296 -3.58302 5.08433 0
M  V30 12517 C 66.9396 -5.17448 6.36119 0
M  V30 12518 O 66.5496 -4.45271 7.53232 0
M  V30 12519 C 66.0596 -4.74639 5.19936 0
M  V30 12520 C 66.7696 -3.49432 4.70418 0
M  V30 12521 N 66.7196 -3.31776 3.22945 0
M  V30 12522 H 69.5586 -6.54213 5.71376 0
M  V30 12523 H 69.8306 -5.30492 4.44033 0
M  V30 12524 H 68.9626 -4.55889 6.76652 0
M  V30 12525 P 64.9996 -4.23843 7.83734 0
M  V30 12526 O 64.7796 -4.19407 9.29784 0
M  V30 12527 O 64.2096 -5.24426 7.09156 0
M  V30 12528 O 64.7496 -2.7935 7.20758 0
M  V30 12529 C 65.6896 -1.7299 7.50419 0
M  V30 12530 C 64.9596 -0.406376 7.57911 0
M  V30 12531 O 64.7496 0.0897726 6.21935 0
M  V30 12532 C 63.5596 -0.447224 8.1878 0
M  V30 12533 O 63.1696 0.825065 8.71101 0
M  V30 12534 C 62.6796 -0.783801 6.99623 0
M  V30 12535 C 63.3896 -0.0619192 5.85967 0
M  V30 12536 N 63.3396 -0.7859 4.56281 0
M  V30 12537 H 66.1786 -1.93423 8.4679 0
M  V30 12538 H 66.4506 -1.68181 6.71046 0
M  V30 12539 H 65.5826 0.289041 8.15388 0
M  V30 12540 P 61.6197 1.17771 8.83182 0
M  V30 12541 O 61.3997 2.07206 9.98732 0
M  V30 12542 O 60.8297 -0.0743816 8.81969 0
M  V30 12543 O 61.3697 1.97652 7.47304 0
M  V30 12544 C 62.3097 3.01133 7.08783 0
M  V30 12545 C 61.5797 4.12613 6.37049 0
M  V30 12546 O 61.3697 3.72827 4.97879 0
M  V30 12547 C 60.1797 4.45085 6.88694 0
M  V30 12548 O 59.7897 5.7877 6.5624 0
M  V30 12549 C 59.2997 3.47817 6.12078 0
M  V30 12550 C 60.0097 3.39414 4.77697 0
M  V30 12551 N 59.9597 2.04615 4.15333 0
M  V30 12552 H 62.7987 3.41248 7.98759 0
M  V30 12553 H 63.0707 2.5837 6.41742 0
M  V30 12554 H 62.2027 5.02657 6.42673 0
M  V30 12555 P 58.2397 6.144 6.45285 0
M  V30 12556 O 58.0197 7.54673 6.86199 0
M  V30 12557 O 57.4497 5.12391 7.179 0
M  V30 12558 O 57.9897 5.99158 4.88404 0
M  V30 12559 C 58.9297 6.60234 3.96415 0
M  V30 12560 C 58.1997 7.08259 2.72856 0
M  V30 12561 O 57.9897 5.9427 1.83651 0
M  V30 12562 C 56.7997 7.64886 2.9555 0
M  V30 12563 O 56.4097 8.53963 1.90717 0
M  V30 12564 C 55.9197 6.4116 2.90739 0
M  V30 12565 C 56.6297 5.55375 1.86963 0
M  V30 12566 N 56.5797 4.09448 2.16152 0
M  V30 12567 C 56.6597 3.46824 3.37593 0
M  V30 12568 N 56.5897 2.17422 3.29777 0
M  V30 12569 C 56.4397 1.93065 1.94427 0
M  V30 12570 C 56.3097 0.738053 1.20141 0
M  V30 12571 N 56.2997 -0.474256 1.74676 0
M  V30 12572 N 56.1897 0.850049 -0.13045 0
M  V30 12573 C 56.1997 2.06169 -0.676992 0
M  V30 12574 N 56.3197 3.23842 -0.101312 0
M  V30 12575 C 56.4397 3.09402 1.23122 0
M  V30 12576 H 59.4187 7.45574 4.45629 0
M  V30 12577 H 59.6907 5.85864 3.679 0
M  V30 12578 H 58.8227 7.84412 2.24479 0
M  V30 12579 H 56.1677 5.73457 0.888562 0
M  V30 12580 H 55.8877 5.90877 3.88583 0
M  V30 12581 H 54.8967 6.6596 2.58858 0
M  V30 12582 H 56.7307 8.16339 3.92049 0
M  V30 12583 H 56.7717 4.00505 4.3174 0
M  V30 12584 H 56.3907 -0.581337 2.76658 0
M  V30 12585 H 56.2017 -1.30811 1.14888 0
M  V30 12586 H 56.0937 2.08295 -1.75542 0
M  V30 12587 P 54.8597 8.7635 1.60911 0
M  V30 12588 O 54.6397 10.1388 1.11561 0
M  V30 12589 O 54.0697 8.36503 2.79617 0
M  V30 12590 O 54.6097 7.71806 0.42951 0
M  V30 12591 C 55.5497 7.67148 -0.673689 0
M  V30 12592 C 54.8197 7.33374 -1.95559 0
M  V30 12593 O 54.6097 5.88721 -2.00726 0
M  V30 12594 C 53.4197 7.92526 -2.10483 0
M  V30 12595 O 53.0297 8.02971 -3.47653 0
M  V30 12596 C 52.5397 6.89602 -1.41652 0
M  V30 12597 C 53.2497 5.59201 -1.75185 0
M  V30 12598 N 53.1997 4.58235 -0.662552 0
M  V30 12599 H 56.0387 8.65116 -0.777161 0
M  V30 12600 H 56.3107 6.90173 -0.474152 0
M  V30 12601 H 55.4427 7.66548 -2.79458 0
M  V30 12602 P 51.4797 8.03563 -3.84925 0
M  V30 12603 O 51.2597 8.85821 -5.0569 0
M  V30 12604 O 50.6897 8.41101 -2.65469 0
M  V30 12605 O 51.2297 6.4965 -4.18908 0
M  V30 12606 C 52.1697 5.81037 -5.05421 0
M  V30 12607 C 51.4397 4.78366 -5.89277 0
M  V30 12608 O 51.2297 3.58302 -5.08433 0
M  V30 12609 C 50.0397 5.17448 -6.36119 0
M  V30 12610 O 49.6497 4.45271 -7.53232 0
M  V30 12611 C 49.1597 4.74639 -5.19936 0
M  V30 12612 C 49.8697 3.49432 -4.70418 0
M  V30 12613 N 49.8197 3.32099 -3.22613 0
M  V30 12614 H 52.6587 6.54213 -5.71376 0
M  V30 12615 H 52.9307 5.30936 -4.43503 0
M  V30 12616 H 52.0627 4.55889 -6.76652 0
M  V30 12617 H 49.4077 2.61715 -5.17932 0
M  V30 12618 H 49.1277 5.52155 -4.41878 0
M  V30 12619 H 48.1367 4.51981 -5.53374 0
M  V30 12620 H 49.9707 6.25124 -6.55234 0
M  V30 12621 P 48.0997 4.23843 -7.83734 0
M  V30 12622 O 47.8797 4.19407 -9.29784 0
M  V30 12623 O 47.3097 5.24426 -7.09156 0
M  V30 12624 O 47.8497 2.7935 -7.20758 0
M  V30 12625 C 48.7897 1.7299 -7.50419 0
M  V30 12626 C 48.0597 0.406376 -7.57911 0
M  V30 12627 O 47.8497 -0.0897726 -6.21935 0
M  V30 12628 C 46.6597 0.447224 -8.1878 0
M  V30 12629 O 46.2697 -0.825065 -8.71101 0
M  V30 12630 C 45.7797 0.783801 -6.99623 0
M  V30 12631 C 46.4897 0.0619192 -5.85967 0
M  V30 12632 N 46.4397 0.7859 -4.56281 0
M  V30 12633 H 49.2787 1.93423 -8.4679 0
M  V30 12634 H 49.5507 1.68181 -6.71046 0
M  V30 12635 H 48.6827 -0.289041 -8.15388 0
M  V30 12636 P 44.7198 -1.17771 -8.83182 0
M  V30 12637 O 44.4998 -2.07206 -9.98732 0
M  V30 12638 O 43.9298 0.0743816 -8.81969 0
M  V30 12639 O 44.4698 -1.97652 -7.47304 0
M  V30 12640 C 45.4098 -3.01133 -7.08783 0
M  V30 12641 C 44.6798 -4.12613 -6.37049 0
M  V30 12642 O 44.4698 -3.72827 -4.97879 0
M  V30 12643 C 43.2798 -4.45085 -6.88694 0
M  V30 12644 O 42.8898 -5.7877 -6.5624 0
M  V30 12645 C 42.3998 -3.47817 -6.12078 0
M  V30 12646 C 43.1098 -3.39414 -4.77697 0
M  V30 12647 N 43.0598 -2.04615 -4.15333 0
M  V30 12648 H 45.8988 -3.41248 -7.98759 0
M  V30 12649 H 46.1708 -2.5837 -6.41742 0
M  V30 12650 H 45.3028 -5.02657 -6.42673 0
M  V30 12651 P 41.3398 -6.144 -6.45285 0
M  V30 12652 O 41.1198 -7.54673 -6.86199 0
M  V30 12653 O 40.5498 -5.12391 -7.179 0
M  V30 12654 O 41.0898 -5.99158 -4.88404 0
M  V30 12655 C 42.0298 -6.60234 -3.96415 0
M  V30 12656 C 41.2998 -7.08259 -2.72856 0
M  V30 12657 O 41.0898 -5.9427 -1.83651 0
M  V30 12658 C 39.8998 -7.64886 -2.9555 0
M  V30 12659 O 39.5098 -8.53963 -1.90717 0
M  V30 12660 C 39.0198 -6.4116 -2.90739 0
M  V30 12661 C 39.7298 -5.55375 -1.86963 0
M  V30 12662 N 39.6798 -4.09448 -2.16152 0
M  V30 12663 H 42.5188 -7.45574 -4.45629 0
M  V30 12664 H 42.7908 -5.85864 -3.679 0
M  V30 12665 H 41.9228 -7.84412 -2.24479 0
M  V30 12666 H 39.2678 -5.73457 -0.888562 0
M  V30 12667 H 38.9878 -5.90877 -3.88583 0
M  V30 12668 H 37.9968 -6.6596 -2.58858 0
M  V30 12669 H 39.8308 -8.16339 -3.92049 0
M  V30 12670 P 37.9598 -8.7635 -1.60911 0
M  V30 12671 O 37.7398 -10.1388 -1.11561 0
M  V30 12672 O 37.1698 -8.36503 -2.79617 0
M  V30 12673 O 37.7098 -7.71806 -0.42951 0
M  V30 12674 C 38.6498 -7.67148 0.673689 0
M  V30 12675 C 37.9198 -7.33374 1.95559 0
M  V30 12676 O 37.7098 -5.88721 2.00726 0
M  V30 12677 C 36.5198 -7.92526 2.10483 0
M  V30 12678 O 36.1298 -8.02971 3.47653 0
M  V30 12679 C 35.6398 -6.89602 1.41652 0
M  V30 12680 C 36.3498 -5.59201 1.75185 0
M  V30 12681 N 36.2998 -4.58235 0.662552 0
M  V30 12682 H 39.1388 -8.65116 0.777161 0
M  V30 12683 H 39.4108 -6.90173 0.474152 0
M  V30 12684 H 38.5428 -7.66548 2.79458 0
M  V30 12685 P 34.5798 -8.03563 3.84925 0
M  V30 12686 O 34.3598 -8.85821 5.0569 0
M  V30 12687 O 33.7898 -8.41101 2.65469 0
M  V30 12688 O 34.3298 -6.4965 4.18908 0
M  V30 12689 C 35.2698 -5.81037 5.05421 0
M  V30 12690 C 34.5398 -4.78366 5.89277 0
M  V30 12691 O 34.3298 -3.58302 5.08433 0
M  V30 12692 C 33.1398 -5.17448 6.36119 0
M  V30 12693 O 32.7498 -4.45271 7.53232 0
M  V30 12694 C 32.2598 -4.74639 5.19936 0
M  V30 12695 C 32.9698 -3.49432 4.70418 0
M  V30 12696 N 32.9198 -3.31776 3.22945 0
M  V30 12697 H 35.7588 -6.54213 5.71376 0
M  V30 12698 H 36.0308 -5.30492 4.44033 0
M  V30 12699 H 35.1628 -4.55889 6.76652 0
M  V30 12700 P 31.1998 -4.23843 7.83734 0
M  V30 12701 O 30.9798 -4.19407 9.29784 0
M  V30 12702 O 30.4098 -5.24426 7.09156 0
M  V30 12703 O 30.9498 -2.7935 7.20758 0
M  V30 12704 C 31.8898 -1.7299 7.50419 0
M  V30 12705 C 31.1598 -0.406376 7.57911 0
M  V30 12706 O 30.9498 0.0897726 6.21935 0
M  V30 12707 C 29.7598 -0.447224 8.1878 0
M  V30 12708 O 29.3698 0.825065 8.71101 0
M  V30 12709 C 28.8798 -0.783801 6.99623 0
M  V30 12710 C 29.5898 -0.0619192 5.85967 0
M  V30 12711 N 29.5398 -0.7859 4.56281 0
M  V30 12712 H 32.3788 -1.93423 8.4679 0
M  V30 12713 H 32.6508 -1.68181 6.71046 0
M  V30 12714 H 31.7828 0.289041 8.15388 0
M  V30 12715 P 27.8199 1.17771 8.83182 0
M  V30 12716 O 27.5999 2.07206 9.98732 0
M  V30 12717 O 27.0299 -0.0743816 8.81969 0
M  V30 12718 O 27.5699 1.97652 7.47304 0
M  V30 12719 C 28.5099 3.01133 7.08783 0
M  V30 12720 C 27.7799 4.12613 6.37049 0
M  V30 12721 O 27.5699 3.72827 4.97879 0
M  V30 12722 C 26.3799 4.45085 6.88694 0
M  V30 12723 O 25.9899 5.7877 6.5624 0
M  V30 12724 C 25.4999 3.47817 6.12078 0
M  V30 12725 C 26.2099 3.39414 4.77697 0
M  V30 12726 N 26.1599 2.04615 4.15333 0
M  V30 12727 H 28.9989 3.41248 7.98759 0
M  V30 12728 H 29.2709 2.5837 6.41742 0
M  V30 12729 H 28.4029 5.02657 6.42673 0
M  V30 12730 P 24.4399 6.144 6.45285 0
M  V30 12731 O 24.2199 7.54673 6.86199 0
M  V30 12732 O 23.6499 5.12391 7.179 0
M  V30 12733 O 24.1899 5.99158 4.88404 0
M  V30 12734 C 25.1299 6.60062 3.96313 0
M  V30 12735 C 24.3999 7.08259 2.72856 0
M  V30 12736 O 24.1899 5.9427 1.83651 0
M  V30 12737 C 22.9999 7.65087 2.94749 0
M  V30 12738 O 22.6099 8.53963 1.90717 0
M  V30 12739 C 22.1199 6.41069 2.90698 0
M  V30 12740 C 22.8299 5.5528 1.86931 0
M  V30 12741 N 22.7799 4.09575 2.15696 0
M  V30 12742 C 22.6299 3.24249 1.08435 0
M  V30 12743 O 22.5399 3.63946 -0.0628747 0
M  V30 12744 N 22.5899 1.90009 1.39973 0
M  V30 12745 C 22.6799 1.34884 2.65614 0
M  V30 12746 C 22.8299 2.3145 3.71736 0
M  V30 12747 C 22.8799 3.63518 3.44754 0
M  V30 12748 H 25.6209 7.45402 4.45526 0
M  V30 12749 H 25.8899 5.86062 3.67208 0
M  V30 12750 H 25.0229 7.84412 2.24479 0
M  V30 12751 H 22.3679 5.73358 0.888409 0
M  V30 12752 H 22.0889 5.90877 3.88583 0
M  V30 12753 H 21.0969 6.65867 2.58821 0
M  V30 12754 H 22.9309 8.16248 3.92006 0
M  V30 12755 H 23.0019 4.34551 4.26383 0
M  V30 12756 P 21.0599 8.7635 1.60911 0
M  V30 12757 O 20.8399 10.1388 1.11561 0
M  V30 12758 O 20.2699 8.36503 2.79617 0
M  V30 12759 O 20.8099 7.71806 0.42951 0
M  V30 12760 C 21.7499 7.67148 -0.673689 0
M  V30 12761 C 21.0199 7.33374 -1.95559 0
M  V30 12762 O 20.8099 5.88721 -2.00726 0
M  V30 12763 C 19.6199 7.92526 -2.10483 0
M  V30 12764 O 19.2299 8.02971 -3.47653 0
M  V30 12765 C 18.7399 6.89602 -1.41652 0
M  V30 12766 C 19.4499 5.59201 -1.75185 0
M  V30 12767 N 19.3999 4.58301 -0.657969 0
M  V30 12768 H 22.2389 8.65116 -0.777161 0
M  V30 12769 H 22.5109 6.9022 -0.46725 0
M  V30 12770 H 21.6429 7.66548 -2.79458 0
M  V30 12771 H 18.9879 5.16165 -2.65183 0
M  V30 12772 H 18.7079 7.06433 -0.329384 0
M  V30 12773 H 17.7169 6.90926 -1.82021 0
M  V30 12774 H 19.5509 8.90873 -1.62657 0
M  V30 12775 P 17.6799 8.03563 -3.84925 0
M  V30 12776 O 17.4599 8.85821 -5.0569 0
M  V30 12777 O 16.8899 8.41101 -2.65469 0
M  V30 12778 O 17.4299 6.4965 -4.18908 0
M  V30 12779 C 18.3699 5.81037 -5.05421 0
M  V30 12780 C 17.6399 4.78366 -5.89277 0
M  V30 12781 O 17.4299 3.58302 -5.08433 0
M  V30 12782 C 16.2399 5.17448 -6.36119 0
M  V30 12783 O 15.8499 4.45271 -7.53232 0
M  V30 12784 C 15.3599 4.74639 -5.19936 0
M  V30 12785 C 16.0699 3.49432 -4.70418 0
M  V30 12786 N 16.0199 3.31776 -3.22945 0
M  V30 12787 H 18.8589 6.54213 -5.71376 0
M  V30 12788 H 19.1309 5.30492 -4.44033 0
M  V30 12789 H 18.2629 4.55889 -6.76652 0
M  V30 12790 P 14.2999 4.23843 -7.83734 0
M  V30 12791 O 14.0799 4.19407 -9.29784 0
M  V30 12792 O 13.5099 5.24426 -7.09156 0
M  V30 12793 O 14.0499 2.7935 -7.20758 0
M  V30 12794 C 14.9899 1.7299 -7.50419 0
M  V30 12795 C 14.2599 0.406376 -7.57911 0
M  V30 12796 O 14.0499 -0.0897726 -6.21935 0
M  V30 12797 C 12.8599 0.447224 -8.1878 0
M  V30 12798 O 12.4699 -0.825065 -8.71101 0
M  V30 12799 C 11.9799 0.783801 -6.99623 0
M  V30 12800 C 12.6899 0.0619192 -5.85967 0
M  V30 12801 N 12.6399 0.790462 -4.56202 0
M  V30 12802 H 15.4789 1.93423 -8.4679 0
M  V30 12803 H 15.7509 1.68852 -6.70877 0
M  V30 12804 H 14.8829 -0.289041 -8.15388 0
M  V30 12805 H 12.2279 -0.927006 -5.72848 0
M  V30 12806 H 11.9479 1.86973 -6.82036 0
M  V30 12807 H 10.9569 0.403953 -7.13357 0
M  V30 12808 H 12.7909 1.20599 -8.97534 0
M  V30 12809 P 10.92 -1.17771 -8.83182 0
M  V30 12810 O 10.7 -2.07206 -9.98732 0
M  V30 12811 O 10.13 0.0743816 -8.81969 0
M  V30 12812 O 10.67 -1.97652 -7.47304 0
M  V30 12813 C 11.61 -3.01055 -7.08599 0
M  V30 12814 C 10.88 -4.12613 -6.37049 0
M  V30 12815 O 10.67 -3.72827 -4.97879 0
M  V30 12816 C 9.47996 -4.45719 -6.88164 0
M  V30 12817 O 9.08996 -5.7877 -6.5624 0
M  V30 12818 C 8.59996 -3.47768 -6.11991 0
M  V30 12819 C 9.30996 -3.39356 -4.77615 0
M  V30 12820 N 9.25996 -2.04571 -4.15244 0
M  V30 12821 C 9.10996 -1.98587 -2.78314 0
M  V30 12822 O 9.01996 -2.98134 -2.08835 0
M  V30 12823 N 9.06996 -0.714467 -2.24925 0
M  V30 12824 C 9.15996 0.470001 -2.94169 0
M  V30 12825 C 9.30996 0.312541 -4.36783 0
M  V30 12826 C 9.35996 -0.914512 -4.92583 0
M  V30 12827 H 12.101 -3.41169 -7.98575 0
M  V30 12828 H 12.37 -2.58295 -6.41556 0
M  V30 12829 H 11.503 -5.02657 -6.42673 0
M  V30 12830 H 8.84796 -4.11637 -4.08885 0
M  V30 12831 H 8.56896 -2.49626 -6.61679 0
M  V30 12832 H 7.57696 -3.86566 -6.00778 0
M  V30 12833 H 9.41096 -4.29943 -7.96918 0
M  V30 12834 H 9.48196 -1.00937 -6.00374 0
M  V30 12835 P 7.53998 -6.144 -6.45285 0
M  V30 12836 O 7.31998 -7.54673 -6.86199 0
M  V30 12837 O 6.74998 -5.12391 -7.179 0
M  V30 12838 O 7.28998 -5.99158 -4.88404 0
M  V30 12839 C 8.22998 -6.60234 -3.96415 0
M  V30 12840 C 7.49998 -7.08259 -2.72856 0
M  V30 12841 O 7.28998 -5.9427 -1.83651 0
M  V30 12842 C 6.09998 -7.64886 -2.9555 0
M  V30 12843 O 5.70998 -8.53963 -1.90717 0
M  V30 12844 C 5.21998 -6.4116 -2.90739 0
M  V30 12845 C 5.92998 -5.55375 -1.86963 0
M  V30 12846 N 5.87998 -4.09664 -2.15742 0
M  V30 12847 H 8.71898 -7.45574 -4.45629 0
M  V30 12848 H 8.99098 -5.86232 -3.67314 0
M  V30 12849 H 8.12298 -7.84412 -2.24479 0
M  V30 12850 P 4.16 -8.7635 -1.60911 0
M  V30 12851 O 3.94 -10.1388 -1.11561 0
M  V30 12852 O 3.37 -8.36503 -2.79617 0
M  V30 12853 O 3.91 -7.71806 -0.42951 0
M  V30 12854 C 4.85 -7.67148 0.673689 0
M  V30 12855 C 4.12 -7.33374 1.95559 0
M  V30 12856 O 3.91 -5.88721 2.00726 0
M  V30 12857 C 2.72 -7.92526 2.10483 0
M  V30 12858 O 2.33 -8.02971 3.47653 0
M  V30 12859 C 1.84 -6.89602 1.41652 0
M  V30 12860 C 2.55 -5.59201 1.75185 0
M  V30 12861 N 2.5 -4.58235 0.662552 0
M  V30 12862 H 5.339 -8.65116 0.777161 0
M  V30 12863 H 5.611 -6.90173 0.474152 0
M  V30 12864 H 4.743 -7.66548 2.79458 0
M  V30 12865 H 1.613 -8.66322 3.55694 0
M  V30 END ATOM
M  V30 BEGIN BOND
M  V30 END BOND
M  V30 END CTAB
M  END
$$$$
