drugbank_target|Q13421 Mesothelin (DB12845)
 OpenBabel12092120323D

  0  0  0     0  0            999 V3000
M  V30 BEGIN CTAB
M  V30 COUNTS 9803 9910 0 0 0
M  V30 BEGIN ATOM
M  V30 1 H -0.908 1.98254 -0.117106 0
M  V30 2 N 0 1.576 0 0
M  V30 3 C 0.933 2.03868 1.02534 0
M  V30 4 C 1.911 0.928543 1.3348 0
M  V30 5 O 3.095 1.19667 1.45644 0
M  V30 6 C 0.222 2.43627 2.35294 0
M  V30 7 C -0.732 3.65373 2.2001 0
M  V30 8 S 0.101 5.13292 1.52614 0
M  V30 9 C 1.257 5.56322 2.86805 0
M  V30 10 H 1.49 2.90518 0.631377 0
M  V30 11 H -0.977 1.52953 0.210867 0
M  V30 12 H 0.981 2.67203 3.11629 0
M  V30 13 H -0.358 1.57376 2.7183 0
M  V30 14 H -1.165 3.90944 3.18086 0
M  V30 15 H -1.563 3.418 1.51819 0
M  V30 16 H 0.729 5.58782 3.83104 0
M  V30 17 H 1.672 6.56266 2.65933 0
M  V30 18 H 2.08 4.83886 2.90714 0
M  V30 19 N 1.4781 -0.272755 1.55222 0
M  V30 20 C 2.4411 -1.32041 1.87344 0
M  V30 21 C 3.4411 -1.42342 0.74803 0
M  V30 22 O 4.6311 -1.41488 1.0162 0
M  V30 23 C 1.7631 -2.70173 2.07893 0
M  V30 24 H 2.9561 -1.04789 2.80997 0
M  V30 25 H 0.5091 -0.51083 1.47717 0
M  V30 26 H 1.2441 -3.02605 1.16622 0
M  V30 27 H 1.0291 -2.64082 2.89833 0
M  V30 28 H 2.5191 -3.45869 2.34017 0
M  V30 29 N 2.9562 -1.48159 -0.537278 0
M  V30 30 C 3.8862 -1.65029 -1.6519 0
M  V30 31 C 4.8672 -0.499281 -1.62607 0
M  V30 32 O 6.0522 -0.730972 -1.79918 0
M  V30 33 C 3.1822 -1.68303 -3.03795 0
M  V30 34 C 2.1362 -2.8283 -3.21234 0
M  V30 35 C 1.4622 -2.71189 -4.60826 0
M  V30 36 C 2.7622 -4.24211 -3.04701 0
M  V30 37 H 4.4562 -2.58341 -1.51328 0
M  V30 38 H 2.0022 -1.24325 -0.726585 0
M  V30 39 H 3.9552 -1.78693 -3.81637 0
M  V30 40 H 2.6792 -0.715635 -3.18663 0
M  V30 41 H 1.3382 -2.71983 -2.45807 0
M  V30 42 H 0.9862 -1.72435 -4.7252 0
M  V30 43 H 0.6862 -3.48035 -4.7344 0
M  V30 44 H 2.2102 -2.83537 -5.40777 0
M  V30 45 H 3.6242 -4.3593 -3.72341 0
M  V30 46 H 2.0212 -5.01998 -3.28813 0
M  V30 47 H 3.0912 -4.41184 -2.01209 0
M  V30 48 N 4.4343 0.785586 -1.36625 0
M  V30 49 C 5.8453 1.36101 -1.27803 0
M  V30 50 C 6.1963 1.96035 0.0804875 0
M  V30 51 O 5.3213 1.92834 0.982042 0
M  V30 52 C 5.9163 2.47442 -2.31426 0
M  V30 53 C 4.4753 3.00789 -2.26281 0
M  V30 54 C 3.6223 1.73896 -2.15999 0
M  V30 55 H 6.5733 0.586928 -1.47448 0
M  V30 56 H 6.5943 3.2656 -1.95291 0
M  V30 57 H 6.1063 2.03791 -3.30289 0
M  V30 58 H 4.2073 3.48851 -1.30896 0
M  V30 59 H 4.3203 3.57343 -3.19128 0
M  V30 60 H 2.6843 1.9628 -1.62316 0
M  V30 61 H 3.4673 1.32368 -3.16755 0
M  V30 62 N 5.9124 1.20967 1.01018 0
M  V30 63 C 7.1404 1.04956 1.78303 0
M  V30 64 C 7.5554 -0.400915 1.84494 0
M  V30 65 O 6.9124 -1.27826 1.30257 0
M  V30 66 C 6.9634 1.63403 3.22462 0
M  V30 67 O 6.6844 3.02775 3.16637 0
M  V30 68 C 8.1854 1.52432 4.16268 0
M  V30 69 H 5.4054 0.368858 0.560522 0
M  V30 70 H 7.9494 1.60193 1.27116 0
M  V30 71 H 6.1044 1.1227 3.70775 0
M  V30 72 H 6.5184 3.30626 4.07169 0
M  V30 73 H 7.9924 1.98078 5.15237 0
M  V30 74 H 8.4694 0.477875 4.36592 0
M  V30 75 H 9.0754 2.02787 3.73841 0
M  V30 76 N 7.3905 -1.2043 1.01659 0
M  V30 77 C 8.3535 -2.21433 0.591616 0
M  V30 78 C 9.3535 -1.57203 -0.338226 0
M  V30 79 O 10.5435 -1.73737 -0.126918 0
M  V30 80 C 7.6755 -3.40628 -0.136058 0
M  V30 81 H 8.8685 -2.60545 1.48514 0
M  V30 82 H 6.4215 -1.33893 0.806379 0
M  V30 83 H 7.1565 -3.07019 -1.04449 0
M  V30 84 H 6.9415 -3.88475 0.531917 0
M  V30 85 H 8.4315 -4.15475 -0.420735 0
M  V30 86 N 8.8686 -0.792821 -1.36206 0
M  V30 87 C 10.2846 -0.474903 -1.52371 0
M  V30 88 C 10.4846 1.00622 -1.74578 0
M  V30 89 O 9.5406 1.79162 -1.77924 0
M  V30 90 C 10.8536 -1.3083 -2.70747 0
M  V30 91 C 12.4016 -1.30234 -2.84619 0
M  V30 92 C 12.8766 -2.11956 -4.06004 0
M  V30 93 N 14.3676 -2.09419 -4.13156 0
M  V30 94 C 15.1026 -2.69419 -5.06163 0
M  V30 95 N 14.5986 -3.3829 -6.04592 0
M  V30 96 N 16.3916 -2.59134 -4.98804 0
M  V30 97 H 8.5426 -1.75222 -1.20046 0
M  V30 98 H 10.8056 -0.745024 -0.586211 0
M  V30 99 H 10.5116 -2.35881 -2.6087 0
M  V30 100 H 10.3856 -0.95196 -3.6499 0
M  V30 101 H 12.7726 -0.259748 -2.93955 0
M  V30 102 H 12.8536 -1.69847 -1.91274 0
M  V30 103 H 12.4976 -3.16248 -3.97429 0
M  V30 104 H 12.4276 -1.69711 -4.98503 0
M  V30 105 H 14.9186 -1.59297 -3.42685 0
M  V30 106 H 15.2316 -3.81394 -6.7213 0
M  V30 107 H 13.5766 -3.42393 -6.04807 0
M  V30 108 H 16.7676 -2.04927 -4.20859 0
M  V30 109 H 16.9406 -3.06185 -5.711 0
M  V30 110 N 10.3467 1.47872 -0.545128 0
M  V30 111 C 11.7577 1.86384 -0.108581 0
M  V30 112 C 12.1087 1.45309 1.31832 0
M  V30 113 O 11.2337 0.850641 1.9898 0
M  V30 114 C 11.8287 3.38265 -0.190274 0
M  V30 115 C 10.3877 3.75914 0.191164 0
M  V30 116 C 9.5347 2.71926 -0.543273 0
M  V30 117 H 12.4857 1.39561 -0.755537 0
M  V30 118 H 12.5067 3.75831 0.594217 0
M  V30 119 H 12.0187 3.6813 -1.2289 0
M  V30 120 H 10.1197 3.51665 1.23136 0
M  V30 121 H 10.2327 4.78836 -0.158987 0
M  V30 122 H 8.5967 2.54697 0.0122495 0
M  V30 123 H 9.3797 3.04634 -1.58282 0
M  V30 124 N 11.8248 0.280983 1.55075 0
M  V30 125 C 12.7548 -0.597469 2.25727 0
M  V30 126 C 13.7358 -1.15417 1.24952 0
M  V30 127 O 14.9208 -1.18722 1.53684 0
M  V30 128 C 12.0508 -1.7789 2.98283 0
M  V30 129 C 11.0048 -1.35347 4.06036 0
M  V30 130 C 10.3308 -2.61846 4.66198 0
M  V30 131 C 11.6308 -0.499354 5.19907 0
M  V30 132 H 13.3248 -0.00824265 2.99399 0
M  V30 133 H 10.8708 -0.0025244 1.44 0
M  V30 134 H 12.8238 -2.39937 3.46422 0
M  V30 135 H 11.5478 -2.39405 2.22155 0
M  V30 136 H 10.2068 -0.756156 3.58717 0
M  V30 137 H 9.8548 -3.21632 3.86732 0
M  V30 138 H 9.5548 -2.3409 5.38958 0
M  V30 139 H 11.0788 -3.24732 5.1709 0
M  V30 140 H 12.4928 -1.02498 5.64063 0
M  V30 141 H 10.8898 -0.316424 5.99265 0
M  V30 142 H 11.9598 0.480459 4.82514 0
M  V30 143 N 13.3029 -1.57598 0.00835791 0
M  V30 144 C 14.2329 -2.1198 -0.979113 0
M  V30 145 C 15.2139 -1.03091 -1.35301 0
M  V30 146 O 16.3989 -1.30818 -1.43528 0
M  V30 147 C 13.5289 -2.62995 -2.26828 0
M  V30 148 C 12.4829 -3.76485 -2.03576 0
M  V30 149 C 11.8089 -4.13846 -3.38579 0
M  V30 150 C 13.1089 -5.0342 -1.39161 0
M  V30 151 H 14.8029 -2.94738 -0.526281 0
M  V30 152 H 12.3489 -1.41783 -0.251704 0
M  V30 153 H 14.3019 -2.99669 -2.96271 0
M  V30 154 H 13.0259 -1.7737 -2.7424 0
M  V30 155 H 11.6849 -3.40217 -1.36557 0
M  V30 156 H 11.3329 -3.25232 -3.83709 0
M  V30 157 H 11.0329 -4.90312 -3.23834 0
M  V30 158 H 12.5569 -4.53086 -4.09323 0
M  V30 159 H 13.9709 -5.37812 -1.98573 0
M  V30 160 H 12.3679 -5.84746 -1.34878 0
M  V30 161 H 13.4379 -4.83548 -0.361868 0
M  V30 162 N 14.781 0.264519 -1.55364 0
M  V30 163 C 16.029 0.993021 -1.76021 0
M  V30 164 C 16.35 1.86511 -0.569099 0
M  V30 165 O 15.62 1.91438 0.415735 0
M  V30 166 H 14.2 0.369639 -0.649135 0
M  V30 167 H 16.862 0.286707 -1.9278 0
M  V30 168 H 15.958 1.62502 -2.66457 0
M  V30 169 N 16.2591 1.48442 0.529413 0
M  V30 170 C 17.4841 1.60406 1.31471 0
M  V30 171 C 17.9091 0.264738 1.86228 0
M  V30 172 O 17.2671 -0.763668 1.64432 0
M  V30 173 C 17.3151 2.65419 2.44101 0
M  V30 174 O 16.4191 2.22618 3.47153 0
M  V30 175 H 15.7601 0.537863 0.389357 0
M  V30 176 H 18.2901 1.94432 0.636965 0
M  V30 177 H 18.3001 2.86709 2.90279 0
M  V30 178 H 16.9751 3.62652 2.03608 0
M  V30 179 H 15.5521 2.11543 3.0709 0
M  V30 180 N 17.7372 -0.778329 1.37039 0
M  V30 181 C 18.9772 -1.54973 1.33276 0
M  V30 182 C 19.3412 -1.91816 -0.0839376 0
M  V30 183 O 20.5422 -2.6767 -0.246228 0
M  V30 184 C 18.8132 -2.78517 2.23971 0
M  V30 185 S 20.3722 -3.6865 2.37997 0
M  V30 186 H 17.1902 -0.530639 0.473226 0
M  V30 187 H 19.7922 -0.915806 1.72723 0
M  V30 188 H 18.4962 -2.4952 3.25835 0
M  V30 189 H 18.0272 -3.46875 1.85584 0
M  V30 190 H 20.0422 -4.70182 1.58567 0
M  V30 191 N 19.2153 -1.21501 -1.00376 0
M  V30 192 C 20.4633 -1.03095 -1.73827 0
M  V30 193 C 20.7843 0.436341 -1.90055 0
M  V30 194 O 20.0543 1.31466 -1.45236 0
M  V30 195 H 18.6343 -0.378487 -0.644016 0
M  V30 196 H 21.2963 -1.52831 -1.20949 0
M  V30 197 H 20.3923 -1.49991 -2.73695 0
M  V30 198 N 20.6934 1.19889 -1.02296 0
M  V30 199 C 21.9214 1.9339 -0.735399 0
M  V30 200 C 22.3364 1.75148 0.704887 0
M  V30 201 O 21.6934 1.06954 1.47875 0
M  V30 202 C 21.7444 3.45313 -1.06962 0
M  V30 203 O 21.4654 3.62964 -2.45334 0
M  V30 204 C 22.9664 4.35948 -0.804021 0
M  V30 205 H 20.1864 0.61448 -0.269546 0
M  V30 206 H 22.7304 1.522 -1.36585 0
M  V30 207 H 20.8854 3.84359 -0.484455 0
M  V30 208 H 21.2994 4.56886 -2.57595 0
M  V30 209 H 22.7734 5.41174 -1.0879 0
M  V30 210 H 23.2504 4.3842 0.261691 0
M  V30 211 H 23.8564 4.02574 -1.37164 0
M  V30 212 N 22.1715 0.800033 1.35784 0
M  V30 213 C 23.5825 0.439142 1.81462 0
M  V30 214 C 23.9335 -1.03813 1.66485 0
M  V30 215 O 23.0585 -1.80626 1.19177 0
M  V30 216 C 23.6535 0.790314 3.29453 0
M  V30 217 C 22.2125 0.482111 3.733 0
M  V30 218 C 21.3595 1.01938 2.57883 0
M  V30 219 H 24.3105 0.992254 1.23855 0
M  V30 220 H 24.3315 0.0853677 3.80404 0
M  V30 221 H 23.8435 1.86554 3.40322 0
M  V30 222 H 21.9445 -0.584652 3.67984 0
M  V30 223 H 22.0575 1.01015 4.6833 0
M  V30 224 H 20.4215 0.442043 2.50835 0
M  V30 225 H 21.2045 2.10059 2.71533 0
M  V30 226 N 23.6496 -1.47581 0.552962 0
M  V30 227 C 24.6126 -2.28439 -0.186605 0
M  V30 228 C 25.6126 -1.36706 -0.84665 0
M  V30 229 O 26.8026 -1.59378 -0.703164 0
M  V30 230 C 23.9346 -3.16264 -1.2724 0
M  V30 231 H 25.1276 -2.95294 0.523609 0
M  V30 232 H 22.6806 -1.532 0.309745 0
M  V30 233 H 23.4156 -2.54091 -2.01514 0
M  V30 234 H 23.2006 -3.83769 -0.803968 0
M  V30 235 H 24.6906 -3.77198 -1.79196 0
M  V30 236 N 25.1277 -0.289203 -1.54924 0
M  V30 237 C 26.0577 0.58549 -2.2604 0
M  V30 238 C 27.0387 1.14753 -1.25562 0
M  V30 239 O 28.2237 1.17906 -1.54311 0
M  V30 240 C 25.3537 1.76305 -2.99222 0
M  V30 241 C 24.3077 1.33191 -4.06748 0
M  V30 242 C 23.6337 2.5937 -4.6758 0
M  V30 243 C 24.9337 0.471775 -5.20165 0
M  V30 244 H 26.6277 -0.00763532 -2.99399 0
M  V30 245 H 24.1737 -0.00511229 -1.43999 0
M  V30 246 H 26.1267 2.38097 -3.47689 0
M  V30 247 H 24.8507 2.38223 -2.23422 0
M  V30 248 H 23.5097 0.737121 -3.59113 0
M  V30 249 H 23.1577 3.19576 -3.88433 0
M  V30 250 H 22.8577 2.31228 -5.40192 0
M  V30 251 H 24.3817 3.21985 -5.18804 0
M  V30 252 H 25.7957 0.995056 -5.64599 0
M  V30 253 H 24.1927 0.284639 -5.99425 0
M  V30 254 H 25.2627 -0.506041 -4.82252 0
M  V30 255 N 26.6058 1.57591 -0.0167156 0
M  V30 256 C 27.8538 1.90906 0.663285 0
M  V30 257 C 28.1748 0.892509 1.73376 0
M  V30 258 O 27.4448 -0.0677623 1.95783 0
M  V30 259 H 26.0248 0.704637 0.247983 0
M  V30 260 H 28.6868 1.94803 -0.0615909 0
M  V30 261 H 27.7828 2.9116 1.12393 0
M  V30 262 N 28.0839 -0.256276 1.55502 0
M  V30 263 C 29.3089 -1.00766 1.81276 0
M  V30 264 C 29.7339 -1.78524 0.59252 0
M  V30 265 O 29.0919 -1.75413 -0.45827 0
M  V30 266 C 29.1399 -1.92869 3.04687 0
M  V30 267 O 28.2439 -3.019 2.80945 0
M  V30 268 H 27.5849 -0.287224 0.598664 0
M  V30 269 H 30.1149 -0.280109 2.02674 0
M  V30 270 H 30.1249 -2.34511 3.33869 0
M  V30 271 H 28.7999 -1.35689 3.93143 0
M  V30 272 H 27.3769 -2.64454 2.62904 0
M  V30 273 N 29.562 -1.4872 -0.521534 0
M  V30 274 C 30.492 -1.66771 -1.63431 0
M  V30 275 C 31.473 -0.516499 -1.62069 0
M  V30 276 O 32.658 -0.750013 -1.79132 0
M  V30 277 C 29.788 -1.71515 -3.01993 0
M  V30 278 C 28.742 -2.86222 -3.18216 0
M  V30 279 C 28.068 -2.76061 -4.57924 0
M  V30 280 C 29.368 -4.27419 -3.00184 0
M  V30 281 H 31.062 -2.59932 -1.48579 0
M  V30 282 H 28.608 -1.25089 -0.713358 0
M  V30 283 H 30.561 -1.82731 -3.7972 0
M  V30 284 H 29.285 -0.749393 -3.17886 0
M  V30 285 H 27.944 -2.74575 -2.42908 0
M  V30 286 H 27.592 -1.77437 -4.70665 0
M  V30 287 H 27.292 -3.53037 -4.69722 0
M  V30 288 H 28.816 -2.89256 -5.37739 0
M  V30 289 H 30.23 -4.39855 -3.67697 0
M  V30 290 H 28.627 -5.05458 -3.2347 0
M  V30 291 H 29.697 -4.43293 -1.96518 0
M  V30 292 N 31.0401 0.771051 -1.3745 0
M  V30 293 C 31.9701 1.89827 -1.3597 0
M  V30 294 C 32.9511 1.68562 -0.228216 0
M  V30 295 O 34.1361 1.8941 -0.428675 0
M  V30 296 C 31.2661 3.2712 -1.16662 0
M  V30 297 C 30.2201 3.6295 -2.2683 0
M  V30 298 C 29.5461 4.98791 -1.92644 0
M  V30 299 C 30.8461 3.69627 -3.69017 0
M  V30 300 H 32.5401 1.91323 -2.30295 0
M  V30 301 H 30.0861 0.919082 -1.10855 0
M  V30 302 H 32.0391 4.05615 -1.14256 0
M  V30 303 H 30.7631 3.26059 -0.187926 0
M  V30 304 H 29.4221 2.86763 -2.28392 0
M  V30 305 H 29.0701 4.94271 -0.933021 0
M  V30 306 H 28.7701 5.23733 -2.66416 0
M  V30 307 H 30.2941 5.79685 -1.91826 0
M  V30 308 H 31.7081 4.38273 -3.69581 0
M  V30 309 H 30.1051 4.06067 -4.41848 0
M  V30 310 H 31.1751 2.70273 -4.02592 0
M  V30 311 N 32.5182 1.22032 0.997298 0
M  V30 312 C 33.7652 1.04222 1.73621 0
M  V30 313 C 34.0932 -0.423264 1.89839 0
M  V30 314 O 33.3482 -1.3302 1.43542 0
M  V30 315 C 33.6472 1.69345 3.14733 0
M  V30 316 C 33.3132 3.19226 3.18442 0
M  V30 317 C 31.9752 3.60124 3.19161 0
M  V30 318 C 34.3272 4.15181 3.15078 0
M  V30 319 C 31.6552 4.95467 3.14212 0
M  V30 320 C 34.0072 5.50495 3.1167 0
M  V30 321 C 32.6712 5.90779 3.10703 0
M  V30 322 H 31.9412 0.381374 0.635323 0
M  V30 323 H 34.5882 1.51732 1.16831 0
M  V30 324 H 32.8932 1.14147 3.74803 0
M  V30 325 H 34.5902 1.53059 3.7064 0
M  V30 326 H 31.1802 2.86659 3.18629 0
M  V30 327 H 35.3642 3.84605 3.13676 0
M  V30 328 H 30.6202 5.25916 3.11805 0
M  V30 329 H 34.7942 6.24576 3.08022 0
M  V30 330 H 32.4212 6.9562 3.06622 0
M  V30 331 N 33.9963 -1.19345 1.0293 0
M  V30 332 C 34.9263 -2.2481 0.631105 0
M  V30 333 C 35.9073 -1.66245 -0.360104 0
M  V30 334 O 37.0923 -1.92677 -0.242726 0
M  V30 335 C 34.2223 -3.47295 -0.0184607 0
M  V30 336 C 33.1763 -4.18536 0.895073 0
M  V30 337 C 32.5023 -5.34586 0.110592 0
M  V30 338 C 33.8023 -4.73287 2.209 0
M  V30 339 H 35.4963 -2.58372 1.51275 0
M  V30 340 H 33.0423 -1.24194 0.728818 0
M  V30 341 H 34.9953 -4.20268 -0.308675 0
M  V30 342 H 33.7193 -3.12933 -0.934907 0
M  V30 343 H 32.3783 -3.47446 1.16949 0
M  V30 344 H 32.0263 -4.96469 -0.807902 0
M  V30 345 H 31.7263 -5.83183 0.719087 0
M  V30 346 H 33.2503 -6.10355 -0.172871 0
M  V30 347 H 34.6643 -5.38013 1.98028 0
M  V30 348 H 33.0613 -5.32373 2.76946 0
M  V30 349 H 34.1313 -3.91331 2.86336 0
M  V30 350 N 35.4744 -0.807222 -1.35358 0
M  V30 351 C 36.4044 -0.232509 -2.3234 0
M  V30 352 C 37.3854 0.642386 -1.57504 0
M  V30 353 O 38.5704 0.572526 -1.85569 0
M  V30 354 C 35.7004 0.619238 -3.41735 0
M  V30 355 C 34.6544 -0.157215 -4.27711 0
M  V30 356 C 33.9804 0.816273 -5.28433 0
M  V30 357 C 35.2804 -1.35656 -5.04376 0
M  V30 358 H 36.9744 -1.04276 -2.80654 0
M  V30 359 H 34.5204 -0.50288 -1.34934 0
M  V30 360 H 36.4734 1.03137 -4.08584 0
M  V30 361 H 35.1974 1.46239 -2.92031 0
M  V30 362 H 33.8564 -0.550525 -3.62443 0
M  V30 363 H 33.5044 1.65494 -4.74996 0
M  V30 364 H 33.2044 0.301067 -5.86828 0
M  V30 365 H 34.7284 1.22659 -5.98153 0
M  V30 366 H 36.1424 -1.01927 -5.64166 0
M  V30 367 H 34.5394 -1.8063 -5.7227 0
M  V30 368 H 35.6094 -2.14288 -4.34981 0
M  V30 369 N 36.9525 1.47285 -0.560781 0
M  V30 370 C 38.1995 2.02464 -0.038062 0
M  V30 371 C 38.5275 1.43474 1.31322 0
M  V30 372 O 37.7825 0.581311 1.86867 0
M  V30 373 C 38.0815 3.57258 0.100784 0
M  V30 374 C 37.7475 4.35184 -1.18007 0
M  V30 375 C 36.4095 4.56194 -1.53103 0
M  V30 376 C 38.7615 4.80098 -2.02867 0
M  V30 377 C 36.0895 5.19367 -2.729 0
M  V30 378 C 38.4415 5.44593 -3.21871 0
M  V30 379 C 37.1055 5.63835 -3.57276 0
M  V30 380 H 36.3755 0.740869 -0.0139279 0
M  V30 381 H 39.0225 1.76916 -0.733012 0
M  V30 382 H 37.3275 3.81819 0.878724 0
M  V30 383 H 39.0245 3.97606 0.520639 0
M  V30 384 H 35.6145 4.19113 -0.8968 0
M  V30 385 H 39.7985 4.63642 -1.7706 0
M  V30 386 H 35.0545 5.32459 -3.00496 0
M  V30 387 H 39.2285 5.78358 -3.87911 0
M  V30 388 H 36.8555 6.12557 -4.50197 0
M  V30 389 N 38.4306 0.297415 1.54768 0
M  V30 390 C 39.6556 -0.318435 2.04941 0
M  V30 391 C 40.0806 -1.4701 1.17345 0
M  V30 392 O 39.4386 -1.80436 0.176758 0
M  V30 393 C 39.4866 -0.755749 3.52592 0
M  V30 394 O 38.5906 -1.86088 3.68028 0
M  V30 395 H 37.9316 -0.062421 0.661059 0
M  V30 396 H 40.4616 0.438215 1.99852 0
M  V30 397 H 40.4716 -1.04552 3.94376 0
M  V30 398 H 39.1466 0.0867233 4.1581 0
M  V30 399 H 37.7236 -1.57193 3.38149 0
M  V30 400 N 39.9087 -1.5758 0.0250728 0
M  V30 401 C 40.8387 -2.13007 -0.956575 0
M  V30 402 C 41.8197 -1.0452 -1.342 0
M  V30 403 O 43.0047 -1.32332 -1.42133 0
M  V30 404 C 40.1347 -2.65386 -2.24026 0
M  V30 405 C 39.0887 -3.78623 -1.99571 0
M  V30 406 C 38.4147 -4.17414 -3.3417 0
M  V30 407 C 39.7147 -5.04867 -1.33814 0
M  V30 408 H 41.4087 -2.9528 -0.494991 0
M  V30 409 H 38.9547 -1.42042 -0.236651 0
M  V30 410 H 40.9077 -3.02794 -2.93076 0
M  V30 411 H 39.6317 -1.80268 -2.72343 0
M  V30 412 H 38.2907 -3.41646 -1.32941 0
M  V30 413 H 37.9387 -3.29284 -3.80238 0
M  V30 414 H 37.6387 -4.93719 -3.18615 0
M  V30 415 H 39.1627 -4.57402 -4.04495 0
M  V30 416 H 40.5767 -5.39888 -1.92857 0
M  V30 417 H 38.9737 -5.86144 -1.28669 0
M  V30 418 H 40.0437 -4.83904 -0.310561 0
M  V30 419 N 41.3868 0.248026 -1.55636 0
M  V30 420 C 42.6348 0.974295 -1.77065 0
M  V30 421 C 42.9558 1.85897 -0.588849 0
M  V30 422 O 42.2258 1.91868 0.395407 0
M  V30 423 H 40.8058 0.362733 -0.653019 0
M  V30 424 H 43.4678 0.266244 -1.93073 0
M  V30 425 H 42.5638 1.59667 -2.68166 0
M  V30 426 N 42.8649 1.48995 0.513639 0
M  V30 427 C 44.1109 1.59053 1.26783 0
M  V30 428 C 44.4659 0.268136 1.90522 0
M  V30 429 O 43.7589 -0.730534 1.77126 0
M  V30 430 C 43.9529 2.67756 2.36731 0
M  V30 431 C 43.7819 4.10437 1.83771 0
M  V30 432 C 42.5519 4.7738 1.65639 0
M  V30 433 C 44.7499 4.9608 1.35681 0
M  V30 434 N 42.7319 6.04419 1.07476 0
M  V30 435 C 44.1029 6.13496 0.895715 0
M  V30 436 C 46.1579 4.82177 1.24136 0
M  V30 437 C 44.8609 7.1854 0.3306 0
M  V30 438 C 46.8869 5.87358 0.690229 0
M  V30 439 C 46.2489 7.03993 0.239292 0
M  V30 440 H 42.3479 0.636463 0.454355 0
M  V30 441 H 44.9319 1.85948 0.577196 0
M  V30 442 H 43.1029 2.42655 3.03271 0
M  V30 443 H 44.8349 2.67406 3.0377 0
M  V30 444 H 41.5899 4.33974 1.8964 0
M  V30 445 H 42.0139 6.72214 0.803579 0
M  V30 446 H 46.6559 3.92329 1.57601 0
M  V30 447 H 44.3739 8.08098 -0.0163435 0
M  V30 448 H 47.9599 5.78658 0.603852 0
M  V30 449 H 46.8399 7.83992 -0.180526 0
M  V30 450 N 44.343 -0.763751 1.37857 0
M  V30 451 C 45.589 -1.52483 1.33704 0
M  V30 452 C 45.922 -1.94051 -0.0759612 0
M  V30 453 O 45.197 -1.64675 -1.03501 0
M  V30 454 C 45.48 -2.78441 2.28348 0
M  V30 455 C 45.333 -2.43075 3.78463 0
M  V30 456 C 46.652 -3.80415 2.21298 0
M  V30 457 H 43.771 -0.553169 0.487005 0
M  V30 458 H 46.413 -0.875562 1.68624 0
M  V30 459 H 44.563 -3.33842 1.987 0
M  V30 460 H 46.235 -1.93527 4.18742 0
M  V30 461 H 44.478 -1.75666 3.96641 0
M  V30 462 H 45.149 -3.33149 4.40132 0
M  V30 463 H 47.625 -3.34527 2.47449 0
M  V30 464 H 46.501 -4.66257 2.89647 0
M  V30 465 H 46.762 -4.25262 1.20849 0
M  V30 466 N 45.8211 -1.22559 -0.990812 0
M  V30 467 C 46.7531 -0.955325 -2.08342 0
M  V30 468 C 47.7661 0.0668408 -1.62663 0
M  V30 469 O 48.9551 -0.167421 -1.77713 0
M  V30 470 C 46.0551 -0.415566 -3.36342 0
M  V30 471 C 45.2281 -1.49544 -4.11042 0
M  V30 472 C 44.2871 -0.962399 -5.17324 0
M  V30 473 O 43.3131 -1.64907 -5.44788 0
M  V30 474 N 44.5151 0.215134 -5.80101 0
M  V30 475 H 47.2801 -1.89596 -2.32106 0
M  V30 476 H 44.8411 -1.13276 -1.15673 0
M  V30 477 H 46.8331 -0.0442386 -4.04676 0
M  V30 478 H 45.4031 0.430232 -3.09625 0
M  V30 479 H 44.6231 -2.04 -3.37309 0
M  V30 480 H 45.9111 -2.22195 -4.57719 0
M  V30 481 H 45.3091 0.789779 -5.6016 0
M  V30 482 H 43.8661 0.527826 -6.49659 0
M  V30 483 N 47.2992 1.18797 -1.03562 0
M  V30 484 C 48.7102 1.70322 -0.764676 0
M  V30 485 C 49.0612 1.82708 0.714996 0
M  V30 486 O 48.1862 1.50299 1.55689 0
M  V30 487 C 48.7812 3.09356 -1.38145 0
M  V30 488 C 47.3402 3.58114 -1.15895 0
M  V30 489 C 46.4872 2.34798 -1.4753 0
M  V30 490 H 49.4382 1.03543 -1.20268 0
M  V30 491 H 49.4592 3.72378 -0.781977 0
M  V30 492 H 48.9712 3.00309 -2.45837 0
M  V30 493 H 47.0722 3.72464 -0.100544 0
M  V30 494 H 47.1852 4.4184 -1.8524 0
M  V30 495 H 45.5492 2.38464 -0.894829 0
M  V30 496 H 46.3322 2.28375 -2.56319 0
M  V30 497 N 48.7773 0.814389 1.34928 0
M  V30 498 C 50.0023 0.410097 2.03305 0
M  V30 499 C 50.4273 -0.973464 1.60951 0
M  V30 500 O 49.7853 -1.63185 0.789964 0
M  V30 501 C 49.8333 0.51049 3.56968 0
M  V30 502 O 48.9373 -0.473035 4.09678 0
M  V30 503 H 48.2783 0.170088 0.641846 0
M  V30 504 H 50.8083 1.10244 1.72358 0
M  V30 505 H 50.8183 0.383135 4.06197 0
M  V30 506 H 49.4933 1.51963 3.87144 0
M  V30 507 H 48.0703 -0.305272 3.71648 0
M  V30 508 N 50.2554 -1.46986 0.568584 0
M  V30 509 C 51.6714 -1.57946 0.229189 0
M  V30 510 C 51.8714 -1.56567 -1.26843 0
M  V30 511 O 50.9274 -1.47511 -2.04931 0
M  V30 512 C 52.2404 -2.87963 0.865909 0
M  V30 513 C 53.7884 -3.01568 0.838188 0
M  V30 514 C 54.2634 -4.34301 1.45419 0
M  V30 515 N 55.7544 -4.40965 1.41788 0
M  V30 516 C 56.4894 -5.42256 1.86403 0
M  V30 517 N 55.9854 -6.50297 2.38926 0
M  V30 518 N 57.7784 -5.3337 1.77405 0
M  V30 519 H 49.9294 -1.46126 1.54146 0
M  V30 520 H 52.1924 -0.696156 0.643484 0
M  V30 521 H 51.8984 -2.94742 1.91886 0
M  V30 522 H 51.7724 -3.75423 0.365687 0
M  V30 523 H 54.1594 -2.94379 -0.206106 0
M  V30 524 H 54.2404 -2.1562 1.37629 0
M  V30 525 H 53.8844 -4.42247 2.49761 0
M  V30 526 H 53.8144 -5.19 0.891435 0
M  V30 527 H 56.3054 -3.63484 1.03381 0
M  V30 528 H 56.6184 -7.23777 2.70863 0
M  V30 529 H 54.9634 -6.51155 2.42944 0
M  V30 530 H 58.1544 -4.47865 1.3614 0
M  V30 531 H 58.3274 -6.12169 2.12492 0
M  V30 532 N 51.7335 -0.305618 -1.54608 0
M  V30 533 C 52.9615 0.304775 -2.04643 0
M  V30 534 C 53.3765 1.47167 -1.18268 0
M  V30 535 O 52.7335 1.81296 -0.209328 0
M  V30 536 C 52.7845 0.756564 -3.53495 0
M  V30 537 O 52.5055 -0.36389 -4.36586 0
M  V30 538 C 54.0065 1.43163 -4.19546 0
M  V30 539 H 51.2265 0.0655481 -0.667791 0
M  V30 540 H 53.7705 -0.446592 -1.99564 0
M  V30 541 H 51.9255 1.45794 -3.58919 0
M  V30 542 H 52.3395 -0.0113121 -5.24499 0
M  V30 543 H 53.8135 1.69886 -5.25207 0
M  V30 544 H 54.2905 2.37318 -3.69563 0
M  V30 545 H 54.8965 0.773307 -4.18211 0
M  V30 546 N 53.2116 1.57565 -0.0334293 0
M  V30 547 C 54.1416 2.13511 0.945265 0
M  V30 548 C 55.1226 1.05231 1.33643 0
M  V30 549 O 56.3076 1.33084 1.41429 0
M  V30 550 C 53.4376 2.6657 2.22616 0
M  V30 551 C 52.3916 3.79676 1.97561 0
M  V30 552 C 51.7176 4.1918 3.31952 0
M  V30 553 C 53.0176 5.0557 1.31135 0
M  V30 554 H 54.7116 2.95538 0.479325 0
M  V30 555 H 52.2576 1.42166 0.229115 0
M  V30 556 H 54.2106 3.04344 2.91466 0
M  V30 557 H 52.9346 1.8171 2.71384 0
M  V30 558 H 51.5936 3.42347 1.31127 0
M  V30 559 H 51.2416 3.31296 3.78487 0
M  V30 560 H 50.9416 4.95402 3.15992 0
M  V30 561 H 52.4656 4.59541 4.02063 0
M  V30 562 H 53.8796 5.40903 1.89992 0
M  V30 563 H 52.2766 5.86818 1.25559 0
M  V30 564 H 53.3466 4.84062 0.284894 0
M  V30 565 N 54.6897 -0.239769 1.55765 0
M  V30 566 C 55.6527 -1.28038 1.90103 0
M  V30 567 C 56.6527 -1.40723 0.778055 0
M  V30 568 O 57.8427 -1.39301 1.04599 0
M  V30 569 C 54.9747 -2.65702 2.13577 0
M  V30 570 H 56.1677 -0.988048 2.83157 0
M  V30 571 H 53.7207 -0.479382 1.48767 0
M  V30 572 H 54.4557 -3.00063 1.23015 0
M  V30 573 H 54.2407 -2.57875 2.95369 0
M  V30 574 H 55.7307 -3.40828 2.41301 0
M  V30 575 N 56.1678 -1.49265 -0.50573 0
M  V30 576 C 57.4158 -1.582 -1.25766 0
M  V30 577 C 57.7368 -0.268482 -1.93143 0
M  V30 578 O 57.0068 0.711833 -1.8251 0
M  V30 579 H 55.5868 -0.582873 -0.467191 0
M  V30 580 H 58.2488 -1.85865 -0.586525 0
M  V30 581 H 57.3448 -2.37563 -2.02412 0
M  V30 582 N 57.6459 0.756429 -1.3826 0
M  V30 583 C 58.5559 1.9009 -1.37488 0
M  V30 584 C 59.5719 1.71855 -0.272366 0
M  V30 585 O 60.7479 1.94827 -0.510318 0
M  V30 586 C 57.8129 3.25421 -1.19592 0
M  V30 587 C 56.8739 3.56202 -2.39622 0
M  V30 588 C 56.1069 4.85075 -2.2257 0
M  V30 589 O 56.3299 5.57246 -1.21793 0
M  V30 590 O 55.2639 5.15269 -3.11098 0
M  V30 591 H 59.0899 1.93695 -2.33914 0
M  V30 592 H 56.6749 0.901313 -1.1915 0
M  V30 593 H 58.5569 4.06337 -1.11661 0
M  V30 594 H 57.2319 3.22634 -0.262486 0
M  V30 595 H 56.1389 2.75458 -2.53128 0
M  V30 596 H 57.4719 3.63747 -3.31586 0
M  V30 597 N 59.124 1.23083 0.984299 0
M  V30 598 C 60.352 1.08714 1.76037 0
M  V30 599 C 60.767 -0.361691 1.85303 0
M  V30 600 O 60.124 -1.25034 1.32939 0
M  V30 601 C 60.175 1.70206 3.18923 0
M  V30 602 O 59.896 3.09423 3.10144 0
M  V30 603 C 61.397 1.61227 4.12941 0
M  V30 604 H 58.617 0.380664 0.552572 0
M  V30 605 H 61.161 1.62853 1.23689 0
M  V30 606 H 59.316 1.20109 3.6831 0
M  V30 607 H 59.73 3.39188 4.00065 0
M  V30 608 H 61.204 2.08962 5.10919 0
M  V30 609 H 61.681 0.570375 4.35481 0
M  V30 610 H 62.287 2.10671 3.69456 0
M  V30 611 N 60.6021 -1.18246 1.0419 0
M  V30 612 C 61.8501 -1.87886 0.744543 0
M  V30 613 C 62.1711 -1.8082 -0.730006 0
M  V30 614 O 61.4411 -1.22736 -1.52685 0
M  V30 615 H 60.0211 -0.695556 0.272417 0
M  V30 616 H 62.6831 -1.43494 1.31892 0
M  V30 617 H 61.7791 -2.9389 1.05049 0
M  V30 618 N 62.0802 -0.821533 -1.34494 0
M  V30 619 C 63.0122 -0.199946 -2.28326 0
M  V30 620 C 64.0252 0.609377 -1.50965 0
M  V30 621 O 65.2142 0.439285 -1.7301 0
M  V30 622 C 62.3142 0.738431 -3.30757 0
M  V30 623 C 61.4872 -0.0277632 -4.37391 0
M  V30 624 C 60.5462 0.831332 -5.19591 0
M  V30 625 O 59.5722 0.276822 -5.68526 0
M  V30 626 N 60.7742 2.15132 -5.39165 0
M  V30 627 H 63.5392 -1.00609 -2.82308 0
M  V30 628 H 61.1002 -0.678366 -1.47003 0
M  V30 629 H 63.0922 1.31773 -3.82646 0
M  V30 630 H 61.6622 1.44533 -2.7718 0
M  V30 631 H 60.8822 -0.788359 -3.86236 0
M  V30 632 H 62.1702 -0.555251 -5.05761 0
M  V30 633 H 61.5682 2.62559 -5.01078 0
M  V30 634 H 60.1252 2.6795 -5.94177 0
M  V30 635 N 63.5583 1.46682 -0.576371 0
M  V30 636 C 64.4683 2.34032 0.163141 0
M  V30 637 C 65.4843 1.49367 0.892501 0
M  V30 638 O 66.6603 1.82252 0.857106 0
M  V30 639 C 63.7253 3.26435 1.16795 0
M  V30 640 C 62.7863 4.26998 0.443944 0
M  V30 641 C 62.0193 5.14986 1.40088 0
M  V30 642 O 62.2423 5.05785 2.637 0
M  V30 643 O 61.1763 5.94906 0.914917 0
M  V30 644 H 65.0023 2.98607 -0.55388 0
M  V30 645 H 62.5873 1.45554 -0.336821 0
M  V30 646 H 64.4693 3.83459 1.74748 0
M  V30 647 H 63.1443 2.64465 1.86655 0
M  V30 648 H 62.0513 3.7368 -0.177271 0
M  V30 649 H 63.3843 4.91736 -0.213566 0
M  V30 650 N 65.0364 0.313813 1.54444 0
M  V30 651 C 65.9994 -0.54379 2.22656 0
M  V30 652 C 66.9994 -1.05124 1.21678 0
M  V30 653 O 68.1894 -0.945225 1.46325 0
M  V30 654 C 65.3214 -1.75427 2.92298 0
M  V30 655 H 66.5144 0.0523599 2.99854 0
M  V30 656 H 64.0674 0.0647834 1.56166 0
M  V30 657 H 64.8024 -2.38991 2.19211 0
M  V30 658 H 64.5874 -1.39791 3.66334 0
M  V30 659 H 66.0774 -2.36325 3.44297 0
M  V30 660 N 66.5145 -1.57545 0.0417849 0
M  V30 661 C 67.4775 -2.09885 -0.92093 0
M  V30 662 C 68.4775 -1.01648 -1.24596 0
M  V30 663 O 69.6675 -1.27759 -1.1842 0
M  V30 664 C 66.7995 -2.57527 -2.23367 0
M  V30 665 H 67.9925 -2.96236 -0.467382 0
M  V30 666 H 65.5455 -1.5493 -0.206467 0
M  V30 667 H 66.2805 -1.74542 -2.73323 0
M  V30 668 H 66.0655 -3.36613 -2.01083 0
M  V30 669 H 67.5555 -2.98201 -2.92346 0
M  V30 670 N 67.9926 0.231505 -1.5589 0
M  V30 671 C 69.4036 0.799327 -1.68724 0
M  V30 672 C 69.7546 1.85398 -0.642022 0
M  V30 673 O 68.8796 2.1539 0.208784 0
M  V30 674 C 69.4746 1.45664 -3.05888 0
M  V30 675 C 68.0336 1.97197 -3.20609 0
M  V30 676 C 67.1806 0.828552 -2.64632 0
M  V30 677 H 70.1316 0.00702616 -1.58698 0
M  V30 678 H 70.1526 2.32517 -3.01191 0
M  V30 679 H 69.6646 0.688808 -3.81939 0
M  V30 680 H 67.7656 2.76813 -2.4941 0
M  V30 681 H 67.8786 2.15878 -4.27707 0
M  V30 682 H 66.2426 1.23321 -2.22854 0
M  V30 683 H 67.0256 0.0735544 -3.43221 0
M  V30 684 N 69.4707 1.49531 0.497807 0
M  V30 685 C 70.4007 1.6935 1.60757 0
M  V30 686 C 71.3817 0.542218 1.61227 0
M  V30 687 O 72.5667 0.778417 1.77917 0
M  V30 688 C 69.6967 1.76298 2.99226 0
M  V30 689 C 68.6507 2.91248 3.13622 0
M  V30 690 C 67.9767 2.83312 4.53474 0
M  V30 691 C 69.2767 4.3214 2.93346 0
M  V30 692 H 70.9707 2.62263 1.44425 0
M  V30 693 H 68.5167 1.26208 0.693367 0
M  V30 694 H 70.4697 1.88749 3.76765 0
M  V30 695 H 69.1937 0.799871 3.16654 0
M  V30 696 H 67.8527 2.78404 2.38509 0
M  V30 697 H 67.5007 1.84902 4.67782 0
M  V30 698 H 67.2007 3.60465 4.64046 0
M  V30 699 H 68.7247 2.97775 5.33069 0
M  V30 700 H 70.1387 4.45649 3.60652 0
M  V30 701 H 68.5357 5.1054 3.15387 0
M  V30 702 H 69.6057 4.46363 1.89441 0
M  V30 703 N 70.9488 -0.749086 1.3866 0
M  V30 704 C 72.2258 -1.4992 1.25632 0
M  V30 705 C 72.6058 -2.10633 -0.140317 0
M  V30 706 O 71.9538 -1.97437 -1.15025 0
M  V30 707 C 72.1638 -2.56195 2.36992 0
M  V30 708 C 73.5118 -3.22972 2.75634 0
M  V30 709 O 74.5358 -2.66502 2.36337 0
M  V30 710 O 73.3948 -4.25122 3.43415 0
M  V30 711 H 70.4888 -0.665067 0.491544 0
M  V30 712 H 73.0348 -0.784113 1.50498 0
M  V30 713 H 71.8068 -2.09612 3.30422 0
M  V30 714 H 71.4298 -3.35279 2.13714 0
M  V30 715 N 72.4269 -1.23603 -0.977757 0
M  V30 716 C 73.6749 -1.06759 -1.71601 0
M  V30 717 C 73.9959 0.395929 -1.90938 0
M  V30 718 O 73.2659 1.28356 -1.47992 0
M  V30 719 H 71.8459 -0.392062 -0.635843 0
M  V30 720 H 74.5079 -1.55362 -1.1768 0
M  V30 721 H 73.6039 -1.55763 -2.70452 0
M  V30 722 N 73.905 1.17692 -1.04816 0
M  V30 723 C 75.151 1.88137 -0.75711 0
M  V30 724 C 75.484 1.80604 0.713841 0
M  V30 725 O 74.759 1.21146 1.52164 0
M  V30 726 C 75.042 3.38318 -1.2334 0
M  V30 727 C 74.895 3.54622 -2.76701 0
M  V30 728 C 76.214 4.32214 -0.829415 0
M  V30 729 H 73.333 0.683163 -0.27651 0
M  V30 730 H 75.975 1.38424 -1.30149 0
M  V30 731 H 74.125 3.80787 -0.770286 0
M  V30 732 H 75.797 3.21194 -3.31107 0
M  V30 733 H 74.04 2.97026 -3.16161 0
M  V30 734 H 74.711 4.60028 -3.05088 0
M  V30 735 H 77.187 3.97565 -1.22805 0
M  V30 736 H 76.063 5.35838 -1.19033 0
M  V30 737 H 76.324 4.41294 0.266891 0
M  V30 738 N 75.3831 0.828654 1.34056 0
M  V30 739 C 76.3131 0.269443 2.3194 0
M  V30 740 C 77.2941 -0.617247 1.58506 0
M  V30 741 O 78.4791 -0.542931 1.86456 0
M  V30 742 C 75.6091 -0.564793 3.42677 0
M  V30 743 C 74.5631 0.225241 4.27407 0
M  V30 744 C 73.8891 -0.7321 5.29664 0
M  V30 745 C 75.1891 1.43663 5.02154 0
M  V30 746 H 76.8831 1.08728 2.7896 0
M  V30 747 H 74.4291 0.524283 1.34117 0
M  V30 748 H 76.3821 -0.966233 4.10173 0
M  V30 749 H 75.1061 -1.41574 2.9432 0
M  V30 750 H 73.7651 0.608117 3.61521 0
M  V30 751 H 73.4131 -1.57916 4.77568 0
M  V30 752 H 73.1131 -0.20767 5.87233 0
M  V30 753 H 74.6371 -1.13128 6.00029 0
M  V30 754 H 76.0511 1.1089 5.62473 0
M  V30 755 H 74.4481 1.89711 5.69324 0
M  V30 756 H 75.5181 2.21181 4.31517 0
M  V30 757 N 76.8612 -1.46375 0.584142 0
M  V30 758 C 77.8242 -2.28784 -0.138108 0
M  V30 759 C 78.8242 -1.38471 -0.817462 0
M  V30 760 O 80.0142 -1.60833 -0.669199 0
M  V30 761 C 77.1462 -3.18892 -1.20503 0
M  V30 762 H 78.3392 -2.94117 0.586127 0
M  V30 763 H 75.8922 -1.52509 0.342171 0
M  V30 764 H 76.6272 -2.58309 -1.96079 0
M  V30 765 H 76.4122 -3.85388 -0.722384 0
M  V30 766 H 77.9022 -3.80914 -1.71155 0
M  V30 767 N 78.3393 -0.321999 -1.54275 0
M  V30 768 C 79.2873 0.560206 -2.25753 0
M  V30 769 C 80.2813 1.11984 -1.27106 0
M  V30 770 O 81.4873 1.06806 -1.44888 0
M  V30 771 H 77.8623 0.199304 -0.725108 0
M  V30 772 H 79.8333 -0.0649365 -2.98329 0
M  V30 773 C 78.5823 1.71023 -3.02731 0
M  V30 774 H 77.9053 1.28885 -3.78456 0
M  V30 775 H 79.3453 2.30314 -3.55993 0
M  V30 776 C 77.8043 2.62692 -2.10938 0
M  V30 777 O 78.3343 3.64364 -1.6912 0
M  V30 778 N 76.5403 2.30891 -1.76459 0
M  V30 779 H 76.0873 1.48253 -2.10663 0
M  V30 780 H 76.0453 2.92487 -1.1532 0
M  V30 781 N 79.8174 1.5752 -0.0501392 0
M  V30 782 C 81.2284 1.80271 0.485705 0
M  V30 783 C 81.5794 0.96228 1.70981 0
M  V30 784 O 80.7044 0.178578 2.15662 0
M  V30 785 C 81.2994 3.26957 0.887938 0
M  V30 786 C 79.8584 3.5063 1.36877 0
M  V30 787 C 79.0054 2.75165 0.343468 0
M  V30 788 H 81.9564 1.56281 -0.276028 0
M  V30 789 H 81.9774 3.37821 1.75093 0
M  V30 790 H 81.4894 3.881 -0.0031809 0
M  V30 791 H 79.5904 2.94766 2.27911 0
M  V30 792 H 79.7034 4.59343 1.36164 0
M  V30 793 H 78.0674 2.4127 0.816128 0
M  V30 794 H 78.8504 3.39034 -0.539548 0
M  V30 795 N 81.2955 -0.223234 1.56011 0
M  V30 796 C 82.7065 -0.790368 1.69145 0
M  V30 797 C 83.0575 -1.85055 0.651845 0
M  V30 798 O 82.1825 -2.15498 -0.197359 0
M  V30 799 C 82.7775 -1.4404 3.06656 0
M  V30 800 C 81.3365 -1.95494 3.2165 0
M  V30 801 C 80.4835 -0.814506 2.65068 0
M  V30 802 H 83.4345 0.00139011 1.587 0
M  V30 803 H 83.4555 -2.30916 3.0242 0
M  V30 804 H 82.9675 -0.668543 3.82298 0
M  V30 805 H 81.0685 -2.75487 2.50874 0
M  V30 806 H 81.1815 -2.13607 4.28846 0
M  V30 807 H 79.5455 -1.22137 2.23505 0
M  V30 808 H 80.3285 -0.0553515 3.43255 0
M  V30 809 N 82.7736 -1.49793 -0.48987 0
M  V30 810 C 83.7216 -1.67783 -1.61095 0
M  V30 811 C 84.7156 -0.543683 -1.60438 0
M  V30 812 O 85.9216 -0.723647 -1.64813 0
M  V30 813 H 82.2966 -0.529255 -0.534222 0
M  V30 814 H 84.2676 -2.61861 -1.43078 0
M  V30 815 C 83.0166 -1.77191 -2.99164 0
M  V30 816 H 82.3396 -2.63841 -3.0038 0
M  V30 817 H 83.7796 -1.93809 -3.77113 0
M  V30 818 C 82.2386 -0.519203 -3.32875 0
M  V30 819 O 82.7686 0.350124 -4.00171 0
M  V30 820 N 80.9746 -0.378816 -2.8812 0
M  V30 821 H 80.5216 -1.08725 -2.33531 0
M  V30 822 H 80.4796 0.458239 -3.11043 0
M  V30 823 N 84.2517 0.741722 -1.39055 0
M  V30 824 C 85.5007 1.49656 -1.35225 0
M  V30 825 C 85.8137 1.95533 0.0512708 0
M  V30 826 O 87.0197 2.7067 0.212138 0
M  V30 827 C 85.4757 2.70389 -2.37525 0
M  V30 828 C 85.0837 2.31489 -3.83558 0
M  V30 829 C 86.8277 3.48236 -2.42759 0
M  V30 830 C 84.7347 3.48903 -4.77515 0
M  V30 831 H 83.6647 0.56197 -0.502699 0
M  V30 832 H 86.3157 0.809727 -1.64668 0
M  V30 833 H 84.6977 3.41113 -2.01142 0
M  V30 834 H 85.8717 1.68354 -4.28945 0
M  V30 835 H 84.1867 1.66749 -3.81554 0
M  V30 836 H 86.7837 4.35558 -3.1015 0
M  V30 837 H 87.1267 3.90229 -1.45008 0
M  V30 838 H 87.6597 2.84535 -2.78002 0
M  V30 839 H 84.3987 3.11966 -5.76504 0
M  V30 840 H 83.9187 4.11041 -4.36813 0
M  V30 841 H 85.5977 4.15328 -4.96096 0
M  V30 842 N 85.7298 1.2412 0.971189 0
M  V30 843 C 86.9548 1.10667 1.75407 0
M  V30 844 C 87.3798 -0.337048 1.85056 0
M  V30 845 O 86.7378 -1.24396 1.31892 0
M  V30 846 C 86.7858 1.74726 3.15441 0
M  V30 847 O 85.8898 1.01566 3.99697 0
M  V30 848 H 85.2308 0.387341 0.539317 0
M  V30 849 H 87.7608 1.64358 1.2185 0
M  V30 850 H 87.7708 1.80341 3.6598 0
M  V30 851 H 86.4458 2.79773 3.07734 0
M  V30 852 H 85.0228 1.03713 3.58187 0
M  V30 853 N 87.2079 -1.17134 1.05439 0
M  V30 854 C 88.4329 -1.91913 0.786396 0
M  V30 855 C 88.8579 -1.7643 -0.652234 0
M  V30 856 O 88.2159 -1.08372 -1.45345 0
M  V30 857 C 88.2639 -3.40921 1.17497 0
M  V30 858 O 87.3679 -4.11244 0.308589 0
M  V30 859 H 86.7089 -0.598215 0.288158 0
M  V30 860 H 89.2389 -1.48457 1.4079 0
M  V30 861 H 89.2489 -3.91668 1.14281 0
M  V30 862 H 87.9239 -3.5151 2.22292 0
M  V30 863 H 86.5009 -3.70731 0.40157 0
M  V30 864 N 88.686 -0.835752 -1.33615 0
M  V30 865 C 89.616 -0.281739 -2.31794 0
M  V30 866 C 90.597 0.608833 -1.58831 0
M  V30 867 O 91.782 0.533035 -1.86741 0
M  V30 868 C 88.912 0.546612 -3.42971 0
M  V30 869 C 87.866 -0.247904 -4.27281 0
M  V30 870 C 87.192 0.704001 -5.30045 0
M  V30 871 C 88.492 -1.46324 -5.01385 0
M  V30 872 H 90.186 -1.10206 -2.78379 0
M  V30 873 H 87.732 -0.531388 -1.33837 0
M  V30 874 H 89.685 0.944467 -4.1068 0
M  V30 875 H 88.409 1.40011 -2.95067 0
M  V30 876 H 87.068 -0.627281 -3.61194 0
M  V30 877 H 86.716 1.55381 -4.78399 0
M  V30 878 H 86.416 0.176524 -5.87335 0
M  V30 879 H 87.94 1.09944 -6.0062 0
M  V30 880 H 89.354 -1.13871 -5.61877 0
M  V30 881 H 87.751 -1.92728 -5.6831 0
M  V30 882 H 88.821 -2.23467 -4.30338 0
M  V30 883 N 90.1641 1.46063 -0.591896 0
M  V30 884 C 91.3891 2.07226 -0.0850314 0
M  V30 885 C 91.8141 1.43625 1.21463 0
M  V30 886 O 91.1721 0.523305 1.73583 0
M  V30 887 C 91.2201 3.60554 0.0576567 0
M  V30 888 O 90.3241 3.97128 1.11188 0
M  V30 889 H 89.6651 0.660615 -0.0669568 0
M  V30 890 H 92.1951 1.8756 -0.81745 0
M  V30 891 H 92.2051 4.07165 0.2609 0
M  V30 892 H 90.8801 4.06235 -0.891416 0
M  V30 893 H 89.4571 3.62213 0.886356 0
M  V30 894 N 91.6422 0.330177 1.54103 0
M  V30 895 C 93.0532 -0.15652 1.86043 0
M  V30 896 C 93.4042 -1.51086 1.2517 0
M  V30 897 O 92.5292 -2.09023 0.560217 0
M  V30 898 C 93.1242 -0.290784 3.3755 0
M  V30 899 C 91.6832 -0.721705 3.69416 0
M  V30 900 C 90.8302 0.152622 2.7688 0
M  V30 901 H 93.7812 0.550237 1.48856 0
M  V30 902 H 93.8022 -1.12058 3.63625 0
M  V30 903 H 93.3142 0.695068 3.81825 0
M  V30 904 H 91.4152 -1.71706 3.30678 0
M  V30 905 H 91.5282 -0.520869 4.7626 0
M  V30 906 H 89.8922 -0.372894 2.51956 0
M  V30 907 H 90.6752 1.13536 3.23982 0
M  V30 908 N 93.1203 -1.57491 0.0584922 0
M  V30 909 C 94.5363 -1.56792 -0.298091 0
M  V30 910 C 94.7363 -1.06679 -1.70944 0
M  V30 911 O 93.7923 -0.726672 -2.41818 0
M  V30 912 C 95.1053 -3.00461 -0.119879 0
M  V30 913 C 96.6533 -3.1242 -0.190428 0
M  V30 914 C 97.1283 -4.57982 -0.0406567 0
M  V30 915 N 98.6193 -4.63099 -0.0966958 0
M  V30 916 C 99.3543 -5.734 -0.00502943 0
M  V30 917 N 98.8503 -6.9266 0.139402 0
M  V30 918 N 100.643 -5.62067 -0.0611391 0
M  V30 919 H 92.7943 -1.88386 0.98105 0
M  V30 920 H 95.0573 -0.867865 0.381463 0
M  V30 921 H 94.7633 -3.41187 0.85349 0
M  V30 922 H 94.6373 -3.66843 -0.877833 0
M  V30 923 H 97.0243 -2.71589 -1.15427 0
M  V30 924 H 97.1053 -2.48702 0.598405 0
M  V30 925 H 96.7493 -4.995 0.919897 0
M  V30 926 H 96.6793 -5.19715 -0.848727 0
M  V30 927 H 99.1703 -3.77331 -0.207277 0
M  V30 928 H 99.4833 -7.72536 0.201855 0
M  V30 929 H 97.8283 -6.94781 0.174586 0
M  V30 930 H 101.019 -4.67782 -0.172583 0
M  V30 931 H 101.192 -6.47999 0.0137562 0
M  V30 932 N 94.5984 0.214957 -1.56127 0
M  V30 933 C 95.5304 1.29004 -1.89448 0
M  V30 934 C 96.5434 1.42716 -0.783326 0
M  V30 935 O 97.7324 1.43496 -1.06166 0
M  V30 936 C 94.8324 2.66482 -2.09381 0
M  V30 937 C 94.0054 2.74633 -3.40434 0
M  V30 938 C 93.0644 3.9317 -3.49719 0
M  V30 939 O 92.0904 3.812 -4.227 0
M  V30 940 N 93.2924 5.07765 -2.81346 0
M  V30 941 H 96.0574 1.00743 -2.82261 0
M  V30 942 H 93.6184 0.40497 -1.56753 0
M  V30 943 H 95.6104 3.44173 -2.12901 0
M  V30 944 H 94.1804 2.87314 -1.23163 0
M  V30 945 H 93.4004 1.83368 -3.48955 0
M  V30 946 H 94.6884 2.77054 -4.26754 0
M  V30 947 H 94.0864 5.20386 -2.21843 0
M  V30 948 H 92.6434 5.83474 -2.90519 0
M  V30 949 N 96.0765 1.50051 0.48192 0
M  V30 950 C 97.0065 1.71046 1.58951 0
M  V30 951 C 97.9875 0.559288 1.60642 0
M  V30 952 O 99.1725 0.797243 1.77081 0
M  V30 953 C 96.3025 1.79462 2.97339 0
M  V30 954 C 95.2565 2.94558 3.10515 0
M  V30 955 C 94.5825 2.88105 4.50444 0
M  V30 956 C 95.8825 4.35227 2.88747 0
M  V30 957 H 97.5765 2.6378 1.41635 0
M  V30 958 H 95.1225 1.26936 0.679942 0
M  V30 959 H 97.0755 1.92734 3.74742 0
M  V30 960 H 95.7995 0.833412 3.15788 0
M  V30 961 H 94.4585 2.80918 2.35543 0
M  V30 962 H 94.1065 1.89853 4.65795 0
M  V30 963 H 93.8065 3.65366 4.60197 0
M  V30 964 H 95.3305 3.03412 5.29881 0
M  V30 965 H 96.7445 4.49449 3.55905 0
M  V30 966 H 95.1415 5.13856 3.09955 0
M  V30 967 H 96.2115 4.48347 1.84696 0
M  V30 968 N 97.5546 -0.734337 1.39446 0
M  V30 969 C 98.4846 -1.86155 1.40955 0
M  V30 970 C 99.4656 -1.67898 0.272827 0
M  V30 971 O 100.651 -1.88207 0.478743 0
M  V30 972 C 97.7806 -3.23912 1.25294 0
M  V30 973 C 96.7346 -3.56808 2.36373 0
M  V30 974 C 96.0606 -4.93508 2.058 0
M  V30 975 C 97.3606 -3.59713 3.78687 0
M  V30 976 H 99.0546 -1.8515 2.35287 0
M  V30 977 H 96.6006 -0.889367 1.13253 0
M  V30 978 H 98.5536 -4.02443 1.2497 0
M  V30 979 H 97.2776 -3.25446 0.274308 0
M  V30 980 H 95.9366 -2.80606 2.35914 0
M  V30 981 H 95.5846 -4.91623 1.06374 0
M  V30 982 H 95.2846 -5.16486 2.80208 0
M  V30 983 H 96.8086 -5.74396 2.07128 0
M  V30 984 H 98.2226 -4.2832 3.81071 0
M  V30 985 H 96.6196 -3.94209 4.52459 0
M  V30 986 H 97.6896 -2.59504 4.09617 0
M  V30 987 N 99.0327 -1.24633 -0.964593 0
M  V30 988 C 100.281 -1.08573 -1.70459 0
M  V30 989 C 100.602 0.375655 -1.91347 0
M  V30 990 O 99.8717 1.26779 -1.49345 0
M  V30 991 H 98.4517 -0.398784 -0.631649 0
M  V30 992 H 101.114 -1.56601 -1.16026 0
M  V30 993 H 100.21 -1.58623 -2.68785 0
M  V30 994 N 100.511 1.16574 -1.06058 0
M  V30 995 C 101.758 1.87047 -0.775873 0
M  V30 996 C 102.086 1.81562 0.697534 0
M  V30 997 O 101.341 1.22445 1.52662 0
M  V30 998 C 101.64 3.36195 -1.21275 0
M  V30 999 C 101.306 3.6188 -2.68986 0
M  V30 1000 C 99.9678 3.68599 -3.09335 0
M  V30 1001 C 102.32 3.72648 -3.64394 0
M  V30 1002 C 99.6478 3.83584 -4.43937 0
M  V30 1003 C 102 3.89154 -4.98741 0
M  V30 1004 C 100.664 3.94114 -5.3873 0
M  V30 1005 H 99.9338 0.684452 -0.283912 0
M  V30 1006 H 102.581 1.37853 -1.32925 0
M  V30 1007 H 100.886 3.87505 -0.578528 0
M  V30 1008 H 102.583 3.89103 -0.969542 0
M  V30 1009 H 99.1728 3.57281 -2.36744 0
M  V30 1010 H 103.357 3.66769 -3.34356 0
M  V30 1011 H 98.6128 3.85677 -4.74409 0
M  V30 1012 H 102.787 3.96427 -5.72554 0
M  V30 1013 H 100.414 4.05478 -6.43033 0
M  V30 1014 N 101.989 0.842826 1.3317 0
M  V30 1015 C 103.4 0.496651 1.79973 0
M  V30 1016 C 103.751 -0.984641 1.69703 0
M  V30 1017 O 102.876 -1.76743 1.24863 0
M  V30 1018 C 103.471 0.894727 3.26772 0
M  V30 1019 C 102.03 0.600629 3.71577 0
M  V30 1020 C 101.177 1.10091 2.5451 0
M  V30 1021 H 104.128 1.03116 1.20635 0
M  V30 1022 H 104.149 0.206347 3.7994 0
M  V30 1023 H 103.661 1.97287 3.34215 0
M  V30 1024 H 101.762 -0.467284 3.69658 0
M  V30 1025 H 101.875 1.15863 4.64879 0
M  V30 1026 H 100.239 0.52162 2.49301 0
M  V30 1027 H 101.022 2.18591 2.64713 0
M  V30 1028 N 103.467 -1.45747 0.599634 0
M  V30 1029 C 104.707 -2.04181 0.0946309 0
M  V30 1030 C 105.071 -1.45895 -1.24815 0
M  V30 1031 O 106.272 -1.95633 -1.8434 0
M  V30 1032 C 104.543 -3.57368 0.047581 0
M  V30 1033 S 106.102 -4.36997 -0.397387 0
M  V30 1034 H 102.92 -0.70953 0.0456954 0
M  V30 1035 H 105.522 -1.78564 0.795946 0
M  V30 1036 H 104.226 -3.97303 1.02852 0
M  V30 1037 H 103.757 -3.87549 -0.675977 0
M  V30 1038 H 105.772 -4.68012 -1.64862 0
M  V30 1039 N 104.945 -0.338344 -1.53925 0
M  V30 1040 C 105.908 0.508299 -2.23493 0
M  V30 1041 C 106.908 1.03175 -1.23335 0
M  V30 1042 O 108.098 0.921826 -1.47811 0
M  V30 1043 C 105.23 1.70754 -2.95052 0
M  V30 1044 H 106.423 -0.100058 -2.99733 0
M  V30 1045 H 103.976 -0.0896198 -1.56043 0
M  V30 1046 H 104.711 2.35474 -2.22986 0
M  V30 1047 H 104.496 1.33946 -3.68512 0
M  V30 1048 H 105.986 2.30818 -3.48013 0
M  V30 1049 N 106.423 1.57458 -0.0668435 0
M  V30 1050 C 107.333 2.15937 0.916975 0
M  V30 1051 C 108.349 1.12123 1.33058 0
M  V30 1052 O 109.525 1.44366 1.40429 0
M  V30 1053 C 106.59 2.70547 2.16807 0
M  V30 1054 C 105.651 3.89215 1.81135 0
M  V30 1055 C 104.884 4.41211 3.0028 0
M  V30 1056 O 105.107 3.92225 4.14144 0
M  V30 1057 O 104.041 5.32605 2.80384 0
M  V30 1058 H 107.867 3.00354 0.449561 0
M  V30 1059 H 105.452 1.48584 0.155949 0
M  V30 1060 H 107.334 3.0557 2.90181 0
M  V30 1061 H 106.009 1.89192 2.62656 0
M  V30 1062 H 104.916 3.59054 1.05028 0
M  V30 1063 H 106.249 4.71848 1.40073 0
M  V30 1064 N 107.901 -0.206675 1.56239 0
M  V30 1065 C 109.147 -0.930218 1.80208 0
M  V30 1066 C 109.48 -1.83387 0.638981 0
M  V30 1067 O 108.755 -1.91119 -0.361066 0
M  V30 1068 C 109.038 -1.75641 3.1436 0
M  V30 1069 C 108.891 -0.878257 4.41142 0
M  V30 1070 C 110.21 -2.73129 3.45092 0
M  V30 1071 H 107.329 -0.336742 0.655571 0
M  V30 1072 H 109.971 -0.198222 1.88963 0
M  V30 1073 H 108.121 -2.38048 3.07027 0
M  V30 1074 H 109.793 -0.269787 4.6051 0
M  V30 1075 H 108.036 -0.184385 4.33408 0
M  V30 1076 H 108.707 -1.49106 5.3148 0
M  V30 1077 H 111.183 -2.20856 3.52649 0
M  V30 1078 H 110.059 -3.28028 4.40101 0
M  V30 1079 H 110.32 -3.51606 2.68003 0
M  V30 1080 N 109.379 -1.50304 -0.473955 0
M  V30 1081 C 110.604 -1.65175 -1.25427 0
M  V30 1082 C 111.029 -0.333673 -1.85117 0
M  V30 1083 O 110.387 0.702114 -1.67153 0
M  V30 1084 C 110.435 -2.74295 -2.34082 0
M  V30 1085 O 109.539 -2.35349 -3.38651 0
M  V30 1086 H 108.88 -0.551944 -0.369126 0
M  V30 1087 H 111.41 -1.96662 -0.564364 0
M  V30 1088 H 111.42 -2.97285 -2.79438 0
M  V30 1089 H 110.095 -3.69959 -1.90008 0
M  V30 1090 H 108.672 -2.22794 -2.99027 0
M  V30 1091 N 110.857 0.726932 -1.39834 0
M  V30 1092 C 112.105 1.4837 -1.37225 0
M  V30 1093 C 112.426 1.94979 0.0284857 0
M  V30 1094 O 111.696 1.69555 0.981213 0
M  V30 1095 H 110.276 0.55043 -0.505011 0
M  V30 1096 H 112.938 0.862468 -1.74778 0
M  V30 1097 H 112.034 2.36198 -2.04003 0
M  V30 1098 N 112.336 1.25143 0.95797 0
M  V30 1099 C 113.266 1.07711 2.07173 0
M  V30 1100 C 114.247 -0.0128462 1.70095 0
M  V30 1101 O 115.432 0.156061 1.93572 0
M  V30 1102 C 112.562 0.691503 3.40346 0
M  V30 1103 C 111.516 1.73132 3.9142 0
M  V30 1104 C 110.842 1.20049 5.21049 0
M  V30 1105 C 112.142 3.1294 4.1817 0
M  V30 1106 H 113.836 2.00873 2.22014 0
M  V30 1107 H 111.382 0.967191 1.06684 0
M  V30 1108 H 113.335 0.556505 4.17709 0
M  V30 1109 H 112.059 -0.275819 3.25433 0
M  V30 1110 H 110.718 1.8547 3.16222 0
M  V30 1111 H 110.366 0.223499 5.02503 0
M  V30 1112 H 110.066 1.89545 5.56189 0
M  V30 1113 H 111.59 1.07782 6.01012 0
M  V30 1114 H 113.004 3.03775 4.86203 0
M  V30 1115 H 111.401 3.79875 4.64559 0
M  V30 1116 H 112.471 3.6025 3.24573 0
M  V30 1117 N 113.814 -1.1601 1.06675 0
M  V30 1118 C 115.039 -1.91068 0.806706 0
M  V30 1119 C 115.464 -1.77112 -0.633485 0
M  V30 1120 O 114.822 -1.09908 -1.44187 0
M  V30 1121 C 114.87 -3.39655 1.21106 0
M  V30 1122 O 113.974 -4.10893 0.352189 0
M  V30 1123 H 113.315 -0.595125 0.294486 0
M  V30 1124 H 115.845 -1.46955 1.42356 0
M  V30 1125 H 115.855 -3.90434 1.18428 0
M  V30 1126 H 114.53 -3.49132 2.26008 0
M  V30 1127 H 113.107 -3.70285 0.440868 0
M  V30 1128 N 115.292 -0.849877 -1.32721 0
M  V30 1129 C 116.52 -0.464754 -2.01613 0
M  V30 1130 C 116.935 0.937191 -1.63897 0
M  V30 1131 O 116.292 1.61081 -0.857856 0
M  V30 1132 C 116.343 -0.588638 -3.56675 0
M  V30 1133 O 116.064 -1.93535 -3.93034 0
M  V30 1134 C 117.565 -0.2019 -4.4284 0
M  V30 1135 H 114.785 -0.183215 -0.645502 0
M  V30 1136 H 117.329 -1.1455 -1.69407 0
M  V30 1137 H 115.484 0.0443159 -3.87375 0
M  V30 1138 H 115.898 -1.92871 -4.87751 0
M  V30 1139 H 117.372 -0.339599 -5.50954 0
M  V30 1140 H 117.849 0.857224 -4.30753 0
M  V30 1141 H 118.455 -0.809733 -4.17521 0
M  V30 1142 N 116.77 1.45427 -0.607355 0
M  V30 1143 C 117.68 2.34325 0.113463 0
M  V30 1144 C 118.696 1.51226 0.860617 0
M  V30 1145 O 119.872 1.84029 0.818255 0
M  V30 1146 C 116.937 3.28839 1.09844 0
M  V30 1147 C 115.998 4.27844 0.353271 0
M  V30 1148 C 115.231 5.17842 1.29133 0
M  V30 1149 O 115.454 5.11264 2.52913 0
M  V30 1150 O 114.388 5.96713 0.788523 0
M  V30 1151 H 118.214 2.97364 -0.617094 0
M  V30 1152 H 115.799 1.44807 -0.367619 0
M  V30 1153 H 117.681 3.8708 1.66575 0
M  V30 1154 H 116.356 2.68365 1.81003 0
M  V30 1155 H 115.263 3.7322 -0.256494 0
M  V30 1156 H 116.596 4.91173 -0.317822 0
M  V30 1157 N 118.248 0.346503 1.53744 0
M  V30 1158 C 119.664 -0.00530975 1.59599 0
M  V30 1159 C 119.864 -1.48465 1.36236 0
M  V30 1160 O 118.92 -2.24376 1.15808 0
M  V30 1161 C 120.233 0.433516 2.97559 0
M  V30 1162 C 121.781 0.386111 3.10609 0
M  V30 1163 C 122.256 0.800451 4.50951 0
M  V30 1164 N 123.747 0.754753 4.5701 0
M  V30 1165 C 124.482 1.04727 5.63755 0
M  V30 1166 N 123.978 1.4081 6.7834 0
M  V30 1167 N 125.771 0.971316 5.53644 0
M  V30 1168 H 117.922 1.31009 1.67184 0
M  V30 1169 H 120.185 0.534242 0.783128 0
M  V30 1170 H 119.891 1.46509 3.19731 0
M  V30 1171 H 119.765 -0.189753 3.76722 0
M  V30 1172 H 122.152 -0.636295 2.88158 0
M  V30 1173 H 122.233 1.04462 2.33498 0
M  V30 1174 H 121.877 1.82088 4.74137 0
M  V30 1175 H 121.807 0.119386 5.26465 0
M  V30 1176 H 124.298 0.488662 3.74727 0
M  V30 1177 H 124.611 1.61607 7.55714 0
M  V30 1178 H 122.956 1.44657 6.79779 0
M  V30 1179 H 126.147 0.688748 4.63005 0
M  V30 1180 H 126.32 1.20263 6.36742 0
M  V30 1181 N 119.726 -1.57421 0.075193 0
M  V30 1182 C 120.972 -1.93905 -0.594025 0
M  V30 1183 C 121.305 -0.955701 -1.69056 0
M  V30 1184 O 120.58 0.0145373 -1.94495 0
M  V30 1185 C 120.863 -3.40638 -1.1678 0
M  V30 1186 C 120.716 -4.49733 -0.0776792 0
M  V30 1187 C 122.035 -3.88259 -2.07228 0
M  V30 1188 H 119.154 -0.705105 -0.214466 0
M  V30 1189 H 121.796 -1.8947 0.141854 0
M  V30 1190 H 119.946 -3.44549 -1.79494 0
M  V30 1191 H 121.618 -4.57942 0.555573 0
M  V30 1192 H 119.861 -4.29751 0.591286 0
M  V30 1193 H 120.532 -5.49549 -0.519603 0
M  V30 1194 H 123.008 -3.86376 -1.54445 0
M  V30 1195 H 121.884 -4.91533 -2.44308 0
M  V30 1196 H 122.145 -3.26396 -2.98191 0
M  V30 1197 N 121.204 0.198386 -1.56346 0
M  V30 1198 C 122.62 0.549085 -1.49857 0
M  V30 1199 C 122.82 1.86016 -0.774611 0
M  V30 1200 O 121.876 2.50416 -0.323776 0
M  V30 1201 C 123.189 0.606868 -2.94512 0
M  V30 1202 C 124.737 0.695925 -3.05165 0
M  V30 1203 C 125.212 0.784848 -4.51225 0
M  V30 1204 N 126.703 0.848463 -4.55363 0
M  V30 1205 C 127.438 0.937378 -5.65686 0
M  V30 1206 N 126.934 0.9888 -6.85707 0
M  V30 1207 N 128.727 0.974312 -5.53592 0
M  V30 1208 H 120.878 -0.661655 -2.01831 0
M  V30 1209 H 123.141 -0.235261 -0.918344 0
M  V30 1210 H 122.847 -0.28732 -3.50524 0
M  V30 1211 H 122.721 1.46268 -3.47686 0
M  V30 1212 H 125.108 1.58055 -2.49204 0
M  V30 1213 H 125.189 -0.186022 -2.55123 0
M  V30 1214 H 124.833 -0.0954072 -5.0781 0
M  V30 1215 H 124.763 1.68255 -4.98997 0
M  V30 1216 H 127.254 0.818103 -3.68938 0
M  V30 1217 H 127.567 1.05707 -7.65536 0
M  V30 1218 H 125.912 0.957534 -6.88372 0
M  V30 1219 H 129.103 0.930954 -4.58749 0
M  V30 1220 H 129.276 1.04015 -6.39597 0
M  V30 1221 N 122.682 1.50554 0.465978 0
M  V30 1222 C 123.592 1.72585 1.58907 0
M  V30 1223 C 124.608 0.60911 1.6299 0
M  V30 1224 O 125.784 0.88804 1.80765 0
M  V30 1225 C 122.849 1.81995 2.95091 0
M  V30 1226 C 121.91 3.05751 3.01355 0
M  V30 1227 C 121.143 3.14702 4.31043 0
M  V30 1228 O 121.366 2.30313 5.21835 0
M  V30 1229 O 120.3 4.07468 4.43005 0
M  V30 1230 H 124.126 2.67799 1.43239 0
M  V30 1231 H 121.711 1.34711 0.646013 0
M  V30 1232 H 123.593 1.90335 3.75966 0
M  V30 1233 H 122.268 0.899659 3.10947 0
M  V30 1234 H 121.175 3.02908 2.19539 0
M  V30 1235 H 122.508 3.97375 2.90437 0
M  V30 1236 N 124.16 -0.719506 1.40217 0
M  V30 1237 C 125.09 -1.8465 1.42922 0
M  V30 1238 C 126.071 -1.67599 0.29062 0
M  V30 1239 O 127.256 -1.87688 0.498677 0
M  V30 1240 C 124.386 -3.22565 1.28722 0
M  V30 1241 C 123.34 -3.54281 2.40144 0
M  V30 1242 C 122.666 -4.91298 2.11023 0
M  V30 1243 C 123.966 -3.55676 3.82481 0
M  V30 1244 H 125.66 -1.82644 2.37237 0
M  V30 1245 H 123.206 -0.877305 1.1419 0
M  V30 1246 H 125.159 -4.01095 1.29232 0
M  V30 1247 H 123.883 -3.25137 0.308811 0
M  V30 1248 H 122.542 -2.78088 2.38877 0
M  V30 1249 H 122.19 -4.90468 1.11582 0
M  V30 1250 H 121.89 -5.13485 2.8567 0
M  V30 1251 H 123.414 -5.72166 2.13209 0
M  V30 1252 H 124.828 -4.24254 3.85592 0
M  V30 1253 H 123.225 -3.89388 4.56614 0
M  V30 1254 H 124.295 -2.55144 4.12346 0
M  V30 1255 N 125.638 -1.25649 -0.95132 0
M  V30 1256 C 126.601 -1.06399 -2.03007 0
M  V30 1257 C 127.601 -0.0156794 -1.60792 0
M  V30 1258 O 128.791 -0.25817 -1.72276 0
M  V30 1259 C 125.923 -0.616184 -3.35285 0
M  V30 1260 H 127.116 -2.02164 -2.21517 0
M  V30 1261 H 124.669 -1.08103 -1.12887 0
M  V30 1262 H 125.404 0.343917 -3.22471 0
M  V30 1263 H 125.189 -1.37301 -3.67275 0
M  V30 1264 H 126.679 -0.503032 -4.14559 0
M  V30 1265 N 127.117 1.15442 -1.07289 0
M  V30 1266 C 128.363 1.86489 -0.796846 0
M  V30 1267 C 128.696 1.82078 0.675371 0
M  V30 1268 O 127.971 1.24346 1.4956 0
M  V30 1269 C 128.254 3.35626 -1.30489 0
M  V30 1270 C 128.107 3.48673 -2.84161 0
M  V30 1271 C 129.426 4.30357 -0.920907 0
M  V30 1272 H 126.545 0.677144 -0.290939 0
M  V30 1273 H 129.187 1.35633 -1.33056 0
M  V30 1274 H 127.337 3.79068 -0.850883 0
M  V30 1275 H 129.009 3.14099 -3.37846 0
M  V30 1276 H 127.252 2.90253 -3.22391 0
M  V30 1277 H 127.923 4.53453 -3.14777 0
M  V30 1278 H 130.399 3.94871 -1.3121 0
M  V30 1279 H 129.275 5.33193 -1.30372 0
M  V30 1280 H 129.536 4.4176 0.173226 0
M  V30 1281 N 128.595 0.856903 1.32268 0
M  V30 1282 C 129.558 0.308171 2.27119 0
M  V30 1283 C 130.558 -0.533421 1.51695 0
M  V30 1284 O 131.748 -0.344607 1.70757 0
M  V30 1285 C 128.88 -0.563757 3.36206 0
M  V30 1286 H 130.073 1.14535 2.77167 0
M  V30 1287 H 127.626 0.631421 1.42978 0
M  V30 1288 H 128.361 -1.42266 2.91429 0
M  V30 1289 H 128.146 0.0386749 3.92081 0
M  V30 1290 H 129.636 -0.940386 4.06874 0
M  V30 1291 N 130.073 -1.45103 0.615059 0
M  V30 1292 C 131.003 -2.33339 -0.0865619 0
M  V30 1293 C 131.984 -1.4727 -0.851209 0
M  V30 1294 O 133.169 -1.76026 -0.820281 0
M  V30 1295 C 130.299 -3.30095 -1.07956 0
M  V30 1296 C 129.253 -4.25858 -0.427628 0
M  V30 1297 C 128.579 -5.12361 -1.5294 0
M  V30 1298 C 129.879 -5.18165 0.655944 0
M  V30 1299 H 131.573 -2.92254 0.650224 0
M  V30 1300 H 129.119 -1.40532 0.314138 0
M  V30 1301 H 131.072 -3.90698 -1.57901 0
M  V30 1302 H 129.796 -2.69355 -1.84703 0
M  V30 1303 H 128.455 -3.66564 0.0510292 0
M  V30 1304 H 128.103 -4.47984 -2.28734 0
M  V30 1305 H 127.803 -5.77238 -1.09865 0
M  V30 1306 H 129.327 -5.75833 -2.03098 0
M  V30 1307 H 130.741 -5.72796 0.240257 0
M  V30 1308 H 129.138 -5.91559 1.00888 0
M  V30 1309 H 130.208 -4.60144 1.52957 0
M  V30 1310 N 131.551 -0.354651 -1.53558 0
M  V30 1311 C 132.514 0.484566 -2.24019 0
M  V30 1312 C 133.514 1.01861 -1.24422 0
M  V30 1313 O 134.704 0.906097 -1.4878 0
M  V30 1314 C 131.836 1.67615 -2.96847 0
M  V30 1315 H 133.029 -0.131843 -2.9961 0
M  V30 1316 H 130.582 -0.106165 -1.55939 0
M  V30 1317 H 131.317 2.33095 -2.25471 0
M  V30 1318 H 131.102 1.30029 -3.69912 0
M  V30 1319 H 132.592 2.27114 -3.50441 0
M  V30 1320 N 133.029 1.57378 -0.0835403 0
M  V30 1321 C 133.961 2.10389 0.909338 0
M  V30 1322 C 134.974 1.03858 1.25369 0
M  V30 1323 O 136.163 1.31338 1.20882 0
M  V30 1324 C 133.263 2.55908 2.2218 0
M  V30 1325 C 132.436 3.86145 2.05453 0
M  V30 1326 C 131.495 4.17633 3.20108 0
M  V30 1327 O 130.521 4.87043 2.94581 0
M  V30 1328 N 131.723 3.72113 4.45547 0
M  V30 1329 H 134.488 2.962 0.456657 0
M  V30 1330 H 132.049 1.61579 0.101877 0
M  V30 1331 H 134.041 2.74027 2.97811 0
M  V30 1332 H 132.611 1.75171 2.58909 0
M  V30 1333 H 131.831 3.7729 1.1422 0
M  V30 1334 H 133.119 4.7137 1.91541 0
M  V30 1335 H 132.517 3.16062 4.69171 0
M  V30 1336 H 131.074 3.95409 5.18165 0
M  V30 1337 N 134.507 -0.190092 1.56449 0
M  V30 1338 C 135.454 -1.23557 1.94942 0
M  V30 1339 C 136.424 -1.44972 0.810696 0
M  V30 1340 O 137.609 -1.58023 1.06927 0
M  V30 1341 C 134.749 -2.57416 2.2985 0
M  V30 1342 C 133.862 -2.43537 3.5681 0
M  V30 1343 C 132.997 -3.70134 3.81017 0
M  V30 1344 C 132.036 -3.51109 5.01387 0
M  V30 1345 N 131.173 -4.6973 5.21822 0
M  V30 1346 H 136.013 -0.900304 2.84075 0
M  V30 1347 H 133.55 -0.43318 1.40577 0
M  V30 1348 H 135.508 -3.35409 2.48106 0
M  V30 1349 H 134.138 -2.88975 1.43852 0
M  V30 1350 H 133.19 -1.56816 3.46573 0
M  V30 1351 H 134.502 -2.25415 4.4496 0
M  V30 1352 H 133.656 -4.56566 3.9954 0
M  V30 1353 H 132.395 -3.91215 2.91207 0
M  V30 1354 H 131.4 -2.63063 4.82782 0
M  V30 1355 H 132.625 -3.31468 5.9271 0
M  V30 1356 H 130.571 -4.91065 4.34961 0
M  V30 1357 H 130.488 -4.54452 6.0416 0
M  V30 1358 H 131.756 -5.57499 5.44808 0
M  V30 1359 N 135.985 -1.50799 -0.457987 0
M  V30 1360 C 136.933 -1.71162 -1.575 0
M  V30 1361 C 137.927 -0.577592 -1.59249 0
M  V30 1362 O 139.133 -0.758443 -1.63241 0
M  V30 1363 H 135.508 -0.540468 -0.522875 0
M  V30 1364 H 137.479 -2.64837 -1.37492 0
M  V30 1365 C 136.228 -1.83496 -2.95338 0
M  V30 1366 H 135.551 -2.70153 -2.94716 0
M  V30 1367 H 136.991 -2.01765 -3.72917 0
M  V30 1368 C 135.45 -0.589694 -3.31699 0
M  V30 1369 O 135.98 0.265163 -4.00824 0
M  V30 1370 N 134.186 -0.439845 -2.87252 0
M  V30 1371 H 133.733 -1.13655 -2.31172 0
M  V30 1372 H 133.691 0.392159 -3.11945 0
M  V30 1373 N 137.463 0.71206 -1.40597 0
M  V30 1374 C 138.709 1.47416 -1.39271 0
M  V30 1375 C 139.042 1.942 0.00388791 0
M  V30 1376 O 138.317 1.68403 0.973179 0
M  V30 1377 C 138.6 2.69774 -2.38525 0
M  V30 1378 C 138.453 2.28861 -3.87224 0
M  V30 1379 C 139.772 3.71939 -2.35264 0
M  V30 1380 H 136.891 0.534713 -0.5072 0
M  V30 1381 H 139.533 0.812375 -1.71757 0
M  V30 1382 H 137.683 3.26238 -2.10953 0
M  V30 1383 H 139.355 1.77852 -4.25636 0
M  V30 1384 H 137.598 1.60824 -4.02887 0
M  V30 1385 H 138.269 3.16584 -4.52193 0
M  V30 1386 H 140.745 3.25113 -2.59694 0
M  V30 1387 H 139.621 4.55186 -3.06753 0
M  V30 1388 H 139.882 4.20484 -1.36549 0
M  V30 1389 N 138.941 1.26152 0.944643 0
M  V30 1390 C 139.888 1.07408 2.04285 0
M  V30 1391 C 140.858 -0.0198413 1.66088 0
M  V30 1392 O 142.043 0.139264 1.90291 0
M  V30 1393 C 139.183 0.70945 3.37729 0
M  V30 1394 C 138.296 1.87926 3.88983 0
M  V30 1395 C 137.431 1.45807 5.10797 0
M  V30 1396 C 136.47 2.5964 5.54305 0
M  V30 1397 N 135.607 2.18226 6.67324 0
M  V30 1398 H 140.447 2.01389 2.1965 0
M  V30 1399 H 137.984 1.00275 1.07626 0
M  V30 1400 H 139.942 0.478948 4.14442 0
M  V30 1401 H 138.572 -0.193389 3.2222 0
M  V30 1402 H 137.624 2.22279 3.08701 0
M  V30 1403 H 138.936 2.73377 4.17213 0
M  V30 1404 H 138.09 1.18781 5.94959 0
M  V30 1405 H 136.829 0.574414 4.84305 0
M  V30 1406 H 135.834 2.87399 4.68702 0
M  V30 1407 H 137.059 3.48599 5.828 0
M  V30 1408 H 135.005 1.3229 6.42523 0
M  V30 1409 H 134.922 2.97221 6.95123 0
M  V30 1410 H 136.19 1.94403 7.54869 0
M  V30 1411 N 140.419 -1.14872 1.07899 0
M  V30 1412 C 141.349 -2.2193 0.725887 0
M  V30 1413 C 142.33 -1.67622 -0.28927 0
M  V30 1414 O 143.515 -1.93533 -0.160787 0
M  V30 1415 C 140.645 -3.47061 0.128856 0
M  V30 1416 C 139.599 -4.14363 1.07178 0
M  V30 1417 C 138.925 -5.33636 0.337229 0
M  V30 1418 C 140.225 -4.63492 2.40775 0
M  V30 1419 H 141.919 -2.51724 1.62097 0
M  V30 1420 H 139.465 -1.20991 0.780838 0
M  V30 1421 H 141.418 -4.21199 -0.130147 0
M  V30 1422 H 140.142 -3.16617 -0.80134 0
M  V30 1423 H 138.801 -3.42173 1.3158 0
M  V30 1424 H 138.449 -4.99449 -0.596606 0
M  V30 1425 H 138.149 -5.79609 0.965788 0
M  V30 1426 H 139.673 -6.10539 0.0861567 0
M  V30 1427 H 141.087 -5.2913 2.20669 0
M  V30 1428 H 139.484 -5.20148 2.99276 0
M  V30 1429 H 140.554 -3.78834 3.02676 0
M  V30 1430 N 141.898 -0.863906 -1.31812 0
M  V30 1431 C 143.123 -0.48527 -2.01643 0
M  V30 1432 C 143.548 0.913058 -1.64453 0
M  V30 1433 O 142.906 1.6014 -0.849985 0
M  V30 1434 C 142.954 -0.642625 -3.54828 0
M  V30 1435 O 142.058 0.320659 -4.11151 0
M  V30 1436 H 141.399 -0.193793 -0.635091 0
M  V30 1437 H 143.929 -1.16565 -1.68148 0
M  V30 1438 H 143.939 -0.533628 -4.04495 0
M  V30 1439 H 142.614 -1.66227 -3.81237 0
M  V30 1440 H 141.191 0.167126 -3.72525 0
M  V30 1441 N 143.376 1.44774 -0.622745 0
M  V30 1442 C 144.604 2.06487 -0.130722 0
M  V30 1443 C 145.019 1.46476 1.19123 0
M  V30 1444 O 144.376 0.584502 1.72887 0
M  V30 1445 C 144.427 3.615 -0.000807207 0
M  V30 1446 O 144.148 4.19274 -1.27048 0
M  V30 1447 C 145.649 4.40229 0.520898 0
M  V30 1448 H 142.869 0.666704 -0.0758106 0
M  V30 1449 H 145.413 1.85779 -0.854774 0
M  V30 1450 H 143.568 3.81498 0.673643 0
M  V30 1451 H 143.982 5.12622 -1.1099 0
M  V30 1452 H 145.456 5.49144 0.560838 0
M  V30 1453 H 145.933 4.1108 1.54627 0
M  V30 1454 H 146.539 4.25131 -0.120018 0
M  V30 1455 N 144.854 0.36279 1.53368 0
M  V30 1456 C 145.764 -0.492994 2.29362 0
M  V30 1457 C 146.78 -1.09507 1.35219 0
M  V30 1458 O 147.956 -1.10662 1.68273 0
M  V30 1459 C 145.021 -1.61855 3.066 0
M  V30 1460 C 144.082 -1.04429 4.16405 0
M  V30 1461 C 143.315 -2.11621 4.89951 0
M  V30 1462 O 143.538 -3.32684 4.63333 0
M  V30 1463 O 142.472 -1.74835 5.75948 0
M  V30 1464 H 146.298 0.125331 3.03441 0
M  V30 1465 H 143.883 0.127253 1.48857 0
M  V30 1466 H 145.765 -2.27302 3.54841 0
M  V30 1467 H 144.44 -2.22233 2.3536 0
M  V30 1468 H 143.347 -0.353819 3.72423 0
M  V30 1469 H 144.68 -0.485113 4.89804 0
M  V30 1470 N 146.332 -1.57332 0.0918853 0
M  V30 1471 C 147.264 -2.10869 -0.898168 0
M  V30 1472 C 148.277 -1.04521 -1.24817 0
M  V30 1473 O 149.466 -1.31977 -1.20184 0
M  V30 1474 C 146.566 -2.57083 -2.2082 0
M  V30 1475 C 145.739 -3.87229 -2.03402 0
M  V30 1476 C 144.798 -4.19324 -3.17889 0
M  V30 1477 O 143.824 -4.88598 -2.91994 0
M  V30 1478 N 145.026 -3.74471 -4.43567 0
M  V30 1479 H 147.791 -2.96439 -0.440943 0
M  V30 1480 H 145.352 -1.61631 -0.0933064 0
M  V30 1481 H 147.344 -2.75602 -2.96354 0
M  V30 1482 H 145.914 -1.76541 -2.57977 0
M  V30 1483 H 145.134 -3.7789 -1.12218 0
M  V30 1484 H 146.422 -4.72379 -1.89038 0
M  V30 1485 H 145.82 -3.18546 -4.67488 0
M  V30 1486 H 144.377 -3.98151 -5.16061 0
M  V30 1487 N 147.81 0.181792 -1.56548 0
M  V30 1488 C 148.74 1.22765 -1.98623 0
M  V30 1489 C 149.721 1.46747 -0.860189 0
M  V30 1490 O 150.906 1.58259 -1.12551 0
M  V30 1491 C 148.036 2.56894 -2.33715 0
M  V30 1492 C 146.99 2.475 -3.49182 0
M  V30 1493 C 146.316 3.86023 -3.69986 0
M  V30 1494 C 147.616 1.98866 -4.82959 0
M  V30 1495 H 149.31 0.877942 -2.86239 0
M  V30 1496 H 146.856 0.42088 -1.37712 0
M  V30 1497 H 148.809 3.30253 -2.61746 0
M  V30 1498 H 147.533 2.93632 -1.42997 0
M  V30 1499 H 146.192 1.76596 -3.21262 0
M  V30 1500 H 145.84 4.20136 -2.76576 0
M  V30 1501 H 145.54 3.80609 -4.47672 0
M  V30 1502 H 147.064 4.60984 -4.00407 0
M  V30 1503 H 148.478 2.61992 -5.09934 0
M  V30 1504 H 146.875 2.04424 -5.64208 0
M  V30 1505 H 147.945 0.942465 -4.75653 0
M  V30 1506 N 149.288 1.51039 0.449983 0
M  V30 1507 C 150.704 1.38934 0.785462 0
M  V30 1508 C 150.904 0.461817 1.96136 0
M  V30 1509 O 149.96 -0.0877389 2.52348 0
M  V30 1510 C 151.273 2.80724 1.0777 0
M  V30 1511 C 152.821 2.89787 1.1829 0
M  V30 1512 C 153.296 4.32457 1.50815 0
M  V30 1513 N 154.787 4.35505 1.57764 0
M  V30 1514 C 155.522 5.42914 1.84477 0
M  V30 1515 N 155.018 6.60502 2.09068 0
M  V30 1516 N 156.811 5.3038 1.86155 0
M  V30 1517 H 148.962 2.09904 -0.324647 0
M  V30 1518 H 151.225 0.944378 -0.0827957 0
M  V30 1519 H 150.931 3.50531 0.286498 0
M  V30 1520 H 150.805 3.19273 2.00859 0
M  V30 1521 H 153.192 2.20186 1.96474 0
M  V30 1522 H 153.273 2.54752 0.231314 0
M  V30 1523 H 152.917 5.02603 0.731622 0
M  V30 1524 H 152.847 4.64995 2.47158 0
M  V30 1525 H 155.338 3.50724 1.40715 0
M  V30 1526 H 155.651 7.38158 2.28785 0
M  V30 1527 H 153.996 6.63639 2.06416 0
M  V30 1528 H 157.187 4.37505 1.66454 0
M  V30 1529 H 157.36 6.1417 2.06637 0
M  V30 1530 N 150.766 -0.704594 1.40972 0
M  V30 1531 C 152.006 -1.47691 1.41304 0
M  V30 1532 C 152.37 -1.91992 0.0178582 0
M  V30 1533 O 153.571 -2.68599 -0.103996 0
M  V30 1534 C 151.842 -2.66254 2.38419 0
M  V30 1535 S 153.401 -3.55516 2.57204 0
M  V30 1536 H 150.219 -0.504808 0.500689 0
M  V30 1537 H 152.821 -0.822962 1.77335 0
M  V30 1538 H 151.525 -2.31897 3.38603 0
M  V30 1539 H 151.056 -3.3655 2.03711 0
M  V30 1540 H 153.071 -4.61115 1.83268 0
M  V30 1541 N 152.244 -1.26651 -0.937939 0
M  V30 1542 C 153.174 -1.10993 -2.05433 0
M  V30 1543 C 154.155 -0.0142161 -1.70094 0
M  V30 1544 O 155.34 -0.186837 -1.93299 0
M  V30 1545 C 152.47 -0.745561 -3.39203 0
M  V30 1546 C 151.424 -1.79337 -3.88616 0
M  V30 1547 C 150.75 -1.28324 -5.19073 0
M  V30 1548 C 152.05 -3.19553 -4.13138 0
M  V30 1549 H 153.744 -2.0438 -2.1879 0
M  V30 1550 H 151.29 -0.984041 -1.05131 0
M  V30 1551 H 153.243 -0.622888 -4.16771 0
M  V30 1552 H 151.967 0.22401 -3.25831 0
M  V30 1553 H 150.626 -1.90477 -3.13231 0
M  V30 1554 H 150.274 -0.303414 -5.02084 0
M  V30 1555 H 149.974 -1.98369 -5.53103 0
M  V30 1556 H 151.498 -1.1733 -5.99221 0
M  V30 1557 H 152.912 -3.11471 -4.81309 0
M  V30 1558 H 151.309 -3.87218 -4.58457 0
M  V30 1559 H 152.379 -3.65368 -3.18801 0
M  V30 1560 N 153.722 1.14298 -1.08507 0
M  V30 1561 C 154.685 2.17607 -0.719711 0
M  V30 1562 C 155.685 1.58907 0.245997 0
M  V30 1563 O 156.875 1.74181 0.0254081 0
M  V30 1564 C 154.007 3.40842 -0.0627695 0
M  V30 1565 H 155.2 2.51443 -1.63452 0
M  V30 1566 H 152.753 1.28963 -0.88307 0
M  V30 1567 H 153.488 3.12587 0.863716 0
M  V30 1568 H 153.273 3.84713 -0.757504 0
M  V30 1569 H 154.763 4.17221 0.177786 0
M  V30 1570 N 155.201 0.870884 1.31352 0
M  V30 1571 C 156.151 0.298889 2.26032 0
M  V30 1572 C 157.135 -0.564595 1.50669 0
M  V30 1573 O 158.327 -0.411323 1.72154 0
M  V30 1574 C 155.456 -0.497842 3.39671 0
M  V30 1575 C 154.542 0.378937 4.22404 0
M  V30 1576 N 154.933 1.47284 4.83881 0
M  V30 1577 C 153.231 0.171535 4.4567 0
M  V30 1578 C 153.932 2.01359 5.45738 0
M  V30 1579 N 152.908 1.31047 5.27568 0
M  V30 1580 H 156.71 1.13494 2.71102 0
M  V30 1581 H 154.224 0.718745 1.45629 0
M  V30 1582 H 156.221 -0.924155 4.06528 0
M  V30 1583 H 154.881 -1.33149 2.96144 0
M  V30 1584 H 155.892 1.85575 4.8351 0
M  V30 1585 H 152.569 -0.626091 4.12779 0
M  V30 1586 H 153.959 2.93143 6.0458 0
M  V30 1587 N 156.679 -1.44442 0.630414 0
M  V30 1588 C 158.095 -1.56832 0.295973 0
M  V30 1589 C 158.295 -1.61806 -1.20088 0
M  V30 1590 O 157.351 -1.5607 -1.9849 0
M  V30 1591 C 158.664 -2.84031 0.987264 0
M  V30 1592 C 160.212 -2.97742 0.96534 0
M  V30 1593 C 160.687 -4.27743 1.63708 0
M  V30 1594 N 162.178 -4.34555 1.60364 0
M  V30 1595 C 162.913 -5.33862 2.09234 0
M  V30 1596 N 162.409 -6.39578 2.66292 0
M  V30 1597 N 164.202 -5.25366 1.99867 0
M  V30 1598 H 156.353 -1.39457 1.60205 0
M  V30 1599 H 158.616 -0.668237 0.672431 0
M  V30 1600 H 158.322 -2.86338 2.04215 0
M  V30 1601 H 158.196 -3.73534 0.524588 0
M  V30 1602 H 160.583 -2.94989 -0.0810639 0
M  V30 1603 H 160.664 -2.09589 1.4665 0
M  V30 1604 H 160.308 -4.31255 2.68293 0
M  V30 1605 H 160.238 -5.14752 1.11076 0
M  V30 1606 H 162.729 -3.58772 1.18705 0
M  V30 1607 H 163.042 -7.11637 3.01317 0
M  V30 1608 H 161.387 -6.40265 2.70343 0
M  V30 1609 H 164.578 -4.41688 1.55013 0
M  V30 1610 H 164.751 -6.02606 2.38265 0
M  V30 1611 N 158.157 -0.370918 -1.53173 0
M  V30 1612 C 159.087 0.464847 -2.28826 0
M  V30 1613 C 160.068 1.07936 -1.31468 0
M  V30 1614 O 161.253 1.0956 -1.60344 0
M  V30 1615 C 158.383 1.60196 -3.08147 0
M  V30 1616 C 157.337 1.11443 -4.13237 0
M  V30 1617 C 156.663 2.3422 -4.80672 0
M  V30 1618 C 157.963 0.195384 -5.21934 0
M  V30 1619 H 159.657 -0.166329 -2.98938 0
M  V30 1620 H 157.203 -0.0814359 -1.4377 0
M  V30 1621 H 159.156 2.19332 -3.59822 0
M  V30 1622 H 157.88 2.26045 -2.35735 0
M  V30 1623 H 156.539 0.545727 -3.62515 0
M  V30 1624 H 156.187 2.98537 -4.04827 0
M  V30 1625 H 155.887 2.02269 -5.51689 0
M  V30 1626 H 157.411 2.94032 -5.35143 0
M  V30 1627 H 158.825 0.694375 -5.69079 0
M  V30 1628 H 157.222 -0.0335027 -6.00091 0
M  V30 1629 H 158.292 -0.760961 -4.78892 0
M  V30 1630 N 159.635 1.57281 -0.100228 0
M  V30 1631 C 160.86 1.99302 0.573881 0
M  V30 1632 C 161.285 0.979059 1.60611 0
M  V30 1633 O 160.643 -0.0517803 1.81226 0
M  V30 1634 C 160.691 3.40274 1.19358 0
M  V30 1635 O 159.795 3.41676 2.30935 0
M  V30 1636 H 159.136 0.647944 0.145138 0
M  V30 1637 H 161.666 2.03779 -0.183156 0
M  V30 1638 H 161.676 3.78078 1.53365 0
M  V30 1639 H 160.351 4.13594 0.437385 0
M  V30 1640 H 158.928 3.15672 1.98509 0
M  V30 1641 N 161.113 -0.173488 1.56642 0
M  V30 1642 C 162.023 -1.23482 1.99473 0
M  V30 1643 C 163.039 -1.48567 0.905752 0
M  V30 1644 O 164.215 -1.60758 1.21321 0
M  V30 1645 C 161.28 -2.55444 2.34413 0
M  V30 1646 C 160.341 -2.38241 3.57127 0
M  V30 1647 C 159.574 -3.63909 3.90392 0
M  V30 1648 O 159.797 -4.68996 3.24653 0
M  V30 1649 O 158.731 -3.58149 4.83749 0
M  V30 1650 H 162.557 -0.901279 2.90018 0
M  V30 1651 H 160.142 -0.380185 1.44482 0
M  V30 1652 H 162.024 -3.33292 2.57865 0
M  V30 1653 H 160.699 -2.88382 1.4703 0
M  V30 1654 H 159.606 -1.58431 3.38896 0
M  V30 1655 H 160.939 -2.10228 4.45045 0
M  V30 1656 N 162.591 -1.51276 -0.441967 0
M  V30 1657 C 164.002 -1.56244 -1.02199 0
M  V30 1658 C 164.353 -0.383149 -1.92422 0
M  V30 1659 O 163.478 0.500613 -2.1053 0
M  V30 1660 C 164.073 -2.83162 -1.86024 0
M  V30 1661 C 162.632 -2.90716 -2.39084 0
M  V30 1662 C 161.779 -2.50858 -1.18175 0
M  V30 1663 H 164.73 -1.5712 -0.223416 0
M  V30 1664 H 164.751 -2.66663 -2.71425 0
M  V30 1665 H 164.263 -3.68974 -1.20331 0
M  V30 1666 H 162.364 -2.09323 -3.08244 0
M  V30 1667 H 162.477 -3.94266 -2.72198 0
M  V30 1668 H 160.841 -2.03951 -1.52565 0
M  V30 1669 H 161.624 -3.3901 -0.541001 0
M  V30 1670 N 164.069 0.697108 -1.41344 0
M  V30 1671 C 165.48 1.27697 -1.36199 0
M  V30 1672 C 165.831 1.9615 -0.0443463 0
M  V30 1673 O 164.956 1.98689 0.857419 0
M  V30 1674 C 165.551 2.32223 -2.46694 0
M  V30 1675 C 164.11 2.8579 -2.44952 0
M  V30 1676 C 163.257 1.59807 -2.26621 0
M  V30 1677 H 166.208 0.491968 -1.50882 0
M  V30 1678 H 166.229 3.1348 -2.15664 0
M  V30 1679 H 165.741 1.82373 -3.42581 0
M  V30 1680 H 163.842 3.3982 -1.52817 0
M  V30 1681 H 163.955 3.36325 -3.41207 0
M  V30 1682 H 162.319 1.8556 -1.7447 0
M  V30 1683 H 163.102 1.11956 -3.24532 0
M  V30 1684 N 165.547 1.27147 0.931209 0
M  V30 1685 C 166.457 1.11372 2.06478 0
M  V30 1686 C 167.473 0.044645 1.73943 0
M  V30 1687 O 168.649 0.250417 1.99837 0
M  V30 1688 C 165.714 0.758838 3.38294 0
M  V30 1689 C 164.775 1.90841 3.84549 0
M  V30 1690 C 164.008 1.57036 5.10074 0
M  V30 1691 O 164.231 0.476645 5.68405 0
M  V30 1692 O 163.165 2.40839 5.51616 0
M  V30 1693 H 166.991 2.06493 2.22698 0
M  V30 1694 H 164.576 1.06301 1.04978 0
M  V30 1695 H 166.458 0.574098 4.17471 0
M  V30 1696 H 165.133 -0.162879 3.2329 0
M  V30 1697 H 164.04 2.14819 3.06274 0
M  V30 1698 H 165.373 2.81021 4.04089 0
M  V30 1699 N 167.025 -1.13721 1.09112 0
M  V30 1700 C 168.302 -1.81155 0.737706 0
M  V30 1701 C 168.682 -1.96253 -0.777683 0
M  V30 1702 O 168.03 -1.52807 -1.69889 0
M  V30 1703 C 168.24 -3.16392 1.47299 0
M  V30 1704 C 169.588 -3.91787 1.63671 0
M  V30 1705 O 170.612 -3.26005 1.43524 0
M  V30 1706 O 169.471 -5.0977 1.96969 0
M  V30 1707 H 166.565 -0.783518 0.26463 0
M  V30 1708 H 169.111 -1.20676 1.19312 0
M  V30 1709 H 167.883 -3.0061 2.50498 0
M  V30 1710 H 167.506 -3.8457 1.00953 0
M  V30 1711 N 168.503 -0.877838 -1.30888 0
M  V30 1712 C 169.433 -0.35534 -2.3078 0
M  V30 1713 C 170.414 0.557994 -1.60687 0
M  V30 1714 O 171.599 0.473355 -1.88343 0
M  V30 1715 C 168.729 0.437221 -3.44537 0
M  V30 1716 C 167.683 -0.383715 -4.26276 0
M  V30 1717 C 167.009 0.535014 -5.32017 0
M  V30 1718 C 168.309 -1.62201 -4.96476 0
M  V30 1719 H 170.003 -1.19007 -2.74732 0
M  V30 1720 H 167.549 -0.573698 -1.32078 0
M  V30 1721 H 169.502 0.813334 -4.13477 0
M  V30 1722 H 168.226 1.30553 -2.99372 0
M  V30 1723 H 166.885 -0.741874 -3.59015 0
M  V30 1724 H 166.533 1.40083 -4.831 0
M  V30 1725 H 166.233 -0.0104211 -5.87599 0
M  V30 1726 H 167.757 0.907799 -6.03814 0
M  V30 1727 H 169.171 -1.31689 -5.5797 0
M  V30 1728 H 167.568 -2.10711 -5.61891 0
M  V30 1729 H 168.638 -2.37044 -4.23011 0
M  V30 1730 N 169.982 1.44106 -0.638065 0
M  V30 1731 C 171.259 1.95453 -0.0759321 0
M  V30 1732 C 171.639 1.57984 1.40015 0
M  V30 1733 O 170.987 0.857361 2.11806 0
M  V30 1734 C 171.197 3.47655 -0.306132 0
M  V30 1735 C 172.545 4.24114 -0.203008 0
M  V30 1736 O 173.569 3.55405 -0.237871 0
M  V30 1737 O 172.428 5.46381 -0.113827 0
M  V30 1738 H 169.522 0.826797 0.0183332 0
M  V30 1739 H 172.068 1.54122 -0.710251 0
M  V30 1740 H 170.84 3.68 -1.3301 0
M  V30 1741 H 170.463 3.95949 0.361991 0
M  V30 1742 N 171.46 0.379036 1.52974 0
M  V30 1743 C 172.423 -0.448865 2.24762 0
M  V30 1744 C 173.423 -0.998689 1.26027 0
M  V30 1745 O 174.613 -0.882313 1.50203 0
M  V30 1746 C 171.745 -1.62872 2.99476 0
M  V30 1747 H 172.938 0.179491 2.99362 0
M  V30 1748 H 170.491 0.13096 1.5575 0
M  V30 1749 H 171.226 -2.29479 2.29151 0
M  V30 1750 H 171.011 -1.24128 3.71934 0
M  V30 1751 H 172.501 -2.2151 3.5401 0
M  V30 1752 N 172.938 -1.57226 0.108567 0
M  V30 1753 C 173.868 -2.17778 -0.84232 0
M  V30 1754 C 174.849 -1.11487 -1.2847 0
M  V30 1755 O 176.034 -1.39681 -1.34918 0
M  V30 1756 C 173.164 -2.76888 -2.09644 0
M  V30 1757 C 172.118 -3.88669 -1.79221 0
M  V30 1758 C 171.444 -4.34541 -3.11574 0
M  V30 1759 C 172.744 -5.11251 -1.06864 0
M  V30 1760 H 174.438 -2.97489 -0.337774 0
M  V30 1761 H 171.984 -1.43097 -0.161025 0
M  V30 1762 H 173.937 -3.17904 -2.76614 0
M  V30 1763 H 172.661 -1.94451 -2.62405 0
M  V30 1764 H 171.32 -3.48213 -1.14644 0
M  V30 1765 H 170.968 -3.48977 -3.62249 0
M  V30 1766 H 170.668 -5.09914 -2.91996 0
M  V30 1767 H 172.192 -4.782 -3.7968 0
M  V30 1768 H 173.606 -5.49352 -1.63968 0
M  V30 1769 H 172.003 -5.9214 -0.974178 0
M  V30 1770 H 173.073 -4.8487 -0.0536168 0
M  V30 1771 N 174.416 0.165178 -1.56732 0
M  V30 1772 C 175.827 0.727046 -1.71962 0
M  V30 1773 C 176.178 1.82508 -0.720078 0
M  V30 1774 O 175.303 2.16082 0.117242 0
M  V30 1775 C 175.898 1.32559 -3.11791 0
M  V30 1776 C 174.457 1.83422 -3.28684 0
M  V30 1777 C 173.604 0.715567 -2.67908 0
M  V30 1778 H 176.555 -0.0602896 -1.58585 0
M  V30 1779 H 176.576 2.19533 -3.10782 0
M  V30 1780 H 176.088 0.526195 -3.84516 0
M  V30 1781 H 174.189 2.65986 -2.60926 0
M  V30 1782 H 174.302 1.97543 -4.36478 0
M  V30 1783 H 172.666 1.13758 -2.27884 0
M  V30 1784 H 173.449 -0.0720836 -3.43224 0
M  V30 1785 N 175.894 1.51508 0.433938 0
M  V30 1786 C 176.824 1.76016 1.53429 0
M  V30 1787 C 177.805 0.610112 1.58782 0
M  V30 1788 O 178.99 0.853177 1.74455 0
M  V30 1789 C 176.12 1.88831 2.9148 0
M  V30 1790 C 175.074 3.04288 3.00987 0
M  V30 1791 C 174.4 3.0229 4.4105 0
M  V30 1792 C 175.7 4.44193 2.74754 0
M  V30 1793 H 177.394 2.68152 1.33171 0
M  V30 1794 H 174.94 1.29035 0.639214 0
M  V30 1795 H 176.893 2.04559 3.6842 0
M  V30 1796 H 175.617 0.933455 3.12976 0
M  V30 1797 H 174.276 2.8827 2.26486 0
M  V30 1798 H 173.924 2.04576 4.59519 0
M  V30 1799 H 173.624 3.79822 4.4834 0
M  V30 1800 H 175.148 3.20116 5.1996 0
M  V30 1801 H 176.562 4.60544 3.41426 0
M  V30 1802 H 174.959 5.23457 2.9345 0
M  V30 1803 H 176.029 4.53996 1.70339 0
M  V30 1804 N 177.372 -0.689602 1.41712 0
M  V30 1805 C 178.649 -1.44457 1.31877 0
M  V30 1806 C 179.029 -2.11039 -0.0508537 0
M  V30 1807 O 178.377 -2.02138 -1.06547 0
M  V30 1808 C 178.587 -2.45913 2.47645 0
M  V30 1809 C 179.935 -3.10991 2.89084 0
M  V30 1810 O 180.959 -2.56238 2.47428 0
M  V30 1811 O 179.818 -4.10174 3.61137 0
M  V30 1812 H 176.912 -0.64362 0.519309 0
M  V30 1813 H 179.458 -0.719576 1.53689 0
M  V30 1814 H 178.23 -1.95409 3.39015 0
M  V30 1815 H 177.853 -3.25913 2.27742 0
M  V30 1816 N 178.85 -1.27639 -0.924453 0
M  V30 1817 C 179.78 -1.13166 -2.04244 0
M  V30 1818 C 180.761 -0.032256 -1.70069 0
M  V30 1819 O 181.946 -0.207328 -1.9309 0
M  V30 1820 C 179.076 -0.781496 -3.38393 0
M  V30 1821 C 178.03 -1.83449 -3.86692 0
M  V30 1822 C 177.356 -1.33822 -5.17683 0
M  V30 1823 C 178.656 -3.23917 -4.09726 0
M  V30 1824 H 180.35 -2.06689 -2.1661 0
M  V30 1825 H 177.896 -0.995136 -1.04082 0
M  V30 1826 H 179.849 -0.667057 -4.16087 0
M  V30 1827 H 178.573 0.189439 -3.2605 0
M  V30 1828 H 177.232 -1.93789 -3.11193 0
M  V30 1829 H 176.88 -0.35665 -5.01734 0
M  V30 1830 H 176.58 -2.04224 -5.50968 0
M  V30 1831 H 178.104 -1.23679 -5.97943 0
M  V30 1832 H 179.518 -3.16559 -4.77978 0
M  V30 1833 H 177.915 -3.92059 -4.54324 0
M  V30 1834 H 178.985 -3.68729 -3.14908 0
M  V30 1835 N 180.328 1.1314 -1.09713 0
M  V30 1836 C 181.258 2.20748 -0.761102 0
M  V30 1837 C 182.239 1.68061 0.262566 0
M  V30 1838 O 183.424 1.93765 0.129977 0
M  V30 1839 C 180.554 3.46812 -0.184054 0
M  V30 1840 C 179.508 4.12606 -1.13757 0
M  V30 1841 C 178.834 5.33031 -0.422083 0
M  V30 1842 C 180.134 4.59603 -2.48118 0
M  V30 1843 H 181.828 2.49113 -1.66082 0
M  V30 1844 H 179.374 1.19734 -0.799987 0
M  V30 1845 H 181.327 4.21353 0.0631215 0
M  V30 1846 H 180.051 3.17851 0.750868 0
M  V30 1847 H 178.71 3.40036 -1.37007 0
M  V30 1848 H 178.358 5.00335 0.517072 0
M  V30 1849 H 178.058 5.77999 -1.05788 0
M  V30 1850 H 179.582 6.10325 -0.183277 0
M  V30 1851 H 180.996 5.25552 -2.29059 0
M  V30 1852 H 179.393 5.15321 -3.07514 0
M  V30 1853 H 180.463 3.73971 -3.08665 0
M  V30 1854 N 181.806 0.884767 1.30421 0
M  V30 1855 C 182.736 0.367574 2.30589 0
M  V30 1856 C 183.717 -0.549464 1.60981 0
M  V30 1857 O 184.902 -0.46336 1.88591 0
M  V30 1858 C 182.032 -0.418944 3.44764 0
M  V30 1859 C 180.986 0.406316 4.26067 0
M  V30 1860 C 180.312 -0.506793 5.32293 0
M  V30 1861 C 181.612 1.64832 4.95608 0
M  V30 1862 H 183.306 1.20462 2.74097 0
M  V30 1863 H 180.852 0.580695 1.31772 0
M  V30 1864 H 182.805 -0.791395 4.13902 0
M  V30 1865 H 181.529 -1.28964 3.0006 0
M  V30 1866 H 180.188 0.760903 3.58617 0
M  V30 1867 H 179.836 -1.37519 4.83836 0
M  V30 1868 H 179.536 0.0415828 5.87585 0
M  V30 1869 H 181.06 -0.875764 6.04287 0
M  V30 1870 H 182.474 1.34646 5.57264 0
M  V30 1871 H 180.871 2.13688 5.60765 0
M  V30 1872 H 181.941 2.39284 4.21748 0
M  V30 1873 N 183.284 -1.43765 0.645699 0
M  V30 1874 C 184.531 -2.01898 0.15604 0
M  V30 1875 C 184.859 -1.50887 -1.22733 0
M  V30 1876 O 184.114 -0.689271 -1.8316 0
M  V30 1877 C 184.413 -3.57238 0.107679 0
M  V30 1878 C 184.079 -4.27564 1.43178 0
M  V30 1879 C 182.741 -4.46492 1.7944 0
M  V30 1880 C 185.093 -4.67454 2.30513 0
M  V30 1881 C 182.421 -5.02573 3.02716 0
M  V30 1882 C 184.773 -5.24901 3.53074 0
M  V30 1883 C 183.437 -5.42046 3.89541 0
M  V30 1884 H 182.707 -0.738797 0.057099 0
M  V30 1885 H 185.354 -1.72341 0.834912 0
M  V30 1886 H 183.659 -3.86293 -0.654618 0
M  V30 1887 H 185.356 -3.99965 -0.287938 0
M  V30 1888 H 181.946 -4.13171 1.13963 0
M  V30 1889 H 186.13 -4.5253 2.0379 0
M  V30 1890 H 181.386 -5.14033 3.31028 0
M  V30 1891 H 185.56 -5.54758 4.20971 0
M  V30 1892 H 183.187 -5.85268 4.85145 0
M  V30 1893 N 184.763 -0.387143 -1.52771 0
M  V30 1894 C 185.693 0.440551 -2.29306 0
M  V30 1895 C 186.674 1.06535 -1.32606 0
M  V30 1896 O 187.859 1.07853 -1.61497 0
M  V30 1897 C 184.989 1.56919 -3.09829 0
M  V30 1898 C 183.943 1.07054 -4.14395 0
M  V30 1899 C 183.269 2.29109 -4.83129 0
M  V30 1900 C 184.569 0.140015 -5.22112 0
M  V30 1901 H 186.263 -0.198026 -2.98744 0
M  V30 1902 H 183.809 -0.09668 -1.43675 0
M  V30 1903 H 185.762 2.15503 -3.62128 0
M  V30 1904 H 184.486 2.23532 -2.3812 0
M  V30 1905 H 183.145 0.507247 -3.63074 0
M  V30 1906 H 182.793 2.94227 -4.0797 0
M  V30 1907 H 182.493 1.96406 -5.53804 0
M  V30 1908 H 184.017 2.88339 -5.38231 0
M  V30 1909 H 185.431 0.633978 -5.69784 0
M  V30 1910 H 183.828 -0.0971485 -6.00021 0
M  V30 1911 H 184.898 -0.811711 -4.78058 0
M  V30 1912 N 186.241 1.57166 -0.116904 0
M  V30 1913 C 187.189 2.16457 0.851418 0
M  V30 1914 C 188.183 1.11323 1.27686 0
M  V30 1915 O 189.389 1.2963 1.24884 0
M  V30 1916 H 185.764 0.69271 0.292672 0
M  V30 1917 H 187.735 2.96605 0.32685 0
M  V30 1918 C 186.484 2.77689 2.09246 0
M  V30 1919 H 185.807 3.58285 1.77402 0
M  V30 1920 H 187.247 3.22716 2.7501 0
M  V30 1921 C 185.706 1.74667 2.88085 0
M  V30 1922 O 186.236 1.19877 3.83396 0
M  V30 1923 N 184.442 1.44656 2.52038 0
M  V30 1924 H 183.989 1.89402 1.74599 0
M  V30 1925 H 183.947 0.759675 3.05084 0
M  V30 1926 N 187.719 -0.156864 1.56817 0
M  V30 1927 C 189.13 -0.717916 1.72345 0
M  V30 1928 C 189.481 -1.82124 0.729747 0
M  V30 1929 O 188.606 -2.16141 -0.105781 0
M  V30 1930 C 189.201 -1.30904 3.12489 0
M  V30 1931 C 187.76 -1.81676 3.29653 0
M  V30 1932 C 186.907 -0.701349 2.68284 0
M  V30 1933 H 189.858 0.0686989 1.58551 0
M  V30 1934 H 189.879 -2.17882 3.11942 0
M  V30 1935 H 189.391 -0.505796 3.8479 0
M  V30 1936 H 187.492 -2.64598 2.62333 0
M  V30 1937 H 187.605 -1.95226 4.3752 0
M  V30 1938 H 185.969 -1.12548 2.28484 0
M  V30 1939 H 186.752 0.0902846 3.43181 0
M  V30 1940 N 189.197 -1.51736 -0.425897 0
M  V30 1941 C 190.474 -1.55519 -1.1863 0
M  V30 1942 C 190.854 -0.326219 -2.08564 0
M  V30 1943 O 190.202 0.688012 -2.17896 0
M  V30 1944 C 190.412 -2.87521 -1.9782 0
M  V30 1945 C 191.76 -3.39899 -2.54468 0
M  V30 1946 O 192.784 -2.89148 -2.08019 0
M  V30 1947 O 191.643 -4.2848 -3.39215 0
M  V30 1948 H 188.737 -0.625739 -0.540721 0
M  V30 1949 H 191.283 -1.64055 -0.434038 0
M  V30 1950 H 190.055 -3.68422 -1.31836 0
M  V30 1951 H 189.678 -2.822 -2.80088 0
M  V30 1952 N 190.675 0.682077 -1.42076 0
M  V30 1953 C 191.638 1.77756 -1.44691 0
M  V30 1954 C 192.638 1.5726 -0.335535 0
M  V30 1955 O 193.828 1.63686 -0.596037 0
M  V30 1956 C 190.96 3.16301 -1.27146 0
M  V30 1957 H 192.153 1.76826 -2.42224 0
M  V30 1958 H 189.706 0.891012 -1.28416 0
M  V30 1959 H 190.441 3.22862 -0.305075 0
M  V30 1960 H 190.226 3.32581 -2.07683 0
M  V30 1961 H 191.716 3.96241 -1.31843 0
M  V30 1962 N 192.153 1.28127 0.917671 0
M  V30 1963 C 193.4 1.15052 1.66641 0
M  V30 1964 C 193.728 -0.301677 1.92146 0
M  V30 1965 O 192.983 -1.23622 1.51711 0
M  V30 1966 C 193.282 1.89018 3.03327 0
M  V30 1967 C 192.948 3.38832 2.97496 0
M  V30 1968 C 191.61 3.79693 2.95613 0
M  V30 1969 C 193.962 4.34378 2.88036 0
M  V30 1970 C 191.29 5.14447 2.82066 0
M  V30 1971 C 193.642 5.69201 2.7603 0
M  V30 1972 C 192.306 6.09343 2.72502 0
M  V30 1973 H 191.576 0.421006 0.609783 0
M  V30 1974 H 194.223 1.58855 1.06945 0
M  V30 1975 H 192.528 1.37752 3.66785 0
M  V30 1976 H 194.225 1.76321 3.60156 0
M  V30 1977 H 190.815 3.06342 2.99754 0
M  V30 1978 H 194.999 4.03775 2.88581 0
M  V30 1979 H 190.255 5.44681 2.77728 0
M  V30 1980 H 194.429 6.42901 2.67678 0
M  V30 1981 H 192.056 7.13712 2.61762 0
M  V30 1982 N 193.631 -1.12557 1.10312 0
M  V30 1983 C 194.856 -1.88405 0.867085 0
M  V30 1984 C 195.281 -1.79038 -0.576817 0
M  V30 1985 O 194.639 -1.14439 -1.40618 0
M  V30 1986 C 194.687 -3.3563 1.31851 0
M  V30 1987 O 193.791 -4.09565 0.482734 0
M  V30 1988 H 193.132 -0.585455 0.313271 0
M  V30 1989 H 195.662 -1.42352 1.4696 0
M  V30 1990 H 195.672 -3.86469 1.3079 0
M  V30 1991 H 194.347 -3.41765 2.37001 0
M  V30 1992 H 192.924 -3.68695 0.558448 0
M  V30 1993 N 195.109 -0.891671 -1.2995 0
M  V30 1994 C 196.357 -0.512486 -1.95494 0
M  V30 1995 C 196.678 0.942776 -1.70695 0
M  V30 1996 O 195.948 1.66374 -1.03424 0
M  V30 1997 H 194.528 -0.186533 -0.723336 0
M  V30 1998 H 197.19 -1.13621 -1.58355 0
M  V30 1999 H 196.286 -0.688342 -3.04415 0
M  V30 2000 N 196.587 1.43421 -0.653314 0
M  V30 2001 C 197.998 1.85065 -0.246537 0
M  V30 2002 C 198.349 1.54688 1.2069 0
M  V30 2003 O 197.474 0.995896 1.92122 0
M  V30 2004 C 198.069 3.35922 -0.440666 0
M  V30 2005 C 196.628 3.76297 -0.0882064 0
M  V30 2006 C 195.775 2.67147 -0.743484 0
M  V30 2007 H 198.726 1.33572 -0.856979 0
M  V30 2008 H 198.747 3.79204 0.313798 0
M  V30 2009 H 198.259 3.58 -1.49858 0
M  V30 2010 H 196.36 3.5983 0.96711 0
M  V30 2011 H 196.473 4.76338 -0.513738 0
M  V30 2012 H 194.837 2.54086 -0.176712 0
M  V30 2013 H 195.62 2.92053 -1.80443 0
M  V30 2014 N 198.065 0.39524 1.52563 0
M  V30 2015 C 198.997 -0.472201 2.24283 0
M  V30 2016 C 200.01 -1.02178 1.26742 0
M  V30 2017 O 201.199 -0.923097 1.52778 0
M  V30 2018 C 198.299 -1.66775 2.95024 0
M  V30 2019 C 197.472 -1.2445 4.19322 0
M  V30 2020 C 196.531 -2.30539 4.7301 0
M  V30 2021 O 195.557 -1.91702 5.35947 0
M  V30 2022 N 196.759 -3.6253 4.53379 0
M  V30 2023 H 199.524 0.142282 2.99362 0
M  V30 2024 H 197.085 0.2219 1.60372 0
M  V30 2025 H 199.077 -2.37283 3.27839 0
M  V30 2026 H 197.647 -2.18845 2.23217 0
M  V30 2027 H 196.867 -0.368069 3.92478 0
M  V30 2028 H 198.155 -0.938457 5.0007 0
M  V30 2029 H 197.553 -3.96841 4.03154 0
M  V30 2030 H 196.11 -4.29055 4.90668 0
M  V30 2031 N 199.544 -1.57102 0.125237 0
M  V30 2032 C 200.507 -2.14471 -0.80838 0
M  V30 2033 C 201.507 -1.0811 -1.19033 0
M  V30 2034 O 202.697 -1.33856 -1.11482 0
M  V30 2035 C 199.829 -2.69005 -2.09402 0
M  V30 2036 H 201.022 -2.98297 -0.309696 0
M  V30 2037 H 198.575 -1.55807 -0.124051 0
M  V30 2038 H 199.31 -1.88785 -2.63687 0
M  V30 2039 H 199.095 -3.46799 -1.82957 0
M  V30 2040 H 200.585 -3.13278 -2.76128 0
M  V30 2041 N 201.022 0.148545 -1.56898 0
M  V30 2042 C 202.262 0.86765 -1.85071 0
M  V30 2043 C 202.626 1.78417 -0.709317 0
M  V30 2044 O 203.827 2.54261 -0.872049 0
M  V30 2045 C 202.098 1.62306 -3.1842 0
M  V30 2046 S 203.657 2.3878 -3.68143 0
M  V30 2047 H 200.475 0.290174 -0.649092 0
M  V30 2048 H 203.077 0.127755 -1.95082 0
M  V30 2049 H 201.781 0.941192 -3.99462 0
M  V30 2050 H 201.312 2.4039 -3.1141 0
M  V30 2051 H 203.327 3.63942 -3.37285 0
M  V30 2052 N 202.5 1.5196 0.417844 0
M  V30 2053 C 203.728 1.69426 1.18753 0
M  V30 2054 C 204.143 0.399955 1.84515 0
M  V30 2055 O 203.5 -0.623288 1.71527 0
M  V30 2056 C 203.551 2.82375 2.25714 0
M  V30 2057 O 203.272 4.06793 1.62638 0
M  V30 2058 C 204.773 3.11277 3.15628 0
M  V30 2059 H 201.993 0.568031 0.357186 0
M  V30 2060 H 204.537 1.98475 0.49273 0
M  V30 2061 H 202.692 2.5587 2.90877 0
M  V30 2062 H 203.106 4.69667 2.3348 0
M  V30 2063 H 204.58 3.93843 3.86771 0
M  V30 2064 H 205.057 2.24473 3.77503 0
M  V30 2065 H 205.663 3.39515 2.56144 0
M  V30 2066 N 203.978 -0.674533 1.42435 0
M  V30 2067 C 205.394 -0.98769 1.25367 0
M  V30 2068 C 205.594 -2.00879 0.158044 0
M  V30 2069 O 204.65 -2.48075 -0.470633 0
M  V30 2070 C 205.963 -1.49224 2.6106 0
M  V30 2071 C 207.511 -1.61 2.68417 0
M  V30 2072 C 207.986 -2.14852 4.04478 0
M  V30 2073 N 209.477 -2.22185 4.06434 0
M  V30 2074 C 210.212 -2.64928 5.08528 0
M  V30 2075 N 209.708 -3.07121 6.21006 0
M  V30 2076 N 211.501 -2.64679 4.95885 0
M  V30 2077 H 203.652 0.00152503 2.124 0
M  V30 2078 H 205.915 -0.0618434 0.945981 0
M  V30 2079 H 205.621 -0.816453 3.42092 0
M  V30 2080 H 205.495 -2.47094 2.84999 0
M  V30 2081 H 207.882 -2.27686 1.87732 0
M  V30 2082 H 207.963 -0.616195 2.48267 0
M  V30 2083 H 207.607 -1.48775 4.85622 0
M  V30 2084 H 207.537 -3.15024 4.2198 0
M  V30 2085 H 210.028 -1.92435 3.25234 0
M  V30 2086 H 210.341 -3.38423 6.94759 0
M  V30 2087 H 208.686 -3.04978 6.24511 0
M  V30 2088 H 211.877 -2.31078 4.07088 0
M  V30 2089 H 212.05 -2.9767 5.75584 0
M  V30 2090 N 205.456 -1.28612 -0.910864 0
M  V30 2091 C 206.703 -1.15934 -1.66029 0
M  V30 2092 C 207.031 0.291483 -1.92303 0
M  V30 2093 O 206.286 1.22816 -1.52364 0
M  V30 2094 C 206.585 -1.90624 -3.0232 0
M  V30 2095 C 206.251 -3.40405 -2.95695 0
M  V30 2096 C 204.913 -3.81255 -2.93595 0
M  V30 2097 C 207.265 -4.359 -2.85728 0
M  V30 2098 C 204.593 -5.15936 -2.79334 0
M  V30 2099 C 206.945 -5.70657 -2.73007 0
M  V30 2100 C 205.609 -6.10779 -2.69267 0
M  V30 2101 H 204.879 -0.424234 -0.607541 0
M  V30 2102 H 207.526 -1.5942 -1.06101 0
M  V30 2103 H 205.831 -1.39696 -3.6605 0
M  V30 2104 H 207.528 -1.78228 -3.59215 0
M  V30 2105 H 204.118 -3.07927 -2.98125 0
M  V30 2106 H 208.302 -4.053 -2.86436 0
M  V30 2107 H 203.558 -5.46146 -2.74835 0
M  V30 2108 H 207.732 -6.44311 -2.64264 0
M  V30 2109 H 205.359 -7.1509 -2.57974 0
M  V30 2110 N 206.934 1.1197 -1.10907 0
M  V30 2111 C 208.181 1.83588 -0.854507 0
M  V30 2112 C 208.509 1.84357 0.6199 0
M  V30 2113 O 207.764 1.28809 1.47332 0
M  V30 2114 C 208.063 3.30749 -1.35425 0
M  V30 2115 C 207.729 3.50146 -2.84093 0
M  V30 2116 C 206.391 3.55148 -3.2469 0
M  V30 2117 C 208.743 3.56857 -3.79872 0
M  V30 2118 C 206.071 3.6441 -4.59806 0
M  V30 2119 C 208.423 3.6765 -5.14797 0
M  V30 2120 C 207.087 3.7091 -5.54961 0
M  V30 2121 H 206.357 0.671795 -0.312686 0
M  V30 2122 H 209.004 1.32091 -1.38652 0
M  V30 2123 H 207.309 3.84703 -0.742361 0
M  V30 2124 H 209.006 3.8464 -1.1337 0
M  V30 2125 H 205.596 3.46919 -2.51685 0
M  V30 2126 H 209.78 3.52258 -3.49611 0
M  V30 2127 H 205.036 3.65208 -4.9034 0
M  V30 2128 H 209.21 3.71786 -5.88853 0
M  V30 2129 H 206.837 3.7784 -6.59652 0
M  V30 2130 N 208.412 0.89855 1.29475 0
M  V30 2131 C 209.637 0.538561 2.00285 0
M  V30 2132 C 210.062 -0.869135 1.66816 0
M  V30 2133 O 209.42 -1.57831 0.892145 0
M  V30 2134 C 209.468 0.736475 3.52999 0
M  V30 2135 O 208.572 -0.211537 4.11857 0
M  V30 2136 H 207.913 0.210563 0.62973 0
M  V30 2137 H 210.443 1.20982 1.64998 0
M  V30 2138 H 210.453 0.640685 4.02938 0
M  V30 2139 H 209.128 1.76276 3.76696 0
M  V30 2140 H 207.705 -0.0682991 3.72837 0
M  V30 2141 N 209.89 -1.43072 0.660911 0
M  V30 2142 C 211.306 -1.56169 0.329173 0
M  V30 2143 C 211.506 -1.64317 -1.16629 0
M  V30 2144 O 210.562 -1.60245 -1.95135 0
M  V30 2145 C 211.875 -2.81873 1.04729 0
M  V30 2146 C 213.423 -2.95627 1.02828 0
M  V30 2147 C 213.898 -4.24174 1.72744 0
M  V30 2148 N 215.389 -4.31055 1.69545 0
M  V30 2149 C 216.124 -5.29304 2.20511 0
M  V30 2150 N 215.62 -6.33786 2.79799 0
M  V30 2151 N 217.413 -5.21008 2.10966 0
M  V30 2152 H 209.564 -1.36027 1.63127 0
M  V30 2153 H 211.827 -0.653823 0.686454 0
M  V30 2154 H 211.533 -2.81942 2.10242 0
M  V30 2155 H 211.407 -3.72338 0.603702 0
M  V30 2156 H 213.794 -2.95094 -0.0184742 0
M  V30 2157 H 213.875 -2.06431 1.51063 0
M  V30 2158 H 213.519 -4.25467 2.7738 0
M  V30 2159 H 213.449 -5.1228 1.2197 0
M  V30 2160 H 215.94 -3.56174 1.26288 0
M  V30 2161 H 216.253 -7.05086 3.16344 0
M  V30 2162 H 214.598 -6.34387 2.83863 0
M  V30 2163 H 217.789 -4.38301 1.64347 0
M  V30 2164 H 217.962 -5.97416 2.50993 0
M  V30 2165 N 211.368 -0.403325 -1.52352 0
M  V30 2166 C 212.617 0.175668 -2.00934 0
M  V30 2167 C 212.93 1.46718 -1.29356 0
M  V30 2168 O 214.136 2.12708 -1.68724 0
M  V30 2169 C 212.592 0.363612 -3.58058 0
M  V30 2170 C 212.2 -0.915472 -4.38547 0
M  V30 2171 C 213.944 0.89821 -4.14888 0
M  V30 2172 C 211.851 -0.695035 -5.87302 0
M  V30 2173 H 210.781 0.0694234 -0.750797 0
M  V30 2174 H 213.432 -0.527879 -1.75743 0
M  V30 2175 H 211.814 1.12935 -3.79555 0
M  V30 2176 H 212.988 -1.68691 -4.28812 0
M  V30 2177 H 211.303 -1.37606 -3.93006 0
M  V30 2178 H 213.9 1.07907 -5.23699 0
M  V30 2179 H 214.243 1.87126 -3.71873 0
M  V30 2180 H 214.776 0.191681 -3.97338 0
M  V30 2181 H 211.515 -1.63948 -6.34666 0
M  V30 2182 H 211.035 0.0372116 -5.99788 0
M  V30 2183 H 212.714 -0.33497 -6.46132 0
M  V30 2184 N 212.846 1.57033 -0.133567 0
M  V30 2185 C 214.074 2.00044 0.528195 0
M  V30 2186 C 214.489 1.01349 1.59291 0
M  V30 2187 O 213.846 0.00848369 1.82498 0
M  V30 2188 C 213.897 3.43018 1.1411 0
M  V30 2189 O 213.618 4.37939 0.11892 0
M  V30 2190 C 215.119 4.01237 1.88477 0
M  V30 2191 H 212.339 0.656517 0.138661 0
M  V30 2192 H 214.883 2.03267 -0.224196 0
M  V30 2193 H 213.038 3.40688 1.84418 0
M  V30 2194 H 213.452 5.21436 0.56613 0
M  V30 2195 H 214.926 5.03314 2.26669 0
M  V30 2196 H 215.403 3.41193 2.76558 0
M  V30 2197 H 216.009 4.07156 1.22898 0
M  V30 2198 N 214.325 -0.140222 1.56975 0
M  V30 2199 C 215.272 -1.17292 1.98774 0
M  V30 2200 C 216.242 -1.4232 0.856408 0
M  V30 2201 O 217.427 -1.54541 1.119 0
M  V30 2202 C 214.567 -2.49973 2.37923 0
M  V30 2203 C 213.68 -2.32062 3.64378 0
M  V30 2204 C 212.815 -3.57825 3.926 0
M  V30 2205 C 211.854 -3.3498 5.12303 0
M  V30 2206 N 210.991 -4.52891 5.36502 0
M  V30 2207 H 215.831 -0.809472 2.86795 0
M  V30 2208 H 213.368 -0.388237 1.41884 0
M  V30 2209 H 215.326 -3.27346 2.58652 0
M  V30 2210 H 213.956 -2.84252 1.52972 0
M  V30 2211 H 213.008 -1.45711 3.51387 0
M  V30 2212 H 214.32 -2.11145 4.51906 0
M  V30 2213 H 213.474 -4.43624 4.13863 0
M  V30 2214 H 212.213 -3.81753 3.03506 0
M  V30 2215 H 211.218 -2.4757 4.90906 0
M  V30 2216 H 212.443 -3.12444 6.02956 0
M  V30 2217 H 210.389 -4.76979 4.50363 0
M  V30 2218 H 210.306 -4.35001 6.18312 0
M  V30 2219 H 211.574 -5.39884 5.62268 0
M  V30 2220 N 215.803 -1.52179 -0.40978 0
M  V30 2221 C 216.766 -1.74853 -1.48186 0
M  V30 2222 C 217.766 -0.618417 -1.48433 0
M  V30 2223 O 218.956 -0.886286 -1.49969 0
M  V30 2224 C 216.088 -1.8303 -2.87598 0
M  V30 2225 H 217.281 -2.70559 -1.29374 0
M  V30 2226 H 214.834 -1.42586 -0.640233 0
M  V30 2227 H 215.569 -0.89236 -3.11781 0
M  V30 2228 H 215.354 -2.65187 -2.88822 0
M  V30 2229 H 216.844 -2.02316 -3.65319 0
M  V30 2230 N 217.281 0.66697 -1.42791 0
M  V30 2231 C 218.229 1.80157 -1.47127 0
M  V30 2232 C 219.223 1.65825 -0.346199 0
M  V30 2233 O 220.429 1.72338 -0.519572 0
M  V30 2234 H 216.804 0.594158 -0.460956 0
M  V30 2235 H 218.775 1.73619 -2.42692 0
M  V30 2236 C 217.524 3.18351 -1.39813 0
M  V30 2237 H 216.847 3.3001 -2.25684 0
M  V30 2238 H 218.287 3.97736 -1.46908 0
M  V30 2239 C 216.746 3.36707 -0.11391 0
M  V30 2240 O 217.276 3.93027 0.830241 0
M  V30 2241 N 215.482 2.90586 -0.0285295 0
M  V30 2242 H 215.029 2.4494 -0.79764 0
M  V30 2243 H 214.987 3.03245 0.830063 0
M  V30 2244 N 218.759 1.29093 0.90403 0
M  V30 2245 C 220.005 1.16986 1.65656 0
M  V30 2246 C 220.338 -0.278925 1.92186 0
M  V30 2247 O 219.613 -1.2019 1.5292 0
M  V30 2248 C 219.896 1.97908 3.0084 0
M  V30 2249 C 219.749 3.50903 2.81403 0
M  V30 2250 C 221.068 1.80208 4.01513 0
M  V30 2251 H 218.187 0.426346 0.601164 0
M  V30 2252 H 220.829 1.58518 1.04747 0
M  V30 2253 H 218.979 1.62616 3.52829 0
M  V30 2254 H 220.651 3.96153 2.36348 0
M  V30 2255 H 218.894 3.76045 2.1627 0
M  V30 2256 H 219.565 4.02791 3.77443 0
M  V30 2257 H 222.041 2.11025 3.58619 0
M  V30 2258 H 220.917 2.39184 4.94047 0
M  V30 2259 H 221.178 0.756119 4.35586 0
M  V30 2260 N 220.237 -1.11381 1.11499 0
M  V30 2261 C 221.514 -1.7955 0.775965 0
M  V30 2262 C 221.894 -1.97859 -0.73588 0
M  V30 2263 O 221.242 -1.56376 -1.66609 0
M  V30 2264 C 221.452 -3.13196 1.53977 0
M  V30 2265 C 222.8 -3.88227 1.71944 0
M  V30 2266 O 223.824 -3.22887 1.50407 0
M  V30 2267 O 222.683 -5.05477 2.07738 0
M  V30 2268 H 219.777 -0.777728 0.28119 0
M  V30 2269 H 222.323 -1.18118 1.21845 0
M  V30 2270 H 221.095 -2.95229 2.56818 0
M  V30 2271 H 220.718 -3.82342 1.09088 0
M  V30 2272 N 221.715 -0.905404 -1.28997 0
M  V30 2273 C 222.645 -0.404212 -2.29975 0
M  V30 2274 C 223.626 0.523784 -1.61835 0
M  V30 2275 O 224.811 0.433298 -1.89304 0
M  V30 2276 C 221.941 0.364042 -3.45387 0
M  V30 2277 C 220.895 -0.474048 -4.25367 0
M  V30 2278 C 220.221 0.422045 -5.33032 0
M  V30 2279 C 221.521 -1.72696 -4.92923 0
M  V30 2280 H 223.215 -1.24807 -2.72146 0
M  V30 2281 H 220.761 -0.601585 -1.30832 0
M  V30 2282 H 222.714 0.725447 -4.15109 0
M  V30 2283 H 221.438 1.24174 -3.02074 0
M  V30 2284 H 220.097 -0.81786 -3.57361 0
M  V30 2285 H 219.745 1.29804 -4.85963 0
M  V30 2286 H 219.445 -0.135057 -5.87445 0
M  V30 2287 H 220.969 0.779517 -6.05604 0
M  V30 2288 H 222.383 -1.43495 -5.55051 0
M  V30 2289 H 220.78 -2.22582 -5.57295 0
M  V30 2290 H 221.85 -2.45964 -4.17887 0
M  V30 2291 N 223.193 1.4272 -0.668489 0
M  V30 2292 C 224.123 2.335 -0.000100175 0
M  V30 2293 C 225.104 1.50328 0.795964 0
M  V30 2294 O 226.289 1.78949 0.754385 0
M  V30 2295 C 223.419 3.33874 0.956302 0
M  V30 2296 C 222.373 4.27152 0.269278 0
M  V30 2297 C 221.699 5.17684 1.33818 0
M  V30 2298 C 222.999 5.15373 -0.847805 0
M  V30 2299 H 224.693 2.89639 -0.758244 0
M  V30 2300 H 222.239 1.39269 -0.366079 0
M  V30 2301 H 224.192 3.9629 1.43292 0
M  V30 2302 H 222.916 2.76025 1.74579 0
M  V30 2303 H 221.575 3.66123 -0.187042 0
M  V30 2304 H 221.223 4.56165 2.1195 0
M  V30 2305 H 220.923 5.80918 0.883659 0
M  V30 2306 H 222.447 5.82974 1.81586 0
M  V30 2307 H 223.861 5.7151 -0.452681 0
M  V30 2308 H 222.258 5.87407 -1.22773 0
M  V30 2309 H 223.328 4.5415 -1.69929 0
M  V30 2310 N 224.671 0.411399 1.52136 0
M  V30 2311 C 226.082 -0.0576826 1.86611 0
M  V30 2312 C 226.433 -1.44238 1.33003 0
M  V30 2313 O 225.558 -2.05759 0.670228 0
M  V30 2314 C 226.153 -0.111448 3.38617 0
M  V30 2315 C 224.712 -0.52487 3.72723 0
M  V30 2316 C 223.859 0.299176 2.75681 0
M  V30 2317 H 226.81 0.628368 1.4573 0
M  V30 2318 H 226.831 -0.926252 3.69054 0
M  V30 2319 H 226.343 0.896488 3.77604 0
M  V30 2320 H 224.444 -1.53936 3.39315 0
M  V30 2321 H 224.557 -0.267681 4.78352 0
M  V30 2322 H 222.921 -0.238814 2.53578 0
M  V30 2323 H 223.704 1.3055 3.17508 0
M  V30 2324 N 226.149 -1.5696 0.141893 0
M  V30 2325 C 227.565 -1.58151 -0.21456 0
M  V30 2326 C 227.765 -1.1559 -1.65049 0
M  V30 2327 O 226.821 -0.853832 -2.37626 0
M  V30 2328 C 228.134 -3.00674 0.0395576 0
M  V30 2329 C 229.682 -3.1299 -0.0245529 0
M  V30 2330 C 230.157 -4.57554 0.202167 0
M  V30 2331 N 231.648 -4.62961 0.148919 0
M  V30 2332 C 232.383 -5.7262 0.298924 0
M  V30 2333 N 231.879 -6.90947 0.50637 0
M  V30 2334 N 233.672 -5.61601 0.236886 0
M  V30 2335 H 225.823 -1.8292 1.07953 0
M  V30 2336 H 228.086 -0.846425 0.42693 0
M  V30 2337 H 227.792 -3.36183 1.03315 0
M  V30 2338 H 227.666 -3.70981 -0.682143 0
M  V30 2339 H 230.053 -2.77326 -1.00869 0
M  V30 2340 H 230.134 -2.4518 0.729396 0
M  V30 2341 H 229.778 -4.93922 1.18338 0
M  V30 2342 H 229.708 -5.23484 -0.572044 0
M  V30 2343 H 232.199 -3.77899 -0.00697015 0
M  V30 2344 H 232.512 -7.7038 0.611076 0
M  V30 2345 H 230.857 -6.92878 0.542628 0
M  V30 2346 H 234.048 -4.68039 0.0756209 0
M  V30 2347 H 234.221 -6.47015 0.357227 0
M  V30 2348 N 227.627 0.131896 -1.57047 0
M  V30 2349 C 228.875 0.840269 -1.83804 0
M  V30 2350 C 229.196 1.81017 -0.72512 0
M  V30 2351 O 228.466 1.94272 0.251995 0
M  V30 2352 H 227.046 0.313294 -0.678127 0
M  V30 2353 H 229.708 0.122294 -1.94516 0
M  V30 2354 H 228.804 1.39335 -2.79271 0
M  V30 2355 N 229.106 1.52395 0.401703 0
M  V30 2356 C 230.069 1.75636 1.47257 0
M  V30 2357 C 231.069 0.62628 1.48103 0
M  V30 2358 O 232.259 0.894227 1.49497 0
M  V30 2359 C 229.391 1.84553 2.86624 0
M  V30 2360 H 230.584 2.71241 1.27938 0
M  V30 2361 H 228.137 1.42923 0.632662 0
M  V30 2362 H 228.872 0.908882 3.11303 0
M  V30 2363 H 228.657 2.66715 2.87412 0
M  V30 2364 H 230.147 2.04251 3.64241 0
M  V30 2365 N 230.584 -0.659388 1.43143 0
M  V30 2366 C 231.995 -1.24041 1.39537 0
M  V30 2367 C 232.346 -1.95963 0.0963364 0
M  V30 2368 O 231.471 -2.00892 -0.804438 0
M  V30 2369 C 232.066 -2.25601 2.52764 0
M  V30 2370 C 230.625 -2.79195 2.52443 0
M  V30 2371 C 229.772 -1.53743 2.30778 0
M  V30 2372 H 232.723 -0.451792 1.52133 0
M  V30 2373 H 232.744 -3.07651 2.23899 0
M  V30 2374 H 232.256 -1.73226 3.47296 0
M  V30 2375 H 230.357 -3.35649 1.61773 0
M  V30 2376 H 230.47 -3.2716 3.50004 0
M  V30 2377 H 228.834 -1.80869 1.79328 0
M  V30 2378 H 229.617 -1.03312 3.27386 0
M  V30 2379 N 232.062 -1.29571 -0.897171 0
M  V30 2380 C 232.972 -1.16808 -2.03453 0
M  V30 2381 C 233.988 -0.0907471 -1.73763 0
M  V30 2382 O 235.164 -0.303312 -1.99103 0
M  V30 2383 C 232.229 -0.848264 -3.36163 0
M  V30 2384 C 231.29 -2.0097 -3.79354 0
M  V30 2385 C 230.523 -1.70505 -5.05731 0
M  V30 2386 O 230.746 -0.62718 -5.66941 0
M  V30 2387 O 229.68 -2.5538 -5.45036 0
M  V30 2388 H 233.506 -2.12325 -2.17144 0
M  V30 2389 H 231.091 -1.09047 -1.02123 0
M  V30 2390 H 232.973 -0.684581 -4.15802 0
M  V30 2391 H 231.648 0.0771071 -3.23608 0
M  V30 2392 H 230.555 -2.22863 -3.00471 0
M  V30 2393 H 231.888 -2.91636 -3.96496 0
M  V30 2394 N 233.54 1.10788 -1.12088 0
M  V30 2395 C 234.956 1.34691 -0.856186 0
M  V30 2396 C 235.156 1.94791 0.515615 0
M  V30 2397 O 234.212 2.18524 1.26505 0
M  V30 2398 C 235.525 2.27208 -1.9697 0
M  V30 2399 C 237.073 2.40755 -2.00016 0
M  V30 2400 C 237.548 3.36598 -3.1059 0
M  V30 2401 N 239.039 3.44164 -3.10008 0
M  V30 2402 C 239.774 4.18284 -3.92206 0
M  V30 2403 N 239.27 4.95322 -4.84384 0
M  V30 2404 N 241.063 4.13865 -3.80357 0
M  V30 2405 H 233.214 0.70144 -2.00483 0
M  V30 2406 H 235.477 0.371405 -0.872217 0
M  V30 2407 H 235.183 1.90251 -2.958 0
M  V30 2408 H 235.057 3.27485 -1.87172 0
M  V30 2409 H 237.444 2.76982 -1.01808 0
M  V30 2410 H 237.525 1.40305 -2.13888 0
M  V30 2411 H 237.169 3.01096 -4.09028 0
M  V30 2412 H 237.099 4.36918 -2.93956 0
M  V30 2413 H 239.59 2.8922 -2.43228 0
M  V30 2414 H 239.903 5.49267 -5.43623 0
M  V30 2415 H 238.248 4.94459 -4.884 0
M  V30 2416 H 241.439 3.52773 -3.07683 0
M  V30 2417 H 241.612 4.71372 -4.44649 0
M  V30 2418 N 235.018 0.912232 1.28515 0
M  V30 2419 C 235.95 0.35676 2.26406 0
M  V30 2420 C 236.963 -0.503933 1.54804 0
M  V30 2421 O 238.152 -0.319059 1.75625 0
M  V30 2422 C 235.252 -0.508825 3.35058 0
M  V30 2423 C 234.425 0.329007 4.36161 0
M  V30 2424 C 233.484 -0.471422 5.24084 0
M  V30 2425 O 232.51 0.115482 5.69083 0
M  V30 2426 N 233.712 -1.77479 5.52704 0
M  V30 2427 H 236.477 1.19818 2.74707 0
M  V30 2428 H 234.038 0.778022 1.4198 0
M  V30 2429 H 236.03 -1.051 3.90815 0
M  V30 2430 H 234.6 -1.25095 2.86478 0
M  V30 2431 H 233.82 1.05256 3.79888 0
M  V30 2432 H 235.108 0.90234 5.00735 0
M  V30 2433 H 234.506 -2.27417 5.17975 0
M  V30 2434 H 233.063 -2.26382 6.11224 0
M  V30 2435 N 236.496 -1.42363 0.676048 0
M  V30 2436 C 237.912 -1.55811 0.345718 0
M  V30 2437 C 238.112 -1.65544 -1.14879 0
M  V30 2438 O 237.168 -1.62306 -1.93424 0
M  V30 2439 C 238.481 -2.80746 1.07713 0
M  V30 2440 C 240.029 -2.9452 1.05958 0
M  V30 2441 C 240.504 -4.22318 1.77233 0
M  V30 2442 N 241.995 -4.29233 1.74108 0
M  V30 2443 C 242.73 -5.26935 2.26113 0
M  V30 2444 N 242.226 -6.30783 2.86505 0
M  V30 2445 N 244.019 -5.18741 2.1648 0
M  V30 2446 H 236.17 -1.34289 1.6456 0
M  V30 2447 H 238.433 -0.646506 0.69335 0
M  V30 2448 H 238.139 -2.79696 2.13221 0
M  V30 2449 H 238.013 -3.71676 0.64316 0
M  V30 2450 H 240.4 -2.95097 0.0128255 0
M  V30 2451 H 240.481 -2.04817 1.53244 0
M  V30 2452 H 240.125 -4.22502 2.81877 0
M  V30 2453 H 240.055 -5.10958 1.27396 0
M  V30 2454 H 242.546 -3.54814 1.30059 0
M  V30 2455 H 242.859 -7.01691 3.23805 0
M  V30 2456 H 241.204 -6.31341 2.90575 0
M  V30 2457 H 244.395 -4.36533 1.68987 0
M  V30 2458 H 244.568 -5.94721 2.57316 0
M  V30 2459 N 237.974 -0.419461 -1.51915 0
M  V30 2460 C 238.904 0.391813 -2.30189 0
M  V30 2461 C 239.885 1.03699 -1.34836 0
M  V30 2462 O 241.07 1.04403 -1.63748 0
M  V30 2463 C 238.2 1.50312 -3.13087 0
M  V30 2464 C 237.154 0.9824 -4.16573 0
M  V30 2465 C 236.48 2.18809 -4.8788 0
M  V30 2466 C 237.78 0.0292356 -5.22292 0
M  V30 2467 H 239.474 -0.26135 -2.98257 0
M  V30 2468 H 237.02 -0.127134 -1.43438 0
M  V30 2469 H 238.973 2.07773 -3.66617 0
M  V30 2470 H 237.697 2.18431 -2.42807 0
M  V30 2471 H 236.356 0.430119 -3.64068 0
M  V30 2472 H 236.004 2.85507 -4.14119 0
M  V30 2473 H 235.704 1.84615 -5.57845 0
M  V30 2474 H 237.228 2.76858 -5.44226 0
M  V30 2475 H 238.642 0.512976 -5.71 0
M  V30 2476 H 237.039 -0.2244 -5.9968 0
M  V30 2477 H 238.109 -0.912931 -4.76228 0
M  V30 2478 N 239.452 1.56882 -0.150215 0
M  V30 2479 C 240.382 2.19935 0.784284 0
M  V30 2480 C 241.363 1.14854 1.25469 0
M  V30 2481 O 242.548 1.43209 1.31168 0
M  V30 2482 C 239.678 2.82349 2.02229 0
M  V30 2483 C 238.632 3.93285 1.68853 0
M  V30 2484 C 237.958 4.42649 2.99944 0
M  V30 2485 C 239.258 5.13904 0.932714 0
M  V30 2486 H 240.952 2.9828 0.258781 0
M  V30 2487 H 238.498 1.43473 0.123029 0
M  V30 2488 H 240.451 3.25126 2.68088 0
M  V30 2489 H 239.175 2.0134 2.57157 0
M  V30 2490 H 237.834 3.5113 1.05371 0
M  V30 2491 H 237.482 3.58458 3.52869 0
M  V30 2492 H 237.182 5.17476 2.78374 0
M  V30 2493 H 238.706 4.88099 3.66868 0
M  V30 2494 H 240.12 5.53506 1.49345 0
M  V30 2495 H 238.517 5.94515 0.81684 0
M  V30 2496 H 239.587 4.84842 -0.0749568 0
M  V30 2497 N 240.93 -0.123565 1.57115 0
M  V30 2498 C 242.341 -0.681198 1.73829 0
M  V30 2499 C 242.692 -1.80535 0.768214 0
M  V30 2500 O 241.817 -2.16317 -0.0599103 0
M  V30 2501 C 242.412 -1.24246 3.15196 0
M  V30 2502 C 240.971 -1.74643 3.33432 0
M  V30 2503 C 240.118 -0.644284 2.69711 0
M  V30 2504 H 243.069 0.102315 1.5837 0
M  V30 2505 H 243.09 -2.11216 3.16493 0
M  V30 2506 H 242.602 -0.424062 3.85776 0
M  V30 2507 H 240.703 -2.58974 2.67886 0
M  V30 2508 H 240.816 -1.85902 4.41562 0
M  V30 2509 H 239.18 -1.07676 2.3082 0
M  V30 2510 H 239.963 0.163058 3.42913 0
M  V30 2511 N 242.408 -1.52605 -0.393616 0
M  V30 2512 C 243.371 -1.76415 -1.46323 0
M  V30 2513 C 244.371 -0.634126 -1.47768 0
M  V30 2514 O 245.561 -0.902142 -1.4902 0
M  V30 2515 C 242.693 -1.8607 -2.85641 0
M  V30 2516 H 243.886 -2.71916 -1.26498 0
M  V30 2517 H 241.439 -1.43257 -0.625073 0
M  V30 2518 H 242.174 -0.925378 -3.10817 0
M  V30 2519 H 241.959 -2.68235 -2.85993 0
M  V30 2520 H 243.449 -2.06179 -3.63153 0
M  V30 2521 N 243.887 0.651787 -1.4349 0
M  V30 2522 C 244.85 1.74647 -1.48429 0
M  V30 2523 C 245.85 1.56513 -0.368817 0
M  V30 2524 O 247.04 1.62385 -0.630623 0
M  V30 2525 C 244.172 3.13533 -1.33827 0
M  V30 2526 H 245.365 1.71649 -2.4592 0
M  V30 2527 H 242.918 0.863573 -1.30277 0
M  V30 2528 H 243.653 3.22142 -0.37349 0
M  V30 2529 H 243.438 3.28101 -2.14691 0
M  V30 2530 H 244.928 3.93356 -1.40218 0
M  V30 2531 N 245.365 1.30045 0.890287 0
M  V30 2532 C 246.295 1.18541 2.01172 0
M  V30 2533 C 247.276 0.0773356 1.69924 0
M  V30 2534 O 248.461 0.25845 1.92473 0
M  V30 2535 C 245.591 0.870941 3.36202 0
M  V30 2536 C 244.545 1.93637 3.81692 0
M  V30 2537 C 243.871 1.475 5.13953 0
M  V30 2538 C 245.171 3.34666 4.00994 0
M  V30 2539 H 246.865 2.12359 2.11054 0
M  V30 2540 H 244.411 1.02238 1.01407 0
M  V30 2541 H 246.364 0.777141 4.14172 0
M  V30 2542 H 245.088 -0.102926 3.26438 0
M  V30 2543 H 243.747 2.01972 3.05946 0
M  V30 2544 H 243.395 0.489551 5.00612 0
M  V30 2545 H 243.095 2.1876 5.4536 0
M  V30 2546 H 244.619 1.39489 5.94454 0
M  V30 2547 H 246.033 3.2912 4.69417 0
M  V30 2548 H 244.43 4.03966 4.43769 0
M  V30 2549 H 245.5 3.76949 3.05021 0
M  V30 2550 N 246.843 -1.10192 1.12674 0
M  V30 2551 C 247.806 -2.14786 0.799979 0
M  V30 2552 C 248.806 -1.59711 -0.18685 0
M  V30 2553 O 249.996 -1.74156 0.0392558 0
M  V30 2554 C 247.128 -3.40374 0.189228 0
M  V30 2555 H 248.321 -2.45203 1.72671 0
M  V30 2556 H 245.874 -1.25597 0.930326 0
M  V30 2557 H 246.609 -3.15577 -0.747107 0
M  V30 2558 H 246.394 -3.81637 0.899766 0
M  V30 2559 H 247.884 -4.17594 -0.0228143 0
M  V30 2560 N 248.321 -0.919034 -1.28029 0
M  V30 2561 C 249.561 -0.562107 -1.96519 0
M  V30 2562 C 249.925 0.878784 -1.70708 0
M  V30 2563 O 251.126 1.34355 -2.32813 0
M  V30 2564 C 249.397 -0.868953 -3.46676 0
M  V30 2565 S 250.956 -0.619237 -4.34409 0
M  V30 2566 H 247.774 -0.2078 -0.679956 0
M  V30 2567 H 250.376 -1.18562 -1.55446 0
M  V30 2568 H 249.08 -1.91547 -3.62957 0
M  V30 2569 H 248.611 -0.234301 -3.92702 0
M  V30 2570 H 250.626 0.526995 -4.93394 0
M  V30 2571 N 249.799 1.42003 -0.683588 0
M  V30 2572 C 251.045 2.02223 -0.218536 0
M  V30 2573 C 251.4 1.53126 1.16492 0
M  V30 2574 O 250.693 0.727459 1.77253 0
M  V30 2575 C 250.887 3.56827 -0.202357 0
M  V30 2576 C 250.716 4.20928 -1.5827 0
M  V30 2577 C 249.486 4.5573 -2.18262 0
M  V30 2578 C 251.684 4.47933 -2.52706 0
M  V30 2579 N 249.666 5.05056 -3.48986 0
M  V30 2580 C 251.037 4.98906 -3.68094 0
M  V30 2581 C 253.092 4.29931 -2.51125 0
M  V30 2582 C 251.795 5.33768 -4.82166 0
M  V30 2583 C 253.821 4.65875 -3.643 0
M  V30 2584 C 253.183 5.17008 -4.78417 0
M  V30 2585 H 249.282 0.771931 -0.125088 0
M  V30 2586 H 251.866 1.72729 -0.898479 0
M  V30 2587 H 250.037 3.85819 0.447029 0
M  V30 2588 H 251.769 4.03755 0.276399 0
M  V30 2589 H 248.524 4.41781 -1.70665 0
M  V30 2590 H 248.948 5.34139 -4.15962 0
M  V30 2591 H 253.59 3.89647 -1.6412 0
M  V30 2592 H 251.308 5.72981 -5.6984 0
M  V30 2593 H 254.894 4.53615 -3.64314 0
M  V30 2594 H 253.774 5.44301 -5.64541 0
M  V30 2595 N 251.277 0.427512 1.51691 0
M  V30 2596 C 252.525 -0.141948 2.01601 0
M  V30 2597 C 252.846 -1.44067 1.31414 0
M  V30 2598 O 252.116 -1.90763 0.445658 0
M  V30 2599 H 250.696 -0.0554468 0.744939 0
M  V30 2600 H 253.358 0.567968 1.86441 0
M  V30 2601 H 252.454 -0.324913 3.10404 0
M  V30 2602 N 252.755 -1.56801 0.158532 0
M  V30 2603 C 254.001 -1.96781 -0.490405 0
M  V30 2604 C 254.334 -1.04397 -1.63753 0
M  V30 2605 O 253.609 -0.0885805 -1.94298 0
M  V30 2606 C 253.892 -3.4635 -0.985594 0
M  V30 2607 C 253.745 -4.49512 0.160824 0
M  V30 2608 C 255.064 -3.98697 -1.86355 0
M  V30 2609 H 252.183 -0.715482 -0.176788 0
M  V30 2610 H 254.825 -1.88451 0.242088 0
M  V30 2611 H 252.975 -3.53579 -1.60978 0
M  V30 2612 H 254.647 -4.54353 0.797537 0
M  V30 2613 H 252.89 -4.26013 0.818256 0
M  V30 2614 H 253.561 -5.51531 -0.227569 0
M  V30 2615 H 256.037 -3.94019 -1.33746 0
M  V30 2616 H 254.913 -5.03792 -2.17909 0
M  V30 2617 H 255.174 -3.41744 -2.8047 0
M  V30 2618 N 254.233 0.115231 -1.57178 0
M  V30 2619 C 255.649 0.468877 -1.52557 0
M  V30 2620 C 255.849 1.81649 -0.872125 0
M  V30 2621 O 254.905 2.48347 -0.45606 0
M  V30 2622 C 256.218 0.4499 -2.97315 0
M  V30 2623 C 257.766 0.533185 -3.08425 0
M  V30 2624 C 258.241 0.54456 -4.54751 0
M  V30 2625 N 259.732 0.605892 -4.5922 0
M  V30 2626 C 260.467 0.636203 -5.6986 0
M  V30 2627 N 259.963 0.623931 -6.89985 0
M  V30 2628 N 261.756 0.679496 -5.57978 0
M  V30 2629 H 253.907 -0.767712 -1.9804 0
M  V30 2630 H 256.17 -0.283609 -0.904583 0
M  V30 2631 H 255.876 -0.472721 -3.48509 0
M  V30 2632 H 255.75 1.27632 -3.5495 0
M  V30 2633 H 258.137 1.44623 -2.57232 0
M  V30 2634 H 258.218 -0.320995 -2.53778 0
M  V30 2635 H 257.862 -0.364452 -5.06591 0
M  V30 2636 H 257.792 1.41568 -5.07214 0
M  V30 2637 H 260.283 0.621386 -3.72756 0
M  V30 2638 H 260.596 0.649787 -7.70063 0
M  V30 2639 H 258.941 0.591296 -6.9248 0
M  V30 2640 H 262.132 0.686472 -4.63039 0
M  V30 2641 H 262.305 0.69965 -6.44212 0
M  V30 2642 N 255.711 1.52812 0.385517 0
M  V30 2643 C 256.959 1.67694 1.12797 0
M  V30 2644 C 257.28 0.421115 1.90399 0
M  V30 2645 O 256.55 -0.564551 1.87589 0
M  V30 2646 H 255.13 0.618155 0.419396 0
M  V30 2647 H 257.792 1.89938 0.436972 0
M  V30 2648 H 256.888 2.52896 1.82894 0
M  V30 2649 N 257.189 -0.644168 1.43834 0
M  V30 2650 C 258.414 -1.43642 1.49605 0
M  V30 2651 C 258.839 -1.8773 0.117913 0
M  V30 2652 O 258.197 -1.57938 -0.890239 0
M  V30 2653 C 258.245 -2.6416 2.45463 0
M  V30 2654 O 257.349 -3.63538 1.94714 0
M  V30 2655 H 256.69 -0.430329 0.50568 0
M  V30 2656 H 259.22 -0.787448 1.8884 0
M  V30 2657 H 259.23 -3.11864 2.63068 0
M  V30 2658 H 257.905 -2.31414 3.45572 0
M  V30 2659 H 256.482 -3.2273 1.86814 0
M  V30 2660 N 258.668 -1.30515 -0.883378 0
M  V30 2661 C 259.598 -1.19607 -2.00541 0
M  V30 2662 C 260.579 -0.086346 -1.69881 0
M  V30 2663 O 261.764 -0.268654 -1.92333 0
M  V30 2664 C 258.894 -0.888758 -3.35736 0
M  V30 2665 C 257.848 -1.95659 -3.8066 0
M  V30 2666 C 257.174 -1.50224 -5.13164 0
M  V30 2667 C 258.474 -3.36788 -3.99213 0
M  V30 2668 H 260.168 -2.13476 -2.09925 0
M  V30 2669 H 257.714 -1.02775 -1.00863 0
M  V30 2670 H 259.667 -0.799094 -4.13754 0
M  V30 2671 H 258.391 0.0856125 -3.26488 0
M  V30 2672 H 257.05 -2.03591 -3.04871 0
M  V30 2673 H 256.698 -0.516092 -5.00345 0
M  V30 2674 H 256.398 -2.2165 -5.44192 0
M  V30 2675 H 257.922 -1.42639 -5.93706 0
M  V30 2676 H 259.336 -3.31605 -4.67665 0
M  V30 2677 H 257.733 -4.06314 -4.41621 0
M  V30 2678 H 258.803 -3.78561 -3.03017 0
M  V30 2679 N 260.146 1.09593 -1.13257 0
M  V30 2680 C 261.076 2.18214 -0.830946 0
M  V30 2681 C 262.057 1.68812 0.208966 0
M  V30 2682 O 263.242 1.9408 0.0682666 0
M  V30 2683 C 260.372 3.46051 -0.294296 0
M  V30 2684 C 259.326 4.08778 -1.26826 0
M  V30 2685 C 258.652 5.31419 -0.591449 0
M  V30 2686 C 259.952 4.51476 -2.62615 0
M  V30 2687 H 261.646 2.43703 -1.73923 0
M  V30 2688 H 259.192 1.17128 -0.837675 0
M  V30 2689 H 261.145 4.2134 -0.0709606 0
M  V30 2690 H 259.869 3.20079 0.649366 0
M  V30 2691 H 258.528 3.35505 -1.47756 0
M  V30 2692 H 258.176 5.01727 0.357633 0
M  V30 2693 H 257.876 5.74341 -1.24123 0
M  V30 2694 H 259.4 6.09433 -0.377355 0
M  V30 2695 H 260.814 5.17999 -2.45663 0
M  V30 2696 H 259.211 5.05277 -3.23752 0
M  V30 2697 H 260.281 3.63962 -3.20406 0
M  V30 2698 N 261.624 0.925811 1.2754 0
M  V30 2699 C 262.849 0.580924 1.99098 0
M  V30 2700 C 263.274 -0.833555 1.68622 0
M  V30 2701 O 262.632 -1.55903 0.925422 0
M  V30 2702 C 262.68 0.811186 3.51358 0
M  V30 2703 O 261.784 -0.124129 4.12213 0
M  V30 2704 H 261.125 0.223873 0.625122 0
M  V30 2705 H 263.655 1.24455 1.62395 0
M  V30 2706 H 263.665 0.72601 4.01489 0
M  V30 2707 H 262.34 1.84227 3.72872 0
M  V30 2708 H 260.917 0.0108006 3.72898 0
M  V30 2709 N 263.102 -1.41638 0.69111 0
M  V30 2710 C 264.012 -2.34588 0.0233487 0
M  V30 2711 C 265.028 -1.55987 -0.770984 0
M  V30 2712 O 266.204 -1.88486 -0.709569 0
M  V30 2713 C 263.269 -3.34684 -0.904851 0
M  V30 2714 C 262.33 -4.29176 -0.103225 0
M  V30 2715 C 261.563 -5.2449 -0.987216 0
M  V30 2716 O 261.786 -5.2514 -2.22674 0
M  V30 2717 O 260.72 -6.00295 -0.439281 0
M  V30 2718 H 264.546 -2.93261 0.789416 0
M  V30 2719 H 262.131 -1.42417 0.45142 0
M  V30 2720 H 264.013 -3.96133 -1.43724 0
M  V30 2721 H 262.688 -2.78461 -1.65049 0
M  V30 2722 H 261.595 -3.71089 0.473655 0
M  V30 2723 H 262.928 -4.88484 0.60365 0
M  V30 2724 N 264.58 -0.43555 -1.51462 0
M  V30 2725 C 265.543 0.365137 -2.26273 0
M  V30 2726 C 266.543 0.951227 -1.29647 0
M  V30 2727 O 267.733 0.825958 -1.53374 0
M  V30 2728 C 264.865 1.51645 -3.05314 0
M  V30 2729 H 266.058 -0.290474 -2.9849 0
M  V30 2730 H 263.611 -0.188676 -1.55157 0
M  V30 2731 H 264.346 2.20816 -2.3751 0
M  V30 2732 H 264.131 1.10238 -3.76284 0
M  V30 2733 H 265.621 2.08218 -3.61987 0
M  V30 2734 N 266.058 1.56714 -0.166846 0
M  V30 2735 C 267.335 1.88412 0.525373 0
M  V30 2736 C 267.715 1.07602 1.81618 0
M  V30 2737 O 267.063 0.168621 2.27877 0
M  V30 2738 C 267.273 3.40363 0.771613 0
M  V30 2739 C 268.621 4.10007 1.1036 0
M  V30 2740 O 269.645 3.45655 0.860304 0
M  V30 2741 O 268.504 5.2369 1.56239 0
M  V30 2742 H 265.598 0.781587 0.270278 0
M  V30 2743 H 268.144 1.68458 -0.204946 0
M  V30 2744 H 266.916 3.91046 -0.141093 0
M  V30 2745 H 266.539 3.65914 1.55541 0
M  V30 2746 N 267.536 -0.106894 1.57237 0
M  V30 2747 C 268.782 -0.81373 1.85759 0
M  V30 2748 C 269.115 -1.78952 0.754315 0
M  V30 2749 O 268.39 -1.93029 -0.23879 0
M  V30 2750 C 268.673 -1.55293 3.24894 0
M  V30 2751 C 268.526 -0.595929 4.45835 0
M  V30 2752 C 269.845 -2.5063 3.61763 0
M  V30 2753 H 266.964 -0.294369 0.67566 0
M  V30 2754 H 269.606 -0.0776472 1.89841 0
M  V30 2755 H 267.756 -2.1804 3.21544 0
M  V30 2756 H 269.428 0.0236262 4.61294 0
M  V30 2757 H 267.671 0.0916191 4.33703 0
M  V30 2758 H 268.342 -1.15004 5.39887 0
M  V30 2759 H 270.818 -1.97982 3.65981 0
M  V30 2760 H 269.694 -2.99376 4.60071 0
M  V30 2761 H 269.955 -3.3385 2.89821 0
M  V30 2762 N 269.014 -1.53014 -0.377408 0
M  V30 2763 C 270.43 -1.42523 -0.718281 0
M  V30 2764 C 270.63 -0.55487 -1.9371 0
M  V30 2765 O 269.686 -0.0327593 -2.52479 0
M  V30 2766 C 270.999 -2.85546 -0.942539 0
M  V30 2767 C 272.547 -2.95101 -1.04329 0
M  V30 2768 C 273.022 -4.3916 -1.3001 0
M  V30 2769 N 274.513 -4.42536 -1.36806 0
M  V30 2770 C 275.248 -5.51097 -1.58364 0
M  V30 2771 N 274.744 -6.69724 -1.77317 0
M  V30 2772 N 276.537 -5.38657 -1.60638 0
M  V30 2773 H 268.688 -2.08116 0.424426 0
M  V30 2774 H 270.951 -0.939352 0.127759 0
M  V30 2775 H 270.657 -3.51499 -0.118929 0
M  V30 2776 H 270.531 -3.28493 -1.85397 0
M  V30 2777 H 272.918 -2.29309 -1.85745 0
M  V30 2778 H 272.999 -2.55566 -0.109505 0
M  V30 2779 H 272.643 -5.05521 -0.490991 0
M  V30 2780 H 272.573 -4.76258 -2.24691 0
M  V30 2781 H 275.064 -3.57039 -1.23821 0
M  V30 2782 H 275.377 -7.48233 -1.93306 0
M  V30 2783 H 273.722 -6.72732 -1.74518 0
M  V30 2784 H 276.913 -4.44948 -1.45391 0
M  V30 2785 H 277.086 -6.2333 -1.77098 0
M  V30 2786 N 270.492 0.636531 -1.44174 0
M  V30 2787 C 271.455 1.73063 -1.50273 0
M  V30 2788 C 272.455 1.56113 -0.385397 0
M  V30 2789 O 273.645 1.61707 -0.64781 0
M  V30 2790 C 270.777 3.12096 -1.37145 0
M  V30 2791 H 271.97 1.69031 -2.47727 0
M  V30 2792 H 269.523 0.849706 -1.31186 0
M  V30 2793 H 270.258 3.21728 -0.407636 0
M  V30 2794 H 270.043 3.25805 -2.18159 0
M  V30 2795 H 271.533 3.91846 -1.44382 0
M  V30 2796 N 271.97 1.30982 0.876444 0
M  V30 2797 C 272.9 1.20668 1.99903 0
M  V30 2798 C 273.881 0.095354 1.69833 0
M  V30 2799 O 275.066 0.27885 1.92188 0
M  V30 2800 C 272.196 0.90655 3.3526 0
M  V30 2801 C 271.15 1.97675 3.79617 0
M  V30 2802 C 270.476 1.52943 5.1236 0
M  V30 2803 C 271.776 3.389 3.97422 0
M  V30 2804 H 273.47 2.14586 2.0879 0
M  V30 2805 H 271.016 1.03308 1.00317 0
M  V30 2806 H 272.969 0.821025 4.13324 0
M  V30 2807 H 271.693 -0.0682969 3.26529 0
M  V30 2808 H 270.352 2.05205 3.03787 0
M  V30 2809 H 270 0.54262 5.00065 0
M  V30 2810 H 269.7 2.24532 5.43009 0
M  V30 2811 H 271.224 1.45786 5.92941 0
M  V30 2812 H 272.638 3.34081 4.659 0
M  V30 2813 H 271.035 4.0865 4.3946 0
M  V30 2814 H 272.105 3.80163 3.01006 0
M  V30 2815 N 273.449 -1.08991 1.13837 0
M  V30 2816 C 274.697 -1.80899 0.901098 0
M  V30 2817 C 275.018 -1.86356 -0.574134 0
M  V30 2818 O 274.288 -1.35235 -1.41733 0
M  V30 2819 H 272.868 -0.669966 0.330386 0
M  V30 2820 H 275.53 -1.318 1.43578 0
M  V30 2821 H 274.626 -2.83929 1.29578 0
M  V30 2822 N 274.927 -0.932562 -1.27047 0
M  V30 2823 C 276.175 -0.574422 -1.93765 0
M  V30 2824 C 276.496 0.887993 -1.73608 0
M  V30 2825 O 275.766 1.62999 -1.08665 0
M  V30 2826 H 274.346 -0.209451 -0.717035 0
M  V30 2827 H 277.008 -1.18601 -1.5466 0
M  V30 2828 H 276.104 -0.784841 -3.02071 0
M  V30 2829 N 276.405 1.4127 -0.698611 0
M  V30 2830 C 277.335 2.33447 -0.049629 0
M  V30 2831 C 278.316 1.51982 0.763898 0
M  V30 2832 O 279.501 1.80509 0.716257 0
M  V30 2833 C 276.631 3.35828 0.885267 0
M  V30 2834 C 275.585 4.27627 0.178613 0
M  V30 2835 C 274.911 5.20406 1.22807 0
M  V30 2836 C 276.211 5.13459 -0.956933 0
M  V30 2837 H 277.905 2.87966 -0.81951 0
M  V30 2838 H 275.451 1.38461 -0.395538 0
M  V30 2839 H 277.404 3.9924 1.34854 0
M  V30 2840 H 276.128 2.79666 1.68685 0
M  V30 2841 H 274.787 3.65643 -0.26466 0
M  V30 2842 H 274.435 4.60558 2.02226 0
M  V30 2843 H 274.135 5.82661 0.760239 0
M  V30 2844 H 275.659 5.86695 1.69179 0
M  V30 2845 H 277.073 5.70421 -0.573805 0
M  V30 2846 H 275.47 5.8467 -1.35205 0
M  V30 2847 H 276.54 4.50443 -1.79524 0
M  V30 2848 N 277.883 0.443576 1.51229 0
M  V30 2849 C 278.846 -0.353132 2.26463 0
M  V30 2850 C 279.846 -0.944338 1.3015 0
M  V30 2851 O 281.036 -0.817813 1.5381 0
M  V30 2852 C 278.168 -1.50023 3.06114 0
M  V30 2853 H 279.361 0.3063 2.98332 0
M  V30 2854 H 276.914 0.196902 1.55055 0
M  V30 2855 H 277.649 -2.19553 2.38677 0
M  V30 2856 H 277.434 -1.08241 3.76864 0
M  V30 2857 H 278.924 -2.06296 3.63087 0
M  V30 2858 N 279.361 -1.56624 0.175154 0
M  V30 2859 C 280.601 -1.98894 -0.471221 0
M  V30 2860 C 280.965 -1.05889 -1.60161 0
M  V30 2861 O 282.166 -1.37315 -2.3108 0
M  V30 2862 C 280.437 -3.44865 -0.938241 0
M  V30 2863 S 281.996 -4.09164 -1.58526 0
M  V30 2864 H 278.814 -0.694686 -0.151434 0
M  V30 2865 H 281.416 -1.93577 0.27352 0
M  V30 2866 H 280.12 -4.10265 -0.10518 0
M  V30 2867 H 279.651 -3.53956 -1.71693 0
M  V30 2868 H 281.666 -4.04528 -2.87352 0
M  V30 2869 N 280.839 0.0985539 -1.57292 0
M  V30 2870 C 282.116 0.834155 -1.76921 0
M  V30 2871 C 282.496 1.97101 -0.755928 0
M  V30 2872 O 281.844 2.27474 0.216245 0
M  V30 2873 C 282.054 1.33194 -3.22584 0
M  V30 2874 C 283.402 1.77611 -3.85668 0
M  V30 2875 O 284.426 1.42825 -3.26312 0
M  V30 2876 O 283.285 2.4192 -4.90038 0
M  V30 2877 H 280.379 0.397628 -0.725135 0
M  V30 2878 H 282.925 0.0807044 -1.69508 0
M  V30 2879 H 281.697 0.517248 -3.87866 0
M  V30 2880 H 281.32 2.1475 -3.34616 0
M  V30 2881 N 282.317 1.53212 0.369288 0
M  V30 2882 C 283.247 1.82365 1.45826 0
M  V30 2883 C 284.228 0.676907 1.56051 0
M  V30 2884 O 285.413 0.926401 1.70679 0
M  V30 2885 C 282.543 2.01023 2.83208 0
M  V30 2886 C 281.497 3.1678 2.8781 0
M  V30 2887 C 280.823 3.20724 4.27832 0
M  V30 2888 C 282.123 4.55447 2.55667 0
M  V30 2889 H 283.817 2.73559 1.21678 0
M  V30 2890 H 281.363 1.3163 0.583911 0
M  V30 2891 H 283.316 2.20001 3.59413 0
M  V30 2892 H 282.04 1.06536 3.08736 0
M  V30 2893 H 280.699 2.97616 2.14056 0
M  V30 2894 H 280.347 2.23882 4.50429 0
M  V30 2895 H 280.047 3.98496 4.31827 0
M  V30 2896 H 281.571 3.41881 5.05915 0
M  V30 2897 H 282.985 4.74611 3.21586 0
M  V30 2898 H 281.382 5.35432 2.70984 0
M  V30 2899 H 282.452 4.60812 1.5093 0
M  V30 2900 N 283.795 -0.628877 1.44509 0
M  V30 2901 C 285.206 -1.21054 1.42137 0
M  V30 2902 C 285.557 -1.95715 0.137881 0
M  V30 2903 O 284.682 -2.02554 -0.761645 0
M  V30 2904 C 285.277 -2.20189 2.57493 0
M  V30 2905 C 283.836 -2.73777 2.58308 0
M  V30 2906 C 282.983 -1.48813 2.33987 0
M  V30 2907 H 285.934 -0.41942 1.53057 0
M  V30 2908 H 285.955 -3.02833 2.30375 0
M  V30 2909 H 285.467 -1.6582 3.50892 0
M  V30 2910 H 283.568 -3.32142 1.68856 0
M  V30 2911 H 283.681 -3.19662 3.56865 0
M  V30 2912 H 282.045 -1.77024 1.83124 0
M  V30 2913 H 282.828 -0.963442 3.29504 0
M  V30 2914 N 285.273 -1.31445 -0.869486 0
M  V30 2915 C 286.521 -1.20918 -1.61936 0
M  V30 2916 C 286.842 0.232683 -1.93607 0
M  V30 2917 O 286.112 1.15352 -1.58338 0
M  V30 2918 H 284.692 -0.44454 -0.600328 0
M  V30 2919 H 287.354 -1.64776 -1.0409 0
M  V30 2920 H 286.45 -1.78124 -2.56278 0
M  V30 2921 N 286.751 1.08385 -1.14413 0
M  V30 2922 C 288.167 1.32844 -0.884563 0
M  V30 2923 C 288.367 1.95841 0.474181 0
M  V30 2924 O 287.423 2.21158 1.21842 0
M  V30 2925 C 288.736 2.22978 -2.01745 0
M  V30 2926 C 290.284 2.36458 -2.05077 0
M  V30 2927 C 290.759 3.29934 -3.1766 0
M  V30 2928 N 292.25 3.37511 -3.17239 0
M  V30 2929 C 292.985 4.09871 -4.0099 0
M  V30 2930 N 292.481 4.84936 -4.94781 0
M  V30 2931 N 294.274 4.05704 -3.89051 0
M  V30 2932 H 286.425 0.658756 -2.01926 0
M  V30 2933 H 288.688 0.352821 -0.879899 0
M  V30 2934 H 288.394 1.83934 -2.99769 0
M  V30 2935 H 288.268 3.23441 -1.94077 0
M  V30 2936 H 290.655 2.7476 -1.0766 0
M  V30 2937 H 290.736 1.35736 -2.16816 0
M  V30 2938 H 290.38 2.92352 -4.15322 0
M  V30 2939 H 290.31 4.30584 -3.03158 0
M  V30 2940 H 292.801 2.83996 -2.49308 0
M  V30 2941 H 293.114 5.37612 -5.55151 0
M  V30 2942 H 291.459 4.83988 -4.98779 0
M  V30 2943 H 294.65 3.46167 -3.15097 0
M  V30 2944 H 294.823 4.61834 -4.54547 0
M  V30 2945 N 288.23 0.939286 1.26551 0
M  V30 2946 C 289.477 0.585847 1.9384 0
M  V30 2947 C 289.805 -0.874784 1.73718 0
M  V30 2948 O 289.06 -1.64092 1.06642 0
M  V30 2949 C 289.359 0.872106 3.46596 0
M  V30 2950 C 289.025 2.31632 3.86856 0
M  V30 2951 C 287.687 2.71111 3.97558 0
M  V30 2952 C 290.039 3.25494 4.07066 0
M  V30 2953 C 287.367 4.03553 4.25866 0
M  V30 2954 C 289.719 4.57531 4.36862 0
M  V30 2955 C 288.383 4.96828 4.45778 0
M  V30 2956 H 287.653 0.214377 0.709312 0
M  V30 2957 H 290.3 1.18544 1.50398 0
M  V30 2958 H 288.605 0.18996 3.91339 0
M  V30 2959 H 290.302 0.577442 3.96821 0
M  V30 2960 H 286.892 2.00008 3.79071 0
M  V30 2961 H 291.076 2.9619 3.98227 0
M  V30 2962 H 286.332 4.33665 4.30981 0
M  V30 2963 H 290.506 5.30254 4.51446 0
M  V30 2964 H 288.133 5.99482 4.67468 0
M  V30 2965 N 289.708 -1.40897 0.706093 0
M  V30 2966 C 290.954 -2.01352 0.241889 0
M  V30 2967 C 291.287 -1.55832 -1.15888 0
M  V30 2968 O 290.562 -0.774145 -1.7843 0
M  V30 2969 C 290.845 -3.58752 0.311311 0
M  V30 2970 C 290.698 -4.1437 1.74978 0
M  V30 2971 C 292.017 -4.38914 -0.322922 0
M  V30 2972 H 289.136 -0.731562 0.0893687 0
M  V30 2973 H 291.778 -1.67504 0.896802 0
M  V30 2974 H 289.928 -3.87718 -0.246302 0
M  V30 2975 H 291.6 -3.96239 2.36205 0
M  V30 2976 H 289.843 -3.69016 2.28057 0
M  V30 2977 H 290.514 -5.23532 1.74981 0
M  V30 2978 H 292.99 -4.15822 0.152089 0
M  V30 2979 H 291.866 -5.48358 -0.243855 0
M  V30 2980 H 292.127 -4.19176 -1.40513 0
M  V30 2981 N 291.186 -0.45159 -1.50991 0
M  V30 2982 C 292.149 0.341117 -2.26647 0
M  V30 2983 C 293.149 0.937422 -1.30649 0
M  V30 2984 O 294.339 0.809644 -1.54241 0
M  V30 2985 C 291.471 1.48398 -3.06905 0
M  V30 2986 H 292.664 -0.322117 -2.98165 0
M  V30 2987 H 290.217 -0.205122 -1.54948 0
M  V30 2988 H 290.952 2.18284 -2.39838 0
M  V30 2989 H 290.737 1.06241 -3.77432 0
M  V30 2990 H 292.227 2.04367 -3.64176 0
M  V30 2991 N 292.664 1.56529 -0.183458 0
M  V30 2992 C 293.574 2.22144 0.754272 0
M  V30 2993 C 294.59 1.21684 1.24374 0
M  V30 2994 O 295.766 1.54385 1.29333 0
M  V30 2995 C 292.831 2.85884 1.96141 0
M  V30 2996 C 291.892 4.01579 1.51765 0
M  V30 2997 C 291.125 4.6227 2.66725 0
M  V30 2998 O 291.348 4.21865 3.83909 0
M  V30 2999 O 290.282 5.51936 2.40104 0
M  V30 3000 H 294.108 3.02861 0.225527 0
M  V30 3001 H 291.693 1.49331 0.0453032 0
M  V30 3002 H 293.575 3.26253 2.66715 0
M  V30 3003 H 292.25 2.08154 2.47899 0
M  V30 3004 H 291.157 3.65856 0.781049 0
M  V30 3005 H 292.49 4.80938 1.04686 0
M  V30 3006 N 294.142 -0.090211 1.57342 0
M  V30 3007 C 295.367 -0.810082 1.90925 0
M  V30 3008 C 295.792 -1.71248 0.778187 0
M  V30 3009 O 295.15 -1.79278 -0.269991 0
M  V30 3010 C 295.198 -1.59529 3.23393 0
M  V30 3011 O 294.302 -2.70461 3.11327 0
M  V30 3012 H 293.643 -0.222231 0.625707 0
M  V30 3013 H 296.173 -0.0639716 2.045 0
M  V30 3014 H 296.183 -1.97847 3.5682 0
M  V30 3015 H 294.858 -0.933055 4.05299 0
M  V30 3016 H 293.435 -2.35135 2.89423 0
M  V30 3017 N 295.62 -1.53406 -0.361157 0
M  V30 3018 C 296.583 -1.79479 -1.42548 0
M  V30 3019 C 297.583 -0.665327 -1.4639 0
M  V30 3020 O 298.773 -0.933549 -1.47073 0
M  V30 3021 C 295.905 -1.92087 -2.8163 0
M  V30 3022 H 297.098 -2.74538 -1.20701 0
M  V30 3023 H 294.651 -1.4455 -0.594546 0
M  V30 3024 H 295.386 -0.991099 -3.08784 0
M  V30 3025 H 295.171 -2.74241 -2.80239 0
M  V30 3026 H 296.661 -2.13836 -3.58697 0
M  V30 3027 N 297.098 0.621204 -1.44841 0
M  V30 3028 C 298.008 1.7612 -1.5498 0
M  V30 3029 C 299.024 1.68477 -0.434927 0
M  V30 3030 O 300.2 1.89076 -0.693693 0
M  V30 3031 C 297.265 3.1254 -1.50065 0
M  V30 3032 C 296.326 3.31741 -2.72482 0
M  V30 3033 C 295.559 4.61653 -2.67792 0
M  V30 3034 O 295.782 5.431 -1.74352 0
M  V30 3035 O 294.716 4.83271 -3.58794 0
M  V30 3036 H 298.542 1.70518 -2.51311 0
M  V30 3037 H 296.127 0.783643 -1.27198 0
M  V30 3038 H 298.009 3.93844 -1.49882 0
M  V30 3039 H 296.684 3.18663 -0.568806 0
M  V30 3040 H 295.591 2.50077 -2.7823 0
M  V30 3041 H 296.924 3.30486 -3.64746 0
M  V30 3042 N 298.576 1.31904 0.862503 0
M  V30 3043 C 299.822 1.22197 1.61851 0
M  V30 3044 C 300.155 -0.217641 1.92977 0
M  V30 3045 O 299.43 -1.15264 1.56666 0
M  V30 3046 C 299.713 2.07378 2.94391 0
M  V30 3047 C 299.566 3.59678 2.70096 0
M  V30 3048 C 300.885 1.92891 3.95577 0
M  V30 3049 H 298.004 0.445255 0.587296 0
M  V30 3050 H 300.646 1.6177 0.99651 0
M  V30 3051 H 298.796 1.73758 3.47477 0
M  V30 3052 H 300.468 4.03472 2.23625 0
M  V30 3053 H 298.711 3.82735 2.04197 0
M  V30 3054 H 299.382 4.14595 3.64438 0
M  V30 3055 H 301.858 2.22327 3.51724 0
M  V30 3056 H 300.734 2.54781 4.86187 0
M  V30 3057 H 300.995 0.894315 4.3296 0
M  V30 3058 N 300.054 -1.07777 1.14986 0
M  V30 3059 C 300.984 -2.16865 0.865557 0
M  V30 3060 C 301.965 -1.69123 -0.182083 0
M  V30 3061 O 303.15 -1.94164 -0.0373815 0
M  V30 3062 C 300.28 -3.45539 0.349313 0
M  V30 3063 C 299.234 -4.06708 1.33313 0
M  V30 3064 C 298.56 -5.30411 0.675918 0
M  V30 3065 C 299.86 -4.47241 2.69764 0
M  V30 3066 H 301.554 -2.40905 1.77778 0
M  V30 3067 H 299.1 -1.15781 0.856203 0
M  V30 3068 H 301.053 -4.21174 0.137983 0
M  V30 3069 H 299.777 -3.21072 -0.598362 0
M  V30 3070 H 298.436 -3.33112 1.53075 0
M  V30 3071 H 298.084 -5.02232 -0.277767 0
M  V30 3072 H 297.784 -5.72293 1.33244 0
M  V30 3073 H 299.308 -6.08755 0.474262 0
M  V30 3074 H 300.722 -5.14025 2.53873 0
M  V30 3075 H 299.119 -5.00062 3.3175 0
M  V30 3076 H 300.189 -3.58818 3.26156 0
M  V30 3077 N 301.532 -0.945985 -1.26051 0
M  V30 3078 C 302.462 -0.477172 -2.28572 0
M  V30 3079 C 303.443 0.472032 -1.63419 0
M  V30 3080 O 304.628 0.372853 -1.90587 0
M  V30 3081 C 301.758 0.253975 -3.4637 0
M  V30 3082 C 300.712 -0.609135 -4.23643 0
M  V30 3083 C 300.038 0.252252 -5.34105 0
M  V30 3084 C 301.338 -1.8829 -4.8718 0
M  V30 3085 H 303.032 -1.33402 -2.68038 0
M  V30 3086 H 300.578 -0.642904 -1.28852 0
M  V30 3087 H 302.531 0.593016 -4.17207 0
M  V30 3088 H 301.255 1.145 -3.05871 0
M  V30 3089 H 299.914 -0.931138 -3.54578 0
M  V30 3090 H 299.562 1.14278 -4.89846 0
M  V30 3091 H 299.262 -0.32188 -5.86718 0
M  V30 3092 H 300.786 0.586454 -6.07777 0
M  V30 3093 H 302.2 -1.61081 -5.50205 0
M  V30 3094 H 300.597 -2.40199 -5.49931 0
M  V30 3095 H 301.667 -2.59134 -4.09851 0
M  V30 3096 N 303.011 1.40521 -0.713556 0
M  V30 3097 C 304.422 1.83853 -0.324807 0
M  V30 3098 C 304.773 1.59667 1.14021 0
M  V30 3099 O 303.898 1.07649 1.87725 0
M  V30 3100 C 304.493 3.33751 -0.582746 0
M  V30 3101 C 303.052 3.75584 -0.247727 0
M  V30 3102 C 302.199 2.63753 -0.856121 0
M  V30 3103 H 305.15 1.29817 -0.91286 0
M  V30 3104 H 305.171 3.80194 0.152682 0
M  V30 3105 H 304.683 3.51322 -1.64908 0
M  V30 3106 H 302.784 3.63608 0.813624 0
M  V30 3107 H 302.897 4.7373 -0.715307 0
M  V30 3108 H 301.261 2.53108 -0.28432 0
M  V30 3109 H 302.044 2.84137 -1.92668 0
M  V30 3110 N 304.489 0.459591 1.5075 0
M  V30 3111 C 305.905 0.113092 1.59199 0
M  V30 3112 C 306.105 -1.37951 1.46874 0
M  V30 3113 O 305.161 -2.15168 1.32132 0
M  V30 3114 C 306.474 0.653043 2.93523 0
M  V30 3115 C 308.022 0.615449 3.0689 0
M  V30 3116 C 308.497 1.13275 4.43771 0
M  V30 3117 N 309.988 1.09167 4.50152 0
M  V30 3118 C 310.723 1.46256 5.54434 0
M  V30 3119 N 310.219 1.90739 6.66026 0
M  V30 3120 N 312.012 1.37932 5.44914 0
M  V30 3121 H 304.163 1.43049 1.57005 0
M  V30 3122 H 306.426 0.590861 0.741341 0
M  V30 3123 H 306.132 1.69822 3.07983 0
M  V30 3124 H 306.006 0.0902132 3.77092 0
M  V30 3125 H 308.393 -0.420793 2.92084 0
M  V30 3126 H 308.474 1.21495 2.25106 0
M  V30 3127 H 308.118 2.16757 4.59324 0
M  V30 3128 H 308.048 0.509576 5.24129 0
M  V30 3129 H 310.539 0.76528 3.7007 0
M  V30 3130 H 310.852 2.17218 7.41644 0
M  V30 3131 H 309.197 1.94683 6.67176 0
M  V30 3132 H 312.388 1.0303 4.56621 0
M  V30 3133 H 312.561 1.67164 6.26067 0
M  V30 3134 N 305.967 -1.56429 0.191757 0
M  V30 3135 C 306.897 -2.21937 -0.725696 0
M  V30 3136 C 307.878 -1.1814 -1.2238 0
M  V30 3137 O 309.063 -1.46636 -1.27325 0
M  V30 3138 C 306.193 -2.87611 -1.94672 0
M  V30 3139 C 305.147 -3.97623 -1.58366 0
M  V30 3140 C 304.473 -4.50446 -2.88102 0
M  V30 3141 C 305.773 -5.16197 -0.796133 0
M  V30 3142 H 307.467 -2.98861 -0.179606 0
M  V30 3143 H 305.013 -1.43749 -0.0849464 0
M  V30 3144 H 306.966 -3.3212 -2.59373 0
M  V30 3145 H 305.69 -2.08087 -2.51728 0
M  V30 3146 H 304.349 -3.53801 -0.960247 0
M  V30 3147 H 303.997 -3.67688 -3.43241 0
M  V30 3148 H 303.697 -5.24675 -2.64556 0
M  V30 3149 H 305.221 -4.97654 -3.53798 0
M  V30 3150 H 306.635 -5.57271 -1.34618 0
M  V30 3151 H 305.032 -5.96471 -0.658928 0
M  V30 3152 H 306.102 -4.84473 0.203478 0
M  V30 3153 N 307.445 0.0818655 -1.57387 0
M  V30 3154 C 308.691 0.784074 -1.8703 0
M  V30 3155 C 309.024 1.77729 -0.782689 0
M  V30 3156 O 308.299 1.93384 0.208051 0
M  V30 3157 C 308.582 1.50105 -3.27323 0
M  V30 3158 C 308.435 0.524925 -4.46727 0
M  V30 3159 C 309.754 2.44843 -3.65705 0
M  V30 3160 H 306.873 0.283582 -0.680257 0
M  V30 3161 H 309.515 0.0474352 -1.89941 0
M  V30 3162 H 307.665 2.12897 -3.24972 0
M  V30 3163 H 309.337 -0.0970111 -4.61198 0
M  V30 3164 H 307.58 -0.160606 -4.33503 0
M  V30 3165 H 308.251 1.064 -5.41648 0
M  V30 3166 H 310.727 1.92135 -3.69085 0
M  V30 3167 H 309.603 2.92018 -4.64776 0
M  V30 3168 H 309.864 3.29197 -2.95096 0
M  V30 3169 N 308.923 1.53595 0.353017 0
M  V30 3170 C 310.148 1.7462 1.11904 0
M  V30 3171 C 310.573 0.479721 1.8188 0
M  V30 3172 O 309.931 -0.567066 1.72204 0
M  V30 3173 C 309.979 2.92029 2.11545 0
M  V30 3174 O 309.083 2.61516 3.18878 0
M  V30 3175 H 308.424 0.579531 0.324099 0
M  V30 3176 H 310.954 2.00525 0.406301 0
M  V30 3177 H 310.964 3.18551 2.5493 0
M  V30 3178 H 309.639 3.83888 1.60008 0
M  V30 3179 H 308.216 2.45852 2.80377 0
M  V30 3180 N 310.401 -0.613514 1.45168 0
M  V30 3181 C 311.641 -1.38405 1.5041 0
M  V30 3182 C 312.005 -1.91489 0.139922 0
M  V30 3183 O 313.206 -2.68716 0.067033 0
M  V30 3184 C 311.477 -2.50552 2.5487 0
M  V30 3185 S 313.036 -3.38439 2.79292 0
M  V30 3186 H 309.854 -0.471945 0.531779 0
M  V30 3187 H 312.456 -0.708518 1.82209 0
M  V30 3188 H 311.16 -2.09894 3.52665 0
M  V30 3189 H 310.691 -3.22913 2.24701 0
M  V30 3190 H 312.706 -4.48527 2.12222 0
M  V30 3191 N 311.879 -1.3236 -0.855495 0
M  V30 3192 C 313.29 -1.2056 -1.42556 0
M  V30 3193 C 313.641 0.182209 -1.95352 0
M  V30 3194 O 312.766 1.08088 -1.87472 0
M  V30 3195 C 313.361 -2.1826 -2.59129 0
M  V30 3196 C 311.92 -2.10351 -3.12137 0
M  V30 3197 C 311.067 -2.06674 -1.84882 0
M  V30 3198 H 314.018 -1.442 -0.662727 0
M  V30 3199 H 314.039 -1.78064 -3.36264 0
M  V30 3200 H 313.551 -3.19257 -2.20673 0
M  V30 3201 H 311.652 -1.12599 -3.55179 0
M  V30 3202 H 311.765 -3.00135 -3.73438 0
M  V30 3203 H 310.129 -1.51901 -2.04446 0
M  V30 3204 H 310.912 -3.09451 -1.48643 0
M  V30 3205 N 313.357 1.07166 -1.15556 0
M  V30 3206 C 314.605 1.79443 -0.929764 0
M  V30 3207 C 314.926 1.87246 0.544414 0
M  V30 3208 O 314.196 1.37473 1.39564 0
M  V30 3209 H 312.776 0.664625 -0.341003 0
M  V30 3210 H 315.438 1.29499 -1.45657 0
M  V30 3211 H 314.534 2.81832 -1.34079 0
M  V30 3212 N 314.835 0.952656 1.25548 0
M  V30 3213 C 316.246 0.647392 1.75116 0
M  V30 3214 C 316.597 -0.837274 1.77438 0
M  V30 3215 O 315.722 -1.65525 1.39393 0
M  V30 3216 C 316.317 1.16845 3.18014 0
M  V30 3217 C 314.876 0.913382 3.6515 0
M  V30 3218 C 314.023 1.31265 2.44264 0
M  V30 3219 H 316.974 1.12968 1.11462 0
M  V30 3220 H 316.995 0.527606 3.76824 0
M  V30 3221 H 316.507 2.24902 3.16292 0
M  V30 3222 H 314.608 -0.152316 3.72289 0
M  V30 3223 H 314.721 1.54845 4.53387 0
M  V30 3224 H 313.085 0.731028 2.43984 0
M  V30 3225 H 313.868 2.40239 2.45234 0
M  V30 3226 N 316.313 -1.40141 0.720998 0
M  V30 3227 C 317.243 -2.33339 0.0867621 0
M  V30 3228 C 318.224 -1.53178 -0.739622 0
M  V30 3229 O 319.409 -1.81625 -0.687449 0
M  V30 3230 C 316.539 -3.37194 -0.831728 0
M  V30 3231 C 315.493 -4.27857 -0.110558 0
M  V30 3232 C 314.819 -5.22294 -1.14513 0
M  V30 3233 C 316.119 -5.11872 1.0385 0
M  V30 3234 H 317.813 -2.86626 0.865219 0
M  V30 3235 H 315.359 -1.37814 0.417516 0
M  V30 3236 H 317.312 -4.01335 -1.28485 0
M  V30 3237 H 316.036 -2.82314 -1.64214 0
M  V30 3238 H 314.695 -3.65176 0.322797 0
M  V30 3239 H 314.343 -4.63717 -1.94874 0
M  V30 3240 H 314.043 -5.83797 -0.667446 0
M  V30 3241 H 315.567 -5.89312 -1.59824 0
M  V30 3242 H 316.981 -5.69436 0.664482 0
M  V30 3243 H 315.378 -5.82445 1.4449 0
M  V30 3244 H 316.448 -4.4753 1.86668 0
M  V30 3245 N 317.792 -0.46758 -1.50504 0
M  V30 3246 C 319.069 0.15003 -1.95024 0
M  V30 3247 C 319.449 1.57304 -1.40779 0
M  V30 3248 O 318.797 2.20281 -0.607319 0
M  V30 3249 C 319.007 0.0969324 -3.48865 0
M  V30 3250 C 320.355 0.287565 -4.23625 0
M  V30 3251 O 321.379 0.173678 -3.55776 0
M  V30 3252 O 320.238 0.517186 -5.44047 0
M  V30 3253 H 317.332 0.113582 -0.819163 0
M  V30 3254 H 319.878 -0.52773 -1.61286 0
M  V30 3255 H 318.65 -0.896732 -3.80886 0
M  V30 3256 H 318.273 0.816303 -3.8913 0
M  V30 3257 N 319.27 1.56325 -0.20005 0
M  V30 3258 C 320.202 2.16555 0.750771 0
M  V30 3259 C 321.215 1.12871 1.1732 0
M  V30 3260 O 322.404 1.39943 1.10807 0
M  V30 3261 C 319.504 2.71684 2.02586 0
M  V30 3262 C 318.677 4.00321 1.76244 0
M  V30 3263 C 317.736 4.40227 2.88248 0
M  V30 3264 O 316.762 5.07552 2.57642 0
M  V30 3265 N 317.964 4.04138 4.16717 0
M  V30 3266 H 320.729 2.98772 0.235685 0
M  V30 3267 H 318.29 1.6189 -0.0182594 0
M  V30 3268 H 320.282 2.95363 2.76664 0
M  V30 3269 H 318.852 1.93893 2.45202 0
M  V30 3270 H 318.072 3.84723 0.85919 0
M  V30 3271 H 319.36 4.84279 1.56048 0
M  V30 3272 H 318.758 3.49993 4.44434 0
M  V30 3273 H 317.315 4.32756 4.87407 0
M  V30 3274 N 320.748 -0.0735177 1.57428 0
M  V30 3275 C 322.025 -0.805903 1.78226 0
M  V30 3276 C 322.405 -1.95874 0.787189 0
M  V30 3277 O 321.753 -2.2779 -0.180029 0
M  V30 3278 C 321.963 -1.28045 3.24662 0
M  V30 3279 C 323.311 -1.71453 3.88444 0
M  V30 3280 O 324.335 -1.37616 3.28543 0
M  V30 3281 O 323.194 -2.34093 4.93825 0
M  V30 3282 H 320.288 -0.386041 0.73137 0
M  V30 3283 H 322.834 -0.0537269 1.69615 0
M  V30 3284 H 321.606 -0.455476 3.8864 0
M  V30 3285 H 321.229 -2.094 3.37991 0
M  V30 3286 N 322.226 -1.5378 -0.344866 0
M  V30 3287 C 323.158 -1.77988 -1.44406 0
M  V30 3288 C 324.171 -0.661138 -1.48771 0
M  V30 3289 O 325.36 -0.937842 -1.51877 0
M  V30 3290 C 322.46 -1.86345 -2.8307 0
M  V30 3291 C 321.633 -3.16256 -3.0216 0
M  V30 3292 C 320.692 -3.15588 -4.21059 0
M  V30 3293 O 319.718 -3.89314 -4.15239 0
M  V30 3294 N 320.92 -2.37864 -5.29529 0
M  V30 3295 H 323.685 -2.72839 -1.24012 0
M  V30 3296 H 321.246 -1.52814 -0.534737 0
M  V30 3297 H 323.238 -1.83351 -3.60783 0
M  V30 3298 H 321.808 -0.986858 -2.96614 0
M  V30 3299 H 321.028 -3.32385 -2.11929 0
M  V30 3300 H 322.316 -4.0207 -3.11797 0
M  V30 3301 H 321.714 -1.77514 -5.37127 0
M  V30 3302 H 320.271 -2.40668 -6.05741 0
M  V30 3303 N 323.704 0.605807 -1.45491 0
M  V30 3304 C 324.636 1.73031 -1.5031 0
M  V30 3305 C 325.649 1.57968 -0.393687 0
M  V30 3306 O 326.838 1.65817 -0.660839 0
M  V30 3307 C 323.938 3.11049 -1.34543 0
M  V30 3308 C 323.111 3.52334 -2.59189 0
M  V30 3309 C 322.17 4.69323 -2.37954 0
M  V30 3310 O 321.196 4.7635 -3.11575 0
M  V30 3311 N 322.398 5.62705 -1.4263 0
M  V30 3312 H 325.163 1.6936 -2.4726 0
M  V30 3313 H 322.724 0.79114 -1.41254 0
M  V30 3314 H 324.716 3.87071 -1.18144 0
M  V30 3315 H 323.286 3.09217 -0.458623 0
M  V30 3316 H 322.506 2.66256 -2.90691 0
M  V30 3317 H 323.794 3.76677 -3.42041 0
M  V30 3318 H 323.192 5.59744 -0.818758 0
M  V30 3319 H 321.749 6.38252 -1.32202 0
M  V30 3320 N 325.182 1.32811 0.848464 0
M  V30 3321 C 326.092 1.24278 1.98978 0
M  V30 3322 C 327.108 0.155176 1.73307 0
M  V30 3323 O 328.284 0.376999 1.9784 0
M  V30 3324 C 325.349 0.972444 3.32783 0
M  V30 3325 C 324.41 2.14911 3.71634 0
M  V30 3326 C 323.643 1.89157 4.99054 0
M  V30 3327 O 323.866 0.837165 5.64223 0
M  V30 3328 O 322.8 2.75433 5.35183 0
M  V30 3329 H 326.626 2.20238 2.09115 0
M  V30 3330 H 324.211 1.12762 0.980052 0
M  V30 3331 H 326.093 0.838432 4.12975 0
M  V30 3332 H 324.768 0.043051 3.23671 0
M  V30 3333 H 323.675 2.33862 2.91992 0
M  V30 3334 H 325.008 3.06151 3.85399 0
M  V30 3335 N 326.66 -1.06551 1.16123 0
M  V30 3336 C 327.623 -2.12132 0.867906 0
M  V30 3337 C 328.623 -1.60224 -0.135944 0
M  V30 3338 O 329.813 -1.73943 0.0946422 0
M  V30 3339 C 326.945 -3.396 0.297419 0
M  V30 3340 H 328.138 -2.39586 1.80385 0
M  V30 3341 H 325.691 -1.22574 0.969812 0
M  V30 3342 H 326.426 -3.17794 -0.64633 0
M  V30 3343 H 326.211 -3.78581 1.02073 0
M  V30 3344 H 327.701 -4.17455 0.110052 0
M  V30 3345 N 328.138 -0.959301 -1.25041 0
M  V30 3346 C 329.101 -0.487677 -2.23952 0
M  V30 3347 C 330.101 0.41119 -1.55454 0
M  V30 3348 O 331.291 0.207825 -1.72956 0
M  V30 3349 C 328.423 0.294807 -3.39623 0
M  V30 3350 H 329.616 -1.36198 -2.67189 0
M  V30 3351 H 327.169 -0.743042 -1.37508 0
M  V30 3352 H 327.904 1.18658 -3.01813 0
M  V30 3353 H 327.689 -0.35012 -3.90534 0
M  V30 3354 H 329.179 0.614089 -4.1306 0
M  V30 3355 N 329.616 1.39756 -0.72842 0
M  V30 3356 C 331.032 1.5442 -0.403308 0
M  V30 3357 C 331.232 1.69694 1.08656 0
M  V30 3358 O 330.288 1.69373 1.87267 0
M  V30 3359 C 331.601 2.76555 -1.18058 0
M  V30 3360 C 333.149 2.90384 -1.16815 0
M  V30 3361 C 333.624 4.15449 -1.92785 0
M  V30 3362 N 335.115 4.22475 -1.89918 0
M  V30 3363 C 335.85 5.1818 -2.45514 0
M  V30 3364 N 335.346 6.19714 -3.09719 0
M  V30 3365 N 337.139 5.1035 -2.35584 0
M  V30 3366 H 329.29 1.28089 -1.69431 0
M  V30 3367 H 331.553 0.620327 -0.716867 0
M  V30 3368 H 331.259 2.7159 -2.23455 0
M  V30 3369 H 331.133 3.69033 -0.780662 0
M  V30 3370 H 333.52 2.94846 -0.12234 0
M  V30 3371 H 333.601 1.98988 -1.6074 0
M  V30 3372 H 333.245 4.11749 -2.97364 0
M  V30 3373 H 333.175 5.05877 -1.46272 0
M  V30 3374 H 335.666 3.49743 -1.43138 0
M  V30 3375 H 335.979 6.8919 -3.49625 0
M  V30 3376 H 334.324 6.20121 -3.13807 0
M  V30 3377 H 337.515 4.2996 -1.85072 0
M  V30 3378 H 337.688 5.84761 -2.79211 0
M  V30 3379 N 331.094 0.475555 1.50254 0
M  V30 3380 C 332.057 -0.305016 2.27161 0
M  V30 3381 C 333.057 -0.916519 1.32123 0
M  V30 3382 O 334.247 -0.785003 1.5551 0
M  V30 3383 C 331.379 -1.43496 3.09227 0
M  V30 3384 H 332.572 0.369511 2.97615 0
M  V30 3385 H 330.125 0.229747 1.54602 0
M  V30 3386 H 330.86 -2.14441 2.43281 0
M  V30 3387 H 330.645 -1.00223 3.79075 0
M  V30 3388 H 332.135 -1.98548 3.67381 0
M  V30 3389 N 332.573 -1.56217 0.208337 0
M  V30 3390 C 333.536 -2.18455 -0.693557 0
M  V30 3391 C 334.536 -1.14268 -1.13135 0
M  V30 3392 O 335.726 -1.39577 -1.0423 0
M  V30 3393 C 332.858 -2.79727 -1.94848 0
M  V30 3394 H 334.051 -2.99519 -0.15114 0
M  V30 3395 H 331.604 -1.56245 -0.041287 0
M  V30 3396 H 332.339 -2.02497 -2.53309 0
M  V30 3397 H 332.124 -3.56009 -1.64316 0
M  V30 3398 H 333.614 -3.27475 -2.59133 0
M  V30 3399 N 334.051 0.0651679 -1.57465 0
M  V30 3400 C 334.981 1.07693 -2.07182 0
M  V30 3401 C 335.962 1.39962 -0.966673 0
M  V30 3402 O 337.147 1.49475 -1.2398 0
M  V30 3403 C 334.277 2.3885 -2.52127 0
M  V30 3404 C 333.231 2.20917 -3.66579 0
M  V30 3405 C 332.557 3.57515 -3.97601 0
M  V30 3406 C 333.857 1.62493 -4.9638 0
M  V30 3407 H 335.551 0.663199 -2.91962 0
M  V30 3408 H 333.097 0.317569 -1.40455 0
M  V30 3409 H 335.05 3.09928 -2.85522 0
M  V30 3410 H 333.774 2.82215 -1.64384 0
M  V30 3411 H 332.433 1.52279 -3.33477 0
M  V30 3412 H 332.081 3.98463 -3.06979 0
M  V30 3413 H 331.781 3.46353 -4.74672 0
M  V30 3414 H 333.305 4.30013 -4.33499 0
M  V30 3415 H 334.719 2.23445 -5.27963 0
M  V30 3416 H 333.116 1.62009 -5.77818 0
M  V30 3417 H 334.186 0.587041 -4.81333 0
M  V30 3418 N 335.529 1.53961 0.336706 0
M  V30 3419 C 336.461 1.78751 1.4346 0
M  V30 3420 C 337.474 0.669019 1.48418 0
M  V30 3421 O 338.663 0.945884 1.51378 0
M  V30 3422 C 335.763 1.87844 2.82078 0
M  V30 3423 C 334.936 3.17854 3.00479 0
M  V30 3424 C 333.995 3.17816 4.19379 0
M  V30 3425 O 333.021 3.91511 4.13168 0
M  V30 3426 N 334.223 2.40669 5.2826 0
M  V30 3427 H 336.988 2.73493 1.22563 0
M  V30 3428 H 334.549 1.53096 0.526625 0
M  V30 3429 H 336.541 1.85261 3.59806 0
M  V30 3430 H 335.111 1.00257 2.96086 0
M  V30 3431 H 334.331 3.33504 2.10163 0
M  V30 3432 H 335.619 4.03718 3.0966 0
M  V30 3433 H 335.017 1.8036 5.36178 0
M  V30 3434 H 333.574 2.43877 6.04456 0
M  V30 3435 N 337.007 -0.598083 1.45811 0
M  V30 3436 C 338.255 -1.35413 1.50026 0
M  V30 3437 C 338.576 -1.94444 0.147177 0
M  V30 3438 O 337.846 -1.77701 -0.824571 0
M  V30 3439 H 336.426 -0.502727 0.552517 0
M  V30 3440 H 339.088 -0.701606 1.81834 0
M  V30 3441 H 338.184 -2.16871 2.2444 0
M  V30 3442 N 338.485 -1.33259 -0.841409 0
M  V30 3443 C 339.733 -1.24326 -1.59334 0
M  V30 3444 C 340.054 0.191564 -1.94057 0
M  V30 3445 O 339.324 1.11967 -1.60749 0
M  V30 3446 H 337.904 -0.457174 -0.590763 0
M  V30 3447 H 340.566 -1.66947 -1.00571 0
M  V30 3448 H 339.662 -1.8352 -2.52442 0
M  V30 3449 N 339.963 1.05934 -1.16686 0
M  V30 3450 C 341.211 1.78447 -0.948744 0
M  V30 3451 C 341.532 1.87813 0.524523 0
M  V30 3452 O 340.802 1.38945 1.38098 0
M  V30 3453 H 339.382 0.660971 -0.348033 0
M  V30 3454 H 342.044 1.27947 -1.47022 0
M  V30 3455 H 341.14 2.80394 -1.37061 0
M  V30 3456 N 341.441 0.965919 1.2453 0
M  V30 3457 C 342.852 0.665929 1.7442 0
M  V30 3458 C 343.203 -0.818407 1.78316 0
M  V30 3459 O 342.328 -1.64037 1.41141 0
M  V30 3460 C 342.923 1.20211 3.16757 0
M  V30 3461 C 341.482 0.952059 3.6416 0
M  V30 3462 C 340.629 1.33848 2.42858 0
M  V30 3463 H 343.58 1.14144 1.10258 0
M  V30 3464 H 343.601 0.567544 3.76244 0
M  V30 3465 H 343.113 2.28244 3.13889 0
M  V30 3466 H 341.214 -0.112821 3.72429 0
M  V30 3467 H 341.327 1.59645 4.51719 0
M  V30 3468 H 339.691 0.756864 2.43195 0
M  V30 3469 H 340.474 2.42827 2.42673 0
M  V30 3470 N 342.919 -1.39368 0.735821 0
M  V30 3471 C 344.33 -1.83313 0.354015 0
M  V30 3472 C 344.681 -1.61461 -1.11466 0
M  V30 3473 O 343.806 -1.10621 -1.85989 0
M  V30 3474 C 344.401 -3.32781 0.635769 0
M  V30 3475 C 342.96 -3.75142 0.307448 0
M  V30 3476 C 342.107 -2.62358 0.897974 0
M  V30 3477 H 345.058 -1.28349 0.933398 0
M  V30 3478 H 345.079 -3.80388 -0.0921773 0
M  V30 3479 H 344.591 -3.48654 1.70476 0
M  V30 3480 H 342.692 -3.64857 -0.755674 0
M  V30 3481 H 342.805 -4.72532 0.790583 0
M  V30 3482 H 341.169 -2.52624 0.324551 0
M  V30 3483 H 341.952 -2.81036 1.97164 0
M  V30 3484 N 344.397 -0.483516 -1.5 0
M  V30 3485 C 345.627 0.0643896 -2.065 0
M  V30 3486 C 346.035 1.32949 -1.34615 0
M  V30 3487 O 345.378 1.79003 -0.412756 0
M  V30 3488 C 345.44 0.405983 -3.572 0
M  V30 3489 C 345.104 -0.758875 -4.50655 0
M  V30 3490 C 346.101 -1.64445 -4.93208 0
M  V30 3491 C 343.786 -0.952725 -4.93182 0
M  V30 3492 C 345.78 -2.70818 -5.77006 0
M  V30 3493 C 343.467 -2.01966 -5.76761 0
M  V30 3494 C 344.465 -2.89574 -6.18576 0
M  V30 3495 O 344.153 -3.94429 -7.00486 0
M  V30 3496 H 343.885 -0.00934786 -0.675935 0
M  V30 3497 H 346.439 -0.674959 -1.93993 0
M  V30 3498 H 344.669 1.19869 -3.67652 0
M  V30 3499 H 346.358 0.890433 -3.96013 0
M  V30 3500 H 347.124 -1.50643 -4.61012 0
M  V30 3501 H 343.003 -0.280247 -4.60147 0
M  V30 3502 H 346.547 -3.3923 -6.09565 0
M  V30 3503 H 342.444 -2.1577 -6.0837 0
M  V30 3504 H 343.212 -3.91568 -7.1876 0
M  V30 3505 N 345.875 1.56104 -0.216619 0
M  V30 3506 C 347.123 1.97781 0.415593 0
M  V30 3507 C 347.444 1.10536 1.60645 0
M  V30 3508 O 346.714 0.181303 1.95059 0
M  V30 3509 H 345.294 0.730415 0.156534 0
M  V30 3510 H 347.956 1.92445 -0.308366 0
M  V30 3511 H 347.052 3.03072 0.74525 0
M  V30 3512 N 347.353 -0.0568162 1.57498 0
M  V30 3513 C 348.764 -0.606858 1.76562 0
M  V30 3514 C 349.115 -1.77114 0.844094 0
M  V30 3515 O 348.24 -2.16376 0.0318911 0
M  V30 3516 C 348.835 -1.10766 3.20182 0
M  V30 3517 C 347.394 -1.60344 3.40539 0
M  V30 3518 C 346.541 -0.529311 2.72201 0
M  V30 3519 H 349.492 0.169393 1.57793 0
M  V30 3520 H 349.513 -1.97602 3.25167 0
M  V30 3521 H 349.025 -0.26006 3.87228 0
M  V30 3522 H 347.126 -2.47379 2.78629 0
M  V30 3523 H 347.239 -1.67006 4.4905 0
M  V30 3524 H 345.603 -0.977893 2.35179 0
M  V30 3525 H 346.386 0.308352 3.41912 0
M  V30 3526 N 348.832 -1.54138 -0.328536 0
M  V30 3527 C 350.243 -1.63395 -0.903272 0
M  V30 3528 C 350.594 -0.524828 -1.8905 0
M  V30 3529 O 349.719 0.343068 -2.13663 0
M  V30 3530 C 350.314 -2.9618 -1.64507 0
M  V30 3531 C 348.873 -3.0765 -2.1686 0
M  V30 3532 C 348.02 -2.58933 -0.992416 0
M  V30 3533 H 350.971 -1.58344 -0.106253 0
M  V30 3534 H 350.992 -2.86061 -2.50897 0
M  V30 3535 H 350.504 -3.76884 -0.926302 0
M  V30 3536 H 348.605 -2.31611 -2.91868 0
M  V30 3537 H 348.718 -4.1337 -2.42202 0
M  V30 3538 H 347.082 -2.14706 -1.37016 0
M  V30 3539 H 347.865 -3.42089 -0.288041 0
M  V30 3540 N 350.31 0.590341 -1.46126 0
M  V30 3541 C 351.535 1.37991 -1.54833 0
M  V30 3542 C 351.96 1.87163 -0.187506 0
M  V30 3543 O 351.318 1.61133 0.831008 0
M  V30 3544 C 351.366 2.54867 -2.55098 0
M  V30 3545 O 350.47 3.56061 -2.08073 0
M  V30 3546 H 349.811 0.411265 -0.521303 0
M  V30 3547 H 352.341 0.716819 -1.91632 0
M  V30 3548 H 352.351 3.01886 -2.74461 0
M  V30 3549 H 351.026 2.18429 -3.53923 0
M  V30 3550 H 349.603 3.15574 -1.98664 0
M  V30 3551 N 351.788 1.33704 0.83433 0
M  V30 3552 C 353.016 1.28467 1.62185 0
M  V30 3553 C 353.431 -0.143526 1.88254 0
M  V30 3554 O 352.788 -1.08709 1.4659 0
M  V30 3555 C 352.839 2.06174 2.96942 0
M  V30 3556 O 352.56 3.43422 2.72016 0
M  V30 3557 C 354.061 2.08201 3.91366 0
M  V30 3558 H 351.281 0.4424 0.504503 0
M  V30 3559 H 353.825 1.76145 1.03891 0
M  V30 3560 H 351.98 1.62167 3.51825 0
M  V30 3561 H 352.394 3.83453 3.57861 0
M  V30 3562 H 353.868 2.67017 4.83121 0
M  V30 3563 H 354.345 1.07343 4.2588 0
M  V30 3564 H 354.951 2.52246 3.42421 0
M  V30 3565 N 353.266 -1.05314 1.17247 0
M  V30 3566 C 354.512 -1.78699 0.971513 0
M  V30 3567 C 354.867 -1.85932 -0.494692 0
M  V30 3568 O 354.16 -1.34716 -1.36243 0
M  V30 3569 C 354.354 -3.2229 1.54479 0
M  V30 3570 C 354.183 -3.29052 3.06521 0
M  V30 3571 C 352.953 -3.3841 3.75242 0
M  V30 3572 C 355.151 -3.18095 4.04129 0
M  V30 3573 N 353.133 -3.34289 5.14902 0
M  V30 3574 C 354.504 -3.21331 5.30232 0
M  V30 3575 C 356.559 -3.02049 3.95817 0
M  V30 3576 C 355.262 -3.10169 6.4899 0
M  V30 3577 C 357.288 -2.92228 5.14156 0
M  V30 3578 C 356.65 -2.96096 6.39145 0
M  V30 3579 H 352.749 -0.66628 0.409383 0
M  V30 3580 H 355.333 -1.25553 1.4881 0
M  V30 3581 H 353.504 -3.7381 1.05455 0
M  V30 3582 H 355.236 -3.83905 1.28059 0
M  V30 3583 H 351.991 -3.43621 3.25917 0
M  V30 3584 H 352.415 -3.35702 5.87906 0
M  V30 3585 H 357.057 -2.97897 3.00029 0
M  V30 3586 H 354.775 -3.13076 7.44989 0
M  V30 3587 H 358.361 -2.80885 5.09505 0
M  V30 3588 H 357.241 -2.88568 7.29176 0
M  V30 3589 N 354.744 -0.972509 -1.24016 0
M  V30 3590 C 355.969 -0.654417 -1.96805 0
M  V30 3591 C 356.394 0.770398 -1.716 0
M  V30 3592 O 355.752 1.52361 -0.982647 0
M  V30 3593 C 355.8 -0.941031 -3.48105 0
M  V30 3594 O 354.904 -0.0289472 -4.1239 0
M  V30 3595 H 354.245 -0.24692 -0.616382 0
M  V30 3596 H 356.775 -1.30396 -1.57664 0
M  V30 3597 H 356.785 -0.87452 -3.98517 0
M  V30 3598 H 355.46 -1.97939 -3.65777 0
M  V30 3599 H 354.037 -0.149192 -3.72601 0
M  V30 3600 N 356.222 1.38976 -0.743202 0
M  V30 3601 C 357.468 2.0064 -0.295189 0
M  V30 3602 C 357.801 1.5885 1.11716 0
M  V30 3603 O 357.076 0.821181 1.76315 0
M  V30 3604 C 357.359 3.578 -0.406318 0
M  V30 3605 C 357.212 4.09586 -1.85903 0
M  V30 3606 C 358.531 4.39616 0.206439 0
M  V30 3607 H 355.65 0.728935 -0.108733 0
M  V30 3608 H 358.292 1.65067 -0.940897 0
M  V30 3609 H 356.442 3.88235 0.143419 0
M  V30 3610 H 358.114 3.89837 -2.46627 0
M  V30 3611 H 356.357 3.6284 -2.3776 0
M  V30 3612 H 357.028 5.18708 -1.888 0
M  V30 3613 H 359.504 4.15273 -0.262283 0
M  V30 3614 H 358.38 5.48812 0.0983819 0
M  V30 3615 H 358.641 4.22754 1.2935 0
M  V30 3616 N 357.7 0.491464 1.49741 0
M  V30 3617 C 358.925 -0.0557177 2.07325 0
M  V30 3618 C 359.35 -1.30925 1.35056 0
M  V30 3619 O 358.708 -1.76733 0.404365 0
M  V30 3620 C 358.756 -0.302074 3.59333 0
M  V30 3621 O 357.86 -1.37868 3.88672 0
M  V30 3622 H 357.201 0.0219956 0.663636 0
M  V30 3623 H 359.731 0.688352 1.92673 0
M  V30 3624 H 359.741 -0.536464 4.04458 0
M  V30 3625 H 358.416 0.61383 4.11345 0
M  V30 3626 H 356.993 -1.12999 3.55367 0
M  V30 3627 N 359.178 -1.55987 0.224894 0
M  V30 3628 C 360.406 -2.02784 -0.410665 0
M  V30 3629 C 360.821 -1.10464 -1.53112 0
M  V30 3630 O 360.178 -0.114871 -1.82138 0
M  V30 3631 C 360.229 -3.49087 -0.939165 0
M  V30 3632 O 359.95 -4.37887 0.136614 0
M  V30 3633 C 361.451 -4.11543 -1.64763 0
M  V30 3634 H 358.671 -0.663484 -0.100148 0
M  V30 3635 H 361.215 -2.01614 0.342326 0
M  V30 3636 H 359.37 -3.50861 -1.64242 0
M  V30 3637 H 359.784 -5.23849 -0.261155 0
M  V30 3638 H 361.258 -5.15673 -1.96939 0
M  V30 3639 H 361.735 -3.56736 -2.56195 0
M  V30 3640 H 362.341 -4.13629 -0.989503 0
M  V30 3641 N 360.656 0.0484629 -1.57525 0
M  V30 3642 C 361.589 1.08755 -2.00618 0
M  V30 3643 C 362.567 1.36272 -0.887058 0
M  V30 3644 O 363.751 1.49255 -1.15131 0
M  V30 3645 C 360.878 2.42675 -2.36277 0
M  V30 3646 C 359.924 2.31142 -3.58435 0
M  V30 3647 S 360.757 1.68326 -5.08357 0
M  V30 3648 C 361.913 3.03776 -5.47239 0
M  V30 3649 H 362.146 0.720415 -2.88439 0
M  V30 3650 H 359.679 0.257801 -1.52233 0
M  V30 3651 H 361.637 3.19699 -2.57494 0
M  V30 3652 H 360.298 2.76541 -1.48942 0
M  V30 3653 H 359.491 3.29957 -3.80978 0
M  V30 3654 H 359.093 1.62258 -3.36969 0
M  V30 3655 H 361.385 4.00106 -5.46737 0
M  V30 3656 H 362.328 2.85988 -6.47778 0
M  V30 3657 H 362.736 3.05456 -4.74718 0
M  V30 3658 N 362.134 1.5431 0.320358 0
M  V30 3659 C 363.411 1.63322 1.07635 0
M  V30 3660 C 363.791 0.46912 2.05821 0
M  V30 3661 O 363.139 -0.536274 2.22118 0
M  V30 3662 C 363.349 3.00465 1.77544 0
M  V30 3663 C 364.697 3.56621 2.30449 0
M  V30 3664 O 365.721 3.02791 1.87606 0
M  V30 3665 O 364.58 4.5083 3.08892 0
M  V30 3666 H 361.674 0.661502 0.496331 0
M  V30 3667 H 364.22 1.66656 0.319992 0
M  V30 3668 H 362.992 3.76629 1.06143 0
M  V30 3669 H 362.615 3.00824 2.59982 0
M  V30 3670 N 363.613 -0.582584 1.46437 0
M  V30 3671 C 364.576 -1.67366 1.56592 0
M  V30 3672 C 365.576 -1.54575 0.443072 0
M  V30 3673 O 366.766 -1.59191 0.707381 0
M  V30 3674 C 363.898 -3.06791 1.48634 0
M  V30 3675 H 365.091 -1.5972 2.5383 0
M  V30 3676 H 362.644 -0.800432 1.34249 0
M  V30 3677 H 363.379 -3.19993 0.526763 0
M  V30 3678 H 363.164 -3.17484 2.30101 0
M  V30 3679 H 364.654 -3.86218 1.58826 0
M  V30 3680 N 365.091 -1.34144 -0.827227 0
M  V30 3681 C 366.021 -1.28005 -1.95287 0
M  V30 3682 C 367.002 -0.158321 -1.69362 0
M  V30 3683 O 368.187 -0.349987 -1.9102 0
M  V30 3684 C 365.317 -1.03036 -3.31664 0
M  V30 3685 C 364.271 -2.11628 -3.72019 0
M  V30 3686 C 363.597 -1.71854 -5.0633 0
M  V30 3687 C 364.897 -3.53417 -3.8457 0
M  V30 3688 H 366.591 -2.22187 -2.00682 0
M  V30 3689 H 364.137 -1.0696 -0.964135 0
M  V30 3690 H 366.09 -0.973863 -4.09993 0
M  V30 3691 H 364.814 -0.0529391 -3.26557 0
M  V30 3692 H 363.473 -2.16339 -2.95961 0
M  V30 3693 H 363.121 -0.727841 -4.97706 0
M  V30 3694 H 362.821 -2.44531 -5.34302 0
M  V30 3695 H 364.345 -1.67692 -5.87122 0
M  V30 3696 H 365.759 -3.51142 -4.5318 0
M  V30 3697 H 364.156 -4.24679 -4.2399 0
M  V30 3698 H 365.226 -3.91072 -2.86689 0
M  V30 3699 N 366.569 1.04691 -1.17803 0
M  V30 3700 C 367.985 1.29963 -0.926379 0
M  V30 3701 C 368.185 1.97251 0.411635 0
M  V30 3702 O 367.241 2.24922 1.14744 0
M  V30 3703 C 368.554 2.16447 -2.08737 0
M  V30 3704 C 370.102 2.29814 -2.12496 0
M  V30 3705 C 370.577 3.19661 -3.27995 0
M  V30 3706 N 372.068 3.27247 -3.27816 0
M  V30 3707 C 372.803 3.96906 -4.13827 0
M  V30 3708 N 372.299 4.6895 -5.09959 0
M  V30 3709 N 374.092 3.93122 -4.01761 0
M  V30 3710 H 366.243 0.594182 -2.0392 0
M  V30 3711 H 368.506 0.324649 -0.890678 0
M  V30 3712 H 368.212 1.74304 -3.05469 0
M  V30 3713 H 368.086 3.17103 -2.04268 0
M  V30 3714 H 370.473 2.71196 -1.16347 0
M  V30 3715 H 370.554 1.2877 -2.21025 0
M  V30 3716 H 370.198 2.78991 -4.24413 0
M  V30 3717 H 370.128 4.20722 -3.16703 0
M  V30 3718 H 372.619 2.75921 -2.58217 0
M  V30 3719 H 372.932 5.19679 -5.71974 0
M  V30 3720 H 371.277 4.67875 -5.13924 0
M  V30 3721 H 374.468 3.35967 -3.2595 0
M  V30 3722 H 374.641 4.47139 -4.6901 0
M  V30 3723 N 368.047 0.979072 1.23499 0
M  V30 3724 C 369.295 0.645941 1.91499 0
M  V30 3725 C 369.616 -0.822948 1.76784 0
M  V30 3726 O 368.886 -1.58854 1.14639 0
M  V30 3727 H 367.466 0.235919 0.708767 0
M  V30 3728 H 370.128 1.2426 1.50152 0
M  V30 3729 H 369.224 0.896411 2.9895 0
M  V30 3730 N 369.525 -1.3858 0.750561 0
M  V30 3731 C 370.455 -2.33102 0.136237 0
M  V30 3732 C 371.436 -1.54713 -0.706965 0
M  V30 3733 O 372.621 -1.83043 -0.648769 0
M  V30 3734 C 369.751 -3.38882 -0.760017 0
M  V30 3735 C 368.705 -4.27995 -0.0197785 0
M  V30 3736 C 368.031 -5.24605 -1.03408 0
M  V30 3737 C 369.331 -5.09554 1.14684 0
M  V30 3738 H 371.025 -2.84726 0.925822 0
M  V30 3739 H 368.571 -1.36898 0.446654 0
M  V30 3740 H 370.524 -4.0397 -1.19943 0
M  V30 3741 H 369.248 -2.85734 -1.58189 0
M  V30 3742 H 367.907 -3.64409 0.400184 0
M  V30 3743 H 367.555 -4.67746 -1.84994 0
M  V30 3744 H 367.255 -5.85081 -0.543464 0
M  V30 3745 H 368.779 -5.9257 -1.47288 0
M  V30 3746 H 370.193 -5.67899 0.785118 0
M  V30 3747 H 368.59 -5.7925 1.56812 0
M  V30 3748 H 369.66 -4.4347 1.96118 0
M  V30 3749 N 371.003 -0.499398 -1.49478 0
M  V30 3750 C 371.933 0.269244 -2.31943 0
M  V30 3751 C 372.914 0.964054 -1.40143 0
M  V30 3752 O 374.099 0.955767 -1.69052 0
M  V30 3753 C 371.229 1.33504 -3.20615 0
M  V30 3754 C 370.183 0.760202 -4.21195 0
M  V30 3755 C 369.509 1.9264 -4.98792 0
M  V30 3756 C 370.809 -0.247661 -5.21712 0
M  V30 3757 H 372.503 -0.419082 -2.96452 0
M  V30 3758 H 370.049 -0.202988 -1.42562 0
M  V30 3759 H 372.002 1.88048 -3.77115 0
M  V30 3760 H 370.726 2.05253 -2.54045 0
M  V30 3761 H 369.385 0.23653 -3.65836 0
M  V30 3762 H 369.033 2.63154 -4.28671 0
M  V30 3763 H 368.733 1.54785 -5.66847 0
M  V30 3764 H 370.257 2.4762 -5.58137 0
M  V30 3765 H 371.671 0.209579 -5.72917 0
M  V30 3766 H 370.068 -0.541962 -5.97648 0
M  V30 3767 H 371.138 -1.16409 -4.7072 0
M  V30 3768 N 372.481 1.55866 -0.233164 0
M  V30 3769 C 373.892 1.847 0.272554 0
M  V30 3770 C 374.243 1.15477 1.58617 0
M  V30 3771 O 373.368 0.42841 2.12117 0
M  V30 3772 C 373.963 3.35071 0.501299 0
M  V30 3773 C 372.522 3.6418 0.951304 0
M  V30 3774 C 371.669 2.77292 0.0208209 0
M  V30 3775 H 374.62 1.52005 -0.456074 0
M  V30 3776 H 374.641 3.55906 1.34577 0
M  V30 3777 H 374.153 3.85424 -0.454936 0
M  V30 3778 H 372.254 3.19293 1.92049 0
M  V30 3779 H 372.367 4.72071 0.817675 0
M  V30 3780 H 370.731 2.49131 0.529723 0
M  V30 3781 H 371.514 3.30448 -0.93054 0
M  V30 3782 N 373.959 -0.0401083 1.57549 0
M  V30 3783 C 375.205 -0.734211 1.89043 0
M  V30 3784 C 375.538 -1.75591 0.829535 0
M  V30 3785 O 374.813 -1.93868 -0.156706 0
M  V30 3786 C 375.096 -1.41374 3.31188 0
M  V30 3787 C 374.949 -0.406299 4.47961 0
M  V30 3788 C 376.268 -2.35061 3.72068 0
M  V30 3789 H 373.387 -0.265447 0.687537 0
M  V30 3790 H 376.029 0.00294087 1.9 0
M  V30 3791 H 374.179 -2.04206 3.30503 0
M  V30 3792 H 375.851 0.219255 4.60779 0
M  V30 3793 H 374.094 0.275485 4.32924 0
M  V30 3794 H 374.765 -0.920022 5.44279 0
M  V30 3795 H 377.241 -1.82282 3.74049 0
M  V30 3796 H 376.117 -2.79593 4.72355 0
M  V30 3797 H 376.378 -3.21258 3.0372 0
M  V30 3798 N 375.437 -1.54477 -0.31217 0
M  V30 3799 C 376.367 -1.87652 -1.38957 0
M  V30 3800 C 377.348 -0.734358 -1.53431 0
M  V30 3801 O 378.533 -0.98911 -1.67123 0
M  V30 3802 C 375.663 -2.11396 -2.75552 0
M  V30 3803 C 374.617 -3.27243 -2.75855 0
M  V30 3804 C 373.943 -3.36382 -4.15633 0
M  V30 3805 C 375.243 -4.64622 -2.38587 0
M  V30 3806 H 376.937 -2.77887 -1.11442 0
M  V30 3807 H 374.483 -1.33707 -0.534655 0
M  V30 3808 H 376.436 -2.33189 -3.51 0
M  V30 3809 H 375.16 -1.17921 -3.04569 0
M  V30 3810 H 373.819 -3.05356 -2.02863 0
M  V30 3811 H 373.467 -2.40445 -4.41809 0
M  V30 3812 H 373.167 -4.14249 -4.1674 0
M  V30 3813 H 374.691 -3.60422 -4.92877 0
M  V30 3814 H 376.105 -4.86219 -3.03749 0
M  V30 3815 H 374.502 -5.45121 -2.50925 0
M  V30 3816 H 375.572 -4.66097 -1.33723 0
M  V30 3817 N 376.915 0.57481 -1.46744 0
M  V30 3818 C 378.163 1.33009 -1.52161 0
M  V30 3819 C 378.484 1.94185 -0.178092 0
M  V30 3820 O 377.754 1.7899 0.796196 0
M  V30 3821 H 376.334 0.493873 -0.560445 0
M  V30 3822 H 378.996 0.672589 -1.82927 0
M  V30 3823 H 378.092 2.13273 -2.27862 0
M  V30 3824 N 378.394 1.34581 0.820102 0
M  V30 3825 C 379.326 1.22236 1.93884 0
M  V30 3826 C 380.339 0.148776 1.62119 0
M  V30 3827 O 381.528 0.400877 1.7394 0
M  V30 3828 C 378.628 0.856542 3.27897 0
M  V30 3829 C 377.801 2.02569 3.87666 0
M  V30 3830 C 376.86 1.63782 5.00062 0
M  V30 3831 O 375.886 2.35477 5.18208 0
M  V30 3832 N 377.088 0.553611 5.77854 0
M  V30 3833 H 379.853 2.18615 2.05006 0
M  V30 3834 H 377.414 1.27573 0.99683 0
M  V30 3835 H 379.406 0.578806 4.0054 0
M  V30 3836 H 377.976 -0.0171518 3.12595 0
M  V30 3837 H 377.196 2.468 3.07382 0
M  V30 3838 H 378.484 2.80752 4.24329 0
M  V30 3839 H 377.882 -0.0423528 5.65684 0
M  V30 3840 H 376.439 0.335614 6.50935 0
M  V30 3841 N 379.872 -1.04064 1.18357 0
M  V30 3842 C 381.283 -1.58719 0.98312 0
M  V30 3843 C 381.634 -1.90556 -0.467193 0
M  V30 3844 O 380.759 -1.69561 -1.34454 0
M  V30 3845 C 381.354 -2.88379 1.77828 0
M  V30 3846 C 379.913 -3.3965 1.62218 0
M  V30 3847 C 379.06 -2.13235 1.77274 0
M  V30 3848 H 382.011 -0.867359 1.32901 0
M  V30 3849 H 382.032 -3.58773 1.26737 0
M  V30 3850 H 381.544 -2.65176 2.83379 0
M  V30 3851 H 379.645 -3.67866 0.592036 0
M  V30 3852 H 379.758 -4.13475 2.42023 0
M  V30 3853 H 378.122 -2.24542 1.20221 0
M  V30 3854 H 378.905 -1.92487 2.8426 0
M  V30 3855 N 381.35 -0.985608 -1.22978 0
M  V30 3856 C 382.599 -0.652881 -1.90841 0
M  V30 3857 C 382.912 0.817842 -1.77681 0
M  V30 3858 O 384.118 1.26185 -2.40395 0
M  V30 3859 C 382.574 -1.11717 -3.42122 0
M  V30 3860 C 382.182 -2.6126 -3.63933 0
M  V30 3861 C 383.926 -0.85843 -4.1573 0
M  V30 3862 C 381.833 -3.0133 -5.08876 0
M  V30 3863 H 380.763 -0.240491 -0.714619 0
M  V30 3864 H 383.414 -1.1942 -1.39324 0
M  V30 3865 H 381.796 -0.504027 -3.92779 0
M  V30 3866 H 382.97 -3.27858 -3.23799 0
M  V30 3867 H 381.285 -2.84937 -3.03644 0
M  V30 3868 H 383.882 -1.13359 -5.22546 0
M  V30 3869 H 384.225 0.205461 -4.15793 0
M  V30 3870 H 384.758 -1.43341 -3.71077 0
M  V30 3871 H 381.497 -4.06864 -5.13947 0
M  V30 3872 H 381.017 -2.3943 -5.49939 0
M  V30 3873 H 382.696 -2.92224 -5.77247 0
M  V30 3874 N 382.828 1.3818 -0.7579 0
M  V30 3875 C 384.077 1.99261 -0.312744 0
M  V30 3876 C 384.39 1.60846 1.11301 0
M  V30 3877 O 385.596 2.14929 1.65885 0
M  V30 3878 C 384.052 3.56294 -0.50821 0
M  V30 3879 C 383.66 4.03657 -1.94333 0
M  V30 3880 C 385.404 4.24313 -0.125982 0
M  V30 3881 C 383.311 5.53347 -2.08712 0
M  V30 3882 H 382.241 0.745456 -0.113185 0
M  V30 3883 H 384.892 1.57889 -0.935056 0
M  V30 3884 H 383.274 3.95575 0.183353 0
M  V30 3885 H 384.448 3.75655 -2.66871 0
M  V30 3886 H 382.763 3.48376 -2.28086 0
M  V30 3887 H 385.36 5.34279 -0.212125 0
M  V30 3888 H 385.703 4.05962 0.921964 0
M  V30 3889 H 386.236 3.90285 -0.769563 0
M  V30 3890 H 382.975 5.76607 -3.11777 0
M  V30 3891 H 382.495 5.83078 -1.4064 0
M  V30 3892 H 384.174 6.19111 -1.87912 0
M  V30 3893 N 384.306 0.507319 1.49211 0
M  V30 3894 C 385.722 0.163682 1.58758 0
M  V30 3895 C 385.922 -1.33208 1.51188 0
M  V30 3896 O 384.978 -2.10855 1.38911 0
M  V30 3897 C 386.291 0.746095 2.91297 0
M  V30 3898 C 387.839 0.712773 3.04776 0
M  V30 3899 C 388.314 1.27336 4.39943 0
M  V30 3900 N 389.805 1.23433 4.46451 0
M  V30 3901 C 390.54 1.63821 5.495 0
M  V30 3902 N 390.036 2.11832 6.5962 0
M  V30 3903 N 391.829 1.55198 5.4025 0
M  V30 3904 H 383.98 1.47972 1.52375 0
M  V30 3905 H 386.243 0.614147 0.722168 0
M  V30 3906 H 385.949 1.79534 3.02424 0
M  V30 3907 H 385.823 0.210137 3.76614 0
M  V30 3908 H 388.21 -0.327656 2.93275 0
M  V30 3909 H 388.291 1.28595 2.21127 0
M  V30 3910 H 387.935 2.3126 4.52196 0
M  V30 3911 H 387.865 0.676066 5.22242 0
M  V30 3912 H 390.356 0.882627 3.67448 0
M  V30 3913 H 390.669 2.40703 7.34358 0
M  V30 3914 H 389.014 2.1581 6.60644 0
M  V30 3915 H 392.205 1.17505 4.53112 0
M  V30 3916 H 392.378 1.86997 6.20432 0
M  V30 3917 N 385.784 -1.5574 0.241426 0
M  V30 3918 C 387.009 -2.0366 -0.392111 0
M  V30 3919 C 387.434 -1.11969 -1.51144 0
M  V30 3920 O 386.792 -0.111594 -1.80956 0
M  V30 3921 C 386.84 -3.49638 -0.882371 0
M  V30 3922 O 385.944 -3.6108 -1.99235 0
M  V30 3923 H 385.285 -0.658379 -0.0862122 0
M  V30 3924 H 387.815 -2.01302 0.365881 0
M  V30 3925 H 387.825 -3.90351 -1.18702 0
M  V30 3926 H 386.5 -4.15852 -0.0632361 0
M  V30 3927 H 385.077 -3.32262 -1.69282 0
M  V30 3928 N 387.262 0.0317525 -1.57568 0
M  V30 3929 C 388.511 0.722131 -1.8833 0
M  V30 3930 C 388.824 1.76664 -0.839587 0
M  V30 3931 O 390.03 2.50942 -1.03635 0
M  V30 3932 C 388.486 1.33544 -3.34207 0
M  V30 3933 C 388.094 0.327415 -4.46802 0
M  V30 3934 C 389.838 2.00585 -3.7412 0
M  V30 3935 C 387.745 0.948915 -5.83738 0
M  V30 3936 H 386.675 0.273466 -0.702661 0
M  V30 3937 H 389.326 -0.0235811 -1.83485 0
M  V30 3938 H 387.708 2.13077 -3.33788 0
M  V30 3939 H 388.882 -0.441006 -4.58685 0
M  V30 3940 H 387.197 -0.240758 -4.15703 0
M  V30 3941 H 389.794 2.47932 -4.73744 0
M  V30 3942 H 390.137 2.82285 -3.05975 0
M  V30 3943 H 390.67 1.27831 -3.76702 0
M  V30 3944 H 387.409 0.171387 -6.55276 0
M  V30 3945 H 386.929 1.68724 -5.7558 0
M  V30 3946 H 388.608 1.45705 -6.3038 0
M  V30 3947 N 388.74 1.54641 0.303973 0
M  V30 3948 C 390.151 1.64811 0.877163 0
M  V30 3949 C 390.502 0.554838 1.88191 0
M  V30 3950 O 389.627 -0.309033 2.14182 0
M  V30 3951 C 390.222 2.9876 1.59775 0
M  V30 3952 C 388.781 3.11061 2.11938 0
M  V30 3953 C 387.928 2.60479 0.951097 0
M  V30 3954 H 390.879 1.58493 0.0810486 0
M  V30 3955 H 390.9 2.90017 2.46314 0
M  V30 3956 H 390.412 3.7831 0.866226 0
M  V30 3957 H 388.513 2.36225 2.88146 0
M  V30 3958 H 388.626 4.17171 2.35595 0
M  V30 3959 H 386.99 2.16859 1.33583 0
M  V30 3960 H 387.773 3.42504 0.233581 0
M  V30 3961 N 390.218 -0.567019 1.47046 0
M  V30 3962 C 391.15 -1.68985 1.54844 0
M  V30 3963 C 392.163 -1.56869 0.435431 0
M  V30 3964 O 393.352 -1.64006 0.70457 0
M  V30 3965 C 390.452 -3.07373 1.42742 0
M  V30 3966 C 389.625 -3.45339 2.6844 0
M  V30 3967 C 388.684 -4.62849 2.50314 0
M  V30 3968 O 387.71 -4.67922 3.24095 0
M  V30 3969 N 388.912 -5.58726 1.57499 0
M  V30 3970 H 391.677 -1.62745 2.51663 0
M  V30 3971 H 389.238 -0.753411 1.43302 0
M  V30 3972 H 391.23 -3.83803 1.28365 0
M  V30 3973 H 389.8 -3.07893 0.540445 0
M  V30 3974 H 389.02 -2.58455 2.97648 0
M  V30 3975 H 390.308 -3.67476 3.51907 0
M  V30 3976 H 389.706 -5.57376 0.966876 0
M  V30 3977 H 388.263 -6.34523 1.49078 0
M  V30 3978 N 391.696 -1.35014 -0.812953 0
M  V30 3979 C 392.944 -1.27678 -1.56661 0
M  V30 3980 C 393.265 0.150359 -1.94419 0
M  V30 3981 O 392.535 1.08532 -1.63088 0
M  V30 3982 H 391.115 -0.469602 -0.580933 0
M  V30 3983 H 393.777 -1.69043 -0.970076 0
M  V30 3984 H 392.873 -1.88833 -2.48492 0
M  V30 3985 N 393.175 1.03435 -1.18907 0
M  V30 3986 C 394.424 1.76143 -0.982669 0
M  V30 3987 C 394.737 1.89416 0.487953 0
M  V30 3988 O 395.943 2.59041 0.813036 0
M  V30 3989 C 394.399 3.16722 -1.70924 0
M  V30 3990 C 394.007 3.11522 -3.21959 0
M  V30 3991 C 395.751 3.93764 -1.58588 0
M  V30 3992 C 393.658 4.46999 -3.87228 0
M  V30 3993 H 392.588 0.660292 -0.364047 0
M  V30 3994 H 395.239 1.158 -1.42347 0
M  V30 3995 H 393.621 3.775 -1.19623 0
M  V30 3996 H 394.795 2.60158 -3.80335 0
M  V30 3997 H 393.11 2.47978 -3.34508 0
M  V30 3998 H 395.707 4.93963 -2.04707 0
M  V30 3999 H 396.05 4.12794 -0.539142 0
M  V30 4000 H 396.583 3.39576 -2.07203 0
M  V30 4001 H 393.322 4.33174 -4.91976 0
M  V30 4002 H 392.842 4.98441 -3.33642 0
M  V30 4003 H 394.521 5.15898 -3.90459 0
M  V30 4004 N 394.653 0.992116 1.22453 0
M  V30 4005 C 395.899 0.668523 1.91464 0
M  V30 4006 C 396.232 -0.797313 1.77078 0
M  V30 4007 O 395.507 -1.5765 1.13916 0
M  V30 4008 C 395.79 1.07424 3.43703 0
M  V30 4009 C 395.643 2.59857 3.67143 0
M  V30 4010 C 396.962 0.626891 4.35612 0
M  V30 4011 H 394.081 0.244341 0.695318 0
M  V30 4012 H 396.723 1.2355 1.44345 0
M  V30 4013 H 394.873 0.591816 3.83966 0
M  V30 4014 H 396.545 3.15764 3.3629 0
M  V30 4015 H 394.788 3.01961 3.11451 0
M  V30 4016 H 395.459 2.83296 4.73759 0
M  V30 4017 H 397.935 1.04125 4.02861 0
M  V30 4018 H 396.811 0.939076 5.40807 0
M  V30 4019 H 397.072 -0.472457 4.39568 0
M  V30 4020 N 396.131 -1.37776 0.765217 0
M  V30 4021 C 397.094 -2.28686 0.153416 0
M  V30 4022 C 398.094 -1.47727 -0.635081 0
M  V30 4023 O 399.284 -1.68027 -0.459632 0
M  V30 4024 C 396.416 -3.31608 -0.790495 0
M  V30 4025 H 397.609 -2.84297 0.954723 0
M  V30 4026 H 395.162 -1.46932 0.53299 0
M  V30 4027 H 395.897 -2.81109 -1.61705 0
M  V30 4028 H 395.682 -3.9144 -0.227348 0
M  V30 4029 H 397.172 -3.99559 -1.21419 0
M  V30 4030 N 397.609 -0.515225 -1.4894 0
M  V30 4031 C 398.572 0.244681 -2.2789 0
M  V30 4032 C 399.572 0.881166 -1.34507 0
M  V30 4033 O 400.762 0.743497 -1.57537 0
M  V30 4034 C 397.894 1.35247 -3.12923 0
M  V30 4035 H 399.087 -0.448289 -2.96531 0
M  V30 4036 H 396.64 -0.270656 -1.53939 0
M  V30 4037 H 397.375 2.07916 -2.48881 0
M  V30 4038 H 397.16 0.901374 -3.81599 0
M  V30 4039 H 398.65 1.88737 -3.72516 0
M  V30 4040 N 399.087 1.5561 -0.249682 0
M  V30 4041 C 400.333 2.00044 0.367952 0
M  V30 4042 C 400.688 1.1349 1.55363 0
M  V30 4043 O 399.981 0.191079 1.90645 0
M  V30 4044 C 400.175 3.4775 0.824887 0
M  V30 4045 C 400.004 4.48596 -0.314973 0
M  V30 4046 C 398.774 4.99077 -0.790555 0
M  V30 4047 C 400.972 5.0144 -1.14291 0
M  V30 4048 N 398.954 5.83675 -1.90254 0
M  V30 4049 C 400.325 5.83236 -2.10322 0
M  V30 4050 C 402.38 4.83736 -1.17916 0
M  V30 4051 C 401.083 6.49217 -3.09692 0
M  V30 4052 C 403.109 5.50497 -2.16117 0
M  V30 4053 C 402.471 6.32084 -3.10884 0
M  V30 4054 H 398.57 0.775512 0.100522 0
M  V30 4055 H 401.154 1.91193 -0.367896 0
M  V30 4056 H 399.325 3.56994 1.53002 0
M  V30 4057 H 401.057 3.79056 1.4177 0
M  V30 4058 H 397.812 4.72119 -0.374218 0
M  V30 4059 H 398.236 6.30671 -2.46137 0
M  V30 4060 H 402.878 4.20286 -0.460352 0
M  V30 4061 H 400.596 7.11832 -3.8252 0
M  V30 4062 H 404.182 5.38752 -2.19631 0
M  V30 4063 H 403.062 6.82832 -3.8563 0
M  V30 4064 N 400.565 -0.0233959 1.57583 0
M  V30 4065 C 401.981 -0.379134 1.55031 0
M  V30 4066 C 402.181 -1.76255 0.976548 0
M  V30 4067 O 401.237 -2.45266 0.600078 0
M  V30 4068 C 402.55 -0.275792 2.99433 0
M  V30 4069 C 404.098 -0.352458 3.11009 0
M  V30 4070 C 404.573 -0.278501 4.57152 0
M  V30 4071 N 406.064 -0.337123 4.61972 0
M  V30 4072 C 406.799 -0.302876 5.726 0
M  V30 4073 N 406.295 -0.220589 6.92449 0
M  V30 4074 N 408.088 -0.353023 5.6099 0
M  V30 4075 H 400.239 0.881869 1.93227 0
M  V30 4076 H 402.502 0.335867 0.886509 0
M  V30 4077 H 402.208 0.675108 3.4516 0
M  V30 4078 H 402.082 -1.06721 3.61788 0
M  V30 4079 H 404.469 -1.29379 2.65226 0
M  V30 4080 H 404.55 0.468409 2.51475 0
M  V30 4081 H 404.194 0.659189 5.03604 0
M  V30 4082 H 404.124 -1.11755 5.14605 0
M  V30 4083 H 406.615 -0.403002 3.75745 0
M  V30 4084 H 406.928 -0.199713 7.72542 0
M  V30 4085 H 405.273 -0.186555 6.9475 0
M  V30 4086 H 408.464 -0.415339 4.66254 0
M  V30 4087 H 408.637 -0.322866 6.47195 0
M  V30 4088 N 402.043 -1.548 -0.295768 0
M  V30 4089 C 402.975 -1.82492 -1.3867 0
M  V30 4090 C 403.988 -0.708134 -1.46592 0
M  V30 4091 O 405.177 -0.985686 -1.48817 0
M  V30 4092 C 402.277 -1.95256 -2.76999 0
M  V30 4093 C 401.45 -3.25709 -2.91946 0
M  V30 4094 C 400.509 -3.28824 -4.10806 0
M  V30 4095 O 399.535 -4.02328 -4.02643 0
M  V30 4096 N 400.737 -2.5459 -5.21694 0
M  V30 4097 H 403.502 -2.76646 -1.15269 0
M  V30 4098 H 401.063 -1.54438 -0.485849 0
M  V30 4099 H 403.055 -1.94736 -3.54768 0
M  V30 4100 H 401.625 -1.08072 -2.93324 0
M  V30 4101 H 400.845 -3.38959 -2.01247 0
M  V30 4102 H 402.133 -4.11786 -2.98847 0
M  V30 4103 H 401.531 -1.94512 -5.31208 0
M  V30 4104 H 400.088 -2.59818 -5.97778 0
M  V30 4105 N 403.521 0.559213 -1.47345 0
M  V30 4106 C 404.937 0.884943 -1.32819 0
M  V30 4107 C 405.137 1.98988 -0.317173 0
M  V30 4108 O 404.193 2.51031 0.272011 0
M  V30 4109 C 405.506 1.28007 -2.72093 0
M  V30 4110 C 407.054 1.39161 -2.80363 0
M  V30 4111 C 407.529 1.82031 -4.20272 0
M  V30 4112 N 409.02 1.89185 -4.22804 0
M  V30 4113 C 409.755 2.2368 -5.27973 0
M  V30 4114 N 409.251 2.56802 -6.43447 0
M  V30 4115 N 411.044 2.24436 -5.15349 0
M  V30 4116 H 403.195 -0.170304 -2.11716 0
M  V30 4117 H 405.458 -0.0135247 -0.947904 0
M  V30 4118 H 405.164 0.542027 -3.47498 0
M  V30 4119 H 405.038 2.23665 -3.03733 0
M  V30 4120 H 407.425 2.12048 -2.05231 0
M  V30 4121 H 407.506 0.41696 -2.52379 0
M  V30 4122 H 407.15 1.09715 -4.95908 0
M  V30 4123 H 407.08 2.80495 -4.45679 0
M  V30 4124 H 409.571 1.65982 -3.39497 0
M  V30 4125 H 409.884 2.82144 -7.19454 0
M  V30 4126 H 408.229 2.54387 -6.46771 0
M  V30 4127 H 411.42 1.97998 -4.24163 0
M  V30 4128 H 411.593 2.50989 -5.97418 0
M  V30 4129 N 404.999 1.35443 0.805782 0
M  V30 4130 C 406.224 1.32037 1.59941 0
M  V30 4131 C 406.649 -0.0994215 1.87837 0
M  V30 4132 O 406.007 -1.06648 1.46615 0
M  V30 4133 C 406.055 2.13354 2.90711 0
M  V30 4134 O 405.159 1.5148 3.83572 0
M  V30 4135 H 404.5 0.452666 0.485787 0
M  V30 4136 H 407.03 1.78496 1.00002 0
M  V30 4137 H 407.04 2.25338 3.40128 0
M  V30 4138 H 405.715 3.16572 2.69732 0
M  V30 4139 H 404.292 1.4834 3.42125 0
M  V30 4140 N 406.477 -1.02803 1.19454 0
M  V30 4141 C 407.702 -1.80378 1.02364 0
M  V30 4142 C 408.127 -1.83282 -0.423007 0
M  V30 4143 O 407.485 -1.25945 -1.30413 0
M  V30 4144 C 407.533 -3.23248 1.59821 0
M  V30 4145 O 406.637 -4.04 0.828105 0
M  V30 4146 H 405.978 -0.556799 0.361761 0
M  V30 4147 H 408.508 -1.29385 1.58495 0
M  V30 4148 H 408.518 -3.73994 1.63073 0
M  V30 4149 H 407.193 -3.2045 2.65113 0
M  V30 4150 H 405.77 -3.62635 0.86891 0
M  V30 4151 N 407.956 -0.998596 -1.21925 0
M  V30 4152 C 409.372 -0.710303 -1.42923 0
M  V30 4153 C 409.572 0.716933 -1.88314 0
M  V30 4154 O 408.628 1.48712 -2.04062 0
M  V30 4155 C 409.941 -1.72072 -2.466 0
M  V30 4156 C 411.489 -1.73681 -2.60392 0
M  V30 4157 C 411.964 -2.73601 -3.67296 0
M  V30 4158 N 413.455 -2.7223 -3.7476 0
M  V30 4159 C 414.19 -3.46206 -4.57087 0
M  V30 4160 N 413.686 -4.29802 -5.43362 0
M  V30 4161 N 415.479 -3.34886 -4.51451 0
M  V30 4162 H 407.63 -1.92028 -0.9077 0
M  V30 4163 H 409.893 -0.828487 -0.460775 0
M  V30 4164 H 409.599 -2.74231 -2.20206 0
M  V30 4165 H 409.473 -1.51818 -3.45299 0
M  V30 4166 H 411.86 -0.722173 -2.86127 0
M  V30 4167 H 411.941 -1.98005 -1.61949 0
M  V30 4168 H 411.585 -3.75217 -3.42307 0
M  V30 4169 H 411.515 -2.46545 -4.65321 0
M  V30 4170 H 414.006 -2.11576 -3.1312 0
M  V30 4171 H 414.319 -4.83061 -6.03218 0
M  V30 4172 H 412.664 -4.33887 -5.42925 0
M  V30 4173 H 415.855 -2.69015 -3.83078 0
M  V30 4174 H 416.028 -3.92796 -5.15379 0
M  V30 4175 N 409.434 1.37368 -0.772513 0
M  V30 4176 C 410.711 1.93839 -0.26188 0
M  V30 4177 C 411.091 1.7061 1.24319 0
M  V30 4178 O 410.439 1.05534 2.02669 0
M  V30 4179 C 410.649 3.43154 -0.636102 0
M  V30 4180 C 411.997 4.20249 -0.606324 0
M  V30 4181 O 413.021 3.5152 -0.575538 0
M  V30 4182 O 411.88 5.42809 -0.634086 0
M  V30 4183 H 408.974 0.82478 -0.0605555 0
M  V30 4184 H 411.52 1.4665 -0.853917 0
M  V30 4185 H 410.292 3.53647 -1.6748 0
M  V30 4186 H 409.915 3.97596 -0.0170516 0
M  V30 4187 N 410.912 0.523116 1.48665 0
M  V30 4188 C 412.323 0.0808997 1.86525 0
M  V30 4189 C 412.674 -1.33975 1.43336 0
M  V30 4190 O 411.799 -2.00221 0.821009 0
M  V30 4191 C 412.394 0.140037 3.3851 0
M  V30 4192 C 410.953 -0.246948 3.75589 0
M  V30 4193 C 410.1 0.502845 2.72703 0
M  V30 4194 H 413.051 0.734736 1.40667 0
M  V30 4195 H 413.072 -0.649945 3.74908 0
M  V30 4196 H 412.584 1.17412 3.69914 0
M  V30 4197 H 410.685 -1.28343 3.49798 0
M  V30 4198 H 410.798 0.0878859 4.79019 0
M  V30 4199 H 409.162 -0.0500581 2.54651 0
M  V30 4200 H 409.945 1.53743 3.0695 0
M  V30 4201 N 412.39 -1.55475 0.257931 0
M  V30 4202 C 413.615 -2.04064 -0.370488 0
M  V30 4203 C 414.04 -1.13565 -1.49948 0
M  V30 4204 O 413.398 -0.130781 -1.80828 0
M  V30 4205 C 413.446 -3.50554 -0.845237 0
M  V30 4206 O 412.55 -3.63173 -1.95394 0
M  V30 4207 H 411.891 -0.659257 -0.0792243 0
M  V30 4208 H 414.421 -2.00903 0.387212 0
M  V30 4209 H 414.431 -3.91588 -1.14555 0
M  V30 4210 H 413.106 -4.15896 -0.0191259 0
M  V30 4211 H 411.683 -3.34039 -1.65748 0
M  V30 4212 N 413.868 0.0150385 -1.57593 0
M  V30 4213 C 415.114 0.69849 -1.91031 0
M  V30 4214 C 415.469 1.72208 -0.85804 0
M  V30 4215 O 414.762 1.91147 0.131614 0
M  V30 4216 C 414.956 1.39686 -3.28972 0
M  V30 4217 C 414.785 0.442428 -4.47518 0
M  V30 4218 C 413.555 0.0583223 -5.05266 0
M  V30 4219 C 415.753 -0.285072 -5.13509 0
M  V30 4220 N 413.735 -0.895893 -6.07328 0
M  V30 4221 C 415.106 -1.09447 -6.10263 0
M  V30 4222 C 417.161 -0.350518 -4.96665 0
M  V30 4223 C 415.864 -1.96333 -6.91987 0
M  V30 4224 C 417.89 -1.20655 -5.78962 0
M  V30 4225 C 417.252 -2.00383 -6.75297 0
M  V30 4226 H 413.351 0.22926 -0.747639 0
M  V30 4227 H 415.935 -0.0417748 -1.94655 0
M  V30 4228 H 414.106 2.1075 -3.2625 0
M  V30 4229 H 415.838 2.03381 -3.49883 0
M  V30 4230 H 412.593 0.423506 -4.71703 0
M  V30 4231 H 413.017 -1.36792 -6.63036 0
M  V30 4232 H 417.659 0.251596 -4.22051 0
M  V30 4233 H 415.377 -2.57618 -7.65936 0
M  V30 4234 H 418.963 -1.2609 -5.67972 0
M  V30 4235 H 417.843 -2.65552 -7.3787 0
M  V30 4236 N 415.346 1.54954 0.287554 0
M  V30 4237 C 416.762 1.46469 0.633964 0
M  V30 4238 C 416.962 0.666865 1.90145 0
M  V30 4239 O 416.018 0.179906 2.51858 0
M  V30 4240 C 417.331 2.90556 0.774454 0
M  V30 4241 C 418.879 3.00681 0.869462 0
M  V30 4242 C 419.354 4.45993 1.04184 0
M  V30 4243 N 420.845 4.4976 1.10772 0
M  V30 4244 C 421.58 5.59393 1.25964 0
M  V30 4245 N 421.076 6.78923 1.37968 0
M  V30 4246 N 422.869 5.47107 1.28959 0
M  V30 4247 H 415.02 2.05288 -0.545041 0
M  V30 4248 H 417.283 0.930305 -0.182308 0
M  V30 4249 H 416.989 3.51594 -0.086207 0
M  V30 4250 H 416.863 3.38743 1.6593 0
M  V30 4251 H 419.25 2.39749 1.7206 0
M  V30 4252 H 419.331 2.55769 -0.0396831 0
M  V30 4253 H 418.975 5.07524 0.195422 0
M  V30 4254 H 418.905 4.88548 1.96542 0
M  V30 4255 H 421.396 3.63651 1.02794 0
M  V30 4256 H 421.709 7.58231 1.49353 0
M  V30 4257 H 420.054 6.81763 1.34999 0
M  V30 4258 H 423.245 4.52668 1.19202 0
M  V30 4259 H 423.418 6.32595 1.40455 0
M  V30 4260 N 416.824 -0.551391 1.4764 0
M  V30 4261 C 417.756 -1.67333 1.56628 0
M  V30 4262 C 418.769 -1.56398 0.452045 0
M  V30 4263 O 419.958 -1.6325 0.721926 0
M  V30 4264 C 417.058 -3.05841 1.45994 0
M  V30 4265 C 416.231 -3.42472 2.72088 0
M  V30 4266 C 415.29 -4.60168 2.55209 0
M  V30 4267 O 414.316 -4.64458 3.2904 0
M  V30 4268 N 415.518 -5.57024 1.63416 0
M  V30 4269 H 418.283 -1.60066 2.53375 0
M  V30 4270 H 415.844 -0.738169 1.44093 0
M  V30 4271 H 417.836 -3.8242 1.32428 0
M  V30 4272 H 416.406 -3.07302 0.573071 0
M  V30 4273 H 415.626 -2.55284 3.00373 0
M  V30 4274 H 416.914 -3.63723 3.55785 0
M  V30 4275 H 416.312 -5.56319 1.02594 0
M  V30 4276 H 414.869 -6.32906 1.558 0
M  V30 4277 N 418.302 -1.35869 -0.798587 0
M  V30 4278 C 419.713 -1.26498 -1.37314 0
M  V30 4279 C 420.064 0.0991899 -1.95949 0
M  V30 4280 O 419.189 1.0004 -1.91888 0
M  V30 4281 C 419.784 -2.29054 -2.49639 0
M  V30 4282 C 418.343 -2.234 -3.02935 0
M  V30 4283 C 417.49 -2.14329 -1.75949 0
M  V30 4284 H 420.441 -1.46881 -0.600971 0
M  V30 4285 H 420.462 -1.92166 -3.28409 0
M  V30 4286 H 419.974 -3.2833 -2.06933 0
M  V30 4287 H 418.075 -1.27562 -3.50084 0
M  V30 4288 H 418.188 -3.15703 -3.60372 0
M  V30 4289 H 416.552 -1.60435 -1.9782 0
M  V30 4290 H 417.335 -3.15477 -1.35384 0
M  V30 4291 N 419.78 1.02168 -1.19998 0
M  V30 4292 C 420.69 2.14069 -0.959774 0
M  V30 4293 C 421.706 1.73804 0.082655 0
M  V30 4294 O 422.882 2.01133 -0.103633 0
M  V30 4295 C 419.947 3.42936 -0.509459 0
M  V30 4296 C 419.008 3.97474 -1.62213 0
M  V30 4297 C 418.241 5.2019 -1.19321 0
M  V30 4298 O 418.464 5.70369 -0.0597726 0
M  V30 4299 O 417.398 5.67749 -1.99863 0
M  V30 4300 H 421.224 2.37199 -1.89658 0
M  V30 4301 H 418.809 1.12469 -0.983411 0
M  V30 4302 H 420.691 4.20551 -0.267322 0
M  V30 4303 H 419.366 3.21234 0.398821 0
M  V30 4304 H 418.273 3.21161 -1.9185 0
M  V30 4305 H 419.606 4.23555 -2.50723 0
M  V30 4306 N 421.258 1.00505 1.21394 0
M  V30 4307 C 422.674 0.717873 1.42544 0
M  V30 4308 C 422.874 -0.706936 1.88692 0
M  V30 4309 O 421.93 -1.47627 2.04847 0
M  V30 4310 C 423.243 1.73377 2.45684 0
M  V30 4311 C 424.791 1.75059 2.59467 0
M  V30 4312 C 425.266 2.75545 3.6584 0
M  V30 4313 N 426.757 2.74213 3.73311 0
M  V30 4314 C 427.492 3.48626 4.55245 0
M  V30 4315 N 426.988 4.32678 5.41075 0
M  V30 4316 N 428.781 3.37276 4.49668 0
M  V30 4317 H 420.932 1.92506 0.897503 0
M  V30 4318 H 423.195 0.830919 0.456375 0
M  V30 4319 H 422.901 2.75395 2.18748 0
M  V30 4320 H 422.775 1.53647 3.44489 0
M  V30 4321 H 425.162 0.737337 2.8574 0
M  V30 4322 H 425.243 1.98861 1.60897 0
M  V30 4323 H 424.887 3.77028 3.40313 0
M  V30 4324 H 424.817 2.49009 4.64007 0
M  V30 4325 H 427.308 2.13234 3.11993 0
M  V30 4326 H 427.621 4.86253 6.00648 0
M  V30 4327 H 425.966 4.3676 5.40616 0
M  V30 4328 H 429.157 2.71043 3.81646 0
M  V30 4329 H 429.33 3.95524 5.13288 0
M  V30 4330 N 422.737 -1.36956 0.779787 0
M  V30 4331 C 423.965 -2.03755 0.359398 0
M  V30 4332 C 424.38 -1.58807 -1.02106 0
M  V30 4333 O 423.737 -0.773024 -1.6532 0
M  V30 4334 C 423.788 -3.59251 0.402568 0
M  V30 4335 O 423.509 -4.02557 1.72858 0
M  V30 4336 C 425.01 -4.43291 -0.0284068 0
M  V30 4337 H 422.23 -0.654148 0.149437 0
M  V30 4338 H 424.774 -1.75128 1.05595 0
M  V30 4339 H 422.929 -3.86621 -0.245478 0
M  V30 4340 H 423.343 -4.97111 1.67275 0
M  V30 4341 H 424.817 -5.51975 0.0529466 0
M  V30 4342 H 425.294 -4.25719 -1.07982 0
M  V30 4343 H 425.9 -4.21163 0.591758 0
M  V30 4344 N 424.215 -0.530993 -1.48385 0
M  V30 4345 C 425.464 0.00474348 -2.01699 0
M  V30 4346 C 425.777 1.35227 -1.41325 0
M  V30 4347 O 426.983 1.97643 -1.86144 0
M  V30 4348 C 425.439 0.0588473 -3.59852 0
M  V30 4349 C 425.047 -1.28385 -4.2921 0
M  V30 4350 C 426.791 0.543358 -4.21008 0
M  V30 4351 C 424.698 -1.19028 -5.79298 0
M  V30 4352 H 423.628 0.00554317 -0.75398 0
M  V30 4353 H 426.279 -0.674924 -1.70637 0
M  V30 4354 H 424.661 0.803612 -3.8776 0
M  V30 4355 H 425.835 -2.04426 -4.12973 0
M  V30 4356 H 424.15 -1.70418 -3.7993 0
M  V30 4357 H 426.747 0.631351 -5.3096 0
M  V30 4358 H 427.09 1.54937 -3.86394 0
M  V30 4359 H 427.623 -0.145754 -3.97533 0
M  V30 4360 H 424.362 -2.17147 -6.18488 0
M  V30 4361 H 423.882 -0.471246 -5.97946 0
M  V30 4362 H 425.561 -0.881365 -6.40969 0
M  V30 4363 N 425.693 1.55336 -0.266172 0
M  V30 4364 C 426.623 2.25146 0.618981 0
M  V30 4365 C 427.604 1.23845 1.16604 0
M  V30 4366 O 428.789 1.52544 1.20183 0
M  V30 4367 C 425.919 2.96572 1.80728 0
M  V30 4368 C 424.873 4.04726 1.39215 0
M  V30 4369 C 424.199 4.63678 2.66283 0
M  V30 4370 C 425.499 5.19407 0.548942 0
M  V30 4371 H 427.193 2.99377 0.0368116 0
M  V30 4372 H 424.739 1.43991 0.0162651 0
M  V30 4373 H 426.692 3.44116 2.43232 0
M  V30 4374 H 425.416 2.19861 2.41514 0
M  V30 4375 H 424.075 3.57979 0.790351 0
M  V30 4376 H 423.723 3.83646 3.25308 0
M  V30 4377 H 423.423 5.367 2.39222 0
M  V30 4378 H 424.947 5.13967 3.29651 0
M  V30 4379 H 426.361 5.63059 1.07876 0
M  V30 4380 H 424.758 5.98936 0.373593 0
M  V30 4381 H 425.828 4.8295 -0.434394 0
M  V30 4382 N 427.171 -0.0066808 1.57599 0
M  V30 4383 C 428.587 -0.36267 1.55425 0
M  V30 4384 C 428.787 -1.75209 0.995187 0
M  V30 4385 O 427.843 -2.44616 0.626058 0
M  V30 4386 C 429.156 -0.244017 2.99708 0
M  V30 4387 C 430.704 -0.319451 3.11366 0
M  V30 4388 C 431.179 -0.229998 4.57422 0
M  V30 4389 N 432.67 -0.288105 4.62303 0
M  V30 4390 C 433.405 -0.242127 5.72889 0
M  V30 4391 N 432.901 -0.147133 6.92644 0
M  V30 4392 N 434.694 -0.293502 5.61333 0
M  V30 4393 H 426.845 0.902314 1.92281 0
M  V30 4394 H 429.108 0.34525 0.882896 0
M  V30 4395 H 428.814 0.711678 3.44424 0
M  V30 4396 H 428.688 -1.02877 3.629 0
M  V30 4397 H 431.075 -1.26559 2.66584 0
M  V30 4398 H 431.156 0.495055 2.50964 0
M  V30 4399 H 430.8 0.712566 5.02877 0
M  V30 4400 H 430.73 -1.0629 5.15761 0
M  V30 4401 H 433.221 -0.363126 3.76151 0
M  V30 4402 H 433.534 -0.117763 7.7271 0
M  V30 4403 H 431.879 -0.112857 6.94908 0
M  V30 4404 H 435.07 -0.365864 4.66668 0
M  V30 4405 H 435.243 -0.254204 6.47501 0
M  V30 4406 N 428.649 -1.55105 -0.279332 0
M  V30 4407 C 430.06 -1.66186 -0.850832 0
M  V30 4408 C 430.411 -0.584707 -1.87285 0
M  V30 4409 O 429.536 0.274919 -2.14647 0
M  V30 4410 C 430.131 -3.01264 -1.55001 0
M  V30 4411 C 428.69 -3.14394 -2.06963 0
M  V30 4412 C 427.837 -2.61959 -0.909536 0
M  V30 4413 H 430.788 -1.58602 -0.0558235 0
M  V30 4414 H 430.809 -2.93899 -2.41669 0
M  V30 4415 H 430.321 -3.7964 -0.805931 0
M  V30 4416 H 428.422 -2.4078 -2.84352 0
M  V30 4417 H 428.535 -4.20867 -2.28928 0
M  V30 4418 H 426.899 -2.18957 -1.30116 0
M  V30 4419 H 427.682 -3.42833 -0.179062 0
M  V30 4420 N 430.127 0.543554 -1.4793 0
M  V30 4421 C 431.543 0.870806 -1.3375 0
M  V30 4422 C 431.743 1.9864 -0.338261 0
M  V30 4423 O 430.799 2.51305 0.245371 0
M  V30 4424 C 432.112 1.25114 -2.73435 0
M  V30 4425 C 433.66 1.3618 -2.81823 0
M  V30 4426 C 434.135 1.77563 -4.22179 0
M  V30 4427 N 435.626 1.8469 -4.24787 0
M  V30 4428 C 436.361 2.18067 -5.30315 0
M  V30 4429 N 435.857 2.49963 -6.46135 0
M  V30 4430 N 437.65 2.18958 -5.17701 0
M  V30 4431 H 429.801 -0.19275 -2.11524 0
M  V30 4432 H 432.064 -0.0235777 -0.947707 0
M  V30 4433 H 431.77 0.50514 -3.48053 0
M  V30 4434 H 431.644 2.20431 -3.06088 0
M  V30 4435 H 434.031 2.09859 -2.07468 0
M  V30 4436 H 434.112 0.390169 -2.52807 0
M  V30 4437 H 433.756 1.04449 -4.97044 0
M  V30 4438 H 433.686 2.75753 -4.48629 0
M  V30 4439 H 436.177 1.62372 -3.41239 0
M  V30 4440 H 436.49 2.74497 -7.22406 0
M  V30 4441 H 434.835 2.47513 -6.49432 0
M  V30 4442 H 438.026 1.93488 -4.2624 0
M  V30 4443 H 438.199 2.44639 -6.00047 0
M  V30 4444 N 431.605 1.3629 0.791371 0
M  V30 4445 C 432.852 1.30412 1.54916 0
M  V30 4446 C 433.18 -0.117162 1.94147 0
M  V30 4447 O 432.435 -1.08599 1.62803 0
M  V30 4448 C 432.734 2.17068 2.8393 0
M  V30 4449 C 432.4 3.65645 2.63846 0
M  V30 4450 C 431.062 4.0614 2.58077 0
M  V30 4451 C 433.414 4.59855 2.45322 0
M  V30 4452 C 430.742 5.3899 2.31748 0
M  V30 4453 C 433.094 5.9292 2.2052 0
M  V30 4454 C 431.758 6.32542 2.13183 0
M  V30 4455 H 431.028 0.47721 0.566879 0
M  V30 4456 H 433.675 1.68325 0.913172 0
M  V30 4457 H 431.98 1.72085 3.51986 0
M  V30 4458 H 433.677 2.09846 3.4171 0
M  V30 4459 H 430.267 3.33518 2.69191 0
M  V30 4460 H 434.451 4.29443 2.48782 0
M  V30 4461 H 429.707 5.68672 2.24548 0
M  V30 4462 H 433.881 6.65487 2.05182 0
M  V30 4463 H 431.508 7.35412 1.92544 0
M  V30 4464 N 433.083 -1.0153 1.20538 0
M  V30 4465 C 434.499 -1.27461 0.96051 0
M  V30 4466 C 434.699 -1.98273 -0.359193 0
M  V30 4467 O 433.755 -2.27886 -1.0874 0
M  V30 4468 C 435.068 -2.10837 2.14402 0
M  V30 4469 C 436.616 -2.24099 2.18515 0
M  V30 4470 C 437.091 -3.10852 3.36355 0
M  V30 4471 N 438.582 -3.18441 3.36377 0
M  V30 4472 C 439.317 -3.85795 4.24205 0
M  V30 4473 N 438.813 -4.55264 5.22213 0
M  V30 4474 N 440.606 -3.82331 4.12043 0
M  V30 4475 H 432.757 -0.539907 2.05423 0
M  V30 4476 H 435.02 -0.30092 0.898972 0
M  V30 4477 H 434.726 -1.66144 3.09983 0
M  V30 4478 H 434.6 -3.11576 2.12604 0
M  V30 4479 H 436.987 -2.68016 1.23497 0
M  V30 4480 H 437.068 -1.22865 2.24361 0
M  V30 4481 H 436.712 -2.6764 4.31661 0
M  V30 4482 H 436.642 -4.12177 3.27746 0
M  V30 4483 H 439.133 -2.68978 2.65442 0
M  V30 4484 H 439.446 -5.04331 5.85551 0
M  V30 4485 H 437.791 -4.54085 5.26148 0
M  V30 4486 H 440.982 -3.27207 3.34743 0
M  V30 4487 H 441.155 -4.34547 4.807 0
M  V30 4488 N 434.561 -1.01147 -1.20859 0
M  V30 4489 C 435.977 -0.725422 -1.42161 0
M  V30 4490 C 436.177 0.696919 -1.89064 0
M  V30 4491 O 435.233 1.46539 -2.05627 0
M  V30 4492 C 436.546 -1.74678 -2.44761 0
M  V30 4493 C 438.094 -1.76433 -2.58535 0
M  V30 4494 C 438.569 -2.77481 -3.64374 0
M  V30 4495 N 440.06 -2.76189 -3.71852 0
M  V30 4496 C 440.795 -3.51035 -4.53389 0
M  V30 4497 N 440.291 -4.35541 -5.38773 0
M  V30 4498 N 442.084 -3.39655 -4.47873 0
M  V30 4499 H 434.235 -1.92979 -0.887282 0
M  V30 4500 H 436.498 -0.833327 -0.451962 0
M  V30 4501 H 436.204 -2.76551 -2.17285 0
M  V30 4502 H 436.078 -1.55472 -3.43669 0
M  V30 4503 H 438.465 -0.75248 -2.85345 0
M  V30 4504 H 438.546 -1.99712 -1.5984 0
M  V30 4505 H 438.19 -3.78827 -3.38308 0
M  V30 4506 H 438.12 -2.51466 -4.6268 0
M  V30 4507 H 440.611 -2.14885 -3.10858 0
M  V30 4508 H 440.924 -4.89432 -5.98061 0
M  V30 4509 H 439.269 -4.39621 -5.38292 0
M  V30 4510 H 442.46 -2.73063 -3.80203 0
M  V30 4511 H 442.633 -3.9824 -5.11184 0
M  V30 4512 N 436.039 1.36541 -0.78704 0
M  V30 4513 C 436.949 2.3387 -0.184896 0
M  V30 4514 C 437.965 1.60927 0.661697 0
M  V30 4515 O 439.141 1.92927 0.57804 0
M  V30 4516 C 436.206 3.40122 0.672145 0
M  V30 4517 C 435.267 4.28867 -0.19267 0
M  V30 4518 C 434.5 5.30045 0.623561 0
M  V30 4519 O 434.723 5.39232 1.8597 0
M  V30 4520 O 433.657 6.01895 0.0247068 0
M  V30 4521 H 437.483 2.87126 -0.989562 0
M  V30 4522 H 435.068 1.38969 -0.548455 0
M  V30 4523 H 436.95 4.05093 1.16094 0
M  V30 4524 H 435.625 2.89169 1.45474 0
M  V30 4525 H 434.532 3.66945 -0.728166 0
M  V30 4526 H 435.865 4.83165 -0.938722 0
M  V30 4527 N 437.518 0.538854 1.48102 0
M  V30 4528 C 438.764 0.00801365 2.02798 0
M  V30 4529 C 439.097 -1.3309 1.41424 0
M  V30 4530 O 438.372 -1.86169 0.563158 0
M  V30 4531 C 438.655 -0.104589 3.59948 0
M  V30 4532 C 438.508 1.26012 4.31788 0
M  V30 4533 C 439.827 -0.827055 4.32259 0
M  V30 4534 H 436.946 0.00438624 0.736987 0
M  V30 4535 H 439.588 0.6976 1.7673 0
M  V30 4536 H 437.738 -0.691893 3.82289 0
M  V30 4537 H 439.41 1.88922 4.2084 0
M  V30 4538 H 437.653 1.83968 3.92859 0
M  V30 4539 H 438.324 1.13424 5.40221 0
M  V30 4540 H 440.8 -0.328578 4.14801 0
M  V30 4541 H 439.676 -0.87476 5.41885 0
M  V30 4542 H 439.937 -1.87927 4.0017 0
M  V30 4543 N 438.996 -1.55193 0.274407 0
M  V30 4544 C 439.906 -2.26164 -0.623473 0
M  V30 4545 C 440.922 -1.28729 -1.17068 0
M  V30 4546 O 442.098 -1.61663 -1.20112 0
M  V30 4547 C 439.163 -2.96833 -1.7914 0
M  V30 4548 C 438.224 -4.09745 -1.28093 0
M  V30 4549 C 437.457 -4.77034 -2.3932 0
M  V30 4550 O 437.68 -4.4353 -3.5866 0
M  V30 4551 O 436.614 -5.64996 -2.07516 0
M  V30 4552 H 440.44 -3.03661 -0.0485661 0
M  V30 4553 H 438.025 -1.49341 0.0418382 0
M  V30 4554 H 439.907 -3.41248 -2.4724 0
M  V30 4555 H 438.582 -2.22253 -2.35341 0
M  V30 4556 H 437.489 -3.69787 -0.566416 0
M  V30 4557 H 438.822 -4.86224 -0.764683 0
M  V30 4558 N 440.474 -0.00167713 -1.576 0
M  V30 4559 C 441.421 0.989195 -2.08527 0
M  V30 4560 C 442.391 1.34031 -0.981065 0
M  V30 4561 O 443.576 1.43839 -1.2536 0
M  V30 4562 C 440.716 2.27537 -2.59463 0
M  V30 4563 C 439.829 1.98314 -3.83791 0
M  V30 4564 C 438.964 3.21025 -4.23222 0
M  V30 4565 C 438.003 2.87495 -5.40382 0
M  V30 4566 N 437.14 4.02749 -5.75098 0
M  V30 4567 H 441.98 0.547973 -2.92919 0
M  V30 4568 H 439.517 0.258917 -1.44803 0
M  V30 4569 H 441.475 3.02729 -2.87073 0
M  V30 4570 H 440.105 2.69325 -1.77943 0
M  V30 4571 H 439.157 1.13482 -3.63078 0
M  V30 4572 H 440.469 1.69601 -4.69081 0
M  V30 4573 H 439.623 4.04561 -4.52123 0
M  V30 4574 H 438.362 3.52877 -3.36644 0
M  V30 4575 H 437.367 2.02367 -5.11202 0
M  V30 4576 H 438.592 2.56889 -6.28637 0
M  V30 4577 H 436.538 4.34494 -4.91478 0
M  V30 4578 H 436.455 3.77566 -6.54966 0
M  V30 4579 H 437.723 4.87068 -6.08592 0
M  V30 4580 N 441.952 1.55251 0.271103 0
M  V30 4581 C 443.18 1.79974 1.02064 0
M  V30 4582 C 443.595 0.574003 1.79863 0
M  V30 4583 O 442.952 -0.456962 1.76686 0
M  V30 4584 C 443.003 3.02603 1.97772 0
M  V30 4585 O 442.724 4.20443 1.23124 0
M  V30 4586 C 444.225 3.39944 2.84522 0
M  V30 4587 H 441.445 0.599489 0.301419 0
M  V30 4588 H 443.989 2.02268 0.301313 0
M  V30 4589 H 442.144 2.8243 2.65165 0
M  V30 4590 H 442.558 4.89783 1.87651 0
M  V30 4591 H 444.032 4.28915 3.47471 0
M  V30 4592 H 444.509 2.59432 3.54389 0
M  V30 4593 H 445.115 3.62383 2.22618 0
M  V30 4594 N 443.43 -0.535701 1.48216 0
M  V30 4595 C 444.393 -1.623 1.61838 0
M  V30 4596 C 445.393 -1.53087 0.492024 0
M  V30 4597 O 446.583 -1.5686 0.757668 0
M  V30 4598 C 443.715 -3.01907 1.58319 0
M  V30 4599 H 444.908 -1.51564 2.58783 0
M  V30 4600 H 442.461 -0.757317 1.36727 0
M  V30 4601 H 443.196 -3.18155 0.628299 0
M  V30 4602 H 442.981 -3.10003 2.40085 0
M  V30 4603 H 444.471 -3.80969 1.71033 0
M  V30 4604 N 444.908 -1.36708 -0.784132 0
M  V30 4605 C 446.148 -1.32618 -1.55537 0
M  V30 4606 C 446.512 0.0920681 -1.91779 0
M  V30 4607 O 447.713 0.257573 -2.67563 0
M  V30 4608 C 445.984 -2.22788 -2.79464 0
M  V30 4609 S 447.543 -2.36432 -3.69656 0
M  V30 4610 H 444.361 -0.470973 -0.53264 0
M  V30 4611 H 446.963 -1.72333 -0.92312 0
M  V30 4612 H 445.667 -3.24774 -2.50899 0
M  V30 4613 H 445.198 -1.84112 -3.47658 0
M  V30 4614 H 447.213 -1.56573 -4.7085 0
M  V30 4615 N 446.386 1.0089 -1.21074 0
M  V30 4616 C 447.797 1.56056 -1.02486 0
M  V30 4617 C 448.148 1.91728 0.416506 0
M  V30 4618 O 447.273 1.73066 1.29912 0
M  V30 4619 C 447.868 2.83563 -1.85411 0
M  V30 4620 C 446.427 3.3523 -1.71166 0
M  V30 4621 C 445.574 2.0846 -1.82865 0
M  V30 4622 H 448.525 0.831818 -1.35154 0
M  V30 4623 H 448.546 3.55286 -1.36205 0
M  V30 4624 H 448.058 2.57569 -2.9031 0
M  V30 4625 H 446.159 3.66167 -0.689361 0
M  V30 4626 H 446.272 4.06913 -2.52901 0
M  V30 4627 H 444.636 2.21275 -1.26132 0
M  V30 4628 H 445.419 1.84883 -2.89263 0
M  V30 4629 N 447.864 1.01787 1.20321 0
M  V30 4630 C 449.089 0.727009 1.9424 0
M  V30 4631 C 449.514 -0.706179 1.74341 0
M  V30 4632 O 448.872 -1.48609 1.03852 0
M  V30 4633 C 448.92 1.06958 3.44372 0
M  V30 4634 O 448.024 0.181983 4.11998 0
M  V30 4635 H 447.365 0.269626 0.606793 0
M  V30 4636 H 449.895 1.36158 1.52716 0
M  V30 4637 H 449.905 1.02182 3.94997 0
M  V30 4638 H 448.58 2.11378 3.58179 0
M  V30 4639 H 447.157 0.287378 3.71791 0
M  V30 4640 N 449.342 -1.36122 0.79427 0
M  V30 4641 C 450.59 -1.98718 0.368177 0
M  V30 4642 C 450.911 -1.63345 -1.06506 0
M  V30 4643 O 450.181 -0.909825 -1.73491 0
M  V30 4644 H 448.761 -0.735038 0.133146 0
M  V30 4645 H 451.423 -1.66239 1.01739 0
M  V30 4646 H 450.519 -3.08633 0.463923 0
M  V30 4647 N 450.82 -0.546701 -1.47814 0
M  V30 4648 C 451.767 0.206854 -2.29871 0
M  V30 4649 C 452.737 0.918235 -1.38411 0
M  V30 4650 O 453.922 0.915991 -1.67375 0
M  V30 4651 C 451.062 1.23746 -3.22151 0
M  V30 4652 C 450.175 0.533216 -4.28697 0
M  V30 4653 C 449.31 1.5482 -5.08138 0
M  V30 4654 C 448.349 0.828347 -6.06469 0
M  V30 4655 N 447.486 1.78966 -6.78908 0
M  V30 4656 H 452.326 -0.499037 -2.93792 0
M  V30 4657 H 449.863 -0.25793 -1.44821 0
M  V30 4658 H 451.821 1.84746 -3.74065 0
M  V30 4659 H 450.451 1.91151 -2.60117 0
M  V30 4660 H 449.503 -0.191089 -3.7992 0
M  V30 4661 H 450.815 -0.0311987 -4.9879 0
M  V30 4662 H 449.969 2.23202 -5.6415 0
M  V30 4663 H 448.708 2.14652 -4.37922 0
M  V30 4664 H 447.713 0.130539 -5.49645 0
M  V30 4665 H 448.938 0.235907 -6.7869 0
M  V30 4666 H 446.884 2.37675 -6.1143 0
M  V30 4667 H 446.801 1.27712 -7.45135 0
M  V30 4668 H 448.069 2.46496 -7.395 0
M  V30 4669 N 452.299 1.55045 -0.282633 0
M  V30 4670 C 453.246 2.22822 0.601566 0
M  V30 4671 C 454.216 1.20431 1.14392 0
M  V30 4672 O 455.401 1.48996 1.19184 0
M  V30 4673 C 452.541 2.95873 1.77632 0
M  V30 4674 C 451.654 4.12999 1.26711 0
M  V30 4675 C 450.789 4.73676 2.40426 0
M  V30 4676 C 449.828 5.82981 1.86545 0
M  V30 4677 N 448.965 6.3769 2.93762 0
M  V30 4678 H 453.805 2.97995 0.0169528 0
M  V30 4679 H 451.342 1.471 -0.00339964 0
M  V30 4680 H 453.3 3.36447 2.46697 0
M  V30 4681 H 451.93 2.2311 2.33285 0
M  V30 4682 H 450.982 3.77494 0.469314 0
M  V30 4683 H 452.294 4.91803 0.832518 0
M  V30 4684 H 451.448 5.17008 3.17471 0
M  V30 4685 H 450.187 3.94164 2.87203 0
M  V30 4686 H 449.192 5.39092 1.07983 0
M  V30 4687 H 450.417 6.64366 1.40694 0
M  V30 4688 H 448.363 5.61069 3.39908 0
M  V30 4689 H 448.28 7.11788 2.54744 0
M  V30 4690 H 449.548 6.8568 3.7076 0
M  V30 4691 N 453.777 0.010035 1.57597 0
M  V30 4692 C 454.74 -0.963029 2.07986 0
M  V30 4693 C 455.74 -1.26619 0.991173 0
M  V30 4694 O 456.93 -1.2097 1.25347 0
M  V30 4695 C 454.062 -2.2851 2.52974 0
M  V30 4696 H 455.255 -0.526971 2.95234 0
M  V30 4697 H 452.808 -0.237639 1.54483 0
M  V30 4698 H 453.543 -2.76784 1.69 0
M  V30 4699 H 453.328 -2.07824 3.32493 0
M  V30 4700 H 454.818 -2.98294 2.9225 0
M  V30 4701 N 455.255 -1.55392 -0.262866 0
M  V30 4702 C 456.671 -1.47459 -0.610582 0
M  V30 4703 C 456.871 -0.697031 -1.8906 0
M  V30 4704 O 455.927 -0.219952 -2.5154 0
M  V30 4705 C 457.24 -2.91751 -0.728131 0
M  V30 4706 C 458.788 -3.02027 -0.821517 0
M  V30 4707 C 459.263 -4.47594 -0.97076 0
M  V30 4708 N 460.754 -4.51465 -1.03603 0
M  V30 4709 C 461.489 -5.61326 -1.17049 0
M  V30 4710 N 460.985 -6.81032 -1.2715 0
M  V30 4711 N 462.778 -5.49089 -1.20239 0
M  V30 4712 H 454.929 -2.04395 0.577632 0
M  V30 4713 H 457.192 -0.927287 0.197086 0
M  V30 4714 H 456.898 -3.51413 0.142132 0
M  V30 4715 H 456.772 -3.4134 -1.6052 0
M  V30 4716 H 459.159 -2.42456 -1.68224 0
M  V30 4717 H 459.24 -2.55674 0.0803688 0
M  V30 4718 H 458.884 -5.07771 -0.114655 0
M  V30 4719 H 458.814 -4.91613 -1.88745 0
M  V30 4720 H 461.305 -3.6524 -0.96996 0
M  V30 4721 H 461.618 -7.60511 -1.37271 0
M  V30 4722 H 459.963 -6.83824 -1.24136 0
M  V30 4723 H 463.154 -4.54507 -1.11985 0
M  V30 4724 H 463.327 -6.34749 -1.30373 0
M  V30 4725 N 456.733 0.527833 -1.48498 0
M  V30 4726 C 457.643 1.65907 -1.65867 0
M  V30 4727 C 458.659 1.6537 -0.541192 0
M  V30 4728 O 459.835 1.84282 -0.812534 0
M  V30 4729 C 456.9 3.02364 -1.69637 0
M  V30 4730 C 455.961 3.1374 -2.93028 0
M  V30 4731 C 455.194 4.43688 -2.96609 0
M  V30 4732 O 455.417 5.30913 -2.08538 0
M  V30 4733 O 454.351 4.59475 -3.88802 0
M  V30 4734 H 458.177 1.5419 -2.61647 0
M  V30 4735 H 455.762 0.701163 -1.31924 0
M  V30 4736 H 457.644 3.83515 -1.74625 0
M  V30 4737 H 456.319 3.14401 -0.770312 0
M  V30 4738 H 455.226 2.31877 -2.93571 0
M  V30 4739 H 456.559 3.06621 -3.85026 0
M  V30 4740 N 458.211 1.37122 0.776871 0
M  V30 4741 C 459.46 1.31373 1.53049 0
M  V30 4742 C 459.773 -0.101016 1.95339 0
M  V30 4743 O 460.979 -0.280953 2.70042 0
M  V30 4744 C 459.435 2.30567 2.76346 0
M  V30 4745 C 459.043 3.77543 2.41175 0
M  V30 4746 C 460.787 2.33818 3.54301 0
M  V30 4747 C 458.694 4.68481 3.60943 0
M  V30 4748 H 457.624 0.488234 0.574581 0
M  V30 4749 H 460.275 1.62554 0.851372 0
M  V30 4750 H 458.657 1.92396 3.46121 0
M  V30 4751 H 459.831 4.24521 1.79216 0
M  V30 4752 H 458.146 3.77187 1.76405 0
M  V30 4753 H 460.743 2.98965 4.4331 0
M  V30 4754 H 461.086 1.3503 3.93793 0
M  V30 4755 H 461.619 2.7067 2.91518 0
M  V30 4756 H 458.358 5.68378 3.26537 0
M  V30 4757 H 457.878 4.2621 4.22025 0
M  V30 4758 H 459.557 4.85366 4.27819 0
M  V30 4759 N 459.689 -1.00246 1.21608 0
M  V30 4760 C 460.966 -1.71336 0.943568 0
M  V30 4761 C 461.346 -2.03972 -0.543943 0
M  V30 4762 O 460.694 -1.71545 -1.50946 0
M  V30 4763 C 460.904 -2.97094 1.83128 0
M  V30 4764 C 462.252 -3.70071 2.08165 0
M  V30 4765 O 463.276 -3.07081 1.80498 0
M  V30 4766 O 462.135 -4.83376 2.54971 0
M  V30 4767 H 459.229 -0.747386 0.354039 0
M  V30 4768 H 461.775 -1.05967 1.32549 0
M  V30 4769 H 460.547 -2.69407 2.83788 0
M  V30 4770 H 460.17 -3.70204 1.45034 0
M  V30 4771 N 461.167 -1.02423 -1.1978 0
M  V30 4772 C 462.077 -0.610919 -2.26506 0
M  V30 4773 C 463.093 0.355152 -1.70337 0
M  V30 4774 O 464.269 0.214195 -2.00258 0
M  V30 4775 C 461.334 0.0365921 -3.46681 0
M  V30 4776 C 460.395 -0.976389 -4.18049 0
M  V30 4777 C 459.628 -0.359683 -5.32487 0
M  V30 4778 O 459.851 0.838601 -5.64202 0
M  V30 4779 O 458.785 -1.08022 -5.92127 0
M  V30 4780 H 462.611 -1.49965 -2.64091 0
M  V30 4781 H 460.196 -0.794156 -1.26545 0
M  V30 4782 H 462.078 0.39786 -4.19518 0
M  V30 4783 H 460.753 0.899398 -3.10954 0
M  V30 4784 H 459.66 -1.38916 -3.47352 0
M  V30 4785 H 460.993 -1.80941 -4.57735 0
M  V30 4786 N 462.645 1.35699 -0.801477 0
M  V30 4787 C 463.87 2.03687 -0.390678 0
M  V30 4788 C 464.295 1.60015 0.988778 0
M  V30 4789 O 463.653 0.774357 1.63931 0
M  V30 4790 C 463.701 3.57439 -0.476404 0
M  V30 4791 O 462.805 4.09208 0.512106 0
M  V30 4792 H 462.146 0.64344 -0.163956 0
M  V30 4793 H 464.676 1.73403 -1.08594 0
M  V30 4794 H 464.686 4.06544 -0.344357 0
M  V30 4795 H 463.361 3.88576 -1.48262 0
M  V30 4796 H 461.938 3.7134 0.340721 0
M  V30 4797 N 464.123 0.554532 1.47522 0
M  V30 4798 C 465.053 -0.182974 2.32782 0
M  V30 4799 C 466.034 -0.911377 1.43624 0
M  V30 4800 O 467.219 -0.892366 1.72483 0
M  V30 4801 C 464.349 -1.21513 3.25349 0
M  V30 4802 C 463.303 -0.603355 4.23726 0
M  V30 4803 C 462.629 -1.73995 5.05598 0
M  V30 4804 C 463.929 0.441121 5.20434 0
M  V30 4805 H 465.623 0.52882 2.94693 0
M  V30 4806 H 463.169 0.255759 1.41711 0
M  V30 4807 H 465.122 -1.73922 3.83835 0
M  V30 4808 H 463.846 -1.95683 2.61487 0
M  V30 4809 H 462.505 -0.10059 3.66462 0
M  V30 4810 H 462.153 -2.47063 4.38143 0
M  V30 4811 H 461.853 -1.3364 5.72201 0
M  V30 4812 H 463.377 -2.26735 5.66942 0
M  V30 4813 H 464.791 0.00319931 5.733 0
M  V30 4814 H 463.188 0.763402 5.95224 0
M  V30 4815 H 464.258 1.33799 4.66075 0
M  V30 4816 N 465.601 -1.54893 0.290851 0
M  V30 4817 C 466.85 -1.99111 -0.322113 0
M  V30 4818 C 467.163 -1.18283 -1.55784 0
M  V30 4819 O 468.369 -1.5272 -2.24475 0
M  V30 4820 C 466.825 -3.54442 -0.624438 0
M  V30 4821 C 466.433 -4.44066 0.592373 0
M  V30 4822 C 468.177 -4.07211 -1.19916 0
M  V30 4823 C 466.084 -5.90812 0.263762 0
M  V30 4824 H 465.014 -0.743712 -0.124133 0
M  V30 4825 H 467.665 -1.79132 0.39797 0
M  V30 4826 H 466.047 -3.70281 -1.40384 0
M  V30 4827 H 467.221 -4.39999 1.36886 0
M  V30 4828 H 465.536 -4.02015 1.08502 0
M  V30 4829 H 468.133 -5.14407 -1.45909 0
M  V30 4830 H 468.476 -3.57196 -2.13815 0
M  V30 4831 H 469.009 -3.94873 -0.481687 0
M  V30 4832 H 465.748 -6.44955 1.17105 0
M  V30 4833 H 465.268 -5.97911 -0.475655 0
M  V30 4834 H 466.947 -6.46852 -0.138354 0
M  V30 4835 N 467.08 -0.0183926 -1.57589 0
M  V30 4836 C 468.327 0.662562 -1.91354 0
M  V30 4837 C 468.655 1.72747 -0.893788 0
M  V30 4838 O 467.91 1.9545 0.0988509 0
M  V30 4839 C 468.209 1.32676 -3.31861 0
M  V30 4840 C 467.875 0.393267 -4.49182 0
M  V30 4841 C 466.537 0.136302 -4.81007 0
M  V30 4842 C 468.889 -0.248366 -5.20608 0
M  V30 4843 C 466.217 -0.770282 -5.81621 0
M  V30 4844 C 468.569 -1.14294 -6.22189 0
M  V30 4845 C 467.233 -1.4089 -6.52462 0
M  V30 4846 H 466.503 0.242448 -0.700214 0
M  V30 4847 H 469.15 -0.0778629 -1.91342 0
M  V30 4848 H 467.455 2.14168 -3.28084 0
M  V30 4849 H 469.152 1.86001 -3.55253 0
M  V30 4850 H 465.742 0.603723 -4.24327 0
M  V30 4851 H 469.926 -0.062883 -4.9626 0
M  V30 4852 H 465.182 -0.984154 -6.03427 0
M  V30 4853 H 469.356 -1.64637 -6.76659 0
M  V30 4854 H 466.983 -2.11306 -7.30242 0
M  V30 4855 N 468.558 1.5553 0.254621 0
M  V30 4856 C 469.788 1.80784 1.00004 0
M  V30 4857 C 470.196 0.59071 1.79742 0
M  V30 4858 O 469.539 -0.449988 1.78103 0
M  V30 4859 C 469.601 2.99268 1.99196 0
M  V30 4860 C 469.265 4.35595 1.38224 0
M  V30 4861 C 470.262 5.13884 0.788611 0
M  V30 4862 C 467.947 4.82281 1.40393 0
M  V30 4863 C 469.941 6.37004 0.224783 0
M  V30 4864 C 467.628 6.05351 0.836243 0
M  V30 4865 C 468.626 6.82551 0.24769 0
M  V30 4866 O 468.314 8.03297 -0.311249 0
M  V30 4867 H 468.046 0.60565 0.300274 0
M  V30 4868 H 470.6 2.03411 0.285143 0
M  V30 4869 H 468.83 2.72377 2.74496 0
M  V30 4870 H 470.519 3.11682 2.60018 0
M  V30 4871 H 471.285 4.78938 0.764423 0
M  V30 4872 H 467.164 4.22189 1.85142 0
M  V30 4873 H 470.708 6.97203 -0.235235 0
M  V30 4874 H 466.605 6.39776 0.857733 0
M  V30 4875 H 467.373 8.1825 -0.20237 0
M  V30 4876 N 470.036 -0.519951 1.48776 0
M  V30 4877 C 470.983 -1.62352 1.64044 0
M  V30 4878 C 471.953 -1.58945 0.482251 0
M  V30 4879 O 473.138 -1.77219 0.706971 0
M  V30 4880 C 470.278 -3.00579 1.69547 0
M  V30 4881 C 469.391 -3.14145 2.96541 0
M  V30 4882 C 468.526 -4.42991 2.93142 0
M  V30 4883 C 467.565 -4.50122 4.14797 0
M  V30 4884 N 466.702 -5.7037 4.09418 0
M  V30 4885 H 471.542 -1.48643 2.58281 0
M  V30 4886 H 469.079 -0.723516 1.28077 0
M  V30 4887 H 471.037 -3.80671 1.70719 0
M  V30 4888 H 469.667 -3.13036 0.787918 0
M  V30 4889 H 468.719 -2.27239 3.05068 0
M  V30 4890 H 470.031 -3.15275 3.86527 0
M  V30 4891 H 469.185 -5.31385 2.92772 0
M  V30 4892 H 467.924 -4.44398 2.00902 0
M  V30 4893 H 466.929 -3.60133 4.15433 0
M  V30 4894 H 468.154 -4.50445 5.08208 0
M  V30 4895 H 466.1 -5.72655 3.20004 0
M  V30 4896 H 466.017 -5.73036 4.93119 0
M  V30 4897 H 467.285 -6.61023 4.13121 0
M  V30 4898 N 471.514 -1.37532 -0.769588 0
M  V30 4899 C 472.461 -1.3347 -1.88293 0
M  V30 4900 C 473.431 -0.199891 -1.64893 0
M  V30 4901 O 474.616 -0.389594 -1.8678 0
M  V30 4902 C 471.756 -1.14968 -3.25387 0
M  V30 4903 C 470.869 -2.37698 -3.60727 0
M  V30 4904 C 470.004 -2.12051 -4.8704 0
M  V30 4905 C 469.043 -3.30636 -5.15117 0
M  V30 4906 N 468.18 -3.04527 -6.3262 0
M  V30 4907 H 473.02 -2.28658 -1.911 0
M  V30 4908 H 470.557 -1.13622 -0.934257 0
M  V30 4909 H 472.515 -1.02261 -4.04473 0
M  V30 4910 H 471.145 -0.234263 -3.21949 0
M  V30 4911 H 470.197 -2.61137 -2.76608 0
M  V30 4912 H 471.509 -3.26131 -3.77413 0
M  V30 4913 H 470.663 -1.96388 -5.74035 0
M  V30 4914 H 469.402 -1.20959 -4.72462 0
M  V30 4915 H 468.407 -3.46836 -4.26597 0
M  V30 4916 H 469.632 -4.22582 -5.31603 0
M  V30 4917 H 467.578 -2.16067 -6.19396 0
M  V30 4918 H 467.495 -3.86503 -6.49732 0
M  V30 4919 H 468.763 -2.92485 -7.22546 0
M  V30 4920 N 472.992 0.995999 -1.22138 0
M  V30 4921 C 474.238 1.7386 -1.05567 0
M  V30 4922 C 474.593 1.8808 0.405418 0
M  V30 4923 O 473.886 1.41062 1.29661 0
M  V30 4924 C 474.08 3.14553 -1.6968 0
M  V30 4925 C 473.909 3.14053 -3.21871 0
M  V30 4926 C 472.679 3.20121 -3.90961 0
M  V30 4927 C 474.877 2.98451 -4.18845 0
M  V30 4928 N 472.859 3.09342 -5.30265 0
M  V30 4929 C 474.23 2.95667 -5.4496 0
M  V30 4930 C 476.285 2.8282 -4.09777 0
M  V30 4931 C 474.988 2.78852 -6.63049 0
M  V30 4932 C 477.014 2.67364 -5.27513 0
M  V30 4933 C 476.376 2.65264 -6.52544 0
M  V30 4934 H 472.475 0.645989 -0.440706 0
M  V30 4935 H 475.059 1.1831 -1.54631 0
M  V30 4936 H 473.23 3.68353 -1.2317 0
M  V30 4937 H 474.962 3.77358 -1.4623 0
M  V30 4938 H 471.717 3.27679 -3.4194 0
M  V30 4939 H 472.141 3.0727 -6.03253 0
M  V30 4940 H 476.783 2.83243 -3.139 0
M  V30 4941 H 474.501 2.77175 -7.59078 0
M  V30 4942 H 478.087 2.56256 -5.22326 0
M  V30 4943 H 476.967 2.5345 -7.42114 0
M  V30 4944 N 474.47 1.03057 1.19235 0
M  V30 4945 C 475.38 0.622922 2.26179 0
M  V30 4946 C 476.396 -0.346113 1.70523 0
M  V30 4947 O 477.572 -0.203572 2.00369 0
M  V30 4948 C 474.637 -0.0182063 3.46695 0
M  V30 4949 C 473.698 0.998546 4.17526 0
M  V30 4950 C 472.931 0.387917 5.32288 0
M  V30 4951 O 473.154 -0.808668 5.64639 0
M  V30 4952 O 472.088 1.1116 5.91546 0
M  V30 4953 H 475.914 1.51363 2.63292 0
M  V30 4954 H 473.499 0.800856 1.26122 0
M  V30 4955 H 475.381 -0.375606 4.19723 0
M  V30 4956 H 474.056 -0.882895 3.11427 0
M  V30 4957 H 472.963 1.40756 3.4661 0
M  V30 4958 H 474.296 1.83366 4.56769 0
M  V30 4959 N 475.948 -1.35272 0.808662 0
M  V30 4960 C 476.878 -2.32315 0.234981 0
M  V30 4961 C 477.859 -1.57572 -0.64071 0
M  V30 4962 O 479.044 -1.8563 -0.570551 0
M  V30 4963 C 476.174 -3.41801 -0.615601 0
M  V30 4964 C 475.128 -4.27694 0.161767 0
M  V30 4965 C 474.454 -5.28519 -0.810649 0
M  V30 4966 C 475.754 -5.04231 1.36193 0
M  V30 4967 H 477.448 -2.80543 1.04575 0
M  V30 4968 H 474.994 -1.3488 0.504315 0
M  V30 4969 H 476.947 -4.08693 -1.02702 0
M  V30 4970 H 475.671 -2.92186 -1.45928 0
M  V30 4971 H 474.33 -3.62384 0.554382 0
M  V30 4972 H 473.978 -4.75171 -1.64988 0
M  V30 4973 H 473.678 -5.8686 -0.294822 0
M  V30 4974 H 475.202 -5.98283 -1.22023 0
M  V30 4975 H 476.616 -5.64058 1.02528 0
M  V30 4976 H 475.013 -5.72077 1.81239 0
M  V30 4977 H 476.083 -4.34753 2.14751 0
M  V30 4978 N 477.426 -0.562348 -1.47226 0
M  V30 4979 C 478.336 0.185466 -2.33866 0
M  V30 4980 C 479.352 0.906713 -1.48508 0
M  V30 4981 O 480.528 0.874458 -1.81425 0
M  V30 4982 C 477.593 1.19904 -3.25306 0
M  V30 4983 C 476.654 0.484669 -4.26555 0
M  V30 4984 C 475.887 1.44996 -5.13626 0
M  V30 4985 O 476.11 2.68515 -5.03245 0
M  V30 4986 O 475.044 0.971642 -5.94006 0
M  V30 4987 H 478.87 -0.525361 -2.99121 0
M  V30 4988 H 476.455 -0.322916 -1.45868 0
M  V30 4989 H 478.337 1.78399 -3.81774 0
M  V30 4990 H 477.012 1.8917 -2.62672 0
M  V30 4991 H 475.919 -0.141605 -3.73832 0
M  V30 4992 H 477.252 -0.166634 -4.91918 0
M  V30 4993 N 478.904 1.54736 -0.299062 0
M  V30 4994 C 479.867 2.22127 0.565012 0
M  V30 4995 C 480.867 1.20669 1.06281 0
M  V30 4996 O 482.057 1.45417 0.959145 0
M  V30 4997 C 479.189 2.90611 1.78208 0
M  V30 4998 H 480.382 2.99891 -0.0237448 0
M  V30 4999 H 477.935 1.5622 -0.0498788 0
M  V30 5000 H 478.67 2.16921 2.41072 0
M  V30 5001 H 478.455 3.64984 1.43281 0
M  V30 5002 H 479.945 3.42026 2.396 0
M  V30 5003 N 480.382 0.0267497 1.57577 0
M  V30 5004 C 481.622 -0.65659 1.93567 0
M  V30 5005 C 481.986 -1.69429 0.903213 0
M  V30 5006 O 483.187 -2.42994 1.14923 0
M  V30 5007 C 481.458 -1.25912 3.34486 0
M  V30 5008 S 483.017 -1.96386 3.924 0
M  V30 5009 H 479.835 -0.216237 0.67732 0
M  V30 5010 H 482.437 0.0898475 1.95293 0
M  V30 5011 H 481.141 -0.491405 4.07447 0
M  V30 5012 H 480.672 -2.04291 3.36198 0
M  V30 5013 H 482.687 -3.24202 3.75643 0
M  V30 5014 N 481.861 -1.55662 -0.24637 0
M  V30 5015 C 483.107 -1.77782 -0.975779 0
M  V30 5016 C 483.44 -0.592103 -1.84953 0
M  V30 5017 O 482.715 0.409588 -1.90138 0
M  V30 5018 C 482.998 -3.09788 -1.83584 0
M  V30 5019 C 482.851 -4.38764 -0.990241 0
M  V30 5020 C 484.17 -3.38029 -2.81823 0
M  V30 5021 H 481.289 -0.646789 -0.353317 0
M  V30 5022 H 483.931 -1.88398 -0.246248 0
M  V30 5023 H 482.081 -3.00869 -2.45784 0
M  V30 5024 H 483.753 -4.59675 -0.386897 0
M  V30 5025 H 481.996 -4.32798 -0.294626 0
M  V30 5026 H 482.667 -5.27514 -1.62584 0
M  V30 5027 H 485.143 -3.46915 -2.2976 0
M  V30 5028 H 484.019 -4.3161 -3.39122 0
M  V30 5029 H 484.28 -2.58968 -3.58313 0
M  V30 5030 N 483.339 0.512053 -1.4905 0
M  V30 5031 C 484.616 1.27337 -1.48474 0
M  V30 5032 C 484.996 2.1009 -0.206301 0
M  V30 5033 O 484.344 2.136 0.811609 0
M  V30 5034 C 484.554 2.13954 -2.75726 0
M  V30 5035 C 485.902 2.73507 -3.24776 0
M  V30 5036 O 486.926 2.24229 -2.76767 0
M  V30 5037 O 485.785 3.63186 -4.08361 0
M  V30 5038 H 482.879 0.575652 -0.593762 0
M  V30 5039 H 485.425 0.527232 -1.61302 0
M  V30 5040 H 484.197 1.52709 -3.60272 0
M  V30 5041 H 483.82 2.95782 -2.65705 0
M  V30 5042 N 484.817 1.37938 0.762283 0
M  V30 5043 C 485.78 1.34279 1.85747 0
M  V30 5044 C 486.78 0.244969 1.58923 0
M  V30 5045 O 487.97 0.501365 1.66829 0
M  V30 5046 C 485.102 1.08833 3.23061 0
M  V30 5047 H 486.295 2.31705 1.90401 0
M  V30 5048 H 483.848 1.23105 0.963057 0
M  V30 5049 H 484.583 0.119767 3.24079 0
M  V30 5050 H 484.368 1.88306 3.43923 0
M  V30 5051 H 485.858 1.08946 4.03138 0
M  V30 5052 N 486.295 -0.989507 1.22664 0
M  V30 5053 C 487.258 -2.06183 1.00106 0
M  V30 5054 C 488.258 -1.60765 -0.0337726 0
M  V30 5055 O 489.448 -1.72989 0.205072 0
M  V30 5056 C 486.58 -3.37021 0.51279 0
M  V30 5057 H 487.773 -2.27629 1.95256 0
M  V30 5058 H 485.326 -1.16158 1.0458 0
M  V30 5059 H 486.061 -3.21261 -0.442917 0
M  V30 5060 H 485.846 -3.71323 1.25942 0
M  V30 5061 H 487.336 -4.1591 0.375315 0
M  V30 5062 N 487.773 -1.03688 -1.18687 0
M  V30 5063 C 488.703 -0.645407 -2.24403 0
M  V30 5064 C 489.684 0.349511 -1.66471 0
M  V30 5065 O 490.869 0.230453 -1.92828 0
M  V30 5066 C 487.999 -0.00365337 -3.473 0
M  V30 5067 C 486.953 -0.921705 -4.17958 0
M  V30 5068 C 486.279 -0.144629 -5.34504 0
M  V30 5069 C 487.579 -2.23909 -4.71871 0
M  V30 5070 H 489.273 -1.52917 -2.57404 0
M  V30 5071 H 486.819 -0.736711 -1.23728 0
M  V30 5072 H 488.772 0.281908 -4.20456 0
M  V30 5073 H 487.496 0.914963 -3.13522 0
M  V30 5074 H 486.155 -1.19159 -3.46694 0
M  V30 5075 H 485.803 0.776274 -4.96974 0
M  V30 5076 H 485.503 -0.756206 -5.82714 0
M  V30 5077 H 487.027 0.134004 -6.10453 0
M  V30 5078 H 488.441 -2.0145 -5.36741 0
M  V30 5079 H 486.838 -2.8033 -5.30599 0
M  V30 5080 H 487.908 -2.88822 -3.895 0
M  V30 5081 N 489.251 1.34841 -0.815825 0
M  V30 5082 C 490.181 2.32187 -0.247298 0
M  V30 5083 C 491.162 1.5791 0.632344 0
M  V30 5084 O 492.347 1.8593 0.560698 0
M  V30 5085 C 489.477 3.42122 0.597466 0
M  V30 5086 C 488.431 4.27602 -0.184446 0
M  V30 5087 C 487.757 5.28942 0.782609 0
M  V30 5088 C 489.057 5.03502 -1.38865 0
M  V30 5089 H 490.751 2.79985 -1.06061 0
M  V30 5090 H 488.297 1.34611 -0.511461 0
M  V30 5091 H 490.25 4.09232 1.00533 0
M  V30 5092 H 488.974 2.92956 1.44376 0
M  V30 5093 H 487.633 3.62085 -0.573592 0
M  V30 5094 H 487.281 4.7604 1.62466 0
M  V30 5095 H 486.981 5.87008 0.263695 0
M  V30 5096 H 488.505 5.98922 1.18848 0
M  V30 5097 H 489.919 5.63506 -1.05518 0
M  V30 5098 H 488.316 5.71108 -1.8427 0
M  V30 5099 H 489.386 4.33608 -2.17054 0
M  V30 5100 N 490.729 0.570148 1.46925 0
M  V30 5101 C 491.692 -0.159933 2.28641 0
M  V30 5102 C 492.692 -0.830638 1.37685 0
M  V30 5103 O 493.882 -0.684516 1.60187 0
M  V30 5104 C 491.014 -1.2354 3.17727 0
M  V30 5105 H 492.207 0.558035 2.94662 0
M  V30 5106 H 489.76 0.327603 1.52828 0
M  V30 5107 H 490.495 -1.98535 2.56426 0
M  V30 5108 H 490.28 -0.759125 3.84681 0
M  V30 5109 H 491.77 -1.74782 3.79264 0
M  V30 5110 N 492.207 -1.54576 0.307264 0
M  V30 5111 C 493.435 -2.04675 -0.302597 0
M  V30 5112 C 493.85 -1.18425 -1.47041 0
M  V30 5113 O 493.207 -0.211257 -1.81273 0
M  V30 5114 C 493.258 -3.53575 -0.752801 0
M  V30 5115 O 492.979 -4.36547 0.368536 0
M  V30 5116 C 494.48 -4.19699 -1.42717 0
M  V30 5117 H 491.7 -0.66786 -0.0648374 0
M  V30 5118 H 494.244 -1.99516 0.448716 0
M  V30 5119 H 492.399 -3.59074 -1.45412 0
M  V30 5120 H 492.813 -5.24497 0.0168937 0
M  V30 5121 H 494.287 -5.25388 -1.69327 0
M  V30 5122 H 494.764 -3.69815 -2.36925 0
M  V30 5123 H 495.37 -4.18293 -0.768856 0
M  V30 5124 N 493.685 -0.035106 -1.57561 0
M  V30 5125 C 494.617 0.973604 -2.07494 0
M  V30 5126 C 495.63 1.28504 -0.999534 0
M  V30 5127 O 496.819 1.24864 -1.27559 0
M  V30 5128 C 493.919 2.29945 -2.48955 0
M  V30 5129 C 493.092 2.1723 -3.79644 0
M  V30 5130 C 492.151 3.328 -4.07592 0
M  V30 5131 O 491.177 3.09418 -4.77754 0
M  V30 5132 N 492.379 4.56779 -3.58236 0
M  V30 5133 H 495.144 0.547525 -2.94656 0
M  V30 5134 H 492.705 0.151515 -1.61189 0
M  V30 5135 H 494.697 3.06097 -2.64739 0
M  V30 5136 H 493.267 2.64173 -1.67126 0
M  V30 5137 H 492.487 1.25768 -3.73599 0
M  V30 5138 H 493.775 2.05945 -4.65257 0
M  V30 5139 H 493.173 4.78668 -3.01485 0
M  V30 5140 H 491.73 5.30079 -3.79288 0
M  V30 5141 N 495.163 1.55791 0.238111 0
M  V30 5142 C 496.096 1.86036 1.32158 0
M  V30 5143 C 497.074 0.716216 1.45976 0
M  V30 5144 O 498.258 0.962882 1.62052 0
M  V30 5145 C 495.385 2.05281 2.69402 0
M  V30 5146 C 494.431 3.27939 2.72687 0
M  V30 5147 S 495.264 4.84342 2.28413 0
M  V30 5148 C 496.42 5.06604 3.67565 0
M  V30 5149 H 496.653 2.77644 1.06306 0
M  V30 5150 H 494.186 1.48012 0.439537 0
M  V30 5151 H 496.144 2.17053 3.48423 0
M  V30 5152 H 494.805 1.14499 2.92487 0
M  V30 5153 H 493.998 3.38398 3.73501 0
M  V30 5154 H 493.6 3.14938 2.01717 0
M  V30 5155 H 495.892 4.94486 4.6313 0
M  V30 5156 H 496.835 6.08554 3.62033 0
M  V30 5157 H 497.243 4.34409 3.60485 0
M  V30 5158 N 496.642 -0.504142 1.49319 0
M  V30 5159 C 497.919 -1.26548 1.49147 0
M  V30 5160 C 498.299 -2.09977 0.21744 0
M  V30 5161 O 497.647 -2.14028 -0.800269 0
M  V30 5162 C 497.857 -2.12489 2.76857 0
M  V30 5163 C 499.205 -2.7178 3.26222 0
M  V30 5164 O 500.229 -2.22758 2.77952 0
M  V30 5165 O 499.088 -3.61015 4.10281 0
M  V30 5166 H 496.182 -0.572495 0.596806 0
M  V30 5167 H 498.728 -0.51867 1.61579 0
M  V30 5168 H 497.5 -1.50796 3.61077 0
M  V30 5169 H 497.123 -2.94368 2.6727 0
M  V30 5170 N 498.12 -1.38341 -0.754957 0
M  V30 5171 C 499.536 -1.19508 -1.05783 0
M  V30 5172 C 499.736 -0.0428005 -2.01455 0
M  V30 5173 O 498.792 0.611861 -2.44975 0
M  V30 5174 C 500.105 -2.52091 -1.63923 0
M  V30 5175 C 501.653 -2.58762 -1.76101 0
M  V30 5176 C 502.128 -3.91517 -2.37652 0
M  V30 5177 N 503.619 -3.93049 -2.45085 0
M  V30 5178 C 504.354 -4.9253 -2.93602 0
M  V30 5179 N 503.85 -6.02408 -3.42165 0
M  V30 5180 N 505.643 -4.79921 -2.92629 0
M  V30 5181 H 497.794 -2.1206 -0.120056 0
M  V30 5182 H 500.057 -0.94089 -0.11589 0
M  V30 5183 H 499.763 -3.36858 -1.01093 0
M  V30 5184 H 499.637 -2.70388 -2.63003 0
M  V30 5185 H 502.024 -1.74391 -2.38058 0
M  V30 5186 H 502.105 -2.44333 -0.757294 0
M  V30 5187 H 501.749 -4.76309 -1.76329 0
M  V30 5188 H 501.679 -4.03256 -3.38662 0
M  V30 5189 H 504.17 -3.13685 -2.10736 0
M  V30 5190 H 504.483 -6.74248 -3.77637 0
M  V30 5191 H 502.828 -6.0603 -3.40225 0
M  V30 5192 H 506.019 -3.93194 -2.54001 0
M  V30 5193 H 506.192 -5.57601 -3.30128 0
M  V30 5194 N 499.598 0.982988 -1.23187 0
M  V30 5195 C 500.844 1.72648 -1.06398 0
M  V30 5196 C 501.177 1.90066 0.398561 0
M  V30 5197 O 500.452 1.45105 1.29518 0
M  V30 5198 C 500.735 3.12627 -1.78707 0
M  V30 5199 C 500.588 3.02795 -3.32618 0
M  V30 5200 C 501.907 4.11997 -1.54747 0
M  V30 5201 H 499.026 0.626649 -0.387918 0
M  V30 5202 H 501.668 1.14455 -1.51658 0
M  V30 5203 H 499.818 3.62308 -1.40234 0
M  V30 5204 H 501.49 2.60659 -3.80598 0
M  V30 5205 H 499.733 2.39362 -3.61785 0
M  V30 5206 H 500.404 4.01893 -3.78399 0
M  V30 5207 H 502.88 3.71114 -1.88186 0
M  V30 5208 H 501.756 5.08037 -2.07821 0
M  V30 5209 H 502.017 4.39462 -0.482249 0
M  V30 5210 N 501.076 1.04316 1.18135 0
M  V30 5211 C 502.024 0.630175 2.23901 0
M  V30 5212 C 503.018 -0.344254 1.65865 0
M  V30 5213 O 504.224 -0.211273 1.78756 0
M  V30 5214 H 500.599 0.185578 0.728742 0
M  V30 5215 H 502.57 1.53253 2.56039 0
M  V30 5216 C 501.319 0.011666 3.47698 0
M  V30 5217 H 500.642 0.752526 3.92654 0
M  V30 5218 H 502.082 -0.240046 4.2332 0
M  V30 5219 C 500.541 -1.23913 3.13285 0
M  V30 5220 O 501.071 -2.32959 3.27251 0
M  V30 5221 N 499.277 -1.13338 2.67587 0
M  V30 5222 H 498.824 -0.246006 2.56423 0
M  V30 5223 H 498.782 -1.97116 2.44934 0
M  V30 5224 N 502.554 -1.34406 0.822964 0
M  V30 5225 C 503.517 -2.2783 0.250271 0
M  V30 5226 C 504.517 -1.50288 -0.571854 0
M  V30 5227 O 505.707 -1.69825 -0.387952 0
M  V30 5228 C 502.839 -3.34663 -0.649137 0
M  V30 5229 H 504.032 -2.79992 1.07444 0
M  V30 5230 H 501.585 -1.44539 0.594829 0
M  V30 5231 H 502.32 -2.87714 -1.49637 0
M  V30 5232 H 502.105 -3.92052 -0.0611199 0
M  V30 5233 H 503.595 -4.04349 -1.04363 0
M  V30 5234 N 504.032 -0.577932 -1.46621 0
M  V30 5235 C 505.281 -0.0594281 -2.01612 0
M  V30 5236 C 505.594 1.30663 -1.45556 0
M  V30 5237 O 506.8 1.91621 -1.92337 0
M  V30 5238 C 505.256 -0.0556666 -3.59857 0
M  V30 5239 C 504.864 -1.41975 -4.24908 0
M  V30 5240 C 506.608 0.409143 -4.22524 0
M  V30 5241 C 504.515 -1.37397 -5.75218 0
M  V30 5242 H 503.445 -0.0184469 -0.753774 0
M  V30 5243 H 506.096 -0.728869 -1.68404 0
M  V30 5244 H 504.478 0.679843 -3.90121 0
M  V30 5245 H 505.652 -2.17461 -4.0626 0
M  V30 5246 H 503.967 -1.82419 -3.74316 0
M  V30 5247 H 506.564 0.46211 -5.32699 0
M  V30 5248 H 506.907 1.42565 -3.91128 0
M  V30 5249 H 507.44 -0.272152 -3.96868 0
M  V30 5250 H 504.179 -2.36714 -6.11267 0
M  V30 5251 H 503.699 -0.661239 -5.96144 0
M  V30 5252 H 505.378 -1.08484 -6.3784 0
M  V30 5253 N 505.51 1.54411 -0.315457 0
M  V30 5254 C 506.921 1.85885 0.174265 0
M  V30 5255 C 507.272 1.23723 1.52273 0
M  V30 5256 O 506.397 0.540246 2.09548 0
M  V30 5257 C 506.992 3.37257 0.322981 0
M  V30 5258 C 505.551 3.68711 0.756922 0
M  V30 5259 C 504.698 2.77013 -0.126195 0
M  V30 5260 H 507.649 1.49374 -0.536007 0
M  V30 5261 H 507.67 3.62539 1.15522 0
M  V30 5262 H 507.182 3.82471 -0.658602 0
M  V30 5263 H 505.283 3.29024 1.74854 0
M  V30 5264 H 505.396 4.75741 0.566291 0
M  V30 5265 H 503.76 2.51588 0.39692 0
M  V30 5266 H 504.543 3.25051 -1.1044 0
M  V30 5267 N 506.988 0.0434614 1.5754 0
M  V30 5268 C 508.235 -0.632035 1.92384 0
M  V30 5269 C 508.563 -1.71304 0.921157 0
M  V30 5270 O 507.818 -1.95583 -0.067744 0
M  V30 5271 C 508.117 -1.2738 3.3393 0
M  V30 5272 C 507.783 -0.321757 4.49751 0
M  V30 5273 C 506.445 -0.0597611 4.81163 0
M  V30 5274 C 508.797 0.331158 5.20147 0
M  V30 5275 C 506.125 0.862715 5.80322 0
M  V30 5276 C 508.477 1.24178 6.20292 0
M  V30 5277 C 507.141 1.51252 6.50138 0
M  V30 5278 H 506.411 -0.231278 0.703983 0
M  V30 5279 H 509.058 0.108294 1.91194 0
M  V30 5280 H 507.363 -2.08921 3.3145 0
M  V30 5281 H 509.06 -1.80326 3.58167 0
M  V30 5282 H 505.65 -0.53614 4.25233 0
M  V30 5283 H 509.834 0.141826 4.96097 0
M  V30 5284 H 505.09 1.08003 6.01785 0
M  V30 5285 H 509.264 1.75381 6.73954 0
M  V30 5286 H 506.891 2.22897 7.26788 0
M  V30 5287 N 508.466 -1.55915 -0.229846 0
M  V30 5288 C 509.694 -1.82617 -0.972562 0
M  V30 5289 C 510.109 -0.621488 -1.78278 0
M  V30 5290 O 509.466 0.409956 -1.77836 0
M  V30 5291 C 509.517 -3.0774 -1.89679 0
M  V30 5292 O 509.238 -4.23559 -1.11934 0
M  V30 5293 C 510.739 -3.47368 -2.75409 0
M  V30 5294 H 507.959 -0.60727 -0.285419 0
M  V30 5295 H 510.503 -2.02996 -0.247579 0
M  V30 5296 H 508.658 -2.89361 -2.57583 0
M  V30 5297 H 509.072 -4.94586 -1.74599 0
M  V30 5298 H 510.546 -4.37977 -3.35977 0
M  V30 5299 H 511.023 -2.68737 -3.47386 0
M  V30 5300 H 511.629 -3.68158 -2.12931 0
M  V30 5301 N 509.944 0.496216 -1.49584 0
M  V30 5302 C 511.174 1.27209 -1.62793 0
M  V30 5303 C 511.582 1.86799 -0.300476 0
M  V30 5304 O 510.925 1.68802 0.724674 0
M  V30 5305 C 510.987 2.43812 -2.64189 0
M  V30 5306 C 510.651 2.05055 -4.08414 0
M  V30 5307 C 511.648 1.58752 -4.9507 0
M  V30 5308 C 509.333 2.14543 -4.54177 0
M  V30 5309 C 511.327 1.22448 -6.25528 0
M  V30 5310 C 509.014 1.77851 -5.84647 0
M  V30 5311 C 510.012 1.31878 -6.70147 0
M  V30 5312 O 509.7 0.956834 -7.98185 0
M  V30 5313 H 509.432 0.391848 -0.550846 0
M  V30 5314 H 511.986 0.601712 -1.96389 0
M  V30 5315 H 510.216 3.13941 -2.25783 0
M  V30 5316 H 511.905 3.05829 -2.66877 0
M  V30 5317 H 512.671 1.50863 -4.60939 0
M  V30 5318 H 508.55 2.49277 -3.87791 0
M  V30 5319 H 512.094 0.864933 -6.92217 0
M  V30 5320 H 507.991 1.8539 -6.18305 0
M  V30 5321 H 508.759 1.08789 -8.11238 0
M  V30 5322 N 511.423 1.38739 0.74761 0
M  V30 5323 C 512.333 1.38696 1.89211 0
M  V30 5324 C 513.349 0.283303 1.71678 0
M  V30 5325 O 514.525 0.522713 1.94498 0
M  V30 5326 C 511.59 1.21662 3.24653 0
M  V30 5327 C 510.651 2.41886 3.54669 0
M  V30 5328 C 509.884 2.25655 4.83648 0
M  V30 5329 O 510.107 1.25339 5.56459 0
M  V30 5330 O 509.041 3.14372 5.13277 0
M  V30 5331 H 512.867 2.35143 1.92202 0
M  V30 5332 H 510.452 1.19721 0.893708 0
M  V30 5333 H 512.334 1.14246 4.05618 0
M  V30 5334 H 511.009 0.283024 3.2246 0
M  V30 5335 H 509.916 2.54877 2.73841 0
M  V30 5336 H 511.249 3.33895 3.61628 0
M  V30 5337 N 512.901 -0.976442 1.23707 0
M  V30 5338 C 513.833 -2.07212 0.979574 0
M  V30 5339 C 514.846 -1.6273 -0.0478528 0
M  V30 5340 O 516.035 -1.77506 0.18815 0
M  V30 5341 C 513.135 -3.35835 0.45479 0
M  V30 5342 C 512.308 -4.09268 1.54331 0
M  V30 5343 C 511.367 -5.16166 1.02271 0
M  V30 5344 O 510.393 -5.42827 1.71254 0
M  V30 5345 N 511.595 -5.80313 -0.147419 0
M  V30 5346 H 514.36 -2.29878 1.92292 0
M  V30 5347 H 511.921 -1.14343 1.14618 0
M  V30 5348 H 513.913 -4.04597 0.0914631 0
M  V30 5349 H 512.483 -3.10106 -0.394068 0
M  V30 5350 H 511.703 -3.34906 2.07923 0
M  V30 5351 H 512.991 -4.55095 2.27522 0
M  V30 5352 H 512.389 -5.61043 -0.724353 0
M  V30 5353 H 510.946 -6.50231 -0.451972 0
M  V30 5354 N 514.379 -1.04941 -1.1758 0
M  V30 5355 C 515.309 -0.669172 -2.23706 0
M  V30 5356 C 516.29 0.331835 -1.66832 0
M  V30 5357 O 517.475 0.209988 -1.93061 0
M  V30 5358 C 514.605 -0.0404889 -3.47276 0
M  V30 5359 C 513.559 -0.965983 -4.16957 0
M  V30 5360 C 512.885 -0.201312 -5.34321 0
M  V30 5361 C 514.185 -2.28902 -4.69469 0
M  V30 5362 H 515.879 -1.55639 -2.55767 0
M  V30 5363 H 513.425 -0.749793 -1.22939 0
M  V30 5364 H 515.378 0.237298 -4.20731 0
M  V30 5365 H 514.102 0.881658 -3.14475 0
M  V30 5366 H 512.761 -1.22829 -3.45411 0
M  V30 5367 H 512.409 0.723519 -4.97769 0
M  V30 5368 H 512.109 -0.817968 -5.81879 0
M  V30 5369 H 513.633 0.0692499 -6.10561 0
M  V30 5370 H 515.047 -2.07132 -5.34574 0
M  V30 5371 H 513.444 -2.85942 -5.27596 0
M  V30 5372 H 514.514 -2.92937 -3.86414 0
M  V30 5373 N 515.857 1.33968 -0.830081 0
M  V30 5374 C 517.134 1.92554 -0.343858 0
M  V30 5375 C 517.514 1.7573 1.16971 0
M  V30 5376 O 516.862 1.14035 1.98011 0
M  V30 5377 C 517.072 3.40147 -0.781073 0
M  V30 5378 C 518.42 4.17299 -0.78402 0
M  V30 5379 O 519.444 3.48762 -0.724112 0
M  V30 5380 O 518.303 5.39631 -0.863739 0
M  V30 5381 H 515.397 0.821469 -0.0954827 0
M  V30 5382 H 517.943 1.42897 -0.915348 0
M  V30 5383 H 516.715 3.46225 -1.82329 0
M  V30 5384 H 516.338 3.97166 -0.18567 0
M  V30 5385 N 517.335 0.585699 1.46312 0
M  V30 5386 C 518.581 0.0725284 2.0267 0
M  V30 5387 C 518.914 -1.28523 1.45586 0
M  V30 5388 O 518.189 -1.84283 0.622101 0
M  V30 5389 C 518.472 0.0099788 3.60099 0
M  V30 5390 C 518.325 1.39685 4.27561 0
M  V30 5391 C 519.644 -0.689117 4.34671 0
M  V30 5392 H 516.763 0.0278307 0.736474 0
M  V30 5393 H 519.405 0.753472 1.74421 0
M  V30 5394 H 517.555 -0.56992 3.84297 0
M  V30 5395 H 519.227 2.02215 4.14617 0
M  V30 5396 H 517.47 1.96374 3.86807 0
M  V30 5397 H 518.141 1.30553 5.36339 0
M  V30 5398 H 520.617 -0.196446 4.15636 0
M  V30 5399 H 519.493 -0.701921 5.44393 0
M  V30 5400 H 519.754 -1.75101 4.05946 0
M  V30 5401 N 518.813 -1.54241 0.323641 0
M  V30 5402 C 519.743 -2.27289 -0.534993 0
M  V30 5403 C 520.724 -1.28087 -1.11927 0
M  V30 5404 O 521.909 -1.56899 -1.14439 0
M  V30 5405 C 519.039 -3.03075 -1.69596 0
M  V30 5406 C 517.993 -4.09614 -1.24098 0
M  V30 5407 C 517.319 -4.73242 -2.4889 0
M  V30 5408 C 518.619 -5.21087 -0.355789 0
M  V30 5409 H 520.313 -2.99308 0.0743257 0
M  V30 5410 H 517.859 -1.43952 0.0371874 0
M  V30 5411 H 519.812 -3.52907 -2.30293 0
M  V30 5412 H 518.536 -2.28673 -2.33187 0
M  V30 5413 H 517.195 -3.60666 -0.656945 0
M  V30 5414 H 516.843 -3.95455 -3.10845 0
M  V30 5415 H 516.543 -5.45209 -2.19138 0
M  V30 5416 H 518.067 -5.25848 -3.10348 0
M  V30 5417 H 519.481 -5.66675 -0.869042 0
M  V30 5418 H 517.878 -5.9991 -0.151045 0
M  V30 5419 H 518.948 -4.81005 0.613339 0
M  V30 5420 N 520.291 -0.0518155 -1.57515 0
M  V30 5421 C 521.238 0.922352 -2.11569 0
M  V30 5422 C 522.208 1.30842 -1.02321 0
M  V30 5423 O 523.393 1.39778 -1.29872 0
M  V30 5424 C 520.533 2.19167 -2.6657 0
M  V30 5425 C 519.646 1.86003 -3.89906 0
M  V30 5426 C 518.781 3.07398 -4.33221 0
M  V30 5427 C 517.82 2.70158 -5.49255 0
M  V30 5428 N 516.957 3.84248 -5.8762 0
M  V30 5429 H 521.797 0.454506 -2.94514 0
M  V30 5430 H 519.334 0.212718 -1.45554 0
M  V30 5431 H 521.292 2.93443 -2.96559 0
M  V30 5432 H 519.922 2.63528 -1.86421 0
M  V30 5433 H 518.974 1.01874 -3.66505 0
M  V30 5434 H 520.286 1.54592 -4.74239 0
M  V30 5435 H 519.44 3.89972 -4.64765 0
M  V30 5436 H 518.179 3.41988 -3.477 0
M  V30 5437 H 517.184 1.86001 -5.17382 0
M  V30 5438 H 518.409 2.36759 -6.36492 0
M  V30 5439 H 516.355 4.18638 -5.05053 0
M  V30 5440 H 516.272 3.56538 -6.66646 0
M  V30 5441 H 517.54 4.6746 -6.2378 0
M  V30 5442 N 521.769 1.56035 0.221574 0
M  V30 5443 C 522.719 1.8881 1.27807 0
M  V30 5444 C 523.703 0.751177 1.42289 0
M  V30 5445 O 524.895 1.01359 1.45104 0
M  V30 5446 C 522.024 2.20828 2.6285 0
M  V30 5447 C 521.11 3.40912 2.52269 0
M  V30 5448 N 521.501 4.59531 2.1134 0
M  V30 5449 C 519.799 3.44526 2.83228 0
M  V30 5450 C 520.5 5.41689 2.1201 0
M  V30 5451 N 519.476 4.814 2.52497 0
M  V30 5452 H 523.278 2.78036 0.952529 0
M  V30 5453 H 520.792 1.566 0.430134 0
M  V30 5454 H 522.789 2.42483 3.39127 0
M  V30 5455 H 521.449 1.32914 2.9625 0
M  V30 5456 H 522.46 4.8469 1.82472 0
M  V30 5457 H 519.137 2.66956 3.21 0
M  V30 5458 H 520.527 6.46643 1.82491 0
M  V30 5459 N 523.247 -0.488276 1.49845 0
M  V30 5460 C 524.194 -1.58836 1.67451 0
M  V30 5461 C 525.164 -1.57886 0.515857 0
M  V30 5462 O 526.349 -1.75679 0.744403 0
M  V30 5463 C 523.489 -2.96915 1.75885 0
M  V30 5464 C 522.602 -3.07784 3.03138 0
M  V30 5465 C 521.737 -4.36673 3.02473 0
M  V30 5466 C 520.776 -4.41222 4.24252 0
M  V30 5467 N 519.913 -5.61557 4.21424 0
M  V30 5468 H 524.753 -1.43131 2.61376 0
M  V30 5469 H 522.29 -0.696186 1.29583 0
M  V30 5470 H 524.248 -3.76965 1.78755 0
M  V30 5471 H 522.878 -3.11295 0.85414 0
M  V30 5472 H 521.93 -2.20717 3.09819 0
M  V30 5473 H 523.242 -3.07005 3.93128 0
M  V30 5474 H 522.396 -5.25055 3.03977 0
M  V30 5475 H 521.135 -4.40037 2.10283 0
M  V30 5476 H 520.14 -3.5124 4.22978 0
M  V30 5477 H 521.365 -4.39564 5.17649 0
M  V30 5478 H 519.311 -5.65738 3.32078 0
M  V30 5479 H 519.228 -5.62447 5.05163 0
M  V30 5480 H 520.496 -6.52111 4.2705 0
M  V30 5481 N 524.725 -1.39134 -0.740242 0
M  V30 5482 C 525.655 -1.40165 -1.86751 0
M  V30 5483 C 526.636 -0.265708 -1.68012 0
M  V30 5484 O 527.821 -0.47076 -1.88408 0
M  V30 5485 C 524.951 -1.2392 -3.2444 0
M  V30 5486 C 523.905 -2.34858 -3.57807 0
M  V30 5487 C 523.231 -2.03707 -4.94376 0
M  V30 5488 C 524.531 -3.77159 -3.61315 0
M  V30 5489 H 526.225 -2.345 -1.86145 0
M  V30 5490 H 523.771 -1.12875 -0.89416 0
M  V30 5491 H 525.724 -1.23263 -4.02969 0
M  V30 5492 H 524.448 -0.26051 -3.25559 0
M  V30 5493 H 523.107 -2.34723 -2.81604 0
M  V30 5494 H 522.755 -1.04289 -4.9207 0
M  V30 5495 H 522.455 -2.78016 -5.17669 0
M  V30 5496 H 523.979 -2.04691 -5.75268 0
M  V30 5497 H 525.393 -3.79252 -4.29931 0
M  V30 5498 H 523.79 -4.50784 -3.96124 0
M  V30 5499 H 524.86 -4.08513 -2.61238 0
M  V30 5500 N 526.204 0.969867 -1.24223 0
M  V30 5501 C 527.481 1.68774 -0.988664 0
M  V30 5502 C 527.861 2.05342 0.489673 0
M  V30 5503 O 527.209 1.75486 1.46345 0
M  V30 5504 C 527.419 2.92135 -1.90941 0
M  V30 5505 C 528.767 3.64422 -2.17903 0
M  V30 5506 O 529.791 3.02188 -1.88576 0
M  V30 5507 O 528.65 4.76446 -2.67697 0
M  V30 5508 H 525.744 0.737736 -0.37373 0
M  V30 5509 H 528.29 1.02415 -1.35312 0
M  V30 5510 H 527.062 2.61788 -2.90831 0
M  V30 5511 H 526.685 3.66228 -1.54798 0
M  V30 5512 N 527.682 1.05563 1.17022 0
M  V30 5513 C 528.592 0.670758 2.24807 0
M  V30 5514 C 529.608 -0.309865 1.71219 0
M  V30 5515 O 530.784 -0.161025 2.00755 0
M  V30 5516 C 527.849 0.055337 3.46656 0
M  V30 5517 C 526.91 1.08688 4.15314 0
M  V30 5518 C 526.143 0.500736 5.31346 0
M  V30 5519 O 526.366 -0.688718 5.66227 0
M  V30 5520 O 525.3 1.23683 5.89055 0
M  V30 5521 H 529.126 1.56914 2.60023 0
M  V30 5522 H 526.711 0.827428 1.24395 0
M  V30 5523 H 528.593 -0.286492 4.20425 0
M  V30 5524 H 527.268 -0.816638 3.13229 0
M  V30 5525 H 526.175 1.48077 3.43546 0
M  V30 5526 H 527.508 1.93014 4.52777 0
M  V30 5527 N 529.16 -1.33526 0.837174 0
M  V30 5528 C 530.09 -2.31764 0.284206 0
M  V30 5529 C 531.071 -1.58896 -0.607142 0
M  V30 5530 O 532.256 -1.86798 -0.531047 0
M  V30 5531 C 529.386 -3.43029 -0.542962 0
M  V30 5532 C 528.34 -4.27255 0.252451 0
M  V30 5533 C 527.666 -5.3012 -0.69836 0
M  V30 5534 C 528.966 -5.01229 1.46858 0
M  V30 5535 H 530.66 -2.78262 1.10502 0
M  V30 5536 H 528.206 -1.3378 0.532812 0
M  V30 5537 H 530.159 -4.1078 -0.940096 0
M  V30 5538 H 528.883 -2.95216 -1.39697 0
M  V30 5539 H 527.542 -3.61127 0.631124 0
M  V30 5540 H 527.19 -4.78564 -1.54872 0
M  V30 5541 H 526.89 -5.87353 -0.170274 0
M  V30 5542 H 528.414 -6.00737 -1.09305 0
M  V30 5543 H 529.828 -5.61756 1.14469 0
M  V30 5544 H 528.225 -5.68104 1.93333 0
M  V30 5545 H 529.295 -4.301 2.23924 0
M  V30 5546 N 530.638 -0.59345 -1.46 0
M  V30 5547 C 531.868 -0.0889642 -2.06408 0
M  V30 5548 C 532.276 1.22597 -1.44106 0
M  V30 5549 O 531.619 1.75448 -0.544398 0
M  V30 5550 C 531.681 0.139902 -3.59228 0
M  V30 5551 C 531.345 -1.09107 -4.43784 0
M  V30 5552 C 532.342 -2.00577 -4.79651 0
M  V30 5553 C 530.027 -1.31593 -4.84756 0
M  V30 5554 C 532.021 -3.12873 -5.55328 0
M  V30 5555 C 529.708 -2.44192 -5.60191 0
M  V30 5556 C 530.706 -3.34661 -5.95392 0
M  V30 5557 O 530.394 -4.45302 -6.69299 0
M  V30 5558 H 530.126 -0.0594613 -0.67338 0
M  V30 5559 H 532.68 -0.817 -1.88452 0
M  V30 5560 H 530.91 0.922672 -3.75531 0
M  V30 5561 H 532.599 0.594228 -4.01527 0
M  V30 5562 H 533.365 -1.84425 -4.48567 0
M  V30 5563 H 529.244 -0.620801 -4.56801 0
M  V30 5564 H 532.788 -3.83511 -5.82722 0
M  V30 5565 H 528.685 -2.60303 -5.90688 0
M  V30 5566 H 529.453 -4.43805 -6.87735 0
M  V30 5567 N 532.116 1.54067 -0.331816 0
M  V30 5568 C 533.527 1.86059 0.15454 0
M  V30 5569 C 533.878 1.25331 1.50952 0
M  V30 5570 O 533.003 0.562441 2.08963 0
M  V30 5571 C 533.598 3.37581 0.287192 0
M  V30 5572 C 532.157 3.69493 0.717773 0
M  V30 5573 C 531.304 2.76863 -0.155569 0
M  V30 5574 H 534.255 1.48797 -0.55182 0
M  V30 5575 H 534.276 3.63744 1.11671 0
M  V30 5576 H 533.788 3.81751 -0.699131 0
M  V30 5577 H 531.889 3.3086 1.71354 0
M  V30 5578 H 532.002 4.76315 0.5158 0
M  V30 5579 H 530.366 2.51995 0.370213 0
M  V30 5580 H 531.149 3.23861 -1.13881 0
M  V30 5581 N 533.594 0.0601682 1.57485 0
M  V30 5582 C 534.526 -0.94047 2.09016 0
M  V30 5583 C 535.539 -1.26897 1.01985 0
M  V30 5584 O 536.728 -1.22819 1.29529 0
M  V30 5585 C 533.828 -2.25955 2.52582 0
M  V30 5586 C 533.001 -2.11163 3.83052 0
M  V30 5587 C 532.06 -3.26273 4.12835 0
M  V30 5588 O 531.086 -3.01779 4.82616 0
M  V30 5589 N 532.288 -4.51022 3.65458 0
M  V30 5590 H 535.053 -0.500578 2.9549 0
M  V30 5591 H 532.614 -0.125852 1.6141 0
M  V30 5592 H 534.606 -3.01846 2.69575 0
M  V30 5593 H 533.176 -2.61481 1.71308 0
M  V30 5594 H 532.396 -1.19808 3.75552 0
M  V30 5595 H 533.684 -1.98517 4.68475 0
M  V30 5596 H 533.082 -4.73811 3.09062 0
M  V30 5597 H 531.639 -5.23978 3.87673 0
M  V30 5598 N 535.072 -1.5615 -0.213296 0
M  V30 5599 C 536.32 -1.79191 -0.934612 0
M  V30 5600 C 536.641 -0.630112 -1.84539 0
M  V30 5601 O 535.911 0.35257 -1.92701 0
M  V30 5602 H 534.491 -0.660937 -0.348097 0
M  V30 5603 H 537.153 -1.93618 -0.22317 0
M  V30 5604 H 536.249 -2.71656 -1.53654 0
M  V30 5605 N 536.55 0.480323 -1.50102 0
M  V30 5606 C 537.78 1.25475 -1.64133 0
M  V30 5607 C 538.188 1.8647 -0.320272 0
M  V30 5608 O 537.531 1.69561 0.70673 0
M  V30 5609 C 537.593 2.40996 -2.6676 0
M  V30 5610 C 537.257 2.00711 -4.10565 0
M  V30 5611 C 538.254 1.53492 -4.96725 0
M  V30 5612 C 535.939 2.09714 -4.56427 0
M  V30 5613 C 537.933 1.15806 -6.26792 0
M  V30 5614 C 535.62 1.7164 -5.86501 0
M  V30 5615 C 536.618 1.24763 -6.71508 0
M  V30 5616 O 536.306 0.872122 -7.99155 0
M  V30 5617 H 536.038 0.385983 -0.554971 0
M  V30 5618 H 538.592 0.580848 -1.97016 0
M  V30 5619 H 536.822 3.11528 -2.291 0
M  V30 5620 H 538.511 3.02981 -2.70106 0
M  V30 5621 H 539.277 1.45966 -4.62514 0
M  V30 5622 H 535.156 2.4515 -3.90413 0
M  V30 5623 H 538.7 0.791465 -6.93096 0
M  V30 5624 H 534.597 1.78822 -6.20236 0
M  V30 5625 H 535.365 1.00178 -8.12346 0
M  V30 5626 N 538.028 1.39524 0.732853 0
M  V30 5627 C 539.439 1.32905 1.31122 0
M  V30 5628 C 539.79 -0.00558708 1.96199 0
M  V30 5629 O 538.915 -0.907706 1.96443 0
M  V30 5630 C 539.51 2.40704 2.38426 0
M  V30 5631 C 538.069 2.37599 2.91931 0
M  V30 5632 C 537.216 2.2248 1.65523 0
M  V30 5633 H 540.167 1.49581 0.530207 0
M  V30 5634 H 540.188 2.07616 3.18867 0
M  V30 5635 H 539.7 3.37829 1.91033 0
M  V30 5636 H 537.801 1.44119 3.43599 0
M  V30 5637 H 537.914 3.32538 3.44899 0
M  V30 5638 H 536.278 1.69691 1.8994 0
M  V30 5639 H 537.061 3.21577 1.20178 0
M  V30 5640 N 539.506 -0.963266 1.24736 0
M  V30 5641 C 540.416 -2.09246 1.06082 0
M  V30 5642 C 541.432 -1.74 0.000363101 0
M  V30 5643 O 542.608 -2.0041 0.199479 0
M  V30 5644 C 539.673 -3.40115 0.672498 0
M  V30 5645 C 538.734 -3.89282 1.80993 0
M  V30 5646 C 537.967 -5.13905 1.44004 0
M  V30 5647 O 538.19 -5.69434 0.331835 0
M  V30 5648 O 537.124 -5.57566 2.26723 0
M  V30 5649 H 540.95 -2.27881 2.00759 0
M  V30 5650 H 538.535 -1.07649 1.03595 0
M  V30 5651 H 540.417 -4.18797 0.467668 0
M  V30 5652 H 539.092 -3.22771 -0.245102 0
M  V30 5653 H 537.999 -3.11642 2.06955 0
M  V30 5654 H 539.332 -4.1111 2.70646 0
M  V30 5655 N 540.985 -1.06182 -1.16461 0
M  V30 5656 C 542.21 -0.798599 -1.91408 0
M  V30 5657 C 542.635 0.640987 -1.76842 0
M  V30 5658 O 541.993 1.44652 -1.09296 0
M  V30 5659 C 542.041 -1.19665 -3.40165 0
M  V30 5660 O 541.145 -0.334768 -4.11039 0
M  V30 5661 H 540.486 -0.291961 -0.596368 0
M  V30 5662 H 543.016 -1.41732 -1.47557 0
M  V30 5663 H 543.026 -1.16772 -3.90933 0
M  V30 5664 H 541.701 -2.24526 -3.50087 0
M  V30 5665 H 540.278 -0.425168 -3.70468 0
M  V30 5666 N 542.463 1.3308 -0.844243 0
M  V30 5667 C 543.709 1.97898 -0.443206 0
M  V30 5668 C 544.042 1.66699 0.99625 0
M  V30 5669 O 543.317 0.949704 1.69738 0
M  V30 5670 C 543.6 3.53801 -0.670606 0
M  V30 5671 C 543.453 3.94667 -2.15772 0
M  V30 5672 C 544.772 4.39936 -0.120226 0
M  V30 5673 H 541.891 0.718861 -0.162504 0
M  V30 5674 H 544.533 1.57633 -1.06075 0
M  V30 5675 H 542.683 3.88229 -0.14496 0
M  V30 5676 H 544.355 3.70469 -2.74865 0
M  V30 5677 H 542.598 3.44203 -2.6402 0
M  V30 5678 H 543.269 5.03275 -2.26757 0
M  V30 5679 H 545.745 4.12183 -0.5696 0
M  V30 5680 H 544.621 5.4803 -0.308984 0
M  V30 5681 H 544.882 4.31184 0.976347 0
M  V30 5682 N 543.941 0.601185 1.45683 0
M  V30 5683 C 545.19 0.0914953 2.01492 0
M  V30 5684 C 545.503 -1.28331 1.47616 0
M  V30 5685 O 546.709 -1.88537 1.95362 0
M  V30 5686 C 545.165 0.11291 3.59723 0
M  V30 5687 C 544.773 1.48717 4.22596 0
M  V30 5688 C 546.517 -0.341871 4.23121 0
M  V30 5689 C 544.424 1.46531 5.7296 0
M  V30 5690 H 543.354 0.0304365 0.753385 0
M  V30 5691 H 546.005 0.755568 1.67223 0
M  V30 5692 H 544.387 -0.617692 3.91153 0
M  V30 5693 H 545.561 2.23897 4.02749 0
M  V30 5694 H 543.876 1.88351 3.71366 0
M  V30 5695 H 546.473 -0.377304 5.33367 0
M  V30 5696 H 546.816 -1.36325 3.93346 0
M  V30 5697 H 547.349 0.335256 3.96385 0
M  V30 5698 H 544.088 2.46408 6.07423 0
M  V30 5699 H 543.608 0.755997 5.95017 0
M  V30 5700 H 545.287 1.18618 6.36034 0
M  V30 5701 N 545.419 -1.53889 0.339982 0
M  V30 5702 C 546.351 -2.22435 -0.55275 0
M  V30 5703 C 547.364 -1.22975 -1.06681 0
M  V30 5704 O 548.553 -1.49351 -0.977575 0
M  V30 5705 C 545.653 -2.8882 -1.77302 0
M  V30 5706 C 544.826 -4.14563 -1.39486 0
M  V30 5707 C 543.885 -4.64391 -2.47442 0
M  V30 5708 O 542.911 -5.28687 -2.10899 0
M  V30 5709 N 544.113 -4.40015 -3.78639 0
M  V30 5710 H 546.878 -2.9968 0.0342669 0
M  V30 5711 H 544.439 -1.61068 0.16394 0
M  V30 5712 H 546.431 -3.19072 -2.48948 0
M  V30 5713 H 545.001 -2.15182 -2.26749 0
M  V30 5714 H 544.221 -3.90896 -0.509321 0
M  V30 5715 H 545.509 -4.96362 -1.11813 0
M  V30 5716 H 544.907 -3.88586 -4.11118 0
M  V30 5717 H 543.464 -4.74881 -4.46465 0
M  V30 5718 N 546.897 -0.0685191 -1.57451 0
M  V30 5719 C 547.847 0.909895 -2.09057 0
M  V30 5720 C 548.831 1.26088 -0.999528 0
M  V30 5721 O 550.023 1.24041 -1.26265 0
M  V30 5722 C 547.152 2.17863 -2.65312 0
M  V30 5723 C 546.238 1.85427 -3.81415 0
M  V30 5724 N 546.629 1.23426 -4.9051 0
M  V30 5725 C 544.927 2.15196 -3.90649 0
M  V30 5726 C 545.628 1.09008 -5.71395 0
M  V30 5727 N 544.604 1.59871 -5.1956 0
M  V30 5728 H 548.406 0.426145 -2.90794 0
M  V30 5729 H 545.92 0.135462 -1.61834 0
M  V30 5730 H 547.917 2.88872 -3.00597 0
M  V30 5731 H 546.577 2.66829 -1.85021 0
M  V30 5732 H 547.588 0.904305 -5.09944 0
M  V30 5733 H 544.265 2.66562 -3.21327 0
M  V30 5734 H 545.655 0.607305 -6.6915 0
M  V30 5735 N 548.375 1.56261 0.205012 0
M  V30 5736 C 549.305 1.96779 1.257 0
M  V30 5737 C 550.286 0.838309 1.48008 0
M  V30 5738 O 551.471 1.10189 1.59913 0
M  V30 5739 C 548.601 2.29876 2.60335 0
M  V30 5740 C 547.555 3.45469 2.52656 0
M  V30 5741 C 546.881 3.64215 3.91473 0
M  V30 5742 C 548.181 4.79954 2.06014 0
M  V30 5743 H 549.875 2.84904 0.920338 0
M  V30 5744 H 547.421 1.37072 0.441277 0
M  V30 5745 H 549.374 2.56814 3.34102 0
M  V30 5746 H 548.098 1.38622 2.95722 0
M  V30 5747 H 546.757 3.18605 1.81345 0
M  V30 5748 H 546.405 2.70309 4.24196 0
M  V30 5749 H 546.105 4.41973 3.87213 0
M  V30 5750 H 547.629 3.93519 4.66878 0
M  V30 5751 H 549.043 5.05989 2.69533 0
M  V30 5752 H 547.44 5.61111 2.12777 0
M  V30 5753 H 548.51 4.74201 1.01297 0
M  V30 5754 N 549.853 -0.472356 1.50355 0
M  V30 5755 C 551.101 -1.22211 1.60962 0
M  V30 5756 C 551.422 -1.92497 0.311439 0
M  V30 5757 O 550.692 -1.8405 -0.671002 0
M  V30 5758 H 549.272 -0.454092 0.593135 0
M  V30 5759 H 551.934 -0.544977 1.87126 0
M  V30 5760 H 551.03 -1.9707 2.42012 0
M  V30 5761 N 551.331 -1.39911 -0.725443 0
M  V30 5762 C 552.561 -1.40744 -1.51244 0
M  V30 5763 C 552.969 -0.00275403 -1.892 0
M  V30 5764 O 552.312 0.981299 -1.55294 0
M  V30 5765 C 552.374 -2.22527 -2.82351 0
M  V30 5766 C 552.038 -3.71053 -2.66774 0
M  V30 5767 C 553.035 -4.63916 -2.34686 0
M  V30 5768 C 550.72 -4.14753 -2.83347 0
M  V30 5769 C 552.714 -5.98463 -2.19366 0
M  V30 5770 C 550.401 -5.49372 -2.67644 0
M  V30 5771 C 551.399 -6.41042 -2.357 0
M  V30 5772 O 551.087 -7.73181 -2.20107 0
M  V30 5773 H 550.819 -0.482314 -0.473655 0
M  V30 5774 H 553.373 -1.84472 -0.903284 0
M  V30 5775 H 551.603 -1.73563 -3.45562 0
M  V30 5776 H 553.292 -2.15421 -3.44018 0
M  V30 5777 H 554.058 -4.31453 -2.21525 0
M  V30 5778 H 549.937 -3.43728 -3.072 0
M  V30 5779 H 553.481 -6.69979 -1.94354 0
M  V30 5780 H 549.378 -5.81424 -2.80387 0
M  V30 5781 H 550.146 -7.84008 -2.35103 0
M  V30 5782 N 552.809 0.956637 -1.25245 0
M  V30 5783 C 553.739 2.07058 -1.07931 0
M  V30 5784 C 554.72 1.70096 0.0110361 0
M  V30 5785 O 555.905 1.93555 -0.158121 0
M  V30 5786 C 553.035 3.40272 -0.695124 0
M  V30 5787 C 551.989 3.91235 -1.73549 0
M  V30 5788 C 551.315 5.20921 -1.20604 0
M  V30 5789 C 552.615 4.17837 -3.13385 0
M  V30 5790 H 554.309 2.218 -2.01109 0
M  V30 5791 H 551.855 1.06581 -0.968326 0
M  V30 5792 H 553.808 4.1765 -0.560949 0
M  V30 5793 H 552.532 3.25462 0.272355 0
M  V30 5794 H 551.191 3.16025 -1.85807 0
M  V30 5795 H 550.839 5.02479 -0.228846 0
M  V30 5796 H 550.539 5.55987 -1.90136 0
M  V30 5797 H 552.063 6.00897 -1.08421 0
M  V30 5798 H 553.477 4.8588 -3.04292 0
M  V30 5799 H 551.874 4.64154 -3.80369 0
M  V30 5800 H 552.944 3.2419 -3.60595 0
M  V30 5801 N 554.287 1.06798 1.15896 0
M  V30 5802 C 555.534 0.787767 1.86549 0
M  V30 5803 C 555.862 -0.685959 1.82002 0
M  V30 5804 O 555.117 -1.5188 1.23414 0
M  V30 5805 C 555.416 1.23414 3.35416 0
M  V30 5806 C 555.082 2.71285 3.6016 0
M  V30 5807 C 553.744 3.11676 3.66622 0
M  V30 5808 C 556.096 3.6676 3.7032 0
M  V30 5809 C 553.424 4.4637 3.8075 0
M  V30 5810 C 555.776 5.01209 3.8597 0
M  V30 5811 C 554.44 5.41229 3.90676 0
M  V30 5812 H 553.71 0.288264 0.682631 0
M  V30 5813 H 556.357 1.338 1.37003 0
M  V30 5814 H 554.662 0.60319 3.87129 0
M  V30 5815 H 556.359 0.994298 3.88477 0
M  V30 5816 H 552.949 2.39015 3.55767 0
M  V30 5817 H 557.133 3.36685 3.64633 0
M  V30 5818 H 552.389 4.76855 3.82648 0
M  V30 5819 H 556.563 5.75067 3.92773 0
M  V30 5820 H 554.19 6.45602 4.01375 0
M  V30 5821 N 555.766 -1.3263 0.851289 0
M  V30 5822 C 556.696 -2.31449 0.308771 0
M  V30 5823 C 557.677 -1.59531 -0.590255 0
M  V30 5824 O 558.862 -1.87351 -0.511205 0
M  V30 5825 C 555.992 -3.43586 -0.506548 0
M  V30 5826 C 554.946 -4.26963 0.297753 0
M  V30 5827 C 554.272 -5.30831 -0.642094 0
M  V30 5828 C 555.572 -4.99643 1.52166 0
M  V30 5829 H 557.266 -2.77074 1.13447 0
M  V30 5830 H 554.812 -1.33207 0.546971 0
M  V30 5831 H 556.765 -4.11754 -0.896474 0
M  V30 5832 H 555.489 -2.96681 -1.36558 0
M  V30 5833 H 554.148 -3.60437 0.669391 0
M  V30 5834 H 553.796 -4.8018 -1.49788 0
M  V30 5835 H 553.496 -5.87501 -0.107968 0
M  V30 5836 H 555.02 -6.01862 -1.02927 0
M  V30 5837 H 556.434 -5.6051 1.20421 0
M  V30 5838 H 554.831 -5.66022 1.99347 0
M  V30 5839 H 555.901 -4.27701 2.28474 0
M  V30 5840 N 557.244 -0.608902 -1.45362 0
M  V30 5841 C 558.191 0.109172 -2.30542 0
M  V30 5842 C 559.161 0.858704 -1.42181 0
M  V30 5843 O 560.346 0.844178 -1.71109 0
M  V30 5844 C 557.486 1.09971 -3.27109 0
M  V30 5845 C 556.599 0.350911 -4.30572 0
M  V30 5846 C 555.734 1.33129 -5.14247 0
M  V30 5847 C 554.773 0.570377 -6.09437 0
M  V30 5848 N 553.91 1.5001 -6.85887 0
M  V30 5849 H 558.75 -0.623195 -2.91411 0
M  V30 5850 H 556.287 -0.319122 -1.43597 0
M  V30 5851 H 558.245 1.68714 -3.81564 0
M  V30 5852 H 556.875 1.79947 -2.67991 0
M  V30 5853 H 555.927 -0.352054 -3.78767 0
M  V30 5854 H 557.239 -0.242725 -4.98209 0
M  V30 5855 H 556.393 1.99074 -5.73109 0
M  V30 5856 H 555.132 1.95885 -4.46632 0
M  V30 5857 H 554.137 -0.102702 -5.49704 0
M  V30 5858 H 555.362 -0.0521607 -6.7908 0
M  V30 5859 H 553.308 2.11529 -6.2096 0
M  V30 5860 H 553.225 0.959934 -7.49881 0
M  V30 5861 H 554.493 2.14909 -7.49289 0
M  V30 5862 N 558.722 1.53707 -0.348139 0
M  V30 5863 C 559.655 2.21481 0.549667 0
M  V30 5864 C 560.633 1.20046 1.09671 0
M  V30 5865 O 561.817 1.48883 1.15612 0
M  V30 5866 C 558.944 2.89585 1.75664 0
M  V30 5867 C 557.99 4.04948 1.33864 0
M  V30 5868 S 558.823 5.34325 0.354577 0
M  V30 5869 C 559.979 6.05934 1.56828 0
M  V30 5870 H 560.212 2.97289 -0.0259755 0
M  V30 5871 H 557.745 1.53833 -0.132216 0
M  V30 5872 H 559.703 3.29441 2.44906 0
M  V30 5873 H 558.364 2.13535 2.30351 0
M  V30 5874 H 557.557 4.51552 2.23868 0
M  V30 5875 H 557.159 3.66893 0.725651 0
M  V30 5876 H 559.451 6.29606 2.50205 0
M  V30 5877 H 560.394 6.98799 1.14395 0
M  V30 5878 H 560.802 5.36151 1.76642 0
M  V30 5879 N 560.2 0.0768682 1.57412 0
M  V30 5880 C 561.425 -0.603404 1.98428 0
M  V30 5881 C 561.85 -1.62047 0.955108 0
M  V30 5882 O 561.208 -1.81129 -0.0786778 0
M  V30 5883 C 561.256 -1.24396 3.38464 0
M  V30 5884 O 560.36 -2.35982 3.3821 0
M  V30 5885 H 559.701 -0.154741 0.645718 0
M  V30 5886 H 562.231 0.152885 2.04028 0
M  V30 5887 H 562.241 -1.5896 3.7576 0
M  V30 5888 H 560.916 -0.498735 4.12899 0
M  V30 5889 H 559.493 -2.03173 3.1269 0
M  V30 5890 N 561.678 -1.56367 -0.196722 0
M  V30 5891 C 563.089 -1.70462 -0.761545 0
M  V30 5892 C 563.44 -0.683161 -1.83922 0
M  V30 5893 O 562.565 0.160753 -2.15802 0
M  V30 5894 C 563.16 -3.09057 -1.38814 0
M  V30 5895 C 561.719 -3.24922 -1.90007 0
M  V30 5896 C 560.866 -2.66412 -0.769399 0
M  V30 5897 H 563.817 -1.58675 0.0283263 0
M  V30 5898 H 563.838 -3.06296 -2.2575 0
M  V30 5899 H 563.35 -3.83378 -0.603559 0
M  V30 5900 H 561.451 -2.55514 -2.71189 0
M  V30 5901 H 561.564 -4.3241 -2.06297 0
M  V30 5902 H 559.928 -2.25546 -1.18326 0
M  V30 5903 H 560.711 -3.433 0.00291773 0
M  V30 5904 N 563.156 0.464375 -1.50603 0
M  V30 5905 C 564.066 1.58723 -1.72754 0
M  V30 5906 C 565.082 1.62925 -0.610844 0
M  V30 5907 O 566.258 1.8067 -0.889963 0
M  V30 5908 C 563.323 2.94897 -1.82309 0
M  V30 5909 C 562.384 3.0103 -3.06071 0
M  V30 5910 C 561.617 4.30708 -3.1516 0
M  V30 5911 O 561.84 5.2159 -2.30868 0
M  V30 5912 O 560.774 4.42571 -4.0794 0
M  V30 5913 H 564.6 1.42954 -2.67951 0
M  V30 5914 H 562.185 0.644579 -1.3478 0
M  V30 5915 H 564.067 3.75764 -1.90735 0
M  V30 5916 H 562.742 3.10851 -0.902967 0
M  V30 5917 H 561.649 2.19217 -3.03142 0
M  V30 5918 H 562.982 2.90014 -3.97684 0
M  V30 5919 N 564.634 1.40294 0.718013 0
M  V30 5920 C 565.911 1.2894 1.47084 0
M  V30 5921 C 566.291 -0.0933625 2.10893 0
M  V30 5922 O 565.639 -1.10598 1.99951 0
M  V30 5923 C 565.849 2.4264 2.50852 0
M  V30 5924 C 567.197 2.8276 3.16752 0
M  V30 5925 O 568.221 2.42215 2.61171 0
M  V30 5926 O 567.08 3.528 4.17366 0
M  V30 5927 H 564.174 0.506236 0.653952 0
M  V30 5928 H 566.72 1.52208 0.750394 0
M  V30 5929 H 565.492 3.35009 2.022 0
M  V30 5930 H 565.115 2.21129 3.30435 0
M  V30 5931 N 566.112 -0.949982 1.2575 0
M  V30 5932 C 567.361 -1.68956 1.10168 0
M  V30 5933 C 567.674 -1.92327 -0.356309 0
M  V30 5934 O 568.88 -2.64026 -0.632657 0
M  V30 5935 C 567.336 -3.04196 1.92336 0
M  V30 5936 C 566.944 -2.88603 3.42655 0
M  V30 5937 C 568.688 -3.81904 1.85336 0
M  V30 5938 C 566.595 -4.19262 4.17101 0
M  V30 5939 H 565.525 -0.633645 0.408668 0
M  V30 5940 H 568.176 -1.05719 1.49986 0
M  V30 5941 H 566.558 -3.68363 1.45344 0
M  V30 5942 H 567.732 -2.3334 3.97353 0
M  V30 5943 H 566.047 -2.24345 3.50796 0
M  V30 5944 H 568.644 -4.78688 2.38248 0
M  V30 5945 H 568.987 -4.08099 0.822226 0
M  V30 5946 H 569.52 -3.24495 2.30104 0
M  V30 5947 H 566.259 -3.98254 5.20648 0
M  V30 5948 H 565.779 -4.74273 3.67186 0
M  V30 5949 H 567.458 -4.87775 4.25071 0
M  V30 5950 N 567.59 -1.07411 -1.15328 0
M  V30 5951 C 569.006 -0.799759 -1.38116 0
M  V30 5952 C 569.206 0.59572 -1.92493 0
M  V30 5953 O 568.262 1.35433 -2.13106 0
M  V30 5954 C 569.575 -1.87407 -2.35158 0
M  V30 5955 C 571.123 -1.89889 -2.48819 0
M  V30 5956 C 571.598 -2.96406 -3.49153 0
M  V30 5957 N 573.089 -2.95512 -3.56689 0
M  V30 5958 C 573.824 -3.74575 -4.34144 0
M  V30 5959 N 573.32 -4.63488 -5.14928 0
M  V30 5960 N 575.113 -3.62919 -4.29239 0
M  V30 5961 H 567.264 -1.97411 -0.78374 0
M  V30 5962 H 569.527 -0.856113 -0.407154 0
M  V30 5963 H 569.233 -2.8768 -2.0232 0
M  V30 5964 H 569.107 -1.73471 -3.34944 0
M  V30 5965 H 571.494 -0.902677 -2.80955 0
M  V30 5966 H 571.575 -2.07904 -1.49029 0
M  V30 5967 H 571.219 -3.96227 -3.17752 0
M  V30 5968 H 571.149 -2.75638 -4.48699 0
M  V30 5969 H 573.64 -2.31061 -2.99031 0
M  V30 5970 H 573.953 -5.20445 -5.71276 0
M  V30 5971 H 572.298 -4.67537 -5.14232 0
M  V30 5972 H 575.489 -2.92833 -3.65194 0
M  V30 5973 H 575.662 -4.24777 -4.89355 0
M  V30 5974 N 569.068 1.32177 -0.85831 0
M  V30 5975 C 570.015 2.28794 -0.303607 0
M  V30 5976 C 570.985 1.55213 0.591453 0
M  V30 5977 O 572.17 1.83418 0.525585 0
M  V30 5978 C 569.31 3.41475 0.49889 0
M  V30 5979 C 568.423 4.2993 -0.422373 0
M  V30 5980 C 567.558 5.29743 0.393111 0
M  V30 5981 C 566.597 6.09842 -0.525317 0
M  V30 5982 N 565.734 7.01643 0.253208 0
M  V30 5983 H 570.574 2.75631 -1.13276 0
M  V30 5984 H 568.111 1.35606 -0.570026 0
M  V30 5985 H 570.069 4.05531 0.979826 0
M  V30 5986 H 568.699 2.95779 1.29284 0
M  V30 5987 H 567.751 3.66422 -1.02171 0
M  V30 5988 H 569.063 4.85899 -1.12709 0
M  V30 5989 H 568.217 5.9942 0.937056 0
M  V30 5990 H 566.956 4.744 1.13117 0
M  V30 5991 H 565.961 5.39066 -1.08112 0
M  V30 5992 H 567.186 6.6727 -1.26205 0
M  V30 5993 H 565.132 6.48725 0.974295 0
M  V30 5994 H 565.049 7.54981 -0.392398 0
M  V30 5995 H 566.317 7.756 0.778761 0
M  V30 5996 N 570.547 0.616602 1.45037 0
M  V30 5997 C 571.793 0.123965 2.03022 0
M  V30 5998 C 572.148 -1.23508 1.47525 0
M  V30 5999 O 571.441 -1.80453 0.643981 0
M  V30 6000 C 571.635 0.0356829 3.57382 0
M  V30 6001 C 571.464 1.38462 4.27853 0
M  V30 6002 C 570.234 1.96766 4.65415 0
M  V30 6003 C 572.432 2.31536 4.59234 0
M  V30 6004 N 570.414 3.25046 5.20786 0
M  V30 6005 C 571.785 3.4442 5.15533 0
M  V30 6006 C 573.84 2.30796 4.41178 0
M  V30 6007 C 572.543 4.56742 5.55679 0
M  V30 6008 C 574.569 3.42171 4.82362 0
M  V30 6009 C 573.931 4.53778 5.38762 0
M  V30 6010 H 570.03 0.0889428 0.776925 0
M  V30 6011 H 572.614 0.816925 1.76733 0
M  V30 6012 H 570.785 -0.62652 3.83314 0
M  V30 6013 H 572.517 -0.464443 4.02026 0
M  V30 6014 H 569.272 1.4987 4.49261 0
M  V30 6015 H 569.696 3.90592 5.52962 0
M  V30 6016 H 574.338 1.45765 3.96878 0
M  V30 6017 H 572.056 5.42491 5.9894 0
M  V30 6018 H 575.642 3.42757 4.70116 0
M  V30 6019 H 574.522 5.38536 5.70043 0
M  V30 6020 N 572.025 -1.5352 0.356285 0
M  V30 6021 C 572.973 -2.26945 -0.50978 0
M  V30 6022 C 573.967 -1.29569 -1.09125 0
M  V30 6023 O 575.173 -1.47231 -1.03552 0
M  V30 6024 H 571.548 -0.729368 -0.183102 0
M  V30 6025 H 573.519 -2.98111 0.131374 0
M  V30 6026 C 572.268 -3.06466 -1.64237 0
M  V30 6027 H 571.591 -3.81233 -1.20423 0
M  V30 6028 H 573.031 -3.61035 -2.22327 0
M  V30 6029 C 571.49 -2.16737 -2.57928 0
M  V30 6030 O 572.02 -1.77195 -3.60507 0
M  V30 6031 N 570.226 -1.81558 -2.26903 0
M  V30 6032 H 569.773 -2.13913 -1.43524 0
M  V30 6033 H 569.731 -1.21806 -2.89846 0
M  V30 6034 N 573.503 -0.0852151 -1.57369 0
M  V30 6035 C 574.749 0.581666 -1.94279 0
M  V30 6036 C 575.082 1.68444 -0.966446 0
M  V30 6037 O 574.357 1.945 0.00215277 0
M  V30 6038 C 574.64 1.14609 -3.41375 0
M  V30 6039 C 574.493 0.0490414 -4.49773 0
M  V30 6040 C 575.812 2.04751 -3.8957 0
M  V30 6041 H 572.931 0.209972 -0.706456 0
M  V30 6042 H 575.573 -0.153915 -1.89376 0
M  V30 6043 H 573.723 1.77297 -3.45685 0
M  V30 6044 H 575.395 -0.584721 -4.57579 0
M  V30 6045 H 573.638 -0.618638 -4.29366 0
M  V30 6046 H 574.309 0.484601 -5.49869 0
M  V30 6047 H 576.785 1.51981 -3.87351 0
M  V30 6048 H 575.661 2.41173 -4.93079 0
M  V30 6049 H 575.922 2.96107 -3.28288 0
M  V30 6050 N 574.981 1.5647 0.188427 0
M  V30 6051 C 576.209 1.85131 0.923803 0
M  V30 6052 C 576.624 0.668537 1.76567 0
M  V30 6053 O 575.981 -0.362662 1.7886 0
M  V30 6054 C 576.032 3.12661 1.81453 0
M  V30 6055 O 575.753 4.26378 1.00665 0
M  V30 6056 C 577.254 3.54548 2.66103 0
M  V30 6057 H 574.474 0.614624 0.269218 0
M  V30 6058 H 577.018 2.03581 0.193671 0
M  V30 6059 H 575.173 2.96088 2.49821 0
M  V30 6060 H 575.587 4.99041 1.61425 0
M  V30 6061 H 577.061 4.4673 3.24247 0
M  V30 6062 H 577.538 2.77853 3.40139 0
M  V30 6063 H 578.144 3.73674 2.03096 0
M  V30 6064 N 576.459 -0.456382 1.50847 0
M  V30 6065 C 577.684 -1.2349 1.66628 0
M  V30 6066 C 578.109 -1.84715 0.355254 0
M  V30 6067 O 577.467 -1.67961 -0.682559 0
M  V30 6068 C 577.515 -2.30865 2.77009 0
M  V30 6069 O 576.619 -3.35882 2.39285 0
M  V30 6070 H 575.96 -0.36266 0.556214 0
M  V30 6071 H 578.49 -0.541374 1.97308 0
M  V30 6072 H 578.5 -2.75949 3.00526 0
M  V30 6073 H 577.175 -1.85677 3.72152 0
M  V30 6074 H 575.752 -2.96406 2.26269 0
M  V30 6075 N 577.937 -1.40673 -0.710563 0
M  V30 6076 C 578.867 -1.44095 -1.83736 0
M  V30 6077 C 579.848 -0.301286 -1.67411 0
M  V30 6078 O 581.033 -0.510618 -1.87367 0
M  V30 6079 C 578.163 -1.30773 -3.21738 0
M  V30 6080 C 577.117 -2.42395 -3.52745 0
M  V30 6081 C 576.443 -2.14147 -4.89944 0
M  V30 6082 C 577.743 -3.84738 -3.53234 0
M  V30 6083 H 579.437 -2.38396 -1.81129 0
M  V30 6084 H 576.983 -1.14746 -0.870017 0
M  V30 6085 H 578.936 -1.31783 -4.00264 0
M  V30 6086 H 577.66 -0.329507 -3.24934 0
M  V30 6087 H 576.319 -2.40643 -2.76562 0
M  V30 6088 H 575.967 -1.14703 -4.89747 0
M  V30 6089 H 575.667 -2.88934 -5.11655 0
M  V30 6090 H 577.191 -2.16848 -5.70797 0
M  V30 6091 H 578.605 -3.88286 -4.2179 0
M  V30 6092 H 577.002 -4.59085 -3.86473 0
M  V30 6093 H 578.072 -4.13962 -2.52514 0
M  V30 6094 N 579.415 0.9433 -1.26252 0
M  V30 6095 C 580.325 2.07532 -1.09397 0
M  V30 6096 C 581.341 1.73977 -0.0280449 0
M  V30 6097 O 582.517 2.00067 -0.231337 0
M  V30 6098 C 579.582 3.39002 -0.726523 0
M  V30 6099 C 578.643 3.86353 -1.87163 0
M  V30 6100 C 577.876 5.11549 -1.52162 0
M  V30 6101 O 578.099 5.68834 -0.422385 0
M  V30 6102 O 577.033 5.53889 -2.35565 0
M  V30 6103 H 580.859 2.24658 -2.04359 0
M  V30 6104 H 578.444 1.05988 -1.05295 0
M  V30 6105 H 580.326 4.18 -0.534236 0
M  V30 6106 H 579.001 3.2312 0.193721 0
M  V30 6107 H 577.908 3.0831 -2.11886 0
M  V30 6108 H 579.241 4.06752 -2.77152 0
M  V30 6109 N 580.893 1.08022 1.14757 0
M  V30 6110 C 582.121 0.828847 1.89572 0
M  V30 6111 C 582.536 -0.618621 1.78377 0
M  V30 6112 O 581.893 -1.42482 1.1404 0
M  V30 6113 C 581.944 1.23677 3.39685 0
M  V30 6114 O 581.665 2.62746 3.50566 0
M  V30 6115 C 583.166 1.01569 4.31507 0
M  V30 6116 H 580.386 0.299196 0.600602 0
M  V30 6117 H 582.93 1.43846 1.45357 0
M  V30 6118 H 581.085 0.671347 3.81539 0
M  V30 6119 H 581.499 2.79573 4.43778 0
M  V30 6120 H 582.973 1.35055 5.35223 0
M  V30 6121 H 583.45 -0.0475433 4.39174 0
M  V30 6122 H 584.056 1.56636 3.95405 0
M  V30 6123 N 582.371 -1.3172 0.865308 0
M  V30 6124 C 583.301 -2.31109 0.333302 0
M  V30 6125 C 584.282 -1.60148 -0.573301 0
M  V30 6126 O 585.467 -1.87882 -0.491305 0
M  V30 6127 C 582.597 -3.44104 -0.470078 0
M  V30 6128 C 581.551 -4.26623 0.343021 0
M  V30 6129 C 580.877 -5.31482 -0.585756 0
M  V30 6130 C 582.177 -4.98001 1.57456 0
M  V30 6131 H 583.871 -2.75855 1.1638 0
M  V30 6132 H 581.417 -1.3262 0.561069 0
M  V30 6133 H 583.37 -4.12682 -0.852752 0
M  V30 6134 H 582.094 -2.98112 -1.33404 0
M  V30 6135 H 580.753 -3.59707 0.707583 0
M  V30 6136 H 580.401 -4.81741 -1.44686 0
M  V30 6137 H 580.101 -5.87582 -0.0456494 0
M  V30 6138 H 581.625 -6.0292 -0.965375 0
M  V30 6139 H 583.039 -5.59201 1.26359 0
M  V30 6140 H 581.436 -5.63876 2.05339 0
M  V30 6141 H 582.506 -4.25253 2.32997 0
M  V30 6142 N 583.85 -0.624285 -1.44708 0
M  V30 6143 C 584.797 0.0847135 -2.30644 0
M  V30 6144 C 585.767 0.843575 -1.43084 0
M  V30 6145 O 586.952 0.825982 -1.71995 0
M  V30 6146 C 584.091 1.06495 -3.28257 0
M  V30 6147 C 583.205 0.305224 -4.3092 0
M  V30 6148 C 582.34 1.27667 -5.1563 0
M  V30 6149 C 581.379 0.505706 -6.10007 0
M  V30 6150 N 580.516 1.42727 -6.8744 0
M  V30 6151 H 585.356 -0.654068 -2.90733 0
M  V30 6152 H 582.893 -0.334334 -1.4325 0
M  V30 6153 H 584.851 1.64658 -3.83332 0
M  V30 6154 H 583.481 1.77094 -2.69884 0
M  V30 6155 H 582.533 -0.392207 -3.78373 0
M  V30 6156 H 583.845 -0.295553 -4.97924 0
M  V30 6157 H 582.999 1.92984 -5.75189 0
M  V30 6158 H 581.738 1.91137 -4.48685 0
M  V30 6159 H 580.743 -0.160999 -5.49564 0
M  V30 6160 H 581.968 -0.124183 -6.78986 0
M  V30 6161 H 579.913 2.04931 -6.23169 0
M  V30 6162 H 579.831 0.880345 -7.50857 0
M  V30 6163 H 581.099 2.0695 -7.51526 0
M  V30 6164 N 585.328 1.53329 -0.364422 0
M  V30 6165 C 586.291 2.24323 0.470292 0
M  V30 6166 C 587.291 1.25068 1.01067 0
M  V30 6167 O 588.481 1.49354 0.896605 0
M  V30 6168 C 585.613 2.97908 1.65722 0
M  V30 6169 H 586.806 2.9952 -0.150917 0
M  V30 6170 H 584.359 1.55868 -0.116092 0
M  V30 6171 H 585.094 2.2695 2.31655 0
M  V30 6172 H 584.879 3.70732 1.27671 0
M  V30 6173 H 586.369 3.5188 2.24878 0
M  V30 6174 N 586.806 0.0935595 1.57322 0
M  V30 6175 C 587.736 -0.863062 2.16964 0
M  V30 6176 C 588.717 -1.29528 1.10256 0
M  V30 6177 O 589.902 -1.36245 1.38387 0
M  V30 6178 C 587.032 -2.12276 2.74875 0
M  V30 6179 C 585.986 -1.82921 3.86942 0
M  V30 6180 C 585.312 -3.15707 4.31548 0
M  V30 6181 C 586.612 -1.11737 5.10208 0
M  V30 6182 H 588.306 -0.366145 2.97153 0
M  V30 6183 H 585.852 -0.174673 1.42937 0
M  V30 6184 H 587.805 -2.79634 3.1525 0
M  V30 6185 H 586.529 -2.64248 1.91938 0
M  V30 6186 H 585.188 -1.17961 3.47103 0
M  V30 6187 H 584.836 -3.65563 3.45504 0
M  V30 6188 H 584.536 -2.96849 5.07104 0
M  V30 6189 H 586.06 -3.84226 4.74555 0
M  V30 6190 H 587.474 -1.69203 5.47762 0
M  V30 6191 H 585.871 -1.03064 5.91183 0
M  V30 6192 H 586.941 -0.0998818 4.84797 0
M  V30 6193 N 588.284 -1.56567 -0.180126 0
M  V30 6194 C 589.214 -1.98753 -1.22553 0
M  V30 6195 C 590.195 -0.86175 -1.46656 0
M  V30 6196 O 591.38 -1.12719 -1.58139 0
M  V30 6197 C 588.51 -2.33988 -2.56645 0
M  V30 6198 C 587.464 -3.49445 -2.47128 0
M  V30 6199 C 586.79 -3.70397 -3.8563 0
M  V30 6200 C 588.09 -4.83171 -1.98352 0
M  V30 6201 H 589.784 -2.86332 -0.874896 0
M  V30 6202 H 587.33 -1.37757 -0.419414 0
M  V30 6203 H 589.283 -2.62097 -3.29974 0
M  V30 6204 H 588.007 -1.43309 -2.93479 0
M  V30 6205 H 586.666 -3.2145 -1.76254 0
M  V30 6206 H 586.314 -2.77023 -4.19842 0
M  V30 6207 H 586.014 -4.48077 -3.80132 0
M  V30 6208 H 587.538 -4.00897 -4.60558 0
M  V30 6209 H 588.952 -5.10213 -2.61449 0
M  V30 6210 H 587.349 -5.64425 -2.03823 0
M  V30 6211 H 588.419 -4.75753 -0.937402 0
M  V30 6212 N 589.762 0.448376 -1.51087 0
M  V30 6213 C 590.672 1.56882 -1.74428 0
M  V30 6214 C 591.688 1.62268 -0.62809 0
M  V30 6215 O 592.864 1.79716 -0.909075 0
M  V30 6216 C 589.929 2.92947 -1.85426 0
M  V30 6217 C 588.99 2.97766 -3.09247 0
M  V30 6218 C 588.223 4.27341 -3.19711 0
M  V30 6219 O 588.446 5.19112 -2.36387 0
M  V30 6220 O 587.38 4.38219 -4.12611 0
M  V30 6221 H 591.206 1.40104 -2.69452 0
M  V30 6222 H 588.791 0.630247 -1.35456 0
M  V30 6223 H 590.673 3.73719 -1.94709 0
M  V30 6224 H 589.348 3.09876 -0.935887 0
M  V30 6225 H 588.255 2.15989 -3.0545 0
M  V30 6226 H 589.588 2.8578 -4.00738 0
M  V30 6227 N 591.24 1.41047 0.703093 0
M  V30 6228 C 592.486 1.40207 1.46526 0
M  V30 6229 C 592.819 0.00847763 1.94198 0
M  V30 6230 O 592.094 -0.962437 1.69019 0
M  V30 6231 C 592.377 2.40238 2.6825 0
M  V30 6232 C 592.23 3.88674 2.26391 0
M  V30 6233 C 593.549 2.37627 3.70434 0
M  V30 6234 H 590.668 0.510594 0.531472 0
M  V30 6235 H 593.31 1.72271 0.801422 0
M  V30 6236 H 591.46 2.13026 3.24888 0
M  V30 6237 H 593.132 4.2676 1.75138 0
M  V30 6238 H 591.375 4.03903 1.58255 0
M  V30 6239 H 592.046 4.542 3.13698 0
M  V30 6240 H 594.522 2.61759 3.23452 0
M  V30 6241 H 593.398 3.09645 4.53223 0
M  V30 6242 H 593.659 1.39223 4.19606 0
M  V30 6243 N 592.718 -0.936591 1.26751 0
M  V30 6244 C 593.666 -2.0573 1.08527 0
M  V30 6245 C 594.66 -1.69397 0.0108784 0
M  V30 6246 O 595.866 -1.79215 0.167915 0
M  V30 6247 H 592.241 -0.673691 0.334133 0
M  V30 6248 H 594.212 -2.1825 2.03493 0
M  V30 6249 C 592.961 -3.39738 0.739845 0
M  V30 6250 H 592.284 -3.68174 1.55845 0
M  V30 6251 H 593.724 -4.18955 0.652149 0
M  V30 6252 C 592.183 -3.32292 -0.555288 0
M  V30 6253 O 592.713 -3.68794 -1.59229 0
M  V30 6254 N 590.919 -2.85394 -0.54762 0
M  V30 6255 H 590.466 -2.55886 0.296667 0
M  V30 6256 H 590.424 -2.80795 -1.41427 0
M  V30 6257 N 594.196 -1.08629 -1.14182 0
M  V30 6258 C 595.143 -0.718299 -2.19338 0
M  V30 6259 C 596.113 0.296587 -1.63431 0
M  V30 6260 O 597.298 0.180079 -1.89948 0
M  V30 6261 C 594.438 -0.136203 -3.44831 0
M  V30 6262 C 593.551 -1.20414 -4.14879 0
M  V30 6263 C 592.686 -0.585666 -5.27962 0
M  V30 6264 C 591.725 -1.63548 -5.89846 0
M  V30 6265 N 590.862 -1.03864 -6.94375 0
M  V30 6266 H 595.702 -1.61932 -2.50164 0
M  V30 6267 H 593.239 -0.80919 -1.22844 0
M  V30 6268 H 595.197 0.219021 -4.16625 0
M  V30 6269 H 593.827 0.728121 -3.14481 0
M  V30 6270 H 592.879 -1.67676 -3.41451 0
M  V30 6271 H 594.191 -1.99959 -4.56966 0
M  V30 6272 H 593.345 -0.178818 -6.06436 0
M  V30 6273 H 592.084 0.24142 -4.87102 0
M  V30 6274 H 591.089 -2.05197 -5.10073 0
M  V30 6275 H 592.314 -2.46509 -6.3278 0
M  V30 6276 H 590.26 -0.232687 -6.55587 0
M  V30 6277 H 590.177 -1.77116 -7.3496 0
M  V30 6278 H 591.445 -0.657724 -7.7672 0
M  V30 6279 N 595.674 1.31259 -0.872281 0
M  V30 6280 C 596.922 1.96233 -0.483409 0
M  V30 6281 C 597.243 1.69276 0.968012 0
M  V30 6282 O 596.513 1.00943 1.67891 0
M  V30 6283 H 595.093 0.726025 -0.175774 0
M  V30 6284 H 597.755 1.60024 -1.11258 0
M  V30 6285 H 596.851 3.05403 -0.643075 0
M  V30 6286 N 597.152 0.631951 1.44375 0
M  V30 6287 C 598.102 -0.0943862 2.27805 0
M  V30 6288 C 599.086 -0.815359 1.38711 0
M  V30 6289 O 600.278 -0.701331 1.62513 0
M  V30 6290 C 597.407 -1.07472 3.26044 0
M  V30 6291 C 596.493 -0.353329 4.22626 0
M  V30 6292 N 596.884 0.618512 5.02004 0
M  V30 6293 C 595.182 -0.597662 4.41977 0
M  V30 6294 C 595.883 1.0448 5.7224 0
M  V30 6295 N 594.859 0.383413 5.42246 0
M  V30 6296 H 598.661 0.651672 2.86584 0
M  V30 6297 H 596.175 0.45752 1.55822 0
M  V30 6298 H 598.172 -1.60969 3.84571 0
M  V30 6299 H 596.832 -1.82107 2.68825 0
M  V30 6300 H 597.843 0.996356 5.08226 0
M  V30 6301 H 594.52 -1.32682 3.95856 0
M  V30 6302 H 595.91 1.84773 6.45994 0
M  V30 6303 N 598.631 -1.53133 0.372548 0
M  V30 6304 C 599.541 -2.29671 -0.478379 0
M  V30 6305 C 600.557 -1.35913 -1.08644 0
M  V30 6306 O 601.733 -1.68975 -1.09588 0
M  V30 6307 C 598.798 -3.07625 -1.599 0
M  V30 6308 C 597.859 -4.17061 -1.01776 0
M  V30 6309 C 597.092 -4.91289 -2.08497 0
M  V30 6310 O 597.315 -4.65442 -3.29727 0
M  V30 6311 O 596.249 -5.7705 -1.71164 0
M  V30 6312 H 600.075 -3.03355 0.144649 0
M  V30 6313 H 597.66 -1.48773 0.136729 0
M  V30 6314 H 599.542 -3.56281 -2.25038 0
M  V30 6315 H 598.217 -2.3677 -2.2073 0
M  V30 6316 H 597.124 -3.72641 -0.330098 0
M  V30 6317 H 598.457 -4.90102 -0.453915 0
M  V30 6318 N 600.109 -0.101901 -1.5727 0
M  V30 6319 C 601.042 0.891377 -2.10071 0
M  V30 6320 C 602.02 1.27197 -1.01291 0
M  V30 6321 O 603.204 1.37602 -1.28833 0
M  V30 6322 C 600.331 2.19049 -2.58331 0
M  V30 6323 C 599.377 1.95925 -3.78834 0
M  V30 6324 S 600.21 1.19106 -5.22086 0
M  V30 6325 C 601.366 2.50234 -5.73702 0
M  V30 6326 H 601.599 0.442212 -2.93993 0
M  V30 6327 H 599.132 0.111529 -1.53997 0
M  V30 6328 H 601.09 2.937 -2.86793 0
M  V30 6329 H 599.751 2.61086 -1.74622 0
M  V30 6330 H 598.944 2.92143 -4.10693 0
M  V30 6331 H 598.546 1.29401 -3.50901 0
M  V30 6332 H 600.838 3.46173 -5.82384 0
M  V30 6333 H 601.781 2.22944 -6.72088 0
M  V30 6334 H 602.189 2.58818 -5.01671 0
M  V30 6335 N 601.587 1.56661 0.17182 0
M  V30 6336 C 602.812 1.86459 0.908165 0
M  V30 6337 C 603.237 0.688181 1.75059 0
M  V30 6338 O 602.595 -0.362753 1.77634 0
M  V30 6339 C 602.643 3.14669 1.76112 0
M  V30 6340 O 601.747 2.96858 2.86268 0
M  V30 6341 H 601.088 0.613318 0.254434 0
M  V30 6342 H 603.618 2.03892 0.170113 0
M  V30 6343 H 603.628 3.46061 2.16115 0
M  V30 6344 H 602.303 3.99905 1.14233 0
M  V30 6345 H 600.88 2.76819 2.49852 0
M  V30 6346 N 603.065 -0.440357 1.51323 0
M  V30 6347 C 604.476 -1.02032 1.56353 0
M  V30 6348 C 604.827 -1.92382 0.385197 0
M  V30 6349 O 603.952 -2.10583 -0.498373 0
M  V30 6350 C 604.547 -1.85723 2.83359 0
M  V30 6351 C 603.106 -2.38774 2.90971 0
M  V30 6352 C 602.253 -1.17908 2.50984 0
M  V30 6353 H 605.204 -0.221744 1.57143 0
M  V30 6354 H 605.225 -2.71141 2.66951 0
M  V30 6355 H 604.737 -1.19939 3.69102 0
M  V30 6356 H 602.838 -3.08021 2.09651 0
M  V30 6357 H 602.951 -2.71778 3.94555 0
M  V30 6358 H 601.315 -1.52347 2.04114 0
M  V30 6359 H 602.098 -0.537393 3.39068 0
M  V30 6360 N 604.543 -1.41418 -0.695603 0
M  V30 6361 C 605.475 -1.39195 -1.82092 0
M  V30 6362 C 606.488 -0.294132 -1.60121 0
M  V30 6363 O 607.677 -0.555854 -1.69625 0
M  V30 6364 C 604.777 -1.14828 -3.18854 0
M  V30 6365 C 603.95 -2.36649 -3.67853 0
M  V30 6366 C 603.009 -2.08139 -4.83285 0
M  V30 6367 O 602.035 -2.81177 -4.94902 0
M  V30 6368 N 603.237 -1.07162 -5.70523 0
M  V30 6369 H 606.002 -2.36185 -1.84491 0
M  V30 6370 H 603.563 -1.3603 -0.877923 0
M  V30 6371 H 605.555 -0.937075 -3.93702 0
M  V30 6372 H 604.125 -0.264358 -3.1148 0
M  V30 6373 H 603.345 -2.73472 -2.83913 0
M  V30 6374 H 604.633 -3.17816 -3.97329 0
M  V30 6375 H 604.031 -0.467124 -5.63768 0
M  V30 6376 H 602.588 -0.920311 -6.4527 0
M  V30 6377 N 606.021 0.929856 -1.27246 0
M  V30 6378 C 606.984 2.01172 -1.09829 0
M  V30 6379 C 607.984 1.60743 -0.0429687 0
M  V30 6380 O 609.174 1.71813 -0.287373 0
M  V30 6381 C 606.306 3.34191 -0.673003 0
M  V30 6382 H 607.499 2.18054 -2.05895 0
M  V30 6383 H 605.052 1.11036 -1.10003 0
M  V30 6384 H 605.787 3.23009 0.289134 0
M  V30 6385 H 605.572 3.64892 -1.43515 0
M  V30 6386 H 607.062 4.13646 -0.573323 0
M  V30 6387 N 607.499 1.09233 1.13605 0
M  V30 6388 C 608.91 0.846839 1.6639 0
M  V30 6389 C 609.261 -0.625031 1.85978 0
M  V30 6390 O 608.386 -1.48173 1.57714 0
M  V30 6391 C 608.981 1.5307 3.0225 0
M  V30 6392 C 607.54 1.33223 3.52035 0
M  V30 6393 C 606.687 1.58806 2.27323 0
M  V30 6394 H 609.638 1.25175 0.975541 0
M  V30 6395 H 609.659 0.96267 3.68121 0
M  V30 6396 H 609.171 2.60192 2.87961 0
M  V30 6397 H 607.272 0.282091 3.71531 0
M  V30 6398 H 607.385 2.0657 4.32279 0
M  V30 6399 H 605.749 1.01007 2.33815 0
M  V30 6400 H 606.532 2.67153 2.15602 0
M  V30 6401 N 608.977 -1.30795 0.87923 0
M  V30 6402 C 610.393 -1.48981 0.57243 0
M  V30 6403 C 610.593 -1.80719 -0.891236 0
M  V30 6404 O 609.649 -1.89136 -1.67283 0
M  V30 6405 C 610.962 -2.61721 1.48063 0
M  V30 6406 C 612.51 -2.75603 1.48365 0
M  V30 6407 C 612.985 -3.91449 2.37763 0
M  V30 6408 N 614.476 -3.98751 2.35695 0
M  V30 6409 C 615.211 -4.87684 3.01583 0
M  V30 6410 N 614.707 -5.81454 3.76674 0
M  V30 6411 N 616.5 -4.81005 2.90844 0
M  V30 6412 H 608.651 -1.08465 1.82617 0
M  V30 6413 H 610.914 -0.536813 0.781368 0
M  V30 6414 H 610.62 -2.45073 2.52254 0
M  V30 6415 H 610.494 -3.58071 1.18596 0
M  V30 6416 H 612.881 -2.9166 0.44927 0
M  V30 6417 H 612.962 -1.79891 1.81859 0
M  V30 6418 H 612.606 -3.76149 3.41283 0
M  V30 6419 H 612.536 -4.86487 2.01589 0
M  V30 6420 H 615.027 -3.31668 1.81121 0
M  V30 6421 H 615.34 -6.46063 4.24054 0
M  V30 6422 H 613.685 -5.81403 3.80782 0
M  V30 6423 H 616.876 -4.06728 2.31711 0
M  V30 6424 H 617.049 -5.50107 3.42471 0
M  V30 6425 N 610.455 -0.639598 -1.44038 0
M  V30 6426 C 611.871 -0.305953 -1.5664 0
M  V30 6427 C 612.071 1.19055 -1.62567 0
M  V30 6428 O 611.127 1.97492 -1.57331 0
M  V30 6429 C 612.44 -1.00533 -2.83397 0
M  V30 6430 C 613.988 -0.984278 -2.97121 0
M  V30 6431 C 614.463 -1.66428 -4.26691 0
M  V30 6432 N 615.954 -1.63127 -4.33525 0
M  V30 6433 C 616.689 -2.12629 -5.32519 0
M  V30 6434 N 616.185 -2.70359 -6.3787 0
M  V30 6435 N 617.978 -2.03208 -5.24083 0
M  V30 6436 H 610.129 -1.6109 -1.38434 0
M  V30 6437 H 612.392 -0.676672 -0.663942 0
M  V30 6438 H 612.098 -2.06034 -2.85032 0
M  V30 6439 H 611.972 -0.548362 -3.73193 0
M  V30 6440 H 614.359 0.0622792 -2.95034 0
M  V30 6441 H 614.44 -1.47981 -2.08651 0
M  V30 6442 H 614.084 -2.71034 -4.29538 0
M  V30 6443 H 614.014 -1.14351 -5.14034 0
M  V30 6444 H 616.505 -1.20987 -3.58009 0
M  V30 6445 H 616.818 -3.05842 -7.09704 0
M  V30 6446 H 615.163 -2.74414 -6.38531 0
M  V30 6447 H 618.354 -1.57823 -4.40692 0
M  V30 6448 H 618.527 -2.42097 -6.01077 0
M  V30 6449 N 611.933 1.52934 -0.380664 0
M  V30 6450 C 613.344 1.86457 0.0952684 0
M  V30 6451 C 613.695 1.3007 1.46889 0
M  V30 6452 O 612.82 0.628636 2.07068 0
M  V30 6453 C 613.415 3.38323 0.179648 0
M  V30 6454 C 611.974 3.71589 0.599858 0
M  V30 6455 C 611.121 2.76228 -0.243572 0
M  V30 6456 H 614.072 1.46966 -0.59888 0
M  V30 6457 H 614.093 3.67113 1.00042 0
M  V30 6458 H 613.605 3.79333 -0.820228 0
M  V30 6459 H 611.706 3.36144 1.60742 0
M  V30 6460 H 611.819 4.77715 0.364003 0
M  V30 6461 H 610.183 2.53045 0.289855 0
M  V30 6462 H 610.966 3.20074 -1.24127 0
M  V30 6463 N 613.412 0.11024 1.57214 0
M  V30 6464 C 614.342 -0.840002 2.17867 0
M  V30 6465 C 615.323 -1.28352 1.11624 0
M  V30 6466 O 616.508 -1.3477 1.39824 0
M  V30 6467 C 613.638 -2.09349 2.77111 0
M  V30 6468 C 612.592 -1.78807 3.8886 0
M  V30 6469 C 611.918 -3.11112 4.34872 0
M  V30 6470 C 613.218 -1.0632 5.11364 0
M  V30 6471 H 614.912 -0.334608 2.97524 0
M  V30 6472 H 612.458 -0.159502 1.43114 0
M  V30 6473 H 614.411 -2.76275 3.18198 0
M  V30 6474 H 613.135 -2.62198 1.9473 0
M  V30 6475 H 611.794 -1.14273 3.48335 0
M  V30 6476 H 611.442 -3.61877 3.49362 0
M  V30 6477 H 611.142 -2.91453 5.10224 0
M  V30 6478 H 612.666 -3.79171 4.78604 0
M  V30 6479 H 614.08 -1.63383 5.49526 0
M  V30 6480 H 612.477 -0.967876 5.92243 0
M  V30 6481 H 613.547 -0.0484569 4.84876 0
M  V30 6482 N 614.89 -1.56749 -0.16351 0
M  V30 6483 C 616.301 -1.72039 -0.725216 0
M  V30 6484 C 616.652 -0.72202 -1.82432 0
M  V30 6485 O 615.777 0.114942 -2.16095 0
M  V30 6486 C 616.372 -3.11932 -1.32227 0
M  V30 6487 C 614.931 -3.28879 -1.83072 0
M  V30 6488 C 614.078 -2.67984 -0.712716 0
M  V30 6489 H 617.029 -1.58579 0.0619772 0
M  V30 6490 H 617.05 -3.11015 -2.19202 0
M  V30 6491 H 616.562 -3.84572 -0.522103 0
M  V30 6492 H 614.663 -2.61209 -2.65708 0
M  V30 6493 H 614.776 -4.36688 -1.97079 0
M  V30 6494 H 613.14 -2.28005 -1.13515 0
M  V30 6495 H 613.923 -3.43216 0.0757361 0
M  V30 6496 N 616.368 0.432326 -1.51554 0
M  V30 6497 C 617.3 1.54357 -1.6943 0
M  V30 6498 C 618.313 1.52311 -0.574897 0
M  V30 6499 O 619.502 1.56997 -0.849369 0
M  V30 6500 C 616.602 2.93273 -1.69836 0
M  V30 6501 C 615.775 3.19768 -2.98442 0
M  V30 6502 C 614.834 4.38433 -2.90969 0
M  V30 6503 O 613.86 4.36842 -3.64908 0
M  V30 6504 N 615.062 5.42276 -2.07163 0
M  V30 6505 H 617.827 1.39426 -2.65293 0
M  V30 6506 H 615.388 0.621331 -1.49503 0
M  V30 6507 H 617.38 3.70687 -1.62399 0
M  V30 6508 H 615.95 3.01777 -0.815456 0
M  V30 6509 H 615.17 2.30607 -3.19709 0
M  V30 6510 H 616.458 3.343 -3.83563 0
M  V30 6511 H 615.856 5.46407 -1.46477 0
M  V30 6512 H 614.413 6.18524 -2.05601 0
M  V30 6513 N 617.846 1.41785 0.688094 0
M  V30 6514 C 619.092 1.41753 1.4503 0
M  V30 6515 C 619.425 0.0290745 1.94178 0
M  V30 6516 O 618.7 -0.944456 1.7003 0
M  V30 6517 C 618.983 2.43069 2.65686 0
M  V30 6518 C 618.836 3.91053 2.22256 0
M  V30 6519 C 620.155 2.41543 3.67893 0
M  V30 6520 H 617.274 0.516202 0.526027 0
M  V30 6521 H 619.916 1.73111 0.783105 0
M  V30 6522 H 618.066 2.1646 3.2261 0
M  V30 6523 H 619.738 4.28594 1.70602 0
M  V30 6524 H 617.981 4.05559 1.53963 0
M  V30 6525 H 618.652 4.57501 3.08863 0
M  V30 6526 H 621.128 2.65175 3.20658 0
M  V30 6527 H 620.004 3.14434 4.49914 0
M  V30 6528 H 620.265 1.43666 4.18106 0
M  V30 6529 N 619.324 -0.923095 1.27737 0
M  V30 6530 C 620.287 -2.00587 1.10894 0
M  V30 6531 C 621.287 -1.60718 0.0514927 0
M  V30 6532 O 622.477 -1.71658 0.296481 0
M  V30 6533 C 619.609 -3.33829 0.690717 0
M  V30 6534 H 620.802 -2.16959 2.07048 0
M  V30 6535 H 618.355 -1.10451 1.1059 0
M  V30 6536 H 619.09 -3.23157 -0.272 0
M  V30 6537 H 618.875 -3.64125 1.45448 0
M  V30 6538 H 620.365 -4.13336 0.595252 0
M  V30 6539 N 620.802 -1.09834 -1.13024 0
M  V30 6540 C 622.03 -0.858902 -1.8823 0
M  V30 6541 C 622.445 0.590164 -1.79339 0
M  V30 6542 O 621.802 1.4065 -1.16292 0
M  V30 6543 C 621.853 -1.29066 -3.37675 0
M  V30 6544 O 621.574 -2.6829 -3.46341 0
M  V30 6545 C 623.075 -1.08421 -4.29837 0
M  V30 6546 H 620.295 -0.308713 -0.595766 0
M  V30 6547 H 622.839 -1.4614 -1.4305 0
M  V30 6548 H 620.994 -0.731961 -3.80422 0
M  V30 6549 H 621.408 -2.86598 -4.39274 0
M  V30 6550 H 622.882 -1.43553 -5.33007 0
M  V30 6551 H 623.359 -0.0223315 -4.39194 0
M  V30 6552 H 623.965 -1.62907 -3.92863 0
M  V30 6553 N 622.28 1.30327 -0.886154 0
M  V30 6554 C 623.21 2.30549 -0.370028 0
M  V30 6555 C 624.191 1.61039 0.547751 0
M  V30 6556 O 625.376 1.8864 0.461353 0
M  V30 6557 C 622.506 3.44808 0.415275 0
M  V30 6558 C 621.46 4.26024 -0.41085 0
M  V30 6559 C 620.786 5.32347 0.501128 0
M  V30 6560 C 622.086 4.95433 -1.65359 0
M  V30 6561 H 623.78 2.73969 -1.20754 0
M  V30 6562 H 621.326 1.3171 -0.582097 0
M  V30 6563 H 623.279 4.13986 0.78699 0
M  V30 6564 H 622.003 3.00197 1.28644 0
M  V30 6565 H 620.662 3.58535 -0.764719 0
M  V30 6566 H 620.31 4.83982 1.37004 0
M  V30 6567 H 620.01 5.87581 -0.0478356 0
M  V30 6568 H 621.534 6.0438 0.869333 0
M  V30 6569 H 622.948 5.5712 -1.35239 0
M  V30 6570 H 621.345 5.60537 -2.14284 0
M  V30 6571 H 622.415 4.21493 -2.39733 0
M  V30 6572 N 623.758 0.647228 1.43697 0
M  V30 6573 C 625.007 0.155552 2.01099 0
M  V30 6574 C 625.32 -1.23569 1.51624 0
M  V30 6575 O 626.526 -1.82226 2.01261 0
M  V30 6576 C 624.982 0.227296 3.59182 0
M  V30 6577 C 624.59 1.62086 4.17651 0
M  V30 6578 C 626.334 -0.207085 4.23995 0
M  V30 6579 C 624.241 1.64685 5.68008 0
M  V30 6580 H 623.171 0.0543895 0.752036 0
M  V30 6581 H 625.822 0.808386 1.64734 0
M  V30 6582 H 624.204 -0.492937 3.9292 0
M  V30 6583 H 625.378 2.36597 3.95422 0
M  V30 6584 H 623.693 2.0007 3.65186 0
M  V30 6585 H 626.29 -0.207426 5.34298 0
M  V30 6586 H 626.633 -1.23742 3.97484 0
M  V30 6587 H 627.166 0.461193 3.95118 0
M  V30 6588 H 623.905 2.65608 5.99277 0
M  V30 6589 H 623.425 0.944914 5.9231 0
M  V30 6590 H 625.104 1.38792 6.31938 0
M  V30 6591 N 625.236 -1.5273 0.388769 0
M  V30 6592 C 626.513 -1.93981 -0.251133 0
M  V30 6593 C 626.893 -1.32418 -1.64404 0
M  V30 6594 O 626.241 -0.492074 -2.23139 0
M  V30 6595 C 626.451 -3.47891 -0.27802 0
M  V30 6596 C 627.799 -4.21559 -0.507229 0
M  V30 6597 O 628.823 -3.54394 -0.358252 0
M  V30 6598 O 627.682 -5.40626 -0.799094 0
M  V30 6599 H 624.776 -0.812157 -0.15598 0
M  V30 6600 H 627.322 -1.63809 0.443237 0
M  V30 6601 H 626.094 -3.8503 0.697669 0
M  V30 6602 H 625.717 -3.84364 -1.01733 0
M  V30 6603 N 626.714 -0.118576 -1.57153 0
M  V30 6604 C 628.13 0.238014 -1.57815 0
M  V30 6605 C 628.33 1.66747 -1.13127 0
M  V30 6606 O 627.386 2.38867 -0.818462 0
M  V30 6607 C 628.699 0.00508207 -3.007 0
M  V30 6608 C 630.247 0.0710139 -3.12919 0
M  V30 6609 C 630.722 -0.13422 -4.57803 0
M  V30 6610 N 632.213 -0.0801755 -4.63131 0
M  V30 6611 C 632.948 -0.213885 -5.73001 0
M  V30 6612 N 632.444 -0.403742 -6.91623 0
M  V30 6613 N 634.237 -0.15349 -5.6189 0
M  V30 6614 H 626.388 -1.05226 -1.84503 0
M  V30 6615 H 628.651 -0.414318 -0.852669 0
M  V30 6616 H 628.357 -0.983125 -3.3768 0
M  V30 6617 H 628.231 0.73714 -3.69927 0
M  V30 6618 H 630.618 1.04975 -2.75798 0
M  V30 6619 H 630.699 -0.692918 -2.46236 0
M  V30 6620 H 630.343 -1.10992 -4.95624 0
M  V30 6621 H 630.273 0.649692 -5.22577 0
M  V30 6622 H 632.764 0.0630689 -3.77847 0
M  V30 6623 H 633.077 -0.496645 -7.71202 0
M  V30 6624 H 631.422 -0.43971 -6.93608 0
M  V30 6625 H 634.613 -0.00613174 -4.681 0
M  V30 6626 H 634.786 -0.261138 -6.47474 0
M  V30 6627 N 628.193 1.56834 0.155195 0
M  V30 6628 C 629.44 1.82898 0.869179 0
M  V30 6629 C 629.768 0.698194 1.81537 0
M  V30 6630 O 629.023 -0.313404 1.93174 0
M  V30 6631 C 629.322 3.15239 1.68402 0
M  V30 6632 C 628.988 4.42123 0.885341 0
M  V30 6633 C 627.65 4.76583 0.664971 0
M  V30 6634 C 630.002 5.20178 0.326234 0
M  V30 6635 C 627.33 5.86566 -0.125346 0
M  V30 6636 C 629.682 6.3099 -0.45108 0
M  V30 6637 C 628.346 6.64006 -0.682102 0
M  V30 6638 H 627.616 0.66927 0.318055 0
M  V30 6639 H 630.263 1.91036 0.133241 0
M  V30 6640 H 628.568 3.02515 2.48982 0
M  V30 6641 H 630.265 3.32618 2.23978 0
M  V30 6642 H 626.855 4.15102 1.06716 0
M  V30 6643 H 631.039 4.93936 0.483787 0
M  V30 6644 H 626.295 6.10594 -0.313915 0
M  V30 6645 H 630.469 6.9067 -0.89149 0
M  V30 6646 H 628.096 7.49065 -1.29636 0
M  V30 6647 N 629.671 -0.424282 1.51781 0
M  V30 6648 C 630.917 -1.17434 1.6534 0
M  V30 6649 C 631.25 -1.90549 0.374806 0
M  V30 6650 O 630.525 -1.84145 -0.626179 0
M  V30 6651 C 630.808 -2.18093 2.86544 0
M  V30 6652 C 630.661 -1.48975 4.24413 0
M  V30 6653 C 631.98 -3.18934 3.03264 0
M  V30 6654 H 629.099 -0.425566 0.601716 0
M  V30 6655 H 631.741 -0.461921 1.84299 0
M  V30 6656 H 629.891 -2.78849 2.7051 0
M  V30 6657 H 631.563 -0.914551 4.52143 0
M  V30 6658 H 629.806 -0.791893 4.26511 0
M  V30 6659 H 630.477 -2.22347 5.05238 0
M  V30 6660 H 632.953 -2.68243 3.18096 0
M  V30 6661 H 631.829 -3.86645 3.89611 0
M  V30 6662 H 632.09 -3.85793 2.15908 0
M  V30 6663 N 631.149 -1.42148 -0.680565 0
M  V30 6664 C 632.096 -1.45175 -1.79424 0
M  V30 6665 C 633.066 -0.304352 -1.63288 0
M  V30 6666 O 634.251 -0.507591 -1.83924 0
M  V30 6667 C 631.391 -1.35429 -3.17416 0
M  V30 6668 C 630.504 -2.60158 -3.4488 0
M  V30 6669 C 629.639 -2.42596 -4.72568 0
M  V30 6670 C 628.678 -3.62727 -4.93047 0
M  V30 6671 N 627.815 -3.44143 -6.11973 0
M  V30 6672 H 632.655 -2.40349 -1.76172 0
M  V30 6673 H 630.192 -1.19334 -0.860107 0
M  V30 6674 H 632.15 -1.27777 -3.97151 0
M  V30 6675 H 630.78 -0.438536 -3.19807 0
M  V30 6676 H 629.832 -2.78199 -2.5944 0
M  V30 6677 H 631.144 -3.49473 -3.55908 0
M  V30 6678 H 630.298 -2.32497 -5.60384 0
M  V30 6679 H 629.037 -1.50761 -4.63813 0
M  V30 6680 H 628.042 -3.73264 -4.03676 0
M  V30 6681 H 629.267 -4.55534 -5.03652 0
M  V30 6682 H 627.213 -2.5502 -6.04401 0
M  V30 6683 H 627.13 -4.27041 -6.23836 0
M  V30 6684 H 628.398 -3.37845 -7.02482 0
M  V30 6685 N 632.627 0.916307 -1.28225 0
M  V30 6686 C 633.875 1.6619 -1.15002 0
M  V30 6687 C 634.196 1.92642 0.302329 0
M  V30 6688 O 633.466 1.54076 1.20985 0
M  V30 6689 H 632.046 0.615964 -0.422608 0
M  V30 6690 H 634.708 1.09963 -1.60917 0
M  V30 6691 H 633.804 2.62533 -1.68769 0
M  V30 6692 N 634.105 1.10431 1.1244 0
M  V30 6693 C 635.521 0.836096 1.35947 0
M  V30 6694 C 635.721 -0.544475 1.94004 0
M  V30 6695 O 634.777 -1.29735 2.16622 0
M  V30 6696 C 636.09 1.93575 2.30107 0
M  V30 6697 C 637.638 1.9642 2.43697 0
M  V30 6698 C 638.113 3.05559 3.41171 0
M  V30 6699 N 639.604 3.04865 3.48728 0
M  V30 6700 C 640.339 3.85954 4.24061 0
M  V30 6701 N 639.835 4.76977 5.02458 0
M  V30 6702 N 641.628 3.74172 4.19466 0
M  V30 6703 H 633.779 1.9942 0.731124 0
M  V30 6704 H 636.042 0.866607 0.384312 0
M  V30 6705 H 635.748 2.92943 1.94621 0
M  V30 6706 H 635.622 1.8229 3.30227 0
M  V30 6707 H 638.009 0.97685 2.78463 0
M  V30 6708 H 638.09 2.11782 1.43465 0
M  V30 6709 H 637.734 4.04513 3.07135 0
M  V30 6710 H 637.664 2.87438 4.41234 0
M  V30 6711 H 640.155 2.38908 2.92799 0
M  V30 6712 H 640.468 5.35409 5.57277 0
M  V30 6713 H 638.813 4.81006 5.01655 0
M  V30 6714 H 642.004 3.02412 3.57302 0
M  V30 6715 H 642.177 4.37602 4.77921 0
M  V30 6716 N 635.583 -1.29855 0.893053 0
M  V30 6717 C 636.831 -1.9544 0.514566 0
M  V30 6718 C 637.152 -1.70795 -0.940959 0
M  V30 6719 O 636.422 -1.03601 -1.66264 0
M  V30 6720 H 635.002 -0.723137 0.187302 0
M  V30 6721 H 637.664 -1.58234 1.13789 0
M  V30 6722 H 636.76 -3.04341 0.691581 0
M  V30 6723 N 637.061 -0.65484 -1.43351 0
M  V30 6724 C 637.993 0.0744757 -2.29079 0
M  V30 6725 C 639.006 0.7855 -1.42596 0
M  V30 6726 O 640.195 0.642986 -1.66517 0
M  V30 6727 C 637.295 1.12859 -3.19556 0
M  V30 6728 C 636.468 0.495381 -4.34586 0
M  V30 6729 C 635.527 1.44659 -5.05925 0
M  V30 6730 O 634.553 0.954567 -5.61139 0
M  V30 6731 N 635.755 2.78051 -5.09576 0
M  V30 6732 H 638.52 -0.661346 -2.92312 0
M  V30 6733 H 636.081 -0.497744 -1.54059 0
M  V30 6734 H 638.073 1.76577 -3.64147 0
M  V30 6735 H 636.643 1.76636 -2.57912 0
M  V30 6736 H 635.863 -0.32092 -3.92892 0
M  V30 6737 H 637.151 0.0534203 -5.08772 0
M  V30 6738 H 636.549 3.20584 -4.66093 0
M  V30 6739 H 635.106 3.37068 -5.57878 0
M  V30 6740 N 638.539 1.52521 -0.396863 0
M  V30 6741 C 639.469 2.29582 0.425941 0
M  V30 6742 C 640.45 1.33281 1.05689 0
M  V30 6743 O 641.635 1.62181 1.06823 0
M  V30 6744 C 638.765 3.10821 1.54943 0
M  V30 6745 C 637.719 4.15069 1.04413 0
M  V30 6746 C 637.045 4.84578 2.26028 0
M  V30 6747 C 638.345 5.22191 0.106767 0
M  V30 6748 H 640.039 2.98612 -0.217045 0
M  V30 6749 H 637.585 1.43611 -0.105826 0
M  V30 6750 H 639.538 3.63492 2.13193 0
M  V30 6751 H 638.262 2.39538 2.22011 0
M  V30 6752 H 636.921 3.63389 0.484118 0
M  V30 6753 H 636.569 4.09835 2.91623 0
M  V30 6754 H 636.269 5.55043 1.92876 0
M  V30 6755 H 637.793 5.40056 2.84906 0
M  V30 6756 H 639.207 5.70176 0.597685 0
M  V30 6757 H 637.604 5.99947 -0.135352 0
M  V30 6758 H 638.674 4.77531 -0.842134 0
M  V30 6759 N 640.017 0.126909 1.57088 0
M  V30 6760 C 641.294 -0.573152 1.87014 0
M  V30 6761 C 641.674 -1.84297 1.02945 0
M  V30 6762 O 641.022 -2.28232 0.110573 0
M  V30 6763 C 641.232 -0.857984 3.38289 0
M  V30 6764 C 642.58 -1.20759 4.07066 0
M  V30 6765 O 643.604 -0.947992 3.43353 0
M  V30 6766 O 642.463 -1.69516 5.19545 0
M  V30 6767 H 639.557 -0.290082 0.774456 0
M  V30 6768 H 642.103 0.162008 1.68925 0
M  V30 6769 H 640.875 0.0415286 3.91278 0
M  V30 6770 H 640.498 -1.64803 3.61837 0
M  V30 6771 N 641.495 -1.56914 -0.146875 0
M  V30 6772 C 642.442 -1.98275 -1.18134 0
M  V30 6773 C 643.412 -0.850367 -1.42681 0
M  V30 6774 O 644.597 -1.11244 -1.55014 0
M  V30 6775 C 641.737 -2.36861 -2.5098 0
M  V30 6776 C 640.85 -3.63391 -2.33605 0
M  V30 6777 C 639.985 -3.91079 -3.59486 0
M  V30 6778 C 639.024 -5.10879 -3.37149 0
M  V30 6779 N 638.161 -5.34577 -4.55161 0
M  V30 6780 H 643.001 -2.8645 -0.821622 0
M  V30 6781 H 640.538 -1.41718 -0.394248 0
M  V30 6782 H 642.496 -2.57262 -3.28439 0
M  V30 6783 H 641.126 -1.51766 -2.84898 0
M  V30 6784 H 640.178 -3.50766 -1.47199 0
M  V30 6785 H 641.49 -4.51007 -2.13059 0
M  V30 6786 H 640.644 -4.11979 -4.45374 0
M  V30 6787 H 639.383 -3.01885 -3.83036 0
M  V30 6788 H 638.388 -4.89853 -2.49649 0
M  V30 6789 H 639.613 -6.01626 -3.14997 0
M  V30 6790 H 637.559 -4.48337 -4.78884 0
M  V30 6791 H 637.476 -6.16463 -4.37618 0
M  V30 6792 H 638.744 -5.59975 -5.42263 0
M  V30 6793 N 642.974 0.416227 -1.52004 0
M  V30 6794 C 644.251 1.17637 -1.56272 0
M  V30 6795 C 644.631 2.08352 -0.339493 0
M  V30 6796 O 643.979 2.1833 0.674124 0
M  V30 6797 C 644.189 1.95986 -2.88774 0
M  V30 6798 C 645.537 2.52299 -3.41512 0
M  V30 6799 O 646.561 2.06174 -2.90467 0
M  V30 6800 O 645.42 3.3648 -4.30631 0
M  V30 6801 H 642.514 0.536726 -0.629169 0
M  V30 6802 H 645.06 0.423583 -1.64329 0
M  V30 6803 H 643.832 1.29487 -3.69254 0
M  V30 6804 H 643.455 2.78285 -2.83978 0
M  V30 6805 N 644.452 1.42507 0.673017 0
M  V30 6806 C 645.68 1.46473 1.46128 0
M  V30 6807 C 646.095 0.0765912 1.88645 0
M  V30 6808 O 645.452 -0.909057 1.58248 0
M  V30 6809 C 645.503 2.39339 2.70923 0
M  V30 6810 O 645.224 3.72752 2.3019 0
M  V30 6811 C 646.725 2.52343 3.64469 0
M  V30 6812 H 643.945 0.49812 0.449575 0
M  V30 6813 H 646.489 1.87041 0.826802 0
M  V30 6814 H 644.644 2.02019 3.30556 0
M  V30 6815 H 645.058 4.22503 3.10791 0
M  V30 6816 H 646.532 3.2144 4.48754 0
M  V30 6817 H 647.009 1.56189 4.1049 0
M  V30 6818 H 647.615 2.90392 3.10729 0
M  V30 6819 N 645.93 -0.909495 1.28709 0
M  V30 6820 C 646.86 -2.0291 1.15542 0
M  V30 6821 C 647.841 -1.7002 0.0521017 0
M  V30 6822 O 649.026 -1.92835 0.229849 0
M  V30 6823 C 646.156 -3.37458 0.820935 0
M  V30 6824 C 645.11 -3.84524 1.87949 0
M  V30 6825 C 644.436 -5.16086 1.39854 0
M  V30 6826 C 645.736 -4.05918 3.28676 0
M  V30 6827 H 647.43 -2.14183 2.09203 0
M  V30 6828 H 644.976 -1.02913 1.00722 0
M  V30 6829 H 646.929 -4.1528 0.715571 0
M  V30 6830 H 645.653 -3.26249 -0.151374 0
M  V30 6831 H 644.312 -3.08911 1.97408 0
M  V30 6832 H 643.96 -5.01284 0.41518 0
M  V30 6833 H 643.66 -5.48547 2.1064 0
M  V30 6834 H 645.184 -5.96459 1.30649 0
M  V30 6835 H 646.598 -4.74252 3.22115 0
M  V30 6836 H 644.995 -4.49717 3.97334 0
M  V30 6837 H 646.065 -3.10583 3.72379 0
M  V30 6838 N 647.408 -1.11026 -1.11852 0
M  V30 6839 C 648.685 -0.768347 -1.79877 0
M  V30 6840 C 649.065 0.744261 -1.97545 0
M  V30 6841 O 648.413 1.67271 -1.55669 0
M  V30 6842 C 648.623 -1.52648 -3.13846 0
M  V30 6843 C 649.971 -1.70297 -3.88953 0
M  V30 6844 O 650.995 -1.49037 -3.23522 0
M  V30 6845 O 649.854 -2.05593 -5.06353 0
M  V30 6846 H 646.948 -0.277891 -0.778913 0
M  V30 6847 H 649.494 -1.21343 -1.18633 0
M  V30 6848 H 648.266 -2.55564 -2.96315 0
M  V30 6849 H 647.889 -1.07466 -3.82801 0
M  V30 6850 N 648.886 1.2938 -0.899927 0
M  V30 6851 C 650.114 1.99691 -0.541386 0
M  V30 6852 C 650.529 1.67355 0.873936 0
M  V30 6853 O 649.886 0.918728 1.57688 0
M  V30 6854 C 649.937 3.54168 -0.72438 0
M  V30 6855 O 649.658 3.85359 -2.08399 0
M  V30 6856 C 651.159 4.41746 -0.370819 0
M  V30 6857 H 648.379 0.638037 -0.207726 0
M  V30 6858 H 650.923 1.6491 -1.20934 0
M  V30 6859 H 649.078 3.87261 -0.103607 0
M  V30 6860 H 649.492 4.80032 -2.11352 0
M  V30 6861 H 650.966 5.49256 -0.549693 0
M  V30 6862 H 651.443 4.33712 0.692148 0
M  V30 6863 H 652.049 4.14125 -0.968543 0
M  V30 6864 N 650.364 0.662433 1.43002 0
M  V30 6865 C 651.294 -0.00979809 2.33498 0
M  V30 6866 C 652.275 -0.802329 1.49989 0
M  V30 6867 O 653.46 -0.761964 1.78627 0
M  V30 6868 C 650.59 -0.970446 3.33466 0
M  V30 6869 C 649.544 -0.287383 4.27034 0
M  V30 6870 C 648.87 -1.36012 5.17112 0
M  V30 6871 C 650.17 0.82595 5.15728 0
M  V30 6872 H 651.864 0.745959 2.89958 0
M  V30 6873 H 649.41 0.360172 1.39423 0
M  V30 6874 H 651.363 -1.44971 3.95679 0
M  V30 6875 H 650.087 -1.75748 2.75282 0
M  V30 6876 H 648.746 0.17152 3.66199 0
M  V30 6877 H 648.394 -2.13882 4.55262 0
M  V30 6878 H 648.094 -0.908276 5.80538 0
M  V30 6879 H 649.618 -1.84056 5.82199 0
M  V30 6880 H 651.032 0.42845 5.71697 0
M  V30 6881 H 649.429 1.20282 5.87922 0
M  V30 6882 H 650.499 1.68003 4.54866 0
M  V30 6883 N 651.842 -1.52309 0.404946 0
M  V30 6884 C 653.07 -2.06185 -0.171818 0
M  V30 6885 C 653.485 -1.27536 -1.39212 0
M  V30 6886 O 652.842 -0.326112 -1.79563 0
M  V30 6887 C 652.893 -3.57647 -0.526417 0
M  V30 6888 O 652.614 -4.3332 0.645417 0
M  V30 6889 C 654.115 -4.27925 -1.15736 0
M  V30 6890 H 651.335 -0.670632 -0.0222328 0
M  V30 6891 H 653.879 -1.96259 0.574692 0
M  V30 6892 H 652.034 -3.67595 -1.22282 0
M  V30 6893 H 652.448 -5.23328 0.35042 0
M  V30 6894 H 653.922 -5.35093 -1.35572 0
M  V30 6895 H 654.399 -3.84134 -2.12926 0
M  V30 6896 H 655.005 -4.22335 -0.501281 0
M  V30 6897 N 653.32 -0.135238 -1.57019 0
M  V30 6898 C 654.283 0.794707 -2.14981 0
M  V30 6899 C 655.283 1.18342 -1.08866 0
M  V30 6900 O 656.473 1.10627 -1.34563 0
M  V30 6901 C 653.605 2.07685 -2.70333 0
M  V30 6902 H 654.798 0.290696 -2.98488 0
M  V30 6903 H 652.351 0.114128 -1.55883 0
M  V30 6904 H 653.086 2.6248 -1.9046 0
M  V30 6905 H 652.871 1.80745 -3.47957 0
M  V30 6906 H 654.361 2.74127 -3.1503 0
M  V30 6907 N 654.798 1.5699 0.138552 0
M  V30 6908 C 656.045 1.83809 0.849732 0
M  V30 6909 C 656.373 0.717409 1.80786 0
M  V30 6910 O 655.628 -0.292897 1.93496 0
M  V30 6911 C 655.927 3.17007 1.65049 0
M  V30 6912 C 655.593 4.43037 0.838398 0
M  V30 6913 C 654.255 4.77262 0.614385 0
M  V30 6914 C 656.607 5.20495 0.271044 0
M  V30 6915 C 653.935 5.864 -0.187552 0
M  V30 6916 C 656.287 6.30476 -0.517979 0
M  V30 6917 C 654.951 6.63245 -0.75249 0
M  V30 6918 H 654.221 0.672605 0.310939 0
M  V30 6919 H 656.868 1.91166 0.112971 0
M  V30 6920 H 655.173 3.05138 2.4576 0
M  V30 6921 H 656.87 3.34975 2.20437 0
M  V30 6922 H 653.46 4.16211 1.02307 0
M  V30 6923 H 657.644 4.94422 0.431371 0
M  V30 6924 H 652.9 6.10226 -0.378659 0
M  V30 6925 H 657.074 6.89686 -0.964694 0
M  V30 6926 H 654.701 7.47648 -1.37573 0
M  V30 6927 N 656.276 -0.40816 1.52223 0
M  V30 6928 C 657.506 -1.17501 1.69932 0
M  V30 6929 C 657.914 -1.84729 0.408874 0
M  V30 6930 O 657.257 -1.7274 -0.625025 0
M  V30 6931 C 657.319 -2.27994 2.77955 0
M  V30 6932 C 656.983 -1.80894 4.19674 0
M  V30 6933 C 657.98 -1.29618 5.03483 0
M  V30 6934 C 655.665 -1.87698 4.65913 0
M  V30 6935 C 657.659 -0.857695 6.31603 0
M  V30 6936 C 655.346 -1.43461 5.94022 0
M  V30 6937 C 656.344 -0.925822 6.76696 0
M  V30 6938 O 656.032 -0.489841 8.02406 0
M  V30 6939 H 655.764 -0.359065 0.572755 0
M  V30 6940 H 658.318 -0.486188 1.99563 0
M  V30 6941 H 656.548 -3.00243 2.43703 0
M  V30 6942 H 658.237 -2.89749 2.84254 0
M  V30 6943 H 659.003 -1.23733 4.68951 0
M  V30 6944 H 654.882 -2.26244 4.01665 0
M  V30 6945 H 658.426 -0.459879 6.96083 0
M  V30 6946 H 654.323 -1.49026 6.28062 0
M  V30 6947 H 655.091 -0.613062 8.16201 0
M  V30 6948 N 657.755 -1.42862 -0.66545 0
M  V30 6949 C 659.166 -1.3901 -1.24632 0
M  V30 6950 C 659.517 -0.0880285 -1.96002 0
M  V30 6951 O 658.642 0.812947 -2.0055 0
M  V30 6952 C 659.237 -2.51806 -2.2667 0
M  V30 6953 C 657.796 -2.51257 -2.80262 0
M  V30 6954 C 656.943 -2.30124 -1.5472 0
M  V30 6955 H 659.894 -1.5194 -0.458237 0
M  V30 6956 H 659.915 -2.22593 -3.08598 0
M  V30 6957 H 659.427 -3.46558 -1.74697 0
M  V30 6958 H 657.528 -1.60349 -3.36332 0
M  V30 6959 H 657.641 -3.48614 -3.28641 0
M  V30 6960 H 656.005 -1.7856 -1.81627 0
M  V30 6961 H 656.788 -3.26945 -1.04699 0
M  V30 6962 N 659.233 0.902656 -1.29189 0
M  V30 6963 C 660.481 1.6496 -1.16758 0
M  V30 6964 C 660.802 1.92952 0.28188 0
M  V30 6965 O 660.072 1.55351 1.19344 0
M  V30 6966 H 658.652 0.611447 -0.429118 0
M  V30 6967 H 661.314 1.0825 -1.62074 0
M  V30 6968 H 660.41 2.60728 -1.71544 0
M  V30 6969 N 660.711 1.11618 1.11262 0
M  V30 6970 C 661.941 0.88745 1.86569 0
M  V30 6971 C 662.349 -0.56636 1.80524 0
M  V30 6972 O 661.692 -1.40289 1.18594 0
M  V30 6973 C 661.754 1.27313 3.36202 0
M  V30 6974 C 661.418 2.73649 3.66013 0
M  V30 6975 C 662.415 3.71863 3.63337 0
M  V30 6976 C 660.1 3.10342 3.9496 0
M  V30 6977 C 662.094 5.04788 3.89188 0
M  V30 6978 C 659.781 4.43451 4.20469 0
M  V30 6979 C 660.779 5.40484 4.17572 0
M  V30 6980 O 660.467 6.71195 4.42439 0
M  V30 6981 H 660.199 0.317543 0.596777 0
M  V30 6982 H 662.753 1.48768 1.41624 0
M  V30 6983 H 660.983 0.616062 3.81761 0
M  V30 6984 H 662.672 1.01991 3.92877 0
M  V30 6985 H 663.438 3.44861 3.41022 0
M  V30 6986 H 659.317 2.35431 3.9635 0
M  V30 6987 H 662.861 5.80516 3.86842 0
M  V30 6988 H 658.758 4.70187 4.42261 0
M  V30 6989 H 659.526 6.77012 4.59997 0
M  V30 6990 N 662.189 -1.289 0.906776 0
M  V30 6991 C 663.119 -2.29932 0.406659 0
M  V30 6992 C 664.1 -1.6189 -0.522061 0
M  V30 6993 O 665.285 -1.8935 -0.431283 0
M  V30 6994 C 662.415 -3.45425 -0.360366 0
M  V30 6995 C 661.369 -4.25316 0.478574 0
M  V30 6996 C 660.695 -5.33076 -0.416373 0
M  V30 6997 C 661.995 -4.92739 1.7322 0
M  V30 6998 H 663.689 -2.72013 1.25097 0
M  V30 6999 H 661.235 -1.30768 0.602977 0
M  V30 7000 H 663.188 -4.15186 -0.721029 0
M  V30 7001 H 661.912 -3.02206 -1.23852 0
M  V30 7002 H 660.571 -3.57273 0.821662 0
M  V30 7003 H 660.219 -4.86101 -1.29287 0
M  V30 7004 H 659.919 -5.8743 0.141309 0
M  V30 7005 H 661.443 -6.05686 -0.773072 0
M  V30 7006 H 662.857 -5.54898 1.44086 0
M  V30 7007 H 661.254 -5.57057 2.23175 0
M  V30 7008 H 662.324 -4.17625 2.46408 0
M  V30 7009 N 663.667 -0.670007 -1.42649 0
M  V30 7010 C 664.907 -0.194106 -2.03476 0
M  V30 7011 C 665.271 1.1755 -1.51809 0
M  V30 7012 O 666.472 1.74579 -2.04391 0
M  V30 7013 C 664.743 -0.221828 -3.56711 0
M  V30 7014 S 666.302 0.183772 -4.38415 0
M  V30 7015 H 663.12 -0.0802478 -0.706457 0
M  V30 7016 H 665.722 -0.882092 -1.74469 0
M  V30 7017 H 664.426 -1.22107 -3.91814 0
M  V30 7018 H 663.957 0.486149 -3.90385 0
M  V30 7019 H 665.972 1.41839 -4.75496 0
M  V30 7020 N 665.145 1.52092 -0.413018 0
M  V30 7021 C 666.37 2.06756 0.163338 0
M  V30 7022 C 666.795 1.28073 1.37764 0
M  V30 7023 O 666.153 0.312015 1.78595 0
M  V30 7024 C 666.201 3.57278 0.488322 0
M  V30 7025 O 665.305 3.80986 1.57871 0
M  V30 7026 H 664.646 0.663882 0.0125068 0
M  V30 7027 H 667.176 1.95988 -0.587339 0
M  V30 7028 H 667.186 4.01125 0.745836 0
M  V30 7029 H 665.861 4.13978 -0.399327 0
M  V30 7030 H 664.438 3.49017 1.31306 0
M  V30 7031 N 666.623 0.143563 1.56945 0
M  V30 7032 C 667.553 -0.7936 2.196 0
M  V30 7033 C 668.534 -1.25955 1.14321 0
M  V30 7034 O 669.719 -1.31773 1.42651 0
M  V30 7035 C 666.849 -2.03424 2.81489 0
M  V30 7036 C 665.803 -1.70519 3.92565 0
M  V30 7037 C 665.129 -3.01817 4.41373 0
M  V30 7038 C 666.429 -0.95449 5.13504 0
M  V30 7039 H 668.123 -0.271423 2.98167 0
M  V30 7040 H 665.669 -0.12911 1.4342 0
M  V30 7041 H 667.622 -2.69463 3.23987 0
M  V30 7042 H 666.346 -2.58008 2.00248 0
M  V30 7043 H 665.005 -1.06859 3.5068 0
M  V30 7044 H 664.653 -3.54386 3.56959 0
M  V30 7045 H 664.353 -2.80565 5.16292 0
M  V30 7046 H 665.877 -3.68934 4.86539 0
M  V30 7047 H 667.291 -1.5169 5.52868 0
M  V30 7048 H 665.688 -0.842035 5.94163 0
M  V30 7049 H 666.758 0.0544033 4.84869 0
M  V30 7050 N 668.101 -1.57061 -0.130224 0
M  V30 7051 C 669.326 -1.88802 -0.858409 0
M  V30 7052 C 669.751 -0.734353 -1.73173 0
M  V30 7053 O 669.109 0.315529 -1.78533 0
M  V30 7054 C 669.157 -3.19228 -1.67708 0
M  V30 7055 O 668.261 -3.04343 -2.78297 0
M  V30 7056 H 667.602 -0.619849 -0.238083 0
M  V30 7057 H 670.132 -2.04271 -0.115995 0
M  V30 7058 H 670.142 -3.51669 -2.06864 0
M  V30 7059 H 668.817 -4.02793 -1.0359 0
M  V30 7060 H 667.394 -2.83346 -2.42425 0
M  V30 7061 N 669.579 0.400081 -1.52437 0
M  V30 7062 C 670.99 0.97851 -1.59003 0
M  V30 7063 C 671.341 1.91293 -0.436068 0
M  V30 7064 O 670.466 2.1183 0.442365 0
M  V30 7065 C 671.061 1.78145 -2.88184 0
M  V30 7066 C 669.62 2.30976 -2.97199 0
M  V30 7067 C 668.767 1.11212 -2.54022 0
M  V30 7068 H 671.718 0.180002 -1.57676 0
M  V30 7069 H 671.739 2.63968 -2.74046 0
M  V30 7070 H 671.251 1.1011 -3.72152 0
M  V30 7071 H 669.352 3.02355 -2.17744 0
M  V30 7072 H 669.465 2.61221 -4.01622 0
M  V30 7073 H 667.829 1.46882 -2.08081 0
M  V30 7074 H 668.612 0.447307 -3.40373 0
M  V30 7075 N 671.057 1.43213 0.657864 0
M  V30 7076 C 671.967 1.50448 1.80007 0
M  V30 7077 C 672.983 0.39191 1.69529 0
M  V30 7078 O 674.159 0.645349 1.90781 0
M  V30 7079 C 671.224 1.42062 3.16258 0
M  V30 7080 C 670.285 2.63951 3.38568 0
M  V30 7081 C 669.518 2.55956 4.68318 0
M  V30 7082 O 669.741 1.60473 5.47361 0
M  V30 7083 O 668.675 3.46378 4.92245 0
M  V30 7084 H 672.501 2.4689 1.76858 0
M  V30 7085 H 670.086 1.25163 0.81576 0
M  V30 7086 H 671.968 1.3981 3.97531 0
M  V30 7087 H 670.643 0.487524 3.20008 0
M  V30 7088 H 669.55 2.71776 2.57077 0
M  V30 7089 H 670.883 3.56217 3.39662 0
M  V30 7090 N 672.536 -0.895792 1.29666 0
M  V30 7091 C 673.446 -2.03329 1.17024 0
M  V30 7092 C 674.462 -1.73753 0.0925962 0
M  V30 7093 O 675.638 -1.99071 0.305431 0
M  V30 7094 C 672.703 -3.36072 0.851841 0
M  V30 7095 C 671.764 -3.7914 2.01373 0
M  V30 7096 C 670.997 -5.05549 1.71043 0
M  V30 7097 O 671.22 -5.66874 0.633213 0
M  V30 7098 O 670.154 -5.44764 2.5596 0
M  V30 7099 H 673.98 -2.16918 2.12556 0
M  V30 7100 H 671.565 -1.02007 1.09156 0
M  V30 7101 H 673.447 -4.15729 0.689006 0
M  V30 7102 H 672.122 -3.23616 -0.0736634 0
M  V30 7103 H 671.029 -3.00233 2.23183 0
M  V30 7104 H 672.362 -3.96186 2.92058 0
M  V30 7105 N 674.014 -1.12206 -1.10668 0
M  V30 7106 C 674.944 -0.810086 -2.18997 0
M  V30 7107 C 675.925 0.225065 -1.68604 0
M  V30 7108 O 677.11 0.086783 -1.94006 0
M  V30 7109 C 674.24 -0.261262 -3.46316 0
M  V30 7110 C 673.194 -1.2292 -4.09969 0
M  V30 7111 C 672.52 -0.540713 -5.31959 0
M  V30 7112 C 673.82 -2.58295 -4.53962 0
M  V30 7113 H 675.514 -1.7159 -2.45352 0
M  V30 7114 H 673.06 -0.82646 -1.17922 0
M  V30 7115 H 675.013 -0.0307522 -4.21389 0
M  V30 7116 H 673.737 0.679879 -3.19445 0
M  V30 7117 H 672.396 -1.44548 -3.369 0
M  V30 7118 H 672.044 0.405492 -5.01363 0
M  V30 7119 H 671.744 -1.18637 -5.75499 0
M  V30 7120 H 673.268 -0.319184 -6.09765 0
M  V30 7121 H 674.682 -2.40709 -5.20319 0
M  V30 7122 H 673.079 -3.18916 -5.08343 0
M  V30 7123 H 674.149 -3.16918 -3.67002 0
M  V30 7124 N 675.492 1.28418 -0.913599 0
M  V30 7125 C 676.717 1.99643 -0.561899 0
M  V30 7126 C 677.142 1.67819 0.849608 0
M  V30 7127 O 676.5 0.910503 1.56779 0
M  V30 7128 C 676.548 3.52116 -0.777622 0
M  V30 7129 O 675.652 4.12076 0.163457 0
M  V30 7130 H 674.993 0.627229 -0.217898 0
M  V30 7131 H 677.523 1.63575 -1.229 0
M  V30 7132 H 677.533 4.02163 -0.687666 0
M  V30 7133 H 676.208 3.74613 -1.8066 0
M  V30 7134 H 674.785 3.72892 0.0247827 0
M  V30 7135 N 676.97 0.677563 1.42291 0
M  V30 7136 C 678.195 0.207901 2.06355 0
M  V30 7137 C 678.62 -1.12723 1.50583 0
M  V30 7138 O 677.978 -1.70171 0.62543 0
M  V30 7139 C 678.026 0.156489 3.6026 0
M  V30 7140 O 677.13 -0.874162 4.03029 0
M  V30 7141 H 676.471 0.106056 0.655475 0
M  V30 7142 H 679.001 0.927354 1.82377 0
M  V30 7143 H 679.011 -0.0187258 4.07996 0
M  V30 7144 H 677.686 1.13101 4.00226 0
M  V30 7145 H 676.263 -0.669764 3.66836 0
M  V30 7146 N 678.448 -1.51871 0.421078 0
M  V30 7147 C 679.694 -2.02237 -0.151014 0
M  V30 7148 C 680.027 -1.30554 -1.43768 0
M  V30 7149 O 679.302 -0.41546 -1.90011 0
M  V30 7150 C 679.585 -3.5802 -0.386482 0
M  V30 7151 C 679.438 -4.40339 0.9177 0
M  V30 7152 C 680.757 -4.24444 -1.16342 0
M  V30 7153 H 677.876 -0.735062 -0.0534102 0
M  V30 7154 H 680.518 -1.81656 0.556888 0
M  V30 7155 H 678.668 -3.75688 -0.989494 0
M  V30 7156 H 680.34 -4.34357 1.55344 0
M  V30 7157 H 678.583 -4.06073 1.526 0
M  V30 7158 H 679.254 -5.47451 0.707187 0
M  V30 7159 H 681.73 -4.10948 -0.652788 0
M  V30 7160 H 680.606 -5.33358 -1.29693 0
M  V30 7161 H 680.867 -3.84204 -2.18724 0
M  V30 7162 N 679.926 -0.151884 -1.56866 0
M  V30 7163 C 681.337 0.368128 -1.83035 0
M  V30 7164 C 681.688 1.64402 -1.07082 0
M  V30 7165 O 680.813 2.14056 -0.317647 0
M  V30 7166 C 681.408 0.674676 -3.32014 0
M  V30 7167 C 679.967 1.13919 -3.58747 0
M  V30 7168 C 679.114 0.164833 -2.7681 0
M  V30 7169 H 682.065 -0.376499 -1.54169 0
M  V30 7170 H 682.086 1.52883 -3.48435 0
M  V30 7171 H 681.598 -0.254113 -3.87267 0
M  V30 7172 H 679.699 2.08375 -3.08886 0
M  V30 7173 H 679.812 1.06179 -4.67186 0
M  V30 7174 H 678.176 0.658419 -2.46043 0
M  V30 7175 H 678.959 -0.757633 -3.34836 0
M  V30 7176 N 681.404 1.57128 0.121893 0
M  V30 7177 C 682.815 1.73902 0.679348 0
M  V30 7178 C 683.166 0.770135 1.80453 0
M  V30 7179 O 682.291 -0.0576083 2.16323 0
M  V30 7180 C 682.886 3.15328 1.2391 0
M  V30 7181 C 681.445 3.33618 1.74288 0
M  V30 7182 C 680.592 2.6978 0.641414 0
M  V30 7183 H 683.543 1.58359 -0.104 0
M  V30 7184 H 683.564 3.16718 2.10879 0
M  V30 7185 H 683.076 3.85821 0.419957 0
M  V30 7186 H 681.177 2.68162 2.58689 0
M  V30 7187 H 681.29 4.4176 1.85432 0
M  V30 7188 H 679.654 2.30935 1.0743 0
M  V30 7189 H 680.437 3.42895 -0.166707 0
M  V30 7190 N 682.882 -0.391992 1.52647 0
M  V30 7191 C 684.107 -1.16312 1.71716 0
M  V30 7192 C 684.532 -1.83042 0.433279 0
M  V30 7193 O 683.89 -1.70705 -0.610707 0
M  V30 7194 C 683.938 -2.18908 2.86551 0
M  V30 7195 O 683.042 -3.2543 2.53316 0
M  V30 7196 H 682.383 -0.338743 0.571095 0
M  V30 7197 H 684.913 -0.457202 1.99426 0
M  V30 7198 H 684.923 -2.62954 3.1196 0
M  V30 7199 H 683.598 -1.69726 3.79692 0
M  V30 7200 H 682.175 -2.86543 2.38637 0
M  V30 7201 N 684.36 -1.4356 -0.65026 0
M  V30 7202 C 685.585 -1.48995 -1.44275 0
M  V30 7203 C 686.01 -0.109954 -1.87778 0
M  V30 7204 O 685.368 0.896926 -1.57559 0
M  V30 7205 C 685.416 -2.44341 -2.65198 0
M  V30 7206 O 684.52 -1.93172 -3.6436 0
M  V30 7207 H 683.861 -0.503852 -0.432469 0
M  V30 7208 H 686.391 -1.88504 -0.795446 0
M  V30 7209 H 686.401 -2.61743 -3.12977 0
M  V30 7210 H 685.076 -3.44588 -2.32877 0
M  V30 7211 H 683.653 -1.85445 -3.23519 0
M  V30 7212 N 685.838 0.888903 -1.30139 0
M  V30 7213 C 687.087 1.63507 -1.18103 0
M  V30 7214 C 687.4 1.93808 0.264141 0
M  V30 7215 O 688.606 2.66744 0.505966 0
M  V30 7216 C 687.062 2.94673 -2.0663 0
M  V30 7217 C 686.67 2.71926 -3.56034 0
M  V30 7218 C 688.414 3.72626 -2.03346 0
M  V30 7219 C 686.321 3.98884 -4.3663 0
M  V30 7220 H 685.251 0.613426 -0.438435 0
M  V30 7221 H 687.902 0.984427 -1.54859 0
M  V30 7222 H 686.284 3.61009 -1.62754 0
M  V30 7223 H 687.458 2.14116 -4.08033 0
M  V30 7224 H 685.773 2.07353 -3.61101 0
M  V30 7225 H 688.37 4.66775 -2.60816 0
M  V30 7226 H 688.713 4.03712 -1.016 0
M  V30 7227 H 689.246 3.13147 -2.45324 0
M  V30 7228 H 685.985 3.72959 -5.39056 0
M  V30 7229 H 685.505 4.56214 -3.89396 0
M  V30 7230 H 687.184 4.66938 -4.47859 0
M  V30 7231 N 687.317 1.12792 1.10072 0
M  V30 7232 C 688.563 0.89679 1.82563 0
M  V30 7233 C 688.918 -0.571152 1.83727 0
M  V30 7234 O 688.211 -1.41697 1.28967 0
M  V30 7235 C 688.405 1.4102 3.28403 0
M  V30 7236 C 688.234 2.92652 3.41445 0
M  V30 7237 C 687.004 3.60928 3.53637 0
M  V30 7238 C 689.202 3.9063 3.34534 0
M  V30 7239 N 687.184 5.00638 3.55295 0
M  V30 7240 C 688.555 5.16492 3.42981 0
M  V30 7241 C 690.61 3.82989 3.18157 0
M  V30 7242 C 689.313 6.35609 3.3674 0
M  V30 7243 C 691.339 5.01633 3.13239 0
M  V30 7244 C 690.701 6.26355 3.22272 0
M  V30 7245 H 686.8 0.381482 0.682638 0
M  V30 7246 H 689.384 1.43491 1.31599 0
M  V30 7247 H 687.555 0.899077 3.77851 0
M  V30 7248 H 689.287 1.12075 3.88872 0
M  V30 7249 H 686.042 3.11429 3.56803 0
M  V30 7250 H 686.466 5.73521 3.59725 0
M  V30 7251 H 691.108 2.87454 3.10049 0
M  V30 7252 H 688.826 7.31407 3.43613 0
M  V30 7253 H 692.412 4.97454 3.01713 0
M  V30 7254 H 691.292 7.1662 3.18473 0
M  V30 7255 N 688.795 -1.27931 0.920396 0
M  V30 7256 C 689.758 -2.25345 0.41858 0
M  V30 7257 C 690.758 -1.54116 -0.458798 0
M  V30 7258 O 691.948 -1.72235 -0.260912 0
M  V30 7259 C 689.08 -3.38556 -0.399104 0
M  V30 7260 H 690.273 -2.71251 1.27918 0
M  V30 7261 H 687.826 -1.39728 0.700406 0
M  V30 7262 H 688.561 -2.98021 -1.27882 0
M  V30 7263 H 688.346 -3.91426 0.229863 0
M  V30 7264 H 689.836 -4.10976 -0.740817 0
M  V30 7265 N 690.273 -0.685099 -1.4193 0
M  V30 7266 C 691.519 -0.211971 -2.01689 0
M  V30 7267 C 691.852 1.18189 -1.54094 0
M  V30 7268 O 691.127 1.79559 -0.747572 0
M  V30 7269 C 691.41 -0.258019 -3.59174 0
M  V30 7270 C 691.263 -1.68807 -4.16922 0
M  V30 7271 C 692.582 0.388044 -4.38386 0
M  V30 7272 H 689.701 -0.0784987 -0.732808 0
M  V30 7273 H 692.343 -0.871837 -1.68816 0
M  V30 7274 H 690.493 0.303832 -3.8731 0
M  V30 7275 H 692.165 -2.30296 -3.99702 0
M  V30 7276 H 690.408 -2.22553 -3.72361 0
M  V30 7277 H 691.079 -1.6719 -5.26072 0
M  V30 7278 H 693.555 -0.0903432 -4.16002 0
M  V30 7279 H 692.431 0.325232 -5.47936 0
M  V30 7280 H 692.692 1.4672 -4.17044 0
M  V30 7281 N 691.751 1.51645 -0.429126 0
M  V30 7282 C 693.167 1.59394 -0.080994 0
M  V30 7283 C 693.367 1.44064 1.40882 0
M  V30 7284 O 692.423 1.27771 2.17786 0
M  V30 7285 C 693.736 2.94779 -0.593773 0
M  V30 7286 C 695.284 3.08067 -0.553494 0
M  V30 7287 C 695.759 4.45963 -1.04311 0
M  V30 7288 N 697.25 4.5226 -1.00076 0
M  V30 7289 C 697.985 5.57268 -1.35056 0
M  V30 7290 N 697.481 6.69734 -1.77282 0
M  V30 7291 N 699.274 5.47582 -1.26925 0
M  V30 7292 H 691.425 1.59856 -1.39857 0
M  V30 7293 H 693.688 0.753095 -0.575805 0
M  V30 7294 H 693.394 3.11342 -1.63583 0
M  V30 7295 H 693.268 3.77197 -0.0142202 0
M  V30 7296 H 695.655 2.91177 0.479556 0
M  V30 7297 H 695.736 2.27508 -1.16935 0
M  V30 7298 H 695.38 4.63598 -2.07459 0
M  V30 7299 H 695.31 5.25049 -0.403873 0
M  V30 7300 H 697.801 3.71537 -0.690564 0
M  V30 7301 H 698.114 7.4587 -2.02232 0
M  V30 7302 H 696.459 6.70963 -1.81202 0
M  V30 7303 H 699.65 4.58604 -0.93809 0
M  V30 7304 H 699.823 6.29308 -1.54516 0
M  V30 7305 N 693.229 0.160201 1.56784 0
M  V30 7306 C 694.64 -0.358417 1.83227 0
M  V30 7307 C 694.991 -1.63831 1.07952 0
M  V30 7308 O 694.116 -2.13885 0.328995 0
M  V30 7309 C 694.711 -0.657058 3.32368 0
M  V30 7310 C 693.27 -1.12015 3.59346 0
M  V30 7311 C 692.417 -0.15015 2.76893 0
M  V30 7312 H 695.368 0.384669 1.53967 0
M  V30 7313 H 695.389 -1.51033 3.49241 0
M  V30 7314 H 694.901 0.274647 3.87127 0
M  V30 7315 H 693.002 -2.06734 3.09987 0
M  V30 7316 H 693.115 -1.037 4.67743 0
M  V30 7317 H 691.479 -0.645361 2.46388 0
M  V30 7318 H 692.262 0.775379 3.34429 0
M  V30 7319 N 694.707 -1.5719 -0.113559 0
M  V30 7320 C 695.639 -1.97393 -1.16484 0
M  V30 7321 C 696.652 -0.873964 -1.37352 0
M  V30 7322 O 697.841 -1.15222 -1.36331 0
M  V30 7323 C 694.941 -2.26174 -2.52386 0
M  V30 7324 C 694.114 -3.57479 -2.52046 0
M  V30 7325 C 693.173 -3.74409 -3.69735 0
M  V30 7326 O 692.199 -4.46463 -3.53071 0
M  V30 7327 N 693.401 -3.13588 -4.88511 0
M  V30 7328 H 696.166 -2.88184 -0.822814 0
M  V30 7329 H 693.727 -1.59044 -0.302769 0
M  V30 7330 H 695.719 -2.3471 -3.29687 0
M  V30 7331 H 694.289 -1.41483 -2.7875 0
M  V30 7332 H 693.509 -3.60081 -1.60421 0
M  V30 7333 H 694.797 -4.43775 -2.48881 0
M  V30 7334 H 694.195 -2.55026 -5.04953 0
M  V30 7335 H 692.752 -3.27637 -5.63469 0
M  V30 7336 N 696.185 0.383891 -1.52853 0
M  V30 7337 C 697.462 1.14296 -1.58732 0
M  V30 7338 C 697.842 2.07585 -0.383611 0
M  V30 7339 O 697.19 2.1971 0.627661 0
M  V30 7340 C 697.4 1.89816 -2.92867 0
M  V30 7341 C 698.748 2.44998 -3.46787 0
M  V30 7342 O 699.772 1.99966 -2.94774 0
M  V30 7343 O 698.631 3.2727 -4.37672 0
M  V30 7344 H 695.725 0.52326 -0.640413 0
M  V30 7345 H 698.271 0.388631 -1.6519 0
M  V30 7346 H 697.043 1.21626 -3.71918 0
M  V30 7347 H 696.666 2.72199 -2.89816 0
M  V30 7348 N 697.663 1.43903 0.642637 0
M  V30 7349 C 698.593 1.52697 1.76652 0
M  V30 7350 C 699.574 0.380816 1.65782 0
M  V30 7351 O 700.759 0.599432 1.84717 0
M  V30 7352 C 697.889 1.45975 3.15133 0
M  V30 7353 C 696.843 2.58949 3.40778 0
M  V30 7354 C 696.169 2.37279 4.79169 0
M  V30 7355 C 697.469 4.01153 3.34475 0
M  V30 7356 H 699.163 2.46766 1.69549 0
M  V30 7357 H 696.709 1.18767 0.814279 0
M  V30 7358 H 698.662 1.5073 3.93521 0
M  V30 7359 H 697.386 0.484162 3.22991 0
M  V30 7360 H 696.045 2.53564 2.64765 0
M  V30 7361 H 695.693 1.37939 4.83717 0
M  V30 7362 H 695.393 3.13016 4.97287 0
M  V30 7363 H 696.917 2.43834 5.59801 0
M  V30 7364 H 698.331 4.07968 4.02784 0
M  V30 7365 H 696.728 4.77001 3.64129 0
M  V30 7366 H 697.798 4.25539 2.32475 0
M  V30 7367 N 699.141 -0.881989 1.30609 0
M  V30 7368 C 700.418 -1.61563 1.10258 0
M  V30 7369 C 700.798 -2.08228 -0.347053 0
M  V30 7370 O 700.146 -1.85151 -1.33908 0
M  V30 7371 C 700.356 -2.78287 2.10612 0
M  V30 7372 C 701.704 -3.48545 2.4249 0
M  V30 7373 O 702.728 -2.88479 2.08945 0
M  V30 7374 O 701.587 -4.56873 2.99883 0
M  V30 7375 H 698.681 -0.710238 0.423663 0
M  V30 7376 H 701.227 -0.928503 1.42045 0
M  V30 7377 H 699.999 -2.41131 3.08174 0
M  V30 7378 H 699.622 -3.54695 1.79659 0
M  V30 7379 N 700.619 -1.13374 -1.09472 0
M  V30 7380 C 701.847 -0.918351 -1.85402 0
M  V30 7381 C 702.262 0.53281 -1.81126 0
M  V30 7382 O 701.619 1.36879 -1.20708 0
M  V30 7383 C 701.67 -1.39743 -3.33398 0
M  V30 7384 O 701.391 -2.79172 -3.37631 0
M  V30 7385 C 702.892 -1.22042 -4.2617 0
M  V30 7386 H 700.112 -0.327511 -0.585643 0
M  V30 7387 H 702.656 -1.50617 -1.38328 0
M  V30 7388 H 700.811 -0.852619 -3.77901 0
M  V30 7389 H 701.225 -3.00428 -4.29934 0
M  V30 7390 H 702.699 -1.60438 -5.2817 0
M  V30 7391 H 703.176 -0.162047 -4.38901 0
M  V30 7392 H 703.782 -1.75323 -3.87482 0
M  V30 7393 N 702.098 1.27442 -0.927168 0
M  V30 7394 C 703.338 1.96157 -0.574608 0
M  V30 7395 C 703.702 1.71265 0.867897 0
M  V30 7396 O 704.903 2.33664 1.3287 0
M  V30 7397 C 703.174 3.46115 -0.891009 0
M  V30 7398 S 704.733 4.34006 -0.646885 0
M  V30 7399 H 701.551 0.678619 -0.212125 0
M  V30 7400 H 704.153 1.54688 -1.19549 0
M  V30 7401 H 702.857 3.6173 -1.93854 0
M  V30 7402 H 702.388 3.92545 -0.259301 0
M  V30 7403 H 704.403 4.93719 0.495568 0
M  V30 7404 N 703.576 0.692616 1.41565 0
M  V30 7405 C 704.853 0.150496 1.9502 0
M  V30 7406 C 705.233 -1.33881 1.63215 0
M  V30 7407 O 704.581 -2.08378 0.937598 0
M  V30 7408 C 704.791 0.438636 3.46233 0
M  V30 7409 C 706.139 0.364777 4.2303 0
M  V30 7410 O 707.163 0.373383 3.54238 0
M  V30 7411 O 706.022 0.32234 5.45549 0
M  V30 7412 H 703.116 0.0132454 0.826894 0
M  V30 7413 H 705.662 0.768574 1.51298 0
M  V30 7414 H 704.434 1.46962 3.62654 0
M  V30 7415 H 704.057 -0.210562 3.97042 0
M  V30 7416 N 705.054 -1.51416 0.437162 0
M  V30 7417 C 706.465 -1.86682 -0.0260005 0
M  V30 7418 C 706.816 -1.35432 -1.4196 0
M  V30 7419 O 705.941 -0.705055 -2.04592 0
M  V30 7420 C 706.536 -3.38757 -0.0539577 0
M  V30 7421 C 705.095 -3.7356 -0.461532 0
M  V30 7422 C 704.242 -2.75134 0.345924 0
M  V30 7423 H 707.193 -1.44642 0.653013 0
M  V30 7424 H 707.214 -3.70573 -0.863478 0
M  V30 7425 H 706.726 -3.76028 0.96045 0
M  V30 7426 H 704.827 -3.41878 -1.48155 0
M  V30 7427 H 704.94 -4.78737 -0.186451 0
M  V30 7428 H 703.304 -2.53947 -0.195739 0
M  V30 7429 H 704.087 -3.15247 1.35921 0
M  V30 7430 N 706.532 -0.168513 -1.56696 0
M  V30 7431 C 707.948 0.187686 -1.58493 0
M  V30 7432 C 708.148 1.63063 -1.18375 0
M  V30 7433 O 707.204 2.36142 -0.894042 0
M  V30 7434 C 708.517 -0.0905858 -3.00564 0
M  V30 7435 C 710.065 -0.028575 -3.12987 0
M  V30 7436 C 710.54 -0.279799 -4.57145 0
M  V30 7437 N 712.031 -0.227476 -4.62641 0
M  V30 7438 C 712.766 -0.396073 -5.7203 0
M  V30 7439 N 712.262 -0.623572 -6.89988 0
M  V30 7440 N 714.055 -0.332173 -5.61118 0
M  V30 7441 H 706.206 -1.11042 -1.81062 0
M  V30 7442 H 708.469 -0.441235 -0.839056 0
M  V30 7443 H 708.175 -1.09006 -3.34381 0
M  V30 7444 H 708.049 0.619078 -3.72085 0
M  V30 7445 H 710.436 0.961471 -2.78998 0
M  V30 7446 H 710.517 -0.770905 -2.43907 0
M  V30 7447 H 710.161 -1.26704 -4.91842 0
M  V30 7448 H 710.091 0.48311 -5.24379 0
M  V30 7449 H 712.582 -0.0571723 -3.77857 0
M  V30 7450 H 712.895 -0.741745 -7.69232 0
M  V30 7451 H 711.24 -0.660153 -6.91858 0
M  V30 7452 H 714.431 -0.155051 -4.67843 0
M  V30 7453 H 714.604 -0.466994 -6.46315 0
M  V30 7454 N 708.01 1.57248 0.105221 0
M  V30 7455 C 708.942 1.98008 1.15436 0
M  V30 7456 C 709.955 0.881236 1.36887 0
M  V30 7457 O 711.144 1.15943 1.35718 0
M  V30 7458 C 708.244 2.27509 2.51183 0
M  V30 7459 C 707.417 3.58811 2.50147 0
M  V30 7460 C 706.476 3.76365 3.67745 0
M  V30 7461 O 705.502 4.48329 3.50699 0
M  V30 7462 N 706.704 3.16174 4.86841 0
M  V30 7463 H 709.469 2.88616 0.807519 0
M  V30 7464 H 707.03 1.59202 0.29433 0
M  V30 7465 H 709.022 2.36455 3.28438 0
M  V30 7466 H 707.592 1.42959 2.77995 0
M  V30 7467 H 706.812 3.60927 1.5851 0
M  V30 7468 H 708.1 4.45088 2.46524 0
M  V30 7469 H 707.498 2.57701 5.03594 0
M  V30 7470 H 706.055 3.30621 5.61723 0
M  V30 7471 N 709.488 -0.375779 1.53054 0
M  V30 7472 C 710.418 -1.46598 1.81745 0
M  V30 7473 C 711.399 -1.56337 0.670286 0
M  V30 7474 O 712.584 -1.71071 0.919158 0
M  V30 7475 C 709.714 -2.84058 1.99821 0
M  V30 7476 C 708.668 -2.8915 3.15557 0
M  V30 7477 C 707.994 -4.29187 3.18908 0
M  V30 7478 C 709.294 -2.57595 4.54359 0
M  V30 7479 H 710.988 -1.22837 2.73041 0
M  V30 7480 H 708.534 -0.589485 1.31381 0
M  V30 7481 H 710.487 -3.60342 2.18475 0
M  V30 7482 H 709.211 -3.09184 1.05226 0
M  V30 7483 H 707.87 -2.15316 2.96706 0
M  V30 7484 H 707.518 -4.51374 2.2197 0
M  V30 7485 H 707.218 -4.33512 3.96662 0
M  V30 7486 H 708.742 -5.07359 3.39734 0
M  V30 7487 H 710.156 -3.23595 4.73243 0
M  V30 7488 H 708.553 -2.73252 5.34279 0
M  V30 7489 H 709.623 -1.52882 4.60169 0
M  V30 7490 N 710.966 -1.44241 -0.634997 0
M  V30 7491 C 712.243 -1.37296 -1.39317 0
M  V30 7492 C 712.623 -0.0297532 -2.11079 0
M  V30 7493 O 711.971 0.987524 -2.06059 0
M  V30 7494 C 712.181 -2.56853 -2.36279 0
M  V30 7495 C 713.529 -3.00747 -2.99728 0
M  V30 7496 O 714.553 -2.5703 -2.46605 0
M  V30 7497 O 713.412 -3.76533 -3.96087 0
M  V30 7498 H 710.506 -0.543503 -0.623325 0
M  V30 7499 H 713.052 -1.56324 -0.660376 0
M  V30 7500 H 711.824 -3.46228 -1.82324 0
M  V30 7501 H 711.447 -2.40019 -3.16981 0
M  V30 7502 N 712.444 0.87505 -1.31075 0
M  V30 7503 C 713.69 1.63009 -1.20647 0
M  V30 7504 C 714.023 1.9276 0.236045 0
M  V30 7505 O 713.298 1.55559 1.16754 0
M  V30 7506 C 713.581 2.96357 -2.0456 0
M  V30 7507 C 713.434 2.73516 -3.57084 0
M  V30 7508 C 714.753 3.974 -1.89107 0
M  V30 7509 H 711.872 0.591518 -0.439631 0
M  V30 7510 H 714.514 1.0119 -1.60812 0
M  V30 7511 H 712.664 3.49119 -1.70435 0
M  V30 7512 H 714.336 2.27465 -4.01319 0
M  V30 7513 H 712.579 2.0784 -3.80769 0
M  V30 7514 H 713.25 3.68377 -4.11099 0
M  V30 7515 H 715.726 3.5383 -2.18961 0
M  V30 7516 H 714.602 4.88596 -2.5013 0
M  V30 7517 H 714.863 4.33794 -0.85296 0
M  V30 7518 N 713.922 1.13953 1.08869 0
M  V30 7519 C 714.852 0.844824 2.17681 0
M  V30 7520 C 715.833 -0.198213 1.68941 0
M  V30 7521 O 717.018 -0.0559073 1.9412 0
M  V30 7522 C 714.148 0.316325 3.45856 0
M  V30 7523 C 713.102 1.29426 4.07962 0
M  V30 7524 C 712.428 0.625275 5.31031 0
M  V30 7525 C 713.728 2.65484 4.49795 0
M  V30 7526 H 715.422 1.75471 2.42591 0
M  V30 7527 H 712.968 0.845116 1.16592 0
M  V30 7528 H 714.921 0.0977876 4.21287 0
M  V30 7529 H 713.645 -0.628972 3.20486 0
M  V30 7530 H 712.304 1.49889 3.34558 0
M  V30 7531 H 711.952 -0.325678 5.01945 0
M  V30 7532 H 711.652 1.27777 5.73539 0
M  V30 7533 H 713.176 0.416152 6.0918 0
M  V30 7534 H 714.59 2.48957 5.16424 0
M  V30 7535 H 712.987 3.26963 5.03205 0
M  V30 7536 H 714.057 3.22717 3.61914 0
M  V30 7537 N 715.4 -1.26948 0.933913 0
M  V30 7538 C 716.63 -1.97898 0.593279 0
M  V30 7539 C 717.038 -1.69806 -0.834412 0
M  V30 7540 O 716.381 -0.958704 -1.56699 0
M  V30 7541 C 716.443 -3.51657 0.746825 0
M  V30 7542 C 716.107 -4.03384 2.14779 0
M  V30 7543 C 717.104 -4.15682 3.12257 0
M  V30 7544 C 714.789 -4.37577 2.46641 0
M  V30 7545 C 716.783 -4.61455 4.39702 0
M  V30 7546 C 714.47 -4.8304 3.7432 0
M  V30 7547 C 715.468 -4.94939 4.70664 0
M  V30 7548 O 715.156 -5.39403 5.96071 0
M  V30 7549 H 714.888 -0.63814 0.223055 0
M  V30 7550 H 717.442 -1.62608 1.2549 0
M  V30 7551 H 715.672 -3.8669 0.0280889 0
M  V30 7552 H 717.361 -4.03821 0.410328 0
M  V30 7553 H 718.127 -3.89519 2.88964 0
M  V30 7554 H 714.006 -4.27554 1.72391 0
M  V30 7555 H 717.55 -4.70658 5.14905 0
M  V30 7556 H 713.447 -5.08646 3.97429 0
M  V30 7557 H 714.215 -5.57641 5.99148 0
M  V30 7558 N 716.879 -0.700114 -1.41195 0
M  V30 7559 C 718.29 -0.307249 -1.84154 0
M  V30 7560 C 718.641 1.15539 -1.58572 0
M  V30 7561 O 717.766 1.88744 -1.05852 0
M  V30 7562 C 718.361 -0.550872 -3.34292 0
M  V30 7563 C 716.92 -0.211877 -3.75803 0
M  V30 7564 C 716.067 -0.830915 -2.64558 0
M  V30 7565 H 719.018 -0.900431 -1.30683 0
M  V30 7566 H 719.039 0.188954 -3.80031 0
M  V30 7567 H 718.551 -1.61548 -3.5288 0
M  V30 7568 H 716.652 0.848283 -3.62815 0
M  V30 7569 H 716.765 -0.67007 -4.74391 0
M  V30 7570 H 715.129 -0.260155 -2.53368 0
M  V30 7571 H 715.912 -1.89948 -2.85963 0
M  V30 7572 N 718.357 1.51182 -0.445186 0
M  V30 7573 C 719.304 2.27939 0.362291 0
M  V30 7574 C 720.274 1.31864 1.01 0
M  V30 7575 O 721.459 1.60776 1.02741 0
M  V30 7576 C 718.599 3.13016 1.45311 0
M  V30 7577 C 717.712 4.24093 0.822757 0
M  V30 7578 C 716.847 4.96467 1.88928 0
M  V30 7579 C 715.886 5.99454 1.23778 0
M  V30 7580 N 715.023 6.65206 2.24602 0
M  V30 7581 H 719.863 2.965 -0.29862 0
M  V30 7582 H 717.4 1.46237 -0.15911 0
M  V30 7583 H 719.358 3.60673 2.09692 0
M  V30 7584 H 717.988 2.46553 2.08354 0
M  V30 7585 H 717.04 3.80341 0.0670364 0
M  V30 7586 H 718.352 4.97853 0.307184 0
M  V30 7587 H 717.506 5.47712 2.60953 0
M  V30 7588 H 716.245 4.22355 2.4386 0
M  V30 7589 H 715.25 5.47494 0.503042 0
M  V30 7590 H 716.475 6.75527 0.695694 0
M  V30 7591 H 714.421 5.93901 2.78599 0
M  V30 7592 H 714.338 7.34756 1.77958 0
M  V30 7593 H 715.606 7.21078 2.96085 0
M  V30 7594 N 719.835 0.176821 1.56605 0
M  V30 7595 C 720.798 -0.737429 2.17013 0
M  V30 7596 C 721.798 -1.15414 1.11965 0
M  V30 7597 O 722.988 -1.0702 1.37449 0
M  V30 7598 C 720.12 -2.00445 2.75744 0
M  V30 7599 H 721.313 -0.211455 2.99154 0
M  V30 7600 H 718.866 -0.0727582 1.56131 0
M  V30 7601 H 719.601 -2.57338 1.97352 0
M  V30 7602 H 719.386 -1.71456 3.52626 0
M  V30 7603 H 720.876 -2.65679 3.22187 0
M  V30 7604 N 721.313 -1.57302 -0.09688 0
M  V30 7605 C 722.729 -1.53094 -0.451041 0
M  V30 7606 C 722.929 -0.893265 -1.80618 0
M  V30 7607 O 721.985 -0.485013 -2.47798 0
M  V30 7608 C 723.298 -2.9782 -0.415172 0
M  V30 7609 C 724.846 -3.09026 -0.497155 0
M  V30 7610 C 725.321 -4.55356 -0.491452 0
M  V30 7611 N 726.812 -4.59896 -0.552258 0
M  V30 7612 C 727.547 -5.70563 -0.569654 0
M  V30 7613 N 727.043 -6.90666 -0.543365 0
M  V30 7614 N 728.836 -5.58733 -0.614331 0
M  V30 7615 H 720.987 -1.97131 0.790771 0
M  V30 7616 H 723.25 -0.901211 0.294147 0
M  V30 7617 H 722.956 -3.47933 0.513362 0
M  V30 7618 H 722.83 -3.56416 -1.23481 0
M  V30 7619 H 725.217 -2.58902 -1.41611 0
M  V30 7620 H 725.298 -2.53386 0.35059 0
M  V30 7621 H 724.942 -5.06131 0.423549 0
M  V30 7622 H 724.872 -5.08832 -1.35639 0
M  V30 7623 H 727.363 -3.73456 -0.577842 0
M  V30 7624 H 727.676 -7.70769 -0.559873 0
M  V30 7625 H 726.021 -6.93123 -0.510441 0
M  V30 7626 H 729.212 -4.63809 -0.632387 0
M  V30 7627 H 729.385 -6.44984 -0.62442 0
M  V30 7628 N 722.791 0.367657 -1.53252 0
M  V30 7629 C 723.721 1.45632 -1.8252 0
M  V30 7630 C 724.702 1.55979 -0.678568 0
M  V30 7631 O 725.887 1.70581 -0.928217 0
M  V30 7632 C 723.017 2.82994 -2.01325 0
M  V30 7633 C 721.971 2.87473 -3.17086 0
M  V30 7634 C 721.297 4.2749 -3.21179 0
M  V30 7635 C 722.597 2.55182 -4.55719 0
M  V30 7636 H 724.291 1.21387 -2.73689 0
M  V30 7637 H 721.837 0.58251 -1.31692 0
M  V30 7638 H 723.79 3.59179 -2.20383 0
M  V30 7639 H 722.514 3.08622 -1.06864 0
M  V30 7640 H 721.173 2.13739 -2.97844 0
M  V30 7641 H 720.821 4.5019 -2.24361 0
M  V30 7642 H 720.521 4.31403 -3.98955 0
M  V30 7643 H 722.045 5.0555 -3.42419 0
M  V30 7644 H 723.459 3.21081 -4.74953 0
M  V30 7645 H 721.856 2.70414 -5.3572 0
M  V30 7646 H 722.926 1.5044 -4.60973 0
M  V30 7647 N 724.269 1.44576 0.627338 0
M  V30 7648 C 725.232 1.51372 1.72102 0
M  V30 7649 C 726.232 0.395329 1.55865 0
M  V30 7650 O 727.422 0.658094 1.61291 0
M  V30 7651 C 724.554 1.39129 3.11217 0
M  V30 7652 H 725.747 2.48798 1.6745 0
M  V30 7653 H 723.3 1.31724 0.841336 0
M  V30 7654 H 724.035 0.428114 3.21462 0
M  V30 7655 H 723.82 2.20229 3.24409 0
M  V30 7656 H 725.31 1.46874 3.90919 0
M  V30 7657 N 725.747 -0.868086 1.31537 0
M  V30 7658 C 726.994 -1.62127 1.2133 0
M  V30 7659 C 727.322 -1.93158 -0.2281 0
M  V30 7660 O 726.577 -1.5632 -1.1774 0
M  V30 7661 C 726.876 -2.95889 2.0046 0
M  V30 7662 C 726.542 -2.84343 3.49943 0
M  V30 7663 C 725.204 -2.80901 3.90702 0
M  V30 7664 C 727.556 -2.71243 4.45058 0
M  V30 7665 C 724.884 -2.6222 5.24841 0
M  V30 7666 C 727.236 -2.54098 5.79325 0
M  V30 7667 C 725.9 -2.4904 6.19302 0
M  V30 7668 H 725.17 -0.593265 0.443979 0
M  V30 7669 H 727.817 -1.00803 1.62822 0
M  V30 7670 H 726.122 -3.61259 1.51655 0
M  V30 7671 H 727.819 -3.53161 1.89942 0
M  V30 7672 H 724.409 -2.8784 3.17563 0
M  V30 7673 H 728.593 -2.72956 4.14498 0
M  V30 7674 H 723.849 -2.56731 5.54887 0
M  V30 7675 H 728.023 -2.42938 6.52652 0
M  V30 7676 H 725.65 -2.34324 7.23185 0
M  V30 7677 N 727.225 -1.14528 -1.08264 0
M  V30 7678 C 728.157 -0.791325 -2.15106 0
M  V30 7679 C 729.17 0.192449 -1.61659 0
M  V30 7680 O 730.359 -0.0294704 -1.78476 0
M  V30 7681 C 727.459 -0.154183 -3.38549 0
M  V30 7682 C 726.632 -1.17305 -4.21377 0
M  V30 7683 C 725.691 -0.559401 -5.23218 0
M  V30 7684 O 724.717 -1.22277 -5.55911 0
M  V30 7685 N 725.919 0.663159 -5.767 0
M  V30 7686 H 728.684 -1.71076 -2.46075 0
M  V30 7687 H 726.245 -1.0399 -1.24087 0
M  V30 7688 H 728.237 0.268884 -4.03806 0
M  V30 7689 H 726.807 0.668418 -3.0537 0
M  V30 7690 H 726.027 -1.773 -3.52077 0
M  V30 7691 H 727.315 -1.86128 -4.73533 0
M  V30 7692 H 726.713 1.22066 -5.52373 0
M  V30 7693 H 725.27 1.02871 -6.43631 0
M  V30 7694 N 728.703 1.26451 -0.940633 0
M  V30 7695 C 729.651 2.28389 -0.440581 0
M  V30 7696 C 730.645 1.62402 0.481859 0
M  V30 7697 O 731.851 1.76361 0.360132 0
M  V30 7698 H 728.226 0.741716 -0.123938 0
M  V30 7699 H 730.197 2.67967 -1.31288 0
M  V30 7700 C 728.946 3.46576 0.279364 0
M  V30 7701 H 728.269 3.97574 -0.421274 0
M  V30 7702 H 729.709 4.19826 0.59348 0
M  V30 7703 C 728.168 3.01815 1.49697 0
M  V30 7704 O 728.698 3.06607 2.59529 0
M  V30 7705 N 726.904 2.57163 1.35334 0
M  V30 7706 H 726.451 2.53464 0.459743 0
M  V30 7707 H 726.409 2.27578 2.16923 0
M  V30 7708 N 730.181 0.707592 1.40822 0
M  V30 7709 C 731.114 -0.000859377 2.282 0
M  V30 7710 C 732.092 -0.7758 1.42899 0
M  V30 7711 O 733.276 -0.76411 1.72318 0
M  V30 7712 C 730.403 -1.00861 3.23334 0
M  V30 7713 C 729.449 -0.32543 4.25257 0
M  V30 7714 S 730.282 0.940908 5.27169 0
M  V30 7715 C 731.438 -0.0649459 6.25866 0
M  V30 7716 H 731.671 0.740207 2.87938 0
M  V30 7717 H 729.204 0.498311 1.46138 0
M  V30 7718 H 731.162 -1.58485 3.78672 0
M  V30 7719 H 729.823 -1.72233 2.62668 0
M  V30 7720 H 729.016 -1.08697 4.92139 0
M  V30 7721 H 728.618 0.178044 3.73576 0
M  V30 7722 H 730.91 -0.914377 6.71301 0
M  V30 7723 H 731.853 0.570276 7.058 0
M  V30 7724 H 732.261 -0.425098 5.62897 0
M  V30 7725 N 731.66 -1.50943 0.453197 0
M  V30 7726 C 732.608 -2.29728 -0.364419 0
M  V30 7727 C 733.602 -1.36246 -1.00664 0
M  V30 7728 O 734.808 -1.53518 -0.939794 0
M  V30 7729 H 731.183 -0.739536 -0.136347 0
M  V30 7730 H 733.154 -2.96672 0.320696 0
M  V30 7731 C 731.903 -3.1629 -1.44415 0
M  V30 7732 H 731.226 -3.88119 -0.959343 0
M  V30 7733 H 732.666 -3.74444 -1.98917 0
M  V30 7734 C 731.125 -2.32702 -2.43622 0
M  V30 7735 O 731.655 -1.99763 -3.48508 0
M  V30 7736 N 729.861 -1.95621 -2.14897 0
M  V30 7737 H 729.408 -2.22607 -1.29629 0
M  V30 7738 H 729.366 -1.39993 -2.81513 0
M  V30 7739 N 733.138 -0.185124 -1.56509 0
M  V30 7740 C 734.386 0.455357 -1.96903 0
M  V30 7741 C 734.707 1.62839 -1.07277 0
M  V30 7742 O 733.977 1.95385 -0.141966 0
M  V30 7743 H 732.557 0.171218 -0.727113 0
M  V30 7744 H 735.219 -0.26953 -1.93027 0
M  V30 7745 H 734.315 0.80616 -3.01509 0
M  V30 7746 N 734.616 1.57351 0.0885366 0
M  V30 7747 C 735.841 1.91011 0.80805 0
M  V30 7748 C 736.266 0.780009 1.71165 0
M  V30 7749 O 735.624 -0.268083 1.79307 0
M  V30 7750 C 735.672 3.23562 1.59185 0
M  V30 7751 O 734.776 3.11615 2.7013 0
M  V30 7752 H 734.117 0.625943 0.221565 0
M  V30 7753 H 736.647 2.04507 0.0617954 0
M  V30 7754 H 736.657 3.5703 1.97468 0
M  V30 7755 H 735.332 4.05398 0.928741 0
M  V30 7756 H 733.909 2.89673 2.34827 0
M  V30 7757 N 736.094 -0.359525 1.53444 0
M  V30 7758 C 737.004 -1.46445 1.83278 0
M  V30 7759 C 738.02 -1.5833 0.721629 0
M  V30 7760 O 739.196 -1.7411 1.01231 0
M  V30 7761 C 736.261 -2.81638 2.02191 0
M  V30 7762 C 735.322 -2.7923 3.26082 0
M  V30 7763 C 734.555 -4.07974 3.44082 0
M  V30 7764 O 734.778 -5.04447 2.66251 0
M  V30 7765 O 733.712 -4.13417 4.37458 0
M  V30 7766 H 737.538 -1.24156 2.77162 0
M  V30 7767 H 735.123 -0.550201 1.389 0
M  V30 7768 H 737.005 -3.61732 2.16167 0
M  V30 7769 H 735.68 -3.03892 1.11496 0
M  V30 7770 H 734.587 -1.97813 3.17523 0
M  V30 7771 H 735.92 -2.6193 4.16718 0
M  V30 7772 N 737.572 -1.44907 -0.619662 0
M  V30 7773 C 738.802 -1.51575 -1.40387 0
M  V30 7774 C 739.21 -0.14309 -1.88658 0
M  V30 7775 O 738.553 0.863403 -1.62145 0
M  V30 7776 C 738.615 -2.42858 -2.65067 0
M  V30 7777 C 738.279 -3.8982 -2.38515 0
M  V30 7778 C 739.276 -4.80047 -1.99627 0
M  V30 7779 C 736.961 -4.34628 -2.51801 0
M  V30 7780 C 738.955 -6.13086 -1.74369 0
M  V30 7781 C 736.642 -5.67712 -2.26156 0
M  V30 7782 C 737.64 -6.56759 -1.875 0
M  V30 7783 O 737.328 -7.87377 -1.62148 0
M  V30 7784 H 737.06 -0.51612 -0.436573 0
M  V30 7785 H 739.614 -1.90664 -0.763959 0
M  V30 7786 H 737.844 -1.98717 -3.31735 0
M  V30 7787 H 739.533 -2.40346 -3.27091 0
M  V30 7788 H 740.299 -4.46697 -1.8891 0
M  V30 7789 H 736.178 -3.65568 -2.80857 0
M  V30 7790 H 739.722 -6.8255 -1.44122 0
M  V30 7791 H 735.619 -6.0062 -2.36486 0
M  V30 7792 H 736.387 -7.99288 -1.763 0
M  V30 7793 N 739.05 0.861098 -1.31996 0
M  V30 7794 C 740.297 1.61481 -1.22188 0
M  V30 7795 C 740.625 1.93276 0.217853 0
M  V30 7796 O 739.88 1.56942 1.16909 0
M  V30 7797 C 740.179 2.94822 -2.02027 0
M  V30 7798 C 739.845 2.82483 -3.51446 0
M  V30 7799 C 738.507 2.78825 -3.92186 0
M  V30 7800 C 740.859 2.68878 -4.46491 0
M  V30 7801 C 738.187 2.59433 -5.26224 0
M  V30 7802 C 740.539 2.51022 -5.80664 0
M  V30 7803 C 739.203 2.45753 -6.20614 0
M  V30 7804 H 738.473 0.590902 -0.447119 0
M  V30 7805 H 741.12 0.999376 -1.63355 0
M  V30 7806 H 739.425 3.6045 -1.53569 0
M  V30 7807 H 741.122 3.52149 -1.91812 0
M  V30 7808 H 737.712 2.86152 -3.19085 0
M  V30 7809 H 741.896 2.70754 -4.1594 0
M  V30 7810 H 737.152 2.53784 -5.5624 0
M  V30 7811 H 741.326 2.39473 -6.53931 0
M  V30 7812 H 738.953 2.30485 -7.24417 0
M  V30 7813 N 740.528 1.15101 1.07655 0
M  V30 7814 C 741.774 0.925343 1.80458 0
M  V30 7815 C 742.107 -0.546354 1.86356 0
M  V30 7816 O 741.382 -1.40496 1.34503 0
M  V30 7817 C 741.665 1.53646 3.25676 0
M  V30 7818 C 741.518 3.07854 3.27942 0
M  V30 7819 C 742.837 1.21968 4.22861 0
M  V30 7820 H 739.956 0.337592 0.655134 0
M  V30 7821 H 742.598 1.42217 1.25993 0
M  V30 7822 H 740.748 1.11395 3.72187 0
M  V30 7823 H 742.42 3.58989 2.89697 0
M  V30 7824 H 740.663 3.41904 2.66991 0
M  V30 7825 H 741.334 3.45725 4.30324 0
M  V30 7826 H 743.81 1.5851 3.84726 0
M  V30 7827 H 742.686 1.67349 5.22767 0
M  V30 7828 H 742.947 0.136207 4.4189 0
M  V30 7829 N 742.006 -1.2595 0.947325 0
M  V30 7830 C 742.953 -2.26159 0.460497 0
M  V30 7831 C 743.923 -1.58919 -0.483125 0
M  V30 7832 O 745.108 -1.86603 -0.397983 0
M  V30 7833 C 742.248 -3.441 -0.26247 0
M  V30 7834 C 741.361 -4.25999 0.717539 0
M  V30 7835 C 740.496 -5.31193 -0.0272486 0
M  V30 7836 C 739.535 -6.04774 0.944177 0
M  V30 7837 N 738.672 -7.01721 0.230741 0
M  V30 7838 H 743.512 -2.67173 1.31995 0
M  V30 7839 H 741.049 -1.31358 0.662088 0
M  V30 7840 H 743.007 -4.11317 -0.698137 0
M  V30 7841 H 741.637 -3.03983 -1.08602 0
M  V30 7842 H 740.689 -3.58513 1.27171 0
M  V30 7843 H 742.001 -4.76981 1.45913 0
M  V30 7844 H 741.155 -6.04451 -0.521903 0
M  V30 7845 H 739.894 -4.81066 -0.801682 0
M  V30 7846 H 738.899 -5.30338 1.4499 0
M  V30 7847 H 740.124 -6.56991 1.71872 0
M  V30 7848 H 738.07 -6.53895 -0.525088 0
M  V30 7849 H 737.987 -7.50484 0.911556 0
M  V30 7850 H 739.255 -7.79122 -0.242616 0
M  V30 7851 N 743.484 -0.715051 -1.40445 0
M  V30 7852 C 744.733 -0.251322 -2.00128 0
M  V30 7853 C 745.046 1.16194 -1.57347 0
M  V30 7854 O 746.252 1.72416 -2.09726 0
M  V30 7855 C 744.708 -0.398407 -3.57688 0
M  V30 7856 C 744.316 -1.81828 -4.09442 0
M  V30 7857 C 746.06 0.00455625 -4.245 0
M  V30 7858 C 743.967 -1.91598 -5.59503 0
M  V30 7859 H 742.897 -0.0902081 -0.748584 0
M  V30 7860 H 745.548 -0.886062 -1.6069 0
M  V30 7861 H 743.93 0.304908 -3.94824 0
M  V30 7862 H 745.104 -2.55193 -3.83684 0
M  V30 7863 H 743.419 -2.17266 -3.55225 0
M  V30 7864 H 746.016 -0.0477303 -5.34679 0
M  V30 7865 H 746.359 1.04636 -4.02935 0
M  V30 7866 H 746.892 -0.649184 -3.92467 0
M  V30 7867 H 743.631 -2.93898 -5.85922 0
M  V30 7868 H 743.151 -1.22644 -5.87127 0
M  V30 7869 H 744.83 -1.68785 -6.24596 0
M  V30 7870 N 744.962 1.50701 -0.461195 0
M  V30 7871 C 745.894 2.26124 0.374244 0
M  V30 7872 C 746.907 1.31064 0.965715 0
M  V30 7873 O 748.096 1.56647 0.855801 0
M  V30 7874 C 745.196 3.01996 1.5379 0
M  V30 7875 C 744.369 4.24336 1.06101 0
M  V30 7876 C 743.428 4.82585 2.09756 0
M  V30 7877 O 742.454 5.43775 1.68219 0
M  V30 7878 N 743.656 4.68712 3.42475 0
M  V30 7879 H 746.421 2.9846 -0.2723 0
M  V30 7880 H 743.982 1.59256 -0.291415 0
M  V30 7881 H 745.974 3.37846 2.22806 0
M  V30 7882 H 744.544 2.32521 2.08933 0
M  V30 7883 H 743.764 3.93707 0.197085 0
M  V30 7884 H 745.052 5.03678 0.720156 0
M  V30 7885 H 744.45 4.20026 3.78938 0
M  V30 7886 H 743.007 5.08858 4.07317 0
M  V30 7887 N 746.441 0.193421 1.56409 0
M  V30 7888 C 747.666 -0.454552 2.02358 0
M  V30 7889 C 748.091 -1.54516 1.07268 0
M  V30 7890 O 747.449 -1.81214 0.0558962 0
M  V30 7891 C 747.497 -0.989469 3.46759 0
M  V30 7892 O 746.601 -2.10244 3.54783 0
M  V30 7893 H 745.942 -0.106417 0.655417 0
M  V30 7894 H 748.472 0.303807 2.02332 0
M  V30 7895 H 748.482 -1.30649 3.86516 0
M  V30 7896 H 747.157 -0.191083 4.15461 0
M  V30 7897 H 745.734 -1.79419 3.26899 0
M  V30 7898 N 747.919 -1.57396 -0.0801906 0
M  V30 7899 C 749.166 -1.86836 -0.780927 0
M  V30 7900 C 749.494 -0.784012 -1.77999 0
M  V30 7901 O 748.749 0.220881 -1.94449 0
M  V30 7902 C 749.048 -3.22915 -1.53169 0
M  V30 7903 C 748.714 -4.45843 -0.67339 0
M  V30 7904 C 747.376 -4.79213 -0.436829 0
M  V30 7905 C 749.728 -5.21142 -0.0776786 0
M  V30 7906 C 747.056 -5.853 0.405062 0
M  V30 7907 C 749.408 -6.28119 0.751619 0
M  V30 7908 C 748.072 -6.59995 0.998131 0
M  V30 7909 H 747.342 -0.683682 -0.285761 0
M  V30 7910 H 749.989 -1.91454 -0.0419435 0
M  V30 7911 H 748.294 -3.14049 -2.34265 0
M  V30 7912 H 749.991 -3.42926 -2.07853 0
M  V30 7913 H 746.581 -4.19721 -0.867891 0
M  V30 7914 H 750.765 -4.95682 -0.247572 0
M  V30 7915 H 746.021 -6.084 0.60488 0
M  V30 7916 H 750.195 -6.8563 1.22 0
M  V30 7917 H 747.822 -7.42027 1.65227 0
M  V30 7918 N 749.397 0.351382 -1.53633 0
M  V30 7919 C 750.327 1.43688 -1.84055 0
M  V30 7920 C 751.308 1.55251 -0.695073 0
M  V30 7921 O 752.493 1.69587 -0.946257 0
M  V30 7922 C 749.623 2.80843 -2.04315 0
M  V30 7923 C 748.577 2.84094 -3.20117 0
M  V30 7924 C 747.903 4.2406 -3.25696 0
M  V30 7925 C 749.203 2.50334 -4.58399 0
M  V30 7926 H 750.897 1.18478 -2.74961 0
M  V30 7927 H 748.443 0.568509 -1.32303 0
M  V30 7928 H 750.396 3.56821 -2.2418 0
M  V30 7929 H 749.12 3.07471 -1.10132 0
M  V30 7930 H 747.779 2.10568 -3.00094 0
M  V30 7931 H 747.427 4.47785 -2.29123 0
M  V30 7932 H 747.127 4.27147 -4.03509 0
M  V30 7933 H 748.651 5.0189 -3.47762 0
M  V30 7934 H 750.065 3.16025 -4.78332 0
M  V30 7935 H 748.462 2.64717 -5.38558 0
M  V30 7936 H 749.532 1.45542 -4.62543 0
M  V30 7937 N 750.875 1.45233 0.611969 0
M  V30 7938 C 752.123 1.48727 1.36838 0
M  V30 7939 C 752.444 0.128616 1.94575 0
M  V30 7940 O 751.714 -0.84149 1.76906 0
M  V30 7941 H 750.294 0.547695 0.507976 0
M  V30 7942 H 752.956 1.81156 0.718925 0
M  V30 7943 H 752.052 2.2236 2.19003 0
M  V30 7944 N 752.353 -0.854086 1.3245 0
M  V30 7945 C 753.601 -1.60513 1.228 0
M  V30 7946 C 753.922 -1.93865 -0.210073 0
M  V30 7947 O 753.192 -1.59673 -1.13496 0
M  V30 7948 H 751.772 -0.595099 0.451516 0
M  V30 7949 H 754.434 -1.0216 1.6598 0
M  V30 7950 H 753.53 -2.54182 1.81102 0
M  V30 7951 N 753.831 -1.1567 -1.07043 0
M  V30 7952 C 754.794 -0.858906 -2.12498 0
M  V30 7953 C 755.794 0.142735 -1.60165 0
M  V30 7954 O 756.984 -0.0872678 -1.73981 0
M  V30 7955 C 754.116 -0.283021 -3.39723 0
M  V30 7956 H 755.309 -1.79368 -2.40348 0
M  V30 7957 H 752.862 -0.964608 -1.22984 0
M  V30 7958 H 753.597 0.659796 -3.17517 0
M  V30 7959 H 753.382 -1.00467 -3.7901 0
M  V30 7960 H 754.872 -0.0923543 -4.17498 0
M  V30 7961 N 755.309 1.25446 -0.953992 0
M  V30 7962 C 756.72 1.75047 -0.649255 0
M  V30 7963 C 757.071 1.77527 0.835385 0
M  V30 7964 O 756.196 1.39569 1.65377 0
M  V30 7965 C 756.791 3.17889 -1.17183 0
M  V30 7966 C 755.35 3.65052 -0.917267 0
M  V30 7967 C 754.497 2.44124 -1.31525 0
M  V30 7968 H 757.448 1.11342 -1.13087 0
M  V30 7969 H 757.469 3.76768 -0.531616 0
M  V30 7970 H 756.981 3.16052 -2.25239 0
M  V30 7971 H 755.082 3.72305 0.148354 0
M  V30 7972 H 755.195 4.53222 -1.55328 0
M  V30 7973 H 753.559 2.43906 -0.733624 0
M  V30 7974 H 754.342 2.44979 -2.405 0
M  V30 7975 N 756.787 0.722489 1.40064 0
M  V30 7976 C 758.015 0.274838 2.05066 0
M  V30 7977 C 758.43 -1.08586 1.54449 0
M  V30 7978 O 757.787 -1.68375 0.704003 0
M  V30 7979 C 757.838 0.253673 3.60609 0
M  V30 7980 O 757.559 1.56064 4.0936 0
M  V30 7981 C 759.06 -0.211684 4.42794 0
M  V30 7982 H 756.28 0.12226 0.659768 0
M  V30 7983 H 758.824 0.982632 1.79345 0
M  V30 7984 H 756.979 -0.405137 3.85276 0
M  V30 7985 H 757.393 1.46576 5.03603 0
M  V30 7986 H 758.867 -0.175341 5.51721 0
M  V30 7987 H 759.344 -1.25493 4.2089 0
M  V30 7988 H 759.95 0.4171 4.2325 0
M  V30 7989 N 758.265 -1.50454 0.469181 0
M  V30 7990 C 759.175 -2.32248 -0.331349 0
M  V30 7991 C 760.191 -1.42548 -0.997807 0
M  V30 7992 O 761.367 -1.75602 -0.9862 0
M  V30 7993 C 758.432 -3.17171 -1.40012 0
M  V30 7994 C 757.493 -4.2269 -0.750463 0
M  V30 7995 C 756.726 -5.03554 -1.76831 0
M  V30 7996 O 756.949 -4.85469 -2.99459 0
M  V30 7997 O 755.883 -5.86767 -1.3412 0
M  V30 7998 H 759.709 -3.01821 0.337279 0
M  V30 7999 H 757.294 -1.47602 0.231066 0
M  V30 8000 H 759.176 -3.69871 -2.01924 0
M  V30 8001 H 757.851 -2.50328 -2.05226 0
M  V30 8002 H 756.758 -3.73986 -0.0924446 0
M  V30 8003 H 758.091 -4.91997 -0.14131 0
M  V30 8004 N 759.743 -0.201713 -1.56304 0
M  V30 8005 C 761.02 0.483273 -1.89536 0
M  V30 8006 C 761.4 1.79176 -1.11621 0
M  V30 8007 O 760.748 2.27445 -0.219339 0
M  V30 8008 C 760.958 0.695604 -3.41998 0
M  V30 8009 C 762.306 1.012 -4.12364 0
M  V30 8010 O 763.33 0.783094 -3.47485 0
M  V30 8011 O 762.189 1.44534 -5.27041 0
M  V30 8012 H 759.283 0.252801 -0.787414 0
M  V30 8013 H 761.829 -0.24242 -1.6796 0
M  V30 8014 H 760.601 -0.228165 -3.90634 0
M  V30 8015 H 760.224 1.47351 -3.69288 0
M  V30 8016 N 761.222 1.57436 0.0718424 0
M  V30 8017 C 762.152 2.06724 1.08571 0
M  V30 8018 C 763.133 0.960731 1.40371 0
M  V30 8019 O 764.318 1.23345 1.49999 0
M  V30 8020 C 761.448 2.51112 2.39916 0
M  V30 8021 C 760.402 3.65639 2.22469 0
M  V30 8022 C 759.728 3.96082 3.59198 0
M  V30 8023 C 761.028 4.95687 1.64596 0
M  V30 8024 H 762.722 2.91679 0.675569 0
M  V30 8025 H 760.268 1.40319 0.32352 0
M  V30 8026 H 762.221 2.84206 3.11135 0
M  V30 8027 H 760.945 1.63186 2.8291 0
M  V30 8028 H 759.604 3.32828 1.53691 0
M  V30 8029 H 759.252 3.05287 3.99761 0
M  V30 8030 H 758.952 4.73199 3.48362 0
M  V30 8031 H 760.476 4.31672 4.31847 0
M  V30 8032 H 761.89 5.27011 2.25681 0
M  V30 8033 H 760.287 5.77126 1.64457 0
M  V30 8034 H 761.357 4.8108 0.60744 0
M  V30 8035 N 762.7 -0.34323 1.53817 0
M  V30 8036 C 763.647 -1.42153 1.81827 0
M  V30 8037 C 764.617 -1.52251 0.663996 0
M  V30 8038 O 765.802 -1.67784 0.908461 0
M  V30 8039 C 762.942 -2.78799 2.03384 0
M  V30 8040 C 762.055 -2.7749 3.31094 0
M  V30 8041 C 761.19 -4.05856 3.42717 0
M  V30 8042 C 760.229 -3.98776 4.64375 0
M  V30 8043 N 759.366 -5.18833 4.73029 0
M  V30 8044 H 764.206 -1.17567 2.73829 0
M  V30 8045 H 761.743 -0.569506 1.35628 0
M  V30 8046 H 763.701 -3.58211 2.13872 0
M  V30 8047 H 762.331 -3.01736 1.14696 0
M  V30 8048 H 761.383 -1.90182 3.29446 0
M  V30 8049 H 762.695 -2.68137 4.206 0
M  V30 8050 H 761.849 -4.93691 3.52638 0
M  V30 8051 H 760.588 -4.1799 2.51267 0
M  V30 8052 H 759.593 -3.09325 4.5453 0
M  V30 8053 H 760.818 -3.88224 5.57189 0
M  V30 8054 H 758.764 -5.31511 3.84489 0
M  V30 8055 H 758.681 -5.11737 5.56472 0
M  V30 8056 H 759.949 -6.08439 4.87261 0
M  V30 8057 N 764.178 -1.45556 -0.604258 0
M  V30 8058 C 765.141 -1.54091 -1.69672 0
M  V30 8059 C 766.141 -0.420076 -1.55216 0
M  V30 8060 O 767.331 -0.683671 -1.60224 0
M  V30 8061 C 764.463 -1.44063 -3.08964 0
M  V30 8062 H 765.656 -2.51431 -1.6347 0
M  V30 8063 H 763.209 -1.33046 -0.820273 0
M  V30 8064 H 763.944 -0.479201 -3.2074 0
M  V30 8065 H 763.729 -2.25362 -3.20865 0
M  V30 8066 H 765.219 -1.53075 -3.88533 0
M  V30 8067 N 765.656 0.84705 -1.32902 0
M  V30 8068 C 766.586 1.97166 -1.25091 0
M  V30 8069 C 767.567 1.69578 -0.133161 0
M  V30 8070 O 768.752 1.91519 -0.321591 0
M  V30 8071 C 765.882 3.33157 -0.981006 0
M  V30 8072 C 764.836 3.75119 -2.06082 0
M  V30 8073 C 764.162 5.08826 -1.64318 0
M  V30 8074 C 765.462 3.89774 -3.47669 0
M  V30 8075 H 767.156 2.03958 -2.19184 0
M  V30 8076 H 764.702 0.979907 -1.05517 0
M  V30 8077 H 766.655 4.11393 -0.912891 0
M  V30 8078 H 765.379 3.266 -0.00445559 0
M  V30 8079 H 764.038 2.9914 -2.11921 0
M  V30 8080 H 763.686 4.98732 -0.653876 0
M  V30 8081 H 763.386 5.37873 -2.36572 0
M  V30 8082 H 764.91 5.89546 -1.58958 0
M  V30 8083 H 766.324 4.58343 -3.44376 0
M  V30 8084 H 764.721 4.30248 -4.18338 0
M  V30 8085 H 765.791 2.92463 -3.86773 0
M  V30 8086 N 767.134 1.16236 1.06428 0
M  V30 8087 C 768.359 0.967688 1.83441 0
M  V30 8088 C 768.784 -0.479167 1.81894 0
M  V30 8089 O 768.142 -1.34224 1.21875 0
M  V30 8090 C 768.19 1.49806 3.2801 0
M  V30 8091 O 767.294 0.703481 4.06356 0
M  V30 8092 H 766.635 0.344468 0.56766 0
M  V30 8093 H 769.165 1.54442 1.34197 0
M  V30 8094 H 769.175 1.51495 3.78831 0
M  V30 8095 H 767.85 2.55133 3.2845 0
M  V30 8096 H 766.427 0.756986 3.65136 0
M  V30 8097 N 768.612 -1.24939 0.960631 0
M  V30 8098 C 769.544 -2.24879 0.442937 0
M  V30 8099 C 770.557 -1.56615 -0.444464 0
M  V30 8100 O 771.746 -1.76715 -0.251776 0
M  V30 8101 C 768.846 -3.36757 -0.380537 0
M  V30 8102 C 768.019 -4.34587 0.495283 0
M  V30 8103 C 767.078 -5.25502 -0.270995 0
M  V30 8104 O 766.104 -5.68227 0.332661 0
M  V30 8105 N 767.306 -5.59077 -1.56249 0
M  V30 8106 H 770.071 -2.69932 1.30218 0
M  V30 8107 H 767.632 -1.38907 0.83166 0
M  V30 8108 H 769.624 -3.94542 -0.90103 0
M  V30 8109 H 768.194 -2.91045 -1.14067 0
M  V30 8110 H 767.414 -3.75593 1.19682 0
M  V30 8111 H 768.702 -4.96925 1.09285 0
M  V30 8112 H 768.1 -5.2628 -2.07476 0
M  V30 8113 H 766.657 -6.19421 -2.02882 0
M  V30 8114 N 770.09 -0.729906 -1.39679 0
M  V30 8115 C 771.022 -0.0470588 -2.29152 0
M  V30 8116 C 772.035 0.708808 -1.4656 0
M  V30 8117 O 773.224 0.553815 -1.69691 0
M  V30 8118 C 770.324 0.957612 -3.25089 0
M  V30 8119 C 769.497 0.264321 -4.36601 0
M  V30 8120 C 768.556 1.17638 -5.12882 0
M  V30 8121 O 767.582 0.655777 -5.6541 0
M  V30 8122 N 768.784 2.50649 -5.23598 0
M  V30 8123 H 771.549 -0.815364 -2.88395 0
M  V30 8124 H 769.11 -0.578707 -1.51204 0
M  V30 8125 H 771.102 1.57026 -3.72995 0
M  V30 8126 H 769.672 1.62716 -2.66912 0
M  V30 8127 H 768.892 -0.528732 -3.90638 0
M  V30 8128 H 770.18 -0.216344 -5.0834 0
M  V30 8129 H 769.578 2.95427 -4.82431 0
M  V30 8130 H 768.135 3.07022 -5.74961 0
M  V30 8131 N 771.568 1.50203 -0.477153 0
M  V30 8132 C 772.516 2.30278 0.327826 0
M  V30 8133 C 773.51 1.37831 0.984839 0
M  V30 8134 O 774.716 1.54994 0.915251 0
M  V30 8135 H 771.091 0.741612 0.124564 0
M  V30 8136 H 773.062 2.96124 -0.367853 0
M  V30 8137 C 771.811 3.18548 1.39365 0
M  V30 8138 H 771.134 3.89596 0.897475 0
M  V30 8139 H 772.574 3.77561 1.92934 0
M  V30 8140 C 771.033 2.36548 2.39889 0
M  V30 8141 O 771.563 2.05282 3.45286 0
M  V30 8142 N 769.769 1.99015 2.11758 0
M  V30 8143 H 769.316 2.24641 1.26071 0
M  V30 8144 H 769.274 1.44454 2.7925 0
M  V30 8145 N 773.046 0.209999 1.56195 0
M  V30 8146 C 774.292 -0.425442 1.98287 0
M  V30 8147 C 774.625 -1.60232 1.09724 0
M  V30 8148 O 773.9 -1.93902 0.152414 0
M  V30 8149 C 774.183 -0.871189 3.49403 0
M  V30 8150 C 774.036 0.308527 4.48741 0
M  V30 8151 C 775.355 -1.73146 4.04609 0
M  V30 8152 H 772.474 -0.153169 0.720908 0
M  V30 8153 H 775.116 0.303916 1.87554 0
M  V30 8154 H 773.266 -1.49266 3.58681 0
M  V30 8155 H 774.938 0.946487 4.51486 0
M  V30 8156 H 773.181 0.957878 4.23092 0
M  V30 8157 H 773.852 -0.0461143 5.51981 0
M  V30 8158 H 776.328 -1.2072 3.98203 0
M  V30 8159 H 775.204 -2.01228 5.10684 0
M  V30 8160 H 775.465 -2.69083 3.5078 0
M  V30 8161 N 774.524 -1.57472 -0.0634922 0
M  V30 8162 C 775.749 -1.92273 -0.77756 0
M  V30 8163 C 776.174 -0.807141 -1.69902 0
M  V30 8164 O 775.532 0.239523 -1.79711 0
M  V30 8165 C 775.58 -3.26054 -1.54017 0
M  V30 8166 O 774.684 -3.15873 -2.65138 0
M  V30 8167 H 774.025 -0.629389 -0.211579 0
M  V30 8168 H 776.555 -2.04579 -0.0292523 0
M  V30 8169 H 776.565 -3.60127 -1.91763 0
M  V30 8170 H 775.24 -4.06824 -0.864128 0
M  V30 8171 H 773.817 -2.93373 -2.30189 0
M  V30 8172 N 776.003 0.335068 -1.53997 0
M  V30 8173 C 776.936 1.43533 -1.77407 0
M  V30 8174 C 777.914 1.5017 -0.623529 0
M  V30 8175 O 779.098 1.67756 -0.85966 0
M  V30 8176 C 776.225 2.81712 -1.88033 0
M  V30 8177 C 775.271 2.92661 -3.10245 0
M  V30 8178 S 776.104 2.58254 -4.69111 0
M  V30 8179 C 777.26 3.98525 -4.82627 0
M  V30 8180 H 777.493 1.2346 -2.70453 0
M  V30 8181 H 775.026 0.531234 -1.44973 0
M  V30 8182 H 776.984 3.61314 -1.9484 0
M  V30 8183 H 775.645 2.99075 -0.959849 0
M  V30 8184 H 774.838 3.93931 -3.14379 0
M  V30 8185 H 774.44 2.21017 -3.01708 0
M  V30 8186 H 776.732 4.93146 -4.64557 0
M  V30 8187 H 777.675 3.9938 -5.84723 0
M  V30 8188 H 778.083 3.86945 -4.11016 0
M  V30 8189 N 777.481 1.45874 0.596531 0
M  V30 8190 C 778.758 1.40942 1.35627 0
M  V30 8191 C 779.138 0.0857066 2.10926 0
M  V30 8192 O 778.486 -0.932544 2.08605 0
M  V30 8193 C 778.696 2.63027 2.29386 0
M  V30 8194 C 780.044 3.08588 2.91649 0
M  V30 8195 O 781.068 2.63478 2.39704 0
M  V30 8196 O 779.927 3.86902 3.85965 0
M  V30 8197 H 777.021 0.559838 0.608696 0
M  V30 8198 H 779.567 1.5802 0.618698 0
M  V30 8199 H 778.339 3.5094 1.7308 0
M  V30 8200 H 777.962 2.48338 3.10506 0
M  V30 8201 N 778.959 -0.83999 1.33349 0
M  V30 8202 C 779.889 -1.965 1.26135 0
M  V30 8203 C 780.87 -1.69505 0.142152 0
M  V30 8204 O 782.055 -1.91346 0.331743 0
M  V30 8205 C 779.185 -3.32632 0.99866 0
M  V30 8206 C 778.139 -3.74021 2.08068 0
M  V30 8207 C 777.465 -5.07947 1.67014 0
M  V30 8208 C 778.765 -3.87925 3.49731 0
M  V30 8209 H 780.459 -2.02793 2.20262 0
M  V30 8210 H 778.005 -0.974297 1.06035 0
M  V30 8211 H 779.958 -4.10903 0.934696 0
M  V30 8212 H 778.682 -3.26593 0.0217759 0
M  V30 8213 H 777.341 -2.98012 2.13505 0
M  V30 8214 H 776.989 -4.98378 0.680316 0
M  V30 8215 H 776.689 -5.36611 2.39422 0
M  V30 8216 H 778.213 -5.88695 1.62082 0
M  V30 8217 H 779.627 -4.5651 3.46802 0
M  V30 8218 H 778.024 -4.28023 4.20614 0
M  V30 8219 H 779.094 -2.90407 3.88319 0
M  V30 8220 N 780.437 -1.16799 -1.0581 0
M  V30 8221 C 781.4 -0.881396 -2.11575 0
M  V30 8222 C 782.4 0.12574 -1.60308 0
M  V30 8223 O 783.59 -0.105716 -1.73879 0
M  V30 8224 C 780.722 -0.319037 -3.39404 0
M  V30 8225 H 781.915 -1.81907 -2.38432 0
M  V30 8226 H 779.468 -0.977597 -1.21954 0
M  V30 8227 H 780.203 0.626082 -3.18199 0
M  V30 8228 H 779.988 -1.04481 -3.77923 0
M  V30 8229 H 781.478 -0.13663 -4.17376 0
M  V30 8230 N 781.915 1.24427 -0.967243 0
M  V30 8231 C 783.143 1.96541 -0.646477 0
M  V30 8232 C 783.558 1.71753 0.783996 0
M  V30 8233 O 782.915 1.00102 1.52597 0
M  V30 8234 C 782.966 3.4983 -0.911098 0
M  V30 8235 O 782.687 3.7377 -2.28534 0
M  V30 8236 C 784.188 4.3916 -0.604458 0
M  V30 8237 H 781.408 0.626129 -0.241255 0
M  V30 8238 H 783.952 1.58268 -1.29505 0
M  V30 8239 H 782.107 3.86168 -0.308741 0
M  V30 8240 H 782.521 4.68154 -2.365 0
M  V30 8241 H 783.995 5.4557 -0.840069 0
M  V30 8242 H 784.472 4.36771 0.461273 0
M  V30 8243 H 785.078 4.08409 -1.1867 0
M  V30 8244 N 783.393 0.737304 1.3929 0
M  V30 8245 C 784.64 0.286257 2.00467 0
M  V30 8246 C 784.968 -1.1272 1.58507 0
M  V30 8247 O 784.223 -1.7832 0.806257 0
M  V30 8248 C 784.522 0.338438 3.55794 0
M  V30 8249 C 784.188 1.70524 4.17411 0
M  V30 8250 C 782.85 2.07934 4.33955 0
M  V30 8251 C 785.202 2.60256 4.51571 0
M  V30 8252 C 782.53 3.34578 4.81948 0
M  V30 8253 C 784.882 3.86275 5.00974 0
M  V30 8254 C 783.546 4.23774 5.15725 0
M  V30 8255 H 782.816 0.104749 0.733559 0
M  V30 8256 H 785.463 0.944598 1.66582 0
M  V30 8257 H 783.768 -0.403478 3.89717 0
M  V30 8258 H 785.465 -0.0287255 4.0099 0
M  V30 8259 H 782.055 1.40439 4.04938 0
M  V30 8260 H 786.239 2.32624 4.38406 0
M  V30 8261 H 781.495 3.63572 4.91554 0
M  V30 8262 H 785.669 4.5596 5.26378 0
M  V30 8263 H 783.296 5.21972 5.52674 0
M  V30 8264 N 784.871 -1.49948 0.485112 0
M  V30 8265 C 785.804 -2.25531 -0.348027 0
M  V30 8266 C 786.782 -1.29433 -0.984172 0
M  V30 8267 O 787.966 -1.58687 -1.01738 0
M  V30 8268 C 785.093 -3.04225 -1.48878 0
M  V30 8269 C 784.139 -4.15355 -0.968616 0
M  V30 8270 S 784.972 -5.35347 0.127934 0
M  V30 8271 C 786.128 -6.17593 -1.01637 0
M  V30 8272 H 786.361 -2.95847 0.293529 0
M  V30 8273 H 783.894 -1.52018 0.27018 0
M  V30 8274 H 785.852 -3.50153 -2.14251 0
M  V30 8275 H 784.513 -2.33407 -2.1019 0
M  V30 8276 H 783.706 -4.69873 -1.82305 0
M  V30 8277 H 783.308 -3.71936 -0.392377 0
M  V30 8278 H 785.6 -6.49576 -1.92503 0
M  V30 8279 H 786.543 -7.0626 -0.510149 0
M  V30 8280 H 786.951 -5.49877 -1.27653 0
M  V30 8281 N 786.349 -0.21828 -1.56081 0
M  V30 8282 C 787.296 0.693189 -2.20144 0
M  V30 8283 C 788.266 1.19274 -1.15598 0
M  V30 8284 O 789.451 1.25243 -1.4394 0
M  V30 8285 C 786.591 1.89715 -2.88275 0
M  V30 8286 C 785.704 1.4368 -4.07407 0
M  V30 8287 C 784.839 2.59807 -4.63329 0
M  V30 8288 C 783.878 2.10492 -5.74769 0
M  V30 8289 N 783.015 3.1988 -6.24997 0
M  V30 8290 H 787.855 0.14016 -2.9767 0
M  V30 8291 H 785.392 0.0574292 -1.46988 0
M  V30 8292 H 787.35 2.60398 -3.25958 0
M  V30 8293 H 785.98 2.42311 -2.13273 0
M  V30 8294 H 785.032 0.625007 -3.7523 0
M  V30 8295 H 786.344 1.03517 -4.8794 0
M  V30 8296 H 785.498 3.38577 -5.03438 0
M  V30 8297 H 784.237 3.03256 -3.81951 0
M  V30 8298 H 783.242 1.30182 -5.34165 0
M  V30 8299 H 784.467 1.68045 -6.5798 0
M  V30 8300 H 782.413 3.62817 -5.46534 0
M  V30 8301 H 782.33 2.83958 -7.00645 0
M  V30 8302 H 783.598 3.98796 -6.69763 0
M  V30 8303 N 787.827 1.57504 0.0551401 0
M  V30 8304 C 788.757 2.07864 1.06372 0
M  V30 8305 C 789.738 0.975565 1.39344 0
M  V30 8306 O 790.923 1.24929 1.48682 0
M  V30 8307 C 788.053 2.53643 2.3724 0
M  V30 8308 C 787.007 3.67978 2.18578 0
M  V30 8309 C 786.333 3.9987 3.54976 0
M  V30 8310 C 787.633 4.97405 1.59329 0
M  V30 8311 H 789.327 2.92379 0.644595 0
M  V30 8312 H 786.873 1.40654 0.308619 0
M  V30 8313 H 788.826 2.8749 3.08103 0
M  V30 8314 H 787.55 1.66177 2.81163 0
M  V30 8315 H 786.209 3.3444 1.50152 0
M  V30 8316 H 785.857 3.0951 3.965 0
M  V30 8317 H 785.557 4.76867 3.43324 0
M  V30 8318 H 787.081 4.36228 4.27244 0
M  V30 8319 H 788.495 5.29375 2.20078 0
M  V30 8320 H 786.892 5.78837 1.58327 0
M  V30 8321 H 787.962 4.81697 0.55638 0
M  V30 8322 N 789.305 -0.326896 1.54172 0
M  V30 8323 C 790.721 -0.671034 1.44808 0
M  V30 8324 C 790.921 -1.91781 0.618258 0
M  V30 8325 O 789.977 -2.52235 0.115751 0
M  V30 8326 C 791.29 -0.848147 2.88491 0
M  V30 8327 C 792.838 -0.945702 2.98371 0
M  V30 8328 C 793.313 -1.15501 4.43197 0
M  V30 8329 N 794.804 -1.22183 4.46795 0
M  V30 8330 C 795.539 -1.4016 5.56006 0
M  V30 8331 N 795.035 -1.55202 6.75192 0
M  V30 8332 N 796.828 -1.42841 5.43648 0
M  V30 8333 H 788.979 0.49262 2.06608 0
M  V30 8334 H 791.242 0.158574 0.934643 0
M  V30 8335 H 790.948 -0.00329969 3.517 0
M  V30 8336 H 790.822 -1.74497 3.34411 0
M  V30 8337 H 793.209 -1.78106 2.35292 0
M  V30 8338 H 793.29 -0.0254215 2.55787 0
M  V30 8339 H 792.934 -0.324521 5.06862 0
M  V30 8340 H 792.864 -2.08911 4.83388 0
M  V30 8341 H 795.355 -1.12016 3.60917 0
M  V30 8342 H 795.668 -1.68601 7.54184 0
M  V30 8343 H 794.013 -1.52306 6.78106 0
M  V30 8344 H 797.204 -1.30683 4.49488 0
M  V30 8345 H 797.377 -1.56509 6.28816 0
M  V30 8346 N 790.784 -1.46188 -0.588786 0
M  V30 8347 C 792.012 -1.54743 -1.37339 0
M  V30 8348 C 792.427 -0.186446 -1.87877 0
M  V30 8349 O 791.784 0.815247 -1.63279 0
M  V30 8350 C 791.835 -2.54727 -2.56508 0
M  V30 8351 O 791.556 -3.85539 -2.08066 0
M  V30 8352 C 793.057 -2.73163 -3.49137 0
M  V30 8353 H 790.277 -0.523484 -0.419768 0
M  V30 8354 H 792.821 -1.91543 -0.716345 0
M  V30 8355 H 790.976 -2.20948 -3.18215 0
M  V30 8356 H 791.39 -4.39905 -2.85629 0
M  V30 8357 H 792.864 -3.47057 -4.2925 0
M  V30 8358 H 793.341 -1.79856 -4.00685 0
M  V30 8359 H 793.947 -3.08014 -2.9327 0
M  V30 8360 N 792.262 0.832906 -1.33792 0
M  V30 8361 C 793.539 1.57359 -1.16178 0
M  V30 8362 C 793.919 2.09372 0.269532 0
M  V30 8363 O 793.267 1.89993 1.26944 0
M  V30 8364 C 793.477 2.70279 -2.20795 0
M  V30 8365 C 794.825 3.39305 -2.55259 0
M  V30 8366 O 795.849 2.80526 -2.19508 0
M  V30 8367 O 794.708 4.45428 -3.16632 0
M  V30 8368 H 791.802 0.694025 -0.449731 0
M  V30 8369 H 794.348 0.875144 -1.45394 0
M  V30 8370 H 793.12 2.29527 -3.16911 0
M  V30 8371 H 792.743 3.47782 -1.927 0
M  V30 8372 N 793.74 1.17359 1.05189 0
M  V30 8373 C 794.703 0.892604 2.11105 0
M  V30 8374 C 795.703 -0.117236 1.60372 0
M  V30 8375 O 796.893 0.114936 1.7382 0
M  V30 8376 C 794.025 0.337032 3.3923 0
M  V30 8377 H 795.218 1.83169 2.37464 0
M  V30 8378 H 792.771 0.984051 1.21434 0
M  V30 8379 H 793.506 -0.609198 3.18527 0
M  V30 8380 H 793.291 1.06484 3.77364 0
M  V30 8381 H 794.781 0.158763 4.17298 0
M  V30 8382 N 795.218 -1.23913 0.973828 0
M  V30 8383 C 796.464 -1.92436 0.640026 0
M  V30 8384 C 796.797 -1.75875 -0.823512 0
M  V30 8385 O 796.072 -1.11563 -1.59323 0
M  V30 8386 C 796.355 -3.4526 1.0231 0
M  V30 8387 C 796.208 -3.70961 2.54378 0
M  V30 8388 C 797.527 -4.36495 0.562155 0
M  V30 8389 H 794.646 -0.698868 0.233992 0
M  V30 8390 H 797.288 -1.46163 1.21393 0
M  V30 8391 H 795.438 -3.84802 0.534751 0
M  V30 8392 H 797.11 -3.40941 3.10737 0
M  V30 8393 H 795.353 -3.15899 2.97305 0
M  V30 8394 H 796.024 -4.77912 2.76232 0
M  V30 8395 H 798.5 -4.04363 0.981333 0
M  V30 8396 H 797.376 -5.42142 0.858689 0
M  V30 8397 H 797.637 -4.38818 -0.537659 0
M  V30 8398 N 796.696 -0.74468 -1.38897 0
M  V30 8399 C 797.626 -0.126355 -2.33158 0
M  V30 8400 C 798.607 0.713517 -1.54412 0
M  V30 8401 O 799.792 0.656523 -1.82766 0
M  V30 8402 C 796.922 0.774375 -3.38557 0
M  V30 8403 C 795.876 0.0379214 -4.27983 0
M  V30 8404 C 795.202 1.05631 -5.24162 0
M  V30 8405 C 796.502 -1.12523 -5.10035 0
M  V30 8406 H 798.196 -0.913744 -2.85116 0
M  V30 8407 H 795.742 -0.440847 -1.37086 0
M  V30 8408 H 797.695 1.21655 -4.03458 0
M  V30 8409 H 796.419 1.59399 -2.85061 0
M  V30 8410 H 795.078 -0.384733 -3.64576 0
M  V30 8411 H 794.726 1.86975 -4.66958 0
M  V30 8412 H 794.426 0.568261 -5.84846 0
M  V30 8413 H 795.95 1.49799 -5.9194 0
M  V30 8414 H 797.364 -0.761037 -5.68226 0
M  V30 8415 H 795.761 -1.54355 -5.79909 0
M  V30 8416 H 796.831 -1.94237 -4.44297 0
M  V30 8417 N 798.174 1.49689 -0.493057 0
M  V30 8418 C 799.585 1.8665 -0.0433032 0
M  V30 8419 C 799.936 1.40607 1.36836 0
M  V30 8420 O 799.061 0.780503 2.01834 0
M  V30 8421 C 799.656 3.38724 -0.0718069 0
M  V30 8422 C 798.215 3.75015 0.32257 0
M  V30 8423 C 797.362 2.7366 -0.4478 0
M  V30 8424 H 800.313 1.42119 -0.706246 0
M  V30 8425 H 800.334 3.73522 0.725347 0
M  V30 8426 H 799.846 3.72204 -1.09935 0
M  V30 8427 H 797.947 3.47142 1.35364 0
M  V30 8428 H 798.06 4.79099 0.00864259 0
M  V30 8429 H 796.424 2.54498 0.101354 0
M  V30 8430 H 797.207 3.09985 -1.47527 0
M  V30 8431 N 799.652 0.226554 1.55963 0
M  V30 8432 C 800.582 -0.676079 2.23498 0
M  V30 8433 C 801.563 -1.19718 1.20837 0
M  V30 8434 O 802.748 -1.24027 1.49436 0
M  V30 8435 C 799.878 -1.88217 2.91876 0
M  V30 8436 C 798.832 -1.4947 4.01052 0
M  V30 8437 C 798.158 -2.77997 4.56751 0
M  V30 8438 C 799.458 -0.680951 5.17842 0
M  V30 8439 H 801.152 -0.112989 2.99187 0
M  V30 8440 H 798.698 -0.0529046 1.43903 0
M  V30 8441 H 800.651 -2.51911 3.37815 0
M  V30 8442 H 799.375 -2.47031 2.13643 0
M  V30 8443 H 798.034 -0.881199 3.55852 0
M  V30 8444 H 797.682 -3.34966 3.75243 0
M  V30 8445 H 797.382 -2.52803 5.30438 0
M  V30 8446 H 798.906 -3.42625 5.05411 0
M  V30 8447 H 800.32 -1.22171 5.60131 0
M  V30 8448 H 798.717 -0.525898 5.97791 0
M  V30 8449 H 799.787 0.311346 4.83899 0
M  V30 8450 N 801.13 -1.57531 -0.0467866 0
M  V30 8451 C 802.358 -1.92696 -0.753371 0
M  V30 8452 C 802.773 -0.824792 -1.69831 0
M  V30 8453 O 802.13 0.200155 -1.81399 0
M  V30 8454 C 802.181 -3.27728 -1.52566 0
M  V30 8455 O 801.902 -4.3371 -0.618674 0
M  V30 8456 C 803.403 -3.77066 -2.33101 0
M  V30 8457 H 800.623 -0.636367 -0.212788 0
M  V30 8458 H 803.167 -2.04498 -0.00959361 0
M  V30 8459 H 801.322 -3.17378 -2.22148 0
M  V30 8460 H 801.736 -5.11548 -1.15839 0
M  V30 8461 H 803.21 -4.74109 -2.82709 0
M  V30 8462 H 803.687 -3.07348 -3.13741 0
M  V30 8463 H 804.293 -3.90442 -1.68628 0
M  V30 8464 N 802.608 0.318715 -1.54344 0
M  V30 8465 C 803.854 1.05765 -1.73037 0
M  V30 8466 C 804.187 1.87514 -0.505181 0
M  V30 8467 O 803.462 1.88021 0.497838 0
M  V30 8468 C 803.745 1.97836 -3.00887 0
M  V30 8469 C 803.598 1.19384 -4.33668 0
M  V30 8470 C 804.917 2.97285 -3.24514 0
M  V30 8471 H 802.036 0.383104 -0.629603 0
M  V30 8472 H 804.678 0.333864 -1.87044 0
M  V30 8473 H 802.828 2.59552 -2.89076 0
M  V30 8474 H 804.5 0.600906 -4.57369 0
M  V30 8475 H 802.743 0.496198 -4.30953 0
M  V30 8476 H 803.414 1.87014 -5.19355 0
M  V30 8477 H 805.89 2.45693 -3.35819 0
M  V30 8478 H 804.766 3.58887 -4.15321 0
M  V30 8479 H 805.027 3.70003 -2.41971 0
M  V30 8480 N 804.086 1.46499 0.581025 0
M  V30 8481 C 805.049 1.5677 1.672 0
M  V30 8482 C 806.049 0.444716 1.54528 0
M  V30 8483 O 807.239 0.709074 1.59116 0
M  V30 8484 C 804.371 1.4896 3.06633 0
M  V30 8485 H 805.564 2.54 1.5945 0
M  V30 8486 H 803.117 1.34334 0.799003 0
M  V30 8487 H 803.852 0.530168 3.19937 0
M  V30 8488 H 803.637 2.30439 3.17239 0
M  V30 8489 H 805.127 1.59237 3.86048 0
M  V30 8490 N 805.565 -0.825799 1.34232 0
M  V30 8491 C 806.475 -1.9684 1.27638 0
M  V30 8492 C 807.491 -1.73018 0.184569 0
M  V30 8493 O 808.667 -1.97172 0.410525 0
M  V30 8494 C 805.732 -3.31084 1.02879 0
M  V30 8495 C 804.793 -3.67933 2.21188 0
M  V30 8496 C 804.026 -4.95772 1.976 0
M  V30 8497 O 804.249 -5.62721 0.93281 0
M  V30 8498 O 803.183 -5.30431 2.84477 0
M  V30 8499 H 807.009 -2.05346 2.23756 0
M  V30 8500 H 804.594 -0.960772 1.1441 0
M  V30 8501 H 806.476 -4.11492 0.908406 0
M  V30 8502 H 805.151 -3.23552 0.0979821 0
M  V30 8503 H 804.058 -2.87981 2.38784 0
M  V30 8504 H 805.391 -3.80147 3.12648 0
M  V30 8505 N 807.043 -1.17915 -1.04565 0
M  V30 8506 C 808.289 -0.972863 -1.77942 0
M  V30 8507 C 808.622 0.496753 -1.87739 0
M  V30 8508 O 807.897 1.3688 -1.38181 0
M  V30 8509 C 808.18 -1.62227 -3.21488 0
M  V30 8510 C 808.033 -3.16441 -3.19664 0
M  V30 8511 C 809.352 -1.33137 -4.19479 0
M  V30 8512 H 806.471 -0.354843 -0.645953 0
M  V30 8513 H 809.113 -1.45508 -1.22178 0
M  V30 8514 H 807.263 -1.21224 -3.69103 0
M  V30 8515 H 808.935 -3.66544 -2.80077 0
M  V30 8516 H 807.178 -3.48863 -2.57832 0
M  V30 8517 H 807.849 -3.57012 -4.21006 0
M  V30 8518 H 810.325 -1.68654 -3.80388 0
M  V30 8519 H 809.201 -1.81151 -5.18146 0
M  V30 8520 H 809.462 -0.253319 -4.41374 0
M  V30 8521 N 808.521 1.23394 -0.980386 0
M  V30 8522 C 809.453 2.24146 -0.478657 0
M  V30 8523 C 810.466 1.57303 0.419492 0
M  V30 8524 O 811.655 1.77094 0.223631 0
M  V30 8525 C 808.755 3.3732 0.326913 0
M  V30 8526 C 807.928 4.33744 -0.56436 0
M  V30 8527 C 806.987 5.25866 0.187358 0
M  V30 8528 O 806.013 5.67626 -0.423019 0
M  V30 8529 N 807.215 5.61492 1.47335 0
M  V30 8530 H 809.98 2.67826 -1.34496 0
M  V30 8531 H 807.541 1.37566 -0.853653 0
M  V30 8532 H 809.533 3.95926 0.838148 0
M  V30 8533 H 808.103 2.92823 1.09422 0
M  V30 8534 H 807.323 3.73641 -1.25642 0
M  V30 8535 H 808.611 4.95123 -1.17177 0
M  V30 8536 H 808.009 5.29514 1.99077 0
M  V30 8537 H 806.566 6.2257 1.93002 0
M  V30 8538 N 809.999 0.752036 1.385 0
M  V30 8539 C 810.946 0.123288 2.3047 0
M  V30 8540 C 811.916 -0.711326 1.50098 0
M  V30 8541 O 813.101 -0.667775 1.78733 0
M  V30 8542 C 810.241 -0.765085 3.36512 0
M  V30 8543 C 809.354 0.0839885 4.31918 0
M  V30 8544 C 808.489 -0.807243 5.25031 0
M  V30 8545 C 807.528 0.0455583 6.12083 0
M  V30 8546 N 806.665 -0.802547 6.97498 0
M  V30 8547 H 811.505 0.913169 2.83664 0
M  V30 8548 H 809.042 0.46195 1.39658 0
M  V30 8549 H 811 -1.29476 3.966 0
M  V30 8550 H 809.63 -1.52077 2.84732 0
M  V30 8551 H 808.682 0.731276 3.73305 0
M  V30 8552 H 809.994 0.74265 4.9324 0
M  V30 8553 H 809.148 -1.40414 5.90228 0
M  V30 8554 H 807.887 -1.49964 4.64071 0
M  V30 8555 H 806.892 0.655137 5.45883 0
M  V30 8556 H 808.117 0.734994 6.75111 0
M  V30 8557 H 806.063 -1.47992 6.39089 0
M  V30 8558 H 805.98 -0.200747 7.55733 0
M  V30 8559 H 807.248 -1.38447 7.67107 0
M  V30 8560 N 811.477 -1.49425 0.500989 0
M  V30 8561 C 812.407 -2.31971 -0.266775 0
M  V30 8562 C 813.388 -1.40245 -0.962563 0
M  V30 8563 O 814.573 -1.69154 -0.953968 0
M  V30 8564 C 811.703 -3.20757 -1.33163 0
M  V30 8565 C 810.657 -4.21275 -0.75572 0
M  V30 8566 C 809.983 -4.98997 -1.92109 0
M  V30 8567 C 811.283 -5.21686 0.253213 0
M  V30 8568 H 812.977 -2.96408 0.422237 0
M  V30 8569 H 810.523 -1.4254 0.204505 0
M  V30 8570 H 812.476 -3.77315 -1.87646 0
M  V30 8571 H 811.2 -2.54263 -2.04983 0
M  V30 8572 H 809.859 -3.65861 -0.232637 0
M  V30 8573 H 809.507 -4.28951 -2.62698 0
M  V30 8574 H 809.207 -5.67011 -1.54182 0
M  V30 8575 H 810.731 -5.584 -2.47026 0
M  V30 8576 H 812.145 -5.72939 -0.203483 0
M  V30 8577 H 810.542 -5.9759 0.548322 0
M  V30 8578 H 811.612 -4.70596 1.16909 0
M  V30 8579 N 812.955 -0.234822 -1.55841 0
M  V30 8580 C 813.885 0.664217 -2.23854 0
M  V30 8581 C 814.866 1.19076 -1.2147 0
M  V30 8582 O 816.051 1.23232 -1.50091 0
M  V30 8583 C 813.181 1.86666 -2.9287 0
M  V30 8584 C 812.135 1.47341 -4.01839 0
M  V30 8585 C 811.461 2.75571 -4.58219 0
M  V30 8586 C 812.761 0.653479 -5.18196 0
M  V30 8587 H 814.455 0.0971213 -2.99242 0
M  V30 8588 H 812.001 0.0452724 -1.43929 0
M  V30 8589 H 813.954 2.50116 -3.39146 0
M  V30 8590 H 812.678 2.45894 -2.1495 0
M  V30 8591 H 811.337 0.862314 -3.56314 0
M  V30 8592 H 810.985 3.32971 -3.77014 0
M  V30 8593 H 810.685 2.49987 -5.31771 0
M  V30 8594 H 812.209 3.39939 -5.07221 0
M  V30 8595 H 813.623 1.19198 -5.60771 0
M  V30 8596 H 812.02 0.494188 -5.98062 0
M  V30 8597 H 813.09 -0.337004 -4.83728 0
M  V30 8598 N 814.433 1.57553 0.0384317 0
M  V30 8599 C 815.681 1.88468 0.729672 0
M  V30 8600 C 816.002 0.831302 1.76393 0
M  V30 8601 O 815.272 -0.13622 1.95426 0
M  V30 8602 H 813.852 0.695529 0.272485 0
M  V30 8603 H 816.514 1.94899 0.0066032 0
M  V30 8604 H 815.61 2.8705 1.22511 0
M  V30 8605 N 815.911 -0.310526 1.54511 0
M  V30 8606 C 817.322 -0.884142 1.64438 0
M  V30 8607 C 817.673 -1.88425 0.546855 0
M  V30 8608 O 816.798 -2.14049 -0.31811 0
M  V30 8609 C 817.393 -1.6104 2.9808 0
M  V30 8610 C 815.952 -2.13255 3.1016 0
M  V30 8611 C 815.099 -0.96213 2.60074 0
M  V30 8612 H 818.05 -0.0877666 1.58457 0
M  V30 8613 H 818.071 -2.47541 2.8897 0
M  V30 8614 H 817.583 -0.882255 3.77939 0
M  V30 8615 H 815.684 -2.89145 2.35002 0
M  V30 8616 H 815.797 -2.37361 4.16169 0
M  V30 8617 H 814.161 -1.34501 2.16291 0
M  V30 8618 H 814.944 -0.248098 3.42402 0
M  V30 8619 N 817.389 -1.46805 -0.573248 0
M  V30 8620 C 818.339 -1.54497 -1.67674 0
M  V30 8621 C 819.323 -0.405117 -1.55716 0
M  V30 8622 O 820.515 -0.654097 -1.64471 0
M  V30 8623 C 817.644 -1.54717 -3.0646 0
M  V30 8624 C 816.73 -2.7403 -3.2368 0
M  V30 8625 N 817.121 -3.98871 -3.11023 0
M  V30 8626 C 815.419 -2.70453 -3.54642 0
M  V30 8627 C 816.12 -4.78689 -3.30502 0
M  V30 8628 N 815.096 -4.10727 -3.56096 0
M  V30 8629 H 818.898 -2.48809 -1.56433 0
M  V30 8630 H 816.412 -1.42576 -0.777554 0
M  V30 8631 H 818.409 -1.58316 -3.8567 0
M  V30 8632 H 817.069 -0.614886 -3.18825 0
M  V30 8633 H 818.08 -4.29976 -2.88688 0
M  V30 8634 H 814.757 -1.86291 -3.73633 0
M  V30 8635 H 816.147 -5.87615 -3.2582 0
M  V30 8636 N 818.867 0.818669 -1.34668 0
M  V30 8637 C 820.113 1.57746 -1.27453 0
M  V30 8638 C 820.446 1.93588 0.154077 0
M  V30 8639 O 819.721 1.60371 1.10051 0
M  V30 8640 C 820.004 2.87414 -2.16945 0
M  V30 8641 C 819.857 2.58125 -3.68363 0
M  V30 8642 C 821.176 3.89021 -2.05792 0
M  V30 8643 H 818.295 0.572339 -0.464324 0
M  V30 8644 H 820.937 0.942784 -1.64959 0
M  V30 8645 H 819.087 3.41576 -1.85089 0
M  V30 8646 H 820.759 2.10239 -4.10606 0
M  V30 8647 H 819.002 1.91503 -3.89242 0
M  V30 8648 H 819.673 3.5061 -4.26353 0
M  V30 8649 H 822.149 3.44224 -2.33771 0
M  V30 8650 H 821.025 4.77548 -2.70628 0
M  V30 8651 H 821.286 4.29786 -1.03618 0
M  V30 8652 N 820.346 1.18468 1.03938 0
M  V30 8653 C 821.256 0.927889 2.1547 0
M  V30 8654 C 822.272 -0.108447 1.73662 0
M  V30 8655 O 823.448 0.0737636 2.01265 0
M  V30 8656 C 820.513 0.458494 3.43655 0
M  V30 8657 C 819.574 1.56295 3.99838 0
M  V30 8658 C 818.807 1.11586 5.21904 0
M  V30 8659 O 819.03 -0.0249057 5.70395 0
M  V30 8660 O 817.964 1.91412 5.70653 0
M  V30 8661 H 821.79 1.86116 2.39989 0
M  V30 8662 H 819.375 0.966607 1.13917 0
M  V30 8663 H 821.257 0.204861 4.20902 0
M  V30 8664 H 819.932 -0.446464 3.20606 0
M  V30 8665 H 818.839 1.87061 3.23974 0
M  V30 8666 H 820.172 2.44408 4.2723 0
M  V30 8667 N 821.824 -1.22873 0.986916 0
M  V30 8668 C 823.072 -1.91084 0.658121 0
M  V30 8669 C 823.393 -1.77304 -0.811675 0
M  V30 8670 O 822.663 -1.15649 -1.58121 0
M  V30 8671 H 821.243 -0.707251 0.240427 0
M  V30 8672 H 823.905 -1.49357 1.25213 0
M  V30 8673 H 823.001 -2.98373 0.915428 0
M  V30 8674 N 823.302 -0.75937 -1.38099 0
M  V30 8675 C 824.232 -0.151077 -2.33011 0
M  V30 8676 C 825.213 0.697099 -1.5516 0
M  V30 8677 O 826.398 0.637101 -1.83452 0
M  V30 8678 C 823.528 0.738423 -3.39359 0
M  V30 8679 C 822.482 -0.0074741 -4.27999 0
M  V30 8680 C 821.808 1.00066 -5.25253 0
M  V30 8681 C 823.108 -1.17926 -5.08813 0
M  V30 8682 H 824.802 -0.943933 -2.84131 0
M  V30 8683 H 822.348 -0.455362 -1.36611 0
M  V30 8684 H 824.301 1.17369 -4.04725 0
M  V30 8685 H 823.025 1.56366 -2.86735 0
M  V30 8686 H 821.684 -0.423379 -3.64147 0
M  V30 8687 H 821.332 1.82012 -4.68914 0
M  V30 8688 H 821.032 0.506199 -5.85416 0
M  V30 8689 H 822.556 1.43512 -5.93495 0
M  V30 8690 H 823.97 -0.821262 -5.67387 0
M  V30 8691 H 822.367 -1.60497 -5.78239 0
M  V30 8692 H 823.437 -1.98938 -4.42212 0
M  V30 8693 N 824.78 1.49157 -0.508906 0
M  V30 8694 C 825.727 2.2927 0.265288 0
M  V30 8695 C 826.697 1.3603 0.953162 0
M  V30 8696 O 827.882 1.64989 0.958291 0
M  V30 8697 C 825.022 3.18897 1.31904 0
M  V30 8698 C 824.135 4.27201 0.642144 0
M  V30 8699 C 823.27 5.04033 1.67701 0
M  V30 8700 C 822.309 6.04165 0.982422 0
M  V30 8701 N 821.446 6.74133 1.96186 0
M  V30 8702 H 826.286 2.94967 -0.424107 0
M  V30 8703 H 823.823 1.45431 -0.220991 0
M  V30 8704 H 825.781 3.69242 1.94206 0
M  V30 8705 H 824.411 2.55168 1.97709 0
M  V30 8706 H 823.463 3.80283 -0.0943395 0
M  V30 8707 H 824.775 4.98708 0.0957507 0
M  V30 8708 H 823.929 5.58287 2.37487 0
M  V30 8709 H 822.668 4.32317 2.25728 0
M  V30 8710 H 821.673 5.49135 0.270378 0
M  V30 8711 H 822.898 6.7787 0.408554 0
M  V30 8712 H 820.844 6.05183 2.53159 0
M  V30 8713 H 820.761 7.41643 1.46634 0
M  V30 8714 H 822.029 7.32987 2.65236 0
M  V30 8715 N 826.258 0.243083 1.55714 0
M  V30 8716 C 827.221 -0.644723 2.19945 0
M  V30 8717 C 828.221 -1.10562 1.16759 0
M  V30 8718 O 829.411 -1.01095 1.41865 0
M  V30 8719 C 826.543 -1.88569 2.83997 0
M  V30 8720 H 827.736 -0.0843839 2.99781 0
M  V30 8721 H 825.289 -0.00647246 1.56299 0
M  V30 8722 H 826.024 -2.48736 2.08089 0
M  V30 8723 H 825.809 -1.56345 3.59581 0
M  V30 8724 H 827.299 -2.51774 3.33166 0
M  V30 8725 N 827.736 -1.57571 -0.0300757 0
M  V30 8726 C 828.646 -2.09892 -1.04798 0
M  V30 8727 C 829.662 -1.03732 -1.39698 0
M  V30 8728 O 830.838 -1.35461 -1.49038 0
M  V30 8729 C 827.903 -2.56707 -2.33028 0
M  V30 8730 C 826.964 -3.77345 -2.04718 0
M  V30 8731 C 826.197 -4.21918 -3.26834 0
M  V30 8732 O 826.42 -3.66025 -4.37472 0
M  V30 8733 O 825.354 -5.14362 -3.12594 0
M  V30 8734 H 829.18 -2.97023 -0.633344 0
M  V30 8735 H 826.765 -1.47344 -0.246991 0
M  V30 8736 H 828.647 -2.87154 -3.08417 0
M  V30 8737 H 827.322 -1.72688 -2.73789 0
M  V30 8738 H 826.229 -3.51919 -1.26901 0
M  V30 8739 H 827.562 -4.62345 -1.68813 0
M  V30 8740 N 829.214 0.302327 -1.54673 0
M  V30 8741 C 830.124 1.39542 -1.88587 0
M  V30 8742 C 831.14 1.55543 -0.779895 0
M  V30 8743 O 832.316 1.70233 -1.07623 0
M  V30 8744 C 829.381 2.7394 -2.12504 0
M  V30 8745 C 828.442 2.66935 -3.3622 0
M  V30 8746 C 827.675 3.94923 -3.58987 0
M  V30 8747 O 827.898 4.94218 -2.84789 0
M  V30 8748 O 826.832 3.96896 -4.52501 0
M  V30 8749 H 830.658 1.13784 -2.81579 0
M  V30 8750 H 828.243 0.49827 -1.40846 0
M  V30 8751 H 830.125 3.5346 -2.29443 0
M  V30 8752 H 828.8 2.99544 -1.22698 0
M  V30 8753 H 827.707 1.85892 -3.24646 0
M  V30 8754 H 829.04 2.46283 -4.26152 0
M  V30 8755 N 830.692 1.47107 0.565454 0
M  V30 8756 C 832.108 1.32443 0.890566 0
M  V30 8757 C 832.308 0.308735 1.99121 0
M  V30 8758 O 831.364 -0.28265 2.50913 0
M  V30 8759 C 832.677 2.71548 1.2916 0
M  V30 8760 C 834.225 2.7977 1.40349 0
M  V30 8761 C 834.7 4.19497 1.83811 0
M  V30 8762 N 836.191 4.21998 1.90975 0
M  V30 8763 C 836.926 5.2702 2.25916 0
M  V30 8764 N 836.422 6.42353 2.59527 0
M  V30 8765 N 838.215 5.14393 2.26619 0
M  V30 8766 H 830.366 2.11786 -0.161328 0
M  V30 8767 H 832.629 0.947952 -0.00950631 0
M  V30 8768 H 832.335 3.47265 0.556753 0
M  V30 8769 H 832.209 3.02782 2.24951 0
M  V30 8770 H 834.596 2.0433 2.12916 0
M  V30 8771 H 834.677 2.522 0.427655 0
M  V30 8772 H 834.321 4.95439 1.11816 0
M  V30 8773 H 834.251 4.44486 2.82382 0
M  V30 8774 H 836.742 3.38791 1.6742 0
M  V30 8775 H 837.055 7.18252 2.85191 0
M  V30 8776 H 835.4 6.45687 2.57126 0
M  V30 8777 H 838.591 4.2332 1.99794 0
M  V30 8778 H 838.764 5.96349 2.5352 0
M  V30 8779 N 832.17 -0.811516 1.35101 0
M  V30 8780 C 833.12 -1.91227 1.24163 0
M  V30 8781 C 834.104 -1.60307 0.138012 0
M  V30 8782 O 835.296 -1.73116 0.368767 0
M  V30 8783 C 832.425 -3.2808 1.01085 0
M  V30 8784 C 831.511 -3.65082 2.15815 0
M  V30 8785 N 831.902 -3.73558 3.4101 0
M  V30 8786 C 830.2 -3.95005 2.07092 0
M  V30 8787 C 830.901 -4.06158 4.16426 0
M  V30 8788 N 829.877 -4.19982 3.45132 0
M  V30 8789 H 833.679 -1.95975 2.19023 0
M  V30 8790 H 831.193 -1.00583 1.27503 0
M  V30 8791 H 833.19 -4.06771 0.913382 0
M  V30 8792 H 831.85 -3.24622 0.0710406 0
M  V30 8793 H 832.861 -3.56761 3.75423 0
M  V30 8794 H 829.538 -3.99601 1.20937 0
M  V30 8795 H 830.928 -4.19824 5.24592 0
M  V30 8796 N 833.648 -1.19017 -1.03309 0
M  V30 8797 C 835.064 -0.941483 -1.28873 0
M  V30 8798 C 835.264 0.388587 -1.97718 0
M  V30 8799 O 834.32 1.12111 -2.26246 0
M  V30 8800 C 835.633 -2.11249 -2.13996 0
M  V30 8801 C 837.181 -2.15164 -2.27318 0
M  V30 8802 C 837.656 -3.31704 -3.15811 0
M  V30 8803 N 839.147 -3.31613 -3.23399 0
M  V30 8804 C 839.882 -4.18431 -3.9205 0
M  V30 8805 N 839.378 -5.15397 -4.62966 0
M  V30 8806 N 841.171 -4.06321 -3.88406 0
M  V30 8807 H 833.322 -2.04599 -0.570343 0
M  V30 8808 H 835.585 -0.894406 -0.314232 0
M  V30 8809 H 835.291 -3.07482 -1.70727 0
M  V30 8810 H 835.165 -2.07955 -3.14697 0
M  V30 8811 H 837.552 -1.19504 -2.6982 0
M  V30 8812 H 837.633 -2.22513 -1.26182 0
M  V30 8813 H 837.277 -4.2764 -2.74019 0
M  V30 8814 H 837.207 -3.21592 -4.16997 0
M  V30 8815 H 839.698 -2.6142 -2.72888 0
M  V30 8816 H 840.011 -5.78 -5.12968 0
M  V30 8817 H 838.356 -5.19349 -4.61846 0
M  V30 8818 H 841.547 -3.29849 -3.3214 0
M  V30 8819 H 841.72 -4.74196 -4.41635 0
M  V30 8820 N 835.127 1.22348 -0.993418 0
M  V30 8821 C 836.538 1.72893 -0.704616 0
M  V30 8822 C 836.889 1.80095 0.778483 0
M  V30 8823 O 836.014 1.4476 1.60853 0
M  V30 8824 C 836.609 3.14 -1.27237 0
M  V30 8825 C 835.168 3.61949 -1.03294 0
M  V30 8826 C 834.315 2.39816 -1.39225 0
M  V30 8827 H 837.266 1.07688 -1.16572 0
M  V30 8828 H 837.287 3.74886 -0.651212 0
M  V30 8829 H 836.799 3.08727 -2.3518 0
M  V30 8830 H 834.9 3.72588 0.0298329 0
M  V30 8831 H 835.013 4.48051 -1.69668 0
M  V30 8832 H 833.377 2.41448 -0.810849 0
M  V30 8833 H 834.16 2.37203 -2.48172 0
M  V30 8834 N 836.605 0.766683 1.37694 0
M  V30 8835 C 837.851 0.329201 2.0011 0
M  V30 8836 C 838.184 -1.09004 1.60723 0
M  V30 8837 O 837.459 -1.74895 0.850989 0
M  V30 8838 C 837.742 0.466989 3.57059 0
M  V30 8839 C 837.595 1.92828 4.06371 0
M  V30 8840 C 838.914 -0.131792 4.39903 0
M  V30 8841 H 836.033 0.12109 0.726984 0
M  V30 8842 H 838.675 0.968779 1.63446 0
M  V30 8843 H 836.825 -0.0775023 3.88423 0
M  V30 8844 H 838.497 2.53208 3.85595 0
M  V30 8845 H 836.74 2.43884 3.58752 0
M  V30 8846 H 837.411 1.97577 5.15429 0
M  V30 8847 H 839.887 0.332731 4.14768 0
M  V30 8848 H 838.763 -0.005217 5.489 0
M  V30 8849 H 839.024 -1.22156 4.24889 0
M  V30 8850 N 838.083 -1.48885 0.516809 0
M  V30 8851 C 839.499 -1.58651 0.173788 0
M  V30 8852 C 839.699 -1.52033 -1.32243 0
M  V30 8853 O 838.755 -1.40251 -2.09967 0
M  V30 8854 C 840.068 -2.90816 0.764628 0
M  V30 8855 C 841.616 -3.04316 0.732164 0
M  V30 8856 C 842.091 -4.39123 1.30135 0
M  V30 8857 N 843.582 -4.45656 1.26273 0
M  V30 8858 C 844.317 -5.48446 1.67317 0
M  V30 8859 N 843.813 -6.58258 2.16028 0
M  V30 8860 N 845.606 -5.39251 1.58635 0
M  V30 8861 H 837.757 -1.5143 1.48939 0
M  V30 8862 H 840.02 -0.718243 0.618733 0
M  V30 8863 H 839.726 -3.01275 1.81456 0
M  V30 8864 H 839.6 -3.76473 0.234113 0
M  V30 8865 H 841.987 -2.93478 -0.308975 0
M  V30 8866 H 842.068 -2.20303 1.3 0
M  V30 8867 H 841.712 -4.50714 2.34135 0
M  V30 8868 H 841.642 -5.21801 0.709305 0
M  V30 8869 H 844.133 -3.66879 0.906006 0
M  V30 8870 H 844.446 -7.32811 2.45374 0
M  V30 8871 H 842.791 -6.59257 2.20013 0
M  V30 8872 H 845.982 -4.52354 1.20387 0
M  V30 8873 H 846.155 -6.19229 1.90944 0
M  V30 8874 N 839.561 -0.251338 -1.55583 0
M  V30 8875 C 840.838 0.422729 -1.90977 0
M  V30 8876 C 841.218 1.75534 -1.17265 0
M  V30 8877 O 840.566 2.26632 -0.291588 0
M  V30 8878 C 840.776 0.586448 -3.44037 0
M  V30 8879 C 842.124 0.880294 -4.15375 0
M  V30 8880 O 843.148 0.672148 -3.49801 0
M  V30 8881 O 842.007 1.27694 -5.31372 0
M  V30 8882 H 839.101 0.227622 -0.795058 0
M  V30 8883 H 841.647 -0.295733 -1.67103 0
M  V30 8884 H 840.419 -0.352327 -3.89711 0
M  V30 8885 H 840.042 1.35528 -3.73789 0
M  V30 8886 N 841.039 1.57585 0.0217189 0
M  V30 8887 C 842.285 1.90733 0.706582 0
M  V30 8888 C 842.64 0.850732 1.7257 0
M  V30 8889 O 841.933 -0.139715 1.9109 0
M  V30 8890 C 842.127 3.28377 1.41079 0
M  V30 8891 C 841.956 4.47327 0.461395 0
M  V30 8892 C 840.726 5.05237 0.0797404 0
M  V30 8893 C 842.924 5.13626 -0.263302 0
M  V30 8894 N 840.906 6.07702 -0.870139 0
M  V30 8895 C 842.277 6.10722 -1.06859 0
M  V30 8896 C 844.332 4.96809 -0.329461 0
M  V30 8897 C 843.035 6.92813 -1.93397 0
M  V30 8898 C 845.061 5.79468 -1.18199 0
M  V30 8899 C 844.423 6.7614 -1.97519 0
M  V30 8900 H 840.522 0.74666 0.232427 0
M  V30 8901 H 843.106 1.94671 -0.0335228 0
M  V30 8902 H 841.277 3.25354 2.12131 0
M  V30 8903 H 843.009 3.49018 2.04862 0
M  V30 8904 H 839.764 4.71519 0.443498 0
M  V30 8905 H 840.188 6.6361 -1.33981 0
M  V30 8906 H 844.83 4.2194 0.269485 0
M  V30 8907 H 842.548 7.67022 -2.54369 0
M  V30 8908 H 846.134 5.68502 -1.23681 0
M  V30 8909 H 845.014 7.38989 -2.62421 0
M  V30 8910 N 842.517 -0.29412 1.54831 0
M  V30 8911 C 843.766 -1.02614 1.73647 0
M  V30 8912 C 844.079 -1.88193 0.533162 0
M  V30 8913 O 845.285 -2.64713 0.603275 0
M  V30 8914 C 843.741 -1.87417 3.07251 0
M  V30 8915 C 843.349 -1.06806 4.35082 0
M  V30 8916 C 845.093 -2.60176 3.35423 0
M  V30 8917 C 843 -1.90926 5.59733 0
M  V30 8918 H 841.93 -0.386834 0.647206 0
M  V30 8919 H 844.581 -0.282789 1.81308 0
M  V30 8920 H 842.963 -2.65765 2.93572 0
M  V30 8921 H 844.137 -0.330226 4.59615 0
M  V30 8922 H 842.452 -0.455979 4.13896 0
M  V30 8923 H 845.049 -3.23476 4.25755 0
M  V30 8924 H 845.392 -3.29365 2.54606 0
M  V30 8925 H 845.925 -1.88871 3.50103 0
M  V30 8926 H 842.664 -1.26194 6.43238 0
M  V30 8927 H 842.184 -2.62363 5.39375 0
M  V30 8928 H 843.863 -2.48807 5.97247 0
M  V30 8929 N 843.995 -1.47404 -0.557645 0
M  V30 8930 C 844.925 -1.62736 -1.67449 0
M  V30 8931 C 845.906 -0.476824 -1.6328 0
M  V30 8932 O 847.091 -0.706108 -1.80908 0
M  V30 8933 C 844.221 -1.641 -3.06086 0
M  V30 8934 C 843.175 -2.78377 -3.25101 0
M  V30 8935 C 842.501 -2.64812 -4.6452 0
M  V30 8936 C 843.801 -4.19971 -3.10518 0
M  V30 8937 H 845.495 -2.56232 -1.54873 0
M  V30 8938 H 843.041 -1.23312 -0.743649 0
M  V30 8939 H 844.994 -1.73417 -3.84063 0
M  V30 8940 H 843.718 -0.671652 -3.19619 0
M  V30 8941 H 842.377 -2.6857 -2.49531 0
M  V30 8942 H 842.025 -1.65906 -4.74852 0
M  V30 8943 H 841.725 -3.41477 -4.78191 0
M  V30 8944 H 843.249 -2.76057 -5.44633 0
M  V30 8945 H 844.663 -4.30757 -3.78313 0
M  V30 8946 H 843.06 -4.97419 -3.35699 0
M  V30 8947 H 844.13 -4.38369 -2.0727 0
M  V30 8948 N 845.473 0.80434 -1.35529 0
M  V30 8949 C 846.889 1.10023 -1.15616 0
M  V30 8950 C 847.089 2.01478 0.0298535 0
M  V30 8951 O 846.145 2.42609 0.699778 0
M  V30 8952 C 847.458 1.72905 -2.46017 0
M  V30 8953 C 849.006 1.85315 -2.52245 0
M  V30 8954 C 849.481 2.51612 -3.82695 0
M  V30 8955 N 850.972 2.59095 -3.83958 0
M  V30 8956 C 851.707 3.11167 -4.81625 0
M  V30 8957 N 851.203 3.63659 -5.89681 0
M  V30 8958 N 852.996 3.09741 -4.6906 0
M  V30 8959 H 845.147 0.196428 -2.1149 0
M  V30 8960 H 847.41 0.149735 -0.9361 0
M  V30 8961 H 847.116 1.13171 -3.32994 0
M  V30 8962 H 846.99 2.72579 -2.6073 0
M  V30 8963 H 849.377 2.44191 -1.65695 0
M  V30 8964 H 849.458 0.844886 -2.41444 0
M  V30 8965 H 849.102 1.93385 -4.69643 0
M  V30 8966 H 849.032 3.5298 -3.90785 0
M  V30 8967 H 851.523 2.21908 -3.05884 0
M  V30 8968 H 851.836 4.01699 -6.60195 0
M  V30 8969 H 850.181 3.61852 -5.9337 0
M  V30 8970 H 853.372 2.68011 -3.83781 0
M  V30 8971 H 853.545 3.50016 -5.45338 0
M  V30 8972 N 846.951 1.19563 1.02676 0
M  V30 8973 C 847.883 0.893054 2.11086 0
M  V30 8974 C 848.896 -0.115101 1.62393 0
M  V30 8975 O 850.085 0.11459 1.78132 0
M  V30 8976 C 847.185 0.315533 3.37428 0
M  V30 8977 C 846.358 1.37276 4.153 0
M  V30 8978 C 845.417 0.808398 5.19953 0
M  V30 8979 O 844.443 1.48661 5.49444 0
M  V30 8980 N 845.645 -0.387253 5.79207 0
M  V30 8981 H 848.41 1.82622 2.37633 0
M  V30 8982 H 845.971 1.09792 1.18984 0
M  V30 8983 H 847.963 -0.0759166 4.04629 0
M  V30 8984 H 846.533 -0.521961 3.08211 0
M  V30 8985 H 845.753 1.93897 3.43217 0
M  V30 8986 H 847.041 2.08509 4.64114 0
M  V30 8987 H 846.439 -0.955725 5.57568 0
M  V30 8988 H 844.996 -0.720457 6.47806 0
M  V30 8989 N 848.429 -1.21819 0.999893 0
M  V30 8990 C 849.845 -1.42847 0.711824 0
M  V30 8991 C 850.045 -1.88391 -0.714928 0
M  V30 8992 O 849.101 -2.0422 -1.48494 0
M  V30 8993 C 850.414 -2.46417 1.72334 0
M  V30 8994 C 851.962 -2.60207 1.73958 0
M  V30 8995 C 852.437 -3.67005 2.73992 0
M  V30 8996 N 853.928 -3.7447 2.72628 0
M  V30 8997 C 854.663 -4.56718 3.46693 0
M  V30 8998 N 854.159 -5.42904 4.3038 0
M  V30 8999 N 855.952 -4.51094 3.35366 0
M  V30 9000 H 848.103 -0.905656 1.92124 0
M  V30 9001 H 850.366 -0.459893 0.828977 0
M  V30 9002 H 850.072 -2.19914 2.74465 0
M  V30 9003 H 849.946 -3.45137 1.52186 0
M  V30 9004 H 852.333 -2.8605 0.725217 0
M  V30 9005 H 852.414 -1.61739 1.98177 0
M  V30 9006 H 852.058 -3.41908 3.75582 0
M  V30 9007 H 851.988 -4.65058 2.4704 0
M  V30 9008 H 854.479 -3.12895 2.11909 0
M  V30 9009 H 854.792 -6.02704 4.83702 0
M  V30 9010 H 853.137 -5.42463 4.34464 0
M  V30 9011 H 856.328 -3.82791 2.69423 0
M  V30 9012 H 856.501 -5.1496 3.93344 0
M  V30 9013 N 849.908 -0.773975 -1.37286 0
M  V30 9014 C 850.84 -0.119938 -2.28886 0
M  V30 9015 C 851.853 0.661822 -1.48741 0
M  V30 9016 O 853.042 0.499548 -1.71367 0
M  V30 9017 C 850.142 0.853703 -3.27971 0
M  V30 9018 C 849.315 0.125286 -4.37221 0
M  V30 9019 C 848.374 1.01261 -5.16365 0
M  V30 9020 O 847.4 0.475565 -5.6721 0
M  V30 9021 N 848.602 2.33864 -5.31308 0
M  V30 9022 H 851.367 -0.906702 -2.85655 0
M  V30 9023 H 848.928 -0.626519 -1.49286 0
M  V30 9024 H 850.92 1.4508 -3.77801 0
M  V30 9025 H 849.49 1.54142 -2.71954 0
M  V30 9026 H 848.71 -0.652742 -3.88758 0
M  V30 9027 H 849.998 -0.377959 -5.07394 0
M  V30 9028 H 849.396 2.79929 -4.91585 0
M  V30 9029 H 847.953 2.88575 -5.84438 0
M  V30 9030 N 851.386 1.48609 -0.524698 0
M  V30 9031 C 852.663 1.95454 0.075465 0
M  V30 9032 C 853.043 1.46682 1.51814 0
M  V30 9033 O 852.391 0.690975 2.17802 0
M  V30 9034 C 852.601 3.48981 -0.0363273 0
M  V30 9035 C 853.949 4.24414 0.125624 0
M  V30 9036 O 854.973 3.5618 0.0377239 0
M  V30 9037 O 853.832 5.45625 0.309104 0
M  V30 9038 H 850.926 0.822902 0.0822256 0
M  V30 9039 H 853.472 1.59153 -0.588921 0
M  V30 9040 H 852.244 3.77185 -1.04149 0
M  V30 9041 H 851.867 3.91963 0.667146 0
M  V30 9042 N 852.864 0.259585 1.55447 0
M  V30 9043 C 854.141 -0.412595 1.91199 0
M  V30 9044 C 854.521 -1.74909 1.18194 0
M  V30 9045 O 853.869 -2.26474 0.303603 0
M  V30 9046 C 854.079 -0.568195 3.44344 0
M  V30 9047 C 855.427 -0.858253 4.15836 0
M  V30 9048 O 856.451 -0.653588 3.50152 0
M  V30 9049 O 855.31 -1.24874 5.32042 0
M  V30 9050 H 852.404 -0.223403 0.796254 0
M  V30 9051 H 854.95 0.30459 1.66944 0
M  V30 9052 H 853.722 0.372989 3.89518 0
M  V30 9053 H 853.345 -1.33544 3.74502 0
M  V30 9054 N 854.342 -1.57594 -0.0133615 0
M  V30 9055 C 855.272 -2.10611 -1.00823 0
M  V30 9056 C 856.253 -1.01217 -1.36708 0
M  V30 9057 O 857.438 -1.28827 -1.45318 0
M  V30 9058 C 854.568 -2.59844 -2.30431 0
M  V30 9059 C 853.522 -3.73644 -2.08745 0
M  V30 9060 C 852.848 -4.09141 -3.4425 0
M  V30 9061 C 854.148 -5.01454 -1.46086 0
M  V30 9062 H 855.842 -2.93985 -0.566849 0
M  V30 9063 H 853.388 -1.41423 -0.271219 0
M  V30 9064 H 855.341 -2.95557 -3.00373 0
M  V30 9065 H 854.065 -1.73573 -2.76658 0
M  V30 9066 H 852.724 -3.38303 -1.41232 0
M  V30 9067 H 852.372 -3.19914 -3.88155 0
M  V30 9068 H 852.072 -4.85802 -3.3056 0
M  V30 9069 H 853.596 -4.47402 -4.15528 0
M  V30 9070 H 855.01 -5.35024 -2.05966 0
M  V30 9071 H 853.407 -5.82832 -1.42924 0
M  V30 9072 H 854.477 -4.83003 -0.428471 0
M  V30 9073 N 855.82 0.285905 -1.54985 0
M  V30 9074 C 857.097 1.0397 -1.65679 0
M  V30 9075 C 857.477 2.04725 -0.514851 0
M  V30 9076 O 856.825 2.23257 0.486663 0
M  V30 9077 C 857.035 1.70807 -3.04345 0
M  V30 9078 C 858.383 2.22447 -3.61666 0
M  V30 9079 O 859.407 1.80815 -3.06895 0
M  V30 9080 O 858.266 2.98773 -4.57599 0
M  V30 9081 H 855.36 0.481473 -0.672394 0
M  V30 9082 H 857.906 0.282789 -1.67327 0
M  V30 9083 H 856.678 0.977271 -3.789 0
M  V30 9084 H 856.301 2.53217 -3.06541 0
M  V30 9085 N 857.298 1.47698 0.54982 0
M  V30 9086 C 858.526 1.5833 1.33188 0
M  V30 9087 C 858.941 0.236193 1.87317 0
M  V30 9088 O 858.298 -0.77167 1.65383 0
M  V30 9089 C 858.349 2.61438 2.49664 0
M  V30 9090 O 858.07 3.9092 1.97771 0
M  V30 9091 C 859.571 2.82324 3.41772 0
M  V30 9092 H 856.791 0.53443 0.405741 0
M  V30 9093 H 859.335 1.93375 0.665309 0
M  V30 9094 H 857.49 2.29307 3.12245 0
M  V30 9095 H 857.904 4.47323 2.73866 0
M  V30 9096 H 859.378 3.58316 4.19897 0
M  V30 9097 H 859.855 1.90416 3.95776 0
M  V30 9098 H 860.461 3.15682 2.85 0
M  V30 9099 N 858.776 -0.797141 1.35954 0
M  V30 9100 C 859.706 -1.92387 1.32323 0
M  V30 9101 C 860.687 -1.68967 0.196007 0
M  V30 9102 O 861.872 -1.90193 0.39245 0
M  V30 9103 C 859.002 -3.29286 1.10398 0
M  V30 9104 C 857.956 -3.67212 2.19862 0
M  V30 9105 C 857.282 -5.02377 1.8309 0
M  V30 9106 C 858.582 -3.76602 3.61896 0
M  V30 9107 H 860.276 -1.95683 2.26602 0
M  V30 9108 H 857.822 -0.94007 1.09081 0
M  V30 9109 H 859.775 -4.07721 1.06495 0
M  V30 9110 H 858.499 -3.26358 0.125668 0
M  V30 9111 H 857.158 -2.91069 2.22878 0
M  V30 9112 H 856.806 -4.95961 0.838527 0
M  V30 9113 H 856.506 -5.28722 2.56372 0
M  V30 9114 H 858.03 -5.8324 1.80729 0
M  V30 9115 H 859.444 -4.45246 3.6115 0
M  V30 9116 H 857.841 -4.14425 4.34018 0
M  V30 9117 H 858.911 -2.77906 3.97361 0
M  V30 9118 N 860.254 -1.20106 -1.0204 0
M  V30 9119 C 861.502 -1.0069 -1.75231 0
M  V30 9120 C 861.823 0.462491 -1.89436 0
M  V30 9121 O 861.093 1.33455 -1.4341 0
M  V30 9122 H 859.673 -0.369576 -0.649171 0
M  V30 9123 H 862.335 -1.51149 -1.23044 0
M  V30 9124 H 861.431 -1.46205 -2.75736 0
M  V30 9125 N 861.732 1.21287 -1.00634 0
M  V30 9126 C 862.662 2.25973 -0.588089 0
M  V30 9127 C 863.643 1.65527 0.391764 0
M  V30 9128 O 864.828 1.92179 0.279452 0
M  V30 9129 C 861.958 3.47197 0.0847336 0
M  V30 9130 C 860.912 4.20168 -0.815039 0
M  V30 9131 C 860.238 5.34699 -0.00855393 0
M  V30 9132 C 861.538 4.77416 -2.11828 0
M  V30 9133 H 863.232 2.61212 -1.46317 0
M  V30 9134 H 860.778 1.25563 -0.704985 0
M  V30 9135 H 862.731 4.19602 0.388821 0
M  V30 9136 H 861.455 3.11092 0.994456 0
M  V30 9137 H 860.114 3.49614 -1.10297 0
M  V30 9138 H 859.762 4.94837 0.902499 0
M  V30 9139 H 859.462 5.84449 -0.607664 0
M  V30 9140 H 860.986 6.09914 0.289317 0
M  V30 9141 H 862.4 5.41694 -1.87725 0
M  V30 9142 H 860.797 5.37561 -2.66736 0
M  V30 9143 H 861.867 3.96724 -2.78816 0
M  V30 9144 N 863.21 0.781244 1.36873 0
M  V30 9145 C 864.458 0.349198 1.9906 0
M  V30 9146 C 864.779 -1.0806 1.62321 0
M  V30 9147 O 864.049 -1.74351 0.893229 0
M  V30 9148 H 862.629 0.126126 0.736275 0
M  V30 9149 H 865.291 1.00148 1.67202 0
M  V30 9150 H 864.387 0.434451 3.09061 0
M  V30 9151 N 864.689 -1.48329 0.532571 0
M  V30 9152 C 865.619 -2.32485 -0.217511 0
M  V30 9153 C 866.6 -1.42255 -0.932598 0
M  V30 9154 O 867.785 -1.7114 -0.917873 0
M  V30 9155 C 864.915 -3.23509 -1.26329 0
M  V30 9156 C 863.869 -4.22784 -0.666191 0
M  V30 9157 C 863.195 -5.0296 -1.81482 0
M  V30 9158 C 864.495 -5.21031 0.363813 0
M  V30 9159 H 866.189 -2.95445 0.485014 0
M  V30 9160 H 863.735 -1.42075 0.234694 0
M  V30 9161 H 865.688 -3.81211 -1.79601 0
M  V30 9162 H 864.412 -2.58554 -1.99543 0
M  V30 9163 H 863.071 -3.66272 -0.15498 0
M  V30 9164 H 862.719 -4.34427 -2.5354 0
M  V30 9165 H 862.419 -5.70154 -1.4212 0
M  V30 9166 H 863.943 -5.63514 -2.35126 0
M  V30 9167 H 865.357 -5.73241 -0.0819079 0
M  V30 9168 H 863.754 -5.96292 0.674956 0
M  V30 9169 H 864.824 -4.6801 1.26865 0
M  V30 9170 N 866.167 -0.267825 -1.55308 0
M  V30 9171 C 867.099 0.65591 -2.19614 0
M  V30 9172 C 868.112 1.12302 -1.17865 0
M  V30 9173 O 869.301 1.04618 -1.44628 0
M  V30 9174 C 866.401 1.90582 -2.80235 0
M  V30 9175 C 865.574 1.58673 -4.07605 0
M  V30 9176 C 864.633 2.68836 -4.52343 0
M  V30 9177 O 863.659 2.35331 -5.18274 0
M  V30 9178 N 864.861 3.98752 -4.21873 0
M  V30 9179 H 867.626 0.105566 -2.99514 0
M  V30 9180 H 865.187 -0.0886263 -1.61657 0
M  V30 9181 H 867.179 2.63561 -3.07112 0
M  V30 9182 H 865.749 2.3654 -2.04371 0
M  V30 9183 H 864.969 0.691113 -3.88094 0
M  V30 9184 H 866.257 1.34845 -4.90606 0
M  V30 9185 H 865.655 4.28797 -3.68985 0
M  V30 9186 H 864.212 4.68131 -4.53537 0
M  V30 9187 N 867.645 1.57599 0.00500368 0
M  V30 9188 C 868.893 1.89973 0.68953 0
M  V30 9189 C 869.214 0.868531 1.7459 0
M  V30 9190 O 868.484 -0.0947367 1.95671 0
M  V30 9191 H 867.064 0.701153 0.25767 0
M  V30 9192 H 869.726 1.94869 -0.0347392 0
M  V30 9193 H 868.822 2.89584 1.16394 0
M  V30 9194 N 869.123 -0.277682 1.55134 0
M  V30 9195 C 870.371 -1.00791 1.75173 0
M  V30 9196 C 870.692 -1.86987 0.553266 0
M  V30 9197 O 869.962 -1.91079 -0.43195 0
M  V30 9198 H 868.542 -0.375129 0.645978 0
M  V30 9199 H 871.204 -0.303041 1.9253 0
M  V30 9200 H 870.3 -1.64756 2.6507 0
M  V30 9201 N 870.601 -1.47988 -0.541979 0
M  V30 9202 C 871.85 -1.5465 -1.29485 0
M  V30 9203 C 872.163 -0.220041 -1.94358 0
M  V30 9204 O 873.369 -0.164792 -2.70999 0
M  V30 9205 C 871.825 -2.72685 -2.34885 0
M  V30 9206 C 871.433 -4.11923 -1.76134 0
M  V30 9207 C 873.177 -2.88651 -3.11257 0
M  V30 9208 C 871.084 -5.21237 -2.79404 0
M  V30 9209 H 870.014 -0.575688 -0.486928 0
M  V30 9210 H 872.665 -1.74296 -0.573853 0
M  V30 9211 H 871.047 -2.46448 -3.09966 0
M  V30 9212 H 872.221 -4.48128 -1.07322 0
M  V30 9213 H 870.536 -4.00972 -1.12295 0
M  V30 9214 H 873.133 -3.67487 -3.88404 0
M  V30 9215 H 873.476 -1.97658 -3.66384 0
M  V30 9216 H 874.009 -3.14731 -2.43288 0
M  V30 9217 H 870.748 -6.14156 -2.29113 0
M  V30 9218 H 870.268 -4.89533 -3.4658 0
M  V30 9219 H 871.947 -5.48839 -3.42615 0
M  V30 9220 N 872.079 0.78992 -1.36375 0
M  V30 9221 C 873.49 1.36506 -1.2737 0
M  V30 9222 C 873.841 1.96008 0.086711 0
M  V30 9223 O 872.966 1.92521 0.988159 0
M  V30 9224 C 873.561 2.48175 -2.30639 0
M  V30 9225 C 872.12 3.01506 -2.25325 0
M  V30 9226 C 871.267 1.74581 -2.15445 0
M  V30 9227 H 874.218 0.591606 -1.47261 0
M  V30 9228 H 874.239 3.27179 -1.94253 0
M  V30 9229 H 873.751 2.04838 -3.2964 0
M  V30 9230 H 871.852 3.49265 -1.29788 0
M  V30 9231 H 871.965 3.58355 -3.17992 0
M  V30 9232 H 870.329 1.96794 -1.61692 0
M  V30 9233 H 871.112 1.33373 -3.16333 0
M  V30 9234 N 873.557 1.20646 1.01402 0
M  V30 9235 C 874.505 0.954493 2.12114 0
M  V30 9236 C 875.499 -0.0950737 1.69133 0
M  V30 9237 O 876.705 0.0555153 1.79914 0
M  V30 9238 H 873.08 0.29135 0.693267 0
M  V30 9239 H 875.051 1.89447 2.30548 0
M  V30 9240 C 873.8 0.525944 3.43699 0
M  V30 9241 H 873.123 1.32516 3.772 0
M  V30 9242 H 874.563 0.388883 4.22213 0
M  V30 9243 C 873.022 -0.761997 3.28169 0
M  V30 9244 O 873.552 -1.81979 3.58115 0
M  V30 9245 N 871.758 -0.725017 2.8141 0
M  V30 9246 H 871.305 0.13607 2.5724 0
M  V30 9247 H 871.263 -1.5871 2.71401 0
M  V30 9248 N 875.035 -1.20752 1.01276 0
M  V30 9249 C 876.283 -1.89645 0.698505 0
M  V30 9250 C 876.604 -1.78986 -0.773883 0
M  V30 9251 O 875.874 -1.18977 -1.55632 0
M  V30 9252 H 874.454 -0.701992 0.255375 0
M  V30 9253 H 877.116 -1.46668 1.28353 0
M  V30 9254 H 876.212 -2.96364 0.978512 0
M  V30 9255 N 876.513 -0.788492 -1.36457 0
M  V30 9256 C 877.743 -0.371825 -2.03227 0
M  V30 9257 C 878.151 1.01627 -1.59589 0
M  V30 9258 O 877.494 1.663 -0.780382 0
M  V30 9259 C 877.556 -0.355179 -3.57741 0
M  V30 9260 C 877.22 -1.69069 -4.24576 0
M  V30 9261 C 878.217 -2.64601 -4.47529 0
M  V30 9262 C 875.902 -1.96973 -4.62068 0
M  V30 9263 C 877.896 -3.86232 -5.07054 0
M  V30 9264 C 875.583 -3.18872 -5.2131 0
M  V30 9265 C 876.581 -4.1332 -5.43742 0
M  V30 9266 O 876.269 -5.3307 -6.0174 0
M  V30 9267 H 876.001 -0.151452 -0.658816 0
M  V30 9268 H 878.555 -1.06827 -1.75434 0
M  V30 9269 H 876.785 0.397753 -3.84649 0
M  V30 9270 H 878.474 0.0366955 -4.05883 0
M  V30 9271 H 879.24 -2.44329 -4.18961 0
M  V30 9272 H 875.119 -1.24277 -4.43933 0
M  V30 9273 H 878.663 -4.59965 -5.24478 0
M  V30 9274 H 874.56 -3.39022 -5.49304 0
M  V30 9275 H 875.328 -5.34121 -6.20207 0
M  V30 9276 N 877.991 1.48044 -0.54043 0
M  V30 9277 C 878.921 2.32597 0.205178 0
M  V30 9278 C 879.902 1.42748 0.925041 0
M  V30 9279 O 881.087 1.71624 0.908784 0
M  V30 9280 C 878.217 3.24175 1.24612 0
M  V30 9281 C 877.171 4.23131 0.64376 0
M  V30 9282 C 876.497 5.03915 1.78812 0
M  V30 9283 C 877.797 5.20831 -0.39144 0
M  V30 9284 H 879.491 2.95184 -0.500676 0
M  V30 9285 H 877.037 1.41948 -0.242225 0
M  V30 9286 H 878.99 3.82158 1.77576 0
M  V30 9287 H 877.714 2.59608 1.98169 0
M  V30 9288 H 876.373 3.66349 0.135554 0
M  V30 9289 H 876.021 4.35765 2.51232 0
M  V30 9290 H 875.721 5.709 1.39094 0
M  V30 9291 H 877.245 5.64753 2.32134 0
M  V30 9292 H 878.659 5.73277 0.0515064 0
M  V30 9293 H 877.056 5.95926 -0.706569 0
M  V30 9294 H 878.126 4.6733 -1.29345 0
M  V30 9295 N 879.47 0.276058 1.55163 0
M  V30 9296 C 880.716 -0.340959 1.99913 0
M  V30 9297 C 881.049 -1.55434 1.16422 0
M  V30 9298 O 880.324 -1.93081 0.234517 0
M  V30 9299 C 880.607 -0.722211 3.52783 0
M  V30 9300 C 880.46 0.498575 4.47028 0
M  V30 9301 C 881.779 -1.5583 4.11589 0
M  V30 9302 H 878.898 -0.122455 0.726756 0
M  V30 9303 H 881.54 0.38319 1.86096 0
M  V30 9304 H 879.69 -1.33919 3.64689 0
M  V30 9305 H 881.362 1.13713 4.47065 0
M  V30 9306 H 879.605 1.13646 4.18649 0
M  V30 9307 H 880.276 0.188041 5.5168 0
M  V30 9308 H 882.752 -1.03722 4.02965 0
M  V30 9309 H 881.628 -1.79387 5.1876 0
M  V30 9310 H 881.889 -2.53963 3.61877 0
M  V30 9311 N 880.948 -1.576 0.00335426 0
M  V30 9312 C 881.878 -2.11668 -0.985839 0
M  V30 9313 C 882.859 -1.02661 -1.35627 0
M  V30 9314 O 884.044 -1.30361 -1.43943 0
M  V30 9315 C 881.174 -2.62273 -2.27662 0
M  V30 9316 C 880.128 -3.75837 -2.0477 0
M  V30 9317 C 879.454 -4.12769 -3.39891 0
M  V30 9318 C 880.754 -5.02975 -1.40759 0
M  V30 9319 H 882.448 -2.9457 -0.535637 0
M  V30 9320 H 879.994 -1.41702 -0.256204 0
M  V30 9321 H 881.947 -2.98727 -2.97221 0
M  V30 9322 H 880.671 -1.76498 -2.74802 0
M  V30 9323 H 879.33 -3.39782 -1.37636 0
M  V30 9324 H 878.978 -3.24013 -3.8474 0
M  V30 9325 H 878.678 -4.89281 -3.25389 0
M  V30 9326 H 880.202 -4.51784 -4.1076 0
M  V30 9327 H 881.616 -5.37179 -2.00279 0
M  V30 9328 H 880.013 -5.84315 -1.36734 0
M  V30 9329 H 881.083 -4.83431 -0.377218 0
M  V30 9330 N 882.426 0.269451 -1.5528 0
M  V30 9331 C 883.703 1.02207 -1.66773 0
M  V30 9332 C 884.083 2.04168 -0.536536 0
M  V30 9333 O 883.431 2.23761 0.462956 0
M  V30 9334 C 883.641 1.67569 -3.0614 0
M  V30 9335 C 884.989 2.18599 -3.64005 0
M  V30 9336 O 886.013 1.7755 -3.08795 0
M  V30 9337 O 884.872 2.93903 -4.60742 0
M  V30 9338 H 881.966 0.474314 -0.677462 0
M  V30 9339 H 884.512 0.265026 -1.67618 0
M  V30 9340 H 883.284 0.937029 -3.79915 0
M  V30 9341 H 882.907 2.49951 -3.09209 0
M  V30 9342 N 883.904 1.48273 0.534124 0
M  V30 9343 C 884.834 1.6538 1.64839 0
M  V30 9344 C 885.815 0.502741 1.62501 0
M  V30 9345 O 887 0.734799 1.79762 0
M  V30 9346 C 884.13 1.68949 3.03436 0
M  V30 9347 C 883.084 2.83513 3.20631 0
M  V30 9348 C 882.41 2.72169 4.60248 0
M  V30 9349 C 883.71 4.24858 3.03797 0
M  V30 9350 H 885.404 2.58663 1.50777 0
M  V30 9351 H 882.95 1.24479 0.723937 0
M  V30 9352 H 884.903 1.79505 3.81256 0
M  V30 9353 H 883.627 0.722415 3.1851 0
M  V30 9354 H 882.286 2.72505 2.45227 0
M  V30 9355 H 881.934 1.7344 4.72152 0
M  V30 9356 H 881.634 3.49042 4.72698 0
M  V30 9357 H 883.158 2.84687 5.40172 0
M  V30 9358 H 884.572 4.36721 3.71413 0
M  V30 9359 H 882.969 5.02697 3.27743 0
M  V30 9360 H 884.039 4.41611 2.0027 0
M  V30 9361 N 885.382 -0.782676 1.36792 0
M  V30 9362 C 886.607 -1.57676 1.34733 0
M  V30 9363 C 887.032 -1.87979 -0.0675253 0
M  V30 9364 O 886.39 -1.48404 -1.04144 0
M  V30 9365 C 886.438 -2.87047 2.18257 0
M  V30 9366 O 885.542 -3.80946 1.57969 0
M  V30 9367 H 884.883 -0.478034 0.460846 0
M  V30 9368 H 887.413 -0.969578 1.80168 0
M  V30 9369 H 887.423 -3.36254 2.31079 0
M  V30 9370 H 886.098 -2.64319 3.21104 0
M  V30 9371 H 884.675 -3.39558 1.54126 0
M  V30 9372 N 886.86 -1.21182 -1.00761 0
M  V30 9373 C 887.793 -0.912033 -2.09182 0
M  V30 9374 C 888.771 0.139421 -1.62001 0
M  V30 9375 O 889.955 0.0110272 -1.88497 0
M  V30 9376 C 887.082 -0.368957 -3.36684 0
M  V30 9377 C 886.128 -1.4028 -4.0277 0
M  V30 9378 S 886.961 -2.97108 -4.45519 0
M  V30 9379 C 888.117 -2.444 -5.76211 0
M  V30 9380 H 888.35 -1.83019 -2.34289 0
M  V30 9381 H 885.883 -1.04127 -1.14004 0
M  V30 9382 H 887.841 -0.0621883 -4.10453 0
M  V30 9383 H 886.502 0.527841 -3.09633 0
M  V30 9384 H 885.695 -0.97238 -4.94531 0
M  V30 9385 H 885.297 -1.65752 -3.35265 0
M  V30 9386 H 887.589 -1.84723 -6.51831 0
M  V30 9387 H 888.532 -3.34593 -6.24062 0
M  V30 9388 H 888.94 -1.86203 -5.32906 0
M  V30 9389 N 888.338 1.20213 -1.01915 0
M  V30 9390 C 889.27 2.2251 -0.549725 0
M  V30 9391 C 890.283 1.58558 0.369235 0
M  V30 9392 O 891.472 1.77715 0.167176 0
M  V30 9393 C 888.572 3.38189 0.219432 0
M  V30 9394 C 887.745 4.31729 -0.702066 0
M  V30 9395 C 886.804 5.26196 0.0199624 0
M  V30 9396 O 885.83 5.65993 -0.60339 0
M  V30 9397 N 887.032 5.65895 1.29397 0
M  V30 9398 H 889.797 2.63412 -1.42948 0
M  V30 9399 H 887.358 1.3478 -0.896987 0
M  V30 9400 H 889.35 3.98392 0.711763 0
M  V30 9401 H 887.92 2.96156 1.00051 0
M  V30 9402 H 887.14 3.69455 -1.37466 0
M  V30 9403 H 888.428 4.91145 -1.3287 0
M  V30 9404 H 887.826 5.35579 1.8213 0
M  V30 9405 H 886.383 6.28395 1.73098 0
M  V30 9406 N 889.816 0.795718 1.36037 0
M  V30 9407 C 890.726 0.199784 2.33748 0
M  V30 9408 C 891.742 -0.651436 1.61345 0
M  V30 9409 O 892.918 -0.565743 1.93291 0
M  V30 9410 C 889.983 -0.650475 3.40543 0
M  V30 9411 C 889.044 0.219974 4.28736 0
M  V30 9412 C 888.277 -0.589798 5.30431 0
M  V30 9413 O 888.5 -1.82532 5.40406 0
M  V30 9414 O 887.434 0.0136187 6.01898 0
M  V30 9415 H 891.26 1.00782 2.8649 0
M  V30 9416 H 888.845 0.557293 1.38617 0
M  V30 9417 H 890.727 -1.13512 4.05824 0
M  V30 9418 H 889.402 -1.4363 2.9009 0
M  V30 9419 H 888.309 0.751516 3.66474 0
M  V30 9420 H 889.642 0.969468 4.82558 0
M  V30 9421 N 891.294 -1.47756 0.548274 0
M  V30 9422 C 892.257 -2.28379 -0.193857 0
M  V30 9423 C 893.257 -1.36436 -0.850986 0
M  V30 9424 O 894.447 -1.59154 -0.70822 0
M  V30 9425 C 891.579 -3.15858 -1.28243 0
M  V30 9426 H 892.772 -2.95458 0.514231 0
M  V30 9427 H 890.325 -1.53298 0.304879 0
M  V30 9428 H 891.06 -2.5345 -2.0232 0
M  V30 9429 H 890.845 -3.83512 -0.816148 0
M  V30 9430 H 892.335 -3.76627 -1.80393 0
M  V30 9431 N 892.772 -0.284283 -1.55015 0
M  V30 9432 C 893.702 0.592663 -2.25853 0
M  V30 9433 C 894.683 1.15151 -1.25197 0
M  V30 9434 O 895.868 1.18395 -1.53936 0
M  V30 9435 C 892.998 1.77254 -2.98661 0
M  V30 9436 C 891.952 1.34482 -4.06323 0
M  V30 9437 C 891.278 2.60853 -4.66754 0
M  V30 9438 C 892.578 0.488288 -5.20013 0
M  V30 9439 H 894.272 0.00187041 -2.994 0
M  V30 9440 H 891.818 -0.000540402 -1.44 0
M  V30 9441 H 893.771 2.39199 -3.46932 0
M  V30 9442 H 892.495 2.38931 -2.22664 0
M  V30 9443 H 891.154 0.748519 -3.58877 0
M  V30 9444 H 890.802 3.20808 -3.87416 0
M  V30 9445 H 890.502 2.32942 -5.39455 0
M  V30 9446 H 892.026 3.23631 -5.1778 0
M  V30 9447 H 893.44 1.01298 -5.6428 0
M  V30 9448 H 891.837 0.303669 -5.99331 0
M  V30 9449 H 892.907 -0.490727 -4.8241 0
M  V30 9450 N 894.251 1.57596 -0.0117121 0
M  V30 9451 C 895.476 1.95764 0.684938 0
M  V30 9452 C 895.901 0.887285 1.65858 0
M  V30 9453 O 895.259 -0.153508 1.80649 0
M  V30 9454 C 895.307 3.33031 1.38285 0
M  V30 9455 O 894.411 3.28163 2.49765 0
M  V30 9456 H 893.752 0.638767 0.181309 0
M  V30 9457 H 896.282 2.04486 -0.0683883 0
M  V30 9458 H 896.292 3.68866 1.74362 0
M  V30 9459 H 894.967 4.10483 0.669043 0
M  V30 9460 H 893.544 3.04021 2.15929 0
M  V30 9461 N 895.729 -0.261212 1.5542 0
M  V30 9462 C 896.977 -0.989272 1.76232 0
M  V30 9463 C 897.298 -1.86389 0.573067 0
M  V30 9464 O 896.568 -1.91526 -0.41166 0
M  V30 9465 H 895.148 -0.368256 0.64992 0
M  V30 9466 H 897.81 -0.282603 1.9284 0
M  V30 9467 H 896.906 -1.61935 2.66802 0
M  V30 9468 N 897.207 -1.48554 -0.526253 0
M  V30 9469 C 898.435 -1.60429 -1.30652 0
M  V30 9470 C 898.85 -0.265963 -1.86917 0
M  V30 9471 O 898.207 0.745262 -1.6659 0
M  V30 9472 C 898.258 -2.65377 -2.45473 0
M  V30 9473 O 897.979 -3.94017 -1.91527 0
M  V30 9474 C 899.48 -2.87726 -3.37237 0
M  V30 9475 H 896.7 -0.540817 -0.397187 0
M  V30 9476 H 899.244 -1.94409 -0.634461 0
M  V30 9477 H 897.399 -2.34246 -3.08557 0
M  V30 9478 H 897.813 -4.51623 -2.66715 0
M  V30 9479 H 899.287 -3.64951 -4.14144 0
M  V30 9480 H 899.764 -1.96688 -3.92696 0
M  V30 9481 H 900.37 -3.20176 -2.79942 0
M  V30 9482 N 898.685 0.775411 -1.37205 0
M  V30 9483 C 900.096 1.35147 -1.28811 0
M  V30 9484 C 900.447 1.96089 0.0659168 0
M  V30 9485 O 899.572 1.93558 0.967684 0
M  V30 9486 C 900.167 2.45715 -2.33258 0
M  V30 9487 C 898.726 2.99099 -2.2851 0
M  V30 9488 C 897.873 1.72286 -2.17285 0
M  V30 9489 H 900.824 0.575954 -1.4788 0
M  V30 9490 H 900.845 3.251 -1.97712 0
M  V30 9491 H 900.357 2.01331 -3.31795 0
M  V30 9492 H 898.458 3.47868 -1.33485 0
M  V30 9493 H 898.571 3.54962 -3.21774 0
M  V30 9494 H 896.935 1.95068 -1.6377 0
M  V30 9495 H 897.718 1.3001 -3.1773 0
M  V30 9496 N 900.163 1.21714 1.00117 0
M  V30 9497 C 901.403 1.04818 1.75478 0
M  V30 9498 C 901.767 -0.410653 1.87557 0
M  V30 9499 O 902.968 -0.700241 2.59519 0
M  V30 9500 C 901.239 1.73055 3.12709 0
M  V30 9501 S 902.798 1.71464 4.03913 0
M  V30 9502 H 899.616 0.375534 0.603734 0
M  V30 9503 H 902.218 1.54522 1.19763 0
M  V30 9504 H 900.922 2.78376 3.01554 0
M  V30 9505 H 900.453 1.23546 3.73497 0
M  V30 9506 H 902.468 0.75845 4.90369 0
M  V30 9507 N 901.641 -1.19671 1.02551 0
M  V30 9508 C 902.571 -2.25009 0.623965 0
M  V30 9509 C 903.552 -1.66129 -0.36538 0
M  V30 9510 O 904.737 -1.92599 -0.248842 0
M  V30 9511 C 901.867 -3.47287 -0.0294869 0
M  V30 9512 C 900.821 -4.18818 0.881781 0
M  V30 9513 C 900.147 -5.34618 0.0936189 0
M  V30 9514 C 901.447 -4.73986 2.19396 0
M  V30 9515 H 903.141 -2.58851 1.50454 0
M  V30 9516 H 900.687 -1.24425 0.724872 0
M  V30 9517 H 902.64 -4.20168 -0.322016 0
M  V30 9518 H 901.364 -3.12635 -0.944838 0
M  V30 9519 H 900.023 -3.47815 1.15845 0
M  V30 9520 H 899.671 -4.9621 -0.823661 0
M  V30 9521 H 899.371 -5.83409 0.700568 0
M  V30 9522 H 900.895 -6.10297 -0.192249 0
M  V30 9523 H 902.309 -5.38639 1.96319 0
M  V30 9524 H 900.706 -5.3325 2.75254 0
M  V30 9525 H 901.776 -3.92238 2.85092 0
M  V30 9526 N 903.119 -0.802921 -1.35613 0
M  V30 9527 C 904.049 -0.225131 -2.32412 0
M  V30 9528 C 905.03 0.647383 -1.57299 0
M  V30 9529 O 906.215 0.578414 -1.85386 0
M  V30 9530 C 903.345 0.630085 -3.41537 0
M  V30 9531 C 902.299 -0.143635 -4.27759 0
M  V30 9532 C 901.625 0.833046 -5.28171 0
M  V30 9533 C 902.925 -1.34054 -5.04804 0
M  V30 9534 H 904.619 -1.03385 -2.80984 0
M  V30 9535 H 902.165 -0.498593 -1.35093 0
M  V30 9536 H 904.118 1.04433 -4.08254 0
M  V30 9537 H 902.842 1.47165 -2.91565 0
M  V30 9538 H 901.501 -0.539015 -3.62616 0
M  V30 9539 H 901.149 1.67001 -4.74468 0
M  V30 9540 H 900.849 0.319697 -5.8673 0
M  V30 9541 H 902.373 1.24558 -5.97761 0
M  V30 9542 H 903.787 -1.00136 -5.64487 0
M  V30 9543 H 902.184 -1.78812 -5.72841 0
M  V30 9544 H 903.254 -2.12906 -4.35659 0
M  V30 9545 N 904.597 1.47463 -0.556102 0
M  V30 9546 C 905.845 2.02075 -0.0315712 0
M  V30 9547 C 906.166 1.43292 1.32259 0
M  V30 9548 O 905.436 0.60771 1.86236 0
M  V30 9549 H 904.016 0.74695 -0.0086816 0
M  V30 9550 H 906.678 1.80879 -0.725859 0
M  V30 9551 H 905.774 3.12047 0.0573538 0
M  V30 9552 N 906.075 0.2925 1.54862 0
M  V30 9553 C 907.486 -0.201841 1.85606 0
M  V30 9554 C 907.837 -1.54093 1.21449 0
M  V30 9555 O 906.962 -2.10327 0.509079 0
M  V30 9556 C 907.557 -0.373011 3.3674 0
M  V30 9557 C 906.116 -0.811574 3.67547 0
M  V30 9558 C 905.263 0.0850583 2.7717 0
M  V30 9559 H 908.214 0.513774 1.50153 0
M  V30 9560 H 908.235 -1.20892 3.60785 0
M  V30 9561 H 907.747 0.601751 3.83407 0
M  V30 9562 H 905.848 -1.79719 3.26392 0
M  V30 9563 H 905.961 -0.636853 4.74848 0
M  V30 9564 H 904.325 -0.434224 2.50971 0
M  V30 9565 H 905.108 1.05602 3.26654 0
M  V30 9566 N 907.553 -1.57587 0.0200696 0
M  V30 9567 C 908.801 -1.91046 -0.65922 0
M  V30 9568 C 909.122 -0.896197 -1.73186 0
M  V30 9569 O 908.392 0.0635952 -1.95797 0
M  V30 9570 H 906.972 -0.705163 -0.246483 0
M  V30 9571 H 909.634 -1.94789 0.0657368 0
M  V30 9572 H 908.73 -2.91399 -1.11773 0
M  V30 9573 N 909.032 0.252966 -1.55557 0
M  V30 9574 C 910.443 0.822503 -1.67606 0
M  V30 9575 C 910.794 1.86265 -0.616411 0
M  V30 9576 O 909.919 2.15082 0.238447 0
M  V30 9577 C 910.514 1.49866 -3.03852 0
M  V30 9578 C 909.073 2.01597 -3.17861 0
M  V30 9579 C 908.22 0.864943 -2.63465 0
M  V30 9580 H 911.171 0.0288958 -1.58674 0
M  V30 9581 H 911.192 2.36646 -2.97958 0
M  V30 9582 H 910.704 0.741378 -3.80953 0
M  V30 9583 H 908.805 2.80224 -2.45571 0
M  V30 9584 H 908.918 2.21752 -4.24692 0
M  V30 9585 H 907.282 1.2638 -2.21134 0
M  V30 9586 H 908.065 0.120847 -3.43087 0
M  V30 9587 N 910.51 1.48831 0.518367 0
M  V30 9588 C 911.756 1.57672 1.27543 0
M  V30 9589 C 912.089 0.254915 1.9252 0
M  V30 9590 O 911.364 -0.740107 1.79868 0
M  V30 9591 C 911.647 2.72345 2.35585 0
M  V30 9592 C 911.5 4.14267 1.75224 0
M  V30 9593 C 912.819 2.82726 3.37274 0
M  V30 9594 H 909.938 0.573926 0.462361 0
M  V30 9595 H 912.58 1.8105 0.576267 0
M  V30 9596 H 910.73 2.52543 2.95219 0
M  V30 9597 H 912.402 4.45539 1.19551 0
M  V30 9598 H 910.645 4.20724 1.05706 0
M  V30 9599 H 911.316 4.90345 2.53507 0
M  V30 9600 H 913.792 3.00699 2.8761 0
M  V30 9601 H 912.668 3.6467 4.10252 0
M  V30 9602 H 912.929 1.9136 3.9854 0
M  V30 9603 N 911.988 -0.768124 1.37614 0
M  V30 9604 C 912.918 -1.89537 1.36374 0
M  V30 9605 C 913.899 -1.68513 0.231803 0
M  V30 9606 O 915.084 -1.89318 0.432705 0
M  V30 9607 C 912.214 -3.26871 1.17358 0
M  V30 9608 C 911.168 -3.62466 2.27602 0
M  V30 9609 C 910.494 -4.9838 1.93705 0
M  V30 9610 C 911.794 -3.68841 3.69802 0
M  V30 9611 H 913.488 -1.90832 2.30702 0
M  V30 9612 H 911.034 -0.91672 1.11051 0
M  V30 9613 H 912.987 -4.05371 1.15119 0
M  V30 9614 H 911.711 -3.26018 0.194865 0
M  V30 9615 H 910.37 -2.86276 2.29002 0
M  V30 9616 H 910.018 -4.94071 0.943539 0
M  V30 9617 H 909.718 -5.23165 2.6753 0
M  V30 9618 H 911.242 -5.79276 1.93059 0
M  V30 9619 H 912.656 -4.37485 3.70513 0
M  V30 9620 H 911.053 -4.05126 4.42711 0
M  V30 9621 H 912.123 -2.69415 4.03167 0
M  V30 9622 N 913.466 -1.22244 -0.994698 0
M  V30 9623 C 914.694 -1.07218 -1.76952 0
M  V30 9624 C 915.109 0.377388 -1.8499 0
M  V30 9625 O 914.466 1.26157 -1.31874 0
M  V30 9626 C 914.517 -1.67496 -3.20355 0
M  V30 9627 O 914.238 -3.06782 -3.12756 0
M  V30 9628 C 915.739 -1.57721 -4.14294 0
M  V30 9629 H 912.959 -0.375966 -0.555779 0
M  V30 9630 H 915.503 -1.61799 -1.25065 0
M  V30 9631 H 913.658 -1.16982 -3.69315 0
M  V30 9632 H 914.072 -3.35784 -4.02926 0
M  V30 9633 H 915.546 -2.04623 -5.12673 0
M  V30 9634 H 916.023 -0.533434 -4.35949 0
M  V30 9635 H 916.629 -2.07531 -3.71229 0
M  V30 9636 N 914.944 1.19125 -1.03184 0
M  V30 9637 C 916.19 1.89163 -0.731111 0
M  V30 9638 C 916.523 1.79604 0.738662 0
M  V30 9639 O 915.798 1.19037 1.53819 0
M  V30 9640 C 916.081 3.39986 -1.18666 0
M  V30 9641 C 915.934 3.58401 -2.71788 0
M  V30 9642 C 917.253 4.33316 -0.769772 0
M  V30 9643 H 914.372 0.686908 -0.267069 0
M  V30 9644 H 917.014 1.40205 -1.28229 0
M  V30 9645 H 915.164 3.81813 -0.717736 0
M  V30 9646 H 916.836 3.25727 -3.26649 0
M  V30 9647 H 915.079 3.01355 -3.12038 0
M  V30 9648 H 915.75 4.64189 -2.98719 0
M  V30 9649 H 918.226 3.9922 -1.17314 0
M  V30 9650 H 917.102 5.37427 -1.11637 0
M  V30 9651 H 917.363 4.40884 0.327681 0
M  V30 9652 N 916.422 0.810101 1.35185 0
M  V30 9653 C 917.352 0.237453 2.32289 0
M  V30 9654 C 918.333 -0.639032 1.5764 0
M  V30 9655 O 919.518 -0.568575 1.8569 0
M  V30 9656 C 916.648 -0.611964 3.41866 0
M  V30 9657 C 915.602 0.166318 4.27677 0
M  V30 9658 C 914.928 -0.805024 5.28605 0
M  V30 9659 C 916.228 1.36729 5.04086 0
M  V30 9660 H 917.922 1.04874 2.80432 0
M  V30 9661 H 915.468 0.505751 1.34826 0
M  V30 9662 H 917.421 -1.02267 4.08802 0
M  V30 9663 H 916.145 -1.45617 2.92341 0
M  V30 9664 H 914.804 0.558238 3.62325 0
M  V30 9665 H 914.452 -1.64483 4.75347 0
M  V30 9666 H 914.152 -0.288577 5.86891 0
M  V30 9667 H 915.676 -1.21386 5.98413 0
M  V30 9668 H 917.09 1.03128 5.63948 0
M  V30 9669 H 915.487 1.81848 5.71884 0
M  V30 9670 H 916.557 2.15214 4.34524 0
M  V30 9671 N 917.9 -1.47166 0.563914 0
M  V30 9672 C 918.863 -2.28571 -0.169624 0
M  V30 9673 C 919.863 -1.37331 -0.836467 0
M  V30 9674 O 921.053 -1.59896 -0.6913 0
M  V30 9675 C 918.185 -3.17201 -1.24886 0
M  V30 9676 H 919.378 -2.94896 0.545539 0
M  V30 9677 H 916.931 -1.52966 0.321121 0
M  V30 9678 H 917.666 -2.55582 -1.99621 0
M  V30 9679 H 917.451 -3.84356 -0.775426 0
M  V30 9680 H 918.941 -3.7852 -1.76388 0
M  V30 9681 N 919.378 -0.300708 -1.54705 0
M  V30 9682 C 920.308 0.568675 -2.26469 0
M  V30 9683 C 921.289 1.13817 -1.26411 0
M  V30 9684 O 922.474 1.16756 -1.55183 0
M  V30 9685 C 919.604 1.74077 -3.00524 0
M  V30 9686 C 918.558 1.30165 -4.07727 0
M  V30 9687 C 917.884 2.55888 -4.69495 0
M  V30 9688 C 919.184 0.433106 -5.20501 0
M  V30 9689 H 920.878 -0.0298851 -2.99385 0
M  V30 9690 H 918.424 -0.0158135 -1.43991 0
M  V30 9691 H 920.377 2.35506 -3.49449 0
M  V30 9692 H 919.101 2.36556 -2.25186 0
M  V30 9693 H 917.76 0.710414 -3.59651 0
M  V30 9694 H 917.408 3.16681 -3.90797 0
M  V30 9695 H 917.108 2.27207 -5.41895 0
M  V30 9696 H 918.632 3.18121 -5.21183 0
M  V30 9697 H 920.046 0.95307 -5.65322 0
M  V30 9698 H 918.443 0.240085 -5.9962 0
M  V30 9699 H 919.513 -0.541866 -4.81863 0
M  V30 9700 N 920.856 1.57574 -0.0284266 0
M  V30 9701 C 921.786 2.1321 0.952039 0
M  V30 9702 C 922.767 1.04806 1.33977 0
M  V30 9703 O 923.952 1.32635 1.41851 0
M  V30 9704 C 921.082 2.65862 2.23461 0
M  V30 9705 C 920.036 3.79047 1.98765 0
M  V30 9706 C 919.362 4.18124 3.33281 0
M  V30 9707 C 920.662 5.05151 1.32739 0
M  V30 9708 H 922.356 2.95385 0.488705 0
M  V30 9709 H 919.902 1.42092 0.233628 0
M  V30 9710 H 921.855 3.03417 2.92431 0
M  V30 9711 H 920.579 1.80848 2.71959 0
M  V30 9712 H 919.238 3.41929 1.32213 0
M  V30 9713 H 918.886 3.30092 3.79537 0
M  V30 9714 H 918.586 4.94396 3.17563 0
M  V30 9715 H 920.11 4.58262 4.0352 0
M  V30 9716 H 921.524 5.40297 1.91708 0
M  V30 9717 H 919.921 5.86416 1.27421 0
M  V30 9718 H 920.991 4.83969 0.300261 0
M  V30 9719 N 922.334 -0.244713 1.55689 0
M  V30 9720 C 923.264 -1.30667 1.93516 0
M  V30 9721 C 924.245 -1.50094 0.800371 0
M  V30 9722 O 925.43 -1.62665 1.06083 0
M  V30 9723 C 922.56 -2.66101 2.23176 0
M  V30 9724 C 921.514 -2.61366 3.38927 0
M  V30 9725 C 920.84 -4.00616 3.54134 0
M  V30 9726 C 922.14 -2.18161 4.74555 0
M  V30 9727 H 923.834 -0.992546 2.82469 0
M  V30 9728 H 921.38 -0.476018 1.35905 0
M  V30 9729 H 923.333 -3.4053 2.48228 0
M  V30 9730 H 922.057 -2.99154 1.31051 0
M  V30 9731 H 920.716 -1.89395 3.13887 0
M  V30 9732 H 920.364 -4.30938 2.59426 0
M  V30 9733 H 920.064 -3.98335 4.31975 0
M  V30 9734 H 921.588 -4.76741 3.8151 0
M  V30 9735 H 923.002 -2.82323 4.98965 0
M  V30 9736 H 921.399 -2.26988 5.55515 0
M  V30 9737 H 922.469 -1.13333 4.7147 0
M  V30 9738 N 923.813 -1.49104 -0.510467 0
M  V30 9739 C 924.776 -1.64569 -1.59529 0
M  V30 9740 C 925.776 -0.517937 -1.5223 0
M  V30 9741 O 926.966 -0.784183 -1.55551 0
M  V30 9742 C 924.098 -1.6342 -2.99177 0
M  V30 9743 H 925.291 -2.61318 -1.4715 0
M  V30 9744 H 922.844 -1.37993 -0.734001 0
M  V30 9745 H 923.579 -0.68221 -3.17043 0
M  V30 9746 H 923.364 -2.45312 -3.05883 0
M  V30 9747 H 924.854 -1.77474 -3.78011 0
M  V30 9748 N 925.291 0.760815 -1.38019 0
M  V30 9749 C 926.516 1.55513 -1.37224 0
M  V30 9750 C 926.941 1.88062 0.037611 0
M  V30 9751 O 926.299 1.50042 1.0177 0
M  V30 9752 C 926.347 2.83539 -2.22796 0
M  V30 9753 O 925.451 3.78384 -1.64009 0
M  V30 9754 H 924.792 0.470642 -0.468393 0
M  V30 9755 H 927.322 0.940792 -1.81687 0
M  V30 9756 H 927.332 3.32535 -2.36399 0
M  V30 9757 H 926.007 2.59178 -3.25269 0
M  V30 9758 H 924.584 3.37063 -1.59508 0
M  V30 9759 N 926.769 1.22769 0.988202 0
M  V30 9760 C 927.997 1.08155 1.76381 0
M  V30 9761 C 928.412 -0.367573 1.85187 0
M  V30 9762 O 927.769 -1.25455 1.32541 0
M  V30 9763 C 927.82 1.69193 3.19462 0
M  V30 9764 O 927.541 3.08437 3.11125 0
M  V30 9765 C 929.042 1.59915 4.13451 0
M  V30 9766 H 926.262 0.378908 0.553778 0
M  V30 9767 H 928.806 1.6246 1.24206 0
M  V30 9768 H 926.961 1.18939 3.6869 0
M  V30 9769 H 927.375 3.37916 4.0114 0
M  V30 9770 H 928.849 2.07339 5.1158 0
M  V30 9771 H 929.326 0.556546 4.3566 0
M  V30 9772 H 929.932 2.09497 3.70123 0
M  V30 9773 N 928.247 -1.18576 1.03814 0
M  V30 9774 C 929.177 -2.24334 0.647795 0
M  V30 9775 C 930.158 -1.66508 -0.34774 0
M  V30 9776 O 931.343 -1.92852 -0.228401 0
M  V30 9777 C 928.473 -3.47299 0.00734922 0
M  V30 9778 C 927.427 -4.17859 0.926152 0
M  V30 9779 C 926.753 -5.34489 0.150317 0
M  V30 9780 C 928.053 -4.71632 2.24411 0
M  V30 9781 H 929.747 -2.57241 1.53191 0
M  V30 9782 H 927.293 -1.23649 0.738028 0
M  V30 9783 H 929.246 -4.20486 -0.277434 0
M  V30 9784 H 927.97 -3.13619 -0.911626 0
M  V30 9785 H 926.629 -3.46567 1.19528 0
M  V30 9786 H 926.277 -4.97056 -0.770985 0
M  V30 9787 H 925.977 -5.82633 0.762407 0
M  V30 9788 H 927.501 -6.10467 -0.127508 0
M  V30 9789 H 928.915 -5.36526 2.02021 0
M  V30 9790 H 927.312 -5.303 2.80894 0
M  V30 9791 H 928.382 -3.89192 2.89236 0
M  V30 9792 N 929.725 -0.817259 -1.34754 0
M  V30 9793 C 930.688 -0.240611 -2.27934 0
M  V30 9794 C 931.688 0.578219 -1.50044 0
M  V30 9795 O 932.878 0.395148 -1.69659 0
M  V30 9796 C 930.01 0.663318 -3.34384 0
M  V30 9797 H 931.203 -1.06257 -2.80445 0
M  V30 9798 H 928.756 -0.588697 -1.4479 0
M  V30 9799 H 929.491 1.50855 -2.87077 0
M  V30 9800 H 929.276 0.0777388 -3.92023 0
M  V30 9801 H 930.766 1.06076 -4.03903 0
M  V30 9802 O 931.242 1.44929 -0.712586 0
M  V30 9803 H 931.933 1.9199 -0.256802 0
M  V30 END ATOM
M  V30 BEGIN BOND
M  V30 END BOND
M  V30 END CTAB
M  END
$$$$
