drugbank_target|Q13443 Disintegrin and metalloproteinase domain-containing protein 9 (DB05033)
 OpenBabel12092120313D

  0  0  0     0  0            999 V3000
M  V30 BEGIN CTAB
M  V30 COUNTS 12523 12671 0 0 0
M  V30 BEGIN ATOM
M  V30 1 H -0.908 1.98254 -0.117106 0
M  V30 2 N 0 1.576 0 0
M  V30 3 C 0.933 2.03868 1.02534 0
M  V30 4 C 1.911 0.928543 1.3348 0
M  V30 5 O 3.095 1.19667 1.45644 0
M  V30 6 C 0.222 2.43627 2.35294 0
M  V30 7 C -0.732 3.65373 2.2001 0
M  V30 8 S 0.101 5.13292 1.52614 0
M  V30 9 C 1.257 5.56322 2.86805 0
M  V30 10 H 1.49 2.90518 0.631377 0
M  V30 11 H -0.977 1.52953 0.210867 0
M  V30 12 H 0.981 2.67203 3.11629 0
M  V30 13 H -0.358 1.57376 2.7183 0
M  V30 14 H -1.165 3.90944 3.18086 0
M  V30 15 H -1.563 3.418 1.51819 0
M  V30 16 H 0.729 5.58782 3.83104 0
M  V30 17 H 1.672 6.56266 2.65933 0
M  V30 18 H 2.08 4.83886 2.90714 0
M  V30 19 N 1.4781 -0.272755 1.55222 0
M  V30 20 C 2.7261 -1.00234 1.75492 0
M  V30 21 C 3.0471 -1.8681 0.5592 0
M  V30 22 O 2.3171 -1.91215 -0.425882 0
M  V30 23 H 0.8971 -0.373076 0.647166 0
M  V30 24 H 3.5591 -0.296926 1.92625 0
M  V30 25 H 2.6551 -1.63913 2.65592 0
M  V30 26 N 2.9562 -1.48159 -0.537278 0
M  V30 27 C 4.1812 -1.59707 -1.32319 0
M  V30 28 C 4.6062 -0.254859 -1.86365 0
M  V30 29 O 3.9642 0.772378 -1.64024 0
M  V30 30 C 4.0122 -2.6412 -2.45505 0
M  V30 31 O 3.1162 -2.20774 -3.48328 0
M  V30 32 H 2.4572 -0.535791 -0.392204 0
M  V30 33 H 4.9872 -1.94092 -0.647268 0
M  V30 34 H 4.9972 -2.85166 -2.91795 0
M  V30 35 H 3.6722 -3.61567 -2.05528 0
M  V30 36 H 2.2492 -2.09911 -3.08207 0
M  V30 37 N 4.4343 0.785586 -1.36625 0
M  V30 38 C 5.6823 1.54057 -1.30808 0
M  V30 39 C 6.0033 1.94683 0.111157 0
M  V30 40 O 5.2733 1.65241 1.05224 0
M  V30 41 H 3.8533 0.571354 -0.481211 0
M  V30 42 H 6.5153 0.935821 -1.70963 0
M  V30 43 H 5.6113 2.44637 -1.93801 0
M  V30 44 N 5.9124 1.20967 1.01018 0
M  V30 45 C 6.8754 0.965918 2.07853 0
M  V30 46 C 7.8754 -0.0610545 1.60684 0
M  V30 47 O 9.0654 0.175681 1.73312 0
M  V30 48 C 6.1974 0.455513 3.37843 0
M  V30 49 H 7.3904 1.91365 2.3091 0
M  V30 50 H 4.9434 1.02594 1.17916 0
M  V30 51 H 5.6784 -0.497381 3.20463 0
M  V30 52 H 5.4634 1.19622 3.73407 0
M  V30 53 H 6.9534 0.304667 4.16487 0
M  V30 54 N 7.3905 -1.2043 1.01659 0
M  V30 55 C 8.8065 -1.41852 0.731442 0
M  V30 56 C 9.0065 -1.89358 -0.688898 0
M  V30 57 O 8.0625 -2.06247 -1.45666 0
M  V30 58 C 9.3755 -2.44019 1.75714 0
M  V30 59 C 10.9235 -2.57785 1.77527 0
M  V30 60 C 11.3985 -3.63194 2.79023 0
M  V30 61 N 12.8895 -3.70678 2.77763 0
M  V30 62 C 13.6245 -4.51897 3.52954 0
M  V30 63 N 13.1205 -5.36921 4.37821 0
M  V30 64 N 14.9135 -4.4643 3.41551 0
M  V30 65 H 7.0645 -0.879093 1.93354 0
M  V30 66 H 9.3275 -0.448425 0.835236 0
M  V30 67 H 9.0335 -2.1611 2.77469 0
M  V30 68 H 8.9075 -3.43007 1.56927 0
M  V30 69 H 11.2945 -2.85023 0.764569 0
M  V30 70 H 11.3755 -1.58992 2.00387 0
M  V30 71 H 11.0195 -3.36699 3.80258 0
M  V30 72 H 10.9495 -4.61609 2.53425 0
M  V30 73 H 13.4405 -3.09944 2.16201 0
M  V30 74 H 13.7535 -5.95981 4.91962 0
M  V30 75 H 12.0985 -5.36424 4.41899 0
M  V30 76 H 15.2895 -3.79042 2.74672 0
M  V30 77 H 15.4625 -5.09491 4.00404 0
M  V30 78 N 8.8686 -0.792821 -1.36206 0
M  V30 79 C 10.1156 -0.366786 -1.99151 0
M  V30 80 C 10.4436 1.06243 -1.62919 0
M  V30 81 O 9.6986 1.74927 -0.877442 0
M  V30 82 C 9.9976 -0.481501 -3.54142 0
M  V30 83 C 9.6636 -1.87202 -4.10203 0
M  V30 84 C 8.3256 -2.25248 -4.25226 0
M  V30 85 C 10.6776 -2.78237 -4.40719 0
M  V30 86 C 8.0056 -3.53723 -4.68078 0
M  V30 87 C 10.3576 -4.06144 -4.85005 0
M  V30 88 C 9.0216 -4.44207 -4.98234 0
M  V30 89 H 8.2916 -0.134217 -0.728743 0
M  V30 90 H 10.9386 -1.01094 -1.62641 0
M  V30 91 H 9.2436 0.246146 -3.91026 0
M  V30 92 H 10.9406 -0.132844 -4.0078 0
M  V30 93 H 7.5306 -1.56639 -3.98951 0
M  V30 94 H 11.7146 -2.50097 -4.28679 0
M  V30 95 H 6.9706 -3.8308 -4.76508 0
M  V30 96 H 11.1446 -4.76796 -5.07581 0
M  V30 97 H 8.7716 -5.43814 -5.31197 0
M  V30 98 N 10.3467 1.47872 -0.545128 0
M  V30 99 C 11.7577 1.86384 -0.108581 0
M  V30 100 C 12.1087 1.45309 1.31832 0
M  V30 101 O 11.2337 0.850641 1.9898 0
M  V30 102 C 11.8287 3.38265 -0.190274 0
M  V30 103 C 10.3877 3.75914 0.191164 0
M  V30 104 C 9.5347 2.71926 -0.543273 0
M  V30 105 H 12.4857 1.39561 -0.755537 0
M  V30 106 H 12.5067 3.75831 0.594217 0
M  V30 107 H 12.0187 3.6813 -1.2289 0
M  V30 108 H 10.1197 3.51665 1.23136 0
M  V30 109 H 10.2327 4.78836 -0.158987 0
M  V30 110 H 8.5967 2.54697 0.0122495 0
M  V30 111 H 9.3797 3.04634 -1.58282 0
M  V30 112 N 11.8248 0.280983 1.55075 0
M  V30 113 C 13.0498 -0.340154 2.04592 0
M  V30 114 C 13.4748 -1.48246 1.15779 0
M  V30 115 O 12.8328 -1.80614 0.15761 0
M  V30 116 C 12.8808 -0.793104 3.5177 0
M  V30 117 O 11.9848 -1.89981 3.66034 0
M  V30 118 H 11.3258 -0.0694289 0.66036 0
M  V30 119 H 13.8558 0.416993 2.00306 0
M  V30 120 H 13.8658 -1.08729 3.93245 0
M  V30 121 H 12.5408 0.0426163 4.15878 0
M  V30 122 H 11.1178 -1.60771 3.36463 0
M  V30 123 N 13.3029 -1.57598 0.00835791 0
M  V30 124 C 14.5509 -1.90551 -0.6734 0
M  V30 125 C 14.8719 -0.883301 -1.73847 0
M  V30 126 O 14.1419 0.0781442 -1.95744 0
M  V30 127 H 12.7219 -0.703312 -0.251717 0
M  V30 128 H 15.3839 -1.94833 0.0512592 0
M  V30 129 H 14.4799 -2.9056 -1.13935 0
M  V30 130 N 14.781 0.264519 -1.55364 0
M  V30 131 C 16.009 1.013 -1.80405 0
M  V30 132 C 16.424 1.79618 -0.581622 0
M  V30 133 O 15.781 1.76879 0.449468 0
M  V30 134 C 15.832 1.96487 -3.03439 0
M  V30 135 O 15.553 1.21341 -4.20961 0
M  V30 136 C 17.054 2.83079 -3.41147 0
M  V30 137 H 14.274 0.298875 -0.600762 0
M  V30 138 H 16.818 0.292736 -2.02394 0
M  V30 139 H 14.973 2.63965 -2.83551 0
M  V30 140 H 15.387 1.85573 -4.90574 0
M  V30 141 H 16.861 3.4565 -4.30384 0
M  V30 142 H 17.338 3.53286 -2.60932 0
M  V30 143 H 17.944 2.2108 -3.63323 0
M  V30 144 N 16.2591 1.48442 0.529413 0
M  V30 145 C 17.1891 1.65902 1.64313 0
M  V30 146 C 18.1701 0.507897 1.6234 0
M  V30 147 O 19.3551 0.740503 1.79528 0
M  V30 148 C 16.4851 1.69911 3.02898 0
M  V30 149 C 15.4391 2.8453 3.19729 0
M  V30 150 C 14.7651 2.73629 4.59381 0
M  V30 151 C 16.0651 4.25821 3.02447 0
M  V30 152 H 17.7591 2.5914 1.49955 0
M  V30 153 H 15.3051 1.24709 0.719982 0
M  V30 154 H 17.2581 1.80715 3.80684 0
M  V30 155 H 15.9821 0.732524 3.18279 0
M  V30 156 H 14.6411 2.73283 2.44361 0
M  V30 157 H 14.2891 1.74938 4.71599 0
M  V30 158 H 13.9891 3.50541 4.71588 0
M  V30 159 H 15.5131 2.86401 5.39265 0
M  V30 160 H 16.9271 4.37898 3.70024 0
M  V30 161 H 15.3241 5.03735 3.26146 0
M  V30 162 H 16.3941 4.42244 1.98867 0
M  V30 163 N 17.7372 -0.778329 1.37039 0
M  V30 164 C 19.1532 -1.07796 1.17695 0
M  V30 165 C 19.3532 -2.01498 0.00860115 0
M  V30 166 O 18.4092 -2.43901 -0.653352 0
M  V30 167 C 19.7222 -1.68178 2.49272 0
M  V30 168 C 21.2702 -1.80467 2.55735 0
M  V30 169 C 21.7452 -2.44263 3.87427 0
M  V30 170 N 23.2362 -2.51721 3.88833 0
M  V30 171 C 23.9712 -3.01919 4.87476 0
M  V30 172 N 23.4672 -3.5234 5.96513 0
M  V30 173 N 25.2602 -3.00733 4.74885 0
M  V30 174 H 17.4112 -0.156032 2.11826 0
M  V30 175 H 19.6742 -0.131844 0.938787 0
M  V30 176 H 19.3802 -1.06796 3.35093 0
M  V30 177 H 19.2542 -2.67554 2.65885 0
M  V30 178 H 21.6412 -2.40984 1.70325 0
M  V30 179 H 21.7222 -0.798656 2.43013 0
M  V30 180 H 21.3662 -1.84388 4.73248 0
M  V30 181 H 21.2962 -3.45458 3.9745 0
M  V30 182 H 23.7872 -2.1603 3.10063 0
M  V30 183 H 24.1002 -3.89027 6.67741 0
M  V30 184 H 22.4452 -3.50462 6.00168 0
M  V30 185 H 25.6362 -2.60638 3.88826 0
M  V30 186 H 25.8092 -3.39545 5.51918 0
M  V30 187 N 19.2153 -1.21501 -1.00376 0
M  V30 188 C 20.4613 -1.03452 -1.74429 0
M  V30 189 C 20.7943 0.430764 -1.89362 0
M  V30 190 O 20.0693 1.31962 -1.42886 0
M  V30 191 C 20.3523 -1.73375 -3.15615 0
M  V30 192 C 20.2053 -3.27431 -3.08397 0
M  V30 193 C 21.5243 -1.47732 -4.14564 0
M  V30 194 H 18.6433 -0.377226 -0.633143 0
M  V30 195 H 21.2853 -1.49693 -1.17013 0
M  V30 196 H 19.4353 -1.34064 -3.64636 0
M  V30 197 H 21.1073 -3.76119 -2.67081 0
M  V30 198 H 19.3503 -3.5767 -2.45468 0
M  V30 199 H 20.0213 -3.71524 -4.08258 0
M  V30 200 H 22.4973 -1.8186 -3.74254 0
M  V30 201 H 21.3733 -1.99169 -5.11491 0
M  V30 202 H 21.6343 -0.407589 -4.40217 0
M  V30 203 N 20.6934 1.19889 -1.02296 0
M  V30 204 C 22.1094 1.41462 -0.738954 0
M  V30 205 C 22.3094 1.89721 0.678846 0
M  V30 206 O 21.3654 2.07016 1.4457 0
M  V30 207 C 22.6784 2.43083 -1.77005 0
M  V30 208 C 24.2264 2.5684 -1.78892 0
M  V30 209 C 24.7014 3.61709 -2.80945 0
M  V30 210 N 26.1924 3.69199 -2.79725 0
M  V30 211 C 26.9274 4.50019 -3.55345 0
M  V30 212 N 26.4234 5.34592 -4.40662 0
M  V30 213 N 28.2164 4.44612 -3.43914 0
M  V30 214 H 20.3674 0.868827 -1.93817 0
M  V30 215 H 22.6304 0.44399 -0.837602 0
M  V30 216 H 22.3364 2.14636 -2.78612 0
M  V30 217 H 22.2104 3.4217 -1.58744 0
M  V30 218 H 24.5974 2.84614 -0.779674 0
M  V30 219 H 24.6784 1.57927 -2.01228 0
M  V30 220 H 24.3224 3.34678 -3.82038 0
M  V30 221 H 24.2524 4.60259 -2.5587 0
M  V30 222 H 26.7434 3.08794 -2.17842 0
M  V30 223 H 27.0564 5.93363 -4.95116 0
M  V30 224 H 25.4014 5.34073 -4.44737 0
M  V30 225 H 28.5924 3.7758 -2.76679 0
M  V30 226 H 28.7654 5.0736 -4.031 0
M  V30 227 N 22.1715 0.800033 1.35784 0
M  V30 228 C 23.4175 0.38701 1.99684 0
M  V30 229 C 23.7725 -1.03268 1.62338 0
M  V30 230 O 23.0655 -1.70543 0.87325 0
M  V30 231 C 23.2595 0.500276 3.53881 0
M  V30 232 C 23.0885 1.92942 4.06206 0
M  V30 233 C 21.8585 2.55637 4.35865 0
M  V30 234 C 24.0565 2.89307 4.25213 0
M  V30 235 N 22.0385 3.9003 4.74078 0
M  V30 236 C 23.4095 4.08556 4.66349 0
M  V30 237 C 25.4645 2.86225 4.07406 0
M  V30 238 C 24.1675 5.25146 4.91543 0
M  V30 239 C 26.1935 4.02011 4.33752 0
M  V30 240 C 25.5555 5.20007 4.75155 0
M  V30 241 H 21.6545 0.189252 0.758754 0
M  V30 242 H 24.2385 1.03988 1.64604 0
M  V30 243 H 22.4095 -0.122568 3.88207 0
M  V30 244 H 24.1415 0.0624733 4.04652 0
M  V30 245 H 20.8965 2.07039 4.25948 0
M  V30 246 H 21.3205 4.59205 4.97454 0
M  V30 247 H 25.9625 1.96154 3.74544 0
M  V30 248 H 23.6805 6.15794 5.23281 0
M  V30 249 H 27.2665 4.00999 4.21534 0
M  V30 250 H 26.1465 6.08113 4.95145 0
M  V30 251 N 23.6496 -1.47581 0.552962 0
M  V30 252 C 24.5796 -2.32762 -0.185451 0
M  V30 253 C 25.5606 -1.43527 -0.912905 0
M  V30 254 O 26.7456 -1.72388 -0.894201 0
M  V30 255 C 23.8756 -3.25219 -1.21859 0
M  V30 256 C 22.8296 -4.23661 -0.607864 0
M  V30 257 C 22.1556 -5.05413 -1.74533 0
M  V30 258 C 23.4556 -5.20481 0.435582 0
M  V30 259 H 25.1496 -2.94749 0.525684 0
M  V30 260 H 22.6956 -1.41738 0.254251 0
M  V30 261 H 24.6486 -3.8365 -1.7433 0
M  V30 262 H 23.3726 -2.61279 -1.95961 0
M  V30 263 H 22.0316 -3.66451 -0.104489 0
M  V30 264 H 21.6796 -4.3788 -2.47529 0
M  V30 265 H 21.3796 -5.72059 -1.34249 0
M  V30 266 H 22.9036 -5.66701 -2.27338 0
M  V30 267 H 24.3176 -5.733 -0.00290157 0
M  V30 268 H 22.7146 -5.95305 0.757067 0
M  V30 269 H 23.7846 -4.66217 1.33303 0
M  V30 270 N 25.1277 -0.289203 -1.54924 0
M  V30 271 C 26.0577 0.58549 -2.2604 0
M  V30 272 C 27.0387 1.14753 -1.25562 0
M  V30 273 O 28.2237 1.17906 -1.54311 0
M  V30 274 C 25.3537 1.76305 -2.99222 0
M  V30 275 C 24.3077 1.33191 -4.06748 0
M  V30 276 C 23.6337 2.5937 -4.6758 0
M  V30 277 C 24.9337 0.471775 -5.20165 0
M  V30 278 H 26.6277 -0.00763532 -2.99399 0
M  V30 279 H 24.1737 -0.00511229 -1.43999 0
M  V30 280 H 26.1267 2.38097 -3.47689 0
M  V30 281 H 24.8507 2.38223 -2.23422 0
M  V30 282 H 23.5097 0.737121 -3.59113 0
M  V30 283 H 23.1577 3.19576 -3.88433 0
M  V30 284 H 22.8577 2.31228 -5.40192 0
M  V30 285 H 24.3817 3.21985 -5.18804 0
M  V30 286 H 25.7957 0.995056 -5.64599 0
M  V30 287 H 24.1927 0.284639 -5.99425 0
M  V30 288 H 25.2627 -0.506041 -4.82252 0
M  V30 289 N 26.6058 1.57591 -0.0167156 0
M  V30 290 C 27.5358 2.12496 0.967858 0
M  V30 291 C 28.5168 1.03807 1.34752 0
M  V30 292 O 29.7018 1.31577 1.42833 0
M  V30 293 C 26.8318 2.64194 2.25431 0
M  V30 294 C 25.7858 3.77559 2.01576 0
M  V30 295 C 25.1118 4.15636 3.36379 0
M  V30 296 C 26.4118 5.04151 1.36489 0
M  V30 297 H 28.1058 2.95013 0.510643 0
M  V30 298 H 25.6518 1.41915 0.244181 0
M  V30 299 H 27.6048 3.01236 2.94678 0
M  V30 300 H 26.3288 1.78821 2.73296 0
M  V30 301 H 24.9878 3.40937 1.34751 0
M  V30 302 H 24.6358 3.27263 3.81979 0
M  V30 303 H 24.3358 4.92022 3.21229 0
M  V30 304 H 25.8598 4.5525 4.06915 0
M  V30 305 H 27.2738 5.38857 1.95718 0
M  V30 306 H 25.6708 5.85453 1.31776 0
M  V30 307 H 26.7408 4.83733 0.336219 0
M  V30 308 N 28.0839 -0.256276 1.55502 0
M  V30 309 C 29.0139 -1.32102 1.92539 0
M  V30 310 C 29.9949 -1.50684 0.789194 0
M  V30 311 O 31.1799 -1.63449 1.04872 0
M  V30 312 C 28.3099 -2.67752 2.21192 0
M  V30 313 C 27.2639 -2.63878 3.36975 0
M  V30 314 C 26.5899 -4.03236 3.51147 0
M  V30 315 C 27.8899 -2.21682 4.72921 0
M  V30 316 H 29.5839 -1.01351 2.81724 0
M  V30 317 H 27.1299 -0.486105 1.35547 0
M  V30 318 H 29.0829 -3.42365 2.45691 0
M  V30 319 H 27.8069 -3.0012 1.28824 0
M  V30 320 H 26.4659 -1.91722 3.12471 0
M  V30 321 H 26.1139 -4.32854 2.56216 0
M  V30 322 H 25.8139 -4.01535 4.29003 0
M  V30 323 H 27.3379 -4.79563 3.77957 0
M  V30 324 H 28.7519 -2.86023 4.96854 0
M  V30 325 H 27.1489 -2.3111 5.53812 0
M  V30 326 H 28.2189 -1.16833 4.70615 0
M  V30 327 N 29.562 -1.4872 -0.521534 0
M  V30 328 C 30.81 -1.56857 -1.27437 0
M  V30 329 C 31.131 -0.247982 -1.93417 0
M  V30 330 O 30.401 0.731151 -1.81744 0
M  V30 331 H 28.981 -0.577885 -0.473347 0
M  V30 332 H 31.643 -1.85233 -0.606205 0
M  V30 333 H 30.739 -2.35402 -2.0492 0
M  V30 334 N 31.0401 0.771051 -1.3745 0
M  V30 335 C 31.9701 1.89827 -1.3597 0
M  V30 336 C 32.9511 1.68562 -0.228216 0
M  V30 337 O 34.1361 1.8941 -0.428675 0
M  V30 338 C 31.2661 3.2712 -1.16662 0
M  V30 339 C 30.2201 3.6295 -2.2683 0
M  V30 340 C 29.5461 4.98791 -1.92644 0
M  V30 341 C 30.8461 3.69627 -3.69017 0
M  V30 342 H 32.5401 1.91323 -2.30295 0
M  V30 343 H 30.0861 0.919082 -1.10855 0
M  V30 344 H 32.0391 4.05615 -1.14256 0
M  V30 345 H 30.7631 3.26059 -0.187926 0
M  V30 346 H 29.4221 2.86763 -2.28392 0
M  V30 347 H 29.0701 4.94271 -0.933021 0
M  V30 348 H 28.7701 5.23733 -2.66416 0
M  V30 349 H 30.2941 5.79685 -1.91826 0
M  V30 350 H 31.7081 4.38273 -3.69581 0
M  V30 351 H 30.1051 4.06067 -4.41848 0
M  V30 352 H 31.1751 2.70273 -4.02592 0
M  V30 353 N 32.5182 1.22032 0.997298 0
M  V30 354 C 33.7642 1.04376 1.73878 0
M  V30 355 C 34.0972 -0.420716 1.89588 0
M  V30 356 O 33.3722 -1.31202 1.43583 0
M  V30 357 C 33.6552 1.75047 3.14691 0
M  V30 358 C 33.5082 3.29062 3.06656 0
M  V30 359 C 34.8272 1.49928 4.13775 0
M  V30 360 H 31.9462 0.380578 0.631133 0
M  V30 361 H 34.5882 1.50312 1.16217 0
M  V30 362 H 32.7382 1.35996 3.63919 0
M  V30 363 H 34.4102 3.7753 2.65083 0
M  V30 364 H 32.6532 3.58967 2.43568 0
M  V30 365 H 33.3242 3.73683 4.06282 0
M  V30 366 H 35.8002 1.83842 3.73285 0
M  V30 367 H 34.6762 2.01878 5.10428 0
M  V30 368 H 34.9372 0.430929 4.39995 0
M  V30 369 N 33.9963 -1.19345 1.0293 0
M  V30 370 C 35.2443 -1.88665 0.724574 0
M  V30 371 C 35.5653 -1.80036 -0.749144 0
M  V30 372 O 34.8353 -1.2111 -1.53978 0
M  V30 373 H 33.4153 -0.698406 0.265025 0
M  V30 374 H 36.0773 -1.44885 1.30362 0
M  V30 375 H 35.1733 -2.94987 1.01926 0
M  V30 376 N 35.4744 -0.807222 -1.35358 0
M  V30 377 C 36.8854 -0.44876 -1.81226 0
M  V30 378 C 37.2364 1.02929 -1.67033 0
M  V30 379 O 36.3614 1.79991 -1.20133 0
M  V30 380 C 36.9564 -0.807774 -3.2903 0
M  V30 381 C 35.5154 -0.501901 -3.73039 0
M  V30 382 C 34.6624 -1.03304 -2.57339 0
M  V30 383 H 37.6134 -0.998808 -1.23327 0
M  V30 384 H 37.6344 -0.10554 -3.80354 0
M  V30 385 H 37.1464 -1.88357 -3.39328 0
M  V30 386 H 35.2474 0.565128 -3.68289 0
M  V30 387 H 35.3604 -1.03497 -4.67787 0
M  V30 388 H 33.7244 -0.455339 -2.50597 0
M  V30 389 H 34.5074 -2.11496 -2.70415 0
M  V30 390 N 36.9525 1.47285 -0.560781 0
M  V30 391 C 38.1985 2.02764 -0.0381184 0
M  V30 392 C 38.5315 1.43384 1.30976 0
M  V30 393 O 37.8065 0.590733 1.85312 0
M  V30 394 C 38.0895 3.60064 0.0511427 0
M  V30 395 C 37.9425 4.2987 -1.32408 0
M  V30 396 C 39.2615 4.33439 0.762795 0
M  V30 397 H 36.3805 0.736841 -0.0153264 0
M  V30 398 H 39.0225 1.75675 -0.723759 0
M  V30 399 H 37.1725 3.83274 0.635065 0
M  V30 400 H 38.8445 4.17989 -1.95148 0
M  V30 401 H 37.0875 3.90085 -1.8978 0
M  V30 402 H 37.7585 5.38478 -1.21431 0
M  V30 403 H 40.2345 4.15243 0.266965 0
M  V30 404 H 39.1105 5.43124 0.794221 0
M  V30 405 H 39.3715 4.02915 1.81966 0
M  V30 406 N 38.4306 0.297415 1.54768 0
M  V30 407 C 39.3606 -0.573494 2.26348 0
M  V30 408 C 40.3416 -1.14085 1.26169 0
M  V30 409 O 41.5266 -1.17086 1.54934 0
M  V30 410 C 38.6566 -1.74716 3.00153 0
M  V30 411 C 37.6106 -1.31032 4.07449 0
M  V30 412 C 36.9366 -2.56887 4.68949 0
M  V30 413 C 38.2366 -0.444183 5.20408 0
M  V30 414 H 39.9306 0.0235131 2.99391 0
M  V30 415 H 37.4766 0.0127488 1.43994 0
M  V30 416 H 39.4296 -2.3625 3.48947 0
M  V30 417 H 38.1536 -2.37035 2.24682 0
M  V30 418 H 36.8126 -0.718066 3.59499 0
M  V30 419 H 36.4606 -3.17512 3.90122 0
M  V30 420 H 36.1606 -2.2836 5.41411 0
M  V30 421 H 37.6846 -3.19229 5.20505 0
M  V30 422 H 39.0986 -0.9651 5.65118 0
M  V30 423 H 37.4956 -0.252846 5.99567 0
M  V30 424 H 38.5656 0.531609 4.81977 0
M  V30 425 N 39.9087 -1.5758 0.0250728 0
M  V30 426 C 41.1567 -1.91255 -0.653151 0
M  V30 427 C 41.4777 -0.901691 -1.729 0
M  V30 428 O 40.7477 0.0573785 -1.95816 0
M  V30 429 H 39.3277 -0.705942 -0.244243 0
M  V30 430 H 41.9897 -1.94767 0.0719209 0
M  V30 431 H 41.0857 -2.91752 -1.10847 0
M  V30 432 N 41.3868 0.248026 -1.55636 0
M  V30 433 C 42.3498 1.29044 -1.89421 0
M  V30 434 C 43.3498 1.41134 -0.770581 0
M  V30 435 O 44.5398 1.39854 -1.03858 0
M  V30 436 C 41.6718 2.66831 -2.12165 0
M  V30 437 H 42.8648 1.00305 -2.82629 0
M  V30 438 H 40.4178 0.487265 -1.48511 0
M  V30 439 H 41.1528 3.00711 -1.21422 0
M  V30 440 H 40.9378 2.59438 -2.93997 0
M  V30 441 H 42.4278 3.42103 -2.3949 0
M  V30 442 N 42.8649 1.48995 0.513639 0
M  V30 443 C 43.8279 1.64229 1.59879 0
M  V30 444 C 44.8279 0.514696 1.5234 0
M  V30 445 O 46.0179 0.78087 1.55718 0
M  V30 446 C 43.1499 1.62783 2.99524 0
M  V30 447 H 44.3429 2.61004 1.47705 0
M  V30 448 H 41.8959 1.37837 0.736936 0
M  V30 449 H 42.6309 0.675461 3.17188 0
M  V30 450 H 42.4159 2.4466 3.06404 0
M  V30 451 H 43.9059 1.76669 3.78388 0
M  V30 452 N 44.343 -0.763751 1.37857 0
M  V30 453 C 45.759 -1.06542 1.18832 0
M  V30 454 C 45.959 -2.01478 0.0299722 0
M  V30 455 O 45.015 -2.4458 -0.627447 0
M  V30 456 C 46.328 -1.65525 2.51042 0
M  V30 457 C 47.876 -1.77745 2.57635 0
M  V30 458 C 48.351 -2.4014 3.89996 0
M  V30 459 N 49.842 -2.47582 3.91481 0
M  V30 460 C 50.577 -2.96732 4.9065 0
M  V30 461 N 50.073 -3.45993 6.00217 0
M  V30 462 N 51.866 -2.95679 4.78048 0
M  V30 463 H 44.017 -0.133556 2.1198 0
M  V30 464 H 46.28 -0.121879 0.940133 0
M  V30 465 H 45.986 -1.03236 3.36207 0
M  V30 466 H 45.86 -2.64719 2.68707 0
M  V30 467 H 48.247 -2.39164 1.72872 0
M  V30 468 H 48.328 -0.772836 2.43846 0
M  V30 469 H 47.972 -1.79358 4.75177 0
M  V30 470 H 47.902 -3.41223 4.01092 0
M  V30 471 H 50.393 -2.1273 3.12337 0
M  V30 472 H 50.706 -3.81922 6.7183 0
M  V30 473 H 49.051 -3.44077 6.03851 0
M  V30 474 H 52.242 -2.56499 3.91568 0
M  V30 475 H 52.415 -3.33672 5.55488 0
M  V30 476 N 45.8211 -1.22559 -0.990812 0
M  V30 477 C 47.2321 -1.04791 -1.54518 0
M  V30 478 C 47.5831 0.387998 -1.92325 0
M  V30 479 O 46.7081 1.27328 -1.74976 0
M  V30 480 C 47.3031 -1.896 -2.80779 0
M  V30 481 C 45.8621 -1.76124 -3.32652 0
M  V30 482 C 45.0091 -1.8594 -2.05722 0
M  V30 483 H 47.9601 -1.36374 -0.811662 0
M  V30 484 H 47.9811 -1.41464 -3.53225 0
M  V30 485 H 47.4931 -2.94101 -2.53231 0
M  V30 486 H 45.5941 -0.743643 -3.65104 0
M  V30 487 H 45.7071 -2.58913 -4.03114 0
M  V30 488 H 44.0711 -1.29403 -2.19379 0
M  V30 489 H 44.8541 -2.91976 -1.80568 0
M  V30 490 N 47.2992 1.18797 -1.03562 0
M  V30 491 C 48.5472 1.88278 -0.734569 0
M  V30 492 C 48.8682 1.8043 0.739586 0
M  V30 493 O 48.1382 1.21925 1.53333 0
M  V30 494 H 46.7182 0.696991 -0.268725 0
M  V30 495 H 49.3802 1.44192 -1.31129 0
M  V30 496 H 48.4762 2.94443 -1.03489 0
M  V30 497 N 48.7773 0.814389 1.34928 0
M  V30 498 C 50.0243 0.398423 1.98542 0
M  V30 499 C 50.3523 -1.03638 1.64589 0
M  V30 500 O 49.6073 -1.73509 0.90516 0
M  V30 501 C 49.9063 0.537781 3.53331 0
M  V30 502 C 49.5723 1.93704 4.07172 0
M  V30 503 C 48.2343 2.31984 4.21589 0
M  V30 504 C 50.5863 2.85213 4.36237 0
M  V30 505 C 47.9143 3.61125 4.62391 0
M  V30 506 C 50.2663 4.13809 4.78482 0
M  V30 507 C 48.9303 4.52077 4.91104 0
M  V30 508 H 48.2003 0.145793 0.726516 0
M  V30 509 H 50.8473 1.03669 1.61012 0
M  V30 510 H 49.1523 -0.183906 3.91368 0
M  V30 511 H 50.8493 0.196588 4.00518 0
M  V30 512 H 47.4393 1.62966 3.96409 0
M  V30 513 H 51.6233 2.56885 4.24645 0
M  V30 514 H 46.8793 3.90612 4.70353 0
M  V30 515 H 51.0533 4.84811 4.99932 0
M  V30 516 H 48.6803 5.52196 5.22478 0
M  V30 517 N 50.2554 -1.46986 0.568584 0
M  V30 518 C 51.1874 -2.28233 -0.210337 0
M  V30 519 C 52.2004 -1.37682 -0.868767 0
M  V30 520 O 53.3894 -1.62406 -0.740705 0
M  V30 521 C 50.4894 -3.12293 -1.3163 0
M  V30 522 C 49.6624 -4.30878 -0.7525 0
M  V30 523 C 48.7214 -4.96445 -1.74439 0
M  V30 524 O 47.7474 -5.54482 -1.286 0
M  V30 525 N 48.9494 -4.92171 -3.07812 0
M  V30 526 H 51.7144 -2.95723 0.486648 0
M  V30 527 H 49.2754 -1.56742 0.405409 0
M  V30 528 H 51.2674 -3.53022 -1.97883 0
M  V30 529 H 49.8374 -2.46971 -1.91636 0
M  V30 530 H 49.0574 -3.94104 0.0871128 0
M  V30 531 H 50.3454 -5.07558 -0.35536 0
M  V30 532 H 49.7434 -4.46239 -3.47688 0
M  V30 533 H 48.3004 -5.36884 -3.69592 0
M  V30 534 N 51.7335 -0.305618 -1.54608 0
M  V30 535 C 52.6655 0.602161 -2.21149 0
M  V30 536 C 53.6785 1.09394 -1.20569 0
M  V30 537 O 54.8675 1.0106 -1.47136 0
M  V30 538 C 51.9675 1.83692 -2.84799 0
M  V30 539 C 51.1405 1.48686 -4.11353 0
M  V30 540 C 50.1995 2.57725 -4.58764 0
M  V30 541 O 49.2255 2.22623 -5.23858 0
M  V30 542 N 50.4275 3.88346 -4.31471 0
M  V30 543 H 53.1925 0.0324966 -2.99682 0
M  V30 544 H 50.7535 -0.128021 -1.61393 0
M  V30 545 H 52.7455 2.55994 -3.13448 0
M  V30 546 H 51.3155 2.31486 -2.10078 0
M  V30 547 H 50.5355 0.596269 -3.89664 0
M  V30 548 H 51.8235 1.22842 -4.93748 0
M  V30 549 H 51.2215 4.19671 -3.79331 0
M  V30 550 H 49.7785 4.56932 -4.64818 0
M  V30 551 N 53.2116 1.57565 -0.0334293 0
M  V30 552 C 54.4396 1.9628 0.654347 0
M  V30 553 C 54.8546 0.910138 1.65414 0
M  V30 554 O 54.2116 -0.107595 1.82183 0
M  V30 555 C 54.2626 3.35067 1.35693 0
M  V30 556 O 53.9836 4.36296 0.397191 0
M  V30 557 C 55.4846 3.88439 2.13613 0
M  V30 558 H 52.7046 0.646369 0.180132 0
M  V30 559 H 55.2486 2.04282 -0.0944721 0
M  V30 560 H 53.4036 3.2827 2.05712 0
M  V30 561 H 53.8176 5.1678 0.896597 0
M  V30 562 H 55.2916 4.8788 2.58219 0
M  V30 563 H 55.7686 3.22914 2.97696 0
M  V30 564 H 56.3746 3.98516 1.48543 0
M  V30 565 N 54.6897 -0.239769 1.55765 0
M  V30 566 C 55.9147 -0.988373 1.82335 0
M  V30 567 C 56.3397 -1.77886 0.611421 0
M  V30 568 O 55.6977 -1.75889 -0.439639 0
M  V30 569 C 55.7457 -1.89627 3.06715 0
M  V30 570 O 54.8497 -2.98904 2.84131 0
M  V30 571 H 54.1907 -0.280858 0.601677 0
M  V30 572 H 56.7207 -0.258597 2.02959 0
M  V30 573 H 56.7307 -2.30957 3.36338 0
M  V30 574 H 55.4057 -1.31511 3.9456 0
M  V30 575 H 53.9827 -2.61651 2.65694 0
M  V30 576 N 56.1678 -1.49265 -0.50573 0
M  V30 577 C 57.1178 -1.6198 -1.60457 0
M  V30 578 C 58.1018 -0.47568 -1.53708 0
M  V30 579 O 59.2938 -0.728392 -1.61318 0
M  V30 580 C 56.4228 -1.68526 -2.99089 0
M  V30 581 C 55.5088 -2.885 -3.10852 0
M  V30 582 N 55.8998 -4.12635 -2.92517 0
M  V30 583 C 54.1978 -2.86338 -3.41945 0
M  V30 584 C 54.8988 -4.93258 -3.08337 0
M  V30 585 N 53.8748 -4.26533 -3.37003 0
M  V30 586 H 57.6768 -2.55681 -1.44928 0
M  V30 587 H 55.1908 -1.45972 -0.711752 0
M  V30 588 H 57.1878 -1.75732 -3.78053 0
M  V30 589 H 55.8478 -0.759584 -3.1569 0
M  V30 590 H 56.8588 -4.42689 -2.68787 0
M  V30 591 H 53.5358 -2.03129 -3.64753 0
M  V30 592 H 54.9258 -6.01856 -2.98695 0
M  V30 593 N 57.6459 0.756429 -1.3826 0
M  V30 594 C 58.5759 1.88374 -1.37976 0
M  V30 595 C 59.5569 1.68311 -0.246082 0
M  V30 596 O 60.7419 1.88944 -0.44874 0
M  V30 597 C 57.8719 3.25864 -1.20125 0
M  V30 598 C 56.8259 3.60523 -2.30666 0
M  V30 599 C 56.1519 4.9672 -1.97923 0
M  V30 600 C 57.4519 3.65692 -3.72916 0
M  V30 601 H 59.1459 1.88869 -2.32312 0
M  V30 602 H 56.6919 0.907272 -1.11824 0
M  V30 603 H 58.6449 4.0438 -1.18552 0
M  V30 604 H 57.3689 3.25841 -0.222498 0
M  V30 605 H 56.0279 2.84324 -2.3142 0
M  V30 606 H 55.6759 4.93253 -0.985393 0
M  V30 607 H 55.3759 5.20878 -2.71955 0
M  V30 608 H 56.8999 5.77618 -1.97964 0
M  V30 609 H 58.3139 4.34328 -3.74208 0
M  V30 610 H 56.7109 4.01358 -4.4613 0
M  V30 611 H 57.7809 2.65987 -4.05436 0
M  V30 612 N 59.124 1.23083 0.984299 0
M  V30 613 C 60.349 1.088 1.76571 0
M  V30 614 C 60.774 -0.356657 1.84688 0
M  V30 615 O 60.132 -1.25788 1.30565 0
M  V30 616 C 60.18 1.71371 3.17277 0
M  V30 617 O 59.284 0.973213 4.00752 0
M  V30 618 H 58.625 0.381599 0.543395 0
M  V30 619 H 61.155 1.63057 1.23587 0
M  V30 620 H 61.165 1.76449 3.67872 0
M  V30 621 H 59.84 2.76493 3.10684 0
M  V30 622 H 58.417 0.999078 3.59267 0
M  V30 623 N 60.6021 -1.18246 1.0419 0
M  V30 624 C 61.8271 -1.92736 0.765996 0
M  V30 625 C 62.2521 -1.75728 -0.67091 0
M  V30 626 O 61.6101 -1.06825 -1.46486 0
M  V30 627 C 61.6581 -3.42148 1.13875 0
M  V30 628 O 60.7621 -4.11548 0.264954 0
M  V30 629 H 60.1031 -0.601238 0.281797 0
M  V30 630 H 62.6331 -1.49942 1.39207 0
M  V30 631 H 62.6431 -3.92858 1.1012 0
M  V30 632 H 61.3181 -3.53848 2.18551 0
M  V30 633 H 59.8951 -3.71137 0.362226 0
M  V30 634 N 62.0802 -0.821533 -1.34494 0
M  V30 635 C 63.3102 -0.421272 -2.02259 0
M  V30 636 C 63.7182 0.977047 -1.6202 0
M  V30 637 O 63.0612 1.64348 -0.820703 0
M  V30 638 C 63.1232 -0.44231 -3.56769 0
M  V30 639 C 62.7872 -1.79372 -4.20327 0
M  V30 640 C 63.7842 -2.75435 -4.40944 0
M  V30 641 C 61.4692 -2.08182 -4.57127 0
M  V30 642 C 63.4632 -3.98482 -4.97484 0
M  V30 643 C 61.1502 -3.31489 -5.13379 0
M  V30 644 C 62.1482 -4.26457 -5.33501 0
M  V30 645 O 61.8362 -5.47585 -5.88562 0
M  V30 646 H 61.5682 -0.167473 -0.654927 0
M  V30 647 H 64.1222 -1.11073 -1.72777 0
M  V30 648 H 62.3522 0.303836 -3.85505 0
M  V30 649 H 64.0412 -0.0622925 -4.05852 0
M  V30 650 H 64.8072 -2.54473 -4.12878 0
M  V30 651 H 60.6862 -1.35066 -4.4077 0
M  V30 652 H 64.2302 -4.72618 -5.13106 0
M  V30 653 H 60.1272 -3.52316 -5.40873 0
M  V30 654 H 60.8952 -5.49086 -6.06998 0
M  V30 655 N 63.5583 1.46682 -0.576371 0
M  V30 656 C 64.4683 2.34032 0.163141 0
M  V30 657 C 65.4843 1.49367 0.892501 0
M  V30 658 O 66.6603 1.82252 0.857106 0
M  V30 659 C 63.7253 3.26435 1.16795 0
M  V30 660 C 62.7863 4.26998 0.443944 0
M  V30 661 C 62.0193 5.14986 1.40088 0
M  V30 662 O 62.2423 5.05785 2.637 0
M  V30 663 O 61.1763 5.94906 0.914917 0
M  V30 664 H 65.0023 2.98607 -0.55388 0
M  V30 665 H 62.5873 1.45554 -0.336821 0
M  V30 666 H 64.4693 3.83459 1.74748 0
M  V30 667 H 63.1443 2.64465 1.86655 0
M  V30 668 H 62.0513 3.7368 -0.177271 0
M  V30 669 H 63.3843 4.91736 -0.213566 0
M  V30 670 N 65.0364 0.313813 1.54444 0
M  V30 671 C 66.2854 -0.292519 1.99568 0
M  V30 672 C 66.5984 -1.54011 1.20582 0
M  V30 673 O 67.8044 -2.22183 1.56035 0
M  V30 674 C 66.2604 -0.571752 3.55329 0
M  V30 675 C 65.8684 0.658229 4.43138 0
M  V30 676 C 67.6124 -1.13857 4.08946 0
M  V30 677 C 65.5194 0.351439 5.90355 0
M  V30 678 H 64.4494 -0.113079 0.745472 0
M  V30 679 H 67.1004 0.424518 1.78522 0
M  V30 680 H 65.4824 -1.34872 3.72325 0
M  V30 681 H 66.6564 1.43403 4.37918 0
M  V30 682 H 64.9714 1.14458 4.0036 0
M  V30 683 H 67.5684 -1.38257 5.16516 0
M  V30 684 H 67.9114 -2.08489 3.6033 0
M  V30 685 H 68.4444 -0.423015 3.95544 0
M  V30 686 H 65.1834 1.26667 6.43145 0
M  V30 687 H 64.7034 -0.386842 5.98551 0
M  V30 688 H 66.3824 -0.0423134 6.46986 0
M  V30 689 N 66.5145 -1.57545 0.0417849 0
M  V30 690 C 67.7635 -1.91494 -0.633492 0
M  V30 691 C 68.0765 -0.921084 -1.72556 0
M  V30 692 O 69.2825 -1.15228 -2.45835 0
M  V30 693 C 67.7385 -3.40072 -1.17808 0
M  V30 694 C 67.3465 -4.47843 -0.118633 0
M  V30 695 C 69.0905 -3.8307 -1.82915 0
M  V30 696 C 66.9975 -5.87529 -0.675578 0
M  V30 697 H 65.9275 -0.714653 -0.24039 0
M  V30 698 H 68.5785 -1.83175 0.109148 0
M  V30 699 H 66.9605 -3.43364 -1.97274 0
M  V30 700 H 68.1345 -4.56128 0.654494 0
M  V30 701 H 66.4495 -4.14128 0.434414 0
M  V30 702 H 69.0465 -4.84794 -2.25563 0
M  V30 703 H 69.3895 -3.1881 -2.67705 0
M  V30 704 H 69.9225 -3.82255 -1.10119 0
M  V30 705 H 66.6615 -6.55362 0.134475 0
M  V30 706 H 66.1815 -5.82824 -1.4169 0
M  V30 707 H 67.8605 -6.36491 -1.1614 0
M  V30 708 N 67.9926 0.231505 -1.5589 0
M  V30 709 C 69.2206 0.974505 -1.82513 0
M  V30 710 C 69.6356 1.78344 -0.619591 0
M  V30 711 O 68.9926 1.77792 0.411848 0
M  V30 712 C 69.0436 1.90007 -3.07538 0
M  V30 713 O 68.7646 1.12385 -4.2344 0
M  V30 714 C 70.2656 2.75779 -3.47075 0
M  V30 715 H 67.4856 0.286065 -0.606966 0
M  V30 716 H 70.0296 0.249739 -2.02969 0
M  V30 717 H 68.1846 2.57891 -2.89086 0
M  V30 718 H 68.5986 1.75125 -4.944 0
M  V30 719 H 70.0726 3.36443 -4.37619 0
M  V30 720 H 70.5496 3.47672 -2.68367 0
M  V30 721 H 71.1556 2.13323 -3.67931 0
M  V30 722 N 69.4707 1.49531 0.497807 0
M  V30 723 C 70.8817 1.52344 1.07927 0
M  V30 724 C 71.2327 0.311469 1.93712 0
M  V30 725 O 70.3577 -0.578405 2.08527 0
M  V30 726 C 70.9527 2.76062 1.96405 0
M  V30 727 C 69.5117 2.81643 2.49709 0
M  V30 728 C 68.6587 2.46299 1.27404 0
M  V30 729 H 71.6097 1.56182 0.281576 0
M  V30 730 H 71.6307 2.56405 2.81135 0
M  V30 731 H 71.1427 3.64254 1.33943 0
M  V30 732 H 69.2437 1.97739 3.15801 0
M  V30 733 H 69.3567 3.83891 2.86643 0
M  V30 734 H 67.7207 1.98148 1.60029 0
M  V30 735 H 68.5037 3.36769 0.66645 0
M  V30 736 N 70.9488 -0.749086 1.3866 0
M  V30 737 C 72.1948 -1.50959 1.36319 0
M  V30 738 C 72.5498 -1.92347 -0.0452451 0
M  V30 739 O 71.8428 -1.6289 -1.00884 0
M  V30 740 C 72.0368 -2.7712 2.25697 0
M  V30 741 C 71.8658 -2.48067 3.7509 0
M  V30 742 C 70.6358 -2.41062 4.44091 0
M  V30 743 C 72.8338 -2.14544 4.67414 0
M  V30 744 N 70.8158 -2.04331 5.78897 0
M  V30 745 C 72.1868 -1.88141 5.90765 0
M  V30 746 C 74.2418 -2.00892 4.55573 0
M  V30 747 C 72.9448 -1.49463 7.036 0
M  V30 748 C 74.9708 -1.63616 5.68317 0
M  V30 749 C 74.3328 -1.38088 6.90732 0
M  V30 750 H 70.4318 -0.551804 0.554108 0
M  V30 751 H 73.0158 -0.871886 1.74087 0
M  V30 752 H 71.1868 -3.38693 1.9011 0
M  V30 753 H 72.9188 -3.4321 2.1445 0
M  V30 754 H 69.6738 -2.57685 3.9736 0
M  V30 755 H 70.0978 -1.88598 6.502 0
M  V30 756 H 74.7398 -2.19301 3.61479 0
M  V30 757 H 72.4578 -1.29794 7.97608 0
M  V30 758 H 76.0438 -1.53678 5.61137 0
M  V30 759 H 74.9238 -1.09674 7.76493 0
M  V30 760 N 72.4269 -1.23603 -0.977757 0
M  V30 761 C 73.8429 -0.999251 -1.24447 0
M  V30 762 C 74.0429 0.298053 -1.99283 0
M  V30 763 O 73.0989 1.01681 -2.31122 0
M  V30 764 C 74.4119 -2.20784 -2.04144 0
M  V30 765 C 75.9599 -2.25303 -2.17273 0
M  V30 766 C 76.4349 -3.45755 -3.00362 0
M  V30 767 N 77.9259 -3.4601 -3.07947 0
M  V30 768 C 78.6609 -4.35868 -3.72568 0
M  V30 769 N 78.1569 -5.35966 -4.38991 0
M  V30 770 N 79.9499 -4.23605 -3.6948 0
M  V30 771 H 72.1009 -2.06986 -0.476483 0
M  V30 772 H 74.3639 -0.907801 -0.273134 0
M  V30 773 H 74.0699 -3.14945 -1.56533 0
M  V30 774 H 73.9439 -2.22085 -3.04891 0
M  V30 775 H 76.3309 -1.3168 -2.64092 0
M  V30 776 H 76.4119 -2.28033 -1.15907 0
M  V30 777 H 76.0559 -4.39687 -2.5424 0
M  V30 778 H 75.9859 -3.40266 -4.01904 0
M  V30 779 H 78.4769 -2.73588 -2.60688 0
M  V30 780 H 78.7899 -6.00783 -4.86086 0
M  V30 781 H 77.1349 -5.39863 -4.37691 0
M  V30 782 H 80.3259 -3.44647 -3.16759 0
M  V30 783 H 80.4989 -4.93836 -4.1956 0
M  V30 784 N 73.905 1.17692 -1.04816 0
M  V30 785 C 74.835 2.23777 -0.666791 0
M  V30 786 C 75.816 1.66796 0.33361 0
M  V30 787 O 77.001 1.93039 0.212042 0
M  V30 788 C 74.131 3.47281 -0.0367933 0
M  V30 789 C 73.085 4.17059 -0.961546 0
M  V30 790 C 72.411 5.34342 -0.195626 0
M  V30 791 C 73.711 4.69713 -2.28402 0
M  V30 792 H 75.405 2.55933 -1.55367 0
M  V30 793 H 72.951 1.23019 -0.748484 0
M  V30 794 H 74.904 4.20706 0.241775 0
M  V30 795 H 73.628 3.14381 0.885004 0
M  V30 796 H 72.287 3.45541 -1.22462 0
M  V30 797 H 71.935 4.97692 0.728816 0
M  V30 798 H 71.635 5.81966 -0.811775 0
M  V30 799 H 73.159 6.10553 0.0757473 0
M  V30 800 H 74.573 5.34794 -2.06563 0
M  V30 801 H 72.97 5.279 -2.8538 0
M  V30 802 H 74.04 3.86726 -2.92525 0
M  V30 803 N 75.3831 0.828654 1.34056 0
M  V30 804 C 76.6111 0.43262 2.02326 0
M  V30 805 C 77.0261 -0.963147 1.62385 0
M  V30 806 O 76.3831 -1.62425 0.832121 0
M  V30 807 C 76.4341 0.53182 3.57567 0
M  V30 808 O 76.1551 1.87258 3.96063 0
M  V30 809 C 77.6561 0.131422 4.43105 0
M  V30 810 H 74.8761 0.172923 0.648335 0
M  V30 811 H 77.4201 1.1184 1.71208 0
M  V30 812 H 75.5751 -0.105938 3.87255 0
M  V30 813 H 75.9891 1.85087 4.90758 0
M  V30 814 H 77.4631 0.251904 5.51425 0
M  V30 815 H 77.9401 -0.925645 4.29335 0
M  V30 816 H 78.5461 0.743207 4.18756 0
M  V30 817 N 76.8612 -1.46375 0.584142 0
M  V30 818 C 78.2772 -1.57694 0.245929 0
M  V30 819 C 78.4772 -1.57903 -1.25175 0
M  V30 820 O 77.5332 -1.49676 -2.03355 0
M  V30 821 C 78.8462 -2.87028 0.896402 0
M  V30 822 C 80.3942 -3.00662 0.870127 0
M  V30 823 C 80.8692 -4.32734 1.50017 0
M  V30 824 N 82.3602 -4.39436 1.46458 0
M  V30 825 C 83.0952 -5.40248 1.92144 0
M  V30 826 N 82.5912 -6.47726 2.4581 0
M  V30 827 N 84.3842 -5.31459 1.83052 0
M  V30 828 H 76.5352 -1.44483 1.55687 0
M  V30 829 H 78.7982 -0.689291 0.650831 0
M  V30 830 H 78.5042 -2.9269 1.95002 0
M  V30 831 H 78.3782 -3.75014 0.405486 0
M  V30 832 H 80.7652 -2.94581 -0.174871 0
M  V30 833 H 80.8462 -2.14148 1.39908 0
M  V30 834 H 80.4902 -4.39573 2.54437 0
M  V30 835 H 80.4202 -5.18025 0.946432 0
M  V30 836 H 82.9112 -3.62367 1.07231 0
M  V30 837 H 83.2242 -7.20863 2.78525 0
M  V30 838 H 81.5692 -6.48542 2.49836 0
M  V30 839 H 84.7602 -4.46396 1.40883 0
M  V30 840 H 84.9332 -6.09881 2.18973 0
M  V30 841 N 78.3393 -0.321999 -1.54275 0
M  V30 842 C 79.2493 0.553631 -2.27974 0
M  V30 843 C 80.2653 1.13054 -1.32268 0
M  V30 844 O 81.4413 1.15084 -1.6528 0
M  V30 845 C 78.5063 1.69927 -3.02201 0
M  V30 846 C 77.5673 1.15433 -4.1349 0
M  V30 847 C 76.8003 2.24537 -4.84168 0
M  V30 848 O 77.0233 3.44852 -4.5435 0
M  V30 849 O 75.9573 1.90044 -5.7111 0
M  V30 850 H 79.7833 -0.0448345 -3.03667 0
M  V30 851 H 77.3683 -0.0877418 -1.49142 0
M  V30 852 H 79.2503 2.3663 -3.48689 0
M  V30 853 H 77.9253 2.28395 -2.29385 0
M  V30 854 H 76.8323 0.452436 -3.71354 0
M  V30 855 H 78.1653 0.614805 -4.88345 0
M  V30 856 N 79.8174 1.5752 -0.0501392 0
M  V30 857 C 81.2334 1.56631 0.306402 0
M  V30 858 C 81.4334 1.0577 1.71508 0
M  V30 859 O 80.4894 0.713837 2.422 0
M  V30 860 C 81.8024 3.00393 0.135811 0
M  V30 861 C 83.3504 3.12315 0.206993 0
M  V30 862 C 83.8254 4.57954 0.064944 0
M  V30 863 N 85.3164 4.63041 0.121254 0
M  V30 864 C 86.0514 5.73389 0.0354381 0
M  V30 865 N 85.5474 6.92724 -0.102666 0
M  V30 866 N 87.3404 5.62026 0.090946 0
M  V30 867 H 79.4914 1.88903 -0.971046 0
M  V30 868 H 81.7544 0.869876 -0.376855 0
M  V30 869 H 81.4604 3.41635 -0.835384 0
M  V30 870 H 81.3344 3.66373 0.897275 0
M  V30 871 H 83.7214 2.70973 1.16866 0
M  V30 872 H 83.8024 2.49016 -0.585208 0
M  V30 873 H 83.4464 4.99981 -0.893394 0
M  V30 874 H 83.3764 5.19258 0.876277 0
M  V30 875 H 85.8674 3.77216 0.227284 0
M  V30 876 H 86.1804 7.72633 -0.160882 0
M  V30 877 H 84.5254 6.94864 -0.137737 0
M  V30 878 H 87.7164 4.67684 0.197388 0
M  V30 879 H 87.8894 6.47997 0.0206089 0
M  V30 880 N 81.2955 -0.223234 1.56011 0
M  V30 881 C 82.7115 -0.572856 1.48965 0
M  V30 882 C 82.9115 -1.87225 0.74492 0
M  V30 883 O 81.9675 -2.50899 0.283896 0
M  V30 884 C 83.2805 -0.653646 2.9351 0
M  V30 885 C 84.8285 -0.744386 3.0402 0
M  V30 886 C 85.3035 -0.856535 4.49919 0
M  V30 887 N 86.7945 -0.9208 4.53955 0
M  V30 888 C 87.5295 -1.02726 5.64123 0
M  V30 889 N 87.0255 -1.09777 6.84047 0
M  V30 890 N 88.8185 -1.06226 5.51971 0
M  V30 891 H 80.9695 0.629462 2.02858 0
M  V30 892 H 83.2325 0.220621 0.921971 0
M  V30 893 H 82.9385 0.231518 3.50937 0
M  V30 894 H 82.8125 -1.51781 3.45315 0
M  V30 895 H 85.1995 -1.61999 2.46658 0
M  V30 896 H 85.2805 0.14541 2.55386 0
M  V30 897 H 84.9245 0.0146069 5.07898 0
M  V30 898 H 84.8545 -1.76172 4.96257 0
M  V30 899 H 87.3455 -0.876694 3.6759 0
M  V30 900 H 87.6585 -1.17872 7.63758 0
M  V30 901 H 86.0035 -1.06693 6.86762 0
M  V30 902 H 89.1945 -1.00382 4.5721 0
M  V30 903 H 89.3675 -1.14177 6.37862 0
M  V30 904 N 82.7736 -1.49793 -0.48987 0
M  V30 905 C 83.6836 -1.70036 -1.61632 0
M  V30 906 C 84.6996 -0.583102 -1.63939 0
M  V30 907 O 85.8756 -0.859169 -1.82154 0
M  V30 908 C 82.9406 -1.77277 -2.97949 0
M  V30 909 C 82.0016 -3.00918 -3.06181 0
M  V30 910 C 81.2346 -3.07804 -4.35996 0
M  V30 911 O 81.4576 -2.21982 -5.25433 0
M  V30 912 O 80.3916 -4.00369 -4.49431 0
M  V30 913 H 84.2176 -2.65486 -1.47482 0
M  V30 914 H 81.8026 -1.33666 -0.667362 0
M  V30 915 H 83.6846 -1.84329 -3.78947 0
M  V30 916 H 82.3596 -0.850076 -3.12339 0
M  V30 917 H 81.2666 -2.99377 -2.2433 0
M  V30 918 H 82.5996 -3.92704 -2.96723 0
M  V30 919 N 84.2517 0.741722 -1.39055 0
M  V30 920 C 85.2147 1.83733 -1.37021 0
M  V30 921 C 86.2147 1.58542 -0.268534 0
M  V30 922 O 87.4047 1.66067 -0.526076 0
M  V30 923 C 84.5367 3.2141 -1.13617 0
M  V30 924 H 85.7297 1.86941 -2.34506 0
M  V30 925 H 83.2827 0.944676 -1.24521 0
M  V30 926 H 84.0177 3.23865 -0.167863 0
M  V30 927 H 83.8027 3.4109 -1.93391 0
M  V30 928 H 85.2927 4.01477 -1.14918 0
M  V30 929 N 85.7298 1.2412 0.971189 0
M  V30 930 C 87.1408 1.07236 1.52831 0
M  V30 931 C 87.4918 -0.357352 1.92918 0
M  V30 932 O 86.6168 -1.24528 1.76979 0
M  V30 933 C 87.2118 1.94043 2.77728 0
M  V30 934 C 85.7708 1.81394 3.29808 0
M  V30 935 C 84.9178 1.89189 2.02738 0
M  V30 936 H 87.8688 1.37648 0.789864 0
M  V30 937 H 87.8898 1.47066 3.5093 0
M  V30 938 H 87.4018 2.98093 2.4852 0
M  V30 939 H 85.5028 0.801634 3.63874 0
M  V30 940 H 85.6158 2.65294 3.98944 0
M  V30 941 H 83.9798 1.32877 2.17292 0
M  V30 942 H 84.7628 2.94812 1.759 0
M  V30 943 N 87.2079 -1.17134 1.05439 0
M  V30 944 C 88.6239 -1.39454 0.776201 0
M  V30 945 C 88.8239 -1.91454 -0.628307 0
M  V30 946 O 87.8799 -2.10777 -1.39031 0
M  V30 947 C 89.1929 -2.38305 1.83388 0
M  V30 948 C 90.7409 -2.52006 1.85639 0
M  V30 949 C 91.2159 -3.54133 2.90437 0
M  V30 950 N 92.7069 -3.61653 2.89415 0
M  V30 951 C 93.4419 -4.4044 3.67152 0
M  V30 952 N 92.9379 -5.22721 4.54681 0
M  V30 953 N 94.7309 -4.35337 3.55581 0
M  V30 954 H 86.8819 -0.817134 1.96053 0
M  V30 955 H 89.1449 -0.421626 0.849079 0
M  V30 956 H 88.8509 -2.07173 2.84204 0
M  V30 957 H 88.7249 -3.37841 1.67761 0
M  V30 958 H 91.1119 -2.82447 0.85486 0
M  V30 959 H 91.1929 -1.52537 2.05344 0
M  V30 960 H 90.8369 -3.24431 3.90777 0
M  V30 961 H 90.7669 -4.53313 2.67983 0
M  V30 962 H 93.2579 -3.02909 2.25952 0
M  V30 963 H 93.5709 -5.80027 5.10674 0
M  V30 964 H 91.9159 -5.22093 4.58741 0
M  V30 965 H 95.1069 -3.70112 2.86592 0
M  V30 966 H 95.2799 -4.96494 4.1641 0
M  V30 967 N 88.686 -0.835752 -1.33615 0
M  V30 968 C 90.097 -0.487099 -1.80234 0
M  V30 969 C 90.448 0.993627 -1.69179 0
M  V30 970 O 89.573 1.77403 -1.23924 0
M  V30 971 C 90.168 -0.877385 -3.27242 0
M  V30 972 C 88.727 -0.580915 -3.7189 0
M  V30 973 C 87.874 -1.0874 -2.5509 0
M  V30 974 H 90.825 -1.02474 -1.2118 0
M  V30 975 H 90.846 -0.186195 -3.80044 0
M  V30 976 H 90.358 -1.95512 -3.35256 0
M  V30 977 H 88.459 0.486881 -3.69405 0
M  V30 978 H 88.572 -1.13396 -4.65487 0
M  V30 979 H 86.936 -0.508392 -2.49575 0
M  V30 980 H 87.719 -2.17184 -2.65868 0
M  V30 981 N 90.1641 1.46063 -0.591896 0
M  V30 982 C 91.3941 2.06418 -0.0867676 0
M  V30 983 C 91.8021 1.43975 1.22751 0
M  V30 984 O 91.1451 0.542531 1.75506 0
M  V30 985 C 91.2071 3.59213 0.143725 0
M  V30 986 C 90.8711 4.439 -1.08635 0
M  V30 987 C 91.8681 4.79864 -2.00067 0
M  V30 988 C 89.5531 4.84896 -1.31077 0
M  V30 989 C 91.5471 5.55661 -3.12282 0
M  V30 990 C 89.2341 5.6045 -2.43596 0
M  V30 991 C 90.2321 5.95747 -3.34027 0
M  V30 992 O 89.9201 6.69772 -4.4459 0
M  V30 993 H 89.6521 0.673443 -0.0587447 0
M  V30 994 H 92.2061 1.88539 -0.814994 0
M  V30 995 H 90.4361 3.75433 0.926668 0
M  V30 996 H 92.1251 4.01463 0.5985 0
M  V30 997 H 92.8911 4.48763 -1.83947 0
M  V30 998 H 88.7701 4.56867 -0.61594 0
M  V30 999 H 92.3141 5.8313 -3.82891 0
M  V30 1000 H 88.2111 5.90965 -2.59674 0
M  V30 1001 H 88.9791 6.88207 -4.43073 0
M  V30 1002 N 91.6422 0.330177 1.54103 0
M  V30 1003 C 92.8672 -0.274893 2.0557 0
M  V30 1004 C 93.2922 -1.44487 1.20437 0
M  V30 1005 O 92.6502 -1.80021 0.214991 0
M  V30 1006 C 92.6982 -0.68079 3.54115 0
M  V30 1007 O 91.8022 -1.7824 3.71893 0
M  V30 1008 H 91.1432 -0.0483849 0.662235 0
M  V30 1009 H 93.6732 0.480508 1.98878 0
M  V30 1010 H 93.6832 -0.961635 3.96505 0
M  V30 1011 H 92.3582 0.174903 4.15532 0
M  V30 1012 H 90.9352 -1.49985 3.41407 0
M  V30 1013 N 93.1203 -1.57491 0.0584922 0
M  V30 1014 C 94.0673 -2.11958 -0.913376 0
M  V30 1015 C 95.0373 -1.02875 -1.30407 0
M  V30 1016 O 96.2223 -1.30464 -1.39226 0
M  V30 1017 C 93.3623 -2.67497 -2.18035 0
M  V30 1018 C 92.4753 -3.90691 -1.84349 0
M  V30 1019 C 91.6103 -4.3452 -3.05559 0
M  V30 1020 C 90.6493 -5.50395 -2.67827 0
M  V30 1021 N 89.7863 -5.89244 -3.81754 0
M  V30 1022 H 94.6263 -2.94704 -0.442017 0
M  V30 1023 H 92.1633 -1.45643 -0.206545 0
M  V30 1024 H 94.1213 -2.978 -2.92183 0
M  V30 1025 H 92.7513 -1.87537 -2.62735 0
M  V30 1026 H 91.8033 -3.66934 -1.00319 0
M  V30 1027 H 93.1153 -4.7489 -1.5258 0
M  V30 1028 H 92.2693 -4.66414 -3.87998 0
M  V30 1029 H 91.0083 -3.49147 -3.40511 0
M  V30 1030 H 90.0133 -5.18165 -1.83806 0
M  V30 1031 H 91.2383 -6.3749 -2.34059 0
M  V30 1032 H 89.1843 -5.06823 -4.16493 0
M  V30 1033 H 89.1013 -6.68151 -3.53708 0
M  V30 1034 H 90.3693 -6.25756 -4.64811 0
M  V30 1035 N 94.5984 0.214957 -1.56127 0
M  V30 1036 C 95.5304 1.29004 -1.89448 0
M  V30 1037 C 96.5434 1.42716 -0.783326 0
M  V30 1038 O 97.7324 1.43496 -1.06166 0
M  V30 1039 C 94.8324 2.66482 -2.09381 0
M  V30 1040 C 94.0054 2.74633 -3.40434 0
M  V30 1041 C 93.0644 3.9317 -3.49719 0
M  V30 1042 O 92.0904 3.812 -4.227 0
M  V30 1043 N 93.2924 5.07765 -2.81346 0
M  V30 1044 H 96.0574 1.00743 -2.82261 0
M  V30 1045 H 93.6184 0.40497 -1.56753 0
M  V30 1046 H 95.6104 3.44173 -2.12901 0
M  V30 1047 H 94.1804 2.87314 -1.23163 0
M  V30 1048 H 93.4004 1.83368 -3.48955 0
M  V30 1049 H 94.6884 2.77054 -4.26754 0
M  V30 1050 H 94.0864 5.20386 -2.21843 0
M  V30 1051 H 92.6434 5.83474 -2.90519 0
M  V30 1052 N 96.0765 1.50051 0.48192 0
M  V30 1053 C 97.3225 1.60736 1.2366 0
M  V30 1054 C 97.6555 0.301786 1.91841 0
M  V30 1055 O 96.9305 -0.696025 1.8162 0
M  V30 1056 C 97.2135 2.78009 2.28874 0
M  V30 1057 C 97.0665 4.18416 1.65069 0
M  V30 1058 C 98.3855 2.90867 3.30279 0
M  V30 1059 H 95.5045 0.585031 0.448228 0
M  V30 1060 H 98.1465 1.82402 0.531946 0
M  V30 1061 H 96.2965 2.59667 2.88973 0
M  V30 1062 H 97.9685 4.48322 1.0865 0
M  V30 1063 H 96.2115 4.23177 0.954148 0
M  V30 1064 H 96.8825 4.96381 2.41474 0
M  V30 1065 H 99.3585 3.07623 2.80191 0
M  V30 1066 H 98.2345 3.74566 4.01238 0
M  V30 1067 H 98.4955 2.01021 3.93755 0
M  V30 1068 N 97.5546 -0.734337 1.39446 0
M  V30 1069 C 98.7796 -1.52866 1.40167 0
M  V30 1070 C 99.2046 -1.881 -0.00171513 0
M  V30 1071 O 98.5626 -1.51957 -0.988879 0
M  V30 1072 C 98.6106 -2.79235 2.28167 0
M  V30 1073 O 97.7146 -3.75185 1.71201 0
M  V30 1074 H 97.0556 -0.461618 0.477289 0
M  V30 1075 H 99.5856 -0.905949 1.8345 0
M  V30 1076 H 99.5956 -3.27963 2.42702 0
M  V30 1077 H 98.2706 -2.52923 3.30156 0
M  V30 1078 H 96.8476 -3.33958 1.65912 0
M  V30 1079 N 99.0327 -1.24633 -0.964593 0
M  V30 1080 C 100.263 -1.11339 -1.74032 0
M  V30 1081 C 100.671 0.336593 -1.86182 0
M  V30 1082 O 100.014 1.24389 -1.35178 0
M  V30 1083 C 100.076 -1.68284 -3.1768 0
M  V30 1084 C 99.7397 -3.17196 -3.28992 0
M  V30 1085 C 100.737 -4.14308 -3.14078 0
M  V30 1086 C 98.4217 -3.57215 -3.53133 0
M  V30 1087 C 100.416 -5.4942 -3.23135 0
M  V30 1088 C 98.1027 -4.92468 -3.61827 0
M  V30 1089 C 99.1007 -5.8838 -3.46841 0
M  V30 1090 O 98.7887 -7.21173 -3.55197 0
M  V30 1091 H 98.5207 -0.389551 -0.552472 0
M  V30 1092 H 101.075 -1.65282 -1.21946 0
M  V30 1093 H 99.3047 -1.08777 -3.71085 0
M  V30 1094 H 100.994 -1.50234 -3.77074 0
M  V30 1095 H 101.76 -3.84731 -2.95308 0
M  V30 1096 H 97.6387 -2.83063 -3.63863 0
M  V30 1097 H 101.183 -6.24263 -3.11355 0
M  V30 1098 H 97.0797 -5.21714 -3.80111 0
M  V30 1099 H 97.8477 -7.29135 -3.71892 0
M  V30 1100 N 100.511 1.16574 -1.06058 0
M  V30 1101 C 101.757 1.87324 -0.777022 0
M  V30 1102 C 102.09 1.81351 0.694645 0
M  V30 1103 O 101.365 1.22753 1.50871 0
M  V30 1104 C 101.648 3.36991 -1.26922 0
M  V30 1105 C 101.501 3.51667 -2.80447 0
M  V30 1106 C 102.82 4.3131 -0.87521 0
M  V30 1107 H 99.9388 0.680191 -0.28374 0
M  V30 1108 H 102.581 1.37036 -1.3161 0
M  V30 1109 H 100.731 3.79949 -0.81063 0
M  V30 1110 H 102.403 3.17664 -3.34495 0
M  V30 1111 H 100.646 2.93656 -3.19294 0
M  V30 1112 H 101.317 4.56766 -3.0995 0
M  V30 1113 H 103.793 3.9624 -1.27014 0
M  V30 1114 H 102.669 5.34545 -1.2471 0
M  V30 1115 H 102.93 4.41552 0.220071 0
M  V30 1116 N 101.989 0.842826 1.3317 0
M  V30 1117 C 103.238 0.436738 1.96915 0
M  V30 1118 C 103.551 -1.01025 1.67491 0
M  V30 1119 O 104.757 -1.5212 2.24881 0
M  V30 1120 C 103.213 0.730021 3.52418 0
M  V30 1121 C 102.821 2.19195 3.90714 0
M  V30 1122 C 104.565 0.391076 4.22695 0
M  V30 1123 C 102.472 2.42907 5.39212 0
M  V30 1124 H 101.402 0.15958 0.736919 0
M  V30 1125 H 104.053 1.03196 1.51733 0
M  V30 1126 H 102.435 0.0643755 3.95948 0
M  V30 1127 H 103.609 2.8984 3.58231 0
M  V30 1128 H 101.924 2.49425 3.33431 0
M  V30 1129 H 104.521 0.545817 5.31907 0
M  V30 1130 H 104.864 -0.666294 4.10933 0
M  V30 1131 H 105.397 1.01212 3.84709 0
M  V30 1132 H 102.136 3.47224 5.55982 0
M  V30 1133 H 101.656 1.76827 5.73142 0
M  V30 1134 H 103.335 2.2626 6.06148 0
M  V30 1135 N 103.467 -1.45747 0.599634 0
M  V30 1136 C 104.399 -2.28628 -0.161879 0
M  V30 1137 C 105.412 -1.39494 -0.839367 0
M  V30 1138 O 106.601 -1.63941 -0.706089 0
M  V30 1139 C 103.701 -3.15014 -1.24976 0
M  V30 1140 C 102.874 -4.32378 -0.660935 0
M  V30 1141 C 101.933 -5.00033 -1.63869 0
M  V30 1142 O 100.959 -5.57085 -1.1681 0
M  V30 1143 N 102.161 -4.98589 -2.97303 0
M  V30 1144 H 104.926 -2.94624 0.549265 0
M  V30 1145 H 102.487 -1.55847 0.438565 0
M  V30 1146 H 104.479 -3.5714 -1.9035 0
M  V30 1147 H 103.049 -2.5098 -1.86354 0
M  V30 1148 H 102.269 -3.9383 0.170688 0
M  V30 1149 H 103.557 -5.08197 -0.247619 0
M  V30 1150 H 102.955 -4.53514 -3.38145 0
M  V30 1151 H 101.512 -5.44603 -3.58121 0
M  V30 1152 N 104.945 -0.338344 -1.53925 0
M  V30 1153 C 105.908 0.508299 -2.23493 0
M  V30 1154 C 106.908 1.03175 -1.23335 0
M  V30 1155 O 108.098 0.921826 -1.47811 0
M  V30 1156 C 105.23 1.70754 -2.95052 0
M  V30 1157 H 106.423 -0.100058 -2.99733 0
M  V30 1158 H 103.976 -0.0896198 -1.56043 0
M  V30 1159 H 104.711 2.35474 -2.22986 0
M  V30 1160 H 104.496 1.33946 -3.68512 0
M  V30 1161 H 105.986 2.30818 -3.48013 0
M  V30 1162 N 106.423 1.57458 -0.0668435 0
M  V30 1163 C 107.333 2.15937 0.916975 0
M  V30 1164 C 108.349 1.12123 1.33058 0
M  V30 1165 O 109.525 1.44366 1.40429 0
M  V30 1166 C 106.59 2.70547 2.16807 0
M  V30 1167 C 105.651 3.89215 1.81135 0
M  V30 1168 C 104.884 4.41211 3.0028 0
M  V30 1169 O 105.107 3.92225 4.14144 0
M  V30 1170 O 104.041 5.32605 2.80384 0
M  V30 1171 H 107.867 3.00354 0.449561 0
M  V30 1172 H 105.452 1.48584 0.155949 0
M  V30 1173 H 107.334 3.0557 2.90181 0
M  V30 1174 H 106.009 1.89192 2.62656 0
M  V30 1175 H 104.916 3.59054 1.05028 0
M  V30 1176 H 106.249 4.71848 1.40073 0
M  V30 1177 N 107.901 -0.206675 1.56239 0
M  V30 1178 C 109.149 -0.927007 1.79586 0
M  V30 1179 C 109.47 -1.8427 0.637929 0
M  V30 1180 O 108.74 -1.92849 -0.344398 0
M  V30 1181 H 107.32 -0.345292 0.662407 0
M  V30 1182 H 109.982 -0.21496 1.93711 0
M  V30 1183 H 109.078 -1.52501 2.72305 0
M  V30 1184 N 109.379 -1.50304 -0.473955 0
M  V30 1185 C 110.326 -1.68959 -1.57231 0
M  V30 1186 C 111.296 -0.530899 -1.57387 0
M  V30 1187 O 112.481 -0.761133 -1.74961 0
M  V30 1188 C 109.621 -1.7871 -2.95223 0
M  V30 1189 C 108.734 -3.06061 -3.04878 0
M  V30 1190 C 107.869 -3.06626 -4.33767 0
M  V30 1191 C 106.908 -4.28443 -4.37154 0
M  V30 1192 N 106.045 -4.26763 -5.5751 0
M  V30 1193 H 110.885 -2.6273 -1.40631 0
M  V30 1194 H 108.422 -1.30241 -0.683789 0
M  V30 1195 H 110.38 -1.82344 -3.75242 0
M  V30 1196 H 109.01 -0.883806 -3.10465 0
M  V30 1197 H 108.062 -3.11911 -2.17751 0
M  V30 1198 H 109.374 -3.96039 -3.0324 0
M  V30 1199 H 108.528 -3.08973 -5.22131 0
M  V30 1200 H 107.267 -2.14473 -4.3801 0
M  V30 1201 H 106.272 -4.2631 -3.47188 0
M  V30 1202 H 107.497 -5.2182 -4.34605 0
M  V30 1203 H 105.443 -3.37462 -5.62544 0
M  V30 1204 H 105.36 -5.10507 -5.57601 0
M  V30 1205 H 106.628 -4.33253 -6.48006 0
M  V30 1206 N 110.857 0.726932 -1.39834 0
M  V30 1207 C 111.767 1.87131 -1.41489 0
M  V30 1208 C 112.783 1.71239 -0.308757 0
M  V30 1209 O 113.959 1.93701 -0.551529 0
M  V30 1210 C 111.024 3.22811 -1.26468 0
M  V30 1211 C 110.085 3.51039 -2.47124 0
M  V30 1212 C 109.318 4.80245 -2.3281 0
M  V30 1213 O 109.541 5.54537 -1.33585 0
M  V30 1214 O 108.475 5.08554 -3.21957 0
M  V30 1215 H 112.301 1.8869 -2.3797 0
M  V30 1216 H 109.886 0.875837 -1.21035 0
M  V30 1217 H 111.768 4.03877 -1.20255 0
M  V30 1218 H 110.443 3.22005 -0.330862 0
M  V30 1219 H 109.35 2.70027 -2.58914 0
M  V30 1220 H 110.683 3.56632 -3.39227 0
M  V30 1221 N 112.336 1.25143 0.95797 0
M  V30 1222 C 113.286 1.01924 2.0395 0
M  V30 1223 C 114.27 -0.0427175 1.60843 0
M  V30 1224 O 115.462 0.17221 1.7616 0
M  V30 1225 C 112.591 0.636373 3.3735 0
M  V30 1226 C 111.677 1.73492 3.8699 0
M  V30 1227 N 112.068 2.96945 4.0946 0
M  V30 1228 C 110.366 1.61467 4.15746 0
M  V30 1229 C 111.067 3.68228 4.50315 0
M  V30 1230 N 110.043 2.95833 4.56053 0
M  V30 1231 H 113.845 1.95653 2.19311 0
M  V30 1232 H 111.359 1.15413 1.14253 0
M  V30 1233 H 113.356 0.451233 4.14451 0
M  V30 1234 H 112.016 -0.293621 3.2337 0
M  V30 1235 H 113.027 3.33025 3.96629 0
M  V30 1236 H 109.704 0.753394 4.10646 0
M  V30 1237 H 111.094 4.74178 4.76031 0
M  V30 1238 N 113.814 -1.1601 1.06675 0
M  V30 1239 C 115.063 -1.85973 0.780818 0
M  V30 1240 C 115.376 -1.82819 -0.695444 0
M  V30 1241 O 116.582 -2.484 -1.09589 0
M  V30 1242 C 115.038 -3.33757 1.34665 0
M  V30 1243 C 114.646 -3.45374 2.85343 0
M  V30 1244 C 116.39 -4.0895 1.13843 0
M  V30 1245 C 114.297 -4.87266 3.35151 0
M  V30 1246 H 113.227 -0.696661 0.288407 0
M  V30 1247 H 115.878 -1.30903 1.28595 0
M  V30 1248 H 114.26 -3.88456 0.769274 0
M  V30 1249 H 115.434 -3.00816 3.49065 0
M  V30 1250 H 113.749 -2.83619 3.04876 0
M  V30 1251 H 116.346 -5.13654 1.4854 0
M  V30 1252 H 116.689 -4.16229 0.0770282 0
M  V30 1253 H 117.222 -3.605 1.68179 0
M  V30 1254 H 113.961 -4.85168 4.40786 0
M  V30 1255 H 113.481 -5.32433 2.76179 0
M  V30 1256 H 115.16 -5.56097 3.30704 0
M  V30 1257 N 115.292 -0.849877 -1.32721 0
M  V30 1258 C 116.541 -0.447175 -1.96681 0
M  V30 1259 C 116.854 1.00135 -1.68025 0
M  V30 1260 O 118.06 1.50926 -2.25685 0
M  V30 1261 C 116.516 -0.7487 -3.52026 0
M  V30 1262 C 116.124 -2.21264 -3.89546 0
M  V30 1263 C 117.868 -0.413487 -4.22481 0
M  V30 1264 C 115.775 -2.45763 -5.37917 0
M  V30 1265 H 114.705 -0.163486 -0.736063 0
M  V30 1266 H 117.356 -1.03999 -1.51183 0
M  V30 1267 H 115.738 -0.0853727 -3.95908 0
M  V30 1268 H 116.912 -2.91736 -3.56689 0
M  V30 1269 H 115.227 -2.5119 -3.32103 0
M  V30 1270 H 117.824 -0.574017 -5.3161 0
M  V30 1271 H 118.167 0.644492 -4.11281 0
M  V30 1272 H 118.7 -1.03251 -3.84167 0
M  V30 1273 H 115.439 -3.50168 -5.54132 0
M  V30 1274 H 114.959 -1.79864 -5.72197 0
M  V30 1275 H 116.638 -2.29471 -6.0494 0
M  V30 1276 N 116.77 1.45427 -0.607355 0
M  V30 1277 C 117.72 2.27612 0.133038 0
M  V30 1278 C 118.704 1.37307 0.838785 0
M  V30 1279 O 119.896 1.61299 0.728813 0
M  V30 1280 C 117.025 3.24173 1.12991 0
M  V30 1281 C 116.111 4.21965 0.425011 0
M  V30 1282 N 116.502 5.02982 -0.533217 0
M  V30 1283 C 114.8 4.40899 0.672593 0
M  V30 1284 C 115.501 5.73931 -0.947518 0
M  V30 1285 N 114.477 5.42819 -0.291321 0
M  V30 1286 H 118.279 2.87649 -0.602935 0
M  V30 1287 H 115.793 1.56576 -0.431006 0
M  V30 1288 H 117.79 3.81783 1.67473 0
M  V30 1289 H 116.45 2.65696 1.86644 0
M  V30 1290 H 117.461 5.09843 -0.90995 0
M  V30 1291 H 114.138 3.93547 1.39382 0
M  V30 1292 H 115.528 6.49037 -1.73782 0
M  V30 1293 N 118.248 0.346503 1.53744 0
M  V30 1294 C 119.178 -0.501193 2.28058 0
M  V30 1295 C 120.159 -1.10014 1.29734 0
M  V30 1296 O 121.344 -1.12097 1.58581 0
M  V30 1297 C 118.474 -1.65078 3.05559 0
M  V30 1298 C 117.428 -1.18003 4.11411 0
M  V30 1299 C 116.754 -2.41837 4.76884 0
M  V30 1300 C 118.054 -0.278394 5.21558 0
M  V30 1301 H 119.748 0.11875 2.99164 0
M  V30 1302 H 117.294 0.0585531 1.43881 0
M  V30 1303 H 119.247 -2.25028 3.56287 0
M  V30 1304 H 117.971 -2.29767 2.32109 0
M  V30 1305 H 116.63 -0.603331 3.61601 0
M  V30 1306 H 116.278 -3.0494 4.00026 0
M  V30 1307 H 115.978 -2.1102 5.48402 0
M  V30 1308 H 117.502 -3.02508 5.30397 0
M  V30 1309 H 118.916 -0.784823 5.67903 0
M  V30 1310 H 117.313 -0.0619707 6.00068 0
M  V30 1311 H 118.383 0.684677 4.80042 0
M  V30 1312 N 119.726 -1.57421 0.075193 0
M  V30 1313 C 120.636 -2.1642 -0.905511 0
M  V30 1314 C 121.652 -1.12828 -1.32461 0
M  V30 1315 O 122.828 -1.45109 -1.39661 0
M  V30 1316 C 119.893 -2.71693 -2.15369 0
M  V30 1317 C 118.954 -3.90171 -1.79068 0
M  V30 1318 C 118.187 -4.42798 -2.97936 0
M  V30 1319 O 118.41 -3.94416 -4.12058 0
M  V30 1320 O 117.344 -5.34085 -2.77555 0
M  V30 1321 H 121.17 -3.00588 -0.433626 0
M  V30 1322 H 118.755 -1.48664 -0.148067 0
M  V30 1323 H 120.637 -3.07104 -2.88557 0
M  V30 1324 H 119.312 -1.90582 -2.61649 0
M  V30 1325 H 118.219 -3.59606 -1.03122 0
M  V30 1326 H 119.552 -4.72584 -1.37569 0
M  V30 1327 N 121.204 0.198386 -1.56346 0
M  V30 1328 C 122.62 0.549085 -1.49857 0
M  V30 1329 C 122.82 1.86016 -0.774611 0
M  V30 1330 O 121.876 2.50416 -0.323776 0
M  V30 1331 C 123.189 0.606868 -2.94512 0
M  V30 1332 C 124.737 0.695925 -3.05165 0
M  V30 1333 C 125.212 0.784848 -4.51225 0
M  V30 1334 N 126.703 0.848463 -4.55363 0
M  V30 1335 C 127.438 0.937378 -5.65686 0
M  V30 1336 N 126.934 0.9888 -6.85707 0
M  V30 1337 N 128.727 0.974312 -5.53592 0
M  V30 1338 H 120.878 -0.661655 -2.01831 0
M  V30 1339 H 123.141 -0.235261 -0.918344 0
M  V30 1340 H 122.847 -0.28732 -3.50524 0
M  V30 1341 H 122.721 1.46268 -3.47686 0
M  V30 1342 H 125.108 1.58055 -2.49204 0
M  V30 1343 H 125.189 -0.186022 -2.55123 0
M  V30 1344 H 124.833 -0.0954072 -5.0781 0
M  V30 1345 H 124.763 1.68255 -4.98997 0
M  V30 1346 H 127.254 0.818103 -3.68938 0
M  V30 1347 H 127.567 1.05707 -7.65536 0
M  V30 1348 H 125.912 0.957534 -6.88372 0
M  V30 1349 H 129.103 0.930954 -4.58749 0
M  V30 1350 H 129.276 1.04015 -6.39597 0
M  V30 1351 N 122.682 1.50554 0.465978 0
M  V30 1352 C 123.63 1.70324 1.58406 0
M  V30 1353 C 124.624 0.569139 1.59553 0
M  V30 1354 O 125.83 0.749776 1.63641 0
M  V30 1355 H 122.205 0.537688 0.525734 0
M  V30 1356 H 124.176 2.64104 1.38894 0
M  V30 1357 C 122.925 1.81928 2.96307 0
M  V30 1358 H 122.248 2.68586 2.96144 0
M  V30 1359 H 123.688 1.99784 3.73982 0
M  V30 1360 C 122.147 0.572095 3.32007 0
M  V30 1361 O 122.677 -0.286416 4.00678 0
M  V30 1362 N 120.883 0.424606 2.87481 0
M  V30 1363 H 120.43 1.12427 2.31771 0
M  V30 1364 H 120.388 -0.408697 3.11732 0
M  V30 1365 N 124.16 -0.719506 1.40217 0
M  V30 1366 C 125.107 -1.83359 1.40172 0
M  V30 1367 C 126.077 -1.64065 0.259206 0
M  V30 1368 O 127.262 -1.85254 0.456677 0
M  V30 1369 C 124.402 -3.2103 1.26624 0
M  V30 1370 C 123.515 -3.51923 2.50548 0
M  V30 1371 C 122.65 -4.79079 2.29471 0
M  V30 1372 C 121.689 -5.02863 3.48992 0
M  V30 1373 N 120.826 -6.2123 3.27135 0
M  V30 1374 H 125.666 -1.82733 2.35399 0
M  V30 1375 H 123.203 -0.892688 1.16917 0
M  V30 1376 H 125.161 -4.00524 1.16776 0
M  V30 1377 H 123.791 -3.20895 0.350176 0
M  V30 1378 H 122.843 -2.67014 2.70939 0
M  V30 1379 H 124.155 -3.6541 3.39525 0
M  V30 1380 H 123.309 -5.66582 2.16955 0
M  V30 1381 H 122.048 -4.67794 1.37913 0
M  V30 1382 H 121.053 -4.13816 3.6199 0
M  V30 1383 H 122.278 -5.16023 4.41472 0
M  V30 1384 H 120.224 -6.11204 2.38256 0
M  V30 1385 H 120.141 -6.35375 4.09675 0
M  V30 1386 H 121.409 -7.11532 3.18344 0
M  V30 1387 N 125.638 -1.25649 -0.95132 0
M  V30 1388 C 126.915 -1.01361 -1.67288 0
M  V30 1389 C 127.295 0.459135 -2.06046 0
M  V30 1390 O 126.643 1.43723 -1.7764 0
M  V30 1391 C 126.853 -1.95256 -2.89268 0
M  V30 1392 C 128.201 -2.23289 -3.61147 0
M  V30 1393 O 129.225 -1.93041 -2.99355 0
M  V30 1394 O 128.084 -2.74741 -4.72419 0
M  V30 1395 H 125.178 -0.38464 -0.732107 0
M  V30 1396 H 127.724 -1.36817 -1.00395 0
M  V30 1397 H 126.496 -2.94685 -2.57442 0
M  V30 1398 H 126.119 -1.60218 -3.6389 0
M  V30 1399 N 127.117 1.15442 -1.07289 0
M  V30 1400 C 128.047 2.22312 -0.714107 0
M  V30 1401 C 129.028 1.67467 0.298155 0
M  V30 1402 O 130.213 1.93445 0.171048 0
M  V30 1403 C 127.343 3.47124 -0.110448 0
M  V30 1404 C 126.297 4.14926 -1.04979 0
M  V30 1405 C 125.623 5.33807 -0.308924 0
M  V30 1406 C 126.923 4.64762 -2.38314 0
M  V30 1407 H 128.617 2.5258 -1.6076 0
M  V30 1408 H 126.163 1.21404 -0.77441 0
M  V30 1409 H 128.116 4.21124 0.152482 0
M  V30 1410 H 126.84 3.16187 0.81812 0
M  V30 1411 H 125.499 3.42866 -1.29764 0
M  V30 1412 H 125.147 4.99126 0.623084 0
M  V30 1413 H 124.847 5.80113 -0.935036 0
M  V30 1414 H 126.371 6.10576 -0.0537771 0
M  V30 1415 H 127.785 5.30292 -2.1786 0
M  V30 1416 H 126.182 5.21728 -2.96514 0
M  V30 1417 H 127.252 3.80434 -3.00663 0
M  V30 1418 N 128.595 0.856903 1.32268 0
M  V30 1419 C 129.525 0.31858 2.31316 0
M  V30 1420 C 130.506 -0.583487 1.59779 0
M  V30 1421 O 131.691 -0.503259 1.87566 0
M  V30 1422 C 128.821 -0.491979 3.43798 0
M  V30 1423 C 127.775 0.315849 4.26833 0
M  V30 1424 C 127.101 -0.619586 5.31098 0
M  V30 1425 C 128.401 1.54282 4.98993 0
M  V30 1426 H 130.095 1.14621 2.76591 0
M  V30 1427 H 127.641 0.552613 1.32974 0
M  V30 1428 H 129.594 -0.879012 4.1213 0
M  V30 1429 H 128.318 -1.35299 2.97257 0
M  V30 1430 H 126.977 0.684664 3.6015 0
M  V30 1431 H 126.625 -1.47751 4.8081 0
M  V30 1432 H 126.325 -0.0830621 5.87541 0
M  V30 1433 H 127.849 -1.00375 6.02293 0
M  V30 1434 H 129.263 1.22796 5.59995 0
M  V30 1435 H 127.66 2.01745 5.65172 0
M  V30 1436 H 128.73 2.30285 4.26728 0
M  V30 1437 N 130.073 -1.45103 0.615059 0
M  V30 1438 C 131.484 -1.85654 0.197383 0
M  V30 1439 C 131.835 -1.51433 -1.24749 0
M  V30 1440 O 130.96 -0.944608 -1.94695 0
M  V30 1441 C 131.555 -3.36972 0.351448 0
M  V30 1442 C 130.114 -3.76398 -0.011593 0
M  V30 1443 C 129.261 -2.69024 0.672394 0
M  V30 1444 H 132.212 -1.35797 0.821263 0
M  V30 1445 H 132.233 -3.78239 -0.414227 0
M  V30 1446 H 131.745 -3.61847 1.40314 0
M  V30 1447 H 129.846 -3.5714 -1.06217 0
M  V30 1448 H 129.959 -4.77532 0.387265 0
M  V30 1449 H 128.323 -2.54465 0.109284 0
M  V30 1450 H 129.106 -2.96735 1.72636 0
M  V30 1451 N 131.551 -0.354651 -1.53558 0
M  V30 1452 C 132.461 0.50515 -2.29097 0
M  V30 1453 C 133.477 1.10223 -1.34636 0
M  V30 1454 O 134.653 1.11553 -1.67684 0
M  V30 1455 C 131.718 1.63479 -3.05738 0
M  V30 1456 C 130.779 1.06636 -4.15845 0
M  V30 1457 C 130.012 2.14217 -4.88822 0
M  V30 1458 O 130.235 3.35137 -4.61562 0
M  V30 1459 O 129.169 1.77887 -5.75013 0
M  V30 1460 H 132.995 -0.109237 -3.03503 0
M  V30 1461 H 130.58 -0.119357 -1.48922 0
M  V30 1462 H 132.462 2.2918 -3.5363 0
M  V30 1463 H 131.137 2.23478 -2.34178 0
M  V30 1464 H 130.044 0.373565 -3.7223 0
M  V30 1465 H 131.377 0.511081 -4.89539 0
M  V30 1466 N 133.029 1.57378 -0.0835403 0
M  V30 1467 C 134.306 1.85363 0.624507 0
M  V30 1468 C 134.686 0.978239 1.87066 0
M  V30 1469 O 134.034 0.0475908 2.2845 0
M  V30 1470 C 134.244 3.35795 0.950947 0
M  V30 1471 C 135.592 4.03581 1.31939 0
M  V30 1472 O 136.616 3.40609 1.04232 0
M  V30 1473 O 135.475 5.14672 1.83779 0
M  V30 1474 H 132.569 0.766162 0.311329 0
M  V30 1475 H 135.115 1.69307 -0.115362 0
M  V30 1476 H 133.887 3.91244 0.0663899 0
M  V30 1477 H 133.51 3.57154 1.74719 0
M  V30 1478 N 134.507 -0.190092 1.56449 0
M  V30 1479 C 135.754 -0.909705 1.80916 0
M  V30 1480 C 136.082 -1.83047 0.657583 0
M  V30 1481 O 135.337 -1.92428 -0.356356 0
M  V30 1482 C 135.636 -1.75382 3.1141 0
M  V30 1483 C 135.302 -0.983606 4.40041 0
M  V30 1484 C 133.964 -0.770967 4.74984 0
M  V30 1485 C 136.316 -0.442024 5.19322 0
M  V30 1486 C 133.644 -0.0053448 5.867 0
M  V30 1487 C 135.996 0.310412 6.31838 0
M  V30 1488 C 134.66 0.534023 6.6536 0
M  V30 1489 H 133.93 -0.332885 0.662019 0
M  V30 1490 H 136.577 -0.175762 1.90692 0
M  V30 1491 H 134.882 -2.55659 2.96893 0
M  V30 1492 H 136.579 -2.31331 3.27547 0
M  V30 1493 H 133.169 -1.15936 4.12622 0
M  V30 1494 H 137.353 -0.593693 4.92736 0
M  V30 1495 H 132.609 0.177825 6.11141 0
M  V30 1496 H 136.783 0.737419 6.92485 0
M  V30 1497 H 134.41 1.12918 7.51767 0
M  V30 1498 N 135.985 -1.50799 -0.457987 0
M  V30 1499 C 137.231 -1.62683 -1.21088 0
M  V30 1500 C 137.564 -0.332268 -1.91336 0
M  V30 1501 O 136.839 0.667043 -1.82704 0
M  V30 1502 C 137.122 -2.81615 -2.24422 0
M  V30 1503 C 136.975 -4.20989 -1.58392 0
M  V30 1504 C 138.294 -2.96085 -3.2561 0
M  V30 1505 H 135.413 -0.592087 -0.438864 0
M  V30 1506 H 138.055 -1.83225 -0.50286 0
M  V30 1507 H 136.205 -2.64231 -2.84806 0
M  V30 1508 H 137.877 -4.49994 -1.01504 0
M  V30 1509 H 136.12 -4.24641 -0.886704 0
M  V30 1510 H 136.791 -5.0016 -2.33547 0
M  V30 1511 H 139.267 -3.12042 -2.75262 0
M  V30 1512 H 138.143 -3.80902 -3.95228 0
M  V30 1513 H 138.404 -2.0726 -3.90507 0
M  V30 1514 N 137.463 0.71206 -1.40597 0
M  V30 1515 C 138.709 1.47416 -1.39271 0
M  V30 1516 C 139.042 1.942 0.00388791 0
M  V30 1517 O 138.317 1.68403 0.973179 0
M  V30 1518 C 138.6 2.69774 -2.38525 0
M  V30 1519 C 138.453 2.28861 -3.87224 0
M  V30 1520 C 139.772 3.71939 -2.35264 0
M  V30 1521 H 136.891 0.534713 -0.5072 0
M  V30 1522 H 139.533 0.812375 -1.71757 0
M  V30 1523 H 137.683 3.26238 -2.10953 0
M  V30 1524 H 139.355 1.77852 -4.25636 0
M  V30 1525 H 137.598 1.60824 -4.02887 0
M  V30 1526 H 138.269 3.16584 -4.52193 0
M  V30 1527 H 140.745 3.25113 -2.59694 0
M  V30 1528 H 139.621 4.55186 -3.06753 0
M  V30 1529 H 139.882 4.20484 -1.36549 0
M  V30 1530 N 138.941 1.26152 0.944643 0
M  V30 1531 C 140.171 1.14094 1.72239 0
M  V30 1532 C 140.579 -0.306931 1.86694 0
M  V30 1533 O 139.922 -1.22222 1.3714 0
M  V30 1534 C 139.984 1.73316 3.14963 0
M  V30 1535 C 139.648 3.2239 3.23904 0
M  V30 1536 C 140.645 4.19252 3.07447 0
M  V30 1537 C 138.33 3.62788 3.47405 0
M  V30 1538 C 140.324 5.54491 3.14353 0
M  V30 1539 C 138.011 4.98162 3.53947 0
M  V30 1540 C 139.009 5.93823 3.37436 0
M  V30 1541 O 138.697 7.26732 3.43679 0
M  V30 1542 H 138.429 0.398292 0.546205 0
M  V30 1543 H 140.983 1.67201 1.19301 0
M  V30 1544 H 139.213 1.14667 3.69308 0
M  V30 1545 H 140.902 1.56214 3.74636 0
M  V30 1546 H 141.668 3.8938 2.8915 0
M  V30 1547 H 137.547 2.88816 3.59313 0
M  V30 1548 H 141.091 6.29137 3.01384 0
M  V30 1549 H 136.988 5.27695 3.71763 0
M  V30 1550 H 137.756 7.3496 3.60245 0
M  V30 1551 N 140.419 -1.14872 1.07899 0
M  V30 1552 C 141.647 -1.89661 0.82683 0
M  V30 1553 C 142.062 -1.78312 -0.620519 0
M  V30 1554 O 141.419 -1.13888 -1.42604 0
M  V30 1555 C 141.47 -3.39817 1.23316 0
M  V30 1556 O 141.191 -3.50845 2.62372 0
M  V30 1557 C 142.692 -4.31615 1.0111 0
M  V30 1558 H 139.912 -0.60092 0.298557 0
M  V30 1559 H 142.456 -1.4551 1.43691 0
M  V30 1560 H 140.611 -3.8161 0.667286 0
M  V30 1561 H 141.025 -4.44076 2.79101 0
M  V30 1562 H 142.499 -5.35367 1.34486 0
M  V30 1563 H 142.976 -4.39169 -0.0522168 0
M  V30 1564 H 143.582 -3.95572 1.56215 0
M  V30 1565 N 141.898 -0.863906 -1.31812 0
M  V30 1566 C 143.128 -0.485406 -2.00817 0
M  V30 1567 C 143.536 0.925007 -1.65046 0
M  V30 1568 O 142.879 1.61653 -0.872574 0
M  V30 1569 C 142.941 -0.555589 -3.55181 0
M  V30 1570 C 142.605 -1.92654 -4.14407 0
M  V30 1571 C 143.602 -2.89324 -4.31958 0
M  V30 1572 C 141.287 -2.2262 -4.50273 0
M  V30 1573 C 143.281 -4.14108 -4.84555 0
M  V30 1574 C 140.968 -3.47654 -5.02573 0
M  V30 1575 C 141.966 -4.43214 -5.19664 0
M  V30 1576 O 141.654 -5.66033 -5.70843 0
M  V30 1577 H 141.386 -0.188224 -0.649267 0
M  V30 1578 H 143.94 -1.16514 -1.69156 0
M  V30 1579 H 142.17 0.181037 -3.86276 0
M  V30 1580 H 143.859 -0.19138 -4.05449 0
M  V30 1581 H 144.625 -2.6748 -4.04573 0
M  V30 1582 H 140.504 -1.4902 -4.3625 0
M  V30 1583 H 144.048 -4.88703 -4.9781 0
M  V30 1584 H 139.945 -3.69345 -5.29391 0
M  V30 1585 H 140.713 -5.6812 -5.89222 0
M  V30 1586 N 143.376 1.44774 -0.622745 0
M  V30 1587 C 144.324 2.32387 0.0994683 0
M  V30 1588 C 145.318 1.46859 0.844326 0
M  V30 1589 O 146.524 1.63254 0.758174 0
M  V30 1590 H 142.899 0.750273 0.0509291 0
M  V30 1591 H 144.87 2.91062 -0.65767 0
M  V30 1592 C 143.619 3.30723 1.07319 0
M  V30 1593 H 142.942 3.96541 0.509462 0
M  V30 1594 H 144.382 3.94725 1.54817 0
M  V30 1595 C 142.841 2.59021 2.15429 0
M  V30 1596 O 143.371 2.38286 3.23393 0
M  V30 1597 N 141.577 2.189 1.91131 0
M  V30 1598 H 141.124 2.35964 1.03337 0
M  V30 1599 H 141.082 1.71251 2.63668 0
M  V30 1600 N 144.854 0.36279 1.53368 0
M  V30 1601 C 145.801 -0.485008 2.25646 0
M  V30 1602 C 146.771 -1.07982 1.2621 0
M  V30 1603 O 147.956 -1.11284 1.54986 0
M  V30 1604 C 145.096 -1.62023 3.04701 0
M  V30 1605 C 144.209 -1.05086 4.19024 0
M  V30 1606 C 143.344 -2.15496 4.85525 0
M  V30 1607 C 142.383 -1.5601 5.91884 0
M  V30 1608 N 141.52 -2.60241 6.52088 0
M  V30 1609 H 146.36 0.137864 2.97681 0
M  V30 1610 H 143.897 0.0798061 1.46883 0
M  V30 1611 H 145.855 -2.28887 3.48807 0
M  V30 1612 H 144.485 -2.2138 2.34927 0
M  V30 1613 H 143.537 -0.27259 3.79422 0
M  V30 1614 H 144.849 -0.575926 4.95464 0
M  V30 1615 H 144.003 -2.90186 5.32801 0
M  V30 1616 H 142.742 -2.66341 4.08551 0
M  V30 1617 H 141.747 -0.798338 5.43973 0
M  V30 1618 H 142.972 -1.05994 6.70777 0
M  V30 1619 H 140.918 -3.10304 5.77968 0
M  V30 1620 H 140.835 -2.17426 7.24059 0
M  V30 1621 H 142.103 -3.34641 7.04014 0
M  V30 1622 N 146.332 -1.57332 0.0918853 0
M  V30 1623 C 147.242 -2.17368 -0.882505 0
M  V30 1624 C 148.258 -1.14226 -1.31257 0
M  V30 1625 O 149.434 -1.46582 -1.38115 0
M  V30 1626 C 146.499 -2.73962 -2.12476 0
M  V30 1627 C 145.56 -3.92048 -1.7492 0
M  V30 1628 C 144.793 -4.45933 -2.93223 0
M  V30 1629 O 145.016 -3.98764 -4.07852 0
M  V30 1630 O 143.95 -5.36999 -2.71875 0
M  V30 1631 H 147.776 -3.01031 -0.40172 0
M  V30 1632 H 145.361 -1.48813 -0.132291 0
M  V30 1633 H 147.243 -3.10147 -2.85283 0
M  V30 1634 H 145.918 -1.93347 -2.59613 0
M  V30 1635 H 144.825 -3.6068 -0.993025 0
M  V30 1636 H 146.158 -4.74017 -1.32548 0
M  V30 1637 N 147.81 0.181792 -1.56548 0
M  V30 1638 C 149.058 0.89832 -1.81038 0
M  V30 1639 C 149.379 1.83232 -0.667164 0
M  V30 1640 O 148.649 1.93372 0.313673 0
M  V30 1641 H 147.229 0.33471 -0.667816 0
M  V30 1642 H 149.891 0.184116 -1.94028 0
M  V30 1643 H 148.987 1.4815 -2.74696 0
M  V30 1644 N 149.288 1.51039 0.449983 0
M  V30 1645 C 150.516 1.66869 1.2232 0
M  V30 1646 C 150.931 0.360727 1.85322 0
M  V30 1647 O 150.288 -0.659531 1.70166 0
M  V30 1648 C 150.339 2.77524 2.31652 0
M  V30 1649 O 150.06 4.03252 1.7123 0
M  V30 1650 C 151.561 3.04512 3.2216 0
M  V30 1651 H 148.781 0.560326 0.369155 0
M  V30 1652 H 151.325 1.97385 0.534719 0
M  V30 1653 H 149.48 2.49642 2.96239 0
M  V30 1654 H 149.894 4.64609 2.43389 0
M  V30 1655 H 151.368 3.85551 3.95038 0
M  V30 1656 H 151.845 2.16415 3.8218 0
M  V30 1657 H 152.451 3.34005 2.63288 0
M  V30 1658 N 150.766 -0.704594 1.40972 0
M  V30 1659 C 151.696 -1.83124 1.44872 0
M  V30 1660 C 152.677 -1.67281 0.30838 0
M  V30 1661 O 153.862 -1.87149 0.518556 0
M  V30 1662 C 150.992 -3.21181 1.32136 0
M  V30 1663 C 149.946 -3.51714 2.43888 0
M  V30 1664 C 149.272 -4.89032 2.16222 0
M  V30 1665 C 150.572 -3.516 3.86232 0
M  V30 1666 H 152.266 -1.80117 2.39161 0
M  V30 1667 H 149.812 -0.865145 1.15114 0
M  V30 1668 H 151.765 -3.99702 1.33479 0
M  V30 1669 H 150.489 -3.24791 0.343279 0
M  V30 1670 H 149.148 -2.75539 2.41813 0
M  V30 1671 H 148.796 -4.89256 1.16778 0
M  V30 1672 H 148.496 -5.10426 2.911 0
M  V30 1673 H 150.02 -5.69873 2.19265 0
M  V30 1674 H 151.434 -4.2014 3.9007 0
M  V30 1675 H 149.831 -3.84523 4.60719 0
M  V30 1676 H 150.901 -2.50757 4.15029 0
M  V30 1677 N 152.244 -1.26651 -0.937939 0
M  V30 1678 C 153.493 -1.11775 -1.67897 0
M  V30 1679 C 153.806 0.33794 -1.92659 0
M  V30 1680 O 155.012 0.607434 -2.64618 0
M  V30 1681 C 153.468 -1.9523 -3.02346 0
M  V30 1682 C 153.076 -3.45393 -2.8532 0
M  V30 1683 C 154.82 -1.88972 -3.80118 0
M  V30 1684 C 152.727 -4.21083 -4.15263 0
M  V30 1685 H 151.657 -0.414696 -0.629717 0
M  V30 1686 H 154.308 -1.50988 -1.04283 0
M  V30 1687 H 152.69 -1.48853 -3.66959 0
M  V30 1688 H 153.864 -3.99561 -2.29537 0
M  V30 1689 H 152.179 -3.52921 -2.20988 0
M  V30 1690 H 154.776 -2.42805 -4.76392 0
M  V30 1691 H 155.119 -0.86113 -4.07296 0
M  V30 1692 H 155.652 -2.33189 -3.22285 0
M  V30 1693 H 152.391 -5.24425 -3.93267 0
M  V30 1694 H 151.911 -3.71695 -4.70747 0
M  V30 1695 H 153.59 -4.29706 -4.83696 0
M  V30 1696 N 153.722 1.14298 -1.08507 0
M  V30 1697 C 154.95 1.89219 -0.836876 0
M  V30 1698 C 155.365 1.78638 0.611054 0
M  V30 1699 O 154.722 1.14643 1.41998 0
M  V30 1700 C 154.773 3.39158 -1.25116 0
M  V30 1701 O 154.494 3.49449 -2.64229 0
M  V30 1702 C 155.995 4.31073 -1.03398 0
M  V30 1703 H 153.215 0.599328 -0.301739 0
M  V30 1704 H 155.759 1.44746 -1.44461 0
M  V30 1705 H 153.914 3.81251 -0.687514 0
M  V30 1706 H 154.328 4.42589 -2.81452 0
M  V30 1707 H 155.802 5.34646 -1.37323 0
M  V30 1708 H 156.279 4.3919 0.0289259 0
M  V30 1709 H 156.885 3.94738 -1.58311 0
M  V30 1710 N 155.201 0.870884 1.31352 0
M  V30 1711 C 156.478 0.402907 1.91405 0
M  V30 1712 C 156.858 -1.11512 1.79244 0
M  V30 1713 O 156.206 -1.94411 1.2007 0
M  V30 1714 C 156.416 0.885301 3.37585 0
M  V30 1715 C 157.764 0.911971 4.14691 0
M  V30 1716 O 158.788 0.831016 3.46371 0
M  V30 1717 O 157.647 1.02927 5.3672 0
M  V30 1718 H 154.741 0.120698 0.818145 0
M  V30 1719 H 157.287 0.958857 1.40014 0
M  V30 1720 H 156.059 1.92889 3.40455 0
M  V30 1721 H 155.682 0.307714 3.96407 0
M  V30 1722 N 156.679 -1.44442 0.630414 0
M  V30 1723 C 157.629 -2.27794 -0.0968103 0
M  V30 1724 C 158.613 -1.38624 -0.816834 0
M  V30 1725 O 159.805 -1.62438 -0.70306 0
M  V30 1726 C 156.934 -3.25929 -1.07819 0
M  V30 1727 C 156.02 -4.22588 -0.357826 0
M  V30 1728 N 156.411 -5.0207 0.613169 0
M  V30 1729 C 154.709 -4.41914 -0.602365 0
M  V30 1730 C 155.41 -5.72351 1.03871 0
M  V30 1731 N 154.386 -5.42287 0.377642 0
M  V30 1732 H 158.188 -2.86653 0.648621 0
M  V30 1733 H 155.702 -1.55871 0.455862 0
M  V30 1734 H 157.699 -3.84399 -1.61378 0
M  V30 1735 H 156.359 -2.68631 -1.82393 0
M  V30 1736 H 157.37 -5.08331 0.990947 0
M  V30 1737 H 154.047 -3.95714 -1.33103 0
M  V30 1738 H 155.437 -6.4619 1.84086 0
M  V30 1739 N 158.157 -0.370918 -1.53173 0
M  V30 1740 C 159.568 0.107139 -1.86392 0
M  V30 1741 C 159.919 1.47714 -1.29132 0
M  V30 1742 O 159.044 2.07464 -0.615439 0
M  V30 1743 C 159.639 0.201187 -3.38202 0
M  V30 1744 C 158.198 0.623507 -3.712 0
M  V30 1745 C 157.345 -0.225978 -2.76378 0
M  V30 1746 H 160.296 -0.58951 -1.47345 0
M  V30 1747 H 160.317 1.02377 -3.66468 0
M  V30 1748 H 159.829 -0.796058 -3.79848 0
M  V30 1749 H 157.93 1.62879 -3.35114 0
M  V30 1750 H 158.043 0.394414 -4.77474 0
M  V30 1751 H 156.407 0.305962 -2.52856 0
M  V30 1752 H 157.19 -1.22086 -3.20858 0
M  V30 1753 N 159.635 1.57281 -0.100228 0
M  V30 1754 C 160.583 2.15542 0.874328 0
M  V30 1755 C 161.577 1.09962 1.28859 0
M  V30 1756 O 162.783 1.28298 1.26252 0
M  V30 1757 H 159.158 0.689567 0.300003 0
M  V30 1758 H 161.129 2.96241 0.35829 0
M  V30 1759 C 159.878 2.75454 2.1218 0
M  V30 1760 H 159.201 3.56384 1.81193 0
M  V30 1761 H 160.641 3.19781 2.78417 0
M  V30 1762 C 159.1 1.71602 2.89921 0
M  V30 1763 O 159.63 1.15804 3.84646 0
M  V30 1764 N 157.836 1.41975 2.53558 0
M  V30 1765 H 157.383 1.87539 1.76598 0
M  V30 1766 H 157.341 0.727274 3.05873 0
M  V30 1767 N 161.113 -0.173488 1.56642 0
M  V30 1768 C 162.362 -0.888758 1.81063 0
M  V30 1769 C 162.675 -1.83506 0.67712 0
M  V30 1770 O 163.881 -2.59254 0.806206 0
M  V30 1771 C 162.337 -1.63091 3.20826 0
M  V30 1772 C 161.945 -0.728357 4.4204 0
M  V30 1773 C 163.689 -2.33454 3.54541 0
M  V30 1774 C 161.596 -1.47062 5.72823 0
M  V30 1775 H 160.526 -0.335618 0.675186 0
M  V30 1776 H 163.177 -0.141712 1.82952 0
M  V30 1777 H 161.559 -2.42263 3.13248 0
M  V30 1778 H 162.733 0.0262449 4.60793 0
M  V30 1779 H 161.048 -0.134492 4.16183 0
M  V30 1780 H 163.645 -2.89578 4.49498 0
M  V30 1781 H 163.988 -3.08687 2.79317 0
M  V30 1782 H 164.521 -1.61227 3.63663 0
M  V30 1783 H 161.26 -0.760658 6.51072 0
M  V30 1784 H 160.78 -2.1986 5.58052 0
M  V30 1785 H 162.459 -2.01868 6.14702 0
M  V30 1786 N 162.591 -1.51276 -0.441967 0
M  V30 1787 C 163.523 -1.68444 -1.55433 0
M  V30 1788 C 164.536 -0.565187 -1.52674 0
M  V30 1789 O 165.725 -0.839356 -1.57534 0
M  V30 1790 C 162.825 -1.67966 -2.94348 0
M  V30 1791 C 161.998 -2.964 -3.21661 0
M  V30 1792 C 161.057 -2.88171 -4.40277 0
M  V30 1793 O 160.083 -3.62119 -4.39157 0
M  V30 1794 N 161.285 -2.03706 -5.43584 0
M  V30 1795 H 164.05 -2.644 -1.41112 0
M  V30 1796 H 161.611 -1.49104 -0.630838 0
M  V30 1797 H 163.603 -1.60035 -3.71713 0
M  V30 1798 H 162.173 -0.796225 -3.0229 0
M  V30 1799 H 161.393 -3.18234 -2.32638 0
M  V30 1800 H 162.681 -3.81427 -3.36736 0
M  V30 1801 H 162.079 -1.42995 -5.47329 0
M  V30 1802 H 160.636 -2.01658 -6.1982 0
M  V30 1803 N 164.069 0.697108 -1.41344 0
M  V30 1804 C 165.017 1.83237 -1.43272 0
M  V30 1805 C 166.011 1.66522 -0.310947 0
M  V30 1806 O 167.217 1.73402 -0.482899 0
M  V30 1807 H 163.592 0.603802 -0.448249 0
M  V30 1808 H 165.563 1.78727 -2.38954 0
M  V30 1809 C 164.312 3.21245 -1.33029 0
M  V30 1810 H 163.635 3.34723 -2.18633 0
M  V30 1811 H 165.075 4.00763 -1.38439 0
M  V30 1812 C 163.534 3.36873 -0.0424635 0
M  V30 1813 O 164.064 3.91177 0.913421 0
M  V30 1814 N 162.27 2.90581 0.0331145 0
M  V30 1815 H 161.817 2.46577 -0.745506 0
M  V30 1816 H 161.775 3.01416 0.894199 0
M  V30 1817 N 165.547 1.27147 0.931209 0
M  V30 1818 C 166.497 1.06227 2.01742 0
M  V30 1819 C 167.481 -0.00859065 1.60898 0
M  V30 1820 O 168.673 0.209537 1.75755 0
M  V30 1821 C 165.802 0.707787 3.35924 0
M  V30 1822 C 164.888 1.81661 3.83223 0
M  V30 1823 N 165.279 3.05564 4.03069 0
M  V30 1824 C 163.577 1.70249 4.12227 0
M  V30 1825 C 164.278 3.77697 4.42403 0
M  V30 1826 N 163.254 3.0544 4.49675 0
M  V30 1827 H 167.056 2.00261 2.15111 0
M  V30 1828 H 164.57 1.1781 1.11779 0
M  V30 1829 H 166.567 0.539043 4.134 0
M  V30 1830 H 165.227 -0.224964 3.2392 0
M  V30 1831 H 166.238 3.41363 3.89476 0
M  V30 1832 H 162.915 0.840329 4.08956 0
M  V30 1833 H 164.305 4.84168 4.65866 0
M  V30 1834 N 167.025 -1.13721 1.09112 0
M  V30 1835 C 168.265 -1.86576 0.834801 0
M  V30 1836 C 168.629 -1.81435 -0.628122 0
M  V30 1837 O 169.83 -2.49497 -1.00024 0
M  V30 1838 C 168.101 -3.30872 1.35124 0
M  V30 1839 S 169.66 -4.21257 1.22832 0
M  V30 1840 H 166.478 -0.643666 0.302017 0
M  V30 1841 H 169.08 -1.37085 1.39385 0
M  V30 1842 H 167.784 -3.32166 2.41027 0
M  V30 1843 H 167.315 -3.85423 0.788185 0
M  V30 1844 H 169.33 -4.95884 0.177191 0
M  V30 1845 N 168.503 -0.877838 -1.30888 0
M  V30 1846 C 169.453 -0.310872 -2.25871 0
M  V30 1847 C 170.437 0.556596 -1.50966 0
M  V30 1848 O 171.629 0.402187 -1.7237 0
M  V30 1849 C 168.758 0.479821 -3.3993 0
M  V30 1850 C 167.844 -0.401333 -4.22197 0
M  V30 1851 N 168.235 -1.49848 -4.83093 0
M  V30 1852 C 166.533 -0.195167 -4.45573 0
M  V30 1853 C 167.234 -2.0425 -5.44662 0
M  V30 1854 N 166.21 -1.33843 -5.26865 0
M  V30 1855 H 170.012 -1.1493 -2.70496 0
M  V30 1856 H 167.526 -0.726458 -1.45246 0
M  V30 1857 H 169.523 0.902582 -4.07012 0
M  V30 1858 H 168.183 1.31577 -2.96846 0
M  V30 1859 H 169.194 -1.88137 -4.82519 0
M  V30 1860 H 165.871 0.604192 -4.13105 0
M  V30 1861 H 167.261 -2.96345 -6.03017 0
M  V30 1862 N 169.982 1.44106 -0.638065 0
M  V30 1863 C 171.212 2.06037 -0.152394 0
M  V30 1864 C 171.62 1.47808 1.18108 0
M  V30 1865 O 170.963 0.598092 1.73691 0
M  V30 1866 C 171.025 3.59488 0.0293714 0
M  V30 1867 C 170.689 4.4022 -1.22702 0
M  V30 1868 C 171.686 4.73256 -2.15232 0
M  V30 1869 C 169.371 4.8048 -1.46437 0
M  V30 1870 C 171.365 5.45444 -3.29802 0
M  V30 1871 C 169.052 5.52417 -2.61303 0
M  V30 1872 C 170.05 5.84819 -3.52811 0
M  V30 1873 O 169.738 6.55289 -4.65673 0
M  V30 1874 H 169.47 0.671233 -0.0801401 0
M  V30 1875 H 172.024 1.85851 -0.874563 0
M  V30 1876 H 170.254 3.78191 0.806758 0
M  V30 1877 H 171.943 4.03164 0.470475 0
M  V30 1878 H 172.709 4.42684 -1.98131 0
M  V30 1879 H 168.588 4.54676 -0.760977 0
M  V30 1880 H 172.132 5.70653 -4.01249 0
M  V30 1881 H 168.029 5.82404 -2.78344 0
M  V30 1882 H 168.797 6.73762 -4.64744 0
M  V30 1883 N 171.46 0.379036 1.52974 0
M  V30 1884 C 172.876 0.0285448 1.59574 0
M  V30 1885 C 173.076 -1.45542 1.39355 0
M  V30 1886 O 172.132 -2.2187 1.20541 0
M  V30 1887 C 173.445 0.496535 2.96572 0
M  V30 1888 C 174.993 0.451909 3.0972 0
M  V30 1889 C 175.468 0.895924 4.49152 0
M  V30 1890 N 176.959 0.851522 4.55306 0
M  V30 1891 C 177.694 1.16661 5.61407 0
M  V30 1892 N 177.19 1.55166 6.752 0
M  V30 1893 N 178.983 1.08853 5.51459 0
M  V30 1894 H 171.134 1.34525 1.64367 0
M  V30 1895 H 173.397 0.550733 0.771619 0
M  V30 1896 H 173.103 1.53258 3.16552 0
M  V30 1897 H 172.977 -0.109802 3.7704 0
M  V30 1898 H 175.364 -0.575029 2.89443 0
M  V30 1899 H 175.445 1.09392 2.3123 0
M  V30 1900 H 175.089 1.92104 4.70168 0
M  V30 1901 H 175.019 0.23103 5.26093 0
M  V30 1902 H 177.51 0.568038 3.73606 0
M  V30 1903 H 177.823 1.776 7.52116 0
M  V30 1904 H 176.168 1.59044 6.76557 0
M  V30 1905 H 179.359 0.786803 4.6144 0
M  V30 1906 H 179.532 1.33742 6.34048 0
M  V30 1907 N 172.938 -1.57226 0.108567 0
M  V30 1908 C 174.186 -1.94448 -0.550853 0
M  V30 1909 C 174.507 -0.992074 -1.67878 0
M  V30 1910 O 173.777 -0.0465 -1.95845 0
M  V30 1911 H 172.357 -0.717897 -0.206479 0
M  V30 1912 H 175.019 -1.94112 0.175062 0
M  V30 1913 H 174.115 -2.97218 -0.952259 0
M  V30 1914 N 174.416 0.165178 -1.56732 0
M  V30 1915 C 175.646 0.894919 -1.86212 0
M  V30 1916 C 176.054 1.76066 -0.692627 0
M  V30 1917 O 175.397 1.80387 0.347303 0
M  V30 1918 C 175.459 1.8174 -3.10179 0
M  V30 1919 C 175.123 1.13064 -4.42793 0
M  V30 1920 C 176.12 0.493169 -5.17556 0
M  V30 1921 C 173.805 1.12556 -4.89527 0
M  V30 1922 C 175.799 -0.140209 -6.37246 0
M  V30 1923 C 173.486 0.488366 -6.09145 0
M  V30 1924 C 174.484 -0.143411 -6.82849 0
M  V30 1925 O 174.172 -0.77055 -8.00199 0
M  V30 1926 H 173.904 0.265114 -0.621844 0
M  V30 1927 H 176.458 0.168242 -2.0471 0
M  V30 1928 H 174.688 2.58455 -2.87642 0
M  V30 1929 H 176.377 2.4175 -3.26055 0
M  V30 1930 H 177.143 0.489023 -4.82528 0
M  V30 1931 H 173.022 1.60672 -4.32094 0
M  V30 1932 H 176.566 -0.633932 -6.94714 0
M  V30 1933 H 172.463 0.490116 -6.43637 0
M  V30 1934 H 173.231 -0.670408 -8.1575 0
M  V30 1935 N 175.894 1.51508 0.433938 0
M  V30 1936 C 177.14 1.64588 1.18484 0
M  V30 1937 C 177.473 0.362666 1.90784 0
M  V30 1938 O 176.748 -0.637892 1.83742 0
M  V30 1939 C 177.031 2.85149 2.19913 0
M  V30 1940 C 176.884 4.23456 1.51674 0
M  V30 1941 C 178.203 3.01227 3.20858 0
M  V30 1942 H 175.322 0.598994 0.429389 0
M  V30 1943 H 177.964 1.84002 0.473647 0
M  V30 1944 H 176.114 2.68729 2.80566 0
M  V30 1945 H 177.786 4.51552 0.943322 0
M  V30 1946 H 176.029 4.25998 0.819035 0
M  V30 1947 H 176.7 5.03812 2.2556 0
M  V30 1948 H 179.176 3.16382 2.70263 0
M  V30 1949 H 178.052 3.87141 3.89118 0
M  V30 1950 H 178.313 2.13447 3.8716 0
M  V30 1951 N 177.372 -0.689602 1.41712 0
M  V30 1952 C 178.282 -1.83314 1.46401 0
M  V30 1953 C 179.298 -1.7036 0.35405 0
M  V30 1954 O 180.474 -1.92171 0.602692 0
M  V30 1955 C 177.539 -3.19344 1.34982 0
M  V30 1956 C 176.6 -3.44363 2.56344 0
M  V30 1957 C 175.833 -4.73904 2.45461 0
M  V30 1958 O 176.056 -5.508 1.48241 0
M  V30 1959 O 174.99 -4.99839 3.35328 0
M  V30 1960 H 178.816 -1.82314 2.42889 0
M  V30 1961 H 176.401 -0.843438 1.23315 0
M  V30 1962 H 178.283 -4.00547 1.3092 0
M  V30 1963 H 176.958 -3.21014 0.41612 0
M  V30 1964 H 175.865 -2.63067 2.65982 0
M  V30 1965 H 177.198 -3.47512 3.48563 0
M  V30 1966 N 178.85 -1.27639 -0.924453 0
M  V30 1967 C 180.098 -1.13941 -1.66918 0
M  V30 1968 C 180.419 0.314589 -1.92446 0
M  V30 1969 O 179.689 1.21964 -1.53303 0
M  V30 1970 H 178.269 -0.418678 -0.618642 0
M  V30 1971 H 180.931 -1.60213 -1.10985 0
M  V30 1972 H 180.027 -1.67094 -2.63602 0
M  V30 1973 N 180.328 1.1314 -1.09713 0
M  V30 1974 C 181.574 1.84757 -0.836224 0
M  V30 1975 C 181.907 1.8347 0.636598 0
M  V30 1976 O 181.182 1.27491 1.46889 0
M  V30 1977 C 181.465 3.32782 -1.37578 0
M  V30 1978 C 181.318 3.42567 -2.91493 0
M  V30 1979 C 182.637 4.28307 -1.01198 0
M  V30 1980 H 179.756 0.67082 -0.305236 0
M  V30 1981 H 182.398 1.3278 -1.35903 0
M  V30 1982 H 180.548 3.77177 -0.931097 0
M  V30 1983 H 182.22 3.06862 -3.44432 0
M  V30 1984 H 180.463 2.83349 -3.28475 0
M  V30 1985 H 181.134 4.46674 -3.24324 0
M  V30 1986 H 183.61 3.91999 -1.39556 0
M  V30 1987 H 182.486 5.30307 -1.41653 0
M  V30 1988 H 182.747 4.42029 0.0794833 0
M  V30 1989 N 181.806 0.884767 1.30421 0
M  V30 1990 C 182.756 0.322846 2.25703 0
M  V30 1991 C 183.74 -0.548582 1.51259 0
M  V30 1992 O 184.932 -0.39304 1.72581 0
M  V30 1993 C 182.061 -0.461787 3.4018 0
M  V30 1994 C 181.147 0.423717 4.21978 0
M  V30 1995 N 181.538 1.52408 4.82292 0
M  V30 1996 C 179.836 0.218795 4.45463 0
M  V30 1997 C 180.537 2.07136 5.43571 0
M  V30 1998 N 179.513 1.36635 5.26148 0
M  V30 1999 H 183.315 1.16363 2.69883 0
M  V30 2000 H 180.829 0.73415 1.44859 0
M  V30 2001 H 182.826 -0.880985 4.07485 0
M  V30 2002 H 181.486 -1.30001 2.9754 0
M  V30 2003 H 182.497 1.90693 4.81515 0
M  V30 2004 H 179.174 -0.582275 4.1342 0
M  V30 2005 H 180.564 2.99538 6.01437 0
M  V30 2006 N 183.284 -1.43765 0.645699 0
M  V30 2007 C 184.232 -2.32516 -0.0624849 0
M  V30 2008 C 185.226 -1.48183 -0.820855 0
M  V30 2009 O 186.432 -1.64439 -0.732106 0
M  V30 2010 H 182.807 -0.750989 -0.0389864 0
M  V30 2011 H 184.778 -2.89979 0.703892 0
M  V30 2012 C 183.527 -3.32389 -1.02044 0
M  V30 2013 H 182.85 -3.97301 -0.446312 0
M  V30 2014 H 184.29 -3.97138 -1.48517 0
M  V30 2015 C 182.749 -2.62416 -2.11281 0
M  V30 2016 O 183.279 -2.434 -3.19561 0
M  V30 2017 N 181.485 -2.21913 -1.87624 0
M  V30 2018 H 181.032 -2.37578 -0.995703 0
M  V30 2019 H 180.99 -1.75424 -2.6091 0
M  V30 2020 N 184.763 -0.387143 -1.52771 0
M  V30 2021 C 185.988 0.198407 -2.06449 0
M  V30 2022 C 186.413 1.39918 -1.25716 0
M  V30 2023 O 185.771 1.79099 -0.281657 0
M  V30 2024 C 185.819 0.548893 -3.56398 0
M  V30 2025 O 184.923 1.64315 -3.78252 0
M  V30 2026 H 184.264 0.0237731 -0.663574 0
M  V30 2027 H 186.794 -0.553989 -1.96957 0
M  V30 2028 H 186.804 0.813812 -3.99801 0
M  V30 2029 H 185.479 -0.329005 -4.14597 0
M  V30 2030 H 184.056 1.37211 -3.46738 0
M  V30 2031 N 186.241 1.57166 -0.116904 0
M  V30 2032 C 187.466 1.999 0.55271 0
M  V30 2033 C 187.891 0.996039 1.59564 0
M  V30 2034 O 187.249 -0.032556 1.81271 0
M  V30 2035 C 187.297 3.4152 1.15742 0
M  V30 2036 O 186.401 3.44106 2.27299 0
M  V30 2037 H 185.742 0.649447 0.138258 0
M  V30 2038 H 188.272 2.03573 -0.204759 0
M  V30 2039 H 188.282 3.79684 1.49346 0
M  V30 2040 H 186.957 4.14034 0.393493 0
M  V30 2041 H 185.534 3.17759 1.9515 0
M  V30 2042 N 187.719 -0.156864 1.56817 0
M  V30 2043 C 188.968 -0.869504 1.81996 0
M  V30 2044 C 189.281 -1.82777 0.696545 0
M  V30 2045 O 190.487 -2.58384 0.833658 0
M  V30 2046 C 188.943 -1.59679 3.22538 0
M  V30 2047 C 188.551 -0.681431 4.42787 0
M  V30 2048 C 190.295 -2.2968 3.56997 0
M  V30 2049 C 188.202 -1.40978 5.74351 0
M  V30 2050 H 187.132 -0.328438 0.678708 0
M  V30 2051 H 189.783 -0.1223 1.83092 0
M  V30 2052 H 188.165 -2.38927 3.158 0
M  V30 2053 H 189.339 0.0751166 4.60739 0
M  V30 2054 H 187.654 -0.0903431 4.16302 0
M  V30 2055 H 190.251 -2.84794 4.52544 0
M  V30 2056 H 190.594 -3.05707 2.82576 0
M  V30 2057 H 191.127 -1.57361 3.65352 0
M  V30 2058 H 187.866 -0.691561 6.51842 0
M  V30 2059 H 187.386 -2.13929 5.60352 0
M  V30 2060 H 189.065 -1.95337 6.16808 0
M  V30 2061 N 189.197 -1.51736 -0.425897 0
M  V30 2062 C 190.16 -1.73271 -1.50032 0
M  V30 2063 C 191.16 -0.602639 -1.4908 0
M  V30 2064 O 192.35 -0.87033 -1.509 0
M  V30 2065 C 189.482 -1.79969 -2.89523 0
M  V30 2066 H 190.675 -2.69172 -1.32237 0
M  V30 2067 H 188.228 -1.41899 -0.65532 0
M  V30 2068 H 188.963 -0.859241 -3.1271 0
M  V30 2069 H 188.748 -2.62109 -2.91619 0
M  V30 2070 H 190.238 -1.9843 -3.67444 0
M  V30 2071 N 190.675 0.682077 -1.42076 0
M  V30 2072 C 191.605 1.80796 -1.47767 0
M  V30 2073 C 192.586 1.6677 -0.334954 0
M  V30 2074 O 193.771 1.863 -0.548264 0
M  V30 2075 C 190.901 3.19038 -1.37229 0
M  V30 2076 C 189.855 3.47789 -2.49453 0
M  V30 2077 C 189.181 4.8553 -2.23975 0
M  V30 2078 C 190.481 3.45411 -3.91776 0
M  V30 2079 H 192.175 1.7629 -2.41997 0
M  V30 2080 H 189.721 0.846721 -1.16476 0
M  V30 2081 H 191.674 3.97528 -1.39821 0
M  V30 2082 H 190.398 3.24204 -0.394907 0
M  V30 2083 H 189.057 2.71657 -2.46166 0
M  V30 2084 H 188.705 4.87337 -1.24547 0
M  V30 2085 H 188.405 5.0573 -2.99184 0
M  V30 2086 H 189.929 5.66312 -2.28304 0
M  V30 2087 H 191.343 4.13882 -3.96705 0
M  V30 2088 H 189.74 3.77145 -4.66778 0
M  V30 2089 H 190.81 2.44122 -4.18966 0
M  V30 2090 N 192.153 1.28127 0.917671 0
M  V30 2091 C 193.378 1.18007 1.70555 0
M  V30 2092 C 193.803 -0.258257 1.86319 0
M  V30 2093 O 193.161 -1.1869 1.37049 0
M  V30 2094 C 193.209 1.87948 3.07746 0
M  V30 2095 O 192.313 1.18427 3.9503 0
M  V30 2096 H 191.654 0.409867 0.522403 0
M  V30 2097 H 194.184 1.69379 1.1477 0
M  V30 2098 H 194.194 1.95701 3.58001 0
M  V30 2099 H 192.869 2.92573 2.95591 0
M  V30 2100 H 191.446 1.18811 3.53466 0
M  V30 2101 N 193.631 -1.12557 1.10312 0
M  V30 2102 C 194.908 -1.80363 0.756878 0
M  V30 2103 C 195.288 -1.97067 -0.756824 0
M  V30 2104 O 194.636 -1.54601 -1.68259 0
M  V30 2105 C 194.846 -3.14812 1.50647 0
M  V30 2106 C 196.194 -3.90029 1.67817 0
M  V30 2107 O 197.218 -3.24464 1.46974 0
M  V30 2108 O 196.077 -5.07652 2.02365 0
M  V30 2109 H 193.171 -0.780667 0.272926 0
M  V30 2110 H 195.717 -1.19404 1.20586 0
M  V30 2111 H 194.489 -2.97936 2.53672 0
M  V30 2112 H 194.112 -3.83478 1.05026 0
M  V30 2113 N 195.109 -0.891671 -1.2995 0
M  V30 2114 C 196.349 -0.520296 -1.97667 0
M  V30 2115 C 196.713 0.914797 -1.68806 0
M  V30 2116 O 197.914 1.39263 -2.29911 0
M  V30 2117 C 196.185 -0.795222 -3.48441 0
M  V30 2118 S 197.744 -0.526953 -4.35624 0
M  V30 2119 H 194.562 -0.19333 -0.684211 0
M  V30 2120 H 197.164 -1.15238 -1.57926 0
M  V30 2121 H 195.868 -1.83805 -3.66938 0
M  V30 2122 H 195.399 -0.15095 -3.9311 0
M  V30 2123 H 197.414 0.631533 -4.92165 0
M  V30 2124 N 196.587 1.43421 -0.653314 0
M  V30 2125 C 197.834 2.01812 -0.166745 0
M  V30 2126 C 198.162 1.51535 1.21931 0
M  V30 2127 O 197.417 0.698975 1.82792 0
M  V30 2128 C 197.716 3.57176 -0.126623 0
M  V30 2129 C 197.382 4.26798 -1.45444 0
M  V30 2130 C 196.044 4.45534 -1.81805 0
M  V30 2131 C 198.396 4.66225 -2.32989 0
M  V30 2132 C 195.724 5.00961 -3.05377 0
M  V30 2133 C 198.076 5.23021 -3.55853 0
M  V30 2134 C 196.74 5.39973 -3.9241 0
M  V30 2135 H 196.01 0.738484 -0.0610162 0
M  V30 2136 H 198.657 1.71896 -0.84404 0
M  V30 2137 H 196.962 3.86634 0.634123 0
M  V30 2138 H 198.659 4.00112 0.266723 0
M  V30 2139 H 195.249 4.12561 -1.16153 0
M  V30 2140 H 199.433 4.51443 -2.06187 0
M  V30 2141 H 194.689 5.12271 -3.3375 0
M  V30 2142 H 198.863 5.52518 -4.23907 0
M  V30 2143 H 196.49 5.82687 -4.88242 0
M  V30 2144 N 198.065 0.39524 1.52563 0
M  V30 2145 C 199.313 -0.184678 2.01254 0
M  V30 2146 C 199.634 -1.46822 1.28329 0
M  V30 2147 O 198.904 -1.91666 0.405094 0
M  V30 2148 H 197.484 -0.0712355 0.743596 0
M  V30 2149 H 200.146 0.528293 1.87603 0
M  V30 2150 H 199.242 -0.390681 3.09645 0
M  V30 2151 N 199.544 -1.57102 0.125237 0
M  V30 2152 C 200.474 -2.18659 -0.819174 0
M  V30 2153 C 201.455 -1.12843 -1.27281 0
M  V30 2154 O 202.64 -1.41104 -1.33429 0
M  V30 2155 C 199.77 -2.79096 -2.06695 0
M  V30 2156 C 198.724 -3.90548 -1.75088 0
M  V30 2157 C 198.05 -4.37821 -3.06948 0
M  V30 2158 C 199.35 -5.12356 -1.01435 0
M  V30 2159 H 201.044 -2.9783 -0.306202 0
M  V30 2160 H 198.59 -1.4326 -0.145839 0
M  V30 2161 H 200.543 -3.2082 -2.73226 0
M  V30 2162 H 199.267 -1.97223 -2.60328 0
M  V30 2163 H 197.926 -3.49409 -1.10944 0
M  V30 2164 H 197.574 -3.52799 -3.58527 0
M  V30 2165 H 197.274 -5.12982 -2.86571 0
M  V30 2166 H 198.798 -4.822 -3.74587 0
M  V30 2167 H 200.212 -5.5106 -1.58132 0
M  V30 2168 H 198.609 -5.9314 -0.911319 0
M  V30 2169 H 199.679 -4.849 -0.00218681 0
M  V30 2170 N 201.022 0.148545 -1.56898 0
M  V30 2171 C 202.438 0.501131 -1.51528 0
M  V30 2172 C 202.638 1.83458 -0.833399 0
M  V30 2173 O 201.694 2.49259 -0.40328 0
M  V30 2174 C 203.007 0.512864 -2.96294 0
M  V30 2175 C 204.555 0.598487 -3.07225 0
M  V30 2176 C 205.03 0.640897 -4.53494 0
M  V30 2177 N 206.521 0.703163 -4.57832 0
M  V30 2178 C 207.256 0.756935 -5.68382 0
M  V30 2179 N 206.752 0.770147 -6.88506 0
M  V30 2180 N 208.545 0.797698 -5.56411 0
M  V30 2181 H 200.696 -0.725532 -1.99624 0
M  V30 2182 H 202.959 -0.264358 -0.910395 0
M  V30 2183 H 202.665 -0.398691 -3.49433 0
M  V30 2184 H 202.539 1.35133 -3.52163 0
M  V30 2185 H 204.926 1.50046 -2.54106 0
M  V30 2186 H 205.007 -0.267093 -2.54402 0
M  V30 2187 H 204.651 -0.256915 -5.0725 0
M  V30 2188 H 204.581 1.52295 -5.04097 0
M  V30 2189 H 207.072 0.700314 -3.71354 0
M  V30 2190 H 207.385 0.812983 -7.68512 0
M  V30 2191 H 205.73 0.738049 -6.9107 0
M  V30 2192 H 208.921 0.784535 -4.61479 0
M  V30 2193 H 209.094 0.83614 -6.42583 0
M  V30 2194 N 202.5 1.5196 0.417844 0
M  V30 2195 C 203.748 1.65263 1.16329 0
M  V30 2196 C 204.069 0.380634 1.91249 0
M  V30 2197 O 203.339 -0.604214 1.86349 0
M  V30 2198 H 201.919 0.60912 0.432414 0
M  V30 2199 H 204.581 1.88969 0.477162 0
M  V30 2200 H 203.677 2.4896 1.88217 0
M  V30 2201 N 203.978 -0.674533 1.42435 0
M  V30 2202 C 204.908 -1.80009 1.48724 0
M  V30 2203 C 205.889 -1.6659 0.343793 0
M  V30 2204 O 207.074 -1.86007 0.558137 0
M  V30 2205 C 204.204 -3.18306 1.38919 0
M  V30 2206 C 203.158 -3.46461 2.51294 0
M  V30 2207 C 202.484 -4.84335 2.26547 0
M  V30 2208 C 203.784 -3.43328 3.93603 0
M  V30 2209 H 205.478 -1.75004 2.42928 0
M  V30 2210 H 203.024 -0.840533 1.16923 0
M  V30 2211 H 204.977 -3.9678 1.41927 0
M  V30 2212 H 203.701 -3.2399 0.412094 0
M  V30 2213 H 202.36 -2.70348 2.47604 0
M  V30 2214 H 202.008 -4.86669 1.2713 0
M  V30 2215 H 201.708 -5.04136 3.01861 0
M  V30 2216 H 203.232 -5.65094 2.31304 0
M  V30 2217 H 204.646 -4.11772 3.98894 0
M  V30 2218 H 203.043 -3.74664 4.68771 0
M  V30 2219 H 204.113 -2.41897 4.20255 0
M  V30 2220 N 205.456 -1.28612 -0.910864 0
M  V30 2221 C 206.386 -1.15326 -2.03032 0
M  V30 2222 C 207.367 -0.0502924 -1.70026 0
M  V30 2223 O 208.552 -0.227797 -1.92859 0
M  V30 2224 C 205.682 -0.817343 -3.37545 0
M  V30 2225 C 204.636 -1.8754 -3.84724 0
M  V30 2226 C 203.962 -1.39305 -5.16235 0
M  V30 2227 C 205.262 -3.28244 -4.06267 0
M  V30 2228 H 206.956 -2.08975 -2.14406 0
M  V30 2229 H 204.502 -1.00612 -1.03021 0
M  V30 2230 H 206.455 -0.711151 -4.15356 0
M  V30 2231 H 205.179 0.154846 -3.26233 0
M  V30 2232 H 203.838 -1.97079 -3.09121 0
M  V30 2233 H 203.486 -0.409846 -5.01328 0
M  V30 2234 H 203.186 -2.10057 -5.48771 0
M  V30 2235 H 204.71 -1.30014 -5.96598 0
M  V30 2236 H 206.124 -3.21611 -4.74594 0
M  V30 2237 H 204.521 -3.96855 -4.5014 0
M  V30 2238 H 205.591 -3.72048 -3.10979 0
M  V30 2239 N 206.934 1.1197 -1.10907 0
M  V30 2240 C 207.884 2.15946 -0.731538 0
M  V30 2241 C 208.868 1.58758 0.261699 0
M  V30 2242 O 210.06 1.76863 0.0696722 0
M  V30 2243 C 207.189 3.42877 -0.170299 0
M  V30 2244 C 206.275 4.07037 -1.19087 0
M  V30 2245 N 206.666 4.46135 -2.38322 0
M  V30 2246 C 204.964 4.33884 -1.03252 0
M  V30 2247 C 205.665 4.96331 -3.03366 0
M  V30 2248 N 204.641 4.9214 -2.30865 0
M  V30 2249 H 208.443 2.43947 -1.63912 0
M  V30 2250 H 205.957 1.28927 -0.987505 0
M  V30 2251 H 207.954 4.16732 0.118271 0
M  V30 2252 H 206.614 3.16343 0.731935 0
M  V30 2253 H 207.625 4.38345 -2.75815 0
M  V30 2254 H 204.302 4.17084 -0.186256 0
M  V30 2255 H 205.692 5.36257 -4.04818 0
M  V30 2256 N 208.412 0.89855 1.29475 0
M  V30 2257 C 209.342 0.39201 2.30186 0
M  V30 2258 C 210.323 -0.532359 1.61555 0
M  V30 2259 O 211.508 -0.443331 1.89072 0
M  V30 2260 C 208.638 -0.382353 3.45189 0
M  V30 2261 C 207.592 0.451483 4.25612 0
M  V30 2262 C 206.918 -0.450307 5.328 0
M  V30 2263 C 208.218 1.70079 4.93832 0
M  V30 2264 H 209.912 1.23362 2.72804 0
M  V30 2265 H 207.458 0.594638 1.31149 0
M  V30 2266 H 209.411 -0.747451 4.14718 0
M  V30 2267 H 208.135 -1.25774 3.01411 0
M  V30 2268 H 206.794 0.798897 3.57789 0
M  V30 2269 H 206.442 -1.32379 4.85268 0
M  V30 2270 H 206.142 0.103902 5.87508 0
M  V30 2271 H 207.666 -0.811623 6.05182 0
M  V30 2272 H 209.08 1.40549 5.55805 0
M  V30 2273 H 207.477 2.19623 5.58467 0
M  V30 2274 H 208.547 2.43744 4.19186 0
M  V30 2275 N 209.89 -1.43072 0.660911 0
M  V30 2276 C 210.8 -2.34585 -0.0264163 0
M  V30 2277 C 211.816 -1.54316 -0.803898 0
M  V30 2278 O 212.992 -1.86939 -0.749391 0
M  V30 2279 C 210.057 -3.32689 -0.975639 0
M  V30 2280 C 209.118 -4.2886 -0.194236 0
M  V30 2281 C 208.351 -5.22278 -1.09825 0
M  V30 2282 O 208.574 -5.20299 -2.33763 0
M  V30 2283 O 207.508 -5.99228 -0.566513 0
M  V30 2284 H 211.334 -2.94869 0.727034 0
M  V30 2285 H 208.919 -1.43342 0.42111 0
M  V30 2286 H 210.801 -3.92995 -1.52094 0
M  V30 2287 H 209.476 -2.74898 -1.70918 0
M  V30 2288 H 208.383 -3.72011 0.394835 0
M  V30 2289 H 209.716 -4.89655 0.499899 0
M  V30 2290 N 211.368 -0.403325 -1.52352 0
M  V30 2291 C 212.316 0.439752 -2.28405 0
M  V30 2292 C 213.31 1.05089 -1.32863 0
M  V30 2293 O 214.516 0.989759 -1.50345 0
M  V30 2294 H 210.891 0.160587 -0.734653 0
M  V30 2295 H 212.862 -0.222983 -2.97566 0
M  V30 2296 C 211.611 1.54736 -3.11371 0
M  V30 2297 H 210.934 1.08643 -3.84755 0
M  V30 2298 H 212.374 2.1112 -3.67701 0
M  V30 2299 C 210.833 2.51141 -2.24566 0
M  V30 2300 O 211.363 3.54887 -1.88196 0
M  V30 2301 N 209.569 2.21213 -1.8845 0
M  V30 2302 H 209.116 1.36878 -2.18225 0
M  V30 2303 H 209.074 2.85963 -1.30662 0
M  V30 2304 N 212.846 1.57033 -0.133567 0
M  V30 2305 C 213.809 2.14897 0.796995 0
M  V30 2306 C 214.809 1.0874 1.18458 0
M  V30 2307 O 215.999 1.34446 1.1077 0
M  V30 2308 C 213.131 2.70112 2.07973 0
M  V30 2309 H 214.324 2.98457 0.293873 0
M  V30 2310 H 211.877 1.55871 0.115787 0
M  V30 2311 H 212.612 1.9018 2.62682 0
M  V30 2312 H 212.397 3.47764 1.81115 0
M  V30 2313 H 213.887 3.14738 2.74462 0
M  V30 2314 N 214.325 -0.140222 1.56975 0
M  V30 2315 C 215.55 -0.870414 1.88251 0
M  V30 2316 C 215.975 -1.73637 0.723312 0
M  V30 2317 O 215.333 -1.78329 -0.32689 0
M  V30 2318 C 215.381 -1.69737 3.18154 0
M  V30 2319 O 214.485 -2.80229 3.02565 0
M  V30 2320 H 213.826 -0.242025 0.61832 0
M  V30 2321 H 216.356 -0.128999 2.04193 0
M  V30 2322 H 216.366 -2.09099 3.50345 0
M  V30 2323 H 215.041 -1.06152 4.02125 0
M  V30 2324 H 213.618 -2.44224 2.81796 0
M  V30 2325 N 215.803 -1.52179 -0.40978 0
M  V30 2326 C 217.033 -1.69807 -1.17682 0
M  V30 2327 C 217.441 -0.406908 -1.84773 0
M  V30 2328 O 216.784 0.626863 -1.72673 0
M  V30 2329 C 216.846 -2.77712 -2.2829 0
M  V30 2330 C 216.51 -4.19481 -1.81341 0
M  V30 2331 C 217.507 -5.03345 -1.30154 0
M  V30 2332 C 215.192 -4.65713 -1.88194 0
M  V30 2333 C 217.186 -6.31511 -0.864416 0
M  V30 2334 C 214.873 -5.93869 -1.44093 0
M  V30 2335 C 215.871 -6.76597 -0.933023 0
M  V30 2336 O 215.559 -8.02354 -0.49838 0
M  V30 2337 H 215.291 -0.572372 -0.359675 0
M  V30 2338 H 217.845 -1.99511 -0.488311 0
M  V30 2339 H 216.075 -2.43383 -3.00502 0
M  V30 2340 H 217.764 -2.83946 -2.90051 0
M  V30 2341 H 218.53 -4.68819 -1.24232 0
M  V30 2342 H 214.409 -4.01424 -2.26671 0
M  V30 2343 H 217.953 -6.96033 -0.467286 0
M  V30 2344 H 213.85 -6.27903 -1.49694 0
M  V30 2345 H 214.618 -8.16135 -0.621747 0
M  V30 2346 N 217.281 0.66697 -1.42791 0
M  V30 2347 C 218.529 1.42417 -1.43394 0
M  V30 2348 C 218.85 1.94925 -0.0542373 0
M  V30 2349 O 218.12 1.73564 0.908415 0
M  V30 2350 H 216.7 0.528515 -0.527902 0
M  V30 2351 H 219.362 0.787562 -1.78279 0
M  V30 2352 H 218.458 2.27333 -2.13837 0
M  V30 2353 N 218.759 1.29093 0.90403 0
M  V30 2354 C 220.008 1.16187 1.64874 0
M  V30 2355 C 220.321 -0.286742 1.93487 0
M  V30 2356 O 221.527 -0.537062 2.66135 0
M  V30 2357 C 219.983 2.03177 2.97064 0
M  V30 2358 C 219.591 3.52836 2.76062 0
M  V30 2359 C 221.335 1.98984 3.74974 0
M  V30 2360 C 219.242 4.31945 4.03952 0
M  V30 2361 H 218.172 0.431246 0.618501 0
M  V30 2362 H 220.823 1.53699 1.00243 0
M  V30 2363 H 219.205 1.5853 3.62883 0
M  V30 2364 H 220.379 4.05507 2.18863 0
M  V30 2365 H 218.694 3.58656 2.11553 0
M  V30 2366 H 221.291 2.55351 4.69787 0
M  V30 2367 H 221.634 0.968815 4.0487 0
M  V30 2368 H 222.167 2.41652 3.15989 0
M  V30 2369 H 218.906 5.34667 3.79225 0
M  V30 2370 H 218.426 3.84045 4.60727 0
M  V30 2371 H 220.105 4.42379 4.72133 0
M  V30 2372 N 220.237 -1.11381 1.11499 0
M  V30 2373 C 221.147 -2.21019 0.786628 0
M  V30 2374 C 222.163 -1.72597 -0.220507 0
M  V30 2375 O 223.339 -2.01321 -0.0565251 0
M  V30 2376 C 220.404 -3.459 0.235333 0
M  V30 2377 C 219.465 -4.09107 1.30115 0
M  V30 2378 C 218.698 -5.28027 0.776068 0
M  V30 2379 O 218.921 -5.6904 -0.393661 0
M  V30 2380 O 217.855 -5.81835 1.54114 0
M  V30 2381 H 221.681 -2.51521 1.70209 0
M  V30 2382 H 219.266 -1.19928 0.890928 0
M  V30 2383 H 221.148 -4.21346 -0.067715 0
M  V30 2384 H 219.823 -3.17049 -0.652828 0
M  V30 2385 H 218.73 -3.35391 1.65722 0
M  V30 2386 H 220.063 -4.42139 2.16273 0
M  V30 2387 N 221.715 -0.905404 -1.28997 0
M  V30 2388 C 223.126 -0.581953 -1.77398 0
M  V30 2389 C 223.477 0.902552 -1.74208 0
M  V30 2390 O 222.602 1.70584 -1.33154 0
M  V30 2391 C 223.197 -1.04961 -3.22131 0
M  V30 2392 C 221.756 -0.777229 -3.68288 0
M  V30 2393 C 220.903 -1.22109 -2.48967 0
M  V30 2394 H 223.854 -1.08754 -1.15578 0
M  V30 2395 H 223.875 -0.387387 -3.78523 0
M  V30 2396 H 223.387 -2.13008 -3.24421 0
M  V30 2397 H 221.488 0.290383 -3.71467 0
M  V30 2398 H 221.601 -1.37911 -4.58822 0
M  V30 2399 H 219.965 -0.639971 -2.46529 0
M  V30 2400 H 220.748 -2.30972 -2.53982 0
M  V30 2401 N 223.193 1.4272 -0.668489 0
M  V30 2402 C 224.123 2.335 -0.000100175 0
M  V30 2403 C 225.104 1.50328 0.795964 0
M  V30 2404 O 226.289 1.78949 0.754385 0
M  V30 2405 C 223.419 3.33874 0.956302 0
M  V30 2406 C 222.373 4.27152 0.269278 0
M  V30 2407 C 221.699 5.17684 1.33818 0
M  V30 2408 C 222.999 5.15373 -0.847805 0
M  V30 2409 H 224.693 2.89639 -0.758244 0
M  V30 2410 H 222.239 1.39269 -0.366079 0
M  V30 2411 H 224.192 3.9629 1.43292 0
M  V30 2412 H 222.916 2.76025 1.74579 0
M  V30 2413 H 221.575 3.66123 -0.187042 0
M  V30 2414 H 221.223 4.56165 2.1195 0
M  V30 2415 H 220.923 5.80918 0.883659 0
M  V30 2416 H 222.447 5.82974 1.81586 0
M  V30 2417 H 223.861 5.7151 -0.452681 0
M  V30 2418 H 222.258 5.87407 -1.22773 0
M  V30 2419 H 223.328 4.5415 -1.69929 0
M  V30 2420 N 224.671 0.411399 1.52136 0
M  V30 2421 C 225.603 -0.448386 2.24771 0
M  V30 2422 C 226.616 -1.00828 1.27818 0
M  V30 2423 O 227.805 -0.906841 1.53749 0
M  V30 2424 C 224.905 -1.63636 2.96777 0
M  V30 2425 C 224.078 -1.19995 4.20618 0
M  V30 2426 C 223.137 -2.25509 4.75428 0
M  V30 2427 O 222.163 -1.86007 5.3795 0
M  V30 2428 N 223.365 -3.577 4.57199 0
M  V30 2429 H 226.13 0.174025 2.99194 0
M  V30 2430 H 223.691 0.238897 1.60128 0
M  V30 2431 H 225.683 -2.33793 3.30338 0
M  V30 2432 H 224.253 -2.16465 2.25526 0
M  V30 2433 H 223.473 -0.326421 3.92846 0
M  V30 2434 H 224.761 -0.885365 5.01038 0
M  V30 2435 H 224.159 -3.92543 4.07341 0
M  V30 2436 H 222.716 -4.23827 4.95191 0
M  V30 2437 N 226.149 -1.5696 0.141893 0
M  V30 2438 C 227.097 -2.17784 -0.816874 0
M  V30 2439 C 228.091 -1.1334 -1.25899 0
M  V30 2440 O 229.297 -1.316 -1.22806 0
M  V30 2441 H 225.672 -0.697278 -0.281615 0
M  V30 2442 H 227.643 -2.97087 -0.279621 0
M  V30 2443 C 226.392 -2.80983 -2.04802 0
M  V30 2444 H 225.715 -3.61062 -1.7168 0
M  V30 2445 H 227.155 -3.2705 -2.69841 0
M  V30 2446 C 225.614 -1.79228 -2.8527 0
M  V30 2447 O 226.144 -1.25962 -3.8144 0
M  V30 2448 N 224.35 -1.48647 -2.49704 0
M  V30 2449 H 223.897 -1.92155 -1.71564 0
M  V30 2450 H 223.855 -0.808115 -3.03837 0
M  V30 2451 N 227.627 0.131896 -1.57047 0
M  V30 2452 C 228.852 0.860418 -1.8871 0
M  V30 2453 C 229.277 1.73251 -0.73251 0
M  V30 2454 O 228.635 1.785 0.317429 0
M  V30 2455 C 228.683 1.68047 -3.19049 0
M  V30 2456 O 227.787 2.7862 -3.04047 0
M  V30 2457 H 227.128 0.238743 -0.619595 0
M  V30 2458 H 229.658 0.118169 -2.04258 0
M  V30 2459 H 229.668 2.07238 -3.51449 0
M  V30 2460 H 228.343 1.04018 -4.02682 0
M  V30 2461 H 226.92 2.42726 -2.83088 0
M  V30 2462 N 229.106 1.52395 0.401703 0
M  V30 2463 C 230.331 1.70972 1.17403 0
M  V30 2464 C 230.756 0.421615 1.83314 0
M  V30 2465 O 230.114 -0.621564 1.70312 0
M  V30 2466 C 230.162 2.85151 2.20728 0
M  V30 2467 O 229.266 2.51238 3.27037 0
M  V30 2468 H 228.607 0.568927 0.342372 0
M  V30 2469 H 231.137 1.99131 0.469891 0
M  V30 2470 H 231.147 3.10279 2.64936 0
M  V30 2471 H 229.822 3.78603 1.7214 0
M  V30 2472 H 228.399 2.36808 2.88057 0
M  V30 2473 N 230.584 -0.659388 1.43143 0
M  V30 2474 C 231.534 -1.7655 1.44271 0
M  V30 2475 C 232.518 -1.57847 0.311961 0
M  V30 2476 O 233.71 -1.68064 0.555306 0
M  V30 2477 C 230.839 -3.15104 1.36251 0
M  V30 2478 C 229.925 -3.39377 2.54331 0
M  V30 2479 N 230.316 -3.34153 3.79704 0
M  V30 2480 C 228.614 -3.70072 2.48922 0
M  V30 2481 C 229.315 -3.58337 4.58225 0
M  V30 2482 N 228.291 -3.79851 3.88863 0
M  V30 2483 H 232.093 -1.70928 2.39083 0
M  V30 2484 H 229.607 -0.860823 1.37708 0
M  V30 2485 H 231.604 -3.94389 1.35141 0
M  V30 2486 H 230.264 -3.21913 0.424531 0
M  V30 2487 H 231.275 -3.13704 4.1208 0
M  V30 2488 H 227.952 -3.84034 1.63781 0
M  V30 2489 H 229.342 -3.60129 5.67236 0
M  V30 2490 N 232.062 -1.29571 -0.897171 0
M  V30 2491 C 233.309 -1.17689 -1.6479 0
M  V30 2492 C 233.637 0.27107 -1.92602 0
M  V30 2493 O 232.892 1.21193 -1.53658 0
M  V30 2494 C 233.191 -1.9382 -3.00281 0
M  V30 2495 C 232.857 -3.43522 -2.92068 0
M  V30 2496 C 231.519 -3.84348 -2.89535 0
M  V30 2497 C 233.871 -4.38906 -2.81089 0
M  V30 2498 C 231.199 -5.18869 -2.73846 0
M  V30 2499 C 233.551 -5.73521 -2.66939 0
M  V30 2500 C 232.215 -6.13601 -2.62774 0
M  V30 2501 H 231.485 -0.430654 -0.603008 0
M  V30 2502 H 234.132 -1.60536 -1.04404 0
M  V30 2503 H 232.437 -1.4357 -3.64547 0
M  V30 2504 H 234.134 -1.82028 -3.57305 0
M  V30 2505 H 230.724 -3.11072 -2.94842 0
M  V30 2506 H 234.908 -4.08315 -2.82121 0
M  V30 2507 H 230.164 -5.4903 -2.69027 0
M  V30 2508 H 234.338 -6.47078 -2.57416 0
M  V30 2509 H 231.965 -7.17786 -2.50375 0
M  V30 2510 N 233.54 1.10788 -1.12088 0
M  V30 2511 C 234.45 2.20599 -0.798338 0
M  V30 2512 C 235.466 1.72712 0.21135 0
M  V30 2513 O 236.642 2.01348 0.0458477 0
M  V30 2514 C 233.707 3.45771 -0.253674 0
M  V30 2515 C 232.768 4.08411 -1.32283 0
M  V30 2516 C 232.001 5.27608 -0.80406 0
M  V30 2517 O 232.224 5.69241 0.363478 0
M  V30 2518 O 231.158 5.8101 -1.57198 0
M  V30 2519 H 234.984 2.50614 -1.7154 0
M  V30 2520 H 232.569 1.19454 -0.897275 0
M  V30 2521 H 234.451 4.21376 0.0453691 0
M  V30 2522 H 233.126 3.1739 0.636005 0
M  V30 2523 H 232.033 3.34507 -1.67499 0
M  V30 2524 H 233.366 4.40986 -2.18614 0
M  V30 2525 N 235.018 0.912232 1.28515 0
M  V30 2526 C 235.968 0.370649 2.24967 0
M  V30 2527 C 236.952 -0.516375 1.52389 0
M  V30 2528 O 238.144 -0.356345 1.73376 0
M  V30 2529 C 235.273 -0.389526 3.41083 0
M  V30 2530 C 234.359 0.51313 4.20984 0
M  V30 2531 N 234.75 1.62604 4.78951 0
M  V30 2532 C 233.048 0.313235 4.44899 0
M  V30 2533 C 233.749 2.18619 5.39055 0
M  V30 2534 N 232.725 1.47765 5.23132 0
M  V30 2535 H 236.527 1.22061 2.67354 0
M  V30 2536 H 234.041 0.764712 1.43269 0
M  V30 2537 H 236.038 -0.794353 4.09262 0
M  V30 2538 H 234.698 -1.2366 3.0023 0
M  V30 2539 H 235.709 2.00864 4.77362 0
M  V30 2540 H 232.386 -0.494452 4.14562 0
M  V30 2541 H 233.776 3.12228 5.94948 0
M  V30 2542 N 236.496 -1.42363 0.676048 0
M  V30 2543 C 237.745 -2.00745 0.196037 0
M  V30 2544 C 238.058 -1.54083 -1.20489 0
M  V30 2545 O 239.264 -2.04891 -1.78134 0
M  V30 2546 C 237.72 -3.58651 0.299616 0
M  V30 2547 C 237.328 -4.143 1.70468 0
M  V30 2548 C 239.072 -4.24326 -0.121619 0
M  V30 2549 C 236.979 -5.64574 1.76096 0
M  V30 2550 H 235.909 -0.750787 0.0695301 0
M  V30 2551 H 238.56 -1.63072 0.841412 0
M  V30 2552 H 236.942 -3.93833 -0.413673 0
M  V30 2553 H 238.116 -3.90575 2.44515 0
M  V30 2554 H 236.431 -3.61081 2.07387 0
M  V30 2555 H 239.028 -5.34607 -0.0997362 0
M  V30 2556 H 239.371 -3.99897 -1.15708 0
M  V30 2557 H 239.904 -3.94108 0.540706 0
M  V30 2558 H 236.643 -5.93804 2.77628 0
M  V30 2559 H 236.163 -5.90286 1.06406 0
M  V30 2560 H 237.842 -6.29013 1.51496 0
M  V30 2561 N 237.974 -0.419461 -1.51915 0
M  V30 2562 C 239.223 0.154346 -2.01109 0
M  V30 2563 C 239.536 1.45338 -1.30905 0
M  V30 2564 O 240.742 2.10906 -1.7097 0
M  V30 2565 C 239.198 0.325615 -3.58424 0
M  V30 2566 C 238.806 -0.961934 -4.37551 0
M  V30 2567 C 240.55 0.854155 -4.15818 0
M  V30 2568 C 238.457 -0.757287 -5.86531 0
M  V30 2569 H 237.387 0.0614563 -0.751491 0
M  V30 2570 H 240.038 -0.54649 -1.75173 0
M  V30 2571 H 238.42 1.08903 -3.80731 0
M  V30 2572 H 239.594 -1.7323 -4.26999 0
M  V30 2573 H 237.909 -1.41766 -3.91524 0
M  V30 2574 H 240.506 1.02346 -5.24814 0
M  V30 2575 H 240.849 1.83172 -3.73837 0
M  V30 2576 H 241.382 0.149528 -3.97519 0
M  V30 2577 H 238.121 -1.70671 -6.32892 0
M  V30 2578 H 237.641 -0.0264061 -5.99794 0
M  V30 2579 H 239.32 -0.403482 -6.45741 0
M  V30 2580 N 239.452 1.56882 -0.150215 0
M  V30 2581 C 240.682 2.00302 0.506213 0
M  V30 2582 C 241.09 1.02934 1.58749 0
M  V30 2583 O 240.433 0.0188384 1.8369 0
M  V30 2584 C 240.495 3.40156 1.16337 0
M  V30 2585 C 240.159 4.56439 0.226311 0
M  V30 2586 C 241.156 5.17012 -0.547265 0
M  V30 2587 C 238.841 5.02136 0.128279 0
M  V30 2588 C 240.835 6.21693 -1.40629 0
M  V30 2589 C 238.522 6.06672 -0.734345 0
M  V30 2590 C 239.52 6.6632 -1.50023 0
M  V30 2591 O 239.208 7.68831 -2.34848 0
M  V30 2592 H 238.94 0.662182 0.135984 0
M  V30 2593 H 241.494 2.03961 -0.242746 0
M  V30 2594 H 239.724 3.33346 1.96004 0
M  V30 2595 H 241.413 3.67663 1.71985 0
M  V30 2596 H 242.179 4.82603 -0.48158 0
M  V30 2597 H 238.058 4.55435 0.714157 0
M  V30 2598 H 241.602 6.68179 -2.00455 0
M  V30 2599 H 237.499 6.40507 -0.801309 0
M  V30 2600 H 238.267 7.86065 -2.28131 0
M  V30 2601 N 240.93 -0.123565 1.57115 0
M  V30 2602 C 242.346 -0.476961 1.52306 0
M  V30 2603 C 242.546 -1.82109 0.86248 0
M  V30 2604 O 241.602 -2.48586 0.442884 0
M  V30 2605 C 242.915 -0.465661 2.97073 0
M  V30 2606 C 244.463 -0.549534 3.08138 0
M  V30 2607 C 244.938 -0.568669 4.54456 0
M  V30 2608 N 246.429 -0.630237 4.58892 0
M  V30 2609 C 247.164 -0.666415 5.69514 0
M  V30 2610 N 246.66 -0.660514 6.89644 0
M  V30 2611 N 248.453 -0.709077 5.5761 0
M  V30 2612 H 240.604 0.757198 1.98445 0
M  V30 2613 H 242.867 0.278808 0.906074 0
M  V30 2614 H 242.573 0.454232 3.48754 0
M  V30 2615 H 242.447 -1.29513 3.54269 0
M  V30 2616 H 244.834 -1.45985 2.56461 0
M  V30 2617 H 244.915 0.307532 2.53945 0
M  V30 2618 H 244.559 0.337581 5.06777 0
M  V30 2619 H 244.489 -1.44256 5.06456 0
M  V30 2620 H 246.98 -0.641146 3.72421 0
M  V30 2621 H 247.293 -0.690616 7.69708 0
M  V30 2622 H 245.638 -0.628012 6.92157 0
M  V30 2623 H 248.829 -0.711019 4.62668 0
M  V30 2624 H 249.002 -0.733804 6.43832 0
M  V30 2625 N 242.408 -1.52605 -0.393616 0
M  V30 2626 C 243.341 -1.71798 -1.50202 0
M  V30 2627 C 244.319 -0.565743 -1.52441 0
M  V30 2628 O 245.503 -0.794987 -1.70916 0
M  V30 2629 C 242.63 -1.7714 -2.88685 0
M  V30 2630 C 241.676 -2.98845 -3.04292 0
M  V30 2631 S 242.509 -4.58909 -2.75976 0
M  V30 2632 C 243.665 -4.6706 -4.1666 0
M  V30 2633 H 243.898 -2.65542 -1.33696 0
M  V30 2634 H 241.431 -1.42839 -0.586195 0
M  V30 2635 H 243.389 -1.80903 -3.68489 0
M  V30 2636 H 242.05 -0.844969 -3.02521 0
M  V30 2637 H 241.243 -2.99111 -4.05646 0
M  V30 2638 H 240.845 -2.9305 -2.32374 0
M  V30 2639 H 243.137 -4.45391 -5.10523 0
M  V30 2640 H 244.08 -5.6905 -4.21412 0
M  V30 2641 H 244.488 -3.95944 -4.02354 0
M  V30 2642 N 243.887 0.651787 -1.4349 0
M  V30 2643 C 245.164 1.40909 -1.35661 0
M  V30 2644 C 245.544 2.11099 -0.00511733 0
M  V30 2645 O 244.892 2.04892 1.0115 0
M  V30 2646 C 245.102 2.3926 -2.54078 0
M  V30 2647 C 246.45 3.03217 -2.97228 0
M  V30 2648 O 247.474 2.49588 -2.54135 0
M  V30 2649 O 246.333 4.00455 -3.71885 0
M  V30 2650 H 243.427 0.629625 -0.536191 0
M  V30 2651 H 245.973 0.678575 -1.55542 0
M  V30 2652 H 244.745 1.86352 -3.44076 0
M  V30 2653 H 244.368 3.1976 -2.36303 0
M  V30 2654 N 245.365 1.30045 0.890287 0
M  V30 2655 C 246.642 1.09227 1.62262 0
M  V30 2656 C 247.022 -0.360305 2.08002 0
M  V30 2657 O 246.37 -1.35084 1.84295 0
M  V30 2658 C 246.58 2.08835 2.79623 0
M  V30 2659 C 247.928 2.40266 3.50082 0
M  V30 2660 O 248.952 2.07104 2.89804 0
M  V30 2661 O 247.811 2.96967 4.58773 0
M  V30 2662 H 244.905 0.419132 0.712922 0
M  V30 2663 H 247.451 1.41451 0.937529 0
M  V30 2664 H 246.223 3.06633 2.43089 0
M  V30 2665 H 245.846 1.77397 3.55832 0
M  V30 2666 N 246.843 -1.10192 1.12674 0
M  V30 2667 C 248.089 -1.82475 0.884915 0
M  V30 2668 C 248.422 -1.85093 -0.58773 0
M  V30 2669 O 247.697 -1.3134 -1.43457 0
M  V30 2670 C 247.98 -3.29018 1.46353 0
M  V30 2671 C 247.833 -3.34718 3.00473 0
M  V30 2672 C 249.152 -4.25473 1.12519 0
M  V30 2673 H 246.271 -0.662492 0.322915 0
M  V30 2674 H 248.913 -1.2913 1.39375 0
M  V30 2675 H 247.063 -3.74576 1.03077 0
M  V30 2676 H 248.735 -2.97622 3.52447 0
M  V30 2677 H 246.978 -2.74541 3.35872 0
M  V30 2678 H 247.649 -4.37918 3.36053 0
M  V30 2679 H 250.125 -3.88161 1.499 0
M  V30 2680 H 249.001 -5.26365 1.55663 0
M  V30 2681 H 249.262 -4.42084 0.0377407 0
M  V30 2682 N 248.321 -0.919034 -1.28029 0
M  V30 2683 C 249.551 -0.570143 -1.98577 0
M  V30 2684 C 249.959 0.854172 -1.68821 0
M  V30 2685 O 249.302 1.57807 -0.940351 0
M  V30 2686 C 249.364 -0.705734 -3.52505 0
M  V30 2687 C 249.028 -2.10057 -4.05863 0
M  V30 2688 C 250.025 -3.07385 -4.19298 0
M  V30 2689 C 247.71 -2.41517 -4.40426 0
M  V30 2690 C 249.704 -4.34287 -4.66555 0
M  V30 2691 C 247.391 -3.68657 -4.87376 0
M  V30 2692 C 248.389 -4.64856 -5.00398 0
M  V30 2693 O 248.077 -5.89735 -5.46322 0
M  V30 2694 H 247.809 -0.215592 -0.6407 0
M  V30 2695 H 250.363 -1.23583 -1.64062 0
M  V30 2696 H 248.593 0.0170414 -3.86696 0
M  V30 2697 H 250.282 -0.363172 -4.04272 0
M  V30 2698 H 251.048 -2.84398 -3.92865 0
M  V30 2699 H 246.927 -1.67389 -4.29537 0
M  V30 2700 H 250.471 -5.09377 -4.76635 0
M  V30 2701 H 246.368 -3.91466 -5.13249 0
M  V30 2702 H 247.136 -5.92599 -5.64596 0
M  V30 2703 N 249.799 1.42003 -0.683588 0
M  V30 2704 C 250.746 2.30798 -0.0107309 0
M  V30 2705 C 251.716 1.4645 0.783688 0
M  V30 2706 O 252.901 1.75263 0.754156 0
M  V30 2707 C 250.041 3.3238 0.928306 0
M  V30 2708 C 249.154 4.31814 0.126776 0
M  V30 2709 C 248.289 5.20468 1.06236 0
M  V30 2710 C 247.328 6.11577 0.253035 0
M  V30 2711 N 246.465 6.92754 1.14179 0
M  V30 2712 H 251.305 2.8778 -0.773727 0
M  V30 2713 H 248.842 1.41745 -0.393283 0
M  V30 2714 H 250.8 3.89813 1.48666 0
M  V30 2715 H 249.43 2.76976 1.65783 0
M  V30 2716 H 248.482 3.76427 -0.54833 0
M  V30 2717 H 249.794 4.96276 -0.501192 0
M  V30 2718 H 248.948 5.82677 1.69035 0
M  V30 2719 H 247.687 4.56204 1.7242 0
M  V30 2720 H 246.692 5.48428 -0.388108 0
M  V30 2721 H 247.917 6.77892 -0.404839 0
M  V30 2722 H 245.863 6.3111 1.78987 0
M  V30 2723 H 245.78 7.53855 0.569111 0
M  V30 2724 H 247.048 7.59441 1.75697 0
M  V30 2725 N 251.277 0.427512 1.51691 0
M  V30 2726 C 252.187 -0.39527 2.31246 0
M  V30 2727 C 253.203 -1.03674 1.39742 0
M  V30 2728 O 254.379 -1.03425 1.72816 0
M  V30 2729 C 251.444 -1.48706 3.13189 0
M  V30 2730 C 250.505 -0.866743 4.20459 0
M  V30 2731 C 249.738 -1.90651 4.98486 0
M  V30 2732 O 249.961 -3.12733 4.77026 0
M  V30 2733 O 248.895 -1.5025 5.82845 0
M  V30 2734 H 252.721 0.253918 3.02637 0
M  V30 2735 H 250.306 0.190274 1.48183 0
M  V30 2736 H 252.188 -2.12047 3.64162 0
M  V30 2737 H 250.863 -2.12051 2.44573 0
M  V30 2738 H 249.77 -0.195544 3.73589 0
M  V30 2739 H 251.103 -0.276934 4.9142 0
M  V30 2740 N 252.755 -1.56801 0.158532 0
M  V30 2741 C 254.166 -1.83189 -0.360366 0
M  V30 2742 C 254.517 -1.07778 -1.63946 0
M  V30 2743 O 253.642 -0.326718 -2.13919 0
M  V30 2744 C 254.237 -3.32297 -0.660595 0
M  V30 2745 C 252.796 -3.59227 -1.12398 0
M  V30 2746 C 251.943 -2.76877 -0.153097 0
M  V30 2747 H 254.894 -1.54008 0.383031 0
M  V30 2748 H 254.915 -3.4908 -1.51405 0
M  V30 2749 H 254.427 -3.87156 0.270527 0
M  V30 2750 H 252.528 -3.09766 -2.07064 0
M  V30 2751 H 252.641 -4.67632 -1.04197 0
M  V30 2752 H 251.005 -2.46319 -0.647983 0
M  V30 2753 H 251.788 -3.34511 0.77182 0
M  V30 2754 N 254.233 0.115231 -1.57178 0
M  V30 2755 C 255.163 1.1423 -2.03651 0
M  V30 2756 C 256.144 1.42967 -0.921655 0
M  V30 2757 O 257.329 1.53343 -1.19162 0
M  V30 2758 C 254.459 2.4675 -2.44401 0
M  V30 2759 C 253.413 2.32467 -3.59365 0
M  V30 2760 C 252.739 3.69984 -3.86026 0
M  V30 2761 C 254.039 1.78203 -4.90959 0
M  V30 2762 H 255.733 0.755749 -2.89705 0
M  V30 2763 H 253.279 0.362093 -1.39373 0
M  V30 2764 H 255.232 3.18854 -2.75517 0
M  V30 2765 H 253.956 2.87302 -1.55322 0
M  V30 2766 H 252.615 1.62811 -3.28463 0
M  V30 2767 H 252.263 4.08028 -2.94147 0
M  V30 2768 H 251.963 3.61279 -4.63412 0
M  V30 2769 H 253.487 4.43587 -4.19599 0
M  V30 2770 H 254.901 2.40128 -5.20587 0
M  V30 2771 H 253.298 1.8031 -5.72371 0
M  V30 2772 H 254.368 0.739876 -4.79222 0
M  V30 2773 N 255.711 1.52812 0.385517 0
M  V30 2774 C 256.658 1.77838 1.47113 0
M  V30 2775 C 257.628 0.621757 1.54024 0
M  V30 2776 O 258.813 0.861846 1.70226 0
M  V30 2777 C 255.953 1.95618 2.84302 0
M  V30 2778 C 255.066 3.23316 2.86515 0
M  V30 2779 C 254.201 3.31394 4.15152 0
M  V30 2780 C 253.24 4.53201 4.1143 0
M  V30 2781 N 252.377 4.58542 5.3168 0
M  V30 2782 H 257.217 2.70482 1.25073 0
M  V30 2783 H 254.754 1.34006 0.606692 0
M  V30 2784 H 256.712 2.03912 3.63972 0
M  V30 2785 H 255.342 1.06331 3.04784 0
M  V30 2786 H 254.394 3.24076 1.99195 0
M  V30 2787 H 255.706 4.13045 2.79634 0
M  V30 2788 H 254.86 3.3889 5.03228 0
M  V30 2789 H 253.599 2.39645 4.24761 0
M  V30 2790 H 252.604 4.45827 3.21742 0
M  V30 2791 H 253.829 5.46271 4.03442 0
M  V30 2792 H 251.775 3.69686 5.41912 0
M  V30 2793 H 251.692 5.42148 5.26889 0
M  V30 2794 H 252.96 4.70296 6.21644 0
M  V30 2795 N 257.189 -0.644168 1.43834 0
M  V30 2796 C 258.429 -1.41565 1.47441 0
M  V30 2797 C 258.793 -1.91743 0.0992723 0
M  V30 2798 O 259.994 -2.68798 0.0100192 0
M  V30 2799 C 258.265 -2.55902 2.49498 0
M  V30 2800 S 259.824 -3.44287 2.72051 0
M  V30 2801 H 256.642 -0.483118 0.521649 0
M  V30 2802 H 259.244 -0.747008 1.80666 0
M  V30 2803 H 257.948 -2.17327 3.48134 0
M  V30 2804 H 257.479 -3.27607 2.17801 0
M  V30 2805 H 259.494 -4.52927 2.0266 0
M  V30 2806 N 258.668 -1.30515 -0.883378 0
M  V30 2807 C 259.916 -1.19194 -1.63209 0
M  V30 2808 C 260.237 0.253205 -1.93349 0
M  V30 2809 O 259.507 1.17025 -1.57105 0
M  V30 2810 H 258.087 -0.438148 -0.605009 0
M  V30 2811 H 260.749 -1.63663 -1.05832 0
M  V30 2812 H 259.845 -1.75396 -2.58153 0
M  V30 2813 N 260.146 1.09593 -1.13257 0
M  V30 2814 C 261.392 1.82003 -0.89458 0
M  V30 2815 C 261.725 1.85402 0.577906 0
M  V30 2816 O 261 1.32099 1.42759 0
M  V30 2817 C 261.283 3.28237 -1.48096 0
M  V30 2818 C 261.136 3.3312 -3.02244 0
M  V30 2819 C 262.455 4.24871 -1.14774 0
M  V30 2820 H 259.574 0.66077 -0.326424 0
M  V30 2821 H 262.216 1.28389 -1.40058 0
M  V30 2822 H 260.366 3.74024 -1.05062 0
M  V30 2823 H 262.038 2.95748 -3.54021 0
M  V30 2824 H 260.281 2.72756 -3.37323 0
M  V30 2825 H 260.952 4.3613 -3.38371 0
M  V30 2826 H 263.428 3.87361 -1.51957 0
M  V30 2827 H 262.304 5.25532 -1.58452 0
M  V30 2828 H 262.565 4.42058 -0.0611849 0
M  V30 2829 N 261.624 0.925811 1.2754 0
M  V30 2830 C 262.849 0.580924 1.99098 0
M  V30 2831 C 263.274 -0.833555 1.68622 0
M  V30 2832 O 262.632 -1.55903 0.925422 0
M  V30 2833 C 262.68 0.811186 3.51358 0
M  V30 2834 O 261.784 -0.124129 4.12213 0
M  V30 2835 H 261.125 0.223873 0.625122 0
M  V30 2836 H 263.655 1.24455 1.62395 0
M  V30 2837 H 263.665 0.72601 4.01489 0
M  V30 2838 H 262.34 1.84227 3.72872 0
M  V30 2839 H 260.917 0.0108006 3.72898 0
M  V30 2840 N 263.102 -1.41638 0.69111 0
M  V30 2841 C 264.05 -2.32597 0.0115199 0
M  V30 2842 C 265.044 -1.5072 -0.773296 0
M  V30 2843 O 266.25 -1.66685 -0.67942 0
M  V30 2844 H 262.625 -0.751849 -0.0150746 0
M  V30 2845 H 264.596 -2.87593 0.795791 0
M  V30 2846 C 263.345 -3.35467 -0.914172 0
M  V30 2847 H 262.668 -3.9852 -0.319687 0
M  V30 2848 H 264.108 -4.01662 -1.35808 0
M  V30 2849 C 262.567 -2.69004 -2.02826 0
M  V30 2850 O 263.097 -2.53444 -3.11655 0
M  V30 2851 N 261.303 -2.2777 -1.80469 0
M  V30 2852 H 260.85 -2.40626 -0.919615 0
M  V30 2853 H 260.808 -1.83635 -2.55197 0
M  V30 2854 N 264.58 -0.43555 -1.51462 0
M  V30 2855 C 265.527 0.376797 -2.27703 0
M  V30 2856 C 266.497 1.01838 -1.31219 0
M  V30 2857 O 267.682 1.03762 -1.60119 0
M  V30 2858 C 264.822 1.47301 -3.12084 0
M  V30 2859 C 263.935 0.849744 -4.2356 0
M  V30 2860 C 263.07 1.92086 -4.95254 0
M  V30 2861 C 262.109 1.27593 -5.98654 0
M  V30 2862 N 261.246 2.28833 -6.63762 0
M  V30 2863 H 266.086 -0.279734 -2.96684 0
M  V30 2864 H 263.623 -0.149795 -1.46335 0
M  V30 2865 H 265.581 2.11984 -3.59331 0
M  V30 2866 H 264.211 2.0992 -2.45221 0
M  V30 2867 H 263.263 0.0912529 -3.80291 0
M  V30 2868 H 264.575 0.338878 -4.97648 0
M  V30 2869 H 263.729 2.64435 -5.46039 0
M  V30 2870 H 262.468 2.46545 -4.20793 0
M  V30 2871 H 261.473 0.537893 -5.47162 0
M  V30 2872 H 262.698 0.738693 -6.7507 0
M  V30 2873 H 260.644 2.82375 -5.92115 0
M  V30 2874 H 260.561 1.82632 -7.33608 0
M  V30 2875 H 261.829 3.00671 -7.19178 0
M  V30 2876 N 266.058 1.56714 -0.166846 0
M  V30 2877 C 267.335 1.88412 0.525373 0
M  V30 2878 C 267.715 1.07602 1.81618 0
M  V30 2879 O 267.063 0.168621 2.27877 0
M  V30 2880 C 267.273 3.40363 0.771613 0
M  V30 2881 C 268.621 4.10007 1.1036 0
M  V30 2882 O 269.645 3.45655 0.860304 0
M  V30 2883 O 268.504 5.2369 1.56239 0
M  V30 2884 H 265.598 0.781587 0.270278 0
M  V30 2885 H 268.144 1.68458 -0.204946 0
M  V30 2886 H 266.916 3.91046 -0.141093 0
M  V30 2887 H 266.539 3.65914 1.55541 0
M  V30 2888 N 267.536 -0.106894 1.57237 0
M  V30 2889 C 268.785 -0.811163 1.8467 0
M  V30 2890 C 269.098 -1.80469 0.754342 0
M  V30 2891 O 270.304 -2.55601 0.915439 0
M  V30 2892 C 268.76 -1.49337 3.27454 0
M  V30 2893 C 268.368 -0.540217 4.44731 0
M  V30 2894 C 270.112 -2.18206 3.64124 0
M  V30 2895 C 268.019 -1.22634 5.78545 0
M  V30 2896 H 266.949 -0.306679 0.688813 0
M  V30 2897 H 269.6 -0.0639887 1.83388 0
M  V30 2898 H 267.982 -2.2876 3.23241 0
M  V30 2899 H 269.156 0.221659 4.60267 0
M  V30 2900 H 267.471 0.042146 4.16379 0
M  V30 2901 H 270.068 -2.70253 4.61376 0
M  V30 2902 H 270.411 -2.96562 2.92158 0
M  V30 2903 H 270.944 -1.45658 3.70174 0
M  V30 2904 H 267.683 -0.483832 6.53712 0
M  V30 2905 H 267.203 -1.95993 5.66874 0
M  V30 2906 H 268.882 -1.75615 6.2271 0
M  V30 2907 N 269.014 -1.53014 -0.377408 0
M  V30 2908 C 269.924 -1.81557 -1.48574 0
M  V30 2909 C 270.94 -0.703102 -1.59162 0
M  V30 2910 O 272.116 -0.99192 -1.75279 0
M  V30 2911 C 269.181 -1.9889 -2.83978 0
M  V30 2912 C 268.242 -3.22801 -2.83016 0
M  V30 2913 C 267.475 -3.39298 -4.11962 0
M  V30 2914 O 267.698 -2.60345 -5.0752 0
M  V30 2915 O 266.632 -4.32604 -4.18494 0
M  V30 2916 H 270.458 -2.75695 -1.27382 0
M  V30 2917 H 268.043 -1.38248 -0.566373 0
M  V30 2918 H 269.925 -2.11931 -3.6423 0
M  V30 2919 H 268.6 -1.07942 -3.05172 0
M  V30 2920 H 267.507 -3.15193 -2.01505 0
M  V30 2921 H 268.84 -4.13632 -2.66775 0
M  V30 2922 N 270.492 0.636531 -1.44174 0
M  V30 2923 C 271.439 1.74875 -1.50624 0
M  V30 2924 C 272.409 1.62275 -0.35442 0
M  V30 2925 O 273.594 1.82276 -0.563908 0
M  V30 2926 C 270.734 3.13102 -1.45125 0
M  V30 2927 C 269.847 3.36717 -2.7064 0
M  V30 2928 C 268.982 4.64885 -2.57013 0
M  V30 2929 C 268.021 4.8166 -3.77717 0
M  V30 2930 N 267.158 6.01101 -3.62798 0
M  V30 2931 H 271.998 1.68697 -2.45653 0
M  V30 2932 H 269.535 0.823004 -1.21922 0
M  V30 2933 H 271.493 3.93034 -1.39929 0
M  V30 2934 H 270.123 3.18308 -0.536671 0
M  V30 2935 H 269.175 2.50763 -2.86046 0
M  V30 2936 H 270.487 3.44993 -3.60252 0
M  V30 2937 H 269.641 5.52969 -2.49619 0
M  V30 2938 H 268.38 4.58957 -1.64953 0
M  V30 2939 H 267.385 3.92007 -3.85501 0
M  V30 2940 H 268.61 4.89406 -4.70807 0
M  V30 2941 H 266.556 5.96273 -2.73486 0
M  V30 2942 H 266.473 6.10409 -4.46023 0
M  V30 2943 H 267.741 6.91761 -3.59286 0
M  V30 2944 N 271.97 1.30982 0.876444 0
M  V30 2945 C 272.88 1.2003 2.01569 0
M  V30 2946 C 273.896 0.11838 1.73597 0
M  V30 2947 O 275.072 0.33495 1.98595 0
M  V30 2948 C 272.137 0.901637 3.34771 0
M  V30 2949 C 271.198 2.06979 3.76109 0
M  V30 2950 C 270.431 1.78529 5.02954 0
M  V30 2951 O 270.654 0.717296 5.65872 0
M  V30 2952 O 269.588 2.64019 5.40905 0
M  V30 2953 H 273.414 2.15753 2.13739 0
M  V30 2954 H 270.999 1.10658 1.00375 0
M  V30 2955 H 272.881 0.750645 4.1466 0
M  V30 2956 H 271.556 -0.0256141 3.2369 0
M  V30 2957 H 270.463 2.27616 2.96887 0
M  V30 2958 H 271.796 2.97907 3.91807 0
M  V30 2959 N 273.449 -1.08991 1.13837 0
M  V30 2960 C 274.677 -1.85011 0.926202 0
M  V30 2961 C 275.092 -1.8135 -0.525127 0
M  V30 2962 O 274.449 -1.21287 -1.36366 0
M  V30 2963 C 274.5 -3.32802 1.41155 0
M  V30 2964 O 274.221 -3.36444 2.80601 0
M  V30 2965 C 275.722 -4.25649 1.23847 0
M  V30 2966 H 272.942 -0.584249 0.32999 0
M  V30 2967 H 275.486 -1.37688 1.51202 0
M  V30 2968 H 273.641 -3.77536 0.868631 0
M  V30 2969 H 274.055 -4.28657 3.02248 0
M  V30 2970 H 275.529 -5.27485 1.62675 0
M  V30 2971 H 276.006 -4.38828 0.18065 0
M  V30 2972 H 276.612 -3.86735 1.76964 0
M  V30 2973 N 274.927 -0.932562 -1.27047 0
M  V30 2974 C 275.89 -0.440064 -2.24936 0
M  V30 2975 C 276.89 0.444071 -1.54547 0
M  V30 2976 O 278.08 0.244465 -1.72476 0
M  V30 2977 C 275.212 0.36678 -3.38921 0
M  V30 2978 H 276.405 -1.305 -2.70018 0
M  V30 2979 H 273.958 -0.713707 -1.39054 0
M  V30 2980 H 274.693 1.25033 -2.99228 0
M  V30 2981 H 274.478 -0.267204 -3.91188 0
M  V30 2982 H 275.968 0.701567 -4.11665 0
M  V30 2983 N 276.405 1.4127 -0.698611 0
M  V30 2984 C 277.352 2.30773 -0.0352094 0
M  V30 2985 C 278.322 1.47273 0.768111 0
M  V30 2986 O 279.507 1.76053 0.735524 0
M  V30 2987 C 276.647 3.33346 0.893 0
M  V30 2988 C 275.76 4.31924 0.0809695 0
M  V30 2989 C 274.895 5.21566 1.0071 0
M  V30 2990 C 273.934 6.11811 0.188155 0
M  V30 2991 N 273.071 6.93926 1.06825 0
M  V30 2992 H 277.911 2.86943 -0.804207 0
M  V30 2993 H 275.448 1.4132 -0.408294 0
M  V30 2994 H 277.406 3.91368 1.44523 0
M  V30 2995 H 276.036 2.78719 1.62836 0
M  V30 2996 H 275.088 3.75825 -0.588224 0
M  V30 2997 H 276.4 4.95716 -0.553801 0
M  V30 2998 H 275.554 5.84437 1.62845 0
M  V30 2999 H 274.293 4.58008 1.67572 0
M  V30 3000 H 273.298 5.47986 -0.446254 0
M  V30 3001 H 274.523 6.77425 -0.476716 0
M  V30 3002 H 272.469 6.32973 1.72283 0
M  V30 3003 H 272.386 7.54416 0.489123 0
M  V30 3004 H 273.654 7.61262 1.67632 0
M  V30 3005 N 277.883 0.443576 1.51229 0
M  V30 3006 C 279.16 -0.181038 1.9476 0
M  V30 3007 C 279.54 -1.59523 1.38259 0
M  V30 3008 O 278.888 -2.2122 0.572198 0
M  V30 3009 C 279.098 -0.152422 3.48667 0
M  V30 3010 C 280.446 -0.354923 4.23114 0
M  V30 3011 O 281.47 -0.230257 3.55455 0
M  V30 3012 O 280.329 -0.603674 5.43156 0
M  V30 3013 H 277.423 -0.1266 0.817252 0
M  V30 3014 H 279.969 0.502004 1.62105 0
M  V30 3015 H 278.741 0.836022 3.82265 0
M  V30 3016 H 278.364 -0.878107 3.87782 0
M  V30 3017 N 279.361 -1.56624 0.175154 0
M  V30 3018 C 280.271 -2.21741 -0.766042 0
M  V30 3019 C 281.287 -1.21023 -1.25018 0
M  V30 3020 O 282.463 -1.53697 -1.3015 0
M  V30 3021 C 279.528 -2.84839 -1.97655 0
M  V30 3022 C 278.589 -4.00769 -1.53892 0
M  V30 3023 C 277.822 -4.60849 -2.69173 0
M  V30 3024 O 278.045 -4.19823 -3.86141 0
M  V30 3025 O 276.979 -5.50655 -2.43028 0
M  V30 3026 H 280.805 -3.02738 -0.241585 0
M  V30 3027 H 278.39 -1.49305 -0.053222 0
M  V30 3028 H 280.272 -3.24834 -2.68442 0
M  V30 3029 H 278.947 -2.06836 -2.48999 0
M  V30 3030 H 277.854 -3.65436 -0.80044 0
M  V30 3031 H 279.187 -4.80376 -1.07236 0
M  V30 3032 N 280.839 0.0985539 -1.57292 0
M  V30 3033 C 281.749 1.13824 -2.05137 0
M  V30 3034 C 282.765 1.44076 -0.975604 0
M  V30 3035 O 283.941 1.54786 -1.28853 0
M  V30 3036 C 281.006 2.43969 -2.46333 0
M  V30 3037 C 280.067 2.2093 -3.68087 0
M  V30 3038 C 279.3 3.44869 -4.0731 0
M  V30 3039 O 279.523 4.52972 -3.46659 0
M  V30 3040 O 278.457 3.34661 -5.00285 0
M  V30 3041 H 282.283 0.761881 -2.93988 0
M  V30 3042 H 279.868 0.310818 -1.46131 0
M  V30 3043 H 281.75 3.20609 -2.73473 0
M  V30 3044 H 280.425 2.81038 -1.60621 0
M  V30 3045 H 279.332 1.42081 -3.46069 0
M  V30 3046 H 280.665 1.88755 -4.54568 0
M  V30 3047 N 282.317 1.53212 0.369288 0
M  V30 3048 C 283.227 1.82342 1.47609 0
M  V30 3049 C 284.243 0.711532 1.58787 0
M  V30 3050 O 285.419 1.0012 1.74751 0
M  V30 3051 C 282.484 2.00393 2.8292 0
M  V30 3052 C 281.545 3.24297 2.81301 0
M  V30 3053 C 280.778 3.41478 4.10157 0
M  V30 3054 O 281.001 2.63033 5.06132 0
M  V30 3055 O 279.935 4.34817 4.16194 0
M  V30 3056 H 283.761 2.76366 1.25918 0
M  V30 3057 H 281.346 1.38547 0.559034 0
M  V30 3058 H 283.228 2.13859 3.63101 0
M  V30 3059 H 281.903 1.09559 3.04596 0
M  V30 3060 H 280.81 3.16257 1.99831 0
M  V30 3061 H 282.143 4.15041 2.64578 0
M  V30 3062 N 283.795 -0.628877 1.44509 0
M  V30 3063 C 284.705 -1.7694 1.54044 0
M  V30 3064 C 285.721 -1.68705 0.425987 0
M  V30 3065 O 286.897 -1.89442 0.683656 0
M  V30 3066 C 283.962 -3.13332 1.48405 0
M  V30 3067 C 283.023 -3.33181 2.70719 0
M  V30 3068 C 282.256 -4.63067 2.6534 0
M  V30 3069 O 282.479 -5.44017 1.71469 0
M  V30 3070 O 281.413 -4.85167 3.56226 0
M  V30 3071 H 285.239 -1.71848 2.50403 0
M  V30 3072 H 282.824 -0.790378 1.26781 0
M  V30 3073 H 284.706 -3.94634 1.47791 0
M  V30 3074 H 283.381 -3.1896 0.551898 0
M  V30 3075 H 282.288 -2.51549 2.769 0
M  V30 3076 H 283.621 -3.32416 3.62988 0
M  V30 3077 N 285.273 -1.31445 -0.869486 0
M  V30 3078 C 286.684 -1.19042 -1.43826 0
M  V30 3079 C 287.035 0.202919 -1.95148 0
M  V30 3080 O 286.16 1.10071 -1.86315 0
M  V30 3081 C 286.755 -2.15499 -2.6143 0
M  V30 3082 C 285.314 -2.07028 -3.14351 0
M  V30 3083 C 284.461 -2.04701 -1.87063 0
M  V30 3084 H 287.412 -1.43489 -0.677984 0
M  V30 3085 H 287.433 -1.74488 -3.38134 0
M  V30 3086 H 286.945 -3.16899 -2.24046 0
M  V30 3087 H 285.046 -1.08825 -3.56354 0
M  V30 3088 H 285.159 -2.96157 -3.766 0
M  V30 3089 H 283.523 -1.49724 -2.06046 0
M  V30 3090 H 284.306 -3.07857 -1.51917 0
M  V30 3091 N 286.751 1.08385 -1.14413 0
M  V30 3092 C 288.162 1.62258 -0.923535 0
M  V30 3093 C 288.513 1.88691 0.537595 0
M  V30 3094 O 287.638 1.64454 1.40655 0
M  V30 3095 C 288.233 2.94781 -1.67002 0
M  V30 3096 C 286.792 3.45437 -1.495 0
M  V30 3097 C 285.939 2.19668 -1.69238 0
M  V30 3098 H 288.89 0.916086 -1.2959 0
M  V30 3099 H 288.911 3.63229 -1.13334 0
M  V30 3100 H 288.423 2.7551 -2.73342 0
M  V30 3101 H 286.524 3.6981 -0.455097 0
M  V30 3102 H 286.637 4.22173 -2.2651 0
M  V30 3103 H 285.001 2.28849 -1.11804 0
M  V30 3104 H 285.784 2.02905 -2.7692 0
M  V30 3105 N 288.23 0.939286 1.26551 0
M  V30 3106 C 289.455 0.602008 1.98471 0
M  V30 3107 C 289.88 -0.815624 1.69497 0
M  V30 3108 O 289.238 -1.54912 0.941905 0
M  V30 3109 C 289.286 0.848407 3.50477 0
M  V30 3110 O 288.39 -0.0804009 4.12322 0
M  V30 3111 H 287.731 0.23049 0.622712 0
M  V30 3112 H 290.261 1.2617 1.61066 0
M  V30 3113 H 290.271 0.768553 4.00696 0
M  V30 3114 H 288.946 1.88171 3.70897 0
M  V30 3115 H 287.523 0.0503508 3.72866 0
M  V30 3116 N 289.708 -1.40897 0.706093 0
M  V30 3117 C 290.641 -2.282 -0.00328781 0
M  V30 3118 C 291.619 -1.42816 -0.77732 0
M  V30 3119 O 292.803 -1.72237 -0.765944 0
M  V30 3120 C 289.93 -3.23226 -1.01205 0
M  V30 3121 C 288.976 -4.25222 -0.329955 0
M  V30 3122 S 289.809 -5.27269 0.935298 0
M  V30 3123 C 290.965 -6.25859 -0.0716061 0
M  V30 3124 H 291.198 -2.88016 0.737143 0
M  V30 3125 H 288.731 -1.46191 0.496756 0
M  V30 3126 H 290.689 -3.78503 -1.58888 0
M  V30 3127 H 289.35 -2.62485 -1.72513 0
M  V30 3128 H 288.543 -4.92023 -1.09221 0
M  V30 3129 H 288.145 -3.73595 0.174069 0
M  V30 3130 H 290.437 -6.71204 -0.921521 0
M  V30 3131 H 291.38 -7.0586 0.562765 0
M  V30 3132 H 291.788 -5.62852 -0.431088 0
M  V30 3133 N 291.186 -0.45159 -1.50991 0
M  V30 3134 C 292.414 0.108334 -2.06616 0
M  V30 3135 C 292.829 1.35224 -1.31757 0
M  V30 3136 O 292.186 1.78475 -0.381174 0
M  V30 3137 C 292.237 0.41619 -3.59096 0
M  V30 3138 O 291.958 -0.778361 -4.3113 0
M  V30 3139 C 293.459 1.02523 -4.31282 0
M  V30 3140 H 290.679 0.00159995 -0.670998 0
M  V30 3141 H 293.223 -0.634771 -1.94399 0
M  V30 3142 H 291.378 1.10921 -3.71181 0
M  V30 3143 H 291.792 -0.511181 -5.22003 0
M  V30 3144 H 293.266 1.19053 -5.39009 0
M  V30 3145 H 293.743 2.01013 -3.905 0
M  V30 3146 H 294.349 0.371173 -4.23677 0
M  V30 3147 N 292.664 1.56529 -0.183458 0
M  V30 3148 C 293.596 2.15747 0.773697 0
M  V30 3149 C 294.609 1.1162 1.1851 0
M  V30 3150 O 295.798 1.3876 1.12285 0
M  V30 3151 C 292.898 2.6952 2.05456 0
M  V30 3152 C 292.071 3.98429 1.8048 0
M  V30 3153 C 291.13 4.37145 2.92901 0
M  V30 3154 O 290.156 5.04791 2.6301 0
M  V30 3155 N 291.358 3.99695 4.2098 0
M  V30 3156 H 294.123 2.98505 0.26736 0
M  V30 3157 H 291.684 1.619 -0.0010878 0
M  V30 3158 H 293.676 2.92412 2.79781 0
M  V30 3159 H 292.246 1.91282 2.47245 0
M  V30 3160 H 291.466 3.8379 0.899947 0
M  V30 3161 H 292.754 4.82597 1.61175 0
M  V30 3162 H 292.152 3.4526 4.48121 0
M  V30 3163 H 290.709 4.27562 4.9197 0
M  V30 3164 N 294.142 -0.090211 1.57342 0
M  V30 3165 C 295.072 -1.10976 2.05443 0
M  V30 3166 C 296.053 -1.41482 0.944284 0
M  V30 3167 O 297.238 -1.51428 1.21586 0
M  V30 3168 C 294.368 -2.42831 2.48295 0
M  V30 3169 C 293.322 -2.26721 3.63018 0
M  V30 3170 C 292.648 -3.63796 3.91863 0
M  V30 3171 C 293.948 -1.7037 4.93732 0
M  V30 3172 H 295.642 -0.709564 2.9087 0
M  V30 3173 H 293.188 -0.339874 1.39932 0
M  V30 3174 H 295.141 -3.14431 2.80555 0
M  V30 3175 H 293.865 -2.84795 1.59873 0
M  V30 3176 H 292.524 -1.57565 3.31012 0
M  V30 3177 H 292.172 -4.03297 3.00601 0
M  V30 3178 H 291.872 -3.53861 4.69101 0
M  V30 3179 H 293.396 -4.36855 4.26603 0
M  V30 3180 H 294.81 -2.31816 5.24342 0
M  V30 3181 H 293.207 -1.71181 5.75167 0
M  V30 3182 H 294.277 -0.663542 4.80339 0
M  V30 3183 N 295.62 -1.53406 -0.361157 0
M  V30 3184 C 296.55 -1.83136 -1.44857 0
M  V30 3185 C 297.531 -0.685174 -1.5569 0
M  V30 3186 O 298.716 -0.93544 -1.70186 0
M  V30 3187 C 295.846 -2.02522 -2.82138 0
M  V30 3188 C 294.8 -3.18302 -2.86126 0
M  V30 3189 C 294.126 -3.22989 -4.26125 0
M  V30 3190 C 295.426 -4.56796 -2.53248 0
M  V30 3191 H 297.12 -2.74201 -1.20226 0
M  V30 3192 H 294.666 -1.31938 -0.576922 0
M  V30 3193 H 296.619 -2.21904 -3.58241 0
M  V30 3194 H 295.343 -1.08172 -3.08166 0
M  V30 3195 H 294.002 -2.98747 -2.12475 0
M  V30 3196 H 293.65 -2.26267 -4.49235 0
M  V30 3197 H 293.35 -4.00781 -4.29708 0
M  V30 3198 H 294.874 -3.44559 -5.04094 0
M  V30 3199 H 296.288 -4.7631 -3.19064 0
M  V30 3200 H 294.685 -5.36862 -2.68141 0
M  V30 3201 H 295.755 -4.61606 -1.48484 0
M  V30 3202 N 297.098 0.621204 -1.44841 0
M  V30 3203 C 298.514 0.94048 -1.28946 0
M  V30 3204 C 298.714 2.00154 -0.23249 0
M  V30 3205 O 297.77 2.49651 0.378237 0
M  V30 3206 C 299.083 1.39433 -2.66419 0
M  V30 3207 C 300.631 1.50927 -2.74208 0
M  V30 3208 C 301.106 1.99692 -4.12174 0
M  V30 3209 N 302.597 2.06947 -4.144 0
M  V30 3210 C 303.332 2.45871 -5.1801 0
M  V30 3211 N 302.828 2.83862 -6.31977 0
M  V30 3212 N 304.621 2.46092 -5.05366 0
M  V30 3213 H 296.772 -0.0803548 -2.12248 0
M  V30 3214 H 299.035 0.0266913 -0.947624 0
M  V30 3215 H 298.741 0.688925 -3.44887 0
M  V30 3216 H 298.615 2.36347 -2.93973 0
M  V30 3217 H 301.002 2.20561 -1.96053 0
M  V30 3218 H 301.083 0.523627 -2.50383 0
M  V30 3219 H 300.727 1.30649 -4.90809 0
M  V30 3220 H 300.657 2.99146 -4.33381 0
M  V30 3221 H 303.148 1.80232 -3.32152 0
M  V30 3222 H 303.461 3.12405 -7.0684 0
M  V30 3223 H 301.806 2.8159 -6.35399 0
M  V30 3224 H 304.997 2.1581 -4.15384 0
M  V30 3225 H 305.17 2.76102 -5.86235 0
M  V30 3226 N 298.576 1.31904 0.862503 0
M  V30 3227 C 299.992 1.10724 1.14945 0
M  V30 3228 C 300.192 -0.117421 2.01158 0
M  V30 3229 O 299.248 -0.804595 2.39338 0
M  V30 3230 C 300.561 2.38267 1.83437 0
M  V30 3231 C 302.109 2.43949 1.96106 0
M  V30 3232 C 302.584 3.71394 2.68013 0
M  V30 3233 N 304.075 3.72331 2.75543 0
M  V30 3234 C 304.81 4.67641 3.31812 0
M  V30 3235 N 304.306 5.73313 3.88953 0
M  V30 3236 N 306.099 4.5515 3.29841 0
M  V30 3237 H 298.25 2.10436 0.288191 0
M  V30 3238 H 300.513 0.928705 0.190292 0
M  V30 3239 H 300.219 3.27759 1.27542 0
M  V30 3240 H 300.093 2.48633 2.83657 0
M  V30 3241 H 302.48 1.54922 2.51164 0
M  V30 3242 H 302.561 2.37543 0.949059 0
M  V30 3243 H 302.205 4.60791 2.13621 0
M  V30 3244 H 302.135 3.75069 3.69636 0
M  V30 3245 H 304.626 2.95947 2.34997 0
M  V30 3246 H 304.939 6.42107 4.30022 0
M  V30 3247 H 303.284 5.77077 3.87308 0
M  V30 3248 H 306.475 3.71766 2.84443 0
M  V30 3249 H 306.648 5.29604 3.73394 0
M  V30 3250 N 300.054 -1.07777 1.14986 0
M  V30 3251 C 301.47 -1.32373 0.891596 0
M  V30 3252 C 301.67 -1.9609 -0.463788 0
M  V30 3253 O 300.726 -2.21801 -1.20667 0
M  V30 3254 C 302.039 -2.21905 2.02925 0
M  V30 3255 C 303.587 -2.35367 2.06329 0
M  V30 3256 C 304.062 -3.28245 3.19405 0
M  V30 3257 N 305.553 -3.35824 3.19024 0
M  V30 3258 C 306.288 -4.07739 4.03158 0
M  V30 3259 N 305.784 -4.82306 4.97346 0
M  V30 3260 N 307.577 -4.03635 3.91197 0
M  V30 3261 H 299.728 -0.648039 2.02273 0
M  V30 3262 H 301.991 -0.348149 0.881757 0
M  V30 3263 H 301.697 -1.82342 3.0074 0
M  V30 3264 H 301.571 -3.22407 1.95789 0
M  V30 3265 H 303.958 -2.74186 1.09116 0
M  V30 3266 H 304.039 -1.34585 2.17533 0
M  V30 3267 H 303.683 -2.90146 4.16867 0
M  V30 3268 H 303.613 -4.28971 3.05437 0
M  V30 3269 H 306.104 -2.8267 2.50811 0
M  V30 3270 H 306.417 -5.34661 5.57994 0
M  V30 3271 H 304.762 -4.81337 5.01338 0
M  V30 3272 H 307.953 -3.44491 3.16928 0
M  V30 3273 H 308.126 -4.59417 4.5699 0
M  V30 3274 N 301.532 -0.945985 -1.26051 0
M  V30 3275 C 302.948 -0.649045 -1.45807 0
M  V30 3276 C 303.148 0.796158 -1.85104 0
M  V30 3277 O 302.204 1.57233 -1.97571 0
M  V30 3278 C 303.517 -1.61458 -2.53677 0
M  V30 3279 C 305.065 -1.62481 -2.67524 0
M  V30 3280 C 305.54 -2.57776 -3.7857 0
M  V30 3281 N 307.031 -2.5609 -3.85969 0
M  V30 3282 C 307.766 -3.26508 -4.7136 0
M  V30 3283 N 307.262 -4.0637 -5.61102 0
M  V30 3284 N 309.055 -3.15437 -4.65248 0
M  V30 3285 H 301.206 -1.88005 -0.988328 0
M  V30 3286 H 303.469 -0.808198 -0.4955 0
M  V30 3287 H 303.175 -2.64644 -2.31638 0
M  V30 3288 H 303.049 -1.37036 -3.51427 0
M  V30 3289 H 305.436 -0.600167 -2.88933 0
M  V30 3290 H 305.517 -1.90958 -1.70202 0
M  V30 3291 H 305.161 -3.60361 -3.57913 0
M  V30 3292 H 305.091 -2.26587 -4.75359 0
M  V30 3293 H 307.582 -1.98105 -3.21812 0
M  V30 3294 H 307.895 -4.57042 -6.23164 0
M  V30 3295 H 306.24 -4.10469 -5.60839 0
M  V30 3296 H 309.431 -2.52525 -3.94143 0
M  V30 3297 H 309.604 -3.70584 -5.31575 0
M  V30 3298 N 303.011 1.40521 -0.713556 0
M  V30 3299 C 303.974 2.29098 -0.0684347 0
M  V30 3300 C 304.974 1.45268 0.689472 0
M  V30 3301 O 306.164 1.66205 0.521677 0
M  V30 3302 C 303.296 3.28446 0.913024 0
M  V30 3303 H 304.489 2.87645 -0.84855 0
M  V30 3304 H 302.042 1.48809 -0.47809 0
M  V30 3305 H 302.777 2.74913 1.72027 0
M  V30 3306 H 302.562 3.90327 0.372472 0
M  V30 3307 H 304.052 3.94777 1.36165 0
M  V30 3308 N 304.489 0.459591 1.5075 0
M  V30 3309 C 305.735 -0.0994966 2.02556 0
M  V30 3310 C 306.068 -1.40399 1.3417 0
M  V30 3311 O 305.343 -1.88892 0.463683 0
M  V30 3312 C 305.626 -0.295242 3.58888 0
M  V30 3313 C 305.479 1.02947 4.37861 0
M  V30 3314 C 306.798 -1.05502 4.27267 0
M  V30 3315 H 303.917 -0.034686 0.736183 0
M  V30 3316 H 306.559 0.602938 1.8018 0
M  V30 3317 H 304.709 -0.893563 3.78084 0
M  V30 3318 H 306.381 1.66348 4.30263 0
M  V30 3319 H 304.624 1.62885 4.02058 0
M  V30 3320 H 305.295 0.846281 5.45474 0
M  V30 3321 H 307.771 -0.547993 4.12476 0
M  V30 3322 H 306.647 -1.16077 5.36486 0
M  V30 3323 H 306.908 -2.08875 3.89645 0
M  V30 3324 N 305.967 -1.56429 0.191757 0
M  V30 3325 C 306.897 -2.21937 -0.725696 0
M  V30 3326 C 307.878 -1.1814 -1.2238 0
M  V30 3327 O 309.063 -1.46636 -1.27325 0
M  V30 3328 C 306.193 -2.87611 -1.94672 0
M  V30 3329 C 305.147 -3.97623 -1.58366 0
M  V30 3330 C 304.473 -4.50446 -2.88102 0
M  V30 3331 C 305.773 -5.16197 -0.796133 0
M  V30 3332 H 307.467 -2.98861 -0.179606 0
M  V30 3333 H 305.013 -1.43749 -0.0849464 0
M  V30 3334 H 306.966 -3.3212 -2.59373 0
M  V30 3335 H 305.69 -2.08087 -2.51728 0
M  V30 3336 H 304.349 -3.53801 -0.960247 0
M  V30 3337 H 303.997 -3.67688 -3.43241 0
M  V30 3338 H 303.697 -5.24675 -2.64556 0
M  V30 3339 H 305.221 -4.97654 -3.53798 0
M  V30 3340 H 306.635 -5.57271 -1.34618 0
M  V30 3341 H 305.032 -5.96471 -0.658928 0
M  V30 3342 H 306.102 -4.84473 0.203478 0
M  V30 3343 N 307.445 0.0818655 -1.57387 0
M  V30 3344 C 308.856 0.634871 -1.75574 0
M  V30 3345 C 309.207 1.78435 -0.815809 0
M  V30 3346 O 308.332 2.164 0.0025366 0
M  V30 3347 C 308.927 1.15845 -3.18379 0
M  V30 3348 C 307.486 1.65741 -3.37945 0
M  V30 3349 C 306.633 0.572549 -2.71325 0
M  V30 3350 H 309.584 -0.144268 -1.58043 0
M  V30 3351 H 309.605 2.02751 -3.21982 0
M  V30 3352 H 309.117 0.321631 -3.86765 0
M  V30 3353 H 307.218 2.51781 -2.74658 0
M  V30 3354 H 307.331 1.74129 -4.46336 0
M  V30 3355 H 305.695 1.01518 -2.33594 0
M  V30 3356 H 306.478 -0.253918 -3.4236 0
M  V30 3357 N 308.923 1.53595 0.353017 0
M  V30 3358 C 309.855 1.77219 1.45348 0
M  V30 3359 C 310.868 0.65324 1.49119 0
M  V30 3360 O 312.057 0.929775 1.52373 0
M  V30 3361 C 309.157 1.84841 2.84055 0
M  V30 3362 C 308.33 3.14649 3.03833 0
M  V30 3363 C 307.389 3.13351 4.22727 0
M  V30 3364 O 306.415 3.87107 4.17297 0
M  V30 3365 N 307.617 2.35052 5.30783 0
M  V30 3366 H 310.382 2.72178 1.25457 0
M  V30 3367 H 307.943 1.52528 0.542833 0
M  V30 3368 H 309.935 1.81435 3.61751 0
M  V30 3369 H 308.505 0.971114 2.97133 0
M  V30 3370 H 307.725 3.31256 2.13689 0
M  V30 3371 H 309.013 4.00411 3.13925 0
M  V30 3372 H 308.411 1.74663 5.38061 0
M  V30 3373 H 306.968 2.37453 6.07009 0
M  V30 3374 N 310.401 -0.613514 1.45168 0
M  V30 3375 C 311.629 -1.39946 1.5239 0
M  V30 3376 C 312.044 -1.88167 0.154531 0
M  V30 3377 O 311.401 -1.61872 -0.842843 0
M  V30 3378 C 311.452 -2.60795 2.50337 0
M  V30 3379 O 311.173 -2.1458 3.81952 0
M  V30 3380 C 312.674 -3.53723 2.67198 0
M  V30 3381 H 309.894 -0.428593 0.516284 0
M  V30 3382 H 312.438 -0.748753 1.903 0
M  V30 3383 H 310.593 -3.21919 2.15515 0
M  V30 3384 H 311.007 -2.93055 4.34993 0
M  V30 3385 H 312.481 -4.35079 3.39721 0
M  V30 3386 H 312.958 -4.0368 1.73029 0
M  V30 3387 H 313.564 -2.98456 3.02992 0
M  V30 3388 N 311.879 -1.3236 -0.855495 0
M  V30 3389 C 313.295 -1.11332 -1.14356 0
M  V30 3390 C 313.495 0.106751 -2.01217 0
M  V30 3391 O 312.551 0.791891 -2.39761 0
M  V30 3392 C 313.864 -2.39237 -1.82171 0
M  V30 3393 C 315.412 -2.44986 -1.9481 0
M  V30 3394 C 315.887 -3.7281 -2.66039 0
M  V30 3395 N 317.378 -3.73787 -2.73565 0
M  V30 3396 C 318.113 -4.69394 -3.29327 0
M  V30 3397 N 317.609 -5.75367 -3.85907 0
M  V30 3398 N 319.402 -4.56893 -3.27423 0
M  V30 3399 H 311.553 -2.10586 -0.277027 0
M  V30 3400 H 313.816 -0.929701 -0.185364 0
M  V30 3401 H 313.522 -3.28431 -1.25802 0
M  V30 3402 H 313.396 -2.50134 -2.82335 0
M  V30 3403 H 315.783 -1.56252 -2.50338 0
M  V30 3404 H 315.864 -2.38043 -0.936448 0
M  V30 3405 H 315.508 -4.61918 -2.11174 0
M  V30 3406 H 315.438 -3.77024 -3.67642 0
M  V30 3407 H 317.929 -2.97189 -2.33424 0
M  V30 3408 H 318.242 -6.44378 -4.26611 0
M  V30 3409 H 316.587 -5.79123 -3.84242 0
M  V30 3410 H 319.778 -3.73269 -2.82467 0
M  V30 3411 H 319.951 -5.31577 -3.7058 0
M  V30 3412 N 313.357 1.07166 -1.15556 0
M  V30 3413 C 314.587 1.83248 -0.954133 0
M  V30 3414 C 314.995 1.82449 0.500911 0
M  V30 3415 O 314.338 1.23575 1.35923 0
M  V30 3416 C 314.4 3.31393 -1.39351 0
M  V30 3417 C 314.064 3.5591 -2.86666 0
M  V30 3418 C 315.061 3.49695 -3.8472 0
M  V30 3419 C 312.746 3.83515 -3.24379 0
M  V30 3420 C 314.74 3.70737 -5.18491 0
M  V30 3421 C 312.427 4.04209 -4.58321 0
M  V30 3422 C 313.425 3.97815 -5.55186 0
M  V30 3423 O 313.113 4.17954 -6.86709 0
M  V30 3424 H 312.845 0.584941 -0.338851 0
M  V30 3425 H 315.399 1.36169 -1.53777 0
M  V30 3426 H 313.629 3.79292 -0.75329 0
M  V30 3427 H 315.318 3.88945 -1.16089 0
M  V30 3428 H 316.084 3.28368 -3.56931 0
M  V30 3429 H 311.963 3.87605 -2.49567 0
M  V30 3430 H 315.507 3.65663 -5.94085 0
M  V30 3431 H 311.404 4.25023 -4.85825 0
M  V30 3432 H 312.172 4.35291 -6.93155 0
M  V30 3433 N 314.835 0.952656 1.25548 0
M  V30 3434 C 316.081 0.607272 1.93494 0
M  V30 3435 C 316.414 -0.853245 1.74452 0
M  V30 3436 O 315.689 -1.61194 1.08843 0
M  V30 3437 C 315.972 0.96435 3.46947 0
M  V30 3438 C 315.825 2.48045 3.75225 0
M  V30 3439 C 317.144 0.487987 4.37386 0
M  V30 3440 H 314.263 0.222096 0.702739 0
M  V30 3441 H 316.905 1.18895 1.48203 0
M  V30 3442 H 315.055 0.469361 3.85654 0
M  V30 3443 H 316.727 3.04905 3.46166 0
M  V30 3444 H 314.97 2.919 3.209 0
M  V30 3445 H 315.641 2.6808 4.82532 0
M  V30 3446 H 318.117 0.912558 4.0597 0
M  V30 3447 H 316.993 0.766547 5.43521 0
M  V30 3448 H 317.254 -0.612063 4.37843 0
M  V30 3449 N 316.313 -1.40141 0.720998 0
M  V30 3450 C 317.223 -2.34486 0.0731031 0
M  V30 3451 C 318.239 -1.57587 -0.737723 0
M  V30 3452 O 319.415 -1.89949 -0.669429 0
M  V30 3453 C 316.48 -3.36528 -0.833656 0
M  V30 3454 C 315.541 -4.29298 -0.0121673 0
M  V30 3455 C 314.774 -5.26466 -0.875742 0
M  V30 3456 O 314.997 -5.29745 -2.11485 0
M  V30 3457 O 313.931 -6.01092 -0.31185 0
M  V30 3458 H 317.757 -2.9152 0.851444 0
M  V30 3459 H 315.342 -1.41427 0.481527 0
M  V30 3460 H 317.224 -3.99093 -1.35289 0
M  V30 3461 H 315.899 -2.81899 -1.59105 0
M  V30 3462 H 314.806 -3.70001 0.552262 0
M  V30 3463 H 316.139 -4.87094 0.707129 0
M  V30 3464 N 317.792 -0.46758 -1.50504 0
M  V30 3465 C 318.722 0.318381 -2.31319 0
M  V30 3466 C 319.703 0.993564 -1.38066 0
M  V30 3467 O 320.888 0.991411 -1.66987 0
M  V30 3468 C 318.018 1.40275 -3.17711 0
M  V30 3469 C 316.972 0.849373 -4.19487 0
M  V30 3470 C 316.298 2.03177 -4.94594 0
M  V30 3471 C 317.598 -0.136942 -5.2212 0
M  V30 3472 H 319.292 -0.356106 -2.97275 0
M  V30 3473 H 316.838 -0.172703 -1.42961 0
M  V30 3474 H 318.791 1.96004 -3.73042 0
M  V30 3475 H 317.515 2.10596 -2.49634 0
M  V30 3476 H 316.174 0.314076 -3.65252 0
M  V30 3477 H 315.822 2.72187 -4.22993 0
M  V30 3478 H 315.522 1.66774 -5.63436 0
M  V30 3479 H 317.046 2.59403 -5.52759 0
M  V30 3480 H 318.46 0.331056 -5.72343 0
M  V30 3481 H 316.857 -0.41507 -5.98663 0
M  V30 3482 H 317.927 -1.06398 -4.73083 0
M  V30 3483 N 319.27 1.56325 -0.20005 0
M  V30 3484 C 320.517 1.97719 0.437411 0
M  V30 3485 C 320.845 1.08709 1.61284 0
M  V30 3486 O 320.1 0.127261 1.95286 0
M  V30 3487 C 320.399 3.4495 0.935103 0
M  V30 3488 C 320.065 4.5072 -0.12749 0
M  V30 3489 C 318.727 4.79368 -0.419451 0
M  V30 3490 C 321.079 5.14268 -0.847231 0
M  V30 3491 C 318.407 5.68854 -1.43604 0
M  V30 3492 C 320.759 6.04852 -1.85301 0
M  V30 3493 C 319.423 6.31855 -2.15211 0
M  V30 3494 H 318.693 0.723507 0.16006 0
M  V30 3495 H 321.34 1.89166 -0.298056 0
M  V30 3496 H 319.645 3.50599 1.74894 0
M  V30 3497 H 321.342 3.74337 1.43781 0
M  V30 3498 H 317.932 4.28458 0.11023 0
M  V30 3499 H 322.116 4.92222 -0.634901 0
M  V30 3500 H 317.372 5.88047 -1.67364 0
M  V30 3501 H 321.546 6.53152 -2.41591 0
M  V30 3502 H 319.173 7.00994 -2.94129 0
M  V30 3503 N 320.748 -0.0735177 1.57428 0
M  V30 3504 C 321.997 -0.771809 1.86349 0
M  V30 3505 C 322.31 -1.78828 0.792452 0
M  V30 3506 O 323.516 -2.53602 0.96945 0
M  V30 3507 C 321.972 -1.42358 3.30548 0
M  V30 3508 C 321.58 -0.445761 4.45777 0
M  V30 3509 C 323.324 -2.10434 3.6867 0
M  V30 3510 C 321.231 -1.10335 5.81016 0
M  V30 3511 H 320.161 -0.291999 0.695164 0
M  V30 3512 H 322.812 -0.0250749 1.83483 0
M  V30 3513 H 321.194 -2.21852 3.28021 0
M  V30 3514 H 322.368 0.319239 4.59693 0
M  V30 3515 H 320.683 0.130457 4.16196 0
M  V30 3516 H 323.28 -2.60405 4.67004 0
M  V30 3517 H 323.623 -2.90298 2.98383 0
M  V30 3518 H 324.156 -1.37773 3.7318 0
M  V30 3519 H 320.895 -0.345061 6.54591 0
M  V30 3520 H 320.415 -1.83925 5.70904 0
M  V30 3521 H 322.094 -1.62367 6.26295 0
M  V30 3522 N 322.226 -1.5378 -0.344866 0
M  V30 3523 C 323.472 -1.71216 -1.08687 0
M  V30 3524 C 323.805 -0.473281 -1.88345 0
M  V30 3525 O 323.08 0.52968 -1.87149 0
M  V30 3526 C 323.363 -2.97486 -2.02914 0
M  V30 3527 C 323.216 -4.31579 -1.26727 0
M  V30 3528 C 324.535 -3.19422 -3.0275 0
M  V30 3529 H 321.654 -0.62301 -0.393735 0
M  V30 3530 H 324.296 -1.8645 -0.365563 0
M  V30 3531 H 322.446 -2.84629 -2.64421 0
M  V30 3532 H 324.118 -4.56284 -0.67845 0
M  V30 3533 H 322.361 -4.30049 -0.569273 0
M  V30 3534 H 323.032 -5.16106 -1.95803 0
M  V30 3535 H 325.508 -3.316 -2.51357 0
M  V30 3536 H 324.384 -4.09169 -3.65885 0
M  V30 3537 H 324.645 -2.35656 -3.74057 0
M  V30 3538 N 323.704 0.605807 -1.45491 0
M  V30 3539 C 324.95 1.36679 -1.49823 0
M  V30 3540 C 325.283 1.93693 -0.140175 0
M  V30 3541 O 324.558 1.75158 0.845581 0
M  V30 3542 C 324.841 2.51337 -2.57879 0
M  V30 3543 C 324.694 1.99508 -4.03134 0
M  V30 3544 C 326.013 3.53463 -2.62205 0
M  V30 3545 H 323.132 0.495617 -0.545466 0
M  V30 3546 H 325.774 0.682732 -1.7731 0
M  V30 3547 H 323.924 3.09691 -2.34571 0
M  V30 3548 H 325.596 1.45789 -4.37656 0
M  V30 3549 H 323.839 1.30496 -4.13707 0
M  V30 3550 H 324.51 2.82169 -4.74431 0
M  V30 3551 H 326.986 3.04953 -2.83095 0
M  V30 3552 H 325.862 4.31178 -3.39672 0
M  V30 3553 H 326.123 4.09197 -1.67363 0
M  V30 3554 N 325.182 1.32811 0.848464 0
M  V30 3555 C 326.459 1.14334 1.58704 0
M  V30 3556 C 326.839 -0.293948 2.09043 0
M  V30 3557 O 326.187 -1.29153 1.88499 0
M  V30 3558 C 326.397 2.17626 2.72837 0
M  V30 3559 C 327.745 2.51282 3.42261 0
M  V30 3560 O 328.769 2.16219 2.83068 0
M  V30 3561 O 327.628 3.11413 4.49093 0
M  V30 3562 H 324.722 0.441601 0.699226 0
M  V30 3563 H 327.268 1.44362 0.892053 0
M  V30 3564 H 326.04 3.14211 2.3321 0
M  V30 3565 H 325.663 1.88628 3.50008 0
M  V30 3566 N 326.66 -1.06551 1.16123 0
M  V30 3567 C 327.607 -2.13961 0.865414 0
M  V30 3568 C 328.577 -1.65066 -0.185055 0
M  V30 3569 O 329.762 -1.90732 -0.05083 0
M  V30 3570 C 326.902 -3.43113 0.369776 0
M  V30 3571 C 326.015 -4.05756 1.48276 0
M  V30 3572 C 325.15 -5.22773 0.942414 0
M  V30 3573 C 324.189 -5.77395 2.03179 0
M  V30 3574 N 323.326 -6.85731 1.50721 0
M  V30 3575 H 328.166 -2.38605 1.78527 0
M  V30 3576 H 325.703 -1.17072 0.890646 0
M  V30 3577 H 327.661 -4.17151 0.0640643 0
M  V30 3578 H 326.291 -3.18695 -0.513143 0
M  V30 3579 H 325.343 -3.29292 1.9045 0
M  V30 3580 H 326.655 -4.42351 2.30493 0
M  V30 3581 H 325.809 -6.03827 0.589729 0
M  V30 3582 H 324.548 -4.87618 0.0895191 0
M  V30 3583 H 323.553 -4.94981 2.3932 0
M  V30 3584 H 324.778 -6.14603 2.8886 0
M  V30 3585 H 322.724 -6.52499 0.676811 0
M  V30 3586 H 322.641 -7.21254 2.26557 0
M  V30 3587 H 323.909 -7.7047 1.18303 0
M  V30 3588 N 328.138 -0.959301 -1.25041 0
M  V30 3589 C 329.048 -0.489994 -2.29426 0
M  V30 3590 C 330.064 0.444944 -1.68215 0
M  V30 3591 O 331.24 0.320046 -1.98841 0
M  V30 3592 C 328.305 0.220309 -3.45999 0
M  V30 3593 C 327.366 -0.753418 -4.22637 0
M  V30 3594 C 326.599 -0.076918 -5.33645 0
M  V30 3595 O 326.822 1.13649 -5.58963 0
M  V30 3596 O 325.756 -0.764824 -5.97021 0
M  V30 3597 H 329.582 -1.35755 -2.71669 0
M  V30 3598 H 327.167 -0.725961 -1.30576 0
M  V30 3599 H 329.049 0.619677 -4.16819 0
M  V30 3600 H 327.724 1.06296 -3.0575 0
M  V30 3601 H 326.631 -1.20308 -3.54227 0
M  V30 3602 H 327.964 -1.56423 -4.66683 0
M  V30 3603 N 329.616 1.39756 -0.72842 0
M  V30 3604 C 331.032 1.5442 -0.403308 0
M  V30 3605 C 331.232 1.69694 1.08656 0
M  V30 3606 O 330.288 1.69373 1.87267 0
M  V30 3607 C 331.601 2.76555 -1.18058 0
M  V30 3608 C 333.149 2.90384 -1.16815 0
M  V30 3609 C 333.624 4.15449 -1.92785 0
M  V30 3610 N 335.115 4.22475 -1.89918 0
M  V30 3611 C 335.85 5.1818 -2.45514 0
M  V30 3612 N 335.346 6.19714 -3.09719 0
M  V30 3613 N 337.139 5.1035 -2.35584 0
M  V30 3614 H 329.29 1.28089 -1.69431 0
M  V30 3615 H 331.553 0.620327 -0.716867 0
M  V30 3616 H 331.259 2.7159 -2.23455 0
M  V30 3617 H 331.133 3.69033 -0.780662 0
M  V30 3618 H 333.52 2.94846 -0.12234 0
M  V30 3619 H 333.601 1.98988 -1.6074 0
M  V30 3620 H 333.245 4.11749 -2.97364 0
M  V30 3621 H 333.175 5.05877 -1.46272 0
M  V30 3622 H 335.666 3.49743 -1.43138 0
M  V30 3623 H 335.979 6.8919 -3.49625 0
M  V30 3624 H 334.324 6.20121 -3.13807 0
M  V30 3625 H 337.515 4.2996 -1.85072 0
M  V30 3626 H 337.688 5.84761 -2.79211 0
M  V30 3627 N 331.094 0.475555 1.50254 0
M  V30 3628 C 332.324 -0.0753399 2.06463 0
M  V30 3629 C 332.732 -1.33661 1.33908 0
M  V30 3630 O 332.075 -1.79219 0.403257 0
M  V30 3631 C 332.137 -0.424921 3.5698 0
M  V30 3632 C 331.801 0.734965 4.51051 0
M  V30 3633 C 332.798 1.61827 4.94073 0
M  V30 3634 C 330.483 0.926557 4.9368 0
M  V30 3635 C 332.477 2.67754 5.78434 0
M  V30 3636 C 330.164 1.98904 5.77824 0
M  V30 3637 C 331.162 2.8629 6.20103 0
M  V30 3638 O 330.85 3.90708 7.02568 0
M  V30 3639 H 330.582 0.00576308 0.675975 0
M  V30 3640 H 333.136 0.664662 1.94349 0
M  V30 3641 H 331.366 -1.21817 3.67012 0
M  V30 3642 H 333.055 -0.911422 3.95535 0
M  V30 3643 H 333.821 1.48196 4.61804 0
M  V30 3644 H 329.7 0.25584 4.6029 0
M  V30 3645 H 333.244 3.35992 6.11355 0
M  V30 3646 H 329.141 2.12541 6.09505 0
M  V30 3647 H 329.909 3.87751 7.20827 0
M  V30 3648 N 332.573 -1.56217 0.208337 0
M  V30 3649 C 333.85 -1.89739 -0.475234 0
M  V30 3650 C 334.23 -1.1238 -1.78701 0
M  V30 3651 O 333.578 -0.228979 -2.2735 0
M  V30 3652 C 333.788 -3.42289 -0.681101 0
M  V30 3653 C 335.136 -4.12789 -0.994507 0
M  V30 3654 O 336.16 -3.47814 -0.768357 0
M  V30 3655 O 335.019 -5.27649 -1.42299 0
M  V30 3656 H 332.113 -0.788478 -0.249461 0
M  V30 3657 H 334.659 -1.67855 0.249538 0
M  V30 3658 H 333.431 -3.90534 0.244722 0
M  V30 3659 H 333.054 -3.69909 -1.45785 0
M  V30 3660 N 334.051 0.0651679 -1.57465 0
M  V30 3661 C 334.984 1.10876 -1.99453 0
M  V30 3662 C 335.962 1.37205 -0.872555 0
M  V30 3663 O 337.146 1.50468 -1.13542 0
M  V30 3664 C 334.273 2.45167 -2.3369 0
M  V30 3665 C 333.319 2.3493 -3.55964 0
M  V30 3666 S 334.152 1.73708 -5.06543 0
M  V30 3667 C 335.308 3.09563 -5.43987 0
M  V30 3668 H 335.541 0.750967 -2.87659 0
M  V30 3669 H 333.074 0.273933 -1.51951 0
M  V30 3670 H 335.032 3.22412 -2.54088 0
M  V30 3671 H 333.693 2.78105 -1.46001 0
M  V30 3672 H 332.886 3.3398 -3.77457 0
M  V30 3673 H 332.488 1.65823 -3.3523 0
M  V30 3674 H 334.78 4.05882 -5.42463 0
M  V30 3675 H 335.723 2.92843 -6.44708 0
M  V30 3676 H 336.131 3.10474 -4.71451 0
M  V30 3677 N 335.529 1.53961 0.336706 0
M  V30 3678 C 336.462 1.77255 1.43722 0
M  V30 3679 C 337.44 0.62193 1.50236 0
M  V30 3680 O 338.624 0.857874 1.67847 0
M  V30 3681 C 335.751 1.87733 2.81912 0
M  V30 3682 C 334.797 3.09933 2.92991 0
M  V30 3683 S 335.63 4.68836 2.58753 0
M  V30 3684 C 336.786 4.82202 3.99039 0
M  V30 3685 H 337.019 2.70322 1.23748 0
M  V30 3686 H 334.552 1.44917 0.532777 0
M  V30 3687 H 336.51 1.94455 3.61521 0
M  V30 3688 H 335.171 0.956666 2.99177 0
M  V30 3689 H 334.364 3.1396 3.94265 0
M  V30 3690 H 333.966 3.01472 2.21338 0
M  V30 3691 H 336.258 4.64032 4.9364 0
M  V30 3692 H 337.201 5.84298 4.00002 0
M  V30 3693 H 337.609 4.10604 3.87382 0
M  V30 3694 N 337.007 -0.598083 1.45811 0
M  V30 3695 C 338.255 -1.35413 1.50026 0
M  V30 3696 C 338.576 -1.94444 0.147177 0
M  V30 3697 O 337.846 -1.77701 -0.824571 0
M  V30 3698 H 336.426 -0.502727 0.552517 0
M  V30 3699 H 339.088 -0.701606 1.81834 0
M  V30 3700 H 338.184 -2.16871 2.2444 0
M  V30 3701 N 338.485 -1.33259 -0.841409 0
M  V30 3702 C 339.901 -1.12538 -1.13169 0
M  V30 3703 C 340.101 0.0854037 -2.01319 0
M  V30 3704 O 339.157 0.766417 -2.40587 0
M  V30 3705 C 340.47 -2.41156 -1.79623 0
M  V30 3706 C 342.018 -2.47038 -1.922 0
M  V30 3707 C 342.493 -3.7561 -2.6207 0
M  V30 3708 N 343.984 -3.76667 -2.69585 0
M  V30 3709 C 344.719 -4.72861 -3.2433 0
M  V30 3710 N 344.215 -5.79428 -3.79783 0
M  V30 3711 N 346.008 -4.6034 -3.22558 0
M  V30 3712 H 338.159 -2.10868 -0.254676 0
M  V30 3713 H 340.422 -0.931615 -0.175493 0
M  V30 3714 H 340.128 -3.29747 -1.22311 0
M  V30 3715 H 340.002 -2.53114 -2.79666 0
M  V30 3716 H 342.389 -1.58898 -2.48667 0
M  V30 3717 H 342.47 -2.39022 -0.911148 0
M  V30 3718 H 342.114 -4.64131 -2.06263 0
M  V30 3719 H 342.044 -3.80902 -3.63622 0
M  V30 3720 H 344.535 -2.99648 -2.30259 0
M  V30 3721 H 344.848 -6.48867 -4.19752 0
M  V30 3722 H 343.193 -5.83166 -3.78078 0
M  V30 3723 H 346.384 -3.76244 -2.78492 0
M  V30 3724 H 346.557 -5.35478 -3.64921 0
M  V30 3725 N 339.963 1.05934 -1.16686 0
M  V30 3726 C 340.911 2.15603 -0.872817 0
M  V30 3727 C 341.905 1.68647 0.159576 0
M  V30 3728 O 343.111 1.79995 0.0132125 0
M  V30 3729 H 339.486 0.703885 -0.264671 0
M  V30 3730 H 341.457 2.37613 -1.80507 0
M  V30 3731 C 340.206 3.45457 -0.394344 0
M  V30 3732 H 339.529 3.81984 -1.18019 0
M  V30 3733 H 340.969 4.2339 -0.227408 0
M  V30 3734 C 339.428 3.25021 0.88673 0
M  V30 3735 O 339.958 3.50906 1.95519 0
M  V30 3736 N 338.164 2.78437 0.831925 0
M  V30 3737 H 337.711 2.57572 -0.0377619 0
M  V30 3738 H 337.669 2.65144 1.68956 0
M  V30 3739 N 341.441 0.965919 1.2453 0
M  V30 3740 C 342.373 0.452465 2.2469 0
M  V30 3741 C 343.386 -0.437821 1.56802 0
M  V30 3742 O 344.575 -0.244283 1.76821 0
M  V30 3743 C 341.675 -0.366258 3.36915 0
M  V30 3744 C 340.848 0.513701 4.34373 0
M  V30 3745 C 339.907 -0.248716 5.25612 0
M  V30 3746 O 338.933 0.356745 5.68081 0
M  V30 3747 N 340.135 -1.53877 5.59734 0
M  V30 3748 H 342.9 1.31361 2.69378 0
M  V30 3749 H 340.461 0.837541 1.38553 0
M  V30 3750 H 342.453 -0.884297 3.94921 0
M  V30 3751 H 341.023 -1.12832 2.91526 0
M  V30 3752 H 340.243 1.21273 3.75082 0
M  V30 3753 H 341.531 1.11391 4.96457 0
M  V30 3754 H 340.929 -2.05243 5.27154 0
M  V30 3755 H 339.486 -2.00254 6.20275 0
M  V30 3756 N 342.919 -1.39368 0.735821 0
M  V30 3757 C 344.147 -2.04795 0.294393 0
M  V30 3758 C 344.562 -1.55478 -1.07107 0
M  V30 3759 O 343.919 -0.720038 -1.67695 0
M  V30 3760 C 343.97 -3.6035 0.288071 0
M  V30 3761 O 343.691 -4.07852 1.59963 0
M  V30 3762 C 345.192 -4.42976 -0.169422 0
M  V30 3763 H 342.412 -0.658571 0.128551 0
M  V30 3764 H 344.956 -1.78399 0.999701 0
M  V30 3765 H 343.111 -3.85645 -0.368355 0
M  V30 3766 H 343.525 -5.02181 1.51375 0
M  V30 3767 H 344.999 -5.51864 -0.122687 0
M  V30 3768 H 345.476 -4.22068 -1.21472 0
M  V30 3769 H 346.082 -4.22832 0.457469 0
M  V30 3770 N 344.397 -0.483516 -1.5 0
M  V30 3771 C 345.36 0.292965 -2.2732 0
M  V30 3772 C 346.36 0.909499 -1.32608 0
M  V30 3773 O 347.55 0.776745 -1.55924 0
M  V30 3774 C 344.682 1.41854 -3.09984 0
M  V30 3775 H 345.875 -0.385289 -2.97415 0
M  V30 3776 H 343.428 -0.237942 -1.54478 0
M  V30 3777 H 344.163 2.13148 -2.44414 0
M  V30 3778 H 343.948 0.982114 -3.79601 0
M  V30 3779 H 345.438 1.96597 -3.68429 0
M  V30 3780 N 345.875 1.56104 -0.216619 0
M  V30 3781 C 347.121 1.98466 0.417033 0
M  V30 3782 C 347.454 1.10403 1.59765 0
M  V30 3783 O 346.729 0.160632 1.93836 0
M  V30 3784 C 347.012 3.49769 0.85637 0
M  V30 3785 C 346.865 4.48606 -0.327546 0
M  V30 3786 C 348.184 4.05339 1.7143 0
M  V30 3787 H 345.303 0.721551 0.150112 0
M  V30 3788 H 347.945 1.87423 -0.311864 0
M  V30 3789 H 346.095 3.5931 1.47745 0
M  V30 3790 H 347.767 4.5108 -0.965618 0
M  V30 3791 H 346.01 4.22682 -0.975805 0
M  V30 3792 H 346.681 5.51995 0.0227149 0
M  V30 3793 H 349.157 3.98712 1.19031 0
M  V30 3794 H 348.033 5.11533 1.99061 0
M  V30 3795 H 348.294 3.51918 2.67593 0
M  V30 3796 N 347.353 -0.0568162 1.57498 0
M  V30 3797 C 348.769 -0.411933 1.54192 0
M  V30 3798 C 348.969 -1.78287 0.938942 0
M  V30 3799 O 348.025 -2.46483 0.547919 0
M  V30 3800 C 349.338 -0.339244 2.9878 0
M  V30 3801 C 350.886 -0.418348 3.10192 0
M  V30 3802 C 351.361 -0.375407 4.56459 0
M  V30 3803 N 352.852 -0.435038 4.61153 0
M  V30 3804 C 353.587 -0.424265 5.71828 0
M  V30 3805 N 353.083 -0.367418 6.91825 0
M  V30 3806 N 354.876 -0.471938 5.60115 0
M  V30 3807 H 347.027 0.840684 1.95055 0
M  V30 3808 H 349.29 0.316987 0.893433 0
M  V30 3809 H 348.996 0.601742 3.46514 0
M  V30 3810 H 348.87 -1.14371 3.59443 0
M  V30 3811 H 351.257 -1.34976 2.62422 0
M  V30 3812 H 351.338 0.414962 2.52412 0
M  V30 3813 H 350.982 0.552219 5.04889 0
M  V30 3814 H 350.912 -1.22645 5.12119 0
M  V30 3815 H 353.403 -0.482612 3.74806 0
M  V30 3816 H 353.716 -0.363535 7.71944 0
M  V30 3817 H 352.061 -0.333879 6.94198 0
M  V30 3818 H 355.252 -0.514145 4.65268 0
M  V30 3819 H 355.425 -0.460073 6.46365 0
M  V30 3820 N 348.832 -1.54138 -0.328536 0
M  V30 3821 C 349.742 -1.86192 -1.42723 0
M  V30 3822 C 350.758 -0.753382 -1.56844 0
M  V30 3823 O 351.934 -1.04718 -1.72035 0
M  V30 3824 C 348.999 -2.07824 -2.77507 0
M  V30 3825 C 348.06 -3.31641 -2.72603 0
M  V30 3826 C 347.293 -3.52232 -4.00959 0
M  V30 3827 O 347.516 -2.7636 -4.9898 0
M  V30 3828 O 346.45 -4.45699 -4.0452 0
M  V30 3829 H 350.276 -2.79608 -1.18547 0
M  V30 3830 H 347.861 -1.3998 -0.522104 0
M  V30 3831 H 349.743 -2.23411 -3.57303 0
M  V30 3832 H 348.418 -1.17596 -3.01584 0
M  V30 3833 H 347.325 -3.21444 -1.91376 0
M  V30 3834 H 348.658 -4.2191 -2.53481 0
M  V30 3835 N 350.31 0.590341 -1.46126 0
M  V30 3836 C 351.22 1.72793 -1.58681 0
M  V30 3837 C 352.236 1.67516 -0.470566 0
M  V30 3838 O 353.412 1.87562 -0.733642 0
M  V30 3839 C 350.477 3.09287 -1.5666 0
M  V30 3840 C 349.538 3.25886 -2.79458 0
M  V30 3841 C 348.771 4.55869 -2.77524 0
M  V30 3842 O 348.994 5.3928 -1.85832 0
M  V30 3843 O 347.928 4.75552 -3.68964 0
M  V30 3844 H 351.754 1.65149 -2.54872 0
M  V30 3845 H 349.339 0.756486 -1.28832 0
M  V30 3846 H 351.221 3.90577 -1.58202 0
M  V30 3847 H 349.896 3.17385 -0.636271 0
M  V30 3848 H 348.803 2.44119 -2.83472 0
M  V30 3849 H 350.136 3.22675 -3.71674 0
M  V30 3850 N 351.788 1.33704 0.83433 0
M  V30 3851 C 352.721 1.18675 1.94914 0
M  V30 3852 C 353.699 0.0811145 1.62398 0
M  V30 3853 O 354.883 0.244186 1.86912 0
M  V30 3854 C 352.01 0.821231 3.28593 0
M  V30 3855 C 351.056 1.93501 3.80079 0
M  V30 3856 S 351.889 3.54671 4.01209 0
M  V30 3857 C 353.045 3.20136 5.37833 0
M  V30 3858 H 353.278 2.13043 2.07364 0
M  V30 3859 H 350.811 1.18598 0.988624 0
M  V30 3860 H 352.769 0.617123 4.05835 0
M  V30 3861 H 351.43 -0.103927 3.13928 0
M  V30 3862 H 350.623 1.63273 4.76821 0
M  V30 3863 H 350.225 2.09601 3.09747 0
M  V30 3864 H 352.517 2.71242 6.20833 0
M  V30 3865 H 353.46 4.15975 5.73036 0
M  V30 3866 H 353.868 2.56613 5.02802 0
M  V30 3867 N 353.266 -1.05314 1.17247 0
M  V30 3868 C 354.515 -1.77685 0.954521 0
M  V30 3869 C 354.828 -1.88616 -0.518025 0
M  V30 3870 O 356.034 -2.57714 -0.854144 0
M  V30 3871 C 354.49 -3.19402 1.65863 0
M  V30 3872 C 354.098 -3.16605 3.16963 0
M  V30 3873 C 355.842 -3.96237 1.52303 0
M  V30 3874 C 353.749 -4.53103 3.80068 0
M  V30 3875 H 352.679 -0.666 0.353496 0
M  V30 3876 H 355.33 -1.1805 1.40486 0
M  V30 3877 H 353.712 -3.79355 1.13602 0
M  V30 3878 H 354.886 -2.66176 3.76148 0
M  V30 3879 H 353.201 -2.53268 3.30521 0
M  V30 3880 H 355.798 -4.97157 1.96822 0
M  V30 3881 H 356.141 -4.136 0.473401 0
M  V30 3882 H 356.674 -3.42829 2.01775 0
M  V30 3883 H 353.413 -4.40946 4.85023 0
M  V30 3884 H 352.933 -5.03686 3.2567 0
M  V30 3885 H 354.612 -5.22045 3.82202 0
M  V30 3886 N 354.744 -0.972509 -1.24016 0
M  V30 3887 C 355.674 -0.525548 -2.27509 0
M  V30 3888 C 356.655 0.437262 -1.64384 0
M  V30 3889 O 357.84 0.332343 -1.91335 0
M  V30 3890 C 354.97 0.180448 -3.46831 0
M  V30 3891 C 353.924 -0.698859 -4.22256 0
M  V30 3892 C 353.25 0.138903 -5.3452 0
M  V30 3893 C 354.55 -1.98582 -4.83076 0
M  V30 3894 H 356.244 -1.39058 -2.65148 0
M  V30 3895 H 353.79 -0.67009 -1.27459 0
M  V30 3896 H 355.743 0.504387 -4.18371 0
M  V30 3897 H 354.467 1.07987 -3.08231 0
M  V30 3898 H 353.126 -1.00614 -3.52523 0
M  V30 3899 H 352.774 1.03862 -4.9216 0
M  V30 3900 H 352.474 -0.446259 -5.85903 0
M  V30 3901 H 353.998 0.457404 -6.08884 0
M  V30 3902 H 355.412 -1.72715 -5.46665 0
M  V30 3903 H 353.809 -2.5181 -5.44713 0
M  V30 3904 H 354.879 -2.67769 -4.04262 0
M  V30 3905 N 356.222 1.38976 -0.743202 0
M  V30 3906 C 357.152 2.33171 -0.123873 0
M  V30 3907 C 358.133 1.54336 0.71516 0
M  V30 3908 O 359.318 1.82696 0.658467 0
M  V30 3909 C 356.448 3.38474 0.777978 0
M  V30 3910 C 355.402 4.27979 0.0424758 0
M  V30 3911 C 354.728 5.2405 1.06189 0
M  V30 3912 C 356.028 5.10155 -1.1198 0
M  V30 3913 H 357.722 2.85213 -0.910709 0
M  V30 3914 H 355.268 1.37133 -0.439388 0
M  V30 3915 H 357.221 4.03328 1.22084 0
M  V30 3916 H 355.945 2.84891 1.59702 0
M  V30 3917 H 354.604 3.64616 -0.380853 0
M  V30 3918 H 354.252 4.66758 1.87472 0
M  V30 3919 H 353.952 5.84785 0.574485 0
M  V30 3920 H 355.476 5.9178 1.50428 0
M  V30 3921 H 356.89 5.68307 -0.75499 0
M  V30 3922 H 355.287 5.80073 -1.53738 0
M  V30 3923 H 356.357 4.44504 -1.93764 0
M  V30 3924 N 357.7 0.491464 1.49741 0
M  V30 3925 C 358.663 -0.280906 2.27472 0
M  V30 3926 C 359.663 -0.902454 1.33088 0
M  V30 3927 O 360.853 -0.768465 1.56334 0
M  V30 3928 C 357.985 -1.40209 3.10732 0
M  V30 3929 H 359.178 0.401056 2.97206 0
M  V30 3930 H 356.731 0.246131 1.5435 0
M  V30 3931 H 357.466 -2.11849 2.45541 0
M  V30 3932 H 357.251 -0.961969 3.80117 0
M  V30 3933 H 358.741 -1.9464 3.69466 0
M  V30 3934 N 359.178 -1.55987 0.224894 0
M  V30 3935 C 360.126 -2.21808 -0.700283 0
M  V30 3936 C 361.12 -1.19854 -1.19714 0
M  V30 3937 O 362.326 -1.37925 -1.15658 0
M  V30 3938 H 358.701 -0.711226 -0.244258 0
M  V30 3939 H 360.672 -2.98152 -0.121749 0
M  V30 3940 C 359.421 -2.91444 -1.8962 0
M  V30 3941 H 358.744 -3.69655 -1.52299 0
M  V30 3942 H 360.184 -3.40894 -2.52125 0
M  V30 3943 C 358.643 -1.94098 -2.75368 0
M  V30 3944 O 359.173 -1.46004 -3.74227 0
M  V30 3945 N 357.379 -1.61675 -2.41474 0
M  V30 3946 H 356.926 -2.00979 -1.61137 0
M  V30 3947 H 356.884 -0.968036 -2.99126 0
M  V30 3948 N 360.656 0.0484629 -1.57525 0
M  V30 3949 C 361.886 0.754326 -1.92337 0
M  V30 3950 C 362.294 1.70443 -0.82132 0
M  V30 3951 O 361.637 1.82466 0.21254 0
M  V30 3952 C 361.699 1.58231 -3.22805 0
M  V30 3953 C 361.363 0.799074 -4.4996 0
M  V30 3954 C 362.36 0.1079 -5.19788 0
M  V30 3955 C 360.045 0.759345 -4.96527 0
M  V30 3956 C 362.039 -0.612516 -6.3445 0
M  V30 3957 C 359.726 0.0351713 -6.1109 0
M  V30 3958 C 360.724 -0.649537 -6.79904 0
M  V30 3959 O 360.412 -1.36199 -7.92278 0
M  V30 3960 H 360.144 0.218257 -0.639797 0
M  V30 3961 H 362.698 0.0159295 -2.05394 0
M  V30 3962 H 360.928 2.36406 -3.06021 0
M  V30 3963 H 362.617 2.16898 -3.43089 0
M  V30 3964 H 363.383 0.129748 -4.84826 0
M  V30 3965 H 359.262 1.28177 -4.42822 0
M  V30 3966 H 362.806 -1.14751 -6.88097 0
M  V30 3967 H 358.703 0.0113314 -6.45499 0
M  V30 3968 H 359.471 -1.27366 -8.0853 0
M  V30 3969 N 362.134 1.5431 0.320358 0
M  V30 3970 C 363.064 1.86912 1.3995 0
M  V30 3971 C 364.045 0.726211 1.53819 0
M  V30 3972 O 365.23 0.980233 1.67646 0
M  V30 3973 C 362.36 2.09932 2.7667 0
M  V30 3974 C 361.314 3.25776 2.77586 0
M  V30 3975 C 360.64 3.34173 4.17412 0
M  V30 3976 C 361.94 4.6335 2.41048 0
M  V30 3977 H 363.634 2.77292 1.12914 0
M  V30 3978 H 361.18 1.33421 0.541738 0
M  V30 3979 H 363.133 2.31324 3.52232 0
M  V30 3980 H 361.857 1.16304 3.0519 0
M  V30 3981 H 360.516 3.04276 2.04479 0
M  V30 3982 H 360.164 2.38098 4.43078 0
M  V30 3983 H 359.864 4.12033 4.18931 0
M  V30 3984 H 361.388 3.57803 4.94782 0
M  V30 3985 H 362.802 4.84602 3.06324 0
M  V30 3986 H 361.199 5.43782 2.53813 0
M  V30 3987 H 362.269 4.65381 1.36193 0
M  V30 3988 N 363.613 -0.582584 1.46437 0
M  V30 3989 C 364.89 -1.34276 1.4223 0
M  V30 3990 C 365.27 -2.10835 0.10583 0
M  V30 3991 O 364.618 -2.09485 -0.912596 0
M  V30 3992 C 364.828 -2.26865 2.65204 0
M  V30 3993 C 366.176 -2.88691 3.11356 0
M  V30 3994 O 367.2 -2.37178 2.65753 0
M  V30 3995 O 366.059 -3.82255 3.90568 0
M  V30 3996 H 363.153 -0.603326 0.565621 0
M  V30 3997 H 365.699 -0.603591 1.58603 0
M  V30 3998 H 364.471 -1.69724 3.52576 0
M  V30 3999 H 364.094 -3.08122 2.5129 0
M  V30 4000 N 365.091 -1.34144 -0.827227 0
M  V30 4001 C 366.316 -1.29476 -1.62021 0
M  V30 4002 C 366.741 0.129292 -1.87655 0
M  V30 4003 O 366.099 1.08967 -1.449 0
M  V30 4004 C 366.147 -2.08702 -2.94068 0
M  V30 4005 O 365.251 -1.45359 -3.85933 0
M  V30 4006 H 364.592 -0.444881 -0.492927 0
M  V30 4007 H 367.122 -1.76882 -1.02829 0
M  V30 4008 H 367.132 -2.19898 -3.43669 0
M  V30 4009 H 365.807 -3.12241 -2.74734 0
M  V30 4010 H 364.384 -1.42879 -3.44442 0
M  V30 4011 N 366.569 1.04691 -1.17803 0
M  V30 4012 C 367.502 2.12068 -0.842765 0
M  V30 4013 C 368.48 1.61455 0.192608 0
M  V30 4014 O 369.664 1.88359 0.072995 0
M  V30 4015 C 366.791 3.37715 -0.258063 0
M  V30 4016 C 365.837 4.07164 -1.26962 0
M  V30 4017 S 366.67 4.55047 -2.82299 0
M  V30 4018 C 367.826 5.83935 -2.25323 0
M  V30 4019 H 368.059 2.4018 -1.75217 0
M  V30 4020 H 365.592 1.17366 -1.00323 0
M  V30 4021 H 367.55 4.10435 0.0727935 0
M  V30 4022 H 366.211 3.0773 0.629357 0
M  V30 4023 H 365.404 4.9746 -0.809263 0
M  V30 4024 H 365.006 3.40533 -1.54639 0
M  V30 4025 H 367.298 6.57552 -1.63192 0
M  V30 4026 H 368.241 6.34725 -3.13894 0
M  V30 4027 H 368.649 5.3874 -1.68582 0
M  V30 4028 N 368.047 0.979072 1.23499 0
M  V30 4029 C 369.277 0.664237 1.95631 0
M  V30 4030 C 369.685 -0.772653 1.72704 0
M  V30 4031 O 369.028 -1.53141 1.01457 0
M  V30 4032 C 369.09 0.873115 3.48736 0
M  V30 4033 C 368.754 2.29182 3.95379 0
M  V30 4034 C 369.751 3.2704 4.04155 0
M  V30 4035 C 367.436 2.62256 4.28401 0
M  V30 4036 C 369.43 4.56052 4.45304 0
M  V30 4037 C 367.117 3.91491 4.69231 0
M  V30 4038 C 368.115 4.88201 4.77649 0
M  V30 4039 O 367.803 6.15129 5.17563 0
M  V30 4040 H 367.535 0.245915 0.629684 0
M  V30 4041 H 370.089 1.3127 1.57979 0
M  V30 4042 H 368.319 0.167476 3.86337 0
M  V30 4043 H 370.008 0.555642 4.02079 0
M  V30 4044 H 370.774 3.02819 3.78848 0
M  V30 4045 H 366.653 1.87692 4.21061 0
M  V30 4046 H 370.197 5.31538 4.51789 0
M  V30 4047 H 366.094 4.15508 4.93987 0
M  V30 4048 H 366.862 6.18862 5.35679 0
M  V30 4049 N 369.525 -1.3858 0.750561 0
M  V30 4050 C 370.774 -1.99424 0.302172 0
M  V30 4051 C 371.087 -1.60254 -1.12152 0
M  V30 4052 O 372.293 -2.14046 -1.67023 0
M  V30 4053 C 370.749 -3.56558 0.489307 0
M  V30 4054 C 370.357 -4.04682 1.92189 0
M  V30 4055 C 372.101 -4.24374 0.103478 0
M  V30 4056 C 370.008 -5.54446 2.05775 0
M  V30 4057 H 368.938 -0.746046 0.10923 0
M  V30 4058 H 371.589 -1.58383 0.92667 0
M  V30 4059 H 369.971 -3.95472 -0.204329 0
M  V30 4060 H 371.145 -3.77065 2.64875 0
M  V30 4061 H 369.46 -3.4958 2.26236 0
M  V30 4062 H 372.057 -5.34384 0.183787 0
M  V30 4063 H 372.4 -4.05468 -0.943481 0
M  V30 4064 H 372.933 -3.90688 0.748854 0
M  V30 4065 H 369.672 -5.78252 3.08714 0
M  V30 4066 H 369.192 -5.83816 1.37546 0
M  V30 4067 H 370.871 -6.20099 1.84626 0
M  V30 4068 N 371.003 -0.499398 -1.49478 0
M  V30 4069 C 371.936 0.326491 -2.25852 0
M  V30 4070 C 372.914 0.971776 -1.30366 0
M  V30 4071 O 374.098 1.00219 -1.59651 0
M  V30 4072 C 371.225 1.45969 -3.05632 0
M  V30 4073 C 370.271 0.928938 -4.16261 0
M  V30 4074 S 371.104 -0.179012 -5.35201 0
M  V30 4075 C 372.26 0.957389 -6.18534 0
M  V30 4076 H 372.493 -0.321746 -2.95554 0
M  V30 4077 H 370.026 -0.284674 -1.51753 0
M  V30 4078 H 371.984 2.109 -3.52181 0
M  V30 4079 H 370.645 2.07953 -2.35402 0
M  V30 4080 H 369.838 1.77813 -4.71592 0
M  V30 4081 H 369.44 0.356869 -3.72293 0
M  V30 4082 H 371.732 1.86296 -6.51383 0
M  V30 4083 H 372.675 0.442733 -7.06715 0
M  V30 4084 H 373.083 1.224 -5.5107 0
M  V30 4085 N 372.481 1.55866 -0.233164 0
M  V30 4086 C 373.411 2.23783 0.666599 0
M  V30 4087 C 374.392 1.21343 1.19205 0
M  V30 4088 O 375.577 1.4996 1.23392 0
M  V30 4089 C 372.707 2.92671 1.86978 0
M  V30 4090 C 371.661 4.01682 1.47768 0
M  V30 4091 C 370.987 4.57926 2.76058 0
M  V30 4092 C 372.287 5.18126 0.658993 0
M  V30 4093 H 373.981 2.99232 0.100306 0
M  V30 4094 H 371.527 1.43924 0.046804 0
M  V30 4095 H 373.48 3.3888 2.50476 0
M  V30 4096 H 372.204 2.14688 2.46123 0
M  V30 4097 H 370.863 3.56222 0.866106 0
M  V30 4098 H 370.511 3.76659 3.33372 0
M  V30 4099 H 370.211 5.31505 2.50552 0
M  V30 4100 H 371.735 5.06859 3.40479 0
M  V30 4101 H 373.149 5.60644 1.19795 0
M  V30 4102 H 371.546 5.98009 0.500552 0
M  V30 4103 H 372.616 4.83763 -0.331856 0
M  V30 4104 N 373.959 -0.0401083 1.57549 0
M  V30 4105 C 374.907 -1.06264 2.06908 0
M  V30 4106 C 375.901 -1.38132 0.980608 0
M  V30 4107 O 377.107 -1.37167 1.16556 0
M  V30 4108 H 373.482 -0.360166 0.660139 0
M  V30 4109 H 375.453 -0.620445 2.91878 0
M  V30 4110 C 374.202 -2.35846 2.55483 0
M  V30 4111 H 373.525 -2.12183 3.38849 0
M  V30 4112 H 374.965 -3.05765 2.93741 0
M  V30 4113 C 373.424 -3.0404 1.45126 0
M  V30 4114 O 373.954 -3.93424 0.811216 0
M  V30 4115 N 372.16 -2.65184 1.18852 0
M  V30 4116 H 371.707 -1.92584 1.71083 0
M  V30 4117 H 371.665 -3.1113 0.452244 0
M  V30 4118 N 375.437 -1.54477 -0.31217 0
M  V30 4119 C 376.686 -1.72438 -1.04633 0
M  V30 4120 C 376.999 -0.511163 -1.88803 0
M  V30 4121 O 378.205 -0.572341 -2.65399 0
M  V30 4122 C 376.661 -3.05043 -1.9099 0
M  V30 4123 C 376.269 -4.33806 -1.11877 0
M  V30 4124 C 378.013 -3.32364 -2.64073 0
M  V30 4125 C 375.92 -5.57467 -1.97445 0
M  V30 4126 H 374.85 -0.642647 -0.394361 0
M  V30 4127 H 377.501 -1.80966 -0.303929 0
M  V30 4128 H 375.883 -2.90451 -2.69173 0
M  V30 4129 H 377.057 -4.59199 -0.383843 0
M  V30 4130 H 375.372 -4.13336 -0.504252 0
M  V30 4131 H 377.969 -4.21951 -3.28423 0
M  V30 4132 H 378.312 -2.50745 -3.32314 0
M  V30 4133 H 378.845 -3.47875 -1.92944 0
M  V30 4134 H 375.584 -6.41722 -1.33692 0
M  V30 4135 H 375.104 -5.36277 -2.6864 0
M  V30 4136 H 376.783 -5.94303 -2.5576 0
M  V30 4137 N 376.915 0.57481 -1.46744 0
M  V30 4138 C 378.331 0.898981 -1.31873 0
M  V30 4139 C 378.531 1.99313 -0.29605 0
M  V30 4140 O 377.587 2.50728 0.298621 0
M  V30 4141 C 378.9 1.30886 -2.7072 0
M  V30 4142 C 380.448 1.42127 -2.78871 0
M  V30 4143 C 380.923 1.86478 -4.18318 0
M  V30 4144 N 382.414 1.93658 -4.20774 0
M  V30 4145 C 383.149 2.29267 -5.2557 0
M  V30 4146 N 382.645 2.63612 -6.40688 0
M  V30 4147 N 384.438 2.29889 -5.1294 0
M  V30 4148 H 376.589 -0.147839 -2.11885 0
M  V30 4149 H 378.852 -0.00347013 -0.947994 0
M  V30 4150 H 378.558 0.578853 -3.46904 0
M  V30 4151 H 378.432 2.26874 -3.01343 0
M  V30 4152 H 380.819 2.14213 -2.0297 0
M  V30 4153 H 380.9 0.443705 -2.51922 0
M  V30 4154 H 380.544 1.14968 -4.94717 0
M  V30 4155 H 380.474 2.85207 -4.42679 0
M  V30 4156 H 382.965 1.69574 -3.37718 0
M  V30 4157 H 383.278 2.89759 -7.16421 0
M  V30 4158 H 381.623 2.61232 -6.44036 0
M  V30 4159 H 384.814 2.02485 -4.22039 0
M  V30 4160 H 384.987 2.57312 -5.94722 0
M  V30 4161 N 378.394 1.34581 0.820102 0
M  V30 4162 C 379.643 1.26437 1.57151 0
M  V30 4163 C 379.956 -0.163111 1.94919 0
M  V30 4164 O 381.162 -0.366722 2.69012 0
M  V30 4165 C 379.618 2.21658 2.83541 0
M  V30 4166 C 379.226 3.69679 2.53065 0
M  V30 4167 C 380.97 2.22428 3.61561 0
M  V30 4168 C 378.877 4.56761 3.75664 0
M  V30 4169 H 377.807 0.469707 0.589823 0
M  V30 4170 H 380.458 1.59763 0.902656 0
M  V30 4171 H 378.84 1.81287 3.52067 0
M  V30 4172 H 380.014 4.18605 1.92631 0
M  V30 4173 H 378.329 3.71384 1.88316 0
M  V30 4174 H 380.926 2.8471 4.52597 0
M  V30 4175 H 381.269 1.22434 3.97889 0
M  V30 4176 H 381.802 2.61259 2.99981 0
M  V30 4177 H 378.541 5.57702 3.44454 0
M  V30 4178 H 378.061 4.12568 4.35371 0
M  V30 4179 H 379.74 4.71509 4.43044 0
M  V30 4180 N 379.872 -1.04064 1.18357 0
M  V30 4181 C 381.118 -1.77528 0.980397 0
M  V30 4182 C 381.451 -1.87948 -0.48879 0
M  V30 4183 O 380.726 -1.3876 -1.36293 0
M  V30 4184 C 381.009 -3.20797 1.63588 0
M  V30 4185 C 380.862 -3.1832 3.17793 0
M  V30 4186 C 382.181 -4.18911 1.34914 0
M  V30 4187 H 379.3 -0.644443 0.357578 0
M  V30 4188 H 381.942 -1.2156 1.46024 0
M  V30 4189 H 380.092 -3.68586 1.22788 0
M  V30 4190 H 381.764 -2.78521 3.67728 0
M  V30 4191 H 380.007 -2.56351 3.49952 0
M  V30 4192 H 380.678 -4.19489 3.58794 0
M  V30 4193 H 383.154 -3.7967 1.70265 0
M  V30 4194 H 382.03 -5.17374 1.83346 0
M  V30 4195 H 382.291 -4.41262 0.272027 0
M  V30 4196 N 381.35 -0.985608 -1.22978 0
M  V30 4197 C 382.28 -0.549649 -2.26939 0
M  V30 4198 C 383.261 0.419803 -1.64838 0
M  V30 4199 O 384.446 0.31203 -1.91677 0
M  V30 4200 C 381.576 0.143652 -3.47003 0
M  V30 4201 C 380.53 -0.743606 -4.21491 0
M  V30 4202 C 379.856 0.0822027 -5.34637 0
M  V30 4203 C 381.156 -2.03694 -4.80943 0
M  V30 4204 H 382.85 -1.41862 -2.63658 0
M  V30 4205 H 380.396 -0.683571 -1.26741 0
M  V30 4206 H 382.349 0.459985 -4.18882 0
M  V30 4207 H 381.073 1.04711 -3.09359 0
M  V30 4208 H 379.732 -1.04347 -3.51436 0
M  V30 4209 H 379.38 0.986359 -4.93234 0
M  V30 4210 H 379.08 -0.508377 -5.85397 0
M  V30 4211 H 380.604 0.392797 -6.09335 0
M  V30 4212 H 382.018 -1.78504 -5.44802 0
M  V30 4213 H 380.415 -2.57573 -5.42011 0
M  V30 4214 H 381.485 -2.72042 -4.01399 0
M  V30 4215 N 382.828 1.3818 -0.7579 0
M  V30 4216 C 384.074 2.00316 -0.316453 0
M  V30 4217 C 384.407 1.60026 1.10025 0
M  V30 4218 O 383.682 0.839835 1.75434 0
M  V30 4219 C 383.965 3.57349 -0.444245 0
M  V30 4220 C 383.818 4.07591 -1.90236 0
M  V30 4221 C 385.137 4.3981 0.1598 0
M  V30 4222 H 382.256 0.727741 -0.116459 0
M  V30 4223 H 384.898 1.6406 -0.958352 0
M  V30 4224 H 383.048 3.88365 0.102233 0
M  V30 4225 H 384.72 3.87199 -2.50748 0
M  V30 4226 H 382.963 3.60297 -2.41595 0
M  V30 4227 H 383.634 5.16677 -1.94291 0
M  V30 4228 H 386.11 4.14971 -0.306314 0
M  V30 4229 H 384.986 5.48885 0.0401675 0
M  V30 4230 H 385.247 4.24102 1.24859 0
M  V30 4231 N 384.306 0.507319 1.49211 0
M  V30 4232 C 385.554 -0.0348839 2.0207 0
M  V30 4233 C 385.875 -1.36898 1.38866 0
M  V30 4234 O 385.145 -1.88133 0.546151 0
M  V30 4235 H 383.725 -0.0158812 0.746831 0
M  V30 4236 H 386.387 0.665998 1.83168 0
M  V30 4237 H 385.483 -0.159917 3.1169 0
M  V30 4238 N 385.784 -1.5574 0.241426 0
M  V30 4239 C 386.714 -2.24133 -0.654722 0
M  V30 4240 C 387.695 -1.21974 -1.1856 0
M  V30 4241 O 388.88 -1.50612 -1.22595 0
M  V30 4242 C 386.01 -2.93659 -1.85423 0
M  V30 4243 C 384.964 -4.0246 -1.45636 0
M  V30 4244 C 384.29 -4.59383 -2.73626 0
M  V30 4245 C 385.59 -5.18468 -0.631506 0
M  V30 4246 H 387.284 -2.99281 -0.0844353 0
M  V30 4247 H 384.83 -1.43947 -0.0391707 0
M  V30 4248 H 386.783 -3.40203 -2.48676 0
M  V30 4249 H 385.507 -2.15991 -2.44981 0
M  V30 4250 H 384.166 -3.56676 -0.847202 0
M  V30 4251 H 383.814 -3.78422 -3.3137 0
M  V30 4252 H 383.514 -5.32826 -2.4773 0
M  V30 4253 H 385.038 -5.08658 -3.37786 0
M  V30 4254 H 386.452 -5.61272 -1.1682 0
M  V30 4255 H 384.849 -5.98266 -0.468831 0
M  V30 4256 H 385.919 -4.8358 0.357506 0
M  V30 4257 N 387.262 0.0317525 -1.57568 0
M  V30 4258 C 388.172 1.05021 -2.0978 0
M  V30 4259 C 389.188 1.39809 -1.03583 0
M  V30 4260 O 390.364 1.49182 -1.35302 0
M  V30 4261 C 387.429 2.33301 -2.56459 0
M  V30 4262 C 386.49 2.0512 -3.77127 0
M  V30 4263 C 385.723 3.27283 -4.2157 0
M  V30 4264 O 385.946 4.37861 -3.65559 0
M  V30 4265 O 384.88 3.13141 -5.14029 0
M  V30 4266 H 388.706 0.636505 -2.96955 0
M  V30 4267 H 386.291 0.248559 -1.47318 0
M  V30 4268 H 388.173 3.08722 -2.86825 0
M  V30 4269 H 386.848 2.73973 -1.72397 0
M  V30 4270 H 385.755 1.27276 -3.51784 0
M  V30 4271 H 387.088 1.69305 -4.62165 0
M  V30 4272 N 388.74 1.54641 0.303973 0
M  V30 4273 C 389.989 1.7299 1.03717 0
M  V30 4274 C 390.302 0.521168 1.88529 0
M  V30 4275 O 391.508 0.586408 2.65092 0
M  V30 4276 C 389.964 3.06051 1.89369 0
M  V30 4277 C 389.572 4.34393 1.09574 0
M  V30 4278 C 391.316 3.3376 2.62306 0
M  V30 4279 C 389.223 5.58506 1.94486 0
M  V30 4280 H 388.153 0.64473 0.390947 0
M  V30 4281 H 390.804 1.81124 0.294328 0
M  V30 4282 H 389.186 2.91874 2.67629 0
M  V30 4283 H 390.36 4.59396 0.359485 0
M  V30 4284 H 388.675 4.13597 0.482324 0
M  V30 4285 H 391.272 4.23687 3.26181 0
M  V30 4286 H 391.615 2.52503 3.3098 0
M  V30 4287 H 392.148 3.48894 1.91097 0
M  V30 4288 H 388.887 6.42422 1.30287 0
M  V30 4289 H 388.407 5.37694 2.65792 0
M  V30 4290 H 390.086 5.95651 2.52605 0
M  V30 4291 N 390.218 -0.567019 1.47046 0
M  V30 4292 C 391.464 -1.32434 1.54379 0
M  V30 4293 C 391.819 -1.91365 0.199276 0
M  V30 4294 O 391.112 -1.74378 -0.793915 0
M  V30 4295 C 391.306 -2.4623 2.59047 0
M  V30 4296 C 391.135 -1.98448 4.03545 0
M  V30 4297 C 389.905 -1.82741 4.71098 0
M  V30 4298 C 392.103 -1.53477 4.90866 0
M  V30 4299 N 390.085 -1.29196 6.00151 0
M  V30 4300 C 391.456 -1.1163 6.09868 0
M  V30 4301 C 393.511 -1.41438 4.77388 0
M  V30 4302 C 392.214 -0.589425 7.16881 0
M  V30 4303 C 394.24 -0.901528 5.84488 0
M  V30 4304 C 393.602 -0.492932 7.02673 0
M  V30 4305 H 389.701 -0.477005 0.61967 0
M  V30 4306 H 392.285 -0.643856 1.83746 0
M  V30 4307 H 390.456 -3.11821 2.31564 0
M  V30 4308 H 392.188 -3.13213 2.56281 0
M  V30 4309 H 388.943 -2.05162 4.26855 0
M  V30 4310 H 389.367 -1.0454 6.6888 0
M  V30 4311 H 394.009 -1.71643 3.86392 0
M  V30 4312 H 391.727 -0.274994 8.07632 0
M  V30 4313 H 395.313 -0.812071 5.76105 0
M  V30 4314 H 394.193 -0.102227 7.84133 0
M  V30 4315 N 391.696 -1.35014 -0.812953 0
M  V30 4316 C 392.924 -1.31031 -1.6012 0
M  V30 4317 C 393.339 0.113558 -1.88458 0
M  V30 4318 O 392.696 1.06363 -1.48301 0
M  V30 4319 C 392.747 -2.10872 -2.93624 0
M  V30 4320 O 392.468 -3.47706 -2.66518 0
M  V30 4321 C 393.969 -2.14401 -3.88004 0
M  V30 4322 H 391.189 -0.45037 -0.497401 0
M  V30 4323 H 393.733 -1.77775 -1.01076 0
M  V30 4324 H 391.888 -1.67744 -3.492 0
M  V30 4325 H 392.302 -3.89097 -3.51715 0
M  V30 4326 H 393.776 -2.74669 -4.78812 0
M  V30 4327 H 394.253 -1.14105 -4.24119 0
M  V30 4328 H 394.859 -2.57662 -3.38364 0
M  V30 4329 N 393.175 1.03435 -1.18907 0
M  V30 4330 C 394.123 2.13703 -0.918353 0
M  V30 4331 C 395.117 1.68947 0.123767 0
M  V30 4332 O 396.323 1.79983 -0.0249701 0
M  V30 4333 H 392.698 0.698112 -0.279542 0
M  V30 4334 H 394.669 2.33731 -1.85506 0
M  V30 4335 C 393.418 3.44542 -0.467532 0
M  V30 4336 H 392.741 3.79394 -1.26095 0
M  V30 4337 H 394.181 4.22812 -0.317164 0
M  V30 4338 C 392.64 3.26829 0.817588 0
M  V30 4339 O 393.17 3.54975 1.88031 0
M  V30 4340 N 391.376 2.80139 0.772677 0
M  V30 4341 H 390.923 2.57434 -0.0923883 0
M  V30 4342 H 390.881 2.68668 1.63294 0
M  V30 4343 N 394.653 0.992116 1.22453 0
M  V30 4344 C 395.901 0.666215 1.90804 0
M  V30 4345 C 396.222 -0.804152 1.77647 0
M  V30 4346 O 395.492 -1.57629 1.16318 0
M  V30 4347 H 394.072 0.243423 0.706225 0
M  V30 4348 H 396.734 1.25845 1.48825 0
M  V30 4349 H 395.83 0.928069 2.97982 0
M  V30 4350 N 396.131 -1.37776 0.765217 0
M  V30 4351 C 397.079 -2.32209 0.134798 0
M  V30 4352 C 398.073 -1.54607 -0.692315 0
M  V30 4353 O 399.279 -1.70052 -0.590109 0
M  V30 4354 H 395.654 -0.751591 0.0248005 0
M  V30 4355 H 397.625 -2.8297 0.947119 0
M  V30 4356 C 396.374 -3.39841 -0.735063 0
M  V30 4357 H 395.697 -3.99654 -0.107991 0
M  V30 4358 H 397.137 -4.08296 -1.14326 0
M  V30 4359 C 395.596 -2.79378 -1.88281 0
M  V30 4360 O 396.126 -2.69608 -2.97783 0
M  V30 4361 N 394.332 -2.37016 -1.68142 0
M  V30 4362 H 393.879 -2.45162 -0.790772 0
M  V30 4363 H 393.837 -1.96905 -2.45104 0
M  V30 4364 N 397.609 -0.515225 -1.4894 0
M  V30 4365 C 398.539 0.244628 -2.32215 0
M  V30 4366 C 399.52 0.949136 -1.41157 0
M  V30 4367 O 400.705 0.937783 -1.70057 0
M  V30 4368 C 397.835 1.30096 -3.22013 0
M  V30 4369 C 396.789 0.715486 -4.21977 0
M  V30 4370 C 396.115 1.87339 -5.00808 0
M  V30 4371 C 397.415 -0.302982 -5.2142 0
M  V30 4372 H 399.109 -0.450501 -2.95991 0
M  V30 4373 H 396.655 -0.218098 -1.42339 0
M  V30 4374 H 398.608 1.84037 -3.79089 0
M  V30 4375 H 397.332 2.02547 -2.56207 0
M  V30 4376 H 395.991 0.197715 -3.66066 0
M  V30 4377 H 395.639 2.58592 -4.31438 0
M  V30 4378 H 395.339 1.48764 -5.68457 0
M  V30 4379 H 396.863 2.41686 -5.60732 0
M  V30 4380 H 398.277 0.148802 -5.73107 0
M  V30 4381 H 396.674 -0.60532 -5.97039 0
M  V30 4382 H 397.744 -1.21395 -4.69459 0
M  V30 4383 N 399.087 1.5561 -0.249682 0
M  V30 4384 C 400.336 1.98187 0.37479 0
M  V30 4385 C 400.649 1.14111 1.58865 0
M  V30 4386 O 401.855 1.46714 2.28445 0
M  V30 4387 C 400.311 3.52661 0.718192 0
M  V30 4388 C 399.919 4.45481 -0.474428 0
M  V30 4389 C 401.663 4.03888 1.3067 0
M  V30 4390 C 399.57 5.91303 -0.107026 0
M  V30 4391 H 398.5 0.740159 0.143808 0
M  V30 4392 H 401.151 1.80125 -0.350336 0
M  V30 4393 H 399.533 3.66429 1.50152 0
M  V30 4394 H 400.707 4.43473 -1.25172 0
M  V30 4395 H 399.022 4.04751 -0.978052 0
M  V30 4396 H 401.619 5.10358 1.59496 0
M  V30 4397 H 401.962 3.51401 2.23211 0
M  V30 4398 H 402.495 3.93457 0.586211 0
M  V30 4399 H 399.234 6.47833 -0.999642 0
M  V30 4400 H 398.754 5.9644 0.634013 0
M  V30 4401 H 400.433 6.46258 0.309807 0
M  V30 4402 N 400.565 -0.0233959 1.57583 0
M  V30 4403 C 401.513 -1.04063 2.08023 0
M  V30 4404 C 402.507 -1.37084 0.995204 0
M  V30 4405 O 403.713 -1.35923 1.18004 0
M  V30 4406 H 400.088 -0.353144 0.663922 0
M  V30 4407 H 402.059 -0.589453 2.9252 0
M  V30 4408 C 400.808 -2.33123 2.57971 0
M  V30 4409 H 400.131 -2.08577 3.4108 0
M  V30 4410 H 401.571 -3.02632 2.96967 0
M  V30 4411 C 400.03 -3.02483 1.48342 0
M  V30 4412 O 400.56 -3.92541 0.852898 0
M  V30 4413 N 398.766 -2.63909 1.21658 0
M  V30 4414 H 398.313 -1.90758 1.73116 0
M  V30 4415 H 398.271 -3.10633 0.485218 0
M  V30 4416 N 402.043 -1.548 -0.295768 0
M  V30 4417 C 403.292 -1.73538 -1.02798 0
M  V30 4418 C 403.605 -0.531159 -1.8825 0
M  V30 4419 O 404.811 -0.600458 -2.64777 0
M  V30 4420 C 403.267 -3.07051 -1.87744 0
M  V30 4421 C 402.875 -4.34968 -1.07269 0
M  V30 4422 C 404.619 -3.35146 -2.60533 0
M  V30 4423 C 402.526 -5.5953 -1.91521 0
M  V30 4424 H 401.456 -0.646794 -0.387522 0
M  V30 4425 H 404.107 -1.81278 -0.284718 0
M  V30 4426 H 402.489 -2.93289 -2.66078 0
M  V30 4427 H 403.663 -4.5958 -0.335117 0
M  V30 4428 H 401.978 -4.13847 -0.460384 0
M  V30 4429 H 404.575 -4.2541 -3.23929 0
M  V30 4430 H 404.918 -2.54255 -3.29636 0
M  V30 4431 H 405.451 -3.49902 -1.89244 0
M  V30 4432 H 402.19 -6.43103 -1.26878 0
M  V30 4433 H 401.71 -5.39096 -2.62937 0
M  V30 4434 H 403.389 -5.96982 -2.49442 0
M  V30 4435 N 403.521 0.559213 -1.47345 0
M  V30 4436 C 404.767 1.31843 -1.54095 0
M  V30 4437 C 405.1 1.93149 -0.201726 0
M  V30 4438 O 404.375 1.77759 0.789428 0
M  V30 4439 C 404.658 2.43006 -2.65744 0
M  V30 4440 C 404.511 1.86581 -4.09277 0
M  V30 4441 C 405.83 3.44943 -2.73318 0
M  V30 4442 H 402.949 0.478012 -0.560957 0
M  V30 4443 H 405.591 0.625977 -1.79392 0
M  V30 4444 H 403.741 3.02072 -2.44305 0
M  V30 4445 H 405.413 1.31792 -4.42073 0
M  V30 4446 H 403.656 1.17268 -4.17649 0
M  V30 4447 H 404.327 2.66933 -4.83168 0
M  V30 4448 H 406.803 2.95793 -2.92653 0
M  V30 4449 H 405.679 4.20153 -3.53218 0
M  V30 4450 H 405.94 4.03665 -1.80296 0
M  V30 4451 N 404.999 1.35443 0.805782 0
M  V30 4452 C 406.247 1.28507 1.55982 0
M  V30 4453 C 406.568 -0.140046 1.94496 0
M  V30 4454 O 405.838 -1.07666 1.63661 0
M  V30 4455 H 404.418 0.472676 0.578434 0
M  V30 4456 H 407.08 1.69555 0.961098 0
M  V30 4457 H 406.176 1.90148 2.47488 0
M  V30 4458 N 406.477 -1.02803 1.19454 0
M  V30 4459 C 407.725 -1.75869 0.995722 0
M  V30 4460 C 408.046 -1.89138 -0.474543 0
M  V30 4461 O 407.316 -1.42558 -1.34366 0
M  V30 4462 H 405.896 -0.651511 0.365435 0
M  V30 4463 H 408.558 -1.24004 1.50363 0
M  V30 4464 H 407.654 -2.76661 1.44447 0
M  V30 4465 N 407.956 -0.998596 -1.21925 0
M  V30 4466 C 408.919 -0.558679 -2.22287 0
M  V30 4467 C 409.919 0.361525 -1.56683 0
M  V30 4468 O 411.109 0.152695 -1.73529 0
M  V30 4469 C 408.241 0.18661 -3.40389 0
M  V30 4470 H 409.434 -1.4463 -2.62721 0
M  V30 4471 H 406.987 -0.786413 -1.35075 0
M  V30 4472 H 407.722 1.08996 -3.05435 0
M  V30 4473 H 407.507 -0.474188 -3.89222 0
M  V30 4474 H 408.997 0.482367 -4.14805 0
M  V30 4475 N 409.434 1.37368 -0.772513 0
M  V30 4476 C 410.682 1.99279 -0.336516 0
M  V30 4477 C 411.003 1.6163 1.09091 0
M  V30 4478 O 410.273 0.882109 1.74916 0
M  V30 4479 H 408.853 0.737063 -0.121435 0
M  V30 4480 H 411.515 1.67836 -0.990809 0
M  V30 4481 H 410.611 3.09332 -0.414763 0
M  V30 4482 N 410.912 0.523116 1.48665 0
M  V30 4483 C 412.189 -0.0775449 1.95446 0
M  V30 4484 C 412.569 -1.5197 1.4652 0
M  V30 4485 O 411.917 -2.17876 0.688657 0
M  V30 4486 C 412.127 0.0326135 3.48985 0
M  V30 4487 C 413.475 -0.130141 4.24401 0
M  V30 4488 O 414.499 -0.0415142 3.56176 0
M  V30 4489 O 413.358 -0.31491 5.45592 0
M  V30 4490 H 410.452 -0.0831012 0.822814 0
M  V30 4491 H 412.998 0.587227 1.59216 0
M  V30 4492 H 411.77 1.03748 3.77296 0
M  V30 4493 H 411.393 -0.671317 3.91892 0
M  V30 4494 N 412.39 -1.55475 0.257931 0
M  V30 4495 C 413.636 -1.99502 -0.364266 0
M  V30 4496 C 413.969 -1.146 -1.56782 0
M  V30 4497 O 413.244 -0.211968 -1.93342 0
M  V30 4498 C 413.527 -3.51917 -0.763333 0
M  V30 4499 C 413.38 -4.4758 0.446371 0
M  V30 4500 C 414.699 -4.09742 -1.60623 0
M  V30 4501 H 411.818 -0.725277 -0.130929 0
M  V30 4502 H 414.46 -1.8653 0.361446 0
M  V30 4503 H 412.61 -3.63101 -1.38166 0
M  V30 4504 H 414.282 -4.48362 1.08487 0
M  V30 4505 H 412.525 -4.19947 1.08753 0
M  V30 4506 H 413.196 -5.51862 0.123645 0
M  V30 4507 H 415.672 -4.01727 -1.08418 0
M  V30 4508 H 414.548 -5.16631 -1.85429 0
M  V30 4509 H 414.809 -3.58889 -2.58169 0
M  V30 4510 N 413.868 0.0150385 -1.57593 0
M  V30 4511 C 414.798 1.01047 -2.10503 0
M  V30 4512 C 415.779 1.36816 -1.01071 0
M  V30 4513 O 416.964 1.45455 -1.28672 0
M  V30 4514 C 414.094 2.30708 -2.59598 0
M  V30 4515 C 413.048 2.09142 -3.73421 0
M  V30 4516 C 412.374 3.44685 -4.08774 0
M  V30 4517 C 413.674 1.46619 -5.01298 0
M  V30 4518 H 415.368 0.569978 -2.93925 0
M  V30 4519 H 412.914 0.272724 -1.41394 0
M  V30 4520 H 414.867 3.00687 -2.95238 0
M  V30 4521 H 413.591 2.76843 -1.73279 0
M  V30 4522 H 412.25 1.41592 -3.38153 0
M  V30 4523 H 411.898 3.88495 -3.195 0
M  V30 4524 H 411.598 3.31077 -4.8545 0
M  V30 4525 H 413.122 4.16004 -4.4696 0
M  V30 4526 H 414.536 2.06535 -5.34805 0
M  V30 4527 H 412.933 1.43544 -5.82679 0
M  V30 4528 H 414.003 0.433611 -4.82957 0
M  V30 4529 N 415.346 1.54954 0.287554 0
M  V30 4530 C 416.594 1.74528 1.01904 0
M  V30 4531 C 416.915 0.541349 1.87335 0
M  V30 4532 O 416.185 -0.444108 1.908 0
M  V30 4533 H 414.765 0.643576 0.379235 0
M  V30 4534 H 417.427 1.92333 0.315294 0
M  V30 4535 H 416.523 2.64015 1.6644 0
M  V30 4536 N 416.824 -0.551391 1.4764 0
M  V30 4537 C 417.772 -1.67896 1.60978 0
M  V30 4538 C 418.766 -1.62549 0.476877 0
M  V30 4539 O 419.972 -1.67664 0.654878 0
M  V30 4540 H 416.347 -0.555649 0.506713 0
M  V30 4541 H 418.318 -1.53784 2.55721 0
M  V30 4542 C 417.067 -3.06234 1.64669 0
M  V30 4543 H 416.39 -3.11033 2.51194 0
M  V30 4544 H 417.83 -3.84804 1.7805 0
M  V30 4545 C 416.289 -3.34737 0.381115 0
M  V30 4546 O 416.819 -3.98381 -0.515297 0
M  V30 4547 N 415.025 -2.8944 0.259354 0
M  V30 4548 H 414.572 -2.37827 0.98976 0
M  V30 4549 H 414.53 -3.08882 -0.586464 0
M  V30 4550 N 418.302 -1.35869 -0.798587 0
M  V30 4551 C 419.549 -1.29588 -1.55606 0
M  V30 4552 C 419.877 0.127456 -1.94082 0
M  V30 4553 O 419.132 1.09461 -1.62225 0
M  V30 4554 C 419.431 -2.1556 -2.85077 0
M  V30 4555 C 419.097 -3.6424 -2.65781 0
M  V30 4556 C 417.759 -4.04766 -2.60227 0
M  V30 4557 C 420.111 -4.58547 -2.47758 0
M  V30 4558 C 417.439 -5.37753 -2.34603 0
M  V30 4559 C 419.791 -5.91742 -2.23662 0
M  V30 4560 C 418.455 -6.31402 -2.16534 0
M  V30 4561 H 417.725 -0.474197 -0.569402 0
M  V30 4562 H 420.372 -1.67839 -0.922086 0
M  V30 4563 H 418.677 -1.70216 -3.52893 0
M  V30 4564 H 420.374 -2.08031 -3.42818 0
M  V30 4565 H 416.964 -3.32086 -2.70956 0
M  V30 4566 H 421.148 -4.28117 -2.51056 0
M  V30 4567 H 416.404 -5.67474 -2.2756 0
M  V30 4568 H 420.578 -6.6439 -2.08708 0
M  V30 4569 H 418.205 -7.34381 -1.96441 0
M  V30 4570 N 419.78 1.02168 -1.19998 0
M  V30 4571 C 421.026 1.75945 -1.00852 0
M  V30 4572 C 421.359 1.88702 0.458828 0
M  V30 4573 O 420.634 1.40911 1.34069 0
M  V30 4574 C 420.917 3.18154 -1.68671 0
M  V30 4575 C 420.77 3.13224 -3.22817 0
M  V30 4576 C 422.089 4.16711 -1.41561 0
M  V30 4577 H 419.208 0.638673 -0.367785 0
M  V30 4578 H 421.85 1.19222 -1.4794 0
M  V30 4579 H 420 3.66586 -1.28636 0
M  V30 4580 H 421.672 2.72635 -3.72112 0
M  V30 4581 H 419.915 2.50751 -3.53986 0
M  V30 4582 H 420.586 4.13728 -3.65422 0
M  V30 4583 H 423.062 3.76913 -1.76284 0
M  V30 4584 H 421.938 5.14391 -1.91553 0
M  V30 4585 H 422.199 4.40774 -0.342193 0
M  V30 4586 N 421.258 1.00505 1.21394 0
M  V30 4587 C 422.19 0.52372 2.23136 0
M  V30 4588 C 423.203 -0.387714 1.58116 0
M  V30 4589 O 424.392 -0.187905 1.77508 0
M  V30 4590 C 421.492 -0.258885 3.3791 0
M  V30 4591 C 420.665 0.651634 4.32519 0
M  V30 4592 C 419.724 -0.0813705 5.26137 0
M  V30 4593 O 418.75 0.537295 5.66658 0
M  V30 4594 N 419.952 -1.35992 5.64346 0
M  V30 4595 H 422.717 1.39865 2.65062 0
M  V30 4596 H 420.278 0.881196 1.35818 0
M  V30 4597 H 422.27 -0.758208 3.97534 0
M  V30 4598 H 420.84 -1.035 2.94968 0
M  V30 4599 H 420.06 1.33145 3.71034 0
M  V30 4600 H 421.348 1.27129 4.92662 0
M  V30 4601 H 420.746 -1.88368 5.33417 0
M  V30 4602 H 419.303 -1.8042 6.26332 0
M  V30 4603 N 422.737 -1.36956 0.779787 0
M  V30 4604 C 423.983 -2.00237 0.357324 0
M  V30 4605 C 424.338 -1.60787 -1.05666 0
M  V30 4606 O 423.631 -0.847836 -1.71821 0
M  V30 4607 C 423.825 -3.54585 0.447686 0
M  V30 4608 C 423.654 -4.09025 1.86891 0
M  V30 4609 C 422.424 -4.39612 2.49138 0
M  V30 4610 C 424.622 -4.29461 2.82963 0
M  V30 4611 N 422.604 -4.79816 3.82949 0
M  V30 4612 C 423.975 -4.72363 4.01588 0
M  V30 4613 C 426.03 -4.1161 2.80145 0
M  V30 4614 C 424.733 -4.99284 5.17791 0
M  V30 4615 C 426.759 -4.39672 3.95528 0
M  V30 4616 C 426.121 -4.82822 5.12896 0
M  V30 4617 H 422.22 -0.76148 0.177968 0
M  V30 4618 H 424.804 -1.6613 1.01533 0
M  V30 4619 H 422.975 -3.87982 -0.180184 0
M  V30 4620 H 424.707 -4.047 0.0023955 0
M  V30 4621 H 421.462 -4.28975 2.00693 0
M  V30 4622 H 421.886 -5.04216 4.51769 0
M  V30 4623 H 426.528 -3.77415 1.90572 0
M  V30 4624 H 424.246 -5.32365 6.07958 0
M  V30 4625 H 427.832 -4.27441 3.94697 0
M  V30 4626 H 426.712 -5.04118 6.00695 0
M  V30 4627 N 424.215 -0.530993 -1.48385 0
M  V30 4628 C 425.631 -0.188919 -1.58478 0
M  V30 4629 C 425.831 1.30786 -1.53288 0
M  V30 4630 O 424.887 2.08619 -1.42248 0
M  V30 4631 C 426.2 -0.792343 -2.90073 0
M  V30 4632 C 427.748 -0.76117 -3.03604 0
M  V30 4633 C 428.223 -1.34319 -4.37861 0
M  V30 4634 N 429.714 -1.3052 -4.44431 0
M  V30 4635 C 430.449 -1.72543 -5.46824 0
M  V30 4636 N 429.945 -2.22299 -6.56167 0
M  V30 4637 N 431.738 -1.63773 -5.37712 0
M  V30 4638 H 423.889 -1.50377 -1.50002 0
M  V30 4639 H 426.152 -0.625559 -0.712306 0
M  V30 4640 H 425.858 -1.84323 -2.99529 0
M  V30 4641 H 425.732 -0.270026 -3.76232 0
M  V30 4642 H 428.119 0.280957 -2.93759 0
M  V30 4643 H 428.2 -1.32097 -2.19053 0
M  V30 4644 H 427.844 -2.38425 -4.4846 0
M  V30 4645 H 427.774 -0.759064 -5.21101 0
M  V30 4646 H 430.265 -0.940973 -3.65997 0
M  V30 4647 H 430.578 -2.52356 -7.30436 0
M  V30 4648 H 428.923 -2.26293 -6.57127 0
M  V30 4649 H 432.114 -1.24698 -4.51185 0
M  V30 4650 H 432.287 -1.96844 -6.17379 0
M  V30 4651 N 425.693 1.55336 -0.266172 0
M  V30 4652 C 426.603 2.2583 0.635458 0
M  V30 4653 C 427.619 1.28106 1.17749 0
M  V30 4654 O 428.795 1.61024 1.20968 0
M  V30 4655 C 425.86 2.95879 1.80712 0
M  V30 4656 C 424.921 4.09059 1.30265 0
M  V30 4657 C 424.154 4.75759 2.41846 0
M  V30 4658 O 424.377 4.41622 3.61007 0
M  V30 4659 O 423.311 5.63888 2.1051 0
M  V30 4660 H 427.137 3.03631 0.0646693 0
M  V30 4661 H 424.722 1.49361 -0.0339177 0
M  V30 4662 H 426.604 3.39932 2.49047 0
M  V30 4663 H 425.279 2.21002 2.36516 0
M  V30 4664 H 424.186 3.69482 0.586019 0
M  V30 4665 H 425.519 4.85811 0.790458 0
M  V30 4666 N 427.171 -0.0066808 1.57599 0
M  V30 4667 C 428.118 -1.00024 2.08 0
M  V30 4668 C 429.088 -1.34549 0.973943 0
M  V30 4669 O 430.273 -1.44502 1.24595 0
M  V30 4670 C 427.413 -2.2891 2.58252 0
M  V30 4671 C 426.526 -2.00346 3.82734 0
M  V30 4672 C 425.661 -3.23265 4.21513 0
M  V30 4673 C 424.7 -2.90357 5.3885 0
M  V30 4674 N 423.837 -4.05793 5.72954 0
M  V30 4675 H 428.677 -0.563499 2.92624 0
M  V30 4676 H 426.214 -0.266592 1.44664 0
M  V30 4677 H 428.172 -3.04247 2.85464 0
M  V30 4678 H 426.802 -2.70265 1.76512 0
M  V30 4679 H 425.854 -1.15406 3.62471 0
M  V30 4680 H 427.166 -1.72086 4.68175 0
M  V30 4681 H 426.32 -4.06953 4.49971 0
M  V30 4682 H 425.059 -3.54657 3.34768 0
M  V30 4683 H 424.064 -2.05075 5.10122 0
M  V30 4684 H 425.289 -2.60219 6.27266 0
M  V30 4685 H 423.235 -4.37094 4.89167 0
M  V30 4686 H 423.152 -3.81034 6.52954 0
M  V30 4687 H 424.42 -4.90289 6.06001 0
M  V30 4688 N 428.649 -1.55105 -0.279332 0
M  V30 4689 C 429.896 -1.75412 -1.01177 0
M  V30 4690 C 430.224 -0.551728 -1.86511 0
M  V30 4691 O 429.479 0.465919 -1.90073 0
M  V30 4692 C 429.778 -3.0086 -1.92919 0
M  V30 4693 C 429.444 -4.33689 -1.23387 0
M  V30 4694 C 428.106 -4.69792 -1.04159 0
M  V30 4695 C 430.458 -5.15941 -0.738562 0
M  V30 4696 C 427.786 -5.85707 -0.341166 0
M  V30 4697 C 430.138 -6.32579 -0.0517636 0
M  V30 4698 C 428.802 -6.67326 0.152292 0
M  V30 4699 H 428.072 -0.641879 -0.370233 0
M  V30 4700 H 430.719 -1.89373 -0.284627 0
M  V30 4701 H 429.024 -2.81773 -2.72234 0
M  V30 4702 H 430.721 -3.13768 -2.49701 0
M  V30 4703 H 427.311 -4.05309 -1.39364 0
M  V30 4704 H 431.495 -4.8853 -0.874764 0
M  V30 4705 H 426.751 -6.11157 -0.172287 0
M  V30 4706 H 430.925 -6.9557 0.339828 0
M  V30 4707 H 428.552 -7.56998 0.697014 0
M  V30 4708 N 430.127 0.543554 -1.4793 0
M  V30 4709 C 431.057 1.65888 -1.64327 0
M  V30 4710 C 432.038 1.62818 -0.492383 0
M  V30 4711 O 433.223 1.80226 -0.723338 0
M  V30 4712 C 430.353 3.04506 -1.67013 0
M  V30 4713 C 429.307 3.2243 -2.81466 0
M  V30 4714 C 428.633 4.61972 -2.69233 0
M  V30 4715 C 429.933 3.06496 -4.22915 0
M  V30 4716 H 431.627 1.52421 -2.57698 0
M  V30 4717 H 429.173 0.731849 -1.24016 0
M  V30 4718 H 431.126 3.82391 -1.77074 0
M  V30 4719 H 429.85 3.18964 -0.70212 0
M  V30 4720 H 428.509 2.46957 -2.70938 0
M  V30 4721 H 428.157 4.73247 -1.7043 0
M  V30 4722 H 427.857 4.74911 -3.46025 0
M  V30 4723 H 429.381 5.41974 -2.81242 0
M  V30 4724 H 430.795 3.74186 -4.34348 0
M  V30 4725 H 429.192 3.30938 -5.006 0
M  V30 4726 H 430.262 2.03077 -4.40327 0
M  V30 4727 N 431.605 1.3629 0.791371 0
M  V30 4728 C 432.854 1.29742 1.54434 0
M  V30 4729 C 433.167 -0.121729 1.95221 0
M  V30 4730 O 434.373 -0.309579 2.69729 0
M  V30 4731 C 432.829 2.27623 2.78776 0
M  V30 4732 C 432.437 3.74963 2.45166 0
M  V30 4733 C 434.181 2.30047 3.56761 0
M  V30 4734 C 432.088 4.64626 3.65891 0
M  V30 4735 H 431.018 0.482113 0.579727 0
M  V30 4736 H 433.669 1.61642 0.868565 0
M  V30 4737 H 432.051 1.88714 3.48142 0
M  V30 4738 H 433.225 4.22596 1.83709 0
M  V30 4739 H 431.54 3.75295 1.80396 0
M  V30 4740 H 434.137 2.94247 4.46456 0
M  V30 4741 H 434.48 1.30846 3.95203 0
M  V30 4742 H 435.013 2.67563 2.94372 0
M  V30 4743 H 431.752 5.64883 3.32547 0
M  V30 4744 H 431.272 4.2171 4.26521 0
M  V30 4745 H 432.951 4.80801 4.32943 0
M  V30 4746 N 433.083 -1.0153 1.20538 0
M  V30 4747 C 434.311 -1.78746 1.04199 0
M  V30 4748 C 434.726 -1.84323 -0.408733 0
M  V30 4749 O 434.083 -1.29714 -1.28377 0
M  V30 4750 C 434.134 -3.23152 1.62035 0
M  V30 4751 O 433.855 -3.17918 3.0143 0
M  V30 4752 C 435.356 -4.16911 1.50666 0
M  V30 4753 H 432.576 -0.56208 0.366479 0
M  V30 4754 H 435.12 -1.27794 1.59653 0
M  V30 4755 H 433.275 -3.71248 1.10697 0
M  V30 4756 H 433.689 -4.08567 3.28897 0
M  V30 4757 H 435.163 -5.16072 1.95892 0
M  V30 4758 H 435.64 -4.36791 0.459363 0
M  V30 4759 H 436.246 -3.74698 2.01201 0
M  V30 4760 N 434.561 -1.01147 -1.20859 0
M  V30 4761 C 435.977 -0.725422 -1.42161 0
M  V30 4762 C 436.177 0.696919 -1.89064 0
M  V30 4763 O 435.233 1.46539 -2.05627 0
M  V30 4764 C 436.546 -1.74678 -2.44761 0
M  V30 4765 C 438.094 -1.76433 -2.58535 0
M  V30 4766 C 438.569 -2.77481 -3.64374 0
M  V30 4767 N 440.06 -2.76189 -3.71852 0
M  V30 4768 C 440.795 -3.51035 -4.53389 0
M  V30 4769 N 440.291 -4.35541 -5.38773 0
M  V30 4770 N 442.084 -3.39655 -4.47873 0
M  V30 4771 H 434.235 -1.92979 -0.887282 0
M  V30 4772 H 436.498 -0.833327 -0.451962 0
M  V30 4773 H 436.204 -2.76551 -2.17285 0
M  V30 4774 H 436.078 -1.55472 -3.43669 0
M  V30 4775 H 438.465 -0.75248 -2.85345 0
M  V30 4776 H 438.546 -1.99712 -1.5984 0
M  V30 4777 H 438.19 -3.78827 -3.38308 0
M  V30 4778 H 438.12 -2.51466 -4.6268 0
M  V30 4779 H 440.611 -2.14885 -3.10858 0
M  V30 4780 H 440.924 -4.89432 -5.98061 0
M  V30 4781 H 439.269 -4.39621 -5.38292 0
M  V30 4782 H 442.46 -2.73063 -3.80203 0
M  V30 4783 H 442.633 -3.9824 -5.11184 0
M  V30 4784 N 436.039 1.36541 -0.78704 0
M  V30 4785 C 437.455 1.52571 -0.46844 0
M  V30 4786 C 437.655 1.7415 1.01361 0
M  V30 4787 O 436.711 1.77163 1.79915 0
M  V30 4788 C 438.024 2.71299 -1.29682 0
M  V30 4789 C 439.572 2.85169 -1.29027 0
M  V30 4790 C 440.047 4.06898 -2.10233 0
M  V30 4791 N 441.538 4.1404 -2.07666 0
M  V30 4792 C 442.273 5.07301 -2.67271 0
M  V30 4793 N 441.769 6.06021 -3.35724 0
M  V30 4794 N 443.562 4.99898 -2.57018 0
M  V30 4795 H 435.713 1.20788 -1.74711 0
M  V30 4796 H 437.976 0.589364 -0.742532 0
M  V30 4797 H 437.682 2.61868 -2.34773 0
M  V30 4798 H 437.556 3.6539 -0.936479 0
M  V30 4799 H 439.943 2.94062 -0.247284 0
M  V30 4800 H 440.024 1.91992 -1.69035 0
M  V30 4801 H 439.668 3.98766 -3.1456 0
M  V30 4802 H 439.598 4.99218 -1.67597 0
M  V30 4803 H 442.089 3.43357 -1.57843 0
M  V30 4804 H 442.402 6.73741 -3.78541 0
M  V30 4805 H 440.747 6.06253 -3.39826 0
M  V30 4806 H 443.938 4.21724 -2.03142 0
M  V30 4807 H 444.111 5.72392 -3.03761 0
M  V30 4808 N 437.518 0.538854 1.48102 0
M  V30 4809 C 438.934 0.19732 1.58376 0
M  V30 4810 C 439.134 -1.29971 1.5398 0
M  V30 4811 O 438.19 -2.07861 1.43352 0
M  V30 4812 C 439.503 0.807716 2.89649 0
M  V30 4813 C 441.051 0.77726 3.03196 0
M  V30 4814 C 441.526 1.36639 4.37143 0
M  V30 4815 N 443.017 1.32875 4.43732 0
M  V30 4816 C 443.752 1.7544 5.45901 0
M  V30 4817 N 443.248 2.25776 6.54979 0
M  V30 4818 N 445.041 1.66623 5.36836 0
M  V30 4819 H 437.192 1.5117 1.49202 0
M  V30 4820 H 439.455 0.629327 0.708979 0
M  V30 4821 H 439.161 1.85909 2.98548 0
M  V30 4822 H 439.035 0.289975 3.76084 0
M  V30 4823 H 441.422 -0.265374 2.93904 0
M  V30 4824 H 441.503 1.33256 2.18349 0
M  V30 4825 H 441.147 2.408 4.47189 0
M  V30 4826 H 441.077 0.786689 5.20691 0
M  V30 4827 H 443.568 0.96037 3.65493 0
M  V30 4828 H 443.881 2.56226 7.29087 0
M  V30 4829 H 442.226 2.29775 6.55918 0
M  V30 4830 H 445.417 1.27089 4.50517 0
M  V30 4831 H 445.59 2.00115 6.16326 0
M  V30 4832 N 438.996 -1.55193 0.274407 0
M  V30 4833 C 439.946 -2.19184 -0.627882 0
M  V30 4834 C 440.93 -1.15625 -1.11892 0
M  V30 4835 O 442.122 -1.41441 -1.06411 0
M  V30 4836 C 439.251 -2.91591 -1.81189 0
M  V30 4837 C 438.337 -4.02438 -1.33807 0
M  V30 4838 N 438.728 -5.0246 -0.580349 0
M  V30 4839 C 437.026 -4.15496 -1.62109 0
M  V30 4840 C 437.727 -5.80756 -0.331344 0
M  V30 4841 N 436.703 -5.36038 -0.903556 0
M  V30 4842 H 440.505 -2.93871 -0.0411216 0
M  V30 4843 H 438.019 -1.62213 0.0779348 0
M  V30 4844 H 440.016 -3.35883 -2.46957 0
M  V30 4845 H 438.676 -2.18414 -2.40261 0
M  V30 4846 H 439.687 -5.17399 -0.227762 0
M  V30 4847 H 436.364 -3.53509 -2.22121 0
M  V30 4848 H 437.754 -6.71335 0.275454 0
M  V30 4849 N 440.474 -0.00167713 -1.576 0
M  V30 4850 C 441.751 0.719951 -1.81868 0
M  V30 4851 C 442.131 1.91895 -0.879747 0
M  V30 4852 O 441.479 2.28389 0.0711423 0
M  V30 4853 C 441.689 1.12409 -3.30402 0
M  V30 4854 C 443.037 1.52724 -3.96182 0
M  V30 4855 O 444.061 1.21784 -3.34734 0
M  V30 4856 O 442.92 2.10265 -5.04431 0
M  V30 4857 H 440.014 0.350707 -0.748955 0
M  V30 4858 H 442.56 -0.0272597 -1.69678 0
M  V30 4859 H 441.332 0.269532 -3.90371 0
M  V30 4860 H 440.955 1.93035 -3.47596 0
M  V30 4861 N 441.952 1.55251 0.271103 0
M  V30 4862 C 443.177 1.80306 1.02491 0
M  V30 4863 C 443.602 0.575457 1.79081 0
M  V30 4864 O 442.96 -0.474987 1.74967 0
M  V30 4865 C 443.008 3.02832 1.95768 0
M  V30 4866 O 442.112 2.78051 3.04568 0
M  V30 4867 H 441.453 0.595896 0.292923 0
M  V30 4868 H 443.983 2.02397 0.299436 0
M  V30 4869 H 443.993 3.31616 2.37686 0
M  V30 4870 H 442.668 3.9183 1.39434 0
M  V30 4871 H 441.245 2.60369 2.66951 0
M  V30 4872 N 443.43 -0.535701 1.48216 0
M  V30 4873 C 444.393 -1.623 1.61838 0
M  V30 4874 C 445.393 -1.53087 0.492024 0
M  V30 4875 O 446.583 -1.5686 0.757668 0
M  V30 4876 C 443.715 -3.01907 1.58319 0
M  V30 4877 H 444.908 -1.51564 2.58783 0
M  V30 4878 H 442.461 -0.757317 1.36727 0
M  V30 4879 H 443.196 -3.18155 0.628299 0
M  V30 4880 H 442.981 -3.10003 2.40085 0
M  V30 4881 H 444.471 -3.80969 1.71033 0
M  V30 4882 N 444.908 -1.36708 -0.784132 0
M  V30 4883 C 445.84 -1.27333 -1.90575 0
M  V30 4884 C 446.853 -0.191706 -1.61667 0
M  V30 4885 O 448.042 -0.446854 -1.72816 0
M  V30 4886 C 445.142 -0.943177 -3.25511 0
M  V30 4887 C 444.315 -2.12776 -3.82158 0
M  V30 4888 C 443.374 -1.76983 -4.95544 0
M  V30 4889 O 442.4 -2.49134 -5.11782 0
M  V30 4890 N 443.602 -0.706624 -5.76183 0
M  V30 4891 H 446.367 -2.23974 -1.99138 0
M  V30 4892 H 443.928 -1.30171 -0.962656 0
M  V30 4893 H 445.92 -0.684799 -3.98864 0
M  V30 4894 H 444.49 -0.0657333 -3.12531 0
M  V30 4895 H 443.71 -2.54863 -3.0073 0
M  V30 4896 H 444.998 -2.91904 -4.16737 0
M  V30 4897 H 444.396 -0.107643 -5.65598 0
M  V30 4898 H 442.953 -0.50808 -6.49817 0
M  V30 4899 N 446.386 1.0089 -1.21074 0
M  V30 4900 C 447.316 2.1145 -0.990523 0
M  V30 4901 C 448.297 1.69897 0.0831699 0
M  V30 4902 O 449.482 1.94052 -0.0758853 0
M  V30 4903 C 446.612 3.42914 -0.550177 0
M  V30 4904 C 445.566 3.98244 -1.56799 0
M  V30 4905 C 444.892 5.25568 -0.984013 0
M  V30 4906 C 446.192 4.30752 -2.95381 0
M  V30 4907 H 447.886 2.3013 -1.91521 0
M  V30 4908 H 445.432 1.10592 -0.92225 0
M  V30 4909 H 447.385 4.19653 -0.383305 0
M  V30 4910 H 446.109 3.24014 0.41015 0
M  V30 4911 H 444.768 3.23621 -1.72236 0
M  V30 4912 H 444.416 5.02998 -0.0155216 0
M  V30 4913 H 444.116 5.63551 -1.66384 0
M  V30 4914 H 445.64 6.04955 -0.828378 0
M  V30 4915 H 447.054 4.98349 -2.8341 0
M  V30 4916 H 445.451 4.79869 -3.60341 0
M  V30 4917 H 446.521 3.39192 -3.46521 0
M  V30 4918 N 447.864 1.01787 1.20321 0
M  V30 4919 C 449.11 0.708985 1.90003 0
M  V30 4920 C 449.443 -0.759572 1.78729 0
M  V30 4921 O 448.718 -1.55198 1.17234 0
M  V30 4922 C 449.001 1.1469 3.41348 0
M  V30 4923 C 448.854 2.67586 3.61549 0
M  V30 4924 C 450.173 0.71915 4.34185 0
M  V30 4925 H 447.292 0.259034 0.689978 0
M  V30 4926 H 449.934 1.26584 1.41692 0
M  V30 4927 H 448.084 0.673128 3.82624 0
M  V30 4928 H 449.756 3.22826 3.29517 0
M  V30 4929 H 447.999 3.085 3.04976 0
M  V30 4930 H 448.67 2.93281 4.67643 0
M  V30 4931 H 451.146 1.12647 4.00562 0
M  V30 4932 H 450.022 1.05358 5.38694 0
M  V30 4933 H 450.283 -0.379111 4.40472 0
M  V30 4934 N 449.342 -1.36122 0.79427 0
M  V30 4935 C 450.272 -2.32551 0.210328 0
M  V30 4936 C 451.253 -1.56884 -0.657386 0
M  V30 4937 O 452.438 -1.85014 -0.590207 0
M  V30 4938 C 449.568 -3.41128 -0.651819 0
M  V30 4939 C 448.522 -4.27842 0.116395 0
M  V30 4940 C 447.848 -5.2763 -0.86666 0
M  V30 4941 C 449.148 -5.05647 1.30837 0
M  V30 4942 H 450.842 -2.81636 1.01594 0
M  V30 4943 H 448.388 -1.35407 0.489981 0
M  V30 4944 H 450.341 -4.07581 -1.07031 0
M  V30 4945 H 449.065 -2.90622 -1.49019 0
M  V30 4946 H 447.724 -3.62952 0.515915 0
M  V30 4947 H 447.372 -4.73395 -1.70019 0
M  V30 4948 H 447.072 -5.86514 -0.35705 0
M  V30 4949 H 448.596 -5.96955 -1.28361 0
M  V30 4950 H 450.01 -5.65113 0.965393 0
M  V30 4951 H 448.407 -5.73967 1.75161 0
M  V30 4952 H 449.477 -4.37006 2.10128 0
M  V30 4953 N 450.82 -0.546701 -1.47814 0
M  V30 4954 C 451.767 0.206854 -2.29871 0
M  V30 4955 C 452.737 0.918235 -1.38411 0
M  V30 4956 O 453.922 0.915991 -1.67375 0
M  V30 4957 C 451.062 1.23746 -3.22151 0
M  V30 4958 C 450.175 0.533216 -4.28697 0
M  V30 4959 C 449.31 1.5482 -5.08138 0
M  V30 4960 C 448.349 0.828347 -6.06469 0
M  V30 4961 N 447.486 1.78966 -6.78908 0
M  V30 4962 H 452.326 -0.499037 -2.93792 0
M  V30 4963 H 449.863 -0.25793 -1.44821 0
M  V30 4964 H 451.821 1.84746 -3.74065 0
M  V30 4965 H 450.451 1.91151 -2.60117 0
M  V30 4966 H 449.503 -0.191089 -3.7992 0
M  V30 4967 H 450.815 -0.0311987 -4.9879 0
M  V30 4968 H 449.969 2.23202 -5.6415 0
M  V30 4969 H 448.708 2.14652 -4.37922 0
M  V30 4970 H 447.713 0.130539 -5.49645 0
M  V30 4971 H 448.938 0.235907 -6.7869 0
M  V30 4972 H 446.884 2.37675 -6.1143 0
M  V30 4973 H 446.801 1.27712 -7.45135 0
M  V30 4974 H 448.069 2.46496 -7.395 0
M  V30 4975 N 452.299 1.55045 -0.282633 0
M  V30 4976 C 453.246 2.22822 0.601566 0
M  V30 4977 C 454.216 1.20431 1.14392 0
M  V30 4978 O 455.401 1.48996 1.19184 0
M  V30 4979 C 452.541 2.95873 1.77632 0
M  V30 4980 C 451.654 4.12999 1.26711 0
M  V30 4981 C 450.789 4.73676 2.40426 0
M  V30 4982 C 449.828 5.82981 1.86545 0
M  V30 4983 N 448.965 6.3769 2.93762 0
M  V30 4984 H 453.805 2.97995 0.0169528 0
M  V30 4985 H 451.342 1.471 -0.00339964 0
M  V30 4986 H 453.3 3.36447 2.46697 0
M  V30 4987 H 451.93 2.2311 2.33285 0
M  V30 4988 H 450.982 3.77494 0.469314 0
M  V30 4989 H 452.294 4.91803 0.832518 0
M  V30 4990 H 451.448 5.17008 3.17471 0
M  V30 4991 H 450.187 3.94164 2.87203 0
M  V30 4992 H 449.192 5.39092 1.07983 0
M  V30 4993 H 450.417 6.64366 1.40694 0
M  V30 4994 H 448.363 5.61069 3.39908 0
M  V30 4995 H 448.28 7.11788 2.54744 0
M  V30 4996 H 449.548 6.8568 3.7076 0
M  V30 4997 N 453.777 0.010035 1.57597 0
M  V30 4998 C 455.025 -0.671371 1.90623 0
M  V30 4999 C 455.346 -1.73753 0.885151 0
M  V30 5000 O 454.616 -1.95752 -0.0760611 0
M  V30 5001 H 453.196 -0.250968 0.703579 0
M  V30 5002 H 455.858 0.0533325 1.94827 0
M  V30 5003 H 454.954 -1.13626 2.90681 0
M  V30 5004 N 455.255 -1.55392 -0.262866 0
M  V30 5005 C 456.502 -1.76476 -0.993109 0
M  V30 5006 C 456.83 -0.571479 -1.85915 0
M  V30 5007 O 456.085 0.445733 -1.90556 0
M  V30 5008 C 456.384 -3.02889 -1.89718 0
M  V30 5009 C 456.05 -4.34974 -1.18781 0
M  V30 5010 C 454.712 -4.7087 -0.991699 0
M  V30 5011 C 457.064 -5.16695 -0.683798 0
M  V30 5012 C 454.392 -5.86036 -0.279024 0
M  V30 5013 C 456.744 -6.32598 0.0153327 0
M  V30 5014 C 455.408 -6.67127 0.223062 0
M  V30 5015 H 454.678 -0.64577 -0.363404 0
M  V30 5016 H 457.325 -1.89664 -0.264525 0
M  V30 5017 H 455.63 -2.84644 -2.6923 0
M  V30 5018 H 457.327 -3.16399 -2.46359 0
M  V30 5019 H 453.917 -4.06765 -1.35058 0
M  V30 5020 H 458.101 -4.8943 -0.8229 0
M  V30 5021 H 453.357 -6.11306 -0.107456 0
M  V30 5022 H 457.531 -6.95171 0.413584 0
M  V30 5023 H 455.158 -7.56216 0.777265 0
M  V30 5024 N 456.733 0.527833 -1.48498 0
M  V30 5025 C 457.981 1.28101 -1.56316 0
M  V30 5026 C 458.302 1.9352 -0.239781 0
M  V30 5027 O 457.572 1.81433 0.738849 0
M  V30 5028 H 456.152 0.475793 -0.575873 0
M  V30 5029 H 458.814 0.614052 -1.84974 0
M  V30 5030 H 457.91 2.05916 -2.34532 0
M  V30 5031 N 458.211 1.37122 0.776871 0
M  V30 5032 C 459.459 1.31787 1.53221 0
M  V30 5033 C 459.78 -0.0987589 1.9475 0
M  V30 5034 O 459.05 -1.0417 1.65908 0
M  V30 5035 H 457.63 0.484839 0.568278 0
M  V30 5036 H 460.292 1.71556 0.924917 0
M  V30 5037 H 459.388 1.95355 2.43398 0
M  V30 5038 N 459.689 -1.00246 1.21608 0
M  V30 5039 C 460.917 -1.77631 1.06089 0
M  V30 5040 C 461.332 -1.84746 -0.38916 0
M  V30 5041 O 460.689 -1.31068 -1.26994 0
M  V30 5042 C 460.74 -3.21415 1.65453 0
M  V30 5043 O 460.461 -3.14703 3.04785 0
M  V30 5044 C 461.962 -4.15289 1.55079 0
M  V30 5045 H 459.182 -0.558162 0.37242 0
M  V30 5046 H 461.726 -1.26093 1.60999 0
M  V30 5047 H 459.881 -3.70053 1.14629 0
M  V30 5048 H 460.295 -4.05056 3.33212 0
M  V30 5049 H 461.769 -5.13965 2.01355 0
M  V30 5050 H 462.246 -4.36279 0.505665 0
M  V30 5051 H 462.852 -3.72543 2.05163 0
M  V30 5052 N 461.167 -1.02423 -1.1978 0
M  V30 5053 C 462.13 -0.605703 -2.21052 0
M  V30 5054 C 463.13 0.328209 -1.57415 0
M  V30 5055 O 464.32 0.115853 -1.73814 0
M  V30 5056 C 461.452 0.114366 -3.40708 0
M  V30 5057 H 462.645 -1.5017 -2.59594 0
M  V30 5058 H 460.198 -0.814888 -1.33376 0
M  V30 5059 H 460.933 1.02492 -3.07678 0
M  V30 5060 H 460.718 -0.556641 -3.88129 0
M  V30 5061 H 462.208 0.394272 -4.15735 0
M  V30 5062 N 462.645 1.35699 -0.801477 0
M  V30 5063 C 463.893 1.9852 -0.37871 0
M  V30 5064 C 464.214 1.63907 1.05638 0
M  V30 5065 O 463.484 0.919013 1.73006 0
M  V30 5066 H 462.064 0.734322 -0.137042 0
M  V30 5067 H 464.726 1.65697 -1.02619 0
M  V30 5068 H 463.822 3.08382 -0.480284 0
M  V30 5069 N 464.123 0.554532 1.47522 0
M  V30 5070 C 465.056 -0.242442 2.26908 0
M  V30 5071 C 466.034 -0.922722 1.33883 0
M  V30 5072 O 467.218 -0.942244 1.63261 0
M  V30 5073 C 464.345 -1.34525 3.10839 0
M  V30 5074 C 463.391 -0.773805 4.19422 0
M  V30 5075 S 464.224 0.377525 5.34168 0
M  V30 5076 C 465.38 -0.727164 6.21662 0
M  V30 5077 H 465.613 0.431218 2.94156 0
M  V30 5078 H 463.146 0.3408 1.50592 0
M  V30 5079 H 465.104 -1.97683 3.59766 0
M  V30 5080 H 463.765 -1.99073 2.42958 0
M  V30 5081 H 462.958 -1.60187 4.77866 0
M  V30 5082 H 462.56 -0.218448 3.73361 0
M  V30 5083 H 464.852 -1.61992 6.57849 0
M  V30 5084 H 465.795 -0.180135 7.07871 0
M  V30 5085 H 466.203 -1.01863 5.55233 0
M  V30 5086 N 465.601 -1.54893 0.290851 0
M  V30 5087 C 466.564 -2.21824 -0.576784 0
M  V30 5088 C 467.564 -1.20104 -1.06919 0
M  V30 5089 O 468.754 -1.44906 -0.966843 0
M  V30 5090 C 465.886 -2.89662 -1.79747 0
M  V30 5091 H 467.079 -2.99899 0.00784051 0
M  V30 5092 H 464.632 -1.56245 0.0415934 0
M  V30 5093 H 465.367 -2.15639 -2.42219 0
M  V30 5094 H 465.152 -3.64219 -1.45214 0
M  V30 5095 H 466.642 -3.4075 -2.4141 0
M  V30 5096 N 467.08 -0.0183926 -1.57589 0
M  V30 5097 C 468.327 0.662562 -1.91354 0
M  V30 5098 C 468.655 1.72747 -0.893788 0
M  V30 5099 O 467.91 1.9545 0.0988509 0
M  V30 5100 C 468.209 1.32676 -3.31861 0
M  V30 5101 C 467.875 0.393267 -4.49182 0
M  V30 5102 C 466.537 0.136302 -4.81007 0
M  V30 5103 C 468.889 -0.248366 -5.20608 0
M  V30 5104 C 466.217 -0.770282 -5.81621 0
M  V30 5105 C 468.569 -1.14294 -6.22189 0
M  V30 5106 C 467.233 -1.4089 -6.52462 0
M  V30 5107 H 466.503 0.242448 -0.700214 0
M  V30 5108 H 469.15 -0.0778629 -1.91342 0
M  V30 5109 H 467.455 2.14168 -3.28084 0
M  V30 5110 H 469.152 1.86001 -3.55253 0
M  V30 5111 H 465.742 0.603723 -4.24327 0
M  V30 5112 H 469.926 -0.062883 -4.9626 0
M  V30 5113 H 465.182 -0.984154 -6.03427 0
M  V30 5114 H 469.356 -1.64637 -6.76659 0
M  V30 5115 H 466.983 -2.11306 -7.30242 0
M  V30 5116 N 468.558 1.5553 0.254621 0
M  V30 5117 C 469.804 1.77262 0.985193 0
M  V30 5118 C 470.137 0.582286 1.85265 0
M  V30 5119 O 469.412 -0.419666 1.89919 0
M  V30 5120 C 469.695 3.0881 1.85225 0
M  V30 5121 C 469.548 4.38233 1.0135 0
M  V30 5122 C 470.867 3.3653 2.83612 0
M  V30 5123 H 467.986 0.644906 0.356742 0
M  V30 5124 H 470.628 1.88264 0.256236 0
M  V30 5125 H 468.778 2.99562 2.47376 0
M  V30 5126 H 470.45 4.59463 0.411269 0
M  V30 5127 H 468.693 4.32636 0.317574 0
M  V30 5128 H 469.364 5.26644 1.65379 0
M  V30 5129 H 471.84 3.45691 2.31596 0
M  V30 5130 H 470.716 4.29805 3.41407 0
M  V30 5131 H 470.977 2.57064 3.59681 0
M  V30 5132 N 470.036 -0.519951 1.48776 0
M  V30 5133 C 471.284 -1.2727 1.56993 0
M  V30 5134 C 471.605 -1.9339 0.25004 0
M  V30 5135 O 470.875 -1.81822 -0.729216 0
M  V30 5136 H 469.455 -0.472732 0.578389 0
M  V30 5137 H 472.117 -0.604234 1.85297 0
M  V30 5138 H 471.213 -2.04669 2.3562 0
M  V30 5139 N 471.514 -1.37532 -0.769588 0
M  V30 5140 C 472.742 -1.36059 -1.55871 0
M  V30 5141 C 473.157 0.053544 -1.88724 0
M  V30 5142 O 472.514 1.01591 -1.5161 0
M  V30 5143 C 472.565 -2.20107 -2.86767 0
M  V30 5144 O 472.286 -3.56009 -2.55321 0
M  V30 5145 C 473.787 -2.26636 -3.80987 0
M  V30 5146 H 471.007 -0.465967 -0.482821 0
M  V30 5147 H 473.551 -1.80901 -0.953686 0
M  V30 5148 H 471.706 -1.78768 -3.43687 0
M  V30 5149 H 472.12 -4.0009 -3.39158 0
M  V30 5150 H 473.594 -2.89763 -4.69831 0
M  V30 5151 H 474.071 -1.2754 -4.20274 0
M  V30 5152 H 474.677 -2.68296 -3.29996 0
M  V30 5153 N 472.992 0.995999 -1.22138 0
M  V30 5154 C 474.238 1.73767 -1.04561 0
M  V30 5155 C 474.571 1.89633 0.418698 0
M  V30 5156 O 473.846 1.43723 1.3105 0
M  V30 5157 C 474.129 3.14505 -1.75382 0
M  V30 5158 C 473.982 3.06306 -3.29388 0
M  V30 5159 C 475.301 4.13615 -1.50369 0
M  V30 5160 H 472.42 0.630728 -0.38125 0
M  V30 5161 H 475.062 1.16057 -1.50435 0
M  V30 5162 H 473.212 3.63775 -1.36383 0
M  V30 5163 H 474.884 2.64681 -3.77812 0
M  V30 5164 H 473.127 2.43186 -3.59226 0
M  V30 5165 H 473.798 4.05884 -3.74116 0
M  V30 5166 H 476.274 3.73089 -1.84239 0
M  V30 5167 H 475.15 5.10212 -2.02421 0
M  V30 5168 H 475.411 4.39949 -0.435611 0
M  V30 5169 N 474.47 1.03057 1.19235 0
M  V30 5170 C 475.71 0.736757 1.9066 0
M  V30 5171 C 476.074 -0.721521 1.77927 0
M  V30 5172 O 477.275 -1.12849 2.43964 0
M  V30 5173 C 475.546 1.17755 3.37444 0
M  V30 5174 S 477.105 1.00783 4.27069 0
M  V30 5175 H 473.923 0.268174 0.658486 0
M  V30 5176 H 476.525 1.32076 1.4414 0
M  V30 5177 H 475.229 2.23448 3.44237 0
M  V30 5178 H 474.76 0.586912 3.88997 0
M  V30 5179 H 476.775 -0.0806356 4.96134 0
M  V30 5180 N 475.948 -1.35272 0.808662 0
M  V30 5181 C 477.173 -2.03477 0.401475 0
M  V30 5182 C 477.598 -1.60537 -0.980279 0
M  V30 5183 O 476.956 -0.78304 -1.63518 0
M  V30 5184 C 477.004 -3.57181 0.495354 0
M  V30 5185 O 476.108 -4.09474 -0.490397 0
M  V30 5186 H 475.449 -0.642561 0.167366 0
M  V30 5187 H 477.979 -1.72824 1.09512 0
M  V30 5188 H 477.989 -4.06356 0.365912 0
M  V30 5189 H 476.664 -3.87784 1.5032 0
M  V30 5190 H 475.241 -3.71516 -0.321023 0
M  V30 5191 N 477.426 -0.562348 -1.47226 0
M  V30 5192 C 478.842 -0.222492 -1.58042 0
M  V30 5193 C 479.042 1.27505 -1.56028 0
M  V30 5194 O 478.098 2.05555 -1.46641 0
M  V30 5195 C 479.411 -0.853694 -2.88327 0
M  V30 5196 C 480.959 -0.825397 -3.01921 0
M  V30 5197 C 481.434 -1.43576 -4.34914 0
M  V30 5198 N 482.925 -1.39918 -4.41562 0
M  V30 5199 C 483.66 -1.84103 -5.43041 0
M  V30 5200 N 483.156 -2.36167 -6.51304 0
M  V30 5201 N 484.949 -1.75142 -5.34118 0
M  V30 5202 H 477.1 -1.53525 -1.46778 0
M  V30 5203 H 479.363 -0.640527 -0.698877 0
M  V30 5204 H 479.069 -1.90635 -2.95552 0
M  V30 5205 H 478.943 -0.34977 -3.75575 0
M  V30 5206 H 481.33 0.218583 -2.94289 0
M  V30 5207 H 481.411 -1.36713 -2.16202 0
M  V30 5208 H 481.055 -2.47884 -4.43301 0
M  V30 5209 H 480.985 -0.869427 -5.19373 0
M  V30 5210 H 483.476 -1.0184 -3.63919 0
M  V30 5211 H 483.789 -2.67793 -7.24919 0
M  V30 5212 H 482.134 -2.40181 -6.52179 0
M  V30 5213 H 485.325 -1.34241 -4.48439 0
M  V30 5214 H 485.498 -2.09895 -6.13065 0
M  V30 5215 N 478.904 1.54736 -0.299062 0
M  V30 5216 C 480.129 2.04975 0.316254 0
M  V30 5217 C 480.554 1.17501 1.46885 0
M  V30 5218 O 479.912 0.178678 1.80417 0
M  V30 5219 C 479.96 3.52672 0.751997 0
M  V30 5220 O 479.064 3.68226 1.85697 0
M  V30 5221 H 478.405 0.661126 0.0617175 0
M  V30 5222 H 480.935 1.99805 -0.440341 0
M  V30 5223 H 480.945 3.94488 1.04133 0
M  V30 5224 H 479.62 4.158 -0.0911482 0
M  V30 5225 H 478.197 3.38316 1.56834 0
M  V30 5226 N 480.382 0.0267497 1.57577 0
M  V30 5227 C 481.332 -0.965003 2.06571 0
M  V30 5228 C 482.316 -1.28694 0.965746 0
M  V30 5229 O 483.508 -1.27345 1.22932 0
M  V30 5230 C 480.637 -2.24821 2.59443 0
M  V30 5231 C 479.723 -1.95474 3.76365 0
M  V30 5232 N 480.114 -1.36387 4.87065 0
M  V30 5233 C 478.412 -2.25478 3.84806 0
M  V30 5234 C 479.113 -1.24119 5.68304 0
M  V30 5235 N 478.089 -1.7359 5.15138 0
M  V30 5236 H 481.891 -0.503095 2.89562 0
M  V30 5237 H 479.405 -0.178322 1.61418 0
M  V30 5238 H 481.402 -2.9674 2.92833 0
M  V30 5239 H 480.062 -2.7164 1.77881 0
M  V30 5240 H 481.073 -1.03919 5.07367 0
M  V30 5241 H 477.75 -2.74987 3.14147 0
M  V30 5242 H 479.14 -0.784504 6.67304 0
M  V30 5243 N 481.861 -1.55662 -0.24637 0
M  V30 5244 C 482.824 -1.89558 -1.28842 0
M  V30 5245 C 483.824 -0.772082 -1.41052 0
M  V30 5246 O 485.014 -1.04007 -1.39743 0
M  V30 5247 C 482.146 -2.12449 -2.66605 0
M  V30 5248 H 483.339 -2.82735 -1.00004 0
M  V30 5249 H 480.892 -1.48562 -0.485684 0
M  V30 5250 H 481.627 -1.21742 -3.00582 0
M  V30 5251 H 481.412 -2.94273 -2.59125 0
M  V30 5252 H 482.902 -2.39854 -3.41847 0
M  V30 5253 N 483.339 0.512053 -1.4905 0
M  V30 5254 C 484.587 1.26436 -1.57665 0
M  V30 5255 C 484.908 1.93255 -0.260293 0
M  V30 5256 O 484.178 1.82206 0.719564 0
M  V30 5257 H 482.758 0.469658 -0.580888 0
M  V30 5258 H 485.42 0.594398 -1.85615 0
M  V30 5259 H 484.516 2.03417 -2.36702 0
M  V30 5260 N 484.817 1.37938 0.762283 0
M  V30 5261 C 486.065 1.33404 1.51815 0
M  V30 5262 C 486.386 -0.0780975 1.94844 0
M  V30 5263 O 485.656 -1.02405 1.67003 0
M  V30 5264 H 484.236 0.490839 0.563104 0
M  V30 5265 H 486.898 1.72527 0.906669 0
M  V30 5266 H 485.994 1.97926 2.41313 0
M  V30 5267 N 486.295 -0.989507 1.22664 0
M  V30 5268 C 487.544 -1.72375 1.04737 0
M  V30 5269 C 487.857 -1.91096 -0.417316 0
M  V30 5270 O 489.063 -2.6188 -0.716334 0
M  V30 5271 C 487.519 -3.10161 1.82561 0
M  V30 5272 C 487.127 -2.99358 3.333 0
M  V30 5273 C 488.871 -3.87607 1.73093 0
M  V30 5274 C 486.778 -4.32319 4.03552 0
M  V30 5275 H 485.708 -0.646326 0.388302 0
M  V30 5276 H 488.359 -1.10437 1.46546 0
M  V30 5277 H 486.741 -3.728 1.33552 0
M  V30 5278 H 487.915 -2.45863 3.89728 0
M  V30 5279 H 486.23 -2.35392 3.43481 0
M  V30 5280 H 488.827 -4.86025 2.22899 0
M  V30 5281 H 489.17 -4.10509 0.691976 0
M  V30 5282 H 489.703 -3.31652 2.19663 0
M  V30 5283 H 486.442 -4.14616 5.07714 0
M  V30 5284 H 485.962 -4.85714 3.51911 0
M  V30 5285 H 487.641 -5.01051 4.09337 0
M  V30 5286 N 487.773 -1.03688 -1.18687 0
M  V30 5287 C 488.721 -0.618292 -2.24232 0
M  V30 5288 C 489.715 0.353045 -1.6568 0
M  V30 5289 O 490.921 0.220749 -1.78641 0
M  V30 5290 H 487.296 -0.181711 -0.729716 0
M  V30 5291 H 489.267 -1.51893 -2.56848 0
M  V30 5292 C 488.016 0.00677342 -3.47699 0
M  V30 5293 H 487.339 -0.731692 -3.93047 0
M  V30 5294 H 488.779 0.262492 -4.23187 0
M  V30 5295 C 487.238 1.25572 -3.12623 0
M  V30 5296 O 487.768 2.34691 -3.26011 0
M  V30 5297 N 485.974 1.14755 -2.66982 0
M  V30 5298 H 485.521 0.259601 -2.56289 0
M  V30 5299 H 485.479 1.98412 -2.43885 0
M  V30 5300 N 489.251 1.34841 -0.815825 0
M  V30 5301 C 490.497 1.98793 -0.401129 0
M  V30 5302 C 490.83 1.64548 1.03139 0
M  V30 5303 O 490.105 0.913487 1.71714 0
M  V30 5304 C 490.388 3.55143 -0.595409 0
M  V30 5305 C 490.241 3.99155 -2.07352 0
M  V30 5306 C 491.56 4.40092 -0.0268823 0
M  V30 5307 H 488.679 0.722146 -0.14722 0
M  V30 5308 H 491.321 1.59847 -1.02707 0
M  V30 5309 H 489.471 3.8845 -0.0625779 0
M  V30 5310 H 491.143 3.76216 -2.66945 0
M  V30 5311 H 489.386 3.49726 -2.56659 0
M  V30 5312 H 490.057 5.07971 -2.1603 0
M  V30 5313 H 492.533 4.13298 -0.482042 0
M  V30 5314 H 491.409 5.48562 -0.19267 0
M  V30 5315 H 491.67 4.29016 1.06759 0
M  V30 5316 N 490.729 0.570148 1.46925 0
M  V30 5317 C 491.976 0.0509529 2.02436 0
M  V30 5318 C 492.304 -1.30405 1.44308 0
M  V30 5319 O 491.559 -1.86493 0.593198 0
M  V30 5320 C 491.858 -0.0780336 3.57315 0
M  V30 5321 C 491.524 1.20775 4.34424 0
M  V30 5322 C 490.186 1.56004 4.5521 0
M  V30 5323 C 492.538 2.0592 4.78797 0
M  V30 5324 C 489.866 2.76201 5.17619 0
M  V30 5325 C 492.218 3.25332 5.42533 0
M  V30 5326 C 490.882 3.60859 5.61549 0
M  V30 5327 H 490.152 0.018645 0.740765 0
M  V30 5328 H 492.799 0.744262 1.76445 0
M  V30 5329 H 491.104 -0.854394 3.82371 0
M  V30 5330 H 492.801 -0.495312 3.97929 0
M  V30 5331 H 489.391 0.923469 4.18533 0
M  V30 5332 H 493.575 1.80008 4.62505 0
M  V30 5333 H 488.831 3.0388 5.30535 0
M  V30 5334 H 493.005 3.91586 5.75876 0
M  V30 5335 H 490.632 4.54088 6.09678 0
M  V30 5336 N 492.207 -1.54576 0.307264 0
M  V30 5337 C 493.455 -1.99867 -0.299574 0
M  V30 5338 C 493.776 -1.19714 -1.53927 0
M  V30 5339 O 493.046 -0.29472 -1.9367 0
M  V30 5340 H 491.626 -0.738299 -0.113683 0
M  V30 5341 H 494.288 -1.9032 0.420042 0
M  V30 5342 H 493.384 -3.06901 -0.567283 0
M  V30 5343 N 493.685 -0.035106 -1.57561 0
M  V30 5344 C 494.617 0.973604 -2.07494 0
M  V30 5345 C 495.63 1.28504 -0.999534 0
M  V30 5346 O 496.819 1.24864 -1.27559 0
M  V30 5347 C 493.919 2.29945 -2.48955 0
M  V30 5348 C 493.092 2.1723 -3.79644 0
M  V30 5349 C 492.151 3.328 -4.07592 0
M  V30 5350 O 491.177 3.09418 -4.77754 0
M  V30 5351 N 492.379 4.56779 -3.58236 0
M  V30 5352 H 495.144 0.547525 -2.94656 0
M  V30 5353 H 492.705 0.151515 -1.61189 0
M  V30 5354 H 494.697 3.06097 -2.64739 0
M  V30 5355 H 493.267 2.64173 -1.67126 0
M  V30 5356 H 492.487 1.25768 -3.73599 0
M  V30 5357 H 493.775 2.05945 -4.65257 0
M  V30 5358 H 493.173 4.78668 -3.01485 0
M  V30 5359 H 491.73 5.30079 -3.79288 0
M  V30 5360 N 495.163 1.55791 0.238111 0
M  V30 5361 C 496.412 1.77234 0.962868 0
M  V30 5362 C 496.725 0.600661 1.86149 0
M  V30 5363 O 497.931 0.698315 2.62366 0
M  V30 5364 C 496.387 3.13808 1.76218 0
M  V30 5365 C 495.995 4.3865 0.910518 0
M  V30 5366 C 497.739 3.44585 2.47914 0
M  V30 5367 C 495.646 5.66252 1.70623 0
M  V30 5368 H 494.576 0.660731 0.36325 0
M  V30 5369 H 497.227 1.8221 0.217242 0
M  V30 5370 H 495.609 3.02963 2.55009 0
M  V30 5371 H 496.783 4.60507 0.164316 0
M  V30 5372 H 495.098 4.15271 0.30647 0
M  V30 5373 H 497.695 4.3714 3.07917 0
M  V30 5374 H 498.038 2.66314 3.19973 0
M  V30 5375 H 498.571 3.56685 1.76127 0
M  V30 5376 H 495.31 6.47369 1.02923 0
M  V30 5377 H 494.83 5.48483 2.42748 0
M  V30 5378 H 496.509 6.05829 2.27114 0
M  V30 5379 N 496.642 -0.504142 1.49319 0
M  V30 5380 C 497.87 -1.28256 1.62351 0
M  V30 5381 C 498.285 -1.86502 0.293682 0
M  V30 5382 O 497.642 -1.67678 -0.720449 0
M  V30 5383 C 497.693 -2.41507 2.68992 0
M  V30 5384 O 497.414 -1.85656 3.96817 0
M  V30 5385 C 498.915 -3.32929 2.927 0
M  V30 5386 H 496.135 -0.389115 0.546654 0
M  V30 5387 H 498.679 -0.605531 1.95329 0
M  V30 5388 H 496.834 -3.05046 2.38801 0
M  V30 5389 H 497.248 -2.59981 4.55533 0
M  V30 5390 H 498.722 -4.0868 3.71058 0
M  V30 5391 H 499.199 -3.89733 2.02496 0
M  V30 5392 H 499.805 -2.75158 3.24296 0
M  V30 5393 N 498.12 -1.38341 -0.754957 0
M  V30 5394 C 499.366 -1.34672 -1.51628 0
M  V30 5395 C 499.699 0.0636036 -1.94096 0
M  V30 5396 O 498.974 1.0245 -1.6533 0
M  V30 5397 C 499.257 -2.30116 -2.76981 0
M  V30 5398 C 499.11 -3.80003 -2.4066 0
M  V30 5399 C 500.429 -2.23715 -3.78998 0
M  V30 5400 H 497.548 -0.490517 -0.550056 0
M  V30 5401 H 500.19 -1.69178 -0.864807 0
M  V30 5402 H 498.34 -2.00821 -3.3257 0
M  V30 5403 H 500.012 -4.19966 -1.90856 0
M  V30 5404 H 498.255 -3.97751 -1.73137 0
M  V30 5405 H 498.926 -4.42244 -3.30339 0
M  V30 5406 H 501.402 -2.49574 -3.32945 0
M  V30 5407 H 500.278 -2.9261 -4.64403 0
M  V30 5408 H 500.539 -1.23554 -4.24484 0
M  V30 5409 N 499.598 0.982988 -1.23187 0
M  V30 5410 C 500.508 2.10907 -1.02739 0
M  V30 5411 C 501.524 1.73979 0.0273188 0
M  V30 5412 O 502.7 2.00702 -0.16757 0
M  V30 5413 C 499.765 3.41142 -0.618304 0
M  V30 5414 C 498.826 3.92112 -1.74777 0
M  V30 5415 C 498.059 5.16131 -1.3581 0
M  V30 5416 O 498.282 5.6989 -0.241201 0
M  V30 5417 O 497.216 5.61103 -2.17824 0
M  V30 5418 H 501.042 2.31046 -1.97108 0
M  V30 5419 H 498.627 1.09284 -1.01869 0
M  V30 5420 H 500.509 4.19488 -0.400982 0
M  V30 5421 H 499.184 3.2234 0.296421 0
M  V30 5422 H 498.091 3.14895 -2.0197 0
M  V30 5423 H 499.424 4.15364 -2.64071 0
M  V30 5424 N 501.076 1.04316 1.18135 0
M  V30 5425 C 502.304 0.768117 1.92113 0
M  V30 5426 C 502.719 -0.675057 1.76319 0
M  V30 5427 O 502.076 -1.46038 1.09449 0
M  V30 5428 C 502.127 1.12808 3.43448 0
M  V30 5429 O 501.848 2.5146 3.58747 0
M  V30 5430 C 503.349 0.8779 4.3452 0
M  V30 5431 H 500.569 0.279937 0.609817 0
M  V30 5432 H 503.113 1.39149 1.49859 0
M  V30 5433 H 501.268 0.549623 3.83481 0
M  V30 5434 H 501.682 2.65313 4.52448 0
M  V30 5435 H 503.156 1.17959 5.39249 0
M  V30 5436 H 503.633 -0.187239 4.38801 0
M  V30 5437 H 504.239 1.43977 4.00188 0
M  V30 5438 N 502.554 -1.34406 0.822964 0
M  V30 5439 C 503.801 -1.98284 0.411057 0
M  V30 5440 C 504.129 -1.65245 -1.02588 0
M  V30 5441 O 503.384 -0.91619 -1.72929 0
M  V30 5442 C 503.683 -3.52981 0.560268 0
M  V30 5443 C 503.349 -4.05931 1.96293 0
M  V30 5444 C 502.011 -4.20103 2.34664 0
M  V30 5445 C 504.363 -4.34412 2.87985 0
M  V30 5446 C 501.691 -4.60082 3.64062 0
M  V30 5447 C 504.043 -4.75838 4.16847 0
M  V30 5448 C 502.707 -4.88215 4.55195 0
M  V30 5449 H 501.977 -0.725573 0.150416 0
M  V30 5450 H 504.624 -1.60349 1.04692 0
M  V30 5451 H 502.929 -3.91477 -0.158982 0
M  V30 5452 H 504.626 -4.00385 0.222087 0
M  V30 5453 H 501.216 -3.95363 1.65487 0
M  V30 5454 H 505.4 -4.23001 2.59584 0
M  V30 5455 H 500.656 -4.67856 3.93599 0
M  V30 5456 H 504.83 -4.96834 4.87984 0
M  V30 5457 H 502.457 -5.18952 5.55512 0
M  V30 5458 N 504.032 -0.577932 -1.46621 0
M  V30 5459 C 504.995 0.147805 -2.28723 0
M  V30 5460 C 505.995 0.823325 -1.38123 0
M  V30 5461 O 507.185 0.676011 -1.60548 0
M  V30 5462 C 504.317 1.21853 -3.18378 0
M  V30 5463 H 505.51 -0.573654 -2.94362 0
M  V30 5464 H 503.063 -0.335703 -1.52652 0
M  V30 5465 H 503.798 1.97173 -2.57475 0
M  V30 5466 H 503.583 0.738714 -3.85078 0
M  V30 5467 H 505.073 1.72768 -3.80186 0
M  V30 5468 N 505.51 1.54411 -0.315457 0
M  V30 5469 C 506.735 2.05299 0.294496 0
M  V30 5470 C 507.16 1.19052 1.4563 0
M  V30 5471 O 506.518 0.197804 1.80218 0
M  V30 5472 C 506.566 3.5345 0.714549 0
M  V30 5473 O 505.67 3.70175 1.81781 0
M  V30 5474 H 505.011 0.661743 0.0547019 0
M  V30 5475 H 507.541 1.99327 -0.461508 0
M  V30 5476 H 507.551 3.9557 0.999426 0
M  V30 5477 H 506.226 4.1568 -0.135244 0
M  V30 5478 H 504.803 3.3996 1.53236 0
M  V30 5479 N 506.988 0.0434614 1.5754 0
M  V30 5480 C 508.237 -0.631454 1.91561 0
M  V30 5481 C 508.55 -1.72457 0.92292 0
M  V30 5482 O 509.756 -2.45712 1.15489 0
M  V30 5483 C 508.212 -1.17447 3.40197 0
M  V30 5484 C 507.82 -0.113867 4.47855 0
M  V30 5485 C 509.564 -1.82507 3.83264 0
M  V30 5486 C 507.471 -0.669326 5.876 0
M  V30 5487 H 506.401 -0.239629 0.714908 0
M  V30 5488 H 509.052 0.111097 1.83163 0
M  V30 5489 H 507.434 -1.96909 3.43574 0
M  V30 5490 H 508.608 0.659348 4.56058 0
M  V30 5491 H 506.923 0.438821 4.14081 0
M  V30 5492 H 509.52 -2.25047 4.85034 0
M  V30 5493 H 509.863 -2.67365 3.19095 0
M  V30 5494 H 510.396 -1.09712 3.82372 0
M  V30 5495 H 507.135 0.141449 6.55347 0
M  V30 5496 H 506.655 -1.4107 5.82974 0
M  V30 5497 H 508.334 -1.15463 6.36614 0
M  V30 5498 N 508.466 -1.55915 -0.229846 0
M  V30 5499 C 509.712 -1.78807 -0.956868 0
M  V30 5500 C 510.045 -0.611687 -1.84315 0
M  V30 5501 O 509.32 0.389398 -1.90562 0
M  V30 5502 C 509.603 -3.11718 -1.80288 0
M  V30 5503 C 509.456 -4.3979 -0.943649 0
M  V30 5504 C 510.775 -3.40999 -2.78222 0
M  V30 5505 H 507.894 -0.6505 -0.346437 0
M  V30 5506 H 510.536 -1.88648 -0.226252 0
M  V30 5507 H 508.686 -3.03459 -2.42579 0
M  V30 5508 H 510.358 -4.60059 -0.338121 0
M  V30 5509 H 508.601 -4.33086 -0.248705 0
M  V30 5510 H 509.272 -5.29208 -1.5698 0
M  V30 5511 H 511.748 -3.49332 -2.26067 0
M  V30 5512 H 510.624 -4.35183 -3.34526 0
M  V30 5513 H 510.885 -2.62754 -3.55546 0
M  V30 5514 N 509.944 0.496216 -1.49584 0
M  V30 5515 C 510.907 1.57952 -1.66084 0
M  V30 5516 C 511.907 1.51729 -0.53244 0
M  V30 5517 O 513.097 1.54796 -0.79899 0
M  V30 5518 C 510.229 2.97604 -1.66268 0
M  V30 5519 H 511.422 1.44649 -2.6271 0
M  V30 5520 H 508.975 0.7208 -1.38687 0
M  V30 5521 H 509.71 3.16378 -0.712432 0
M  V30 5522 H 509.495 3.03528 -2.4822 0
M  V30 5523 H 510.985 3.76301 -1.81073 0
M  V30 5524 N 511.423 1.38739 0.74761 0
M  V30 5525 C 512.373 1.32948 1.85226 0
M  V30 5526 C 513.357 0.212642 1.59489 0
M  V30 5527 O 514.549 0.449121 1.71207 0
M  V30 5528 C 511.678 1.16279 3.23008 0
M  V30 5529 C 510.764 2.32611 3.54617 0
M  V30 5530 N 511.155 3.58065 3.57244 0
M  V30 5531 C 509.453 2.25293 3.84914 0
M  V30 5532 C 510.154 4.34919 3.8629 0
M  V30 5533 N 509.13 3.64348 4.03425 0
M  V30 5534 H 512.932 2.27927 1.85544 0
M  V30 5535 H 510.446 1.32056 0.945253 0
M  V30 5536 H 512.443 1.10214 4.02068 0
M  V30 5537 H 511.103 0.222394 3.23937 0
M  V30 5538 H 512.114 3.91656 3.3886 0
M  V30 5539 H 508.791 1.39446 3.93524 0
M  V30 5540 H 510.181 5.43605 3.94896 0
M  V30 5541 N 512.901 -0.976442 1.23707 0
M  V30 5542 C 513.811 -2.10359 1.03856 0
M  V30 5543 C 514.827 -1.73991 -0.0180919 0
M  V30 5544 O 516.003 -2.0061 0.178211 0
M  V30 5545 C 513.068 -3.40809 0.636387 0
M  V30 5546 C 512.129 -3.91179 1.76854 0
M  V30 5547 C 511.362 -5.15404 1.38546 0
M  V30 5548 O 511.585 -5.69754 0.27142 0
M  V30 5549 O 510.519 -5.5994 2.20797 0
M  V30 5550 H 514.345 -2.29997 1.98331 0
M  V30 5551 H 511.93 -1.08742 1.02448 0
M  V30 5552 H 513.812 -4.19269 0.423223 0
M  V30 5553 H 512.487 -3.22493 -0.279322 0
M  V30 5554 H 511.394 -3.13819 2.03638 0
M  V30 5555 H 512.727 -4.13958 2.6627 0
M  V30 5556 N 514.379 -1.04941 -1.1758 0
M  V30 5557 C 515.309 -0.669172 -2.23706 0
M  V30 5558 C 516.29 0.331835 -1.66832 0
M  V30 5559 O 517.475 0.209988 -1.93061 0
M  V30 5560 C 514.605 -0.0404889 -3.47276 0
M  V30 5561 C 513.559 -0.965983 -4.16957 0
M  V30 5562 C 512.885 -0.201312 -5.34321 0
M  V30 5563 C 514.185 -2.28902 -4.69469 0
M  V30 5564 H 515.879 -1.55639 -2.55767 0
M  V30 5565 H 513.425 -0.749793 -1.22939 0
M  V30 5566 H 515.378 0.237298 -4.20731 0
M  V30 5567 H 514.102 0.881658 -3.14475 0
M  V30 5568 H 512.761 -1.22829 -3.45411 0
M  V30 5569 H 512.409 0.723519 -4.97769 0
M  V30 5570 H 512.109 -0.817968 -5.81879 0
M  V30 5571 H 513.633 0.0692499 -6.10561 0
M  V30 5572 H 515.047 -2.07132 -5.34574 0
M  V30 5573 H 513.444 -2.85942 -5.27596 0
M  V30 5574 H 514.514 -2.92937 -3.86414 0
M  V30 5575 N 515.857 1.33968 -0.830081 0
M  V30 5576 C 517.105 1.97672 -0.420734 0
M  V30 5577 C 517.426 1.66111 1.02138 0
M  V30 5578 O 516.696 0.955503 1.71017 0
M  V30 5579 H 515.276 0.73125 -0.152587 0
M  V30 5580 H 517.938 1.63483 -1.0611 0
M  V30 5581 H 517.034 3.07294 -0.545588 0
M  V30 5582 N 517.335 0.585699 1.46312 0
M  V30 5583 C 518.285 -0.166813 2.27389 0
M  V30 5584 C 519.269 -0.859076 1.36047 0
M  V30 5585 O 520.461 -0.752678 1.60199 0
M  V30 5586 C 517.59 -1.17791 3.2246 0
M  V30 5587 C 516.676 -0.487605 4.21288 0
M  V30 5588 N 517.067 0.45849 5.03718 0
M  V30 5589 C 515.365 -0.737971 4.39852 0
M  V30 5590 C 516.066 0.862213 5.75275 0
M  V30 5591 N 515.042 0.210707 5.43191 0
M  V30 5592 H 518.844 0.560167 2.88512 0
M  V30 5593 H 516.358 0.407715 1.57199 0
M  V30 5594 H 518.355 -1.73122 3.79255 0
M  V30 5595 H 517.015 -1.90568 2.62896 0
M  V30 5596 H 518.026 0.834163 5.11138 0
M  V30 5597 H 514.703 -1.45209 3.91434 0
M  V30 5598 H 516.093 1.64128 6.51546 0
M  V30 5599 N 518.813 -1.54241 0.323641 0
M  V30 5600 C 519.761 -2.25813 -0.557804 0
M  V30 5601 C 520.755 -1.27225 -1.11849 0
M  V30 5602 O 521.961 -1.45001 -1.06652 0
M  V30 5603 H 518.336 -0.72532 -0.198532 0
M  V30 5604 H 520.307 -2.98322 0.0681112 0
M  V30 5605 C 519.056 -3.02913 -1.70701 0
M  V30 5606 H 518.379 -3.78593 -1.28482 0
M  V30 5607 H 519.819 -3.56238 -2.29935 0
M  V30 5608 C 518.278 -2.11217 -2.62467 0
M  V30 5609 O 518.808 -1.69508 -3.64184 0
M  V30 5610 N 517.014 -1.76704 -2.30703 0
M  V30 5611 H 516.561 -2.1082 -1.48029 0
M  V30 5612 H 516.519 -1.15631 -2.92364 0
M  V30 5613 N 520.291 -0.0518155 -1.57515 0
M  V30 5614 C 521.221 0.920283 -2.146 0
M  V30 5615 C 522.202 1.32406 -1.06783 0
M  V30 5616 O 523.387 1.39866 -1.34726 0
M  V30 5617 C 520.517 2.1949 -2.6915 0
M  V30 5618 C 519.471 1.93116 -3.81956 0
M  V30 5619 C 518.797 3.27037 -4.23026 0
M  V30 5620 C 520.097 1.25225 -5.07066 0
M  V30 5621 H 521.791 0.444801 -2.96077 0
M  V30 5622 H 519.337 0.212508 -1.42423 0
M  V30 5623 H 521.29 2.87894 -3.07725 0
M  V30 5624 H 520.014 2.69244 -1.84865 0
M  V30 5625 H 518.673 1.27123 -3.43854 0
M  V30 5626 H 518.321 3.74595 -3.3569 0
M  V30 5627 H 518.021 3.10189 -4.99056 0
M  V30 5628 H 519.545 3.96673 -4.64202 0
M  V30 5629 H 520.959 1.83666 -5.43083 0
M  V30 5630 H 519.356 1.18702 -5.88243 0
M  V30 5631 H 520.426 0.228382 -4.84362 0
M  V30 5632 N 521.769 1.56035 0.221574 0
M  V30 5633 C 523.017 1.78693 0.944102 0
M  V30 5634 C 523.338 0.620317 1.8487 0
M  V30 5635 O 522.608 -0.362784 1.92512 0
M  V30 5636 H 521.188 0.659082 0.351597 0
M  V30 5637 H 523.85 1.93497 0.233435 0
M  V30 5638 H 522.946 2.70837 1.55093 0
M  V30 5639 N 523.247 -0.488276 1.49845 0
M  V30 5640 C 524.18 -1.60651 1.62069 0
M  V30 5641 C 525.158 -1.5568 0.469308 0
M  V30 5642 O 526.342 -1.75553 0.686551 0
M  V30 5643 C 523.469 -2.99197 1.58741 0
M  V30 5644 C 522.515 -3.22385 2.79232 0
M  V30 5645 S 523.348 -3.04133 4.40753 0
M  V30 5646 C 524.504 -4.45052 4.4009 0
M  V30 5647 H 524.737 -1.50039 2.56662 0
M  V30 5648 H 522.27 -0.674371 1.38894 0
M  V30 5649 H 524.228 -3.79081 1.57506 0
M  V30 5650 H 522.889 -3.07213 0.654136 0
M  V30 5651 H 522.082 -4.23557 2.73159 0
M  V30 5652 H 521.684 -2.50245 2.77945 0
M  V30 5653 H 523.976 -5.37375 4.12594 0
M  V30 5654 H 524.919 -4.56172 5.41583 0
M  V30 5655 H 525.327 -4.26327 3.70008 0
M  V30 5656 N 524.725 -1.39134 -0.740242 0
M  V30 5657 C 525.673 -1.3757 -1.87556 0
M  V30 5658 C 526.667 -0.259593 -1.67399 0
M  V30 5659 O 527.873 -0.429349 -1.74804 0
M  V30 5660 H 524.248 -0.42947 -0.6173 0
M  V30 5661 H 526.219 -2.33345 -1.85991 0
M  V30 5662 C 524.968 -1.23087 -3.25184 0
M  V30 5663 H 524.291 -2.08237 -3.41288 0
M  V30 5664 H 525.731 -1.26049 -4.0483 0
M  V30 5665 C 524.19 0.0611471 -3.36845 0
M  V30 5666 O 524.72 1.03328 -3.88183 0
M  V30 5667 N 522.926 0.122454 -2.90342 0
M  V30 5668 H 522.473 -0.669329 -2.48752 0
M  V30 5669 H 522.431 0.986463 -2.98523 0
M  V30 5670 N 526.204 0.969867 -1.24223 0
M  V30 5671 C 527.154 2.04913 -0.999732 0
M  V30 5672 C 528.138 1.60795 0.0580636 0
M  V30 5673 O 529.33 1.76317 -0.155392 0
M  V30 5674 C 526.459 3.37942 -0.604154 0
M  V30 5675 C 525.545 3.88628 -1.69791 0
M  V30 5676 N 525.936 4.12274 -2.93025 0
M  V30 5677 C 524.234 4.17268 -1.57492 0
M  V30 5678 C 524.935 4.53808 -3.63914 0
M  V30 5679 N 523.911 4.58855 -2.91468 0
M  V30 5680 H 527.713 2.21168 -1.93551 0
M  V30 5681 H 525.227 1.15349 -1.14317 0
M  V30 5682 H 527.224 4.14863 -0.411665 0
M  V30 5683 H 525.884 3.23075 0.324465 0
M  V30 5684 H 526.895 3.99789 -3.29225 0
M  V30 5685 H 523.572 4.11346 -0.714175 0
M  V30 5686 H 524.962 4.80534 -4.69614 0
M  V30 5687 N 527.682 1.05563 1.17022 0
M  V30 5688 C 528.959 0.68165 1.83338 0
M  V30 5689 C 529.339 -0.837665 1.93769 0
M  V30 5690 O 528.687 -1.74507 1.47511 0
M  V30 5691 C 528.897 1.375 3.20772 0
M  V30 5692 C 530.245 1.51545 3.96635 0
M  V30 5693 O 531.269 1.33431 3.30264 0
M  V30 5694 O 530.128 1.812 5.15586 0
M  V30 5695 H 527.222 0.240412 0.791285 0
M  V30 5696 H 529.768 1.15545 1.24288 0
M  V30 5697 H 528.54 2.41135 3.08171 0
M  V30 5698 H 528.163 0.890798 3.87493 0
M  V30 5699 N 529.16 -1.33526 0.837174 0
M  V30 5700 C 530.437 -1.92369 0.354065 0
M  V30 5701 C 530.817 -1.76348 -1.16038 0
M  V30 5702 O 530.165 -1.15083 -1.97403 0
M  V30 5703 C 530.375 -3.39728 0.799101 0
M  V30 5704 C 531.723 -4.16877 0.806139 0
M  V30 5705 O 532.747 -3.48373 0.742597 0
M  V30 5706 O 531.606 -5.39166 0.892345 0
M  V30 5707 H 528.7 -0.820952 0.0998378 0
M  V30 5708 H 531.246 -1.42409 0.922913 0
M  V30 5709 H 530.018 -3.45254 1.84162 0
M  V30 5710 H 529.641 -3.97062 0.206731 0
M  V30 5711 N 530.638 -0.59345 -1.46 0
M  V30 5712 C 531.886 -0.082988 -2.0193 0
M  V30 5713 C 532.207 1.28569 -1.46612 0
M  V30 5714 O 531.477 1.84629 -0.654909 0
M  V30 5715 H 530.057 -0.0276882 -0.746487 0
M  V30 5716 H 532.719 -0.771657 -1.78973 0
M  V30 5717 H 531.815 -0.022079 -3.12092 0
M  V30 5718 N 532.116 1.54067 -0.331816 0
M  V30 5719 C 533.532 1.59587 0.0205388 0
M  V30 5720 C 533.732 1.34813 1.49759 0
M  V30 5721 O 532.788 1.13661 2.25471 0
M  V30 5722 C 534.101 2.97959 -0.405103 0
M  V30 5723 C 535.649 3.10964 -0.356454 0
M  V30 5724 C 536.124 4.51694 -0.757384 0
M  V30 5725 N 537.615 4.57709 -0.71111 0
M  V30 5726 C 538.35 5.64729 -0.993427 0
M  V30 5727 N 537.846 6.79652 -1.3433 0
M  V30 5728 N 539.639 5.54546 -0.918442 0
M  V30 5729 H 531.79 1.68426 -1.29407 0
M  V30 5730 H 534.053 0.78819 -0.526745 0
M  V30 5731 H 533.759 3.21115 -1.43451 0
M  V30 5732 H 533.633 3.76524 0.225692 0
M  V30 5733 H 536.02 2.87538 0.663763 0
M  V30 5734 H 536.101 2.34484 -1.02229 0
M  V30 5735 H 535.745 4.75853 -1.77555 0
M  V30 5736 H 535.675 5.26555 -0.0691444 0
M  V30 5737 H 538.166 3.75176 -0.452883 0
M  V30 5738 H 538.479 7.57221 -1.54388 0
M  V30 5739 H 536.824 6.81128 -1.38164 0
M  V30 5740 H 540.015 4.63641 -0.644536 0
M  V30 5741 H 540.188 6.37861 -1.14181 0
M  V30 5742 N 533.594 0.0601682 1.57485 0
M  V30 5743 C 534.871 -0.651956 1.84415 0
M  V30 5744 C 535.251 -1.88498 0.950361 0
M  V30 5745 O 534.599 -2.28496 0.0136719 0
M  V30 5746 C 534.809 -1.00069 3.34346 0
M  V30 5747 C 536.157 -1.37915 4.01578 0
M  V30 5748 O 537.181 -1.09277 3.39024 0
M  V30 5749 O 536.04 -1.91399 5.11887 0
M  V30 5750 H 533.134 -0.322668 0.761455 0
M  V30 5751 H 535.68 0.0902159 1.6946 0
M  V30 5752 H 534.452 -0.124463 3.91102 0
M  V30 5753 H 534.075 -1.80001 3.54521 0
M  V30 5754 N 535.072 -1.5615 -0.213296 0
M  V30 5755 C 536.312 -1.81325 -0.943435 0
M  V30 5756 C 536.676 -0.634934 -1.81198 0
M  V30 5757 O 537.877 -0.766166 -2.5765 0
M  V30 5758 C 536.148 -3.11437 -1.75334 0
M  V30 5759 S 537.707 -3.57955 -2.53799 0
M  V30 5760 H 534.525 -0.636538 -0.316766 0
M  V30 5761 H 537.127 -1.94387 -0.208313 0
M  V30 5762 H 535.831 -3.95228 -1.10556 0
M  V30 5763 H 535.362 -3.01204 -2.53061 0
M  V30 5764 H 537.377 -3.21947 -3.77577 0
M  V30 5765 N 536.55 0.480323 -1.50102 0
M  V30 5766 C 537.775 1.26126 -1.64642 0
M  V30 5767 C 538.2 1.85257 -0.325823 0
M  V30 5768 O 537.558 1.66854 0.709194 0
M  V30 5769 C 537.606 2.35243 -2.73301 0
M  V30 5770 O 536.71 3.39646 -2.33911 0
M  V30 5771 H 536.051 0.371463 -0.550374 0
M  V30 5772 H 538.581 0.572696 -1.96421 0
M  V30 5773 H 538.591 2.80695 -2.96098 0
M  V30 5774 H 537.266 1.91574 -3.6915 0
M  V30 5775 H 535.843 2.99969 -2.21525 0
M  V30 5776 N 538.028 1.39524 0.732853 0
M  V30 5777 C 539.268 1.383 1.50508 0
M  V30 5778 C 539.632 -0.0208271 1.91989 0
M  V30 5779 O 540.833 -0.158091 2.68335 0
M  V30 5780 C 539.104 2.33007 2.71003 0
M  V30 5781 S 540.663 2.49989 3.60626 0
M  V30 5782 H 537.481 0.490417 0.514794 0
M  V30 5783 H 540.083 1.75641 0.858524 0
M  V30 5784 H 538.787 3.33862 2.38672 0
M  V30 5785 H 538.318 1.96889 3.40585 0
M  V30 5786 H 540.333 1.7394 4.64714 0
M  V30 5787 N 539.506 -0.963266 1.24736 0
M  V30 5788 C 540.754 -1.70343 1.08755 0
M  V30 5789 C 541.075 -1.91387 -0.373619 0
M  V30 5790 O 540.345 -1.4948 -1.2662 0
M  V30 5791 H 538.925 -0.631224 0.399456 0
M  V30 5792 H 541.587 -1.15859 1.56725 0
M  V30 5793 H 540.683 -2.68616 1.58909 0
M  V30 5794 N 540.985 -1.06182 -1.16461 0
M  V30 5795 C 541.948 -0.675723 -2.19013 0
M  V30 5796 C 542.948 0.277963 -1.58379 0
M  V30 5797 O 544.138 0.0604962 -1.74095 0
M  V30 5798 C 541.27 0.00591459 -3.40899 0
M  V30 5799 H 542.463 -1.58353 -2.54685 0
M  V30 5800 H 540.016 -0.856908 -1.30716 0
M  V30 5801 H 540.751 0.92652 -3.10783 0
M  V30 5802 H 540.536 -0.67984 -3.86161 0
M  V30 5803 H 542.026 0.26181 -4.16778 0
M  V30 5804 N 542.463 1.3308 -0.844243 0
M  V30 5805 C 543.41 2.29104 -0.279323 0
M  V30 5806 C 544.38 1.54577 0.607882 0
M  V30 5807 O 545.565 1.8285 0.545009 0
M  V30 5808 C 542.705 3.40927 0.53508 0
M  V30 5809 C 541.818 4.30354 -0.376749 0
M  V30 5810 C 540.953 5.29297 0.449276 0
M  V30 5811 C 539.992 6.10365 -0.460606 0
M  V30 5812 N 539.129 7.01335 0.327612 0
M  V30 5813 H 543.969 2.76817 -1.10346 0
M  V30 5814 H 541.506 1.36203 -0.555611 0
M  V30 5815 H 543.464 4.04469 1.02278 0
M  V30 5816 H 542.094 2.94391 1.32414 0
M  V30 5817 H 541.146 3.67485 -0.982791 0
M  V30 5818 H 542.458 4.87067 -1.07549 0
M  V30 5819 H 541.612 5.98392 1.00058 0
M  V30 5820 H 540.351 4.73174 1.18143 0
M  V30 5821 H 539.356 5.40182 -1.02388 0
M  V30 5822 H 540.581 6.68571 -1.1912 0
M  V30 5823 H 538.527 6.47655 1.04305 0
M  V30 5824 H 538.444 7.55355 -0.3123 0
M  V30 5825 H 539.712 7.74731 0.86098 0
M  V30 5826 N 543.941 0.601185 1.45683 0
M  V30 5827 C 545.166 0.0982245 2.07167 0
M  V30 5828 C 545.591 -1.20546 1.44396 0
M  V30 5829 O 544.949 -1.73247 0.534347 0
M  V30 5830 C 544.997 -0.0346976 3.60583 0
M  V30 5831 O 544.101 -1.08657 3.97828 0
M  V30 5832 H 543.442 0.0711618 0.660176 0
M  V30 5833 H 545.972 0.829376 1.87036 0
M  V30 5834 H 545.982 -0.234969 4.07323 0
M  V30 5835 H 544.657 0.917265 4.05659 0
M  V30 5836 H 543.234 -0.863275 3.6277 0
M  V30 5837 N 545.419 -1.53889 0.339982 0
M  V30 5838 C 546.659 -2.02765 -0.258011 0
M  V30 5839 C 547.023 -1.22249 -1.48051 0
M  V30 5840 O 548.224 -1.61007 -2.15245 0
M  V30 5841 C 546.495 -3.5286 -0.567872 0
M  V30 5842 S 548.054 -4.23647 -1.14318 0
M  V30 5843 H 544.872 -0.706814 -0.0770389 0
M  V30 5844 H 547.474 -1.89594 0.476917 0
M  V30 5845 H 546.178 -4.09073 0.329745 0
M  V30 5846 H 545.709 -3.70144 -1.33256 0
M  V30 5847 H 547.724 -4.32676 -2.42911 0
M  V30 5848 N 546.897 -0.0685191 -1.57451 0
M  V30 5849 C 548.146 0.600898 -1.92541 0
M  V30 5850 C 548.459 1.70967 -0.950239 0
M  V30 5851 O 549.665 2.43844 -1.19384 0
M  V30 5852 C 548.121 1.12019 -3.42023 0
M  V30 5853 C 547.729 0.0426028 -4.4798 0
M  V30 5854 C 549.473 1.76386 -3.86119 0
M  V30 5855 C 547.38 0.575759 -5.88591 0
M  V30 5856 H 546.31 0.228225 -0.71863 0
M  V30 5857 H 548.961 -0.140223 -1.82963 0
M  V30 5858 H 547.343 1.91418 -3.46663 0
M  V30 5859 H 548.517 -0.73182 -4.54952 0
M  V30 5860 H 546.832 -0.504642 -4.13331 0
M  V30 5861 H 549.429 2.17302 -4.88553 0
M  V30 5862 H 549.772 2.62255 -3.23308 0
M  V30 5863 H 550.305 1.03615 -3.84069 0
M  V30 5864 H 547.044 -0.245691 -6.55039 0
M  V30 5865 H 546.564 1.31778 -5.85145 0
M  V30 5866 H 548.243 1.0532 -6.3837 0
M  V30 5867 N 548.375 1.56261 0.205012 0
M  V30 5868 C 549.308 1.88797 1.28183 0
M  V30 5869 C 550.286 0.747018 1.44424 0
M  V30 5870 O 551.47 0.997039 1.59973 0
M  V30 5871 C 548.597 2.10949 2.64987 0
M  V30 5872 C 547.643 3.33649 2.6567 0
M  V30 5873 S 548.476 4.89078 2.18088 0
M  V30 5874 C 549.632 5.14286 3.56736 0
M  V30 5875 H 549.865 2.79837 1.00393 0
M  V30 5876 H 547.398 1.48911 0.408042 0
M  V30 5877 H 549.356 2.24395 3.4374 0
M  V30 5878 H 548.017 1.20678 2.89993 0
M  V30 5879 H 547.21 3.46245 3.66239 0
M  V30 5880 H 546.812 3.19146 1.94992 0
M  V30 5881 H 549.104 5.04198 4.52537 0
M  V30 5882 H 550.047 6.16096 3.49043 0
M  V30 5883 H 550.455 4.41957 3.51189 0
M  V30 5884 N 549.853 -0.472356 1.50355 0
M  V30 5885 C 550.801 -1.59126 1.69651 0
M  V30 5886 C 551.795 -1.59793 0.56237 0
M  V30 5887 O 553.001 -1.63957 0.742832 0
M  V30 5888 H 549.376 -0.528008 0.535454 0
M  V30 5889 H 551.347 -1.40013 2.63513 0
M  V30 5890 C 550.096 -2.97075 1.8067 0
M  V30 5891 H 549.419 -2.9728 2.67329 0
M  V30 5892 H 550.859 -3.74825 1.98197 0
M  V30 5893 C 549.318 -3.32247 0.558016 0
M  V30 5894 O 549.848 -4.00553 -0.303399 0
M  V30 5895 N 548.054 -2.87659 0.412415 0
M  V30 5896 H 547.601 -2.32246 1.11443 0
M  V30 5897 H 547.559 -3.11556 -0.421908 0
M  V30 5898 N 551.331 -1.39911 -0.725443 0
M  V30 5899 C 552.556 -1.41137 -1.5197 0
M  V30 5900 C 552.981 -0.010262 -1.88097 0
M  V30 5901 O 552.339 0.979184 -1.52583 0
M  V30 5902 C 552.387 -2.2994 -2.77777 0
M  V30 5903 O 551.491 -1.73586 -3.74088 0
M  V30 5904 H 550.832 -0.480219 -0.458569 0
M  V30 5905 H 553.362 -1.84023 -0.894249 0
M  V30 5906 H 553.372 -2.44785 -3.26411 0
M  V30 5907 H 552.047 -3.31759 -2.50816 0
M  V30 5908 H 550.624 -1.68035 -3.32894 0
M  V30 5909 N 552.809 0.956637 -1.25245 0
M  V30 5910 C 554.057 1.69764 -1.09657 0
M  V30 5911 C 554.378 1.91583 0.363464 0
M  V30 5912 O 553.648 1.50149 1.25825 0
M  V30 5913 H 552.228 0.629097 -0.402798 0
M  V30 5914 H 554.89 1.15026 -1.57337 0
M  V30 5915 H 553.986 2.67769 -1.60331 0
M  V30 5916 N 554.287 1.06798 1.15896 0
M  V30 5917 C 555.25 0.687328 2.18651 0
M  V30 5918 C 556.25 -0.269559 1.58524 0
M  V30 5919 O 557.44 -0.0512627 1.74125 0
M  V30 5920 C 554.572 0.0121642 3.40898 0
M  V30 5921 H 555.765 1.59701 2.53842 0
M  V30 5922 H 553.318 0.863828 1.3026 0
M  V30 5923 H 554.053 -0.910025 3.1127 0
M  V30 5924 H 553.838 0.700309 3.85795 0
M  V30 5925 H 555.328 -0.239703 4.16911 0
M  V30 5926 N 555.766 -1.3263 0.851289 0
M  V30 5927 C 556.991 -2.02097 0.466006 0
M  V30 5928 C 557.416 -1.63574 -0.928709 0
M  V30 5929 O 556.774 -0.834665 -1.60944 0
M  V30 5930 C 556.822 -3.55425 0.608737 0
M  V30 5931 O 555.926 -4.10827 -0.359878 0
M  V30 5932 H 555.267 -0.636911 0.187724 0
M  V30 5933 H 557.797 -1.69253 1.14955 0
M  V30 5934 H 557.807 -4.04986 0.495006 0
M  V30 5935 H 556.482 -3.82806 1.62581 0
M  V30 5936 H 555.059 -3.72349 -0.202666 0
M  V30 5937 N 557.244 -0.608902 -1.45362 0
M  V30 5938 C 558.492 -0.104401 -2.0183 0
M  V30 5939 C 558.813 1.27007 -1.47967 0
M  V30 5940 O 558.083 1.83924 -0.674455 0
M  V30 5941 H 556.663 -0.0356042 -0.746151 0
M  V30 5942 H 559.325 -0.790596 -1.78145 0
M  V30 5943 H 558.421 -0.0551793 -3.12051 0
M  V30 5944 N 558.722 1.53707 -0.348139 0
M  V30 5945 C 559.947 2.05877 0.250883 0
M  V30 5946 C 560.372 1.22115 1.43072 0
M  V30 5947 O 559.73 0.235986 1.79758 0
M  V30 5948 C 559.778 3.54886 0.639416 0
M  V30 5949 O 558.882 3.73948 1.73888 0
M  V30 5950 H 558.223 0.662754 0.040653 0
M  V30 5951 H 560.753 1.98303 -0.503685 0
M  V30 5952 H 560.763 3.97601 0.915295 0
M  V30 5953 H 559.438 4.153 -0.223386 0
M  V30 5954 H 558.015 3.43134 1.45991 0
M  V30 5955 N 560.2 0.0768682 1.57412 0
M  V30 5956 C 561.616 -0.279772 1.57129 0
M  V30 5957 C 561.816 -1.69688 1.08666 0
M  V30 5958 O 560.872 -2.40953 0.754843 0
M  V30 5959 C 562.185 -0.0848055 3.0058 0
M  V30 5960 C 563.733 -0.153954 3.12621 0
M  V30 5961 C 564.208 0.0127946 4.57998 0
M  V30 5962 N 565.699 -0.0426435 4.6318 0
M  V30 5963 C 566.434 0.0618892 5.73367 0
M  V30 5964 N 565.93 0.220229 6.9245 0
M  V30 5965 N 567.723 0.00446072 5.621 0
M  V30 5966 H 559.874 1.00297 1.87228 0
M  V30 5967 H 562.137 0.391565 0.863354 0
M  V30 5968 H 561.843 0.89325 3.40168 0
M  V30 5969 H 561.717 -0.834961 3.67843 0
M  V30 5970 H 564.104 -1.1225 2.72917 0
M  V30 5971 H 564.185 0.627389 2.47987 0
M  V30 5972 H 563.829 0.978128 4.98392 0
M  V30 5973 H 563.759 -0.788016 5.20671 0
M  V30 5974 H 566.25 -0.163226 3.77547 0
M  V30 5975 H 566.563 0.291999 7.72248 0
M  V30 5976 H 564.908 0.255658 6.9453 0
M  V30 5977 H 568.099 -0.117979 4.67951 0
M  V30 5978 H 568.272 0.0893796 6.47938 0
M  V30 5979 N 561.678 -1.56367 -0.196722 0
M  V30 5980 C 562.626 -1.95304 -1.2633 0
M  V30 5981 C 563.62 -0.838252 -1.47206 0
M  V30 5982 O 564.826 -1.02325 -1.48087 0
M  V30 5983 H 561.201 -0.621013 -0.424083 0
M  V30 5984 H 563.172 -2.84254 -0.907879 0
M  V30 5985 C 561.921 -2.3074 -2.60104 0
M  V30 5986 H 561.244 -3.16047 -2.44856 0
M  V30 5987 H 562.684 -2.61849 -3.33484 0
M  V30 5988 C 561.143 -1.14143 -3.16975 0
M  V30 5989 O 561.673 -0.415602 -3.99544 0
M  V30 5990 N 559.879 -0.91867 -2.75697 0
M  V30 5991 H 559.426 -1.51065 -2.08656 0
M  V30 5992 H 559.384 -0.140321 -3.14087 0
M  V30 5993 N 563.156 0.464375 -1.50603 0
M  V30 5994 C 564.403 1.21596 -1.61928 0
M  V30 5995 C 564.731 1.91804 -0.322737 0
M  V30 5996 O 563.986 1.83065 0.691776 0
M  V30 5997 C 564.285 2.278 -2.75394 0
M  V30 5998 C 563.951 1.74797 -4.1564 0
M  V30 5999 C 562.613 1.60063 -4.53799 0
M  V30 6000 C 564.965 1.35548 -5.03266 0
M  V30 6001 C 562.293 1.04514 -5.77316 0
M  V30 6002 C 564.645 0.814381 -6.27336 0
M  V30 6003 C 563.309 0.653726 -6.64291 0
M  V30 6004 H 562.579 0.444951 -0.592536 0
M  V30 6005 H 565.226 0.510964 -1.84557 0
M  V30 6006 H 563.531 3.04233 -2.46879 0
M  V30 6007 H 565.228 2.85723 -2.81359 0
M  V30 6008 H 561.818 1.87234 -3.8554 0
M  V30 6009 H 566.002 1.45763 -4.74412 0
M  V30 6010 H 561.258 0.908186 -6.04617 0
M  V30 6011 H 565.432 0.501626 -6.94591 0
M  V30 6012 H 563.059 0.22114 -7.59878 0
M  V30 6013 N 564.634 1.40294 0.718013 0
M  V30 6014 C 565.859 1.41941 1.5122 0
M  V30 6015 C 566.284 0.0202371 1.88089 0
M  V30 6016 O 565.642 -0.971078 1.53101 0
M  V30 6017 C 565.69 2.3141 2.76554 0
M  V30 6018 O 564.794 1.75567 3.73162 0
M  V30 6019 H 564.135 0.482644 0.456016 0
M  V30 6020 H 566.665 1.84494 0.884478 0
M  V30 6021 H 566.675 2.46513 3.25108 0
M  V30 6022 H 565.35 3.33085 2.49053 0
M  V30 6023 H 563.927 1.69798 3.31999 0
M  V30 6024 N 566.112 -0.949982 1.2575 0
M  V30 6025 C 567.337 -1.73503 1.13628 0
M  V30 6026 C 567.762 -1.85601 -0.30559 0
M  V30 6027 O 567.12 -1.33984 -1.22139 0
M  V30 6028 C 567.168 -3.1243 1.80055 0
M  V30 6029 O 566.272 -3.97916 1.08336 0
M  V30 6030 H 565.613 -0.532665 0.396439 0
M  V30 6031 H 568.143 -1.19043 1.66403 0
M  V30 6032 H 568.153 -3.62866 1.86527 0
M  V30 6033 H 566.828 -3.02941 2.84956 0
M  V30 6034 H 565.405 -3.56375 1.09777 0
M  V30 6035 N 567.59 -1.07411 -1.15328 0
M  V30 6036 C 568.83 -0.807011 -1.87794 0
M  V30 6037 C 569.194 0.654987 -1.80482 0
M  V30 6038 O 570.395 1.03716 -2.47985 0
M  V30 6039 C 568.666 -1.30198 -3.32841 0
M  V30 6040 S 570.225 -1.16564 -4.23034 0
M  V30 6041 H 567.043 -0.292429 -0.648079 0
M  V30 6042 H 569.645 -1.37334 -1.39139 0
M  V30 6043 H 568.349 -2.3607 -3.35707 0
M  V30 6044 H 567.88 -0.730881 -3.86551 0
M  V30 6045 H 569.895 -0.103557 -4.96092 0
M  V30 6046 N 569.068 1.32177 -0.85831 0
M  V30 6047 C 570.293 2.01847 -0.476718 0
M  V30 6048 C 570.718 1.64065 0.920021 0
M  V30 6049 O 570.076 0.843189 1.60499 0
M  V30 6050 C 570.124 3.55097 -0.627578 0
M  V30 6051 O 569.228 4.11012 0.338086 0
M  V30 6052 H 568.569 0.635907 -0.191099 0
M  V30 6053 H 571.099 1.68641 -1.15851 0
M  V30 6054 H 571.109 4.04718 -0.516476 0
M  V30 6055 H 569.784 3.81938 -1.64609 0
M  V30 6056 H 568.361 3.72451 0.182917 0
M  V30 6057 N 570.547 0.616602 1.45037 0
M  V30 6058 C 571.51 -0.0871112 2.29034 0
M  V30 6059 C 572.51 -0.786414 1.40258 0
M  V30 6060 O 573.7 -0.633207 1.62284 0
M  V30 6061 C 570.832 -1.13369 3.21497 0
M  V30 6062 H 572.025 0.651497 2.92738 0
M  V30 6063 H 569.578 0.376058 1.51709 0
M  V30 6064 H 570.313 -1.90277 2.62612 0
M  V30 6065 H 570.098 -0.636358 3.86902 0
M  V30 6066 H 571.588 -1.62627 3.84633 0
M  V30 6067 N 572.025 -1.5352 0.356285 0
M  V30 6068 C 572.935 -2.29151 -0.502712 0
M  V30 6069 C 573.951 -1.34753 -1.1008 0
M  V30 6070 O 575.127 -1.67803 -1.11374 0
M  V30 6071 C 572.192 -3.05911 -1.63154 0
M  V30 6072 C 571.253 -4.15958 -1.06194 0
M  V30 6073 C 570.486 -4.8905 -2.13696 0
M  V30 6074 O 570.709 -4.61919 -3.34645 0
M  V30 6075 O 569.643 -5.75202 -1.77275 0
M  V30 6076 H 573.469 -3.03492 0.112466 0
M  V30 6077 H 571.054 -1.4891 0.120942 0
M  V30 6078 H 572.936 -3.53874 -2.28804 0
M  V30 6079 H 571.611 -2.34415 -2.23229 0
M  V30 6080 H 570.518 -3.7227 -0.369603 0
M  V30 6081 H 571.851 -4.89593 -0.505872 0
M  V30 6082 N 573.503 -0.0852151 -1.57369 0
M  V30 6083 C 574.78 0.622534 -1.85429 0
M  V30 6084 C 575.16 1.86962 -0.980229 0
M  V30 6085 O 574.508 2.28445 -0.0500219 0
M  V30 6086 C 574.718 0.947374 -3.35896 0
M  V30 6087 C 576.066 1.31509 -4.03721 0
M  V30 6088 O 577.09 1.03869 -3.40719 0
M  V30 6089 O 575.949 1.83231 -5.14868 0
M  V30 6090 H 573.043 0.310513 -0.766492 0
M  V30 6091 H 575.589 -0.117164 -1.69295 0
M  V30 6092 H 574.361 0.0622264 -3.91251 0
M  V30 6093 H 573.984 1.74338 -3.5734 0
M  V30 6094 N 574.981 1.5647 0.188427 0
M  V30 6095 C 576.228 1.81013 0.907779 0
M  V30 6096 C 576.556 0.65953 1.82977 0
M  V30 6097 O 575.811 -0.354308 1.92466 0
M  V30 6098 C 576.11 3.11596 1.7505 0
M  V30 6099 C 575.776 4.40145 0.978922 0
M  V30 6100 C 574.438 4.75066 0.765912 0
M  V30 6101 C 576.79 5.19369 0.436498 0
M  V30 6102 C 574.118 5.867 -0.00089868 0
M  V30 6103 C 576.47 6.31805 -0.317136 0
M  V30 6104 C 575.134 6.65303 -0.541103 0
M  V30 6105 H 574.404 0.662373 0.33218 0
M  V30 6106 H 577.051 1.9071 0.173732 0
M  V30 6107 H 575.356 2.97165 2.55343 0
M  V30 6108 H 577.053 3.27793 2.30983 0
M  V30 6109 H 573.643 4.12745 1.15497 0
M  V30 6110 H 577.827 4.92799 0.588449 0
M  V30 6111 H 573.083 6.11122 -0.184329 0
M  V30 6112 H 577.257 6.92406 -0.744788 0
M  V30 6113 H 574.884 7.51646 -1.13718 0
M  V30 6114 N 576.459 -0.456382 1.50847 0
M  V30 6115 C 577.369 -1.57805 1.73594 0
M  V30 6116 C 578.385 -1.62599 0.619476 0
M  V30 6117 O 579.561 -1.80195 0.899532 0
M  V30 6118 C 576.626 -2.93926 1.8387 0
M  V30 6119 C 575.687 -2.99402 3.07663 0
M  V30 6120 C 574.92 -4.29031 3.1744 0
M  V30 6121 O 575.143 -5.20358 2.33631 0
M  V30 6122 O 574.077 -4.40401 4.10281 0
M  V30 6123 H 577.903 -1.41531 2.68705 0
M  V30 6124 H 575.488 -0.637422 1.3512 0
M  V30 6125 H 577.37 -3.74747 1.92725 0
M  V30 6126 H 576.045 -3.10368 0.91944 0
M  V30 6127 H 574.952 -2.17606 3.043 0
M  V30 6128 H 576.285 -2.87901 3.99216 0
M  V30 6129 N 577.937 -1.40673 -0.710563 0
M  V30 6130 C 578.884 -1.41336 -1.82463 0
M  V30 6131 C 579.854 -0.269648 -1.63897 0
M  V30 6132 O 581.039 -0.468463 -1.8496 0
M  V30 6133 C 578.179 -1.28665 -3.20218 0
M  V30 6134 C 577.292 -2.52784 -3.5032 0
M  V30 6135 C 576.427 -2.32517 -4.77608 0
M  V30 6136 C 575.466 -3.52187 -5.0063 0
M  V30 6137 N 574.603 -3.31084 -6.19135 0
M  V30 6138 H 579.443 -2.36558 -1.8123 0
M  V30 6139 H 576.98 -1.17483 -0.885226 0
M  V30 6140 H 578.938 -1.19324 -3.99772 0
M  V30 6141 H 577.568 -0.370602 -3.20666 0
M  V30 6142 H 576.62 -2.72634 -2.65283 0
M  V30 6143 H 577.932 -3.41845 -3.63241 0
M  V30 6144 H 577.086 -2.20558 -5.65189 0
M  V30 6145 H 575.825 -1.40889 -4.66906 0
M  V30 6146 H 574.83 -3.64617 -4.11502 0
M  V30 6147 H 576.055 -4.44749 -5.13201 0
M  V30 6148 H 574.001 -2.42143 -6.09674 0
M  V30 6149 H 573.918 -4.13713 -6.32754 0
M  V30 6150 H 575.186 -3.22868 -7.0949 0
M  V30 6151 N 579.415 0.9433 -1.26252 0
M  V30 6152 C 580.345 2.05902 -1.10122 0
M  V30 6153 C 581.326 1.70099 -0.00700552 0
M  V30 6154 O 582.511 1.93377 -0.178641 0
M  V30 6155 C 579.641 3.39516 -0.731175 0
M  V30 6156 C 578.595 3.89372 -1.77688 0
M  V30 6157 C 577.921 5.19613 -1.26122 0
M  V30 6158 C 579.221 4.14489 -3.17799 0
M  V30 6159 H 580.915 2.19655 -2.03451 0
M  V30 6160 H 578.461 1.05548 -0.979576 0
M  V30 6161 H 580.414 4.17031 -0.605215 0
M  V30 6162 H 579.138 3.25733 0.23782 0
M  V30 6163 H 577.797 3.14036 -1.89148 0
M  V30 6164 H 577.445 5.02208 -0.282128 0
M  V30 6165 H 577.145 5.53939 -1.96023 0
M  V30 6166 H 578.669 5.99713 -1.14789 0
M  V30 6167 H 580.083 4.82625 -3.09428 0
M  V30 6168 H 578.48 4.60094 -3.85271 0
M  V30 6169 H 579.55 3.20347 -3.64014 0
M  V30 6170 N 580.893 1.08022 1.14757 0
M  V30 6171 C 582.121 0.828847 1.89572 0
M  V30 6172 C 582.536 -0.618621 1.78377 0
M  V30 6173 O 581.893 -1.42482 1.1404 0
M  V30 6174 C 581.944 1.23677 3.39685 0
M  V30 6175 O 581.665 2.62746 3.50566 0
M  V30 6176 C 583.166 1.01569 4.31507 0
M  V30 6177 H 580.386 0.299196 0.600602 0
M  V30 6178 H 582.93 1.43846 1.45357 0
M  V30 6179 H 581.085 0.671347 3.81539 0
M  V30 6180 H 581.499 2.79573 4.43778 0
M  V30 6181 H 582.973 1.35055 5.35223 0
M  V30 6182 H 583.45 -0.0475433 4.39174 0
M  V30 6183 H 584.056 1.56636 3.95405 0
M  V30 6184 N 582.371 -1.3172 0.865308 0
M  V30 6185 C 583.301 -2.31109 0.333302 0
M  V30 6186 C 584.282 -1.60148 -0.573301 0
M  V30 6187 O 585.467 -1.87882 -0.491305 0
M  V30 6188 C 582.597 -3.44104 -0.470078 0
M  V30 6189 C 581.551 -4.26623 0.343021 0
M  V30 6190 C 580.877 -5.31482 -0.585756 0
M  V30 6191 C 582.177 -4.98001 1.57456 0
M  V30 6192 H 583.871 -2.75855 1.1638 0
M  V30 6193 H 581.417 -1.3262 0.561069 0
M  V30 6194 H 583.37 -4.12682 -0.852752 0
M  V30 6195 H 582.094 -2.98112 -1.33404 0
M  V30 6196 H 580.753 -3.59707 0.707583 0
M  V30 6197 H 580.401 -4.81741 -1.44686 0
M  V30 6198 H 580.101 -5.87582 -0.0456494 0
M  V30 6199 H 581.625 -6.0292 -0.965375 0
M  V30 6200 H 583.039 -5.59201 1.26359 0
M  V30 6201 H 581.436 -5.63876 2.05339 0
M  V30 6202 H 582.506 -4.25253 2.32997 0
M  V30 6203 N 583.85 -0.624285 -1.44708 0
M  V30 6204 C 584.798 0.0969952 -2.32398 0
M  V30 6205 C 585.792 0.842762 -1.46949 0
M  V30 6206 O 586.998 0.756436 -1.63334 0
M  V30 6207 H 583.373 0.0501306 -0.750327 0
M  V30 6208 H 585.344 -0.660767 -2.90992 0
M  V30 6209 C 584.093 1.06967 -3.30837 0
M  V30 6210 H 583.416 0.505242 -3.96595 0
M  V30 6211 H 584.856 1.54397 -3.94889 0
M  V30 6212 C 583.315 2.15153 -2.5925 0
M  V30 6213 O 583.845 3.23139 -2.3863 0
M  V30 6214 N 582.051 1.90898 -2.19103 0
M  V30 6215 H 581.598 1.03086 -2.36074 0
M  V30 6216 H 581.556 2.63485 -1.71531 0
M  V30 6217 N 585.328 1.53329 -0.364422 0
M  V30 6218 C 586.275 2.25698 0.482607 0
M  V30 6219 C 587.245 1.26325 1.07848 0
M  V30 6220 O 588.43 1.55104 1.11119 0
M  V30 6221 C 585.57 3.04873 1.61699 0
M  V30 6222 C 584.683 4.19135 1.0464 0
M  V30 6223 C 583.818 4.85754 2.14979 0
M  V30 6224 C 582.857 5.9205 1.5538 0
M  V30 6225 N 581.994 6.52365 2.59547 0
M  V30 6226 H 586.834 2.97666 -0.141032 0
M  V30 6227 H 584.371 1.46875 -0.0813692 0
M  V30 6228 H 586.329 3.49051 2.28516 0
M  V30 6229 H 584.959 2.35162 2.2113 0
M  V30 6230 H 584.011 3.79451 0.268553 0
M  V30 6231 H 585.323 4.95525 0.570653 0
M  V30 6232 H 584.477 5.3311 2.89619 0
M  V30 6233 H 583.216 4.08834 2.65906 0
M  V30 6234 H 582.221 5.44058 0.792549 0
M  V30 6235 H 583.446 6.7089 1.0528 0
M  V30 6236 H 581.392 5.78298 3.09689 0
M  V30 6237 H 581.309 7.2429 2.16655 0
M  V30 6238 H 582.577 7.0437 3.33892 0
M  V30 6239 N 586.806 0.0935595 1.57322 0
M  V30 6240 C 588.054 -0.569383 1.93913 0
M  V30 6241 C 588.375 -1.68817 0.976009 0
M  V30 6242 O 587.645 -1.9588 0.0278099 0
M  V30 6243 H 586.225 -0.21332 0.715894 0
M  V30 6244 H 588.887 0.156531 1.9427 0
M  V30 6245 H 587.983 -0.980577 2.96296 0
M  V30 6246 N 588.284 -1.56567 -0.180126 0
M  V30 6247 C 589.532 -1.81133 -0.896392 0
M  V30 6248 C 589.853 -0.669114 -1.83161 0
M  V30 6249 O 589.123 0.311616 -1.93406 0
M  V30 6250 H 587.703 -0.668172 -0.333999 0
M  V30 6251 H 590.365 -1.94048 -0.182051 0
M  V30 6252 H 589.461 -2.74854 -1.47857 0
M  V30 6253 N 589.762 0.448376 -1.51087 0
M  V30 6254 C 590.71 1.56407 -1.72161 0
M  V30 6255 C 591.704 1.58878 -0.587721 0
M  V30 6256 O 592.91 1.62755 -0.768822 0
M  V30 6257 H 589.285 0.519423 -0.543786 0
M  V30 6258 H 591.256 1.35803 -2.65707 0
M  V30 6259 C 590.005 2.94163 -1.85373 0
M  V30 6260 H 589.328 2.9299 -2.72024 0
M  V30 6261 H 590.768 3.71625 -2.04135 0
M  V30 6262 C 589.227 3.31317 -0.610803 0
M  V30 6263 O 589.757 4.00985 0.239636 0
M  V30 6264 N 587.963 2.86966 -0.458127 0
M  V30 6265 H 587.51 2.30443 -1.15124 0
M  V30 6266 H 587.468 3.12188 0.372289 0
M  V30 6267 N 591.24 1.41047 0.703093 0
M  V30 6268 C 592.48 1.41461 1.4754 0
M  V30 6269 C 592.844 0.0199013 1.9199 0
M  V30 6270 O 594.045 -0.101138 2.6861 0
M  V30 6271 C 592.316 2.38703 2.66 0
M  V30 6272 S 593.875 2.57582 3.55242 0
M  V30 6273 H 590.693 0.501226 0.504275 0
M  V30 6274 H 593.295 1.77422 0.821074 0
M  V30 6275 H 591.999 3.3885 2.31536 0
M  V30 6276 H 591.53 2.04069 3.36333 0
M  V30 6277 H 593.545 1.83758 4.6092 0
M  V30 6278 N 592.718 -0.936591 1.26751 0
M  V30 6279 C 593.648 -2.05315 1.11212 0
M  V30 6280 C 594.629 -1.70092 0.0160262 0
M  V30 6281 O 595.814 -1.93279 0.188894 0
M  V30 6282 C 592.944 -3.39123 0.749171 0
M  V30 6283 C 591.898 -3.88425 1.79751 0
M  V30 6284 C 591.224 -5.18936 1.28876 0
M  V30 6285 C 592.524 -4.12798 3.19992 0
M  V30 6286 H 594.218 -2.18573 2.04613 0
M  V30 6287 H 591.764 -1.05027 0.985159 0
M  V30 6288 H 593.717 -4.16704 0.627323 0
M  V30 6289 H 592.441 -3.25855 -0.220543 0
M  V30 6290 H 591.1 -3.13028 1.90811 0
M  V30 6291 H 590.748 -5.02051 0.308757 0
M  V30 6292 H 590.448 -5.52892 1.98958 0
M  V30 6293 H 591.972 -5.99096 1.17967 0
M  V30 6294 H 593.386 -4.80977 3.11983 0
M  V30 6295 H 591.783 -4.58044 3.87705 0
M  V30 6296 H 592.853 -3.18412 3.65707 0
M  V30 6297 N 594.196 -1.08629 -1.14182 0
M  V30 6298 C 595.126 -0.740003 -2.21464 0
M  V30 6299 C 596.107 0.278591 -1.67803 0
M  V30 6300 O 597.292 0.148461 -1.93632 0
M  V30 6301 C 594.422 -0.150952 -3.46972 0
M  V30 6302 C 593.376 -1.09815 -4.13672 0
M  V30 6303 C 592.702 -0.3712 -5.3341 0
M  V30 6304 C 594.002 -2.43722 -4.61949 0
M  V30 6305 H 595.696 -1.63697 -2.50686 0
M  V30 6306 H 593.242 -0.788526 -1.20492 0
M  V30 6307 H 595.195 0.103325 -4.21273 0
M  V30 6308 H 593.919 0.781164 -3.1712 0
M  V30 6309 H 592.578 -1.33756 -3.41328 0
M  V30 6310 H 592.226 0.564792 -4.99819 0
M  V30 6311 H 591.926 -1.00267 -5.78982 0
M  V30 6312 H 593.45 -0.12503 -6.10472 0
M  V30 6313 H 594.864 -2.24034 -5.27714 0
M  V30 6314 H 593.261 -3.02582 -5.18232 0
M  V30 6315 H 594.331 -3.05082 -3.76899 0
M  V30 6316 N 595.674 1.31259 -0.872281 0
M  V30 6317 C 596.622 2.30404 -0.318897 0
M  V30 6318 C 597.616 1.5962 0.567267 0
M  V30 6319 O 598.822 1.74204 0.453111 0
M  V30 6320 H 595.197 0.747243 -0.0844474 0
M  V30 6321 H 597.168 2.74549 -1.16899 0
M  V30 6322 C 595.917 3.44608 0.462683 0
M  V30 6323 H 595.24 3.99248 -0.209936 0
M  V30 6324 H 596.68 4.1609 0.815187 0
M  V30 6325 C 595.139 2.93456 1.65485 0
M  V30 6326 O 595.669 2.92418 2.75417 0
M  V30 6327 N 593.875 2.49628 1.48776 0
M  V30 6328 H 593.422 2.50671 0.593452 0
M  V30 6329 H 593.38 2.15759 2.28682 0
M  V30 6330 N 597.152 0.631951 1.44375 0
M  V30 6331 C 598.401 0.134214 2.01253 0
M  V30 6332 C 598.714 -1.25171 1.50305 0
M  V30 6333 O 599.92 -1.8435 1.99317 0
M  V30 6334 C 598.376 0.189187 3.59402 0
M  V30 6335 C 597.984 1.57647 4.19346 0
M  V30 6336 C 599.728 -0.252044 4.23751 0
M  V30 6337 C 597.635 1.58651 5.69722 0
M  V30 6338 H 596.565 0.0464101 0.75257 0
M  V30 6339 H 599.216 0.790868 1.65582 0
M  V30 6340 H 597.598 -0.534584 3.92375 0
M  V30 6341 H 598.772 2.32389 3.97909 0
M  V30 6342 H 597.087 1.96186 3.67288 0
M  V30 6343 H 599.684 -0.264084 5.34047 0
M  V30 6344 H 600.027 -1.27951 3.96149 0
M  V30 6345 H 600.56 0.41926 3.95584 0
M  V30 6346 H 597.299 2.59237 6.0206 0
M  V30 6347 H 596.819 0.882039 5.93279 0
M  V30 6348 H 598.498 1.32082 6.33375 0
M  V30 6349 N 598.631 -1.53133 0.372548 0
M  V30 6350 C 600.042 -1.86404 -0.105155 0
M  V30 6351 C 600.393 -1.29289 -1.47576 0
M  V30 6352 O 599.518 -0.617646 -2.07398 0
M  V30 6353 C 600.113 -3.38223 -0.197588 0
M  V30 6354 C 598.672 -3.71266 -0.619556 0
M  V30 6355 C 597.819 -2.76353 0.228919 0
M  V30 6356 H 600.77 -1.47282 0.591077 0
M  V30 6357 H 600.791 -3.66577 -1.01987 0
M  V30 6358 H 600.303 -3.79763 0.800099 0
M  V30 6359 H 598.404 -3.35287 -1.62522 0
M  V30 6360 H 598.517 -4.77515 -0.389332 0
M  V30 6361 H 596.881 -2.52888 -0.303271 0
M  V30 6362 H 597.664 -3.20728 1.22428 0
M  V30 6363 N 600.109 -0.101901 -1.5727 0
M  V30 6364 C 601.056 0.854577 -2.14396 0
M  V30 6365 C 602.026 1.27521 -1.06432 0
M  V30 6366 O 603.211 1.35575 -1.34253 0
M  V30 6367 C 600.351 2.10576 -2.73408 0
M  V30 6368 C 599.464 1.73504 -3.95626 0
M  V30 6369 C 598.599 2.9346 -4.42781 0
M  V30 6370 C 597.638 2.52547 -5.57572 0
M  V30 6371 N 596.775 3.65359 -5.99547 0
M  V30 6372 H 601.615 0.360578 -2.9581 0
M  V30 6373 H 599.152 0.166303 -1.46157 0
M  V30 6374 H 601.11 2.83859 -3.05745 0
M  V30 6375 H 599.74 2.57463 -1.94711 0
M  V30 6376 H 598.792 0.901622 -3.6956 0
M  V30 6377 H 600.104 1.39426 -4.78917 0
M  V30 6378 H 599.258 3.74988 -4.76937 0
M  V30 6379 H 597.997 3.30753 -3.58404 0
M  V30 6380 H 597.002 1.69446 -5.23037 0
M  V30 6381 H 598.227 2.1639 -6.43702 0
M  V30 6382 H 596.173 4.02358 -5.18116 0
M  V30 6383 H 596.09 3.35148 -6.77652 0
M  V30 6384 H 597.358 4.47378 -6.38336 0
M  V30 6385 N 601.587 1.56661 0.17182 0
M  V30 6386 C 602.998 1.71652 0.734329 0
M  V30 6387 C 603.349 0.712335 1.82812 0
M  V30 6388 O 602.474 -0.126401 2.16031 0
M  V30 6389 C 603.069 3.11226 1.3388 0
M  V30 6390 C 601.628 3.27904 1.84813 0
M  V30 6391 C 600.775 2.67603 0.726917 0
M  V30 6392 H 603.726 1.5861 -0.0535665 0
M  V30 6393 H 603.747 3.09849 2.20849 0
M  V30 6394 H 603.259 3.8429 0.54249 0
M  V30 6395 H 601.36 2.59796 2.6709 0
M  V30 6396 H 601.473 4.35637 1.99392 0
M  V30 6397 H 599.837 2.274 1.14723 0
M  V30 6398 H 600.62 3.43252 -0.0575334 0
M  V30 6399 N 603.065 -0.440357 1.51323 0
M  V30 6400 C 604.342 -1.20109 1.5438 0
M  V30 6401 C 604.722 -2.08866 0.306303 0
M  V30 6402 O 604.07 -2.1723 -0.708773 0
M  V30 6403 C 604.28 -2.00555 2.8562 0
M  V30 6404 C 605.628 -2.577 3.37455 0
M  V30 6405 O 606.652 -2.10769 2.8715 0
M  V30 6406 O 605.511 -3.43289 4.25224 0
M  V30 6407 H 602.605 -0.546668 0.620551 0
M  V30 6408 H 605.151 -0.449672 1.63634 0
M  V30 6409 H 603.923 -1.35346 3.67147 0
M  V30 6410 H 603.546 -2.82768 2.79514 0
M  V30 6411 N 604.543 -1.41418 -0.695603 0
M  V30 6412 C 605.453 -1.45622 -1.83933 0
M  V30 6413 C 606.469 -0.346825 -1.70508 0
M  V30 6414 O 607.645 -0.59454 -1.92424 0
M  V30 6415 C 604.71 -1.33627 -3.19914 0
M  V30 6416 C 603.771 -2.54882 -3.45447 0
M  V30 6417 C 603.004 -2.43449 -4.7494 0
M  V30 6418 O 603.227 -1.45905 -5.51424 0
M  V30 6419 O 602.161 -3.33206 -5.01256 0
M  V30 6420 H 605.987 -2.42114 -1.83342 0
M  V30 6421 H 603.572 -1.22956 -0.848658 0
M  V30 6422 H 605.454 -1.29221 -4.01098 0
M  V30 6423 H 604.129 -0.402508 -3.21188 0
M  V30 6424 H 603.036 -2.64865 -2.64192 0
M  V30 6425 H 604.369 -3.47087 -3.48987 0
M  V30 6426 N 606.021 0.929856 -1.27246 0
M  V30 6427 C 606.984 2.01172 -1.09829 0
M  V30 6428 C 607.984 1.60743 -0.0429687 0
M  V30 6429 O 609.174 1.71813 -0.287373 0
M  V30 6430 C 606.306 3.34191 -0.673003 0
M  V30 6431 H 607.499 2.18054 -2.05895 0
M  V30 6432 H 605.052 1.11036 -1.10003 0
M  V30 6433 H 605.787 3.23009 0.289134 0
M  V30 6434 H 605.572 3.64892 -1.43515 0
M  V30 6435 H 607.062 4.13646 -0.573323 0
M  V30 6436 N 607.499 1.09233 1.13605 0
M  V30 6437 C 608.729 0.847677 1.88409 0
M  V30 6438 C 609.137 -0.604524 1.79282 0
M  V30 6439 O 608.48 -1.42773 1.15592 0
M  V30 6440 C 608.542 1.20153 3.38827 0
M  V30 6441 C 608.206 2.65824 3.71735 0
M  V30 6442 C 609.203 3.64072 3.71143 0
M  V30 6443 C 606.888 3.01894 4.01454 0
M  V30 6444 C 608.882 4.96419 3.99808 0
M  V30 6445 C 606.569 4.34433 4.29781 0
M  V30 6446 C 607.567 5.31505 4.28942 0
M  V30 6447 O 607.255 6.61659 4.56576 0
M  V30 6448 H 606.987 0.304813 0.603378 0
M  V30 6449 H 609.541 1.4573 1.44748 0
M  V30 6450 H 607.771 0.534946 3.82982 0
M  V30 6451 H 609.46 0.936349 3.94952 0
M  V30 6452 H 610.226 3.37549 3.4826 0
M  V30 6453 H 606.105 2.26971 4.01255 0
M  V30 6454 H 609.649 5.7218 3.99069 0
M  V30 6455 H 605.546 4.607 4.52135 0
M  V30 6456 H 606.314 6.67102 4.74254 0
M  V30 6457 N 608.977 -1.30795 0.87923 0
M  V30 6458 C 610.202 -2.01063 0.508769 0
M  V30 6459 C 610.627 -1.65508 -0.893803 0
M  V30 6460 O 609.985 -0.868616 -1.59138 0
M  V30 6461 C 610.033 -3.54054 0.683991 0
M  V30 6462 O 609.137 -4.11498 -0.272654 0
M  V30 6463 H 608.478 -0.632786 0.201191 0
M  V30 6464 H 611.008 -1.66776 1.18519 0
M  V30 6465 H 611.018 -4.03845 0.580798 0
M  V30 6466 H 609.693 -3.79271 1.70665 0
M  V30 6467 H 608.27 -3.72695 -0.12364 0
M  V30 6468 N 610.455 -0.639598 -1.44038 0
M  V30 6469 C 611.418 0.0506628 -2.29144 0
M  V30 6470 C 612.418 0.764001 -1.41491 0
M  V30 6471 O 613.608 0.607309 -1.63271 0
M  V30 6472 C 610.74 1.0824 -3.2326 0
M  V30 6473 H 611.933 -0.697987 -2.91664 0
M  V30 6474 H 609.486 -0.400146 -1.51091 0
M  V30 6475 H 610.221 1.86075 -2.65606 0
M  V30 6476 H 610.006 0.574725 -3.87865 0
M  V30 6477 H 611.496 1.56487 -3.87171 0
M  V30 6478 N 611.933 1.52934 -0.380664 0
M  V30 6479 C 613.344 1.86457 0.0952684 0
M  V30 6480 C 613.695 1.3007 1.46889 0
M  V30 6481 O 612.82 0.628636 2.07068 0
M  V30 6482 C 613.415 3.38323 0.179648 0
M  V30 6483 C 611.974 3.71589 0.599858 0
M  V30 6484 C 611.121 2.76228 -0.243572 0
M  V30 6485 H 614.072 1.46966 -0.59888 0
M  V30 6486 H 614.093 3.67113 1.00042 0
M  V30 6487 H 613.605 3.79333 -0.820228 0
M  V30 6488 H 611.706 3.36144 1.60742 0
M  V30 6489 H 611.819 4.77715 0.364003 0
M  V30 6490 H 610.183 2.53045 0.289855 0
M  V30 6491 H 610.966 3.20074 -1.24127 0
M  V30 6492 N 613.412 0.11024 1.57214 0
M  V30 6493 C 614.637 -0.561179 1.99664 0
M  V30 6494 C 615.062 -1.59985 0.989266 0
M  V30 6495 O 614.42 -1.81255 -0.0402399 0
M  V30 6496 C 614.468 -1.17189 3.41027 0
M  V30 6497 O 613.572 -2.28755 3.4314 0
M  V30 6498 H 612.913 -0.14101 0.648855 0
M  V30 6499 H 615.443 0.196128 2.03658 0
M  V30 6500 H 615.453 -1.50954 3.79047 0
M  V30 6501 H 614.128 -0.411041 4.13864 0
M  V30 6502 H 612.705 -1.96495 3.16929 0
M  V30 6503 N 614.89 -1.56749 -0.16351 0
M  V30 6504 C 616.13 -1.84234 -0.885271 0
M  V30 6505 C 616.494 -0.692259 -1.79086 0
M  V30 6506 O 617.695 -0.847747 -2.55082 0
M  V30 6507 C 615.966 -3.16857 -1.65337 0
M  V30 6508 S 617.525 -3.65848 -2.42282 0
M  V30 6509 H 614.343 -0.646293 -0.296354 0
M  V30 6510 H 616.945 -1.94951 -0.146365 0
M  V30 6511 H 615.649 -3.98546 -0.979266 0
M  V30 6512 H 615.18 -3.09102 -2.4335 0
M  V30 6513 H 617.195 -3.33796 -3.67143 0
M  V30 6514 N 616.368 0.432326 -1.51554 0
M  V30 6515 C 617.616 1.17901 -1.64146 0
M  V30 6516 C 617.937 1.91604 -0.362367 0
M  V30 6517 O 617.207 1.85764 0.621968 0
M  V30 6518 H 615.787 0.438206 -0.604966 0
M  V30 6519 H 618.449 0.495172 -1.88505 0
M  V30 6520 H 617.545 1.90584 -2.47152 0
M  V30 6521 N 617.846 1.41785 0.688094 0
M  V30 6522 C 618.794 1.44436 1.82321 0
M  V30 6523 C 619.788 0.321544 1.6632 0
M  V30 6524 O 620.994 0.493931 1.73091 0
M  V30 6525 H 617.369 0.452084 0.600936 0
M  V30 6526 H 619.34 2.40087 1.77202 0
M  V30 6527 C 618.089 1.35071 3.20392 0
M  V30 6528 H 617.412 2.2076 3.33324 0
M  V30 6529 H 618.852 1.40988 3.99873 0
M  V30 6530 C 617.311 0.0639127 3.36839 0
M  V30 6531 O 617.841 -0.888495 3.91751 0
M  V30 6532 N 616.047 -0.0146114 2.90596 0
M  V30 6533 H 615.594 0.761191 2.46097 0
M  V30 6534 H 615.552 -0.874988 3.01979 0
M  V30 6535 N 619.324 -0.923095 1.27737 0
M  V30 6536 C 620.271 -2.02432 1.1086 0
M  V30 6537 C 621.241 -1.66098 0.00835195 0
M  V30 6538 O 622.426 -1.90027 0.171542 0
M  V30 6539 C 619.566 -3.36476 0.766671 0
M  V30 6540 C 618.679 -3.85737 1.94501 0
M  V30 6541 C 617.814 -5.08249 1.54455 0
M  V30 6542 C 616.853 -5.49818 2.6901 0
M  V30 6543 N 615.99 -6.63524 2.29521 0
M  V30 6544 H 620.83 -2.16201 2.05089 0
M  V30 6545 H 618.367 -1.05909 1.02087 0
M  V30 6546 H 620.325 -4.13569 0.549223 0
M  V30 6547 H 618.955 -3.22502 -0.13867 0
M  V30 6548 H 618.007 -3.04883 2.27487 0
M  V30 6549 H 619.319 -4.12513 2.80419 0
M  V30 6550 H 618.473 -5.92857 1.28862 0
M  V30 6551 H 617.212 -4.83261 0.656534 0
M  V30 6552 H 616.217 -4.63757 2.95313 0
M  V30 6553 H 617.442 -5.76799 3.5844 0
M  V30 6554 H 615.388 -6.40185 1.43177 0
M  V30 6555 H 615.305 -6.89978 3.08977 0
M  V30 6556 H 616.573 -7.51461 2.07187 0
M  V30 6557 N 620.802 -1.09834 -1.13024 0
M  V30 6558 C 621.732 -0.763451 -2.20666 0
M  V30 6559 C 622.713 0.260778 -1.68089 0
M  V30 6560 O 623.898 0.127915 -1.93778 0
M  V30 6561 C 621.028 -0.187744 -3.46792 0
M  V30 6562 C 619.982 -1.14196 -4.12484 0
M  V30 6563 C 619.308 -0.427755 -5.32986 0
M  V30 6564 C 620.608 -2.48607 -4.59338 0
M  V30 6565 H 622.302 -1.66347 -2.48936 0
M  V30 6566 H 619.848 -0.801261 -1.19649 0
M  V30 6567 H 621.801 0.0586375 -4.21359 0
M  V30 6568 H 620.525 0.747485 -3.17931 0
M  V30 6569 H 619.184 -1.37369 -3.3989 0
M  V30 6570 H 618.832 0.511747 -5.0039 0
M  V30 6571 H 618.532 -1.06403 -5.77886 0
M  V30 6572 H 620.056 -0.189772 -6.10305 0
M  V30 6573 H 621.47 -2.29618 -5.25308 0
M  V30 6574 H 619.867 -3.08062 -5.14993 0
M  V30 6575 H 620.937 -3.09062 -3.73642 0
M  V30 6576 N 622.28 1.30327 -0.886154 0
M  V30 6577 C 623.526 1.96388 -0.505941 0
M  V30 6578 C 623.859 1.69784 0.942712 0
M  V30 6579 O 623.134 1.00322 1.6663 0
M  V30 6580 C 623.417 3.51488 -0.782826 0
M  V30 6581 C 623.27 3.87603 -2.28219 0
M  V30 6582 C 624.589 4.39331 -0.260128 0
M  V30 6583 H 621.708 0.713327 -0.185292 0
M  V30 6584 H 624.35 1.54178 -1.11036 0
M  V30 6585 H 622.5 3.87572 -0.268399 0
M  V30 6586 H 624.172 3.61537 -2.86512 0
M  V30 6587 H 622.415 3.3563 -2.74837 0
M  V30 6588 H 623.086 4.95806 -2.42653 0
M  V30 6589 H 625.562 4.10162 -0.700444 0
M  V30 6590 H 624.438 5.46769 -0.483179 0
M  V30 6591 H 624.699 4.34072 0.838674 0
M  V30 6592 N 623.758 0.647228 1.43697 0
M  V30 6593 C 625.035 0.0883758 1.954 0
M  V30 6594 C 625.415 -1.39006 1.58873 0
M  V30 6595 O 624.763 -2.11255 0.87083 0
M  V30 6596 C 624.973 0.328263 3.47453 0
M  V30 6597 C 626.321 0.230009 4.23977 0
M  V30 6598 O 627.345 0.260496 3.55246 0
M  V30 6599 O 626.204 0.148615 5.46298 0
M  V30 6600 H 623.298 -0.0130683 0.826897 0
M  V30 6601 H 625.844 0.72005 1.53666 0
M  V30 6602 H 624.616 1.3535 3.67146 0
M  V30 6603 H 624.239 -0.336772 3.96171 0
M  V30 6604 N 625.236 -1.5273 0.388769 0
M  V30 6605 C 626.199 -2.25043 -0.434544 0
M  V30 6606 C 627.199 -1.26661 -0.990644 0
M  V30 6607 O 628.389 -1.50762 -0.872731 0
M  V30 6608 C 625.521 -3.00507 -1.60961 0
M  V30 6609 H 626.714 -2.99242 0.198549 0
M  V30 6610 H 624.267 -1.55664 0.140875 0
M  V30 6611 H 625.002 -2.30607 -2.28015 0
M  V30 6612 H 624.787 -3.72716 -1.21757 0
M  V30 6613 H 626.277 -3.55413 -2.19251 0
M  V30 6614 N 626.714 -0.118576 -1.57153 0
M  V30 6615 C 627.962 0.538461 -1.94795 0
M  V30 6616 C 628.283 1.67243 -1.00274 0
M  V30 6617 O 627.553 1.95811 -0.0589692 0
M  V30 6618 H 626.133 0.201904 -0.719197 0
M  V30 6619 H 628.795 -0.187418 -1.93997 0
M  V30 6620 H 627.891 0.933315 -2.97818 0
M  V30 6621 N 628.193 1.56834 0.155195 0
M  V30 6622 C 629.103 2.009 1.21146 0
M  V30 6623 C 630.119 0.923029 1.475 0
M  V30 6624 O 631.295 1.23189 1.59331 0
M  V30 6625 C 628.36 2.37378 2.52691 0
M  V30 6626 C 627.421 3.59883 2.34057 0
M  V30 6627 C 626.654 3.94612 3.59329 0
M  V30 6628 O 626.877 3.30104 4.65175 0
M  V30 6629 O 625.811 4.87895 3.52479 0
M  V30 6630 H 629.637 2.9105 0.867371 0
M  V30 6631 H 627.222 1.44916 0.363298 0
M  V30 6632 H 629.104 2.61737 3.3026 0
M  V30 6633 H 627.779 1.50385 2.86646 0
M  V30 6634 H 626.686 3.40722 1.54465 0
M  V30 6635 H 628.019 4.47468 2.0502 0
M  V30 6636 N 629.671 -0.424282 1.51781 0
M  V30 6637 C 630.581 -1.54087 1.76902 0
M  V30 6638 C 631.597 -1.61249 0.653826 0
M  V30 6639 O 632.773 -1.78247 0.937552 0
M  V30 6640 C 629.838 -2.8996 1.90063 0
M  V30 6641 C 628.899 -2.92809 3.13945 0
M  V30 6642 C 628.132 -4.22201 3.26469 0
M  V30 6643 O 628.355 -5.15286 2.44616 0
M  V30 6644 O 627.289 -4.31599 4.1953 0
M  V30 6645 H 631.115 -1.358 2.71647 0
M  V30 6646 H 628.7 -0.608618 1.36441 0
M  V30 6647 H 630.582 -3.70575 2.0063 0
M  V30 6648 H 629.257 -3.08347 0.985067 0
M  V30 6649 H 628.164 -2.11102 3.08847 0
M  V30 6650 H 629.497 -2.79369 4.05233 0
M  V30 6651 N 631.149 -1.42148 -0.680565 0
M  V30 6652 C 632.389 -1.4379 -1.45271 0
M  V30 6653 C 632.753 -0.0504426 -1.91934 0
M  V30 6654 O 633.954 0.0583916 -2.68737 0
M  V30 6655 C 632.225 -2.42904 -2.62168 0
M  V30 6656 S 633.784 -2.63201 -3.51099 0
M  V30 6657 H 630.602 -0.509185 -0.496237 0
M  V30 6658 H 633.204 -1.78706 -0.792744 0
M  V30 6659 H 631.908 -3.4249 -2.26116 0
M  V30 6660 H 631.439 -2.09394 -3.33043 0
M  V30 6661 H 633.454 -1.91068 -4.57938 0
M  V30 6662 N 632.627 0.916307 -1.28225 0
M  V30 6663 C 633.904 1.64429 -1.05936 0
M  V30 6664 C 634.284 2.07234 0.402139 0
M  V30 6665 O 633.632 1.81535 1.3877 0
M  V30 6666 C 633.842 2.83773 -2.03159 0
M  V30 6667 C 635.19 3.54852 -2.33164 0
M  V30 6668 O 636.214 2.93918 -2.01223 0
M  V30 6669 O 635.073 4.64663 -2.87664 0
M  V30 6670 H 632.167 0.721221 -0.404683 0
M  V30 6671 H 634.713 0.965838 -1.39534 0
M  V30 6672 H 633.485 2.49217 -3.01673 0
M  V30 6673 H 633.108 3.59333 -1.70192 0
M  V30 6674 N 634.105 1.10431 1.1244 0
M  V30 6675 C 635.345 0.856518 1.85589 0
M  V30 6676 C 635.709 -0.606905 1.82156 0
M  V30 6677 O 636.91 -0.97105 2.50647 0
M  V30 6678 C 635.181 1.38977 3.29272 0
M  V30 6679 S 636.74 1.27739 4.19795 0
M  V30 6680 H 633.558 0.309509 0.640098 0
M  V30 6681 H 636.16 1.40975 1.35449 0
M  V30 6682 H 634.864 2.44887 3.2933 0
M  V30 6683 H 634.395 0.833112 3.84477 0
M  V30 6684 H 636.41 0.235051 4.95643 0
M  V30 6685 N 635.583 -1.29855 0.893053 0
M  V30 6686 C 636.831 -1.9544 0.514566 0
M  V30 6687 C 637.152 -1.70795 -0.940959 0
M  V30 6688 O 636.422 -1.03601 -1.66264 0
M  V30 6689 H 635.002 -0.723137 0.187302 0
M  V30 6690 H 637.664 -1.58234 1.13789 0
M  V30 6691 H 636.76 -3.04341 0.691581 0
M  V30 6692 N 637.061 -0.65484 -1.43351 0
M  V30 6693 C 638.289 -0.176685 -2.06144 0
M  V30 6694 C 638.704 1.15831 -1.49093 0
M  V30 6695 O 638.061 1.71542 -0.622868 0
M  V30 6696 C 638.112 -0.0813326 -3.61408 0
M  V30 6697 O 637.833 -1.36355 -4.1634 0
M  V30 6698 C 639.334 0.422706 -4.4128 0
M  V30 6699 H 636.554 -0.0906429 -0.66485 0
M  V30 6700 H 639.098 -0.895945 -1.83829 0
M  V30 6701 H 637.253 0.588496 -3.82904 0
M  V30 6702 H 637.667 -1.22381 -5.10023 0
M  V30 6703 H 639.141 0.438375 -5.50257 0
M  V30 6704 H 639.618 1.45432 -4.14423 0
M  V30 6705 H 640.224 -0.214687 -4.24758 0
M  V30 6706 N 638.539 1.52521 -0.396863 0
M  V30 6707 C 639.95 1.86547 0.0754868 0
M  V30 6708 C 640.301 1.31621 1.45501 0
M  V30 6709 O 639.426 0.650563 2.0639 0
M  V30 6710 C 640.021 3.38495 0.143754 0
M  V30 6711 C 638.58 3.72205 0.560413 0
M  V30 6712 C 637.727 2.75954 -0.272856 0
M  V30 6713 H 640.678 1.46323 -0.614434 0
M  V30 6714 H 640.699 3.68153 0.961425 0
M  V30 6715 H 640.211 3.78442 -0.860415 0
M  V30 6716 H 638.312 3.3783 1.57167 0
M  V30 6717 H 638.425 4.78074 0.313314 0
M  V30 6718 H 636.789 2.53339 0.263 0
M  V30 6719 H 637.572 3.1874 -1.27515 0
M  V30 6720 N 640.017 0.126909 1.57088 0
M  V30 6721 C 640.964 -0.82036 2.15728 0
M  V30 6722 C 641.934 -1.25811 1.08447 0
M  V30 6723 O 643.119 -1.33422 1.36393 0
M  V30 6724 C 640.259 -2.06199 2.76724 0
M  V30 6725 C 639.372 -1.67188 3.98337 0
M  V30 6726 C 638.507 -2.86378 4.47393 0
M  V30 6727 C 637.546 -2.43644 5.61519 0
M  V30 6728 N 636.683 -3.55775 6.05284 0
M  V30 6729 H 641.523 -0.313472 2.96347 0
M  V30 6730 H 639.06 -0.14303 1.46403 0
M  V30 6731 H 641.018 -2.78959 3.10222 0
M  V30 6732 H 639.648 -2.54333 1.98782 0
M  V30 6733 H 638.7 -0.842714 3.70948 0
M  V30 6734 H 640.012 -1.31789 4.81075 0
M  V30 6735 H 639.166 -3.67353 4.82842 0
M  V30 6736 H 637.905 -3.25009 3.63621 0
M  V30 6737 H 636.91 -1.61104 5.25667 0
M  V30 6738 H 638.135 -2.06122 6.47063 0
M  V30 6739 H 636.081 -3.94065 5.24451 0
M  V30 6740 H 635.998 -3.24325 6.82898 0
M  V30 6741 H 637.266 -4.37166 6.45373 0
M  V30 6742 N 641.495 -1.56914 -0.146875 0
M  V30 6743 C 642.405 -2.0154 -1.20079 0
M  V30 6744 C 643.421 -0.930838 -1.47008 0
M  V30 6745 O 644.597 -1.24032 -1.58676 0
M  V30 6746 C 641.662 -2.38715 -2.51428 0
M  V30 6747 C 640.723 -3.6112 -2.32145 0
M  V30 6748 C 639.956 -3.96512 -3.57231 0
M  V30 6749 O 640.179 -3.32566 -4.63418 0
M  V30 6750 O 639.113 -4.89758 -3.49887 0
M  V30 6751 H 642.939 -2.91506 -0.851924 0
M  V30 6752 H 640.524 -1.45106 -0.355607 0
M  V30 6753 H 642.406 -2.63485 -3.28867 0
M  V30 6754 H 641.081 -1.51903 -2.85845 0
M  V30 6755 H 639.988 -3.41536 -1.52656 0
M  V30 6756 H 641.321 -4.48549 -2.02644 0
M  V30 6757 N 642.974 0.416227 -1.52004 0
M  V30 6758 C 644.214 1.17307 -1.67387 0
M  V30 6759 C 644.578 1.87959 -0.39183 0
M  V30 6760 O 645.779 2.65472 -0.421671 0
M  V30 6761 C 644.05 2.14661 -2.85754 0
M  V30 6762 S 645.609 2.98549 -3.21581 0
M  V30 6763 H 642.427 0.397505 -0.5895 0
M  V30 6764 H 645.029 0.461431 -1.89976 0
M  V30 6765 H 643.733 1.61431 -3.77317 0
M  V30 6766 H 643.264 2.90375 -2.65417 0
M  V30 6767 H 645.279 4.16536 -2.69652 0
M  V30 6768 N 644.452 1.42507 0.673017 0
M  V30 6769 C 645.362 1.4853 1.81593 0
M  V30 6770 C 646.378 0.373907 1.69935 0
M  V30 6771 O 647.554 0.625078 1.91454 0
M  V30 6772 C 644.619 1.387 3.17747 0
M  V30 6773 C 643.68 2.60346 3.41348 0
M  V30 6774 C 642.913 2.50975 4.71007 0
M  V30 6775 O 643.136 1.54659 5.49033 0
M  V30 6776 O 642.07 3.41138 4.95892 0
M  V30 6777 H 645.896 2.45001 1.79467 0
M  V30 6778 H 643.481 1.2429 0.82899 0
M  V30 6779 H 645.363 1.35586 3.98992 0
M  V30 6780 H 644.038 0.453555 3.20507 0
M  V30 6781 H 642.945 2.69034 2.59945 0
M  V30 6782 H 644.278 3.52595 3.43421 0
M  V30 6783 N 645.93 -0.909495 1.28709 0
M  V30 6784 C 646.86 -2.0291 1.15542 0
M  V30 6785 C 647.841 -1.7002 0.0521017 0
M  V30 6786 O 649.026 -1.92835 0.229849 0
M  V30 6787 C 646.156 -3.37458 0.820935 0
M  V30 6788 C 645.11 -3.84524 1.87949 0
M  V30 6789 C 644.436 -5.16086 1.39854 0
M  V30 6790 C 645.736 -4.05918 3.28676 0
M  V30 6791 H 647.43 -2.14183 2.09203 0
M  V30 6792 H 644.976 -1.02913 1.00722 0
M  V30 6793 H 646.929 -4.1528 0.715571 0
M  V30 6794 H 645.653 -3.26249 -0.151374 0
M  V30 6795 H 644.312 -3.08911 1.97408 0
M  V30 6796 H 643.96 -5.01284 0.41518 0
M  V30 6797 H 643.66 -5.48547 2.1064 0
M  V30 6798 H 645.184 -5.96459 1.30649 0
M  V30 6799 H 646.598 -4.74252 3.22115 0
M  V30 6800 H 644.995 -4.49717 3.97334 0
M  V30 6801 H 646.065 -3.10583 3.72379 0
M  V30 6802 N 647.408 -1.11026 -1.11852 0
M  V30 6803 C 648.685 -0.768347 -1.79877 0
M  V30 6804 C 649.065 0.744261 -1.97545 0
M  V30 6805 O 648.413 1.67271 -1.55669 0
M  V30 6806 C 648.623 -1.52648 -3.13846 0
M  V30 6807 C 649.971 -1.70297 -3.88953 0
M  V30 6808 O 650.995 -1.49037 -3.23522 0
M  V30 6809 O 649.854 -2.05593 -5.06353 0
M  V30 6810 H 646.948 -0.277891 -0.778913 0
M  V30 6811 H 649.494 -1.21343 -1.18633 0
M  V30 6812 H 648.266 -2.55564 -2.96315 0
M  V30 6813 H 647.889 -1.07466 -3.82801 0
M  V30 6814 N 648.886 1.2938 -0.899927 0
M  V30 6815 C 650.297 1.77644 -0.574427 0
M  V30 6816 C 650.648 1.73824 0.909928 0
M  V30 6817 O 649.773 1.32429 1.71147 0
M  V30 6818 C 650.368 3.22573 -1.03595 0
M  V30 6819 C 648.927 3.68614 -0.76161 0
M  V30 6820 C 648.074 2.49483 -1.21052 0
M  V30 6821 H 651.025 1.16038 -1.08263 0
M  V30 6822 H 651.046 3.78684 -0.371337 0
M  V30 6823 H 650.558 3.25321 -2.11631 0
M  V30 6824 H 648.659 3.7134 0.306127 0
M  V30 6825 H 648.772 4.59402 -1.35965 0
M  V30 6826 H 647.136 2.46798 -0.629515 0
M  V30 6827 H 647.919 2.54959 -2.29893 0
M  V30 6828 N 650.364 0.662433 1.43002 0
M  V30 6829 C 651.604 0.183312 2.03576 0
M  V30 6830 C 651.968 -1.18354 1.51183 0
M  V30 6831 O 653.169 -1.7566 2.03462 0
M  V30 6832 C 651.44 0.202908 3.56824 0
M  V30 6833 S 652.999 -0.20702 4.38311 0
M  V30 6834 H 649.817 0.0765001 0.706872 0
M  V30 6835 H 652.419 0.872827 1.74934 0
M  V30 6836 H 651.123 1.20028 3.92456 0
M  V30 6837 H 650.654 -0.506845 3.90121 0
M  V30 6838 H 652.669 -1.44358 4.74737 0
M  V30 6839 N 651.842 -1.52309 0.404946 0
M  V30 6840 C 653.082 -2.03677 -0.171779 0
M  V30 6841 C 653.446 -1.28419 -1.42733 0
M  V30 6842 O 654.647 -1.69991 -2.08222 0
M  V30 6843 C 652.918 -3.54951 -0.417701 0
M  V30 6844 S 654.477 -4.28114 -0.962472 0
M  V30 6845 H 651.295 -0.709445 -0.0469912 0
M  V30 6846 H 653.897 -1.874 0.556901 0
M  V30 6847 H 652.601 -4.07306 0.50295 0
M  V30 6848 H 652.132 -3.75462 -1.17437 0
M  V30 6849 H 654.147 -4.42589 -2.24342 0
M  V30 6850 N 653.32 -0.135238 -1.57019 0
M  V30 6851 C 654.23 0.822226 -2.19719 0
M  V30 6852 C 655.246 1.28057 -1.17802 0
M  V30 6853 O 656.422 1.3402 -1.50335 0
M  V30 6854 C 653.487 2.0484 -2.79717 0
M  V30 6855 C 652.548 1.64042 -3.96723 0
M  V30 6856 C 651.781 2.80814 -4.53849 0
M  V30 6857 O 652.004 3.967 -4.0986 0
M  V30 6858 O 650.938 2.56963 -5.44292 0
M  V30 6859 H 654.764 0.318552 -3.02025 0
M  V30 6860 H 652.349 0.0912021 -1.49121 0
M  V30 6861 H 654.231 2.76622 -3.17897 0
M  V30 6862 H 652.906 2.54182 -2.00432 0
M  V30 6863 H 651.813 0.893182 -3.63281 0
M  V30 6864 H 653.146 1.19426 -4.77492 0
M  V30 6865 N 654.798 1.5699 0.138552 0
M  V30 6866 C 656.046 1.83446 0.848053 0
M  V30 6867 C 656.367 0.71744 1.81322 0
M  V30 6868 O 655.637 -0.260228 1.94164 0
M  V30 6869 H 654.217 0.676792 0.316166 0
M  V30 6870 H 656.879 1.94462 0.130538 0
M  V30 6871 H 655.975 2.78677 1.40518 0
M  V30 6872 N 656.276 -0.40816 1.52223 0
M  V30 6873 C 657.501 -1.18127 1.70472 0
M  V30 6874 C 657.926 -1.83491 0.41384 0
M  V30 6875 O 657.284 -1.70047 -0.628778 0
M  V30 6876 C 657.332 -2.21935 2.84213 0
M  V30 6877 O 656.436 -3.28099 2.4985 0
M  V30 6878 H 655.777 -0.344781 0.56747 0
M  V30 6879 H 658.307 -0.478328 1.9893 0
M  V30 6880 H 658.317 -2.66248 3.09153 0
M  V30 6881 H 656.992 -1.73744 3.7787 0
M  V30 6882 H 655.569 -2.89058 2.35584 0
M  V30 6883 N 657.755 -1.42862 -0.66545 0
M  V30 6884 C 658.983 -1.47246 -1.45349 0
M  V30 6885 C 659.398 -0.0865944 -1.88601 0
M  V30 6886 O 658.755 0.900652 -1.58728 0
M  V30 6887 C 658.806 -2.40772 -2.6965 0
M  V30 6888 O 658.527 -3.73968 -2.2821 0
M  V30 6889 C 660.028 -2.54272 -3.63126 0
M  V30 6890 H 657.248 -0.500497 -0.446927 0
M  V30 6891 H 659.792 -1.87477 -0.816871 0
M  V30 6892 H 657.947 -2.0377 -3.29479 0
M  V30 6893 H 658.361 -4.24146 -3.08546 0
M  V30 6894 H 659.835 -3.23815 -4.47043 0
M  V30 6895 H 660.312 -1.58364 -4.09656 0
M  V30 6896 H 660.918 -2.92036 -3.09185 0
M  V30 6897 N 659.233 0.902656 -1.29189 0
M  V30 6898 C 660.473 1.6672 -1.18254 0
M  V30 6899 C 660.837 1.90199 0.262336 0
M  V30 6900 O 662.038 2.6421 0.494612 0
M  V30 6901 C 660.309 2.98178 -1.9704 0
M  V30 6902 S 661.868 3.89226 -2.02605 0
M  V30 6903 H 658.686 0.572432 -0.421714 0
M  V30 6904 H 661.288 1.07279 -1.63436 0
M  V30 6905 H 659.992 2.788 -3.01163 0
M  V30 6906 H 659.523 3.62661 -1.5245 0
M  V30 6907 H 661.538 4.82913 -1.14059 0
M  V30 6908 N 660.711 1.11618 1.11262 0
M  V30 6909 C 661.658 0.7762 2.17356 0
M  V30 6910 C 662.628 -0.253152 1.6416 0
M  V30 6911 O 663.813 -0.129655 1.90359 0
M  V30 6912 C 660.953 0.227581 3.44349 0
M  V30 6913 C 660.066 1.31372 4.1154 0
M  V30 6914 C 659.201 0.72544 5.26223 0
M  V30 6915 C 658.24 1.7913 5.85302 0
M  V30 6916 N 657.377 1.22237 6.91377 0
M  V30 6917 H 662.217 1.68508 2.45783 0
M  V30 6918 H 659.754 0.841475 1.20655 0
M  V30 6919 H 661.712 -0.108483 4.17059 0
M  V30 6920 H 660.342 -0.644486 3.16301 0
M  V30 6921 H 659.394 1.7667 3.36885 0
M  V30 6922 H 660.706 2.12005 4.51504 0
M  V30 6923 H 659.86 0.339541 6.05749 0
M  V30 6924 H 658.599 -0.112188 4.87571 0
M  V30 6925 H 657.604 2.18648 5.04453 0
M  V30 6926 H 658.829 2.63199 6.26022 0
M  V30 6927 H 656.775 0.406423 6.5474 0
M  V30 6928 H 656.692 1.9654 7.30006 0
M  V30 6929 H 657.96 0.863426 7.74703 0
M  V30 6930 N 662.189 -1.289 0.906776 0
M  V30 6931 C 663.119 -2.29932 0.406659 0
M  V30 6932 C 664.1 -1.6189 -0.522061 0
M  V30 6933 O 665.285 -1.8935 -0.431283 0
M  V30 6934 C 662.415 -3.45425 -0.360366 0
M  V30 6935 C 661.369 -4.25316 0.478574 0
M  V30 6936 C 660.695 -5.33076 -0.416373 0
M  V30 6937 C 661.995 -4.92739 1.7322 0
M  V30 6938 H 663.689 -2.72013 1.25097 0
M  V30 6939 H 661.235 -1.30768 0.602977 0
M  V30 6940 H 663.188 -4.15186 -0.721029 0
M  V30 6941 H 661.912 -3.02206 -1.23852 0
M  V30 6942 H 660.571 -3.57273 0.821662 0
M  V30 6943 H 660.219 -4.86101 -1.29287 0
M  V30 6944 H 659.919 -5.8743 0.141309 0
M  V30 6945 H 661.443 -6.05686 -0.773072 0
M  V30 6946 H 662.857 -5.54898 1.44086 0
M  V30 6947 H 661.254 -5.57057 2.23175 0
M  V30 6948 H 662.324 -4.17625 2.46408 0
M  V30 6949 N 663.667 -0.670007 -1.42649 0
M  V30 6950 C 664.614 0.0112928 -2.30797 0
M  V30 6951 C 665.584 0.797627 -1.45695 0
M  V30 6952 O 666.769 0.770845 -1.74535 0
M  V30 6953 C 663.909 0.95998 -3.31479 0
M  V30 6954 C 663.022 0.167975 -4.31673 0
M  V30 6955 C 662.157 1.11198 -5.19431 0
M  V30 6956 C 661.196 0.311381 -6.11307 0
M  V30 6957 N 660.333 1.20784 -6.91633 0
M  V30 6958 H 665.173 -0.746231 -2.88505 0
M  V30 6959 H 662.71 -0.379739 -1.42114 0
M  V30 6960 H 664.668 1.52379 -3.88377 0
M  V30 6961 H 663.298 1.68419 -2.75382 0
M  V30 6962 H 662.35 -0.512385 -3.76933 0
M  V30 6963 H 663.662 -0.453814 -4.96731 0
M  V30 6964 H 662.816 1.74587 -5.81037 0
M  V30 6965 H 661.555 1.76766 -4.54538 0
M  V30 6966 H 660.56 -0.335758 -5.48774 0
M  V30 6967 H 661.785 -0.340135 -6.78248 0
M  V30 6968 H 659.731 1.85001 -6.29373 0
M  V30 6969 H 659.648 0.64102 -7.53277 0
M  V30 6970 H 660.916 1.82936 -7.5773 0
M  V30 6971 N 665.145 1.52092 -0.413018 0
M  V30 6972 C 666.37 2.06756 0.163338 0
M  V30 6973 C 666.795 1.28073 1.37764 0
M  V30 6974 O 666.153 0.312015 1.78595 0
M  V30 6975 C 666.201 3.57278 0.488322 0
M  V30 6976 O 665.305 3.80986 1.57871 0
M  V30 6977 H 664.646 0.663882 0.0125068 0
M  V30 6978 H 667.176 1.95988 -0.587339 0
M  V30 6979 H 667.186 4.01125 0.745836 0
M  V30 6980 H 665.861 4.13978 -0.399327 0
M  V30 6981 H 664.438 3.49017 1.31306 0
M  V30 6982 N 666.623 0.143563 1.56945 0
M  V30 6983 C 667.87 -0.508407 1.96014 0
M  V30 6984 C 668.198 -1.65099 1.02824 0
M  V30 6985 O 667.453 -1.95618 0.0567764 0
M  V30 6986 C 667.752 -1.05885 3.41355 0
M  V30 6987 C 667.418 -0.0350809 4.50886 0
M  V30 6988 C 666.08 0.246362 4.80569 0
M  V30 6989 C 668.432 0.661282 5.16988 0
M  V30 6990 C 665.76 1.23003 5.73661 0
M  V30 6991 C 668.112 1.63375 6.11139 0
M  V30 6992 C 666.776 1.92292 6.39203 0
M  V30 6993 H 666.046 -0.186039 0.717266 0
M  V30 6994 H 668.693 0.229667 1.90118 0
M  V30 6995 H 666.998 -1.87419 3.44066 0
M  V30 6996 H 668.695 -1.57183 3.6891 0
M  V30 6997 H 665.285 -0.264622 4.27782 0
M  V30 6998 H 669.469 0.457038 4.94191 0
M  V30 6999 H 664.725 1.46056 5.93698 0
M  V30 7000 H 668.899 2.17887 6.61436 0
M  V30 7001 H 666.526 2.68666 7.11142 0
M  V30 7002 N 668.101 -1.57061 -0.130224 0
M  V30 7003 C 669.064 -1.98593 -1.14426 0
M  V30 7004 C 670.064 -0.874584 -1.34936 0
M  V30 7005 O 671.254 -1.14086 -1.31643 0
M  V30 7006 C 668.386 -2.31639 -2.50112 0
M  V30 7007 H 669.579 -2.89374 -0.787561 0
M  V30 7008 H 667.132 -1.51756 -0.374146 0
M  V30 7009 H 667.867 -1.43703 -2.90723 0
M  V30 7010 H 667.652 -3.12684 -2.36583 0
M  V30 7011 H 669.142 -2.64551 -3.23114 0
M  V30 7012 N 669.579 0.400081 -1.52437 0
M  V30 7013 C 670.489 1.51253 -1.79331 0
M  V30 7014 C 671.505 1.60188 -0.679396 0
M  V30 7015 O 672.681 1.76733 -0.965791 0
M  V30 7016 C 669.746 2.869 -1.94652 0
M  V30 7017 C 668.807 2.87777 -3.18564 0
M  V30 7018 C 668.04 4.16954 -3.33145 0
M  V30 7019 O 668.263 5.11329 -2.52783 0
M  V30 7020 O 667.197 4.2487 -4.26343 0
M  V30 7021 H 671.023 1.31461 -2.73773 0
M  V30 7022 H 668.608 0.586834 -1.37392 0
M  V30 7023 H 670.49 3.67336 -2.065 0
M  V30 7024 H 669.165 3.06741 -1.034 0
M  V30 7025 H 668.072 2.06162 -3.12167 0
M  V30 7026 H 669.405 2.72886 -4.09627 0
M  V30 7027 N 671.057 1.43213 0.657864 0
M  V30 7028 C 672.297 1.46083 1.42965 0
M  V30 7029 C 672.661 0.0809712 1.91829 0
M  V30 7030 O 673.862 -0.0156305 2.68795 0
M  V30 7031 C 672.133 2.47044 2.58271 0
M  V30 7032 S 673.692 2.68753 3.46868 0
M  V30 7033 H 670.51 0.517015 0.488074 0
M  V30 7034 H 673.112 1.79945 0.764213 0
M  V30 7035 H 671.816 3.46044 2.20639 0
M  V30 7036 H 671.347 2.14665 3.2967 0
M  V30 7037 H 673.362 1.98329 4.54841 0
M  V30 7038 N 672.536 -0.895792 1.29666 0
M  V30 7039 C 673.499 -1.98189 1.15124 0
M  V30 7040 C 674.499 -1.60572 0.0855717 0
M  V30 7041 O 675.689 -1.70991 0.332826 0
M  V30 7042 C 672.821 -3.32289 0.761372 0
M  V30 7043 H 674.014 -2.12518 2.11603 0
M  V30 7044 H 671.567 -1.0808 1.12908 0
M  V30 7045 H 672.302 -3.23662 -0.203393 0
M  V30 7046 H 672.087 -3.60958 1.53139 0
M  V30 7047 H 673.577 -4.1198 0.682792 0
M  V30 7048 N 674.014 -1.12206 -1.10668 0
M  V30 7049 C 675.244 -0.897332 -1.86095 0
M  V30 7050 C 675.652 0.556778 -1.80822 0
M  V30 7051 O 674.995 1.39658 -1.19337 0
M  V30 7052 C 675.057 -1.29095 -3.35522 0
M  V30 7053 C 674.721 -2.75586 -3.64556 0
M  V30 7054 C 675.718 -3.73785 -3.6136 0
M  V30 7055 C 673.403 -3.12432 -3.93309 0
M  V30 7056 C 675.397 -5.06845 -3.86506 0
M  V30 7057 C 673.084 -4.45675 -4.18111 0
M  V30 7058 C 674.082 -5.42691 -4.147 0
M  V30 7059 O 673.77 -6.73532 -4.38873 0
M  V30 7060 H 673.502 -0.320704 -0.595084 0
M  V30 7061 H 676.056 -1.49517 -1.40833 0
M  V30 7062 H 674.286 -0.636299 -3.81429 0
M  V30 7063 H 675.975 -1.04073 -3.92331 0
M  V30 7064 H 676.741 -3.46664 -3.39189 0
M  V30 7065 H 672.62 -2.3753 -3.95096 0
M  V30 7066 H 676.164 -5.82559 -3.83758 0
M  V30 7067 H 672.061 -4.72526 -4.39761 0
M  V30 7068 H 672.829 -6.79442 -4.564 0
M  V30 7069 N 675.492 1.28418 -0.913599 0
M  V30 7070 C 676.74 1.94596 -0.545594 0
M  V30 7071 C 677.061 1.7227 0.913668 0
M  V30 7072 O 676.331 1.06233 1.64595 0
M  V30 7073 H 674.911 0.720065 -0.198783 0
M  V30 7074 H 677.573 1.56404 -1.16292 0
M  V30 7075 H 676.669 3.03202 -0.739911 0
M  V30 7076 N 676.97 0.677563 1.42291 0
M  V30 7077 C 678.247 0.129803 1.95169 0
M  V30 7078 C 678.627 -1.35605 1.61786 0
M  V30 7079 O 677.975 -2.09361 0.915444 0
M  V30 7080 C 678.185 0.401889 3.46678 0
M  V30 7081 C 679.533 0.319889 4.23393 0
M  V30 7082 O 680.557 0.33579 3.54614 0
M  V30 7083 O 679.416 0.264459 5.4586 0
M  V30 7084 H 676.51 0.00447433 0.826988 0
M  V30 7085 H 679.056 0.752483 1.52105 0
M  V30 7086 H 677.828 1.43108 3.64192 0
M  V30 7087 H 677.451 -0.252662 3.96796 0
M  V30 7088 N 678.448 -1.51871 0.421078 0
M  V30 7089 C 679.688 -2.03848 -0.150167 0
M  V30 7090 C 680.052 -1.29925 -1.41363 0
M  V30 7091 O 681.253 -1.7219 -2.06408 0
M  V30 7092 C 679.524 -3.55374 -0.38003 0
M  V30 7093 S 681.083 -4.29111 -0.917011 0
M  V30 7094 H 677.901 -0.709904 -0.0394639 0
M  V30 7095 H 680.503 -1.86799 0.576746 0
M  V30 7096 H 679.207 -4.0675 0.546122 0
M  V30 7097 H 678.738 -3.76687 -1.13448 0
M  V30 7098 H 680.753 -4.44944 -2.19635 0
M  V30 7099 N 679.926 -0.151884 -1.56866 0
M  V30 7100 C 681.166 0.500695 -1.98173 0
M  V30 7101 C 681.53 1.61715 -1.03499 0
M  V30 7102 O 682.731 2.33093 -1.33869 0
M  V30 7103 C 681.002 0.989333 -3.43434 0
M  V30 7104 S 682.561 1.64583 -4.06765 0
M  V30 7105 H 679.379 0.16173 -0.692361 0
M  V30 7106 H 681.981 -0.244754 -1.93962 0
M  V30 7107 H 680.685 0.166072 -4.10064 0
M  V30 7108 H 680.216 1.76929 -3.51368 0
M  V30 7109 H 682.231 2.93326 -4.00218 0
M  V30 7110 N 681.404 1.57128 0.121893 0
M  V30 7111 C 682.351 2.0013 1.14964 0
M  V30 7112 C 683.321 0.872959 1.4131 0
M  V30 7113 O 684.506 1.13696 1.53225 0
M  V30 7114 C 681.646 2.40824 2.4718 0
M  V30 7115 C 680.759 3.67061 2.27794 0
M  V30 7116 C 679.894 3.96749 3.53219 0
M  V30 7117 C 678.933 5.16178 3.28978 0
M  V30 7118 N 678.07 5.41751 4.46599 0
M  V30 7119 H 682.91 2.8772 0.775947 0
M  V30 7120 H 680.447 1.42328 0.371652 0
M  V30 7121 H 682.405 2.62454 3.24305 0
M  V30 7122 H 681.035 1.56279 2.82448 0
M  V30 7123 H 680.087 3.53063 1.416 0
M  V30 7124 H 681.399 4.5434 2.05857 0
M  V30 7125 H 680.553 4.19012 4.38764 0
M  V30 7126 H 679.292 3.07941 3.78185 0
M  V30 7127 H 678.297 4.93762 2.41824 0
M  V30 7128 H 679.522 6.06561 3.05386 0
M  V30 7129 H 677.468 4.55899 4.71691 0
M  V30 7130 H 677.385 6.23347 4.27756 0
M  V30 7131 H 678.653 5.68531 5.33285 0
M  V30 7132 N 682.882 -0.391992 1.52647 0
M  V30 7133 C 684.159 -1.15136 1.58123 0
M  V30 7134 C 684.539 -2.07786 0.372597 0
M  V30 7135 O 683.887 -2.19374 -0.639304 0
M  V30 7136 C 684.097 -1.91367 2.91856 0
M  V30 7137 C 685.445 -2.46833 3.45483 0
M  V30 7138 O 686.469 -2.01527 2.9371 0
M  V30 7139 O 685.328 -3.29587 4.3593 0
M  V30 7140 H 682.422 -0.526649 0.637629 0
M  V30 7141 H 684.968 -0.397386 1.64982 0
M  V30 7142 H 683.74 -1.23597 3.71268 0
M  V30 7143 H 683.363 -2.73732 2.88369 0
M  V30 7144 N 684.36 -1.4356 -0.65026 0
M  V30 7145 C 685.6 -1.46839 -1.42188 0
M  V30 7146 C 685.964 -0.0911433 -1.91784 0
M  V30 7147 O 687.165 0.00137545 -2.688 0
M  V30 7148 C 685.436 -2.48411 -2.56957 0
M  V30 7149 S 686.995 -2.70589 -3.45438 0
M  V30 7150 H 683.813 -0.519596 -0.485325 0
M  V30 7151 H 686.415 -1.80347 -0.75466 0
M  V30 7152 H 685.119 -3.47209 -2.18801 0
M  V30 7153 H 684.65 -2.16411 -3.28527 0
M  V30 7154 H 686.665 -2.00738 -4.53782 0
M  V30 7155 N 685.838 0.888903 -1.30139 0
M  V30 7156 C 687.254 1.17153 -1.08385 0
M  V30 7157 C 687.454 2.0088 0.157925 0
M  V30 7158 O 686.51 2.37668 0.852652 0
M  V30 7159 C 687.823 1.882 -2.34523 0
M  V30 7160 C 689.371 2.00981 -2.39949 0
M  V30 7161 C 689.846 2.75441 -3.65918 0
M  V30 7162 N 691.337 2.82989 -3.66704 0
M  V30 7163 C 692.072 3.41167 -4.60861 0
M  V30 7164 N 691.568 4.00425 -5.6536 0
M  V30 7165 N 693.361 3.38944 -4.48412 0
M  V30 7166 H 685.512 0.33053 -2.09812 0
M  V30 7167 H 687.775 0.208964 -0.924683 0
M  V30 7168 H 687.481 1.34119 -3.25123 0
M  V30 7169 H 687.355 2.88609 -2.42868 0
M  V30 7170 H 689.742 2.54234 -1.4983 0
M  V30 7171 H 689.823 0.996725 -2.35582 0
M  V30 7172 H 689.467 2.22861 -4.56394 0
M  V30 7173 H 689.397 3.77118 -3.67546 0
M  V30 7174 H 691.888 2.40912 -2.91153 0
M  V30 7175 H 692.201 4.42871 -6.33313 0
M  V30 7176 H 690.546 3.98856 -5.69157 0
M  V30 7177 H 693.737 2.91875 -3.6596 0
M  V30 7178 H 693.91 3.83989 -5.21974 0
M  V30 7179 N 687.317 1.12792 1.10072 0
M  V30 7180 C 688.564 0.885545 1.82111 0
M  V30 7181 C 688.892 -0.588519 1.85383 0
M  V30 7182 O 688.147 -1.45124 1.31292 0
M  V30 7183 C 688.446 1.4102 3.28403 0
M  V30 7184 C 688.112 2.89995 3.45273 0
M  V30 7185 C 686.774 3.30671 3.49585 0
M  V30 7186 C 689.126 3.85874 3.50358 0
M  V30 7187 C 686.454 4.65925 3.56553 0
M  V30 7188 C 688.806 5.20963 3.58859 0
M  V30 7189 C 687.47 5.61177 3.61437 0
M  V30 7190 H 686.74 0.324044 0.666391 0
M  V30 7191 H 689.387 1.40874 1.29718 0
M  V30 7192 H 687.692 0.807551 3.83387 0
M  V30 7193 H 689.389 1.19882 3.82661 0
M  V30 7194 H 685.979 2.57537 3.42597 0
M  V30 7195 H 690.163 3.5554 3.46273 0
M  V30 7196 H 685.419 4.96468 3.56833 0
M  V30 7197 H 689.593 5.95079 3.61738 0
M  V30 7198 H 687.22 6.6597 3.66589 0
M  V30 7199 N 688.795 -1.27931 0.920396 0
M  V30 7200 C 689.725 -2.29487 0.431024 0
M  V30 7201 C 690.706 -1.62435 -0.504861 0
M  V30 7202 O 691.891 -1.89797 -0.411176 0
M  V30 7203 C 689.021 -3.45788 -0.323709 0
M  V30 7204 C 687.975 -4.24784 0.523658 0
M  V30 7205 C 687.301 -5.33488 -0.359809 0
M  V30 7206 C 688.601 -4.90874 1.78437 0
M  V30 7207 H 690.295 -2.70671 1.27975 0
M  V30 7208 H 687.841 -1.30121 0.616813 0
M  V30 7209 H 689.794 -4.15927 -0.676952 0
M  V30 7210 H 688.518 -3.03502 -1.2064 0
M  V30 7211 H 687.177 -3.56382 0.85951 0
M  V30 7212 H 686.825 -4.87445 -1.24124 0
M  V30 7213 H 686.525 -5.87247 0.203605 0
M  V30 7214 H 688.049 -6.06472 -0.708787 0
M  V30 7215 H 689.463 -5.53339 1.49963 0
M  V30 7216 H 687.86 -5.54659 2.29071 0
M  V30 7217 H 688.93 -4.14988 2.50824 0
M  V30 7218 N 690.273 -0.685099 -1.4193 0
M  V30 7219 C 691.684 -0.287699 -1.8447 0
M  V30 7220 C 692.035 1.17215 -1.57338 0
M  V30 7221 O 691.16 1.89856 -1.03845 0
M  V30 7222 C 691.755 -0.515385 -3.34857 0
M  V30 7223 C 690.314 -0.172006 -3.76007 0
M  V30 7224 C 689.461 -0.802808 -2.65425 0
M  V30 7225 H 692.412 -0.88652 -1.3163 0
M  V30 7226 H 692.433 0.229251 -3.79809 0
M  V30 7227 H 691.945 -1.57796 -3.54573 0
M  V30 7228 H 690.046 0.886716 -3.61895 0
M  V30 7229 H 690.159 -0.619717 -4.75075 0
M  V30 7230 H 688.523 -0.233267 -2.5363 0
M  V30 7231 H 689.306 -1.86904 -2.87961 0
M  V30 7232 N 691.751 1.51645 -0.429126 0
M  V30 7233 C 692.999 2.01616 0.139802 0
M  V30 7234 C 693.32 1.31568 1.43927 0
M  V30 7235 O 692.59 0.447688 1.90716 0
M  V30 7236 H 691.17 0.744998 0.054654 0
M  V30 7237 H 693.832 1.8638 -0.569952 0
M  V30 7238 H 692.928 3.10439 0.321609 0
M  V30 7239 N 693.229 0.160201 1.56784 0
M  V30 7240 C 694.477 -0.486625 1.96154 0
M  V30 7241 C 694.798 -1.64525 1.04673 0
M  V30 7242 O 694.068 -1.95586 0.110864 0
M  V30 7243 H 692.648 -0.182764 0.724297 0
M  V30 7244 H 695.31 0.238787 1.93432 0
M  V30 7245 H 694.406 -0.854025 3.00188 0
M  V30 7246 N 694.707 -1.5719 -0.113559 0
M  V30 7247 C 695.935 -1.89328 -0.834422 0
M  V30 7248 C 696.35 -0.752018 -1.73177 0
M  V30 7249 O 695.707 0.276912 -1.80387 0
M  V30 7250 C 695.758 -3.20962 -1.66329 0
M  V30 7251 O 695.479 -4.30695 -0.802069 0
M  V30 7252 C 696.98 -3.6684 -2.48884 0
M  V30 7253 H 694.2 -0.626769 -0.239587 0
M  V30 7254 H 696.744 -2.04273 -0.0963195 0
M  V30 7255 H 694.899 -3.0767 -2.35409 0
M  V30 7256 H 695.313 -5.06175 -1.37431 0
M  V30 7257 H 696.787 -4.61692 -3.02563 0
M  V30 7258 H 697.264 -2.93765 -3.26495 0
M  V30 7259 H 697.87 -3.82938 -1.85036 0
M  V30 7260 N 696.185 0.383891 -1.52853 0
M  V30 7261 C 697.115 1.47559 -1.80965 0
M  V30 7262 C 698.096 1.5669 -0.661986 0
M  V30 7263 O 699.281 1.71556 -0.910072 0
M  V30 7264 C 696.411 2.85114 -1.98312 0
M  V30 7265 C 695.365 2.9082 -3.14019 0
M  V30 7266 C 694.691 4.30873 -3.16627 0
M  V30 7267 C 695.991 2.60001 -4.52986 0
M  V30 7268 H 697.685 1.24283 -2.72386 0
M  V30 7269 H 695.231 0.596445 -1.31067 0
M  V30 7270 H 697.184 3.61496 -2.16561 0
M  V30 7271 H 695.908 3.09738 -1.03585 0
M  V30 7272 H 694.567 2.16886 -2.9556 0
M  V30 7273 H 694.215 4.52545 -2.19573 0
M  V30 7274 H 693.915 4.3561 -3.94357 0
M  V30 7275 H 695.439 5.09154 -3.37038 0
M  V30 7276 H 696.853 3.261 -4.71521 0
M  V30 7277 H 695.25 2.76081 -5.32822 0
M  V30 7278 H 696.32 1.5532 -4.59351 0
M  V30 7279 N 697.663 1.43903 0.642637 0
M  V30 7280 C 698.903 1.47591 1.41408 0
M  V30 7281 C 699.267 0.101313 1.91733 0
M  V30 7282 O 700.468 0.0128797 2.68797 0
M  V30 7283 C 698.739 2.4977 2.55636 0
M  V30 7284 S 700.298 2.72417 3.43998 0
M  V30 7285 H 697.116 0.522163 0.482563 0
M  V30 7286 H 699.718 1.80745 0.745085 0
M  V30 7287 H 698.422 3.48365 2.16956 0
M  V30 7288 H 697.953 2.1815 3.27375 0
M  V30 7289 H 699.968 2.03142 4.52712 0
M  V30 7290 N 699.141 -0.881989 1.30609 0
M  V30 7291 C 700.557 -1.16576 1.09005 0
M  V30 7292 C 700.757 -2.00961 -0.14727 0
M  V30 7293 O 699.813 -2.38117 -0.840036 0
M  V30 7294 C 701.126 -1.86954 2.35518 0
M  V30 7295 C 702.674 -1.99706 2.41011 0
M  V30 7296 C 703.149 -2.73497 3.67374 0
M  V30 7297 N 704.64 -2.8104 3.68199 0
M  V30 7298 C 705.375 -3.38718 4.62664 0
M  V30 7299 N 704.871 -3.97421 5.67475 0
M  V30 7300 N 706.664 -3.36561 4.50203 0
M  V30 7301 H 698.815 -0.319398 2.09985 0
M  V30 7302 H 701.078 -0.204058 0.925778 0
M  V30 7303 H 700.784 -1.32393 3.2583 0
M  V30 7304 H 700.658 -2.87317 2.44395 0
M  V30 7305 H 703.045 -2.53436 1.51176 0
M  V30 7306 H 703.126 -0.984218 2.36108 0
M  V30 7307 H 702.77 -2.20438 4.57569 0
M  V30 7308 H 702.7 -3.75163 3.6954 0
M  V30 7309 H 705.191 -2.39365 2.92426 0
M  V30 7310 H 705.504 -4.39507 6.35652 0
M  V30 7311 H 703.849 -3.95832 5.71264 0
M  V30 7312 H 707.04 -2.8993 3.67503 0
M  V30 7313 H 707.213 -3.81215 5.24003 0
M  V30 7314 N 700.619 -1.13374 -1.09472 0
M  V30 7315 C 701.867 -0.893422 -1.8128 0
M  V30 7316 C 702.188 0.582029 -1.86111 0
M  V30 7317 O 701.458 1.42305 -1.34633 0
M  V30 7318 H 700.038 -0.327543 -0.67136 0
M  V30 7319 H 702.7 -1.43018 -1.32408 0
M  V30 7320 H 701.796 -1.28374 -2.84476 0
M  V30 7321 N 702.098 1.27442 -0.927168 0
M  V30 7322 C 703.045 2.26863 -0.424459 0
M  V30 7323 C 704.015 1.5813 0.508346 0
M  V30 7324 O 705.2 1.85946 0.42762 0
M  V30 7325 C 702.34 3.43639 0.31718 0
M  V30 7326 C 701.453 4.27087 -0.649675 0
M  V30 7327 C 700.588 5.31082 0.111753 0
M  V30 7328 C 699.627 6.062 -0.847843 0
M  V30 7329 N 698.764 7.01999 -0.119074 0
M  V30 7330 H 703.604 2.69239 -1.27728 0
M  V30 7331 H 701.141 1.32394 -0.641106 0
M  V30 7332 H 703.099 4.10155 0.763486 0
M  V30 7333 H 701.729 3.02217 1.13424 0
M  V30 7334 H 700.781 3.60491 -1.21451 0
M  V30 7335 H 702.093 4.79242 -1.38307 0
M  V30 7336 H 701.247 6.03544 0.618 0
M  V30 7337 H 699.986 4.7973 0.878114 0
M  V30 7338 H 698.991 5.32577 -1.36534 0
M  V30 7339 H 700.216 6.59642 -1.61398 0
M  V30 7340 H 698.162 6.52977 0.629051 0
M  V30 7341 H 698.079 7.5184 -0.792046 0
M  V30 7342 H 699.347 7.78638 0.366537 0
M  V30 7343 N 703.576 0.692616 1.41565 0
M  V30 7344 C 704.804 0.231279 2.05603 0
M  V30 7345 C 705.219 -1.11837 1.52111 0
M  V30 7346 O 704.576 -1.6983 0.66813 0
M  V30 7347 C 704.627 0.177125 3.61066 0
M  V30 7348 O 704.348 1.47346 4.12578 0
M  V30 7349 C 705.849 -0.30556 4.42246 0
M  V30 7350 H 703.069 0.108238 0.662213 0
M  V30 7351 H 705.613 0.944369 1.81389 0
M  V30 7352 H 703.768 -0.486769 3.8433 0
M  V30 7353 H 704.182 1.35861 5.06599 0
M  V30 7354 H 705.656 -0.29233 5.51225 0
M  V30 7355 H 706.133 -1.34393 4.18133 0
M  V30 7356 H 706.739 0.327229 4.24039 0
M  V30 7357 N 705.054 -1.51416 0.437162 0
M  V30 7358 C 706.279 -2.0699 -0.130424 0
M  V30 7359 C 706.704 -1.30249 -1.35709 0
M  V30 7360 O 706.062 -0.340388 -1.78076 0
M  V30 7361 C 706.11 -3.5801 -0.43142 0
M  V30 7362 O 705.214 -3.8345 -1.5179 0
M  V30 7363 H 704.555 -0.663997 -0.00194339 0
M  V30 7364 H 707.085 -1.95029 0.618445 0
M  V30 7365 H 707.095 -4.02261 -0.681926 0
M  V30 7366 H 705.77 -4.13291 0.465137 0
M  V30 7367 H 704.347 -3.51062 -1.25737 0
M  V30 7368 N 706.532 -0.168513 -1.56696 0
M  V30 7369 C 707.442 0.775435 -2.21414 0
M  V30 7370 C 708.458 1.25529 -1.20492 0
M  V30 7371 O 709.634 1.30801 -1.53144 0
M  V30 7372 C 706.699 1.9886 -2.83999 0
M  V30 7373 C 705.76 1.5559 -4.00113 0
M  V30 7374 C 704.993 2.71124 -4.59704 0
M  V30 7375 O 705.216 3.87917 -4.18182 0
M  V30 7376 O 704.15 2.4536 -5.4962 0
M  V30 7377 H 707.976 0.254416 -3.02632 0
M  V30 7378 H 705.561 0.0595507 -1.49281 0
M  V30 7379 H 707.443 2.69816 -3.23693 0
M  V30 7380 H 706.118 2.49874 -2.05779 0
M  V30 7381 H 705.025 0.815924 -3.65094 0
M  V30 7382 H 706.358 1.09271 -4.79917 0
M  V30 7383 N 708.01 1.57248 0.105221 0
M  V30 7384 C 709.25 1.87393 0.816283 0
M  V30 7385 C 709.614 0.758249 1.76393 0
M  V30 7386 O 710.815 0.941835 2.5176 0
M  V30 7387 C 709.086 3.22775 1.53463 0
M  V30 7388 S 710.645 3.74588 2.28537 0
M  V30 7389 H 707.463 0.656847 0.272164 0
M  V30 7390 H 710.065 1.9536 0.073909 0
M  V30 7391 H 708.769 4.01905 0.830674 0
M  V30 7392 H 708.3 3.17921 2.3171 0
M  V30 7393 H 710.315 3.47193 3.54502 0
M  V30 7394 N 709.488 -0.375779 1.53054 0
M  V30 7395 C 710.765 -1.13453 1.59336 0
M  V30 7396 C 711.145 -2.07379 0.394614 0
M  V30 7397 O 710.493 -2.2004 -0.616 0
M  V30 7398 C 710.703 -1.8826 2.93869 0
M  V30 7399 C 712.051 -2.43155 3.48081 0
M  V30 7400 O 713.075 -1.984 2.95831 0
M  V30 7401 O 711.934 -3.24944 4.39401 0
M  V30 7402 H 709.028 -0.519856 0.643179 0
M  V30 7403 H 711.574 -0.379865 1.65394 0
M  V30 7404 H 710.346 -1.19652 3.72558 0
M  V30 7405 H 709.969 -2.70658 2.91256 0
M  V30 7406 N 710.966 -1.44241 -0.634997 0
M  V30 7407 C 712.212 -1.47038 -1.39669 0
M  V30 7408 C 712.545 -0.101122 -1.93937 0
M  V30 7409 O 711.82 0.880699 -1.73418 0
M  V30 7410 C 712.103 -2.52763 -2.56482 0
M  V30 7411 C 711.956 -3.99032 -2.07589 0
M  V30 7412 C 713.275 -2.55031 -3.58674 0
M  V30 7413 H 710.394 -0.53537 -0.506506 0
M  V30 7414 H 713.036 -1.75898 -0.718317 0
M  V30 7415 H 711.186 -2.28284 -3.14354 0
M  V30 7416 H 712.858 -4.3463 -1.54577 0
M  V30 7417 H 711.101 -4.10994 -1.38804 0
M  V30 7418 H 711.772 -4.68649 -2.91671 0
M  V30 7419 H 714.248 -2.76893 -3.10595 0
M  V30 7420 H 713.124 -3.30916 -4.37934 0
M  V30 7421 H 713.385 -1.59085 -4.12486 0
M  V30 7422 N 712.444 0.87505 -1.31075 0
M  V30 7423 C 713.855 1.4433 -1.18431 0
M  V30 7424 C 714.206 1.9506 0.211189 0
M  V30 7425 O 713.331 1.85847 1.10859 0
M  V30 7426 C 713.926 2.62341 -2.14389 0
M  V30 7427 C 712.485 3.15225 -2.05694 0
M  V30 7428 C 711.632 1.87929 -2.03907 0
M  V30 7429 H 714.583 0.684061 -1.432 0
M  V30 7430 H 714.604 3.3887 -1.73053 0
M  V30 7431 H 714.116 2.25388 -3.15946 0
M  V30 7432 H 712.217 3.56812 -1.07314 0
M  V30 7433 H 712.33 3.77853 -2.94558 0
M  V30 7434 H 710.694 2.06679 -1.48849 0
M  V30 7435 H 711.477 1.53221 -3.07211 0
M  V30 7436 N 713.922 1.13953 1.08869 0
M  V30 7437 C 714.832 0.835666 2.19212 0
M  V30 7438 C 715.848 -0.182005 1.73045 0
M  V30 7439 O 717.024 -0.0116661 2.01397 0
M  V30 7440 C 714.089 0.312325 3.4529 0
M  V30 7441 C 713.15 1.39196 4.06107 0
M  V30 7442 C 712.383 0.893496 5.26168 0
M  V30 7443 O 712.606 -0.266807 5.69776 0
M  V30 7444 O 711.54 1.67037 5.78258 0
M  V30 7445 H 715.366 1.75769 2.47667 0
M  V30 7446 H 712.951 0.917421 1.17914 0
M  V30 7447 H 714.833 0.0261582 4.21392 0
M  V30 7448 H 713.508 -0.582042 3.18424 0
M  V30 7449 H 712.415 1.73152 3.31616 0
M  V30 7450 H 713.748 2.26068 4.37212 0
M  V30 7451 N 715.4 -1.26948 0.933913 0
M  V30 7452 C 716.63 -1.97898 0.593279 0
M  V30 7453 C 717.038 -1.69806 -0.834412 0
M  V30 7454 O 716.381 -0.958704 -1.56699 0
M  V30 7455 C 716.443 -3.51657 0.746825 0
M  V30 7456 C 716.107 -4.03384 2.14779 0
M  V30 7457 C 717.104 -4.15682 3.12257 0
M  V30 7458 C 714.789 -4.37577 2.46641 0
M  V30 7459 C 716.783 -4.61455 4.39702 0
M  V30 7460 C 714.47 -4.8304 3.7432 0
M  V30 7461 C 715.468 -4.94939 4.70664 0
M  V30 7462 O 715.156 -5.39403 5.96071 0
M  V30 7463 H 714.888 -0.63814 0.223055 0
M  V30 7464 H 717.442 -1.62608 1.2549 0
M  V30 7465 H 715.672 -3.8669 0.0280889 0
M  V30 7466 H 717.361 -4.03821 0.410328 0
M  V30 7467 H 718.127 -3.89519 2.88964 0
M  V30 7468 H 714.006 -4.27554 1.72391 0
M  V30 7469 H 717.55 -4.70658 5.14905 0
M  V30 7470 H 713.447 -5.08646 3.97429 0
M  V30 7471 H 714.215 -5.57641 5.99148 0
M  V30 7472 N 716.879 -0.700114 -1.41195 0
M  V30 7473 C 718.119 -0.237223 -2.03019 0
M  V30 7474 C 718.483 1.14304 -1.54268 0
M  V30 7475 O 719.684 1.70204 -2.08048 0
M  V30 7476 C 717.955 -0.297442 -3.5616 0
M  V30 7477 S 719.514 0.0907367 -4.38706 0
M  V30 7478 H 716.332 -0.0952147 -0.704596 0
M  V30 7479 H 718.934 -0.918901 -1.72559 0
M  V30 7480 H 717.638 -1.30391 -3.89135 0
M  V30 7481 H 717.169 0.403233 -3.91328 0
M  V30 7482 H 719.184 1.31721 -4.78397 0
M  V30 7483 N 718.357 1.51182 -0.445186 0
M  V30 7484 C 719.305 2.29531 0.376597 0
M  V30 7485 C 720.299 1.35711 1.01385 0
M  V30 7486 O 721.505 1.53018 0.947922 0
M  V30 7487 H 717.88 0.738803 0.140267 0
M  V30 7488 H 719.851 2.96838 -0.304958 0
M  V30 7489 C 718.6 3.1552 1.4609 0
M  V30 7490 H 717.923 3.87605 0.979912 0
M  V30 7491 H 719.363 3.73384 2.009 0
M  V30 7492 C 717.822 2.31406 2.44852 0
M  V30 7493 O 718.352 1.97912 3.49562 0
M  V30 7494 N 716.558 1.94478 2.15932 0
M  V30 7495 H 716.105 2.21917 1.30808 0
M  V30 7496 H 716.063 1.38498 2.82251 0
M  V30 7497 N 719.835 0.176821 1.56605 0
M  V30 7498 C 721.083 -0.465793 1.96659 0
M  V30 7499 C 721.404 -1.63406 1.06412 0
M  V30 7500 O 720.674 -1.95457 0.131603 0
M  V30 7501 H 719.254 -0.175072 0.726195 0
M  V30 7502 H 721.916 0.25929 1.93168 0
M  V30 7503 H 721.012 -0.822138 3.01077 0
M  V30 7504 N 721.313 -1.57302 -0.09688 0
M  V30 7505 C 722.538 -1.9058 -0.818169 0
M  V30 7506 C 722.963 -0.770921 -1.71576 0
M  V30 7507 O 722.321 0.277588 -1.79162 0
M  V30 7508 C 722.369 -3.22714 -1.60898 0
M  V30 7509 O 721.473 -3.10178 -2.71779 0
M  V30 7510 H 720.814 -0.624759 -0.224882 0
M  V30 7511 H 723.344 -2.04471 -0.07264 0
M  V30 7512 H 723.354 -3.55978 -1.99358 0
M  V30 7513 H 722.029 -4.04899 -0.950227 0
M  V30 7514 H 720.606 -2.88424 -2.3636 0
M  V30 7515 N 722.791 0.367657 -1.53252 0
M  V30 7516 C 724.016 1.13566 -1.73544 0
M  V30 7517 C 724.441 1.82329 -0.462344 0
M  V30 7518 O 723.799 1.71655 0.583472 0
M  V30 7519 C 723.847 2.14322 -2.89997 0
M  V30 7520 O 722.951 3.21359 -2.58461 0
M  V30 7521 H 722.292 0.329614 -0.576412 0
M  V30 7522 H 724.822 0.425417 -2.00128 0
M  V30 7523 H 724.832 2.57958 -3.16104 0
M  V30 7524 H 723.507 1.63664 -3.82344 0
M  V30 7525 H 722.084 2.8271 -2.43165 0
M  V30 7526 N 724.269 1.44576 0.627338 0
M  V30 7527 C 725.201 1.47724 1.75243 0
M  V30 7528 C 726.214 0.370193 1.58535 0
M  V30 7529 O 727.403 0.636151 1.66779 0
M  V30 7530 C 724.503 1.2991 3.13012 0
M  V30 7531 C 723.676 2.5393 3.56143 0
M  V30 7532 C 722.735 2.30961 4.72804 0
M  V30 7533 O 721.761 3.04469 4.80923 0
M  V30 7534 N 722.963 1.34261 5.6476 0
M  V30 7535 H 725.728 2.44718 1.73012 0
M  V30 7536 H 723.289 1.40064 0.812022 0
M  V30 7537 H 725.281 1.12385 3.88782 0
M  V30 7538 H 723.851 0.412668 3.09864 0
M  V30 7539 H 723.071 2.86707 2.70542 0
M  V30 7540 H 724.359 3.36411 3.81713 0
M  V30 7541 H 723.757 0.735573 5.60897 0
M  V30 7542 H 722.314 1.22713 6.40144 0
M  V30 7543 N 725.747 -0.868086 1.31537 0
M  V30 7544 C 726.994 -1.62127 1.2133 0
M  V30 7545 C 727.322 -1.93158 -0.2281 0
M  V30 7546 O 726.577 -1.5632 -1.1774 0
M  V30 7547 C 726.876 -2.95889 2.0046 0
M  V30 7548 C 726.542 -2.84343 3.49943 0
M  V30 7549 C 725.204 -2.80901 3.90702 0
M  V30 7550 C 727.556 -2.71243 4.45058 0
M  V30 7551 C 724.884 -2.6222 5.24841 0
M  V30 7552 C 727.236 -2.54098 5.79325 0
M  V30 7553 C 725.9 -2.4904 6.19302 0
M  V30 7554 H 725.17 -0.593265 0.443979 0
M  V30 7555 H 727.817 -1.00803 1.62822 0
M  V30 7556 H 726.122 -3.61259 1.51655 0
M  V30 7557 H 727.819 -3.53161 1.89942 0
M  V30 7558 H 724.409 -2.8784 3.17563 0
M  V30 7559 H 728.593 -2.72956 4.14498 0
M  V30 7560 H 723.849 -2.56731 5.54887 0
M  V30 7561 H 728.023 -2.42938 6.52652 0
M  V30 7562 H 725.65 -2.34324 7.23185 0
M  V30 7563 N 727.225 -1.14528 -1.08264 0
M  V30 7564 C 728.465 -0.924808 -1.82282 0
M  V30 7565 C 728.829 0.538881 -1.84283 0
M  V30 7566 O 730.03 0.877355 -2.54079 0
M  V30 7567 C 728.301 -1.51102 -3.23887 0
M  V30 7568 S 729.86 -1.43232 -4.14765 0
M  V30 7569 H 726.678 -0.333052 -0.62817 0
M  V30 7570 H 729.28 -1.45905 -1.30123 0
M  V30 7571 H 727.984 -2.56942 -3.20014 0
M  V30 7572 H 727.515 -0.975234 -3.8112 0
M  V30 7573 H 729.53 -0.418843 -4.94429 0
M  V30 7574 N 728.703 1.26451 -0.940633 0
M  V30 7575 C 729.635 2.25556 -0.407104 0
M  V30 7576 C 730.648 1.55888 0.469324 0
M  V30 7577 O 731.837 1.76292 0.279858 0
M  V30 7578 C 728.937 3.36109 0.434064 0
M  V30 7579 C 728.11 4.3532 -0.426082 0
M  V30 7580 C 727.169 5.25004 0.354563 0
M  V30 7581 O 726.195 5.68684 -0.242219 0
M  V30 7582 N 727.397 5.5652 1.65123 0
M  V30 7583 H 730.162 2.7197 -1.25907 0
M  V30 7584 H 727.723 1.40212 -0.809456 0
M  V30 7585 H 729.715 3.93059 0.963684 0
M  V30 7586 H 728.285 2.89194 1.18683 0
M  V30 7587 H 727.505 3.77449 -1.13692 0
M  V30 7588 H 728.793 4.986 -1.01366 0
M  V30 7589 H 728.191 5.22912 2.15822 0
M  V30 7590 H 726.748 6.16115 2.12711 0
M  V30 7591 N 730.181 0.707592 1.40822 0
M  V30 7592 C 731.592 0.317011 1.83989 0
M  V30 7593 C 731.943 -1.14697 1.59182 0
M  V30 7594 O 731.068 -1.8818 1.06852 0
M  V30 7595 C 731.663 0.568593 3.33995 0
M  V30 7596 C 730.222 0.231804 3.75686 0
M  V30 7597 C 729.369 0.844933 2.64114 0
M  V30 7598 H 732.32 0.907349 1.30203 0
M  V30 7599 H 732.341 -0.168798 3.80125 0
M  V30 7600 H 731.853 1.63417 3.52018 0
M  V30 7601 H 729.954 -0.82903 3.6326 0
M  V30 7602 H 730.067 0.695219 4.74029 0
M  V30 7603 H 728.431 0.273588 2.53226 0
M  V30 7604 H 729.214 1.91462 2.84951 0
M  V30 7605 N 731.66 -1.50943 0.453197 0
M  V30 7606 C 732.937 -1.94872 -0.168633 0
M  V30 7607 C 733.317 -1.39272 -1.5864 0
M  V30 7608 O 732.665 -0.586272 -2.20851 0
M  V30 7609 C 732.875 -3.48757 -0.130217 0
M  V30 7610 C 734.223 -4.23331 -0.327975 0
M  V30 7611 O 735.247 -3.55594 -0.207619 0
M  V30 7612 O 734.106 -5.43529 -0.569077 0
M  V30 7613 H 731.2 -0.818042 -0.121394 0
M  V30 7614 H 733.746 -1.61782 0.512316 0
M  V30 7615 H 732.518 -3.81725 0.860346 0
M  V30 7616 H 732.141 -3.88333 -0.853397 0
M  V30 7617 N 733.138 -0.185124 -1.56509 0
M  V30 7618 C 734.384 0.456934 -1.97585 0
M  V30 7619 C 734.717 1.61957 -1.07161 0
M  V30 7620 O 733.992 1.9412 -0.121546 0
M  V30 7621 C 734.275 0.926666 -3.47973 0
M  V30 7622 C 734.128 -0.237097 -4.49175 0
M  V30 7623 C 735.447 1.79561 -4.01803 0
M  V30 7624 H 732.566 0.164619 -0.71838 0
M  V30 7625 H 735.208 -0.274039 -1.88013 0
M  V30 7626 H 733.358 1.54954 -3.56261 0
M  V30 7627 H 735.03 -0.87454 -4.52934 0
M  V30 7628 H 733.273 -0.890446 -4.24563 0
M  V30 7629 H 733.944 0.133924 -5.51838 0
M  V30 7630 H 736.42 1.27039 -3.96232 0
M  V30 7631 H 735.296 2.09327 -5.07418 0
M  V30 7632 H 735.557 2.74629 -3.46455 0
M  V30 7633 N 734.616 1.57351 0.0885366 0
M  V30 7634 C 735.863 1.86419 0.790824 0
M  V30 7635 C 736.191 0.774561 1.78412 0
M  V30 7636 O 735.446 -0.23119 1.9433 0
M  V30 7637 C 735.745 3.22098 1.5488 0
M  V30 7638 C 735.411 4.4548 0.697025 0
M  V30 7639 C 734.073 4.78975 0.462237 0
M  V30 7640 C 736.425 5.21094 0.105315 0
M  V30 7641 C 733.753 5.85507 -0.374016 0
M  V30 7642 C 736.105 6.28509 -0.718298 0
M  V30 7643 C 734.769 6.60515 -0.963116 0
M  V30 7644 H 734.039 0.682157 0.289383 0
M  V30 7645 H 736.686 1.91429 0.0520961 0
M  V30 7646 H 734.991 3.12803 2.35927 0
M  V30 7647 H 736.688 3.41819 2.09669 0
M  V30 7648 H 733.278 4.19255 0.890137 0
M  V30 7649 H 737.462 4.95544 0.273856 0
M  V30 7650 H 732.718 6.08713 -0.572606 0
M  V30 7651 H 736.892 6.86268 -1.18362 0
M  V30 7652 H 734.519 7.42893 -1.6129 0
M  V30 7653 N 736.094 -0.359525 1.53444 0
M  V30 7654 C 737.343 -1.09886 1.69139 0
M  V30 7655 C 737.656 -1.90285 0.452863 0
M  V30 7656 O 738.862 -2.67033 0.490459 0
M  V30 7657 C 737.318 -2.0028 2.99025 0
M  V30 7658 C 736.926 -1.25164 4.30161 0
M  V30 7659 C 738.67 -2.74168 3.24086 0
M  V30 7660 C 736.577 -2.14494 5.51132 0
M  V30 7661 H 735.507 -0.413936 0.630217 0
M  V30 7662 H 738.158 -0.359434 1.79945 0
M  V30 7663 H 736.54 -2.77978 2.82036 0
M  V30 7664 H 737.714 -0.524867 4.57801 0
M  V30 7665 H 736.029 -0.631116 4.11589 0
M  V30 7666 H 738.626 -3.41243 4.11652 0
M  V30 7667 H 738.969 -3.39868 2.40407 0
M  V30 7668 H 739.502 -2.0355 3.41778 0
M  V30 7669 H 736.241 -1.53362 6.37307 0
M  V30 7670 H 735.761 -2.85004 5.27762 0
M  V30 7671 H 737.44 -2.73914 5.86157 0
M  V30 7672 N 737.572 -1.44907 -0.619662 0
M  V30 7673 C 738.504 -1.48652 -1.74457 0
M  V30 7674 C 739.517 -0.378596 -1.58337 0
M  V30 7675 O 740.706 -0.644987 -1.6644 0
M  V30 7676 C 737.806 -1.31568 -3.12319 0
M  V30 7677 C 736.979 -2.55816 -3.54792 0
M  V30 7678 C 736.038 -2.33465 -4.71573 0
M  V30 7679 O 735.064 -3.07015 -4.79302 0
M  V30 7680 N 736.266 -1.37254 -5.6404 0
M  V30 7681 H 739.031 -2.45632 -1.71712 0
M  V30 7682 H 736.592 -1.40492 -0.804582 0
M  V30 7683 H 738.584 -1.14445 -3.88181 0
M  V30 7684 H 737.154 -0.429095 -3.09641 0
M  V30 7685 H 736.374 -2.88137 -2.69018 0
M  V30 7686 H 737.662 -3.38431 -3.79924 0
M  V30 7687 H 737.06 -0.765309 -5.60499 0
M  V30 7688 H 735.617 -1.26106 -6.39485 0
M  V30 7689 N 739.05 0.861098 -1.31996 0
M  V30 7690 C 739.998 1.99052 -1.20337 0
M  V30 7691 C 740.992 1.69045 -0.109623 0
M  V30 7692 O 742.198 1.77931 -0.272117 0
M  V30 7693 H 738.573 0.653064 -0.372843 0
M  V30 7694 H 740.544 2.06015 -2.15872 0
M  V30 7695 C 739.293 3.34846 -0.936663 0
M  V30 7696 H 738.616 3.58462 -1.77045 0
M  V30 7697 H 740.056 4.1444 -0.895302 0
M  V30 7698 C 738.515 3.34965 0.360607 0
M  V30 7699 O 739.045 3.7745 1.37456 0
M  V30 7700 N 737.251 2.88101 0.380296 0
M  V30 7701 H 736.798 2.53721 -0.445351 0
M  V30 7702 H 736.756 2.88563 1.24816 0
M  V30 7703 N 740.528 1.15101 1.07655 0
M  V30 7704 C 741.776 0.922149 1.79836 0
M  V30 7705 C 742.097 -0.552346 1.87014 0
M  V30 7706 O 741.367 -1.40145 1.3688 0
M  V30 7707 H 739.947 0.338182 0.666064 0
M  V30 7708 H 742.609 1.45107 1.30115 0
M  V30 7709 H 741.705 1.32883 2.82398 0
M  V30 7710 N 742.006 -1.2595 0.947325 0
M  V30 7711 C 743.236 -1.97258 0.614235 0
M  V30 7712 C 743.644 -1.70682 -0.816355 0
M  V30 7713 O 742.987 -0.97527 -1.55673 0
M  V30 7714 C 743.049 -3.50845 0.784081 0
M  V30 7715 C 742.713 -4.01084 2.19045 0
M  V30 7716 C 743.71 -4.12347 3.16648 0
M  V30 7717 C 741.395 -4.34936 2.51268 0
M  V30 7718 C 743.389 -4.56766 4.44572 0
M  V30 7719 C 741.076 -4.79043 3.79422 0
M  V30 7720 C 742.074 -4.89919 4.75887 0
M  V30 7721 O 741.762 -5.3305 6.01758 0
M  V30 7722 H 741.494 -0.635738 0.22981 0
M  V30 7723 H 744.048 -1.61268 1.27207 0
M  V30 7724 H 742.278 -3.86638 0.069101 0
M  V30 7725 H 743.967 -4.03363 0.453135 0
M  V30 7726 H 744.733 -3.86432 2.93079 0
M  V30 7727 H 740.612 -4.25702 1.76916 0
M  V30 7728 H 744.156 -4.6517 5.19868 0
M  V30 7729 H 740.053 -5.04402 4.02802 0
M  V30 7730 H 740.821 -5.51255 6.05029 0
M  V30 7731 N 743.484 -0.715051 -1.40445 0
M  V30 7732 C 744.895 -0.326763 -1.83818 0
M  V30 7733 C 745.246 1.13851 -1.59789 0
M  V30 7734 O 744.371 1.87611 -1.07848 0
M  V30 7735 C 744.966 -0.586297 -3.33688 0
M  V30 7736 C 743.525 -0.251724 -3.75557 0
M  V30 7737 C 742.672 -0.858928 -2.63662 0
M  V30 7738 H 745.623 -0.914241 -1.2972 0
M  V30 7739 H 745.644 0.148636 -3.8021 0
M  V30 7740 H 745.156 -1.65281 -3.51146 0
M  V30 7741 H 743.257 0.809754 -3.63695 0
M  V30 7742 H 743.37 -0.720348 -4.73654 0
M  V30 7743 H 741.734 -0.287013 -2.53078 0
M  V30 7744 H 742.517 -1.9297 -2.83932 0
M  V30 7745 N 744.962 1.50701 -0.461195 0
M  V30 7746 C 746.202 2.04174 0.0960673 0
M  V30 7747 C 746.566 1.33628 1.37868 0
M  V30 7748 O 747.767 1.77602 2.0177 0
M  V30 7749 C 746.038 3.56256 0.285676 0
M  V30 7750 S 747.597 4.31392 0.802917 0
M  V30 7751 H 744.415 0.710701 0.0206282 0
M  V30 7752 H 747.017 1.85204 -0.62607 0
M  V30 7753 H 745.721 4.05159 -0.653773 0
M  V30 7754 H 745.252 3.79562 1.03421 0
M  V30 7755 H 747.267 4.50611 2.07761 0
M  V30 7756 N 746.441 0.193421 1.56409 0
M  V30 7757 C 747.373 -0.759944 2.16235 0
M  V30 7758 C 748.386 -1.17797 1.12373 0
M  V30 7759 O 749.575 -1.11399 1.39472 0
M  V30 7760 C 746.675 -2.03735 2.70823 0
M  V30 7761 C 745.848 -1.77939 3.9957 0
M  V30 7762 C 744.907 -2.90111 4.39001 0
M  V30 7763 O 743.933 -2.59791 5.06456 0
M  V30 7764 N 745.135 -4.18426 4.02368 0
M  V30 7765 H 747.9 -0.248348 2.98669 0
M  V30 7766 H 745.461 0.0113966 1.61896 0
M  V30 7767 H 747.453 -2.77914 2.94187 0
M  V30 7768 H 746.023 -2.46022 1.92852 0
M  V30 7769 H 745.243 -0.875491 3.84355 0
M  V30 7770 H 746.531 -1.58099 4.83614 0
M  V30 7771 H 745.929 -4.45913 3.48106 0
M  V30 7772 H 744.486 -4.89237 4.30686 0
M  V30 7773 N 747.919 -1.57396 -0.0801906 0
M  V30 7774 C 748.867 -2.04136 -1.11495 0
M  V30 7775 C 749.861 -0.945137 -1.40583 0
M  V30 7776 O 751.067 -1.13028 -1.40088 0
M  V30 7777 H 747.442 -0.65076 -0.37685 0
M  V30 7778 H 749.413 -2.90205 -0.694526 0
M  V30 7779 C 748.162 -2.49399 -2.42272 0
M  V30 7780 H 747.485 -3.33339 -2.20737 0
M  V30 7781 H 748.925 -2.85864 -3.13142 0
M  V30 7782 C 747.384 -1.37341 -3.07635 0
M  V30 7783 O 747.914 -0.710829 -3.95361 0
M  V30 7784 N 746.12 -1.12064 -2.68123 0
M  V30 7785 H 745.667 -1.66126 -1.96875 0
M  V30 7786 H 745.625 -0.372916 -3.12181 0
M  V30 7787 N 749.397 0.351382 -1.53633 0
M  V30 7788 C 750.345 1.45142 -1.8176 0
M  V30 7789 C 751.339 1.54819 -0.687571 0
M  V30 7790 O 752.545 1.57536 -0.870772 0
M  V30 7791 H 748.92 0.483789 -0.575719 0
M  V30 7792 H 750.891 1.1863 -2.73806 0
M  V30 7793 C 749.64 2.81779 -2.03706 0
M  V30 7794 H 748.963 2.75097 -2.90107 0
M  V30 7795 H 750.403 3.5789 -2.27356 0
M  V30 7796 C 748.862 3.26762 -0.820271 0
M  V30 7797 O 749.392 4.01697 -0.0158603 0
M  V30 7798 N 747.598 2.83472 -0.639699 0
M  V30 7799 H 747.145 2.22655 -1.29547 0
M  V30 7800 H 747.103 3.13924 0.172995 0
M  V30 7801 N 750.875 1.45233 0.611969 0
M  V30 7802 C 751.822 1.5357 1.72293 0
M  V30 7803 C 752.792 0.381912 1.6165 0
M  V30 7804 O 753.977 0.594765 1.81293 0
M  V30 7805 C 751.117 1.50419 3.10593 0
M  V30 7806 C 750.23 2.76316 3.32074 0
M  V30 7807 C 749.365 2.64866 4.60456 0
M  V30 7808 C 748.404 3.85838 4.7518 0
M  V30 7809 N 747.541 3.72949 5.94856 0
M  V30 7810 H 752.381 2.4848 1.64504 0
M  V30 7811 H 749.918 1.23302 0.802191 0
M  V30 7812 H 751.876 1.4658 3.90602 0
M  V30 7813 H 750.506 0.590621 3.17351 0
M  V30 7814 H 749.558 2.90261 2.45872 0
M  V30 7815 H 750.87 3.66055 3.38829 0
M  V30 7816 H 750.024 2.58969 5.48653 0
M  V30 7817 H 748.763 1.72719 4.56092 0
M  V30 7818 H 747.768 3.92099 3.85407 0
M  V30 7819 H 748.993 4.79045 4.81344 0
M  V30 7820 H 746.939 2.83567 5.91545 0
M  V30 7821 H 746.856 4.56319 6.02751 0
M  V30 7822 H 748.124 3.70976 6.85563 0
M  V30 7823 N 752.353 -0.854086 1.3245 0
M  V30 7824 C 753.316 -1.94427 1.21371 0
M  V30 7825 C 754.316 -1.60219 0.136613 0
M  V30 7826 O 755.506 -1.69846 0.387057 0
M  V30 7827 C 752.638 -3.29698 0.866701 0
M  V30 7828 H 753.831 -2.05679 2.18257 0
M  V30 7829 H 751.384 -1.04434 1.1629 0
M  V30 7830 H 752.119 -3.24145 -0.100319 0
M  V30 7831 H 751.904 -3.55903 1.64545 0
M  V30 7832 H 753.394 -4.09599 0.813515 0
M  V30 7833 N 753.831 -1.1567 -1.07043 0
M  V30 7834 C 755.061 -0.956083 -1.83146 0
M  V30 7835 C 755.469 0.498969 -1.82502 0
M  V30 7836 O 754.812 1.35791 -1.23719 0
M  V30 7837 C 754.874 -1.39704 -3.31245 0
M  V30 7838 C 754.538 -2.87045 -3.55604 0
M  V30 7839 C 755.535 -3.85092 -3.49285 0
M  V30 7840 C 753.22 -3.24787 -3.8317 0
M  V30 7841 C 755.214 -5.18885 -3.70185 0
M  V30 7842 C 752.901 -4.58751 -4.03721 0
M  V30 7843 C 753.899 -5.55609 -3.97224 0
M  V30 7844 O 753.587 -6.87154 -4.17223 0
M  V30 7845 H 753.319 -0.339473 -0.58458 0
M  V30 7846 H 755.873 -1.53922 -1.36005 0
M  V30 7847 H 754.103 -0.757326 -3.79212 0
M  V30 7848 H 755.792 -1.16503 -3.88821 0
M  V30 7849 H 756.558 -3.5728 -3.27988 0
M  V30 7850 H 752.437 -2.49979 -3.87339 0
M  V30 7851 H 755.981 -5.94473 -3.6503 0
M  V30 7852 H 751.878 -4.86277 -4.24505 0
M  V30 7853 H 752.646 -6.93618 -4.34553 0
M  V30 7854 N 755.309 1.25446 -0.953992 0
M  V30 7855 C 756.549 1.94894 -0.616087 0
M  V30 7856 C 756.913 1.73067 0.831374 0
M  V30 7857 O 758.114 2.3643 1.27884 0
M  V30 7858 C 756.385 3.44147 -0.964225 0
M  V30 7859 S 757.944 4.32536 -0.738798 0
M  V30 7860 H 754.762 0.673967 -0.226472 0
M  V30 7861 H 757.364 1.52117 -1.22803 0
M  V30 7862 H 756.068 3.57537 -2.01484 0
M  V30 7863 H 755.599 3.91906 -0.342507 0
M  V30 7864 H 757.614 4.94659 0.390732 0
M  V30 7865 N 756.787 0.722489 1.40064 0
M  V30 7866 C 758.017 0.274439 2.04769 0
M  V30 7867 C 758.425 -1.09125 1.54559 0
M  V30 7868 O 757.768 -1.69834 0.700149 0
M  V30 7869 C 757.83 0.184091 3.59028 0
M  V30 7870 C 757.494 1.48619 4.32159 0
M  V30 7871 C 758.491 2.42947 4.59644 0
M  V30 7872 C 756.176 1.74703 4.7094 0
M  V30 7873 C 758.17 3.616 5.24904 0
M  V30 7874 C 755.857 2.93636 5.3593 0
M  V30 7875 C 756.855 3.86907 5.62843 0
M  V30 7876 O 756.543 5.03753 6.26489 0
M  V30 7877 H 756.275 0.119847 0.665292 0
M  V30 7878 H 758.829 0.983352 1.80331 0
M  V30 7879 H 757.059 -0.580821 3.82313 0
M  V30 7880 H 758.748 -0.230306 4.05246 0
M  V30 7881 H 759.514 2.24062 4.30141 0
M  V30 7882 H 755.393 1.02955 4.49356 0
M  V30 7883 H 758.937 4.34418 5.45827 0
M  V30 7884 H 754.834 3.12428 5.64853 0
M  V30 7885 H 755.602 5.03922 6.44984 0
M  V30 7886 N 758.265 -1.50454 0.469181 0
M  V30 7887 C 759.213 -2.30101 -0.340033 0
M  V30 7888 C 760.207 -1.37306 -0.992135 0
M  V30 7889 O 761.413 -1.54506 -0.923458 0
M  V30 7890 H 757.788 -0.740941 -0.128495 0
M  V30 7891 H 759.759 -2.96315 0.352144 0
M  V30 7892 C 758.508 -3.17804 -1.41052 0
M  V30 7893 H 757.831 -3.89115 -0.918124 0
M  V30 7894 H 759.271 -3.76533 -1.94934 0
M  V30 7895 C 757.73 -2.35272 -2.4114 0
M  V30 7896 O 758.26 -2.03448 -3.4637 0
M  V30 7897 N 756.466 -1.97889 -2.1281 0
M  V30 7898 H 756.013 -2.2397 -1.27261 0
M  V30 7899 H 755.971 -1.42971 -2.80012 0
M  V30 7900 N 759.743 -0.201713 -1.56304 0
M  V30 7901 C 760.991 0.434447 -1.97375 0
M  V30 7902 C 761.312 1.61692 -1.08998 0
M  V30 7903 O 760.582 1.95223 -0.162682 0
M  V30 7904 H 759.162 0.163497 -0.728888 0
M  V30 7905 H 761.824 -0.289988 -1.92731 0
M  V30 7906 H 760.92 0.774136 -3.02347 0
M  V30 7907 N 761.222 1.57436 0.0718424 0
M  V30 7908 C 762.155 1.98982 1.11721 0
M  V30 7909 C 763.133 0.866731 1.37574 0
M  V30 7910 O 764.317 1.12903 1.50948 0
M  V30 7911 C 761.444 2.32648 2.46155 0
M  V30 7912 C 760.49 3.54964 2.36437 0
M  V30 7913 S 761.323 5.05802 1.75854 0
M  V30 7914 C 762.479 5.42669 3.11867 0
M  V30 7915 H 762.712 2.87338 0.763154 0
M  V30 7916 H 760.245 1.51833 0.280372 0
M  V30 7917 H 762.203 2.52719 3.23486 0
M  V30 7918 H 760.864 1.44821 2.78722 0
M  V30 7919 H 760.057 3.76038 3.35577 0
M  V30 7920 H 759.659 3.34524 1.67242 0
M  V30 7921 H 761.951 5.40737 4.08178 0
M  V30 7922 H 762.894 6.43461 2.95573 0
M  V30 7923 H 763.302 4.70131 3.1247 0
M  V30 7924 N 762.7 -0.34323 1.53817 0
M  V30 7925 C 763.94 -1.09188 1.72793 0
M  V30 7926 C 764.304 -1.85876 0.481062 0
M  V30 7927 O 765.505 -2.63158 0.547851 0
M  V30 7928 C 763.776 -2.00783 2.9567 0
M  V30 7929 S 765.335 -2.82866 3.35459 0
M  V30 7930 H 762.153 -0.368926 0.607795 0
M  V30 7931 H 764.755 -0.370265 1.91962 0
M  V30 7932 H 763.459 -1.43245 3.84589 0
M  V30 7933 H 762.99 -2.77381 2.78968 0
M  V30 7934 H 765.005 -4.03196 2.89218 0
M  V30 7935 N 764.178 -1.45556 -0.604258 0
M  V30 7936 C 765.11 -1.50494 -1.72871 0
M  V30 7937 C 766.123 -0.395368 -1.57926 0
M  V30 7938 O 767.312 -0.662603 -1.65746 0
M  V30 7939 C 764.412 -1.34874 -3.10906 0
M  V30 7940 C 763.585 -2.59564 -3.52058 0
M  V30 7941 C 762.644 -2.38453 -4.6907 0
M  V30 7942 O 761.67 -3.12082 -4.76018 0
M  V30 7943 N 762.872 -1.43229 -5.62553 0
M  V30 7944 H 765.637 -2.4744 -1.69097 0
M  V30 7945 H 763.198 -1.41338 -0.789636 0
M  V30 7946 H 765.19 -1.18556 -3.86945 0
M  V30 7947 H 763.76 -0.461913 -3.09168 0
M  V30 7948 H 762.98 -2.90974 -2.65946 0
M  V30 7949 H 764.268 -3.42441 -3.76313 0
M  V30 7950 H 763.666 -0.824714 -5.59656 0
M  V30 7951 H 762.223 -1.32882 -6.38111 0
M  V30 7952 N 765.656 0.84705 -1.32902 0
M  V30 7953 C 766.886 1.63166 -1.26729 0
M  V30 7954 C 767.294 1.88474 0.165595 0
M  V30 7955 O 766.637 1.45947 1.11558 0
M  V30 7956 C 766.699 3.0103 -1.96522 0
M  V30 7957 C 766.363 2.9873 -3.45846 0
M  V30 7958 C 767.36 2.75032 -4.41196 0
M  V30 7959 C 765.045 3.19125 -3.87898 0
M  V30 7960 C 767.039 2.71743 -5.76571 0
M  V30 7961 C 764.726 3.15462 -5.2338 0
M  V30 7962 C 765.724 2.91801 -6.17528 0
M  V30 7963 O 765.412 2.88027 -7.5053 0
M  V30 7964 H 765.144 0.51469 -0.438258 0
M  V30 7965 H 767.698 1.06383 -1.75704 0
M  V30 7966 H 765.928 3.59634 -1.42128 0
M  V30 7967 H 767.617 3.61821 -1.83958 0
M  V30 7968 H 768.383 2.59034 -4.10032 0
M  V30 7969 H 764.262 3.36565 -3.15032 0
M  V30 7970 H 767.806 2.53194 -6.5003 0
M  V30 7971 H 763.703 3.31006 -5.54171 0
M  V30 7972 H 764.471 3.03927 -7.59981 0
M  V30 7973 N 767.134 1.16236 1.06428 0
M  V30 7974 C 768.364 0.965782 1.82637 0
M  V30 7975 C 768.772 -0.489284 1.82764 0
M  V30 7976 O 768.115 -1.35133 1.24438 0
M  V30 7977 C 768.177 1.41458 3.30499 0
M  V30 7978 C 767.841 2.88926 3.54077 0
M  V30 7979 C 768.838 3.86939 3.47238 0
M  V30 7980 C 766.523 3.26814 3.81442 0
M  V30 7981 C 768.517 5.20841 3.67428 0
M  V30 7982 C 766.204 4.60886 4.01282 0
M  V30 7983 C 767.202 5.57708 3.94272 0
M  V30 7984 O 766.89 6.89357 4.13573 0
M  V30 7985 H 766.622 0.342569 0.582772 0
M  V30 7986 H 769.176 1.54641 1.35187 0
M  V30 7987 H 767.406 0.777426 3.78805 0
M  V30 7988 H 769.095 1.18563 3.88198 0
M  V30 7989 H 769.861 3.59014 3.26089 0
M  V30 7990 H 765.74 2.5203 3.86008 0
M  V30 7991 H 769.284 5.96401 3.61873 0
M  V30 7992 H 765.181 4.88522 4.21921 0
M  V30 7993 H 765.949 6.95913 4.30869 0
M  V30 7994 N 768.612 -1.24939 0.960631 0
M  V30 7995 C 769.889 -1.88118 0.535807 0
M  V30 7996 C 770.269 -1.86605 -0.987009 0
M  V30 7997 O 769.617 -1.33375 -1.85536 0
M  V30 7998 C 769.827 -3.30565 1.11927 0
M  V30 7999 C 771.175 -4.07296 1.19981 0
M  V30 8000 O 772.199 -3.39709 1.07126 0
M  V30 8001 O 771.058 -5.28206 1.40218 0
M  V30 8002 H 768.152 -0.807698 0.177631 0
M  V30 8003 H 770.698 -1.32964 1.05445 0
M  V30 8004 H 769.47 -3.26128 2.16231 0
M  V30 8005 H 769.093 -3.93284 0.584245 0
M  V30 8006 N 770.09 -0.729906 -1.39679 0
M  V30 8007 C 771.053 -0.0951668 -2.29002 0
M  V30 8008 C 772.053 0.672471 -1.46063 0
M  V30 8009 O 773.243 0.502245 -1.66803 0
M  V30 8010 C 770.375 0.874631 -3.29489 0
M  V30 8011 H 771.568 -0.882062 -2.86635 0
M  V30 8012 H 769.121 -0.495424 -1.4824 0
M  V30 8013 H 769.856 1.68807 -2.76902 0
M  V30 8014 H 769.641 0.326893 -3.90735 0
M  V30 8015 H 771.131 1.31548 -3.96339 0
M  V30 8016 N 771.568 1.50203 -0.477153 0
M  V30 8017 C 772.5 2.26508 0.350239 0
M  V30 8018 C 773.513 1.32081 0.95176 0
M  V30 8019 O 774.702 1.57546 0.839139 0
M  V30 8020 C 771.802 3.0361 1.50579 0
M  V30 8021 C 770.975 4.25438 1.01595 0
M  V30 8022 C 770.034 4.84783 2.04626 0
M  V30 8023 O 769.06 5.45528 1.62442 0
M  V30 8024 N 770.262 4.72318 3.37485 0
M  V30 8025 H 773.027 2.98155 -0.30394 0
M  V30 8026 H 770.588 1.58938 -0.308289 0
M  V30 8027 H 772.58 3.4019 2.1921 0
M  V30 8028 H 771.15 2.34724 2.06455 0
M  V30 8029 H 770.37 3.93894 0.155316 0
M  V30 8030 H 771.658 5.04413 0.666694 0
M  V30 8031 H 771.056 4.24022 3.74462 0
M  V30 8032 H 769.613 5.13149 4.01897 0
M  V30 8033 N 773.046 0.209999 1.56195 0
M  V30 8034 C 774.286 -0.4268 1.99894 0
M  V30 8035 C 774.65 -1.57763 1.0943 0
M  V30 8036 O 775.851 -2.27964 1.42428 0
M  V30 8037 C 774.122 -0.861188 3.46869 0
M  V30 8038 S 775.681 -1.49372 4.12593 0
M  V30 8039 H 772.499 -0.135922 0.697887 0
M  V30 8040 H 775.101 0.316573 1.9292 0
M  V30 8041 H 773.805 -0.0137653 4.10398 0
M  V30 8042 H 773.336 -1.63766 3.57693 0
M  V30 8043 H 775.351 -2.7827 4.10829 0
M  V30 8044 N 774.524 -1.57472 -0.0634922 0
M  V30 8045 C 775.456 -2.00999 -1.10145 0
M  V30 8046 C 776.469 -0.917219 -1.34503 0
M  V30 8047 O 777.658 -1.19501 -1.32596 0
M  V30 8048 C 774.758 -2.34089 -2.45063 0
M  V30 8049 C 773.931 -3.65317 -2.40546 0
M  V30 8050 C 772.99 -3.85982 -3.57637 0
M  V30 8051 O 772.016 -4.5747 -3.38689 0
M  V30 8052 N 773.218 -3.28971 -4.78287 0
M  V30 8053 H 775.983 -2.90656 -0.730714 0
M  V30 8054 H 773.544 -1.59926 -0.252017 0
M  V30 8055 H 775.536 -2.4508 -3.22053 0
M  V30 8056 H 774.106 -1.50279 -2.74107 0
M  V30 8057 H 773.326 -3.65003 -1.48885 0
M  V30 8058 H 774.614 -4.51468 -2.34636 0
M  V30 8059 H 774.012 -2.70962 -4.96584 0
M  V30 8060 H 772.569 -3.45398 -5.5276 0
M  V30 8061 N 776.003 0.335068 -1.53997 0
M  V30 8062 C 777.249 1.07594 -1.71905 0
M  V30 8063 C 777.582 1.88039 -0.485264 0
M  V30 8064 O 776.857 1.87482 0.517752 0
M  V30 8065 C 777.14 2.01016 -2.98772 0
M  V30 8066 C 776.993 1.23977 -4.32377 0
M  V30 8067 C 778.312 3.0071 -3.21343 0
M  V30 8068 H 775.431 0.38976 -0.625505 0
M  V30 8069 H 778.073 0.353684 -1.86679 0
M  V30 8070 H 776.223 2.62603 -2.86307 0
M  V30 8071 H 777.895 0.649383 -4.56706 0
M  V30 8072 H 776.138 0.541878 -4.30402 0
M  V30 8073 H 776.809 1.92512 -5.17342 0
M  V30 8074 H 779.285 2.4924 -3.33194 0
M  V30 8075 H 778.161 3.63272 -4.11491 0
M  V30 8076 H 778.422 3.72549 -2.38033 0
M  V30 8077 N 777.481 1.45874 0.596531 0
M  V30 8078 C 778.73 1.49737 1.35135 0
M  V30 8079 C 779.043 0.147755 1.95041 0
M  V30 8080 O 780.249 0.0640984 2.71424 0
M  V30 8081 C 778.705 2.6378 2.44843 0
M  V30 8082 C 778.313 4.05102 1.91301 0
M  V30 8083 C 780.057 2.769 3.21755 0
M  V30 8084 C 777.964 5.10508 2.98557 0
M  V30 8085 H 776.894 0.557219 0.507959 0
M  V30 8086 H 779.545 1.72046 0.638147 0
M  V30 8087 H 777.927 2.34774 3.189 0
M  V30 8088 H 779.101 4.43836 1.2388 0
M  V30 8089 H 777.416 3.96528 1.271 0
M  V30 8090 H 780.013 3.52819 4.01775 0
M  V30 8091 H 780.356 1.83924 3.73467 0
M  V30 8092 H 780.889 3.05485 2.54802 0
M  V30 8093 H 777.628 6.0523 2.51749 0
M  V30 8094 H 777.148 4.76332 3.6451 0
M  V30 8095 H 778.827 5.35745 3.62748 0
M  V30 8096 N 778.959 -0.83999 1.33349 0
M  V30 8097 C 780.206 -1.59517 1.24742 0
M  V30 8098 C 780.534 -1.93598 -0.187077 0
M  V30 8099 O 779.789 -1.58782 -1.14398 0
M  V30 8100 C 780.088 -2.91571 2.06691 0
M  V30 8101 C 779.754 -2.76856 3.55895 0
M  V30 8102 C 778.416 -2.72551 3.96572 0
M  V30 8103 C 780.768 -2.61741 4.50712 0
M  V30 8104 C 778.096 -2.51028 5.30285 0
M  V30 8105 C 780.448 -2.41752 5.84584 0
M  V30 8106 C 779.112 -2.35848 6.24445 0
M  V30 8107 H 778.382 -0.583714 0.456463 0
M  V30 8108 H 781.029 -0.973261 1.64924 0
M  V30 8109 H 779.334 -3.57961 1.59284 0
M  V30 8110 H 781.031 -3.49053 1.9739 0
M  V30 8111 H 777.621 -2.81039 3.23597 0
M  V30 8112 H 781.805 -2.64102 4.20195 0
M  V30 8113 H 777.061 -2.44903 5.60208 0
M  V30 8114 H 781.235 -2.2904 6.57658 0
M  V30 8115 H 778.862 -2.18931 7.27993 0
M  V30 8116 N 780.437 -1.16799 -1.0581 0
M  V30 8117 C 781.685 -0.950642 -1.78346 0
M  V30 8118 C 782.006 0.522524 -1.87869 0
M  V30 8119 O 781.276 1.3795 -1.39092 0
M  V30 8120 H 779.856 -0.348736 -0.6606 0
M  V30 8121 H 782.518 -1.47158 -1.27791 0
M  V30 8122 H 781.614 -1.37359 -2.80248 0
M  V30 8123 N 781.915 1.24427 -0.967243 0
M  V30 8124 C 783.14 1.9708 -0.646069 0
M  V30 8125 C 783.565 1.71272 0.777665 0
M  V30 8126 O 782.923 0.976179 1.52776 0
M  V30 8127 C 782.971 3.48501 -0.926266 0
M  V30 8128 O 782.075 4.12398 -0.0114653 0
M  V30 8129 H 781.416 0.617423 -0.244304 0
M  V30 8130 H 783.946 1.58215 -1.29727 0
M  V30 8131 H 783.956 3.98885 -0.857619 0
M  V30 8132 H 782.631 3.66613 -1.96386 0
M  V30 8133 H 781.208 3.72661 -0.133396 0
M  V30 8134 N 783.393 0.737304 1.3929 0
M  V30 8135 C 784.34 0.0988364 2.30588 0
M  V30 8136 C 785.31 -0.727206 1.49335 0
M  V30 8137 O 786.495 -0.686694 1.78014 0
M  V30 8138 C 783.635 -0.800734 3.35682 0
M  V30 8139 C 782.748 0.0381731 4.31983 0
M  V30 8140 C 781.883 -0.862884 5.24145 0
M  V30 8141 C 780.922 -0.0193639 6.12097 0
M  V30 8142 N 780.059 -0.87648 6.96608 0
M  V30 8143 H 784.899 0.883031 2.84617 0
M  V30 8144 H 782.436 0.447111 1.4014 0
M  V30 8145 H 784.394 -1.33676 3.95205 0
M  V30 8146 H 783.024 -1.55088 2.83103 0
M  V30 8147 H 782.076 0.691641 3.74059 0
M  V30 8148 H 783.388 0.690294 4.94 0
M  V30 8149 H 782.542 -1.46667 5.88705 0
M  V30 8150 H 781.281 -1.54878 4.62454 0
M  V30 8151 H 780.286 0.597202 5.46547 0
M  V30 8152 H 781.511 0.663348 6.75852 0
M  V30 8153 H 779.457 -1.54762 6.37483 0
M  V30 8154 H 779.374 -0.280892 7.55478 0
M  V30 8155 H 780.642 -1.46575 7.65595 0
M  V30 8156 N 784.871 -1.49948 0.485112 0
M  V30 8157 C 785.834 -2.27351 -0.290546 0
M  V30 8158 C 786.834 -1.32704 -0.908087 0
M  V30 8159 O 788.024 -1.56007 -0.775085 0
M  V30 8160 C 785.156 -3.10135 -1.41524 0
M  V30 8161 H 786.349 -2.97374 0.388454 0
M  V30 8162 H 783.902 -1.54453 0.239586 0
M  V30 8163 H 784.637 -2.44641 -2.12888 0
M  V30 8164 H 784.422 -3.79705 -0.978074 0
M  V30 8165 H 785.912 -3.68638 -1.96204 0
M  V30 8166 N 786.349 -0.21828 -1.56081 0
M  V30 8167 C 787.296 0.693189 -2.20144 0
M  V30 8168 C 788.266 1.19274 -1.15598 0
M  V30 8169 O 789.451 1.25243 -1.4394 0
M  V30 8170 C 786.591 1.89715 -2.88275 0
M  V30 8171 C 785.704 1.4368 -4.07407 0
M  V30 8172 C 784.839 2.59807 -4.63329 0
M  V30 8173 C 783.878 2.10492 -5.74769 0
M  V30 8174 N 783.015 3.1988 -6.24997 0
M  V30 8175 H 787.855 0.14016 -2.9767 0
M  V30 8176 H 785.392 0.0574292 -1.46988 0
M  V30 8177 H 787.35 2.60398 -3.25958 0
M  V30 8178 H 785.98 2.42311 -2.13273 0
M  V30 8179 H 785.032 0.625007 -3.7523 0
M  V30 8180 H 786.344 1.03517 -4.8794 0
M  V30 8181 H 785.498 3.38577 -5.03438 0
M  V30 8182 H 784.237 3.03256 -3.81951 0
M  V30 8183 H 783.242 1.30182 -5.34165 0
M  V30 8184 H 784.467 1.68045 -6.5798 0
M  V30 8185 H 782.413 3.62817 -5.46534 0
M  V30 8186 H 782.33 2.83958 -7.00645 0
M  V30 8187 H 783.598 3.98796 -6.69763 0
M  V30 8188 N 787.827 1.57504 0.0551401 0
M  V30 8189 C 788.79 2.03826 1.04821 0
M  V30 8190 C 789.79 0.937968 1.30609 0
M  V30 8191 O 790.98 1.20237 1.2605 0
M  V30 8192 C 788.112 2.43309 2.38775 0
M  V30 8193 H 789.305 2.92802 0.6486 0
M  V30 8194 H 786.858 1.53368 0.301315 0
M  V30 8195 H 787.593 1.5741 2.83536 0
M  V30 8196 H 787.378 3.23615 2.21395 0
M  V30 8197 H 788.868 2.79666 3.10124 0
M  V30 8198 N 789.305 -0.326896 1.54172 0
M  V30 8199 C 790.268 -1.38515 1.8261 0
M  V30 8200 C 791.268 -1.44872 0.697771 0
M  V30 8201 O 792.458 -1.44957 0.966078 0
M  V30 8202 C 789.59 -2.77281 1.98313 0
M  V30 8203 H 790.783 -1.14556 2.77159 0
M  V30 8204 H 788.336 -0.562199 1.45839 0
M  V30 8205 H 789.071 -3.065 1.05964 0
M  V30 8206 H 788.856 -2.74061 2.80416 0
M  V30 8207 H 790.346 -3.53845 2.21773 0
M  V30 8208 N 790.784 -1.46188 -0.588786 0
M  V30 8209 C 792.195 -1.45421 -1.17088 0
M  V30 8210 C 792.546 -0.191801 -1.9526 0
M  V30 8211 O 791.671 0.705497 -2.04577 0
M  V30 8212 C 792.266 -2.63467 -2.13004 0
M  V30 8213 C 790.825 -2.6576 -2.6655 0
M  V30 8214 C 789.972 -2.38002 -1.42304 0
M  V30 8215 H 792.923 -1.54156 -0.377052 0
M  V30 8216 H 792.944 -2.38638 -2.96365 0
M  V30 8217 H 792.456 -3.55331 -1.56081 0
M  V30 8218 H 790.557 -1.77952 -3.27359 0
M  V30 8219 H 790.67 -3.65545 -3.09699 0
M  V30 8220 H 789.034 -1.87936 -1.71907 0
M  V30 8221 H 789.817 -3.32035 -0.872209 0
M  V30 8222 N 792.262 0.832906 -1.33792 0
M  V30 8223 C 793.209 1.94314 -1.24541 0
M  V30 8224 C 794.179 1.65646 -0.122753 0
M  V30 8225 O 795.364 1.88394 -0.30204 0
M  V30 8226 C 792.504 3.30395 -0.996641 0
M  V30 8227 C 791.617 3.71422 -2.20612 0
M  V30 8228 C 790.752 4.96401 -1.89101 0
M  V30 8229 C 789.791 5.2998 -3.06247 0
M  V30 8230 N 788.928 6.46137 -2.74685 0
M  V30 8231 H 793.768 2.01559 -2.19495 0
M  V30 8232 H 791.305 0.986243 -1.09141 0
M  V30 8233 H 793.263 4.08803 -0.832817 0
M  V30 8234 H 791.893 3.22691 -0.0838242 0
M  V30 8235 H 790.945 2.88488 -2.47949 0
M  V30 8236 H 792.257 3.92215 -3.0817 0
M  V30 8237 H 791.411 5.82572 -1.69396 0
M  V30 8238 H 790.15 4.7759 -0.987882 0
M  V30 8239 H 789.155 4.42312 -3.26559 0
M  V30 8240 H 790.38 5.50737 -3.97323 0
M  V30 8241 H 788.326 6.28801 -1.86938 0
M  V30 8242 H 788.243 6.67054 -3.55774 0
M  V30 8243 H 789.511 7.35403 -2.58461 0
M  V30 8244 N 793.74 1.17359 1.05189 0
M  V30 8245 C 795.017 0.871914 1.75091 0
M  V30 8246 C 795.397 -0.627821 2.01548 0
M  V30 8247 O 794.745 -1.5791 1.65156 0
M  V30 8248 C 794.955 1.70687 3.04413 0
M  V30 8249 C 796.303 1.92684 3.78362 0
M  V30 8250 O 797.327 1.67645 3.14282 0
M  V30 8251 O 796.186 2.34765 4.93505 0
M  V30 8252 H 793.28 0.322831 0.761386 0
M  V30 8253 H 795.826 1.28054 1.11357 0
M  V30 8254 H 794.598 2.72405 2.80911 0
M  V30 8255 H 794.221 1.29602 3.75884 0
M  V30 8256 N 795.218 -1.23913 0.973828 0
M  V30 8257 C 796.458 -1.93889 0.647015 0
M  V30 8258 C 796.822 -1.74368 -0.803735 0
M  V30 8259 O 798.023 -2.38435 -1.24106 0
M  V30 8260 C 796.294 -3.4257 1.01885 0
M  V30 8261 S 797.853 -4.31306 0.807517 0
M  V30 8262 H 794.671 -0.670279 0.237165 0
M  V30 8263 H 797.273 -1.50144 1.25208 0
M  V30 8264 H 795.977 -3.54286 2.07146 0
M  V30 8265 H 795.508 -3.91312 0.404812 0
M  V30 8266 H 797.523 -4.95218 -0.311986 0
M  V30 8267 N 796.696 -0.74468 -1.38897 0
M  V30 8268 C 797.943 -0.296884 -2.00312 0
M  V30 8269 C 798.271 1.11878 -1.59102 0
M  V30 8270 O 797.526 1.7789 -0.815702 0
M  V30 8271 C 797.825 -0.357302 -3.55609 0
M  V30 8272 C 797.491 -1.72736 -4.16501 0
M  V30 8273 C 796.153 -2.10232 -4.32846 0
M  V30 8274 C 798.505 -2.62647 -4.50184 0
M  V30 8275 C 795.833 -3.3713 -4.80167 0
M  V30 8276 C 798.185 -3.88926 -4.98918 0
M  V30 8277 C 796.849 -4.26503 -5.1347 0
M  V30 8278 H 796.119 -0.108638 -0.732993 0
M  V30 8279 H 798.766 -0.953419 -1.66079 0
M  V30 8280 H 797.071 0.382805 -3.89925 0
M  V30 8281 H 798.768 0.0074596 -4.00999 0
M  V30 8282 H 795.358 -1.42585 -4.04187 0
M  V30 8283 H 799.542 -2.34945 -4.37166 0
M  V30 8284 H 794.798 -3.66174 -4.89619 0
M  V30 8285 H 798.972 -4.58745 -5.23952 0
M  V30 8286 H 796.599 -5.24896 -5.49898 0
M  V30 8287 N 798.174 1.49689 -0.493057 0
M  V30 8288 C 799.423 2.01622 0.0560733 0
M  V30 8289 C 799.736 1.37838 1.3878 0
M  V30 8290 O 800.942 1.81054 2.02316 0
M  V30 8291 C 799.398 3.59586 0.150409 0
M  V30 8292 C 799.006 4.32338 -1.1742 0
M  V30 8293 C 800.75 4.19489 0.650327 0
M  V30 8294 C 798.657 5.8214 -1.04246 0
M  V30 8295 H 797.587 0.753594 0.0247297 0
M  V30 8296 H 800.238 1.723 -0.631279 0
M  V30 8297 H 798.62 3.8559 0.902035 0
M  V30 8298 H 799.794 4.18042 -1.9385 0
M  V30 8299 H 798.109 3.84144 -1.60694 0
M  V30 8300 H 800.706 5.29181 0.766272 0
M  V30 8301 H 801.049 3.82326 1.6472 0
M  V30 8302 H 801.582 3.97775 -0.0445371 0
M  V30 8303 H 798.321 6.23814 -2.01336 0
M  V30 8304 H 797.841 5.98952 -0.31892 0
M  V30 8305 H 799.52 6.43004 -0.717957 0
M  V30 8306 N 799.652 0.226554 1.55963 0
M  V30 8307 C 800.562 -0.692725 2.24139 0
M  V30 8308 C 801.578 -1.20971 1.25068 0
M  V30 8309 O 802.754 -1.25027 1.57893 0
M  V30 8310 C 799.819 -1.88183 2.91184 0
M  V30 8311 C 798.88 -1.40633 4.05612 0
M  V30 8312 C 798.113 -2.53875 4.6945 0
M  V30 8313 O 798.336 -3.72129 4.32292 0
M  V30 8314 O 797.27 -2.24792 5.58348 0
M  V30 8315 H 801.096 -0.141921 3.03368 0
M  V30 8316 H 798.681 -0.0041049 1.49399 0
M  V30 8317 H 800.563 -2.57617 3.33484 0
M  V30 8318 H 799.238 -2.42064 2.14911 0
M  V30 8319 H 798.145 -0.67986 3.67871 0
M  V30 8320 H 799.478 -0.913838 4.83642 0
M  V30 8321 N 801.13 -1.57531 -0.0467866 0
M  V30 8322 C 802.376 -1.8873 -0.742218 0
M  V30 8323 C 802.709 -0.822084 -1.75941 0
M  V30 8324 O 801.984 0.164922 -1.938 0
M  V30 8325 C 802.267 -3.30586 -1.42776 0
M  V30 8326 C 802.12 -4.47785 -0.425285 0
M  V30 8327 C 803.439 -3.71068 -2.36636 0
M  V30 8328 H 800.558 -0.686406 -0.268359 0
M  V30 8329 H 803.2 -1.89999 -0.00511341 0
M  V30 8330 H 801.35 -3.29634 -2.05605 0
M  V30 8331 H 803.022 -4.60867 0.199721 0
M  V30 8332 H 801.265 -4.33037 0.25713 0
M  V30 8333 H 801.936 -5.43884 -0.943086 0
M  V30 8334 H 804.412 -3.73273 -1.83866 0
M  V30 8335 H 803.288 -4.71165 -2.81593 0
M  V30 8336 H 803.549 -3.02355 -3.22542 0
M  V30 8337 N 802.608 0.318715 -1.54344 0
M  V30 8338 C 803.556 1.41254 -1.84798 0
M  V30 8339 C 804.55 1.53325 -0.720256 0
M  V30 8340 O 805.756 1.55653 -0.903992 0
M  V30 8341 H 802.131 0.471468 -0.585851 0
M  V30 8342 H 804.102 1.12795 -2.7626 0
M  V30 8343 C 802.851 2.77395 -2.09637 0
M  V30 8344 H 802.174 2.68881 -2.95876 0
M  V30 8345 H 803.614 3.52987 -2.34896 0
M  V30 8346 C 802.073 3.24948 -0.889398 0
M  V30 8347 O 802.603 4.01573 -0.101063 0
M  V30 8348 N 800.809 2.82051 -0.699684 0
M  V30 8349 H 800.356 2.19858 -1.3424 0
M  V30 8350 H 800.314 3.1422 0.106368 0
M  V30 8351 N 804.086 1.46499 0.581025 0
M  V30 8352 C 805.311 1.55708 1.37002 0
M  V30 8353 C 805.736 0.19942 1.8704 0
M  V30 8354 O 805.094 -0.820731 1.61659 0
M  V30 8355 C 805.142 2.56716 2.53238 0
M  V30 8356 O 804.246 2.10336 3.54729 0
M  V30 8357 H 803.587 0.523912 0.407937 0
M  V30 8358 H 806.117 1.92085 0.704602 0
M  V30 8359 H 806.127 2.76378 3.00132 0
M  V30 8360 H 804.802 3.55307 2.16171 0
M  V30 8361 H 803.379 2.00669 3.14303 0
M  V30 8362 N 805.565 -0.825799 1.34232 0
M  V30 8363 C 806.512 -1.93651 1.2557 0
M  V30 8364 C 807.482 -1.65578 0.131536 0
M  V30 8365 O 808.667 -1.88231 0.312027 0
M  V30 8366 C 805.807 -3.29862 1.01415 0
M  V30 8367 C 804.92 -3.70247 2.22579 0
M  V30 8368 C 804.055 -4.95392 1.91731 0
M  V30 8369 C 803.094 -5.28349 3.09053 0
M  V30 8370 N 802.231 -6.44671 2.78107 0
M  V30 8371 H 807.071 -2.00392 2.20561 0
M  V30 8372 H 804.608 -0.980441 1.09662 0
M  V30 8373 H 806.566 -4.08356 0.854485 0
M  V30 8374 H 805.196 -3.22642 0.100936 0
M  V30 8375 H 804.248 -2.87169 2.49476 0
M  V30 8376 H 805.56 -3.90575 3.10246 0
M  V30 8377 H 804.714 -5.81665 1.72484 0
M  V30 8378 H 803.453 -4.77059 1.0132 0
M  V30 8379 H 802.458 -4.40574 3.289 0
M  V30 8380 H 803.683 -5.48622 4.00239 0
M  V30 8381 H 801.629 -6.278 1.9027 0
M  V30 8382 H 801.546 -6.65158 3.59306 0
M  V30 8383 H 802.814 -7.34022 2.62358 0
M  V30 8384 N 807.043 -1.17915 -1.04565 0
M  V30 8385 C 808.291 -0.969505 -1.77327 0
M  V30 8386 C 808.612 0.502569 -1.88412 0
M  V30 8387 O 807.882 1.36467 -1.40547 0
M  V30 8388 H 806.462 -0.355723 -0.656864 0
M  V30 8389 H 809.124 -1.48506 -1.26223 0
M  V30 8390 H 808.22 -1.40324 -2.78775 0
M  V30 8391 N 808.521 1.23394 -0.980386 0
M  V30 8392 C 809.798 1.87242 -0.565667 0
M  V30 8393 C 810.178 1.88151 0.957197 0
M  V30 8394 O 809.526 1.36309 1.8339 0
M  V30 8395 C 809.736 3.28743 -1.17172 0
M  V30 8396 C 811.084 4.05335 -1.26446 0
M  V30 8397 O 812.108 3.37962 -1.12517 0
M  V30 8398 O 810.967 5.25908 -1.48604 0
M  V30 8399 H 808.061 0.80477 -0.190459 0
M  V30 8400 H 810.607 1.3127 -1.07547 0
M  V30 8401 H 809.379 3.22647 -2.21392 0
M  V30 8402 H 809.002 3.92305 -0.646739 0
M  V30 8403 N 809.999 0.752036 1.385 0
M  V30 8404 C 811.415 0.42946 1.53713 0
M  V30 8405 C 811.615 -1.0576 1.71514 0
M  V30 8406 O 810.671 -1.84366 1.72527 0
M  V30 8407 C 811.984 1.22735 2.74511 0
M  V30 8408 C 813.532 1.21727 2.8836 0
M  V30 8409 C 814.007 1.99809 4.12117 0
M  V30 8410 N 815.498 1.97062 4.19191 0
M  V30 8411 C 816.233 2.54274 5.13938 0
M  V30 8412 N 815.729 3.20193 6.14368 0
M  V30 8413 N 817.522 2.44212 5.06277 0
M  V30 8414 H 809.673 1.71581 1.25195 0
M  V30 8415 H 811.936 0.727293 0.60807 0
M  V30 8416 H 811.642 2.28032 2.67758 0
M  V30 8417 H 811.516 0.843186 3.67655 0
M  V30 8418 H 813.903 0.172367 2.94596 0
M  V30 8419 H 813.984 1.64094 1.96232 0
M  V30 8420 H 813.628 3.0431 4.06642 0
M  V30 8421 H 813.558 1.54837 5.03322 0
M  V30 8422 H 816.049 1.49054 3.47263 0
M  V30 8423 H 816.362 3.61272 6.83156 0
M  V30 8424 H 814.707 3.24287 6.14705 0
M  V30 8425 H 817.898 1.92343 4.26757 0
M  V30 8426 H 818.071 2.89096 5.79937 0
M  V30 8427 N 811.477 -1.49425 0.500989 0
M  V30 8428 C 812.724 -2.02453 -0.0435355 0
M  V30 8429 C 813.052 -1.38067 -1.36995 0
M  V30 8430 O 812.307 -0.505557 -1.89057 0
M  V30 8431 C 812.606 -3.56562 -0.24463 0
M  V30 8432 C 812.272 -4.39585 1.00379 0
M  V30 8433 C 810.934 -4.61992 1.346 0
M  V30 8434 C 813.286 -4.87881 1.83361 0
M  V30 8435 C 810.614 -5.2994 2.51755 0
M  V30 8436 C 812.966 -5.57119 2.99669 0
M  V30 8437 C 811.63 -5.77771 3.3427 0
M  V30 8438 H 810.9 -0.740829 -0.0159308 0
M  V30 8439 H 813.547 -1.79725 0.661143 0
M  V30 8440 H 811.852 -3.77969 -1.03183 0
M  V30 8441 H 813.549 -3.95185 -0.6804 0
M  V30 8442 H 810.139 -4.22385 0.727225 0
M  V30 8443 H 814.323 -4.70398 1.58237 0
M  V30 8444 H 809.579 -5.44133 2.788 0
M  V30 8445 H 813.753 -5.93516 3.64296 0
M  V30 8446 H 811.38 -6.30197 4.25154 0
M  V30 8447 N 812.955 -0.234822 -1.55841 0
M  V30 8448 C 814.203 0.392483 -1.98252 0
M  V30 8449 C 814.524 1.59344 -1.12404 0
M  V30 8450 O 813.794 1.94834 -0.204055 0
M  V30 8451 H 812.374 0.147999 -0.732192 0
M  V30 8452 H 815.036 -0.330804 -1.92072 0
M  V30 8453 H 814.132 0.709829 -3.03921 0
M  V30 8454 N 814.433 1.57553 0.0384317 0
M  V30 8455 C 815.381 2.07021 1.06043 0
M  V30 8456 C 816.375 0.982078 1.38028 0
M  V30 8457 O 817.581 1.16702 1.37042 0
M  V30 8458 H 813.956 0.660522 0.359464 0
M  V30 8459 H 815.927 2.91944 0.617339 0
M  V30 8460 C 814.676 2.55734 2.35574 0
M  V30 8461 H 813.999 3.39074 2.11822 0
M  V30 8462 H 815.439 2.94066 3.05452 0
M  V30 8463 C 813.898 1.45449 3.03885 0
M  V30 8464 O 814.428 0.815402 3.93337 0
M  V30 8465 N 812.634 1.19134 2.65058 0
M  V30 8466 H 812.181 1.71288 1.92401 0
M  V30 8467 H 812.139 0.455554 3.11082 0
M  V30 8468 N 815.911 -0.310526 1.54511 0
M  V30 8469 C 817.151 -1.05498 1.7507 0
M  V30 8470 C 817.515 -1.84814 0.520381 0
M  V30 8471 O 818.716 -2.61937 0.603547 0
M  V30 8472 C 816.987 -1.94466 2.99863 0
M  V30 8473 S 818.546 -2.75686 3.41383 0
M  V30 8474 H 815.364 -0.355951 0.615483 0
M  V30 8475 H 817.966 -0.329464 1.92704 0
M  V30 8476 H 816.67 -1.35055 3.87541 0
M  V30 8477 H 816.201 -2.71401 2.84789 0
M  V30 8478 H 818.216 -3.96971 2.97706 0
M  V30 8479 N 817.389 -1.46805 -0.573248 0
M  V30 8480 C 818.637 -1.52302 -1.32847 0
M  V30 8481 C 818.958 -0.180159 -1.94166 0
M  V30 8482 O 818.228 0.794291 -1.79075 0
M  V30 8483 H 816.808 -0.56097 -0.493276 0
M  V30 8484 H 819.47 -1.82998 -0.670642 0
M  V30 8485 H 818.566 -2.28089 -2.13031 0
M  V30 8486 N 818.867 0.818669 -1.34668 0
M  V30 8487 C 820.114 1.57512 -1.27264 0
M  V30 8488 C 820.442 1.93871 0.156254 0
M  V30 8489 O 819.697 1.60582 1.11857 0
M  V30 8490 C 819.996 2.88245 -2.11304 0
M  V30 8491 C 819.662 2.71159 -3.60255 0
M  V30 8492 C 818.324 2.66207 -4.00858 0
M  V30 8493 C 820.676 2.54538 -4.54819 0
M  V30 8494 C 818.004 2.4256 -5.34211 0
M  V30 8495 C 820.356 2.32421 -5.88356 0
M  V30 8496 C 819.02 2.25884 -6.28118 0
M  V30 8497 H 818.29 0.576378 -0.465692 0
M  V30 8498 H 820.937 0.9469 -1.66451 0
M  V30 8499 H 819.242 3.55381 -1.64958 0
M  V30 8500 H 820.939 3.45869 -2.02919 0
M  V30 8501 H 817.529 2.75856 -3.28027 0
M  V30 8502 H 821.713 2.57384 -4.24343 0
M  V30 8503 H 816.969 2.35959 -5.64033 0
M  V30 8504 H 821.143 2.18548 -6.61218 0
M  V30 8505 H 818.77 2.07322 -7.31383 0
M  V30 8506 N 820.346 1.18468 1.03938 0
M  V30 8507 C 821.571 1.00638 1.81347 0
M  V30 8508 C 821.996 -0.440477 1.8287 0
M  V30 8509 O 821.354 -1.31609 1.24695 0
M  V30 8510 C 821.402 1.5673 3.24759 0
M  V30 8511 O 820.506 0.789517 4.04772 0
M  V30 8512 H 819.847 0.356432 0.560225 0
M  V30 8513 H 822.377 1.57253 1.30891 0
M  V30 8514 H 822.387 1.59496 3.75533 0
M  V30 8515 H 821.062 2.62043 3.22965 0
M  V30 8516 H 819.639 0.834267 3.63448 0
M  V30 8517 N 821.824 -1.22873 0.986916 0
M  V30 8518 C 823.072 -1.91084 0.658121 0
M  V30 8519 C 823.393 -1.77304 -0.811675 0
M  V30 8520 O 822.663 -1.15649 -1.58121 0
M  V30 8521 H 821.243 -0.707251 0.240427 0
M  V30 8522 H 823.905 -1.49357 1.25213 0
M  V30 8523 H 823.001 -2.98373 0.915428 0
M  V30 8524 N 823.302 -0.75937 -1.38099 0
M  V30 8525 C 824.25 -0.124954 -2.32264 0
M  V30 8526 C 825.244 0.698863 -1.54312 0
M  V30 8527 O 826.45 0.597312 -1.698 0
M  V30 8528 H 822.825 -0.0216142 -0.751689 0
M  V30 8529 H 824.796 -0.935115 -2.83369 0
M  V30 8530 C 823.545 0.749463 -3.39527 0
M  V30 8531 H 822.868 0.124932 -3.99605 0
M  V30 8532 H 824.308 1.16055 -4.07808 0
M  V30 8533 C 822.767 1.89464 -2.78577 0
M  V30 8534 O 823.297 2.98923 -2.68343 0
M  V30 8535 N 821.503 1.69145 -2.36301 0
M  V30 8536 H 821.05 0.801157 -2.44825 0
M  V30 8537 H 821.008 2.45936 -1.95864 0
M  V30 8538 N 824.78 1.49157 -0.508906 0
M  V30 8539 C 825.69 2.33045 0.269656 0
M  V30 8540 C 826.706 1.45143 0.959662 0
M  V30 8541 O 827.882 1.78155 0.939295 0
M  V30 8542 C 824.947 3.20772 1.31554 0
M  V30 8543 C 824.008 4.24531 0.638131 0
M  V30 8544 C 823.241 5.08065 1.63418 0
M  V30 8545 O 823.464 4.93238 2.86483 0
M  V30 8546 O 822.398 5.90117 1.18516 0
M  V30 8547 H 826.224 3.00821 -0.417183 0
M  V30 8548 H 823.809 1.46938 -0.270119 0
M  V30 8549 H 825.691 3.75095 1.92047 0
M  V30 8550 H 824.366 2.55681 1.98516 0
M  V30 8551 H 823.273 3.74099 -0.00674357 0
M  V30 8552 H 824.606 4.92199 0.0108155 0
M  V30 8553 N 826.258 0.243083 1.55714 0
M  V30 8554 C 827.488 -0.38641 2.02954 0
M  V30 8555 C 827.896 -1.52358 1.12177 0
M  V30 8556 O 827.239 -1.83255 0.127853 0
M  V30 8557 C 827.301 -0.959388 3.46462 0
M  V30 8558 C 826.965 0.0450546 4.56978 0
M  V30 8559 C 827.962 0.853224 5.12851 0
M  V30 8560 C 825.647 0.170041 5.02012 0
M  V30 8561 C 827.641 1.77288 6.12248 0
M  V30 8562 C 825.328 1.0932 6.01242 0
M  V30 8563 C 826.326 1.89315 6.56238 0
M  V30 8564 O 826.014 2.80075 7.53534 0
M  V30 8565 H 825.746 -0.0964333 0.669086 0
M  V30 8566 H 828.3 0.363399 2.0216 0
M  V30 8567 H 826.53 -1.75869 3.44394 0
M  V30 8568 H 828.219 -1.49856 3.77224 0
M  V30 8569 H 828.985 0.767229 4.78893 0
M  V30 8570 H 824.864 -0.442528 4.58871 0
M  V30 8571 H 828.408 2.39768 6.55101 0
M  V30 8572 H 824.305 1.18013 6.3462 0
M  V30 8573 H 825.073 2.74393 7.71136 0
M  V30 8574 N 827.736 -1.57571 -0.0300757 0
M  V30 8575 C 828.683 -2.06492 -1.03101 0
M  V30 8576 C 829.653 -0.953862 -1.3598 0
M  V30 8577 O 830.838 -1.22436 -1.46335 0
M  V30 8578 C 827.978 -2.54826 -2.32718 0
M  V30 8579 C 827.091 -3.79718 -2.06006 0
M  V30 8580 C 826.226 -4.16668 -3.29487 0
M  V30 8581 C 825.265 -5.3448 -2.98324 0
M  V30 8582 N 824.402 -5.66867 -4.14254 0
M  V30 8583 H 829.242 -2.91755 -0.606877 0
M  V30 8584 H 826.779 -1.44252 -0.288038 0
M  V30 8585 H 828.737 -2.80916 -3.08451 0
M  V30 8586 H 827.367 -1.72481 -2.72856 0
M  V30 8587 H 826.419 -3.60718 -1.20774 0
M  V30 8588 H 827.731 -4.65569 -1.79017 0
M  V30 8589 H 826.885 -4.43881 -4.13588 0
M  V30 8590 H 825.624 -3.29466 -3.59588 0
M  V30 8591 H 824.629 -5.07021 -2.12625 0
M  V30 8592 H 825.854 -6.23334 -2.69502 0
M  V30 8593 H 823.8 -4.82625 -4.44308 0
M  V30 8594 H 823.717 -6.47226 -3.90685 0
M  V30 8595 H 824.985 -5.98656 -4.99231 0
M  V30 8596 N 829.214 0.302327 -1.54673 0
M  V30 8597 C 830.161 1.37282 -1.85532 0
M  V30 8598 C 831.131 1.50437 -0.704129 0
M  V30 8599 O 832.316 1.65317 -0.952627 0
M  V30 8600 C 829.456 2.73309 -2.10704 0
M  V30 8601 C 828.569 2.68614 -3.38335 0
M  V30 8602 C 827.704 3.96626 -3.53357 0
M  V30 8603 C 826.743 3.86324 -4.74784 0
M  V30 8604 N 825.88 5.06109 -4.86619 0
M  V30 8605 H 830.72 1.10265 -2.76849 0
M  V30 8606 H 828.257 0.533346 -1.37091 0
M  V30 8607 H 830.215 3.52414 -2.23294 0
M  V30 8608 H 828.845 2.98589 -1.22656 0
M  V30 8609 H 827.897 1.81381 -3.34373 0
M  V30 8610 H 829.209 2.56891 -4.27561 0
M  V30 8611 H 828.363 4.84168 -3.65604 0
M  V30 8612 H 827.102 4.11182 -2.62261 0
M  V30 8613 H 826.107 2.97166 -4.62572 0
M  V30 8614 H 827.332 3.73315 -5.67286 0
M  V30 8615 H 825.278 5.2113 -3.98446 0
M  V30 8616 H 825.195 4.96804 -5.69844 0
M  V30 8617 H 826.463 5.95306 -5.03221 0
M  V30 8618 N 830.692 1.47107 0.565454 0
M  V30 8619 C 831.932 1.5488 1.33385 0
M  V30 8620 C 832.296 0.202804 1.90926 0
M  V30 8621 O 833.497 0.155345 2.68351 0
M  V30 8622 C 831.768 2.62969 2.42037 0
M  V30 8623 S 833.327 2.90269 3.29074 0
M  V30 8624 H 830.145 0.547008 0.454206 0
M  V30 8625 H 832.747 1.8444 0.648228 0
M  V30 8626 H 831.451 3.59376 1.98185 0
M  V30 8627 H 830.982 2.35197 3.15351 0
M  V30 8628 H 832.997 2.26854 4.41307 0
M  V30 8629 N 832.17 -0.811516 1.35101 0
M  V30 8630 C 833.133 -1.90467 1.27495 0
M  V30 8631 C 834.133 -1.59703 0.187516 0
M  V30 8632 O 835.323 -1.68528 0.440896 0
M  V30 8633 C 832.455 -3.26774 0.971154 0
M  V30 8634 H 833.648 -1.98631 2.2469 0
M  V30 8635 H 831.201 -1.00681 1.19553 0
M  V30 8636 H 831.936 -3.243 0.0028557 0
M  V30 8637 H 831.721 -3.50488 1.75785 0
M  V30 8638 H 833.211 -4.06804 0.943414 0
M  V30 8639 N 833.648 -1.19017 -1.03309 0
M  V30 8640 C 834.876 -1.01534 -1.80273 0
M  V30 8641 C 835.291 0.43605 -1.83696 0
M  V30 8642 O 834.648 1.30288 -1.27794 0
M  V30 8643 C 834.699 -1.5722 -3.25522 0
M  V30 8644 O 834.42 -2.96677 -3.22358 0
M  V30 8645 C 835.921 -1.4446 -4.19102 0
M  V30 8646 H 833.141 -0.358094 -0.567459 0
M  V30 8647 H 835.685 -1.57738 -1.3015 0
M  V30 8648 H 833.84 -1.05174 -3.7285 0
M  V30 8649 H 834.254 -3.22795 -4.13405 0
M  V30 8650 H 835.728 -1.88209 -5.18923 0
M  V30 8651 H 836.205 -0.394471 -4.37425 0
M  V30 8652 H 836.811 -1.95616 -3.77643 0
M  V30 8653 N 835.127 1.22348 -0.993418 0
M  V30 8654 C 836.375 1.90733 -0.668246 0
M  V30 8655 C 836.696 1.77732 0.802261 0
M  V30 8656 O 835.966 1.16486 1.57505 0
M  V30 8657 H 834.546 0.705966 -0.244174 0
M  V30 8658 H 837.208 1.48691 -1.26004 0
M  V30 8659 H 836.304 2.97883 -0.931239 0
M  V30 8660 N 836.605 0.766683 1.37694 0
M  V30 8661 C 837.553 0.137269 2.32195 0
M  V30 8662 C 838.547 -0.69067 1.54681 0
M  V30 8663 O 839.753 -0.588299 1.70115 0
M  V30 8664 H 836.128 0.0256003 0.751564 0
M  V30 8665 H 838.099 0.950129 2.82869 0
M  V30 8666 C 836.848 -0.731446 3.39919 0
M  V30 8667 H 836.171 -0.103738 3.99665 0
M  V30 8668 H 837.611 -1.13891 4.08417 0
M  V30 8669 C 836.07 -1.87984 2.79578 0
M  V30 8670 O 836.6 -2.97496 2.69924 0
M  V30 8671 N 834.806 -1.6789 2.37195 0
M  V30 8672 H 834.353 -0.788162 2.45246 0
M  V30 8673 H 834.311 -2.44894 1.97165 0
M  V30 8674 N 838.083 -1.48885 0.516809 0
M  V30 8675 C 839.046 -2.27916 -0.242256 0
M  V30 8676 C 840.046 -1.34601 -0.879735 0
M  V30 8677 O 841.236 -1.57616 -0.74182 0
M  V30 8678 C 838.368 -3.13067 -1.34914 0
M  V30 8679 H 839.561 -2.96483 0.451444 0
M  V30 8680 H 837.114 -1.5391 0.272294 0
M  V30 8681 H 837.849 -2.49102 -2.07651 0
M  V30 8682 H 837.634 -3.81695 -0.897313 0
M  V30 8683 H 839.124 -3.72716 -1.88341 0
M  V30 8684 N 839.561 -0.251338 -1.55583 0
M  V30 8685 C 840.491 0.640437 -2.24545 0
M  V30 8686 C 841.472 1.17781 -1.22726 0
M  V30 8687 O 842.657 1.21633 -1.5139 0
M  V30 8688 C 839.787 1.8355 -2.94834 0
M  V30 8689 C 838.741 1.4307 -4.03379 0
M  V30 8690 C 838.067 2.70695 -4.61116 0
M  V30 8691 C 839.367 0.59848 -5.1886 0
M  V30 8692 H 841.061 0.0653772 -2.99329 0
M  V30 8693 H 838.607 0.0300042 -1.43969 0
M  V30 8694 H 840.56 2.46505 -3.4178 0
M  V30 8695 H 839.284 2.43601 -2.17546 0
M  V30 8696 H 837.943 0.824474 -3.57209 0
M  V30 8697 H 837.591 3.28954 -3.80524 0
M  V30 8698 H 837.291 2.44332 -5.34393 0
M  V30 8699 H 838.815 3.34541 -5.10798 0
M  V30 8700 H 840.229 1.13244 -5.62004 0
M  V30 8701 H 838.626 0.430728 -5.98552 0
M  V30 8702 H 839.696 -0.38829 -4.83343 0
M  V30 8703 N 841.039 1.57585 0.0217189 0
M  V30 8704 C 842.279 1.91457 0.715803 0
M  V30 8705 C 842.643 0.850685 1.72126 0
M  V30 8706 O 843.844 1.07396 2.46413 0
M  V30 8707 C 842.115 3.30456 1.36138 0
M  V30 8708 S 843.674 3.86176 2.0836 0
M  V30 8709 H 840.492 0.67035 0.236963 0
M  V30 8710 H 843.094 1.95477 -0.0297511 0
M  V30 8711 H 841.798 4.05744 0.616465 0
M  V30 8712 H 841.329 3.29757 2.14532 0
M  V30 8713 H 843.344 3.65496 3.356 0
M  V30 8714 N 842.517 -0.29412 1.54831 0
M  V30 8715 C 843.765 -1.02643 1.74094 0
M  V30 8716 C 844.086 -1.87563 0.533402 0
M  V30 8717 O 843.356 -1.9061 -0.452192 0
M  V30 8718 H 841.936 -0.381959 0.641963 0
M  V30 8719 H 844.598 -0.323444 1.92197 0
M  V30 8720 H 843.694 -1.67558 2.63307 0
M  V30 8721 N 843.995 -1.47404 -0.557645 0
M  V30 8722 C 844.942 -1.59859 -1.66475 0
M  V30 8723 C 845.912 -0.441644 -1.60121 0
M  V30 8724 O 847.097 -0.661641 -1.78961 0
M  V30 8725 C 844.237 -1.61843 -3.04797 0
M  V30 8726 C 843.35 -2.8845 -3.2159 0
M  V30 8727 C 842.485 -2.81773 -4.50308 0
M  V30 8728 C 841.524 -4.03208 -4.60532 0
M  V30 8729 N 840.661 -3.94769 -5.80604 0
M  V30 8730 H 845.501 -2.54415 -1.55168 0
M  V30 8731 H 843.038 -1.26194 -0.755876 0
M  V30 8732 H 844.996 -1.60976 -3.84893 0
M  V30 8733 H 843.626 -0.707997 -3.1494 0
M  V30 8734 H 842.678 -2.99186 -2.34929 0
M  V30 8735 H 843.99 -3.78379 -3.25009 0
M  V30 8736 H 843.144 -2.79153 -5.38663 0
M  V30 8737 H 841.883 -1.89527 -4.49367 0
M  V30 8738 H 840.888 -4.06133 -3.70589 0
M  V30 8739 H 842.113 -4.9658 -4.63233 0
M  V30 8740 H 840.059 -3.05326 -5.80613 0
M  V30 8741 H 839.976 -4.78375 -5.854 0
M  V30 8742 H 841.244 -3.96165 -6.71322 0
M  V30 8743 N 845.473 0.80434 -1.35529 0
M  V30 8744 C 846.403 1.93086 -1.31301 0
M  V30 8745 C 847.384 1.69068 -0.187044 0
M  V30 8746 O 848.569 1.90399 -0.382359 0
M  V30 8747 C 845.699 3.29867 -1.0865 0
M  V30 8748 C 844.653 3.68373 -2.17911 0
M  V30 8749 C 843.979 5.0334 -1.80423 0
M  V30 8750 C 845.279 3.78516 -3.59893 0
M  V30 8751 H 846.973 1.96882 -2.25561 0
M  V30 8752 H 844.519 0.945841 -1.08581 0
M  V30 8753 H 846.472 4.08281 -1.04331 0
M  V30 8754 H 845.196 3.2642 -0.108359 0
M  V30 8755 H 843.855 2.92247 -2.21331 0
M  V30 8756 H 843.503 4.96399 -0.812213 0
M  V30 8757 H 843.203 5.30074 -2.53565 0
M  V30 8758 H 844.727 5.84191 -1.77633 0
M  V30 8759 H 846.141 4.47155 -3.58783 0
M  V30 8760 H 844.538 4.16721 -4.31814 0
M  V30 8761 H 845.608 2.8001 -3.95882 0
M  V30 8762 N 846.951 1.19563 1.02676 0
M  V30 8763 C 847.883 0.893054 2.11086 0
M  V30 8764 C 848.896 -0.115101 1.62393 0
M  V30 8765 O 850.085 0.11459 1.78132 0
M  V30 8766 C 847.185 0.315533 3.37428 0
M  V30 8767 C 846.358 1.37276 4.153 0
M  V30 8768 C 845.417 0.808398 5.19953 0
M  V30 8769 O 844.443 1.48661 5.49444 0
M  V30 8770 N 845.645 -0.387253 5.79207 0
M  V30 8771 H 848.41 1.82622 2.37633 0
M  V30 8772 H 845.971 1.09792 1.18984 0
M  V30 8773 H 847.963 -0.0759166 4.04629 0
M  V30 8774 H 846.533 -0.521961 3.08211 0
M  V30 8775 H 845.753 1.93897 3.43217 0
M  V30 8776 H 847.041 2.08509 4.64114 0
M  V30 8777 H 846.439 -0.955725 5.57568 0
M  V30 8778 H 844.996 -0.720457 6.47806 0
M  V30 8779 N 848.429 -1.21819 0.999893 0
M  V30 8780 C 849.669 -1.92473 0.687996 0
M  V30 8781 C 850.033 -1.76033 -0.766569 0
M  V30 8782 O 851.234 -2.41013 -1.19021 0
M  V30 8783 C 849.505 -3.40332 1.09129 0
M  V30 8784 S 851.064 -4.29496 0.898822 0
M  V30 8785 H 847.882 -0.665097 0.251329 0
M  V30 8786 H 850.484 -1.47454 1.28364 0
M  V30 8787 H 849.188 -3.49812 2.14615 0
M  V30 8788 H 848.719 -3.90365 0.487724 0
M  V30 8789 H 850.734 -4.95769 -0.206873 0
M  V30 8790 N 849.908 -0.773975 -1.37286 0
M  V30 8791 C 850.818 -0.162571 -2.34036 0
M  V30 8792 C 851.834 0.677022 -1.60289 0
M  V30 8793 O 853.01 0.596423 -1.92366 0
M  V30 8794 C 850.075 0.70457 -3.39465 0
M  V30 8795 C 849.136 -0.151738 -4.29032 0
M  V30 8796 C 848.369 0.674111 -5.29426 0
M  V30 8797 O 848.592 1.91107 -5.37433 0
M  V30 8798 O 847.526 0.0821398 -6.01844 0
M  V30 8799 H 851.352 -0.962119 -2.88057 0
M  V30 8800 H 848.937 -0.53517 -1.39486 0
M  V30 8801 H 850.819 1.19954 -4.03967 0
M  V30 8802 H 849.494 1.48227 -2.87768 0
M  V30 8803 H 848.401 -0.693118 -3.67623 0
M  V30 8804 H 849.734 -0.892575 -4.84039 0
M  V30 8805 N 851.386 1.48609 -0.524698 0
M  V30 8806 C 852.334 2.31205 0.254398 0
M  V30 8807 C 853.328 1.40894 0.940491 0
M  V30 8808 O 854.534 1.57827 0.865478 0
M  V30 8809 H 850.909 0.745199 0.100907 0
M  V30 8810 H 852.88 2.94804 -0.461876 0
M  V30 8811 C 851.629 3.2282 1.2916 0
M  V30 8812 H 850.952 3.92255 0.773074 0
M  V30 8813 H 852.392 3.83508 1.80825 0
M  V30 8814 C 850.851 2.4406 2.32242 0
M  V30 8815 O 851.381 2.16163 3.3858 0
M  V30 8816 N 849.587 2.05651 2.05319 0
M  V30 8817 H 849.134 2.28539 1.18861 0
M  V30 8818 H 849.092 1.53265 2.74513 0
M  V30 8819 N 852.864 0.259585 1.55447 0
M  V30 8820 C 854.11 -0.362143 1.9954 0
M  V30 8821 C 854.443 -1.5666 1.14767 0
M  V30 8822 O 853.718 -1.93319 0.214025 0
M  V30 8823 C 854.001 -0.759588 3.51998 0
M  V30 8824 C 853.854 0.451134 4.47532 0
M  V30 8825 C 855.173 -1.60186 4.09913 0
M  V30 8826 H 852.292 -0.130157 0.725416 0
M  V30 8827 H 854.934 0.363431 1.86492 0
M  V30 8828 H 853.084 -1.3778 3.63248 0
M  V30 8829 H 854.756 1.08965 4.48246 0
M  V30 8830 H 852.999 1.092 4.19831 0
M  V30 8831 H 853.67 0.129518 5.51848 0
M  V30 8832 H 856.146 -1.0799 4.01842 0
M  V30 8833 H 855.022 -1.84879 5.16828 0
M  V30 8834 H 855.283 -2.57787 3.59163 0
M  V30 8835 N 854.342 -1.57594 -0.0133615 0
M  V30 8836 C 855.274 -2.04402 -1.03695 0
M  V30 8837 C 856.287 -0.959546 -1.31516 0
M  V30 8838 O 857.476 -1.23659 -1.28727 0
M  V30 8839 C 854.576 -2.41766 -2.37491 0
M  V30 8840 C 853.749 -3.72785 -2.28802 0
M  V30 8841 C 852.808 -3.97165 -3.45176 0
M  V30 8842 O 851.834 -4.68013 -3.23963 0
M  V30 8843 N 853.036 -3.44021 -4.67579 0
M  V30 8844 H 855.801 -2.92833 -0.637874 0
M  V30 8845 H 853.362 -1.60647 -0.20101 0
M  V30 8846 H 855.354 -2.55201 -3.14093 0
M  V30 8847 H 853.924 -1.58924 -2.69188 0
M  V30 8848 H 853.144 -3.69555 -1.37197 0
M  V30 8849 H 854.432 -4.58704 -2.20154 0
M  V30 8850 H 853.83 -2.86623 -4.87713 0
M  V30 8851 H 852.387 -3.62808 -5.41492 0
M  V30 8852 N 855.82 0.285905 -1.54985 0
M  V30 8853 C 856.73 1.37534 -1.90057 0
M  V30 8854 C 857.746 1.54707 -0.796348 0
M  V30 8855 O 858.922 1.69082 -1.09423 0
M  V30 8856 C 855.987 2.7167 -2.15398 0
M  V30 8857 C 855.048 2.63354 -3.39033 0
M  V30 8858 C 854.281 3.91093 -3.63155 0
M  V30 8859 O 854.504 4.91169 -2.90015 0
M  V30 8860 O 853.438 3.92075 -4.56685 0
M  V30 8861 H 857.264 1.10791 -2.8277 0
M  V30 8862 H 854.849 0.483303 -1.41367 0
M  V30 8863 H 856.731 3.51006 -2.33179 0
M  V30 8864 H 855.406 2.98226 -1.25868 0
M  V30 8865 H 854.313 1.82438 -3.26599 0
M  V30 8866 H 855.646 2.41749 -4.2874 0
M  V30 8867 N 857.298 1.47698 0.54982 0
M  V30 8868 C 858.547 1.53961 1.30303 0
M  V30 8869 C 858.86 0.209731 1.94472 0
M  V30 8870 O 860.066 0.150418 2.71083 0
M  V30 8871 C 858.522 2.71436 2.36328 0
M  V30 8872 C 858.13 4.10983 1.78316 0
M  V30 8873 C 859.874 2.86996 3.12783 0
M  V30 8874 C 857.781 5.19747 2.82164 0
M  V30 8875 H 856.711 0.573098 0.489975 0
M  V30 8876 H 859.362 1.73989 0.583089 0
M  V30 8877 H 857.744 2.44801 3.11269 0
M  V30 8878 H 858.918 4.47552 1.09697 0
M  V30 8879 H 857.233 4.00371 1.1442 0
M  V30 8880 H 859.83 3.65422 3.90347 0
M  V30 8881 H 860.173 1.95712 3.67427 0
M  V30 8882 H 860.706 3.13436 2.44954 0
M  V30 8883 H 857.445 6.12932 2.32366 0
M  V30 8884 H 856.965 4.87688 3.49171 0
M  V30 8885 H 858.644 5.47014 3.4552 0
M  V30 8886 N 858.776 -0.797141 1.35954 0
M  V30 8887 C 860.187 -1.37179 1.26644 0
M  V30 8888 C 860.538 -1.9596 -0.0971046 0
M  V30 8889 O 859.663 -1.91994 -0.998355 0
M  V30 8890 C 860.258 -2.49395 2.2932 0
M  V30 8891 C 858.817 -3.02697 2.23722 0
M  V30 8892 C 857.964 -1.75721 2.14517 0
M  V30 8893 H 860.915 -0.599407 1.46945 0
M  V30 8894 H 860.936 -3.28204 1.92515 0
M  V30 8895 H 860.448 -2.06584 3.2855 0
M  V30 8896 H 858.549 -3.49948 1.27934 0
M  V30 8897 H 858.662 -3.60036 3.16087 0
M  V30 8898 H 857.026 -1.97649 1.60646 0
M  V30 8899 H 857.809 -1.35049 3.15621 0
M  V30 8900 N 860.254 -1.20106 -1.0204 0
M  V30 8901 C 861.5 -1.01039 -1.75838 0
M  V30 8902 C 861.833 0.456819 -1.88751 0
M  V30 8903 O 861.108 1.33919 -1.41053 0
M  V30 8904 C 861.391 -1.69009 -3.17975 0
M  V30 8905 C 861.244 -3.2315 -3.1288 0
M  V30 8906 C 862.563 -1.42005 -4.16561 0
M  V30 8907 H 859.682 -0.368465 -0.638281 0
M  V30 8908 H 862.324 -1.48066 -1.19064 0
M  V30 8909 H 860.474 -1.29026 -3.66449 0
M  V30 8910 H 862.146 -3.72402 -2.72239 0
M  V30 8911 H 860.389 -3.54253 -2.50374 0
M  V30 8912 H 861.06 -3.65862 -4.13339 0
M  V30 8913 H 863.536 -1.76685 -3.76725 0
M  V30 8914 H 862.412 -1.92101 -5.14187 0
M  V30 8915 H 862.673 -0.346884 -4.40737 0
M  V30 8916 N 861.732 1.21287 -1.00634 0
M  V30 8917 C 862.979 1.90389 -0.6898 0
M  V30 8918 C 863.307 1.78193 0.779574 0
M  V30 8919 O 862.562 1.15358 1.58085 0
M  V30 8920 C 862.861 3.41374 -1.05824 0
M  V30 8921 C 862.527 3.73766 -2.5221 0
M  V30 8922 C 861.189 3.82317 -2.92211 0
M  V30 8923 C 863.541 3.88871 -3.47028 0
M  V30 8924 C 860.869 4.03423 -4.2599 0
M  V30 8925 C 863.221 4.11484 -4.80483 0
M  V30 8926 C 861.885 4.18263 -5.20204 0
M  V30 8927 H 861.155 0.696683 -0.252416 0
M  V30 8928 H 863.802 1.43769 -1.26502 0
M  V30 8929 H 862.107 3.8974 -0.401281 0
M  V30 8930 H 863.804 3.93118 -0.79116 0
M  V30 8931 H 860.394 3.67702 -2.20212 0
M  V30 8932 H 864.578 3.8163 -3.17289 0
M  V30 8933 H 859.834 4.06902 -4.56334 0
M  V30 8934 H 864.008 4.22115 -5.53888 0
M  V30 8935 H 861.635 4.34369 -6.23881 0
M  V30 8936 N 863.21 0.781244 1.36873 0
M  V30 8937 C 864.458 0.349198 1.9906 0
M  V30 8938 C 864.779 -1.0806 1.62321 0
M  V30 8939 O 864.049 -1.74351 0.893229 0
M  V30 8940 H 862.629 0.126126 0.736275 0
M  V30 8941 H 865.291 1.00148 1.67202 0
M  V30 8942 H 864.387 0.434451 3.09061 0
M  V30 8943 N 864.689 -1.48329 0.532571 0
M  V30 8944 C 865.938 -2.017 -0.00259705 0
M  V30 8945 C 866.251 -1.41469 -1.35077 0
M  V30 8946 O 867.457 -1.86354 -1.97445 0
M  V30 8947 C 865.913 -3.59858 -0.0550179 0
M  V30 8948 C 865.521 -4.29073 1.28842 0
M  V30 8949 C 867.265 -4.21066 -0.538878 0
M  V30 8950 C 865.172 -5.79171 1.19644 0
M  V30 8951 H 864.102 -0.753985 -0.00474081 0
M  V30 8952 H 866.753 -1.70565 0.676739 0
M  V30 8953 H 865.135 -3.87846 -0.799486 0
M  V30 8954 H 866.309 -4.12755 2.04865 0
M  V30 8955 H 864.624 -3.79748 1.70822 0
M  V30 8956 H 867.221 -5.31026 -0.6257 0
M  V30 8957 H 867.564 -3.86559 -1.54525 0
M  V30 8958 H 868.097 -3.97517 0.149984 0
M  V30 8959 H 864.836 -6.18257 2.17805 0
M  V30 8960 H 864.356 -5.97895 0.477609 0
M  V30 8961 H 866.035 -6.40875 0.888186 0
M  V30 8962 N 866.167 -0.267825 -1.55308 0
M  V30 8963 C 867.413 0.351556 -1.9973 0
M  V30 8964 C 867.746 1.56049 -1.15596 0
M  V30 8965 O 867.021 1.93203 -0.224274 0
M  V30 8966 C 867.304 0.74091 -3.52395 0
M  V30 8967 C 867.157 -0.474861 -4.47286 0
M  V30 8968 C 868.476 1.5801 -4.10756 0
M  V30 8969 H 865.595 0.126308 -0.726096 0
M  V30 8970 H 868.237 -0.373316 -1.86296 0
M  V30 8971 H 866.387 1.35851 -3.63973 0
M  V30 8972 H 868.059 -1.1134 -4.47662 0
M  V30 8973 H 866.302 -1.11425 -4.19246 0
M  V30 8974 H 866.973 -0.158782 -5.51772 0
M  V30 8975 H 869.449 1.05857 -4.0241 0
M  V30 8976 H 868.325 1.82135 -5.17801 0
M  V30 8977 H 868.586 2.55878 -3.60526 0
M  V30 8978 N 867.645 1.57599 0.00500368 0
M  V30 8979 C 869.056 1.78462 0.54848 0
M  V30 8980 C 869.407 0.901869 1.74243 0
M  V30 8981 O 868.532 0.103014 2.16155 0
M  V30 8982 C 869.127 3.2365 1.00179 0
M  V30 8983 C 867.686 3.45627 1.49061 0
M  V30 8984 C 866.833 2.73794 0.439531 0
M  V30 8985 H 869.784 1.57151 -0.22118 0
M  V30 8986 H 869.805 3.31488 1.86805 0
M  V30 8987 H 869.317 3.87873 0.132607 0
M  V30 8988 H 867.418 2.86612 2.38085 0
M  V30 8989 H 867.531 4.54298 1.52152 0
M  V30 8990 H 865.895 2.38267 0.900043 0
M  V30 8991 H 866.678 3.40714 -0.420599 0
M  V30 8992 N 869.123 -0.277682 1.55134 0
M  V30 8993 C 870.086 -1.32635 1.86924 0
M  V30 8994 C 871.086 -1.42578 0.743507 0
M  V30 8995 O 872.276 -1.4181 1.01171 0
M  V30 8996 C 869.408 -2.70832 2.07034 0
M  V30 8997 H 870.601 -1.0568 2.80663 0
M  V30 8998 H 868.154 -0.515517 1.47554 0
M  V30 8999 H 868.889 -3.02974 1.15661 0
M  V30 9000 H 868.674 -2.65001 2.88993 0
M  V30 9001 H 870.164 -3.46611 2.32918 0
M  V30 9002 N 870.601 -1.47988 -0.541979 0
M  V30 9003 C 871.85 -1.5465 -1.29485 0
M  V30 9004 C 872.163 -0.220041 -1.94358 0
M  V30 9005 O 873.369 -0.164792 -2.70999 0
M  V30 9006 C 871.825 -2.72685 -2.34885 0
M  V30 9007 C 871.433 -4.11923 -1.76134 0
M  V30 9008 C 873.177 -2.88651 -3.11257 0
M  V30 9009 C 871.084 -5.21237 -2.79404 0
M  V30 9010 H 870.014 -0.575688 -0.486928 0
M  V30 9011 H 872.665 -1.74296 -0.573853 0
M  V30 9012 H 871.047 -2.46448 -3.09966 0
M  V30 9013 H 872.221 -4.48128 -1.07322 0
M  V30 9014 H 870.536 -4.00972 -1.12295 0
M  V30 9015 H 873.133 -3.67487 -3.88404 0
M  V30 9016 H 873.476 -1.97658 -3.66384 0
M  V30 9017 H 874.009 -3.14731 -2.43288 0
M  V30 9018 H 870.748 -6.14156 -2.29113 0
M  V30 9019 H 870.268 -4.89533 -3.4658 0
M  V30 9020 H 871.947 -5.48839 -3.42615 0
M  V30 9021 N 872.079 0.78992 -1.36375 0
M  V30 9022 C 873.328 1.54296 -1.29906 0
M  V30 9023 C 873.641 1.95234 0.119651 0
M  V30 9024 O 874.847 2.69762 0.306708 0
M  V30 9025 C 873.303 2.78533 -2.27919 0
M  V30 9026 C 872.911 2.44767 -3.75224 0
M  V30 9027 C 874.655 3.56516 -2.30427 0
M  V30 9028 C 872.562 3.65397 -4.65015 0
M  V30 9029 H 871.492 0.579214 -0.482729 0
M  V30 9030 H 874.143 0.866845 -1.61735 0
M  V30 9031 H 872.525 3.47941 -1.89084 0
M  V30 9032 H 873.699 1.83259 -4.22792 0
M  V30 9033 H 872.014 1.79996 -3.75487 0
M  V30 9034 H 874.611 4.46143 -2.94722 0
M  V30 9035 H 874.954 3.95063 -1.31266 0
M  V30 9036 H 875.487 2.94087 -2.67876 0
M  V30 9037 H 872.226 3.31946 -5.65236 0
M  V30 9038 H 871.746 4.26072 -4.22164 0
M  V30 9039 H 873.425 4.32431 -4.81261 0
M  V30 9040 N 873.557 1.20646 1.01402 0
M  V30 9041 C 874.489 0.915392 2.10127 0
M  V30 9042 C 875.502 -0.0978705 1.62506 0
M  V30 9043 O 876.691 0.133477 1.78 0
M  V30 9044 C 873.791 0.351304 3.37074 0
M  V30 9045 C 872.964 1.41673 4.13821 0
M  V30 9046 C 872.023 0.8635 5.19067 0
M  V30 9047 O 871.049 1.54481 5.47836 0
M  V30 9048 N 872.251 -0.325799 5.79585 0
M  V30 9049 H 875.016 1.85132 2.35682 0
M  V30 9050 H 872.577 1.11048 1.17813 0
M  V30 9051 H 874.569 -0.032996 4.04687 0
M  V30 9052 H 873.139 -0.489242 3.08748 0
M  V30 9053 H 872.359 1.97526 3.41141 0
M  V30 9054 H 873.647 2.1342 4.61876 0
M  V30 9055 H 873.045 -0.896534 5.58551 0
M  V30 9056 H 871.602 -0.651708 6.48534 0
M  V30 9057 N 875.035 -1.20752 1.01276 0
M  V30 9058 C 876.263 -1.94006 0.718976 0
M  V30 9059 C 876.678 -1.74544 -0.719711 0
M  V30 9060 O 876.035 -1.05697 -1.48776 0
M  V30 9061 C 876.086 -3.46208 1.04031 0
M  V30 9062 O 875.807 -3.65031 2.42248 0
M  V30 9063 C 877.308 -4.36614 0.767032 0
M  V30 9064 H 874.528 -0.616743 0.264327 0
M  V30 9065 H 877.072 -1.53352 1.3529 0
M  V30 9066 H 875.227 -3.84756 0.451852 0
M  V30 9067 H 875.641 -4.59054 2.53712 0
M  V30 9068 H 877.115 -5.42076 1.04198 0
M  V30 9069 H 877.592 -4.38182 -0.298851 0
M  V30 9070 H 878.198 -4.03723 1.33746 0
M  V30 9071 N 876.513 -0.788492 -1.36457 0
M  V30 9072 C 877.924 -0.423742 -1.81828 0
M  V30 9073 C 878.275 1.05221 -1.65599 0
M  V30 9074 O 877.4 1.8163 -1.17641 0
M  V30 9075 C 877.995 -0.762354 -3.30112 0
M  V30 9076 C 876.554 -0.450445 -3.73695 0
M  V30 9077 C 875.701 -0.997482 -2.58738 0
M  V30 9078 H 878.652 -0.981718 -1.24692 0
M  V30 9079 H 878.673 -0.0531136 -3.80463 0
M  V30 9080 H 878.185 -1.83662 -3.41891 0
M  V30 9081 H 876.286 0.615829 -3.67476 0
M  V30 9082 H 876.399 -0.970408 -4.69169 0
M  V30 9083 H 874.763 -0.420761 -2.51201 0
M  V30 9084 H 875.546 -2.07749 -2.73304 0
M  V30 9085 N 877.991 1.48044 -0.54043 0
M  V30 9086 C 879.216 2.07396 -0.0124765 0
M  V30 9087 C 879.641 1.39288 1.26414 0
M  V30 9088 O 878.999 0.462252 1.75308 0
M  V30 9089 C 879.047 3.60131 0.18377 0
M  V30 9090 O 878.151 3.92995 1.25014 0
M  V30 9091 H 877.492 0.662554 -0.0438026 0
M  V30 9092 H 880.022 1.90306 -0.751327 0
M  V30 9093 H 880.032 4.06003 0.403197 0
M  V30 9094 H 878.707 4.09105 -0.74874 0
M  V30 9095 H 877.284 3.5889 1.01254 0
M  V30 9096 N 879.47 0.276058 1.55163 0
M  V30 9097 C 880.886 -0.0780579 1.59409 0
M  V30 9098 C 881.086 -1.54521 1.29327 0
M  V30 9099 O 880.142 -2.29422 1.05459 0
M  V30 9100 C 881.455 0.297422 2.99225 0
M  V30 9101 C 883.003 0.244117 3.12047 0
M  V30 9102 C 883.478 0.594051 4.54131 0
M  V30 9103 N 884.969 0.54564 4.59975 0
M  V30 9104 C 885.704 0.789192 5.67943 0
M  V30 9105 N 885.2 1.09741 6.84053 0
M  V30 9106 N 886.993 0.717926 5.57496 0
M  V30 9107 H 879.144 1.23251 1.72982 0
M  V30 9108 H 881.407 0.497988 0.806667 0
M  V30 9109 H 881.113 1.31782 3.26077 0
M  V30 9110 H 880.987 -0.361286 3.75466 0
M  V30 9111 H 883.374 -0.766992 2.84958 0
M  V30 9112 H 883.455 0.937097 2.38017 0
M  V30 9113 H 883.099 1.60285 4.81945 0
M  V30 9114 H 883.029 -0.120728 5.26462 0
M  V30 9115 H 885.52 0.317334 3.76565 0
M  V30 9116 H 885.833 1.26989 7.62295 0
M  V30 9117 H 884.178 1.13519 6.85666 0
M  V30 9118 H 887.369 0.47697 4.65664 0
M  V30 9119 H 887.542 0.911118 6.41563 0
M  V30 9120 N 880.948 -1.576 0.00335426 0
M  V30 9121 C 882.196 -1.90336 -0.679446 0
M  V30 9122 C 882.517 -0.877777 -1.74127 0
M  V30 9123 O 881.787 0.0843585 -1.95718 0
M  V30 9124 H 880.367 -0.702509 -0.253948 0
M  V30 9125 H 883.029 -1.94848 0.0450731 0
M  V30 9126 H 882.125 -2.90197 -1.14857 0
M  V30 9127 N 882.426 0.269451 -1.5528 0
M  V30 9128 C 883.654 1.01872 -1.80082 0
M  V30 9129 C 884.069 1.79802 -0.575917 0
M  V30 9130 O 883.426 1.76735 0.455081 0
M  V30 9131 C 883.477 1.9745 -3.02813 0
M  V30 9132 O 883.198 1.22677 -4.20573 0
M  V30 9133 C 884.699 2.8416 -3.40247 0
M  V30 9134 H 881.919 0.300781 -0.59981 0
M  V30 9135 H 884.463 0.29916 -2.023 0
M  V30 9136 H 882.618 2.64864 -2.82712 0
M  V30 9137 H 883.032 1.87129 -4.89982 0
M  V30 9138 H 884.506 3.47014 -4.29284 0
M  V30 9139 H 884.983 3.54113 -2.59809 0
M  V30 9140 H 885.589 2.22232 -3.6262 0
M  V30 9141 N 883.904 1.48273 0.534124 0
M  V30 9142 C 884.851 1.62487 1.6391 0
M  V30 9143 C 885.821 0.467062 1.59398 0
M  V30 9144 O 887.006 0.690029 1.77885 0
M  V30 9145 C 884.146 1.66671 3.02183 0
M  V30 9146 C 883.259 2.9353 3.16961 0
M  V30 9147 C 882.394 2.88902 4.45768 0
M  V30 9148 C 881.433 4.10483 4.54059 0
M  V30 9149 N 880.57 4.03956 5.74251 0
M  V30 9150 H 885.41 2.56851 1.51101 0
M  V30 9151 H 882.947 1.27381 0.735704 0
M  V30 9152 H 884.905 1.67079 3.82283 0
M  V30 9153 H 883.535 0.758011 3.13774 0
M  V30 9154 H 882.587 3.02886 2.3014 0
M  V30 9155 H 883.899 3.83501 3.18949 0
M  V30 9156 H 883.053 2.87688 5.34154 0
M  V30 9157 H 881.792 1.96652 4.46295 0
M  V30 9158 H 880.797 4.11977 3.64081 0
M  V30 9159 H 882.022 5.03887 4.55274 0
M  V30 9160 H 879.968 3.14525 5.75682 0
M  V30 9161 H 879.885 4.87628 5.77715 0
M  V30 9162 H 881.153 4.06795 6.64935 0
M  V30 9163 N 885.382 -0.782676 1.36792 0
M  V30 9164 C 886.622 -1.55396 1.32784 0
M  V30 9165 C 886.986 -1.91789 -0.0900272 0
M  V30 9166 O 888.187 -2.6759 -0.254725 0
M  V30 9167 C 886.458 -2.79227 2.23085 0
M  V30 9168 S 888.017 -3.69404 2.36825 0
M  V30 9169 H 884.835 -0.532139 0.471539 0
M  V30 9170 H 887.437 -0.921285 1.72431 0
M  V30 9171 H 886.141 -2.50553 3.25041 0
M  V30 9172 H 885.672 -3.47462 1.84482 0
M  V30 9173 H 887.687 -4.70683 1.57074 0
M  V30 9174 N 886.86 -1.21182 -1.00761 0
M  V30 9175 C 888.106 -1.03903 -1.74859 0
M  V30 9176 C 888.461 0.423347 -1.87685 0
M  V30 9177 O 887.754 1.31001 -1.39819 0
M  V30 9178 C 887.948 -1.6667 -3.16158 0
M  V30 9179 C 887.777 -3.1886 -3.1711 0
M  V30 9180 C 886.547 -3.87888 -3.23838 0
M  V30 9181 C 888.745 -4.15978 -3.02434 0
M  V30 9182 N 886.727 -5.27289 -3.14388 0
M  V30 9183 C 888.098 -5.42114 -3.00854 0
M  V30 9184 C 890.153 -4.0706 -2.86717 0
M  V30 9185 C 888.856 -6.60358 -2.85166 0
M  V30 9186 C 890.882 -5.24938 -2.72386 0
M  V30 9187 C 890.244 -6.49983 -2.71479 0
M  V30 9188 H 886.343 -0.434522 -0.650165 0
M  V30 9189 H 888.927 -1.53495 -1.1978 0
M  V30 9190 H 887.098 -1.19649 -3.69511 0
M  V30 9191 H 888.83 -1.42622 -3.78736 0
M  V30 9192 H 885.585 -3.38798 -3.30927 0
M  V30 9193 H 886.009 -6.00293 -3.13013 0
M  V30 9194 H 890.651 -3.11183 -2.86226 0
M  V30 9195 H 888.369 -7.56399 -2.84405 0
M  V30 9196 H 891.955 -5.19857 -2.61228 0
M  V30 9197 H 890.835 -7.39662 -2.6052 0
M  V30 9198 N 888.338 1.20213 -1.01915 0
M  V30 9199 C 889.586 1.89272 -0.708552 0
M  V30 9200 C 889.907 1.79394 0.76438 0
M  V30 9201 O 889.177 1.198 1.54999 0
M  V30 9202 H 887.757 0.700628 -0.259094 0
M  V30 9203 H 890.419 1.45985 -1.29129 0
M  V30 9204 H 889.515 2.95841 -0.994215 0
M  V30 9205 N 889.816 0.795718 1.36037 0
M  V30 9206 C 891.062 0.371574 1.99367 0
M  V30 9207 C 891.395 -1.0557 1.62999 0
M  V30 9208 O 890.67 -1.73051 0.887895 0
M  V30 9209 C 890.953 0.542622 3.55988 0
M  V30 9210 C 890.806 2.01404 4.0219 0
M  V30 9211 C 892.125 -0.0384527 4.40083 0
M  V30 9212 H 889.244 0.136483 0.724252 0
M  V30 9213 H 891.886 1.00323 1.61355 0
M  V30 9214 H 890.036 0.0049053 3.885 0
M  V30 9215 H 891.708 2.6133 3.80137 0
M  V30 9216 H 889.951 2.51439 3.53498 0
M  V30 9217 H 890.622 2.08466 5.11122 0
M  V30 9218 H 893.098 0.420634 4.13968 0
M  V30 9219 H 891.974 0.111214 5.48787 0
M  V30 9220 H 892.235 -1.13116 4.27384 0
M  V30 9221 N 891.294 -1.47756 0.548274 0
M  V30 9222 C 892.571 -1.9555 -0.0443603 0
M  V30 9223 C 892.951 -1.49079 -1.49462 0
M  V30 9224 O 892.299 -0.725538 -2.16675 0
M  V30 9225 C 892.509 -3.48879 0.0918425 0
M  V30 9226 C 893.857 -4.2456 -0.0580879 0
M  V30 9227 O 894.881 -3.56195 0.018946 0
M  V30 9228 O 893.74 -5.46048 -0.222261 0
M  V30 9229 H 890.834 -0.824106 -0.0691235 0
M  V30 9230 H 893.38 -1.58196 0.614166 0
M  V30 9231 H 892.152 -3.7548 1.10137 0
M  V30 9232 H 891.775 -3.92975 -0.604704 0
M  V30 9233 N 892.772 -0.284283 -1.55015 0
M  V30 9234 C 894.019 0.329864 -1.99795 0
M  V30 9235 C 894.347 1.55171 -1.1727 0
M  V30 9236 O 893.602 1.94312 -0.232667 0
M  V30 9237 C 893.901 0.747219 -3.49502 0
M  V30 9238 C 893.567 -0.37101 -4.49371 0
M  V30 9239 C 892.229 -0.678034 -4.76399 0
M  V30 9240 C 894.581 -1.12406 -5.08935 0
M  V30 9241 C 891.909 -1.74152 -5.60257 0
M  V30 9242 C 894.261 -2.17734 -5.93948 0
M  V30 9243 C 892.925 -2.49061 -6.19294 0
M  V30 9244 H 892.195 0.120706 -0.731103 0
M  V30 9245 H 894.842 -0.399904 -1.87278 0
M  V30 9246 H 893.147 1.55681 -3.59542 0
M  V30 9247 H 894.844 1.2333 -3.81563 0
M  V30 9248 H 891.434 -0.1216 -4.28427 0
M  V30 9249 H 895.618 -0.900119 -4.88069 0
M  V30 9250 H 890.874 -1.98915 -5.78137 0
M  V30 9251 H 895.048 -2.76553 -6.39133 0
M  V30 9252 H 892.675 -3.31602 -6.84064 0
M  V30 9253 N 894.251 1.57596 -0.0117121 0
M  V30 9254 C 895.183 2.06025 1.0043 0
M  V30 9255 C 896.196 0.980348 1.29973 0
M  V30 9256 O 897.385 1.25691 1.26744 0
M  V30 9257 C 894.485 2.45514 2.33615 0
M  V30 9258 C 893.658 3.76378 2.22842 0
M  V30 9259 C 892.717 4.02606 3.38814 0
M  V30 9260 O 891.743 4.73108 3.16477 0
M  V30 9261 N 892.945 3.51416 4.62047 0
M  V30 9262 H 895.71 2.93811 0.591206 0
M  V30 9263 H 893.271 1.60947 0.175427 0
M  V30 9264 H 895.263 2.60166 3.09993 0
M  V30 9265 H 893.833 1.63186 2.66625 0
M  V30 9266 H 893.053 3.71691 1.313 0
M  V30 9267 H 894.341 4.62149 2.12829 0
M  V30 9268 H 893.739 2.94346 4.83091 0
M  V30 9269 H 892.296 3.71377 5.35651 0
M  V30 9270 N 895.729 -0.261212 1.5542 0
M  V30 9271 C 896.659 -1.32712 1.92119 0
M  V30 9272 C 897.64 -1.50934 0.784406 0
M  V30 9273 O 898.825 -1.63781 1.04352 0
M  V30 9274 C 895.955 -2.68453 2.20341 0
M  V30 9275 C 894.909 -2.64947 3.36136 0
M  V30 9276 C 894.235 -4.04349 3.49865 0
M  V30 9277 C 895.535 -2.23182 4.72215 0
M  V30 9278 H 897.229 -1.02245 2.81401 0
M  V30 9279 H 894.775 -0.490406 1.35392 0
M  V30 9280 H 896.728 -3.43144 2.44603 0
M  V30 9281 H 895.452 -3.00527 1.27871 0
M  V30 9282 H 894.111 -1.92714 3.11861 0
M  V30 9283 H 893.759 -4.33665 2.5484 0
M  V30 9284 H 893.459 -4.02895 4.27726 0
M  V30 9285 H 894.983 -4.80761 3.76432 0
M  V30 9286 H 896.397 -2.87599 4.95943 0
M  V30 9287 H 894.794 -2.32867 5.53076 0
M  V30 9288 H 895.864 -1.18327 4.70241 0
M  V30 9289 N 897.207 -1.48554 -0.526253 0
M  V30 9290 C 898.455 -1.56452 -1.27935 0
M  V30 9291 C 898.776 -0.24184 -1.93495 0
M  V30 9292 O 898.046 0.736917 -1.81511 0
M  V30 9293 H 896.626 -0.576379 -0.47518 0
M  V30 9294 H 899.288 -1.85039 -0.612083 0
M  V30 9295 H 898.384 -2.34751 -2.05666 0
M  V30 9296 N 898.685 0.775411 -1.37205 0
M  V30 9297 C 899.91 1.5696 -1.35567 0
M  V30 9298 C 900.335 1.88012 0.0575554 0
M  V30 9299 O 899.693 1.48954 1.03355 0
M  V30 9300 C 899.741 2.85886 -2.19776 0
M  V30 9301 O 898.845 3.80103 -1.59987 0
M  V30 9302 H 898.186 0.475583 -0.463375 0
M  V30 9303 H 900.716 0.96001 -1.80679 0
M  V30 9304 H 900.726 3.35024 -2.32859 0
M  V30 9305 H 899.401 2.62613 -3.22502 0
M  V30 9306 H 897.978 3.38736 -1.55924 0
M  V30 9307 N 900.163 1.21714 1.00117 0
M  V30 9308 C 901.44 0.945391 1.71236 0
M  V30 9309 C 901.82 -0.541772 2.0403 0
M  V30 9310 O 901.168 -1.50763 1.71705 0
M  V30 9311 C 901.378 1.83444 2.96899 0
M  V30 9312 C 902.726 2.08558 3.69849 0
M  V30 9313 O 903.75 1.80824 3.06889 0
M  V30 9314 O 902.609 2.55485 4.83104 0
M  V30 9315 H 899.703 0.354834 0.747009 0
M  V30 9316 H 902.249 1.32661 1.05825 0
M  V30 9317 H 901.021 2.84075 2.69105 0
M  V30 9318 H 900.644 1.45428 3.70049 0
M  V30 9319 N 901.641 -1.19671 1.02551 0
M  V30 9320 C 902.887 -1.89548 0.721069 0
M  V30 9321 C 903.22 -1.79209 -0.748176 0
M  V30 9322 O 902.495 -1.1822 -1.54448 0
M  V30 9323 C 902.778 -3.4061 1.16861 0
M  V30 9324 C 902.631 -3.59838 2.69883 0
M  V30 9325 C 903.95 -4.33718 0.746782 0
M  V30 9326 H 901.069 -0.688315 0.263422 0
M  V30 9327 H 903.711 -1.40883 1.27483 0
M  V30 9328 H 901.861 -3.82188 0.697477 0
M  V30 9329 H 903.533 -3.27454 3.24917 0
M  V30 9330 H 901.776 -3.03005 3.10435 0
M  V30 9331 H 902.447 -4.65766 2.96253 0
M  V30 9332 H 904.923 -3.99837 1.15195 0
M  V30 9333 H 903.799 -5.38012 1.08786 0
M  V30 9334 H 904.06 -4.40704 -0.351057 0
M  V30 9335 N 903.119 -0.802921 -1.35613 0
M  V30 9336 C 904.53 -0.443004 -1.81368 0
M  V30 9337 C 904.881 1.03459 -1.66706 0
M  V30 9338 O 904.006 1.80372 -1.19561 0
M  V30 9339 C 904.601 -0.797324 -3.29284 0
M  V30 9340 C 903.16 -0.490055 -3.73196 0
M  V30 9341 C 902.307 -1.02487 -2.57666 0
M  V30 9342 H 905.258 -0.994888 -1.23643 0
M  V30 9343 H 905.279 -0.0934638 -3.80385 0
M  V30 9344 H 904.791 -1.87278 -3.39924 0
M  V30 9345 H 902.892 0.576818 -3.68108 0
M  V30 9346 H 903.005 -1.02012 -4.68114 0
M  V30 9347 H 901.369 -0.44738 -2.5074 0
M  V30 9348 H 902.152 -2.10636 -2.71085 0
M  V30 9349 N 904.597 1.47463 -0.556102 0
M  V30 9350 C 905.874 1.9557 0.0339892 0
M  V30 9351 C 906.254 1.49869 1.48669 0
M  V30 9352 O 905.602 0.737019 2.16288 0
M  V30 9353 C 905.812 3.48826 -0.110343 0
M  V30 9354 C 907.16 4.24585 0.0355716 0
M  V30 9355 O 908.184 3.5618 -0.0378356 0
M  V30 9356 O 907.043 5.46158 0.193299 0
M  V30 9357 H 904.137 0.824461 0.0647521 0
M  V30 9358 H 906.683 1.57868 -0.622547 0
M  V30 9359 H 905.455 3.74891 -1.12126 0
M  V30 9360 H 905.078 3.9329 0.583855 0
M  V30 9361 N 906.075 0.2925 1.54862 0
M  V30 9362 C 907.486 -0.201841 1.85606 0
M  V30 9363 C 907.837 -1.54093 1.21449 0
M  V30 9364 O 906.962 -2.10327 0.509079 0
M  V30 9365 C 907.557 -0.373011 3.3674 0
M  V30 9366 C 906.116 -0.811574 3.67547 0
M  V30 9367 C 905.263 0.0850583 2.7717 0
M  V30 9368 H 908.214 0.513774 1.50153 0
M  V30 9369 H 908.235 -1.20892 3.60785 0
M  V30 9370 H 907.747 0.601751 3.83407 0
M  V30 9371 H 905.848 -1.79719 3.26392 0
M  V30 9372 H 905.961 -0.636853 4.74848 0
M  V30 9373 H 904.325 -0.434224 2.50971 0
M  V30 9374 H 905.108 1.05602 3.26654 0
M  V30 9375 N 907.553 -1.57587 0.0200696 0
M  V30 9376 C 908.801 -1.91046 -0.65922 0
M  V30 9377 C 909.122 -0.896197 -1.73186 0
M  V30 9378 O 908.392 0.0635952 -1.95797 0
M  V30 9379 H 906.972 -0.705163 -0.246483 0
M  V30 9380 H 909.634 -1.94789 0.0657368 0
M  V30 9381 H 908.73 -2.91399 -1.11773 0
M  V30 9382 N 909.032 0.252966 -1.55557 0
M  V30 9383 C 909.965 1.33928 -1.84766 0
M  V30 9384 C 910.943 1.46653 -0.702254 0
M  V30 9385 O 912.127 1.62963 -0.947375 0
M  V30 9386 C 909.254 2.71348 -2.02701 0
M  V30 9387 C 908.3 2.75804 -3.25322 0
M  V30 9388 S 909.133 2.33025 -4.82141 0
M  V30 9389 C 910.289 3.72382 -5.03073 0
M  V30 9390 H 910.522 1.08951 -2.76617 0
M  V30 9391 H 908.055 0.45364 -1.47585 0
M  V30 9392 H 910.013 3.50478 -2.13718 0
M  V30 9393 H 908.674 2.93566 -1.11703 0
M  V30 9394 H 907.867 3.76713 -3.34819 0
M  V30 9395 H 907.469 2.04713 -3.12999 0
M  V30 9396 H 909.761 4.67828 -4.90044 0
M  V30 9397 H 910.704 3.67824 -6.05071 0
M  V30 9398 H 911.112 3.64614 -4.30949 0
M  V30 9399 N 910.51 1.48831 0.518367 0
M  V30 9400 C 911.756 1.57672 1.27543 0
M  V30 9401 C 912.089 0.254915 1.9252 0
M  V30 9402 O 911.364 -0.740107 1.79868 0
M  V30 9403 C 911.647 2.72345 2.35585 0
M  V30 9404 C 911.5 4.14267 1.75224 0
M  V30 9405 C 912.819 2.82726 3.37274 0
M  V30 9406 H 909.938 0.573926 0.462361 0
M  V30 9407 H 912.58 1.8105 0.576267 0
M  V30 9408 H 910.73 2.52543 2.95219 0
M  V30 9409 H 912.402 4.45539 1.19551 0
M  V30 9410 H 910.645 4.20724 1.05706 0
M  V30 9411 H 911.316 4.90345 2.53507 0
M  V30 9412 H 913.792 3.00699 2.8761 0
M  V30 9413 H 912.668 3.6467 4.10252 0
M  V30 9414 H 912.929 1.9136 3.9854 0
M  V30 9415 N 911.988 -0.768124 1.37614 0
M  V30 9416 C 912.936 -1.9029 1.33763 0
M  V30 9417 C 913.93 -1.67888 0.225814 0
M  V30 9418 O 915.136 -1.75634 0.394043 0
M  V30 9419 H 911.511 -0.625828 0.416945 0
M  V30 9420 H 913.482 -1.90654 2.29551 0
M  V30 9421 C 912.231 -3.27598 1.16511 0
M  V30 9422 H 911.554 -3.45414 2.01318 0
M  V30 9423 H 912.994 -4.07288 1.17867 0
M  V30 9424 C 911.453 -3.36653 -0.129001 0
M  V30 9425 O 911.983 -3.86023 -1.11128 0
M  V30 9426 N 910.189 -2.90036 -0.180926 0
M  V30 9427 H 909.736 -2.5005 0.619076 0
M  V30 9428 H 909.694 -2.96475 -1.04641 0
M  V30 9429 N 913.466 -1.22244 -0.994698 0
M  V30 9430 C 914.376 -1.00722 -2.11878 0
M  V30 9431 C 915.392 0.043919 -1.73945 0
M  V30 9432 O 916.568 -0.148411 -2.00852 0
M  V30 9433 C 913.633 -0.585723 -3.41717 0
M  V30 9434 C 912.694 -1.71027 -3.93762 0
M  V30 9435 C 911.927 -1.30879 -5.17403 0
M  V30 9436 O 912.15 -0.18681 -5.70094 0
M  V30 9437 O 911.084 -2.1246 -5.63156 0
M  V30 9438 H 914.91 -1.94894 -2.32916 0
M  V30 9439 H 912.495 -1.00822 -1.10251 0
M  V30 9440 H 914.377 -0.360935 -4.19851 0
M  V30 9441 H 913.052 0.327166 -3.22042 0
M  V30 9442 H 911.959 -1.98956 -3.16808 0
M  V30 9443 H 913.292 -2.60096 -4.17865 0
M  V30 9444 N 914.944 1.19125 -1.03184 0
M  V30 9445 C 916.192 1.8851 -0.728587 0
M  V30 9446 C 916.513 1.80195 0.74531 0
M  V30 9447 O 915.783 1.21437 1.5372 0
M  V30 9448 H 914.363 0.69784 -0.266511 0
M  V30 9449 H 917.025 1.44607 -1.3067 0
M  V30 9450 H 916.121 2.9477 -1.02554 0
M  V30 9451 N 916.422 0.810101 1.35185 0
M  V30 9452 C 917.65 0.404696 2.02903 0
M  V30 9453 C 918.065 -0.985434 1.61042 0
M  V30 9454 O 917.422 -1.63557 0.809658 0
M  V30 9455 C 917.473 0.482493 3.58266 0
M  V30 9456 O 917.194 1.81782 3.98606 0
M  V30 9457 C 918.695 0.070345 4.43244 0
M  V30 9458 H 915.915 0.163972 0.650657 0
M  V30 9459 H 918.459 1.0947 1.72733 0
M  V30 9460 H 916.614 -0.159296 3.87072 0
M  V30 9461 H 917.028 1.78306 4.93262 0
M  V30 9462 H 918.502 0.175888 5.5172 0
M  V30 9463 H 918.979 -0.984724 4.28018 0
M  V30 9464 H 919.585 0.685427 4.1974 0
M  V30 9465 N 917.9 -1.47166 0.563914 0
M  V30 9466 C 918.847 -2.30097 -0.180013 0
M  V30 9467 C 919.817 -1.39473 -0.902019 0
M  V30 9468 O 921.002 -1.68432 -0.896396 0
M  V30 9469 C 918.142 -3.23573 -1.19978 0
M  V30 9470 C 917.255 -4.2929 -0.483149 0
M  V30 9471 C 916.39 -5.0991 -1.48879 0
M  V30 9472 C 915.429 -6.07395 -0.757513 0
M  V30 9473 N 914.566 -6.8095 -1.71031 0
M  V30 9474 H 919.406 -2.93189 0.53329 0
M  V30 9475 H 916.943 -1.4451 0.274814 0
M  V30 9476 H 918.901 -3.76196 -1.80368 0
M  V30 9477 H 917.531 -2.6233 -1.88103 0
M  V30 9478 H 916.583 -3.79671 0.235414 0
M  V30 9479 H 917.895 -4.9872 0.0894075 0
M  V30 9480 H 917.049 -5.66717 -2.16603 0
M  V30 9481 H 915.788 -4.40397 -2.09527 0
M  V30 9482 H 914.793 -5.4976 -0.0663841 0
M  V30 9483 H 916.018 -6.78919 -0.156685 0
M  V30 9484 H 913.964 -6.14162 -2.30524 0
M  V30 9485 H 913.881 -7.46574 -1.19007 0
M  V30 9486 H 915.149 -7.42326 -2.37849 0
M  V30 9487 N 919.378 -0.300708 -1.54705 0
M  V30 9488 C 920.618 0.30953 -2.02043 0
M  V30 9489 C 920.982 1.51114 -1.18442 0
M  V30 9490 O 922.183 2.19273 -1.55477 0
M  V30 9491 C 920.454 0.657489 -3.513 0
M  V30 9492 S 922.013 1.25063 -4.206 0
M  V30 9493 H 918.831 0.0950019 -0.704624 0
M  V30 9494 H 921.433 -0.428512 -1.90746 0
M  V30 9495 H 920.137 -0.225532 -4.0978 0
M  V30 9496 H 919.668 1.42633 -3.66633 0
M  V30 9497 H 921.683 2.53844 -4.26354 0
M  V30 9498 N 920.856 1.57574 -0.0284266 0
M  V30 9499 C 922.104 1.91393 0.649079 0
M  V30 9500 C 922.425 0.905368 1.72708 0
M  V30 9501 O 921.695 -0.0532107 1.95828 0
M  V30 9502 H 920.275 0.70646 0.24274 0
M  V30 9503 H 922.937 1.94752 -0.076066 0
M  V30 9504 H 922.033 2.91988 1.10226 0
M  V30 9505 N 922.334 -0.244713 1.55689 0
M  V30 9506 C 923.297 -1.2864 1.89695 0
M  V30 9507 C 924.297 -1.40969 0.773583 0
M  V30 9508 O 925.487 -1.39632 1.04156 0
M  V30 9509 C 922.619 -2.66379 2.12732 0
M  V30 9510 H 923.812 -0.997033 2.82841 0
M  V30 9511 H 921.365 -0.484103 1.48614 0
M  V30 9512 H 922.1 -3.00452 1.22062 0
M  V30 9513 H 921.885 -2.58812 2.94549 0
M  V30 9514 H 923.375 -3.41592 2.40218 0
M  V30 9515 N 923.813 -1.49104 -0.510467 0
M  V30 9516 C 925.061 -1.578 -1.26268 0
M  V30 9517 C 925.382 -0.262349 -1.93227 0
M  V30 9518 O 924.652 0.717624 -1.82283 0
M  V30 9519 H 923.232 -0.581387 -0.46904 0
M  V30 9520 H 925.894 -1.85678 -0.592423 0
M  V30 9521 H 924.99 -2.36919 -2.03165 0
M  V30 9522 N 925.291 0.760815 -1.38019 0
M  V30 9523 C 926.238 1.8744 -1.34666 0
M  V30 9524 C 927.208 1.64762 -0.210386 0
M  V30 9525 O 928.393 1.86528 -0.401479 0
M  V30 9526 C 925.533 3.24648 -1.17037 0
M  V30 9527 C 924.646 3.59206 -2.3999 0
M  V30 9528 C 923.781 4.8568 -2.15148 0
M  V30 9529 C 922.82 5.13002 -3.3391 0
M  V30 9530 N 921.957 6.30668 -3.08549 0
M  V30 9531 H 926.797 1.8964 -2.29871 0
M  V30 9532 H 924.334 0.927004 -1.14215 0
M  V30 9533 H 926.292 4.03814 -1.04834 0
M  V30 9534 H 924.922 3.21793 -0.254758 0
M  V30 9535 H 923.974 2.74939 -2.62893 0
M  V30 9536 H 925.286 3.75328 -3.28527 0
M  V30 9537 H 924.44 5.72773 -2.00039 0
M  V30 9538 H 923.179 4.71682 -1.23965 0
M  V30 9539 H 922.184 4.2438 -3.49545 0
M  V30 9540 H 923.409 5.28901 -4.25958 0
M  V30 9541 H 921.355 6.18008 -2.20006 0
M  V30 9542 H 921.272 6.47257 -3.90633 0
M  V30 9543 H 922.54 7.20669 -2.9708 0
M  V30 9544 N 926.769 1.22769 0.988202 0
M  V30 9545 C 928.018 1.0492 1.72263 0
M  V30 9546 C 928.331 -0.415282 1.91141 0
M  V30 9547 O 929.537 -0.713547 2.61956 0
M  V30 9548 C 927.993 1.82891 3.09966 0
M  V30 9549 C 927.601 3.33618 2.99003 0
M  V30 9550 C 929.345 1.73505 3.87423 0
M  V30 9551 C 927.252 4.04012 4.3189 0
M  V30 9552 H 926.182 0.38899 0.645912 0
M  V30 9553 H 928.833 1.46664 1.10281 0
M  V30 9554 H 927.215 1.33948 3.72658 0
M  V30 9555 H 928.389 3.8999 2.45448 0
M  V30 9556 H 926.704 3.43732 2.35027 0
M  V30 9557 H 929.301 2.23416 4.85787 0
M  V30 9558 H 929.644 0.696344 4.10435 0
M  V30 9559 H 930.177 2.20016 3.31418 0
M  V30 9560 H 926.916 5.08155 4.14075 0
M  V30 9561 H 926.436 3.52428 4.8534 0
M  V30 9562 H 928.115 4.0987 5.00615 0
M  V30 9563 N 928.247 -1.18576 1.03814 0
M  V30 9564 C 929.487 -1.90187 0.748882 0
M  V30 9565 C 929.851 -1.78383 -0.710177 0
M  V30 9566 O 931.052 -2.44678 -1.11293 0
M  V30 9567 C 929.323 -3.36688 1.19901 0
M  V30 9568 S 930.882 -4.26419 1.03501 0
M  V30 9569 H 927.7 -0.656765 0.272362 0
M  V30 9570 H 930.302 -1.43296 1.32991 0
M  V30 9571 H 929.006 -3.42808 2.25635 0
M  V30 9572 H 928.537 -3.88616 0.611669 0
M  V30 9573 H 930.552 -4.96176 -0.0490431 0
M  V30 9574 N 929.725 -0.817259 -1.34754 0
M  V30 9575 C 931.141 -0.502309 -1.51489 0
M  V30 9576 C 931.341 0.974568 -1.76364 0
M  V30 9577 O 930.397 1.75924 -1.81127 0
M  V30 9578 C 931.71 -1.35693 -2.68343 0
M  V30 9579 C 933.258 -1.35347 -2.82224 0
M  V30 9580 C 933.733 -2.19244 -4.02114 0
M  V30 9581 N 935.224 -2.16837 -4.09311 0
M  V30 9582 C 935.959 -2.78505 -5.01221 0
M  V30 9583 N 935.455 -3.4914 -5.98392 0
M  V30 9584 N 937.248 -2.68089 -4.94049 0
M  V30 9585 H 929.399 -1.77359 -1.16866 0
M  V30 9586 H 931.662 -0.755476 -0.572678 0
M  V30 9587 H 931.368 -2.40548 -2.56573 0
M  V30 9588 H 931.242 -1.01764 -3.63213 0
M  V30 9589 H 933.629 -0.312727 -2.93438 0
M  V30 9590 H 933.71 -1.7327 -1.88179 0
M  V30 9591 H 933.354 -3.23365 -3.9166 0
M  V30 9592 H 933.284 -1.78675 -4.95361 0
M  V30 9593 H 935.775 -1.65452 -3.39756 0
M  V30 9594 H 936.088 -3.93455 -6.65141 0
M  V30 9595 H 934.433 -3.53246 -5.98533 0
M  V30 9596 H 937.624 -2.12485 -4.17094 0
M  V30 9597 H 937.797 -3.16436 -5.65484 0
M  V30 9598 N 931.203 1.46865 -0.571711 0
M  V30 9599 C 932.151 2.31897 0.180714 0
M  V30 9600 C 933.145 1.43815 0.895191 0
M  V30 9601 O 934.351 1.60501 0.814828 0
M  V30 9602 H 930.726 0.748032 0.077148 0
M  V30 9603 H 932.697 2.93185 -0.555432 0
M  V30 9604 C 931.446 3.26766 1.18824 0
M  V30 9605 H 930.769 3.94515 0.64789 0
M  V30 9606 H 932.209 3.89067 1.68532 0
M  V30 9607 C 930.668 2.51325 2.2436 0
M  V30 9608 O 931.198 2.26825 3.31532 0
M  V30 9609 N 929.404 2.12079 1.98673 0
M  V30 9610 H 928.951 2.32204 1.1153 0
M  V30 9611 H 928.909 1.61921 2.69498 0
M  V30 9612 N 932.681 0.308908 1.54543 0
M  V30 9613 C 933.928 -0.298036 2.00295 0
M  V30 9614 C 934.256 -1.53285 1.19724 0
M  V30 9615 O 933.511 -1.93917 0.263551 0
M  V30 9616 C 933.81 -0.691522 3.50646 0
M  V30 9617 C 933.476 0.442454 4.48724 0
M  V30 9618 C 932.138 0.753739 4.7526 0
M  V30 9619 C 934.49 1.20488 5.07082 0
M  V30 9620 C 931.818 1.83044 5.57415 0
M  V30 9621 C 934.17 2.27156 5.90409 0
M  V30 9622 C 932.834 2.58882 6.15253 0
M  V30 9623 H 932.104 -0.109059 0.73293 0
M  V30 9624 H 934.751 0.429647 1.86618 0
M  V30 9625 H 933.056 -1.49941 3.61974 0
M  V30 9626 H 934.753 -1.17244 3.83477 0
M  V30 9627 H 931.343 0.189744 4.2818 0
M  V30 9628 H 935.527 0.977653 4.86575 0
M  V30 9629 H 930.783 2.08088 5.749 0
M  V30 9630 H 934.957 2.86687 6.34652 0
M  V30 9631 H 932.584 3.42443 6.78702 0
M  V30 9632 N 934.159 -1.57557 0.0367827 0
M  V30 9633 C 935.091 -2.07597 -0.971395 0
M  V30 9634 C 936.104 -1.0009 -1.28397 0
M  V30 9635 O 937.293 -1.27692 -1.24728 0
M  V30 9636 C 934.393 -2.492 -2.2968 0
M  V30 9637 C 933.566 -3.79875 -2.16826 0
M  V30 9638 C 932.625 -4.07946 -3.32366 0
M  V30 9639 O 931.651 -4.78083 -3.0891 0
M  V30 9640 N 932.853 -3.58722 -4.56397 0
M  V30 9641 H 935.618 -2.94714 -0.544389 0
M  V30 9642 H 933.179 -1.61205 -0.1498 0
M  V30 9643 H 935.171 -2.65065 -3.05815 0
M  V30 9644 H 933.741 -1.67407 -2.63995 0
M  V30 9645 H 932.961 -3.73732 -1.2537 0
M  V30 9646 H 934.249 -4.65476 -2.0545 0
M  V30 9647 H 933.647 -3.01994 -4.78347 0
M  V30 9648 H 932.204 -3.79852 -5.29675 0
M  V30 9649 N 935.637 0.236453 -1.55816 0
M  V30 9650 C 936.877 0.970249 -1.79904 0
M  V30 9651 C 937.241 1.8212 -0.607965 0
M  V30 9652 O 938.442 2.58759 -0.727833 0
M  V30 9653 C 936.713 1.79938 -3.088 0
M  V30 9654 S 938.272 2.59084 -3.54148 0
M  V30 9655 H 935.09 0.32618 -0.631765 0
M  V30 9656 H 937.692 0.237147 -1.94056 0
M  V30 9657 H 936.396 1.16412 -3.93544 0
M  V30 9658 H 935.927 2.57504 -2.97414 0
M  V30 9659 H 937.942 3.82315 -3.16306 0
M  V30 9660 N 937.115 1.49373 0.502552 0
M  V30 9661 C 938.361 1.59016 1.25864 0
M  V30 9662 C 938.694 0.27532 1.92238 0
M  V30 9663 O 937.969 -0.720988 1.80643 0
M  V30 9664 C 938.252 2.74828 2.32683 0
M  V30 9665 C 938.105 4.16102 1.7082 0
M  V30 9666 C 939.424 2.86288 3.34256 0
M  V30 9667 H 936.543 0.578798 0.456248 0
M  V30 9668 H 939.185 1.81651 0.557032 0
M  V30 9669 H 937.335 2.5566 2.92524 0
M  V30 9670 H 939.007 4.46782 1.14818 0
M  V30 9671 H 937.25 4.21822 1.01238 0
M  V30 9672 H 937.921 4.93006 2.48292 0
M  V30 9673 H 940.397 3.03733 2.84404 0
M  V30 9674 H 939.273 3.69001 4.06362 0
M  V30 9675 H 939.534 1.95576 3.96488 0
M  V30 9676 N 938.594 -0.753485 1.38421 0
M  V30 9677 C 939.871 -1.50318 1.25155 0
M  V30 9678 C 940.251 -2.10588 -0.147003 0
M  V30 9679 O 939.599 -1.97071 -1.15651 0
M  V30 9680 C 939.809 -2.56946 2.36177 0
M  V30 9681 C 941.157 -3.23846 2.74607 0
M  V30 9682 O 942.181 -2.67251 2.3549 0
M  V30 9683 O 941.04 -4.2621 3.42064 0
M  V30 9684 H 938.134 -0.666624 0.48943 0
M  V30 9685 H 940.68 -0.788887 1.50249 0
M  V30 9686 H 939.452 -2.1066 3.29754 0
M  V30 9687 H 939.075 -3.35956 2.12648 0
M  V30 9688 N 940.072 -1.23292 -0.981677 0
M  V30 9689 C 941.035 -1.01417 -2.05542 0
M  V30 9690 C 942.035 0.0235354 -1.60783 0
M  V30 9691 O 943.225 -0.216082 -1.72855 0
M  V30 9692 C 940.357 -0.534239 -3.36688 0
M  V30 9693 H 941.55 -1.96702 -2.26381 0
M  V30 9694 H 939.103 -1.05318 -1.1549 0
M  V30 9695 H 939.838 0.422452 -3.21537 0
M  V30 9696 H 939.623 -1.28304 -3.70514 0
M  V30 9697 H 941.113 -0.40179 -4.15663 0
M  V30 9698 N 941.55 1.18024 -1.04442 0
M  V30 9699 C 942.775 1.92573 -0.770097 0
M  V30 9700 C 943.2 1.75871 0.667169 0
M  V30 9701 O 942.558 1.07136 1.46258 0
M  V30 9702 C 942.606 3.41904 -1.14602 0
M  V30 9703 O 941.71 4.11491 -0.273712 0
M  V30 9704 H 941.051 0.600636 -0.283076 0
M  V30 9705 H 943.581 1.49645 -1.39526 0
M  V30 9706 H 943.591 3.92623 -1.10956 0
M  V30 9707 H 942.266 3.53382 -2.19304 0
M  V30 9708 H 940.843 3.71059 -0.370124 0
M  V30 9709 N 943.028 0.824394 1.34319 0
M  V30 9710 C 944.274 0.413779 1.98534 0
M  V30 9711 C 944.607 -1.02089 1.65201 0
M  V30 9712 O 943.882 -1.71129 0.924402 0
M  V30 9713 C 944.165 0.61801 3.54757 0
M  V30 9714 C 944.018 2.0989 3.97827 0
M  V30 9715 C 945.337 0.0549041 4.40066 0
M  V30 9716 H 942.456 0.151815 0.721194 0
M  V30 9717 H 945.098 1.03723 1.5919 0
M  V30 9718 H 943.248 0.0873107 3.88402 0
M  V30 9719 H 944.92 2.69335 3.74508 0
M  V30 9720 H 943.163 2.58881 3.48085 0
M  V30 9721 H 943.834 2.1926 5.06586 0
M  V30 9722 H 946.31 0.508348 4.12983 0
M  V30 9723 H 945.186 0.227595 5.48428 0
M  V30 9724 H 945.447 -1.04025 4.29687 0
M  V30 9725 N 944.506 -1.46559 0.579492 0
M  V30 9726 C 945.436 -2.33059 -0.143437 0
M  V30 9727 C 946.417 -1.4515 -0.886868 0
M  V30 9728 O 947.602 -1.73973 -0.862961 0
M  V30 9729 C 944.732 -3.27364 -1.15973 0
M  V30 9730 C 943.686 -4.24689 -0.531348 0
M  V30 9731 C 943.012 -5.08479 -1.65388 0
M  V30 9732 C 944.312 -5.1961 0.529391 0
M  V30 9733 H 946.006 -2.93753 0.578762 0
M  V30 9734 H 943.552 -1.41256 0.279775 0
M  V30 9735 H 945.505 -3.86732 -1.67382 0
M  V30 9736 H 944.229 -2.64771 -1.91217 0
M  V30 9737 H 942.888 -3.6658 -0.0383749 0
M  V30 9738 H 942.536 -4.42273 -2.3959 0
M  V30 9739 H 942.236 -5.74387 -1.23909 0
M  V30 9740 H 943.76 -5.70709 -2.17079 0
M  V30 9741 H 945.174 -5.73212 0.100506 0
M  V30 9742 H 943.571 -5.93843 0.86432 0
M  V30 9743 H 944.641 -4.63737 1.4169 0
M  V30 9744 N 945.984 -0.3171 -1.54377 0
M  V30 9745 C 946.932 0.567371 -2.25574 0
M  V30 9746 C 947.926 1.12387 -1.2675 0
M  V30 9747 O 949.132 1.07266 -1.44548 0
M  V30 9748 H 945.507 0.201605 -0.724472 0
M  V30 9749 H 947.478 -0.0554644 -2.98348 0
M  V30 9750 C 946.227 1.71984 -3.02187 0
M  V30 9751 H 945.55 1.30086 -3.78044 0
M  V30 9752 H 946.99 2.31443 -3.5526 0
M  V30 9753 C 945.449 2.6336 -2.10103 0
M  V30 9754 O 945.979 3.64899 -1.67962 0
M  V30 9755 N 944.185 2.3145 -1.75725 0
M  V30 9756 H 943.732 1.48921 -2.10191 0
M  V30 9757 H 943.69 2.92852 -1.14391 0
M  V30 9758 N 947.462 1.57535 -0.0451378 0
M  V30 9759 C 948.692 1.96476 0.638814 0
M  V30 9760 C 949.1 0.921056 1.65267 0
M  V30 9761 O 948.443 -0.103843 1.83406 0
M  V30 9762 C 948.505 3.31629 1.38788 0
M  V30 9763 C 948.169 4.5391 0.530545 0
M  V30 9764 C 949.166 5.19512 -0.200864 0
M  V30 9765 C 946.851 5.00159 0.463242 0
M  V30 9766 C 948.845 6.29695 -0.988078 0
M  V30 9767 C 946.532 6.10221 -0.327665 0
M  V30 9768 C 947.53 6.74849 -1.05202 0
M  V30 9769 O 947.218 7.82795 -1.82993 0
M  V30 9770 H 946.95 0.651625 0.17989 0
M  V30 9771 H 949.504 2.05126 -0.106031 0
M  V30 9772 H 947.734 3.19516 2.17822 0
M  V30 9773 H 949.423 3.5536 1.96148 0
M  V30 9774 H 950.189 4.84742 -0.158299 0
M  V30 9775 H 946.068 4.49651 1.01663 0
M  V30 9776 H 949.612 6.80072 -1.55397 0
M  V30 9777 H 945.509 6.44428 -0.37189 0
M  V30 9778 H 946.277 7.99542 -1.7514 0
M  V30 9779 N 948.94 -0.228186 1.55939 0
M  V30 9780 C 950.217 -0.977492 1.69424 0
M  V30 9781 C 950.597 -2.02674 0.590479 0
M  V30 9782 O 949.945 -2.2491 -0.403467 0
M  V30 9783 C 950.155 -1.59394 3.10475 0
M  V30 9784 C 951.503 -2.08871 3.69673 0
M  V30 9785 O 952.527 -1.693 3.13394 0
M  V30 9786 O 951.386 -2.81584 4.68372 0
M  V30 9787 H 948.48 -0.456185 0.6898 0
M  V30 9788 H 951.026 -0.220492 1.68261 0
M  V30 9789 H 949.798 -0.835971 3.82266 0
M  V30 9790 H 949.421 -2.41665 3.15727 0
M  V30 9791 N 950.418 -1.49637 -0.494624 0
M  V30 9792 C 951.658 -1.61067 -1.25844 0
M  V30 9793 C 952.022 -0.293666 -1.89741 0
M  V30 9794 O 953.223 -0.283202 -2.67304 0
M  V30 9795 C 951.494 -2.74218 -2.29215 0
M  V30 9796 S 953.053 -3.05639 -3.1485 0
M  V30 9797 H 949.871 -0.568056 -0.42759 0
M  V30 9798 H 952.473 -1.87323 -0.559491 0
M  V30 9799 H 951.177 -3.68422 -1.80813 0
M  V30 9800 H 950.708 -2.49975 -3.0377 0
M  V30 9801 H 952.723 -2.47651 -4.29981 0
M  V30 9802 N 951.896 0.746133 -1.38819 0
M  V30 9803 C 953.173 1.49652 -1.25951 0
M  V30 9804 C 953.553 2.10663 0.135833 0
M  V30 9805 O 952.901 1.97682 1.14604 0
M  V30 9806 C 953.111 2.5569 -2.37537 0
M  V30 9807 C 954.459 3.22385 -2.76321 0
M  V30 9808 O 955.483 2.65998 -2.36904 0
M  V30 9809 O 954.342 4.2439 -3.44319 0
M  V30 9810 H 951.436 0.664019 -0.492958 0
M  V30 9811 H 953.982 0.780908 -1.50665 0
M  V30 9812 H 952.754 2.08908 -3.30867 0
M  V30 9813 H 952.377 3.34823 -2.14427 0
M  V30 9814 N 953.375 1.23811 0.975125 0
M  V30 9815 C 954.621 1.07495 1.71967 0
M  V30 9816 C 954.954 -0.386451 1.90316 0
M  V30 9817 O 954.229 -1.28591 1.45927 0
M  V30 9818 C 954.512 1.80694 3.11483 0
M  V30 9819 C 954.365 3.3454 3.00671 0
M  V30 9820 C 955.684 1.57367 4.11003 0
M  V30 9821 H 952.803 0.3919 0.624166 0
M  V30 9822 H 955.445 1.52383 1.13487 0
M  V30 9823 H 953.595 1.42538 3.61407 0
M  V30 9824 H 955.267 3.8225 2.5823 0
M  V30 9825 H 953.51 3.63301 2.37054 0
M  V30 9826 H 954.181 3.80951 3.99475 0
M  V30 9827 H 956.657 1.90545 3.69908 0
M  V30 9828 H 955.533 2.11052 5.06703 0
M  V30 9829 H 955.794 0.510221 4.39146 0
M  V30 9830 N 954.853 -1.17469 1.05066 0
M  V30 9831 C 955.785 -2.20974 0.608526 0
M  V30 9832 C 956.798 -1.59481 -0.327066 0
M  V30 9833 O 957.987 -1.78096 -0.12 0
M  V30 9834 C 955.087 -3.38652 -0.12969 0
M  V30 9835 C 954.26 -4.29716 0.816285 0
M  V30 9836 C 953.319 -5.26064 0.119556 0
M  V30 9837 O 952.345 -5.64194 0.753241 0
M  V30 9838 N 953.547 -5.69126 -1.14347 0
M  V30 9839 H 956.312 -2.59529 1.49882 0
M  V30 9840 H 953.873 -1.32355 0.932406 0
M  V30 9841 H 955.865 -4.00139 -0.605886 0
M  V30 9842 H 954.435 -2.98705 -0.921638 0
M  V30 9843 H 953.655 -3.6568 1.47213 0
M  V30 9844 H 954.943 -4.87449 1.45845 0
M  V30 9845 H 954.341 -5.4022 -1.67866 0
M  V30 9846 H 952.898 -6.32764 -1.56376 0
M  V30 9847 N 956.331 -0.831506 -1.3388 0
M  V30 9848 C 957.278 -0.257449 -2.2936 0
M  V30 9849 C 958.248 0.622604 -1.5399 0
M  V30 9850 O 959.433 0.562432 -1.82322 0
M  V30 9851 C 956.573 0.567587 -3.404 0
M  V30 9852 C 955.686 -0.335666 -4.30694 0
M  V30 9853 C 954.821 0.499762 -5.28844 0
M  V30 9854 C 953.86 -0.402343 -6.10776 0
M  V30 9855 N 952.997 0.39452 -7.00991 0
M  V30 9856 H 957.837 -1.077 -2.77857 0
M  V30 9857 H 955.374 -0.542589 -1.36727 0
M  V30 9858 H 957.332 1.06133 -4.03474 0
M  V30 9859 H 955.962 1.35217 -2.93115 0
M  V30 9860 H 955.014 -0.94768 -3.68406 0
M  V30 9861 H 956.326 -1.02896 -4.88072 0
M  V30 9862 H 955.48 1.05763 -5.9741 0
M  V30 9863 H 954.219 1.22652 -4.72025 0
M  V30 9864 H 953.224 -0.972288 -5.41135 0
M  V30 9865 H 954.449 -1.12735 -6.69677 0
M  V30 9866 H 952.395 1.1048 -6.4663 0
M  V30 9867 H 952.312 -0.240209 -7.55618 0
M  V30 9868 H 953.58 0.934867 -7.73874 0
M  V30 9869 N 957.809 1.4625 -0.587256 0
M  V30 9870 C 958.756 2.30354 0.143384 0
M  V30 9871 C 959.726 1.40891 0.879716 0
M  V30 9872 O 960.911 1.69837 0.869486 0
M  V30 9873 C 958.051 3.25441 1.14815 0
M  V30 9874 C 957.164 4.30004 0.414792 0
M  V30 9875 C 956.299 5.12214 1.40748 0
M  V30 9876 C 955.338 6.08523 0.660786 0
M  V30 9877 N 954.475 6.83585 1.60176 0
M  V30 9878 H 959.315 2.92304 -0.579866 0
M  V30 9879 H 956.852 1.44055 -0.29777 0
M  V30 9880 H 958.81 3.79018 1.7436 0
M  V30 9881 H 957.44 2.6529 1.83906 0
M  V30 9882 H 956.492 3.79248 -0.295787 0
M  V30 9883 H 957.804 4.98515 -0.168738 0
M  V30 9884 H 956.958 5.70091 2.0756 0
M  V30 9885 H 955.697 4.43675 2.02494 0
M  V30 9886 H 954.702 5.49796 -0.0210864 0
M  V30 9887 H 955.927 6.79083 0.0486551 0
M  V30 9888 H 953.873 6.17752 2.20724 0
M  V30 9889 H 953.79 7.48373 1.07115 0
M  V30 9890 H 955.058 7.46016 2.26009 0
M  V30 9891 N 959.287 0.325282 1.54207 0
M  V30 9892 C 960.527 -0.277347 2.0251 0
M  V30 9893 C 960.891 -1.49211 1.20831 0
M  V30 9894 O 962.092 -2.16771 1.58945 0
M  V30 9895 C 960.363 -0.601517 3.52302 0
M  V30 9896 S 961.922 -1.18356 4.22537 0
M  V30 9897 H 958.74 -0.08378 0.706047 0
M  V30 9898 H 961.342 0.458804 1.9004 0
M  V30 9899 H 960.046 0.290696 4.09369 0
M  V30 9900 H 959.577 -1.36782 3.68855 0
M  V30 9901 H 961.592 -2.47029 4.30338 0
M  V30 9902 N 960.765 -1.57509 0.0534917 0
M  V30 9903 C 961.715 -2.08179 -0.929802 0
M  V30 9904 C 962.699 -0.987451 -1.27036 0
M  V30 9905 O 963.891 -1.25076 -1.2524 0
M  V30 9906 C 961.02 -2.63221 -2.20385 0
M  V30 9907 C 960.106 -3.79629 -1.89058 0
M  V30 9908 N 960.497 -4.8931 -1.28101 0
M  V30 9909 C 958.795 -3.88578 -2.18914 0
M  V30 9910 C 959.496 -5.70329 -1.14455 0
M  V30 9911 N 958.472 -5.18011 -1.64821 0
M  V30 9912 H 962.274 -2.90374 -0.453874 0
M  V30 9913 H 959.788 -1.61697 -0.150899 0
M  V30 9914 H 961.785 -2.97827 -2.91727 0
M  V30 9915 H 960.445 -1.82466 -2.68582 0
M  V30 9916 H 961.456 -5.09058 -0.952924 0
M  V30 9917 H 958.133 -3.18769 -2.69616 0
M  V30 9918 H 959.523 -6.6854 -0.671129 0
M  V30 9919 N 962.243 0.219913 -1.56058 0
M  V30 9920 C 963.491 0.942199 -1.78793 0
M  V30 9921 C 963.812 1.84804 -0.622284 0
M  V30 9922 O 963.082 1.9255 0.360735 0
M  V30 9923 H 961.662 0.350895 -0.659455 0
M  V30 9924 H 964.324 0.231376 -1.93522 0
M  V30 9925 H 963.42 1.54804 -2.71002 0
M  V30 9926 N 963.721 1.49897 0.486681 0
M  V30 9927 C 964.671 1.6401 1.58381 0
M  V30 9928 C 965.655 0.495215 1.5309 0
M  V30 9929 O 966.847 0.748876 1.60377 0
M  V30 9930 C 963.976 1.72321 2.96918 0
M  V30 9931 C 963.062 2.92435 3.07152 0
M  V30 9932 N 963.453 4.16326 2.87238 0
M  V30 9933 C 961.751 2.90669 3.38271 0
M  V30 9934 C 962.452 4.97144 3.02031 0
M  V30 9935 N 961.428 4.3079 3.31544 0
M  V30 9936 H 965.23 2.57506 1.41661 0
M  V30 9937 H 962.744 1.46867 0.693106 0
M  V30 9938 H 964.741 1.80532 3.75784 0
M  V30 9939 H 963.401 0.799724 3.14697 0
M  V30 9940 H 964.412 4.46076 2.63128 0
M  V30 9941 H 961.089 2.07758 3.62137 0
M  V30 9942 H 962.479 6.05611 2.91006 0
M  V30 9943 N 965.199 -0.738761 1.39212 0
M  V30 9944 C 966.447 -1.49529 1.35962 0
M  V30 9945 C 966.768 -1.94948 -0.0450152 0
M  V30 9946 O 966.038 -1.68717 -0.995552 0
M  V30 9947 H 964.618 -0.554692 0.500326 0
M  V30 9948 H 967.28 -0.877255 1.74041 0
M  V30 9949 H 966.376 -2.37919 2.01993 0
M  V30 9950 N 966.677 -1.24326 -0.968545 0
M  V30 9951 C 967.923 -1.08406 -1.71394 0
M  V30 9952 C 968.256 0.376353 -1.90518 0
M  V30 9953 O 967.531 1.27816 -1.46606 0
M  V30 9954 C 967.814 -1.82344 -3.1052 0
M  V30 9955 C 967.667 -3.3613 -2.98893 0
M  V30 9956 C 968.986 -1.59545 -4.10163 0
M  V30 9957 H 966.105 -0.395205 -0.622079 0
M  V30 9958 H 968.747 -1.52983 -1.12677 0
M  V30 9959 H 966.897 -1.44452 -3.60646 0
M  V30 9960 H 968.569 -3.83614 -2.56199 0
M  V30 9961 H 966.812 -3.64553 -2.35124 0
M  V30 9962 H 967.483 -3.83064 -3.97449 0
M  V30 9963 H 969.959 -1.92504 -3.68892 0
M  V30 9964 H 968.835 -2.13736 -5.05577 0
M  V30 9965 H 969.096 -0.533503 -4.38869 0
M  V30 9966 N 968.156 1.1691 -1.05688 0
M  V30 9967 C 969.396 1.88972 -0.779044 0
M  V30 9968 C 969.76 1.7949 0.681708 0
M  V30 9969 O 970.961 2.46418 1.07386 0
M  V30 9970 C 969.232 3.34737 -1.25242 0
M  V30 9971 S 970.791 4.24718 -1.10272 0
M  V30 9972 H 967.609 0.652349 -0.282776 0
M  V30 9973 H 970.211 1.41162 -1.35254 0
M  V30 9974 H 968.915 3.39175 -2.3106 0
M  V30 9975 H 968.446 3.87593 -0.673417 0
M  V30 9976 H 970.461 4.96191 -0.0299004 0
M  V30 9977 N 969.634 0.838594 1.33437 0
M  V30 9978 C 970.582 0.260158 2.31141 0
M  V30 9979 C 971.576 -0.607706 1.58124 0
M  V30 9980 O 972.782 -0.497298 1.72994 0
M  V30 9981 H 969.157 0.0654031 0.74915 0
M  V30 9982 H 971.128 1.09874 2.77435 0
M  V30 9983 C 969.877 -0.550234 3.43319 0
M  V30 9984 H 969.2 0.108262 3.99653 0
M  V30 9985 H 970.64 -0.920815 4.1388 0
M  V30 9986 C 969.099 -1.729 2.89149 0
M  V30 9987 O 969.629 -2.82769 2.85315 0
M  V30 9988 N 967.835 -1.5508 2.45761 0
M  V30 9989 H 967.382 -0.657055 2.49079 0
M  V30 9990 H 967.34 -2.34099 2.0987 0
M  V30 9991 N 971.112 -1.45937 0.595003 0
M  V30 9992 C 972.337 -2.07207 0.0894416 0
M  V30 9993 C 972.762 -1.43884 -1.21157 0
M  V30 9994 O 972.12 -0.526998 -1.73472 0
M  V30 9995 C 972.168 -3.60565 -0.0499828 0
M  V30 9996 O 971.272 -3.97364 -1.10342 0
M  V30 9997 H 970.613 -0.660471 0.0683627 0
M  V30 9998 H 973.143 -1.87386 0.82144 0
M  V30 9999 H 973.153 -4.0722 -0.252234 0
M  V30 10000 H 971.828 -4.06044 0.90006 0
M  V30 10001 H 970.405 -3.62401 -0.878645 0
M  V30 10002 N 972.59 -0.333456 -1.54032 0
M  V30 10003 C 973.538 0.543414 -2.26163 0
M  V30 10004 C 974.532 1.11037 -1.27934 0
M  V30 10005 O 975.738 1.05727 -1.45677 0
M  V30 10006 H 972.113 0.19391 -0.726569 0
M  V30 10007 H 974.084 -0.0871052 -2.98273 0
M  V30 10008 C 972.833 1.68769 -3.03994 0
M  V30 10009 H 972.156 1.26069 -3.79403 0
M  V30 10010 H 973.596 2.27662 -3.57695 0
M  V30 10011 C 972.055 2.61117 -2.12884 0
M  V30 10012 O 972.585 3.63097 -1.71823 0
M  V30 10013 N 970.791 2.29573 -1.7817 0
M  V30 10014 H 970.338 1.46684 -2.11759 0
M  V30 10015 H 970.296 2.91622 -1.1749 0
M  V30 10016 N 974.068 1.57479 -0.061844 0
M  V30 10017 C 975.015 2.12152 0.908862 0
M  V30 10018 C 975.985 1.03152 1.30188 0
M  V30 10019 O 977.17 1.3076 1.38948 0
M  V30 10020 C 974.31 2.6796 2.17465 0
M  V30 10021 C 973.423 3.91083 1.83517 0
M  V30 10022 C 972.558 4.35169 3.04633 0
M  V30 10023 C 971.597 5.50964 2.66655 0
M  V30 10024 N 970.734 5.90055 3.80499 0
M  V30 10025 H 975.574 2.94797 0.435743 0
M  V30 10026 H 973.111 1.45686 0.203445 0
M  V30 10027 H 975.069 2.98421 2.91548 0
M  V30 10028 H 973.699 1.88096 2.62335 0
M  V30 10029 H 972.751 3.67146 0.995381 0
M  V30 10030 H 974.063 4.75214 1.51569 0
M  V30 10031 H 973.217 4.67239 3.87005 0
M  V30 10032 H 971.956 3.49871 3.39767 0
M  V30 10033 H 970.961 5.18556 1.82703 0
M  V30 10034 H 972.186 6.37986 2.32702 0
M  V30 10035 H 970.132 5.07708 4.15414 0
M  V30 10036 H 970.049 6.68903 3.52285 0
M  V30 10037 H 971.317 6.26744 4.63479 0
M  V30 10038 N 975.546 -0.211634 1.56173 0
M  V30 10039 C 976.494 -1.28188 1.94089 0
M  V30 10040 C 977.488 -1.47999 0.824167 0
M  V30 10041 O 978.694 -1.49056 1.00907 0
M  V30 10042 H 975.069 -0.42999 0.616938 0
M  V30 10043 H 977.04 -0.934962 2.83374 0
M  V30 10044 C 975.789 -2.62294 2.28248 0
M  V30 10045 H 975.112 -2.4786 3.13696 0
M  V30 10046 H 976.552 -3.35967 2.58655 0
M  V30 10047 C 975.011 -3.18049 1.11113 0
M  V30 10048 O 975.541 -3.99923 0.377458 0
M  V30 10049 N 973.747 -2.76561 0.892321 0
M  V30 10050 H 973.294 -2.10088 1.49067 0
M  V30 10051 H 973.252 -3.14206 0.110344 0
M  V30 10052 N 977.024 -1.50153 -0.478725 0
M  V30 10053 C 978.264 -1.62393 -1.24129 0
M  V30 10054 C 978.628 -0.313774 -1.89419 0
M  V30 10055 O 979.829 -0.311537 -2.66989 0
M  V30 10056 C 978.1 -2.76633 -2.26293 0
M  V30 10057 S 979.659 -3.08961 -3.11591 0
M  V30 10058 H 976.477 -0.572559 -0.421541 0
M  V30 10059 H 979.079 -1.87906 -0.539592 0
M  V30 10060 H 977.783 -3.70319 -1.76896 0
M  V30 10061 H 977.314 -2.53182 -3.01102 0
M  V30 10062 H 979.329 -2.52197 -4.2733 0
M  V30 10063 N 978.502 0.731368 -1.39602 0
M  V30 10064 C 979.452 1.83662 -1.35101 0
M  V30 10065 C 980.436 1.5923 -0.231241 0
M  V30 10066 O 981.628 1.70671 -0.469072 0
M  V30 10067 C 978.757 3.21629 -1.20041 0
M  V30 10068 C 977.843 3.51878 -2.36733 0
M  V30 10069 N 978.234 3.53041 -3.6221 0
M  V30 10070 C 976.532 3.82259 -2.2977 0
M  V30 10071 C 977.233 3.81188 -4.39398 0
M  V30 10072 N 976.209 3.99145 -3.69031 0
M  V30 10073 H 980.011 1.82871 -2.30077 0
M  V30 10074 H 977.525 0.929777 -1.3315 0
M  V30 10075 H 979.522 4.00754 -1.14899 0
M  V30 10076 H 978.182 3.23656 -0.260184 0
M  V30 10077 H 979.193 3.34266 -3.95584 0
M  V30 10078 H 975.87 3.9187 -1.44029 0
M  V30 10079 H 977.26 3.88525 -5.48177 0
M  V30 10080 N 979.98 1.24838 0.961938 0
M  V30 10081 C 981.22 1.10348 1.72054 0
M  V30 10082 C 981.584 -0.350775 1.88769 0
M  V30 10083 O 982.785 -0.617323 2.61615 0
M  V30 10084 C 981.056 1.82916 3.07045 0
M  V30 10085 S 982.615 1.84227 3.98253 0
M  V30 10086 H 979.433 0.394552 0.591481 0
M  V30 10087 H 982.035 1.58254 1.14786 0
M  V30 10088 H 980.739 2.87829 2.92545 0
M  V30 10089 H 980.27 1.35366 3.69377 0
M  V30 10090 H 982.285 0.914073 4.87708 0
M  V30 10091 N 981.458 -1.16348 1.06306 0
M  V30 10092 C 982.368 -2.24375 0.685059 0
M  V30 10093 C 983.384 -1.71413 -0.298956 0
M  V30 10094 O 984.56 -2.00854 -0.148239 0
M  V30 10095 C 981.625 -3.46614 0.0774088 0
M  V30 10096 C 980.686 -4.14613 1.11331 0
M  V30 10097 C 979.919 -5.31016 0.534559 0
M  V30 10098 O 980.142 -5.66654 -0.65265 0
M  V30 10099 O 979.076 -5.88256 1.27431 0
M  V30 10100 H 982.902 -2.59018 1.58566 0
M  V30 10101 H 980.487 -1.23865 0.835332 0
M  V30 10102 H 982.369 -4.20599 -0.259716 0
M  V30 10103 H 981.044 -3.13743 -0.796677 0
M  V30 10104 H 979.951 -3.42597 1.50261 0
M  V30 10105 H 981.284 -4.51538 1.95893 0
M  V30 10106 N 982.937 -0.845659 -1.3299 0
M  V30 10107 C 983.885 -0.272412 -2.30999 0
M  V30 10108 C 984.879 0.599311 -1.58444 0
M  V30 10109 O 986.085 0.488117 -1.73255 0
M  V30 10110 H 982.46 -0.0693751 -0.748793 0
M  V30 10111 H 984.431 -1.11343 -2.76849 0
M  V30 10112 C 983.18 0.532019 -3.43606 0
M  V30 10113 H 982.503 -0.129455 -3.9959 0
M  V30 10114 H 983.943 0.898853 -4.14363 0
M  V30 10115 C 982.402 1.71364 -2.90062 0
M  V30 10116 O 982.932 2.81252 -2.8681 0
M  V30 10117 N 981.138 1.53775 -2.4658 0
M  V30 10118 H 980.685 0.643836 -2.49424 0
M  V30 10119 H 980.643 2.32982 -2.11108 0
M  V30 10120 N 984.415 1.45619 -0.602734 0
M  V30 10121 C 985.663 2.01873 -0.095844 0
M  V30 10122 C 985.984 1.47427 1.27633 0
M  V30 10123 O 985.254 0.666652 1.84208 0
M  V30 10124 H 983.834 0.746295 -0.0324408 0
M  V30 10125 H 986.496 1.78478 -0.783037 0
M  V30 10126 H 985.592 3.12072 -0.0419507 0
M  V30 10127 N 985.893 0.34162 1.53853 0
M  V30 10128 C 987.139 -0.248546 2.01876 0
M  V30 10129 C 987.494 -1.48352 1.22513 0
M  V30 10130 O 986.787 -1.89174 0.303919 0
M  V30 10131 C 986.981 -0.616989 3.52034 0
M  V30 10132 C 986.81 0.580727 4.45935 0
M  V30 10133 C 985.58 1.08544 4.93504 0
M  V30 10134 C 987.778 1.43858 4.93771 0
M  V30 10135 N 985.76 2.24568 5.71351 0
M  V30 10136 C 987.131 2.44575 5.69722 0
M  V30 10137 C 989.186 1.46425 4.75882 0
M  V30 10138 C 987.889 3.47687 6.29688 0
M  V30 10139 C 989.915 2.48416 5.36697 0
M  V30 10140 C 989.277 3.4786 6.12514 0
M  V30 10141 H 985.376 -0.0543067 0.780112 0
M  V30 10142 H 987.96 0.480749 1.88671 0
M  V30 10143 H 986.131 -1.31539 3.65448 0
M  V30 10144 H 987.863 -1.19018 3.86803 0
M  V30 10145 H 984.618 0.653832 4.69065 0
M  V30 10146 H 985.042 2.83143 6.14946 0
M  V30 10147 H 989.684 0.709044 4.16812 0
M  V30 10148 H 987.402 4.24103 6.87868 0
M  V30 10149 H 990.988 2.51227 5.24763 0
M  V30 10150 H 989.868 4.25486 6.58734 0
M  V30 10151 N 987.371 -1.57444 0.0701946 0
M  V30 10152 C 988.334 -2.11511 -0.882923 0
M  V30 10153 C 989.334 -1.03879 -1.22743 0
M  V30 10154 O 990.524 -1.29874 -1.16097 0
M  V30 10155 C 987.656 -2.61514 -2.18686 0
M  V30 10156 H 988.849 -2.9703 -0.413873 0
M  V30 10157 H 986.402 -1.55278 -0.178488 0
M  V30 10158 H 987.137 -1.79443 -2.70131 0
M  V30 10159 H 986.922 -3.40185 -1.94978 0
M  V30 10160 H 988.412 -3.03425 -2.86919 0
M  V30 10161 N 988.849 0.203349 -1.56283 0
M  V30 10162 C 990.26 0.768764 -1.70138 0
M  V30 10163 C 990.611 1.8421 -0.675358 0
M  V30 10164 O 989.736 2.15732 0.1699 0
M  V30 10165 C 990.331 1.40123 -3.08466 0
M  V30 10166 C 988.89 1.91382 -3.24114 0
M  V30 10167 C 988.037 0.780685 -2.66084 0
M  V30 10168 H 990.988 -0.0215997 -1.58685 0
M  V30 10169 H 991.009 2.27046 -3.05336 0
M  V30 10170 H 990.521 0.619805 -3.83119 0
M  V30 10171 H 988.622 2.7227 -2.54362 0
M  V30 10172 H 988.735 2.08128 -4.31531 0
M  V30 10173 H 987.099 1.19281 -2.25042 0
M  V30 10174 H 987.882 0.0116351 -3.43298 0
M  V30 10175 N 990.327 1.50405 0.470755 0
M  V30 10176 C 991.738 1.54266 1.05162 0
M  V30 10177 C 992.089 0.346359 1.93119 0
M  V30 10178 O 991.214 -0.540699 2.09536 0
M  V30 10179 C 991.809 2.7956 1.91394 0
M  V30 10180 C 990.368 2.86101 2.44588 0
M  V30 10181 C 989.515 2.48557 1.22941 0
M  V30 10182 H 992.466 1.56665 0.253359 0
M  V30 10183 H 992.487 2.61434 2.76464 0
M  V30 10184 H 991.999 3.66611 1.27351 0
M  V30 10185 H 990.1 2.03403 3.12183 0
M  V30 10186 H 990.213 3.88999 2.79672 0
M  V30 10187 H 988.577 2.01003 1.56429 0
M  V30 10188 H 989.36 3.37916 0.605598 0
M  V30 10189 N 991.805 -0.723954 1.39988 0
M  V30 10190 C 992.753 -1.85938 1.39749 0
M  V30 10191 C 993.747 -1.67085 0.279112 0
M  V30 10192 O 994.953 -1.74291 0.44972 0
M  V30 10193 H 991.328 -0.612246 0.436644 0
M  V30 10194 H 993.299 -1.83255 2.355 0
M  V30 10195 C 992.048 -3.23726 1.26874 0
M  V30 10196 H 991.371 -3.38835 2.12206 0
M  V30 10197 H 992.811 -4.03332 1.30765 0
M  V30 10198 C 991.27 -3.36893 -0.0218317 0
M  V30 10199 O 991.8 -3.89363 -0.987905 0
M  V30 10200 N 990.006 -2.90465 -0.0885618 0
M  V30 10201 H 989.553 -2.47954 0.698314 0
M  V30 10202 H 989.511 -2.99654 -0.951557 0
M  V30 10203 N 993.283 -1.25346 -0.955304 0
M  V30 10204 C 994.523 -1.11259 -1.71467 0
M  V30 10205 C 994.887 0.340759 -1.88952 0
M  V30 10206 O 996.088 0.60344 -2.61939 0
M  V30 10207 C 994.359 -1.84541 -3.06071 0
M  V30 10208 S 995.918 -1.86337 -3.97271 0
M  V30 10209 H 992.736 -0.397683 -0.58938 0
M  V30 10210 H 995.338 -1.58861 -1.13945 0
M  V30 10211 H 994.042 -2.89377 -2.91014 0
M  V30 10212 H 993.573 -1.37323 -3.68654 0
M  V30 10213 H 995.588 -0.939925 -4.87216 0
M  V30 10214 N 994.761 1.15782 -1.06922 0
M  V30 10215 C 995.671 2.24008 -0.696948 0
M  V30 10216 C 996.687 1.71569 0.289862 0
M  V30 10217 O 997.863 2.00929 0.137585 0
M  V30 10218 C 994.928 3.46568 -0.0957895 0
M  V30 10219 C 993.989 4.14017 -1.13528 0
M  V30 10220 C 993.222 5.30725 -0.562713 0
M  V30 10221 O 993.445 5.66992 0.62259 0
M  V30 10222 O 992.379 5.87572 -1.30549 0
M  V30 10223 H 996.205 2.58174 -1.59938 0
M  V30 10224 H 993.79 1.2342 -0.841889 0
M  V30 10225 H 995.672 4.20731 0.237407 0
M  V30 10226 H 994.347 3.14161 0.780027 0
M  V30 10227 H 993.254 3.41795 -1.52076 0
M  V30 10228 H 994.587 4.50493 -1.98285 0
M  V30 10229 N 996.239 0.8527 1.3254 0
M  V30 10230 C 997.467 0.469044 2.01513 0
M  V30 10231 C 997.882 -0.933701 1.64096 0
M  V30 10232 O 997.239 -1.60898 0.861283 0
M  V30 10233 C 997.29 0.596228 3.56549 0
M  V30 10234 O 997.011 1.94371 3.92621 0
M  V30 10235 C 998.512 0.211324 4.42796 0
M  V30 10236 H 995.732 0.184589 0.645111 0
M  V30 10237 H 998.276 1.1491 1.69163 0
M  V30 10238 H 996.431 -0.0360712 3.87383 0
M  V30 10239 H 996.845 1.93909 4.87339 0
M  V30 10240 H 998.319 0.351324 5.50881 0
M  V30 10241 H 998.796 -0.848055 4.30935 0
M  V30 10242 H 999.402 0.818617 4.17347 0
M  V30 10243 N 997.718 -1.45297 0.610449 0
M  V30 10244 C 998.665 -2.30553 -0.106718 0
M  V30 10245 C 999.635 -1.42272 -0.85719 0
M  V30 10246 O 1000.82 -1.71199 -0.842357 0
M  V30 10247 C 997.96 -3.27226 -1.09623 0
M  V30 10248 C 997.073 -4.3061 -0.346329 0
M  V30 10249 C 996.208 -5.14389 -1.32581 0
M  V30 10250 C 995.247 -6.09497 -0.563892 0
M  V30 10251 N 994.384 -6.86047 -1.4928 0
M  V30 10252 H 999.224 -2.91344 0.626296 0
M  V30 10253 H 996.761 -1.43563 0.32065 0
M  V30 10254 H 998.719 -3.81744 -1.68308 0
M  V30 10255 H 997.349 -2.68182 -1.79662 0
M  V30 10256 H 996.401 -3.7873 0.356084 0
M  V30 10257 H 997.713 -4.98183 0.248026 0
M  V30 10258 H 996.867 -5.73321 -1.98464 0
M  V30 10259 H 995.606 -4.4684 -1.9541 0
M  V30 10260 H 994.611 -5.49693 0.108551 0
M  V30 10261 H 995.836 -6.79074 0.0593872 0
M  V30 10262 H 993.782 -6.21185 -2.10868 0
M  V30 10263 H 993.699 -7.49983 -0.951953 0
M  V30 10264 H 994.967 -7.49518 -2.14112 0
M  V30 10265 N 999.196 -0.349774 -1.5367 0
M  V30 10266 C 1000.44 0.244343 -2.00617 0
M  V30 10267 C 1000.76 1.50567 -1.23914 0
M  V30 10268 O 1000.03 1.92784 -0.348016 0
M  V30 10269 H 998.615 0.0932792 -0.741153 0
M  V30 10270 H 1001.28 -0.472367 -1.89089 0
M  V30 10271 H 1000.37 0.482433 -3.08349 0
M  V30 10272 N 1000.67 1.57404 -0.0785433 0
M  V30 10273 C 1001.9 1.97787 0.596995 0
M  V30 10274 C 1002.31 0.955904 1.63276 0
M  V30 10275 O 1001.65 -0.0649169 1.83585 0
M  V30 10276 C 1001.72 3.34499 1.31723 0
M  V30 10277 C 1001.38 4.54933 0.434144 0
M  V30 10278 C 1002.38 5.18969 -0.311015 0
M  V30 10279 C 1000.06 5.01029 0.357046 0
M  V30 10280 C 1002.06 6.27457 -1.12142 0
M  V30 10281 C 999.744 6.09389 -0.457029 0
M  V30 10282 C 1000.74 6.72466 -1.19493 0
M  V30 10283 O 1000.43 7.78738 -1.99556 0
M  V30 10284 H 1000.16 0.655294 0.166028 0
M  V30 10285 H 1002.72 2.04855 -0.149517 0
M  V30 10286 H 1000.95 3.24064 2.10996 0
M  V30 10287 H 1002.63 3.5944 1.88567 0
M  V30 10288 H 1003.4 4.84297 -0.261084 0
M  V30 10289 H 999.28 4.51706 0.921026 0
M  V30 10290 H 1002.82 6.76622 -1.69788 0
M  V30 10291 H 998.721 6.43494 -0.508499 0
M  V30 10292 H 999.489 7.95648 -1.9206 0
M  V30 10293 N 1002.15 -0.195058 1.56388 0
M  V30 10294 C 1003.4 -0.913636 1.8027 0
M  V30 10295 C 1003.72 -1.83791 0.651606 0
M  V30 10296 O 1002.99 -1.931 -0.330057 0
M  V30 10297 H 1001.57 -0.34036 0.664954 0
M  V30 10298 H 1004.23 -0.200559 1.93865 0
M  V30 10299 H 1003.33 -1.50473 2.7343 0
M  V30 10300 N 1003.63 -1.50653 -0.462772 0
M  V30 10301 C 1004.88 -1.61737 -1.21184 0
M  V30 10302 C 1005.2 -0.32369 -1.92295 0
M  V30 10303 O 1004.47 0.659269 -1.84473 0
M  V30 10304 H 1003.05 -0.596015 -0.450306 0
M  V30 10305 H 1005.71 -1.87469 -0.533051 0
M  V30 10306 H 1004.81 -2.43262 -1.95525 0
M  V30 10307 N 1005.11 0.71652 -1.4037 0
M  V30 10308 C 1006.33 1.51069 -1.42102 0
M  V30 10309 C 1006.76 1.88087 -0.0222387 0
M  V30 10310 O 1006.12 1.53204 0.969448 0
M  V30 10311 C 1006.16 2.76307 -2.31704 0
M  V30 10312 O 1005.27 3.72975 -1.75964 0
M  V30 10313 H 1004.61 0.455502 -0.483129 0
M  V30 10314 H 1007.14 0.882514 -1.84588 0
M  V30 10315 H 1007.15 3.24846 -2.46859 0
M  V30 10316 H 1005.82 2.48698 -3.3335 0
M  V30 10317 H 1004.4 3.31818 -1.70151 0
M  V30 10318 N 1006.59 1.25851 0.948643 0
M  V30 10319 C 1007.83 1.11119 1.69648 0
M  V30 10320 C 1008.17 -0.345995 1.91093 0
M  V30 10321 O 1007.44 -1.25467 1.48621 0
M  V30 10322 C 1007.72 1.87261 3.0758 0
M  V30 10323 C 1007.58 3.40842 2.93507 0
M  V30 10324 C 1008.9 1.6605 4.07573 0
M  V30 10325 H 1006.01 0.405052 0.615713 0
M  V30 10326 H 1008.66 1.54756 1.10229 0
M  V30 10327 H 1006.81 1.50172 3.58303 0
M  V30 10328 H 1008.48 3.87641 2.50064 0
M  V30 10329 H 1006.72 3.68248 2.29294 0
M  V30 10330 H 1007.39 3.89339 3.91305 0
M  V30 10331 H 1009.87 1.98348 3.65783 0
M  V30 10332 H 1008.74 2.21753 5.02113 0
M  V30 10333 H 1009.01 0.603256 4.37965 0
M  V30 10334 N 1008.06 -1.15214 1.07534 0
M  V30 10335 C 1009.34 -1.82155 0.71267 0
M  V30 10336 C 1009.72 -1.95163 -0.804655 0
M  V30 10337 O 1009.07 -1.50451 -1.71979 0
M  V30 10338 C 1009.28 -3.18392 1.42925 0
M  V30 10339 C 1010.63 -3.94005 1.58256 0
M  V30 10340 O 1011.65 -3.27952 1.39018 0
M  V30 10341 O 1010.51 -5.12436 1.89925 0
M  V30 10342 H 1007.6 -0.78709 0.253808 0
M  V30 10343 H 1010.15 -1.22309 1.17638 0
M  V30 10344 H 1008.92 -3.04034 2.46331 0
M  V30 10345 H 1008.55 -3.85925 0.956439 0
M  V30 10346 N 1009.54 -0.859717 -1.32086 0
M  V30 10347 C 1010.77 -0.478865 -2.01796 0
M  V30 10348 C 1011.19 0.918274 -1.64163 0
M  V30 10349 O 1010.55 1.60409 -0.844896 0
M  V30 10350 C 1010.6 -0.631356 -3.5503 0
M  V30 10351 O 1009.7 0.333712 -4.11048 0
M  V30 10352 H 1009.04 -0.191775 -0.635703 0
M  V30 10353 H 1011.57 -1.16031 -1.68517 0
M  V30 10354 H 1011.58 -0.520783 -4.04663 0
M  V30 10355 H 1010.26 -1.65015 -3.81763 0
M  V30 10356 H 1008.84 0.178953 -3.7247 0
M  V30 10357 N 1011.02 1.44971 -0.618145 0
M  V30 10358 C 1012.27 2.0176 -0.11725 0
M  V30 10359 C 1012.59 1.48773 1.26062 0
M  V30 10360 O 1011.86 0.686152 1.83491 0
M  V30 10361 H 1010.44 0.745909 -0.0403545 0
M  V30 10362 H 1013.1 1.77638 -0.801923 0
M  V30 10363 H 1012.2 3.1201 -0.0750477 0
M  V30 10364 N 1012.5 0.357919 1.53482 0
M  V30 10365 C 1013.91 -0.122938 1.86295 0
M  V30 10366 C 1014.26 -1.48803 1.27875 0
M  V30 10367 O 1013.39 -2.07978 0.597828 0
M  V30 10368 C 1013.98 -0.229853 3.38019 0
M  V30 10369 C 1012.54 -0.654955 3.70658 0
M  V30 10370 C 1011.69 0.202539 2.76559 0
M  V30 10371 H 1014.64 0.576997 1.47839 0
M  V30 10372 H 1014.66 -1.05481 3.65587 0
M  V30 10373 H 1014.17 0.763825 3.80509 0
M  V30 10374 H 1012.27 -1.65714 3.33721 0
M  V30 10375 H 1012.38 -0.43488 4.77122 0
M  V30 10376 H 1010.75 -0.327388 2.52587 0
M  V30 10377 H 1011.53 1.19361 3.21882 0
M  V30 10378 N 1013.98 -1.5736 0.0868897 0
M  V30 10379 C 1015.2 -1.98388 -0.587349 0
M  V30 10380 C 1015.62 -0.965757 -1.6223 0
M  V30 10381 O 1014.98 0.0456981 -1.82443 0
M  V30 10382 C 1015.03 -3.39479 -1.24242 0
M  V30 10383 O 1014.75 -4.37393 -0.248878 0
M  V30 10384 C 1016.25 -3.95465 -2.00305 0
M  V30 10385 H 1013.47 -0.652111 -0.15809 0
M  V30 10386 H 1016.01 -2.03843 0.163754 0
M  V30 10387 H 1014.17 -3.35063 -1.94451 0
M  V30 10388 H 1014.58 -5.19525 -0.720678 0
M  V30 10389 H 1016.06 -4.96363 -2.41511 0
M  V30 10390 H 1016.53 -3.32832 -2.86565 0
M  V30 10391 H 1017.14 -4.03328 -1.34931 0
M  V30 10392 N 1015.45 0.186762 -1.56489 0
M  V30 10393 C 1016.68 0.920495 -1.84961 0
M  V30 10394 C 1017.09 1.77004 -0.668297 0
M  V30 10395 O 1016.44 1.79891 0.37213 0
M  V30 10396 C 1016.5 1.85997 -3.07645 0
M  V30 10397 C 1016.16 1.19156 -4.41193 0
M  V30 10398 C 1017.16 0.564446 -5.16827 0
M  V30 10399 C 1014.84 1.19292 -4.87929 0
M  V30 10400 C 1016.84 -0.0523768 -6.37378 0
M  V30 10401 C 1014.52 0.572266 -6.08415 0
M  V30 10402 C 1015.52 -0.049294 -6.82982 0
M  V30 10403 O 1015.21 -0.660201 -8.01184 0
M  V30 10404 H 1014.94 0.273659 -0.618132 0
M  V30 10405 H 1017.5 0.196437 -2.04459 0
M  V30 10406 H 1015.73 2.62394 -2.84053 0
M  V30 10407 H 1017.42 2.46221 -3.22692 0
M  V30 10408 H 1018.18 0.555474 -4.81809 0
M  V30 10409 H 1014.06 1.66611 -4.29839 0
M  V30 10410 H 1017.6 -0.538133 -6.95521 0
M  V30 10411 H 1013.5 0.578769 -6.429 0
M  V30 10412 H 1014.27 -0.557926 -8.16596 0
M  V30 10413 N 1016.93 1.50896 0.454776 0
M  V30 10414 C 1017.88 1.71497 1.57136 0
M  V30 10415 C 1018.87 0.58098 1.59126 0
M  V30 10416 O 1020.08 0.761916 1.63079 0
M  V30 10417 H 1016.46 0.54158 0.521724 0
M  V30 10418 H 1018.43 2.65129 1.36928 0
M  V30 10419 C 1017.18 1.84125 2.94947 0
M  V30 10420 H 1016.5 2.7078 2.9414 0
M  V30 10421 H 1017.94 2.02558 3.72487 0
M  V30 10422 C 1016.4 0.596752 3.31573 0
M  V30 10423 O 1016.93 -0.256632 4.00879 0
M  V30 10424 N 1015.13 0.445958 2.87158 0
M  V30 10425 H 1014.68 1.14146 2.30929 0
M  V30 10426 H 1014.64 -0.385519 3.12027 0
M  V30 10427 N 1018.41 -0.709066 1.40748 0
M  V30 10428 C 1019.32 -1.85314 1.43861 0
M  V30 10429 C 1020.34 -1.70832 0.330539 0
M  V30 10430 O 1021.51 -1.92983 0.576152 0
M  V30 10431 C 1018.58 -3.21174 1.30568 0
M  V30 10432 C 1017.64 -3.47863 2.51574 0
M  V30 10433 C 1016.87 -4.77241 2.38906 0
M  V30 10434 O 1017.09 -5.52791 1.40636 0
M  V30 10435 O 1016.03 -5.04413 3.28407 0
M  V30 10436 H 1019.85 -1.85644 2.40354 0
M  V30 10437 H 1017.44 -0.860352 1.2214 0
M  V30 10438 H 1019.32 -4.02313 1.25388 0
M  V30 10439 H 1018 -3.21557 0.371841 0
M  V30 10440 H 1016.9 -2.66708 2.62331 0
M  V30 10441 H 1018.24 -3.52283 3.43741 0
M  V30 10442 N 1019.89 -1.26353 -0.941956 0
M  V30 10443 C 1020.82 -1.02163 -2.04054 0
M  V30 10444 C 1021.8 0.0533514 -1.62512 0
M  V30 10445 O 1022.98 -0.0889063 -1.8829 0
M  V30 10446 C 1020.11 -0.546908 -3.34255 0
M  V30 10447 C 1019.16 -1.61433 -3.94768 0
M  V30 10448 S 1019.99 -3.20306 -4.29144 0
M  V30 10449 C 1021.15 -2.746 -5.62446 0
M  V30 10450 H 1021.38 -1.9518 -2.24259 0
M  V30 10451 H 1018.91 -1.10024 -1.08324 0
M  V30 10452 H 1020.87 -0.279673 -4.09546 0
M  V30 10453 H 1019.53 0.36297 -3.11996 0
M  V30 10454 H 1018.72 -1.23315 -4.88681 0
M  V30 10455 H 1018.33 -1.8329 -3.26007 0
M  V30 10456 H 1020.62 -2.19015 -6.41123 0
M  V30 10457 H 1021.56 -3.67202 -6.05449 0
M  V30 10458 H 1021.97 -2.1419 -5.22286 0
M  V30 10459 N 1021.37 1.14642 -1.08144 0
M  V30 10460 C 1022.32 2.21708 -0.703448 0
M  V30 10461 C 1023.31 1.66907 0.289535 0
M  V30 10462 O 1024.52 1.79354 0.152387 0
M  V30 10463 H 1020.89 0.722247 -0.209437 0
M  V30 10464 H 1022.86 2.50862 -1.61588 0
M  V30 10465 C 1021.61 3.47472 -0.125975 0
M  V30 10466 H 1020.93 3.89967 -0.881216 0
M  V30 10467 H 1022.37 4.2388 0.100737 0
M  V30 10468 C 1020.83 3.17189 1.13546 0
M  V30 10469 O 1021.36 3.34733 2.22073 0
M  V30 10470 N 1019.57 2.71169 1.04479 0
M  V30 10471 H 1019.12 2.57093 0.161566 0
M  V30 10472 H 1019.07 2.51282 1.88957 0
M  V30 10473 N 1022.85 0.866709 1.31628 0
M  V30 10474 C 1024.07 0.49039 2.01004 0
M  V30 10475 C 1024.49 -0.916244 1.65077 0
M  V30 10476 O 1023.85 -1.59975 0.8783 0
M  V30 10477 C 1023.9 0.634011 3.55897 0
M  V30 10478 O 1023.62 1.98525 3.90537 0
M  V30 10479 C 1025.12 0.258277 4.42547 0
M  V30 10480 H 1022.34 0.191421 0.643117 0
M  V30 10481 H 1024.88 1.16698 1.67934 0
M  V30 10482 H 1023.04 0.00501801 3.874 0
M  V30 10483 H 1023.45 1.99067 4.85255 0
M  V30 10484 H 1024.93 0.409733 5.50477 0
M  V30 10485 H 1025.4 -0.802301 4.3181 0
M  V30 10486 H 1026.01 0.862837 4.16456 0
M  V30 10487 N 1024.32 -1.44642 0.625825 0
M  V30 10488 C 1025.29 -2.29085 -0.072526 0
M  V30 10489 C 1026.29 -1.40755 -0.777467 0
M  V30 10490 O 1027.48 -1.62684 -0.622861 0
M  V30 10491 C 1024.61 -3.22212 -1.1132 0
M  V30 10492 H 1025.8 -2.92317 0.670124 0
M  V30 10493 H 1023.35 -1.51466 0.38571 0
M  V30 10494 H 1024.09 -2.63819 -1.88601 0
M  V30 10495 H 1023.87 -3.87299 -0.611709 0
M  V30 10496 H 1025.36 -3.8566 -1.60175 0
M  V30 10497 N 1025.8 -0.366053 -1.5329 0
M  V30 10498 C 1026.73 0.47211 -2.28677 0
M  V30 10499 C 1027.71 1.08353 -1.31125 0
M  V30 10500 O 1028.9 1.10069 -1.59995 0
M  V30 10501 C 1026.03 1.61174 -3.07637 0
M  V30 10502 C 1024.98 1.12755 -4.12881 0
M  V30 10503 C 1024.31 2.35745 -4.79925 0
M  V30 10504 C 1025.61 0.211954 -5.2187 0
M  V30 10505 H 1027.3 -0.156838 -2.98989 0
M  V30 10506 H 1024.85 -0.0768709 -1.43795 0
M  V30 10507 H 1026.8 2.20473 -3.59123 0
M  V30 10508 H 1025.52 2.26793 -2.35016 0
M  V30 10509 H 1024.18 0.557234 -3.6234 0
M  V30 10510 H 1023.83 2.99821 -4.03877 0
M  V30 10511 H 1023.53 2.04019 -5.51044 0
M  V30 10512 H 1025.06 2.95729 -5.34207 0
M  V30 10513 H 1026.47 0.71244 -5.68856 0
M  V30 10514 H 1024.87 -0.0144501 -6.00098 0
M  V30 10515 H 1025.94 -0.745753 -4.79131 0
M  V30 10516 N 1027.28 1.57312 -0.0952337 0
M  V30 10517 C 1028.7 1.57445 0.261416 0
M  V30 10518 C 1028.9 1.10639 1.68408 0
M  V30 10519 O 1027.95 0.782912 2.40056 0
M  V30 10520 C 1029.26 3.00659 0.0497206 0
M  V30 10521 C 1030.81 3.1278 0.117459 0
M  V30 10522 C 1031.29 4.57952 -0.0662441 0
M  V30 10523 N 1032.78 4.63199 -0.0114146 0
M  V30 10524 C 1033.51 5.73255 -0.128799 0
M  V30 10525 N 1033.01 6.92146 -0.301026 0
M  V30 10526 N 1034.8 5.62056 -0.0700599 0
M  V30 10527 H 1026.95 1.86045 -1.02475 0
M  V30 10528 H 1029.22 0.858726 -0.401614 0
M  V30 10529 H 1028.92 3.39102 -0.932888 0
M  V30 10530 H 1028.8 3.68792 0.791975 0
M  V30 10531 H 1031.18 2.74209 1.09057 0
M  V30 10532 H 1031.26 2.47238 -0.656288 0
M  V30 10533 H 1030.91 4.97217 -1.03623 0
M  V30 10534 H 1030.84 5.21555 0.727198 0
M  V30 10535 H 1033.33 3.77712 0.119154 0
M  V30 10536 H 1033.64 7.71855 -0.382104 0
M  V30 10537 H 1031.99 6.94184 -0.336695 0
M  V30 10538 H 1035.18 4.68057 0.0633587 0
M  V30 10539 H 1035.35 6.4779 -0.164991 0
M  V30 10540 N 1028.76 -0.17846 1.56586 0
M  V30 10541 C 1030.03 -0.923096 1.72448 0
M  V30 10542 C 1030.41 -2.00692 0.654659 0
M  V30 10543 O 1029.76 -2.26079 -0.33171 0
M  V30 10544 C 1029.97 -1.49435 3.15389 0
M  V30 10545 C 1031.32 -1.97005 3.76131 0
M  V30 10546 O 1032.34 -1.59244 3.18622 0
M  V30 10547 O 1031.2 -2.66541 4.77094 0
M  V30 10548 H 1028.3 -0.434009 0.703964 0
M  V30 10549 H 1030.84 -0.16685 1.68878 0
M  V30 10550 H 1029.62 -0.713933 3.84732 0
M  V30 10551 H 1029.24 -2.31498 3.23256 0
M  V30 10552 N 1030.24 -1.51135 -0.446768 0
M  V30 10553 C 1031.48 -1.63013 -1.19461 0
M  V30 10554 C 1031.8 -0.344067 -1.91941 0
M  V30 10555 O 1031.07 0.639666 -1.85162 0
M  V30 10556 H 1029.65 -0.600757 -0.443959 0
M  V30 10557 H 1032.32 -1.88024 -0.513137 0
M  V30 10558 H 1031.41 -2.45322 -1.92933 0
M  V30 10559 N 1031.71 0.701592 -1.41122 0
M  V30 10560 C 1032.64 1.82815 -1.45262 0
M  V30 10561 C 1033.62 1.67215 -0.311939 0
M  V30 10562 O 1034.81 1.87038 -0.522538 0
M  V30 10563 C 1031.94 3.20899 -1.32819 0
M  V30 10564 C 1030.89 3.51194 -2.44636 0
M  V30 10565 C 1030.22 4.8857 -2.17263 0
M  V30 10566 C 1031.52 3.50777 -3.86979 0
M  V30 10567 H 1033.21 1.79608 -2.39544 0
M  V30 10568 H 1030.76 0.862693 -1.15298 0
M  V30 10569 H 1032.71 3.99417 -1.34329 0
M  V30 10570 H 1031.44 3.24717 -0.350191 0
M  V30 10571 H 1030.1 2.75024 -2.42399 0
M  V30 10572 H 1029.74 4.89007 -1.17819 0
M  V30 10573 H 1029.44 5.09805 -2.92186 0
M  V30 10574 H 1030.97 5.69405 -2.20478 0
M  V30 10575 H 1032.38 4.19309 -3.90964 0
M  V30 10576 H 1030.78 3.83542 -4.61536 0
M  V30 10577 H 1031.85 2.49873 -4.15562 0
M  V30 10578 N 1033.19 1.2685 0.935242 0
M  V30 10579 C 1034.12 1.1143 2.05196 0
M  V30 10580 C 1035.1 0.0178362 1.70091 0
M  V30 10581 O 1036.29 0.190951 1.93259 0
M  V30 10582 C 1033.42 0.752779 3.39044 0
M  V30 10583 C 1032.37 1.80164 3.88233 0
M  V30 10584 C 1031.7 1.29428 5.18799 0
M  V30 10585 C 1033 3.20431 4.12457 0
M  V30 10586 H 1034.69 2.04845 2.18355 0
M  V30 10587 H 1032.24 0.986276 1.04922 0
M  V30 10588 H 1034.19 0.631757 4.16637 0
M  V30 10589 H 1032.91 -0.217075 3.25878 0
M  V30 10590 H 1031.57 1.91144 3.12825 0
M  V30 10591 H 1031.22 0.3141 5.02018 0
M  V30 10592 H 1030.92 1.99546 5.5268 0
M  V30 10593 H 1032.45 1.18605 5.9897 0
M  V30 10594 H 1033.86 3.12495 4.80645 0
M  V30 10595 H 1032.26 3.88193 4.57631 0
M  V30 10596 H 1033.33 3.66046 3.18023 0
M  V30 10597 N 1034.67 -1.14067 1.0875 0
M  V30 10598 C 1035.92 -1.85459 0.82053 0
M  V30 10599 C 1036.25 -1.82923 -0.65213 0
M  V30 10600 O 1035.52 -1.26241 -1.47965 0
M  V30 10601 C 1035.81 -3.33937 1.34752 0
M  V30 10602 C 1035.66 -3.45026 2.88578 0
M  V30 10603 C 1036.98 -4.2915 0.975636 0
M  V30 10604 H 1034.1 -0.673384 0.299538 0
M  V30 10605 H 1036.74 -1.33927 1.34772 0
M  V30 10606 H 1034.89 -3.77953 0.899086 0
M  V30 10607 H 1036.56 -3.09771 3.41818 0
M  V30 10608 H 1034.81 -2.86124 3.26061 0
M  V30 10609 H 1035.48 -4.49408 3.20526 0
M  V30 10610 H 1037.95 -3.93168 1.36228 0
M  V30 10611 H 1036.83 -5.31489 1.37152 0
M  V30 10612 H 1037.09 -4.41945 -0.116956 0
M  V30 10613 N 1036.15 -0.873678 -1.31166 0
M  V30 10614 C 1037.4 -0.486457 -1.9657 0
M  V30 10615 C 1037.72 0.962042 -1.69041 0
M  V30 10616 O 1036.98 1.69305 -0.981543 0
M  V30 10617 C 1037.28 -0.69462 -3.50585 0
M  V30 10618 C 1036.94 -2.11647 -3.98141 0
M  V30 10619 C 1035.61 -2.50531 -4.10838 0
M  V30 10620 C 1037.96 -3.0436 -4.23101 0
M  V30 10621 C 1035.29 -3.81361 -4.45848 0
M  V30 10622 C 1037.64 -4.34709 -4.59577 0
M  V30 10623 C 1036.3 -4.73502 -4.70481 0
M  V30 10624 H 1035.57 -0.178007 -0.719301 0
M  V30 10625 H 1038.22 -1.10737 -1.56235 0
M  V30 10626 H 1036.52 0.00940878 -3.91799 0
M  V30 10627 H 1038.22 -0.374782 -3.99245 0
M  V30 10628 H 1034.81 -1.8046 -3.88757 0
M  V30 10629 H 1038.99 -2.75544 -4.12782 0
M  V30 10630 H 1034.25 -4.11174 -4.52488 0
M  V30 10631 H 1038.42 -5.06596 -4.77842 0
M  V30 10632 H 1036.05 -5.74919 -4.97365 0
M  V30 10633 N 1037.63 1.44308 -0.633487 0
M  V30 10634 C 1038.87 2.02023 -0.138917 0
M  V30 10635 C 1039.2 1.49841 1.24008 0
M  V30 10636 O 1038.46 0.673718 1.83738 0
M  V30 10637 C 1038.76 3.57316 -0.0773886 0
M  V30 10638 C 1038.42 4.28762 -1.39548 0
M  V30 10639 C 1037.08 4.47997 -1.75648 0
M  V30 10640 C 1039.44 4.69391 -2.26542 0
M  V30 10641 C 1036.76 5.05121 -2.98445 0
M  V30 10642 C 1039.12 5.27876 -3.48612 0
M  V30 10643 C 1037.78 5.45329 -3.84932 0
M  V30 10644 H 1037.05 0.739254 -0.0508333 0
M  V30 10645 H 1039.7 1.73043 -0.820271 0
M  V30 10646 H 1038 3.85724 0.687345 0
M  V30 10647 H 1039.7 3.99706 0.321837 0
M  V30 10648 H 1036.29 4.14122 -1.10456 0
M  V30 10649 H 1040.47 4.54241 -1.99946 0
M  V30 10650 H 1035.73 5.16821 -3.26658 0
M  V30 10651 H 1039.9 5.58307 -4.16253 0
M  V30 10652 H 1037.53 5.8936 -4.80166 0
M  V30 10653 N 1039.1 0.374177 1.53094 0
M  V30 10654 C 1040.35 -0.212816 2.01379 0
M  V30 10655 C 1040.68 -1.48069 1.26118 0
M  V30 10656 O 1039.93 -1.92625 0.345561 0
M  V30 10657 C 1040.23 -0.542179 3.53264 0
M  V30 10658 C 1039.9 0.632375 4.46444 0
M  V30 10659 C 1038.56 0.954635 4.71636 0
M  V30 10660 C 1040.91 1.41887 5.01515 0
M  V30 10661 C 1038.24 2.06521 5.4915 0
M  V30 10662 C 1040.59 2.51993 5.80243 0
M  V30 10663 C 1039.26 2.84744 6.03719 0
M  V30 10664 H 1038.53 -0.0778749 0.736897 0
M  V30 10665 H 1041.17 0.508412 1.84628 0
M  V30 10666 H 1039.48 -1.34454 3.68007 0
M  V30 10667 H 1041.18 -1.00874 3.88105 0
M  V30 10668 H 1037.77 0.371179 4.2699 0
M  V30 10669 H 1041.95 1.18315 4.81991 0
M  V30 10670 H 1037.21 2.32284 5.65557 0
M  V30 10671 H 1041.38 3.13346 6.21922 0
M  V30 10672 H 1039.01 3.70921 6.63568 0
M  V30 10673 N 1040.58 -1.57259 0.103575 0
M  V30 10674 C 1041.51 -2.17509 -0.84923 0
M  V30 10675 C 1042.49 -1.11079 -1.28824 0
M  V30 10676 O 1043.68 -1.39252 -1.35361 0
M  V30 10677 C 1040.81 -2.76221 -2.10522 0
M  V30 10678 C 1039.76 -3.88098 -1.80454 0
M  V30 10679 C 1039.09 -4.33549 -3.12952 0
M  V30 10680 C 1040.39 -5.10909 -1.08486 0
M  V30 10681 H 1042.08 -2.9738 -0.347217 0
M  V30 10682 H 1039.63 -1.43045 -0.165568 0
M  V30 10683 H 1041.58 -3.17024 -2.77621 0
M  V30 10684 H 1040.31 -1.93617 -2.63021 0
M  V30 10685 H 1038.96 -3.47847 -1.15749 0
M  V30 10686 H 1038.61 -3.47825 -3.63355 0
M  V30 10687 H 1038.31 -5.08984 -2.93614 0
M  V30 10688 H 1039.84 -4.76992 -3.81196 0
M  V30 10689 H 1041.25 -5.48828 -1.65711 0
M  V30 10690 H 1039.65 -5.91828 -0.992973 0
M  V30 10691 H 1040.72 -4.84851 -0.0690108 0
M  V30 10692 N 1042.06 0.170153 -1.56679 0
M  V30 10693 C 1043.31 0.884902 -1.81252 0
M  V30 10694 C 1043.62 1.83361 -0.681024 0
M  V30 10695 O 1044.83 2.59082 -0.811722 0
M  V30 10696 C 1043.28 1.62408 -3.21172 0
M  V30 10697 C 1042.89 0.718947 -4.42194 0
M  V30 10698 C 1044.64 2.32699 -3.55037 0
M  V30 10699 C 1042.54 1.45843 -5.73135 0
M  V30 10700 H 1041.47 0.33418 -0.675899 0
M  V30 10701 H 1044.12 0.137818 -1.82982 0
M  V30 10702 H 1042.51 2.41596 -3.13763 0
M  V30 10703 H 1043.68 -0.0360521 -4.60786 0
M  V30 10704 H 1042 0.125634 -4.1621 0
M  V30 10705 H 1044.59 2.88621 -4.50114 0
M  V30 10706 H 1044.94 3.08092 -2.79974 0
M  V30 10707 H 1045.47 1.60453 -3.64005 0
M  V30 10708 H 1042.21 0.746799 -6.51232 0
M  V30 10709 H 1041.73 2.18672 -5.58518 0
M  V30 10710 H 1043.41 2.0056 -6.1513 0
M  V30 10711 N 1043.54 1.5137 0.438746 0
M  V30 10712 C 1044.78 1.64211 1.19006 0
M  V30 10713 C 1045.12 0.356607 1.90898 0
M  V30 10714 O 1044.39 -0.643722 1.83539 0
M  V30 10715 C 1044.68 2.8445 2.20817 0
M  V30 10716 C 1044.53 4.22972 1.53018 0
M  V30 10717 C 1045.85 3.00207 3.21813 0
M  V30 10718 H 1042.97 0.597628 0.431288 0
M  V30 10719 H 1045.61 1.8385 0.479487 0
M  V30 10720 H 1043.76 2.67836 2.81418 0
M  V30 10721 H 1045.43 4.5125 0.957654 0
M  V30 10722 H 1043.67 4.25736 0.832556 0
M  V30 10723 H 1044.34 5.03094 2.27158 0
M  V30 10724 H 1046.82 3.15522 2.71266 0
M  V30 10725 H 1045.7 3.85904 3.90345 0
M  V30 10726 H 1045.96 2.12216 3.87836 0
M  V30 10727 N 1045.02 -0.694098 1.41492 0
M  V30 10728 C 1046.43 -1.27407 1.36471 0
M  V30 10729 C 1046.78 -1.9614 0.0485209 0
M  V30 10730 O 1045.9 -1.98871 -0.853188 0
M  V30 10731 C 1046.5 -2.31698 2.47188 0
M  V30 10732 C 1045.06 -2.85268 2.45559 0
M  V30 10733 C 1044.2 -1.59325 2.2696 0
M  V30 10734 H 1047.16 -0.488756 1.50986 0
M  V30 10735 H 1047.18 -3.1302 2.1633 0
M  V30 10736 H 1046.69 -1.81644 3.42968 0
M  V30 10737 H 1044.79 -3.39494 1.5354 0
M  V30 10738 H 1044.9 -3.35598 3.41922 0
M  V30 10739 H 1043.27 -1.85188 1.74864 0
M  V30 10740 H 1044.05 -1.11265 3.24769 0
M  V30 10741 N 1046.49 -1.27344 -0.928501 0
M  V30 10742 C 1047.42 -1.12517 -2.04602 0
M  V30 10743 C 1048.41 -0.0268563 -1.70079 0
M  V30 10744 O 1049.59 -0.201197 -1.93155 0
M  V30 10745 C 1046.72 -0.770749 -3.3864 0
M  V30 10746 C 1045.67 -1.8222 -3.87272 0
M  V30 10747 C 1045 -1.32178 -5.18105 0
M  V30 10748 C 1046.3 -3.22614 -4.10752 0
M  V30 10749 H 1047.99 -2.06 -2.17265 0
M  V30 10750 H 1045.54 -0.991827 -1.04397 0
M  V30 10751 H 1047.49 -0.653843 -4.16297 0
M  V30 10752 H 1046.22 0.19979 -3.25988 0
M  V30 10753 H 1044.88 -1.928 -3.11807 0
M  V30 10754 H 1044.52 -0.340719 -5.01845 0
M  V30 10755 H 1044.22 -2.02474 -5.51614 0
M  V30 10756 H 1045.75 -1.2178 -5.98333 0
M  V30 10757 H 1047.16 -3.1504 -4.78981 0
M  V30 10758 H 1045.56 -3.90614 -4.55566 0
M  V30 10759 H 1046.63 -3.67727 -3.16077 0
M  V30 10760 N 1047.97 1.13488 -1.09353 0
M  V30 10761 C 1049.22 1.841 -0.82401 0
M  V30 10762 C 1049.53 1.84393 0.652586 0
M  V30 10763 O 1050.74 2.5089 1.03762 0
M  V30 10764 C 1049.2 3.30523 -1.42418 0
M  V30 10765 C 1048.8 3.38621 -2.93326 0
M  V30 10766 C 1050.55 4.06182 -1.23356 0
M  V30 10767 C 1048.46 4.79311 -3.46432 0
M  V30 10768 H 1047.39 0.68974 -0.304589 0
M  V30 10769 H 1050.04 1.27866 -1.31615 0
M  V30 10770 H 1048.42 3.86555 -0.859727 0
M  V30 10771 H 1049.59 2.92587 -3.5599 0
M  V30 10772 H 1047.91 2.76426 -3.11412 0
M  V30 10773 H 1050.5 5.10047 -1.60488 0
M  V30 10774 H 1050.85 4.15936 -0.174152 0
M  V30 10775 H 1051.38 3.56477 -1.76547 0
M  V30 10776 H 1048.12 4.74748 -4.5199 0
M  V30 10777 H 1047.64 5.25842 -2.8853 0
M  V30 10778 H 1049.32 5.48227 -3.43593 0
M  V30 10779 N 1049.45 0.880621 1.30701 0
M  V30 10780 C 1050.7 0.497611 1.966 0
M  V30 10781 C 1051.03 -0.949901 1.69383 0
M  V30 10782 O 1050.31 -1.67054 0.996152 0
M  V30 10783 C 1050.59 0.767919 3.51817 0
M  V30 10784 C 1050.44 2.26574 3.88567 0
M  V30 10785 C 1051.76 0.241502 4.39437 0
M  V30 10786 H 1048.88 0.182267 0.714106 0
M  V30 10787 H 1051.52 1.10382 1.54648 0
M  V30 10788 H 1049.67 0.251967 3.87682 0
M  V30 10789 H 1051.34 2.84977 3.62748 0
M  V30 10790 H 1049.59 2.73411 3.36792 0
M  V30 10791 H 1050.26 2.40549 4.9683 0
M  V30 10792 H 1052.73 0.683051 4.10455 0
M  V30 10793 H 1051.61 0.459997 5.46969 0
M  V30 10794 H 1051.87 -0.857068 4.33713 0
M  V30 10795 N 1050.93 -1.4397 0.641131 0
M  V30 10796 C 1052.17 -2.03826 0.153071 0
M  V30 10797 C 1052.53 -1.4941 -1.20585 0
M  V30 10798 O 1053.73 -2.00832 -1.78661 0
M  V30 10799 C 1052.01 -3.57085 0.149914 0
M  V30 10800 S 1053.56 -4.37956 -0.272065 0
M  V30 10801 H 1050.38 -0.70793 0.0659981 0
M  V30 10802 H 1052.98 -1.76211 0.846761 0
M  V30 10803 H 1051.69 -3.94194 1.14188 0
M  V30 10804 H 1051.22 -3.89326 -0.564703 0
M  V30 10805 H 1053.23 -4.72542 -1.5139 0
M  V30 10806 N 1052.41 -0.382291 -1.52893 0
M  V30 10807 C 1053.37 0.44408 -2.24857 0
M  V30 10808 C 1054.37 0.996004 -1.26239 0
M  V30 10809 O 1055.56 0.879114 -1.5039 0
M  V30 10810 C 1052.69 1.62234 -2.99822 0
M  V30 10811 H 1053.89 -0.185862 -2.99324 0
M  V30 10812 H 1051.44 -0.134275 -1.55722 0
M  V30 10813 H 1052.17 2.28991 -2.29638 0
M  V30 10814 H 1051.96 1.23336 -3.72197 0
M  V30 10815 H 1053.45 2.20756 -3.54481 0
M  V30 10816 N 1053.89 1.57202 -0.111913 0
M  V30 10817 C 1055.13 1.94125 0.547573 0
M  V30 10818 C 1055.45 0.997026 1.68282 0
M  V30 10819 O 1056.65 1.26063 2.40459 0
M  V30 10820 C 1055.11 3.44982 1.02545 0
M  V30 10821 C 1054.72 4.47927 -0.0809529 0
M  V30 10822 C 1056.46 3.90837 1.65671 0
M  V30 10823 C 1054.37 5.89955 0.413224 0
M  V30 10824 H 1053.3 0.724651 0.208321 0
M  V30 10825 H 1055.95 1.82507 -0.190625 0
M  V30 10826 H 1054.33 3.5181 1.81785 0
M  V30 10827 H 1055.51 4.52761 -0.857003 0
M  V30 10828 H 1053.82 4.11782 -0.618434 0
M  V30 10829 H 1056.42 4.9436 2.03746 0
M  V30 10830 H 1056.76 3.30417 2.53239 0
M  V30 10831 H 1057.29 3.8678 0.929844 0
M  V30 10832 H 1054.03 6.54113 -0.426238 0
M  V30 10833 H 1053.55 5.88557 1.15591 0
M  V30 10834 H 1055.23 6.41032 0.876756 0
M  V30 10835 N 1055.36 -0.161842 1.56767 0
M  V30 10836 C 1056.61 -0.876925 1.82527 0
M  V30 10837 C 1056.94 -1.81831 0.690492 0
M  V30 10838 O 1056.19 -1.9304 -0.32159 0
M  V30 10839 C 1056.49 -1.69736 3.14522 0
M  V30 10840 C 1056.16 -0.904075 4.41743 0
M  V30 10841 C 1054.82 -0.685168 4.76297 0
M  V30 10842 C 1057.17 -0.348282 5.20035 0
M  V30 10843 C 1054.5 0.10048 5.86614 0
M  V30 10844 C 1056.85 0.424327 6.31175 0
M  V30 10845 C 1055.52 0.653948 6.64289 0
M  V30 10846 H 1054.79 -0.320889 0.667915 0
M  V30 10847 H 1057.43 -0.141338 1.90978 0
M  V30 10848 H 1055.74 -2.50262 3.01456 0
M  V30 10849 H 1057.44 -2.25386 3.31666 0
M  V30 10850 H 1054.03 -1.08474 4.14646 0
M  V30 10851 H 1058.21 -0.504721 4.93727 0
M  V30 10852 H 1053.47 0.288029 6.10721 0
M  V30 10853 H 1057.64 0.862203 6.91042 0
M  V30 10854 H 1055.27 1.26459 7.49608 0
M  V30 10855 N 1056.84 -1.516 -0.430713 0
M  V30 10856 C 1058.09 -1.63829 -1.17657 0
M  V30 10857 C 1058.4 -0.363605 -1.92191 0
M  V30 10858 O 1059.61 -0.365358 -2.6903 0
M  V30 10859 C 1058.07 -2.89357 -2.14011 0
M  V30 10860 C 1057.67 -4.23854 -1.45094 0
M  V30 10861 C 1059.42 -3.10944 -2.88988 0
M  V30 10862 C 1057.32 -5.40526 -2.3997 0
M  V30 10863 H 1056.25 -0.610221 -0.442884 0
M  V30 10864 H 1058.91 -1.78073 -0.442984 0
M  V30 10865 H 1057.29 -2.68762 -2.90832 0
M  V30 10866 H 1058.46 -4.54854 -0.737853 0
M  V30 10867 H 1056.78 -4.08197 -0.822429 0
M  V30 10868 H 1059.37 -3.95286 -3.60074 0
M  V30 10869 H 1059.72 -2.24291 -3.50712 0
M  V30 10870 H 1060.25 -3.3191 -2.19272 0
M  V30 10871 H 1056.99 -6.29459 -1.82925 0
M  V30 10872 H 1056.51 -5.13893 -3.09313 0
M  V30 10873 H 1058.19 -5.72741 -3.00959 0
M  V30 10874 N 1058.32 0.686584 -1.41858 0
M  V30 10875 C 1059.57 1.44665 -1.41698 0
M  V30 10876 C 1059.89 1.94478 -0.0292442 0
M  V30 10877 O 1059.15 1.70512 0.960421 0
M  V30 10878 C 1059.45 2.66793 -2.37816 0
M  V30 10879 C 1059.11 2.35587 -3.8446 0
M  V30 10880 C 1057.78 2.26788 -4.24406 0
M  V30 10881 C 1060.13 2.10028 -4.77009 0
M  V30 10882 C 1057.46 1.90538 -5.54898 0
M  V30 10883 C 1059.81 1.75285 -6.07831 0
M  V30 10884 C 1058.47 1.64987 -6.46789 0
M  V30 10885 H 1057.74 0.529367 -0.518509 0
M  V30 10886 H 1060.39 0.783938 -1.74719 0
M  V30 10887 H 1058.69 3.38041 -1.9808 0
M  V30 10888 H 1060.39 3.24953 -2.34961 0
M  V30 10889 H 1056.98 2.43334 -3.52826 0
M  V30 10890 H 1061.17 2.15766 -4.46944 0
M  V30 10891 H 1056.42 1.81125 -5.83955 0
M  V30 10892 H 1060.6 1.5453 -6.79039 0
M  V30 10893 H 1058.22 1.36667 -7.47814 0
M  V30 10894 N 1059.8 1.27835 0.921735 0
M  V30 10895 C 1061.05 1.13904 1.6646 0
M  V30 10896 C 1061.36 -0.313379 1.93073 0
M  V30 10897 O 1062.57 -0.573687 2.6537 0
M  V30 10898 C 1061.02 1.99064 2.99836 0
M  V30 10899 C 1060.63 3.48998 2.80899 0
M  V30 10900 C 1062.37 1.93797 3.77681 0
M  V30 10901 C 1060.28 4.26337 4.09867 0
M  V30 10902 H 1059.21 0.422681 0.624385 0
M  V30 10903 H 1061.86 1.52303 1.02352 0
M  V30 10904 H 1060.24 1.53514 3.65034 0
M  V30 10905 H 1061.42 4.02452 2.24431 0
M  V30 10906 H 1059.73 3.55707 2.16476 0
M  V30 10907 H 1062.33 2.48852 4.73262 0
M  V30 10908 H 1062.67 0.912928 4.06167 0
M  V30 10909 H 1063.21 2.37275 3.19289 0
M  V30 10910 H 1059.94 5.2939 3.86557 0
M  V30 10911 H 1059.46 3.77659 4.65976 0
M  V30 10912 H 1061.14 4.3583 4.78185 0
M  V30 10913 N 1061.28 -1.12907 1.09954 0
M  V30 10914 C 1062.22 -2.18485 0.743848 0
M  V30 10915 C 1063.19 -1.63766 -0.277494 0
M  V30 10916 O 1064.38 -1.90146 -0.157899 0
M  V30 10917 C 1061.52 -3.44649 0.176437 0
M  V30 10918 C 1060.63 -4.13445 1.25248 0
M  V30 10919 C 1059.77 -5.27242 0.647242 0
M  V30 10920 C 1058.8 -5.87897 1.70421 0
M  V30 10921 N 1057.94 -6.93116 1.1196 0
M  V30 10922 H 1062.78 -2.48257 1.64841 0
M  V30 10923 H 1060.32 -1.21891 0.823471 0
M  V30 10924 H 1062.28 -4.16852 -0.170384 0
M  V30 10925 H 1060.91 -3.15309 -0.69137 0
M  V30 10926 H 1059.96 -3.39471 1.7165 0
M  V30 10927 H 1061.27 -4.54601 2.05279 0
M  V30 10928 H 1060.42 -6.06186 0.249579 0
M  V30 10929 H 1059.16 -4.87351 -0.184556 0
M  V30 10930 H 1058.17 -5.07643 2.11136 0
M  V30 10931 H 1059.39 -6.2986 2.53877 0
M  V30 10932 H 1057.34 -6.55271 0.309181 0
M  V30 10933 H 1057.26 -7.32843 1.85681 0
M  V30 10934 H 1058.52 -7.759 0.748326 0
M  V30 10935 N 1062.75 -0.88754 -1.30232 0
M  V30 10936 C 1064.17 -0.581904 -1.48614 0
M  V30 10937 C 1064.37 0.879711 -1.81282 0
M  V30 10938 O 1063.43 1.66076 -1.90198 0
M  V30 10939 C 1064.74 -1.49726 -2.60773 0
M  V30 10940 C 1066.29 -1.50117 -2.74653 0
M  V30 10941 C 1066.76 -2.40251 -3.89927 0
M  V30 10942 N 1068.25 -2.38229 -3.97242 0
M  V30 10943 C 1068.99 -3.04682 -4.85754 0
M  V30 10944 N 1068.48 -3.80369 -5.79043 0
M  V30 10945 N 1070.28 -2.93901 -4.79144 0
M  V30 10946 H 1062.43 -1.83304 -1.073 0
M  V30 10947 H 1064.69 -0.78477 -0.531826 0
M  V30 10948 H 1064.4 -2.5381 -2.43462 0
M  V30 10949 H 1064.27 -1.20874 -3.57308 0
M  V30 10950 H 1066.66 -0.467832 -2.91368 0
M  V30 10951 H 1066.74 -1.83001 -1.7873 0
M  V30 10952 H 1066.38 -3.43671 -3.73969 0
M  V30 10953 H 1066.31 -2.04682 -4.85194 0
M  V30 10954 H 1068.8 -1.83229 -3.30508 0
M  V30 10955 H 1069.12 -4.28159 -6.4335 0
M  V30 10956 H 1067.46 -3.84477 -5.78967 0
M  V30 10957 H 1070.65 -2.34296 -4.05245 0
M  V30 10958 H 1070.83 -3.45967 -5.47915 0
M  V30 10959 N 1064.23 1.43628 -0.648757 0
M  V30 10960 C 1065.51 1.95391 -0.0904551 0
M  V30 10961 C 1065.89 1.59021 1.38837 0
M  V30 10962 O 1065.24 0.873078 2.11163 0
M  V30 10963 C 1065.45 3.47418 -0.33196 0
M  V30 10964 C 1066.8 4.23952 -0.234521 0
M  V30 10965 O 1067.82 3.55218 -0.264276 0
M  V30 10966 O 1066.68 5.46282 -0.154428 0
M  V30 10967 H 1063.77 0.82691 0.0121884 0
M  V30 10968 H 1066.32 1.5359 -0.721685 0
M  V30 10969 H 1065.09 3.67001 -1.35741 0
M  V30 10970 H 1064.71 3.96207 0.332556 0
M  V30 10971 N 1065.71 0.390394 1.52688 0
M  V30 10972 C 1066.64 -0.479319 2.24132 0
M  V30 10973 C 1067.66 -1.0258 1.26416 0
M  V30 10974 O 1068.84 -0.927943 1.52484 0
M  V30 10975 C 1065.94 -1.67711 2.94493 0
M  V30 10976 C 1065.12 -1.2578 4.18925 0
M  V30 10977 C 1064.18 -2.3204 4.72275 0
M  V30 10978 O 1063.2 -1.93402 5.35336 0
M  V30 10979 N 1064.4 -3.63967 4.52226 0
M  V30 10980 H 1067.17 0.132777 2.99406 0
M  V30 10981 H 1064.73 0.216807 1.60442 0
M  V30 10982 H 1066.72 -2.38323 3.27084 0
M  V30 10983 H 1065.29 -2.19552 2.22521 0
M  V30 10984 H 1064.51 -0.380528 3.92359 0
M  V30 10985 H 1065.8 -0.954329 4.9977 0
M  V30 10986 H 1065.2 -3.98119 4.01892 0
M  V30 10987 H 1063.76 -4.30611 4.89303 0
M  V30 10988 N 1067.19 -1.57141 0.120249 0
M  V30 10989 C 1068.12 -2.18398 -0.826112 0
M  V30 10990 C 1069.1 -1.12439 -1.27638 0
M  V30 10991 O 1070.28 -1.40679 -1.33877 0
M  V30 10992 C 1067.41 -2.78438 -2.0758 0
M  V30 10993 C 1066.37 -3.89991 -1.76327 0
M  V30 10994 C 1065.69 -4.36844 -3.08336 0
M  V30 10995 C 1066.99 -5.12031 -1.03062 0
M  V30 10996 H 1068.69 -2.97731 -0.315656 0
M  V30 10997 H 1066.23 -1.43213 -0.150387 0
M  V30 10998 H 1068.19 -3.19951 -2.74243 0
M  V30 10999 H 1066.91 -1.96396 -2.60953 0
M  V30 11000 H 1065.57 -3.49055 -1.12053 0
M  V30 11001 H 1065.22 -3.51659 -3.59646 0
M  V30 11002 H 1064.92 -5.1207 -2.88199 0
M  V30 11003 H 1066.44 -4.81009 -3.76116 0
M  V30 11004 H 1067.86 -5.50555 -1.59881 0
M  V30 11005 H 1066.25 -5.92848 -0.930146 0
M  V30 11006 H 1067.32 -4.84897 -0.017582 0
M  V30 11007 N 1068.67 0.153526 -1.5685 0
M  V30 11008 C 1069.91 0.863728 -1.8415 0
M  V30 11009 C 1070.27 1.79084 -0.703324 0
M  V30 11010 O 1069.56 1.8925 0.299149 0
M  V30 11011 C 1069.75 1.68066 -3.15418 0
M  V30 11012 C 1069.58 0.834145 -4.41896 0
M  V30 11013 C 1068.35 0.502294 -5.02797 0
M  V30 11014 C 1070.55 0.167476 -5.14027 0
M  V30 11015 N 1068.53 -0.3585 -6.12852 0
M  V30 11016 C 1069.9 -0.55373 -6.17522 0
M  V30 11017 C 1071.96 0.0874745 -4.97823 0
M  V30 11018 C 1070.66 -1.34737 -7.06568 0
M  V30 11019 C 1072.69 -0.692888 -5.87327 0
M  V30 11020 C 1072.05 -1.4024 -6.90299 0
M  V30 11021 H 1068.15 0.2941 -0.724589 0
M  V30 11022 H 1070.73 0.129515 -1.94269 0
M  V30 11023 H 1068.9 2.38616 -3.06459 0
M  V30 11024 H 1070.64 2.33353 -3.30649 0
M  V30 11025 H 1067.39 0.836557 -4.66153 0
M  V30 11026 H 1067.82 -0.77973 -6.72495 0
M  V30 11027 H 1072.46 0.621662 -4.18205 0
M  V30 11028 H 1070.18 -1.89284 -7.85619 0
M  V30 11029 H 1073.76 -0.756694 -5.76858 0
M  V30 11030 H 1072.64 -1.99655 -7.58359 0
M  V30 11031 N 1070.14 1.51827 0.422667 0
M  V30 11032 C 1071.56 1.40328 0.760275 0
M  V30 11033 C 1071.76 0.497119 1.95272 0
M  V30 11034 O 1070.82 -0.0422083 2.52465 0
M  V30 11035 C 1072.13 2.82622 1.02689 0
M  V30 11036 C 1073.68 2.91874 1.13044 0
M  V30 11037 C 1074.15 4.35107 1.4299 0
M  V30 11038 N 1075.64 4.3828 1.49883 0
M  V30 11039 C 1076.38 5.46153 1.74655 0
M  V30 11040 N 1075.87 6.64165 1.9712 0
M  V30 11041 N 1077.67 5.33651 1.76558 0
M  V30 11042 H 1069.82 2.09285 -0.362455 0
M  V30 11043 H 1072.08 0.94273 -0.0998161 0
M  V30 11044 H 1071.79 3.50991 0.223226 0
M  V30 11045 H 1071.66 3.22844 1.95068 0
M  V30 11046 H 1074.05 2.23694 1.92471 0
M  V30 11047 H 1074.13 2.55128 0.185326 0
M  V30 11048 H 1073.77 5.03841 0.640848 0
M  V30 11049 H 1073.7 4.69377 2.38731 0
M  V30 11050 H 1076.19 3.53206 1.34366 0
M  V30 11051 H 1076.51 7.42165 2.15434 0
M  V30 11052 H 1074.85 6.67255 1.94413 0
M  V30 11053 H 1078.04 4.40436 1.58536 0
M  V30 11054 H 1078.22 6.17798 1.95525 0
M  V30 11055 N 1071.62 -0.679052 1.4222 0
M  V30 11056 C 1072.85 -1.47248 1.46058 0
M  V30 11057 C 1073.27 -1.87962 0.0720987 0
M  V30 11058 O 1072.63 -1.5572 -0.928488 0
M  V30 11059 C 1072.68 -2.70067 2.38948 0
M  V30 11060 O 1071.78 -3.68178 1.85791 0
M  V30 11061 H 1071.12 -0.442533 0.495036 0
M  V30 11062 H 1073.65 -0.833263 1.86863 0
M  V30 11063 H 1073.66 -3.18187 2.55385 0
M  V30 11064 H 1072.34 -2.39773 3.39826 0
M  V30 11065 H 1070.92 -3.2719 1.78889 0
M  V30 11066 N 1073.1 -1.28322 -0.914942 0
M  V30 11067 C 1074.33 -1.18083 -1.69529 0
M  V30 11068 C 1074.74 0.263274 -1.87359 0
M  V30 11069 O 1074.08 1.18988 -1.39955 0
M  V30 11070 C 1074.14 -1.8062 -3.10832 0
M  V30 11071 C 1073.81 -3.29861 -3.16292 0
M  V30 11072 C 1074.8 -4.26313 -2.97578 0
M  V30 11073 C 1072.49 -3.70797 -3.38843 0
M  V30 11074 C 1074.48 -5.61677 -3.01326 0
M  V30 11075 C 1072.17 -5.06287 -3.42223 0
M  V30 11076 C 1073.17 -6.01537 -3.23485 0
M  V30 11077 O 1072.86 -7.34556 -3.26624 0
M  V30 11078 H 1072.59 -0.410931 -0.53676 0
M  V30 11079 H 1075.14 -1.6994 -1.15367 0
M  V30 11080 H 1073.37 -1.23255 -3.66531 0
M  V30 11081 H 1075.06 -1.64915 -3.70888 0
M  V30 11082 H 1075.83 -3.96023 -2.79984 0
M  V30 11083 H 1071.71 -2.97124 -3.52475 0
M  V30 11084 H 1075.25 -6.36 -2.86618 0
M  V30 11085 H 1071.15 -5.36228 -3.59346 0
M  V30 11086 H 1071.92 -7.43167 -3.42994 0
M  V30 11087 N 1074.58 1.12322 -1.10551 0
M  V30 11088 C 1075.83 1.83858 -0.848674 0
M  V30 11089 C 1076.15 1.84159 0.62575 0
M  V30 11090 O 1075.41 1.28341 1.4774 0
M  V30 11091 C 1075.71 3.31177 -1.34375 0
M  V30 11092 C 1075.37 3.51046 -2.8298 0
M  V30 11093 C 1074.04 3.56177 -3.23561 0
M  V30 11094 C 1076.39 3.58061 -3.78737 0
M  V30 11095 C 1073.72 3.65868 -4.58647 0
M  V30 11096 C 1076.07 3.69283 -5.13627 0
M  V30 11097 C 1074.73 3.7267 -5.53781 0
M  V30 11098 H 1074 0.672784 -0.310552 0
M  V30 11099 H 1076.65 1.3253 -1.38232 0
M  V30 11100 H 1074.95 3.84937 -0.730144 0
M  V30 11101 H 1076.65 3.84998 -1.12148 0
M  V30 11102 H 1073.24 3.47716 -2.50582 0
M  V30 11103 H 1077.42 3.53366 -3.48491 0
M  V30 11104 H 1072.68 3.66763 -4.89178 0
M  V30 11105 H 1076.85 3.73654 -5.8767 0
M  V30 11106 H 1074.48 3.79932 -6.58449 0
M  V30 11107 N 1076.06 0.894434 1.2976 0
M  V30 11108 C 1077.47 0.589778 1.48303 0
M  V30 11109 C 1077.67 -0.870085 1.81746 0
M  V30 11110 O 1076.73 -1.65065 1.91076 0
M  V30 11111 C 1078.04 1.51107 2.59975 0
M  V30 11112 C 1079.59 1.51571 2.73853 0
M  V30 11113 C 1080.06 2.42316 3.88648 0
M  V30 11114 N 1081.56 2.40333 3.95973 0
M  V30 11115 C 1082.29 3.07254 4.84131 0
M  V30 11116 N 1081.79 3.83435 5.77018 0
M  V30 11117 N 1083.58 2.96438 4.77578 0
M  V30 11118 H 1075.73 1.83871 1.06327 0
M  V30 11119 H 1077.99 0.78758 0.527657 0
M  V30 11120 H 1077.7 2.55097 2.42112 0
M  V30 11121 H 1077.57 1.22767 3.56662 0
M  V30 11122 H 1079.96 0.483277 2.91116 0
M  V30 11123 H 1080.04 1.83946 1.77757 0
M  V30 11124 H 1079.69 3.4565 3.72141 0
M  V30 11125 H 1079.62 2.07252 4.84101 0
M  V30 11126 H 1082.11 1.84979 3.29532 0
M  V30 11127 H 1082.42 4.31565 6.4107 0
M  V30 11128 H 1080.76 3.87542 5.7692 0
M  V30 11129 H 1083.96 2.36442 4.03996 0
M  V30 11130 H 1084.13 3.48867 5.46073 0
M  V30 11131 N 1077.53 -1.43282 0.656365 0
M  V30 11132 C 1078.48 -2.30776 -0.0333155 0
M  V30 11133 C 1079.45 -1.44928 -0.811493 0
M  V30 11134 O 1080.64 -1.73792 -0.787465 0
M  V30 11135 C 1077.78 -3.30548 -0.991566 0
M  V30 11136 C 1076.89 -4.31493 -0.209159 0
M  V30 11137 C 1076.02 -5.18346 -1.16149 0
M  V30 11138 C 1075.06 -6.10983 -0.369699 0
M  V30 11139 N 1074.2 -6.90449 -1.27378 0
M  V30 11140 H 1079.04 -2.89204 0.718668 0
M  V30 11141 H 1076.58 -1.4247 0.366161 0
M  V30 11142 H 1078.54 -3.86905 -1.56078 0
M  V30 11143 H 1077.17 -2.73762 -1.71039 0
M  V30 11144 H 1076.22 -3.77405 0.476394 0
M  V30 11145 H 1077.53 -4.97142 0.406394 0
M  V30 11146 H 1076.68 -5.79345 -1.80124 0
M  V30 11147 H 1075.42 -4.52831 -1.81095 0
M  V30 11148 H 1074.43 -5.49069 0.283377 0
M  V30 11149 H 1075.65 -6.78541 0.275399 0
M  V30 11150 H 1073.6 -6.27579 -1.90999 0
M  V30 11151 H 1073.52 -7.52631 -0.71287 0
M  V30 11152 H 1074.78 -7.5595 -1.90158 0
M  V30 11153 N 1079.01 -0.398486 -1.52479 0
M  V30 11154 C 1079.96 0.432212 -2.26717 0
M  V30 11155 C 1080.93 1.05007 -1.28696 0
M  V30 11156 O 1082.12 1.07636 -1.57541 0
M  V30 11157 C 1079.26 1.54868 -3.08399 0
M  V30 11158 C 1078.37 0.952779 -4.21362 0
M  V30 11159 C 1077.5 2.04106 -4.90423 0
M  V30 11160 C 1076.54 1.42153 -5.95364 0
M  V30 11161 N 1075.68 2.44951 -6.57984 0
M  V30 11162 H 1080.52 -0.207303 -2.97278 0
M  V30 11163 H 1078.06 -0.114066 -1.46657 0
M  V30 11164 H 1080.01 2.20684 -3.54054 0
M  V30 11165 H 1078.64 2.15837 -2.4003 0
M  V30 11166 H 1077.7 0.183962 -3.79955 0
M  V30 11167 H 1079.01 0.460131 -4.96673 0
M  V30 11168 H 1078.16 2.77672 -5.39429 0
M  V30 11169 H 1076.9 2.56733 -4.14656 0
M  V30 11170 H 1075.91 0.671161 -5.45688 0
M  V30 11171 H 1077.13 0.903093 -6.73068 0
M  V30 11172 H 1075.08 2.9673 -5.85053 0
M  V30 11173 H 1074.99 2.00468 -7.28937 0
M  V30 11174 H 1076.26 3.18119 -7.11632 0
M  V30 11175 N 1080.49 1.57075 -0.12858 0
M  V30 11176 C 1081.91 1.57964 0.227961 0
M  V30 11177 C 1082.11 1.14186 1.66023 0
M  V30 11178 O 1081.16 0.833655 2.38341 0
M  V30 11179 C 1082.48 3.00697 -0.0140648 0
M  V30 11180 C 1084.02 3.12958 0.0510876 0
M  V30 11181 C 1084.5 4.57709 -0.163368 0
M  V30 11182 N 1085.99 4.6307 -0.109663 0
M  V30 11183 C 1086.73 5.72853 -0.250366 0
M  V30 11184 N 1086.22 6.91351 -0.447772 0
M  V30 11185 N 1088.01 5.61781 -0.189265 0
M  V30 11186 H 1080.17 1.83829 -1.06398 0
M  V30 11187 H 1082.43 0.850014 -0.419739 0
M  V30 11188 H 1082.13 3.37047 -1.00461 0
M  V30 11189 H 1082.01 3.70389 0.713571 0
M  V30 11190 H 1084.4 2.7646 1.03216 0
M  V30 11191 H 1084.48 2.4579 -0.708583 0
M  V30 11192 H 1084.12 4.94907 -1.14146 0
M  V30 11193 H 1084.05 5.2298 0.616405 0
M  V30 11194 H 1086.54 3.7788 0.0390086 0
M  V30 11195 H 1086.85 7.70871 -0.54574 0
M  V30 11196 H 1085.2 6.93314 -0.483866 0
M  V30 11197 H 1088.39 4.68086 -0.0359374 0
M  V30 11198 H 1088.56 6.47294 -0.302359 0
M  V30 11199 N 1081.97 -0.145205 1.5693 0
M  V30 11200 C 1083.19 -0.876386 1.87974 0
M  V30 11201 C 1083.62 -1.73866 0.717795 0
M  V30 11202 O 1082.98 -1.78224 -0.332551 0
M  V30 11203 C 1083.03 -1.70746 3.17613 0
M  V30 11204 O 1082.13 -2.81188 3.01674 0
M  V30 11205 H 1081.47 -0.243987 0.617549 0
M  V30 11206 H 1084 -0.135482 2.04151 0
M  V30 11207 H 1084.01 -2.1021 3.49679 0
M  V30 11208 H 1082.69 -1.07429 4.01786 0
M  V30 11209 H 1081.26 -2.45117 2.81019 0
M  V30 11210 N 1083.45 -1.52049 -0.414609 0
M  V30 11211 C 1084.38 -1.7122 -1.52369 0
M  V30 11212 C 1085.39 -0.592634 -1.5163 0
M  V30 11213 O 1086.58 -0.867634 -1.55995 0
M  V30 11214 C 1083.68 -1.73247 -2.91271 0
M  V30 11215 C 1082.85 -3.02153 -3.16263 0
M  V30 11216 C 1081.91 -2.96066 -4.35007 0
M  V30 11217 O 1080.94 -3.69981 -4.32554 0
M  V30 11218 N 1082.14 -2.13478 -5.39822 0
M  V30 11219 H 1084.91 -2.66902 -1.3632 0
M  V30 11220 H 1082.47 -1.50218 -0.603842 0
M  V30 11221 H 1084.46 -1.66714 -3.68766 0
M  V30 11222 H 1083.03 -0.85062 -3.00804 0
M  V30 11223 H 1082.25 -3.22379 -2.2686 0
M  V30 11224 H 1083.54 -3.87439 -3.29801 0
M  V30 11225 H 1082.94 -1.52844 -5.44661 0
M  V30 11226 H 1081.49 -2.12805 -6.16082 0
M  V30 11227 N 1084.93 0.6715 -1.42579 0
M  V30 11228 C 1086.15 1.45972 -1.46628 0
M  V30 11229 C 1086.57 1.88636 -0.0785986 0
M  V30 11230 O 1085.93 1.58345 0.907372 0
M  V30 11231 C 1085.98 2.70668 -2.39627 0
M  V30 11232 O 1085.7 2.29793 -3.72997 0
M  V30 11233 C 1087.2 3.64201 -2.52731 0
M  V30 11234 H 1084.42 0.449044 -0.498598 0
M  V30 11235 H 1086.96 0.824811 -1.87129 0
M  V30 11236 H 1085.12 3.3034 -2.02371 0
M  V30 11237 H 1085.53 3.10341 -4.22834 0
M  V30 11238 H 1087.01 4.48412 -3.21918 0
M  V30 11239 H 1087.48 4.10323 -1.56626 0
M  V30 11240 H 1088.09 3.1042 -2.90722 0
M  V30 11241 N 1086.4 1.28806 0.908124 0
M  V30 11242 C 1087.63 1.1898 1.689 0
M  V30 11243 C 1088.04 -0.253334 1.87496 0
M  V30 11244 O 1087.38 -1.18245 1.40584 0
M  V30 11245 C 1087.45 1.82266 3.0987 0
M  V30 11246 C 1087.11 3.31534 3.14538 0
M  V30 11247 C 1088.11 4.27886 2.95313 0
M  V30 11248 C 1085.79 3.72589 3.36872 0
M  V30 11249 C 1087.79 5.63267 2.98343 0
M  V30 11250 C 1085.47 5.08095 3.39534 0
M  V30 11251 C 1086.47 6.03244 3.2029 0
M  V30 11252 O 1086.16 7.36277 3.22724 0
M  V30 11253 H 1085.89 0.413772 0.534574 0
M  V30 11254 H 1088.45 1.7055 1.14464 0
M  V30 11255 H 1086.68 1.25197 3.65872 0
M  V30 11256 H 1088.36 1.6688 3.70008 0
M  V30 11257 H 1089.13 3.97502 2.77879 0
M  V30 11258 H 1085.01 2.98989 3.50894 0
M  V30 11259 H 1088.55 6.37511 2.83241 0
M  V30 11260 H 1084.45 5.38126 3.56497 0
M  V30 11261 H 1085.22 7.44976 3.39048 0
M  V30 11262 N 1087.88 -1.11734 1.11145 0
M  V30 11263 C 1088.79 -2.21267 0.779607 0
M  V30 11264 C 1089.81 -1.72526 -0.225986 0
M  V30 11265 O 1090.98 -2.01302 -0.0629166 0
M  V30 11266 C 1088.05 -3.45973 0.22435 0
M  V30 11267 C 1087.11 -4.09518 1.28816 0
M  V30 11268 C 1086.34 -5.28271 0.7593 0
M  V30 11269 O 1086.57 -5.68912 -0.411725 0
M  V30 11270 O 1085.5 -5.82322 1.52266 0
M  V30 11271 H 1089.33 -2.5206 1.6941 0
M  V30 11272 H 1086.91 -1.20211 0.887115 0
M  V30 11273 H 1088.79 -4.21322 -0.0810921 0
M  V30 11274 H 1087.47 -3.1684 -0.662891 0
M  V30 11275 H 1086.37 -3.35915 1.64657 0
M  V30 11276 H 1087.71 -4.42824 2.14868 0
M  V30 11277 N 1089.36 -0.901303 -1.29284 0
M  V30 11278 C 1090.58 -0.542823 -2.0017 0
M  V30 11279 C 1091.01 0.865583 -1.67001 0
M  V30 11280 O 1090.37 1.5764 -0.895502 0
M  V30 11281 C 1090.42 -0.743987 -3.52842 0
M  V30 11282 O 1089.52 0.202771 -4.11901 0
M  V30 11283 H 1088.86 -0.211903 -0.62928 0
M  V30 11284 H 1091.39 -1.21333 -1.64741 0
M  V30 11285 H 1091.4 -0.64926 -4.02801 0
M  V30 11286 H 1090.08 -1.77077 -3.7632 0
M  V30 11287 H 1088.65 0.0603637 -3.72851 0
M  V30 11288 N 1090.84 1.42931 -0.663954 0
M  V30 11289 C 1092.11 1.95284 -0.111174 0
M  V30 11290 C 1092.49 1.60484 1.37142 0
M  V30 11291 O 1091.84 0.895425 2.10225 0
M  V30 11292 C 1092.05 3.47046 -0.368789 0
M  V30 11293 C 1093.4 4.23679 -0.279473 0
M  V30 11294 O 1094.42 3.54918 -0.301937 0
M  V30 11295 O 1093.28 5.46087 -0.21236 0
M  V30 11296 H 1090.38 0.826993 0.00341718 0
M  V30 11297 H 1092.92 1.52816 -0.737935 0
M  V30 11298 H 1091.7 3.65541 -1.39626 0
M  V30 11299 H 1091.32 3.96537 0.290514 0
M  V30 11300 N 1092.32 0.406567 1.52266 0
M  V30 11301 C 1093.56 -0.169717 2.01386 0
M  V30 11302 C 1093.88 -1.45864 1.29417 0
M  V30 11303 O 1093.15 -1.9136 0.419327 0
M  V30 11304 H 1091.73 -0.0657075 0.744105 0
M  V30 11305 H 1094.4 0.542221 1.87206 0
M  V30 11306 H 1093.49 -0.367659 3.09927 0
M  V30 11307 N 1093.79 -1.57004 0.136909 0
M  V30 11308 C 1094.74 -2.16246 -0.806607 0
M  V30 11309 C 1095.71 -1.09246 -1.25118 0
M  V30 11310 O 1096.9 -1.3724 -1.32551 0
M  V30 11311 C 1094.04 -2.78031 -2.04433 0
M  V30 11312 C 1093.15 -3.99393 -1.64649 0
M  V30 11313 C 1092.28 -4.49208 -2.83524 0
M  V30 11314 C 1091.32 -5.63059 -2.40064 0
M  V30 11315 N 1090.46 -6.07537 -3.51913 0
M  V30 11316 H 1095.3 -2.9654 -0.294596 0
M  V30 11317 H 1092.84 -1.46491 -0.133705 0
M  V30 11318 H 1094.8 -3.11992 -2.76978 0
M  V30 11319 H 1093.43 -2.00398 -2.53062 0
M  V30 11320 H 1092.48 -3.71477 -0.819077 0
M  V30 11321 H 1093.79 -4.81904 -1.28723 0
M  V30 11322 H 1092.94 -4.85171 -3.64271 0
M  V30 11323 H 1091.68 -3.65683 -3.22688 0
M  V30 11324 H 1090.69 -5.26682 -1.57754 0
M  V30 11325 H 1091.91 -6.48362 -2.01997 0
M  V30 11326 H 1089.86 -5.2695 -3.90717 0
M  V30 11327 H 1089.78 -6.84949 -3.1997 0
M  V30 11328 H 1091.04 -6.48143 -4.33048 0
M  V30 11329 N 1095.27 0.136881 -1.57004 0
M  V30 11330 C 1096.22 1.18782 -1.99984 0
M  V30 11331 C 1097.21 1.43899 -0.893841 0
M  V30 11332 O 1098.42 1.44072 -1.07904 0
M  V30 11333 H 1094.8 0.400065 -0.636751 0
M  V30 11334 H 1096.77 0.798696 -2.87512 0
M  V30 11335 C 1095.52 2.51105 -2.40502 0
M  V30 11336 H 1094.84 2.32611 -3.25165 0
M  V30 11337 H 1096.28 3.23244 -2.74389 0
M  V30 11338 C 1094.74 3.12386 -1.26161 0
M  V30 11339 O 1095.27 3.97666 -0.567836 0
M  V30 11340 N 1093.47 2.71989 -1.02326 0
M  V30 11341 H 1093.02 2.02736 -1.58921 0
M  V30 11342 H 1092.98 3.13322 -0.26013 0
M  V30 11343 N 1096.75 1.52266 0.40654 0
M  V30 11344 C 1097.68 1.72025 1.51459 0
M  V30 11345 C 1098.7 0.600667 1.51314 0
M  V30 11346 O 1099.88 0.875894 1.55532 0
M  V30 11347 C 1096.98 1.7479 2.90348 0
M  V30 11348 C 1096.16 3.03826 3.14656 0
M  V30 11349 C 1095.22 2.98369 4.33431 0
M  V30 11350 O 1094.24 3.7227 4.30586 0
M  V30 11351 N 1095.44 2.16338 5.38682 0
M  V30 11352 H 1098.21 2.67622 1.34903 0
M  V30 11353 H 1095.77 1.50536 0.595867 0
M  V30 11354 H 1097.76 1.68667 3.67877 0
M  V30 11355 H 1096.33 0.86656 3.00349 0
M  V30 11356 H 1095.55 3.23577 2.25148 0
M  V30 11357 H 1096.84 3.89182 3.27742 0
M  V30 11358 H 1096.24 1.55731 5.43842 0
M  V30 11359 H 1094.8 2.1607 6.14945 0
M  V30 11360 N 1098.23 -0.663929 1.42933 0
M  V30 11361 C 1099.19 -1.75899 1.46943 0
M  V30 11362 C 1100.19 -1.5682 0.355535 0
M  V30 11363 O 1101.38 -1.62914 0.616833 0
M  V30 11364 C 1098.51 -3.14657 1.31164 0
M  V30 11365 H 1099.71 -1.73727 2.44456 0
M  V30 11366 H 1097.26 -0.874587 1.2954 0
M  V30 11367 H 1097.99 -3.22447 0.346165 0
M  V30 11368 H 1097.78 -3.29909 2.11902 0
M  V30 11369 H 1099.27 -3.9453 1.36878 0
M  V30 11370 N 1099.71 -1.29285 -0.901281 0
M  V30 11371 C 1100.65 -1.14159 -2.02659 0
M  V30 11372 C 1101.65 -0.0575887 -1.69302 0
M  V30 11373 O 1102.85 -0.217273 -1.78684 0
M  V30 11374 H 1099.23 -0.352584 -0.66422 0
M  V30 11375 H 1101.2 -2.09434 -2.12555 0
M  V30 11376 C 1099.95 -0.833253 -3.37568 0
M  V30 11377 H 1099.27 -1.65939 -3.63737 0
M  V30 11378 H 1100.71 -0.767436 -4.16997 0
M  V30 11379 C 1099.17 0.46344 -3.33697 0
M  V30 11380 O 1099.7 1.48998 -3.73045 0
M  V30 11381 N 1097.91 0.468709 -2.86795 0
M  V30 11382 H 1097.45 -0.36712 -2.54971 0
M  V30 11383 H 1097.41 1.3363 -2.84588 0
M  V30 11384 N 1101.18 1.11143 -1.11736 0
M  V30 11385 C 1102.6 1.64462 -0.883693 0
M  V30 11386 C 1102.95 1.87324 0.583448 0
M  V30 11387 O 1102.07 1.60975 1.44623 0
M  V30 11388 C 1102.67 2.98765 -1.59764 0
M  V30 11389 C 1101.23 3.4898 -1.41032 0
M  V30 11390 C 1100.37 2.23729 -1.63831 0
M  V30 11391 H 1103.32 0.947415 -1.27317 0
M  V30 11392 H 1103.34 3.65885 -1.04443 0
M  V30 11393 H 1102.86 2.82094 -2.66542 0
M  V30 11394 H 1100.96 3.7081 -0.364781 0
M  V30 11395 H 1101.07 4.27571 -2.16148 0
M  V30 11396 H 1099.43 2.31507 -1.06191 0
M  V30 11397 H 1100.22 2.09597 -2.7189 0
M  V30 11398 N 1102.66 0.908147 1.28804 0
M  V30 11399 C 1103.89 0.553431 1.9988 0
M  V30 11400 C 1104.31 -0.856714 1.67458 0
M  V30 11401 O 1103.67 -1.57163 0.903849 0
M  V30 11402 C 1103.72 0.762688 3.52442 0
M  V30 11403 O 1102.82 -0.180924 4.12003 0
M  V30 11404 H 1102.16 0.215237 0.628147 0
M  V30 11405 H 1104.69 1.22205 1.64095 0
M  V30 11406 H 1104.7 0.670612 4.02451 0
M  V30 11407 H 1103.38 1.79071 3.75375 0
M  V30 11408 H 1101.96 -0.0405897 3.72878 0
M  V30 11409 N 1104.14 -1.42577 0.671525 0
M  V30 11410 C 1105.56 -1.5592 0.340769 0
M  V30 11411 C 1105.76 -1.65179 -1.15405 0
M  V30 11412 O 1104.81 -1.61691 -1.93939 0
M  V30 11413 C 1106.13 -2.81087 1.06821 0
M  V30 11414 C 1107.67 -2.94855 1.05022 0
M  V30 11415 C 1108.15 -4.22878 1.75892 0
M  V30 11416 N 1109.64 -4.29783 1.72744 0
M  V30 11417 C 1110.37 -5.2765 2.24439 0
M  V30 11418 N 1109.87 -6.31689 2.84501 0
M  V30 11419 N 1111.66 -5.19426 2.14832 0
M  V30 11420 H 1103.81 -1.34811 1.64133 0
M  V30 11421 H 1106.08 -0.648704 0.691294 0
M  V30 11422 H 1105.78 -2.80371 2.12332 0
M  V30 11423 H 1105.66 -3.71879 0.631356 0
M  V30 11424 H 1108.04 -2.951 0.00345633 0
M  V30 11425 H 1108.13 -2.05303 1.52592 0
M  V30 11426 H 1107.77 -4.23394 2.80535 0
M  V30 11427 H 1107.7 -5.1136 1.25773 0
M  V30 11428 H 1110.19 -3.55225 1.28932 0
M  V30 11429 H 1110.5 -7.02715 3.21575 0
M  V30 11430 H 1108.85 -6.3226 2.88569 0
M  V30 11431 H 1112.04 -4.37067 1.676 0
M  V30 11432 H 1112.21 -5.95535 2.55426 0
M  V30 11433 N 1105.62 -0.414636 -1.52048 0
M  V30 11434 C 1106.55 0.443601 -2.24866 0
M  V30 11435 C 1107.56 1.00556 -1.28032 0
M  V30 11436 O 1108.75 0.903566 -1.53941 0
M  V30 11437 C 1105.85 1.63004 -2.97124 0
M  V30 11438 C 1105.03 1.191 -4.20873 0
M  V30 11439 C 1104.08 2.24497 -4.75907 0
M  V30 11440 O 1103.11 1.84861 -5.38345 0
M  V30 11441 N 1104.31 3.56727 -4.57959 0
M  V30 11442 H 1107.08 -0.180393 -2.99157 0
M  V30 11443 H 1104.64 -0.242305 -1.60077 0
M  V30 11444 H 1106.63 2.33089 -3.30835 0
M  V30 11445 H 1105.2 2.15984 -2.25986 0
M  V30 11446 H 1104.42 0.318059 -3.92915 0
M  V30 11447 H 1105.71 0.874699 -5.01225 0
M  V30 11448 H 1105.11 3.91675 -4.08175 0
M  V30 11449 H 1103.66 4.22772 -4.96092 0
M  V30 11450 N 1107.1 1.56929 -0.145233 0
M  V30 11451 C 1108.51 1.82877 0.375884 0
M  V30 11452 C 1108.86 1.06384 1.64854 0
M  V30 11453 O 1107.98 0.30857 2.14189 0
M  V30 11454 C 1108.58 3.31725 0.688744 0
M  V30 11455 C 1107.14 3.58261 1.15439 0
M  V30 11456 C 1106.28 2.76737 0.176565 0
M  V30 11457 H 1109.24 1.54328 -0.36996 0
M  V30 11458 H 1109.26 3.47784 1.54359 0
M  V30 11459 H 1108.77 3.87371 -0.237694 0
M  V30 11460 H 1106.87 3.08 2.09683 0
M  V30 11461 H 1106.98 4.66732 1.08158 0
M  V30 11462 H 1105.35 2.45761 0.668843 0
M  V30 11463 H 1106.13 3.35154 -0.743432 0
M  V30 11464 N 1108.58 -0.128553 1.57075 0
M  V30 11465 C 1109.82 -0.836355 1.83982 0
M  V30 11466 C 1110.14 -1.80862 0.728971 0
M  V30 11467 O 1109.41 -1.94326 -0.247859 0
M  V30 11468 H 1107.99 -0.31185 0.678792 0
M  V30 11469 H 1110.66 -0.118153 1.94542 0
M  V30 11470 H 1109.75 -1.38741 2.79567 0
M  V30 11471 N 1110.05 -1.5248 -0.398459 0
M  V30 11472 C 1111.28 -1.71221 -1.17039 0
M  V30 11473 C 1111.7 -0.425515 -1.83224 0
M  V30 11474 O 1111.06 0.617938 -1.70444 0
M  V30 11475 C 1111.11 -2.8562 -2.20121 0
M  V30 11476 O 1110.21 -2.51934 -3.26501 0
M  V30 11477 H 1109.55 -0.569654 -0.34116 0
M  V30 11478 H 1112.08 -1.99231 -0.465652 0
M  V30 11479 H 1112.09 -3.10842 -2.64275 0
M  V30 11480 H 1110.77 -3.78969 -1.71334 0
M  V30 11481 H 1109.35 -2.3742 -2.87552 0
M  V30 11482 N 1111.53 0.65634 -1.43283 0
M  V30 11483 C 1112.78 1.41837 -1.44949 0
M  V30 11484 C 1113.11 1.94065 -0.0723212 0
M  V30 11485 O 1112.39 1.72092 0.906346 0
M  V30 11486 C 1112.67 2.60206 -2.48927 0
M  V30 11487 C 1112.52 2.1349 -3.95907 0
M  V30 11488 C 1113.84 3.62421 -2.49678 0
M  V30 11489 H 1110.96 0.514398 -0.527792 0
M  V30 11490 H 1113.6 0.74435 -1.74813 0
M  V30 11491 H 1111.75 3.17708 -2.23592 0
M  V30 11492 H 1113.42 1.61012 -4.32288 0
M  V30 11493 H 1111.67 1.4489 -4.08888 0
M  V30 11494 H 1112.34 2.98596 -4.64268 0
M  V30 11495 H 1114.81 3.14671 -2.72252 0
M  V30 11496 H 1113.69 4.42798 -3.24378 0
M  V30 11497 H 1113.95 4.14802 -1.52944 0
M  V30 11498 N 1113.01 1.29761 0.894412 0
M  V30 11499 C 1114.42 1.16275 1.46072 0
M  V30 11500 C 1114.77 -0.240123 1.94725 0
M  V30 11501 O 1113.9 -1.13606 1.84181 0
M  V30 11502 C 1114.49 2.10471 2.65494 0
M  V30 11503 C 1113.05 2.00992 3.18244 0
M  V30 11504 C 1112.2 2.01094 1.90936 0
M  V30 11505 H 1115.15 1.42169 0.705243 0
M  V30 11506 H 1115.17 1.68003 3.41402 0
M  V30 11507 H 1114.68 3.12566 2.30053 0
M  V30 11508 H 1112.78 1.02005 3.58365 0
M  V30 11509 H 1112.9 2.88916 3.82184 0
M  V30 11510 H 1111.26 1.45764 2.08866 0
M  V30 11511 H 1112.04 3.04902 1.57764 0
M  V30 11512 N 1114.49 -1.10549 1.12324 0
M  V30 11513 C 1115.9 -1.34508 0.85905 0
M  V30 11514 C 1116.1 -1.94901 -0.511468 0
M  V30 11515 O 1115.16 -2.18793 -1.2604 0
M  V30 11516 C 1116.47 -2.26788 1.97453 0
M  V30 11517 C 1118.02 -2.40328 2.00528 0
M  V30 11518 C 1118.5 -3.35936 3.11305 0
M  V30 11519 N 1119.99 -3.43504 3.1074 0
M  V30 11520 C 1120.72 -4.17449 3.93096 0
M  V30 11521 N 1120.22 -4.9429 4.85437 0
M  V30 11522 N 1122.01 -4.13055 3.81237 0
M  V30 11523 H 1114.16 -0.697171 2.00632 0
M  V30 11524 H 1116.42 -0.369548 0.873005 0
M  V30 11525 H 1116.13 -1.89621 2.96204 0
M  V30 11526 H 1116 -3.27086 1.87869 0
M  V30 11527 H 1118.39 -2.76765 1.02397 0
M  V30 11528 H 1118.47 -1.39849 2.14186 0
M  V30 11529 H 1118.12 -3.00225 4.09667 0
M  V30 11530 H 1118.05 -4.36291 2.94886 0
M  V30 11531 H 1120.54 -2.88702 2.43843 0
M  V30 11532 H 1120.85 -5.48109 5.4479 0
M  V30 11533 H 1119.2 -4.93419 4.89452 0
M  V30 11534 H 1122.39 -3.52117 3.08433 0
M  V30 11535 H 1122.56 -4.70424 4.45651 0
M  V30 11536 N 1115.97 -0.914965 -1.28321 0
M  V30 11537 C 1116.92 -0.375436 -2.24888 0
M  V30 11538 C 1117.9 0.51313 -1.52498 0
M  V30 11539 O 1119.09 0.352654 -1.73451 0
M  V30 11540 C 1116.22 0.382266 -3.41165 0
M  V30 11541 C 1115.31 -0.522089 -4.20874 0
M  V30 11542 N 1115.7 -1.63623 -4.78603 0
M  V30 11543 C 1114 -0.322703 -4.44831 0
M  V30 11544 C 1114.7 -2.19766 -5.38589 0
M  V30 11545 N 1113.67 -1.48878 -5.22816 0
M  V30 11546 H 1117.47 -1.2263 -2.67094 0
M  V30 11547 H 1114.99 -0.767759 -1.43106 0
M  V30 11548 H 1116.99 0.785641 -4.0943 0
M  V30 11549 H 1115.65 1.23021 -3.00493 0
M  V30 11550 H 1116.66 -2.01879 -4.76933 0
M  V30 11551 H 1113.33 0.485627 -4.14666 0
M  V30 11552 H 1114.72 -3.13494 -5.94282 0
M  V30 11553 N 1117.44 1.42219 -0.679077 0
M  V30 11554 C 1118.69 2.01777 -0.20342 0
M  V30 11555 C 1119.02 1.53592 1.18841 0
M  V30 11556 O 1118.3 0.739954 1.79875 0
M  V30 11557 C 1118.58 3.59281 -0.242791 0
M  V30 11558 C 1118.43 4.17634 -1.67038 0
M  V30 11559 C 1119.75 4.38218 0.406624 0
M  V30 11560 H 1116.87 0.733134 -0.0753916 0
M  V30 11561 H 1119.51 1.69185 -0.864673 0
M  V30 11562 H 1117.66 3.87178 0.320248 0
M  V30 11563 H 1119.34 4.00674 -2.286 0
M  V30 11564 H 1117.58 3.73301 -2.20973 0
M  V30 11565 H 1118.25 5.26776 -1.64958 0
M  V30 11566 H 1120.73 4.16036 -0.0727077 0
M  V30 11567 H 1119.6 5.47793 0.348457 0
M  V30 11568 H 1119.86 4.16418 1.48487 0
M  V30 11569 N 1118.92 0.422693 1.51826 0
M  V30 11570 C 1120.15 -0.15017 2.06856 0
M  V30 11571 C 1120.57 -1.36946 1.28948 0
M  V30 11572 O 1119.93 -1.78393 0.32338 0
M  V30 11573 C 1119.98 -0.465563 3.57582 0
M  V30 11574 O 1119.08 -1.55442 3.81984 0
M  V30 11575 H 1118.42 -0.00827931 0.663948 0
M  V30 11576 H 1120.95 0.599806 1.95611 0
M  V30 11577 H 1120.96 -0.720279 4.01592 0
M  V30 11578 H 1119.64 0.425679 4.13716 0
M  V30 11579 H 1118.21 -1.29081 3.49846 0
M  V30 11580 N 1120.4 -1.5685 0.153553 0
M  V30 11581 C 1121.81 -1.83074 -0.36618 0
M  V30 11582 C 1122.16 -1.07257 -1.64288 0
M  V30 11583 O 1121.29 -0.319925 -2.14022 0
M  V30 11584 C 1121.88 -3.32086 -0.671142 0
M  V30 11585 C 1120.44 -3.58868 -1.13537 0
M  V30 11586 C 1119.59 -2.76827 -0.161887 0
M  V30 11587 H 1122.54 -1.54129 0.378139 0
M  V30 11588 H 1122.56 -3.48598 -1.52512 0
M  V30 11589 H 1122.07 -3.8724 0.258234 0
M  V30 11590 H 1120.17 -3.09107 -2.08047 0
M  V30 11591 H 1120.29 -4.67299 -1.05682 0
M  V30 11592 H 1118.65 -2.46112 -0.6558 0
M  V30 11593 H 1119.43 -3.34755 0.761195 0
M  V30 11594 N 1121.88 0.120221 -1.57141 0
M  V30 11595 C 1123.12 0.829449 -1.85062 0
M  V30 11596 C 1123.46 1.79585 -0.739116 0
M  V30 11597 O 1122.73 1.92819 0.255147 0
M  V30 11598 C 1123.01 1.58042 -3.23566 0
M  V30 11599 C 1122.87 0.633706 -4.45314 0
M  V30 11600 C 1124.19 2.53688 -3.59625 0
M  V30 11601 H 1121.31 0.300086 -0.67314 0
M  V30 11602 H 1123.95 0.0937393 -1.89769 0
M  V30 11603 H 1122.1 2.20758 -3.19684 0
M  V30 11604 H 1123.77 0.0154836 -4.61297 0
M  V30 11605 H 1122.01 -0.054846 -4.33765 0
M  V30 11606 H 1122.68 1.19577 -5.38893 0
M  V30 11607 H 1125.16 2.01078 -3.6429 0
M  V30 11608 H 1124.04 3.03265 -4.57516 0
M  V30 11609 H 1124.3 3.36296 -2.8698 0
M  V30 11610 N 1123.36 1.52689 0.390367 0
M  V30 11611 C 1124.58 1.71541 1.15678 0
M  V30 11612 C 1125 0.433171 1.83764 0
M  V30 11613 O 1124.36 -0.592248 1.72623 0
M  V30 11614 C 1124.41 2.864 2.20584 0
M  V30 11615 O 1124.13 4.0966 1.55274 0
M  V30 11616 C 1125.63 3.1692 3.09962 0
M  V30 11617 H 1122.85 0.574381 0.346883 0
M  V30 11618 H 1125.39 1.99332 0.456851 0
M  V30 11619 H 1123.55 2.61075 2.86214 0
M  V30 11620 H 1123.96 4.73802 2.2497 0
M  V30 11621 H 1125.44 4.00755 3.79604 0
M  V30 11622 H 1125.91 2.31245 3.73393 0
M  V30 11623 H 1126.52 3.4408 2.49979 0
M  V30 11624 N 1124.83 -0.648732 1.43629 0
M  V30 11625 C 1126.25 -1.23001 1.40455 0
M  V30 11626 C 1126.6 -1.95886 0.110897 0
M  V30 11627 O 1125.72 -2.01485 -0.789487 0
M  V30 11628 C 1126.32 -2.23716 2.54434 0
M  V30 11629 C 1124.88 -2.77311 2.54511 0
M  V30 11630 C 1124.02 -1.52024 2.31914 0
M  V30 11631 H 1126.97 -0.440473 1.52465 0
M  V30 11632 H 1126.99 -3.05979 2.26179 0
M  V30 11633 H 1126.51 -1.7064 3.48574 0
M  V30 11634 H 1124.61 -3.34437 1.64263 0
M  V30 11635 H 1124.72 -3.2455 3.52426 0
M  V30 11636 H 1123.08 -1.79531 1.80667 0
M  V30 11637 H 1123.87 -1.00876 3.28145 0
M  V30 11638 N 1126.31 -1.30234 -0.887518 0
M  V30 11639 C 1127.72 -1.17048 -1.45453 0
M  V30 11640 C 1128.07 0.229793 -1.9485 0
M  V30 11641 O 1127.2 1.12628 -1.84781 0
M  V30 11642 C 1127.79 -2.11876 -2.64375 0
M  V30 11643 C 1126.35 -2.02676 -3.17174 0
M  V30 11644 C 1125.5 -2.02104 -1.89866 0
M  V30 11645 H 1128.45 -1.42541 -0.697694 0
M  V30 11646 H 1128.47 -1.69811 -3.40506 0
M  V30 11647 H 1127.98 -3.13781 -2.28392 0
M  V30 11648 H 1126.09 -1.03904 -3.57819 0
M  V30 11649 H 1126.2 -2.90939 -3.80646 0
M  V30 11650 H 1124.56 -1.4687 -2.0809 0
M  V30 11651 H 1125.35 -3.05735 -1.56145 0
M  V30 11652 N 1127.79 1.09952 -1.12909 0
M  V30 11653 C 1129.21 1.34051 -0.866172 0
M  V30 11654 C 1129.41 1.95169 0.501125 0
M  V30 11655 O 1128.46 2.19458 1.24878 0
M  V30 11656 C 1129.78 2.25738 -1.98653 0
M  V30 11657 C 1131.32 2.39261 -2.01799 0
M  V30 11658 C 1131.8 3.3428 -3.13083 0
M  V30 11659 N 1133.29 3.41851 -3.12558 0
M  V30 11660 C 1134.02 4.15358 -3.95304 0
M  V30 11661 N 1133.52 4.91709 -4.88051 0
M  V30 11662 N 1135.31 4.11027 -3.83423 0
M  V30 11663 H 1127.46 0.686521 -2.00999 0
M  V30 11664 H 1129.73 0.364913 -0.874953 0
M  V30 11665 H 1129.43 1.88048 -2.97205 0
M  V30 11666 H 1129.31 3.26085 -1.89601 0
M  V30 11667 H 1131.69 2.76218 -1.03864 0
M  V30 11668 H 1131.78 1.38712 -2.14925 0
M  V30 11669 H 1131.42 2.98048 -4.11254 0
M  V30 11670 H 1131.35 4.34721 -2.97195 0
M  V30 11671 H 1133.84 2.87405 -2.45371 0
M  V30 11672 H 1134.15 5.45212 -5.47689 0
M  V30 11673 H 1132.5 4.90816 -4.92061 0
M  V30 11674 H 1135.69 3.50477 -3.10296 0
M  V30 11675 H 1135.86 4.68054 -4.4814 0
M  V30 11676 N 1129.27 0.921757 1.27833 0
M  V30 11677 C 1130.18 0.421668 2.30779 0
M  V30 11678 C 1131.19 -0.494686 1.6682 0
M  V30 11679 O 1132.37 -0.378935 1.97803 0
M  V30 11680 C 1129.44 -0.322928 3.45193 0
M  V30 11681 C 1128.5 0.627618 4.24687 0
M  V30 11682 C 1127.73 -0.0815385 5.33638 0
M  V30 11683 O 1127.95 -1.30193 5.55343 0
M  V30 11684 O 1126.89 0.58725 5.99028 0
M  V30 11685 H 1130.71 1.2763 2.7558 0
M  V30 11686 H 1128.3 0.686877 1.32674 0
M  V30 11687 H 1130.18 -0.743145 4.14796 0
M  V30 11688 H 1128.85 -1.15326 3.02459 0
M  V30 11689 H 1127.76 1.09739 3.57642 0
M  V30 11690 H 1129.09 1.425 4.71121 0
M  V30 11691 N 1130.75 -1.41857 0.686609 0
M  V30 11692 C 1131.99 -2.01666 0.214118 0
M  V30 11693 C 1132.33 -1.5422 -1.18025 0
M  V30 11694 O 1131.6 -0.749482 -1.7948 0
M  V30 11695 C 1131.88 -3.59147 0.261841 0
M  V30 11696 C 1131.74 -4.16742 1.69251 0
M  V30 11697 C 1133.06 -4.38427 -0.383378 0
M  V30 11698 H 1130.17 -0.732724 0.0792785 0
M  V30 11699 H 1132.82 -1.68724 0.873633 0
M  V30 11700 H 1130.97 -3.87342 -0.29971 0
M  V30 11701 H 1132.64 -3.99456 2.30722 0
M  V30 11702 H 1130.88 -3.72124 2.2295 0
M  V30 11703 H 1131.55 -5.25894 1.6775 0
M  V30 11704 H 1134.03 -4.15992 0.0947701 0
M  V30 11705 H 1132.9 -5.4797 -0.319401 0
M  V30 11706 H 1133.17 -4.172 -1.46276 0
M  V30 11707 N 1132.22 -0.430739 -1.51599 0
M  V30 11708 C 1133.64 0.0339139 -1.86669 0
M  V30 11709 C 1133.99 1.42533 -1.34829 0
M  V30 11710 O 1133.11 2.04889 -0.696376 0
M  V30 11711 C 1133.71 0.0683174 -3.38731 0
M  V30 11712 C 1132.27 0.477363 -3.73361 0
M  V30 11713 C 1131.41 -0.334258 -2.75278 0
M  V30 11714 H 1134.36 -0.646875 -1.44918 0
M  V30 11715 H 1134.38 0.879179 -3.70204 0
M  V30 11716 H 1133.9 -0.944501 -3.76432 0
M  V30 11717 H 1132 1.49603 -3.41247 0
M  V30 11718 H 1132.11 0.206744 -4.78654 0
M  V30 11719 H 1130.47 0.206503 -2.53861 0
M  V30 11720 H 1131.26 -1.34583 -3.1582 0
M  V30 11721 N 1133.7 1.56767 -0.161869 0
M  V30 11722 C 1134.95 1.95769 0.485536 0
M  V30 11723 C 1135.26 1.05006 1.65025 0
M  V30 11724 O 1136.47 1.33649 2.36326 0
M  V30 11725 C 1134.93 3.4807 0.915176 0
M  V30 11726 C 1134.53 4.47443 -0.223416 0
M  V30 11727 C 1136.28 3.95909 1.53153 0
M  V30 11728 C 1134.19 5.90971 0.225325 0
M  V30 11729 H 1133.12 0.730911 0.185161 0
M  V30 11730 H 1135.77 1.81808 -0.248592 0
M  V30 11731 H 1134.15 3.57415 1.705 0
M  V30 11732 H 1135.32 4.49805 -1.00061 0
M  V30 11733 H 1133.64 4.09606 -0.749127 0
M  V30 11734 H 1136.23 5.00592 1.87915 0
M  V30 11735 H 1136.58 3.38307 2.42599 0
M  V30 11736 H 1137.11 3.89542 0.806322 0
M  V30 11737 H 1133.85 6.52426 -0.634124 0
M  V30 11738 H 1133.37 5.91936 0.96808 0
M  V30 11739 H 1135.05 6.43497 0.672373 0
M  V30 11740 N 1135.18 -0.111886 1.57202 0
M  V30 11741 C 1136.41 -0.8312 1.89142 0
M  V30 11742 C 1136.82 -1.73614 0.751987 0
M  V30 11743 O 1136.16 -1.81462 -0.285877 0
M  V30 11744 C 1136.22 -1.71107 3.16169 0
M  V30 11745 C 1135.89 -0.9797 4.46375 0
M  V30 11746 C 1136.88 -0.317219 5.18931 0
M  V30 11747 C 1134.57 -0.958764 4.93065 0
M  V30 11748 C 1136.56 0.356419 6.36403 0
M  V30 11749 C 1134.25 -0.281332 6.10452 0
M  V30 11750 C 1135.25 0.375098 6.81969 0
M  V30 11751 O 1134.94 1.0417 7.97122 0
M  V30 11752 H 1134.67 -0.243855 0.630484 0
M  V30 11753 H 1137.22 -0.0986634 2.05163 0
M  V30 11754 H 1135.45 -2.48543 2.96249 0
M  V30 11755 H 1137.14 -2.30544 3.34072 0
M  V30 11756 H 1137.91 -0.324965 4.8391 0
M  V30 11757 H 1133.79 -1.45913 4.37299 0
M  V30 11758 H 1137.33 0.869362 6.92162 0
M  V30 11759 H 1133.23 -0.271374 6.44929 0
M  V30 11760 H 1134 0.946899 8.13004 0
M  V30 11761 N 1136.66 -1.52894 -0.382264 0
M  V30 11762 C 1137.62 -1.77497 -1.45008 0
M  V30 11763 C 1138.62 -0.64509 -1.47293 0
M  V30 11764 O 1139.81 -0.913192 -1.48346 0
M  V30 11765 C 1136.94 -1.88188 -2.8425 0
M  V30 11766 H 1138.14 -2.72849 -1.24473 0
M  V30 11767 H 1135.69 -1.43717 -0.61441 0
M  V30 11768 H 1136.42 -0.948451 -3.10121 0
M  V30 11769 H 1136.21 -2.70353 -2.83992 0
M  V30 11770 H 1137.7 -2.08873 -3.6161 0
M  V30 11771 N 1138.14 0.641106 -1.43971 0
M  V30 11772 C 1139.09 1.77474 -1.50352 0
M  V30 11773 C 1140.08 1.65173 -0.376052 0
M  V30 11774 O 1141.29 1.71373 -0.550572 0
M  V30 11775 H 1137.66 0.585747 -0.471597 0
M  V30 11776 H 1139.63 1.69213 -2.45784 0
M  V30 11777 C 1138.38 3.15778 -1.45532 0
M  V30 11778 H 1137.7 3.25886 -2.316 0
M  V30 11779 H 1139.14 3.95022 -1.54058 0
M  V30 11780 C 1137.6 3.36447 -0.174624 0
M  V30 11781 O 1138.13 3.9446 0.759215 0
M  V30 11782 N 1136.34 2.90487 -0.0809383 0
M  V30 11783 H 1135.89 2.43461 -0.841691 0
M  V30 11784 H 1135.84 3.04693 0.775231 0
M  V30 11785 N 1139.62 1.30703 0.880598 0
M  V30 11786 C 1141.03 1.09129 1.1646 0
M  V30 11787 C 1141.23 -0.145131 2.00977 0
M  V30 11788 O 1140.29 -0.837502 2.38206 0
M  V30 11789 C 1141.6 2.35717 1.86703 0
M  V30 11790 C 1143.15 2.41224 1.9945 0
M  V30 11791 C 1143.62 3.67665 2.73105 0
M  V30 11792 N 1145.11 3.68498 2.80648 0
M  V30 11793 C 1145.85 4.63024 3.38225 0
M  V30 11794 N 1145.35 5.67898 3.96817 0
M  V30 11795 N 1147.14 4.50561 3.36082 0
M  V30 11796 H 1139.29 2.10019 0.317164 0
M  V30 11797 H 1141.55 0.925994 0.203072 0
M  V30 11798 H 1141.26 3.2597 1.32046 0
M  V30 11799 H 1141.13 2.447 2.87057 0
M  V30 11800 H 1143.52 1.51446 2.53275 0
M  V30 11801 H 1143.6 2.36212 0.981704 0
M  V30 11802 H 1143.24 4.57803 2.19951 0
M  V30 11803 H 1143.17 3.69939 3.7477 0
M  V30 11804 H 1145.67 2.92681 2.39053 0
M  V30 11805 H 1145.98 6.3612 4.3883 0
M  V30 11806 H 1144.32 5.71685 3.95223 0
M  V30 11807 H 1147.51 3.67811 2.89539 0
M  V30 11808 H 1147.69 5.24408 3.80657 0
M  V30 11809 N 1141.09 -1.09351 1.1349 0
M  V30 11810 C 1142.34 -1.81543 0.897123 0
M  V30 11811 C 1142.67 -1.85754 -0.576703 0
M  V30 11812 O 1141.92 -1.32213 -1.44285 0
M  V30 11813 C 1142.22 -3.27498 1.43108 0
M  V30 11814 C 1141.89 -3.4342 2.92188 0
M  V30 11815 C 1140.55 -3.47473 3.32891 0
M  V30 11816 C 1142.9 -3.47894 3.88097 0
M  V30 11817 C 1140.23 -3.5358 4.68186 0
M  V30 11818 C 1142.58 -3.55535 5.23238 0
M  V30 11819 C 1141.25 -3.57857 5.63467 0
M  V30 11820 H 1140.52 -0.664314 0.32828 0
M  V30 11821 H 1143.16 -1.28819 1.41697 0
M  V30 11822 H 1141.47 -3.82865 0.831946 0
M  V30 11823 H 1143.17 -3.8189 1.22316 0
M  V30 11824 H 1139.76 -3.4095 2.59713 0
M  V30 11825 H 1143.94 -3.44002 3.57737 0
M  V30 11826 H 1139.2 -3.53665 4.9873 0
M  V30 11827 H 1143.37 -3.57942 5.9737 0
M  V30 11828 H 1141 -3.62341 6.68291 0
M  V30 11829 N 1142.57 -0.928524 -1.27343 0
M  V30 11830 C 1143.53 -0.43292 -2.25074 0
M  V30 11831 C 1144.53 0.448976 -1.54405 0
M  V30 11832 O 1145.72 0.249939 -1.72398 0
M  V30 11833 C 1142.86 0.377539 -3.38803 0
M  V30 11834 H 1144.05 -1.29642 -2.70431 0
M  V30 11835 H 1141.6 -0.709289 -1.3928 0
M  V30 11836 H 1142.34 1.25982 -2.98829 0
M  V30 11837 H 1142.12 -0.254782 -3.91271 0
M  V30 11838 H 1143.61 0.714634 -4.1144 0
M  V30 11839 N 1144.05 1.41491 -0.694123 0
M  V30 11840 C 1145.3 2.0155 -0.224809 0
M  V30 11841 C 1145.63 1.54844 1.17205 0
M  V30 11842 O 1144.9 0.75899 1.7908 0
M  V30 11843 C 1145.19 3.59003 -0.280884 0
M  V30 11844 C 1145.04 4.15839 -1.71458 0
M  V30 11845 C 1146.36 4.38624 0.360122 0
M  V30 11846 H 1143.48 0.732293 -0.0831632 0
M  V30 11847 H 1146.12 1.68258 -0.882569 0
M  V30 11848 H 1144.27 3.87496 0.279164 0
M  V30 11849 H 1145.94 3.98227 -2.32837 0
M  V30 11850 H 1144.18 3.70936 -2.2492 0
M  V30 11851 H 1144.86 5.24997 -1.70536 0
M  V30 11852 H 1147.33 4.15936 -0.11683 0
M  V30 11853 H 1146.21 5.48132 0.290337 0
M  V30 11854 H 1146.47 4.1797 1.44062 0
M  V30 11855 N 1145.53 0.438773 1.51369 0
M  V30 11856 C 1146.94 -0.0240139 1.86685 0
M  V30 11857 C 1147.29 -1.41816 1.35583 0
M  V30 11858 O 1146.41 -2.04517 0.707232 0
M  V30 11859 C 1147.01 -0.0503527 3.38763 0
M  V30 11860 C 1145.57 -0.457556 3.73609 0
M  V30 11861 C 1144.72 0.348852 2.75097 0
M  V30 11862 H 1147.67 0.654552 1.44573 0
M  V30 11863 H 1147.69 -0.859534 3.70665 0
M  V30 11864 H 1147.2 0.964451 3.75925 0
M  V30 11865 H 1145.3 -1.47791 3.42036 0
M  V30 11866 H 1145.41 -0.181357 4.78757 0
M  V30 11867 H 1143.78 -0.193037 2.53967 0
M  V30 11868 H 1144.56 1.36256 3.15102 0
M  V30 11869 N 1147.01 -1.56678 0.170181 0
M  V30 11870 C 1148.23 -2.01223 -0.481362 0
M  V30 11871 C 1148.65 -1.05039 -1.56883 0
M  V30 11872 O 1148.01 -0.0510751 -1.82429 0
M  V30 11873 C 1148.06 -3.45588 -1.06073 0
M  V30 11874 O 1147.78 -4.38097 -0.0166754 0
M  V30 11875 C 1149.28 -4.05527 -1.79061 0
M  V30 11876 H 1146.5 -0.659574 -0.1233 0
M  V30 11877 H 1149.04 -2.02689 0.271576 0
M  V30 11878 H 1147.2 -3.449 -1.76417 0
M  V30 11879 H 1147.61 -5.22615 -0.444276 0
M  V30 11880 H 1149.09 -5.08467 -2.1486 0
M  V30 11881 H 1149.56 -3.47554 -2.68519 0
M  V30 11882 H 1150.17 -4.09914 -1.13361 0
M  V30 11883 N 1148.48 0.103547 -1.57259 0
M  V30 11884 C 1149.71 0.821158 -1.8958 0
M  V30 11885 C 1150.12 1.73213 -0.761184 0
M  V30 11886 O 1149.46 1.81611 0.27625 0
M  V30 11887 C 1149.53 1.69428 -3.17072 0
M  V30 11888 C 1149.19 0.956014 -4.46889 0
M  V30 11889 C 1150.19 0.289694 -5.19092 0
M  V30 11890 C 1147.87 0.932602 -4.93566 0
M  V30 11891 C 1149.87 -0.390164 -6.36205 0
M  V30 11892 C 1147.55 0.248954 -6.10593 0
M  V30 11893 C 1148.55 -0.411259 -6.81761 0
M  V30 11894 O 1148.24 -1.08396 -7.96559 0
M  V30 11895 H 1147.97 0.240508 -0.631769 0
M  V30 11896 H 1150.53 0.0877817 -2.05212 0
M  V30 11897 H 1148.76 2.46968 -2.97563 0
M  V30 11898 H 1150.44 2.28769 -3.3529 0
M  V30 11899 H 1151.21 0.299297 -4.84076 0
M  V30 11900 H 1147.09 1.43592 -4.38067 0
M  V30 11901 H 1150.63 -0.906057 -6.91691 0
M  V30 11902 H 1146.53 0.237168 -6.45064 0
M  V30 11903 H 1147.3 -0.990002 -8.12491 0
M  V30 11904 N 1149.96 1.53094 0.37415 0
M  V30 11905 C 1150.92 1.78264 1.44065 0
M  V30 11906 C 1151.92 0.652892 1.46949 0
M  V30 11907 O 1153.11 0.921046 1.47859 0
M  V30 11908 C 1150.25 1.89693 2.83248 0
M  V30 11909 H 1151.44 2.73505 1.23025 0
M  V30 11910 H 1148.99 1.44041 0.60678 0
M  V30 11911 H 1149.73 0.964884 3.09613 0
M  V30 11912 H 1149.51 2.71855 2.82554 0
M  V30 11913 H 1151 2.10787 3.60498 0
M  V30 11914 N 1151.44 -0.633461 1.44309 0
M  V30 11915 C 1152.4 -1.72743 1.50641 0
M  V30 11916 C 1153.4 -1.56031 0.388718 0
M  V30 11917 O 1154.59 -1.61568 0.651251 0
M  V30 11918 C 1151.72 -3.11804 1.37809 0
M  V30 11919 H 1152.92 -1.68503 2.48086 0
M  V30 11920 H 1150.47 -0.846912 1.31366 0
M  V30 11921 H 1151.21 -3.2164 0.414483 0
M  V30 11922 H 1150.99 -3.2534 2.18852 0
M  V30 11923 H 1152.48 -3.91538 1.45216 0
M  V30 11924 N 1152.92 -1.31168 -0.873655 0
M  V30 11925 C 1153.87 -1.18507 -1.98052 0
M  V30 11926 C 1154.84 -0.0717583 -1.65945 0
M  V30 11927 O 1156.02 -0.243965 -1.89234 0
M  V30 11928 C 1153.16 -0.894571 -3.33304 0
M  V30 11929 C 1152.27 -2.09086 -3.7803 0
M  V30 11930 C 1151.41 -1.73747 -5.01982 0
M  V30 11931 C 1150.45 -2.89805 -5.39147 0
M  V30 11932 N 1149.58 -2.54686 -6.54278 0
M  V30 11933 H 1154.42 -2.13193 -2.08213 0
M  V30 11934 H 1151.96 -1.06056 -1.01934 0
M  V30 11935 H 1153.92 -0.706714 -4.11171 0
M  V30 11936 H 1152.55 0.0154449 -3.22796 0
M  V30 11937 H 1151.6 -2.38961 -2.95976 0
M  V30 11938 H 1152.91 -2.95963 -4.01506 0
M  V30 11939 H 1152.07 -1.51402 -5.87505 0
M  V30 11940 H 1150.81 -0.840553 -4.80402 0
M  V30 11941 H 1149.81 -3.12803 -4.52144 0
M  V30 11942 H 1151.04 -3.802 -5.62694 0
M  V30 11943 H 1148.98 -1.67513 -6.34252 0
M  V30 11944 H 1148.9 -3.35093 -6.77679 0
M  V30 11945 H 1150.17 -2.35725 -7.43003 0
M  V30 11946 N 1154.4 1.08748 -1.14068 0
M  V30 11947 C 1155.33 2.1544 -0.782199 0
M  V30 11948 C 1156.34 1.61575 0.199301 0
M  V30 11949 O 1157.53 1.78487 -0.0219044 0
M  V30 11950 C 1154.63 3.38611 -0.13983 0
M  V30 11951 C 1153.8 4.2187 -1.15518 0
M  V30 11952 C 1152.86 5.23451 -0.537216 0
M  V30 11953 O 1151.89 5.56424 -1.1992 0
M  V30 11954 N 1153.09 5.76413 0.6876 0
M  V30 11955 H 1155.86 2.46798 -1.70032 0
M  V30 11956 H 1153.42 1.24527 -1.03463 0
M  V30 11957 H 1155.41 4.03688 0.285999 0
M  V30 11958 H 1153.98 3.05084 0.681357 0
M  V30 11959 H 1153.2 3.52825 -1.75806 0
M  V30 11960 H 1154.49 4.74318 -1.84119 0
M  V30 11961 H 1153.88 5.51851 1.24406 0
M  V30 11962 H 1152.44 6.43189 1.05599 0
M  V30 11963 N 1155.87 0.935264 1.26849 0
M  V30 11964 C 1157.29 0.623198 1.75992 0
M  V30 11965 C 1157.64 -0.861647 1.76267 0
M  V30 11966 O 1156.76 -1.6743 1.37099 0
M  V30 11967 C 1157.36 1.12451 3.19594 0
M  V30 11968 C 1155.92 0.862974 3.66374 0
M  V30 11969 C 1155.06 1.27886 2.4605 0
M  V30 11970 H 1158.01 1.11422 1.13008 0
M  V30 11971 H 1158.03 0.475626 3.77516 0
M  V30 11972 H 1157.55 2.20522 3.19361 0
M  V30 11973 H 1155.65 -0.203606 3.72043 0
M  V30 11974 H 1155.76 1.48582 4.55478 0
M  V30 11975 H 1154.12 0.697335 2.44968 0
M  V30 11976 H 1154.91 2.36837 2.48522 0
M  V30 11977 N 1157.35 -1.41121 0.701616 0
M  V30 11978 C 1158.28 -2.292 0.000880842 0
M  V30 11979 C 1159.3 -1.45102 -0.738192 0
M  V30 11980 O 1160.49 -1.68541 -0.587891 0
M  V30 11981 C 1157.59 -3.23094 -1.02292 0
M  V30 11982 C 1156.76 -4.35979 -0.352231 0
M  V30 11983 C 1155.82 -5.10408 -1.27947 0
M  V30 11984 O 1154.84 -5.63974 -0.769561 0
M  V30 11985 N 1156.05 -5.18442 -2.61147 0
M  V30 11986 H 1158.81 -2.8998 0.757094 0
M  V30 11987 H 1156.37 -1.52339 0.548126 0
M  V30 11988 H 1158.36 -3.69755 -1.64509 0
M  V30 11989 H 1156.93 -2.6358 -1.68061 0
M  V30 11990 H 1156.15 -3.91624 0.44992 0
M  V30 11991 H 1157.44 -5.08673 0.113882 0
M  V30 11992 H 1156.84 -4.76381 -3.05087 0
M  V30 11993 H 1155.4 -5.68659 -3.18544 0
M  V30 11994 N 1158.83 -0.446794 -1.51134 0
M  V30 11995 C 1159.76 0.395804 -2.25757 0
M  V30 11996 C 1160.78 0.978178 -1.30137 0
M  V30 11997 O 1161.96 0.87071 -1.55823 0
M  V30 11998 C 1159.06 1.56665 -3.00515 0
M  V30 11999 C 1158.24 1.10146 -4.23305 0
M  V30 12000 C 1157.3 2.14352 -4.80562 0
M  V30 12001 O 1156.32 1.73401 -5.42145 0
M  V30 12002 N 1157.52 3.46932 -4.65423 0
M  V30 12003 H 1160.29 -0.243808 -2.98707 0
M  V30 12004 H 1157.85 -0.276205 -1.59527 0
M  V30 12005 H 1159.84 2.26019 -3.35704 0
M  V30 12006 H 1158.41 2.11142 -2.30516 0
M  V30 12007 H 1157.63 0.234644 -3.93501 0
M  V30 12008 H 1158.92 0.768185 -5.02968 0
M  V30 12009 H 1158.32 3.82929 -4.16391 0
M  V30 12010 H 1156.88 4.12154 -5.04948 0
M  V30 12011 N 1160.31 1.56586 -0.178487 0
M  V30 12012 C 1161.56 1.97098 0.464617 0
M  V30 12013 C 1161.88 1.06476 1.62767 0
M  V30 12014 O 1161.14 0.100337 1.95443 0
M  V30 12015 C 1161.44 3.43629 0.982552 0
M  V30 12016 C 1161.1 4.50853 -0.0653645 0
M  V30 12017 C 1159.77 4.79901 -0.353349 0
M  V30 12018 C 1162.12 5.15387 -0.776279 0
M  V30 12019 C 1159.45 5.70779 -1.35751 0
M  V30 12020 C 1161.8 6.07349 -1.76948 0
M  V30 12021 C 1160.46 6.34761 -2.06483 0
M  V30 12022 H 1159.73 0.721232 0.170016 0
M  V30 12023 H 1162.38 1.89559 -0.271959 0
M  V30 12024 H 1160.68 3.48155 1.79709 0
M  V30 12025 H 1162.38 3.7232 1.48926 0
M  V30 12026 H 1158.97 4.28266 0.169266 0
M  V30 12027 H 1163.15 4.9305 -0.567008 0
M  V30 12028 H 1158.41 5.90298 -1.59244 0
M  V30 12029 H 1162.58 6.56419 -2.32567 0
M  V30 12030 H 1160.21 7.0498 -2.84441 0
M  V30 12031 N 1161.79 -0.095206 1.57312 0
M  V30 12032 C 1163.2 -0.649733 1.7503 0
M  V30 12033 C 1163.55 -1.7912 0.800652 0
M  V30 12034 O 1162.67 -2.1639 -0.0208831 0
M  V30 12035 C 1163.27 -1.18541 3.17386 0
M  V30 12036 C 1161.83 -1.686 3.36528 0
M  V30 12037 C 1160.97 -0.595531 2.7083 0
M  V30 12038 H 1163.93 0.130863 1.5816 0
M  V30 12039 H 1163.95 -2.05473 3.20252 0
M  V30 12040 H 1163.46 -0.35441 3.86478 0
M  V30 12041 H 1161.56 -2.541 2.72514 0
M  V30 12042 H 1161.67 -1.77907 4.44844 0
M  V30 12043 H 1160.04 -1.03495 2.32725 0
M  V30 12044 H 1160.82 0.224883 3.42563 0
M  V30 12045 N 1163.26 -1.53291 -0.366026 0
M  V30 12046 C 1164.49 -1.73665 -1.13381 0
M  V30 12047 C 1164.91 -0.464284 -1.8228 0
M  V30 12048 O 1164.27 0.581645 -1.71717 0
M  V30 12049 C 1164.32 -2.90225 -2.14013 0
M  V30 12050 O 1163.42 -2.58803 -3.21084 0
M  V30 12051 H 1162.77 -0.576762 -0.329 0
M  V30 12052 H 1165.3 -2.00174 -0.423287 0
M  V30 12053 H 1165.31 -3.16378 -2.57622 0
M  V30 12054 H 1163.98 -3.82518 -1.63257 0
M  V30 12055 H 1162.56 -2.43466 -2.82451 0
M  V30 12056 N 1164.74 0.6258 -1.44643 0
M  V30 12057 C 1166.16 0.944569 -1.28647 0
M  V30 12058 C 1166.36 2.00227 -0.226134 0
M  V30 12059 O 1165.41 2.4953 0.386161 0
M  V30 12060 C 1166.73 1.40278 -2.65975 0
M  V30 12061 C 1168.28 1.51797 -2.73727 0
M  V30 12062 C 1168.75 2.01 -4.11537 0
M  V30 12063 N 1170.24 2.08262 -4.13741 0
M  V30 12064 C 1170.98 2.47515 -5.17227 0
M  V30 12065 N 1170.47 2.85867 -6.31072 0
M  V30 12066 N 1172.27 2.47695 -5.04583 0
M  V30 12067 H 1164.42 -0.0736157 -2.12272 0
M  V30 12068 H 1166.68 0.0296998 -0.947535 0
M  V30 12069 H 1166.39 0.699871 -3.44666 0
M  V30 12070 H 1166.26 2.37279 -2.93221 0
M  V30 12071 H 1168.65 2.21183 -1.95351 0
M  V30 12072 H 1168.73 0.531574 -2.50216 0
M  V30 12073 H 1168.37 1.32207 -4.90391 0
M  V30 12074 H 1168.3 3.0052 -4.32429 0
M  V30 12075 H 1170.79 1.81286 -3.31578 0
M  V30 12076 H 1171.11 3.14647 -7.05845 0
M  V30 12077 H 1169.45 2.83605 -6.34502 0
M  V30 12078 H 1172.64 2.17127 -4.14697 0
M  V30 12079 H 1172.81 2.77962 -5.85356 0
M  V30 12080 N 1166.22 1.31629 0.866686 0
M  V30 12081 C 1167.63 1.19347 1.43573 0
M  V30 12082 C 1167.98 -0.198765 1.95191 0
M  V30 12083 O 1167.11 -1.09674 1.86549 0
M  V30 12084 C 1167.7 2.16055 2.6097 0
M  V30 12085 C 1166.26 2.07697 3.13909 0
M  V30 12086 C 1165.41 2.05099 1.86627 0
M  V30 12087 H 1168.36 1.43633 0.674929 0
M  V30 12088 H 1168.38 1.75207 3.37761 0
M  V30 12089 H 1167.89 3.17375 2.23371 0
M  V30 12090 H 1165.99 1.09583 3.56121 0
M  V30 12091 H 1166.11 2.96958 3.75969 0
M  V30 12092 H 1164.47 1.50162 2.05727 0
M  V30 12093 H 1165.25 3.0818 1.51261 0
M  V30 12094 N 1167.7 -1.08142 1.14644 0
M  V30 12095 C 1169.11 -1.62061 0.926986 0
M  V30 12096 C 1169.46 -1.88805 -0.533578 0
M  V30 12097 O 1168.59 -1.64753 -1.40305 0
M  V30 12098 C 1169.18 -2.94425 1.67629 0
M  V30 12099 C 1167.74 -3.45118 1.50235 0
M  V30 12100 C 1166.89 -2.19307 1.69705 0
M  V30 12101 H 1169.84 -0.913326 1.29785 0
M  V30 12102 H 1169.86 -3.62987 1.14107 0
M  V30 12103 H 1169.37 -2.74928 2.73927 0
M  V30 12104 H 1167.47 -3.69713 0.462967 0
M  V30 12105 H 1167.59 -4.2169 2.27408 0
M  V30 12106 H 1165.95 -2.28611 1.12291 0
M  V30 12107 H 1166.73 -2.02315 2.77351 0
M  V30 12108 N 1169.18 -0.941978 -1.26351 0
M  V30 12109 C 1170.59 -0.632522 -1.75659 0
M  V30 12110 C 1170.94 0.852287 -1.76722 0
M  V30 12111 O 1170.06 1.66701 -1.37985 0
M  V30 12112 C 1170.66 -1.14145 -3.18993 0
M  V30 12113 C 1169.22 -0.882391 -3.65911 0
M  V30 12114 C 1168.37 -1.29189 -2.45368 0
M  V30 12115 H 1171.32 -1.12019 -1.12416 0
M  V30 12116 H 1171.34 -0.495639 -3.77258 0
M  V30 12117 H 1170.85 -2.22213 -3.18187 0
M  V30 12118 H 1168.95 0.183873 -3.72146 0
M  V30 12119 H 1169.06 -1.50996 -4.54683 0
M  V30 12120 H 1167.43 -0.710316 -2.44595 0
M  V30 12121 H 1168.21 -2.38152 -2.47262 0
M  V30 12122 N 1170.66 1.40747 -0.709091 0
M  V30 12123 C 1172.07 1.83955 -0.318968 0
M  V30 12124 C 1172.42 1.59304 1.14527 0
M  V30 12125 O 1171.54 1.07052 1.88066 0
M  V30 12126 C 1172.14 3.33934 -0.572147 0
M  V30 12127 C 1170.7 3.75661 -0.235802 0
M  V30 12128 C 1169.84 2.64024 -0.847743 0
M  V30 12129 H 1172.79 1.30107 -0.908734 0
M  V30 12130 H 1172.82 3.80143 0.164752 0
M  V30 12131 H 1172.33 3.51844 -1.63791 0
M  V30 12132 H 1170.43 3.63348 0.825164 0
M  V30 12133 H 1170.54 4.73955 -0.700263 0
M  V30 12134 H 1168.91 2.53197 -0.276283 0
M  V30 12135 H 1169.69 2.84748 -1.91765 0
M  V30 12136 N 1172.13 0.454803 1.50895 0
M  V30 12137 C 1173.07 -0.383826 2.25963 0
M  V30 12138 C 1174.08 -0.971263 1.30653 0
M  V30 12139 O 1175.27 -0.862434 1.56283 0
M  V30 12140 C 1172.37 -1.55069 3.01342 0
M  V30 12141 C 1171.54 -1.07899 4.23883 0
M  V30 12142 C 1170.6 -2.118 4.81692 0
M  V30 12143 O 1169.63 -1.70523 5.43057 0
M  V30 12144 N 1170.83 -3.44459 4.67256 0
M  V30 12145 H 1173.59 0.259646 2.98573 0
M  V30 12146 H 1171.15 0.284661 1.59378 0
M  V30 12147 H 1173.15 -2.24236 3.36898 0
M  V30 12148 H 1171.72 -2.09917 2.31633 0
M  V30 12149 H 1170.94 -0.213773 3.9362 0
M  V30 12150 H 1172.22 -0.741501 5.03368 0
M  V30 12151 H 1171.62 -3.80716 4.18416 0
M  V30 12152 H 1170.18 -4.0947 5.07127 0
M  V30 12153 N 1173.61 -1.56489 0.186789 0
M  V30 12154 C 1175.02 -1.83809 -0.327265 0
M  V30 12155 C 1175.37 -1.10718 -1.61976 0
M  V30 12156 O 1174.5 -0.36525 -2.13295 0
M  V30 12157 C 1175.09 -3.33435 -0.600551 0
M  V30 12158 C 1173.65 -3.61195 -1.059 0
M  V30 12159 C 1172.8 -2.77108 -0.103131 0
M  V30 12160 H 1175.75 -1.53292 0.410747 0
M  V30 12161 H 1175.77 -3.51754 -1.45084 0
M  V30 12162 H 1175.28 -3.86605 0.340315 0
M  V30 12163 H 1173.38 -3.13451 -2.01443 0
M  V30 12164 H 1173.5 -4.69435 -0.957458 0
M  V30 12165 H 1171.86 -2.47448 -0.603449 0
M  V30 12166 H 1172.64 -3.33065 0.832031 0
M  V30 12167 N 1175.09 0.086862 -1.5736 0
M  V30 12168 C 1176.04 1.10478 -2.02641 0
M  V30 12169 C 1177.01 1.39331 -0.904219 0
M  V30 12170 O 1178.19 1.50654 -1.17081 0
M  V30 12171 C 1175.33 2.41754 -2.4627 0
M  V30 12172 C 1174.44 2.19561 -3.72044 0
M  V30 12173 C 1173.58 3.44294 -4.04519 0
M  V30 12174 C 1172.62 3.17399 -5.23378 0
M  V30 12175 N 1171.76 4.3442 -5.51564 0
M  V30 12176 H 1176.6 0.711663 -2.89378 0
M  V30 12177 H 1174.13 0.339856 -1.4312 0
M  V30 12178 H 1176.09 3.18378 -2.69613 0
M  V30 12179 H 1174.72 2.78896 -1.62532 0
M  V30 12180 H 1173.77 1.337 -3.5613 0
M  V30 12181 H 1175.08 1.95685 -4.58812 0
M  V30 12182 H 1174.24 4.29321 -4.28682 0
M  V30 12183 H 1172.98 3.71232 -3.16289 0
M  V30 12184 H 1171.98 2.30765 -4.99026 0
M  V30 12185 H 1173.21 2.91799 -6.13213 0
M  V30 12186 H 1171.15 4.61418 -4.66293 0
M  V30 12187 H 1171.07 4.13764 -6.3272 0
M  V30 12188 H 1172.34 5.20489 -5.80269 0
M  V30 12189 N 1176.57 1.53483 0.357892 0
M  V30 12190 C 1177.81 1.70289 1.10134 0
M  V30 12191 C 1178.15 0.457296 1.88739 0
M  V30 12192 O 1177.42 -0.545527 1.86693 0
M  V30 12193 C 1177.7 2.95755 2.05429 0
M  V30 12194 C 1177.56 4.30489 1.30382 0
M  V30 12195 C 1178.88 3.16844 3.05447 0
M  V30 12196 H 1176 0.61965 0.399003 0
M  V30 12197 H 1178.64 1.86133 0.381357 0
M  V30 12198 H 1176.79 2.82377 2.66825 0
M  V30 12199 H 1178.46 4.55692 0.71711 0
M  V30 12200 H 1176.7 4.2955 0.605712 0
M  V30 12201 H 1177.37 5.14427 2.00171 0
M  V30 12202 H 1179.85 3.29458 2.54159 0
M  V30 12203 H 1178.73 4.06053 3.69341 0
M  V30 12204 H 1178.99 2.32476 3.76041 0
M  V30 12205 N 1178.05 -0.61812 1.44973 0
M  V30 12206 C 1179.27 -1.40921 1.52171 0
M  V30 12207 C 1179.7 -1.87487 0.151755 0
M  V30 12208 O 1179.05 -1.59518 -0.861606 0
M  V30 12209 C 1179.1 -2.59689 2.50188 0
M  V30 12210 O 1178.21 -3.59967 2.0124 0
M  V30 12211 H 1177.55 -0.421138 0.51336 0
M  V30 12212 H 1180.08 -0.753258 1.90229 0
M  V30 12213 H 1180.09 -3.07069 2.6865 0
M  V30 12214 H 1178.76 -2.25144 3.4969 0
M  V30 12215 H 1177.34 -3.19308 1.92605 0
M  V30 12216 N 1179.52 -1.32087 -0.859693 0
M  V30 12217 C 1180.75 -1.25486 -1.6513 0
M  V30 12218 C 1181.17 0.175015 -1.87284 0
M  V30 12219 O 1180.53 1.12468 -1.42199 0
M  V30 12220 C 1180.58 -2.01469 -2.9907 0
M  V30 12221 O 1179.68 -1.35904 -3.89363 0
M  V30 12222 H 1179.02 -0.432728 -0.503629 0
M  V30 12223 H 1181.55 -1.74322 -1.07112 0
M  V30 12224 H 1181.56 -2.11452 -3.4893 0
M  V30 12225 H 1180.24 -3.05448 -2.82266 0
M  V30 12226 H 1178.82 -1.34437 -3.47823 0
M  V30 12227 N 1181 1.07532 -1.15215 0
M  V30 12228 C 1181.93 2.14598 -0.805006 0
M  V30 12229 C 1182.95 1.61778 0.182152 0
M  V30 12230 O 1184.14 1.78453 -0.040834 0
M  V30 12231 C 1181.24 3.38444 -0.175736 0
M  V30 12232 C 1180.41 4.20621 -1.19986 0
M  V30 12233 C 1179.47 5.22851 -0.592705 0
M  V30 12234 O 1178.49 5.55121 -1.25815 0
M  V30 12235 N 1179.7 5.7711 0.626425 0
M  V30 12236 H 1182.46 2.44981 -1.7264 0
M  V30 12237 H 1180.02 1.23423 -1.04778 0
M  V30 12238 H 1182.01 4.03969 0.243166 0
M  V30 12239 H 1180.58 3.0579 0.64896 0
M  V30 12240 H 1179.8 3.50941 -1.79539 0
M  V30 12241 H 1181.09 4.72339 -1.89139 0
M  V30 12242 H 1180.49 5.53139 1.18546 0
M  V30 12243 H 1179.05 6.44273 0.98771 0
M  V30 12244 N 1182.48 0.948665 1.2585 0
M  V30 12245 C 1183.73 0.59905 1.93018 0
M  V30 12246 C 1184.05 -0.865813 1.74725 0
M  V30 12247 O 1183.32 -1.61602 1.10732 0
M  V30 12248 H 1181.9 0.218565 0.71431 0
M  V30 12249 H 1184.56 1.20561 1.53137 0
M  V30 12250 H 1183.66 0.823244 3.01047 0
M  V30 12251 N 1183.96 -1.40369 0.716545 0
M  V30 12252 C 1184.91 -2.32539 0.053472 0
M  V30 12253 C 1185.9 -1.5209 -0.745984 0
M  V30 12254 O 1187.11 -1.67883 -0.649245 0
M  V30 12255 H 1183.48 -0.751998 -0.00151088 0
M  V30 12256 H 1185.45 -2.86111 0.847535 0
M  V30 12257 C 1184.2 -3.37061 -0.853515 0
M  V30 12258 H 1183.52 -3.99032 -0.247754 0
M  V30 12259 H 1184.96 -4.04046 -1.28541 0
M  V30 12260 C 1183.42 -2.72619 -1.97941 0
M  V30 12261 O 1183.95 -2.59024 -3.07033 0
M  V30 12262 N 1182.16 -2.30988 -1.76332 0
M  V30 12263 H 1181.71 -2.42246 -0.876063 0
M  V30 12264 H 1181.66 -1.88209 -2.51843 0
M  V30 12265 N 1185.44 -0.462799 -1.50652 0
M  V30 12266 C 1186.37 0.325724 -2.31217 0
M  V30 12267 C 1187.35 0.997942 -1.3775 0
M  V30 12268 O 1188.53 0.996707 -1.66671 0
M  V30 12269 C 1185.66 1.41283 -3.17264 0
M  V30 12270 C 1184.62 0.862687 -4.19216 0
M  V30 12271 C 1183.94 2.04746 -4.93946 0
M  V30 12272 C 1185.24 -0.120365 -5.22161 0
M  V30 12273 H 1186.94 -0.346666 -2.97386 0
M  V30 12274 H 1184.48 -0.168163 -1.43015 0
M  V30 12275 H 1186.44 1.97188 -3.72418 0
M  V30 12276 H 1185.16 2.11387 -2.48964 0
M  V30 12277 H 1183.82 0.325671 -3.65151 0
M  V30 12278 H 1183.47 2.73529 -4.22127 0
M  V30 12279 H 1183.17 1.68562 -5.62904 0
M  V30 12280 H 1184.69 2.61157 -5.51932 0
M  V30 12281 H 1186.1 0.349226 -5.72235 0
M  V30 12282 H 1184.5 -0.396061 -5.98792 0
M  V30 12283 H 1185.57 -1.04895 -4.73418 0
M  V30 12284 N 1186.91 1.56388 -0.195085 0
M  V30 12285 C 1188.16 1.96755 0.443901 0
M  V30 12286 C 1188.48 1.08483 1.6276 0
M  V30 12287 O 1189.68 1.38632 2.33438 0
M  V30 12288 C 1188.14 3.49933 0.841139 0
M  V30 12289 C 1187.75 4.46868 -0.318275 0
M  V30 12290 C 1189.49 3.99069 1.44721 0
M  V30 12291 C 1187.4 5.91316 0.0999211 0
M  V30 12292 H 1186.33 0.734674 0.169616 0
M  V30 12293 H 1188.98 1.8124 -0.287101 0
M  V30 12294 H 1187.36 3.60951 1.62881 0
M  V30 12295 H 1188.53 4.47581 -1.0958 0
M  V30 12296 H 1186.85 4.07925 -0.835842 0
M  V30 12297 H 1189.45 5.04465 1.77255 0
M  V30 12298 H 1189.79 3.43376 2.35369 0
M  V30 12299 H 1190.32 3.91165 0.723513 0
M  V30 12300 H 1187.06 6.50934 -0.77237 0
M  V30 12301 H 1186.58 5.93856 0.842304 0
M  V30 12302 H 1188.26 6.44778 0.535726 0
M  V30 12303 N 1188.39 -0.0785156 1.57404 0
M  V30 12304 C 1189.8 -0.631132 1.75709 0
M  V30 12305 C 1190.15 -1.78261 0.819605 0
M  V30 12306 O 1189.28 -2.164 0.00206912 0
M  V30 12307 C 1189.87 -1.15168 3.18625 0
M  V30 12308 C 1188.43 -1.65021 3.38297 0
M  V30 12309 C 1187.58 -0.566773 2.71446 0
M  V30 12310 H 1190.53 0.147631 1.58012 0
M  V30 12311 H 1190.55 -2.02065 3.22413 0
M  V30 12312 H 1190.06 -0.313399 3.86833 0
M  V30 12313 H 1188.17 -2.51196 2.75194 0
M  V30 12314 H 1188.28 -1.73179 4.46706 0
M  V30 12315 H 1186.64 -1.01021 2.33809 0
M  V30 12316 H 1187.43 0.261204 3.42305 0
M  V30 12317 N 1189.87 -1.5367 -0.349747 0
M  V30 12318 C 1190.83 -1.80533 -1.41211 0
M  V30 12319 C 1191.83 -0.676188 -1.45892 0
M  V30 12320 O 1193.02 -0.944453 -1.46375 0
M  V30 12321 C 1190.16 -1.94175 -2.80195 0
M  V30 12322 H 1191.35 -2.75428 -1.18658 0
M  V30 12323 H 1188.9 -1.44988 -0.583787 0
M  V30 12324 H 1189.64 -1.01402 -3.08039 0
M  V30 12325 H 1189.42 -2.76316 -2.78194 0
M  V30 12326 H 1190.91 -2.16496 -3.57098 0
M  V30 12327 N 1191.35 0.610423 -1.45298 0
M  V30 12328 C 1192.76 0.930872 -1.29642 0
M  V30 12329 C 1192.96 1.99976 -0.247358 0
M  V30 12330 O 1192.02 2.49925 0.359674 0
M  V30 12331 C 1193.33 1.37449 -2.67448 0
M  V30 12332 C 1194.88 1.48885 -2.75322 0
M  V30 12333 C 1195.36 1.96624 -4.13646 0
M  V30 12334 N 1196.85 2.03862 -4.15926 0
M  V30 12335 C 1197.58 2.42015 -5.19823 0
M  V30 12336 N 1197.08 2.79157 -6.34069 0
M  V30 12337 N 1198.87 2.42329 -5.07181 0
M  V30 12338 H 1191.02 -0.0961259 -2.12182 0
M  V30 12339 H 1193.29 0.0196483 -0.947796 0
M  V30 12340 H 1192.99 0.663276 -3.45389 0
M  V30 12341 H 1192.87 2.34155 -2.95721 0
M  V30 12342 H 1195.25 2.19098 -1.97686 0
M  V30 12343 H 1195.33 0.505006 -2.50765 0
M  V30 12344 H 1194.98 1.26998 -4.91766 0
M  V30 12345 H 1194.91 2.95917 -4.35592 0
M  V30 12346 H 1197.4 1.77759 -3.33482 0
M  V30 12347 H 1197.71 3.07143 -7.09142 0
M  V30 12348 H 1196.06 2.7686 -6.37474 0
M  V30 12349 H 1199.25 2.12717 -4.16976 0
M  V30 12350 H 1199.42 2.71738 -5.88271 0
M  V30 12351 N 1192.83 1.32541 0.852676 0
M  V30 12352 C 1194.24 1.20863 1.42299 0
M  V30 12353 C 1194.59 -0.178051 1.9539 0
M  V30 12354 O 1193.71 -1.07689 1.87702 0
M  V30 12355 C 1194.31 2.18811 2.58664 0
M  V30 12356 C 1192.87 2.11015 3.11689 0
M  V30 12357 C 1192.01 2.07067 1.84441 0
M  V30 12358 H 1194.97 1.44341 0.659657 0
M  V30 12359 H 1194.99 1.78779 3.35884 0
M  V30 12360 H 1194.5 3.19726 2.19993 0
M  V30 12361 H 1192.6 1.13354 3.54939 0
M  V30 12362 H 1192.71 3.00929 3.72799 0
M  V30 12363 H 1191.08 1.52335 2.04123 0
M  V30 12364 H 1191.86 3.09767 1.47984 0
M  V30 12365 N 1194.3 -1.0692 1.15784 0
M  V30 12366 C 1195.27 -2.12407 0.861167 0
M  V30 12367 C 1196.27 -1.6018 -0.141031 0
M  V30 12368 O 1197.46 -1.73972 0.0891192 0
M  V30 12369 C 1194.59 -3.39693 0.286636 0
M  V30 12370 H 1195.78 -2.40157 1.79623 0
M  V30 12371 H 1193.34 -1.22881 0.965916 0
M  V30 12372 H 1194.07 -3.17587 -0.656417 0
M  V30 12373 H 1193.86 -3.78903 1.0087 0
M  V30 12374 H 1195.35 -4.17488 0.0967971 0
M  V30 12375 N 1195.78 -0.955326 -1.25345 0
M  V30 12376 C 1197.19 -0.651118 -1.74978 0
M  V30 12377 C 1197.54 0.833495 -1.77616 0
M  V30 12378 O 1196.67 1.65228 -1.39745 0
M  V30 12379 C 1197.26 -1.17521 -3.17764 0
M  V30 12380 C 1195.82 -0.921151 -3.64954 0
M  V30 12381 C 1194.97 -1.31784 -2.43984 0
M  V30 12382 H 1197.92 -1.13205 -1.11222 0
M  V30 12383 H 1197.94 -0.535625 -3.76711 0
M  V30 12384 H 1197.45 -2.25575 -3.15813 0
M  V30 12385 H 1195.56 0.144392 -3.7232 0
M  V30 12386 H 1195.67 -1.5581 -4.53056 0
M  V30 12387 H 1194.03 -0.736219 -2.43828 0
M  V30 12388 H 1194.82 -2.40761 -2.44723 0
M  V30 12389 N 1197.26 1.39987 -0.723979 0
M  V30 12390 C 1198.22 2.29041 -0.0854583 0
M  V30 12391 C 1199.22 1.45777 0.678657 0
M  V30 12392 O 1200.41 1.66588 0.509311 0
M  V30 12393 C 1197.55 3.29115 0.88859 0
M  V30 12394 H 1198.74 2.87006 -0.869903 0
M  V30 12395 H 1196.29 1.48449 -0.489136 0
M  V30 12396 H 1197.03 2.76184 1.69979 0
M  V30 12397 H 1196.81 3.90593 0.343454 0
M  V30 12398 H 1198.3 3.95778 1.33227 0
M  V30 12399 N 1198.74 0.470782 1.50404 0
M  V30 12400 C 1200.15 0.0155901 1.86693 0
M  V30 12401 C 1200.5 -1.38908 1.38561 0
M  V30 12402 O 1199.63 -2.02971 0.750454 0
M  V30 12403 C 1200.22 0.0215152 3.38793 0
M  V30 12404 C 1198.78 -0.378206 3.74495 0
M  V30 12405 C 1197.93 0.407126 2.74295 0
M  V30 12406 H 1200.88 0.68507 1.43152 0
M  V30 12407 H 1200.9 -0.780717 3.72404 0
M  V30 12408 H 1200.41 1.04397 3.73795 0
M  V30 12409 H 1198.51 -1.40503 3.45094 0
M  V30 12410 H 1198.63 -0.0797643 4.79034 0
M  V30 12411 H 1196.99 -0.139123 2.5432 0
M  V30 12412 H 1197.77 1.42909 3.12141 0
M  V30 12413 N 1200.22 -1.56282 0.203376 0
M  V30 12414 C 1201.63 -1.84146 -0.307752 0
M  V30 12415 C 1201.98 -1.12429 -1.60792 0
M  V30 12416 O 1201.1 -0.387852 -2.12896 0
M  V30 12417 C 1201.7 -3.34053 -0.565152 0
M  V30 12418 C 1200.26 -3.62298 -1.02063 0
M  V30 12419 C 1199.41 -2.77202 -0.0737343 0
M  V30 12420 H 1202.36 -1.52848 0.426983 0
M  V30 12421 H 1202.38 -3.53273 -1.41345 0
M  V30 12422 H 1201.89 -3.86222 0.381301 0
M  V30 12423 H 1199.99 -3.1557 -1.98107 0
M  V30 12424 H 1200.1 -4.70424 -0.907614 0
M  V30 12425 H 1198.47 -2.48074 -0.577169 0
M  V30 12426 H 1199.25 -3.32164 0.86731 0
M  V30 12427 N 1201.7 0.070167 -1.57444 0
M  V30 12428 C 1202.63 1.08351 -2.06839 0
M  V30 12429 C 1203.61 1.40269 -0.962224 0
M  V30 12430 O 1204.79 1.49867 -1.23505 0
M  V30 12431 C 1201.92 2.39649 -2.51368 0
M  V30 12432 C 1200.88 2.22079 -3.65875 0
M  V30 12433 C 1200.2 3.58776 -3.96464 0
M  V30 12434 C 1201.5 1.64069 -4.95862 0
M  V30 12435 H 1203.2 0.672465 -2.9175 0
M  V30 12436 H 1200.74 0.322027 -1.40353 0
M  V30 12437 H 1202.69 3.10833 -2.84537 0
M  V30 12438 H 1201.42 2.82736 -1.63487 0
M  V30 12439 H 1200.08 1.53337 -3.32992 0
M  V30 12440 H 1199.73 3.99436 -3.05712 0
M  V30 12441 H 1199.43 3.47859 -4.7357 0
M  V30 12442 H 1200.95 4.31387 -4.32131 0
M  V30 12443 H 1202.36 2.2512 -5.27251 0
M  V30 12444 H 1200.76 1.63843 -5.773 0
M  V30 12445 H 1201.83 0.60232 -4.81145 0
M  V30 12446 N 1203.17 1.53854 0.341593 0
M  V30 12447 C 1204.4 1.7488 1.10002 0
M  V30 12448 C 1204.81 0.488802 1.82777 0
M  V30 12449 O 1204.15 -0.549333 1.75294 0
M  V30 12450 C 1204.22 2.87604 2.15694 0
M  V30 12451 C 1203.88 4.27142 1.62477 0
M  V30 12452 C 1204.88 5.08642 1.07606 0
M  V30 12453 C 1202.56 4.73633 1.67265 0
M  V30 12454 C 1204.56 6.34735 0.582284 0
M  V30 12455 C 1202.24 5.99697 1.175 0
M  V30 12456 C 1203.24 6.80081 0.630742 0
M  V30 12457 O 1202.93 8.03777 0.140519 0
M  V30 12458 H 1202.66 0.587824 0.333824 0
M  V30 12459 H 1205.22 2.01488 0.398965 0
M  V30 12460 H 1203.45 2.56526 2.89364 0
M  V30 12461 H 1205.13 2.96583 2.77117 0
M  V30 12462 H 1205.9 4.73887 1.03227 0
M  V30 12463 H 1201.78 4.11121 2.08567 0
M  V30 12464 H 1205.32 6.97424 0.156811 0
M  V30 12465 H 1201.22 6.33947 1.21579 0
M  V30 12466 H 1201.99 8.18094 0.257626 0
M  V30 12467 N 1204.65 -0.602709 1.4562 0
M  V30 12468 C 1205.88 -1.39299 1.53657 0
M  V30 12469 C 1206.3 -1.87315 0.171632 0
M  V30 12470 O 1205.66 -1.60423 -0.844639 0
M  V30 12471 C 1205.71 -2.57021 2.52928 0
M  V30 12472 O 1204.81 -3.57812 2.05047 0
M  V30 12473 H 1204.15 -0.41567 0.517798 0
M  V30 12474 H 1206.68 -0.73304 1.91018 0
M  V30 12475 H 1206.69 -3.04202 2.71892 0
M  V30 12476 H 1205.37 -2.21422 3.52058 0
M  V30 12477 H 1203.94 -3.17247 1.95981 0
M  V30 12478 N 1206.13 -1.32992 -0.845635 0
M  V30 12479 C 1207.35 -1.27231 -1.6379 0
M  V30 12480 C 1207.78 0.155141 -1.87459 0
M  V30 12481 O 1207.14 1.10953 -1.43384 0
M  V30 12482 C 1207.19 -2.04629 -2.96916 0
M  V30 12483 O 1206.29 -1.40027 -3.879 0
M  V30 12484 H 1205.63 -0.438045 -0.499011 0
M  V30 12485 H 1208.16 -1.75448 -1.05257 0
M  V30 12486 H 1208.17 -2.15141 -3.46667 0
M  V30 12487 H 1206.85 -3.08425 -2.79011 0
M  V30 12488 H 1205.42 -1.38118 -3.46378 0
M  V30 12489 N 1207.61 1.06304 -1.1635 0
M  V30 12490 C 1208.54 2.15745 -0.893103 0
M  V30 12491 C 1209.52 1.69341 0.160531 0
M  V30 12492 O 1210.7 1.94196 0.0126526 0
M  V30 12493 C 1207.83 3.45066 -0.393287 0
M  V30 12494 C 1206.79 4.04978 -1.38482 0
M  V30 12495 C 1206.11 5.29507 -0.743409 0
M  V30 12496 C 1207.41 4.4377 -2.75438 0
M  V30 12497 H 1209.11 2.38622 -1.80831 0
M  V30 12498 H 1206.65 1.14681 -0.870878 0
M  V30 12499 H 1208.61 4.20964 -0.191607 0
M  V30 12500 H 1207.33 3.21808 0.557426 0
M  V30 12501 H 1205.99 3.31136 -1.57304 0
M  V30 12502 H 1205.64 5.02545 0.213787 0
M  V30 12503 H 1205.34 5.7055 -1.40521 0
M  V30 12504 H 1206.86 6.08102 -0.551746 0
M  V30 12505 H 1208.28 5.1075 -2.60398 0
M  V30 12506 H 1206.67 4.95797 -3.38091 0
M  V30 12507 H 1207.74 3.54636 -3.30699 0
M  V30 12508 N 1209.09 0.96196 1.24836 0
M  V30 12509 C 1210.31 0.63814 1.96813 0
M  V30 12510 C 1210.73 -0.79127 1.71419 0
M  V30 12511 O 1210.09 -1.5302 0.994546 0
M  V30 12512 C 1210.14 0.89626 3.50213 0
M  V30 12513 O 1209.86 2.26947 3.74735 0
M  V30 12514 C 1211.36 0.585836 4.39412 0
M  V30 12515 H 1208.58 0.238598 0.627146 0
M  V30 12516 H 1211.12 1.28833 1.58815 0
M  V30 12517 H 1209.28 0.292368 3.86295 0
M  V30 12518 H 1209.69 2.34514 4.69152 0
M  V30 12519 H 1211.17 0.816935 5.45921 0
M  V30 12520 H 1211.64 -0.479784 4.36572 0
M  V30 12521 H 1212.25 1.16938 4.08908 0
M  V30 12522 O 1210.6 -1.36112 0.869244 0
M  V30 12523 H 1211.29 -1.87947 0.468586 0
M  V30 END ATOM
M  V30 BEGIN BOND
M  V30 END BOND
M  V30 END CTAB
M  END
$$$$
