drugbank_target|Q13574 Diacylglycerol kinase zeta (DB14001)
 OpenBabel12092121233D

  0  0  0     0  0            999 V3000
M  V30 BEGIN CTAB
M  V30 COUNTS 17412 17625 0 0 0
M  V30 BEGIN ATOM
M  V30 1 H -0.908 1.98254 -0.117106 0
M  V30 2 N 0 1.576 0 0
M  V30 3 C 0.933 2.03868 1.02534 0
M  V30 4 C 1.911 0.928543 1.3348 0
M  V30 5 O 3.095 1.19667 1.45644 0
M  V30 6 C 0.222 2.43627 2.35294 0
M  V30 7 C -0.732 3.65373 2.2001 0
M  V30 8 S 0.101 5.13292 1.52614 0
M  V30 9 C 1.257 5.56322 2.86805 0
M  V30 10 H 1.49 2.90518 0.631377 0
M  V30 11 H -0.977 1.52953 0.210867 0
M  V30 12 H 0.981 2.67203 3.11629 0
M  V30 13 H -0.358 1.57376 2.7183 0
M  V30 14 H -1.165 3.90944 3.18086 0
M  V30 15 H -1.563 3.418 1.51819 0
M  V30 16 H 0.729 5.58782 3.83104 0
M  V30 17 H 1.672 6.56266 2.65933 0
M  V30 18 H 2.08 4.83886 2.90714 0
M  V30 19 N 1.4781 -0.272755 1.55222 0
M  V30 20 C 2.3881 -1.35918 1.91216 0
M  V30 21 C 3.4041 -1.54026 0.809436 0
M  V30 22 O 4.5801 -1.68148 1.10852 0
M  V30 23 C 1.6451 -2.69834 2.17693 0
M  V30 24 C 0.7061 -2.6047 3.41253 0
M  V30 25 C -0.0609 -3.88 3.66458 0
M  V30 26 O 0.1621 -4.88693 2.94169 0
M  V30 27 O -0.9039 -3.88189 4.59992 0
M  V30 28 H 2.9221 -1.0839 2.83699 0
M  V30 29 H 0.5071 -0.471301 1.41771 0
M  V30 30 H 2.3891 -3.49017 2.36147 0
M  V30 31 H 1.0641 -2.97148 1.28392 0
M  V30 32 H -0.0289 -1.79663 3.28134 0
M  V30 33 H 1.3041 -2.38106 4.30774 0
M  V30 34 N 2.9562 -1.48159 -0.537278 0
M  V30 35 C 4.1842 -1.59454 -1.31841 0
M  V30 36 C 4.5992 -0.252065 -1.8711 0
M  V30 37 O 3.9562 0.757621 -1.66031 0
M  V30 38 C 4.0072 -2.63546 -2.47439 0
M  V30 39 O 3.7282 -3.92583 -1.94449 0
M  V30 40 C 5.2292 -2.85212 -3.39366 0
M  V30 41 H 2.4492 -0.53785 -0.401196 0
M  V30 42 H 4.9932 -1.93932 -0.648891 0
M  V30 43 H 3.1482 -2.31946 -3.1029 0
M  V30 44 H 3.5622 -4.49629 -2.70063 0
M  V30 45 H 5.0362 -3.61863 -4.16844 0
M  V30 46 H 5.5132 -1.93765 -3.94147 0
M  V30 47 H 6.1192 -3.18086 -2.82314 0
M  V30 48 N 4.4343 0.785586 -1.36625 0
M  V30 49 C 5.6813 1.54362 -1.31067 0
M  V30 50 C 6.0093 1.94195 0.10893 0
M  V30 51 O 5.2643 1.63262 1.07908 0
M  V30 52 C 5.5633 2.83007 -2.1827 0
M  V30 53 C 5.2293 2.62294 -3.6676 0
M  V30 54 C 3.8913 2.56353 -4.0723 0
M  V30 55 C 6.2433 2.43371 -4.6089 0
M  V30 56 C 3.5713 2.29461 -5.39967 0
M  V30 57 C 5.9233 2.18005 -5.93849 0
M  V30 58 C 4.5873 2.105 -6.3344 0
M  V30 59 H 3.8573 0.564851 -0.479609 0
M  V30 60 H 6.5043 0.906028 -1.68711 0
M  V30 61 H 4.8093 3.51253 -1.73576 0
M  V30 62 H 6.5063 3.40817 -2.11292 0
M  V30 63 H 3.0963 2.67774 -3.34656 0
M  V30 64 H 7.2803 2.46959 -4.30494 0
M  V30 65 H 2.5363 2.22135 -5.69619 0
M  V30 66 H 6.7103 2.02359 -6.66351 0
M  V30 67 H 4.3373 1.89425 -7.36222 0
M  V30 68 N 5.9124 1.20967 1.01018 0
M  V30 69 C 7.1594 1.02374 1.74716 0
M  V30 70 C 7.4874 -0.443375 1.89379 0
M  V30 71 O 6.7424 -1.34535 1.42123 0
M  V30 72 C 7.0414 1.65997 3.16512 0
M  V30 73 C 6.7074 3.15831 3.2181 0
M  V30 74 C 5.3694 3.56719 3.22963 0
M  V30 75 C 7.7214 4.11816 3.19464 0
M  V30 76 C 5.0494 4.92107 3.19449 0
M  V30 77 C 7.4014 5.47158 3.17491 0
M  V30 78 C 6.0654 5.87451 3.16951 0
M  V30 79 H 5.3354 0.374614 0.639332 0
M  V30 80 H 7.9824 1.50485 1.18434 0
M  V30 81 H 6.2874 1.10166 3.75993 0
M  V30 82 H 7.9844 1.49119 3.72242 0
M  V30 83 H 4.5744 2.83263 3.21652 0
M  V30 84 H 8.7584 3.81257 3.17737 0
M  V30 85 H 4.0144 5.22579 3.17366 0
M  V30 86 H 8.1884 6.21274 3.14629 0
M  V30 87 H 5.8154 6.92329 3.13983 0
M  V30 88 N 7.3905 -1.2043 1.01659 0
M  V30 89 C 8.8065 -1.41852 0.731442 0
M  V30 90 C 9.0065 -1.89358 -0.688898 0
M  V30 91 O 8.0625 -2.06247 -1.45666 0
M  V30 92 C 9.3755 -2.44019 1.75714 0
M  V30 93 C 10.9235 -2.57785 1.77527 0
M  V30 94 C 11.3985 -3.63194 2.79023 0
M  V30 95 N 12.8895 -3.70678 2.77763 0
M  V30 96 C 13.6245 -4.51897 3.52954 0
M  V30 97 N 13.1205 -5.36921 4.37821 0
M  V30 98 N 14.9135 -4.4643 3.41551 0
M  V30 99 H 7.0645 -0.879093 1.93354 0
M  V30 100 H 9.3275 -0.448425 0.835236 0
M  V30 101 H 9.0335 -2.1611 2.77469 0
M  V30 102 H 8.9075 -3.43007 1.56927 0
M  V30 103 H 11.2945 -2.85023 0.764569 0
M  V30 104 H 11.3755 -1.58992 2.00387 0
M  V30 105 H 11.0195 -3.36699 3.80258 0
M  V30 106 H 10.9495 -4.61609 2.53425 0
M  V30 107 H 13.4405 -3.09944 2.16201 0
M  V30 108 H 13.7535 -5.95981 4.91962 0
M  V30 109 H 12.0985 -5.36424 4.41899 0
M  V30 110 H 15.2895 -3.79042 2.74672 0
M  V30 111 H 15.4625 -5.09491 4.00404 0
M  V30 112 N 8.8686 -0.792821 -1.36206 0
M  V30 113 C 10.2846 -0.474903 -1.52371 0
M  V30 114 C 10.4846 1.00622 -1.74578 0
M  V30 115 O 9.5406 1.79162 -1.77924 0
M  V30 116 C 10.8536 -1.3083 -2.70747 0
M  V30 117 C 12.4016 -1.30234 -2.84619 0
M  V30 118 C 12.8766 -2.11956 -4.06004 0
M  V30 119 N 14.3676 -2.09419 -4.13156 0
M  V30 120 C 15.1026 -2.69419 -5.06163 0
M  V30 121 N 14.5986 -3.3829 -6.04592 0
M  V30 122 N 16.3916 -2.59134 -4.98804 0
M  V30 123 H 8.5426 -1.75222 -1.20046 0
M  V30 124 H 10.8056 -0.745024 -0.586211 0
M  V30 125 H 10.5116 -2.35881 -2.6087 0
M  V30 126 H 10.3856 -0.95196 -3.6499 0
M  V30 127 H 12.7726 -0.259748 -2.93955 0
M  V30 128 H 12.8536 -1.69847 -1.91274 0
M  V30 129 H 12.4976 -3.16248 -3.97429 0
M  V30 130 H 12.4276 -1.69711 -4.98503 0
M  V30 131 H 14.9186 -1.59297 -3.42685 0
M  V30 132 H 15.2316 -3.81394 -6.7213 0
M  V30 133 H 13.5766 -3.42393 -6.04807 0
M  V30 134 H 16.7676 -2.04927 -4.20859 0
M  V30 135 H 16.9406 -3.06185 -5.711 0
M  V30 136 N 10.3467 1.47872 -0.545128 0
M  V30 137 C 11.2967 2.26842 0.229456 0
M  V30 138 C 12.2807 1.33626 0.896267 0
M  V30 139 O 13.4727 1.58063 0.79657 0
M  V30 140 C 10.6017 3.19089 1.26638 0
M  V30 141 C 9.6877 4.19783 0.603598 0
M  V30 142 N 10.0787 5.0479 -0.319405 0
M  V30 143 C 8.3767 4.3765 0.858989 0
M  V30 144 C 9.0777 5.77433 -0.703241 0
M  V30 145 N 8.0537 5.43566 -0.0608309 0
M  V30 146 H 11.8557 2.89947 -0.480391 0
M  V30 147 H 9.3697 1.58263 -0.364209 0
M  V30 148 H 11.3667 3.74337 1.83515 0
M  V30 149 H 10.0267 2.5754 1.97745 0
M  V30 150 H 11.0377 5.13244 -0.692889 0
M  V30 151 H 7.7147 3.87281 1.55948 0
M  V30 152 H 9.1047 6.55824 -1.46098 0
M  V30 153 N 11.8248 0.280983 1.55075 0
M  V30 154 C 13.0718 -0.334115 1.99725 0
M  V30 155 C 13.3998 -1.5542 1.1694 0
M  V30 156 O 12.6548 -1.94361 0.228531 0
M  V30 157 C 12.9538 -0.754656 3.49342 0
M  V30 158 C 12.6198 0.361445 4.49449 0
M  V30 159 C 11.2818 0.667893 4.76542 0
M  V30 160 C 13.6338 1.11322 5.09173 0
M  V30 161 C 10.9618 1.7296 5.60626 0
M  V30 162 C 13.3138 2.1647 5.9441 0
M  V30 163 C 11.9778 2.47742 6.19822 0
M  V30 164 H 11.2478 -0.122261 0.730844 0
M  V30 165 H 13.8948 0.395917 1.87363 0
M  V30 166 H 12.1998 -1.56446 3.5921 0
M  V30 167 H 13.8968 -1.24142 3.813 0
M  V30 168 H 10.4868 0.112481 4.28452 0
M  V30 169 H 14.6708 0.88973 4.8826 0
M  V30 170 H 9.9268 1.97684 5.78559 0
M  V30 171 H 14.1008 2.75193 6.3972 0
M  V30 172 H 11.7278 3.30145 6.84769 0
M  V30 173 N 13.3029 -1.57598 0.00835791 0
M  V30 174 C 14.7189 -1.55764 -0.347822 0
M  V30 175 C 14.9189 -1.01186 -1.74252 0
M  V30 176 O 13.9749 -0.649371 -2.44007 0
M  V30 177 C 15.2879 -2.99927 -0.215407 0
M  V30 178 C 16.8359 -3.11656 -0.289725 0
M  V30 179 C 17.3109 -4.57621 -0.18634 0
M  V30 180 N 18.8019 -4.62557 -0.243978 0
M  V30 181 C 19.5369 -5.73094 -0.18745 0
M  V30 182 N 19.0329 -6.92753 -0.0810331 0
M  V30 183 N 20.8259 -5.61588 -0.239925 0
M  V30 184 H 12.9769 -1.91411 0.92062 0
M  V30 185 H 15.2399 -0.879562 0.353659 0
M  V30 186 H 14.9459 -3.43729 0.744512 0
M  V30 187 H 14.8199 -3.63865 -0.994097 0
M  V30 188 H 17.2069 -2.67779 -1.24009 0
M  V30 189 H 17.2879 -2.5048 0.51898 0
M  V30 190 H 16.9319 -5.02174 0.760519 0
M  V30 191 H 16.8619 -5.16752 -1.01364 0
M  V30 192 H 19.3529 -3.76481 -0.327217 0
M  V30 193 H 19.6659 -7.72787 -0.0440241 0
M  V30 194 H 18.0109 -6.94984 -0.0465419 0
M  V30 195 H 21.2019 -4.66996 -0.321317 0
M  V30 196 H 21.3749 -6.47714 -0.192407 0
M  V30 197 N 14.781 0.264519 -1.55364 0
M  V30 198 C 16.029 0.993021 -1.76021 0
M  V30 199 C 16.35 1.86511 -0.569099 0
M  V30 200 O 15.62 1.91438 0.415735 0
M  V30 201 H 14.2 0.369639 -0.649135 0
M  V30 202 H 16.862 0.286707 -1.9278 0
M  V30 203 H 15.958 1.62502 -2.66457 0
M  V30 204 N 16.2591 1.48442 0.529413 0
M  V30 205 C 17.2061 1.63007 1.63394 0
M  V30 206 C 18.1761 0.47212 1.59249 0
M  V30 207 O 19.3611 0.695673 1.77666 0
M  V30 208 C 16.5011 1.6763 3.01653 0
M  V30 209 C 15.6141 2.94535 3.16027 0
M  V30 210 C 14.7491 2.90316 4.44849 0
M  V30 211 C 13.7881 4.11923 4.52754 0
M  V30 212 N 12.9251 4.05777 5.72965 0
M  V30 213 H 17.7651 2.5733 1.50285 0
M  V30 214 H 15.3021 1.27613 0.731656 0
M  V30 215 H 17.2601 1.68292 3.81751 0
M  V30 216 H 15.8901 0.76797 3.13532 0
M  V30 217 H 14.9421 3.03615 2.29177 0
M  V30 218 H 16.2541 3.84512 3.17729 0
M  V30 219 H 15.4081 2.89382 5.33238 0
M  V30 220 H 14.1471 1.98068 4.45668 0
M  V30 221 H 13.1521 4.13131 3.62771 0
M  V30 222 H 14.3771 5.0533 4.53672 0
M  V30 223 H 12.3231 3.16351 5.74681 0
M  V30 224 H 12.2401 4.8946 5.76164 0
M  V30 225 H 13.5081 4.08904 6.6364 0
M  V30 226 N 17.7372 -0.778329 1.37039 0
M  V30 227 C 18.9832 -1.53892 1.32079 0
M  V30 228 C 19.3162 -1.9396 -0.0965386 0
M  V30 229 O 18.5912 -1.63568 -1.05242 0
M  V30 230 C 18.8742 -2.80847 2.25382 0
M  V30 231 C 18.7272 -2.47076 3.75864 0
M  V30 232 C 20.0462 -3.82741 2.1725 0
M  V30 233 H 17.1652 -0.558303 0.48111 0
M  V30 234 H 19.8072 -0.893397 1.67685 0
M  V30 235 H 17.9572 -3.35931 1.95148 0
M  V30 236 H 19.6292 -1.97957 4.16666 0
M  V30 237 H 17.8722 -1.79863 3.94755 0
M  V30 238 H 18.5432 -3.37798 4.36574 0
M  V30 239 H 21.0192 -3.37133 2.43887 0
M  V30 240 H 19.8952 -4.69303 2.84686 0
M  V30 241 H 20.1562 -4.2652 1.16331 0
M  V30 242 N 19.2153 -1.21501 -1.00376 0
M  V30 243 C 20.6263 -1.03146 -1.55621 0
M  V30 244 C 20.9773 0.408375 -1.91903 0
M  V30 245 O 20.1023 1.29177 -1.73616 0
M  V30 246 C 20.6973 -1.86612 -2.82775 0
M  V30 247 C 19.2563 -1.72586 -3.34501 0
M  V30 248 C 18.4033 -1.83747 -2.07683 0
M  V30 249 H 21.3543 -1.35505 -0.826081 0
M  V30 250 H 21.3753 -1.3771 -3.54706 0
M  V30 251 H 20.8873 -2.91399 -2.56336 0
M  V30 252 H 18.9883 -0.704877 -3.65872 0
M  V30 253 H 19.1013 -2.54623 -4.05837 0
M  V30 254 H 17.4653 -1.27069 -2.20739 0
M  V30 255 H 18.2483 -2.90044 -1.83655 0
M  V30 256 N 20.6934 1.19889 -1.02296 0
M  V30 257 C 21.9414 1.89046 -0.714558 0
M  V30 258 C 22.2624 1.79636 0.758681 0
M  V30 259 O 21.5324 1.20292 1.54618 0
M  V30 260 H 20.1124 0.699802 -0.261317 0
M  V30 261 H 22.7744 1.45574 -1.29592 0
M  V30 262 H 21.8704 2.95524 -1.0036 0
M  V30 263 N 22.1715 0.800033 1.35784 0
M  V30 264 C 23.5825 0.439142 1.81462 0
M  V30 265 C 23.9335 -1.03813 1.66485 0
M  V30 266 O 23.0585 -1.80626 1.19177 0
M  V30 267 C 23.6535 0.790314 3.29453 0
M  V30 268 C 22.2125 0.482111 3.733 0
M  V30 269 C 21.3595 1.01938 2.57883 0
M  V30 270 H 24.3105 0.992254 1.23855 0
M  V30 271 H 24.3315 0.0853677 3.80404 0
M  V30 272 H 23.8435 1.86554 3.40322 0
M  V30 273 H 21.9445 -0.584652 3.67984 0
M  V30 274 H 22.0575 1.01015 4.6833 0
M  V30 275 H 20.4215 0.442043 2.50835 0
M  V30 276 H 21.2045 2.10059 2.71533 0
M  V30 277 N 23.6496 -1.47581 0.552962 0
M  V30 278 C 24.8976 -2.02082 0.0272703 0
M  V30 279 C 25.2186 -1.4301 -1.32563 0
M  V30 280 O 24.4886 -0.603745 -1.86365 0
M  V30 281 H 23.0686 -0.746966 0.00709182 0
M  V30 282 H 25.7306 -1.81033 0.722008 0
M  V30 283 H 24.8266 -3.12034 -0.0639951 0
M  V30 284 N 25.1277 -0.289203 -1.54924 0
M  V30 285 C 26.0377 0.601863 -2.26748 0
M  V30 286 C 27.0537 1.15834 -1.2984 0
M  V30 287 O 28.2297 1.18564 -1.62802 0
M  V30 288 C 25.2947 1.76299 -2.98529 0
M  V30 289 C 24.3557 1.24178 -4.10948 0
M  V30 290 C 23.5887 2.34757 -4.79296 0
M  V30 291 O 23.8117 3.54411 -4.46933 0
M  V30 292 O 22.7457 2.02115 -5.66951 0
M  V30 293 H 26.5717 0.0195879 -3.03694 0
M  V30 294 H 24.1567 -0.0560868 -1.49295 0
M  V30 295 H 26.0387 2.43973 -3.43592 0
M  V30 296 H 24.7137 2.33209 -2.24488 0
M  V30 297 H 23.6207 0.531104 -3.70311 0
M  V30 298 H 24.9537 0.718252 -4.86931 0
M  V30 299 N 26.6058 1.57591 -0.0167156 0
M  V30 300 C 27.8538 1.90906 0.663285 0
M  V30 301 C 28.1748 0.892509 1.73376 0
M  V30 302 O 27.4448 -0.0677623 1.95783 0
M  V30 303 H 26.0248 0.704637 0.247983 0
M  V30 304 H 28.6868 1.94803 -0.0615909 0
M  V30 305 H 27.7828 2.9116 1.12393 0
M  V30 306 N 28.0839 -0.256276 1.55502 0
M  V30 307 C 29.0159 -1.33981 1.85962 0
M  V30 308 C 30.0289 -1.44743 0.745212 0
M  V30 309 O 31.2179 -1.4626 1.02324 0
M  V30 310 C 28.3179 -2.7194 2.02242 0
M  V30 311 C 27.4909 -2.83562 3.33033 0
M  V30 312 C 26.5499 -4.02304 3.39172 0
M  V30 313 O 25.5759 -3.92273 4.12444 0
M  V30 314 N 26.7779 -5.15045 2.67784 0
M  V30 315 H 29.5429 -1.08191 2.7949 0
M  V30 316 H 27.1039 -0.446388 1.55624 0
M  V30 317 H 29.0959 -3.49697 2.03701 0
M  V30 318 H 27.6659 -2.90479 1.15502 0
M  V30 319 H 26.8859 -1.92555 3.43971 0
M  V30 320 H 28.1739 -2.88271 4.19258 0
M  V30 321 H 27.5719 -5.26085 2.07968 0
M  V30 322 H 26.1289 -5.90972 2.74947 0
M  V30 323 N 29.562 -1.4872 -0.521534 0
M  V30 324 C 30.494 -1.59968 -1.64143 0
M  V30 325 C 31.507 -0.483463 -1.55456 0
M  V30 326 O 32.696 -0.75467 -1.61762 0
M  V30 327 C 29.796 -1.52127 -3.02838 0
M  V30 328 C 28.969 -2.78932 -3.36921 0
M  V30 329 C 28.028 -2.64428 -4.54933 0
M  V30 330 O 27.054 -3.38331 -4.57735 0
M  V30 331 N 28.256 -1.74606 -5.53618 0
M  V30 332 H 31.021 -2.56548 -1.54929 0
M  V30 333 H 28.582 -1.45551 -0.708988 0
M  V30 334 H 30.574 -1.40106 -3.79674 0
M  V30 335 H 29.144 -0.634868 -3.06085 0
M  V30 336 H 28.364 -3.05455 -2.4918 0
M  V30 337 H 29.652 -3.63041 -3.56481 0
M  V30 338 H 29.05 -1.13782 -5.54139 0
M  V30 339 H 27.607 -1.6852 -6.29638 0
M  V30 340 N 31.0401 0.771051 -1.3745 0
M  V30 341 C 32.4561 1.07171 -1.18265 0
M  V30 342 C 32.6561 2.01491 -0.019287 0
M  V30 343 O 31.7121 2.44244 0.640408 0
M  V30 344 C 33.0251 1.66854 -2.50161 0
M  V30 345 C 34.5731 1.79109 -2.56689 0
M  V30 346 C 35.0481 2.42205 -3.88717 0
M  V30 347 N 36.5391 2.49655 -3.90162 0
M  V30 348 C 37.2741 2.9933 -4.8907 0
M  V30 349 N 36.7701 3.49172 -5.98374 0
M  V30 350 N 38.5631 2.9821 -4.76474 0
M  V30 351 H 30.7141 0.144796 -2.11906 0
M  V30 352 H 32.9771 0.126863 -0.939473 0
M  V30 353 H 32.6831 1.05017 -3.35655 0
M  V30 354 H 32.5571 2.6614 -2.673 0
M  V30 355 H 34.9441 2.40077 -1.71601 0
M  V30 356 H 35.0251 0.785757 -2.43433 0
M  V30 357 H 34.6691 1.81875 -4.74219 0
M  V30 358 H 34.5991 3.43345 -3.99276 0
M  V30 359 H 37.0901 2.14383 -3.11205 0
M  V30 360 H 37.4031 3.8548 -6.69795 0
M  V30 361 H 35.7481 3.47275 -6.02018 0
M  V30 362 H 38.9391 2.58572 -3.90203 0
M  V30 363 H 39.1121 3.36613 -5.53711 0
M  V30 364 N 32.5182 1.22032 0.997298 0
M  V30 365 C 33.9292 1.0397 1.55071 0
M  V30 366 C 34.2802 -0.398192 1.92117 0
M  V30 367 O 33.4052 -1.28254 1.74298 0
M  V30 368 C 34.0002 1.88109 2.81781 0
M  V30 369 C 32.5592 1.74357 3.33581 0
M  V30 370 C 31.7062 1.84846 2.06706 0
M  V30 371 H 34.6572 1.35941 0.818883 0
M  V30 372 H 34.6782 1.39589 3.53971 0
M  V30 373 H 34.1902 2.92754 2.54787 0
M  V30 374 H 32.2912 0.72427 3.65493 0
M  V30 375 H 32.4042 2.56772 4.04481 0
M  V30 376 H 30.7682 1.28238 2.20062 0
M  V30 377 H 31.5512 2.91014 1.82114 0
M  V30 378 N 33.9963 -1.19345 1.0293 0
M  V30 379 C 35.2213 -1.93538 0.745511 0
M  V30 380 C 35.6463 -1.75007 -0.689511 0
M  V30 381 O 35.0043 -1.05265 -1.47611 0
M  V30 382 C 35.0523 -3.43336 1.10239 0
M  V30 383 O 34.1563 -4.11806 0.221289 0
M  V30 384 H 33.4973 -0.604193 0.275404 0
M  V30 385 H 36.0273 -1.5141 1.37609 0
M  V30 386 H 36.0373 -3.94004 1.05947 0
M  V30 387 H 34.7123 -3.56146 2.14786 0
M  V30 388 H 33.2893 -3.715 0.322842 0
M  V30 389 N 35.4744 -0.807222 -1.35358 0
M  V30 390 C 36.6994 -0.399309 -2.0352 0
M  V30 391 C 37.1244 0.981986 -1.60433 0
M  V30 392 O 36.4824 1.63601 -0.781299 0
M  V30 393 C 36.5304 -0.491552 -3.57234 0
M  V30 394 O 35.6344 0.494754 -4.09421 0
M  V30 395 H 34.9754 -0.166682 -0.642739 0
M  V30 396 H 37.5054 -1.09328 -1.72941 0
M  V30 397 H 37.5154 -0.361588 -4.06395 0
M  V30 398 H 36.1904 -1.49907 -3.87944 0
M  V30 399 H 34.7674 0.324977 -3.71481 0
M  V30 400 N 36.9525 1.47285 -0.560781 0
M  V30 401 C 38.1985 2.02764 -0.0381184 0
M  V30 402 C 38.5315 1.43384 1.30976 0
M  V30 403 O 37.8065 0.590733 1.85312 0
M  V30 404 C 38.0895 3.60064 0.0511427 0
M  V30 405 C 37.9425 4.2987 -1.32408 0
M  V30 406 C 39.2615 4.33439 0.762795 0
M  V30 407 H 36.3805 0.736841 -0.0153264 0
M  V30 408 H 39.0225 1.75675 -0.723759 0
M  V30 409 H 37.1725 3.83274 0.635065 0
M  V30 410 H 38.8445 4.17989 -1.95148 0
M  V30 411 H 37.0875 3.90085 -1.8978 0
M  V30 412 H 37.7585 5.38478 -1.21431 0
M  V30 413 H 40.2345 4.15243 0.266965 0
M  V30 414 H 39.1105 5.43124 0.794221 0
M  V30 415 H 39.3715 4.02915 1.81966 0
M  V30 416 N 38.4306 0.297415 1.54768 0
M  V30 417 C 39.6786 -0.312295 1.99673 0
M  V30 418 C 39.9996 -1.54686 1.18732 0
M  V30 419 O 39.2696 -1.93854 0.282382 0
M  V30 420 H 37.8496 -0.118381 0.73756 0
M  V30 421 H 40.5116 0.407915 1.90583 0
M  V30 422 H 39.6076 -0.586813 3.06534 0
M  V30 423 N 39.9087 -1.5758 0.0250728 0
M  V30 424 C 40.8387 -2.13007 -0.956575 0
M  V30 425 C 41.8197 -1.0452 -1.342 0
M  V30 426 O 43.0047 -1.32332 -1.42133 0
M  V30 427 C 40.1347 -2.65386 -2.24026 0
M  V30 428 C 39.0887 -3.78623 -1.99571 0
M  V30 429 C 38.4147 -4.17414 -3.3417 0
M  V30 430 C 39.7147 -5.04867 -1.33814 0
M  V30 431 H 41.4087 -2.9528 -0.494991 0
M  V30 432 H 38.9547 -1.42042 -0.236651 0
M  V30 433 H 40.9077 -3.02794 -2.93076 0
M  V30 434 H 39.6317 -1.80268 -2.72343 0
M  V30 435 H 38.2907 -3.41646 -1.32941 0
M  V30 436 H 37.9387 -3.29284 -3.80238 0
M  V30 437 H 37.6387 -4.93719 -3.18615 0
M  V30 438 H 39.1627 -4.57402 -4.04495 0
M  V30 439 H 40.5767 -5.39888 -1.92857 0
M  V30 440 H 38.9737 -5.86144 -1.28669 0
M  V30 441 H 40.0437 -4.83904 -0.310561 0
M  V30 442 N 41.3868 0.248026 -1.55636 0
M  V30 443 C 42.7978 0.817177 -1.67866 0
M  V30 444 C 43.1488 1.86069 -0.622322 0
M  V30 445 O 42.2738 2.15157 0.231618 0
M  V30 446 C 42.8688 1.489 -3.04326 0
M  V30 447 C 41.4278 2.00587 -3.185 0
M  V30 448 C 40.5748 0.856573 -2.63739 0
M  V30 449 H 43.5258 0.0238579 -1.58682 0
M  V30 450 H 43.5468 2.35698 -2.98708 0
M  V30 451 H 43.0588 0.729279 -3.81186 0
M  V30 452 H 41.1598 2.79443 -2.4646 0
M  V30 453 H 41.2728 2.20402 -4.25393 0
M  V30 454 H 39.6368 1.25678 -2.21534 0
M  V30 455 H 40.4198 0.109953 -3.43124 0
M  V30 456 N 42.8649 1.48995 0.513639 0
M  V30 457 C 44.0929 1.61531 1.29288 0
M  V30 458 C 44.5079 0.281801 1.86685 0
M  V30 459 O 43.8649 -0.731111 1.67215 0
M  V30 460 C 43.9159 2.67449 2.43215 0
M  V30 461 O 43.6369 3.95626 1.88179 0
M  V30 462 C 45.1379 2.90575 3.34785 0
M  V30 463 H 42.3579 0.544165 0.392588 0
M  V30 464 H 44.9019 1.9494 0.617956 0
M  V30 465 H 43.0569 2.36853 3.0656 0
M  V30 466 H 43.4709 4.53868 2.62876 0
M  V30 467 H 44.9449 3.68449 4.11035 0
M  V30 468 H 45.4219 2.00011 3.91015 0
M  V30 469 H 46.0279 3.22538 2.77218 0
M  V30 470 N 44.343 -0.763751 1.37857 0
M  V30 471 C 45.591 -1.51957 1.33243 0
M  V30 472 C 45.912 -1.94835 -0.0801709 0
M  V30 473 O 45.182 -1.66894 -1.02582 0
M  V30 474 H 43.762 -0.563626 0.49024 0
M  V30 475 H 46.424 -0.908504 1.7243 0
M  V30 476 H 45.52 -2.41523 1.97669 0
M  V30 477 N 45.8211 -1.22559 -0.990812 0
M  V30 478 C 46.7681 -0.997519 -2.0813 0
M  V30 479 C 47.7381 0.0814702 -1.659 0
M  V30 480 O 48.9231 -0.0685424 -1.90677 0
M  V30 481 C 46.0631 -0.583615 -3.40129 0
M  V30 482 C 45.1761 -1.7336 -3.9569 0
M  V30 483 C 44.3111 -1.26748 -5.15857 0
M  V30 484 C 43.3501 -2.38888 -5.63559 0
M  V30 485 N 42.4871 -1.93308 -6.74964 0
M  V30 486 H 47.3271 -1.93099 -2.26973 0
M  V30 487 H 44.8641 -0.962114 -1.11273 0
M  V30 488 H 46.8221 -0.324801 -4.15934 0
M  V30 489 H 45.4521 0.312845 -3.2128 0
M  V30 490 H 44.5041 -2.10669 -3.16738 0
M  V30 491 H 45.8161 -2.57704 -4.27071 0
M  V30 492 H 44.9701 -0.966173 -5.98957 0
M  V30 493 H 43.7091 -0.394272 -4.86104 0
M  V30 494 H 42.7141 -2.69805 -4.79046 0
M  V30 495 H 43.9391 -3.26728 -5.95336 0
M  V30 496 H 41.8851 -1.08352 -6.4699 0
M  V30 497 H 41.8021 -2.71217 -7.05675 0
M  V30 498 H 43.0701 -1.66252 -7.61564 0
M  V30 499 N 47.2992 1.18797 -1.03562 0
M  V30 500 C 48.2622 2.20464 -0.626769 0
M  V30 501 C 49.2622 1.57721 0.313173 0
M  V30 502 O 50.4522 1.73917 0.0992615 0
M  V30 503 C 47.5842 3.40802 0.0818498 0
M  V30 504 H 48.7772 2.58149 -1.5264 0
M  V30 505 H 46.3302 1.32593 -0.827578 0
M  V30 506 H 47.0652 3.08642 0.995518 0
M  V30 507 H 46.8502 3.8758 -0.593652 0
M  V30 508 H 48.3402 4.16092 0.354584 0
M  V30 509 N 48.7773 0.814389 1.34928 0
M  V30 510 C 50.1933 0.499084 1.51596 0
M  V30 511 C 50.3933 -0.978319 1.76157 0
M  V30 512 O 49.4493 -1.76309 1.80752 0
M  V30 513 C 50.7623 1.35121 2.68631 0
M  V30 514 C 52.3103 1.34746 2.82511 0
M  V30 515 C 52.7853 2.18388 4.0258 0
M  V30 516 N 54.2763 2.15966 4.09772 0
M  V30 517 C 55.0113 2.77437 5.01813 0
M  V30 518 N 54.5073 3.47866 5.99134 0
M  V30 519 N 56.3003 2.67037 4.94619 0
M  V30 520 H 48.4513 1.7711 1.17243 0
M  V30 521 H 50.7143 0.754256 0.574284 0
M  V30 522 H 50.4203 2.40001 2.57085 0
M  V30 523 H 50.2943 1.00991 3.63429 0
M  V30 524 H 52.6813 0.30648 2.93504 0
M  V30 525 H 52.7623 1.72869 1.88547 0
M  V30 526 H 52.4063 3.2253 3.92347 0
M  V30 527 H 52.3363 1.77621 4.9574 0
M  V30 528 H 54.8273 1.64729 3.40107 0
M  V30 529 H 55.1403 3.92038 6.65977 0
M  V30 530 H 53.4853 3.51972 5.99284 0
M  V30 531 H 56.6763 2.11597 4.17546 0
M  V30 532 H 56.8493 3.15232 5.66156 0
M  V30 533 N 50.2554 -1.46986 0.568584 0
M  V30 534 C 51.6714 -1.57946 0.229189 0
M  V30 535 C 51.8714 -1.56567 -1.26843 0
M  V30 536 O 50.9274 -1.47511 -2.04931 0
M  V30 537 C 52.2404 -2.87963 0.865909 0
M  V30 538 C 53.7884 -3.01568 0.838188 0
M  V30 539 C 54.2634 -4.34301 1.45419 0
M  V30 540 N 55.7544 -4.40965 1.41788 0
M  V30 541 C 56.4894 -5.42256 1.86403 0
M  V30 542 N 55.9854 -6.50297 2.38926 0
M  V30 543 N 57.7784 -5.3337 1.77405 0
M  V30 544 H 49.9294 -1.46126 1.54146 0
M  V30 545 H 52.1924 -0.696156 0.643484 0
M  V30 546 H 51.8984 -2.94742 1.91886 0
M  V30 547 H 51.7724 -3.75423 0.365687 0
M  V30 548 H 54.1594 -2.94379 -0.206106 0
M  V30 549 H 54.2404 -2.1562 1.37629 0
M  V30 550 H 53.8844 -4.42247 2.49761 0
M  V30 551 H 53.8144 -5.19 0.891435 0
M  V30 552 H 56.3054 -3.63484 1.03381 0
M  V30 553 H 56.6184 -7.23777 2.70863 0
M  V30 554 H 54.9634 -6.51155 2.42944 0
M  V30 555 H 58.1544 -4.47865 1.3614 0
M  V30 556 H 58.3274 -6.12169 2.12492 0
M  V30 557 N 51.7335 -0.305618 -1.54608 0
M  V30 558 C 53.1495 0.0476228 -1.59529 0
M  V30 559 C 53.3495 1.52025 -1.32252 0
M  V30 560 O 52.4055 2.27368 -1.09818 0
M  V30 561 C 53.7185 -0.354471 -2.98603 0
M  V30 562 C 55.2665 -0.303622 -3.11524 0
M  V30 563 C 55.7415 -0.680608 -4.52915 0
M  V30 564 N 57.2325 -0.63332 -4.5885 0
M  V30 565 C 57.9675 -0.897432 -5.66334 0
M  V30 566 N 57.4635 -1.22775 -6.81834 0
M  V30 567 N 59.2565 -0.824186 -5.56025 0
M  V30 568 H 51.4075 -1.2653 -1.70599 0
M  V30 569 H 53.6705 -0.513291 -0.797017 0
M  V30 570 H 53.3765 -1.3798 -3.23503 0
M  V30 571 H 53.2505 0.289568 -3.76087 0
M  V30 572 H 55.6375 0.712472 -2.8637 0
M  V30 573 H 55.7185 -0.982348 -2.36185 0
M  V30 574 H 55.3625 -1.69453 -4.78799 0
M  V30 575 H 55.2925 0.0202385 -5.26596 0
M  V30 576 H 57.7835 -0.389138 -3.75891 0
M  V30 577 H 58.0965 -1.41513 -7.59733 0
M  V30 578 H 56.4415 -1.26583 -6.83375 0
M  V30 579 H 59.6325 -0.565748 -4.64669 0
M  V30 580 H 59.8055 -1.03338 -6.39707 0
M  V30 581 N 53.2116 1.57565 -0.0334293 0
M  V30 582 C 54.4366 1.96689 0.657895 0
M  V30 583 C 54.8616 0.910057 1.64619 0
M  V30 584 O 54.2196 -0.128598 1.80843 0
M  V30 585 C 54.2676 3.34905 1.33683 0
M  V30 586 O 53.3716 3.31574 2.45219 0
M  V30 587 H 52.7126 0.641205 0.172489 0
M  V30 588 H 55.2426 2.04372 -0.0965621 0
M  V30 589 H 55.2526 3.71234 1.69262 0
M  V30 590 H 53.9276 4.11366 0.612411 0
M  V30 591 H 52.5046 3.06968 2.11719 0
M  V30 592 N 54.6897 -0.239769 1.55765 0
M  V30 593 C 56.1007 -0.808263 1.68297 0
M  V30 594 C 56.4517 -1.85736 0.632181 0
M  V30 595 O 55.5767 -2.15277 -0.220204 0
M  V30 596 C 56.1717 -1.47284 3.05111 0
M  V30 597 C 54.7307 -1.98895 3.19559 0
M  V30 598 C 53.8777 -0.842575 2.64189 0
M  V30 599 H 56.8287 -0.0154422 1.58692 0
M  V30 600 H 56.8497 -2.34111 2.99954 0
M  V30 601 H 56.3617 -0.709053 3.81568 0
M  V30 602 H 54.4627 -2.78132 2.47938 0
M  V30 603 H 54.5757 -2.18143 4.26556 0
M  V30 604 H 52.9397 -1.24501 2.22197 0
M  V30 605 H 53.7227 -0.0917552 3.43177 0
M  V30 606 N 56.1678 -1.49265 -0.50573 0
M  V30 607 C 57.1308 -1.65075 -1.59006 0
M  V30 608 C 58.1308 -0.522768 -1.52065 0
M  V30 609 O 59.3208 -0.789117 -1.55302 0
M  V30 610 C 56.4528 -1.64369 -2.98656 0
M  V30 611 H 57.6458 -2.61784 -1.46319 0
M  V30 612 H 55.1988 -1.38226 -0.729616 0
M  V30 613 H 55.9338 -0.692272 -3.16825 0
M  V30 614 H 55.7188 -2.46282 -3.05103 0
M  V30 615 H 57.2088 -1.78674 -3.77446 0
M  V30 616 N 57.6459 0.756429 -1.3826 0
M  V30 617 C 58.8939 1.51248 -1.34047 0
M  V30 618 C 59.2149 1.94875 0.0698372 0
M  V30 619 O 58.4849 1.67436 1.01696 0
M  V30 620 H 57.0649 0.561018 -0.493222 0
M  V30 621 H 59.7269 0.899347 -1.7291 0
M  V30 622 H 58.8229 2.40472 -1.98947 0
M  V30 623 N 59.124 1.23083 0.984299 0
M  V30 624 C 60.056 0.96636 2.07832 0
M  V30 625 C 61.069 -0.0582135 1.62696 0
M  V30 626 O 62.258 0.176843 1.77622 0
M  V30 627 C 59.358 0.433397 3.36117 0
M  V30 628 C 58.531 1.51722 4.10243 0
M  V30 629 C 57.59 0.989821 5.16807 0
M  V30 630 O 56.616 1.67794 5.43906 0
M  V30 631 N 57.818 -0.184367 5.80207 0
M  V30 632 H 60.583 1.90824 2.31098 0
M  V30 633 H 58.144 1.13888 1.1507 0
M  V30 634 H 60.136 0.065699 4.04647 0
M  V30 635 H 58.706 -0.413806 3.09849 0
M  V30 636 H 57.926 2.05786 3.36223 0
M  V30 637 H 59.214 2.24619 4.56534 0
M  V30 638 H 58.612 -0.760062 5.60571 0
M  V30 639 H 57.169 -0.493366 6.4993 0
M  V30 640 N 60.6021 -1.18246 1.0419 0
M  V30 641 C 61.5651 -2.20128 0.638452 0
M  V30 642 C 62.5651 -1.57885 -0.304805 0
M  V30 643 O 63.7551 -1.73967 -0.0900369 0
M  V30 644 C 60.8871 -3.4084 -0.0637751 0
M  V30 645 H 62.0801 -2.57336 1.54007 0
M  V30 646 H 59.6331 -1.32152 0.834598 0
M  V30 647 H 60.3681 -3.09166 -0.979136 0
M  V30 648 H 60.1531 -3.8726 0.614198 0
M  V30 649 H 61.6431 -4.16274 -0.332512 0
M  V30 650 N 62.0802 -0.821533 -1.34494 0
M  V30 651 C 63.3052 -0.420873 -2.03085 0
M  V30 652 C 63.7302 0.964915 -1.61465 0
M  V30 653 O 63.0882 1.62763 -0.798607 0
M  V30 654 C 63.1362 -0.529414 -3.56693 0
M  V30 655 O 62.2402 0.451302 -4.09923 0
M  V30 656 H 61.5812 -0.173489 -0.640935 0
M  V30 657 H 64.1112 -1.11157 -1.71771 0
M  V30 658 H 64.1212 -0.404671 -4.05988 0
M  V30 659 H 62.7962 -1.54014 -3.86332 0
M  V30 660 H 61.3732 0.285558 -3.71805 0
M  V30 661 N 63.5583 1.46682 -0.576371 0
M  V30 662 C 64.7833 2.07304 -0.0630475 0
M  V30 663 C 65.2083 1.42329 1.2298 0
M  V30 664 O 64.5663 0.504865 1.74129 0
M  V30 665 C 64.6143 3.60472 0.095895 0
M  V30 666 O 63.7183 3.95927 1.15394 0
M  V30 667 H 63.0593 0.661288 -0.0599463 0
M  V30 668 H 65.5893 1.88417 -0.797511 0
M  V30 669 H 65.5993 4.06865 0.304071 0
M  V30 670 H 64.2743 4.07157 -0.84828 0
M  V30 671 H 62.8513 3.61252 0.924724 0
M  V30 672 N 65.0364 0.313813 1.54444 0
M  V30 673 C 66.2614 -0.296681 2.05267 0
M  V30 674 C 66.6864 -1.45757 1.18897 0
M  V30 675 O 66.0444 -1.80239 0.195886 0
M  V30 676 C 66.0924 -0.71831 3.53373 0
M  V30 677 O 65.1964 -1.82175 3.69981 0
M  V30 678 H 64.5374 -0.0554061 0.661684 0
M  V30 679 H 67.0674 0.459387 1.99376 0
M  V30 680 H 67.0774 -1.00364 3.95463 0
M  V30 681 H 65.7524 0.130821 4.15694 0
M  V30 682 H 64.3294 -1.53598 3.39797 0
M  V30 683 N 66.5145 -1.57545 0.0417849 0
M  V30 684 C 67.4445 -2.14009 -0.933929 0
M  V30 685 C 68.4255 -1.05938 -1.33083 0
M  V30 686 O 69.6105 -1.33833 -1.40721 0
M  V30 687 C 66.7405 -2.67747 -2.21199 0
M  V30 688 C 65.6945 -3.80718 -1.95544 0
M  V30 689 C 65.0205 -4.20935 -3.29724 0
M  V30 690 C 66.3205 -5.06258 -1.28452 0
M  V30 691 H 68.0145 -2.95788 -0.463645 0
M  V30 692 H 65.5605 -1.42285 -0.221573 0
M  V30 693 H 67.5135 -3.05886 -2.89848 0
M  V30 694 H 66.2375 -1.83147 -2.70416 0
M  V30 695 H 64.8965 -3.43037 -1.2931 0
M  V30 696 H 64.5445 -3.33298 -3.76724 0
M  V30 697 H 64.2445 -4.9707 -3.13361 0
M  V30 698 H 65.7685 -4.61666 -3.9962 0
M  V30 699 H 67.1825 -5.41903 -1.8712 0
M  V30 700 H 65.5795 -5.87475 -1.22445 0
M  V30 701 H 66.6495 -4.84207 -0.259219 0
M  V30 702 N 67.9926 0.231505 -1.5589 0
M  V30 703 C 68.9556 1.27028 -1.90779 0
M  V30 704 C 69.9556 1.40308 -0.785507 0
M  V30 705 O 71.1456 1.38744 -1.05336 0
M  V30 706 C 68.2776 2.64566 -2.14983 0
M  V30 707 H 69.4706 0.973017 -2.83677 0
M  V30 708 H 67.0236 0.471486 -1.49019 0
M  V30 709 H 67.7586 2.99406 -1.24604 0
M  V30 710 H 67.5436 2.56305 -2.96732 0
M  V30 711 H 69.0336 3.39543 -2.43105 0
M  V30 712 N 69.4707 1.49531 0.497807 0
M  V30 713 C 70.4027 1.62559 1.61578 0
M  V30 714 C 71.4157 0.508134 1.54667 0
M  V30 715 O 72.6047 0.780309 1.60541 0
M  V30 716 C 69.7047 1.56925 3.00379 0
M  V30 717 C 68.8777 2.84257 3.3244 0
M  V30 718 C 67.9367 2.71632 4.50669 0
M  V30 719 O 66.9627 3.4557 4.52294 0
M  V30 720 N 68.1647 1.83391 5.5077 0
M  V30 721 H 70.9297 2.58981 1.50828 0
M  V30 722 H 68.4907 1.4666 0.685743 0
M  V30 723 H 70.4827 1.46129 3.77397 0
M  V30 724 H 69.0527 0.683483 3.05037 0
M  V30 725 H 68.2727 3.09381 2.44289 0
M  V30 726 H 69.5607 3.68666 3.5066 0
M  V30 727 H 68.9587 1.22583 5.52259 0
M  V30 728 H 67.5157 1.78515 6.26878 0
M  V30 729 N 70.9488 -0.749086 1.3866 0
M  V30 730 C 72.3648 -1.05276 1.19955 0
M  V30 731 C 72.5648 -2.01435 0.05134 0
M  V30 732 O 71.6208 -2.45232 -0.60147 0
M  V30 733 C 72.9338 -1.62853 2.52783 0
M  V30 734 C 74.4818 -1.75002 2.59506 0
M  V30 735 C 74.9568 -2.35991 3.92521 0
M  V30 736 N 76.4478 -2.43416 3.94085 0
M  V30 737 C 77.1828 -2.91511 4.9377 0
M  V30 738 N 76.6788 -3.39608 6.03853 0
M  V30 739 N 78.4718 -2.90592 4.81157 0
M  V30 740 H 70.6228 -0.111066 2.12109 0
M  V30 741 H 72.8858 -0.111901 0.941373 0
M  V30 742 H 72.5918 -0.99664 3.37283 0
M  V30 743 H 72.4658 -2.61854 2.715 0
M  V30 744 H 74.8528 -2.37317 1.75398 0
M  V30 745 H 74.9338 -0.74693 2.44652 0
M  V30 746 H 74.5778 -1.74308 4.77053 0
M  V30 747 H 74.5078 -3.3695 4.04688 0
M  V30 748 H 76.9988 -2.09405 3.14576 0
M  V30 749 H 77.3118 -3.74775 6.75843 0
M  V30 750 H 75.6568 -3.37653 6.07466 0
M  V30 751 H 78.8478 -2.52332 3.94267 0
M  V30 752 H 79.0208 -3.27762 5.58996 0
M  V30 753 N 72.4269 -1.23603 -0.977757 0
M  V30 754 C 73.8429 -0.999251 -1.24447 0
M  V30 755 C 74.0429 0.298053 -1.99283 0
M  V30 756 O 73.0989 1.01681 -2.31122 0
M  V30 757 C 74.4119 -2.20784 -2.04144 0
M  V30 758 C 75.9599 -2.25303 -2.17273 0
M  V30 759 C 76.4349 -3.45755 -3.00362 0
M  V30 760 N 77.9259 -3.4601 -3.07947 0
M  V30 761 C 78.6609 -4.35868 -3.72568 0
M  V30 762 N 78.1569 -5.35966 -4.38991 0
M  V30 763 N 79.9499 -4.23605 -3.6948 0
M  V30 764 H 72.1009 -2.06986 -0.476483 0
M  V30 765 H 74.3639 -0.907801 -0.273134 0
M  V30 766 H 74.0699 -3.14945 -1.56533 0
M  V30 767 H 73.9439 -2.22085 -3.04891 0
M  V30 768 H 76.3309 -1.3168 -2.64092 0
M  V30 769 H 76.4119 -2.28033 -1.15907 0
M  V30 770 H 76.0559 -4.39687 -2.5424 0
M  V30 771 H 75.9859 -3.40266 -4.01904 0
M  V30 772 H 78.4769 -2.73588 -2.60688 0
M  V30 773 H 78.7899 -6.00783 -4.86086 0
M  V30 774 H 77.1349 -5.39863 -4.37691 0
M  V30 775 H 80.3259 -3.44647 -3.16759 0
M  V30 776 H 80.4989 -4.93836 -4.1956 0
M  V30 777 N 73.905 1.17692 -1.04816 0
M  V30 778 C 75.321 1.39863 -0.768794 0
M  V30 779 C 75.521 1.91118 0.638451 0
M  V30 780 O 74.577 2.10036 1.40146 0
M  V30 781 C 75.89 2.39274 -1.82122 0
M  V30 782 C 77.438 2.52987 -1.843 0
M  V30 783 C 77.913 3.55669 -2.88555 0
M  V30 784 N 79.404 3.63183 -2.87493 0
M  V30 785 C 80.139 4.42381 -3.64811 0
M  V30 786 N 79.635 5.25125 -4.51903 0
M  V30 787 N 81.428 4.37217 -3.53267 0
M  V30 788 H 73.579 0.82752 -1.95617 0
M  V30 789 H 75.842 0.426123 -0.846831 0
M  V30 790 H 75.548 2.08678 -2.83102 0
M  V30 791 H 75.422 3.38725 -1.65967 0
M  V30 792 H 77.809 2.82896 -0.839869 0
M  V30 793 H 77.89 1.53623 -2.04532 0
M  V30 794 H 77.534 3.26499 -3.89051 0
M  V30 795 H 77.464 4.54728 -2.65575 0
M  V30 796 H 79.955 3.04103 -2.24343 0
M  V30 797 H 80.268 5.82728 -5.07591 0
M  V30 798 H 78.613 5.24519 -4.55966 0
M  V30 799 H 81.804 3.71626 -2.84625 0
M  V30 800 H 81.977 4.98696 -4.13771 0
M  V30 801 N 75.3831 0.828654 1.34056 0
M  V30 802 C 76.6081 0.431637 2.02859 0
M  V30 803 C 77.0331 -0.956339 1.61975 0
M  V30 804 O 76.3911 -1.62338 0.807228 0
M  V30 805 C 76.4391 0.548323 3.56407 0
M  V30 806 O 75.5431 -0.429556 4.10157 0
M  V30 807 H 74.8841 0.176886 0.640006 0
M  V30 808 H 77.4141 1.12066 1.71179 0
M  V30 809 H 77.4241 0.426196 4.05768 0
M  V30 810 H 76.0991 1.5606 3.8551 0
M  V30 811 H 74.6761 -0.265836 3.71951 0
M  V30 812 N 76.8612 -1.46375 0.584142 0
M  V30 813 C 78.0862 -2.07268 0.0740405 0
M  V30 814 C 78.5112 -1.42979 -1.22223 0
M  V30 815 O 77.8692 -0.514092 -1.73859 0
M  V30 816 C 77.9172 -3.60518 -0.0767769 0
M  V30 817 O 77.0212 -3.96533 -1.13292 0
M  V30 818 H 76.3622 -0.660961 0.0634524 0
M  V30 819 H 78.8922 -1.87991 0.807492 0
M  V30 820 H 78.9022 -4.07021 -0.282489 0
M  V30 821 H 77.5772 -4.06702 0.86986 0
M  V30 822 H 76.1542 -3.61738 -0.905553 0
M  V30 823 N 78.3393 -0.321999 -1.54275 0
M  V30 824 C 79.3023 0.531975 -2.22941 0
M  V30 825 C 80.3023 1.04478 -1.22234 0
M  V30 826 O 81.4923 0.937452 -1.46825 0
M  V30 827 C 78.6243 1.73874 -2.93224 0
M  V30 828 H 79.8173 -0.0682612 -2.99822 0
M  V30 829 H 77.3703 -0.0730644 -1.56129 0
M  V30 830 H 78.1053 2.37825 -2.20476 0
M  V30 831 H 77.8903 1.37847 -3.6707 0
M  V30 832 H 79.3803 2.34496 -3.45545 0
M  V30 833 N 79.8174 1.5752 -0.0501392 0
M  V30 834 C 80.7494 2.08413 0.95376 0
M  V30 835 C 81.7624 1.01175 1.27544 0
M  V30 836 O 82.9514 1.28744 1.23641 0
M  V30 837 C 80.0514 2.51138 2.27559 0
M  V30 838 C 79.2244 3.817 2.13598 0
M  V30 839 C 78.2834 4.10749 3.28895 0
M  V30 840 O 77.3094 4.80685 3.04845 0
M  V30 841 N 78.5114 3.62579 4.5334 0
M  V30 842 H 81.2764 2.95165 0.519383 0
M  V30 843 H 78.8374 1.61327 0.136127 0
M  V30 844 H 80.8294 2.67648 3.03557 0
M  V30 845 H 79.3994 1.6964 2.62567 0
M  V30 846 H 78.6194 3.74782 1.22197 0
M  V30 847 H 79.9074 4.67201 2.01496 0
M  V30 848 H 79.3054 3.06039 4.75769 0
M  V30 849 H 77.8624 3.84329 5.26436 0
M  V30 850 N 81.2955 -0.223234 1.56011 0
M  V30 851 C 82.2255 -1.27988 1.95298 0
M  V30 852 C 83.2065 -1.48976 0.820979 0
M  V30 853 O 84.3915 -1.61188 1.08315 0
M  V30 854 C 81.5215 -2.63 2.26822 0
M  V30 855 C 80.4755 -2.56671 3.42497 0
M  V30 856 C 79.8015 -3.95697 3.59622 0
M  V30 857 C 81.1015 -2.11601 4.77517 0
M  V30 858 H 82.7955 -0.953525 2.8381 0
M  V30 859 H 80.3415 -0.457244 1.36548 0
M  V30 860 H 82.2945 -3.37077 2.52898 0
M  V30 861 H 81.0185 -2.9732 1.35161 0
M  V30 862 H 79.6775 -1.85051 3.16467 0
M  V30 863 H 79.3255 -4.27322 2.6534 0
M  V30 864 H 79.0255 -3.92345 4.37424 0
M  V30 865 H 80.5495 -4.71438 3.88044 0
M  V30 866 H 81.9635 -2.7542 5.02809 0
M  V30 867 H 80.3605 -2.19311 5.5859 0
M  V30 868 H 81.4305 -1.06824 4.72987 0
M  V30 869 N 82.7736 -1.49793 -0.48987 0
M  V30 870 C 83.7056 -1.63413 -1.60713 0
M  V30 871 C 84.7186 -0.516329 -1.54395 0
M  V30 872 O 85.9076 -0.788812 -1.60125 0
M  V30 873 C 83.0076 -1.58516 -2.99543 0
M  V30 874 C 82.1806 -2.86016 -3.30928 0
M  V30 875 C 81.2396 -2.74018 -4.49222 0
M  V30 876 O 80.2656 -3.47964 -4.50455 0
M  V30 877 N 81.4676 -1.86309 -5.4979 0
M  V30 878 H 84.2326 -2.59777 -1.49452 0
M  V30 879 H 81.7936 -1.47022 -0.677955 0
M  V30 880 H 83.7856 -1.48128 -3.76617 0
M  V30 881 H 82.3556 -0.69965 -3.0467 0
M  V30 882 H 81.5756 -3.10672 -2.42645 0
M  V30 883 H 82.8636 -3.70521 -3.487 0
M  V30 884 H 82.2616 -1.2551 -5.51601 0
M  V30 885 H 80.8186 -1.81837 -6.25922 0
M  V30 886 N 84.2517 0.741722 -1.39055 0
M  V30 887 C 85.4997 1.49818 -1.35643 0
M  V30 888 C 85.8207 1.94938 0.0491642 0
M  V30 889 O 85.0907 1.68505 0.999141 0
M  V30 890 H 83.6707 0.555755 -0.499144 0
M  V30 891 H 86.3327 0.880957 -1.73854 0
M  V30 892 H 85.4287 2.38348 -2.01486 0
M  V30 893 N 85.7298 1.2412 0.971189 0
M  V30 894 C 86.9698 1.09066 1.7287 0
M  V30 895 C 87.3338 -0.364794 1.88503 0
M  V30 896 O 88.5348 -0.636748 2.61149 0
M  V30 897 C 86.8058 1.80629 3.08396 0
M  V30 898 S 88.3648 1.81263 3.99611 0
M  V30 899 H 85.1828 0.390145 0.594397 0
M  V30 900 H 87.7848 1.57397 1.15959 0
M  V30 901 H 86.4888 2.85647 2.94676 0
M  V30 902 H 86.0198 1.32617 3.70373 0
M  V30 903 H 88.0348 0.877804 4.88374 0
M  V30 904 N 87.2079 -1.17134 1.05439 0
M  V30 905 C 88.1379 -2.2342 0.678649 0
M  V30 906 C 89.1189 -1.66971 -0.32476 0
M  V30 907 O 90.3039 -1.93149 -0.201802 0
M  V30 908 C 87.4339 -3.47256 0.0552099 0
M  V30 909 C 86.3879 -4.16543 0.98365 0
M  V30 910 C 85.7139 -5.34231 0.223961 0
M  V30 911 C 87.0139 -4.68495 2.3089 0
M  V30 912 H 88.7079 -2.55105 1.56722 0
M  V30 913 H 86.2539 -1.2262 0.754998 0
M  V30 914 H 88.2069 -4.20828 -0.21946 0
M  V30 915 H 86.9309 -3.14846 -0.868319 0
M  V30 916 H 85.5899 -3.44887 1.24293 0
M  V30 917 H 85.2379 -4.98071 -0.702412 0
M  V30 918 H 84.9379 -5.81527 0.842627 0
M  V30 919 H 86.4619 -6.10585 -0.0433671 0
M  V30 920 H 87.8759 -5.33691 2.09396 0
M  V30 921 H 86.2729 -5.26379 2.88176 0
M  V30 922 H 87.3429 -3.85169 2.94572 0
M  V30 923 N 88.686 -0.835752 -1.33615 0
M  V30 924 C 89.616 -0.281739 -2.31794 0
M  V30 925 C 90.597 0.608833 -1.58831 0
M  V30 926 O 91.782 0.533035 -1.86741 0
M  V30 927 C 88.912 0.546612 -3.42971 0
M  V30 928 C 87.866 -0.247904 -4.27281 0
M  V30 929 C 87.192 0.704001 -5.30045 0
M  V30 930 C 88.492 -1.46324 -5.01385 0
M  V30 931 H 90.186 -1.10206 -2.78379 0
M  V30 932 H 87.732 -0.531388 -1.33837 0
M  V30 933 H 89.685 0.944467 -4.1068 0
M  V30 934 H 88.409 1.40011 -2.95067 0
M  V30 935 H 87.068 -0.627281 -3.61194 0
M  V30 936 H 86.716 1.55381 -4.78399 0
M  V30 937 H 86.416 0.176524 -5.87335 0
M  V30 938 H 87.94 1.09944 -6.0062 0
M  V30 939 H 89.354 -1.13871 -5.61877 0
M  V30 940 H 87.751 -1.92728 -5.6831 0
M  V30 941 H 88.821 -2.23467 -4.30338 0
M  V30 942 N 90.1641 1.46063 -0.591896 0
M  V30 943 C 91.3891 2.07226 -0.0850314 0
M  V30 944 C 91.8141 1.43625 1.21463 0
M  V30 945 O 91.1721 0.523305 1.73583 0
M  V30 946 C 91.2201 3.60554 0.0576567 0
M  V30 947 O 90.3241 3.97128 1.11188 0
M  V30 948 H 89.6651 0.660615 -0.0669568 0
M  V30 949 H 92.1951 1.8756 -0.81745 0
M  V30 950 H 92.2051 4.07165 0.2609 0
M  V30 951 H 90.8801 4.06235 -0.891416 0
M  V30 952 H 89.4571 3.62213 0.886356 0
M  V30 953 N 91.6422 0.330177 1.54103 0
M  V30 954 C 92.8822 -0.270916 2.02597 0
M  V30 955 C 93.2462 -1.48826 1.21304 0
M  V30 956 O 94.4472 -2.16266 1.59633 0
M  V30 957 C 92.7182 -0.590328 3.52491 0
M  V30 958 S 94.2772 -1.17014 4.2291 0
M  V30 959 H 91.0952 -0.0815379 0.706309 0
M  V30 960 H 93.6972 0.464835 1.89893 0
M  V30 961 H 92.4012 0.303691 4.09275 0
M  V30 962 H 91.9322 -1.3561 3.69288 0
M  V30 963 H 93.9472 -2.45662 4.3112 0
M  V30 964 N 93.1203 -1.57491 0.0584922 0
M  V30 965 C 94.3683 -1.92597 -0.612436 0
M  V30 966 C 94.6893 -0.938162 -1.70949 0
M  V30 967 O 93.9593 0.0158301 -1.95894 0
M  V30 968 H 92.5393 -0.710964 -0.229214 0
M  V30 969 H 95.2013 -1.94571 0.113218 0
M  V30 970 H 94.2973 -2.94038 -1.04633 0
M  V30 971 N 94.5984 0.214957 -1.56127 0
M  V30 972 C 95.8444 0.939762 -1.79712 0
M  V30 973 C 96.1774 1.83723 -0.629247 0
M  V30 974 O 95.4524 1.90925 0.371197 0
M  V30 975 C 95.7354 1.77306 -3.13424 0
M  V30 976 C 95.5884 0.90164 -4.40671 0
M  V30 977 C 96.9074 2.74956 -3.43638 0
M  V30 978 H 94.0264 0.340214 -0.653776 0
M  V30 979 H 96.6684 0.20824 -1.88855 0
M  V30 980 H 94.8184 2.39673 -3.0576 0
M  V30 981 H 96.4904 0.294206 -4.60361 0
M  V30 982 H 94.7334 0.207368 -4.33304 0
M  V30 983 H 95.4044 1.51923 -5.30682 0
M  V30 984 H 97.8804 2.22724 -3.51473 0
M  V30 985 H 96.7564 3.30358 -4.38355 0
M  V30 986 H 97.0174 3.53023 -2.66134 0
M  V30 987 N 96.0765 1.50051 0.48192 0
M  V30 988 C 97.4925 1.37237 0.814756 0
M  V30 989 C 97.6925 0.420109 1.97072 0
M  V30 990 O 96.7485 -0.141246 2.52105 0
M  V30 991 C 98.0615 2.78375 1.13701 0
M  V30 992 C 99.6095 2.87213 1.2441 0
M  V30 993 C 100.084 4.29161 1.59954 0
M  V30 994 N 101.575 4.32061 1.66967 0
M  V30 995 C 102.31 5.38879 1.95952 0
M  V30 996 N 101.806 6.55918 2.23031 0
M  V30 997 N 103.599 5.26312 1.97363 0
M  V30 998 H 95.7505 2.10546 -0.28005 0
M  V30 999 H 98.0135 0.945921 -0.0627454 0
M  V30 1000 H 97.7195 3.49845 0.360787 0
M  V30 1001 H 97.5935 3.14941 2.07586 0
M  V30 1002 H 99.9805 2.15969 2.01101 0
M  V30 1003 H 100.061 2.54204 0.285299 0
M  V30 1004 H 99.7055 5.00938 0.838067 0
M  V30 1005 H 99.6355 4.59648 2.56966 0
M  V30 1006 H 102.126 3.47661 1.48123 0
M  V30 1007 H 102.439 7.33139 2.44391 0
M  V30 1008 H 100.784 6.59112 2.20447 0
M  V30 1009 H 103.975 4.33876 1.75697 0
M  V30 1010 H 104.148 6.09649 2.19618 0
M  V30 1011 N 97.5546 -0.734337 1.39446 0
M  V30 1012 C 98.5176 -1.83004 1.37994 0
M  V30 1013 C 99.5176 -1.58397 0.276938 0
M  V30 1014 O 100.708 -1.65785 0.534875 0
M  V30 1015 C 97.8396 -3.20802 1.1532 0
M  V30 1016 H 99.0326 -1.85694 2.35494 0
M  V30 1017 H 96.5856 -0.938059 1.25021 0
M  V30 1018 H 97.3206 -3.23772 0.185036 0
M  V30 1019 H 97.1056 -3.4006 1.95197 0
M  V30 1020 H 98.5956 -4.00862 1.17046 0
M  V30 1021 N 99.0327 -1.24633 -0.964593 0
M  V30 1022 C 99.9647 -0.999302 -2.06268 0
M  V30 1023 C 100.978 0.0323226 -1.62768 0
M  V30 1024 O 102.167 -0.205079 -1.77318 0
M  V30 1025 C 99.2667 -0.486816 -3.35385 0
M  V30 1026 C 98.4397 -1.5823 -4.07777 0
M  V30 1027 C 97.4987 -1.07191 -5.15166 0
M  V30 1028 O 96.5247 -1.76426 -5.41168 0
M  V30 1029 N 97.7267 0.0920373 -5.80427 0
M  V30 1030 H 100.492 -1.94477 -2.28033 0
M  V30 1031 H 98.0527 -1.15704 -1.13244 0
M  V30 1032 H 100.045 -0.130066 -4.04491 0
M  V30 1033 H 98.6147 0.364459 -3.10468 0
M  V30 1034 H 97.8347 -2.11109 -3.32906 0
M  V30 1035 H 99.1227 -2.31854 -4.52903 0
M  V30 1036 H 98.5207 0.670784 -5.61709 0
M  V30 1037 H 97.0777 0.389905 -6.50633 0
M  V30 1038 N 100.511 1.16574 -1.06058 0
M  V30 1039 C 101.759 1.86677 -0.77434 0
M  V30 1040 C 102.08 1.81959 0.701147 0
M  V30 1041 O 101.35 1.2515 1.50713 0
M  V30 1042 H 99.9298 0.691134 -0.283449 0
M  V30 1043 H 102.592 1.41378 -1.34158 0
M  V30 1044 H 101.688 2.92181 -1.09711 0
M  V30 1045 N 101.989 0.842826 1.3317 0
M  V30 1046 C 103.214 0.453129 2.02389 0
M  V30 1047 C 103.639 -0.939105 1.6298 0
M  V30 1048 O 102.997 -1.61472 0.8244 0
M  V30 1049 C 103.045 0.586094 3.55805 0
M  V30 1050 O 102.149 -0.386029 4.10589 0
M  V30 1051 H 101.49 0.183664 0.638094 0
M  V30 1052 H 104.02 1.13875 1.69981 0
M  V30 1053 H 104.03 0.469209 4.05293 0
M  V30 1054 H 102.705 1.6014 3.83833 0
M  V30 1055 H 101.282 -0.226371 3.72212 0
M  V30 1056 N 103.467 -1.45747 0.599634 0
M  V30 1057 C 104.692 -2.07178 0.0960198 0
M  V30 1058 C 105.117 -1.44268 -1.207 0
M  V30 1059 O 104.475 -0.532503 -1.73303 0
M  V30 1060 C 104.523 -3.60579 -0.0385348 0
M  V30 1061 O 103.627 -3.97713 -1.0908 0
M  V30 1062 H 102.968 -0.660251 0.0704593 0
M  V30 1063 H 105.498 -1.87124 0.827385 0
M  V30 1064 H 105.508 -4.07298 -0.239304 0
M  V30 1065 H 104.183 -4.05756 0.912947 0
M  V30 1066 H 102.76 -3.62678 -0.867135 0
M  V30 1067 N 104.945 -0.338344 -1.53925 0
M  V30 1068 C 106.361 0.0137736 -1.59594 0
M  V30 1069 C 106.561 1.49186 -1.35447 0
M  V30 1070 O 105.617 2.24987 -1.14616 0
M  V30 1071 C 106.93 -0.41773 -2.97784 0
M  V30 1072 C 108.478 -0.369633 -3.1081 0
M  V30 1073 C 108.953 -0.776524 -4.51369 0
M  V30 1074 N 110.444 -0.730506 -4.57403 0
M  V30 1075 C 111.179 -1.01736 -5.64303 0
M  V30 1076 N 110.675 -1.3721 -6.79077 0
M  V30 1077 N 112.468 -0.941942 -5.54151 0
M  V30 1078 H 104.619 -1.3012 -1.67876 0
M  V30 1079 H 106.882 -0.530082 -0.78595 0
M  V30 1080 H 106.588 -1.44811 -3.20504 0
M  V30 1081 H 106.462 0.209729 -3.76616 0
M  V30 1082 H 108.849 0.651568 -2.87817 0
M  V30 1083 H 108.93 -1.03223 -2.34049 0
M  V30 1084 H 108.574 -1.79571 -4.75096 0
M  V30 1085 H 108.504 -0.0914649 -5.26521 0
M  V30 1086 H 110.995 -0.468783 -3.74981 0
M  V30 1087 H 111.308 -1.57597 -7.5656 0
M  V30 1088 H 109.653 -1.4105 -6.80536 0
M  V30 1089 H 112.844 -0.664184 -4.63364 0
M  V30 1090 H 113.017 -1.16884 -6.37371 0
M  V30 1091 N 106.423 1.57458 -0.0668435 0
M  V30 1092 C 107.839 1.56947 0.289772 0
M  V30 1093 C 108.039 1.07584 1.70376 0
M  V30 1094 O 107.095 0.739486 2.41429 0
M  V30 1095 C 108.408 3.0052 0.103943 0
M  V30 1096 C 109.956 3.12517 0.173857 0
M  V30 1097 C 110.431 4.57997 0.0163682 0
M  V30 1098 N 111.922 4.63144 0.0721352 0
M  V30 1099 C 112.657 5.73394 -0.0253794 0
M  V30 1100 N 112.153 6.92576 -0.176133 0
M  V30 1101 N 113.946 5.62091 0.0313305 0
M  V30 1102 H 106.097 1.87863 -0.991027 0
M  V30 1103 H 108.36 0.86583 -0.38606 0
M  V30 1104 H 108.066 3.40729 -0.871572 0
M  V30 1105 H 107.94 3.67304 0.858366 0
M  V30 1106 H 110.327 2.72197 1.13985 0
M  V30 1107 H 110.408 2.48381 -0.611586 0
M  V30 1108 H 110.052 4.99005 -0.946374 0
M  V30 1109 H 109.982 5.20158 0.821153 0
M  V30 1110 H 112.473 3.77436 0.187263 0
M  V30 1111 H 112.786 7.72418 -0.242821 0
M  V30 1112 H 111.131 6.94678 -0.211429 0
M  V30 1113 H 114.322 4.67867 0.147773 0
M  V30 1114 H 114.495 6.47982 -0.048121 0
M  V30 1115 N 107.901 -0.206675 1.56239 0
M  V30 1116 C 109.317 -0.557025 1.49564 0
M  V30 1117 C 109.517 -1.86424 0.764735 0
M  V30 1118 O 108.573 -2.50584 0.310491 0
M  V30 1119 C 109.886 -0.622478 2.94186 0
M  V30 1120 C 111.434 -0.712099 3.04792 0
M  V30 1121 C 111.909 -0.808767 4.50803 0
M  V30 1122 N 113.4 -0.8726 4.54907 0
M  V30 1123 C 114.135 -0.967365 5.65181 0
M  V30 1124 N 113.631 -1.02515 6.85173 0
M  V30 1125 N 115.424 -1.00366 5.53067 0
M  V30 1126 H 107.575 0.650943 2.02179 0
M  V30 1127 H 109.838 0.230387 0.919579 0
M  V30 1128 H 109.544 0.268727 3.50672 0
M  V30 1129 H 109.418 -1.4811 3.46905 0
M  V30 1130 H 111.805 -1.59374 2.48363 0
M  V30 1131 H 111.886 0.172489 2.55218 0
M  V30 1132 H 111.53 0.0684754 5.07854 0
M  V30 1133 H 111.46 -1.70899 4.98098 0
M  V30 1134 H 113.951 -0.837657 3.68499 0
M  V30 1135 H 114.264 -1.09765 7.64965 0
M  V30 1136 H 112.609 -0.994026 6.87855 0
M  V30 1137 H 115.8 -0.95527 4.58249 0
M  V30 1138 H 115.973 -1.07405 6.39037 0
M  V30 1139 N 109.379 -1.50304 -0.473955 0
M  V30 1140 C 110.604 -1.65175 -1.25427 0
M  V30 1141 C 111.029 -0.333673 -1.85117 0
M  V30 1142 O 110.387 0.702114 -1.67153 0
M  V30 1143 C 110.435 -2.74295 -2.34082 0
M  V30 1144 O 109.539 -2.35349 -3.38651 0
M  V30 1145 H 108.88 -0.551944 -0.369126 0
M  V30 1146 H 111.41 -1.96662 -0.564364 0
M  V30 1147 H 111.42 -2.97285 -2.79438 0
M  V30 1148 H 110.095 -3.69959 -1.90008 0
M  V30 1149 H 108.672 -2.22794 -2.99027 0
M  V30 1150 N 110.857 0.726932 -1.39834 0
M  V30 1151 C 112.082 1.52121 -1.40976 0
M  V30 1152 C 112.507 1.88098 -0.00826029 0
M  V30 1153 O 111.865 1.52479 0.980807 0
M  V30 1154 C 111.913 2.78021 -2.29644 0
M  V30 1155 O 111.017 3.74272 -1.73188 0
M  V30 1156 H 110.358 0.45908 -0.479731 0
M  V30 1157 H 112.888 0.896207 -1.83927 0
M  V30 1158 H 112.898 3.26671 -2.44438 0
M  V30 1159 H 111.573 2.51169 -3.31492 0
M  V30 1160 H 110.15 3.33073 -1.6768 0
M  V30 1161 N 112.336 1.25143 0.95797 0
M  V30 1162 C 113.564 1.12424 1.73691 0
M  V30 1163 C 113.979 -0.322304 1.86029 0
M  V30 1164 O 113.336 -1.22186 1.35561 0
M  V30 1165 C 113.387 1.76933 3.15241 0
M  V30 1166 O 113.108 3.15932 3.03511 0
M  V30 1167 C 114.609 1.6995 4.09429 0
M  V30 1168 H 111.829 0.3923 0.544373 0
M  V30 1169 H 114.373 1.6544 1.20207 0
M  V30 1170 H 112.528 1.27895 3.6568 0
M  V30 1171 H 112.942 3.47598 3.9278 0
M  V30 1172 H 114.416 2.19753 5.06372 0
M  V30 1173 H 114.893 0.662619 4.34173 0
M  V30 1174 H 115.499 2.18461 3.64904 0
M  V30 1175 N 113.814 -1.1601 1.06675 0
M  V30 1176 C 115.06 -1.86909 0.786945 0
M  V30 1177 C 115.393 -1.81717 -0.685018 0
M  V30 1178 O 114.668 -1.23551 -1.50218 0
M  V30 1179 C 114.951 -3.36313 1.28707 0
M  V30 1180 C 114.804 -3.50175 2.82308 0
M  V30 1181 C 116.123 -4.3084 0.898071 0
M  V30 1182 H 113.242 -0.678677 0.287343 0
M  V30 1183 H 115.884 -1.36336 1.32334 0
M  V30 1184 H 114.034 -3.79513 0.830768 0
M  V30 1185 H 115.706 -3.15886 3.36175 0
M  V30 1186 H 113.949 -2.91959 3.20847 0
M  V30 1187 H 114.62 -4.55116 3.12368 0
M  V30 1188 H 117.096 -3.95561 1.29114 0
M  V30 1189 H 115.972 -5.33876 1.27543 0
M  V30 1190 H 116.233 -4.41662 -0.196651 0
M  V30 1191 N 115.292 -0.849877 -1.32721 0
M  V30 1192 C 116.703 -0.506188 -1.79707 0
M  V30 1193 C 117.054 0.975627 -1.70223 0
M  V30 1194 O 116.179 1.76078 -1.25799 0
M  V30 1195 C 116.774 -0.912044 -3.26293 0
M  V30 1196 C 115.333 -0.620326 -3.71253 0
M  V30 1197 C 114.48 -1.11439 -2.53922 0
M  V30 1198 H 117.431 -1.03754 -1.20087 0
M  V30 1199 H 117.452 -0.226493 -3.79825 0
M  V30 1200 H 116.964 -1.99057 -3.33164 0
M  V30 1201 H 115.065 0.447674 -3.69901 0
M  V30 1202 H 115.178 -1.18327 -4.64258 0
M  V30 1203 H 113.542 -0.534834 -2.49021 0
M  V30 1204 H 114.325 -2.19992 -2.6355 0
M  V30 1205 N 116.77 1.45427 -0.607355 0
M  V30 1206 C 118.181 1.85756 -0.187535 0
M  V30 1207 C 118.532 1.5077 1.25551 0
M  V30 1208 O 117.657 0.93427 1.95193 0
M  V30 1209 C 118.252 3.37154 -0.333572 0
M  V30 1210 C 116.811 3.76387 0.0315542 0
M  V30 1211 C 115.958 2.69377 -0.658117 0
M  V30 1212 H 118.909 1.36231 -0.81405 0
M  V30 1213 H 118.93 3.78014 0.43428 0
M  V30 1214 H 118.442 3.62586 -1.38393 0
M  V30 1215 H 116.543 3.56571 1.0811 0
M  V30 1216 H 116.656 4.77731 -0.361935 0
M  V30 1217 H 115.02 2.5452 -0.0957873 0
M  V30 1218 H 115.803 2.97646 -1.7106 0
M  V30 1219 N 118.248 0.346503 1.53744 0
M  V30 1220 C 119.473 -0.253074 2.0585 0
M  V30 1221 C 119.898 -1.43202 1.21962 0
M  V30 1222 O 119.256 -1.79783 0.234073 0
M  V30 1223 C 119.304 -0.643193 3.54817 0
M  V30 1224 O 118.408 -1.74286 3.73762 0
M  V30 1225 H 117.749 -0.0413583 0.662711 0
M  V30 1226 H 120.279 0.501574 1.98357 0
M  V30 1227 H 120.289 -0.919526 3.97503 0
M  V30 1228 H 118.964 0.218966 4.15323 0
M  V30 1229 H 117.541 -1.46356 3.42979 0
M  V30 1230 N 119.726 -1.57421 0.075193 0
M  V30 1231 C 120.966 -1.95495 -0.596757 0
M  V30 1232 C 121.33 -0.954886 -1.66571 0
M  V30 1233 O 122.531 -1.22341 -2.39345 0
M  V30 1234 C 120.802 -3.382 -1.15566 0
M  V30 1235 S 122.361 -3.98254 -1.84226 0
M  V30 1236 H 119.179 -0.683649 -0.195307 0
M  V30 1237 H 121.781 -1.94925 0.149859 0
M  V30 1238 H 120.485 -4.08766 -0.36588 0
M  V30 1239 H 120.016 -3.42321 -1.93856 0
M  V30 1240 H 122.031 -3.85435 -3.12497 0
M  V30 1241 N 121.204 0.198386 -1.56346 0
M  V30 1242 C 122.152 1.26538 -1.95169 0
M  V30 1243 C 123.146 1.47295 -0.836685 0
M  V30 1244 O 124.352 1.48195 -1.02167 0
M  V30 1245 H 120.727 0.424744 -0.620561 0
M  V30 1246 H 122.698 0.910904 -2.84157 0
M  V30 1247 C 121.447 2.6035 -2.30463 0
M  V30 1248 H 120.77 2.45192 -3.15786 0
M  V30 1249 H 122.21 3.33762 -2.61494 0
M  V30 1250 C 120.669 3.17096 -1.13806 0
M  V30 1251 O 121.199 3.99588 -0.41135 0
M  V30 1252 N 119.405 2.75795 -0.915736 0
M  V30 1253 H 118.952 2.08816 -1.50843 0
M  V30 1254 H 118.91 3.14101 -0.136979 0
M  V30 1255 N 122.682 1.50554 0.465978 0
M  V30 1256 C 124.093 1.54599 1.04671 0
M  V30 1257 C 124.444 0.352488 1.93008 0
M  V30 1258 O 123.569 -0.534044 2.09707 0
M  V30 1259 C 124.164 2.80166 1.90505 0
M  V30 1260 C 122.723 2.86876 2.43678 0
M  V30 1261 C 121.87 2.48947 1.22151 0
M  V30 1262 H 124.821 1.56744 0.248384 0
M  V30 1263 H 124.842 2.62311 2.75633 0
M  V30 1264 H 124.354 3.67013 1.26186 0
M  V30 1265 H 122.455 2.04393 3.11536 0
M  V30 1266 H 122.568 3.89885 2.78436 0
M  V30 1267 H 120.932 2.01498 1.5579 0
M  V30 1268 H 121.715 3.38107 0.594866 0
M  V30 1269 N 124.16 -0.719506 1.40217 0
M  V30 1270 C 125.576 -1.02707 1.22161 0
M  V30 1271 C 125.776 -2.0128 0.0940557 0
M  V30 1272 O 124.832 -2.46452 -0.549318 0
M  V30 1273 C 126.145 -1.57454 2.56181 0
M  V30 1274 C 127.693 -1.69458 2.63159 0
M  V30 1275 C 128.168 -2.27611 3.97438 0
M  V30 1276 N 129.659 -2.35002 3.99159 0
M  V30 1277 C 130.394 -2.80972 4.99842 0
M  V30 1278 N 129.89 -3.26723 6.10921 0
M  V30 1279 N 131.683 -2.80321 4.87213 0
M  V30 1280 H 123.834 -0.0660492 2.12297 0
M  V30 1281 H 126.097 -0.0919077 0.943534 0
M  V30 1282 H 125.803 -0.924873 3.39321 0
M  V30 1283 H 125.677 -2.56036 2.76993 0
M  V30 1284 H 128.064 -2.33543 1.80393 0
M  V30 1285 H 128.145 -0.694867 2.46181 0
M  V30 1286 H 127.789 -1.6415 4.80643 0
M  V30 1287 H 127.719 -3.2829 4.11744 0
M  V30 1288 H 130.21 -2.02685 3.18947 0
M  V30 1289 H 130.523 -3.60355 6.8364 0
M  V30 1290 H 128.868 -3.24692 6.14492 0
M  V30 1291 H 132.059 -2.43912 3.9953 0
M  V30 1292 H 132.232 -3.15831 5.65822 0
M  V30 1293 N 125.638 -1.25649 -0.95132 0
M  V30 1294 C 126.885 -1.10594 -1.69633 0
M  V30 1295 C 127.213 0.352515 -1.91279 0
M  V30 1296 O 126.468 1.27601 -1.4838 0
M  V30 1297 C 126.767 -1.80909 -3.08231 0
M  V30 1298 C 126.433 -3.30825 -3.06375 0
M  V30 1299 C 125.095 -3.71722 -3.05576 0
M  V30 1300 C 127.447 -4.26589 -2.99452 0
M  V30 1301 C 124.775 -5.06788 -2.95606 0
M  V30 1302 C 127.127 -5.61683 -2.91024 0
M  V30 1303 C 125.791 -6.01904 -2.88562 0
M  V30 1304 H 125.061 -0.404691 -0.620731 0
M  V30 1305 H 127.708 -1.55964 -1.11119 0
M  V30 1306 H 126.013 -1.27979 -3.70309 0
M  V30 1307 H 127.71 -1.6671 -3.64704 0
M  V30 1308 H 124.3 -2.98287 -3.07771 0
M  V30 1309 H 128.484 -3.95982 -2.99185 0
M  V30 1310 H 123.74 -5.37126 -2.92071 0
M  V30 1311 H 127.914 -6.35578 -2.84629 0
M  V30 1312 H 125.541 -7.06521 -2.80593 0
M  V30 1313 N 127.117 1.15442 -1.07289 0
M  V30 1314 C 128.366 1.85557 -0.790669 0
M  V30 1315 C 128.679 1.83186 0.685739 0
M  V30 1316 O 129.885 2.48977 1.0827 0
M  V30 1317 C 128.341 3.33038 -1.36433 0
M  V30 1318 C 127.949 3.43856 -2.8717 0
M  V30 1319 C 129.693 4.0834 -1.1601 0
M  V30 1320 C 127.6 4.85482 -3.3773 0
M  V30 1321 H 126.53 0.695122 -0.292098 0
M  V30 1322 H 129.181 1.30219 -1.29287 0
M  V30 1323 H 127.563 3.88043 -0.789864 0
M  V30 1324 H 128.737 2.98961 -3.50655 0
M  V30 1325 H 127.052 2.81998 -3.06376 0
M  V30 1326 H 129.649 5.12859 -1.51262 0
M  V30 1327 H 129.992 4.16182 -0.0991007 0
M  V30 1328 H 130.525 3.59603 -1.70089 0
M  V30 1329 H 127.264 4.82823 -4.43353 0
M  V30 1330 H 126.784 5.30961 -2.78999 0
M  V30 1331 H 128.463 5.54335 -3.33648 0
M  V30 1332 N 128.595 0.856903 1.32268 0
M  V30 1333 C 129.841 0.462069 1.97466 0
M  V30 1334 C 130.174 -0.980298 1.67642 0
M  V30 1335 O 129.449 -1.68824 0.965858 0
M  V30 1336 C 129.732 0.704336 3.53145 0
M  V30 1337 C 129.585 2.19529 3.9259 0
M  V30 1338 C 130.904 0.1622 4.39801 0
M  V30 1339 H 128.023 0.169357 0.717278 0
M  V30 1340 H 130.665 1.07574 1.56614 0
M  V30 1341 H 128.815 0.181999 3.88073 0
M  V30 1342 H 130.487 2.78387 3.67829 0
M  V30 1343 H 128.73 2.67292 3.41668 0
M  V30 1344 H 129.401 2.31549 5.01088 0
M  V30 1345 H 131.877 0.608905 4.11621 0
M  V30 1346 H 130.753 0.361265 5.4771 0
M  V30 1347 H 131.014 -0.935158 4.32096 0
M  V30 1348 N 130.073 -1.45103 0.615059 0
M  V30 1349 C 131.35 -1.95549 0.0448276 0
M  V30 1350 C 131.73 -1.55737 -1.4251 0
M  V30 1351 O 131.078 -0.823556 -2.13143 0
M  V30 1352 C 131.288 -3.48098 0.250785 0
M  V30 1353 C 132.636 -4.24384 0.135509 0
M  V30 1354 O 133.66 -3.55738 0.181299 0
M  V30 1355 O 132.519 -5.46493 0.0268878 0
M  V30 1356 H 129.613 -0.8264 -0.0314845 0
M  V30 1357 H 132.159 -1.55232 0.685642 0
M  V30 1358 H 130.931 -3.7007 1.27139 0
M  V30 1359 H 130.554 -3.95323 -0.424937 0
M  V30 1360 N 131.551 -0.354651 -1.53558 0
M  V30 1361 C 132.498 0.496968 -2.25386 0
M  V30 1362 C 133.468 1.0865 -1.25636 0
M  V30 1363 O 134.653 1.12104 -1.54394 0
M  V30 1364 C 131.793 1.63637 -3.03837 0
M  V30 1365 C 130.906 1.07307 -4.18461 0
M  V30 1366 C 130.041 2.18068 -4.84376 0
M  V30 1367 C 129.08 1.59147 -5.91049 0
M  V30 1368 N 128.217 2.63695 -6.50699 0
M  V30 1369 H 133.057 -0.122075 -2.9775 0
M  V30 1370 H 130.594 -0.0720154 -1.46924 0
M  V30 1371 H 132.552 2.30734 -3.47589 0
M  V30 1372 H 131.182 2.22623 -2.33749 0
M  V30 1373 H 130.234 0.292708 -3.79272 0
M  V30 1374 H 131.546 0.602193 -4.95152 0
M  V30 1375 H 130.7 2.93007 -5.31255 0
M  V30 1376 H 129.439 2.68504 -4.07133 0
M  V30 1377 H 128.444 0.827175 -5.43542 0
M  V30 1378 H 129.669 1.09549 -6.70206 0
M  V30 1379 H 127.615 3.13365 -5.76315 0
M  V30 1380 H 127.532 2.21263 -7.22896 0
M  V30 1381 H 128.8 3.3837 -7.02229 0
M  V30 1382 N 133.029 1.57378 -0.0835403 0
M  V30 1383 C 134.275 1.94217 0.583733 0
M  V30 1384 C 134.608 0.964653 1.68547 0
M  V30 1385 O 133.883 -0.00422258 1.945 0
M  V30 1386 C 134.166 3.41253 1.14972 0
M  V30 1387 C 134.019 4.49768 0.0538277 0
M  V30 1388 C 135.338 3.89352 2.05166 0
M  V30 1389 H 132.457 0.706233 0.210724 0
M  V30 1390 H 135.099 1.89392 -0.1519 0
M  V30 1391 H 133.249 3.45496 1.77665 0
M  V30 1392 H 134.921 4.57641 -0.579851 0
M  V30 1393 H 133.164 4.29432 -0.614068 0
M  V30 1394 H 133.835 5.49817 0.490452 0
M  V30 1395 H 136.311 3.87189 1.52393 0
M  V30 1396 H 135.187 4.92822 2.41698 0
M  V30 1397 H 135.448 3.27973 2.96456 0
M  V30 1398 N 134.507 -0.190092 1.56449 0
M  V30 1399 C 135.437 -1.23816 1.97969 0
M  V30 1400 C 136.418 -1.47201 0.852395 0
M  V30 1401 O 137.603 -1.58854 1.1171 0
M  V30 1402 C 134.733 -2.5813 2.3235 0
M  V30 1403 C 133.687 -2.49348 3.47864 0
M  V30 1404 C 133.013 -3.8798 3.67934 0
M  V30 1405 C 134.313 -2.01424 4.81898 0
M  V30 1406 H 136.007 -0.89311 2.85769 0
M  V30 1407 H 133.553 -0.428177 1.37487 0
M  V30 1408 H 135.506 -3.31637 2.59991 0
M  V30 1409 H 134.23 -2.94386 1.41438 0
M  V30 1410 H 132.889 -1.78297 3.20321 0
M  V30 1411 H 132.537 -4.21597 2.74344 0
M  V30 1412 H 132.237 -3.82978 4.45648 0
M  V30 1413 H 133.761 -4.63101 3.97957 0
M  V30 1414 H 135.175 -2.64693 5.08538 0
M  V30 1415 H 133.572 -2.07413 5.63116 0
M  V30 1416 H 134.642 -0.967677 4.75146 0
M  V30 1417 N 135.985 -1.50799 -0.457987 0
M  V30 1418 C 137.213 -1.66218 -1.23203 0
M  V30 1419 C 137.628 -0.350894 -1.85511 0
M  V30 1420 O 136.985 0.668546 -1.69814 0
M  V30 1421 C 137.036 -2.76291 -2.33121 0
M  V30 1422 O 136.757 -4.02338 -1.73366 0
M  V30 1423 C 138.258 -3.028 -3.2377 0
M  V30 1424 H 135.478 -0.558361 -0.372121 0
M  V30 1425 H 138.022 -1.97099 -0.545179 0
M  V30 1426 H 136.177 -2.48068 -2.97558 0
M  V30 1427 H 136.591 -4.63312 -2.4585 0
M  V30 1428 H 138.065 -3.8345 -3.97077 0
M  V30 1429 H 138.542 -2.14385 -3.83322 0
M  V30 1430 H 139.148 -3.32604 -2.65056 0
M  V30 1431 N 137.463 0.71206 -1.40597 0
M  V30 1432 C 138.874 1.29135 -1.34837 0
M  V30 1433 C 139.225 1.96186 -0.0235395 0
M  V30 1434 O 138.35 1.97768 0.878444 0
M  V30 1435 C 138.945 2.34827 -2.44217 0
M  V30 1436 C 137.504 2.88371 -2.41907 0
M  V30 1437 C 136.651 1.62202 -2.24913 0
M  V30 1438 H 139.602 0.507944 -1.50352 0
M  V30 1439 H 139.623 3.15749 -2.12327 0
M  V30 1440 H 139.135 1.85996 -3.40627 0
M  V30 1441 H 137.236 3.41422 -1.49204 0
M  V30 1442 H 137.349 3.39925 -3.37621 0
M  V30 1443 H 135.713 1.874 -1.72492 0
M  V30 1444 H 136.496 1.15391 -3.23326 0
M  V30 1445 N 138.941 1.26152 0.944643 0
M  V30 1446 C 139.873 1.03199 2.04652 0
M  V30 1447 C 140.886 -0.00642356 1.62799 0
M  V30 1448 O 142.075 0.233263 1.76969 0
M  V30 1449 C 139.175 0.540111 3.34568 0
M  V30 1450 C 138.348 1.64697 4.05208 0
M  V30 1451 C 137.407 1.15374 5.13396 0
M  V30 1452 O 136.433 1.85013 5.38293 0
M  V30 1453 N 137.635 0.00031529 5.805 0
M  V30 1454 H 140.4 1.9808 2.2491 0
M  V30 1455 H 137.961 1.17491 1.11389 0
M  V30 1456 H 139.953 0.194401 4.04233 0
M  V30 1457 H 138.523 -0.315021 3.11009 0
M  V30 1458 H 137.743 2.16379 3.29506 0
M  V30 1459 H 139.031 2.3903 4.49157 0
M  V30 1460 H 138.429 -0.581336 5.62705 0
M  V30 1461 H 136.986 -0.286346 6.51171 0
M  V30 1462 N 140.419 -1.14872 1.07899 0
M  V30 1463 C 141.83 -1.67367 0.827363 0
M  V30 1464 C 142.181 -1.85236 -0.646693 0
M  V30 1465 O 141.306 -1.55974 -1.50004 0
M  V30 1466 C 141.901 -3.04016 1.49532 0
M  V30 1467 C 140.46 -3.53566 1.29106 0
M  V30 1468 C 139.607 -2.29161 1.56143 0
M  V30 1469 H 142.558 -0.990083 1.24028 0
M  V30 1470 H 142.579 -3.69219 0.919643 0
M  V30 1471 H 142.091 -2.90978 2.56814 0
M  V30 1472 H 140.192 -3.71835 0.238713 0
M  V30 1473 H 140.305 -4.34661 2.01511 0
M  V30 1474 H 138.669 -2.34978 0.982717 0
M  V30 1475 H 139.452 -2.18705 2.64619 0
M  V30 1476 N 141.898 -0.863906 -1.31812 0
M  V30 1477 C 143.126 -0.486111 -2.01108 0
M  V30 1478 C 143.541 0.919755 -1.64882 0
M  V30 1479 O 142.898 1.60162 -0.874893 0
M  V30 1480 C 142.949 -0.626435 -3.56031 0
M  V30 1481 O 142.67 -1.97693 -3.90959 0
M  V30 1482 C 144.171 -0.248857 -4.42601 0
M  V30 1483 H 141.391 -0.190052 -0.643523 0
M  V30 1484 H 143.935 -1.1634 -1.68182 0
M  V30 1485 H 142.09 0.00322717 -3.874 0
M  V30 1486 H 142.504 -1.98034 -4.85678 0
M  V30 1487 H 143.978 -0.398016 -5.50563 0
M  V30 1488 H 144.455 0.811489 -4.31638 0
M  V30 1489 H 145.061 -0.853971 -4.16638 0
M  V30 1490 N 143.376 1.44774 -0.622745 0
M  V30 1491 C 144.604 2.06487 -0.130722 0
M  V30 1492 C 145.019 1.46476 1.19123 0
M  V30 1493 O 144.376 0.584502 1.72887 0
M  V30 1494 C 144.427 3.615 -0.000807207 0
M  V30 1495 O 144.148 4.19274 -1.27048 0
M  V30 1496 C 145.649 4.40229 0.520898 0
M  V30 1497 H 142.869 0.666704 -0.0758106 0
M  V30 1498 H 145.413 1.85779 -0.854774 0
M  V30 1499 H 143.568 3.81498 0.673643 0
M  V30 1500 H 143.982 5.12622 -1.1099 0
M  V30 1501 H 145.456 5.49144 0.560838 0
M  V30 1502 H 145.933 4.1108 1.54627 0
M  V30 1503 H 146.539 4.25131 -0.120018 0
M  V30 1504 N 144.854 0.36279 1.53368 0
M  V30 1505 C 146.1 -0.228113 2.01513 0
M  V30 1506 C 146.433 -1.48648 1.2497 0
M  V30 1507 O 145.708 -1.91459 0.342616 0
M  V30 1508 C 145.991 -0.522884 3.56284 0
M  V30 1509 C 145.844 0.74892 4.43521 0
M  V30 1510 C 147.163 -1.32461 4.19693 0
M  V30 1511 H 144.282 -0.0814343 0.732487 0
M  V30 1512 H 146.924 0.48713 1.83649 0
M  V30 1513 H 145.074 -1.1322 3.71636 0
M  V30 1514 H 146.746 1.38648 4.39971 0
M  V30 1515 H 144.989 1.36986 4.11603 0
M  V30 1516 H 145.66 0.497667 5.49752 0
M  V30 1517 H 148.136 -0.809203 4.08156 0
M  V30 1518 H 147.012 -1.49961 5.28018 0
M  V30 1519 H 147.273 -2.33232 3.75573 0
M  V30 1520 N 146.332 -1.57332 0.0918853 0
M  V30 1521 C 147.58 -1.93853 -0.571446 0
M  V30 1522 C 147.901 -0.974212 -1.6892 0
M  V30 1523 O 147.171 -0.0257254 -1.95883 0
M  V30 1524 H 145.751 -0.715666 -0.214082 0
M  V30 1525 H 148.413 -1.94287 0.154464 0
M  V30 1526 H 147.509 -2.96191 -0.983729 0
M  V30 1527 N 147.81 0.181792 -1.56548 0
M  V30 1528 C 148.773 1.20894 -1.94724 0
M  V30 1529 C 149.773 1.37738 -0.829747 0
M  V30 1530 O 150.963 1.35323 -1.09697 0
M  V30 1531 C 148.095 2.57593 -2.23291 0
M  V30 1532 H 149.288 0.882275 -2.86629 0
M  V30 1533 H 146.841 0.423838 -1.50444 0
M  V30 1534 H 147.576 2.95291 -1.34067 0
M  V30 1535 H 147.361 2.46735 -3.04736 0
M  V30 1536 H 148.851 3.31637 -2.53785 0
M  V30 1537 N 149.288 1.51039 0.449983 0
M  V30 1538 C 150.22 1.67617 1.56324 0
M  V30 1539 C 151.233 0.557083 1.52972 0
M  V30 1540 O 152.422 0.830989 1.57977 0
M  V30 1541 C 149.522 1.66402 2.95235 0
M  V30 1542 C 148.695 2.9469 3.23229 0
M  V30 1543 C 147.754 2.85832 4.41799 0
M  V30 1544 O 146.78 3.59785 4.41071 0
M  V30 1545 N 147.982 2.00821 5.44657 0
M  V30 1546 H 150.747 2.63648 1.42512 0
M  V30 1547 H 148.308 1.48767 0.638737 0
M  V30 1548 H 150.3 1.58062 3.72557 0
M  V30 1549 H 148.87 0.780182 3.02708 0
M  V30 1550 H 148.09 3.16996 2.34323 0
M  V30 1551 H 149.378 3.79636 3.38754 0
M  V30 1552 H 148.776 1.40091 5.48079 0
M  V30 1553 H 147.333 1.98368 6.20881 0
M  V30 1554 N 150.766 -0.704594 1.40972 0
M  V30 1555 C 151.696 -1.83124 1.44872 0
M  V30 1556 C 152.677 -1.67281 0.30838 0
M  V30 1557 O 153.862 -1.87149 0.518556 0
M  V30 1558 C 150.992 -3.21181 1.32136 0
M  V30 1559 C 149.946 -3.51714 2.43888 0
M  V30 1560 C 149.272 -4.89032 2.16222 0
M  V30 1561 C 150.572 -3.516 3.86232 0
M  V30 1562 H 152.266 -1.80117 2.39161 0
M  V30 1563 H 149.812 -0.865145 1.15114 0
M  V30 1564 H 151.765 -3.99702 1.33479 0
M  V30 1565 H 150.489 -3.24791 0.343279 0
M  V30 1566 H 149.148 -2.75539 2.41813 0
M  V30 1567 H 148.796 -4.89256 1.16778 0
M  V30 1568 H 148.496 -5.10426 2.911 0
M  V30 1569 H 150.02 -5.69873 2.19265 0
M  V30 1570 H 151.434 -4.2014 3.9007 0
M  V30 1571 H 149.831 -3.84523 4.60719 0
M  V30 1572 H 150.901 -2.50757 4.15029 0
M  V30 1573 N 152.244 -1.26651 -0.937939 0
M  V30 1574 C 153.174 -1.10993 -2.05433 0
M  V30 1575 C 154.155 -0.0142161 -1.70094 0
M  V30 1576 O 155.34 -0.186837 -1.93299 0
M  V30 1577 C 152.47 -0.745561 -3.39203 0
M  V30 1578 C 151.424 -1.79337 -3.88616 0
M  V30 1579 C 150.75 -1.28324 -5.19073 0
M  V30 1580 C 152.05 -3.19553 -4.13138 0
M  V30 1581 H 153.744 -2.0438 -2.1879 0
M  V30 1582 H 151.29 -0.984041 -1.05131 0
M  V30 1583 H 153.243 -0.622888 -4.16771 0
M  V30 1584 H 151.967 0.22401 -3.25831 0
M  V30 1585 H 150.626 -1.90477 -3.13231 0
M  V30 1586 H 150.274 -0.303414 -5.02084 0
M  V30 1587 H 149.974 -1.98369 -5.53103 0
M  V30 1588 H 151.498 -1.1733 -5.99221 0
M  V30 1589 H 152.912 -3.11471 -4.81309 0
M  V30 1590 H 151.309 -3.87218 -4.58457 0
M  V30 1591 H 152.379 -3.65368 -3.18801 0
M  V30 1592 N 153.722 1.14298 -1.08507 0
M  V30 1593 C 154.97 1.84993 -0.813763 0
M  V30 1594 C 155.291 1.83405 0.662393 0
M  V30 1595 O 154.561 1.28319 1.48024 0
M  V30 1596 H 153.141 0.684966 -0.298045 0
M  V30 1597 H 155.803 1.385 -1.37126 0
M  V30 1598 H 154.899 2.89788 -1.15884 0
M  V30 1599 N 155.201 0.870884 1.31352 0
M  V30 1600 C 156.164 0.332243 2.26779 0
M  V30 1601 C 157.164 -0.517302 1.52252 0
M  V30 1602 O 158.354 -0.326477 1.71113 0
M  V30 1603 C 155.486 -0.528066 3.36785 0
M  V30 1604 H 156.679 1.17469 2.75937 0
M  V30 1605 H 154.232 0.64655 1.423 0
M  V30 1606 H 154.967 -1.39167 2.92922 0
M  V30 1607 H 154.752 0.0802582 3.92018 0
M  V30 1608 H 156.242 -0.897179 4.07849 0
M  V30 1609 N 156.679 -1.44442 0.630414 0
M  V30 1610 C 158.09 -1.85434 0.217063 0
M  V30 1611 C 158.441 -1.52748 -1.23136 0
M  V30 1612 O 157.566 -0.965205 -1.93682 0
M  V30 1613 C 158.161 -3.36581 0.387168 0
M  V30 1614 C 156.72 -3.76389 0.0283297 0
M  V30 1615 C 155.867 -2.68296 0.700889 0
M  V30 1616 H 158.818 -1.34919 0.83562 0
M  V30 1617 H 158.839 -3.78657 -0.374086 0
M  V30 1618 H 158.351 -3.60339 1.44144 0
M  V30 1619 H 156.452 -3.58246 -1.02423 0
M  V30 1620 H 156.565 -4.77095 0.437892 0
M  V30 1621 H 154.929 -2.54335 0.136267 0
M  V30 1622 H 155.712 -2.94887 1.75774 0
M  V30 1623 N 158.157 -0.370918 -1.53173 0
M  V30 1624 C 159.087 0.464847 -2.28826 0
M  V30 1625 C 160.068 1.07936 -1.31468 0
M  V30 1626 O 161.253 1.0956 -1.60344 0
M  V30 1627 C 158.383 1.60196 -3.08147 0
M  V30 1628 C 157.337 1.11443 -4.13237 0
M  V30 1629 C 156.663 2.3422 -4.80672 0
M  V30 1630 C 157.963 0.195384 -5.21934 0
M  V30 1631 H 159.657 -0.166329 -2.98938 0
M  V30 1632 H 157.203 -0.0814359 -1.4377 0
M  V30 1633 H 159.156 2.19332 -3.59822 0
M  V30 1634 H 157.88 2.26045 -2.35735 0
M  V30 1635 H 156.539 0.545727 -3.62515 0
M  V30 1636 H 156.187 2.98537 -4.04827 0
M  V30 1637 H 155.887 2.02269 -5.51689 0
M  V30 1638 H 157.411 2.94032 -5.35143 0
M  V30 1639 H 158.825 0.694375 -5.69079 0
M  V30 1640 H 157.222 -0.0335027 -6.00091 0
M  V30 1641 H 158.292 -0.760961 -4.78892 0
M  V30 1642 N 159.635 1.57281 -0.100228 0
M  V30 1643 C 160.565 2.17328 0.853857 0
M  V30 1644 C 161.546 1.10804 1.2906 0
M  V30 1645 O 162.731 1.38963 1.35657 0
M  V30 1646 C 159.861 2.75772 2.11109 0
M  V30 1647 C 158.815 3.87713 1.81279 0
M  V30 1648 C 158.141 4.32882 3.13874 0
M  V30 1649 C 159.441 5.10677 1.09574 0
M  V30 1650 H 161.135 2.97305 0.353545 0
M  V30 1651 H 158.681 1.43009 0.168612 0
M  V30 1652 H 160.634 3.16433 2.78296 0
M  V30 1653 H 159.358 1.93057 2.63432 0
M  V30 1654 H 158.017 3.476 1.16489 0
M  V30 1655 H 157.665 3.47051 3.64095 0
M  V30 1656 H 157.365 5.08358 2.94696 0
M  V30 1657 H 158.889 4.7618 3.82211 0
M  V30 1658 H 160.303 5.48474 1.66879 0
M  V30 1659 H 158.7 5.91615 1.00557 0
M  V30 1660 H 159.77 4.84835 0.0793299 0
M  V30 1661 N 161.113 -0.173488 1.56642 0
M  V30 1662 C 162.043 -1.2171 1.99271 0
M  V30 1663 C 163.024 -1.46289 0.867959 0
M  V30 1664 O 164.209 -1.5766 1.13388 0
M  V30 1665 C 161.339 -2.55651 2.35074 0
M  V30 1666 C 160.293 -2.45645 3.50489 0
M  V30 1667 C 159.619 -3.84056 3.72028 0
M  V30 1668 C 160.919 -1.96302 4.84007 0
M  V30 1669 H 162.613 -0.86275 2.867 0
M  V30 1670 H 160.159 -0.413571 1.37933 0
M  V30 1671 H 162.112 -3.2886 2.63494 0
M  V30 1672 H 160.836 -2.92869 1.44552 0
M  V30 1673 H 159.495 -1.7489 3.22194 0
M  V30 1674 H 159.143 -4.18664 2.788 0
M  V30 1675 H 158.843 -3.7823 4.49684 0
M  V30 1676 H 160.367 -4.58854 4.02846 0
M  V30 1677 H 161.781 -2.59284 5.11317 0
M  V30 1678 H 160.178 -2.01429 5.65284 0
M  V30 1679 H 161.248 -0.917226 4.76146 0
M  V30 1680 N 162.591 -1.51276 -0.441967 0
M  V30 1681 C 163.819 -1.67516 -1.21434 0
M  V30 1682 C 164.234 -0.37055 -1.85128 0
M  V30 1683 O 163.591 0.650498 -1.70513 0
M  V30 1684 C 163.642 -2.78748 -2.30177 0
M  V30 1685 O 163.363 -4.04154 -1.69089 0
M  V30 1686 C 164.864 -3.06217 -3.20541 0
M  V30 1687 H 162.084 -0.562276 -0.366178 0
M  V30 1688 H 164.628 -1.97666 -0.524244 0
M  V30 1689 H 162.783 -2.5121 -2.94911 0
M  V30 1690 H 163.197 -4.65894 -2.40922 0
M  V30 1691 H 164.671 -3.8764 -3.92987 0
M  V30 1692 H 165.148 -2.18439 -3.81026 0
M  V30 1693 H 165.754 -3.35397 -2.61513 0
M  V30 1694 N 164.069 0.697108 -1.41344 0
M  V30 1695 C 165.317 1.45426 -1.40341 0
M  V30 1696 C 165.638 1.94996 -0.0128787 0
M  V30 1697 O 164.908 1.71599 0.945027 0
M  V30 1698 H 163.488 0.539594 -0.516573 0
M  V30 1699 H 166.15 0.825201 -1.76569 0
M  V30 1700 H 165.246 2.31817 -2.08967 0
M  V30 1701 N 165.547 1.27147 0.931209 0
M  V30 1702 C 166.477 1.12081 2.04842 0
M  V30 1703 C 167.458 0.0232364 1.70084 0
M  V30 1704 O 168.643 0.197085 1.93197 0
M  V30 1705 C 165.773 0.76354 3.38803 0
M  V30 1706 C 164.727 1.81396 3.87659 0
M  V30 1707 C 164.053 1.31075 5.18385 0
M  V30 1708 C 165.353 3.21739 4.11438 0
M  V30 1709 H 167.047 2.05537 2.17703 0
M  V30 1710 H 164.593 0.989603 1.04608 0
M  V30 1711 H 166.546 0.644982 4.16435 0
M  V30 1712 H 165.27 -0.206727 3.25945 0
M  V30 1713 H 163.929 1.92136 3.12217 0
M  V30 1714 H 163.577 0.330037 5.01916 0
M  V30 1715 H 163.277 2.013 5.52044 0
M  V30 1716 H 164.801 1.20506 5.98591 0
M  V30 1717 H 166.215 3.14019 4.79651 0
M  V30 1718 H 164.612 3.89644 4.56397 0
M  V30 1719 H 165.682 3.67054 3.16859 0
M  V30 1720 N 167.025 -1.13721 1.09112 0
M  V30 1721 C 168.271 -1.85198 0.826414 0
M  V30 1722 C 168.604 -1.83129 -0.646319 0
M  V30 1723 O 167.879 -1.2671 -1.47563 0
M  V30 1724 C 168.162 -3.33507 1.35812 0
M  V30 1725 C 168.015 -3.44108 2.89672 0
M  V30 1726 C 169.334 -4.28838 0.989256 0
M  V30 1727 H 166.453 -0.67243 0.301675 0
M  V30 1728 H 169.095 -1.33499 1.35197 0
M  V30 1729 H 167.245 -3.77666 0.911082 0
M  V30 1730 H 168.917 -3.08684 3.428 0
M  V30 1731 H 167.16 -2.85087 3.26967 0
M  V30 1732 H 167.831 -4.48388 3.21951 0
M  V30 1733 H 170.307 -3.92734 1.37475 0
M  V30 1734 H 169.183 -5.31051 1.38838 0
M  V30 1735 H 169.444 -4.4198 -0.102924 0
M  V30 1736 N 168.503 -0.877838 -1.30888 0
M  V30 1737 C 169.751 -0.491723 -1.96027 0
M  V30 1738 C 170.072 0.960827 -1.69685 0
M  V30 1739 O 169.342 1.67462 -1.01654 0
M  V30 1740 H 167.922 -0.17885 -0.725273 0
M  V30 1741 H 170.584 -1.11935 -1.59551 0
M  V30 1742 H 169.68 -0.656016 -3.05128 0
M  V30 1743 N 169.982 1.44106 -0.638065 0
M  V30 1744 C 170.915 2.27924 0.112161 0
M  V30 1745 C 171.893 1.38945 0.844574 0
M  V30 1746 O 173.077 1.68386 0.847248 0
M  V30 1747 C 170.204 3.18029 1.16512 0
M  V30 1748 C 169.25 4.23163 0.532458 0
M  V30 1749 S 170.083 5.31131 -0.682666 0
M  V30 1750 C 171.239 6.24805 0.37013 0
M  V30 1751 H 171.472 2.91205 -0.598887 0
M  V30 1752 H 169.005 1.48394 -0.426441 0
M  V30 1753 H 170.963 3.70492 1.76766 0
M  V30 1754 H 169.624 2.53955 1.8484 0
M  V30 1755 H 168.817 4.86252 1.32571 0
M  V30 1756 H 168.419 3.74 0.00437644 0
M  V30 1757 H 170.711 6.66042 1.24071 0
M  V30 1758 H 171.654 7.07741 -0.225349 0
M  V30 1759 H 172.062 5.60154 0.699141 0
M  V30 1760 N 171.46 0.379036 1.52974 0
M  V30 1761 C 172.408 -0.476033 2.27677 0
M  V30 1762 C 173.402 -1.0719 1.31174 0
M  V30 1763 O 174.608 -1.01355 1.48752 0
M  V30 1764 H 170.983 -0.172255 0.732006 0
M  V30 1765 H 172.954 0.175615 2.97883 0
M  V30 1766 C 171.703 -1.5967 3.0887 0
M  V30 1767 H 171.026 -1.1475 3.82978 0
M  V30 1768 H 172.466 -2.16943 3.64296 0
M  V30 1769 C 170.925 -2.54682 2.20542 0
M  V30 1770 O 171.455 -3.57836 1.82527 0
M  V30 1771 N 169.661 -2.24183 1.84907 0
M  V30 1772 H 169.208 -1.40333 2.1602 0
M  V30 1773 H 169.166 -2.88006 1.26096 0
M  V30 1774 N 172.938 -1.57226 0.108567 0
M  V30 1775 C 173.848 -2.18292 -0.859401 0
M  V30 1776 C 174.864 -1.15612 -1.30038 0
M  V30 1777 O 176.04 -1.48039 -1.36552 0
M  V30 1778 C 173.105 -2.762 -2.09558 0
M  V30 1779 C 172.166 -3.93881 -1.70752 0
M  V30 1780 C 171.399 -4.49018 -2.88477 0
M  V30 1781 O 171.622 -4.03068 -4.036 0
M  V30 1782 O 170.556 -5.39852 -2.66164 0
M  V30 1783 H 174.382 -3.01441 -0.369769 0
M  V30 1784 H 171.967 -1.48945 -0.1165 0
M  V30 1785 H 173.849 -3.13156 -2.81978 0
M  V30 1786 H 172.524 -1.96089 -2.57548 0
M  V30 1787 H 171.431 -3.61713 -0.954714 0
M  V30 1788 H 172.764 -4.75396 -1.27513 0
M  V30 1789 N 174.416 0.165178 -1.56732 0
M  V30 1790 C 175.326 1.22423 -2.00125 0
M  V30 1791 C 176.342 1.48084 -0.913619 0
M  V30 1792 O 177.518 1.60112 -1.22172 0
M  V30 1793 C 174.583 2.54197 -2.35764 0
M  V30 1794 C 173.644 2.36343 -3.58386 0
M  V30 1795 C 172.877 3.61834 -3.92316 0
M  V30 1796 O 173.1 4.67267 -3.27135 0
M  V30 1797 O 172.034 3.55579 -4.85641 0
M  V30 1798 H 175.86 0.885886 -2.90492 0
M  V30 1799 H 173.445 0.372518 -1.44681 0
M  V30 1800 H 175.327 3.3192 -2.59629 0
M  V30 1801 H 174.002 2.87598 -1.48557 0
M  V30 1802 H 172.909 1.56632 -3.39731 0
M  V30 1803 H 174.242 2.07865 -4.46154 0
M  V30 1804 N 175.894 1.51508 0.433938 0
M  V30 1805 C 176.804 1.75917 1.5521 0
M  V30 1806 C 177.82 0.643545 1.61662 0
M  V30 1807 O 178.996 0.926183 1.7884 0
M  V30 1808 C 176.061 1.88213 2.91164 0
M  V30 1809 C 175.122 3.12074 2.94802 0
M  V30 1810 C 174.355 3.23774 4.24271 0
M  V30 1811 O 174.578 2.4133 5.16833 0
M  V30 1812 O 173.512 4.16774 4.34262 0
M  V30 1813 H 177.338 2.70777 1.37527 0
M  V30 1814 H 174.923 1.36051 0.617293 0
M  V30 1815 H 176.805 1.98267 3.71845 0
M  V30 1816 H 175.48 0.965413 3.08968 0
M  V30 1817 H 174.387 3.07497 2.13065 0
M  V30 1818 H 175.72 4.03446 2.81943 0
M  V30 1819 N 177.372 -0.689602 1.41712 0
M  V30 1820 C 178.62 -1.4468 1.4111 0
M  V30 1821 C 178.941 -1.94986 0.0232196 0
M  V30 1822 O 178.211 -1.72097 -0.935913 0
M  V30 1823 H 176.791 -0.536847 0.519427 0
M  V30 1824 H 179.453 -0.815825 1.77004 0
M  V30 1825 H 178.549 -2.30706 2.10193 0
M  V30 1826 N 178.85 -1.27639 -0.924453 0
M  V30 1827 C 180.096 -1.14336 -1.67497 0
M  V30 1828 C 180.429 0.309465 -1.91718 0
M  V30 1829 O 179.704 1.22608 -1.50989 0
M  V30 1830 C 179.987 -1.93096 -3.0395 0
M  V30 1831 C 179.84 -3.46381 -2.8695 0
M  V30 1832 C 181.159 -1.73798 -4.0433 0
M  V30 1833 H 178.278 -0.416728 -0.607871 0
M  V30 1834 H 180.92 -1.56832 -1.07256 0
M  V30 1835 H 179.07 -1.56982 -3.55372 0
M  V30 1836 H 180.742 -3.92343 -2.42621 0
M  V30 1837 H 178.985 -3.72557 -2.22225 0
M  V30 1838 H 179.656 -3.96735 -3.83804 0
M  V30 1839 H 182.132 -2.05293 -3.61931 0
M  V30 1840 H 181.008 -2.31294 -4.97789 0
M  V30 1841 H 181.269 -0.686725 -4.36734 0
M  V30 1842 N 180.328 1.1314 -1.09713 0
M  V30 1843 C 181.26 2.18343 -0.697056 0
M  V30 1844 C 182.273 1.60669 0.262551 0
M  V30 1845 O 183.462 1.78435 0.0481527 0
M  V30 1846 C 180.562 3.38899 -0.00684728 0
M  V30 1847 C 179.735 4.26078 -0.988741 0
M  V30 1848 C 178.794 5.25155 -0.331394 0
M  V30 1849 O 177.82 5.60701 -0.979926 0
M  V30 1850 N 179.022 5.73271 0.913261 0
M  V30 1851 H 181.787 2.5328 -1.60216 0
M  V30 1852 H 179.348 1.28491 -0.984971 0
M  V30 1853 H 181.34 4.02255 0.444191 0
M  V30 1854 H 179.91 3.02175 0.800551 0
M  V30 1855 H 179.13 3.59453 -1.61826 0
M  V30 1856 H 180.418 4.81178 -1.65364 0
M  V30 1857 H 179.816 5.46544 1.45966 0
M  V30 1858 H 178.373 6.3855 1.30757 0
M  V30 1859 N 181.806 0.884767 1.30421 0
M  V30 1860 C 182.716 0.355398 2.31892 0
M  V30 1861 C 183.732 -0.542261 1.65335 0
M  V30 1862 O 184.908 -0.435432 1.96637 0
M  V30 1863 C 181.973 -0.421661 3.44126 0
M  V30 1864 C 181.034 0.505727 4.26311 0
M  V30 1865 C 180.267 -0.234343 5.33185 0
M  V30 1866 O 180.49 -1.46045 5.51386 0
M  V30 1867 O 179.424 0.415443 6.00465 0
M  V30 1868 H 183.25 1.19685 2.79122 0
M  V30 1869 H 180.835 0.648596 1.34587 0
M  V30 1870 H 182.717 -0.861641 4.12497 0
M  V30 1871 H 181.392 -1.23942 2.99032 0
M  V30 1872 H 180.299 0.994513 3.60639 0
M  V30 1873 H 181.632 1.28948 4.75009 0
M  V30 1874 N 183.284 -1.43765 0.645699 0
M  V30 1875 C 184.561 -1.9541 0.0862963 0
M  V30 1876 C 184.941 -1.58725 -1.39175 0
M  V30 1877 O 184.289 -0.868581 -2.11348 0
M  V30 1878 C 184.499 -3.47488 0.324565 0
M  V30 1879 C 185.847 -4.24001 0.225497 0
M  V30 1880 O 186.871 -3.55274 0.256715 0
M  V30 1881 O 185.73 -5.46313 0.142801 0
M  V30 1882 H 182.824 -0.826882 -0.0139483 0
M  V30 1883 H 185.37 -1.53743 0.718415 0
M  V30 1884 H 184.142 -3.67289 1.3496 0
M  V30 1885 H 183.765 -3.96135 -0.340987 0
M  V30 1886 N 184.763 -0.387143 -1.52771 0
M  V30 1887 C 186.009 0.196025 -2.0185 0
M  V30 1888 C 186.342 1.46641 -1.27319 0
M  V30 1889 O 185.617 1.90889 -0.373032 0
M  V30 1890 C 185.9 0.466136 -3.5707 0
M  V30 1891 C 185.753 -0.819385 -4.42274 0
M  V30 1892 C 187.072 1.25768 -4.21747 0
M  V30 1893 H 184.191 0.0697708 -0.73369 0
M  V30 1894 H 186.833 -0.516286 -1.82851 0
M  V30 1895 H 184.983 1.07293 -3.7339 0
M  V30 1896 H 186.655 -1.4563 -4.37709 0
M  V30 1897 H 184.898 -1.43517 -4.09372 0
M  V30 1898 H 185.569 -0.585065 -5.48891 0
M  V30 1899 H 188.045 0.744167 -4.09391 0
M  V30 1900 H 186.921 1.41541 -5.30337 0
M  V30 1901 H 187.182 2.27228 -3.79236 0
M  V30 1902 N 186.241 1.57166 -0.116904 0
M  V30 1903 C 187.487 1.95412 0.542405 0
M  V30 1904 C 187.82 1.00019 1.66463 0
M  V30 1905 O 187.095 0.0370346 1.94465 0
M  V30 1906 C 187.378 3.43615 1.07708 0
M  V30 1907 C 187.231 4.49781 -0.0415868 0
M  V30 1908 C 188.55 3.93616 1.96861 0
M  V30 1909 H 185.669 0.710543 0.195696 0
M  V30 1910 H 188.311 1.89027 -0.192038 0
M  V30 1911 H 186.461 3.49187 1.70296 0
M  V30 1912 H 188.133 4.56308 -0.676793 0
M  V30 1913 H 186.376 4.28033 -0.705019 0
M  V30 1914 H 187.047 5.50733 0.373717 0
M  V30 1915 H 189.523 3.90335 1.44146 0
M  V30 1916 H 188.399 4.97838 2.3119 0
M  V30 1917 H 188.66 3.34188 2.89432 0
M  V30 1918 N 187.719 -0.156864 1.56817 0
M  V30 1919 C 188.682 -1.17781 1.96622 0
M  V30 1920 C 189.682 -1.36401 0.851555 0
M  V30 1921 O 190.872 -1.33561 1.11836 0
M  V30 1922 C 188.004 -2.54008 2.27361 0
M  V30 1923 H 189.197 -0.836564 2.87996 0
M  V30 1924 H 186.75 -0.39985 1.51099 0
M  V30 1925 H 187.485 -2.9312 1.38748 0
M  V30 1926 H 187.27 -2.41856 3.08623 0
M  V30 1927 H 188.76 -3.27558 2.59029 0
M  V30 1928 N 189.197 -1.51736 -0.425897 0
M  V30 1929 C 190.107 -1.76738 -1.54275 0
M  V30 1930 C 191.123 -0.65211 -1.61318 0
M  V30 1931 O 192.299 -0.935654 -1.78346 0
M  V30 1932 C 189.364 -1.89755 -2.90162 0
M  V30 1933 C 188.425 -3.13633 -2.93143 0
M  V30 1934 C 187.658 -3.2602 -4.22548 0
M  V30 1935 O 187.881 -2.44067 -5.15546 0
M  V30 1936 O 186.815 -4.19071 -4.32046 0
M  V30 1937 H 190.641 -2.71502 -1.36089 0
M  V30 1938 H 188.226 -1.36376 -0.610069 0
M  V30 1939 H 190.108 -2.00236 -3.70788 0
M  V30 1940 H 188.783 -0.981785 -3.08452 0
M  V30 1941 H 187.69 -3.08622 -2.11431 0
M  V30 1942 H 189.023 -4.04936 -2.798 0
M  V30 1943 N 190.675 0.682077 -1.42076 0
M  V30 1944 C 191.638 1.77756 -1.44691 0
M  V30 1945 C 192.638 1.5726 -0.335535 0
M  V30 1946 O 193.828 1.63686 -0.596037 0
M  V30 1947 C 190.96 3.16301 -1.27146 0
M  V30 1948 H 192.153 1.76826 -2.42224 0
M  V30 1949 H 189.706 0.891012 -1.28416 0
M  V30 1950 H 190.441 3.22862 -0.305075 0
M  V30 1951 H 190.226 3.32581 -2.07683 0
M  V30 1952 H 191.716 3.96241 -1.31843 0
M  V30 1953 N 192.153 1.28127 0.917671 0
M  V30 1954 C 193.378 1.18007 1.70555 0
M  V30 1955 C 193.803 -0.258257 1.86319 0
M  V30 1956 O 193.161 -1.1869 1.37049 0
M  V30 1957 C 193.209 1.87948 3.07746 0
M  V30 1958 O 192.313 1.18427 3.9503 0
M  V30 1959 H 191.654 0.409867 0.522403 0
M  V30 1960 H 194.184 1.69379 1.1477 0
M  V30 1961 H 194.194 1.95701 3.58001 0
M  V30 1962 H 192.869 2.92573 2.95591 0
M  V30 1963 H 191.446 1.18811 3.53466 0
M  V30 1964 N 193.631 -1.12557 1.10312 0
M  V30 1965 C 194.856 -1.88405 0.867085 0
M  V30 1966 C 195.281 -1.79038 -0.576817 0
M  V30 1967 O 194.639 -1.14439 -1.40618 0
M  V30 1968 C 194.687 -3.3563 1.31851 0
M  V30 1969 O 193.791 -4.09565 0.482734 0
M  V30 1970 H 193.132 -0.585455 0.313271 0
M  V30 1971 H 195.662 -1.42352 1.4696 0
M  V30 1972 H 195.672 -3.86469 1.3079 0
M  V30 1973 H 194.347 -3.41765 2.37001 0
M  V30 1974 H 192.924 -3.68695 0.558448 0
M  V30 1975 N 195.109 -0.891671 -1.2995 0
M  V30 1976 C 196.072 -0.36828 -2.26222 0
M  V30 1977 C 197.072 0.493014 -1.53056 0
M  V30 1978 O 198.262 0.299213 -1.71611 0
M  V30 1979 C 195.394 0.47442 -3.37583 0
M  V30 1980 H 196.587 -1.21844 -2.74033 0
M  V30 1981 H 194.14 -0.669107 -1.41254 0
M  V30 1982 H 194.875 1.34489 -2.95099 0
M  V30 1983 H 194.66 -0.142615 -3.91841 0
M  V30 1984 H 196.15 0.83218 -4.09224 0
M  V30 1985 N 196.587 1.43421 -0.653314 0
M  V30 1986 C 197.836 2.01032 -0.164076 0
M  V30 1987 C 198.149 1.52147 1.22926 0
M  V30 1988 O 199.355 2.02031 1.81371 0
M  V30 1989 C 197.811 3.59082 -0.24252 0
M  V30 1990 C 197.419 4.1696 -1.63855 0
M  V30 1991 C 199.163 4.24079 0.18911 0
M  V30 1992 C 197.07 5.67304 -1.67092 0
M  V30 1993 H 196 0.751798 -0.0575769 0
M  V30 1994 H 198.651 1.6439 -0.815362 0
M  V30 1995 H 197.033 3.93125 0.476276 0
M  V30 1996 H 198.207 3.94416 -2.38271 0
M  V30 1997 H 196.522 3.64335 -2.01616 0
M  V30 1998 H 199.119 5.34381 0.184775 0
M  V30 1999 H 199.462 3.98005 1.22056 0
M  V30 2000 H 199.995 3.94918 -0.477938 0
M  V30 2001 H 196.734 5.98145 -2.68146 0
M  V30 2002 H 196.254 5.91904 -0.970014 0
M  V30 2003 H 197.933 6.31344 -1.4147 0
M  V30 2004 N 198.065 0.39524 1.52563 0
M  V30 2005 C 198.997 -0.472201 2.24283 0
M  V30 2006 C 200.01 -1.02178 1.26742 0
M  V30 2007 O 201.199 -0.923097 1.52778 0
M  V30 2008 C 198.299 -1.66775 2.95024 0
M  V30 2009 C 197.472 -1.2445 4.19322 0
M  V30 2010 C 196.531 -2.30539 4.7301 0
M  V30 2011 O 195.557 -1.91702 5.35947 0
M  V30 2012 N 196.759 -3.6253 4.53379 0
M  V30 2013 H 199.524 0.142282 2.99362 0
M  V30 2014 H 197.085 0.2219 1.60372 0
M  V30 2015 H 199.077 -2.37283 3.27839 0
M  V30 2016 H 197.647 -2.18845 2.23217 0
M  V30 2017 H 196.867 -0.368069 3.92478 0
M  V30 2018 H 198.155 -0.938457 5.0007 0
M  V30 2019 H 197.553 -3.96841 4.03154 0
M  V30 2020 H 196.11 -4.29055 4.90668 0
M  V30 2021 N 199.544 -1.57102 0.125237 0
M  V30 2022 C 200.955 -1.82384 -0.399142 0
M  V30 2023 C 201.306 -1.04276 -1.66195 0
M  V30 2024 O 200.431 -0.281269 -2.14564 0
M  V30 2025 C 201.026 -3.30821 -0.730932 0
M  V30 2026 C 199.585 -3.56762 -1.19992 0
M  V30 2027 C 198.732 -2.7649 -0.211792 0
M  V30 2028 H 201.683 -1.54786 0.350277 0
M  V30 2029 H 201.704 -3.4579 -1.58775 0
M  V30 2030 H 201.216 -3.87643 0.188345 0
M  V30 2031 H 199.317 -3.05305 -2.13588 0
M  V30 2032 H 199.43 -4.65317 -1.14093 0
M  V30 2033 H 197.794 -2.4489 -0.700085 0
M  V30 2034 H 198.577 -3.36073 0.700691 0
M  V30 2035 N 201.022 0.148545 -1.56898 0
M  V30 2036 C 202.27 0.859717 -1.82902 0
M  V30 2037 C 202.591 1.81775 -0.70588 0
M  V30 2038 O 201.861 1.93994 0.272586 0
M  V30 2039 H 200.441 0.320469 -0.674766 0
M  V30 2040 H 203.103 0.142918 -1.94375 0
M  V30 2041 H 202.199 1.4229 -2.77777 0
M  V30 2042 N 202.5 1.5196 0.417844 0
M  V30 2043 C 203.728 1.69426 1.18753 0
M  V30 2044 C 204.143 0.399955 1.84515 0
M  V30 2045 O 203.5 -0.623288 1.71527 0
M  V30 2046 C 203.551 2.82375 2.25714 0
M  V30 2047 O 203.272 4.06793 1.62638 0
M  V30 2048 C 204.773 3.11277 3.15628 0
M  V30 2049 H 201.993 0.568031 0.357186 0
M  V30 2050 H 204.537 1.98475 0.49273 0
M  V30 2051 H 202.692 2.5587 2.90877 0
M  V30 2052 H 203.106 4.69667 2.3348 0
M  V30 2053 H 204.58 3.93843 3.86771 0
M  V30 2054 H 205.057 2.24473 3.77503 0
M  V30 2055 H 205.663 3.39515 2.56144 0
M  V30 2056 N 203.978 -0.674533 1.42435 0
M  V30 2057 C 204.925 -1.78807 1.45934 0
M  V30 2058 C 205.895 -1.63157 0.311271 0
M  V30 2059 O 207.08 -1.83707 0.515383 0
M  V30 2060 C 204.22 -3.16839 1.36773 0
M  V30 2061 C 203.333 -3.43774 2.61617 0
M  V30 2062 C 202.468 -4.71536 2.44597 0
M  V30 2063 C 201.507 -4.91505 3.64814 0
M  V30 2064 N 200.644 -6.10508 3.46734 0
M  V30 2065 H 205.484 -1.75151 2.41093 0
M  V30 2066 H 203.021 -0.85504 1.19697 0
M  V30 2067 H 204.979 -3.96606 1.29459 0
M  V30 2068 H 203.609 -3.19619 0.452089 0
M  V30 2069 H 202.661 -2.58259 2.79297 0
M  V30 2070 H 203.973 -3.54423 3.50978 0
M  V30 2071 H 203.127 -5.59393 2.3487 0
M  V30 2072 H 201.866 -4.6317 1.52726 0
M  V30 2073 H 200.871 -4.0209 3.74972 0
M  V30 2074 H 202.096 -5.01716 4.57665 0
M  V30 2075 H 200.042 -6.03315 2.5758 0
M  V30 2076 H 199.959 -6.2202 4.29682 0
M  V30 2077 H 201.227 -7.01044 3.40819 0
M  V30 2078 N 205.456 -1.28612 -0.910864 0
M  V30 2079 C 206.684 -1.18792 -1.69399 0
M  V30 2080 C 207.099 0.253039 -1.87097 0
M  V30 2081 O 206.456 1.17071 -1.40003 0
M  V30 2082 C 206.507 -1.88511 -3.08457 0
M  V30 2083 O 206.228 -3.26979 -2.91576 0
M  V30 2084 C 207.729 -1.85029 -4.02839 0
M  V30 2085 H 204.949 -0.412233 -0.529438 0
M  V30 2086 H 207.493 -1.69788 -1.13984 0
M  V30 2087 H 205.648 -1.41379 -3.60681 0
M  V30 2088 H 206.062 -3.61936 -3.79608 0
M  V30 2089 H 207.536 -2.38395 -4.97867 0
M  V30 2090 H 208.013 -0.823303 -4.31414 0
M  V30 2091 H 208.619 -2.31853 -3.56545 0
M  V30 2092 N 206.934 1.1197 -1.10907 0
M  V30 2093 C 208.345 1.65114 -0.871446 0
M  V30 2094 C 208.696 1.86885 0.597353 0
M  V30 2095 O 207.821 1.59896 1.45816 0
M  V30 2096 C 208.416 2.99944 -1.5754 0
M  V30 2097 C 206.975 3.50018 -1.38435 0
M  V30 2098 C 206.122 2.24941 -1.62164 0
M  V30 2099 H 209.073 0.956851 -1.2661 0
M  V30 2100 H 209.094 3.66651 -1.01721 0
M  V30 2101 H 208.606 2.84067 -2.64438 0
M  V30 2102 H 206.707 3.71071 -0.337214 0
M  V30 2103 H 206.82 4.29165 -2.12965 0
M  V30 2104 H 205.184 2.3229 -1.04467 0
M  V30 2105 H 205.967 2.11612 -2.70324 0
M  V30 2106 N 208.412 0.89855 1.29475 0
M  V30 2107 C 209.66 0.522847 1.9522 0
M  V30 2108 C 209.981 -0.93371 1.71192 0
M  V30 2109 O 209.251 -1.65823 1.04305 0
M  V30 2110 H 207.831 0.190366 0.722336 0
M  V30 2111 H 210.493 1.14459 1.5775 0
M  V30 2112 H 209.589 0.704476 3.04045 0
M  V30 2113 N 209.89 -1.43072 0.660911 0
M  V30 2114 C 211.301 -1.84932 0.256348 0
M  V30 2115 C 211.652 -1.55325 -1.19868 0
M  V30 2116 O 210.777 -1.00607 -1.91591 0
M  V30 2117 C 211.372 -3.35684 0.458475 0
M  V30 2118 C 209.931 -3.76245 0.108161 0
M  V30 2119 C 209.078 -2.66749 0.757641 0
M  V30 2120 H 212.029 -1.33116 0.864051 0
M  V30 2121 H 212.05 -3.79365 -0.293683 0
M  V30 2122 H 211.562 -3.572 1.51755 0
M  V30 2123 H 209.663 -3.60338 -0.948014 0
M  V30 2124 H 209.776 -4.76058 0.538992 0
M  V30 2125 H 208.14 -2.53989 0.190185 0
M  V30 2126 H 208.923 -2.91092 1.81989 0
M  V30 2127 N 211.368 -0.403325 -1.52352 0
M  V30 2128 C 212.779 0.0675782 -1.86578 0
M  V30 2129 C 213.13 1.44941 -1.32236 0
M  V30 2130 O 212.255 2.06112 -0.659307 0
M  V30 2131 C 212.85 0.129404 -3.38553 0
M  V30 2132 C 211.409 0.544629 -3.72439 0
M  V30 2133 C 210.556 -0.284551 -2.75836 0
M  V30 2134 H 213.507 -0.620631 -1.46061 0
M  V30 2135 H 213.528 0.94581 -3.68558 0
M  V30 2136 H 213.04 -0.87645 -3.78074 0
M  V30 2137 H 211.141 1.55734 -3.38493 0
M  V30 2138 H 211.254 0.293046 -4.78203 0
M  V30 2139 H 209.618 0.252258 -2.53448 0
M  V30 2140 H 210.401 -1.28865 -3.18196 0
M  V30 2141 N 212.846 1.57033 -0.133567 0
M  V30 2142 C 214.257 1.82593 0.389464 0
M  V30 2143 C 214.608 1.05156 1.6564 0
M  V30 2144 O 213.733 0.292644 2.14412 0
M  V30 2145 C 214.328 3.31204 0.713377 0
M  V30 2146 C 212.887 3.57393 1.18098 0
M  V30 2147 C 212.034 2.76598 0.197126 0
M  V30 2148 H 214.985 1.54598 -0.358481 0
M  V30 2149 H 215.006 3.46627 1.56939 0
M  V30 2150 H 214.518 3.87537 -0.2089 0
M  V30 2151 H 212.619 3.06433 2.11966 0
M  V30 2152 H 212.732 4.65915 1.11624 0
M  V30 2153 H 211.096 2.45257 0.687088 0
M  V30 2154 H 211.879 3.35697 -0.718504 0
M  V30 2155 N 214.325 -0.140222 1.56975 0
M  V30 2156 C 215.736 -0.699596 1.73097 0
M  V30 2157 C 216.087 -1.8134 0.749022 0
M  V30 2158 O 215.212 -2.16241 -0.0828503 0
M  V30 2159 C 215.807 -1.27582 3.1386 0
M  V30 2160 C 214.366 -1.78169 3.31561 0
M  V30 2161 C 213.513 -0.672855 2.69013 0
M  V30 2162 H 216.464 0.0855115 1.58469 0
M  V30 2163 H 216.485 -2.14561 3.14235 0
M  V30 2164 H 215.997 -0.464955 3.85305 0
M  V30 2165 H 214.098 -2.61801 2.65124 0
M  V30 2166 H 214.211 -1.90574 4.39566 0
M  V30 2167 H 212.575 -1.10118 2.29665 0
M  V30 2168 H 213.358 0.126679 3.43066 0
M  V30 2169 N 215.803 -1.52179 -0.40978 0
M  V30 2170 C 217.219 -1.40968 -0.74835 0
M  V30 2171 C 217.419 -0.513657 -1.94843 0
M  V30 2172 O 216.475 0.0208026 -2.52491 0
M  V30 2173 C 217.788 -2.83483 -1.0029 0
M  V30 2174 C 219.336 -2.92821 -1.10565 0
M  V30 2175 C 219.811 -4.36303 -1.39296 0
M  V30 2176 N 221.302 -4.39535 -1.46162 0
M  V30 2177 C 222.037 -5.47614 -1.70018 0
M  V30 2178 N 221.533 -6.65812 -1.91483 0
M  V30 2179 N 223.326 -5.35129 -1.72027 0
M  V30 2180 H 215.477 -2.0897 0.380186 0
M  V30 2181 H 217.74 -0.94185 0.107805 0
M  V30 2182 H 217.446 -3.51168 -0.193461 0
M  V30 2183 H 217.32 -3.24487 -1.92323 0
M  V30 2184 H 219.707 -2.25318 -1.90568 0
M  V30 2185 H 219.788 -2.55276 -0.16369 0
M  V30 2186 H 219.432 -5.04366 -0.598109 0
M  V30 2187 H 219.362 -4.71385 -2.34743 0
M  V30 2188 H 221.853 -3.54332 -1.31367 0
M  V30 2189 H 222.166 -7.43964 -2.09134 0
M  V30 2190 H 220.511 -6.68879 -1.88749 0
M  V30 2191 H 223.702 -4.41764 -1.54796 0
M  V30 2192 H 223.875 -6.19433 -1.9028 0
M  V30 2193 N 217.281 0.66697 -1.42791 0
M  V30 2194 C 218.529 1.42417 -1.43394 0
M  V30 2195 C 218.85 1.94925 -0.0542373 0
M  V30 2196 O 218.12 1.73564 0.908415 0
M  V30 2197 H 216.7 0.528515 -0.527902 0
M  V30 2198 H 219.362 0.787562 -1.78279 0
M  V30 2199 H 218.458 2.27333 -2.13837 0
M  V30 2200 N 218.759 1.29093 0.90403 0
M  V30 2201 C 219.722 1.1386 1.98919 0
M  V30 2202 C 220.722 0.0753457 1.60623 0
M  V30 2203 O 221.912 0.321931 1.71199 0
M  V30 2204 C 219.044 0.740198 3.32767 0
M  V30 2205 H 220.237 2.10246 2.13861 0
M  V30 2206 H 217.79 1.12218 1.08797 0
M  V30 2207 H 218.525 -0.223997 3.23525 0
M  V30 2208 H 218.31 1.50838 3.61926 0
M  V30 2209 H 219.8 0.656546 4.12407 0
M  V30 2210 N 220.237 -1.11381 1.11499 0
M  V30 2211 C 221.169 -2.17207 0.731704 0
M  V30 2212 C 222.182 -1.61066 -0.236957 0
M  V30 2213 O 223.371 -1.78489 -0.0197591 0
M  V30 2214 C 220.471 -3.38846 0.0607624 0
M  V30 2215 C 219.644 -4.24451 1.0564 0
M  V30 2216 C 218.703 -5.24562 0.4149 0
M  V30 2217 O 217.729 -5.59071 1.069 0
M  V30 2218 N 218.931 -5.74651 -0.821943 0
M  V30 2219 H 221.696 -2.50699 1.64225 0
M  V30 2220 H 219.257 -1.26908 1.00529 0
M  V30 2221 H 221.249 -4.02911 -0.380139 0
M  V30 2222 H 219.819 -3.03411 -0.752376 0
M  V30 2223 H 219.039 -3.56833 1.67524 0
M  V30 2224 H 220.327 -4.78486 1.72998 0
M  V30 2225 H 219.725 -5.48797 -1.37252 0
M  V30 2226 H 218.282 -6.40549 -1.20582 0
M  V30 2227 N 221.715 -0.905404 -1.28997 0
M  V30 2228 C 223.126 -0.581953 -1.77398 0
M  V30 2229 C 223.477 0.902552 -1.74208 0
M  V30 2230 O 222.602 1.70584 -1.33154 0
M  V30 2231 C 223.197 -1.04961 -3.22131 0
M  V30 2232 C 221.756 -0.777229 -3.68288 0
M  V30 2233 C 220.903 -1.22109 -2.48967 0
M  V30 2234 H 223.854 -1.08754 -1.15578 0
M  V30 2235 H 223.875 -0.387387 -3.78523 0
M  V30 2236 H 223.387 -2.13008 -3.24421 0
M  V30 2237 H 221.488 0.290383 -3.71467 0
M  V30 2238 H 221.601 -1.37911 -4.58822 0
M  V30 2239 H 219.965 -0.639971 -2.46529 0
M  V30 2240 H 220.748 -2.30972 -2.53982 0
M  V30 2241 N 223.193 1.4272 -0.668489 0
M  V30 2242 C 224.123 2.335 -0.000100175 0
M  V30 2243 C 225.104 1.50328 0.795964 0
M  V30 2244 O 226.289 1.78949 0.754385 0
M  V30 2245 C 223.419 3.33874 0.956302 0
M  V30 2246 C 222.373 4.27152 0.269278 0
M  V30 2247 C 221.699 5.17684 1.33818 0
M  V30 2248 C 222.999 5.15373 -0.847805 0
M  V30 2249 H 224.693 2.89639 -0.758244 0
M  V30 2250 H 222.239 1.39269 -0.366079 0
M  V30 2251 H 224.192 3.9629 1.43292 0
M  V30 2252 H 222.916 2.76025 1.74579 0
M  V30 2253 H 221.575 3.66123 -0.187042 0
M  V30 2254 H 221.223 4.56165 2.1195 0
M  V30 2255 H 220.923 5.80918 0.883659 0
M  V30 2256 H 222.447 5.82974 1.81586 0
M  V30 2257 H 223.861 5.7151 -0.452681 0
M  V30 2258 H 222.258 5.87407 -1.22773 0
M  V30 2259 H 223.328 4.5415 -1.69929 0
M  V30 2260 N 224.671 0.411399 1.52136 0
M  V30 2261 C 225.601 -0.404015 2.29978 0
M  V30 2262 C 226.582 -1.04412 1.34284 0
M  V30 2263 O 227.767 -1.0527 1.63192 0
M  V30 2264 C 224.897 -1.5197 3.12286 0
M  V30 2265 C 223.851 -1.00448 4.16046 0
M  V30 2266 C 223.177 -2.21393 4.86712 0
M  V30 2267 C 224.477 -0.0569336 5.22269 0
M  V30 2268 H 226.171 0.245529 2.98392 0
M  V30 2269 H 223.717 0.119525 1.43503 0
M  V30 2270 H 225.67 -2.09715 3.6551 0
M  V30 2271 H 224.394 -2.19716 2.41646 0
M  V30 2272 H 223.053 -0.449421 3.63835 0
M  V30 2273 H 222.701 -2.87699 4.12599 0
M  V30 2274 H 222.401 -1.87571 5.56858 0
M  V30 2275 H 223.925 -2.7974 5.4275 0
M  V30 2276 H 225.339 -0.54325 5.7072 0
M  V30 2277 H 223.736 0.192594 5.99791 0
M  V30 2278 H 224.806 0.887663 4.76706 0
M  V30 2279 N 226.149 -1.5696 0.141893 0
M  V30 2280 C 227.56 -1.82797 -0.379776 0
M  V30 2281 C 227.911 -1.06033 -1.6508 0
M  V30 2282 O 227.036 -0.304011 -2.14254 0
M  V30 2283 C 227.631 -3.31578 -0.695802 0
M  V30 2284 C 226.19 -3.58014 -1.16201 0
M  V30 2285 C 225.337 -2.76699 -0.182455 0
M  V30 2286 H 228.288 -1.54406 0.366675 0
M  V30 2287 H 228.309 -3.47454 -1.55099 0
M  V30 2288 H 227.821 -3.87421 0.229449 0
M  V30 2289 H 225.922 -3.07553 -2.10338 0
M  V30 2290 H 226.035 -4.66501 -1.09151 0
M  V30 2291 H 224.399 -2.45618 -0.674072 0
M  V30 2292 H 225.182 -3.35311 0.736297 0
M  V30 2293 N 227.627 0.131896 -1.57047 0
M  V30 2294 C 228.557 1.16384 -2.02428 0
M  V30 2295 C 229.538 1.43936 -0.90644 0
M  V30 2296 O 230.723 1.54599 -1.17528 0
M  V30 2297 C 227.853 2.49328 -2.4177 0
M  V30 2298 C 226.807 2.36266 -3.56879 0
M  V30 2299 C 226.133 3.74057 -3.8208 0
M  V30 2300 C 227.433 1.834 -4.89042 0
M  V30 2301 H 229.127 0.786433 -2.88887 0
M  V30 2302 H 226.673 0.376855 -1.38981 0
M  V30 2303 H 228.626 3.21759 -2.7212 0
M  V30 2304 H 227.35 2.88934 -1.52266 0
M  V30 2305 H 226.009 1.66286 -3.26718 0
M  V30 2306 H 225.657 4.11125 -2.89803 0
M  V30 2307 H 225.357 3.66174 -4.59554 0
M  V30 2308 H 226.881 4.48012 -4.1487 0
M  V30 2309 H 228.295 2.45636 -5.18011 0
M  V30 2310 H 226.692 1.8637 -5.70426 0
M  V30 2311 H 227.762 0.790662 -4.7841 0
M  V30 2312 N 229.106 1.52395 0.401703 0
M  V30 2313 C 230.517 1.58899 0.980202 0
M  V30 2314 C 230.868 0.434032 1.91339 0
M  V30 2315 O 229.993 -0.444619 2.11783 0
M  V30 2316 C 230.588 2.87994 1.78451 0
M  V30 2317 C 229.147 2.96953 2.31292 0
M  V30 2318 C 228.294 2.53903 1.11483 0
M  V30 2319 H 231.245 1.57657 0.18168 0
M  V30 2320 H 231.266 2.73765 2.64259 0
M  V30 2321 H 230.778 3.72035 1.10506 0
M  V30 2322 H 228.879 2.17422 3.02586 0
M  V30 2323 H 228.992 4.01344 2.61649 0
M  V30 2324 H 227.356 2.07925 1.47104 0
M  V30 2325 H 228.139 3.40326 0.450928 0
M  V30 2326 N 230.584 -0.659388 1.43143 0
M  V30 2327 C 232 -0.974337 1.26407 0
M  V30 2328 C 232.2 -2.007 0.179341 0
M  V30 2329 O 231.256 -2.4856 -0.444295 0
M  V30 2330 C 232.569 -1.46447 2.62628 0
M  V30 2331 C 234.117 -1.58144 2.7011 0
M  V30 2332 C 234.592 -2.1055 4.06734 0
M  V30 2333 N 236.083 -2.17861 4.08767 0
M  V30 2334 C 236.818 -2.59519 5.1131 0
M  V30 2335 N 236.314 -3.00518 6.24228 0
M  V30 2336 N 238.107 -2.59404 4.98664 0
M  V30 2337 H 230.258 0.0240528 2.12386 0
M  V30 2338 H 232.521 -0.0518065 0.946583 0
M  V30 2339 H 232.227 -0.780123 3.42939 0
M  V30 2340 H 232.101 -2.44058 2.87603 0
M  V30 2341 H 234.488 -2.25682 1.90136 0
M  V30 2342 H 234.569 -0.589828 2.48907 0
M  V30 2343 H 234.213 -1.43616 4.87172 0
M  V30 2344 H 234.143 -3.10531 4.25298 0
M  V30 2345 H 236.634 -1.88975 3.27257 0
M  V30 2346 H 236.947 -3.31036 6.98309 0
M  V30 2347 H 235.292 -2.98337 6.2771 0
M  V30 2348 H 238.483 -2.26747 4.09516 0
M  V30 2349 H 238.656 -2.91548 5.78709 0
M  V30 2350 N 232.062 -1.29571 -0.897171 0
M  V30 2351 C 233.292 -1.20408 -1.67886 0
M  V30 2352 C 233.7 0.237429 -1.87704 0
M  V30 2353 O 233.043 1.17048 -1.41582 0
M  V30 2354 C 233.105 -1.84887 -3.08314 0
M  V30 2355 C 232.769 -3.34189 -3.11716 0
M  V30 2356 C 233.766 -4.30374 -2.91675 0
M  V30 2357 C 231.451 -3.75431 -3.33701 0
M  V30 2358 C 233.445 -5.65776 -2.93557 0
M  V30 2359 C 231.132 -5.10955 -3.35214 0
M  V30 2360 C 232.13 -6.05938 -3.15164 0
M  V30 2361 O 231.818 -7.38987 -3.1647 0
M  V30 2362 H 231.55 -0.418289 -0.531046 0
M  V30 2363 H 234.104 -1.71514 -1.13014 0
M  V30 2364 H 232.334 -1.28295 -3.64798 0
M  V30 2365 H 234.023 -1.70011 -3.6858 0
M  V30 2366 H 234.789 -3.99844 -2.74499 0
M  V30 2367 H 230.668 -3.01953 -3.48347 0
M  V30 2368 H 234.212 -6.39889 -2.77826 0
M  V30 2369 H 230.109 -5.4113 -3.51922 0
M  V30 2370 H 230.877 -7.47823 -3.3272 0
M  V30 2371 N 233.54 1.10788 -1.12088 0
M  V30 2372 C 234.47 2.19083 -0.807755 0
M  V30 2373 C 235.451 1.6858 0.226859 0
M  V30 2374 O 236.636 1.93997 0.0888475 0
M  V30 2375 C 233.766 3.46344 -0.257576 0
M  V30 2376 C 232.72 4.101 -1.22483 0
M  V30 2377 C 232.046 5.32016 -0.535052 0
M  V30 2378 C 233.346 4.54236 -2.57811 0
M  V30 2379 H 235.04 2.45534 -1.71328 0
M  V30 2380 H 232.586 1.1801 -0.825205 0
M  V30 2381 H 234.539 4.21392 -0.0262679 0
M  V30 2382 H 233.263 3.19373 0.683278 0
M  V30 2383 H 231.922 3.37054 -1.44189 0
M  V30 2384 H 231.57 5.01319 0.410827 0
M  V30 2385 H 231.27 5.75625 -1.18024 0
M  V30 2386 H 232.794 6.09799 -0.312695 0
M  V30 2387 H 234.208 5.20575 -2.40155 0
M  V30 2388 H 232.605 5.08682 -3.18375 0
M  V30 2389 H 233.675 3.6734 -3.16528 0
M  V30 2390 N 235.018 0.912232 1.28515 0
M  V30 2391 C 236.434 0.610159 1.47476 0
M  V30 2392 C 236.634 -0.844955 1.82928 0
M  V30 2393 O 235.69 -1.62416 1.93332 0
M  V30 2394 C 237.003 1.54675 2.57868 0
M  V30 2395 C 238.551 1.55331 2.71738 0
M  V30 2396 C 239.026 2.47649 3.85272 0
M  V30 2397 N 240.517 2.45767 3.92623 0
M  V30 2398 C 241.252 3.13896 4.79851 0
M  V30 2399 N 240.748 3.9135 5.71679 0
M  V30 2400 N 242.541 3.02991 4.73448 0
M  V30 2401 H 234.692 1.85318 1.03783 0
M  V30 2402 H 236.955 0.794777 0.516753 0
M  V30 2403 H 236.661 2.5841 2.38574 0
M  V30 2404 H 236.535 1.27671 3.54937 0
M  V30 2405 H 238.922 0.52335 2.90422 0
M  V30 2406 H 239.003 1.86378 1.75205 0
M  V30 2407 H 238.647 3.50745 3.67342 0
M  V30 2408 H 238.577 2.13904 4.81199 0
M  V30 2409 H 241.068 1.89503 3.26951 0
M  V30 2410 H 241.381 4.40359 6.35062 0
M  V30 2411 H 239.726 3.95455 5.71524 0
M  V30 2412 H 242.917 2.41987 4.007 0
M  V30 2413 H 243.09 3.5636 5.41213 0
M  V30 2414 N 236.496 -1.42363 0.676048 0
M  V30 2415 C 237.912 -1.55811 0.345718 0
M  V30 2416 C 238.112 -1.65544 -1.14879 0
M  V30 2417 O 237.168 -1.62306 -1.93424 0
M  V30 2418 C 238.481 -2.80746 1.07713 0
M  V30 2419 C 240.029 -2.9452 1.05958 0
M  V30 2420 C 240.504 -4.22318 1.77233 0
M  V30 2421 N 241.995 -4.29233 1.74108 0
M  V30 2422 C 242.73 -5.26935 2.26113 0
M  V30 2423 N 242.226 -6.30783 2.86505 0
M  V30 2424 N 244.019 -5.18741 2.1648 0
M  V30 2425 H 236.17 -1.34289 1.6456 0
M  V30 2426 H 238.433 -0.646506 0.69335 0
M  V30 2427 H 238.139 -2.79696 2.13221 0
M  V30 2428 H 238.013 -3.71676 0.64316 0
M  V30 2429 H 240.4 -2.95097 0.0128255 0
M  V30 2430 H 240.481 -2.04817 1.53244 0
M  V30 2431 H 240.125 -4.22502 2.81877 0
M  V30 2432 H 240.055 -5.10958 1.27396 0
M  V30 2433 H 242.546 -3.54814 1.30059 0
M  V30 2434 H 242.859 -7.01691 3.23805 0
M  V30 2435 H 241.204 -6.31341 2.90575 0
M  V30 2436 H 244.395 -4.36533 1.68987 0
M  V30 2437 H 244.568 -5.94721 2.57316 0
M  V30 2438 N 237.974 -0.419461 -1.51915 0
M  V30 2439 C 238.937 0.389116 -2.25873 0
M  V30 2440 C 239.937 0.964924 -1.28631 0
M  V30 2441 O 241.127 0.842179 -1.52489 0
M  V30 2442 C 238.259 1.54874 -3.03689 0
M  V30 2443 H 239.452 -0.258799 -2.98781 0
M  V30 2444 H 237.005 -0.172209 -1.55348 0
M  V30 2445 H 237.74 2.23323 -2.35154 0
M  V30 2446 H 237.525 1.14223 -3.75094 0
M  V30 2447 H 239.015 2.12046 -3.59759 0
M  V30 2448 N 239.452 1.56882 -0.150215 0
M  V30 2449 C 240.677 2.01027 0.510184 0
M  V30 2450 C 241.102 1.02966 1.57415 0
M  V30 2451 O 240.46 0.00590158 1.81299 0
M  V30 2452 C 240.508 3.43899 1.08472 0
M  V30 2453 O 239.612 3.4885 2.19948 0
M  V30 2454 H 238.953 0.652233 0.124451 0
M  V30 2455 H 241.483 2.03093 -0.247894 0
M  V30 2456 H 241.493 3.82766 1.41259 0
M  V30 2457 H 240.168 4.14776 0.305582 0
M  V30 2458 H 238.745 3.21827 1.88366 0
M  V30 2459 N 240.93 -0.123565 1.57115 0
M  V30 2460 C 242.155 -0.850398 1.89164 0
M  V30 2461 C 242.58 -1.7286 0.741688 0
M  V30 2462 O 241.938 -1.78665 -0.307958 0
M  V30 2463 C 241.986 -1.66353 3.19936 0
M  V30 2464 O 241.09 -2.77004 3.0552 0
M  V30 2465 H 240.431 -0.235454 0.620852 0
M  V30 2466 H 242.961 -0.107335 2.04318 0
M  V30 2467 H 242.971 -2.05372 3.52543 0
M  V30 2468 H 241.646 -1.01881 4.03228 0
M  V30 2469 H 240.223 -2.41221 2.84371 0
M  V30 2470 N 242.408 -1.52605 -0.393616 0
M  V30 2471 C 243.358 -1.73436 -1.48 0
M  V30 2472 C 244.342 -0.588386 -1.49756 0
M  V30 2473 O 245.534 -0.846047 -1.5547 0
M  V30 2474 C 242.663 -1.90247 -2.85764 0
M  V30 2475 C 241.749 -3.10763 -2.88595 0
M  V30 2476 N 242.14 -4.33196 -2.61103 0
M  V30 2477 C 240.438 -3.10914 -3.19763 0
M  V30 2478 C 241.139 -5.1477 -2.70899 0
M  V30 2479 N 240.115 -4.50356 -3.04435 0
M  V30 2480 H 243.917 -2.65727 -1.25563 0
M  V30 2481 H 241.431 -1.5085 -0.601513 0
M  V30 2482 H 243.428 -2.03291 -3.63976 0
M  V30 2483 H 242.088 -0.991663 -3.09186 0
M  V30 2484 H 243.099 -4.61408 -2.35209 0
M  V30 2485 H 239.776 -2.29626 -3.4868 0
M  V30 2486 H 241.166 -6.22355 -2.53227 0
M  V30 2487 N 243.887 0.651787 -1.4349 0
M  V30 2488 C 244.817 1.77621 -1.51569 0
M  V30 2489 C 245.798 1.66022 -0.370253 0
M  V30 2490 O 246.983 1.85095 -0.587658 0
M  V30 2491 C 244.113 3.16056 -1.43966 0
M  V30 2492 C 243.067 3.4242 -2.56774 0
M  V30 2493 C 242.393 4.8067 -2.34223 0
M  V30 2494 C 243.693 3.37023 -3.99015 0
M  V30 2495 H 245.387 1.71117 -2.45681 0
M  V30 2496 H 242.933 0.821825 -1.18246 0
M  V30 2497 H 244.886 3.94472 -1.48221 0
M  V30 2498 H 243.61 3.23293 -0.463586 0
M  V30 2499 H 242.269 2.66375 -2.51873 0
M  V30 2500 H 241.917 4.84585 -1.34856 0
M  V30 2501 H 241.617 4.9927 -3.09844 0
M  V30 2502 H 243.141 5.61342 -2.40265 0
M  V30 2503 H 244.555 4.05374 -4.05395 0
M  V30 2504 H 242.952 3.67159 -4.74673 0
M  V30 2505 H 244.022 2.3518 -4.2405 0
M  V30 2506 N 245.365 1.30045 0.890287 0
M  V30 2507 C 246.295 1.18541 2.01172 0
M  V30 2508 C 247.276 0.0773356 1.69924 0
M  V30 2509 O 248.461 0.25845 1.92473 0
M  V30 2510 C 245.591 0.870941 3.36202 0
M  V30 2511 C 244.545 1.93637 3.81692 0
M  V30 2512 C 243.871 1.475 5.13953 0
M  V30 2513 C 245.171 3.34666 4.00994 0
M  V30 2514 H 246.865 2.12359 2.11054 0
M  V30 2515 H 244.411 1.02238 1.01407 0
M  V30 2516 H 246.364 0.777141 4.14172 0
M  V30 2517 H 245.088 -0.102926 3.26438 0
M  V30 2518 H 243.747 2.01972 3.05946 0
M  V30 2519 H 243.395 0.489551 5.00612 0
M  V30 2520 H 243.095 2.1876 5.4536 0
M  V30 2521 H 244.619 1.39489 5.94454 0
M  V30 2522 H 246.033 3.2912 4.69417 0
M  V30 2523 H 244.43 4.03966 4.43769 0
M  V30 2524 H 245.5 3.76949 3.05021 0
M  V30 2525 N 246.843 -1.10192 1.12674 0
M  V30 2526 C 248.254 -1.63707 0.897604 0
M  V30 2527 C 248.605 -1.87812 -0.567546 0
M  V30 2528 O 247.73 -1.62196 -1.43253 0
M  V30 2529 C 248.325 -2.974 1.62292 0
M  V30 2530 C 246.884 -3.47772 1.43986 0
M  V30 2531 C 246.031 -2.22332 1.65722 0
M  V30 2532 H 248.982 -0.936587 1.28116 0
M  V30 2533 H 249.003 -3.64986 1.07541 0
M  V30 2534 H 248.515 -2.79824 2.68924 0
M  V30 2535 H 246.616 -3.70487 0.396206 0
M  V30 2536 H 246.729 -4.25723 2.19765 0
M  V30 2537 H 245.093 -2.30599 1.08149 0
M  V30 2538 H 245.876 -2.07285 2.73657 0
M  V30 2539 N 248.321 -0.919034 -1.28029 0
M  V30 2540 C 249.284 -0.416182 -2.2539 0
M  V30 2541 C 250.284 0.460438 -1.54067 0
M  V30 2542 O 251.474 0.262744 -1.72207 0
M  V30 2543 C 248.606 0.402707 -3.38513 0
M  V30 2544 H 249.799 -1.27629 -2.71387 0
M  V30 2545 H 247.352 -0.698919 -1.39803 0
M  V30 2546 H 248.087 1.282 -2.97885 0
M  V30 2547 H 247.872 -0.225698 -3.9145 0
M  V30 2548 H 249.362 0.745191 -4.10897 0
M  V30 2549 N 249.799 1.42003 -0.683588 0
M  V30 2550 C 251.076 1.95112 -0.138075 0
M  V30 2551 C 251.456 1.62359 1.34918 0
M  V30 2552 O 250.804 0.924311 2.08971 0
M  V30 2553 C 251.014 3.46505 -0.416581 0
M  V30 2554 C 252.362 4.23254 -0.337834 0
M  V30 2555 O 253.386 3.54468 -0.35082 0
M  V30 2556 O 252.245 5.45743 -0.287596 0
M  V30 2557 H 249.339 0.826961 -0.00797996 0
M  V30 2558 H 251.885 1.51784 -0.758924 0
M  V30 2559 H 250.657 3.63582 -1.4465 0
M  V30 2560 H 250.28 3.969 0.235839 0
M  V30 2561 N 251.277 0.427512 1.51691 0
M  V30 2562 C 252.24 -0.377132 2.26076 0
M  V30 2563 C 253.24 -0.958089 1.29141 0
M  V30 2564 O 254.43 -0.83408 1.52934 0
M  V30 2565 C 251.562 -1.53262 3.04506 0
M  V30 2566 H 252.755 0.27464 2.9864 0
M  V30 2567 H 250.308 0.180445 1.55255 0
M  V30 2568 H 251.043 -2.22072 2.36335 0
M  V30 2569 H 250.828 -1.12232 3.75694 0
M  V30 2570 H 252.318 -2.10135 3.60878 0
M  V30 2571 N 252.755 -1.56801 0.158532 0
M  V30 2572 C 254.001 -1.96781 -0.490405 0
M  V30 2573 C 254.334 -1.04397 -1.63753 0
M  V30 2574 O 253.609 -0.0885805 -1.94298 0
M  V30 2575 C 253.892 -3.4635 -0.985594 0
M  V30 2576 C 253.745 -4.49512 0.160824 0
M  V30 2577 C 255.064 -3.98697 -1.86355 0
M  V30 2578 H 252.183 -0.715482 -0.176788 0
M  V30 2579 H 254.825 -1.88451 0.242088 0
M  V30 2580 H 252.975 -3.53579 -1.60978 0
M  V30 2581 H 254.647 -4.54353 0.797537 0
M  V30 2582 H 252.89 -4.26013 0.818256 0
M  V30 2583 H 253.561 -5.51531 -0.227569 0
M  V30 2584 H 256.037 -3.94019 -1.33746 0
M  V30 2585 H 254.913 -5.03792 -2.17909 0
M  V30 2586 H 255.174 -3.41744 -2.8047 0
M  V30 2587 N 254.233 0.115231 -1.57178 0
M  V30 2588 C 255.463 0.835224 -1.88964 0
M  V30 2589 C 255.871 1.73774 -0.74829 0
M  V30 2590 O 255.214 1.81401 0.289739 0
M  V30 2591 C 255.276 1.7178 -3.15804 0
M  V30 2592 C 254.94 0.989198 -4.46166 0
M  V30 2593 C 255.937 0.328263 -5.18863 0
M  V30 2594 C 253.622 0.969256 -4.9286 0
M  V30 2595 C 255.616 -0.342873 -6.36477 0
M  V30 2596 C 253.303 0.294324 -6.10391 0
M  V30 2597 C 254.301 -0.360582 -6.82048 0
M  V30 2598 O 253.989 -1.02474 -7.97342 0
M  V30 2599 H 253.721 0.245197 -0.629964 0
M  V30 2600 H 256.275 0.10303 -2.05141 0
M  V30 2601 H 254.505 2.49173 -2.95719 0
M  V30 2602 H 256.194 2.31255 -3.33581 0
M  V30 2603 H 256.96 0.335263 -4.8384 0
M  V30 2604 H 252.839 1.46844 -4.36987 0
M  V30 2605 H 256.383 -0.854629 -6.92345 0
M  V30 2606 H 252.28 0.285099 -6.4487 0
M  V30 2607 H 253.048 -0.929594 -8.13204 0
M  V30 2608 N 255.711 1.52812 0.385517 0
M  V30 2609 C 256.988 1.5861 1.14465 0
M  V30 2610 C 257.368 0.381402 2.07626 0
M  V30 2611 O 256.716 -0.629999 2.19643 0
M  V30 2612 C 256.926 2.92664 1.90128 0
M  V30 2613 C 258.274 3.46526 2.45367 0
M  V30 2614 O 259.298 2.94562 2.0028 0
M  V30 2615 O 258.157 4.37323 3.27736 0
M  V30 2616 H 255.251 0.639855 0.523941 0
M  V30 2617 H 257.797 1.65149 0.390389 0
M  V30 2618 H 256.569 3.71788 1.22022 0
M  V30 2619 H 256.192 2.89527 2.72507 0
M  V30 2620 N 257.189 -0.644168 1.43834 0
M  V30 2621 C 258.139 -1.7501 1.46135 0
M  V30 2622 C 259.123 -1.57507 0.328685 0
M  V30 2623 O 260.315 -1.67465 0.5731 0
M  V30 2624 C 257.444 -3.13641 1.39585 0
M  V30 2625 C 256.53 -3.3666 2.57916 0
M  V30 2626 N 256.921 -3.30107 3.83227 0
M  V30 2627 C 255.219 -3.67411 2.52834 0
M  V30 2628 C 255.92 -3.53456 4.61999 0
M  V30 2629 N 254.896 -3.75705 3.9287 0
M  V30 2630 H 258.698 -1.68382 2.40883 0
M  V30 2631 H 256.212 -0.846169 1.38614 0
M  V30 2632 H 258.209 -3.92933 1.39317 0
M  V30 2633 H 256.869 -3.21444 0.45865 0
M  V30 2634 H 257.88 -3.09316 4.15384 0
M  V30 2635 H 254.557 -3.82275 1.67845 0
M  V30 2636 H 255.947 -3.54093 5.71024 0
M  V30 2637 N 258.668 -1.30515 -0.883378 0
M  V30 2638 C 259.631 -1.1701 -1.97082 0
M  V30 2639 C 260.631 -0.10089 -1.60483 0
M  V30 2640 O 261.821 -0.349127 -1.70666 0
M  V30 2641 C 258.953 -0.793045 -3.31547 0
M  V30 2642 H 260.146 -2.13622 -2.10489 0
M  V30 2643 H 257.699 -1.13935 -1.06998 0
M  V30 2644 H 258.434 0.172499 -3.23841 0
M  V30 2645 H 258.219 -1.56576 -3.5948 0
M  V30 2646 H 259.709 -0.722073 -4.1131 0
M  V30 2647 N 260.146 1.09593 -1.13257 0
M  V30 2648 C 261.076 2.18214 -0.830946 0
M  V30 2649 C 262.057 1.68812 0.208966 0
M  V30 2650 O 263.242 1.9408 0.0682666 0
M  V30 2651 C 260.372 3.46051 -0.294296 0
M  V30 2652 C 259.326 4.08778 -1.26826 0
M  V30 2653 C 258.652 5.31419 -0.591449 0
M  V30 2654 C 259.952 4.51476 -2.62615 0
M  V30 2655 H 261.646 2.43703 -1.73923 0
M  V30 2656 H 259.192 1.17128 -0.837675 0
M  V30 2657 H 261.145 4.2134 -0.0709606 0
M  V30 2658 H 259.869 3.20079 0.649366 0
M  V30 2659 H 258.528 3.35505 -1.47756 0
M  V30 2660 H 258.176 5.01727 0.357633 0
M  V30 2661 H 257.876 5.74341 -1.24123 0
M  V30 2662 H 259.4 6.09433 -0.377355 0
M  V30 2663 H 260.814 5.17999 -2.45663 0
M  V30 2664 H 259.211 5.05277 -3.23752 0
M  V30 2665 H 260.281 3.63962 -3.20406 0
M  V30 2666 N 261.624 0.925811 1.2754 0
M  V30 2667 C 262.87 0.575575 1.95086 0
M  V30 2668 C 263.225 -0.873246 1.71441 0
M  V30 2669 O 262.518 -1.61443 1.03183 0
M  V30 2670 C 262.712 0.835296 3.47502 0
M  V30 2671 C 262.541 2.30781 3.85967 0
M  V30 2672 C 261.311 2.96017 4.09514 0
M  V30 2673 C 263.509 3.28519 3.95702 0
M  V30 2674 N 261.491 4.3344 4.34744 0
M  V30 2675 C 262.862 4.51146 4.25285 0
M  V30 2676 C 264.917 3.23753 3.7827 0
M  V30 2677 C 263.62 5.69606 4.39251 0
M  V30 2678 C 265.646 4.41523 3.9346 0
M  V30 2679 C 265.008 5.62928 4.23428 0
M  V30 2680 H 261.107 0.260711 0.737261 0
M  V30 2681 H 263.691 1.19204 1.53943 0
M  V30 2682 H 261.862 0.248005 3.87607 0
M  V30 2683 H 263.594 0.447878 4.02214 0
M  V30 2684 H 260.349 2.46695 4.04275 0
M  V30 2685 H 260.773 5.04528 4.5142 0
M  V30 2686 H 265.415 2.3096 3.54143 0
M  V30 2687 H 263.133 6.62866 4.62205 0
M  V30 2688 H 266.719 4.39351 3.81394 0
M  V30 2689 H 265.599 6.52538 4.34929 0
M  V30 2690 N 263.102 -1.41638 0.69111 0
M  V30 2691 C 264.35 -2.00902 0.219758 0
M  V30 2692 C 264.671 -1.54994 -1.18329 0
M  V30 2693 O 263.941 -0.778628 -1.79762 0
M  V30 2694 H 262.521 -0.74289 0.0782558 0
M  V30 2695 H 265.183 -1.73327 0.891271 0
M  V30 2696 H 264.279 -3.11224 0.233708 0
M  V30 2697 N 264.58 -0.43555 -1.51462 0
M  V30 2698 C 265.51 0.367376 -2.30592 0
M  V30 2699 C 266.491 1.02263 -1.35928 0
M  V30 2700 O 267.676 1.02661 -1.64847 0
M  V30 2701 C 264.806 1.46983 -3.14664 0
M  V30 2702 C 263.76 0.938161 -4.17591 0
M  V30 2703 C 263.086 2.13622 -4.90173 0
M  V30 2704 C 264.386 -0.0261621 -5.22293 0
M  V30 2705 H 266.08 -0.292969 -2.97963 0
M  V30 2706 H 263.626 -0.14234 -1.43295 0
M  V30 2707 H 265.579 2.03873 -3.688 0
M  V30 2708 H 264.303 2.15843 -2.4511 0
M  V30 2709 H 262.962 0.391481 -3.64504 0
M  V30 2710 H 262.61 2.81098 -4.17124 0
M  V30 2711 H 262.31 1.78688 -5.59772 0
M  V30 2712 H 263.834 2.7107 -5.47132 0
M  V30 2713 H 265.248 0.452384 -5.71512 0
M  V30 2714 H 263.645 -0.287992 -5.99409 0
M  V30 2715 H 264.715 -0.963391 -4.75233 0
M  V30 2716 N 266.058 1.56714 -0.166846 0
M  V30 2717 C 267.008 2.14338 0.777382 0
M  V30 2718 C 267.992 1.07642 1.19591 0
M  V30 2719 O 269.184 1.33775 1.15902 0
M  V30 2720 C 266.313 2.78417 2.00846 0
M  V30 2721 C 265.399 3.92264 1.61212 0
M  V30 2722 N 265.79 4.97268 0.925104 0
M  V30 2723 C 264.088 4.03342 1.90346 0
M  V30 2724 C 264.789 5.77093 0.730627 0
M  V30 2725 N 263.765 5.2854 1.27067 0
M  V30 2726 H 267.567 2.9289 0.243466 0
M  V30 2727 H 265.081 1.62364 0.0339954 0
M  V30 2728 H 267.078 3.18073 2.69509 0
M  V30 2729 H 265.738 2.01344 2.54736 0
M  V30 2730 H 266.749 5.14601 0.583646 0
M  V30 2731 H 263.426 3.37368 2.45946 0
M  V30 2732 H 264.816 6.71638 0.187668 0
M  V30 2733 N 267.536 -0.106894 1.57237 0
M  V30 2734 C 268.784 -0.810921 1.85117 0
M  V30 2735 C 269.105 -1.7984 0.753827 0
M  V30 2736 O 268.375 -1.94649 -0.221056 0
M  V30 2737 H 266.955 -0.302466 0.683025 0
M  V30 2738 H 269.617 -0.0913324 1.94686 0
M  V30 2739 H 268.713 -1.34875 2.81452 0
M  V30 2740 N 269.014 -1.53014 -0.377408 0
M  V30 2741 C 270.244 -1.72265 -1.14054 0
M  V30 2742 C 270.652 -0.44601 -1.83868 0
M  V30 2743 O 269.995 0.590095 -1.73964 0
M  V30 2744 C 270.057 -2.82492 -2.22348 0
M  V30 2745 C 269.721 -4.23233 -1.72402 0
M  V30 2746 C 270.718 -5.05992 -1.19448 0
M  V30 2747 C 268.403 -4.696 -1.78273 0
M  V30 2748 C 270.397 -6.33203 -0.730268 0
M  V30 2749 C 268.084 -5.96792 -1.31464 0
M  V30 2750 C 269.082 -6.78424 -0.789297 0
M  V30 2751 O 268.77 -8.0323 -0.328077 0
M  V30 2752 H 268.502 -0.579873 -0.347453 0
M  V30 2753 H 271.056 -2.00502 -0.445882 0
M  V30 2754 H 269.286 -2.49702 -2.95272 0
M  V30 2755 H 270.975 -2.90034 -2.83963 0
M  V30 2756 H 271.741 -4.71349 -1.14259 0
M  V30 2757 H 267.62 -4.06142 -2.18106 0
M  V30 2758 H 271.164 -6.96868 -0.319542 0
M  V30 2759 H 267.061 -6.30937 -1.36342 0
M  V30 2760 H 267.829 -8.1727 -0.448493 0
M  V30 2761 N 270.492 0.636531 -1.44174 0
M  V30 2762 C 271.722 1.42146 -1.49927 0
M  V30 2763 C 272.13 1.88812 -0.121063 0
M  V30 2764 O 271.473 1.61126 0.882267 0
M  V30 2765 C 271.535 2.67883 -2.39748 0
M  V30 2766 C 271.199 2.43048 -3.8701 0
M  V30 2767 C 272.196 2.05216 -4.77684 0
M  V30 2768 C 269.881 2.56856 -4.3166 0
M  V30 2769 C 271.875 1.81512 -6.11009 0
M  V30 2770 C 269.562 2.32766 -5.65034 0
M  V30 2771 C 270.56 1.95152 -6.54526 0
M  V30 2772 O 270.248 1.71326 -7.85431 0
M  V30 2773 H 269.98 0.442567 -0.51099 0
M  V30 2774 H 272.534 0.786158 -1.8976 0
M  V30 2775 H 270.764 3.34032 -1.94832 0
M  V30 2776 H 272.453 3.29874 -2.36513 0
M  V30 2777 H 273.219 1.94111 -4.44462 0
M  V30 2778 H 269.098 2.85104 -3.62266 0
M  V30 2779 H 272.642 1.52077 -6.80822 0
M  V30 2780 H 268.539 2.43479 -5.97819 0
M  V30 2781 H 269.307 1.85616 -7.97176 0
M  V30 2782 N 271.97 1.30982 0.876444 0
M  V30 2783 C 273.386 1.09498 1.16113 0
M  V30 2784 C 273.586 -0.13875 2.01022 0
M  V30 2785 O 272.642 -0.829935 2.38471 0
M  V30 2786 C 273.955 2.36308 1.85954 0
M  V30 2787 C 275.503 2.41856 1.98683 0
M  V30 2788 C 275.978 3.6853 2.71937 0
M  V30 2789 N 277.469 3.69387 2.79477 0
M  V30 2790 C 278.204 4.64096 3.36753 0
M  V30 2791 N 277.7 5.69155 3.95012 0
M  V30 2792 N 279.493 4.51626 3.3465 0
M  V30 2793 H 271.644 2.10118 0.310494 0
M  V30 2794 H 273.907 0.926634 0.200131 0
M  V30 2795 H 273.613 3.26388 1.31011 0
M  V30 2796 H 273.487 2.4561 2.86278 0
M  V30 2797 H 275.874 1.52249 2.52793 0
M  V30 2798 H 275.955 2.36523 0.9742 0
M  V30 2799 H 275.599 4.58499 2.18496 0
M  V30 2800 H 275.529 3.71127 3.73593 0
M  V30 2801 H 278.02 2.93438 2.38123 0
M  V30 2802 H 278.333 6.3751 4.36808 0
M  V30 2803 H 276.678 5.72937 3.93406 0
M  V30 2804 H 279.869 3.68728 2.8837 0
M  V30 2805 H 280.042 5.25614 3.7899 0
M  V30 2806 N 273.449 -1.08991 1.13837 0
M  V30 2807 C 274.865 -1.33312 0.877506 0
M  V30 2808 C 275.065 -1.95587 -0.48456 0
M  V30 2809 O 274.121 -2.20509 -1.23013 0
M  V30 2810 C 275.434 -2.24045 2.0056 0
M  V30 2811 C 276.982 -2.37542 2.03821 0
M  V30 2812 C 277.457 -3.31614 3.15905 0
M  V30 2813 N 278.948 -3.39189 3.15445 0
M  V30 2814 C 279.683 -4.11992 3.98811 0
M  V30 2815 N 279.179 -4.87553 4.92203 0
M  V30 2816 N 280.972 -4.07762 3.86894 0
M  V30 2817 H 273.123 -0.669456 2.01574 0
M  V30 2818 H 275.386 -0.357482 0.878015 0
M  V30 2819 H 275.092 -1.85521 2.98789 0
M  V30 2820 H 274.966 -3.24466 1.92359 0
M  V30 2821 H 277.353 -2.75327 1.06202 0
M  V30 2822 H 277.434 -1.36884 2.16093 0
M  V30 2823 H 277.078 -2.94551 4.13766 0
M  V30 2824 H 277.008 -4.32186 3.0087 0
M  V30 2825 H 279.499 -2.85314 2.47799 0
M  V30 2826 H 279.812 -5.40549 5.52292 0
M  V30 2827 H 278.157 -4.86627 4.96205 0
M  V30 2828 H 281.348 -3.47833 3.13257 0
M  V30 2829 H 281.521 -4.64238 4.52092 0
M  V30 2830 N 274.927 -0.932562 -1.27047 0
M  V30 2831 C 275.857 -0.452902 -2.29066 0
M  V30 2832 C 276.838 0.489338 -1.62909 0
M  V30 2833 O 278.023 0.393046 -1.90181 0
M  V30 2834 C 275.153 0.290698 -3.46081 0
M  V30 2835 C 274.107 -0.564168 -4.24265 0
M  V30 2836 C 273.433 0.308886 -5.33807 0
M  V30 2837 C 274.733 -1.83112 -4.89149 0
M  V30 2838 H 276.427 -1.30552 -2.69437 0
M  V30 2839 H 273.973 -0.629201 -1.29526 0
M  V30 2840 H 275.926 0.637233 -4.16554 0
M  V30 2841 H 274.65 1.17738 -3.0464 0
M  V30 2842 H 273.309 -0.893477 -3.55545 0
M  V30 2843 H 272.957 1.19467 -4.88607 0
M  V30 2844 H 272.657 -0.259633 -5.87026 0
M  V30 2845 H 274.181 0.650884 -6.07121 0
M  V30 2846 H 275.595 -1.55236 -5.51883 0
M  V30 2847 H 273.992 -2.34353 -5.52448 0
M  V30 2848 H 275.062 -2.54772 -4.12576 0
M  V30 2849 N 276.405 1.4127 -0.698611 0
M  V30 2850 C 277.63 2.06024 -0.238512 0
M  V30 2851 C 278.055 1.5224 1.10475 0
M  V30 2852 O 277.413 0.650623 1.69223 0
M  V30 2853 C 277.461 3.59988 -0.209952 0
M  V30 2854 O 276.565 4.04282 0.814235 0
M  V30 2855 H 275.906 0.653829 -0.115775 0
M  V30 2856 H 278.436 1.8098 -0.954326 0
M  V30 2857 H 278.446 4.07979 -0.0418436 0
M  V30 2858 H 277.121 3.98503 -1.1903 0
M  V30 2859 H 275.698 3.6779 0.615234 0
M  V30 2860 N 277.883 0.443576 1.51229 0
M  V30 2861 C 278.815 -0.400608 2.25672 0
M  V30 2862 C 279.828 -0.980945 1.29928 0
M  V30 2863 O 281.017 -0.874024 1.55638 0
M  V30 2864 C 278.117 -1.57304 3.00181 0
M  V30 2865 C 277.29 -1.11046 4.23069 0
M  V30 2866 C 276.349 -2.15374 4.80105 0
M  V30 2867 O 275.375 -1.74554 5.41774 0
M  V30 2868 N 276.577 -3.47922 4.64683 0
M  V30 2869 H 279.342 0.23745 2.98758 0
M  V30 2870 H 276.903 0.272809 1.59585 0
M  V30 2871 H 278.895 -2.26733 3.35223 0
M  V30 2872 H 277.465 -2.11632 2.30066 0
M  V30 2873 H 276.685 -0.243019 3.9345 0
M  V30 2874 H 277.973 -0.778888 5.02803 0
M  V30 2875 H 277.371 -3.83815 4.15575 0
M  V30 2876 H 275.928 -4.13228 5.0407 0
M  V30 2877 N 279.361 -1.56624 0.175154 0
M  V30 2878 C 280.777 -1.58571 -0.180966 0
M  V30 2879 C 280.977 -1.19065 -1.6256 0
M  V30 2880 O 280.033 -0.904044 -2.35761 0
M  V30 2881 C 281.346 -3.00522 0.103326 0
M  V30 2882 C 282.894 -3.12972 0.0418426 0
M  V30 2883 C 283.369 -4.57022 0.299175 0
M  V30 2884 N 284.86 -4.62541 0.247086 0
M  V30 2885 C 285.595 -5.71857 0.420318 0
M  V30 2886 N 285.091 -6.89717 0.652816 0
M  V30 2887 N 286.884 -5.60972 0.355957 0
M  V30 2888 H 279.035 -1.80589 1.11809 0
M  V30 2889 H 281.298 -0.837178 0.444788 0
M  V30 2890 H 281.004 -3.33916 1.10422 0
M  V30 2891 H 280.878 -3.72344 -0.603299 0
M  V30 2892 H 283.265 -2.79403 -0.949636 0
M  V30 2893 H 283.346 -2.43578 0.781238 0
M  V30 2894 H 282.99 -4.913 1.28788 0
M  V30 2895 H 282.92 -5.24579 -0.460876 0
M  V30 2896 H 285.411 -3.77829 0.0731895 0
M  V30 2897 H 285.724 -7.68911 0.774347 0
M  V30 2898 H 284.069 -6.91572 0.689476 0
M  V30 2899 H 287.26 -4.67773 0.174882 0
M  V30 2900 H 287.433 -6.46111 0.494388 0
M  V30 2901 N 280.839 0.0985539 -1.57292 0
M  V30 2902 C 282.255 0.45267 -1.53046 0
M  V30 2903 C 282.455 1.80713 -0.891342 0
M  V30 2904 O 281.511 2.4785 -0.482375 0
M  V30 2905 C 282.824 0.418341 -2.97776 0
M  V30 2906 C 284.372 0.500443 -3.08973 0
M  V30 2907 C 284.847 0.496297 -4.55303 0
M  V30 2908 N 286.338 0.557151 -4.59837 0
M  V30 2909 C 287.073 0.575726 -5.70502 0
M  V30 2910 N 286.569 0.550714 -6.90608 0
M  V30 2911 N 288.362 0.620277 -5.58667 0
M  V30 2912 H 280.513 -0.788673 -1.97215 0
M  V30 2913 H 282.776 -0.293188 -0.901524 0
M  V30 2914 H 282.482 -0.509659 -3.47988 0
M  V30 2915 H 282.356 1.2386 -3.56284 0
M  V30 2916 H 284.743 1.41886 -2.58751 0
M  V30 2917 H 284.824 -0.347894 -2.53423 0
M  V30 2918 H 284.468 -0.418162 -5.06176 0
M  V30 2919 H 284.398 1.3618 -5.08687 0
M  V30 2920 H 286.889 0.581816 -3.73394 0
M  V30 2921 H 287.202 0.568075 -7.70709 0
M  V30 2922 H 285.547 0.517816 -6.93068 0
M  V30 2923 H 288.738 0.637322 -4.63741 0
M  V30 2924 H 288.911 0.631283 -6.44918 0
M  V30 2925 N 282.317 1.53212 0.369288 0
M  V30 2926 C 283.728 1.60943 0.946276 0
M  V30 2927 C 284.079 0.47452 1.90375 0
M  V30 2928 O 283.204 -0.399597 2.12679 0
M  V30 2929 C 283.799 2.91715 1.72302 0
M  V30 2930 C 282.358 3.01792 2.24941 0
M  V30 2931 C 281.505 2.56211 1.06072 0
M  V30 2932 H 284.456 1.58007 0.148198 0
M  V30 2933 H 284.477 2.79309 2.58393 0
M  V30 2934 H 283.989 3.74295 1.0259 0
M  V30 2935 H 282.09 2.23791 2.97906 0
M  V30 2936 H 282.203 4.06803 2.53077 0
M  V30 2937 H 280.567 2.10998 1.4266 0
M  V30 2938 H 281.35 3.41206 0.378639 0
M  V30 2939 N 283.795 -0.628877 1.44509 0
M  V30 2940 C 285.02 -1.42048 1.5112 0
M  V30 2941 C 285.445 -1.87594 0.137818 0
M  V30 2942 O 284.803 -1.58873 -0.873437 0
M  V30 2943 C 284.851 -2.61541 2.48251 0
M  V30 2944 O 283.955 -3.61453 1.98559 0
M  V30 2945 H 283.296 -0.424942 0.510216 0
M  V30 2946 H 285.826 -0.767374 1.89664 0
M  V30 2947 H 285.836 -3.09057 2.66361 0
M  V30 2948 H 284.511 -2.27736 3.48007 0
M  V30 2949 H 283.088 -3.20731 1.90227 0
M  V30 2950 N 285.273 -1.31445 -0.869486 0
M  V30 2951 C 286.521 -1.20918 -1.61936 0
M  V30 2952 C 286.842 0.232683 -1.93607 0
M  V30 2953 O 286.112 1.15352 -1.58338 0
M  V30 2954 H 284.692 -0.44454 -0.600328 0
M  V30 2955 H 287.354 -1.64776 -1.0409 0
M  V30 2956 H 286.45 -1.78124 -2.56278 0
M  V30 2957 N 286.751 1.08385 -1.14413 0
M  V30 2958 C 287.683 2.1519 -0.789036 0
M  V30 2959 C 288.696 1.61638 0.19417 0
M  V30 2960 O 289.885 1.78479 -0.0275711 0
M  V30 2961 C 286.985 3.38565 -0.15058 0
M  V30 2962 C 286.158 4.21501 -1.16857 0
M  V30 2963 C 285.217 5.23277 -0.553832 0
M  V30 2964 O 284.243 5.56041 -1.21686 0
M  V30 2965 N 285.445 5.76629 0.669296 0
M  V30 2966 H 288.21 2.46257 -1.70814 0
M  V30 2967 H 285.771 1.24198 -1.03858 0
M  V30 2968 H 287.763 4.03777 0.273181 0
M  V30 2969 H 286.333 3.05299 0.671667 0
M  V30 2970 H 285.553 3.52265 -1.76926 0
M  V30 2971 H 286.841 4.73731 -1.85624 0
M  V30 2972 H 286.239 5.52243 1.22654 0
M  V30 2973 H 284.796 6.43521 1.03556 0
M  V30 2974 N 288.23 0.939286 1.26551 0
M  V30 2975 C 289.18 0.418284 2.2413 0
M  V30 2976 C 290.164 -0.483935 1.5345 0
M  V30 2977 O 291.356 -0.319489 1.74093 0
M  V30 2978 C 288.485 -0.31709 3.41832 0
M  V30 2979 C 287.571 0.602311 4.19801 0
M  V30 2980 N 287.962 1.72726 4.75394 0
M  V30 2981 C 286.26 0.407534 4.44134 0
M  V30 2982 C 286.961 2.30004 5.34297 0
M  V30 2983 N 285.937 1.58828 5.1988 0
M  V30 2984 H 289.739 1.27705 2.64705 0
M  V30 2985 H 287.253 0.794929 1.41614 0
M  V30 2986 H 289.25 -0.707364 4.10855 0
M  V30 2987 H 287.91 -1.17264 3.02786 0
M  V30 2988 H 288.921 2.10944 4.72994 0
M  V30 2989 H 285.598 -0.406406 4.15517 0
M  V30 2990 H 286.988 3.24778 5.88191 0
M  V30 2991 N 289.708 -1.40897 0.706093 0
M  V30 2992 C 291.119 -1.84023 0.315052 0
M  V30 2993 C 291.47 -1.5906 -1.14866 0
M  V30 2994 O 290.595 -1.06651 -1.88293 0
M  V30 2995 C 291.19 -3.34055 0.565038 0
M  V30 2996 C 289.749 -3.7571 0.227806 0
M  V30 2997 C 288.896 -2.64204 0.842122 0
M  V30 2998 H 291.847 -1.303 0.905963 0
M  V30 2999 H 291.868 -3.80107 -0.172843 0
M  V30 3000 H 291.38 -3.52192 1.63042 0
M  V30 3001 H 289.481 -3.63172 -0.832895 0
M  V30 3002 H 289.594 -4.74103 0.690174 0
M  V30 3003 H 287.958 -2.53255 0.270893 0
M  V30 3004 H 288.741 -2.85155 1.91158 0
M  V30 3005 N 291.186 -0.45159 -1.50991 0
M  V30 3006 C 292.434 0.109857 -2.01801 0
M  V30 3007 C 292.755 1.41958 -1.3369 0
M  V30 3008 O 292.025 1.9003 -0.475951 0
M  V30 3009 H 290.605 0.0435884 -0.745727 0
M  V30 3010 H 293.267 -0.597557 -1.85514 0
M  V30 3011 H 292.363 0.275489 -3.10882 0
M  V30 3012 N 292.664 1.56529 -0.183458 0
M  V30 3013 C 294.075 1.83739 0.331177 0
M  V30 3014 C 294.426 1.10373 1.62211 0
M  V30 3015 O 293.551 0.36071 2.13373 0
M  V30 3016 C 294.146 3.33306 0.607646 0
M  V30 3017 C 292.705 3.60969 1.06668 0
M  V30 3018 C 291.852 2.77086 0.109029 0
M  V30 3019 H 294.803 1.53379 -0.407484 0
M  V30 3020 H 294.824 3.51444 1.45832 0
M  V30 3021 H 294.336 3.86677 -0.332086 0
M  V30 3022 H 292.437 3.13021 2.0211 0
M  V30 3023 H 292.55 4.69231 0.967447 0
M  V30 3024 H 290.914 2.47319 0.608714 0
M  V30 3025 H 291.697 3.33241 -0.82494 0
M  V30 3026 N 294.142 -0.090211 1.57342 0
M  V30 3027 C 295.39 -0.791241 1.85967 0
M  V30 3028 C 295.711 -1.7903 0.772859 0
M  V30 3029 O 294.981 -1.94872 -0.200398 0
M  V30 3030 H 293.561 -0.295205 0.686195 0
M  V30 3031 H 296.223 -0.0706782 1.94772 0
M  V30 3032 H 295.319 -1.31882 2.82867 0
M  V30 3033 N 295.62 -1.53406 -0.361157 0
M  V30 3034 C 296.868 -1.69467 -1.10115 0
M  V30 3035 C 297.189 -0.451352 -1.89705 0
M  V30 3036 O 296.459 0.534636 -1.88463 0
M  V30 3037 H 295.039 -0.624749 -0.409508 0
M  V30 3038 H 297.701 -1.90609 -0.406699 0
M  V30 3039 H 296.797 -2.55774 -1.78847 0
M  V30 3040 N 297.098 0.621204 -1.44841 0
M  V30 3041 C 298.514 0.94048 -1.28946 0
M  V30 3042 C 298.714 2.00154 -0.23249 0
M  V30 3043 O 297.77 2.49651 0.378237 0
M  V30 3044 C 299.083 1.39433 -2.66419 0
M  V30 3045 C 300.631 1.50927 -2.74208 0
M  V30 3046 C 301.106 1.99692 -4.12174 0
M  V30 3047 N 302.597 2.06947 -4.144 0
M  V30 3048 C 303.332 2.45871 -5.1801 0
M  V30 3049 N 302.828 2.83862 -6.31977 0
M  V30 3050 N 304.621 2.46092 -5.05366 0
M  V30 3051 H 296.772 -0.0803548 -2.12248 0
M  V30 3052 H 299.035 0.0266913 -0.947624 0
M  V30 3053 H 298.741 0.688925 -3.44887 0
M  V30 3054 H 298.615 2.36347 -2.93973 0
M  V30 3055 H 301.002 2.20561 -1.96053 0
M  V30 3056 H 301.083 0.523627 -2.50383 0
M  V30 3057 H 300.727 1.30649 -4.90809 0
M  V30 3058 H 300.657 2.99146 -4.33381 0
M  V30 3059 H 303.148 1.80232 -3.32152 0
M  V30 3060 H 303.461 3.12405 -7.0684 0
M  V30 3061 H 301.806 2.8159 -6.35399 0
M  V30 3062 H 304.997 2.1581 -4.15384 0
M  V30 3063 H 305.17 2.76102 -5.86235 0
M  V30 3064 N 298.576 1.31904 0.862503 0
M  V30 3065 C 299.992 1.10724 1.14945 0
M  V30 3066 C 300.192 -0.117421 2.01158 0
M  V30 3067 O 299.248 -0.804595 2.39338 0
M  V30 3068 C 300.561 2.38267 1.83437 0
M  V30 3069 C 302.109 2.43949 1.96106 0
M  V30 3070 C 302.584 3.71394 2.68013 0
M  V30 3071 N 304.075 3.72331 2.75543 0
M  V30 3072 C 304.81 4.67641 3.31812 0
M  V30 3073 N 304.306 5.73313 3.88953 0
M  V30 3074 N 306.099 4.5515 3.29841 0
M  V30 3075 H 298.25 2.10436 0.288191 0
M  V30 3076 H 300.513 0.928705 0.190292 0
M  V30 3077 H 300.219 3.27759 1.27542 0
M  V30 3078 H 300.093 2.48633 2.83657 0
M  V30 3079 H 302.48 1.54922 2.51164 0
M  V30 3080 H 302.561 2.37543 0.949059 0
M  V30 3081 H 302.205 4.60791 2.13621 0
M  V30 3082 H 302.135 3.75069 3.69636 0
M  V30 3083 H 304.626 2.95947 2.34997 0
M  V30 3084 H 304.939 6.42107 4.30022 0
M  V30 3085 H 303.284 5.77077 3.87308 0
M  V30 3086 H 306.475 3.71766 2.84443 0
M  V30 3087 H 306.648 5.29604 3.73394 0
M  V30 3088 N 300.054 -1.07777 1.14986 0
M  V30 3089 C 301.017 -2.13041 0.845358 0
M  V30 3090 C 302.017 -1.60071 -0.152931 0
M  V30 3091 O 303.207 -1.74033 0.0761879 0
M  V30 3092 C 300.339 -3.39896 0.261383 0
M  V30 3093 H 301.532 -2.41485 1.77834 0
M  V30 3094 H 299.085 -1.23595 0.956757 0
M  V30 3095 H 299.82 -3.17091 -0.68 0
M  V30 3096 H 299.605 -3.79642 0.980514 0
M  V30 3097 H 301.095 -4.17548 0.0657687 0
M  V30 3098 N 301.532 -0.945985 -1.26051 0
M  V30 3099 C 302.757 -0.612525 -1.98149 0
M  V30 3100 C 303.182 0.806623 -1.69927 0
M  V30 3101 O 302.54 1.54411 -0.950108 0
M  V30 3102 C 302.588 -0.866981 -3.50023 0
M  V30 3103 O 301.692 0.0585333 -4.12358 0
M  V30 3104 H 301.033 -0.23379 -0.621481 0
M  V30 3105 H 303.563 -1.27023 -1.60395 0
M  V30 3106 H 303.573 -0.789792 -4.00283 0
M  V30 3107 H 302.248 -1.90135 -3.69894 0
M  V30 3108 H 300.825 -0.0701241 -3.72834 0
M  V30 3109 N 303.011 1.40521 -0.713556 0
M  V30 3110 C 304.259 2.00527 -0.251692 0
M  V30 3111 C 304.58 1.56857 1.15848 0
M  V30 3112 O 303.85 0.807127 1.785 0
M  V30 3113 H 302.43 0.741551 -0.0900646 0
M  V30 3114 H 305.092 1.71887 -0.918733 0
M  V30 3115 H 304.188 3.10813 -0.283192 0
M  V30 3116 N 304.489 0.459591 1.5075 0
M  V30 3117 C 305.717 -0.0973749 2.06671 0
M  V30 3118 C 306.132 -1.34524 1.32472 0
M  V30 3119 O 305.489 -1.7827 0.390634 0
M  V30 3120 C 305.54 -0.39714 3.59312 0
M  V30 3121 O 305.261 0.801214 4.30711 0
M  V30 3122 C 306.762 -1.00234 4.31819 0
M  V30 3123 H 303.982 0.00195854 0.670997 0
M  V30 3124 H 306.526 0.645072 1.94059 0
M  V30 3125 H 304.681 -1.08951 3.71764 0
M  V30 3126 H 305.095 0.538857 5.21725 0
M  V30 3127 H 306.569 -1.16193 5.39632 0
M  V30 3128 H 307.046 -1.98939 3.91561 0
M  V30 3129 H 307.652 -0.348699 4.23868 0
M  V30 3130 N 305.967 -1.56429 0.191757 0
M  V30 3131 C 307.195 -2.01867 -0.453586 0
M  V30 3132 C 307.61 -1.07191 -1.5542 0
M  V30 3133 O 306.967 -0.0762108 -1.82341 0
M  V30 3134 C 307.018 -3.47017 -1.013 0
M  V30 3135 O 306.739 -4.38078 0.0437005 0
M  V30 3136 C 308.24 -4.07956 -1.73456 0
M  V30 3137 H 305.46 -0.661211 -0.114199 0
M  V30 3138 H 308.004 -2.02295 0.299483 0
M  V30 3139 H 306.159 -3.47298 -1.71647 0
M  V30 3140 H 306.573 -5.23178 -0.372212 0
M  V30 3141 H 308.047 -5.1138 -2.07833 0
M  V30 3142 H 308.524 -3.51222 -2.63704 0
M  V30 3143 H 309.13 -4.11437 -1.07702 0
M  V30 3144 N 307.445 0.0818655 -1.57387 0
M  V30 3145 C 308.408 1.08265 -2.02018 0
M  V30 3146 C 309.408 1.32183 -0.915664 0
M  V30 3147 O 310.598 1.28073 -1.18081 0
M  V30 3148 C 307.73 2.42871 -2.39221 0
M  V30 3149 H 308.923 0.698204 -2.91659 0
M  V30 3150 H 306.476 0.327303 -1.52835 0
M  V30 3151 H 307.211 2.86167 -1.52575 0
M  V30 3152 H 306.996 2.26855 -3.19811 0
M  V30 3153 H 308.486 3.14826 -2.74362 0
M  V30 3154 N 308.923 1.53595 0.353017 0
M  V30 3155 C 310.171 1.70049 1.09215 0
M  V30 3156 C 310.492 0.461406 1.89463 0
M  V30 3157 O 309.762 -0.524633 1.88744 0
M  V30 3158 H 308.342 0.626912 0.40619 0
M  V30 3159 H 311.004 1.90822 0.396585 0
M  V30 3160 H 310.1 2.56718 1.77488 0
M  V30 3161 N 310.401 -0.613514 1.45168 0
M  V30 3162 C 311.629 -1.39946 1.5239 0
M  V30 3163 C 312.044 -1.88167 0.154531 0
M  V30 3164 O 311.401 -1.61872 -0.842843 0
M  V30 3165 C 311.452 -2.60795 2.50337 0
M  V30 3166 O 311.173 -2.1458 3.81952 0
M  V30 3167 C 312.674 -3.53723 2.67198 0
M  V30 3168 H 309.894 -0.428593 0.516284 0
M  V30 3169 H 312.438 -0.748753 1.903 0
M  V30 3170 H 310.593 -3.21919 2.15515 0
M  V30 3171 H 311.007 -2.93055 4.34993 0
M  V30 3172 H 312.481 -4.35079 3.39721 0
M  V30 3173 H 312.958 -4.0368 1.73029 0
M  V30 3174 H 313.564 -2.98456 3.02992 0
M  V30 3175 N 311.879 -1.3236 -0.855495 0
M  V30 3176 C 312.812 -1.15559 -1.96777 0
M  V30 3177 C 313.79 -0.0552681 -1.62506 0
M  V30 3178 O 314.974 -0.214419 -1.87277 0
M  V30 3179 C 312.101 -0.768851 -3.29858 0
M  V30 3180 C 311.147 -1.87429 -3.83109 0
M  V30 3181 S 311.98 -3.48243 -4.06801 0
M  V30 3182 C 313.136 -3.11539 -5.42858 0
M  V30 3183 H 313.369 -2.09717 -2.10727 0
M  V30 3184 H 310.902 -1.17011 -1.00737 0
M  V30 3185 H 312.86 -0.55248 -4.06765 0
M  V30 3186 H 311.521 0.153857 -3.13723 0
M  V30 3187 H 310.714 -1.55667 -4.79358 0
M  V30 3188 H 310.316 -2.04647 -3.13042 0
M  V30 3189 H 312.608 -2.61331 -6.2507 0
M  V30 3190 H 313.551 -4.06806 -5.79582 0
M  V30 3191 H 313.959 -2.48582 -5.06821 0
M  V30 3192 N 313.357 1.07166 -1.15556 0
M  V30 3193 C 314.287 2.16403 -0.877046 0
M  V30 3194 C 315.268 1.69217 0.173111 0
M  V30 3195 O 316.453 1.94181 0.027084 0
M  V30 3196 C 313.583 3.45349 -0.367632 0
M  V30 3197 C 312.537 4.05995 -1.35468 0
M  V30 3198 C 311.863 5.30045 -0.704038 0
M  V30 3199 C 313.163 4.45804 -2.72132 0
M  V30 3200 H 314.857 2.39959 -1.79053 0
M  V30 3201 H 312.403 1.15325 -0.862331 0
M  V30 3202 H 314.356 4.21095 -0.160317 0
M  V30 3203 H 313.08 3.21385 0.581326 0
M  V30 3204 H 311.739 3.32296 -1.54839 0
M  V30 3205 H 311.387 5.02373 0.251128 0
M  V30 3206 H 311.087 5.71579 -1.36277 0
M  V30 3207 H 312.611 6.08495 -0.50654 0
M  V30 3208 H 314.025 5.12671 -2.56595 0
M  V30 3209 H 312.422 4.98296 -3.34397 0
M  V30 3210 H 313.492 3.57083 -3.28054 0
M  V30 3211 N 314.835 0.952656 1.25548 0
M  V30 3212 C 316.246 0.647392 1.75116 0
M  V30 3213 C 316.597 -0.837274 1.77438 0
M  V30 3214 O 315.722 -1.65525 1.39393 0
M  V30 3215 C 316.317 1.16845 3.18014 0
M  V30 3216 C 314.876 0.913382 3.6515 0
M  V30 3217 C 314.023 1.31265 2.44264 0
M  V30 3218 H 316.974 1.12968 1.11462 0
M  V30 3219 H 316.995 0.527606 3.76824 0
M  V30 3220 H 316.507 2.24902 3.16292 0
M  V30 3221 H 314.608 -0.152316 3.72289 0
M  V30 3222 H 314.721 1.54845 4.53387 0
M  V30 3223 H 313.085 0.731028 2.43984 0
M  V30 3224 H 313.868 2.40239 2.45234 0
M  V30 3225 N 316.313 -1.40141 0.720998 0
M  V30 3226 C 317.541 -2.05096 0.272656 0
M  V30 3227 C 317.956 -1.54334 -1.0875 0
M  V30 3228 O 317.313 -0.702211 -1.6845 0
M  V30 3229 C 317.364 -3.60636 0.249835 0
M  V30 3230 O 317.085 -4.09526 1.55629 0
M  V30 3231 C 318.586 -4.42772 -0.216396 0
M  V30 3232 H 315.806 -0.659897 0.121558 0
M  V30 3233 H 318.35 -1.79449 0.980723 0
M  V30 3234 H 316.505 -3.85232 -0.409237 0
M  V30 3235 H 316.919 -5.03758 1.4604 0
M  V30 3236 H 318.393 -5.51702 -0.181212 0
M  V30 3237 H 318.87 -4.20756 -1.25941 0
M  V30 3238 H 319.476 -4.23294 0.412596 0
M  V30 3239 N 317.792 -0.46758 -1.50504 0
M  V30 3240 C 319.208 -0.121533 -1.59137 0
M  V30 3241 C 319.408 1.3717 -1.47603 0
M  V30 3242 O 318.464 2.14464 -1.33272 0
M  V30 3243 C 319.777 -0.6686 -2.93173 0
M  V30 3244 C 321.325 -0.631716 -3.06559 0
M  V30 3245 C 321.8 -1.15627 -4.43164 0
M  V30 3246 N 323.291 -1.11553 -4.49567 0
M  V30 3247 C 324.026 -1.49195 -5.5365 0
M  V30 3248 N 323.522 -1.94269 -6.65005 0
M  V30 3249 N 325.315 -1.4082 -5.44175 0
M  V30 3250 H 317.466 -1.4388 -1.56245 0
M  V30 3251 H 319.729 -0.594784 -0.738198 0
M  V30 3252 H 319.435 -1.71453 -3.07078 0
M  V30 3253 H 319.309 -0.11021 -3.77039 0
M  V30 3254 H 321.696 0.405297 -2.92304 0
M  V30 3255 H 321.777 -1.22687 -2.24458 0
M  V30 3256 H 321.421 -2.1919 -4.58168 0
M  V30 3257 H 321.351 -0.537365 -5.23851 0
M  V30 3258 H 323.842 -0.784895 -3.69659 0
M  V30 3259 H 324.155 -2.21148 -7.40482 0
M  V30 3260 H 322.5 -1.98219 -6.66134 0
M  V30 3261 H 325.691 -1.0545 -4.56068 0
M  V30 3262 H 325.864 -1.70481 -6.25172 0
M  V30 3263 N 319.27 1.56325 -0.20005 0
M  V30 3264 C 320.516 1.98012 0.438059 0
M  V30 3265 C 320.849 1.08702 1.60927 0
M  V30 3266 O 320.124 0.140064 1.93995 0
M  V30 3267 C 320.407 3.48841 0.893419 0
M  V30 3268 C 320.26 4.48928 -0.279947 0
M  V30 3269 C 321.579 4.03498 1.75719 0
M  V30 3270 H 318.698 0.719918 0.157757 0
M  V30 3271 H 321.34 1.87743 -0.291968 0
M  V30 3272 H 319.49 3.57723 1.51547 0
M  V30 3273 H 321.162 4.52079 -0.91772 0
M  V30 3274 H 319.405 4.23694 -0.930919 0
M  V30 3275 H 320.076 5.5194 0.0812601 0
M  V30 3276 H 322.552 3.97427 1.23253 0
M  V30 3277 H 321.428 5.09393 2.04476 0
M  V30 3278 H 321.689 3.4906 2.71311 0
M  V30 3279 N 320.748 -0.0735177 1.57428 0
M  V30 3280 C 322.164 -0.428264 1.53747 0
M  V30 3281 C 322.364 -1.79272 0.91998 0
M  V30 3282 O 321.42 -2.47051 0.521745 0
M  V30 3283 C 322.733 -0.370914 2.98404 0
M  V30 3284 C 324.281 -0.451224 3.0973 0
M  V30 3285 C 324.756 -0.4238 4.56035 0
M  V30 3286 N 326.247 -0.483925 4.60665 0
M  V30 3287 C 326.982 -0.484891 5.71346 0
M  V30 3288 N 326.478 -0.440775 6.91396 0
M  V30 3289 N 328.271 -0.531319 5.59583 0
M  V30 3290 H 320.422 0.819949 1.95935 0
M  V30 3291 H 322.685 0.307493 0.896745 0
M  V30 3292 H 322.391 0.564956 3.47133 0
M  V30 3293 H 322.265 -1.18176 3.5821 0
M  V30 3294 H 324.652 -1.37752 2.60976 0
M  V30 3295 H 324.733 0.388167 2.52838 0
M  V30 3296 H 324.377 0.498638 5.05446 0
M  V30 3297 H 324.307 -1.2807 5.10789 0
M  V30 3298 H 326.798 -0.522338 3.74273 0
M  V30 3299 H 327.111 -0.44539 7.71515 0
M  V30 3300 H 325.456 -0.40749 6.93804 0
M  V30 3301 H 328.647 -0.563464 4.64696 0
M  V30 3302 H 328.82 -0.528603 6.4584 0
M  V30 3303 N 322.226 -1.5378 -0.344866 0
M  V30 3304 C 323.637 -1.62428 -0.920552 0
M  V30 3305 C 323.988 -0.504747 -1.89596 0
M  V30 3306 O 323.113 0.365711 -2.13287 0
M  V30 3307 C 323.708 -2.94419 -1.67639 0
M  V30 3308 C 322.267 -3.05333 -2.20111 0
M  V30 3309 C 321.414 -2.57866 -1.01982 0
M  V30 3310 H 324.365 -1.58222 -0.123042 0
M  V30 3311 H 324.386 -2.83384 -2.53917 0
M  V30 3312 H 323.898 -3.7588 -0.966224 0
M  V30 3313 H 321.999 -2.28502 -2.94308 0
M  V30 3314 H 322.112 -4.10778 -2.46573 0
M  V30 3315 H 320.476 -2.13241 -1.39285 0
M  V30 3316 H 321.259 -3.41765 -0.324308 0
M  V30 3317 N 323.704 0.605807 -1.45491 0
M  V30 3318 C 324.634 1.72709 -1.57143 0
M  V30 3319 C 325.615 1.6476 -0.422884 0
M  V30 3320 O 326.8 1.83132 -0.646247 0
M  V30 3321 C 323.93 3.11316 -1.53948 0
M  V30 3322 C 322.884 3.34077 -2.67537 0
M  V30 3323 C 322.21 4.72975 -2.49397 0
M  V30 3324 C 323.51 3.24158 -4.09535 0
M  V30 3325 H 325.204 1.63214 -2.51001 0
M  V30 3326 H 322.75 0.78379 -1.208 0
M  V30 3327 H 324.703 3.89557 -1.60696 0
M  V30 3328 H 323.427 3.21655 -0.566205 0
M  V30 3329 H 322.086 2.58227 -2.6022 0
M  V30 3330 H 321.734 4.8005 -1.50205 0
M  V30 3331 H 321.434 4.8916 -3.25571 0
M  V30 3332 H 322.958 5.53414 -2.58002 0
M  V30 3333 H 324.372 3.92271 -4.18086 0
M  V30 3334 H 322.769 3.51872 -4.86113 0
M  V30 3335 H 323.839 2.2157 -4.31317 0
M  V30 3336 N 325.182 1.32811 0.848464 0
M  V30 3337 C 326.407 1.26882 1.6406 0
M  V30 3338 C 326.832 -0.15913 1.87426 0
M  V30 3339 O 326.19 -1.11258 1.43148 0
M  V30 3340 C 326.238 2.03997 2.97351 0
M  V30 3341 O 325.342 1.39201 3.88197 0
M  V30 3342 H 324.683 0.436982 0.499943 0
M  V30 3343 H 327.213 1.75224 1.0563 0
M  V30 3344 H 327.223 2.14403 3.47124 0
M  V30 3345 H 325.898 3.0783 2.79666 0
M  V30 3346 H 324.475 1.37381 3.46671 0
M  V30 3347 N 326.66 -1.06551 1.16123 0
M  V30 3348 C 328.076 -1.3142 0.905585 0
M  V30 3349 C 328.276 -1.96571 -0.442964 0
M  V30 3350 O 327.332 -2.23068 -1.18308 0
M  V30 3351 C 328.645 -2.19741 2.05267 0
M  V30 3352 C 330.193 -2.33165 2.08813 0
M  V30 3353 C 330.668 -3.24838 3.22868 0
M  V30 3354 N 332.159 -3.32421 3.22568 0
M  V30 3355 C 332.894 -4.0344 4.0746 0
M  V30 3356 N 332.39 -4.77003 5.02434 0
M  V30 3357 N 334.183 -3.99464 3.95456 0
M  V30 3358 H 326.334 -0.626548 2.02949 0
M  V30 3359 H 328.597 -0.338777 0.8854 0
M  V30 3360 H 328.303 -1.79142 3.02657 0
M  V30 3361 H 328.177 -3.20313 1.99198 0
M  V30 3362 H 330.564 -2.73013 1.12018 0
M  V30 3363 H 330.645 -1.3227 2.18948 0
M  V30 3364 H 330.289 -2.85708 4.19921 0
M  V30 3365 H 330.219 -4.25707 3.0997 0
M  V30 3366 H 332.71 -2.79994 2.53795 0
M  V30 3367 H 333.023 -5.28712 5.63634 0
M  V30 3368 H 331.368 -4.75992 5.06415 0
M  V30 3369 H 334.559 -3.4111 3.20564 0
M  V30 3370 H 334.732 -4.54544 4.61837 0
M  V30 3371 N 328.138 -0.959301 -1.25041 0
M  V30 3372 C 329.554 -0.664474 -1.4511 0
M  V30 3373 C 329.754 0.776481 -1.85938 0
M  V30 3374 O 328.81 1.55128 -1.99227 0
M  V30 3375 C 330.123 -1.64139 -2.5195 0
M  V30 3376 C 331.671 -1.65309 -2.65786 0
M  V30 3377 C 332.146 -2.61777 -3.75815 0
M  V30 3378 N 333.637 -2.60169 -3.83231 0
M  V30 3379 C 334.372 -3.31489 -4.6787 0
M  V30 3380 N 333.868 -4.12298 -5.56761 0
M  V30 3381 N 335.661 -3.20354 -4.61876 0
M  V30 3382 H 327.812 -1.89043 -0.968332 0
M  V30 3383 H 330.075 -0.813408 -0.4869 0
M  V30 3384 H 329.781 -2.67086 -2.28819 0
M  V30 3385 H 329.655 -1.40756 -3.49954 0
M  V30 3386 H 332.042 -0.630778 -2.8828 0
M  V30 3387 H 332.123 -1.92753 -1.68167 0
M  V30 3388 H 331.767 -3.64137 -3.54071 0
M  V30 3389 H 331.697 -2.31616 -4.72929 0
M  V30 3390 H 334.188 -2.01507 -3.19692 0
M  V30 3391 H 334.501 -4.63625 -6.18281 0
M  V30 3392 H 332.846 -4.16395 -5.56454 0
M  V30 3393 H 336.037 -2.56692 -3.91442 0
M  V30 3394 H 336.21 -3.76201 -5.27614 0
M  V30 3395 N 329.616 1.39756 -0.72842 0
M  V30 3396 C 331.032 1.5442 -0.403308 0
M  V30 3397 C 331.232 1.69694 1.08656 0
M  V30 3398 O 330.288 1.69373 1.87267 0
M  V30 3399 C 331.601 2.76555 -1.18058 0
M  V30 3400 C 333.149 2.90384 -1.16815 0
M  V30 3401 C 333.624 4.15449 -1.92785 0
M  V30 3402 N 335.115 4.22475 -1.89918 0
M  V30 3403 C 335.85 5.1818 -2.45514 0
M  V30 3404 N 335.346 6.19714 -3.09719 0
M  V30 3405 N 337.139 5.1035 -2.35584 0
M  V30 3406 H 329.29 1.28089 -1.69431 0
M  V30 3407 H 331.553 0.620327 -0.716867 0
M  V30 3408 H 331.259 2.7159 -2.23455 0
M  V30 3409 H 331.133 3.69033 -0.780662 0
M  V30 3410 H 333.52 2.94846 -0.12234 0
M  V30 3411 H 333.601 1.98988 -1.6074 0
M  V30 3412 H 333.245 4.11749 -2.97364 0
M  V30 3413 H 333.175 5.05877 -1.46272 0
M  V30 3414 H 335.666 3.49743 -1.43138 0
M  V30 3415 H 335.979 6.8919 -3.49625 0
M  V30 3416 H 334.324 6.20121 -3.13807 0
M  V30 3417 H 337.515 4.2996 -1.85072 0
M  V30 3418 H 337.688 5.84761 -2.79211 0
M  V30 3419 N 331.094 0.475555 1.50254 0
M  V30 3420 C 332.026 -0.352649 2.26471 0
M  V30 3421 C 333.039 -0.953165 1.3198 0
M  V30 3422 O 334.228 -0.840815 1.57457 0
M  V30 3423 C 331.328 -1.50902 3.0345 0
M  V30 3424 C 330.501 -1.02047 4.25329 0
M  V30 3425 C 329.56 -2.05142 4.84565 0
M  V30 3426 O 328.586 -1.63023 5.45355 0
M  V30 3427 N 329.788 -3.37987 4.71959 0
M  V30 3428 H 332.553 0.300767 2.98187 0
M  V30 3429 H 330.114 0.306598 1.5897 0
M  V30 3430 H 332.106 -2.19572 3.39956 0
M  V30 3431 H 330.676 -2.06705 2.34504 0
M  V30 3432 H 329.896 -0.159507 3.93877 0
M  V30 3433 H 331.184 -0.672061 5.04342 0
M  V30 3434 H 330.582 -3.74913 4.23623 0
M  V30 3435 H 329.139 -4.02443 5.12721 0
M  V30 3436 N 332.573 -1.56217 0.208337 0
M  V30 3437 C 333.819 -1.98242 -0.427552 0
M  V30 3438 C 334.152 -1.09554 -1.60348 0
M  V30 3439 O 333.427 -0.15035 -1.93918 0
M  V30 3440 C 333.71 -3.4931 -0.874907 0
M  V30 3441 C 333.563 -4.48773 0.303751 0
M  V30 3442 C 334.882 -4.04424 -1.73577 0
M  V30 3443 H 332.001 -0.720744 -0.153936 0
M  V30 3444 H 334.643 -1.87586 0.30192 0
M  V30 3445 H 332.793 -3.58522 -1.49648 0
M  V30 3446 H 334.465 -4.51586 0.941682 0
M  V30 3447 H 332.708 -4.23194 0.953375 0
M  V30 3448 H 333.379 -5.51976 -0.0519883 0
M  V30 3449 H 335.855 -3.98075 -1.21143 0
M  V30 3450 H 334.731 -5.1047 -2.01771 0
M  V30 3451 H 334.992 -3.50494 -2.69456 0
M  V30 3452 N 334.051 0.0651679 -1.57465 0
M  V30 3453 C 335.014 1.06117 -2.03155 0
M  V30 3454 C 336.014 1.31204 -0.929632 0
M  V30 3455 O 337.204 1.26813 -1.19432 0
M  V30 3456 C 334.336 2.4032 -2.41783 0
M  V30 3457 H 335.529 0.667231 -2.92383 0
M  V30 3458 H 333.082 0.311075 -1.53173 0
M  V30 3459 H 333.817 2.84532 -1.55601 0
M  V30 3460 H 333.602 2.23451 -3.22199 0
M  V30 3461 H 335.092 3.11898 -2.77685 0
M  V30 3462 N 335.529 1.53961 0.336706 0
M  V30 3463 C 336.459 1.85417 1.41925 0
M  V30 3464 C 337.44 0.709856 1.5458 0
M  V30 3465 O 338.625 0.962396 1.68676 0
M  V30 3466 C 335.755 2.06985 2.78881 0
M  V30 3467 C 334.709 3.22813 2.81026 0
M  V30 3468 C 334.035 3.29727 4.20932 0
M  V30 3469 C 335.335 4.60767 2.45949 0
M  V30 3470 H 337.029 2.76079 1.15848 0
M  V30 3471 H 334.575 1.32839 0.555859 0
M  V30 3472 H 336.528 2.27575 3.54665 0
M  V30 3473 H 335.252 1.13061 3.06406 0
M  V30 3474 H 333.911 3.0209 2.07695 0
M  V30 3475 H 333.559 2.33385 4.45579 0
M  V30 3476 H 333.259 4.07566 4.23277 0
M  V30 3477 H 334.783 3.52536 4.98549 0
M  V30 3478 H 336.197 4.81325 3.11446 0
M  V30 3479 H 334.594 5.4106 2.59566 0
M  V30 3480 H 335.664 4.6391 1.41122 0
M  V30 3481 N 337.007 -0.598083 1.45811 0
M  V30 3482 C 338.423 -0.919847 1.30426 0
M  V30 3483 C 338.623 -1.99759 0.264303 0
M  V30 3484 O 337.679 -2.50221 -0.338472 0
M  V30 3485 C 338.992 -1.35176 2.68603 0
M  V30 3486 C 340.54 -1.46546 2.76574 0
M  V30 3487 C 341.015 -1.9311 4.15298 0
M  V30 3488 N 342.506 -2.00328 4.1764 0
M  V30 3489 C 343.241 -2.37599 5.21856 0
M  V30 3490 N 342.737 -2.73771 6.36413 0
M  V30 3491 N 344.53 -2.38021 5.09218 0
M  V30 3492 H 336.681 0.114111 2.12093 0
M  V30 3493 H 338.944 -0.0116121 0.947929 0
M  V30 3494 H 338.65 -0.633969 3.45939 0
M  V30 3495 H 338.524 -2.3164 2.97696 0
M  V30 3496 H 340.911 -2.17415 1.99537 0
M  V30 3497 H 340.992 -0.483727 2.51185 0
M  V30 3498 H 340.636 -1.22824 4.92825 0
M  V30 3499 H 340.566 -2.92213 4.38086 0
M  V30 3500 H 343.057 -1.74925 3.34977 0
M  V30 3501 H 343.37 -3.0112 7.11721 0
M  V30 3502 H 341.715 -2.71445 6.39799 0
M  V30 3503 H 344.906 -2.09174 4.18765 0
M  V30 3504 H 345.079 -2.66741 5.90554 0
M  V30 3505 N 338.485 -1.33259 -0.841409 0
M  V30 3506 C 339.901 -1.12538 -1.13169 0
M  V30 3507 C 340.101 0.0854037 -2.01319 0
M  V30 3508 O 339.157 0.766417 -2.40587 0
M  V30 3509 C 340.47 -2.41156 -1.79623 0
M  V30 3510 C 342.018 -2.47038 -1.922 0
M  V30 3511 C 342.493 -3.7561 -2.6207 0
M  V30 3512 N 343.984 -3.76667 -2.69585 0
M  V30 3513 C 344.719 -4.72861 -3.2433 0
M  V30 3514 N 344.215 -5.79428 -3.79783 0
M  V30 3515 N 346.008 -4.6034 -3.22558 0
M  V30 3516 H 338.159 -2.10868 -0.254676 0
M  V30 3517 H 340.422 -0.931615 -0.175493 0
M  V30 3518 H 340.128 -3.29747 -1.22311 0
M  V30 3519 H 340.002 -2.53114 -2.79666 0
M  V30 3520 H 342.389 -1.58898 -2.48667 0
M  V30 3521 H 342.47 -2.39022 -0.911148 0
M  V30 3522 H 342.114 -4.64131 -2.06263 0
M  V30 3523 H 342.044 -3.80902 -3.63622 0
M  V30 3524 H 344.535 -2.99648 -2.30259 0
M  V30 3525 H 344.848 -6.48867 -4.19752 0
M  V30 3526 H 343.193 -5.83166 -3.78078 0
M  V30 3527 H 346.384 -3.76244 -2.78492 0
M  V30 3528 H 346.557 -5.35478 -3.64921 0
M  V30 3529 N 339.963 1.05934 -1.16686 0
M  V30 3530 C 340.91 2.13499 -0.876748 0
M  V30 3531 C 341.88 1.65162 0.176299 0
M  V30 3532 O 343.065 1.90757 0.0407143 0
M  V30 3533 C 340.205 3.42912 -0.387967 0
M  V30 3534 C 339.318 4.04964 -1.50426 0
M  V30 3535 C 338.453 5.22266 -0.970125 0
M  V30 3536 C 337.492 5.76309 -2.06238 0
M  V30 3537 N 336.629 6.84922 -1.54356 0
M  V30 3538 H 341.469 2.37654 -1.7979 0
M  V30 3539 H 339.006 1.16598 -0.896843 0
M  V30 3540 H 340.964 4.17111 -0.086186 0
M  V30 3541 H 339.594 3.18963 0.496235 0
M  V30 3542 H 338.646 3.28277 -1.92193 0
M  V30 3543 H 339.958 4.41122 -2.32836 0
M  V30 3544 H 339.112 6.03506 -0.621743 0
M  V30 3545 H 337.851 4.87564 -0.115377 0
M  V30 3546 H 336.856 4.93704 -2.41942 0
M  V30 3547 H 338.081 6.13062 -2.92115 0
M  V30 3548 H 336.027 6.52131 -0.711406 0
M  V30 3549 H 335.944 7.20043 -2.30379 0
M  V30 3550 H 337.212 7.69832 -1.22387 0
M  V30 3551 N 341.441 0.965919 1.2453 0
M  V30 3552 C 342.404 0.499547 2.2369 0
M  V30 3553 C 343.404 -0.40294 1.5567 0
M  V30 3554 O 344.594 -0.19865 1.73064 0
M  V30 3555 C 341.726 -0.276792 3.39774 0
M  V30 3556 H 342.919 1.37613 2.66463 0
M  V30 3557 H 340.472 0.750324 1.37112 0
M  V30 3558 H 341.207 -1.17055 3.02438 0
M  V30 3559 H 340.992 0.370826 3.90343 0
M  V30 3560 H 342.482 -0.592175 4.1338 0
M  V30 3561 N 342.919 -1.39368 0.735821 0
M  V30 3562 C 343.882 -2.2896 0.104874 0
M  V30 3563 C 344.882 -1.46347 -0.666274 0
M  V30 3564 O 346.072 -1.67014 -0.49517 0
M  V30 3565 C 343.204 -3.29857 -0.860656 0
M  V30 3566 H 344.397 -2.86259 0.894205 0
M  V30 3567 H 341.95 -1.48029 0.501704 0
M  V30 3568 H 342.685 -2.77615 -1.67631 0
M  V30 3569 H 342.47 -3.9087 -0.310327 0
M  V30 3570 H 343.96 -3.96893 -1.29867 0
M  V30 3571 N 344.397 -0.483516 -1.5 0
M  V30 3572 C 345.645 0.067027 -2.01989 0
M  V30 3573 C 345.966 1.3909 -1.36671 0
M  V30 3574 O 345.236 1.88978 -0.516152 0
M  V30 3575 H 343.816 0.0277606 -0.746484 0
M  V30 3576 H 346.478 -0.636773 -1.84204 0
M  V30 3577 H 345.574 0.209484 -3.11396 0
M  V30 3578 N 345.875 1.56104 -0.216619 0
M  V30 3579 C 347.286 1.844 0.292128 0
M  V30 3580 C 347.637 1.13788 1.59833 0
M  V30 3581 O 346.762 0.405888 2.12559 0
M  V30 3582 C 347.357 3.3452 0.53681 0
M  V30 3583 C 345.916 3.63151 0.989876 0
M  V30 3584 C 345.063 2.77255 0.0502302 0
M  V30 3585 H 348.014 1.52481 -0.439926 0
M  V30 3586 H 348.035 3.54459 1.38345 0
M  V30 3587 H 347.547 3.85885 -0.414031 0
M  V30 3588 H 345.648 3.17238 1.95425 0
M  V30 3589 H 345.761 4.71177 0.867698 0
M  V30 3590 H 344.125 2.48555 0.556117 0
M  V30 3591 H 344.908 3.31416 -0.89544 0
M  V30 3592 N 347.353 -0.0568162 1.57498 0
M  V30 3593 C 348.285 -1.09292 2.01464 0
M  V30 3594 C 349.298 -1.34112 0.922913 0
M  V30 3595 O 350.487 -1.32089 1.20062 0
M  V30 3596 C 347.587 -2.44068 2.35125 0
M  V30 3597 C 346.76 -2.38995 3.66333 0
M  V30 3598 C 345.819 -3.55997 3.87495 0
M  V30 3599 O 344.845 -3.36746 4.58901 0
M  V30 3600 N 346.047 -4.76888 3.30996 0
M  V30 3601 H 348.812 -0.718386 2.90963 0
M  V30 3602 H 346.373 -0.245235 1.60032 0
M  V30 3603 H 348.365 -3.21011 2.46443 0
M  V30 3604 H 346.935 -2.73468 1.5144 0
M  V30 3605 H 346.155 -1.47336 3.65631 0
M  V30 3606 H 347.443 -2.3272 4.52458 0
M  V30 3607 H 346.841 -4.95431 2.73065 0
M  V30 3608 H 345.398 -5.51291 3.47738 0
M  V30 3609 N 348.832 -1.54138 -0.328536 0
M  V30 3610 C 349.795 -1.82462 -1.38709 0
M  V30 3611 C 350.795 -0.696229 -1.44946 0
M  V30 3612 O 351.985 -0.964535 -1.4506 0
M  V30 3613 C 349.117 -1.98018 -2.77492 0
M  V30 3614 H 350.31 -2.77037 -1.14851 0
M  V30 3615 H 347.863 -1.45779 -0.563751 0
M  V30 3616 H 348.598 -1.05637 -3.06613 0
M  V30 3617 H 348.383 -2.80124 -2.74359 0
M  V30 3618 H 349.873 -2.21396 -3.54081 0
M  V30 3619 N 350.31 0.590341 -1.46126 0
M  V30 3620 C 351.556 1.34874 -1.52252 0
M  V30 3621 C 351.911 1.91658 -0.168807 0
M  V30 3622 O 351.204 1.73093 0.821556 0
M  V30 3623 C 351.398 2.5032 -2.55097 0
M  V30 3624 C 351.227 2.04843 -4.00337 0
M  V30 3625 C 349.997 1.90213 -4.68132 0
M  V30 3626 C 352.195 1.61267 -4.88362 0
M  V30 3627 N 350.177 1.38727 -5.9802 0
M  V30 3628 C 351.548 1.21319 -6.08015 0
M  V30 3629 C 353.603 1.49015 -4.75078 0
M  V30 3630 C 352.306 0.7034 -7.15852 0
M  V30 3631 C 354.332 0.994401 -5.8298 0
M  V30 3632 C 353.694 0.604659 -7.018 0
M  V30 3633 H 349.793 0.486803 -0.612002 0
M  V30 3634 H 352.377 0.673007 -1.82698 0
M  V30 3635 H 350.548 3.15466 -2.26574 0
M  V30 3636 H 352.28 3.1725 -2.51266 0
M  V30 3637 H 349.035 2.11927 -4.23537 0
M  V30 3638 H 349.459 1.15168 -6.67132 0
M  V30 3639 H 354.101 1.77768 -3.83612 0
M  V30 3640 H 351.819 0.403446 -8.07092 0
M  V30 3641 H 355.405 0.903621 -5.7474 0
M  V30 3642 H 354.285 0.226963 -7.83871 0
M  V30 3643 N 351.788 1.33704 0.83433 0
M  V30 3644 C 353.013 1.28615 1.62705 0
M  V30 3645 C 353.438 -0.139242 1.87584 0
M  V30 3646 O 352.796 -1.09734 1.4432 0
M  V30 3647 C 352.844 2.07139 2.95171 0
M  V30 3648 O 351.948 1.4331 3.86699 0
M  V30 3649 H 351.289 0.44226 0.49528 0
M  V30 3650 H 353.819 1.76335 1.03766 0
M  V30 3651 H 353.829 2.18073 3.44831 0
M  V30 3652 H 352.504 3.10779 2.76386 0
M  V30 3653 H 351.081 1.4105 3.45195 0
M  V30 3654 N 353.266 -1.05314 1.17247 0
M  V30 3655 C 354.229 -2.112 0.890357 0
M  V30 3656 C 355.229 -1.60359 -0.118943 0
M  V30 3657 O 356.419 -1.73833 0.113086 0
M  V30 3658 C 353.551 -3.39266 0.333422 0
M  V30 3659 H 354.744 -2.37659 1.82916 0
M  V30 3660 H 352.297 -1.21538 0.982758 0
M  V30 3661 H 353.032 -3.18462 -0.612587 0
M  V30 3662 H 352.817 -3.77477 1.06082 0
M  V30 3663 H 354.307 -4.17315 0.154322 0
M  V30 3664 N 354.744 -0.972509 -1.24016 0
M  V30 3665 C 355.674 -0.525548 -2.27509 0
M  V30 3666 C 356.655 0.437262 -1.64384 0
M  V30 3667 O 357.84 0.332343 -1.91335 0
M  V30 3668 C 354.97 0.180448 -3.46831 0
M  V30 3669 C 353.924 -0.698859 -4.22256 0
M  V30 3670 C 353.25 0.138903 -5.3452 0
M  V30 3671 C 354.55 -1.98582 -4.83076 0
M  V30 3672 H 356.244 -1.39058 -2.65148 0
M  V30 3673 H 353.79 -0.67009 -1.27459 0
M  V30 3674 H 355.743 0.504387 -4.18371 0
M  V30 3675 H 354.467 1.07987 -3.08231 0
M  V30 3676 H 353.126 -1.00614 -3.52523 0
M  V30 3677 H 352.774 1.03862 -4.9216 0
M  V30 3678 H 352.474 -0.446259 -5.85903 0
M  V30 3679 H 353.998 0.457404 -6.08884 0
M  V30 3680 H 355.412 -1.72715 -5.46665 0
M  V30 3681 H 353.809 -2.5181 -5.44713 0
M  V30 3682 H 354.879 -2.67769 -4.04262 0
M  V30 3683 N 356.222 1.38976 -0.743202 0
M  V30 3684 C 357.152 2.33171 -0.123873 0
M  V30 3685 C 358.133 1.54336 0.71516 0
M  V30 3686 O 359.318 1.82696 0.658467 0
M  V30 3687 C 356.448 3.38474 0.777978 0
M  V30 3688 C 355.402 4.27979 0.0424758 0
M  V30 3689 C 354.728 5.2405 1.06189 0
M  V30 3690 C 356.028 5.10155 -1.1198 0
M  V30 3691 H 357.722 2.85213 -0.910709 0
M  V30 3692 H 355.268 1.37133 -0.439388 0
M  V30 3693 H 357.221 4.03328 1.22084 0
M  V30 3694 H 355.945 2.84891 1.59702 0
M  V30 3695 H 354.604 3.64616 -0.380853 0
M  V30 3696 H 354.252 4.66758 1.87472 0
M  V30 3697 H 353.952 5.84785 0.574485 0
M  V30 3698 H 355.476 5.9178 1.50428 0
M  V30 3699 H 356.89 5.68307 -0.75499 0
M  V30 3700 H 355.287 5.80073 -1.53738 0
M  V30 3701 H 356.357 4.44504 -1.93764 0
M  V30 3702 N 357.7 0.491464 1.49741 0
M  V30 3703 C 358.663 -0.280906 2.27472 0
M  V30 3704 C 359.663 -0.902454 1.33088 0
M  V30 3705 O 360.853 -0.768465 1.56334 0
M  V30 3706 C 357.985 -1.40209 3.10732 0
M  V30 3707 H 359.178 0.401056 2.97206 0
M  V30 3708 H 356.731 0.246131 1.5435 0
M  V30 3709 H 357.466 -2.11849 2.45541 0
M  V30 3710 H 357.251 -0.961969 3.80117 0
M  V30 3711 H 358.741 -1.9464 3.69466 0
M  V30 3712 N 359.178 -1.55987 0.224894 0
M  V30 3713 C 360.125 -2.20436 -0.68385 0
M  V30 3714 C 361.095 -1.16102 -1.18783 0
M  V30 3715 O 362.28 -1.4447 -1.24632 0
M  V30 3716 C 359.42 -2.89076 -1.88491 0
M  V30 3717 C 358.533 -4.08012 -1.41951 0
M  V30 3718 C 357.668 -4.64426 -2.5784 0
M  V30 3719 C 356.707 -5.75656 -2.08053 0
M  V30 3720 N 355.844 -6.26347 -3.17227 0
M  V30 3721 H 360.684 -2.97727 -0.12754 0
M  V30 3722 H 358.221 -1.47011 -0.0511978 0
M  V30 3723 H 360.179 -3.27059 -2.59014 0
M  V30 3724 H 358.809 -2.14298 -2.41405 0
M  V30 3725 H 357.861 -3.75492 -0.609095 0
M  V30 3726 H 359.173 -4.88375 -1.01447 0
M  V30 3727 H 358.327 -5.04869 -3.3644 0
M  V30 3728 H 357.066 -3.83233 -3.01635 0
M  V30 3729 H 356.071 -5.34712 -1.27916 0
M  V30 3730 H 357.296 -6.58686 -1.65255 0
M  V30 3731 H 355.242 -5.48067 -3.60497 0
M  V30 3732 H 355.159 -7.01843 -2.80986 0
M  V30 3733 H 356.427 -6.71447 -3.95953 0
M  V30 3734 N 360.656 0.0484629 -1.57525 0
M  V30 3735 C 361.619 1.03956 -2.04269 0
M  V30 3736 C 362.619 1.30211 -0.943496 0
M  V30 3737 O 363.809 1.25539 -1.20771 0
M  V30 3738 C 360.941 2.37742 -2.44319 0
M  V30 3739 H 362.134 0.636182 -2.93075 0
M  V30 3740 H 359.687 0.294811 -1.53494 0
M  V30 3741 H 360.422 2.82866 -1.5861 0
M  V30 3742 H 360.207 2.20021 -3.24551 0
M  V30 3743 H 361.697 3.08936 -2.80978 0
M  V30 3744 N 362.134 1.5431 0.320358 0
M  V30 3745 C 363.383 1.7188 1.05546 0
M  V30 3746 C 363.696 0.501143 1.89071 0
M  V30 3747 O 364.902 0.558258 2.65699 0
M  V30 3748 C 363.358 3.04025 1.92605 0
M  V30 3749 C 362.966 4.33207 1.14176 0
M  V30 3750 C 364.71 3.30959 2.65832 0
M  V30 3751 C 362.617 5.56412 2.00399 0
M  V30 3752 H 361.547 0.640547 0.397763 0
M  V30 3753 H 364.198 1.80802 0.313522 0
M  V30 3754 H 362.58 2.89019 2.7071 0
M  V30 3755 H 363.754 4.58989 0.40819 0
M  V30 3756 H 362.069 4.13062 0.526165 0
M  V30 3757 H 364.666 4.20203 3.30656 0
M  V30 3758 H 365.009 2.48979 3.33639 0
M  V30 3759 H 365.542 3.46847 1.94787 0
M  V30 3760 H 362.281 6.41004 1.37094 0
M  V30 3761 H 361.801 5.34844 2.7148 0
M  V30 3762 H 363.48 5.92938 2.58908 0
M  V30 3763 N 363.613 -0.582584 1.46437 0
M  V30 3764 C 364.841 -1.36682 1.55324 0
M  V30 3765 C 365.256 -1.87796 0.194409 0
M  V30 3766 O 364.613 -1.63623 -0.808318 0
M  V30 3767 C 364.664 -2.55426 2.55812 0
M  V30 3768 O 364.385 -2.0643 3.86417 0
M  V30 3769 C 365.886 -3.47976 2.74641 0
M  V30 3770 H 363.106 -0.417545 0.525259 0
M  V30 3771 H 365.65 -0.708219 1.91845 0
M  V30 3772 H 363.805 -3.17275 2.22295 0
M  V30 3773 H 364.219 -2.83762 4.41111 0
M  V30 3774 H 365.693 -4.27775 3.48874 0
M  V30 3775 H 366.17 -3.99919 1.81553 0
M  V30 3776 H 366.776 -2.91962 3.09255 0
M  V30 3777 N 365.091 -1.34144 -0.827227 0
M  V30 3778 C 366.038 -1.25364 -1.93785 0
M  V30 3779 C 367.008 -0.129774 -1.65592 0
M  V30 3780 O 368.193 -0.310024 -1.88264 0
M  V30 3781 C 365.333 -1.01064 -3.2997 0
M  V30 3782 C 364.446 -2.22185 -3.70484 0
M  V30 3783 C 363.581 -1.91203 -4.95595 0
M  V30 3784 C 362.62 -3.08491 -5.28677 0
M  V30 3785 N 361.757 -2.77421 -6.44967 0
M  V30 3786 H 366.597 -2.20347 -2.00627 0
M  V30 3787 H 364.134 -1.09558 -0.981608 0
M  V30 3788 H 366.092 -0.850139 -4.08446 0
M  V30 3789 H 364.722 -0.0975026 -3.22653 0
M  V30 3790 H 363.774 -2.4917 -2.87434 0
M  V30 3791 H 365.086 -3.0983 -3.90905 0
M  V30 3792 H 364.24 -1.71864 -5.81848 0
M  V30 3793 H 362.979 -1.00812 -4.77167 0
M  V30 3794 H 361.984 -3.28431 -4.40923 0
M  V30 3795 H 363.209 -3.99655 -5.49047 0
M  V30 3796 H 361.155 -1.89601 -6.28003 0
M  V30 3797 H 361.072 -3.58598 -6.6554 0
M  V30 3798 H 362.34 -2.61577 -7.34301 0
M  V30 3799 N 366.569 1.04691 -1.17803 0
M  V30 3800 C 367.794 1.81984 -0.994813 0
M  V30 3801 C 368.219 1.82586 0.452112 0
M  V30 3802 O 367.577 1.23854 1.324 0
M  V30 3803 C 367.625 3.2575 -1.54659 0
M  V30 3804 O 366.729 4.05267 -0.763728 0
M  V30 3805 H 366.07 0.562483 -0.352857 0
M  V30 3806 H 368.6 1.3189 -1.56417 0
M  V30 3807 H 368.61 3.76541 -1.57102 0
M  V30 3808 H 367.285 3.24627 -2.59981 0
M  V30 3809 H 365.862 3.63972 -0.811108 0
M  V30 3810 N 368.047 0.979072 1.23499 0
M  V30 3811 C 369.295 0.645941 1.91499 0
M  V30 3812 C 369.616 -0.822948 1.76784 0
M  V30 3813 O 368.886 -1.58854 1.14639 0
M  V30 3814 H 367.466 0.235919 0.708767 0
M  V30 3815 H 370.128 1.2426 1.50152 0
M  V30 3816 H 369.224 0.896411 2.9895 0
M  V30 3817 N 369.525 -1.3858 0.750561 0
M  V30 3818 C 370.455 -2.33102 0.136237 0
M  V30 3819 C 371.436 -1.54713 -0.706965 0
M  V30 3820 O 372.621 -1.83043 -0.648769 0
M  V30 3821 C 369.751 -3.38882 -0.760017 0
M  V30 3822 C 368.705 -4.27995 -0.0197785 0
M  V30 3823 C 368.031 -5.24605 -1.03408 0
M  V30 3824 C 369.331 -5.09554 1.14684 0
M  V30 3825 H 371.025 -2.84726 0.925822 0
M  V30 3826 H 368.571 -1.36898 0.446654 0
M  V30 3827 H 370.524 -4.0397 -1.19943 0
M  V30 3828 H 369.248 -2.85734 -1.58189 0
M  V30 3829 H 367.907 -3.64409 0.400184 0
M  V30 3830 H 367.555 -4.67746 -1.84994 0
M  V30 3831 H 367.255 -5.85081 -0.543464 0
M  V30 3832 H 368.779 -5.9257 -1.47288 0
M  V30 3833 H 370.193 -5.67899 0.785118 0
M  V30 3834 H 368.59 -5.7925 1.56812 0
M  V30 3835 H 369.66 -4.4347 1.96118 0
M  V30 3836 N 371.003 -0.499398 -1.49478 0
M  V30 3837 C 371.935 0.316575 -2.27003 0
M  V30 3838 C 372.948 0.932047 -1.33479 0
M  V30 3839 O 374.137 0.815658 -1.58774 0
M  V30 3840 C 371.237 1.46055 -3.05812 0
M  V30 3841 C 370.41 0.952679 -4.26899 0
M  V30 3842 C 369.469 1.97407 -4.87767 0
M  V30 3843 O 368.495 1.54326 -5.4788 0
M  V30 3844 N 369.697 3.30436 -4.77276 0
M  V30 3845 H 372.462 -0.348168 -2.97671 0
M  V30 3846 H 370.023 -0.33185 -1.58463 0
M  V30 3847 H 372.015 2.14135 -3.43407 0
M  V30 3848 H 370.585 2.02948 -2.37762 0
M  V30 3849 H 369.805 0.0968248 -3.94081 0
M  V30 3850 H 371.093 0.59174 -5.05347 0
M  V30 3851 H 370.491 3.68126 -4.29534 0
M  V30 3852 H 369.048 3.94235 -5.19059 0
M  V30 3853 N 372.481 1.55866 -0.233164 0
M  V30 3854 C 373.431 2.17442 0.685774 0
M  V30 3855 C 374.415 1.12617 1.14918 0
M  V30 3856 O 375.607 1.3857 1.10124 0
M  V30 3857 C 372.736 2.86685 1.88856 0
M  V30 3858 C 371.822 3.98749 1.4443 0
M  V30 3859 N 372.213 5.00744 0.713364 0
M  V30 3860 C 370.511 4.11052 1.73068 0
M  V30 3861 C 371.212 5.79673 0.485205 0
M  V30 3862 N 370.188 5.33454 1.04536 0
M  V30 3863 H 373.99 2.93659 0.119022 0
M  V30 3864 H 371.504 1.62362 -0.0348995 0
M  V30 3865 H 373.501 3.29218 2.55776 0
M  V30 3866 H 372.161 2.11967 2.45967 0
M  V30 3867 H 373.172 5.16613 0.364861 0
M  V30 3868 H 369.849 3.47495 2.31416 0
M  V30 3869 H 371.239 6.71829 -0.097365 0
M  V30 3870 N 373.959 -0.0401083 1.57549 0
M  V30 3871 C 374.889 -1.04384 2.08869 0
M  V30 3872 C 375.87 -1.38407 0.988817 0
M  V30 3873 O 377.055 -1.47483 1.26342 0
M  V30 3874 C 374.185 -2.34808 2.55895 0
M  V30 3875 C 373.139 -2.15057 3.70047 0
M  V30 3876 C 372.465 -3.51145 4.03239 0
M  V30 3877 C 373.765 -1.54576 4.98902 0
M  V30 3878 H 375.459 -0.616666 2.92981 0
M  V30 3879 H 373.005 -0.295184 1.40942 0
M  V30 3880 H 374.958 -3.05346 2.90417 0
M  V30 3881 H 373.682 -2.79565 1.68853 0
M  V30 3882 H 372.341 -1.46954 3.35857 0
M  V30 3883 H 371.989 -3.93529 3.13279 0
M  V30 3884 H 371.689 -3.38758 4.80122 0
M  V30 3885 H 373.213 -4.23062 4.40285 0
M  V30 3886 H 374.627 -2.15017 5.31451 0
M  V30 3887 H 373.024 -1.52796 5.80322 0
M  V30 3888 H 374.094 -0.51039 4.82206 0
M  V30 3889 N 375.437 -1.54477 -0.31217 0
M  V30 3890 C 376.4 -1.83923 -1.36766 0
M  V30 3891 C 377.4 -0.711563 -1.44199 0
M  V30 3892 O 378.59 -0.979866 -1.44029 0
M  V30 3893 C 375.722 -2.0095 -2.75376 0
M  V30 3894 H 376.915 -2.78239 -1.11906 0
M  V30 3895 H 374.468 -1.46369 -0.548257 0
M  V30 3896 H 375.203 -1.08883 -3.05475 0
M  V30 3897 H 374.988 -2.83018 -2.71373 0
M  V30 3898 H 376.478 -2.2514 -3.51713 0
M  V30 3899 N 376.915 0.57481 -1.46744 0
M  V30 3900 C 378.326 1.15695 -1.46532 0
M  V30 3901 C 378.677 1.95068 -0.210425 0
M  V30 3902 O 377.802 2.05241 0.685944 0
M  V30 3903 C 378.397 2.1048 -2.65487 0
M  V30 3904 C 376.956 2.64002 -2.68291 0
M  V30 3905 C 376.103 1.40026 -2.39349 0
M  V30 3906 H 379.054 0.362325 -1.54509 0
M  V30 3907 H 379.075 2.94074 -2.41455 0
M  V30 3908 H 378.587 1.52683 -3.56805 0
M  V30 3909 H 376.688 3.25646 -1.81067 0
M  V30 3910 H 376.801 3.06197 -3.68483 0
M  V30 3911 H 375.165 1.70106 -1.89568 0
M  V30 3912 H 375.948 0.840485 -3.32852 0
M  V30 3913 N 378.394 1.34581 0.820102 0
M  V30 3914 C 379.805 1.24298 1.39309 0
M  V30 3915 C 380.156 -0.130351 1.95767 0
M  V30 3916 O 379.281 -1.0308 1.90272 0
M  V30 3917 C 379.876 2.25054 2.53251 0
M  V30 3918 C 378.435 2.18552 3.0645 0
M  V30 3919 C 377.582 2.11503 1.79337 0
M  V30 3920 H 380.533 1.45906 0.624262 0
M  V30 3921 H 380.554 1.86917 3.31425 0
M  V30 3922 H 380.066 3.24996 2.1213 0
M  V30 3923 H 378.167 1.21976 3.52069 0
M  V30 3924 H 378.28 3.0993 3.65349 0
M  V30 3925 H 376.644 1.57268 2.00347 0
M  V30 3926 H 377.427 3.13284 1.40386 0
M  V30 3927 N 379.872 -1.04064 1.18357 0
M  V30 3928 C 381.283 -1.58719 0.98312 0
M  V30 3929 C 381.634 -1.90556 -0.467193 0
M  V30 3930 O 380.759 -1.69561 -1.34454 0
M  V30 3931 C 381.354 -2.88379 1.77828 0
M  V30 3932 C 379.913 -3.3965 1.62218 0
M  V30 3933 C 379.06 -2.13235 1.77274 0
M  V30 3934 H 382.011 -0.867359 1.32901 0
M  V30 3935 H 382.032 -3.58773 1.26737 0
M  V30 3936 H 381.544 -2.65176 2.83379 0
M  V30 3937 H 379.645 -3.67866 0.592036 0
M  V30 3938 H 379.758 -4.13475 2.42023 0
M  V30 3939 H 378.122 -2.24542 1.20221 0
M  V30 3940 H 378.905 -1.92487 2.8426 0
M  V30 3941 N 381.35 -0.985608 -1.22978 0
M  V30 3942 C 382.761 -0.693593 -1.73338 0
M  V30 3943 C 383.112 0.789935 -1.79595 0
M  V30 3944 O 382.237 1.61771 -1.43733 0
M  V30 3945 C 382.832 -1.25235 -3.14804 0
M  V30 3946 C 381.391 -1.00987 -3.626 0
M  V30 3947 C 380.538 -1.37695 -2.40698 0
M  V30 3948 H 383.489 -1.15884 -1.08428 0
M  V30 3949 H 383.51 -0.627329 -3.75293 0
M  V30 3950 H 383.022 -2.33209 -3.10218 0
M  V30 3951 H 381.123 0.0535565 -3.72562 0
M  V30 3952 H 381.236 -1.66812 -4.49122 0
M  V30 3953 H 379.6 -0.795459 -2.4196 0
M  V30 3954 H 380.383 -2.46657 -2.38779 0
M  V30 3955 N 382.828 1.3818 -0.7579 0
M  V30 3956 C 384.056 2.04301 -0.326937 0
M  V30 3957 C 384.471 1.57163 1.0462 0
M  V30 3958 O 383.828 0.746626 1.66529 0
M  V30 3959 C 383.879 3.59846 -0.345363 0
M  V30 3960 O 383.6 4.05256 -1.66432 0
M  V30 3961 C 385.101 4.4319 0.098927 0
M  V30 3962 H 382.321 0.656443 -0.139012 0
M  V30 3963 H 384.865 1.76786 -1.02796 0
M  V30 3964 H 383.02 3.86182 0.306955 0
M  V30 3965 H 383.434 4.99709 -1.59345 0
M  V30 3966 H 384.908 5.51989 0.0348745 0
M  V30 3967 H 385.385 4.23947 1.14741 0
M  V30 3968 H 385.991 4.22051 -0.52468 0
M  V30 3969 N 384.306 0.507319 1.49211 0
M  V30 3970 C 385.717 0.0611118 1.866 0
M  V30 3971 C 386.068 -1.35488 1.41907 0
M  V30 3972 O 385.193 -2.0108 0.799726 0
M  V30 3973 C 385.788 0.104125 3.3864 0
M  V30 3974 C 384.347 -0.28677 3.75306 0
M  V30 3975 C 383.494 0.473893 2.73221 0
M  V30 3976 H 386.445 0.719775 1.41439 0
M  V30 3977 H 386.466 -0.689672 3.74198 0
M  V30 3978 H 385.978 1.13482 3.71138 0
M  V30 3979 H 384.079 -1.32046 3.48417 0
M  V30 3980 H 384.192 0.0370745 4.79086 0
M  V30 3981 H 382.556 -0.0770644 2.54583 0
M  V30 3982 H 383.339 1.50478 3.08563 0
M  V30 3983 N 385.784 -1.5574 0.241426 0
M  V30 3984 C 387.032 -1.98417 -0.384075 0
M  V30 3985 C 387.353 -1.13078 -1.58866 0
M  V30 3986 O 386.623 -0.212312 -1.94746 0
M  V30 3987 H 385.203 -0.732813 -0.144894 0
M  V30 3988 H 387.865 -1.9193 0.338943 0
M  V30 3989 H 386.961 -3.04219 -0.696939 0
M  V30 3990 N 387.262 0.0317525 -1.57568 0
M  V30 3991 C 388.225 1.01783 -2.0536 0
M  V30 3992 C 389.225 1.29203 -0.957253 0
M  V30 3993 O 390.415 1.24251 -1.22095 0
M  V30 3994 C 387.547 2.35137 -2.46827 0
M  V30 3995 H 388.74 0.605062 -2.93733 0
M  V30 3996 H 386.293 0.278514 -1.53799 0
M  V30 3997 H 387.028 2.81168 -1.61602 0
M  V30 3998 H 386.813 2.16566 -3.26866 0
M  V30 3999 H 388.303 3.05938 -2.84239 0
M  V30 4000 N 388.74 1.54641 0.303973 0
M  V30 4001 C 390.151 1.64811 0.877163 0
M  V30 4002 C 390.502 0.554838 1.88191 0
M  V30 4003 O 389.627 -0.309033 2.14182 0
M  V30 4004 C 390.222 2.9876 1.59775 0
M  V30 4005 C 388.781 3.11061 2.11938 0
M  V30 4006 C 387.928 2.60479 0.951097 0
M  V30 4007 H 390.879 1.58493 0.0810486 0
M  V30 4008 H 390.9 2.90017 2.46314 0
M  V30 4009 H 390.412 3.7831 0.866226 0
M  V30 4010 H 388.513 2.36225 2.88146 0
M  V30 4011 H 388.626 4.17171 2.35595 0
M  V30 4012 H 386.99 2.16859 1.33583 0
M  V30 4013 H 387.773 3.42504 0.233581 0
M  V30 4014 N 390.218 -0.567019 1.47046 0
M  V30 4015 C 391.458 -1.3355 1.54738 0
M  V30 4016 C 391.822 -1.90947 0.200772 0
M  V30 4017 O 393.023 -2.68367 0.152489 0
M  V30 4018 C 391.294 -2.42317 2.62712 0
M  V30 4019 S 392.853 -3.29383 2.89918 0
M  V30 4020 H 389.671 -0.454788 0.546525 0
M  V30 4021 H 392.273 -0.650191 1.84371 0
M  V30 4022 H 390.977 -1.98568 3.59164 0
M  V30 4023 H 390.508 -3.15601 2.34861 0
M  V30 4024 H 392.523 -4.41548 2.26384 0
M  V30 4025 N 391.696 -1.35014 -0.812953 0
M  V30 4026 C 392.921 -1.31187 -1.60639 0
M  V30 4027 C 393.346 0.109382 -1.87782 0
M  V30 4028 O 392.704 1.07424 -1.46047 0
M  V30 4029 C 392.752 -2.11809 -2.91838 0
M  V30 4030 O 391.856 -1.49444 -3.8437 0
M  V30 4031 H 391.197 -0.450084 -0.488181 0
M  V30 4032 H 393.727 -1.77963 -1.00947 0
M  V30 4033 H 393.737 -2.23531 -3.41318 0
M  V30 4034 H 392.412 -3.15137 -2.71407 0
M  V30 4035 H 390.989 -1.46524 -3.42907 0
M  V30 4036 N 393.175 1.03435 -1.18907 0
M  V30 4037 C 394.085 2.15075 -0.937015 0
M  V30 4038 C 395.101 1.73706 0.101085 0
M  V30 4039 O 396.277 2.01232 -0.0822948 0
M  V30 4040 C 393.342 3.43458 -0.473057 0
M  V30 4041 C 392.403 3.99172 -1.57989 0
M  V30 4042 C 391.636 5.21427 -1.13797 0
M  V30 4043 O 391.859 5.704 0.000725941 0
M  V30 4044 O 390.793 5.69837 -1.9383 0
M  V30 4045 H 394.619 2.39198 -1.87131 0
M  V30 4046 H 392.204 1.13506 -0.971427 0
M  V30 4047 H 394.086 4.20811 -0.222702 0
M  V30 4048 H 392.761 3.20793 0.432869 0
M  V30 4049 H 391.668 3.23178 -1.88433 0
M  V30 4050 H 393.001 4.2619 -2.46217 0
M  V30 4051 N 394.653 0.992116 1.22453 0
M  V30 4052 C 395.878 0.685644 1.95739 0
M  V30 4053 C 396.303 -0.743 1.72804 0
M  V30 4054 O 395.661 -1.50778 1.00676 0
M  V30 4055 C 395.709 0.996293 3.46564 0
M  V30 4056 O 394.813 0.0945512 4.12292 0
M  V30 4057 H 394.154 0.256694 0.612376 0
M  V30 4058 H 396.684 1.32888 1.5557 0
M  V30 4059 H 396.694 0.93781 3.97076 0
M  V30 4060 H 395.369 2.03733 3.62582 0
M  V30 4061 H 393.946 0.208451 3.72317 0
M  V30 4062 N 396.131 -1.37776 0.765217 0
M  V30 4063 C 397.041 -2.34135 0.147666 0
M  V30 4064 C 398.057 -1.59854 -0.687215 0
M  V30 4065 O 399.233 -1.91983 -0.608659 0
M  V30 4066 C 396.298 -3.3901 -0.72617 0
M  V30 4067 C 395.359 -4.2912 0.124417 0
M  V30 4068 C 394.592 -5.28986 -0.707807 0
M  V30 4069 O 394.815 -5.36205 -1.94525 0
M  V30 4070 O 393.749 -6.01779 -0.12046 0
M  V30 4071 H 397.575 -2.88664 0.943758 0
M  V30 4072 H 395.16 -1.39824 0.526277 0
M  V30 4073 H 397.042 -4.03195 -1.22524 0
M  V30 4074 H 395.717 -2.86819 -1.50056 0
M  V30 4075 H 394.624 -3.68057 0.669696 0
M  V30 4076 H 395.957 -4.84598 0.861736 0
M  V30 4077 N 397.609 -0.515225 -1.4894 0
M  V30 4078 C 399.025 -0.172099 -1.58669 0
M  V30 4079 C 399.225 1.32405 -1.51892 0
M  V30 4080 O 398.281 2.10116 -1.40027 0
M  V30 4081 C 399.594 -0.761533 -2.90897 0
M  V30 4082 C 401.142 -0.728926 -3.04394 0
M  V30 4083 C 401.617 -1.29667 -4.39261 0
M  V30 4084 N 403.108 -1.25799 -4.4579 0
M  V30 4085 C 403.843 -1.66733 -5.48623 0
M  V30 4086 N 403.339 -2.15327 -6.58488 0
M  V30 4087 N 405.132 -1.58061 -5.39419 0
M  V30 4088 H 397.283 -1.48778 -1.51588 0
M  V30 4089 H 399.546 -0.617968 -0.718901 0
M  V30 4090 H 399.252 -1.81136 -3.01468 0
M  V30 4091 H 399.126 -0.230106 -3.76497 0
M  V30 4092 H 401.513 0.312098 -2.93445 0
M  V30 4093 H 401.594 -1.29766 -2.20442 0
M  V30 4094 H 401.238 -2.33655 -4.50963 0
M  V30 4095 H 401.168 -0.703752 -5.21876 0
M  V30 4096 H 403.659 -0.902102 -3.66975 0
M  V30 4097 H 403.972 -2.44594 -7.33071 0
M  V30 4098 H 402.317 -2.19311 -6.59491 0
M  V30 4099 H 405.508 -1.19906 -4.52482 0
M  V30 4100 H 405.681 -1.90284 -6.19432 0
M  V30 4101 N 399.087 1.5561 -0.249682 0
M  V30 4102 C 400.019 2.18834 0.681496 0
M  V30 4103 C 401.032 1.16546 1.1367 0
M  V30 4104 O 402.221 1.43397 1.06299 0
M  V30 4105 C 399.321 2.77992 1.9384 0
M  V30 4106 C 398.494 4.05725 1.63419 0
M  V30 4107 C 397.553 4.49174 2.74096 0
M  V30 4108 O 396.579 5.15492 2.41364 0
M  V30 4109 N 397.781 4.17191 4.03649 0
M  V30 4110 H 400.546 2.9937 0.140514 0
M  V30 4111 H 398.107 1.6175 -0.0697541 0
M  V30 4112 H 400.099 3.04015 2.67127 0
M  V30 4113 H 398.669 2.01596 2.38909 0
M  V30 4114 H 397.889 3.87261 0.736358 0
M  V30 4115 H 399.177 4.88999 1.40562 0
M  V30 4116 H 398.575 3.63955 4.33074 0
M  V30 4117 H 397.132 4.48043 4.73393 0
M  V30 4118 N 400.565 -0.0233959 1.57583 0
M  V30 4119 C 401.814 -0.712133 1.8871 0
M  V30 4120 C 402.127 -1.76217 0.848944 0
M  V30 4121 O 403.333 -2.50389 1.04964 0
M  V30 4122 C 401.789 -1.3177 3.3491 0
M  V30 4123 C 401.397 -0.303715 4.46969 0
M  V30 4124 C 403.141 -1.98598 3.75179 0
M  V30 4125 C 401.048 -0.917945 5.84233 0
M  V30 4126 H 399.978 -0.269735 0.704101 0
M  V30 4127 H 402.629 0.0333114 1.8347 0
M  V30 4128 H 401.011 -2.11304 3.34913 0
M  V30 4129 H 402.185 0.465325 4.58445 0
M  V30 4130 H 400.5 0.2628 4.1557 0
M  V30 4131 H 403.097 -2.45416 4.75053 0
M  V30 4132 H 403.44 -2.80659 3.07468 0
M  V30 4133 H 403.973 -1.25831 3.77374 0
M  V30 4134 H 400.712 -0.136633 6.55358 0
M  V30 4135 H 400.232 -1.65669 5.76467 0
M  V30 4136 H 401.911 -1.4236 6.31144 0
M  V30 4137 N 402.043 -1.548 -0.295768 0
M  V30 4138 C 403.459 -1.4613 -0.641722 0
M  V30 4139 C 403.659 -0.656771 -1.90496 0
M  V30 4140 O 402.715 -0.166547 -2.5195 0
M  V30 4141 C 404.028 -2.90141 -0.789852 0
M  V30 4142 C 405.576 -3.00216 -0.885396 0
M  V30 4143 C 406.051 -4.45434 -1.06548 0
M  V30 4144 N 407.542 -4.49166 -1.13156 0
M  V30 4145 C 408.277 -5.58717 -1.28929 0
M  V30 4146 N 407.773 -6.78182 -1.41567 0
M  V30 4147 N 409.566 -5.46415 -1.31859 0
M  V30 4148 H 401.717 -2.05574 0.534147 0
M  V30 4149 H 403.98 -0.931259 0.177372 0
M  V30 4150 H 403.686 -3.51635 0.0675598 0
M  V30 4151 H 403.56 -3.37859 -1.67724 0
M  V30 4152 H 405.947 -2.38833 -1.73329 0
M  V30 4153 H 406.028 -2.55787 0.0261185 0
M  V30 4154 H 405.672 -5.07413 -0.222335 0
M  V30 4155 H 405.602 -4.87499 -1.9913 0
M  V30 4156 H 408.093 -3.631 -1.04721 0
M  V30 4157 H 408.406 -7.57428 -1.53372 0
M  V30 4158 H 406.751 -6.81037 -1.38613 0
M  V30 4159 H 409.942 -4.5203 -1.21601 0
M  V30 4160 H 410.115 -6.31841 -1.43808 0
M  V30 4161 N 403.521 0.559213 -1.47345 0
M  V30 4162 C 404.746 1.34676 -1.57725 0
M  V30 4163 C 405.171 1.86723 -0.227164 0
M  V30 4164 O 404.529 1.6286 0.796642 0
M  V30 4165 C 404.577 2.49399 -2.60447 0
M  V30 4166 O 403.681 3.51567 -2.15578 0
M  V30 4167 H 403.022 0.400115 -0.52991 0
M  V30 4168 H 405.552 0.676009 -1.93109 0
M  V30 4169 H 405.562 2.95996 -2.80803 0
M  V30 4170 H 404.237 2.10873 -3.58477 0
M  V30 4171 H 402.814 3.11289 -2.05313 0
M  V30 4172 N 404.999 1.35443 0.805782 0
M  V30 4173 C 406.227 1.31878 1.59423 0
M  V30 4174 C 406.642 -0.103562 1.88516 0
M  V30 4175 O 405.999 -1.05575 1.48863 0
M  V30 4176 C 406.05 2.12426 2.92502 0
M  V30 4177 O 405.771 3.49115 2.6467 0
M  V30 4178 C 407.272 2.16455 3.86862 0
M  V30 4179 H 404.492 0.453002 0.495005 0
M  V30 4180 H 407.036 1.78309 1.00131 0
M  V30 4181 H 405.191 1.69593 3.48306 0
M  V30 4182 H 405.605 3.90957 3.49647 0
M  V30 4183 H 407.079 2.77204 4.77349 0
M  V30 4184 H 407.556 1.16352 4.23508 0
M  V30 4185 H 408.162 2.59453 3.36993 0
M  V30 4186 N 406.477 -1.02803 1.19454 0
M  V30 4187 C 407.723 -1.76478 0.999171 0
M  V30 4188 C 408.056 -1.88456 -0.468828 0
M  V30 4189 O 407.331 -1.40198 -1.34814 0
M  V30 4190 C 407.614 -3.19044 1.66981 0
M  V30 4191 C 407.467 -3.14932 3.21151 0
M  V30 4192 C 408.786 -4.17456 1.39349 0
M  V30 4193 H 405.905 -0.640614 0.364393 0
M  V30 4194 H 408.547 -1.20005 1.47305 0
M  V30 4195 H 406.697 -3.67263 1.2669 0
M  V30 4196 H 408.369 -2.74605 3.70661 0
M  V30 4197 H 406.612 -2.52625 3.52652 0
M  V30 4198 H 407.283 -4.1566 3.63223 0
M  V30 4199 H 409.759 -3.77842 1.74283 0
M  V30 4200 H 408.635 -5.154 1.88823 0
M  V30 4201 H 408.896 -4.40949 0.318813 0
M  V30 4202 N 407.956 -0.998596 -1.21925 0
M  V30 4203 C 409.233 -0.593401 -1.86382 0
M  V30 4204 C 409.613 0.92916 -1.89552 0
M  V30 4205 O 408.961 1.81347 -1.39017 0
M  V30 4206 C 409.171 -1.22039 -3.26967 0
M  V30 4207 C 410.519 -1.32449 -4.03413 0
M  V30 4208 O 411.543 -1.17522 -3.36254 0
M  V30 4209 O 410.402 -1.56395 -5.23644 0
M  V30 4210 H 407.496 -0.202385 -0.801854 0
M  V30 4211 H 410.042 -1.09484 -1.29659 0
M  V30 4212 H 408.814 -2.26158 -3.19325 0
M  V30 4213 H 408.437 -0.704906 -3.91301 0
M  V30 4214 N 409.434 1.37368 -0.772513 0
M  V30 4215 C 410.68 2.00423 -0.3467 0
M  V30 4216 C 411.035 1.60224 1.06518 0
M  V30 4217 O 410.328 0.838712 1.72268 0
M  V30 4218 C 410.522 3.54817 -0.428876 0
M  V30 4219 C 410.351 4.10011 -1.84719 0
M  V30 4220 C 409.121 4.40927 -2.46803 0
M  V30 4221 C 411.319 4.30955 -2.80681 0
M  V30 4222 N 409.301 4.8184 -3.80399 0
M  V30 4223 C 410.672 4.74486 -3.99078 0
M  V30 4224 C 412.727 4.1309 -2.77958 0
M  V30 4225 C 411.43 5.02023 -5.15136 0
M  V30 4226 C 413.456 4.41764 -3.9319 0
M  V30 4227 C 412.818 4.85535 -5.10328 0
M  V30 4228 H 408.917 0.762413 -0.173927 0
M  V30 4229 H 411.501 1.66666 -1.00651 0
M  V30 4230 H 409.672 3.87881 0.200757 0
M  V30 4231 H 411.404 4.04696 0.0190668 0
M  V30 4232 H 408.159 4.30033 -1.98415 0
M  V30 4233 H 408.583 5.06604 -4.49089 0
M  V30 4234 H 413.225 3.7842 -1.88568 0
M  V30 4235 H 410.943 5.35582 -6.05126 0
M  V30 4236 H 414.529 4.29528 -3.92425 0
M  V30 4237 H 413.409 5.07296 -5.98013 0
M  V30 4238 N 410.912 0.523116 1.48665 0
M  V30 4239 C 412.137 -0.0117284 2.07397 0
M  V30 4240 C 412.562 -1.28031 1.37803 0
M  V30 4241 O 411.92 -1.75836 0.441762 0
M  V30 4242 C 411.968 -0.225786 3.59892 0
M  V30 4243 O 411.072 -1.29592 3.91509 0
M  V30 4244 H 410.413 0.0360673 0.66302 0
M  V30 4245 H 412.943 0.729066 1.9117 0
M  V30 4246 H 412.953 -0.450552 4.05505 0
M  V30 4247 H 411.628 0.700944 4.09951 0
M  V30 4248 H 410.205 -1.05436 3.57684 0
M  V30 4249 N 412.39 -1.55475 0.257931 0
M  V30 4250 C 413.3 -2.2549 -0.647425 0
M  V30 4251 C 414.316 -1.2748 -1.18427 0
M  V30 4252 O 415.492 -1.6038 -1.2182 0
M  V30 4253 C 412.557 -2.94916 -1.82278 0
M  V30 4254 C 411.618 -4.08363 -1.32432 0
M  V30 4255 C 410.851 -4.74469 -2.44366 0
M  V30 4256 O 411.074 -4.39701 -3.63344 0
M  V30 4257 O 410.008 -5.62763 -2.13497 0
M  V30 4258 H 413.834 -3.03593 -0.0807707 0
M  V30 4259 H 411.419 -1.49377 0.0259962 0
M  V30 4260 H 413.301 -3.38606 -2.50846 0
M  V30 4261 H 411.976 -2.19744 -2.37685 0
M  V30 4262 H 410.883 -3.69166 -0.605605 0
M  V30 4263 H 412.216 -4.85385 -0.816211 0
M  V30 4264 N 413.868 0.0150385 -1.57593 0
M  V30 4265 C 415.093 0.718067 -1.94573 0
M  V30 4266 C 415.518 1.6734 -0.859005 0
M  V30 4267 O 414.876 1.80362 0.184147 0
M  V30 4268 C 414.924 1.43918 -3.30636 0
M  V30 4269 O 414.028 2.55299 -3.23876 0
M  V30 4270 H 413.369 0.192125 -0.635597 0
M  V30 4271 H 415.899 -0.0336708 -2.04572 0
M  V30 4272 H 415.909 1.80598 -3.65853 0
M  V30 4273 H 414.584 0.738619 -4.09289 0
M  V30 4274 H 413.161 2.21058 -3.00312 0
M  V30 4275 N 415.346 1.54954 0.287554 0
M  V30 4276 C 416.309 1.86076 1.33823 0
M  V30 4277 C 417.309 0.734414 1.43049 0
M  V30 4278 O 418.499 1.00266 1.42452 0
M  V30 4279 C 415.631 2.05305 2.72144 0
M  V30 4280 H 416.824 2.79984 1.07465 0
M  V30 4281 H 414.377 1.47223 0.524902 0
M  V30 4282 H 415.112 1.1373 3.03704 0
M  V30 4283 H 414.897 2.873 2.66836 0
M  V30 4284 H 416.387 2.30706 3.48087 0
M  V30 4285 N 416.824 -0.551391 1.4764 0
M  V30 4286 C 418.052 -1.33357 1.58189 0
M  V30 4287 C 418.467 -1.87342 0.234199 0
M  V30 4288 O 417.824 -1.65301 -0.77343 0
M  V30 4289 C 417.875 -2.49942 2.61173 0
M  V30 4290 O 417.596 -1.98187 3.90709 0
M  V30 4291 C 419.097 -3.42072 2.8196 0
M  V30 4292 H 416.317 -0.40631 0.533998 0
M  V30 4293 H 418.861 -0.667367 1.93304 0
M  V30 4294 H 417.016 -3.12489 2.28975 0
M  V30 4295 H 417.43 -2.74342 4.47031 0
M  V30 4296 H 418.904 -4.20278 3.57869 0
M  V30 4297 H 419.381 -3.95978 1.89995 0
M  V30 4298 H 419.987 -2.85336 3.15378 0
M  V30 4299 N 418.302 -1.35869 -0.798587 0
M  V30 4300 C 419.532 -1.32529 -1.58491 0
M  V30 4301 C 419.94 0.0975405 -1.88948 0
M  V30 4302 O 419.283 1.06224 -1.49874 0
M  V30 4303 C 419.345 -2.07247 -2.9375 0
M  V30 4304 C 419.009 -3.56391 -2.86068 0
M  V30 4305 C 420.006 -4.50824 -2.58947 0
M  V30 4306 C 417.691 -3.9915 -3.04933 0
M  V30 4307 C 419.685 -5.85993 -2.5078 0
M  V30 4308 C 417.372 -5.34413 -2.96389 0
M  V30 4309 C 418.37 -6.27646 -2.69349 0
M  V30 4310 O 418.058 -7.60426 -2.60782 0
M  V30 4311 H 417.79 -0.456529 -0.498556 0
M  V30 4312 H 420.344 -1.79425 -0.999799 0
M  V30 4313 H 418.574 -1.55001 -3.54276 0
M  V30 4314 H 420.263 -1.96883 -3.54954 0
M  V30 4315 H 421.029 -4.19104 -2.44084 0
M  V30 4316 H 416.908 -3.26961 -3.24989 0
M  V30 4317 H 420.452 -6.58735 -2.29595 0
M  V30 4318 H 416.349 -5.65743 -3.10813 0
M  V30 4319 H 417.117 -7.70444 -2.76331 0
M  V30 4320 N 419.78 1.02168 -1.19998 0
M  V30 4321 C 421.028 1.75338 -1.00504 0
M  V30 4322 C 421.349 1.89387 0.464506 0
M  V30 4323 O 420.619 1.43268 1.33608 0
M  V30 4324 H 419.199 0.649564 -0.368885 0
M  V30 4325 H 421.861 1.23205 -1.51018 0
M  V30 4326 H 420.957 2.75892 -1.45912 0
M  V30 4327 N 421.258 1.00505 1.21394 0
M  V30 4328 C 422.168 0.574806 2.27449 0
M  V30 4329 C 423.184 -0.382206 1.6975 0
M  V30 4330 O 424.36 -0.246027 1.99892 0
M  V30 4331 C 421.425 -0.0917414 3.46579 0
M  V30 4332 C 420.486 0.909758 4.1955 0
M  V30 4333 C 419.719 0.274924 5.32991 0
M  V30 4334 O 419.942 -0.928254 5.62796 0
M  V30 4335 O 418.876 0.985877 5.93771 0
M  V30 4336 H 422.702 1.45744 2.66444 0
M  V30 4337 H 420.287 0.773923 1.27792 0
M  V30 4338 H 422.169 -0.464551 4.18832 0
M  V30 4339 H 420.844 -0.948755 3.09484 0
M  V30 4340 H 419.751 1.33372 3.49518 0
M  V30 4341 H 421.084 1.73636 4.60555 0
M  V30 4342 N 422.737 -1.36956 0.779787 0
M  V30 4343 C 423.687 -2.27539 0.144892 0
M  V30 4344 C 424.671 -1.46493 -0.665488 0
M  V30 4345 O 425.863 -1.68968 -0.527141 0
M  V30 4346 C 422.992 -3.35512 -0.727082 0
M  V30 4347 C 422.078 -4.24001 0.0915642 0
M  V30 4348 N 422.469 -4.92757 1.14125 0
M  V30 4349 C 420.767 -4.45807 -0.131141 0
M  V30 4350 C 421.468 -5.58138 1.6388 0
M  V30 4351 N 420.444 -5.35241 0.94962 0
M  V30 4352 H 424.246 -2.78176 0.948446 0
M  V30 4353 H 421.76 -1.50169 0.618315 0
M  V30 4354 H 423.757 -3.99324 -1.19776 0
M  V30 4355 H 422.417 -2.86431 -1.52929 0
M  V30 4356 H 423.428 -4.94984 1.52353 0
M  V30 4357 H 420.105 -4.07582 -0.904621 0
M  V30 4358 H 421.495 -6.23071 2.51461 0
M  V30 4359 N 424.215 -0.530993 -1.48385 0
M  V30 4360 C 425.464 0.00474348 -2.01699 0
M  V30 4361 C 425.777 1.35227 -1.41325 0
M  V30 4362 O 426.983 1.97643 -1.86144 0
M  V30 4363 C 425.439 0.0588473 -3.59852 0
M  V30 4364 C 425.047 -1.28385 -4.2921 0
M  V30 4365 C 426.791 0.543358 -4.21008 0
M  V30 4366 C 424.698 -1.19028 -5.79298 0
M  V30 4367 H 423.628 0.00554317 -0.75398 0
M  V30 4368 H 426.279 -0.674924 -1.70637 0
M  V30 4369 H 424.661 0.803612 -3.8776 0
M  V30 4370 H 425.835 -2.04426 -4.12973 0
M  V30 4371 H 424.15 -1.70418 -3.7993 0
M  V30 4372 H 426.747 0.631351 -5.3096 0
M  V30 4373 H 427.09 1.54937 -3.86394 0
M  V30 4374 H 427.623 -0.145754 -3.97533 0
M  V30 4375 H 424.362 -2.17147 -6.18488 0
M  V30 4376 H 423.882 -0.471246 -5.97946 0
M  V30 4377 H 425.561 -0.881365 -6.40969 0
M  V30 4378 N 425.693 1.55336 -0.266172 0
M  V30 4379 C 426.939 2.00423 0.346714 0
M  V30 4380 C 427.294 1.15132 1.54151 0
M  V30 4381 O 426.587 0.211289 1.90431 0
M  V30 4382 C 426.781 3.48606 0.787957 0
M  V30 4383 C 426.61 4.48236 -0.362535 0
M  V30 4384 C 425.38 4.98211 -0.843445 0
M  V30 4385 C 427.578 5.00199 -1.19603 0
M  V30 4386 N 425.56 5.81625 -1.96434 0
M  V30 4387 C 426.931 5.80973 -2.16497 0
M  V30 4388 C 428.986 4.82458 -1.2304 0
M  V30 4389 C 427.689 6.45896 -3.1656 0
M  V30 4390 C 429.715 5.48174 -2.21944 0
M  V30 4391 C 429.077 6.28751 -3.17571 0
M  V30 4392 H 425.176 0.776535 0.0922914 0
M  V30 4393 H 427.76 1.90792 -0.388154 0
M  V30 4394 H 425.931 3.58597 1.49207 0
M  V30 4395 H 427.663 3.80538 1.37742 0
M  V30 4396 H 424.418 4.71696 -0.424271 0
M  V30 4397 H 424.842 6.28025 -2.52813 0
M  V30 4398 H 429.484 4.19774 -0.504903 0
M  V30 4399 H 427.202 7.07734 -3.90048 0
M  V30 4400 H 430.788 5.36392 -2.25333 0
M  V30 4401 H 429.668 6.78703 -3.92851 0
M  V30 4402 N 427.171 -0.0066808 1.57599 0
M  V30 4403 C 428.418 -0.69292 1.90276 0
M  V30 4404 C 428.746 -1.74148 0.866192 0
M  V30 4405 O 428.001 -1.95268 -0.129933 0
M  V30 4406 C 428.3 -1.37939 3.29708 0
M  V30 4407 C 427.966 -0.464679 4.48499 0
M  V30 4408 C 426.628 -0.212809 4.80729 0
M  V30 4409 C 428.98 0.16551 5.20937 0
M  V30 4410 C 426.308 0.677653 5.82773 0
M  V30 4411 C 428.66 1.04381 6.23929 0
M  V30 4412 C 427.324 1.30492 6.54621 0
M  V30 4413 H 426.594 -0.253558 0.696268 0
M  V30 4414 H 429.241 0.0474123 1.91441 0
M  V30 4415 H 427.546 -2.1936 3.24636 0
M  V30 4416 H 429.243 -1.9163 3.52249 0
M  V30 4417 H 425.833 -0.671153 4.23313 0
M  V30 4418 H 430.017 -0.0160756 4.96297 0
M  V30 4419 H 425.273 0.88803 6.04917 0
M  V30 4420 H 429.447 1.53851 6.79193 0
M  V30 4421 H 427.074 1.99662 7.33512 0
M  V30 4422 N 428.649 -1.55105 -0.279332 0
M  V30 4423 C 429.559 -1.90638 -1.36727 0
M  V30 4424 C 430.575 -0.802899 -1.54368 0
M  V30 4425 O 431.751 -1.10138 -1.68616 0
M  V30 4426 C 428.816 -2.16547 -2.70755 0
M  V30 4427 C 427.877 -3.40146 -2.61915 0
M  V30 4428 C 427.11 -3.6481 -3.8955 0
M  V30 4429 O 427.333 -2.92095 -4.89935 0
M  V30 4430 O 426.267 -4.58343 -3.90135 0
M  V30 4431 H 430.093 -2.83237 -1.09591 0
M  V30 4432 H 427.678 -1.4157 -0.477306 0
M  V30 4433 H 429.56 -2.34665 -3.50014 0
M  V30 4434 H 428.235 -1.27131 -2.9769 0
M  V30 4435 H 427.142 -3.2737 -1.81052 0
M  V30 4436 H 428.475 -4.29761 -2.3993 0
M  V30 4437 N 430.127 0.543554 -1.4793 0
M  V30 4438 C 431.355 1.32516 -1.58894 0
M  V30 4439 C 431.77 1.87215 -0.244131 0
M  V30 4440 O 431.127 1.65709 0.764652 0
M  V30 4441 C 431.178 2.48554 -2.62494 0
M  V30 4442 O 430.899 1.96112 -3.91755 0
M  V30 4443 C 432.4 3.40572 -2.8377 0
M  V30 4444 H 429.62 0.403472 -0.536145 0
M  V30 4445 H 432.164 0.657106 -1.93655 0
M  V30 4446 H 430.319 3.1127 -2.30629 0
M  V30 4447 H 430.733 2.71967 -4.4848 0
M  V30 4448 H 432.207 4.18375 -3.60093 0
M  V30 4449 H 432.684 3.94965 -1.92092 0
M  V30 4450 H 433.29 2.8366 -3.16887 0
M  V30 4451 N 431.605 1.3629 0.791371 0
M  V30 4452 C 432.553 1.30514 1.92533 0
M  V30 4453 C 433.547 0.197285 1.68247 0
M  V30 4454 O 434.753 0.364176 1.76278 0
M  V30 4455 H 431.128 0.406263 0.632815 0
M  V30 4456 H 433.099 2.26282 1.94523 0
M  V30 4457 C 431.848 1.10933 3.29529 0
M  V30 4458 H 431.171 1.95427 3.48781 0
M  V30 4459 H 432.611 1.10937 4.0923 0
M  V30 4460 C 431.07 -0.186123 3.36385 0
M  V30 4461 O 431.6 -1.17664 3.84081 0
M  V30 4462 N 429.806 -0.230128 2.89687 0
M  V30 4463 H 429.353 0.576545 2.51065 0
M  V30 4464 H 429.311 -1.09658 2.94657 0
M  V30 4465 N 433.083 -1.0153 1.20538 0
M  V30 4466 C 434.329 -1.75408 1.01783 0
M  V30 4467 C 434.662 -1.88943 -0.448814 0
M  V30 4468 O 433.937 -1.4162 -1.33319 0
M  V30 4469 C 434.22 -3.17255 1.70356 0
M  V30 4470 C 434.073 -3.11508 3.24473 0
M  V30 4471 C 435.392 -4.15955 1.43769 0
M  V30 4472 H 432.511 -0.636713 0.371167 0
M  V30 4473 H 435.153 -1.18436 1.4857 0
M  V30 4474 H 433.303 -3.65898 1.30578 0
M  V30 4475 H 434.975 -2.70658 3.73553 0
M  V30 4476 H 433.218 -2.4887 3.55311 0
M  V30 4477 H 433.889 -4.11784 3.67611 0
M  V30 4478 H 436.365 -3.75973 1.7828 0
M  V30 4479 H 435.241 -5.13368 1.94279 0
M  V30 4480 H 435.502 -4.40586 0.365564 0
M  V30 4481 N 434.561 -1.01147 -1.20859 0
M  V30 4482 C 435.786 -0.716698 -1.94623 0
M  V30 4483 C 436.211 0.715415 -1.73964 0
M  V30 4484 O 435.569 1.49157 -1.03062 0
M  V30 4485 C 435.617 -1.0513 -3.44935 0
M  V30 4486 O 434.721 -0.160131 -4.12089 0
M  V30 4487 H 434.062 -0.266404 -0.608214 0
M  V30 4488 H 436.592 -1.35346 -1.53436 0
M  V30 4489 H 436.602 -1.00086 -3.95533 0
M  V30 4490 H 435.277 -2.09475 -3.59295 0
M  V30 4491 H 433.854 -0.267657 -3.71938 0
M  V30 4492 N 436.039 1.36541 -0.78704 0
M  V30 4493 C 437.287 1.98911 -0.357633 0
M  V30 4494 C 437.608 1.62778 1.07371 0
M  V30 4495 O 436.878 0.900612 1.73971 0
M  V30 4496 H 435.458 0.735734 -0.129246 0
M  V30 4497 H 438.12 1.66776 -1.00855 0
M  V30 4498 H 437.216 3.08874 -0.447549 0
M  V30 4499 N 437.518 0.538854 1.48102 0
M  V30 4500 C 438.795 -0.0568108 1.95517 0
M  V30 4501 C 439.175 -1.50408 1.48124 0
M  V30 4502 O 438.523 -2.17133 0.711727 0
M  V30 4503 C 438.733 0.0696262 3.48931 0
M  V30 4504 C 440.081 -0.0851202 4.24515 0
M  V30 4505 O 441.105 -0.0037347 3.562 0
M  V30 4506 O 439.964 -0.257025 5.45895 0
M  V30 4507 H 437.058 -0.0743695 0.823649 0
M  V30 4508 H 439.604 0.604081 1.58584 0
M  V30 4509 H 438.376 1.07744 3.76174 0
M  V30 4510 H 437.999 -0.629714 3.92582 0
M  V30 4511 N 438.996 -1.55193 0.274407 0
M  V30 4512 C 440.243 -1.99581 -0.342579 0
M  V30 4513 C 440.571 -1.1628 -1.55914 0
M  V30 4514 O 439.826 -0.22029 -1.94456 0
M  V30 4515 C 440.125 -3.49019 -0.769458 0
M  V30 4516 C 439.791 -4.49598 0.342389 0
M  V30 4517 C 438.453 -4.76821 0.647686 0
M  V30 4518 C 440.805 -5.0964 1.09163 0
M  V30 4519 C 438.133 -5.61354 1.70581 0
M  V30 4520 C 440.485 -5.95323 2.13948 0
M  V30 4521 C 439.149 -6.20867 2.45113 0
M  V30 4522 H 438.419 -0.730319 -0.125358 0
M  V30 4523 H 441.066 -1.87529 0.387971 0
M  V30 4524 H 439.371 -3.58544 -1.57967 0
M  V30 4525 H 441.068 -3.8077 -1.25757 0
M  V30 4526 H 437.658 -4.28496 0.094318 0
M  V30 4527 H 441.842 -4.88632 0.869024 0
M  V30 4528 H 437.098 -5.79392 1.9523 0
M  V30 4529 H 441.272 -6.40881 2.72478 0
M  V30 4530 H 438.899 -6.86162 3.27239 0
M  V30 4531 N 440.474 -0.00167713 -1.576 0
M  V30 4532 C 441.714 0.687302 -1.92498 0
M  V30 4533 C 442.078 1.70844 -0.876144 0
M  V30 4534 O 443.279 2.44792 -1.11043 0
M  V30 4535 C 441.55 1.31217 -3.32441 0
M  V30 4536 S 443.109 2.02604 -3.89226 0
M  V30 4537 H 439.927 0.226985 -0.673794 0
M  V30 4538 H 442.529 -0.0587666 -1.95412 0
M  V30 4539 H 441.233 0.556164 -4.06614 0
M  V30 4540 H 440.764 2.09613 -3.32905 0
M  V30 4541 H 442.779 3.30137 -3.70438 0
M  V30 4542 N 441.952 1.55251 0.271103 0
M  V30 4543 C 443.182 1.79713 1.01916 0
M  V30 4544 C 443.59 0.571613 1.80359 0
M  V30 4545 O 442.933 -0.468853 1.77616 0
M  V30 4546 C 442.995 2.97138 2.02359 0
M  V30 4547 C 442.659 4.34104 1.42837 0
M  V30 4548 C 443.656 5.13019 0.843071 0
M  V30 4549 C 441.341 4.80765 1.455 0
M  V30 4550 C 443.335 6.36729 0.292333 0
M  V30 4551 C 441.022 6.0443 0.900402 0
M  V30 4552 C 442.02 6.8225 0.32007 0
M  V30 4553 O 441.708 8.03582 -0.226031 0
M  V30 4554 H 441.44 0.602431 0.306681 0
M  V30 4555 H 443.994 2.03097 0.306701 0
M  V30 4556 H 442.224 2.6945 2.77369 0
M  V30 4557 H 443.913 3.08907 2.63309 0
M  V30 4558 H 444.679 4.781 0.815178 0
M  V30 4559 H 440.558 4.20202 1.89609 0
M  V30 4560 H 444.102 6.97414 -0.161274 0
M  V30 4561 H 439.999 6.3883 0.925541 0
M  V30 4562 H 440.767 8.18418 -0.115572 0
M  V30 4563 N 443.43 -0.535701 1.48216 0
M  V30 4564 C 444.676 -1.29375 1.56173 0
M  V30 4565 C 445.009 -1.92804 0.232429 0
M  V30 4566 O 444.284 -1.78992 -0.761048 0
M  V30 4567 C 444.567 -2.38747 2.69577 0
M  V30 4568 C 444.42 -1.80046 4.12193 0
M  V30 4569 C 445.739 -3.40551 2.78771 0
M  V30 4570 H 442.858 -0.469027 0.568491 0
M  V30 4571 H 445.5 -0.597358 1.80365 0
M  V30 4572 H 443.65 -2.98147 2.4908 0
M  V30 4573 H 445.322 -1.24742 4.44114 0
M  V30 4574 H 443.565 -1.10609 4.19462 0
M  V30 4575 H 444.236 -2.59212 4.87353 0
M  V30 4576 H 446.712 -2.91099 2.97322 0
M  V30 4577 H 445.588 -4.1448 3.59857 0
M  V30 4578 H 445.849 -4.00746 1.86696 0
M  V30 4579 N 444.908 -1.36708 -0.784132 0
M  V30 4580 C 446.156 -1.30972 -1.53918 0
M  V30 4581 C 446.477 0.109086 -1.94695 0
M  V30 4582 O 445.747 1.05048 -1.65353 0
M  V30 4583 H 444.327 -0.481819 -0.570841 0
M  V30 4584 H 446.989 -1.71063 -0.934002 0
M  V30 4585 H 446.085 -1.94061 -2.44431 0
M  V30 4586 N 446.386 1.0089 -1.21074 0
M  V30 4587 C 447.296 2.13039 -0.982425 0
M  V30 4588 C 448.312 1.73881 0.0642161 0
M  V30 4589 O 449.488 2.01012 -0.12496 0
M  V30 4590 C 446.553 3.42377 -0.545803 0
M  V30 4591 C 445.614 3.95731 -1.6642 0
M  V30 4592 C 444.847 5.18896 -1.24832 0
M  V30 4593 O 445.07 5.70273 -0.120265 0
M  V30 4594 O 444.004 5.65597 -2.05873 0
M  V30 4595 H 447.83 2.35175 -1.92163 0
M  V30 4596 H 445.415 1.1142 -0.995285 0
M  V30 4597 H 447.297 4.20244 -0.311912 0
M  V30 4598 H 445.972 3.21639 0.364727 0
M  V30 4599 H 444.879 3.19108 -1.95246 0
M  V30 4600 H 446.212 4.20872 -2.55201 0
M  V30 4601 N 447.864 1.01787 1.20321 0
M  V30 4602 C 448.796 0.547357 2.22568 0
M  V30 4603 C 449.809 -0.370922 1.58518 0
M  V30 4604 O 450.998 -0.169067 1.77698 0
M  V30 4605 C 448.098 -0.223031 3.38165 0
M  V30 4606 C 447.271 0.697472 4.31803 0
M  V30 4607 C 446.33 -0.025562 5.26194 0
M  V30 4608 O 445.356 0.597367 5.66057 0
M  V30 4609 N 446.558 -1.29999 5.65757 0
M  V30 4610 H 449.323 1.42668 2.63564 0
M  V30 4611 H 446.884 0.895552 1.34876 0
M  V30 4612 H 448.876 -0.716002 3.98316 0
M  V30 4613 H 447.446 -1.00366 2.9605 0
M  V30 4614 H 446.666 1.37073 3.69601 0
M  V30 4615 H 447.954 1.32347 4.91286 0
M  V30 4616 H 447.352 -1.827 5.35385 0
M  V30 4617 H 445.909 -1.73766 6.28211 0
M  V30 4618 N 449.342 -1.36122 0.79427 0
M  V30 4619 C 450.572 -2.03067 0.380437 0
M  V30 4620 C 450.98 -1.60018 -1.00949 0
M  V30 4621 O 450.323 -0.787425 -1.65968 0
M  V30 4622 C 450.385 -3.57587 0.37034 0
M  V30 4623 C 450.049 -4.23855 1.70867 0
M  V30 4624 C 451.046 -4.46404 2.66496 0
M  V30 4625 C 448.731 -4.61229 1.9893 0
M  V30 4626 C 450.725 -5.05412 3.88378 0
M  V30 4627 C 448.412 -5.19953 3.21079 0
M  V30 4628 C 449.41 -5.41985 4.15621 0
M  V30 4629 O 449.098 -5.99475 5.35616 0
M  V30 4630 H 448.83 -0.658168 0.154243 0
M  V30 4631 H 451.384 -1.7498 1.0757 0
M  V30 4632 H 449.614 -3.84814 -0.381444 0
M  V30 4633 H 451.303 -4.05895 -0.0194894 0
M  V30 4634 H 452.069 -4.17921 2.46103 0
M  V30 4635 H 447.948 -4.43402 1.26158 0
M  V30 4636 H 451.492 -5.22524 4.62185 0
M  V30 4637 H 447.389 -5.47862 3.41347 0
M  V30 4638 H 448.157 -6.17937 5.36745 0
M  V30 4639 N 450.82 -0.546701 -1.47814 0
M  V30 4640 C 452.06 -0.0209604 -2.04389 0
M  V30 4641 C 452.424 1.29993 -1.413 0
M  V30 4642 O 453.625 1.91273 -1.8886 0
M  V30 4643 C 451.896 0.0812844 -3.57308 0
M  V30 4644 S 453.455 0.55467 -4.3528 0
M  V30 4645 H 450.273 -0.0200865 -0.710716 0
M  V30 4646 H 452.875 -0.731055 -1.81317 0
M  V30 4647 H 451.579 -0.884616 -4.00753 0
M  V30 4648 H 451.11 0.815253 -3.8486 0
M  V30 4649 H 453.125 1.81627 -4.61764 0
M  V30 4650 N 452.299 1.55045 -0.282633 0
M  V30 4651 C 453.545 2.00056 0.332481 0
M  V30 4652 C 453.878 1.1708 1.54939 0
M  V30 4653 O 453.153 0.2427 1.9298 0
M  V30 4654 C 453.436 3.53086 0.70725 0
M  V30 4655 C 453.289 4.46813 -0.517521 0
M  V30 4656 C 454.608 4.12245 1.54084 0
M  V30 4657 H 451.727 0.727268 0.119373 0
M  V30 4658 H 454.369 1.85932 -0.391076 0
M  V30 4659 H 452.519 3.65253 1.32372 0
M  V30 4660 H 454.191 4.46579 -1.15607 0
M  V30 4661 H 452.434 4.18163 -1.1542 0
M  V30 4662 H 453.105 5.51595 -0.211426 0
M  V30 4663 H 455.581 4.03401 1.02013 0
M  V30 4664 H 454.457 5.19515 1.77186 0
M  V30 4665 H 454.718 3.62951 2.52427 0
M  V30 4666 N 453.777 0.010035 1.57597 0
M  V30 4667 C 454.74 -0.963029 2.07986 0
M  V30 4668 C 455.74 -1.26619 0.991173 0
M  V30 4669 O 456.93 -1.2097 1.25347 0
M  V30 4670 C 454.062 -2.2851 2.52974 0
M  V30 4671 H 455.255 -0.526971 2.95234 0
M  V30 4672 H 452.808 -0.237639 1.54483 0
M  V30 4673 H 453.543 -2.76784 1.69 0
M  V30 4674 H 453.328 -2.07824 3.32493 0
M  V30 4675 H 454.818 -2.98294 2.9225 0
M  V30 4676 N 455.255 -1.55392 -0.262866 0
M  V30 4677 C 456.671 -1.47459 -0.610582 0
M  V30 4678 C 456.871 -0.697031 -1.8906 0
M  V30 4679 O 455.927 -0.219952 -2.5154 0
M  V30 4680 C 457.24 -2.91751 -0.728131 0
M  V30 4681 C 458.788 -3.02027 -0.821517 0
M  V30 4682 C 459.263 -4.47594 -0.97076 0
M  V30 4683 N 460.754 -4.51465 -1.03603 0
M  V30 4684 C 461.489 -5.61326 -1.17049 0
M  V30 4685 N 460.985 -6.81032 -1.2715 0
M  V30 4686 N 462.778 -5.49089 -1.20239 0
M  V30 4687 H 454.929 -2.04395 0.577632 0
M  V30 4688 H 457.192 -0.927287 0.197086 0
M  V30 4689 H 456.898 -3.51413 0.142132 0
M  V30 4690 H 456.772 -3.4134 -1.6052 0
M  V30 4691 H 459.159 -2.42456 -1.68224 0
M  V30 4692 H 459.24 -2.55674 0.0803688 0
M  V30 4693 H 458.884 -5.07771 -0.114655 0
M  V30 4694 H 458.814 -4.91613 -1.88745 0
M  V30 4695 H 461.305 -3.6524 -0.96996 0
M  V30 4696 H 461.618 -7.60511 -1.37271 0
M  V30 4697 H 459.963 -6.83824 -1.24136 0
M  V30 4698 H 463.154 -4.54507 -1.11985 0
M  V30 4699 H 463.327 -6.34749 -1.30373 0
M  V30 4700 N 456.733 0.527833 -1.48498 0
M  V30 4701 C 457.666 1.64892 -1.57753 0
M  V30 4702 C 458.644 1.5687 -0.427867 0
M  V30 4703 O 459.828 1.77311 -0.639764 0
M  V30 4704 C 456.955 3.03301 -1.50752 0
M  V30 4705 C 456.001 3.29675 -2.70586 0
M  V30 4706 S 456.834 3.15712 -4.32535 0
M  V30 4707 C 457.99 4.56564 -4.28136 0
M  V30 4708 H 458.223 1.56792 -2.52594 0
M  V30 4709 H 455.756 0.710959 -1.37057 0
M  V30 4710 H 457.714 3.83123 -1.474 0
M  V30 4711 H 456.375 3.08839 -0.572454 0
M  V30 4712 H 455.568 4.3065 -2.61833 0
M  V30 4713 H 455.17 2.57526 -2.71212 0
M  V30 4714 H 457.462 5.48126 -3.98201 0
M  V30 4715 H 458.405 4.70371 -5.29298 0
M  V30 4716 H 458.813 4.35987 -3.58574 0
M  V30 4717 N 458.211 1.37122 0.776871 0
M  V30 4718 C 459.141 1.35164 1.90402 0
M  V30 4719 C 460.122 0.221069 1.68657 0
M  V30 4720 O 461.307 0.420642 1.8959 0
M  V30 4721 C 458.437 1.15274 3.27611 0
M  V30 4722 C 457.391 2.25289 3.63908 0
M  V30 4723 C 456.717 1.90527 4.99603 0
M  V30 4724 C 458.017 3.67446 3.71188 0
M  V30 4725 H 459.711 2.29482 1.92297 0
M  V30 4726 H 457.257 1.10465 0.923773 0
M  V30 4727 H 459.21 1.12536 4.06096 0
M  V30 4728 H 457.934 0.174102 3.26136 0
M  V30 4729 H 456.593 2.27174 2.87728 0
M  V30 4730 H 456.241 0.91206 4.94662 0
M  V30 4731 H 455.941 2.64193 5.24858 0
M  V30 4732 H 457.465 1.89367 5.80493 0
M  V30 4733 H 458.879 3.67719 4.39836 0
M  V30 4734 H 457.276 4.40123 4.07936 0
M  V30 4735 H 458.346 4.01443 2.71977 0
M  V30 4736 N 459.689 -1.00246 1.21608 0
M  V30 4737 C 460.636 -2.09073 0.977613 0
M  V30 4738 C 461.606 -1.65815 -0.097297 0
M  V30 4739 O 462.791 -1.90734 0.0503445 0
M  V30 4740 C 459.931 -3.40671 0.551133 0
M  V30 4741 C 459.044 -3.97326 1.69576 0
M  V30 4742 C 458.179 -5.17043 1.2182 0
M  V30 4743 C 457.218 -5.65813 2.335 0
M  V30 4744 N 456.355 -6.76778 1.86859 0
M  V30 4745 H 461.195 -2.28806 1.90924 0
M  V30 4746 H 458.732 -1.12186 0.951452 0
M  V30 4747 H 460.69 -4.16225 0.285097 0
M  V30 4748 H 459.32 -3.20967 -0.343489 0
M  V30 4749 H 458.372 -3.18734 2.07637 0
M  V30 4750 H 459.684 -4.29511 2.53617 0
M  V30 4751 H 458.838 -5.99852 0.908975 0
M  V30 4752 H 457.577 -4.86458 0.347869 0
M  V30 4753 H 456.582 -4.81599 2.65222 0
M  V30 4754 H 457.807 -5.98427 3.21033 0
M  V30 4755 H 455.753 -6.47994 1.02174 0
M  V30 4756 H 455.67 -7.08231 2.64471 0
M  V30 4757 H 456.938 -7.63116 1.58978 0
M  V30 4758 N 461.167 -1.02423 -1.1978 0
M  V30 4759 C 462.392 -0.7373 -1.93852 0
M  V30 4760 C 462.817 0.696923 -1.74713 0
M  V30 4761 O 462.175 1.48056 -1.04638 0
M  V30 4762 C 462.223 -1.08783 -3.438 0
M  V30 4763 O 461.327 -0.20383 -4.11896 0
M  V30 4764 H 460.668 -0.27284 -0.605355 0
M  V30 4765 H 463.198 -1.36966 -1.51992 0
M  V30 4766 H 463.208 -1.04276 -3.9445 0
M  V30 4767 H 461.883 -2.13274 -3.57053 0
M  V30 4768 H 460.46 -0.307091 -3.71633 0
M  V30 4769 N 462.645 1.35699 -0.801477 0
M  V30 4770 C 463.891 1.99208 -0.380022 0
M  V30 4771 C 464.224 1.63445 1.04878 0
M  V30 4772 O 463.499 0.895223 1.72673 0
M  V30 4773 C 463.782 3.55755 -0.557708 0
M  V30 4774 C 463.635 4.01332 -2.03107 0
M  V30 4775 C 464.954 4.40096 0.0197968 0
M  V30 4776 H 462.073 0.723667 -0.139552 0
M  V30 4777 H 464.715 1.60928 -1.01006 0
M  V30 4778 H 462.865 3.88494 -0.0213741 0
M  V30 4779 H 464.537 3.79026 -2.62939 0
M  V30 4780 H 462.78 3.52429 -2.52936 0
M  V30 4781 H 463.451 5.10234 -2.1063 0
M  V30 4782 H 465.927 4.13786 -0.438179 0
M  V30 4783 H 464.803 5.48735 -0.134477 0
M  V30 4784 H 465.064 4.2786 1.11303 0
M  V30 4785 N 464.123 0.554532 1.47522 0
M  V30 4786 C 465.348 0.0322661 2.07375 0
M  V30 4787 C 465.773 -1.25079 1.40488 0
M  V30 4788 O 465.131 -1.74859 0.47896 0
M  V30 4789 C 465.179 -0.149397 3.6029 0
M  V30 4790 O 464.283 -1.21259 3.9417 0
M  V30 4791 H 463.624 0.0501228 0.662106 0
M  V30 4792 H 466.154 0.769452 1.8958 0
M  V30 4793 H 466.164 -0.364437 4.06369 0
M  V30 4794 H 464.839 0.787743 4.08372 0
M  V30 4795 H 463.416 -0.97825 3.5984 0
M  V30 4796 N 465.601 -1.54893 0.290851 0
M  V30 4797 C 467.017 -1.59476 -0.0628432 0
M  V30 4798 C 467.217 -1.30795 -1.5328 0
M  V30 4799 O 466.273 -1.07644 -2.28406 0
M  V30 4800 C 467.586 -2.98928 0.325962 0
M  V30 4801 C 469.134 -3.11799 0.273882 0
M  V30 4802 C 469.609 -4.53544 0.637359 0
M  V30 4803 N 471.1 -4.59433 0.589507 0
M  V30 4804 C 471.835 -5.67164 0.84335 0
M  V30 4805 N 471.331 -6.82975 1.16263 0
M  V30 4806 N 473.124 -5.56786 0.771091 0
M  V30 4807 H 465.275 -1.71798 1.24896 0
M  V30 4808 H 467.538 -0.801879 0.505663 0
M  V30 4809 H 467.244 -3.24805 1.34887 0
M  V30 4810 H 467.118 -3.75793 -0.325441 0
M  V30 4811 H 469.505 -2.85677 -0.739765 0
M  V30 4812 H 469.586 -2.37112 0.959766 0
M  V30 4813 H 469.23 -4.80394 1.64877 0
M  V30 4814 H 469.16 -5.26553 -0.0704866 0
M  V30 4815 H 471.651 -3.76245 0.353252 0
M  V30 4816 H 471.964 -7.61048 1.34257 0
M  V30 4817 H 470.309 -6.84552 1.20057 0
M  V30 4818 H 473.5 -4.65187 0.521383 0
M  V30 4819 H 473.673 -6.40664 0.972295 0
M  V30 4820 N 467.08 -0.0183926 -1.57589 0
M  V30 4821 C 468.496 0.337897 -1.55982 0
M  V30 4822 C 468.696 1.73604 -1.02294 0
M  V30 4823 O 467.752 2.43589 -0.664895 0
M  V30 4824 C 469.065 0.196305 -3.00059 0
M  V30 4825 C 470.613 0.269875 -3.11834 0
M  V30 4826 C 471.088 0.157197 -4.5773 0
M  V30 4827 N 472.579 0.214521 -4.62703 0
M  V30 4828 C 473.314 0.150955 -5.73201 0
M  V30 4829 N 472.81 0.0369212 -6.9279 0
M  V30 4830 N 474.603 0.204162 -5.61729 0
M  V30 4831 H 466.754 -0.93279 -1.90821 0
M  V30 4832 H 469.017 -0.359253 -0.877292 0
M  V30 4833 H 468.723 -0.766383 -3.43248 0
M  V30 4834 H 468.597 0.970908 -3.6449 0
M  V30 4835 H 470.984 1.22302 -2.68563 0
M  V30 4836 H 471.065 -0.534918 -2.50144 0
M  V30 4837 H 470.709 -0.792479 -5.01679 0
M  V30 4838 H 470.639 0.980717 -5.17387 0
M  V30 4839 H 473.13 0.303238 -3.76681 0
M  V30 4840 H 473.443 -0.00518321 -7.728 0
M  V30 4841 H 471.788 0.0022886 -6.95 0
M  V30 4842 H 474.979 0.291575 -4.67191 0
M  V30 4843 H 475.152 0.15116 -6.47824 0
M  V30 4844 N 468.558 1.5553 0.254621 0
M  V30 4845 C 469.505 1.89666 1.31512 0
M  V30 4846 C 470.475 0.750057 1.482 0
M  V30 4847 O 471.66 1.00301 1.62309 0
M  V30 4848 C 468.8 2.19009 2.667 0
M  V30 4849 C 467.913 3.46435 2.58083 0
M  V30 4850 C 467.048 3.65386 3.85573 0
M  V30 4851 C 466.087 4.8644 3.71541 0
M  V30 4852 N 465.224 5.01952 4.90906 0
M  V30 4853 H 470.064 2.80109 1.017 0
M  V30 4854 H 467.601 1.38666 0.490938 0
M  V30 4855 H 469.559 2.34025 3.45381 0
M  V30 4856 H 468.189 1.31779 2.94676 0
M  V30 4857 H 467.241 3.39792 1.71013 0
M  V30 4858 H 468.553 4.35258 2.43622 0
M  V30 4859 H 467.707 3.80319 4.72697 0
M  V30 4860 H 466.446 2.74781 4.02922 0
M  V30 4861 H 465.451 4.71491 2.82801 0
M  V30 4862 H 466.676 5.78497 3.55694 0
M  V30 4863 H 464.622 4.14283 5.08631 0
M  V30 4864 H 464.539 5.84851 4.79046 0
M  V30 4865 H 465.807 5.21289 5.7955 0
M  V30 4866 N 470.036 -0.519951 1.48776 0
M  V30 4867 C 471.276 -1.2856 1.58908 0
M  V30 4868 C 471.64 -1.90212 0.261418 0
M  V30 4869 O 472.841 -2.67746 0.237791 0
M  V30 4870 C 471.112 -2.33836 2.70288 0
M  V30 4871 S 472.671 -3.19992 3.0025 0
M  V30 4872 H 469.489 -0.43717 0.560717 0
M  V30 4873 H 472.091 -0.591205 1.86346 0
M  V30 4874 H 470.795 -1.87041 3.653 0
M  V30 4875 H 470.326 -3.07969 2.44783 0
M  V30 4876 H 472.341 -4.34122 2.40317 0
M  V30 4877 N 471.514 -1.37532 -0.769588 0
M  V30 4878 C 472.477 -1.33292 -1.86456 0
M  V30 4879 C 473.477 -0.236537 -1.59051 0
M  V30 4880 O 474.667 -0.492511 -1.67093 0
M  V30 4881 C 471.799 -1.07118 -3.23633 0
M  V30 4882 H 472.992 -2.30692 -1.91628 0
M  V30 4883 H 470.545 -1.22593 -0.969572 0
M  V30 4884 H 471.28 -0.102578 -3.24138 0
M  V30 4885 H 471.065 -1.86479 -3.44917 0
M  V30 4886 H 472.555 -1.06806 -4.03711 0
M  V30 4887 N 472.992 0.995999 -1.22138 0
M  V30 4888 C 473.955 2.06711 -0.990109 0
M  V30 4889 C 474.955 1.60744 0.0422978 0
M  V30 4890 O 476.145 1.73095 -0.195895 0
M  V30 4891 C 473.277 3.37288 -0.49491 0
M  V30 4892 H 474.47 2.28661 -1.94047 0
M  V30 4893 H 472.023 1.16711 -1.03963 0
M  V30 4894 H 472.758 3.21022 0.459948 0
M  V30 4895 H 472.543 3.71986 -1.23971 0
M  V30 4896 H 474.033 4.16103 -0.353253 0
M  V30 4897 N 474.47 1.03057 1.19235 0
M  V30 4898 C 475.71 0.736757 1.9066 0
M  V30 4899 C 476.074 -0.721521 1.77927 0
M  V30 4900 O 477.275 -1.12849 2.43964 0
M  V30 4901 C 475.546 1.17755 3.37444 0
M  V30 4902 S 477.105 1.00783 4.27069 0
M  V30 4903 H 473.923 0.268174 0.658486 0
M  V30 4904 H 476.525 1.32076 1.4414 0
M  V30 4905 H 475.229 2.23448 3.44237 0
M  V30 4906 H 474.76 0.586912 3.88997 0
M  V30 4907 H 476.775 -0.0806356 4.96134 0
M  V30 4908 N 475.948 -1.35272 0.808662 0
M  V30 4909 C 476.895 -2.29764 0.218482 0
M  V30 4910 C 477.865 -1.52911 -0.648652 0
M  V30 4911 O 479.05 -1.81341 -0.593297 0
M  V30 4912 C 476.19 -3.39388 -0.625282 0
M  V30 4913 C 475.303 -4.31202 0.262516 0
M  V30 4914 C 474.438 -5.27919 -0.589451 0
M  V30 4915 C 473.477 -6.11371 0.298617 0
M  V30 4916 N 472.614 -7.0022 -0.513443 0
M  V30 4917 H 477.454 -2.79645 1.02968 0
M  V30 4918 H 474.991 -1.37629 0.519303 0
M  V30 4919 H 476.949 -4.01615 -1.12966 0
M  V30 4920 H 475.579 -2.90777 -1.40173 0
M  V30 4921 H 474.631 -3.69962 0.885013 0
M  V30 4922 H 475.943 -4.89748 0.945971 0
M  V30 4923 H 475.097 -5.95529 -1.15888 0
M  V30 4924 H 473.836 -4.69875 -1.30647 0
M  V30 4925 H 472.841 -5.42707 0.880301 0
M  V30 4926 H 474.066 -6.71494 1.01352 0
M  V30 4927 H 472.012 -6.44662 -1.21439 0
M  V30 4928 H 471.929 -7.55917 0.111922 0
M  V30 4929 H 473.197 -7.72175 -1.06608 0
M  V30 4930 N 477.426 -0.562348 -1.47226 0
M  V30 4931 C 478.675 -0.038041 -2.01664 0
M  V30 4932 C 478.988 1.32199 -1.44162 0
M  V30 4933 O 480.194 1.9365 -1.90294 0
M  V30 4934 C 478.65 -0.0174958 -3.59896 0
M  V30 4935 C 478.258 -1.3746 -4.2639 0
M  V30 4936 C 480.002 0.453934 -4.22066 0
M  V30 4937 C 477.909 -1.31289 -5.76643 0
M  V30 4938 H 476.839 -0.0104511 -0.753928 0
M  V30 4939 H 479.49 -0.710966 -1.69167 0
M  V30 4940 H 477.872 0.721182 -3.89378 0
M  V30 4941 H 479.046 -2.1314 -4.08544 0
M  V30 4942 H 477.361 -1.78438 -3.7623 0
M  V30 4943 H 479.958 0.518584 -5.32179 0
M  V30 4944 H 480.301 1.46706 -3.89594 0
M  V30 4945 H 480.834 -0.230044 -3.97134 0
M  V30 4946 H 477.573 -2.30217 -6.13743 0
M  V30 4947 H 477.093 -0.597973 -5.96812 0
M  V30 4948 H 478.772 -1.01713 -6.38955 0
M  V30 4949 N 478.904 1.54736 -0.299062 0
M  V30 4950 C 480.15 2.00397 0.311244 0
M  V30 4951 C 480.483 1.18716 1.53688 0
M  V30 4952 O 479.758 0.263154 1.92712 0
M  V30 4953 C 480.041 3.53817 0.669761 0
M  V30 4954 C 479.894 4.46239 -0.564882 0
M  V30 4955 C 481.213 4.13856 1.49702 0
M  V30 4956 H 478.332 0.728493 0.111653 0
M  V30 4957 H 480.974 1.85506 -0.410774 0
M  V30 4958 H 479.124 3.66637 1.28491 0
M  V30 4959 H 480.796 4.45328 -1.20337 0
M  V30 4960 H 479.039 4.16916 -1.19849 0
M  V30 4961 H 479.71 5.5134 -0.269918 0
M  V30 4962 H 482.186 4.04461 0.977284 0
M  V30 4963 H 481.062 5.21365 1.71666 0
M  V30 4964 H 481.323 3.65608 2.48563 0
M  V30 4965 N 480.382 0.0267497 1.57577 0
M  V30 4966 C 481.628 -0.653371 1.91987 0
M  V30 4967 C 481.961 -1.71915 0.903263 0
M  V30 4968 O 481.236 -1.94358 -0.0743387 0
M  V30 4969 C 481.519 -1.272 3.36886 0
M  V30 4970 C 481.372 -0.215938 4.49281 0
M  V30 4971 C 482.691 -2.19069 3.81703 0
M  V30 4972 H 479.81 -0.236047 0.698177 0
M  V30 4973 H 482.452 0.0835236 1.89816 0
M  V30 4974 H 480.602 -1.90005 3.38866 0
M  V30 4975 H 482.274 0.41449 4.59434 0
M  V30 4976 H 480.517 0.458855 4.31366 0
M  V30 4977 H 481.188 -0.688347 5.47691 0
M  V30 4978 H 483.664 -1.66253 3.81444 0
M  V30 4979 H 482.54 -2.59307 4.83788 0
M  V30 4980 H 482.801 -3.08087 3.17072 0
M  V30 4981 N 481.861 -1.55662 -0.24637 0
M  V30 4982 C 482.811 -1.86753 -1.30795 0
M  V30 4983 C 483.795 -0.728445 -1.43466 0
M  V30 4984 O 484.987 -0.99038 -1.46699 0
M  V30 4985 C 482.116 -2.16618 -2.66329 0
M  V30 4986 C 481.202 -3.36855 -2.57661 0
M  V30 4987 N 481.593 -4.56111 -2.18624 0
M  V30 4988 C 479.891 -3.39976 -2.88673 0
M  V30 4989 C 480.592 -5.38247 -2.20601 0
M  V30 4990 N 479.568 -4.77322 -2.60124 0
M  V30 4991 H 483.37 -2.76486 -0.996642 0
M  V30 4992 H 480.884 -1.55896 -0.454994 0
M  V30 4993 H 482.881 -2.37057 -3.42942 0
M  V30 4994 H 481.541 -1.28185 -2.98327 0
M  V30 4995 H 482.552 -4.81726 -1.9016 0
M  V30 4996 H 479.229 -2.61815 -3.25206 0
M  V30 4997 H 480.619 -6.43657 -1.92756 0
M  V30 4998 N 483.339 0.512053 -1.4905 0
M  V30 4999 C 484.567 1.29116 -1.61669 0
M  V30 5000 C 484.982 1.86655 -0.283787 0
M  V30 5001 O 484.339 1.67293 0.729331 0
M  V30 5002 C 484.39 2.4293 -2.67707 0
M  V30 5003 O 484.111 1.87758 -3.95826 0
M  V30 5004 C 485.612 3.34476 -2.90931 0
M  V30 5005 H 482.832 0.392009 -0.544583 0
M  V30 5006 H 485.376 0.615881 -1.95006 0
M  V30 5007 H 483.531 3.06308 -2.37179 0
M  V30 5008 H 483.945 2.62393 -4.54148 0
M  V30 5009 H 485.419 4.10642 -3.68886 0
M  V30 5010 H 485.896 3.90801 -2.00427 0
M  V30 5011 H 486.502 2.76874 -3.22832 0
M  V30 5012 N 484.817 1.37938 0.762283 0
M  V30 5013 C 486.228 1.30094 1.33912 0
M  V30 5014 C 486.579 -0.0472026 1.96143 0
M  V30 5015 O 485.704 -0.94917 1.94473 0
M  V30 5016 C 486.299 2.35592 2.43478 0
M  V30 5017 C 484.858 2.31353 2.96905 0
M  V30 5018 C 484.005 2.18919 1.70205 0
M  V30 5019 H 486.956 1.48423 0.561816 0
M  V30 5020 H 486.977 2.00806 3.23199 0
M  V30 5021 H 486.489 3.33701 1.98155 0
M  V30 5022 H 484.59 1.36799 3.46579 0
M  V30 5023 H 484.703 3.25147 3.51875 0
M  V30 5024 H 483.067 1.65624 1.93496 0
M  V30 5025 H 483.85 3.18956 1.26973 0
M  V30 5026 N 486.295 -0.989507 1.22664 0
M  V30 5027 C 487.535 -1.7447 1.06488 0
M  V30 5028 C 487.899 -1.8794 -0.392737 0
M  V30 5029 O 489.1 -2.60175 -0.675446 0
M  V30 5030 C 487.371 -3.11043 1.76031 0
M  V30 5031 S 488.93 -4.02258 1.7531 0
M  V30 5032 H 485.748 -0.600123 0.381278 0
M  V30 5033 H 488.35 -1.18283 1.55658 0
M  V30 5034 H 487.054 -2.98884 2.81241 0
M  V30 5035 H 486.585 -3.72301 1.27105 0
M  V30 5036 H 488.6 -4.89623 0.805208 0
M  V30 5037 N 487.773 -1.03688 -1.18687 0
M  V30 5038 C 489.022 -0.733235 -1.879 0
M  V30 5039 C 489.335 0.741745 -1.8099 0
M  V30 5040 O 490.541 1.15875 -2.4553 0
M  V30 5041 C 488.997 -1.26127 -3.37076 0
M  V30 5042 C 488.605 -2.76461 -3.52524 0
M  V30 5043 C 490.349 -1.03398 -4.11715 0
M  V30 5044 C 488.256 -3.22642 -4.95637 0
M  V30 5045 H 487.186 -0.270584 -0.703776 0
M  V30 5046 H 489.837 -1.25222 -1.34133 0
M  V30 5047 H 488.219 -0.670165 -3.90288 0
M  V30 5048 H 489.393 -3.41296 -3.09602 0
M  V30 5049 H 487.708 -2.97559 -2.91286 0
M  V30 5050 H 490.305 -1.3542 -5.17267 0
M  V30 5051 H 490.648 0.0289246 -4.1629 0
M  V30 5052 H 491.181 -1.5895 -3.64664 0
M  V30 5053 H 487.92 -4.28296 -4.96228 0
M  V30 5054 H 487.44 -2.62539 -5.39289 0
M  V30 5055 H 489.119 -3.16444 -5.64333 0
M  V30 5056 N 489.251 1.34841 -0.815825 0
M  V30 5057 C 490.161 2.33425 -0.234462 0
M  V30 5058 C 491.177 1.62295 0.627413 0
M  V30 5059 O 492.353 1.94109 0.536987 0
M  V30 5060 C 489.418 3.41471 0.599849 0
M  V30 5061 C 488.479 4.28362 -0.283596 0
M  V30 5062 C 487.712 5.31248 0.51099 0
M  V30 5063 O 487.935 5.43056 1.7449 0
M  V30 5064 O 486.869 6.01812 -0.10297 0
M  V30 5065 H 490.695 2.84962 -1.05024 0
M  V30 5066 H 488.28 1.37774 -0.577809 0
M  V30 5067 H 490.162 4.07464 1.07475 0
M  V30 5068 H 488.837 2.9219 1.39308 0
M  V30 5069 H 487.744 3.65318 -0.805836 0
M  V30 5070 H 489.077 4.81066 -1.041 0
M  V30 5071 N 490.729 0.570148 1.46925 0
M  V30 5072 C 491.661 -0.207909 2.28255 0
M  V30 5073 C 492.674 -0.867301 1.37774 0
M  V30 5074 O 493.863 -0.738976 1.62485 0
M  V30 5075 C 490.963 -1.31298 3.12433 0
M  V30 5076 C 490.136 -0.747915 4.30958 0
M  V30 5077 C 489.195 -1.7391 4.9663 0
M  V30 5078 O 488.221 -1.2801 5.54619 0
M  V30 5079 N 489.423 -3.07288 4.92498 0
M  V30 5080 H 492.188 0.489794 2.95671 0
M  V30 5081 H 489.749 0.407076 1.56699 0
M  V30 5082 H 491.741 -1.97507 3.53232 0
M  V30 5083 H 490.311 -1.91373 2.47175 0
M  V30 5084 H 489.531 0.0913066 3.94094 0
M  V30 5085 H 490.819 -0.349958 5.07595 0
M  V30 5086 H 490.217 -3.47213 4.46609 0
M  V30 5087 H 488.774 -3.69021 5.37277 0
M  V30 5088 N 492.207 -1.54576 0.307264 0
M  V30 5089 C 493.137 -2.26708 -0.55907 0
M  V30 5090 C 494.118 -1.26893 -1.1328 0
M  V30 5091 O 495.303 -1.55677 -1.16097 0
M  V30 5092 C 492.433 -3.01259 -1.72801 0
M  V30 5093 C 491.387 -4.08275 -1.28435 0
M  V30 5094 C 490.713 -4.70575 -2.53895 0
M  V30 5095 C 492.013 -5.2068 -0.411038 0
M  V30 5096 H 493.707 -2.9937 0.042576 0
M  V30 5097 H 491.253 -1.43983 0.0219173 0
M  V30 5098 H 493.206 -3.50444 -2.34023 0
M  V30 5099 H 491.93 -2.26187 -2.356 0
M  V30 5100 H 490.589 -3.59949 -0.695161 0
M  V30 5101 H 490.237 -3.92136 -3.15021 0
M  V30 5102 H 489.937 -5.42854 -2.24908 0
M  V30 5103 H 491.461 -5.22527 -3.15908 0
M  V30 5104 H 492.875 -5.65721 -0.929097 0
M  V30 5105 H 491.272 -5.99716 -0.214664 0
M  V30 5106 H 492.342 -4.81629 0.562287 0
M  V30 5107 N 493.685 -0.035106 -1.57561 0
M  V30 5108 C 494.595 0.960295 -2.14046 0
M  V30 5109 C 495.611 1.3529 -1.0942 0
M  V30 5110 O 496.787 1.43309 -1.41508 0
M  V30 5111 C 493.852 2.22214 -2.66124 0
M  V30 5112 C 492.913 1.8894 -3.85487 0
M  V30 5113 C 492.146 3.09109 -4.35072 0
M  V30 5114 O 492.369 4.21963 -3.83802 0
M  V30 5115 O 491.303 2.91058 -5.26848 0
M  V30 5116 H 495.129 0.509983 -2.99387 0
M  V30 5117 H 492.714 0.185853 -1.48239 0
M  V30 5118 H 494.596 2.96279 -2.99661 0
M  V30 5119 H 493.271 2.66414 -1.83862 0
M  V30 5120 H 492.178 1.12241 -3.56865 0
M  V30 5121 H 493.511 1.49551 -4.6893 0
M  V30 5122 N 495.163 1.55791 0.238111 0
M  V30 5123 C 496.11 1.9105 1.29493 0
M  V30 5124 C 497.08 0.765733 1.47397 0
M  V30 5125 O 498.265 1.02017 1.61236 0
M  V30 5126 C 495.405 2.21826 2.64362 0
M  V30 5127 C 494.518 3.49153 2.54394 0
M  V30 5128 C 493.653 3.69455 3.81676 0
M  V30 5129 C 492.692 4.90353 3.66361 0
M  V30 5130 N 491.829 5.07131 4.85554 0
M  V30 5131 H 496.669 2.81172 0.987233 0
M  V30 5132 H 494.206 1.39179 0.476203 0
M  V30 5133 H 496.164 2.37675 3.4288 0
M  V30 5134 H 494.794 1.34897 2.93262 0
M  V30 5135 H 493.846 3.41587 1.67399 0
M  V30 5136 H 495.158 4.37818 2.38991 0
M  V30 5137 H 494.312 3.85311 4.68636 0
M  V30 5138 H 493.051 2.7904 3.99985 0
M  V30 5139 H 492.056 4.74464 2.77784 0
M  V30 5140 H 493.281 5.82237 3.49538 0
M  V30 5141 H 491.227 4.19654 5.04209 0
M  V30 5142 H 491.144 5.89899 4.72816 0
M  V30 5143 H 492.412 5.27407 5.73988 0
M  V30 5144 N 496.642 -0.504142 1.49319 0
M  V30 5145 C 497.891 -1.25507 1.57895 0
M  V30 5146 C 498.204 -1.93735 0.269433 0
M  V30 5147 O 499.41 -2.70492 0.233706 0
M  V30 5148 C 497.866 -2.27869 2.78574 0
M  V30 5149 C 497.474 -1.65594 4.16272 0
M  V30 5150 C 499.218 -3.0381 2.96479 0
M  V30 5151 C 497.125 -2.66048 5.28178 0
M  V30 5152 H 496.055 -0.47212 0.587894 0
M  V30 5153 H 498.706 -0.52931 1.757 0
M  V30 5154 H 497.088 -3.03594 2.54257 0
M  V30 5155 H 498.262 -0.958826 4.50714 0
M  V30 5156 H 496.577 -1.02055 4.037 0
M  V30 5157 H 499.174 -3.78925 3.77253 0
M  V30 5158 H 499.517 -3.61235 2.06918 0
M  V30 5159 H 500.05 -2.352 3.20821 0
M  V30 5160 H 496.789 -2.13408 6.19788 0
M  V30 5161 H 496.309 -3.34009 4.98195 0
M  V30 5162 H 497.988 -3.28536 5.57381 0
M  V30 5163 N 498.12 -1.38341 -0.754957 0
M  V30 5164 C 499.068 -1.35573 -1.89005 0
M  V30 5165 C 500.062 -0.241824 -1.67665 0
M  V30 5166 O 501.268 -0.410785 -1.7525 0
M  V30 5167 H 497.643 -0.422898 -0.621821 0
M  V30 5168 H 499.614 -2.31359 -1.88455 0
M  V30 5169 C 498.363 -1.19631 -3.26471 0
M  V30 5170 H 497.686 -2.04605 -3.43477 0
M  V30 5171 H 499.126 -1.21748 -4.06144 0
M  V30 5172 C 497.585 0.0968705 -3.36761 0
M  V30 5173 O 498.115 1.07439 -3.87066 0
M  V30 5174 N 496.321 0.153242 -2.90196 0
M  V30 5175 H 495.868 -0.642908 -2.49448 0
M  V30 5176 H 495.826 1.01807 -2.9746 0
M  V30 5177 N 499.598 0.982988 -1.23187 0
M  V30 5178 C 500.845 1.72392 -1.06241 0
M  V30 5179 C 501.173 1.9032 0.40108 0
M  V30 5180 O 500.428 1.45084 1.31336 0
M  V30 5181 C 500.727 3.12736 -1.73006 0
M  V30 5182 C 500.393 3.14695 -3.22921 0
M  V30 5183 C 499.055 3.14937 -3.63824 0
M  V30 5184 C 501.407 3.10211 -4.1883 0
M  V30 5185 C 498.735 3.08408 -4.99101 0
M  V30 5186 C 501.087 3.05224 -5.54095 0
M  V30 5187 C 499.751 3.03787 -5.94365 0
M  V30 5188 H 499.021 0.630829 -0.388762 0
M  V30 5189 H 501.668 1.15053 -1.53085 0
M  V30 5190 H 499.973 3.73446 -1.18514 0
M  V30 5191 H 501.67 3.68828 -1.57374 0
M  V30 5192 H 498.26 3.15262 -2.90358 0
M  V30 5193 H 502.444 3.09166 -3.8824 0
M  V30 5194 H 497.7 3.05646 -5.29519 0
M  V30 5195 H 501.874 3.00712 -6.28128 0
M  V30 5196 H 499.501 2.98483 -6.99151 0
M  V30 5197 N 501.076 1.04316 1.18135 0
M  V30 5198 C 502.492 0.762858 1.40188 0
M  V30 5199 C 502.692 -0.646547 1.90846 0
M  V30 5200 O 501.748 -1.41036 2.0944 0
M  V30 5201 C 503.061 1.81106 2.40044 0
M  V30 5202 C 504.609 1.83226 2.53766 0
M  V30 5203 C 505.084 2.87044 3.56889 0
M  V30 5204 N 506.575 2.85951 3.64398 0
M  V30 5205 C 507.31 3.62932 4.43923 0
M  V30 5206 N 506.806 4.49672 5.27036 0
M  V30 5207 N 508.599 3.51411 4.38711 0
M  V30 5208 H 500.75 1.95264 0.835805 0
M  V30 5209 H 503.013 0.845017 0.429709 0
M  V30 5210 H 502.719 2.82214 2.09876 0
M  V30 5211 H 502.593 1.64529 3.39426 0
M  V30 5212 H 504.98 0.827869 2.8325 0
M  V30 5213 H 505.061 2.03879 1.54489 0
M  V30 5214 H 504.705 3.87663 3.28145 0
M  V30 5215 H 504.635 2.63645 4.5585 0
M  V30 5216 H 507.126 2.23051 3.05052 0
M  V30 5217 H 507.439 5.05116 5.84874 0
M  V30 5218 H 505.784 4.53738 5.26447 0
M  V30 5219 H 508.975 2.83047 3.72829 0
M  V30 5220 H 509.148 4.11654 5.00445 0
M  V30 5221 N 502.554 -1.34406 0.822964 0
M  V30 5222 C 503.794 -2.00103 0.416915 0
M  V30 5223 C 504.158 -1.63826 -1.00125 0
M  V30 5224 O 505.359 -2.22367 -1.51018 0
M  V30 5225 C 503.63 -3.52101 0.613151 0
M  V30 5226 S 505.189 -4.37774 0.299956 0
M  V30 5227 H 502.007 -0.69333 0.157527 0
M  V30 5228 H 504.609 -1.63698 1.06879 0
M  V30 5229 H 503.313 -3.75991 1.64496 0
M  V30 5230 H 502.844 -3.93364 -0.0534554 0
M  V30 5231 H 504.859 -4.8822 -0.886336 0
M  V30 5232 N 504.032 -0.577932 -1.46621 0
M  V30 5233 C 504.979 0.158048 -2.30258 0
M  V30 5234 C 505.949 0.888669 -1.40328 0
M  V30 5235 O 507.134 0.880283 -1.6928 0
M  V30 5236 C 504.274 1.16884 -3.24703 0
M  V30 5237 C 503.387 0.442163 -4.29731 0
M  V30 5238 C 502.522 1.44007 -5.11308 0
M  V30 5239 C 501.561 0.69952 -6.0809 0
M  V30 5240 N 500.698 1.64525 -6.82551 0
M  V30 5241 H 505.538 -0.561242 -2.92667 0
M  V30 5242 H 503.075 -0.288591 -1.44241 0
M  V30 5243 H 505.033 1.7677 -3.779 0
M  V30 5244 H 503.663 1.85591 -2.64113 0
M  V30 5245 H 502.715 -0.271632 -3.79429 0
M  V30 5246 H 504.027 -0.136992 -4.98612 0
M  V30 5247 H 503.181 2.11186 -5.68758 0
M  V30 5248 H 501.92 2.05315 -4.42377 0
M  V30 5249 H 500.925 0.0139217 -5.49798 0
M  V30 5250 H 502.15 0.091894 -6.79038 0
M  V30 5251 H 500.096 2.24653 -6.16334 0
M  V30 5252 H 500.013 1.11878 -7.47676 0
M  V30 5253 H 501.281 2.30754 -7.44562 0
M  V30 5254 N 505.51 1.54411 -0.315457 0
M  V30 5255 C 506.921 1.85885 0.174265 0
M  V30 5256 C 507.272 1.23723 1.52273 0
M  V30 5257 O 506.397 0.540246 2.09548 0
M  V30 5258 C 506.992 3.37257 0.322981 0
M  V30 5259 C 505.551 3.68711 0.756922 0
M  V30 5260 C 504.698 2.77013 -0.126195 0
M  V30 5261 H 507.649 1.49374 -0.536007 0
M  V30 5262 H 507.67 3.62539 1.15522 0
M  V30 5263 H 507.182 3.82471 -0.658602 0
M  V30 5264 H 505.283 3.29024 1.74854 0
M  V30 5265 H 505.396 4.75741 0.566291 0
M  V30 5266 H 503.76 2.51588 0.39692 0
M  V30 5267 H 504.543 3.25051 -1.1044 0
M  V30 5268 N 506.988 0.0434614 1.5754 0
M  V30 5269 C 508.213 -0.645358 1.97104 0
M  V30 5270 C 508.638 -1.64037 0.920521 0
M  V30 5271 O 507.996 -1.80922 -0.11708 0
M  V30 5272 C 508.044 -1.31547 3.35749 0
M  V30 5273 O 507.148 -2.43103 3.33129 0
M  V30 5274 H 506.489 -0.168403 0.64229 0
M  V30 5275 H 509.019 0.109573 2.04306 0
M  V30 5276 H 509.029 -1.66895 3.72304 0
M  V30 5277 H 507.704 -0.586205 4.11748 0
M  V30 5278 H 506.281 -2.0976 3.0831 0
M  V30 5279 N 508.466 -1.55915 -0.229846 0
M  V30 5280 C 509.713 -1.78542 -0.955452 0
M  V30 5281 C 510.041 -0.610785 -1.84661 0
M  V30 5282 O 509.296 0.405213 -1.91459 0
M  V30 5283 C 509.595 -3.06845 -1.8325 0
M  V30 5284 C 509.261 -4.37395 -1.09528 0
M  V30 5285 C 507.923 -4.72868 -0.891598 0
M  V30 5286 C 510.275 -5.18029 -0.574046 0
M  V30 5287 C 507.603 -5.86496 -0.154655 0
M  V30 5288 C 509.955 -6.32423 0.149513 0
M  V30 5289 C 508.619 -6.66504 0.364519 0
M  V30 5290 H 507.889 -0.653333 -0.349625 0
M  V30 5291 H 510.536 -1.90183 -0.224235 0
M  V30 5292 H 508.841 -2.90291 -2.63132 0
M  V30 5293 H 510.538 -3.21553 -2.39592 0
M  V30 5294 H 507.128 -4.09538 -1.26399 0
M  V30 5295 H 511.312 -4.91066 -0.718899 0
M  V30 5296 H 506.568 -6.11396 0.0222356 0
M  V30 5297 H 510.742 -6.94137 0.560947 0
M  V30 5298 H 508.369 -7.54397 0.937495 0
M  V30 5299 N 509.944 0.496216 -1.49584 0
M  V30 5300 C 511.36 0.827814 -1.36453 0
M  V30 5301 C 511.56 1.97464 -0.401285 0
M  V30 5302 O 510.616 2.51958 0.165296 0
M  V30 5303 C 511.929 1.16352 -2.77277 0
M  V30 5304 C 513.477 1.27145 -2.86013 0
M  V30 5305 C 513.952 1.64042 -4.27615 0
M  V30 5306 N 515.443 1.71082 -4.30448 0
M  V30 5307 C 516.178 2.01085 -5.36984 0
M  V30 5308 N 515.674 2.2928 -6.5376 0
M  V30 5309 N 517.467 2.02376 -5.24405 0
M  V30 5310 H 509.618 -0.259947 -2.10803 0
M  V30 5311 H 511.881 -0.0537163 -0.946477 0
M  V30 5312 H 511.587 0.394153 -3.49484 0
M  V30 5313 H 511.461 2.10582 -3.12946 0
M  V30 5314 H 513.848 2.03152 -2.1404 0
M  V30 5315 H 513.929 0.309542 -2.5392 0
M  V30 5316 H 513.573 0.88583 -5.00115 0
M  V30 5317 H 513.503 2.6134 -4.57175 0
M  V30 5318 H 515.994 1.51434 -3.46232 0
M  V30 5319 H 516.307 2.51376 -7.30774 0
M  V30 5320 H 514.652 2.26726 -6.56978 0
M  V30 5321 H 517.843 1.79829 -4.32179 0
M  V30 5322 H 518.016 2.25425 -6.07526 0
M  V30 5323 N 511.423 1.38739 0.74761 0
M  V30 5324 C 512.333 1.38696 1.89211 0
M  V30 5325 C 513.349 0.283303 1.71678 0
M  V30 5326 O 514.525 0.522713 1.94498 0
M  V30 5327 C 511.59 1.21662 3.24653 0
M  V30 5328 C 510.651 2.41886 3.54669 0
M  V30 5329 C 509.884 2.25655 4.83648 0
M  V30 5330 O 510.107 1.25339 5.56459 0
M  V30 5331 O 509.041 3.14372 5.13277 0
M  V30 5332 H 512.867 2.35143 1.92202 0
M  V30 5333 H 510.452 1.19721 0.893708 0
M  V30 5334 H 512.334 1.14246 4.05618 0
M  V30 5335 H 511.009 0.283024 3.2246 0
M  V30 5336 H 509.916 2.54877 2.73841 0
M  V30 5337 H 511.249 3.33895 3.61628 0
M  V30 5338 N 512.901 -0.976442 1.23707 0
M  V30 5339 C 514.126 -1.75875 1.09922 0
M  V30 5340 C 514.551 -1.84911 -0.34489 0
M  V30 5341 O 513.909 -1.31363 -1.24954 0
M  V30 5342 C 513.957 -3.16179 1.73388 0
M  V30 5343 O 513.061 -4.00124 0.99871 0
M  V30 5344 H 512.402 -0.540954 0.385052 0
M  V30 5345 H 514.932 -1.22546 1.6384 0
M  V30 5346 H 514.942 -3.66741 1.78788 0
M  V30 5347 H 513.617 -3.08917 2.78466 0
M  V30 5348 H 512.194 -3.58624 1.02193 0
M  V30 5349 N 514.379 -1.04941 -1.1758 0
M  V30 5350 C 515.627 -0.756492 -1.87408 0
M  V30 5351 C 515.948 0.718478 -1.81281 0
M  V30 5352 O 515.218 1.519 -1.23706 0
M  V30 5353 H 513.798 -0.276841 -0.693807 0
M  V30 5354 H 516.46 -1.32803 -1.42652 0
M  V30 5355 H 515.556 -1.06918 -2.93215 0
M  V30 5356 N 515.857 1.33968 -0.830081 0
M  V30 5357 C 517.082 2.02813 -0.433796 0
M  V30 5358 C 517.507 1.62076 0.954614 0
M  V30 5359 O 516.865 0.808955 1.62252 0
M  V30 5360 C 516.913 3.56348 -0.552115 0
M  V30 5361 O 516.017 4.10202 0.425191 0
M  V30 5362 H 515.358 0.639817 -0.177567 0
M  V30 5363 H 517.888 1.7106 -1.12248 0
M  V30 5364 H 517.898 4.05722 -0.430513 0
M  V30 5365 H 516.573 3.85344 -1.56471 0
M  V30 5366 H 515.15 3.71979 0.261878 0
M  V30 5367 N 517.335 0.585699 1.46312 0
M  V30 5368 C 518.751 0.247607 1.57668 0
M  V30 5369 C 518.951 -1.25007 1.58037 0
M  V30 5370 O 518.007 -2.03196 1.49893 0
M  V30 5371 C 519.32 0.899456 2.86933 0
M  V30 5372 C 520.868 0.873326 3.00569 0
M  V30 5373 C 521.343 1.50477 4.32574 0
M  V30 5374 N 522.834 1.46925 4.3928 0
M  V30 5375 C 523.569 1.92719 5.40044 0
M  V30 5376 N 523.065 2.46499 6.47464 0
M  V30 5377 N 524.858 1.83617 5.31264 0
M  V30 5378 H 517.009 1.55841 1.44317 0
M  V30 5379 H 519.272 0.651564 0.688599 0
M  V30 5380 H 518.978 1.95313 2.92482 0
M  V30 5381 H 518.852 0.409476 3.74971 0
M  V30 5382 H 521.239 -0.171736 2.946 0
M  V30 5383 H 521.32 1.40136 2.13999 0
M  V30 5384 H 520.964 2.54905 4.39302 0
M  V30 5385 H 520.894 0.951944 5.17924 0
M  V30 5386 H 523.385 1.07616 3.62253 0
M  V30 5387 H 523.698 2.79291 7.20567 0
M  V30 5388 H 522.043 2.50526 6.48276 0
M  V30 5389 H 525.234 1.41358 4.46246 0
M  V30 5390 H 525.407 2.19622 6.09648 0
M  V30 5391 N 518.813 -1.54241 0.323641 0
M  V30 5392 C 519.761 -2.25813 -0.557804 0
M  V30 5393 C 520.755 -1.27225 -1.11849 0
M  V30 5394 O 521.961 -1.45001 -1.06652 0
M  V30 5395 H 518.336 -0.72532 -0.198532 0
M  V30 5396 H 520.307 -2.98322 0.0681112 0
M  V30 5397 C 519.056 -3.02913 -1.70701 0
M  V30 5398 H 518.379 -3.78593 -1.28482 0
M  V30 5399 H 519.819 -3.56238 -2.29935 0
M  V30 5400 C 518.278 -2.11217 -2.62467 0
M  V30 5401 O 518.808 -1.69508 -3.64184 0
M  V30 5402 N 517.014 -1.76704 -2.30703 0
M  V30 5403 H 516.561 -2.1082 -1.48029 0
M  V30 5404 H 516.519 -1.15631 -2.92364 0
M  V30 5405 N 520.291 -0.0518155 -1.57515 0
M  V30 5406 C 521.537 0.622745 -1.93002 0
M  V30 5407 C 521.87 1.70456 -0.930499 0
M  V30 5408 O 521.145 1.94452 0.0434086 0
M  V30 5409 C 521.428 1.21824 -3.38867 0
M  V30 5410 C 521.281 0.144434 -4.49568 0
M  V30 5411 C 522.6 2.12968 -3.8514 0
M  V30 5412 H 519.719 0.22491 -0.701844 0
M  V30 5413 H 522.361 -0.113711 -1.89659 0
M  V30 5414 H 520.511 1.8459 -3.41846 0
M  V30 5415 H 522.183 -0.48753 -4.58717 0
M  V30 5416 H 520.426 -0.527424 -4.30582 0
M  V30 5417 H 521.097 0.601127 -5.48717 0
M  V30 5418 H 523.573 1.60163 -3.8404 0
M  V30 5419 H 522.449 2.51578 -4.87852 0
M  V30 5420 H 522.71 3.03004 -3.21934 0
M  V30 5421 N 521.769 1.56035 0.221574 0
M  V30 5422 C 523.185 1.49026 0.571271 0
M  V30 5423 C 523.385 0.746912 1.87146 0
M  V30 5424 O 522.441 0.286566 2.50869 0
M  V30 5425 C 523.754 2.93579 0.650522 0
M  V30 5426 C 525.302 3.04099 0.741151 0
M  V30 5427 C 525.777 4.5001 0.851747 0
M  V30 5428 N 527.268 4.54053 0.915968 0
M  V30 5429 C 528.003 5.64232 1.02125 0
M  V30 5430 N 527.499 6.84164 1.09049 0
M  V30 5431 N 529.292 5.52084 1.05639 0
M  V30 5432 H 521.443 2.02791 -0.63162 0
M  V30 5433 H 523.706 0.921736 -0.221602 0
M  V30 5434 H 523.412 3.50912 -0.235253 0
M  V30 5435 H 523.286 3.45476 1.51413 0
M  V30 5436 H 525.673 2.4683 1.61737 0
M  V30 5437 H 525.754 2.55371 -0.148128 0
M  V30 5438 H 525.398 5.07896 -0.0200117 0
M  V30 5439 H 525.328 4.96444 1.75644 0
M  V30 5440 H 527.819 3.67683 0.872782 0
M  V30 5441 H 528.132 7.63883 1.1706 0
M  V30 5442 H 526.477 6.86875 1.05962 0
M  V30 5443 H 529.668 4.57317 0.998953 0
M  V30 5444 H 529.841 6.37983 1.13498 0
M  V30 5445 N 523.247 -0.488276 1.49845 0
M  V30 5446 C 524.157 -1.61451 1.70207 0
M  V30 5447 C 525.173 -1.63877 0.584846 0
M  V30 5448 O 526.349 -1.82063 0.861107 0
M  V30 5449 C 523.414 -2.9776 1.77594 0
M  V30 5450 C 522.475 -3.05861 3.01243 0
M  V30 5451 C 521.708 -4.35668 3.08268 0
M  V30 5452 O 521.931 -5.25197 2.22541 0
M  V30 5453 O 520.865 -4.49005 4.00847 0
M  V30 5454 H 524.691 -1.47199 2.65643 0
M  V30 5455 H 522.276 -0.665939 1.33737 0
M  V30 5456 H 524.158 -3.7875 1.84732 0
M  V30 5457 H 522.833 -3.12248 0.8534 0
M  V30 5458 H 521.74 -2.24012 2.99616 0
M  V30 5459 H 523.073 -2.96304 3.9302 0
M  V30 5460 N 524.725 -1.39134 -0.740242 0
M  V30 5461 C 526.136 -1.32208 -1.31825 0
M  V30 5462 C 526.487 0.0159919 -1.96193 0
M  V30 5463 O 525.612 0.918111 -1.95958 0
M  V30 5464 C 526.207 -2.39436 -2.39699 0
M  V30 5465 C 524.766 -2.36048 -2.93187 0
M  V30 5466 C 523.913 -2.21599 -1.66701 0
M  V30 5467 H 526.864 -1.49298 -0.538133 0
M  V30 5468 H 526.885 -2.05922 -3.19963 0
M  V30 5469 H 526.397 -3.36811 -1.92821 0
M  V30 5470 H 524.498 -1.42295 -3.44359 0
M  V30 5471 H 524.611 -3.30704 -3.46658 0
M  V30 5472 H 522.975 -1.68681 -1.90837 0
M  V30 5473 H 523.758 -3.20936 -1.21882 0
M  V30 5474 N 526.204 0.969867 -1.24223 0
M  V30 5475 C 527.432 1.74756 -1.10761 0
M  V30 5476 C 527.847 1.85713 0.340041 0
M  V30 5477 O 527.204 1.34389 1.23474 0
M  V30 5478 C 527.255 3.16915 -1.73917 0
M  V30 5479 O 526.976 3.06511 -3.13021 0
M  V30 5480 C 528.477 4.11032 -1.66036 0
M  V30 5481 H 525.697 0.548092 -0.387087 0
M  V30 5482 H 528.241 1.2178 -1.64286 0
M  V30 5483 H 526.396 3.66884 -1.244 0
M  V30 5484 H 526.81 3.96079 -3.43834 0
M  V30 5485 H 528.284 5.08446 -2.14911 0
M  V30 5486 H 528.761 4.34785 -0.621159 0
M  V30 5487 H 529.367 3.66972 -2.14969 0
M  V30 5488 N 527.682 1.05563 1.17022 0
M  V30 5489 C 528.929 0.767937 1.87374 0
M  V30 5490 C 529.257 -0.705224 1.81265 0
M  V30 5491 O 528.512 -1.5318 1.21796 0
M  V30 5492 C 528.811 1.19849 3.36706 0
M  V30 5493 C 528.477 2.6745 3.63017 0
M  V30 5494 C 527.139 3.0777 3.69907 0
M  V30 5495 C 529.491 3.62811 3.74189 0
M  V30 5496 C 526.819 4.42307 3.85463 0
M  V30 5497 C 529.171 4.97087 3.91264 0
M  V30 5498 C 527.835 5.37055 3.96394 0
M  V30 5499 H 527.105 0.281008 0.68565 0
M  V30 5500 H 529.752 1.32339 1.38415 0
M  V30 5501 H 528.057 0.562096 3.87747 0
M  V30 5502 H 529.754 0.953038 3.8951 0
M  V30 5503 H 526.344 2.35228 3.58282 0
M  V30 5504 H 530.528 3.32798 3.68183 0
M  V30 5505 H 525.784 4.72769 3.87684 0
M  V30 5506 H 529.958 5.70869 3.9885 0
M  V30 5507 H 527.585 6.41308 4.082 0
M  V30 5508 N 529.16 -1.33526 0.837174 0
M  V30 5509 C 530.406 -1.9813 0.432704 0
M  V30 5510 C 530.739 -1.66168 -1.00508 0
M  V30 5511 O 530.014 -0.94069 -1.70239 0
M  V30 5512 C 530.297 -3.54151 0.651834 0
M  V30 5513 C 530.15 -3.95806 2.13676 0
M  V30 5514 C 531.469 -4.39993 0.0968937 0
M  V30 5515 H 528.588 -0.719713 0.15869 0
M  V30 5516 H 531.23 -1.58193 1.05237 0
M  V30 5517 H 529.38 -3.88301 0.124369 0
M  V30 5518 H 531.052 -3.71921 2.72896 0
M  V30 5519 H 529.295 -3.45599 2.62191 0
M  V30 5520 H 529.966 -5.0447 2.24084 0
M  V30 5521 H 532.442 -4.12479 0.547733 0
M  V30 5522 H 531.318 -5.48186 0.279917 0
M  V30 5523 H 531.579 -4.3066 -0.9992 0
M  V30 5524 N 530.638 -0.59345 -1.46 0
M  V30 5525 C 532.054 -0.255965 -1.57534 0
M  V30 5526 C 532.254 1.24167 -1.58697 0
M  V30 5527 O 531.31 2.02398 -1.50968 0
M  V30 5528 C 532.623 -0.91466 -2.86451 0
M  V30 5529 C 534.171 -0.889253 -3.00102 0
M  V30 5530 C 534.646 -1.52769 -4.3177 0
M  V30 5531 N 536.137 -1.49253 -4.38495 0
M  V30 5532 C 536.872 -1.9558 -5.39014 0
M  V30 5533 N 536.368 -2.49929 -6.46148 0
M  V30 5534 N 538.161 -1.86432 -5.30282 0
M  V30 5535 H 530.312 -1.56604 -1.43489 0
M  V30 5536 H 532.575 -0.655207 -0.685133 0
M  V30 5537 H 532.281 -1.96861 -2.91442 0
M  V30 5538 H 532.155 -0.429356 -3.74748 0
M  V30 5539 H 534.542 0.156111 -2.94687 0
M  V30 5540 H 534.623 -1.41268 -2.13253 0
M  V30 5541 H 534.267 -2.57231 -4.37944 0
M  V30 5542 H 534.197 -0.979398 -5.17412 0
M  V30 5543 H 536.688 -1.09536 -3.61677 0
M  V30 5544 H 537.001 -2.83109 -7.19075 0
M  V30 5545 H 535.346 -2.53961 -6.46938 0
M  V30 5546 H 538.537 -1.43722 -4.4549 0
M  V30 5547 H 538.71 -2.22852 -6.08474 0
M  V30 5548 N 532.116 1.54067 -0.331816 0
M  V30 5549 C 533.066 2.21363 0.546101 0
M  V30 5550 C 534.05 1.19698 1.07523 0
M  V30 5551 O 535.242 1.45293 1.01088 0
M  V30 5552 C 532.371 2.98115 1.70242 0
M  V30 5553 C 531.457 4.07127 1.18779 0
M  V30 5554 N 531.848 5.04267 0.393465 0
M  V30 5555 C 530.146 4.21226 1.46576 0
M  V30 5556 C 530.847 5.81585 0.115572 0
M  V30 5557 N 529.823 5.39022 0.703987 0
M  V30 5558 H 533.625 2.93821 -0.0679751 0
M  V30 5559 H 531.139 1.61812 -0.138085 0
M  V30 5560 H 533.136 3.44818 2.34321 0
M  V30 5561 H 531.796 2.27181 2.31989 0
M  V30 5562 H 532.807 5.17888 0.0355757 0
M  V30 5563 H 529.484 3.61509 2.08848 0
M  V30 5564 H 530.874 6.6985 -0.524426 0
M  V30 5565 N 533.594 0.0601682 1.57485 0
M  V30 5566 C 534.544 -0.920969 2.08572 0
M  V30 5567 C 535.528 -1.26617 0.992827 0
M  V30 5568 O 536.72 -1.24708 1.25606 0
M  V30 5569 C 533.849 -2.19267 2.64153 0
M  V30 5570 C 532.935 -1.87447 3.80427 0
M  V30 5571 N 533.326 -1.26025 4.89848 0
M  V30 5572 C 531.624 -2.17265 3.89502 0
M  V30 5573 C 532.325 -1.12036 5.70809 0
M  V30 5574 N 531.301 -1.62624 5.18705 0
M  V30 5575 H 535.103 -0.441561 2.90564 0
M  V30 5576 H 532.617 -0.144043 1.6176 0
M  V30 5577 H 534.614 -2.90462 2.99061 0
M  V30 5578 H 533.274 -2.67806 1.83603 0
M  V30 5579 H 534.285 -0.931336 5.09457 0
M  V30 5580 H 530.962 -2.68262 3.19909 0
M  V30 5581 H 532.352 -0.642783 6.68818 0
M  V30 5582 N 535.072 -1.5615 -0.213296 0
M  V30 5583 C 536.318 -1.80718 -0.933402 0
M  V30 5584 C 536.673 -0.634441 -1.81639 0
M  V30 5585 O 535.966 0.371182 -1.8797 0
M  V30 5586 C 536.16 -3.08772 -1.79985 0
M  V30 5587 C 535.989 -4.38389 -1.00224 0
M  V30 5588 C 534.759 -5.00513 -0.693885 0
M  V30 5589 C 536.957 -5.13013 -0.363598 0
M  V30 5590 N 534.939 -6.13774 0.124266 0
M  V30 5591 C 536.31 -6.19186 0.31757 0
M  V30 5592 C 538.365 -4.97126 -0.277468 0
M  V30 5593 C 537.068 -7.11197 1.07664 0
M  V30 5594 C 539.094 -5.89544 0.468155 0
M  V30 5595 C 538.456 -6.95149 1.13784 0
M  V30 5596 H 534.555 -0.712833 -0.321549 0
M  V30 5597 H 537.139 -1.93633 -0.203588 0
M  V30 5598 H 535.31 -2.97126 -2.50142 0
M  V30 5599 H 537.042 -3.21499 -2.45806 0
M  V30 5600 H 533.797 -4.62619 -1.01391 0
M  V30 5601 H 534.221 -6.74981 0.522418 0
M  V30 5602 H 538.863 -4.15526 -0.78087 0
M  V30 5603 H 536.581 -7.92273 1.59153 0
M  V30 5604 H 540.167 -5.79327 0.535911 0
M  V30 5605 H 539.047 -7.65428 1.70557 0
M  V30 5606 N 536.55 0.480323 -1.50102 0
M  V30 5607 C 537.796 1.23489 -1.60867 0
M  V30 5608 C 538.129 1.91809 -0.303827 0
M  V30 5609 O 537.404 1.81694 0.694092 0
M  V30 5610 C 537.687 2.28578 -2.78252 0
M  V30 5611 C 537.54 1.64624 -4.18592 0
M  V30 5612 C 538.859 3.2997 -2.91218 0
M  V30 5613 H 535.978 0.447605 -0.585507 0
M  V30 5614 H 538.62 0.530005 -1.82458 0
M  V30 5615 H 536.77 2.88697 -2.59974 0
M  V30 5616 H 538.442 1.08173 -4.48438 0
M  V30 5617 H 536.685 0.949645 -4.23278 0
M  V30 5618 H 537.356 2.40946 -4.96638 0
M  V30 5619 H 539.832 2.79864 -3.07921 0
M  V30 5620 H 538.708 4.00839 -3.74993 0
M  V30 5621 H 538.969 3.93541 -2.0144 0
M  V30 5622 N 538.028 1.39524 0.732853 0
M  V30 5623 C 538.978 1.34905 1.83806 0
M  V30 5624 C 539.962 0.229546 1.59254 0
M  V30 5625 O 541.154 0.467255 1.70721 0
M  V30 5626 C 538.283 1.19699 3.21756 0
M  V30 5627 C 537.369 2.36359 3.5213 0
M  V30 5628 N 537.76 3.61834 3.53426 0
M  V30 5629 C 536.058 2.29363 3.82503 0
M  V30 5630 C 536.759 4.38992 3.81655 0
M  V30 5631 N 535.735 3.68606 3.99538 0
M  V30 5632 H 539.537 2.29882 1.83116 0
M  V30 5633 H 537.051 1.33051 0.931194 0
M  V30 5634 H 539.048 1.14472 4.00876 0
M  V30 5635 H 537.708 0.256739 3.23683 0
M  V30 5636 H 538.719 3.95228 3.34686 0
M  V30 5637 H 535.396 1.43612 3.92023 0
M  V30 5638 H 536.786 5.47763 3.89108 0
M  V30 5639 N 539.506 -0.963266 1.24736 0
M  V30 5640 C 540.922 -1.23273 1.01371 0
M  V30 5641 C 541.122 -1.99618 -0.274776 0
M  V30 5642 O 540.178 -2.32293 -0.989769 0
M  V30 5643 C 541.491 -2.01554 2.23152 0
M  V30 5644 C 543.039 -2.14629 2.27823 0
M  V30 5645 C 543.514 -2.96307 3.49237 0
M  V30 5646 N 545.005 -3.03887 3.49581 0
M  V30 5647 C 545.74 -3.67456 4.40186 0
M  V30 5648 N 545.236 -4.32706 5.41052 0
M  V30 5649 N 547.029 -3.64511 4.27888 0
M  V30 5650 H 539.18 -0.452294 2.07528 0
M  V30 5651 H 541.443 -0.262521 0.910926 0
M  V30 5652 H 541.149 -1.52847 3.1675 0
M  V30 5653 H 541.023 -3.02278 2.25628 0
M  V30 5654 H 543.41 -2.62537 1.34753 0
M  V30 5655 H 543.491 -1.13238 2.2937 0
M  V30 5656 H 543.135 -2.49091 4.42624 0
M  V30 5657 H 543.065 -3.97905 3.44933 0
M  V30 5658 H 545.556 -2.57477 2.76611 0
M  V30 5659 H 545.869 -4.79042 6.06415 0
M  V30 5660 H 544.214 -4.31361 5.44934 0
M  V30 5661 H 547.405 -3.12715 3.4832 0
M  V30 5662 H 547.578 -4.13768 4.98698 0
M  V30 5663 N 540.985 -1.06182 -1.16461 0
M  V30 5664 C 542.401 -0.785065 -1.38956 0
M  V30 5665 C 542.601 0.616103 -1.9185 0
M  V30 5666 O 541.657 1.37686 -2.11657 0
M  V30 5667 C 542.97 -1.84902 -2.37132 0
M  V30 5668 C 544.518 -1.8724 -2.50819 0
M  V30 5669 C 544.993 -2.92686 -3.52277 0
M  V30 5670 N 546.484 -2.91712 -3.59803 0
M  V30 5671 C 547.219 -3.69949 -4.38093 0
M  V30 5672 N 546.715 -4.58 -5.19815 0
M  V30 5673 N 548.508 -3.58346 -4.33064 0
M  V30 5674 H 540.659 -1.96569 -0.804634 0
M  V30 5675 H 542.922 -0.851747 -0.416211 0
M  V30 5676 H 542.628 -2.85518 -2.0536 0
M  V30 5677 H 542.502 -1.69908 -3.36766 0
M  V30 5678 H 544.889 -0.872827 -2.81897 0
M  V30 5679 H 544.97 -2.06311 -1.51226 0
M  V30 5680 H 544.614 -3.92835 -3.21937 0
M  V30 5681 H 544.544 -2.70864 -4.51598 0
M  V30 5682 H 547.035 -2.27876 -3.01464 0
M  V30 5683 H 547.348 -5.14357 -5.76764 0
M  V30 5684 H 545.693 -4.62056 -5.19162 0
M  V30 5685 H 548.884 -2.88943 -3.68279 0
M  V30 5686 H 549.057 -4.19563 -4.93833 0
M  V30 5687 N 542.463 1.3308 -0.844243 0
M  V30 5688 C 543.879 1.50447 -0.532729 0
M  V30 5689 C 544.079 1.78292 0.938837 0
M  V30 5690 O 543.135 1.84635 1.72239 0
M  V30 5691 C 544.448 2.65555 -1.41072 0
M  V30 5692 C 545.996 2.7944 -1.41005 0
M  V30 5693 C 546.471 3.97616 -2.27301 0
M  V30 5694 N 547.962 4.0486 -2.2504 0
M  V30 5695 C 548.697 4.95508 -2.88547 0
M  V30 5696 N 548.193 5.91236 -3.61126 0
M  V30 5697 N 549.986 4.88548 -2.77989 0
M  V30 5698 H 542.137 1.13269 -1.79677 0
M  V30 5699 H 544.4 0.55734 -0.766861 0
M  V30 5700 H 544.106 2.51675 -2.45668 0
M  V30 5701 H 543.98 3.61089 -1.09061 0
M  V30 5702 H 546.367 2.92749 -0.371784 0
M  V30 5703 H 546.448 1.8465 -1.77026 0
M  V30 5704 H 546.092 3.85066 -3.3119 0
M  V30 5705 H 546.022 4.91661 -1.88619 0
M  V30 5706 H 548.513 3.36353 -1.72264 0
M  V30 5707 H 548.826 6.57079 -4.06776 0
M  V30 5708 H 547.171 5.91295 -3.65234 0
M  V30 5709 H 550.362 4.12729 -2.20846 0
M  V30 5710 H 550.535 5.58994 -3.27765 0
M  V30 5711 N 543.941 0.601185 1.45683 0
M  V30 5712 C 544.873 -0.159446 2.28645 0
M  V30 5713 C 545.886 -0.837882 1.39583 0
M  V30 5714 O 547.075 -0.704344 1.64016 0
M  V30 5715 C 544.175 -1.24641 3.15147 0
M  V30 5716 C 543.348 -0.656334 4.32448 0
M  V30 5717 C 542.407 -1.63337 5.00208 0
M  V30 5718 O 541.433 -1.16217 5.57209 0
M  V30 5719 N 542.635 -2.96773 4.98905 0
M  V30 5720 H 545.4 0.5524 2.94565 0
M  V30 5721 H 542.961 0.440223 1.558 0
M  V30 5722 H 544.953 -1.8997 3.57342 0
M  V30 5723 H 543.523 -1.86087 2.51178 0
M  V30 5724 H 542.743 0.174879 3.93812 0
M  V30 5725 H 544.031 -0.242211 5.08223 0
M  V30 5726 H 543.429 -3.37662 4.53873 0
M  V30 5727 H 541.986 -3.57541 5.44984 0
M  V30 5728 N 545.419 -1.53889 0.339982 0
M  V30 5729 C 546.696 -1.93084 -0.312719 0
M  V30 5730 C 547.076 -1.2712 -1.68534 0
M  V30 5731 O 546.424 -0.420835 -2.24591 0
M  V30 5732 C 546.634 -3.4683 -0.388558 0
M  V30 5733 C 547.982 -4.19732 -0.641088 0
M  V30 5734 O 549.006 -3.53075 -0.470818 0
M  V30 5735 O 547.865 -5.3781 -0.970685 0
M  V30 5736 H 544.959 -0.806784 -0.18174 0
M  V30 5737 H 547.505 -1.65137 0.390898 0
M  V30 5738 H 546.277 -3.87055 0.574821 0
M  V30 5739 H 545.9 -3.80933 -1.1391 0
M  V30 5740 N 546.897 -0.0685191 -1.57451 0
M  V30 5741 C 548.145 0.60016 -1.92983 0
M  V30 5742 C 548.466 1.70348 -0.949028 0
M  V30 5743 O 547.736 1.959 0.00335647 0
M  V30 5744 H 546.316 0.224682 -0.712409 0
M  V30 5745 H 548.978 -0.125605 -1.94495 0
M  V30 5746 H 548.074 1.02759 -2.94698 0
M  V30 5747 N 548.375 1.56261 0.205012 0
M  V30 5748 C 549.322 1.93754 1.25411 0
M  V30 5749 C 550.292 0.796826 1.45739 0
M  V30 5750 O 551.477 1.05414 1.59036 0
M  V30 5751 C 548.617 2.27383 2.59598 0
M  V30 5752 C 547.73 3.5447 2.46931 0
M  V30 5753 C 546.865 3.77468 3.73753 0
M  V30 5754 C 545.904 4.98014 3.55877 0
M  V30 5755 N 545.041 5.17316 4.74688 0
M  V30 5756 H 549.881 2.83203 0.92737 0
M  V30 5757 H 547.418 1.40158 0.446574 0
M  V30 5758 H 549.376 2.44895 3.37761 0
M  V30 5759 H 548.006 1.41088 2.90335 0
M  V30 5760 H 547.058 3.45061 1.60116 0
M  V30 5761 H 548.37 4.42789 2.29651 0
M  V30 5762 H 547.524 3.95165 4.60358 0
M  V30 5763 H 546.263 2.87461 3.93976 0
M  V30 5764 H 545.268 4.80249 2.67657 0
M  V30 5765 H 546.493 5.8952 3.37109 0
M  V30 5766 H 544.439 4.30255 4.95194 0
M  V30 5767 H 544.356 5.99796 4.60197 0
M  V30 5768 H 545.624 5.39463 5.62672 0
M  V30 5769 N 549.853 -0.472356 1.50355 0
M  V30 5770 C 551.093 -1.23439 1.62918 0
M  V30 5771 C 551.457 -1.89284 0.321801 0
M  V30 5772 O 552.658 -2.66854 0.322852 0
M  V30 5773 C 550.929 -2.25119 2.7759 0
M  V30 5774 S 552.488 -3.10278 3.10279 0
M  V30 5775 H 549.306 -0.41911 0.574341 0
M  V30 5776 H 551.908 -0.531621 1.88133 0
M  V30 5777 H 550.612 -1.75324 3.71066 0
M  V30 5778 H 550.143 -3.00026 2.54457 0
M  V30 5779 H 552.158 -4.26257 2.54007 0
M  V30 5780 N 551.331 -1.39911 -0.725443 0
M  V30 5781 C 552.747 -1.21725 -1.03224 0
M  V30 5782 C 552.947 -0.0855224 -2.01318 0
M  V30 5783 O 552.003 0.55976 -2.46217 0
M  V30 5784 C 553.316 -2.55511 -1.58539 0
M  V30 5785 C 554.864 -2.62439 -1.70572 0
M  V30 5786 C 555.339 -3.9647 -2.29294 0
M  V30 5787 N 556.83 -3.98159 -2.36692 0
M  V30 5788 C 557.565 -4.98647 -2.83088 0
M  V30 5789 N 557.061 -6.0953 -3.2931 0
M  V30 5790 N 558.854 -4.8602 -2.82384 0
M  V30 5791 H 551.005 -2.12267 -0.075048 0
M  V30 5792 H 553.268 -0.943136 -0.0959066 0
M  V30 5793 H 552.974 -3.38926 -0.939249 0
M  V30 5794 H 552.848 -2.75905 -2.57208 0
M  V30 5795 H 555.235 -1.79401 -2.34306 0
M  V30 5796 H 555.316 -2.45885 -0.705297 0
M  V30 5797 H 554.96 -4.79942 -1.66186 0
M  V30 5798 H 554.89 -4.10349 -3.30032 0
M  V30 5799 H 557.381 -3.18085 -2.04035 0
M  V30 5800 H 557.694 -6.82106 -3.6325 0
M  V30 5801 H 556.039 -6.1311 -3.27294 0
M  V30 5802 H 559.23 -3.98493 -2.45603 0
M  V30 5803 H 559.403 -5.64478 -3.18226 0
M  V30 5804 N 552.809 0.956637 -1.25245 0
M  V30 5805 C 553.759 2.03841 -1.02141 0
M  V30 5806 C 554.743 1.60848 0.0410058 0
M  V30 5807 O 555.935 1.76142 -0.174084 0
M  V30 5808 C 553.064 3.37282 -0.639963 0
M  V30 5809 C 552.15 3.86805 -1.73903 0
M  V30 5810 N 552.541 4.09143 -2.97381 0
M  V30 5811 C 550.839 4.15574 -1.61909 0
M  V30 5812 C 551.54 4.49923 -3.68707 0
M  V30 5813 N 550.516 4.55737 -2.96318 0
M  V30 5814 H 554.318 2.19102 -1.95886 0
M  V30 5815 H 551.832 1.1413 -1.15534 0
M  V30 5816 H 553.829 4.14403 -0.455643 0
M  V30 5817 H 552.489 3.23401 0.29018 0
M  V30 5818 H 553.5 3.96275 -3.33447 0
M  V30 5819 H 550.177 4.10566 -0.757764 0
M  V30 5820 H 551.567 4.75526 -4.74684 0
M  V30 5821 N 554.287 1.06798 1.15896 0
M  V30 5822 C 555.527 0.797041 1.8822 0
M  V30 5823 C 555.891 -0.664549 1.80133 0
M  V30 5824 O 557.092 -1.0503 2.47431 0
M  V30 5825 C 555.363 1.28431 3.33527 0
M  V30 5826 S 556.922 1.14319 4.23647 0
M  V30 5827 H 553.74 0.288988 0.649621 0
M  V30 5828 H 556.342 1.36594 1.39865 0
M  V30 5829 H 555.046 2.34286 3.36954 0
M  V30 5830 H 554.577 0.710371 3.86933 0
M  V30 5831 H 556.592 0.0772467 4.9614 0
M  V30 5832 N 555.766 -1.3263 0.851289 0
M  V30 5833 C 557.014 -1.96978 0.452128 0
M  V30 5834 C 557.335 -1.67715 -0.99482 0
M  V30 5835 O 556.605 -0.98259 -1.69476 0
M  V30 5836 H 555.185 -0.72873 0.164202 0
M  V30 5837 H 557.847 -1.61774 1.08698 0
M  V30 5838 H 556.943 -3.06387 0.594407 0
M  V30 5839 N 557.244 -0.608902 -1.45362 0
M  V30 5840 C 558.191 0.109172 -2.30542 0
M  V30 5841 C 559.161 0.858704 -1.42181 0
M  V30 5842 O 560.346 0.844178 -1.71109 0
M  V30 5843 C 557.486 1.09971 -3.27109 0
M  V30 5844 C 556.599 0.350911 -4.30572 0
M  V30 5845 C 555.734 1.33129 -5.14247 0
M  V30 5846 C 554.773 0.570377 -6.09437 0
M  V30 5847 N 553.91 1.5001 -6.85887 0
M  V30 5848 H 558.75 -0.623195 -2.91411 0
M  V30 5849 H 556.287 -0.319122 -1.43597 0
M  V30 5850 H 558.245 1.68714 -3.81564 0
M  V30 5851 H 556.875 1.79947 -2.67991 0
M  V30 5852 H 555.927 -0.352054 -3.78767 0
M  V30 5853 H 557.239 -0.242725 -4.98209 0
M  V30 5854 H 556.393 1.99074 -5.73109 0
M  V30 5855 H 555.132 1.95885 -4.46632 0
M  V30 5856 H 554.137 -0.102702 -5.49704 0
M  V30 5857 H 555.362 -0.0521607 -6.7908 0
M  V30 5858 H 553.308 2.11529 -6.2096 0
M  V30 5859 H 553.225 0.959934 -7.49881 0
M  V30 5860 H 554.493 2.14909 -7.49289 0
M  V30 5861 N 558.722 1.53707 -0.348139 0
M  V30 5862 C 559.97 2.00591 0.246478 0
M  V30 5863 C 560.291 1.23753 1.50699 0
M  V30 5864 O 559.561 0.345964 1.92821 0
M  V30 5865 H 558.141 0.741053 0.0940679 0
M  V30 5866 H 560.803 1.89139 -0.470354 0
M  V30 5867 H 559.899 3.08297 0.485714 0
M  V30 5868 N 560.2 0.0768682 1.57412 0
M  V30 5869 C 561.447 -0.591085 1.93681 0
M  V30 5870 C 561.775 -1.69311 0.957286 0
M  V30 5871 O 561.03 -1.95682 -0.0262428 0
M  V30 5872 C 561.329 -1.20268 3.36557 0
M  V30 5873 C 560.995 -0.226286 4.50332 0
M  V30 5874 C 559.657 0.0423142 4.81181 0
M  V30 5875 C 562.009 0.441415 5.19327 0
M  V30 5876 C 559.337 0.985616 5.78362 0
M  V30 5877 C 561.689 1.37307 6.17519 0
M  V30 5878 C 560.353 1.65009 6.46783 0
M  V30 5879 H 559.623 -0.216293 0.70873 0
M  V30 5880 H 562.27 0.148824 1.90921 0
M  V30 5881 H 560.575 -2.01844 3.35807 0
M  V30 5882 H 562.272 -1.72688 3.61911 0
M  V30 5883 H 558.862 -0.445821 4.26275 0
M  V30 5884 H 563.046 0.247023 4.95685 0
M  V30 5885 H 558.302 1.20743 5.99359 0
M  V30 5886 H 562.476 1.89637 6.70083 0
M  V30 5887 H 560.103 2.38263 7.21897 0
M  V30 5888 N 561.678 -1.56367 -0.196722 0
M  V30 5889 C 562.61 -1.90941 -1.26784 0
M  V30 5890 C 563.623 -0.799928 -1.41792 0
M  V30 5891 O 564.812 -1.07833 -1.42247 0
M  V30 5892 C 561.912 -2.12477 -2.6402 0
M  V30 5893 C 561.085 -3.43616 -2.70641 0
M  V30 5894 C 560.144 -3.54284 -3.89062 0
M  V30 5895 O 559.17 -4.2712 -3.76241 0
M  V30 5896 N 560.372 -2.87252 -5.04447 0
M  V30 5897 H 563.137 -2.83417 -0.974417 0
M  V30 5898 H 560.698 -1.57215 -0.386649 0
M  V30 5899 H 562.69 -2.16904 -3.41665 0
M  V30 5900 H 561.26 -1.26508 -2.85857 0
M  V30 5901 H 560.48 -3.51072 -1.79283 0
M  V30 5902 H 561.768 -4.29958 -2.72054 0
M  V30 5903 H 561.166 -2.27901 -5.17762 0
M  V30 5904 H 559.723 -2.97308 -5.80044 0
M  V30 5905 N 563.156 0.464375 -1.50603 0
M  V30 5906 C 564.088 1.57916 -1.66118 0
M  V30 5907 C 565.101 1.53497 -0.54246 0
M  V30 5908 O 566.29 1.58763 -0.815877 0
M  V30 5909 C 563.39 2.96809 -1.63577 0
M  V30 5910 C 562.563 3.26026 -2.91592 0
M  V30 5911 C 561.622 4.44506 -2.81604 0
M  V30 5912 O 560.648 4.44484 -3.55559 0
M  V30 5913 N 561.85 5.46549 -1.95614 0
M  V30 5914 H 564.615 1.45022 -2.62276 0
M  V30 5915 H 562.176 0.652903 -1.48151 0
M  V30 5916 H 564.168 3.74048 -1.54499 0
M  V30 5917 H 562.738 3.03438 -0.751262 0
M  V30 5918 H 561.958 2.37337 -3.14746 0
M  V30 5919 H 563.246 3.42361 -3.76386 0
M  V30 5920 H 562.644 5.49391 -1.34854 0
M  V30 5921 H 561.201 6.22746 -1.92435 0
M  V30 5922 N 564.634 1.40294 0.718013 0
M  V30 5923 C 565.581 1.40367 1.8321 0
M  V30 5924 C 566.551 0.260952 1.64037 0
M  V30 5925 O 567.736 0.458648 1.85205 0
M  V30 5926 C 564.876 1.26965 3.20895 0
M  V30 5927 C 563.989 2.50922 3.51656 0
M  V30 5928 C 563.124 2.29981 4.78834 0
M  V30 5929 C 562.163 3.49527 5.02491 0
M  V30 5930 N 561.3 3.27796 6.20882 0
M  V30 5931 H 566.14 2.35593 1.82482 0
M  V30 5932 H 563.677 1.17012 0.891444 0
M  V30 5933 H 565.635 1.17202 4.00399 0
M  V30 5934 H 564.265 0.353591 3.20858 0
M  V30 5935 H 563.317 2.71223 2.66725 0
M  V30 5936 H 564.629 3.39913 3.65048 0
M  V30 5937 H 563.783 2.17558 5.66351 0
M  V30 5938 H 562.522 1.38411 4.67647 0
M  V30 5939 H 561.527 3.6243 4.1343 0
M  V30 5940 H 562.752 4.42021 5.15553 0
M  V30 5941 H 560.698 2.38906 6.1095 0
M  V30 5942 H 560.615 4.10351 6.34939 0
M  V30 5943 H 561.883 3.19101 7.11193 0
M  V30 5944 N 566.112 -0.949982 1.2575 0
M  V30 5945 C 567.359 -1.69515 1.10774 0
M  V30 5946 C 567.687 -1.91316 -0.350479 0
M  V30 5947 O 566.942 -1.48515 -1.27443 0
M  V30 5948 C 567.241 -3.08039 1.81237 0
M  V30 5949 C 566.907 -3.06023 3.31151 0
M  V30 5950 C 565.569 -3.0518 3.72047 0
M  V30 5951 C 567.921 -2.98998 4.26907 0
M  V30 5952 C 565.249 -2.95067 5.07102 0
M  V30 5953 C 567.601 -2.90426 5.61992 0
M  V30 5954 C 566.265 -2.87922 6.0221 0
M  V30 5955 H 565.535 -0.6203 0.405351 0
M  V30 5956 H 568.182 -1.10953 1.56082 0
M  V30 5957 H 566.487 -3.70172 1.28373 0
M  V30 5958 H 568.184 -3.64526 1.67098 0
M  V30 5959 H 564.774 -3.07453 2.98614 0
M  V30 5960 H 568.958 -2.98764 3.963 0
M  V30 5961 H 564.214 -2.915 5.37436 0
M  V30 5962 H 568.388 -2.83952 6.35881 0
M  V30 5963 H 566.015 -2.79841 7.06819 0
M  V30 5964 N 567.59 -1.07411 -1.15328 0
M  V30 5965 C 568.818 -0.818782 -1.90009 0
M  V30 5966 C 569.233 0.628072 -1.78047 0
M  V30 5967 O 568.59 1.43085 -1.13282 0
M  V30 5968 C 568.641 -1.21874 -3.40337 0
M  V30 5969 O 568.362 -2.60883 -3.51954 0
M  V30 5970 C 569.863 -0.992796 -4.3204 0
M  V30 5971 H 567.083 -0.296007 -0.60218 0
M  V30 5972 H 569.627 -1.43073 -1.46117 0
M  V30 5973 H 567.782 -0.651103 -3.81889 0
M  V30 5974 H 568.196 -2.77216 -4.45255 0
M  V30 5975 H 569.67 -1.32215 -5.35932 0
M  V30 5976 H 570.147 0.0708331 -4.39143 0
M  V30 5977 H 570.753 -1.54537 -3.9623 0
M  V30 5978 N 569.068 1.32177 -0.85831 0
M  V30 5979 C 570.315 1.97125 -0.463484 0
M  V30 5980 C 570.643 1.67907 0.981705 0
M  V30 5981 O 569.898 0.961717 1.70439 0
M  V30 5982 C 570.197 3.51372 -0.653658 0
M  V30 5983 C 569.863 4.00584 -2.06987 0
M  V30 5984 C 568.525 4.13733 -2.4572 0
M  V30 5985 C 570.877 4.26624 -2.99402 0
M  V30 5986 C 568.205 4.50268 -3.76132 0
M  V30 5987 C 570.557 4.64618 -4.29316 0
M  V30 5988 C 569.221 4.75975 -4.67979 0
M  V30 5989 H 568.491 0.72133 -0.169601 0
M  V30 5990 H 571.138 1.57517 -1.08907 0
M  V30 5991 H 569.443 3.91761 0.0551328 0
M  V30 5992 H 571.14 3.99655 -0.328163 0
M  V30 5993 H 567.73 3.90837 -1.75911 0
M  V30 5994 H 571.914 4.1597 -2.70708 0
M  V30 5995 H 567.17 4.57256 -4.05865 0
M  V30 5996 H 571.344 4.83722 -5.00985 0
M  V30 5997 H 568.971 5.04041 -5.69076 0
M  V30 5998 N 570.547 0.616602 1.45037 0
M  V30 5999 C 571.497 -0.118543 2.27692 0
M  V30 6000 C 572.481 -0.830025 1.37838 0
M  V30 6001 O 573.673 -0.718528 1.6176 0
M  V30 6002 C 570.802 -1.10924 3.24886 0
M  V30 6003 C 569.888 -0.398134 4.22227 0
M  V30 6004 N 570.279 0.565233 5.02632 0
M  V30 6005 C 568.577 -0.644506 4.41319 0
M  V30 6006 C 569.278 0.984043 5.73316 0
M  V30 6007 N 568.254 0.325879 5.42622 0
M  V30 6008 H 572.056 0.621239 2.87259 0
M  V30 6009 H 569.57 0.440968 1.56299 0
M  V30 6010 H 571.567 -1.65038 3.82842 0
M  V30 6011 H 570.227 -1.84948 2.66879 0
M  V30 6012 H 571.238 0.942395 5.09254 0
M  V30 6013 H 567.915 -1.36873 3.94426 0
M  V30 6014 H 569.305 1.77911 6.47918 0
M  V30 6015 N 572.025 -1.5352 0.356285 0
M  V30 6016 C 573.25 -2.06007 -0.239961 0
M  V30 6017 C 573.675 -1.22872 -1.42422 0
M  V30 6018 O 573.033 -0.245516 -1.7963 0
M  V30 6019 C 573.081 -3.5522 -0.620587 0
M  V30 6020 O 572.185 -3.74864 -1.71902 0
M  V30 6021 H 571.526 -0.662961 -0.0371377 0
M  V30 6022 H 574.056 -1.98033 0.514194 0
M  V30 6023 H 574.066 -3.98081 -0.894197 0
M  V30 6024 H 572.741 -4.15175 0.245407 0
M  V30 6025 H 571.318 -3.43904 -1.44169 0
M  V30 6026 N 573.503 -0.0852151 -1.57369 0
M  V30 6027 C 574.45 0.877268 -2.13478 0
M  V30 6028 C 575.42 1.28642 -1.05073 0
M  V30 6029 O 576.605 1.36992 -1.32808 0
M  V30 6030 C 573.745 2.13464 -2.71159 0
M  V30 6031 C 572.858 1.77691 -3.93764 0
M  V30 6032 C 571.993 2.98139 -4.39643 0
M  V30 6033 C 571.032 2.58447 -5.54862 0
M  V30 6034 N 570.169 3.71698 -5.95639 0
M  V30 6035 H 575.009 0.391933 -2.95411 0
M  V30 6036 H 572.546 0.181796 -1.45972 0
M  V30 6037 H 574.504 2.87086 -3.02717 0
M  V30 6038 H 573.134 2.59514 -1.91969 0
M  V30 6039 H 572.186 0.940768 -3.68583 0
M  V30 6040 H 573.498 1.44497 -4.77412 0
M  V30 6041 H 572.652 3.80026 -4.72933 0
M  V30 6042 H 571.391 3.34536 -3.54876 0
M  V30 6043 H 570.396 1.74984 -5.21211 0
M  V30 6044 H 571.621 2.23205 -6.41371 0
M  V30 6045 H 569.567 4.07831 -5.13819 0
M  V30 6046 H 569.484 3.42317 -6.74059 0
M  V30 6047 H 570.752 4.54123 -6.33555 0
M  V30 6048 N 574.981 1.5647 0.188427 0
M  V30 6049 C 575.891 1.98285 1.2538 0
M  V30 6050 C 576.907 0.891535 1.49424 0
M  V30 6051 O 578.083 1.19782 1.61908 0
M  V30 6052 C 575.148 2.31965 2.57669 0
M  V30 6053 C 574.209 3.54838 2.41638 0
M  V30 6054 C 573.442 3.86901 3.67618 0
M  V30 6055 O 573.665 3.20163 4.72072 0
M  V30 6056 O 572.599 4.80309 3.62749 0
M  V30 6057 H 576.425 2.89145 0.928912 0
M  V30 6058 H 574.01 1.44112 0.393955 0
M  V30 6059 H 575.892 2.54673 3.35737 0
M  V30 6060 H 574.567 1.44271 2.89771 0
M  V30 6061 H 573.474 3.37369 1.61658 0
M  V30 6062 H 574.807 4.43019 2.14465 0
M  V30 6063 N 576.459 -0.456382 1.50847 0
M  V30 6064 C 577.708 -1.2042 1.61808 0
M  V30 6065 C 578.021 -1.9278 0.330932 0
M  V30 6066 O 579.227 -2.69612 0.319643 0
M  V30 6067 C 577.683 -2.18891 2.85683 0
M  V30 6068 C 577.291 -1.52267 4.2133 0
M  V30 6069 C 579.035 -2.94224 3.05994 0
M  V30 6070 C 576.942 -2.4911 5.36375 0
M  V30 6071 H 575.872 -0.453177 0.602616 0
M  V30 6072 H 578.523 -0.473144 1.77295 0
M  V30 6073 H 576.905 -2.95351 2.63787 0
M  V30 6074 H 578.079 -0.814949 4.53536 0
M  V30 6075 H 576.394 -0.891594 4.06743 0
M  V30 6076 H 578.991 -3.66732 3.89117 0
M  V30 6077 H 579.334 -3.54469 2.18306 0
M  V30 6078 H 579.867 -2.24874 3.28141 0
M  V30 6079 H 576.606 -1.93582 6.26264 0
M  V30 6080 H 576.126 -3.17991 5.08569 0
M  V30 6081 H 577.805 -3.10637 5.67551 0
M  V30 6082 N 577.937 -1.40673 -0.710563 0
M  V30 6083 C 579.183 -1.39428 -1.47267 0
M  V30 6084 C 579.516 0.00182129 -1.942 0
M  V30 6085 O 578.791 0.971387 -1.68506 0
M  V30 6086 C 579.074 -2.38812 -2.6952 0
M  V30 6087 C 578.927 -3.87467 -2.28449 0
M  V30 6088 C 580.246 -2.3566 -3.71689 0
M  V30 6089 H 577.365 -0.507768 -0.534173 0
M  V30 6090 H 580.007 -1.71843 -0.810547 0
M  V30 6091 H 578.157 -2.113 -3.26013 0
M  V30 6092 H 579.829 -4.25825 -1.77399 0
M  V30 6093 H 578.072 -4.03058 -1.60395 0
M  V30 6094 H 578.743 -4.5253 -3.16103 0
M  V30 6095 H 581.219 -2.6004 -3.24836 0
M  V30 6096 H 580.095 -3.07237 -4.54859 0
M  V30 6097 H 580.356 -1.36996 -4.20339 0
M  V30 6098 N 579.415 0.9433 -1.26252 0
M  V30 6099 C 580.378 2.02326 -1.07689 0
M  V30 6100 C 581.378 1.60779 -0.0259174 0
M  V30 6101 O 582.568 1.72108 -0.269134 0
M  V30 6102 C 579.7 3.34886 -0.63752 0
M  V30 6103 H 580.893 2.20225 -2.0357 0
M  V30 6104 H 578.446 1.12197 -1.08819 0
M  V30 6105 H 579.181 3.22684 0.323377 0
M  V30 6106 H 578.966 3.66393 -1.39637 0
M  V30 6107 H 580.456 4.14231 -0.529418 0
M  V30 6108 N 580.893 1.08022 1.14757 0
M  V30 6109 C 582.142 0.802468 1.8505 0
M  V30 6110 C 582.455 -0.674061 1.83619 0
M  V30 6111 O 583.661 -1.06683 2.49662 0
M  V30 6112 C 582.117 1.38551 3.32162 0
M  V30 6113 C 581.725 2.89354 3.42021 0
M  V30 6114 C 583.469 1.18608 4.07594 0
M  V30 6115 C 581.376 3.40815 4.83321 0
M  V30 6116 H 580.306 0.296518 0.693248 0
M  V30 6117 H 582.957 1.30114 1.29393 0
M  V30 6118 H 581.339 0.814556 3.87532 0
M  V30 6119 H 582.513 3.52552 2.96722 0
M  V30 6120 H 580.828 3.08165 2.80041 0
M  V30 6121 H 583.425 1.54525 5.11885 0
M  V30 6122 H 583.768 0.125599 4.1611 0
M  V30 6123 H 584.301 1.72375 3.58513 0
M  V30 6124 H 581.04 4.46418 4.79991 0
M  V30 6125 H 580.56 2.82374 5.29174 0
M  V30 6126 H 582.239 3.37171 5.522 0
M  V30 6127 N 582.371 -1.3172 0.865308 0
M  V30 6128 C 583.596 -2.01591 0.487415 0
M  V30 6129 C 584.021 -1.6455 -0.911307 0
M  V30 6130 O 583.379 -0.851689 -1.6005 0
M  V30 6131 C 583.427 -3.54759 0.646401 0
M  V30 6132 O 582.531 -4.11185 -0.316284 0
M  V30 6133 H 581.872 -0.634884 0.194468 0
M  V30 6134 H 584.402 -1.68024 1.16744 0
M  V30 6135 H 584.412 -4.04438 0.537932 0
M  V30 6136 H 583.087 -3.8106 1.66632 0
M  V30 6137 H 581.664 -3.72543 -0.163162 0
M  V30 6138 N 583.85 -0.624285 -1.44708 0
M  V30 6139 C 585.09 -0.129273 -2.03991 0
M  V30 6140 C 585.454 1.22321 -1.47992 0
M  V30 6141 O 586.654 1.80993 -1.98734 0
M  V30 6142 C 584.926 -0.108231 -3.57236 0
M  V30 6143 S 586.485 0.323158 -4.37608 0
M  V30 6144 H 583.303 -0.0577318 -0.708652 0
M  V30 6145 H 585.904 -0.826139 -1.77187 0
M  V30 6146 H 584.609 -1.0958 -3.955 0
M  V30 6147 H 584.139 0.610101 -3.8864 0
M  V30 6148 H 586.154 1.56894 -4.70743 0
M  V30 6149 N 585.328 1.53329 -0.364422 0
M  V30 6150 C 586.553 2.06132 0.229033 0
M  V30 6151 C 586.978 1.23625 1.41769 0
M  V30 6152 O 586.336 0.255038 1.79497 0
M  V30 6153 C 586.384 3.55544 0.60174 0
M  V30 6154 O 585.488 3.75771 1.69912 0
M  V30 6155 H 584.829 0.663148 0.0336213 0
M  V30 6156 H 587.359 1.97758 -0.524689 0
M  V30 6157 H 587.369 3.98549 0.873073 0
M  V30 6158 H 586.044 4.15039 -0.267421 0
M  V30 6159 H 584.621 3.44663 1.42343 0
M  V30 6160 N 586.806 0.0935595 1.57322 0
M  V30 6161 C 588.052 -0.565234 1.95388 0
M  V30 6162 C 588.407 -1.65888 0.974632 0
M  V30 6163 O 587.7 -1.916 0.000376385 0
M  V30 6164 C 587.894 -1.16692 3.37813 0
M  V30 6165 C 587.723 -0.133091 4.49503 0
M  V30 6166 C 586.493 0.289884 5.04468 0
M  V30 6167 C 588.691 0.638141 5.10326 0
M  V30 6168 N 586.673 1.31214 5.99713 0
M  V30 6169 C 588.044 1.51227 6.01274 0
M  V30 6170 C 590.099 0.691827 4.9307 0
M  V30 6171 C 588.802 2.43536 6.76818 0
M  V30 6172 C 590.828 1.60251 5.69274 0
M  V30 6173 C 590.19 2.46427 6.59889 0
M  V30 6174 H 586.289 -0.177212 0.761656 0
M  V30 6175 H 588.873 0.175769 1.93905 0
M  V30 6176 H 587.044 -1.87775 3.39993 0
M  V30 6177 H 588.776 -1.78795 3.63063 0
M  V30 6178 H 585.531 -0.0975541 4.735 0
M  V30 6179 H 585.955 1.82143 6.52038 0
M  V30 6180 H 590.597 0.0397431 4.22781 0
M  V30 6181 H 588.315 3.0977 7.4637 0
M  V30 6182 H 591.901 1.64917 5.57937 0
M  V30 6183 H 590.781 3.15751 7.17824 0
M  V30 6184 N 588.284 -1.56567 -0.180126 0
M  V30 6185 C 589.524 -1.83285 -0.904761 0
M  V30 6186 C 589.888 -0.673226 -1.7981 0
M  V30 6187 O 591.089 -0.820645 -2.55967 0
M  V30 6188 C 589.36 -3.15086 -1.68688 0
M  V30 6189 S 590.919 -3.63258 -2.46149 0
M  V30 6190 H 587.737 -0.643114 -0.303193 0
M  V30 6191 H 590.339 -1.94785 -0.167034 0
M  V30 6192 H 589.043 -3.97484 -1.02148 0
M  V30 6193 H 588.574 -3.06504 -2.46615 0
M  V30 6194 H 590.589 -3.29884 -3.70663 0
M  V30 6195 N 589.762 0.448376 -1.51087 0
M  V30 6196 C 590.709 1.54341 -1.71603 0
M  V30 6197 C 591.679 1.56463 -0.557536 0
M  V30 6198 O 592.864 1.73644 -0.79072 0
M  V30 6199 C 590.004 2.92148 -1.83695 0
M  V30 6200 C 589.117 2.99639 -3.11192 0
M  V30 6201 C 588.252 4.285 -3.13944 0
M  V30 6202 C 587.291 4.29819 -4.35801 0
M  V30 6203 N 586.428 5.50186 -4.36164 0
M  V30 6204 H 591.268 1.36151 -2.65079 0
M  V30 6205 H 588.805 0.661585 -1.31383 0
M  V30 6206 H 590.763 3.72093 -1.88687 0
M  V30 6207 H 589.393 3.0892 -0.936374 0
M  V30 6208 H 588.445 2.12425 -3.15562 0
M  V30 6209 H 589.757 2.96474 -4.01129 0
M  V30 6210 H 588.911 5.16811 -3.17791 0
M  V30 6211 H 587.65 4.34307 -2.21876 0
M  V30 6212 H 586.655 3.39902 -4.32142 0
M  V30 6213 H 587.88 4.25685 -5.29121 0
M  V30 6214 H 585.826 5.56735 -3.46961 0
M  V30 6215 H 585.743 5.48856 -5.19897 0
M  V30 6216 H 587.011 6.40559 -4.44189 0
M  V30 6217 N 591.24 1.41047 0.703093 0
M  V30 6218 C 592.172 1.38228 1.82827 0
M  V30 6219 C 593.185 0.285637 1.60275 0
M  V30 6220 O 594.374 0.54685 1.69917 0
M  V30 6221 C 591.474 1.13136 3.19458 0
M  V30 6222 C 590.647 2.34695 3.69103 0
M  V30 6223 C 589.706 2.05574 4.84382 0
M  V30 6224 O 588.732 2.78549 4.96386 0
M  V30 6225 N 589.934 1.04135 5.71083 0
M  V30 6226 H 592.699 2.35203 1.85741 0
M  V30 6227 H 590.26 1.35562 0.885125 0
M  V30 6228 H 592.252 0.916183 3.94193 0
M  V30 6229 H 590.822 0.247836 3.11616 0
M  V30 6230 H 590.042 2.71963 2.85359 0
M  V30 6231 H 591.33 3.15705 3.99009 0
M  V30 6232 H 590.728 0.43722 5.64008 0
M  V30 6233 H 589.285 0.886078 6.45749 0
M  V30 6234 N 592.718 -0.936591 1.26751 0
M  V30 6235 C 593.681 -2.01752 1.08761 0
M  V30 6236 C 594.681 -1.60763 0.0344435 0
M  V30 6237 O 595.871 -1.71963 0.278258 0
M  V30 6238 C 593.003 -3.34543 0.655271 0
M  V30 6239 H 594.196 -2.19143 2.04735 0
M  V30 6240 H 591.749 -1.11618 1.09413 0
M  V30 6241 H 592.484 -3.22851 -0.30626 0
M  V30 6242 H 592.269 -3.65647 1.41578 0
M  V30 6243 H 593.759 -4.13944 0.551378 0
M  V30 6244 N 594.196 -1.08629 -1.14182 0
M  V30 6245 C 595.426 -0.837673 -1.88856 0
M  V30 6246 C 595.834 0.614024 -1.78959 0
M  V30 6247 O 595.177 1.43384 -1.14833 0
M  V30 6248 C 595.239 -1.18355 -3.39459 0
M  V30 6249 C 594.903 -2.63848 -3.73139 0
M  V30 6250 C 595.9 -3.62099 -3.73069 0
M  V30 6251 C 593.585 -2.99761 -4.03049 0
M  V30 6252 C 595.579 -4.94292 -4.02435 0
M  V30 6253 C 593.266 -4.32147 -4.32078 0
M  V30 6254 C 594.264 -5.29223 -4.31755 0
M  V30 6255 O 593.952 -6.59229 -4.60079 0
M  V30 6256 H 593.684 -0.301609 -0.604986 0
M  V30 6257 H 596.238 -1.44961 -1.45518 0
M  V30 6258 H 594.468 -0.514628 -3.8326 0
M  V30 6259 H 596.157 -0.915391 -3.95443 0
M  V30 6260 H 596.923 -3.35698 -3.50046 0
M  V30 6261 H 592.802 -2.2484 -4.02453 0
M  V30 6262 H 596.346 -5.70055 -4.02098 0
M  V30 6263 H 592.243 -4.58296 -4.54571 0
M  V30 6264 H 593.011 -6.64578 -4.77785 0
M  V30 6265 N 595.674 1.31259 -0.872281 0
M  V30 6266 C 596.624 2.26 -0.301295 0
M  V30 6267 C 597.608 1.50729 0.562991 0
M  V30 6268 O 598.8 1.72198 0.40949 0
M  V30 6269 C 595.929 3.39724 0.494227 0
M  V30 6270 C 595.015 4.22363 -0.383432 0
M  V30 6271 N 595.406 4.83724 -1.47799 0
M  V30 6272 C 593.704 4.45652 -0.176278 0
M  V30 6273 C 594.405 5.45523 -2.01939 0
M  V30 6274 N 593.381 5.27428 -1.31608 0
M  V30 6275 H 597.183 2.70981 -1.13782 0
M  V30 6276 H 594.697 1.45552 -0.720294 0
M  V30 6277 H 596.694 4.06626 0.919828 0
M  V30 6278 H 595.354 2.96286 1.32834 0
M  V30 6279 H 596.365 4.83313 -1.8609 0
M  V30 6280 H 593.042 4.12845 0.621698 0
M  V30 6281 H 594.432 6.04268 -2.93786 0
M  V30 6282 N 597.152 0.631951 1.44375 0
M  V30 6283 C 598.377 0.142146 2.06912 0
M  V30 6284 C 598.802 -1.17456 1.4692 0
M  V30 6285 O 598.16 -1.72074 0.570975 0
M  V30 6286 C 598.208 0.0417952 3.60576 0
M  V30 6287 O 597.312 -1.00194 4.00044 0
M  V30 6288 H 596.653 0.0851491 0.658518 0
M  V30 6289 H 599.183 0.868863 1.85235 0
M  V30 6290 H 599.193 -0.148517 4.0773 0
M  V30 6291 H 597.868 1.0031 4.03622 0
M  V30 6292 H 596.445 -0.786131 3.64519 0
M  V30 6293 N 598.631 -1.53133 0.372548 0
M  V30 6294 C 599.578 -2.25951 -0.470631 0
M  V30 6295 C 600.548 -1.26895 -1.07176 0
M  V30 6296 O 601.733 -1.55691 -1.10294 0
M  V30 6297 C 598.873 -3.05726 -1.6008 0
M  V30 6298 C 597.986 -4.19684 -1.02416 0
M  V30 6299 C 597.121 -4.86888 -2.124 0
M  V30 6300 C 596.16 -5.92866 -1.52238 0
M  V30 6301 N 595.297 -6.53732 -2.56084 0
M  V30 6302 H 600.137 -2.97587 0.156816 0
M  V30 6303 H 597.674 -1.4683 0.0891571 0
M  V30 6304 H 599.632 -3.50258 -2.26661 0
M  V30 6305 H 598.262 -2.36331 -2.1988 0
M  V30 6306 H 597.314 -3.79588 -0.248426 0
M  V30 6307 H 598.626 -4.95821 -0.544366 0
M  V30 6308 H 597.78 -5.34638 -2.86787 0
M  V30 6309 H 596.519 -4.10239 -2.63734 0
M  V30 6310 H 595.524 -5.4447 -0.763685 0
M  V30 6311 H 596.749 -6.71439 -1.0172 0
M  V30 6312 H 594.695 -5.79932 -3.06618 0
M  V30 6313 H 594.612 -7.25429 -2.12811 0
M  V30 6314 H 595.88 -7.0613 -3.30152 0
M  V30 6315 N 600.109 -0.101901 -1.5727 0
M  V30 6316 C 601.355 0.561027 -1.94885 0
M  V30 6317 C 601.688 1.6741 -0.984258 0
M  V30 6318 O 600.963 1.94491 -0.0184767 0
M  V30 6319 C 601.246 1.10982 -3.42571 0
M  V30 6320 C 601.099 0.00133418 -4.498 0
M  V30 6321 C 602.418 2.00608 -3.9172 0
M  V30 6322 H 599.537 0.202467 -0.708644 0
M  V30 6323 H 602.179 -0.173992 -1.89202 0
M  V30 6324 H 600.329 1.73621 -3.47546 0
M  V30 6325 H 602.001 -0.63322 -4.56933 0
M  V30 6326 H 600.244 -0.664143 -4.28686 0
M  V30 6327 H 600.915 0.426253 -5.50352 0
M  V30 6328 H 603.391 1.47864 -3.88941 0
M  V30 6329 H 602.267 2.3593 -4.95609 0
M  V30 6330 H 602.528 2.92608 -3.3141 0
M  V30 6331 N 601.587 1.56661 0.17182 0
M  V30 6332 C 602.812 1.86459 0.908165 0
M  V30 6333 C 603.237 0.688181 1.75059 0
M  V30 6334 O 602.595 -0.362753 1.77634 0
M  V30 6335 C 602.643 3.14669 1.76112 0
M  V30 6336 O 601.747 2.96858 2.86268 0
M  V30 6337 H 601.088 0.613318 0.254434 0
M  V30 6338 H 603.618 2.03892 0.170113 0
M  V30 6339 H 603.628 3.46061 2.16115 0
M  V30 6340 H 602.303 3.99905 1.14233 0
M  V30 6341 H 600.88 2.76819 2.49852 0
M  V30 6342 N 603.065 -0.440357 1.51323 0
M  V30 6343 C 604.305 -1.19956 1.65499 0
M  V30 6344 C 604.669 -1.88559 0.361878 0
M  V30 6345 O 605.87 -2.66109 0.379383 0
M  V30 6346 C 604.141 -2.1918 2.82303 0
M  V30 6347 S 605.7 -3.03627 3.1679 0
M  V30 6348 H 602.518 -0.406833 0.583102 0
M  V30 6349 H 605.12 -0.491596 1.89218 0
M  V30 6350 H 603.824 -1.67414 3.74701 0
M  V30 6351 H 603.355 -2.94561 2.60763 0
M  V30 6352 H 605.37 -4.20773 2.62991 0
M  V30 6353 N 604.543 -1.41418 -0.695603 0
M  V30 6354 C 605.79 -1.40774 -1.45564 0
M  V30 6355 C 606.118 -0.0168604 -1.94493 0
M  V30 6356 O 605.373 0.971259 -1.69897 0
M  V30 6357 C 605.672 -2.36112 -2.68302 0
M  V30 6358 C 605.338 -3.82952 -2.38031 0
M  V30 6359 C 604 -4.22954 -2.29486 0
M  V30 6360 C 606.352 -4.75662 -2.13061 0
M  V30 6361 C 603.68 -5.53674 -1.94067 0
M  V30 6362 C 606.032 -6.06702 -1.79151 0
M  V30 6363 C 604.696 -6.45725 -1.69102 0
M  V30 6364 H 603.966 -0.515128 -0.532658 0
M  V30 6365 H 606.613 -1.74216 -0.795047 0
M  V30 6366 H 604.918 -1.95924 -3.39295 0
M  V30 6367 H 606.615 -2.32887 -3.26442 0
M  V30 6368 H 603.205 -3.5127 -2.45576 0
M  V30 6369 H 607.389 -4.45561 -2.18608 0
M  V30 6370 H 602.645 -5.8279 -1.8484 0
M  V30 6371 H 606.819 -6.78041 -1.5885 0
M  V30 6372 H 604.446 -7.46929 -1.41426 0
M  V30 6373 N 606.021 0.929856 -1.27246 0
M  V30 6374 C 606.954 2.03069 -1.04106 0
M  V30 6375 C 607.932 1.62556 0.0378417 0
M  V30 6376 O 609.116 1.88197 -0.106869 0
M  V30 6377 C 606.243 3.33718 -0.578778 0
M  V30 6378 C 605.289 3.93209 -1.65193 0
M  V30 6379 S 606.122 4.26068 -3.24386 0
M  V30 6380 C 607.278 5.598 -2.79954 0
M  V30 6381 H 607.511 2.22386 -1.97311 0
M  V30 6382 H 605.044 1.07269 -1.11053 0
M  V30 6383 H 607.002 4.09261 -0.31874 0
M  V30 6384 H 605.663 3.12328 0.333182 0
M  V30 6385 H 604.856 4.87482 -1.27973 0
M  V30 6386 H 604.458 3.24243 -1.86393 0
M  V30 6387 H 606.75 6.39004 -2.25123 0
M  V30 6388 H 607.693 6.01917 -3.72963 0
M  V30 6389 H 608.101 5.20219 -2.19164 0
M  V30 6390 N 607.499 1.09233 1.13605 0
M  V30 6391 C 608.429 0.751738 2.21068 0
M  V30 6392 C 609.41 -0.269688 1.67948 0
M  V30 6393 O 610.595 -0.13819 1.93708 0
M  V30 6394 C 607.725 0.16935 3.46887 0
M  V30 6395 C 606.679 1.12007 4.13084 0
M  V30 6396 C 606.005 0.399483 5.33206 0
M  V30 6397 C 607.305 2.46168 4.6065 0
M  V30 6398 H 608.999 1.65024 2.49815 0
M  V30 6399 H 606.545 0.794905 1.20072 0
M  V30 6400 H 608.498 -0.0809824 4.21322 0
M  V30 6401 H 607.222 -0.764335 3.1753 0
M  V30 6402 H 605.881 1.35564 3.40614 0
M  V30 6403 H 605.529 -0.538277 5.00112 0
M  V30 6404 H 605.229 1.03337 5.78442 0
M  V30 6405 H 606.753 0.157403 6.10397 0
M  V30 6406 H 608.167 2.26829 5.26518 0
M  V30 6407 H 606.564 3.05326 5.1662 0
M  V30 6408 H 607.634 3.07076 3.75276 0
M  V30 6409 N 608.977 -1.30795 0.87923 0
M  V30 6410 C 609.909 -2.27241 0.299025 0
M  V30 6411 C 610.922 -1.53472 -0.543166 0
M  V30 6412 O 612.111 -1.74756 -0.363651 0
M  V30 6413 C 609.211 -3.33655 -0.593931 0
M  V30 6414 C 608.384 -4.36857 0.2179 0
M  V30 6415 C 607.443 -5.22715 -0.604646 0
M  V30 6416 O 606.469 -5.69192 -0.0293838 0
M  V30 6417 N 607.671 -5.48008 -1.91488 0
M  V30 6418 H 610.436 -2.77667 1.12788 0
M  V30 6419 H 607.997 -1.43914 0.741637 0
M  V30 6420 H 609.989 -3.88013 -1.15012 0
M  V30 6421 H 608.559 -2.83202 -1.32346 0
M  V30 6422 H 607.779 -3.82444 0.955536 0
M  V30 6423 H 609.067 -5.02869 0.774614 0
M  V30 6424 H 608.465 -5.1202 -2.40525 0
M  V30 6425 H 607.022 -6.05264 -2.41864 0
M  V30 6426 N 610.455 -0.639598 -1.44038 0
M  V30 6427 C 611.387 0.0987684 -2.28987 0
M  V30 6428 C 612.4 0.80058 -1.41755 0
M  V30 6429 O 613.589 0.660611 -1.65826 0
M  V30 6430 C 610.689 1.16242 -3.18341 0
M  V30 6431 C 609.862 0.541447 -4.34036 0
M  V30 6432 C 608.921 1.50017 -5.04362 0
M  V30 6433 O 607.947 1.01403 -5.60095 0
M  V30 6434 N 609.149 2.83441 -5.06598 0
M  V30 6435 H 611.914 -0.630305 -2.92997 0
M  V30 6436 H 609.475 -0.481376 -1.54578 0
M  V30 6437 H 611.467 1.80429 -3.62253 0
M  V30 6438 H 610.037 1.79362 -2.56024 0
M  V30 6439 H 609.257 -0.27923 -3.9321 0
M  V30 6440 H 610.545 0.107379 -5.08687 0
M  V30 6441 H 609.943 3.2551 -4.62666 0
M  V30 6442 H 608.5 3.42966 -5.54272 0
M  V30 6443 N 611.933 1.52934 -0.380664 0
M  V30 6444 C 613.182 2.00651 0.205477 0
M  V30 6445 C 613.495 1.27164 1.48623 0
M  V30 6446 O 614.701 1.65547 2.15189 0
M  V30 6447 C 613.157 3.57479 0.416726 0
M  V30 6448 C 612.765 4.39857 -0.850268 0
M  V30 6449 C 614.509 4.13509 0.959702 0
M  V30 6450 C 612.416 5.88269 -0.607773 0
M  V30 6451 H 611.346 0.749684 0.0805614 0
M  V30 6452 H 613.997 1.76508 -0.501732 0
M  V30 6453 H 612.379 3.77836 1.18557 0
M  V30 6454 H 613.553 4.31269 -1.62307 0
M  V30 6455 H 611.868 3.95005 -1.31756 0
M  V30 6456 H 614.465 5.22039 1.15669 0
M  V30 6457 H 614.808 3.69054 1.92626 0
M  V30 6458 H 615.341 3.9701 0.250645 0
M  V30 6459 H 612.08 6.3703 -1.54509 0
M  V30 6460 H 611.6 5.99667 0.126247 0
M  V30 6461 H 613.279 6.46558 -0.239014 0
M  V30 6462 N 613.412 0.11024 1.57214 0
M  V30 6463 C 614.322 -0.857077 2.18383 0
M  V30 6464 C 615.338 -1.29915 1.1575 0
M  V30 6465 O 616.514 -1.36394 1.48184 0
M  V30 6466 C 613.579 -2.09264 2.76423 0
M  V30 6467 C 612.64 -1.70333 3.94063 0
M  V30 6468 C 611.873 -2.87999 4.49324 0
M  V30 6469 O 612.096 -4.0317 4.03497 0
M  V30 6470 O 611.03 -2.6559 5.40135 0
M  V30 6471 H 614.856 -0.366561 3.0148 0
M  V30 6472 H 612.441 -0.114914 1.48957 0
M  V30 6473 H 614.323 -2.81644 3.13456 0
M  V30 6474 H 612.998 -2.57339 1.96363 0
M  V30 6475 H 611.905 -0.950864 3.61814 0
M  V30 6476 H 613.238 -1.27007 4.75531 0
M  V30 6477 N 614.89 -1.56749 -0.16351 0
M  V30 6478 C 615.8 -2.00255 -1.2221 0
M  V30 6479 C 616.816 -0.915194 -1.47987 0
M  V30 6480 O 617.992 -1.22342 -1.59982 0
M  V30 6481 C 615.057 -2.36035 -2.53946 0
M  V30 6482 C 614.118 -3.58637 -2.35962 0
M  V30 6483 C 613.351 -3.92701 -3.61416 0
M  V30 6484 O 613.574 -3.27632 -4.66919 0
M  V30 6485 O 612.508 -4.86019 -3.55062 0
M  V30 6486 H 616.334 -2.90586 -0.882794 0
M  V30 6487 H 613.919 -1.44721 -0.370978 0
M  V30 6488 H 615.801 -2.59982 -3.31643 0
M  V30 6489 H 614.476 -1.48863 -2.8744 0
M  V30 6490 H 613.383 -3.39898 -1.5627 0
M  V30 6491 H 614.716 -4.46374 -2.0739 0
M  V30 6492 N 616.368 0.432326 -1.51554 0
M  V30 6493 C 617.779 1.01202 -1.56892 0
M  V30 6494 C 618.13 1.92175 -0.395394 0
M  V30 6495 O 617.255 2.10844 0.487198 0
M  V30 6496 C 617.85 1.84217 -2.8434 0
M  V30 6497 C 616.409 2.37228 -2.92233 0
M  V30 6498 C 615.556 1.16576 -2.51606 0
M  V30 6499 H 618.507 0.213407 -1.57259 0
M  V30 6500 H 618.528 2.69721 -2.68385 0
M  V30 6501 H 618.04 1.17979 -3.69733 0
M  V30 6502 H 616.141 3.06905 -2.11282 0
M  V30 6503 H 616.254 2.69682 -3.95991 0
M  V30 6504 H 614.618 1.51263 -2.04919 0
M  V30 6505 H 615.401 0.519404 -3.39348 0
M  V30 6506 N 617.846 1.41785 0.688094 0
M  V30 6507 C 619.086 1.43018 1.46032 0
M  V30 6508 C 619.45 0.0402632 1.91958 0
M  V30 6509 O 620.651 -0.0726425 2.68702 0
M  V30 6510 C 618.922 2.4151 2.63453 0
M  V30 6511 S 620.481 2.61335 3.5249 0
M  V30 6512 H 617.299 0.506546 0.498931 0
M  V30 6513 H 619.901 1.78283 0.80221 0
M  V30 6514 H 618.605 3.41286 2.27929 0
M  V30 6515 H 618.136 2.07624 3.34149 0
M  V30 6516 H 620.151 1.88637 4.58945 0
M  V30 6517 N 619.324 -0.923095 1.27737 0
M  V30 6518 C 620.549 -1.71054 1.17283 0
M  V30 6519 C 620.974 -1.86208 -0.266153 0
M  V30 6520 O 620.332 -1.36545 -1.1927 0
M  V30 6521 C 620.38 -3.0854 1.86642 0
M  V30 6522 O 619.484 -3.95528 1.16752 0
M  V30 6523 H 618.825 -0.524136 0.407649 0
M  V30 6524 H 621.355 -1.15487 1.6889 0
M  V30 6525 H 621.365 -3.58828 1.94182 0
M  V30 6526 H 620.04 -2.96828 2.91317 0
M  V30 6527 H 618.617 -3.53967 1.17312 0
M  V30 6528 N 620.802 -1.09834 -1.13024 0
M  V30 6529 C 621.732 -0.763451 -2.20666 0
M  V30 6530 C 622.713 0.260778 -1.68089 0
M  V30 6531 O 623.898 0.127915 -1.93778 0
M  V30 6532 C 621.028 -0.187744 -3.46792 0
M  V30 6533 C 619.982 -1.14196 -4.12484 0
M  V30 6534 C 619.308 -0.427755 -5.32986 0
M  V30 6535 C 620.608 -2.48607 -4.59338 0
M  V30 6536 H 622.302 -1.66347 -2.48936 0
M  V30 6537 H 619.848 -0.801261 -1.19649 0
M  V30 6538 H 621.801 0.0586375 -4.21359 0
M  V30 6539 H 620.525 0.747485 -3.17931 0
M  V30 6540 H 619.184 -1.37369 -3.3989 0
M  V30 6541 H 618.832 0.511747 -5.0039 0
M  V30 6542 H 618.532 -1.06403 -5.77886 0
M  V30 6543 H 620.056 -0.189772 -6.10305 0
M  V30 6544 H 621.47 -2.29618 -5.25308 0
M  V30 6545 H 619.867 -3.08062 -5.14993 0
M  V30 6546 H 620.937 -3.09062 -3.73642 0
M  V30 6547 N 622.28 1.30327 -0.886154 0
M  V30 6548 C 623.528 1.9571 -0.504195 0
M  V30 6549 C 623.849 1.70294 0.950003 0
M  V30 6550 O 623.119 1.02718 1.66811 0
M  V30 6551 H 621.699 0.72412 -0.183465 0
M  V30 6552 H 624.361 1.58835 -1.12949 0
M  V30 6553 H 623.457 3.04704 -0.675431 0
M  V30 6554 N 623.758 0.647228 1.43697 0
M  V30 6555 C 625.004 0.158422 2.0218 0
M  V30 6556 C 625.337 -1.22233 1.50907 0
M  V30 6557 O 624.612 -1.81478 0.699702 0
M  V30 6558 C 624.895 0.1627 3.59732 0
M  V30 6559 C 624.748 1.57694 4.21251 0
M  V30 6560 C 626.067 -0.504138 4.37203 0
M  V30 6561 H 623.186 0.059042 0.734631 0
M  V30 6562 H 625.828 0.826772 1.71069 0
M  V30 6563 H 623.978 -0.406414 3.86368 0
M  V30 6564 H 625.65 2.19618 4.05667 0
M  V30 6565 H 623.893 2.12603 3.7813 0
M  V30 6566 H 624.564 1.53183 5.3032 0
M  V30 6567 H 627.04 -0.0199841 4.16095 0
M  V30 6568 H 625.916 -0.470394 5.46881 0
M  V30 6569 H 626.177 -1.57726 4.13007 0
M  V30 6570 N 625.236 -1.5273 0.388769 0
M  V30 6571 C 626.186 -2.23238 -0.463567 0
M  V30 6572 C 627.17 -1.23606 -1.03007 0
M  V30 6573 O 628.362 -1.48945 -0.956261 0
M  V30 6574 C 625.491 -3.04228 -1.5906 0
M  V30 6575 C 624.577 -4.11255 -1.03587 0
M  V30 6576 N 624.968 -5.0538 -0.206038 0
M  V30 6577 C 623.266 -4.26376 -1.30841 0
M  V30 6578 C 623.967 -5.81613 0.100359 0
M  V30 6579 N 622.943 -5.41264 -0.503447 0
M  V30 6580 H 626.745 -2.93367 0.176978 0
M  V30 6581 H 624.259 -1.61188 0.198046 0
M  V30 6582 H 626.256 -3.53277 -2.21362 0
M  V30 6583 H 624.916 -2.35634 -2.23398 0
M  V30 6584 H 625.927 -5.17663 0.156659 0
M  V30 6585 H 622.604 -3.69011 -1.95287 0
M  V30 6586 H 623.994 -6.67442 0.772676 0
M  V30 6587 N 626.714 -0.118576 -1.57153 0
M  V30 6588 C 627.677 0.817464 -2.14127 0
M  V30 6589 C 628.677 1.1949 -1.07604 0
M  V30 6590 O 629.867 1.12048 -1.33382 0
M  V30 6591 C 626.999 2.10541 -2.68115 0
M  V30 6592 H 628.192 0.322339 -2.98163 0
M  V30 6593 H 625.745 0.130655 -1.55753 0
M  V30 6594 H 626.48 2.64485 -1.87665 0
M  V30 6595 H 626.265 1.84425 -3.4602 0
M  V30 6596 H 627.755 2.77453 -3.12105 0
M  V30 6597 N 628.193 1.56834 0.155195 0
M  V30 6598 C 629.156 1.96748 1.17571 0
M  V30 6599 C 630.156 0.853006 1.3631 0
M  V30 6600 O 631.346 1.11978 1.33441 0
M  V30 6601 C 628.478 2.27631 2.53765 0
M  V30 6602 H 629.671 2.88085 0.833498 0
M  V30 6603 H 627.224 1.51141 0.398242 0
M  V30 6604 H 627.959 1.39059 2.92973 0
M  V30 6605 H 627.744 3.0888 2.41527 0
M  V30 6606 H 629.234 2.59377 3.27282 0
M  V30 6607 N 629.671 -0.424282 1.51781 0
M  V30 6608 C 630.917 -1.17434 1.6534 0
M  V30 6609 C 631.25 -1.90549 0.374806 0
M  V30 6610 O 630.525 -1.84145 -0.626179 0
M  V30 6611 C 630.808 -2.18093 2.86544 0
M  V30 6612 C 630.661 -1.48975 4.24413 0
M  V30 6613 C 631.98 -3.18934 3.03264 0
M  V30 6614 H 629.099 -0.425566 0.601716 0
M  V30 6615 H 631.741 -0.461921 1.84299 0
M  V30 6616 H 629.891 -2.78849 2.7051 0
M  V30 6617 H 631.563 -0.914551 4.52143 0
M  V30 6618 H 629.806 -0.791893 4.26511 0
M  V30 6619 H 630.477 -2.22347 5.05238 0
M  V30 6620 H 632.953 -2.68243 3.18096 0
M  V30 6621 H 631.829 -3.86645 3.89611 0
M  V30 6622 H 632.09 -3.85793 2.15908 0
M  V30 6623 N 631.149 -1.42148 -0.680565 0
M  V30 6624 C 632.395 -1.42521 -1.44277 0
M  V30 6625 C 632.728 -0.0393718 -1.9416 0
M  V30 6626 O 632.003 0.935425 -1.70529 0
M  V30 6627 C 632.286 -2.44475 -2.64394 0
M  V30 6628 C 632.139 -3.92226 -2.20179 0
M  V30 6629 C 633.458 -2.43491 -3.66606 0
M  V30 6630 H 630.577 -0.518985 -0.523282 0
M  V30 6631 H 633.219 -1.73524 -0.773914 0
M  V30 6632 H 631.369 -2.18168 -3.21458 0
M  V30 6633 H 633.041 -4.29493 -1.68327 0
M  V30 6634 H 631.284 -4.0637 -1.5181 0
M  V30 6635 H 631.955 -4.59133 -3.06433 0
M  V30 6636 H 634.431 -2.66872 -3.19247 0
M  V30 6637 H 633.307 -3.16816 -4.4824 0
M  V30 6638 H 633.568 -1.45881 -4.17338 0
M  V30 6639 N 632.627 0.916307 -1.28225 0
M  V30 6640 C 633.876 1.65975 -1.14608 0
M  V30 6641 C 634.189 1.93204 0.305191 0
M  V30 6642 O 635.395 2.65611 0.562432 0
M  V30 6643 C 633.851 2.98989 -2.00333 0
M  V30 6644 C 633.459 2.79417 -3.50186 0
M  V30 6645 C 635.203 3.76856 -1.95397 0
M  V30 6646 C 633.11 4.08056 -4.28071 0
M  V30 6647 H 632.04 0.622587 -0.425324 0
M  V30 6648 H 634.691 1.01705 -1.52736 0
M  V30 6649 H 633.073 3.6438 -1.5506 0
M  V30 6650 H 634.247 2.22723 -4.034 0
M  V30 6651 H 632.562 2.14966 -3.56621 0
M  V30 6652 H 635.159 4.72203 -2.50856 0
M  V30 6653 H 635.502 4.05776 -0.930137 0
M  V30 6654 H 636.035 3.1828 -2.38626 0
M  V30 6655 H 632.774 3.8431 -5.31024 0
M  V30 6656 H 632.294 4.64371 -3.79631 0
M  V30 6657 H 633.973 4.76333 -4.37854 0
M  V30 6658 N 634.105 1.10431 1.1244 0
M  V30 6659 C 635.516 0.864439 1.65482 0
M  V30 6660 C 635.867 -0.60527 1.8663 0
M  V30 6661 O 634.992 -1.46492 1.59276 0
M  V30 6662 C 635.587 1.56267 3.0061 0
M  V30 6663 C 634.146 1.3695 3.50602 0
M  V30 6664 C 633.293 1.61209 2.25626 0
M  V30 6665 H 636.244 1.26203 0.962209 0
M  V30 6666 H 636.265 1.00166 3.67079 0
M  V30 6667 H 635.777 2.63231 2.85186 0
M  V30 6668 H 633.878 0.321481 3.71211 0
M  V30 6669 H 633.991 2.11143 4.30064 0
M  V30 6670 H 632.355 1.03482 2.32731 0
M  V30 6671 H 633.138 2.69425 2.12756 0
M  V30 6672 N 635.583 -1.29855 0.893053 0
M  V30 6673 C 636.994 -1.77946 0.564998 0
M  V30 6674 C 637.345 -1.73339 -0.919134 0
M  V30 6675 O 636.47 -1.3152 -1.71847 0
M  V30 6676 C 637.065 -3.23118 1.01883 0
M  V30 6677 C 635.624 -3.69013 0.742051 0
M  V30 6678 C 634.771 -2.50121 1.19727 0
M  V30 6679 H 637.722 -1.16611 1.07646 0
M  V30 6680 H 637.743 -3.78875 0.351249 0
M  V30 6681 H 637.255 -3.26439 2.09903 0
M  V30 6682 H 635.356 -3.71173 -0.325816 0
M  V30 6683 H 635.469 -4.60117 1.33527 0
M  V30 6684 H 633.833 -2.47128 0.616418 0
M  V30 6685 H 634.616 -2.56174 2.28538 0
M  V30 6686 N 637.061 -0.65484 -1.43351 0
M  V30 6687 C 638.289 -0.176685 -2.06144 0
M  V30 6688 C 638.704 1.15831 -1.49093 0
M  V30 6689 O 638.061 1.71542 -0.622868 0
M  V30 6690 C 638.112 -0.0813326 -3.61408 0
M  V30 6691 O 637.833 -1.36355 -4.1634 0
M  V30 6692 C 639.334 0.422706 -4.4128 0
M  V30 6693 H 636.554 -0.0906429 -0.66485 0
M  V30 6694 H 639.098 -0.895945 -1.83829 0
M  V30 6695 H 637.253 0.588496 -3.82904 0
M  V30 6696 H 637.667 -1.22381 -5.10023 0
M  V30 6697 H 639.141 0.438375 -5.50257 0
M  V30 6698 H 639.618 1.45432 -4.14423 0
M  V30 6699 H 640.224 -0.214687 -4.24758 0
M  V30 6700 N 638.539 1.52521 -0.396863 0
M  V30 6701 C 639.785 2.02641 0.175606 0
M  V30 6702 C 640.14 1.27782 1.43839 0
M  V30 6703 O 639.433 0.371921 1.87956 0
M  V30 6704 C 639.627 3.5403 0.489677 0
M  V30 6705 C 639.456 4.43551 -0.741113 0
M  V30 6706 C 638.226 4.8927 -1.26265 0
M  V30 6707 C 640.424 4.88263 -1.61565 0
M  V30 6708 N 638.406 5.62884 -2.4502 0
M  V30 6709 C 639.777 5.60534 -2.64955 0
M  V30 6710 C 641.832 4.70294 -1.63486 0
M  V30 6711 C 640.535 6.16744 -3.70162 0
M  V30 6712 C 642.561 5.27392 -2.67603 0
M  V30 6713 C 641.923 5.99575 -3.69715 0
M  V30 6714 H 638.022 0.781563 0.0261477 0
M  V30 6715 H 640.606 1.86816 -0.548454 0
M  V30 6716 H 638.777 3.69952 1.18279 0
M  V30 6717 H 640.509 3.90843 1.04996 0
M  V30 6718 H 637.264 4.66403 -0.822509 0
M  V30 6719 H 637.688 6.04339 -3.05128 0
M  V30 6720 H 642.33 4.13985 -0.858848 0
M  V30 6721 H 640.048 6.72131 -4.48626 0
M  V30 6722 H 643.634 5.15365 -2.69982 0
M  V30 6723 H 642.514 6.42967 -4.48958 0
M  V30 6724 N 640.017 0.126909 1.57088 0
M  V30 6725 C 641.266 -0.529024 1.94639 0
M  V30 6726 C 641.579 -1.67323 1.01304 0
M  V30 6727 O 642.785 -2.39245 1.28352 0
M  V30 6728 C 641.241 -0.992483 3.45945 0
M  V30 6729 C 640.849 0.123691 4.47829 0
M  V30 6730 C 642.593 -1.61934 3.924 0
M  V30 6731 C 640.5 -0.356911 5.90322 0
M  V30 6732 H 639.43 -0.201397 0.726605 0
M  V30 6733 H 642.081 0.208032 1.82317 0
M  V30 6734 H 640.463 -1.7842 3.53528 0
M  V30 6735 H 641.637 0.900168 4.51922 0
M  V30 6736 H 639.952 0.657699 4.11173 0
M  V30 6737 H 642.549 -1.9902 4.96281 0
M  V30 6738 H 642.892 -2.50075 3.32819 0
M  V30 6739 H 643.425 -0.892894 3.8765 0
M  V30 6740 H 640.164 0.488636 6.53676 0
M  V30 6741 H 639.684 -1.0997 5.89633 0
M  V30 6742 H 641.363 -0.815547 6.41839 0
M  V30 6743 N 641.495 -1.56914 -0.146875 0
M  V30 6744 C 642.425 -2.01308 -1.1831 0
M  V30 6745 C 643.406 -0.892664 -1.44795 0
M  V30 6746 O 644.591 -1.16048 -1.55713 0
M  V30 6747 C 641.721 -2.3938 -2.51624 0
M  V30 6748 C 640.675 -3.54608 -2.3966 0
M  V30 6749 C 640.001 -3.78493 -3.77686 0
M  V30 6750 C 641.301 -4.87269 -1.88058 0
M  V30 6751 H 642.995 -2.88123 -0.813964 0
M  V30 6752 H 640.541 -1.38615 -0.3901 0
M  V30 6753 H 642.494 -2.69037 -3.24341 0
M  V30 6754 H 641.218 -1.49502 -2.90373 0
M  V30 6755 H 639.877 -3.25116 -1.69396 0
M  V30 6756 H 639.525 -2.85866 -4.13871 0
M  V30 6757 H 639.225 -4.56039 -3.70543 0
M  V30 6758 H 640.749 -4.10576 -4.51951 0
M  V30 6759 H 642.163 -5.15644 -2.50568 0
M  V30 6760 H 640.56 -5.68622 -1.91805 0
M  V30 6761 H 641.63 -4.77634 -0.836277 0
M  V30 6762 N 642.974 0.416227 -1.52004 0
M  V30 6763 C 644.39 0.754319 -1.40649 0
M  V30 6764 C 644.59 1.95059 -0.505392 0
M  V30 6765 O 643.646 2.5248 0.0315057 0
M  V30 6766 C 644.959 1.0149 -2.83055 0
M  V30 6767 C 646.507 1.11805 -2.9235 0
M  V30 6768 C 646.982 1.41144 -4.35709 0
M  V30 6769 N 648.473 1.48024 -4.38911 0
M  V30 6770 C 649.208 1.72338 -5.46889 0
M  V30 6771 N 648.704 1.94303 -6.64995 0
M  V30 6772 N 650.497 1.74294 -5.34395 0
M  V30 6773 H 642.648 -0.371324 -2.09129 0
M  V30 6774 H 644.911 -0.103811 -0.942299 0
M  V30 6775 H 644.617 0.208345 -3.51082 0
M  V30 6776 H 644.491 1.93697 -3.23668 0
M  V30 6777 H 646.878 1.91521 -2.24508 0
M  V30 6778 H 646.959 0.17451 -2.55204 0
M  V30 6779 H 646.603 0.619484 -5.04108 0
M  V30 6780 H 646.533 2.36739 -4.70385 0
M  V30 6781 H 649.024 1.32868 -3.53772 0
M  V30 6782 H 649.337 2.12286 -7.43071 0
M  V30 6783 H 647.682 1.91582 -6.68073 0
M  V30 6784 H 650.873 1.56667 -4.41104 0
M  V30 6785 H 651.046 1.92904 -6.18621 0
M  V30 6786 N 644.452 1.42507 0.673017 0
M  V30 6787 C 645.415 1.4582 1.76831 0
M  V30 6788 C 646.415 0.345542 1.57043 0
M  V30 6789 O 647.605 0.606447 1.63303 0
M  V30 6790 C 644.737 1.29158 3.15485 0
M  V30 6791 H 645.93 2.43345 1.7528 0
M  V30 6792 H 643.483 1.28981 0.882817 0
M  V30 6793 H 644.218 0.325626 3.22661 0
M  V30 6794 H 644.003 2.09797 3.31252 0
M  V30 6795 H 645.493 1.34363 3.95394 0
M  V30 6796 N 645.93 -0.909495 1.28709 0
M  V30 6797 C 647.346 -1.18862 1.06508 0
M  V30 6798 C 647.546 -2.00604 -0.189864 0
M  V30 6799 O 646.602 -2.36281 -0.890355 0
M  V30 6800 C 647.915 -1.91908 2.31499 0
M  V30 6801 C 649.463 -2.04773 2.36721 0
M  V30 6802 C 649.938 -2.81228 3.6149 0
M  V30 6803 N 651.429 -2.88787 3.62155 0
M  V30 6804 C 652.164 -3.48455 4.55375 0
M  V30 6805 N 651.66 -4.09369 5.58918 0
M  V30 6806 N 653.453 -3.46035 4.42963 0
M  V30 6807 H 645.604 -0.363867 2.0926 0
M  V30 6808 H 647.867 -0.223649 0.921241 0
M  V30 6809 H 647.573 -1.39275 3.22948 0
M  V30 6810 H 647.447 -2.92436 2.38245 0
M  V30 6811 H 649.834 -2.56585 1.45767 0
M  V30 6812 H 649.915 -1.03408 2.33967 0
M  V30 6813 H 649.559 -2.30094 4.5279 0
M  V30 6814 H 649.489 -3.82917 3.61499 0
M  V30 6815 H 651.98 -2.45514 2.87283 0
M  V30 6816 H 652.293 -4.52891 6.26187 0
M  V30 6817 H 650.638 -4.0786 5.62739 0
M  V30 6818 H 653.829 -2.9766 3.6127 0
M  V30 6819 H 654.002 -3.92244 5.15799 0
M  V30 6820 N 647.408 -1.11026 -1.11852 0
M  V30 6821 C 648.824 -0.843294 -1.35502 0
M  V30 6822 C 649.024 0.534179 -1.9429 0
M  V30 6823 O 648.08 1.28585 -2.17307 0
M  V30 6824 C 649.393 -1.94793 -2.29077 0
M  V30 6825 C 650.941 -1.97709 -2.42652 0
M  V30 6826 C 651.416 -3.07364 -3.39546 0
M  V30 6827 N 652.907 -3.0671 -3.47107 0
M  V30 6828 C 653.642 -3.88197 -4.22008 0
M  V30 6829 N 653.138 -4.79635 -4.99922 0
M  V30 6830 N 654.931 -3.76391 -4.17476 0
M  V30 6831 H 647.082 -1.99805 -0.720538 0
M  V30 6832 H 649.345 -0.868633 -0.379711 0
M  V30 6833 H 649.051 -2.93971 -1.93065 0
M  V30 6834 H 648.925 -1.84039 -3.29256 0
M  V30 6835 H 651.312 -0.991604 -2.77941 0
M  V30 6836 H 651.393 -2.1254 -1.4234 0
M  V30 6837 H 651.037 -4.06136 -3.04985 0
M  V30 6838 H 650.967 -2.89774 -4.39703 0
M  V30 6839 H 653.458 -2.40457 -2.91528 0
M  V30 6840 H 653.771 -5.38357 -5.54429 0
M  V30 6841 H 652.116 -4.8366 -4.99097 0
M  V30 6842 H 655.307 -3.04303 -3.55693 0
M  V30 6843 H 655.48 -4.40131 -4.75593 0
M  V30 6844 N 648.886 1.2938 -0.899927 0
M  V30 6845 C 650.297 1.77644 -0.574427 0
M  V30 6846 C 650.648 1.73824 0.909928 0
M  V30 6847 O 649.773 1.32429 1.71147 0
M  V30 6848 C 650.368 3.22573 -1.03595 0
M  V30 6849 C 648.927 3.68614 -0.76161 0
M  V30 6850 C 648.074 2.49483 -1.21052 0
M  V30 6851 H 651.025 1.16038 -1.08263 0
M  V30 6852 H 651.046 3.78684 -0.371337 0
M  V30 6853 H 650.558 3.25321 -2.11631 0
M  V30 6854 H 648.659 3.7134 0.306127 0
M  V30 6855 H 648.772 4.59402 -1.35965 0
M  V30 6856 H 647.136 2.46798 -0.629515 0
M  V30 6857 H 647.919 2.54959 -2.29893 0
M  V30 6858 N 650.364 0.662433 1.43002 0
M  V30 6859 C 651.296 -0.062326 2.29115 0
M  V30 6860 C 652.309 -0.777926 1.43011 0
M  V30 6861 O 653.498 -0.634146 1.66856 0
M  V30 6862 C 650.598 -1.11163 3.2015 0
M  V30 6863 C 649.771 -0.472327 4.34842 0
M  V30 6864 C 648.83 -1.41974 5.06685 0
M  V30 6865 O 647.856 -0.924795 5.61637 0
M  V30 6866 N 649.058 -2.75345 5.11043 0
M  V30 6867 H 651.823 0.676838 2.91957 0
M  V30 6868 H 649.384 0.505907 1.53793 0
M  V30 6869 H 651.376 -1.74643 3.65078 0
M  V30 6870 H 649.946 -1.75266 2.58845 0
M  V30 6871 H 649.166 0.341751 3.92716 0
M  V30 6872 H 650.454 -0.0264381 5.08793 0
M  V30 6873 H 649.852 -3.18108 4.67786 0
M  V30 6874 H 648.409 -3.34105 5.59658 0
M  V30 6875 N 651.842 -1.52309 0.404946 0
M  V30 6876 C 652.79 -2.28452 -0.437321 0
M  V30 6877 C 653.784 -1.32975 -1.04948 0
M  V30 6878 O 654.99 -1.50451 -0.988159 0
M  V30 6879 H 651.365 -0.734824 -0.159805 0
M  V30 6880 H 653.336 -2.97542 0.22615 0
M  V30 6881 C 652.085 -3.11536 -1.54404 0
M  V30 6882 H 651.408 -3.84871 -1.08233 0
M  V30 6883 H 652.848 -3.67926 -2.10729 0
M  V30 6884 C 651.307 -2.24833 -2.50902 0
M  V30 6885 O 651.837 -1.88574 -3.54687 0
M  V30 6886 N 650.043 -1.88685 -2.21012 0
M  V30 6887 H 649.59 -2.18371 -1.36646 0
M  V30 6888 H 649.548 -1.30966 -2.85824 0
M  V30 6889 N 653.32 -0.135238 -1.57019 0
M  V30 6890 C 654.548 0.526066 -2.001 0
M  V30 6891 C 654.963 1.59184 -1.01519 0
M  V30 6892 O 654.32 1.82497 -0.0104258 0
M  V30 6893 C 654.371 1.13744 -3.43139 0
M  V30 6894 O 654.092 0.114259 -4.37951 0
M  V30 6895 C 655.593 1.8805 -4.01438 0
M  V30 6896 H 652.813 0.137962 -0.656664 0
M  V30 6897 H 655.357 -0.226359 -2.03243 0
M  V30 6898 H 653.512 1.84056 -3.40885 0
M  V30 6899 H 653.926 0.56058 -5.21496 0
M  V30 6900 H 655.4 2.26133 -5.03555 0
M  V30 6901 H 655.877 2.76194 -3.41487 0
M  V30 6902 H 656.483 1.22464 -4.07287 0
M  V30 6903 N 654.798 1.5699 0.138552 0
M  V30 6904 C 655.728 2.01933 1.17241 0
M  V30 6905 C 656.709 0.90033 1.44319 0
M  V30 6906 O 657.894 1.16872 1.55095 0
M  V30 6907 C 655.024 2.40711 2.50351 0
M  V30 6908 C 653.978 3.55874 2.37776 0
M  V30 6909 C 653.304 3.80491 3.75674 0
M  V30 6910 C 654.604 4.8826 1.85472 0
M  V30 6911 H 656.298 2.88551 0.798672 0
M  V30 6912 H 653.844 1.3882 0.382743 0
M  V30 6913 H 655.797 2.70754 3.22909 0
M  V30 6914 H 654.521 1.5104 2.89576 0
M  V30 6915 H 653.18 3.2601 1.67669 0
M  V30 6916 H 652.828 2.88057 4.12349 0
M  V30 6917 H 652.528 4.57998 3.68119 0
M  V30 6918 H 654.052 4.12967 4.49767 0
M  V30 6919 H 655.466 5.16965 2.4783 0
M  V30 6920 H 653.863 5.69631 1.88787 0
M  V30 6921 H 654.933 4.78071 0.810935 0
M  V30 6922 N 656.276 -0.40816 1.52223 0
M  V30 6923 C 657.223 -1.49737 1.75635 0
M  V30 6924 C 658.193 -1.5493 0.598824 0
M  V30 6925 O 659.378 -1.71487 0.83648 0
M  V30 6926 C 656.518 -2.87174 1.91376 0
M  V30 6927 C 655.631 -2.91283 3.19027 0
M  V30 6928 C 654.766 -4.20026 3.25195 0
M  V30 6929 C 653.805 -4.18113 4.47044 0
M  V30 6930 N 652.942 -5.38429 4.50598 0
M  V30 6931 H 657.782 -1.29075 2.68596 0
M  V30 6932 H 655.319 -0.626518 1.33091 0
M  V30 6933 H 657.277 -3.66959 1.98486 0
M  V30 6934 H 655.907 -3.06329 1.01795 0
M  V30 6935 H 654.959 -2.03984 3.21084 0
M  V30 6936 H 656.271 -2.85734 4.08849 0
M  V30 6937 H 655.425 -5.08204 3.31382 0
M  V30 6938 H 654.164 -4.28271 2.33313 0
M  V30 6939 H 653.169 -3.28325 4.41002 0
M  V30 6940 H 654.394 -4.11507 5.40221 0
M  V30 6941 H 652.34 -5.4734 3.616 0
M  V30 6942 H 652.257 -5.34879 5.34266 0
M  V30 6943 H 653.525 -6.28557 4.61016 0
M  V30 6944 N 657.755 -1.42862 -0.66545 0
M  V30 6945 C 658.718 -1.46756 -1.76055 0
M  V30 6946 C 659.718 -0.353866 -1.56858 0
M  V30 6947 O 660.908 -0.615099 -1.62979 0
M  V30 6948 C 658.04 -1.30829 -3.14796 0
M  V30 6949 H 659.233 -2.44271 -1.73987 0
M  V30 6950 H 656.786 -1.29447 -0.875965 0
M  V30 6951 H 657.521 -0.342733 -3.22484 0
M  V30 6952 H 657.306 -2.11551 -3.30134 0
M  V30 6953 H 658.796 -1.36458 -3.94676 0
M  V30 6954 N 659.233 0.902656 -1.29189 0
M  V30 6955 C 660.458 1.69167 -1.19989 0
M  V30 6956 C 660.883 1.86607 0.236495 0
M  V30 6957 O 660.241 1.38425 1.17082 0
M  V30 6958 C 660.289 3.05532 -1.91527 0
M  V30 6959 O 659.393 3.93621 -1.2303 0
M  V30 6960 H 658.734 0.517584 -0.415936 0
M  V30 6961 H 661.264 1.12785 -1.70706 0
M  V30 6962 H 661.274 3.55693 -1.99866 0
M  V30 6963 H 659.949 2.92156 -2.96003 0
M  V30 6964 H 658.526 3.52055 -1.22928 0
M  V30 6965 N 660.711 1.11618 1.11262 0
M  V30 6966 C 661.658 0.7762 2.17356 0
M  V30 6967 C 662.628 -0.253152 1.6416 0
M  V30 6968 O 663.813 -0.129655 1.90359 0
M  V30 6969 C 660.953 0.227581 3.44349 0
M  V30 6970 C 660.066 1.31372 4.1154 0
M  V30 6971 C 659.201 0.72544 5.26223 0
M  V30 6972 C 658.24 1.7913 5.85302 0
M  V30 6973 N 657.377 1.22237 6.91377 0
M  V30 6974 H 662.217 1.68508 2.45783 0
M  V30 6975 H 659.754 0.841475 1.20655 0
M  V30 6976 H 661.712 -0.108483 4.17059 0
M  V30 6977 H 660.342 -0.644486 3.16301 0
M  V30 6978 H 659.394 1.7667 3.36885 0
M  V30 6979 H 660.706 2.12005 4.51504 0
M  V30 6980 H 659.86 0.339541 6.05749 0
M  V30 6981 H 658.599 -0.112188 4.87571 0
M  V30 6982 H 657.604 2.18648 5.04453 0
M  V30 6983 H 658.829 2.63199 6.26022 0
M  V30 6984 H 656.775 0.406423 6.5474 0
M  V30 6985 H 656.692 1.9654 7.30006 0
M  V30 6986 H 657.96 0.863426 7.74703 0
M  V30 6987 N 662.189 -1.289 0.906776 0
M  V30 6988 C 663.136 -2.2751 0.388313 0
M  V30 6989 C 664.106 -1.57301 -0.533439 0
M  V30 6990 O 665.291 -1.85243 -0.457148 0
M  V30 6991 C 662.431 -3.43091 -0.37181 0
M  V30 6992 C 661.544 -4.28066 0.581647 0
M  V30 6993 C 660.679 -5.30837 -0.19623 0
M  V30 6994 C 659.718 -6.07472 0.751294 0
M  V30 6995 N 658.855 -7.021 0.00737727 0
M  V30 6996 H 663.695 -2.71237 1.23428 0
M  V30 6997 H 661.232 -1.33397 0.619962 0
M  V30 6998 H 663.19 -4.08888 -0.828641 0
M  V30 6999 H 661.82 -3.00374 -1.18218 0
M  V30 7000 H 660.872 -3.62378 1.157 0
M  V30 7001 H 662.184 -4.81382 1.30665 0
M  V30 7002 H 661.338 -6.02485 -0.71394 0
M  V30 7003 H 660.077 -4.78272 -0.954324 0
M  V30 7004 H 659.082 -5.34682 1.28044 0
M  V30 7005 H 660.307 -6.62126 1.50883 0
M  V30 7006 H 658.253 -6.51894 -0.732854 0
M  V30 7007 H 658.17 -7.53004 0.672334 0
M  V30 7008 H 659.438 -7.77956 -0.490365 0
M  V30 7009 N 663.667 -0.670007 -1.42649 0
M  V30 7010 C 664.614 0.0112928 -2.30797 0
M  V30 7011 C 665.584 0.797627 -1.45695 0
M  V30 7012 O 666.769 0.770845 -1.74535 0
M  V30 7013 C 663.909 0.95998 -3.31479 0
M  V30 7014 C 663.022 0.167975 -4.31673 0
M  V30 7015 C 662.157 1.11198 -5.19431 0
M  V30 7016 C 661.196 0.311381 -6.11307 0
M  V30 7017 N 660.333 1.20784 -6.91633 0
M  V30 7018 H 665.173 -0.746231 -2.88505 0
M  V30 7019 H 662.71 -0.379739 -1.42114 0
M  V30 7020 H 664.668 1.52379 -3.88377 0
M  V30 7021 H 663.298 1.68419 -2.75382 0
M  V30 7022 H 662.35 -0.512385 -3.76933 0
M  V30 7023 H 663.662 -0.453814 -4.96731 0
M  V30 7024 H 662.816 1.74587 -5.81037 0
M  V30 7025 H 661.555 1.76766 -4.54538 0
M  V30 7026 H 660.56 -0.335758 -5.48774 0
M  V30 7027 H 661.785 -0.340135 -6.78248 0
M  V30 7028 H 659.731 1.85001 -6.29373 0
M  V30 7029 H 659.648 0.64102 -7.53277 0
M  V30 7030 H 660.916 1.82936 -7.5773 0
M  V30 7031 N 665.145 1.52092 -0.413018 0
M  V30 7032 C 666.092 2.27119 0.410558 0
M  V30 7033 C 667.062 1.29692 1.03774 0
M  V30 7034 O 668.247 1.58561 1.06128 0
M  V30 7035 C 665.387 3.09863 1.51918 0
M  V30 7036 C 664.5 4.22252 0.912528 0
M  V30 7037 C 663.635 4.92348 1.99417 0
M  V30 7038 C 662.674 5.96694 1.36466 0
M  V30 7039 N 661.811 6.60292 2.38661 0
M  V30 7040 H 666.651 2.97067 -0.235661 0
M  V30 7041 H 664.188 1.46542 -0.128055 0
M  V30 7042 H 666.146 3.56144 2.17295 0
M  V30 7043 H 664.776 2.42078 2.13537 0
M  V30 7044 H 663.828 3.80113 0.147697 0
M  V30 7045 H 665.14 4.9709 0.412717 0
M  V30 7046 H 664.294 5.42054 2.72512 0
M  V30 7047 H 663.033 4.17087 2.52764 0
M  V30 7048 H 662.038 5.46304 0.61906 0
M  V30 7049 H 663.263 6.73899 0.838827 0
M  V30 7050 H 661.209 5.87858 2.91134 0
M  V30 7051 H 661.126 7.30816 1.93503 0
M  V30 7052 H 662.394 7.14635 3.11314 0
M  V30 7053 N 666.623 0.143563 1.56945 0
M  V30 7054 C 668.039 -0.212877 1.58174 0
M  V30 7055 C 668.239 -1.64926 1.15766 0
M  V30 7056 O 667.295 -2.37535 0.856361 0
M  V30 7057 C 668.608 0.0427573 3.0067 0
M  V30 7058 C 670.156 -0.0212221 3.12993 0
M  V30 7059 C 670.631 0.207036 4.57532 0
M  V30 7060 N 672.122 0.153845 4.62944 0
M  V30 7061 C 672.857 0.305018 5.72588 0
M  V30 7062 N 672.353 0.513722 6.90893 0
M  V30 7063 N 674.146 0.242862 5.61575 0
M  V30 7064 H 666.297 1.08148 1.82805 0
M  V30 7065 H 668.56 0.427831 0.84597 0
M  V30 7066 H 668.266 1.03672 3.36073 0
M  V30 7067 H 668.14 -0.678195 3.71053 0
M  V30 7068 H 670.527 -1.00574 2.77433 0
M  V30 7069 H 670.608 0.732004 2.45103 0
M  V30 7070 H 670.252 1.18863 4.93795 0
M  V30 7071 H 670.182 -0.566473 5.23544 0
M  V30 7072 H 672.673 -0.00294866 3.779 0
M  V30 7073 H 672.986 0.619273 7.70315 0
M  V30 7074 H 671.331 0.550001 6.9282 0
M  V30 7075 H 674.522 0.0806015 4.68031 0
M  V30 7076 H 674.695 0.364112 6.46976 0
M  V30 7077 N 668.101 -1.57061 -0.130224 0
M  V30 7078 C 669.064 -1.98593 -1.14426 0
M  V30 7079 C 670.064 -0.874584 -1.34936 0
M  V30 7080 O 671.254 -1.14086 -1.31643 0
M  V30 7081 C 668.386 -2.31639 -2.50112 0
M  V30 7082 H 669.579 -2.89374 -0.787561 0
M  V30 7083 H 667.132 -1.51756 -0.374146 0
M  V30 7084 H 667.867 -1.43703 -2.90723 0
M  V30 7085 H 667.652 -3.12684 -2.36583 0
M  V30 7086 H 669.142 -2.64551 -3.23114 0
M  V30 7087 N 669.579 0.400081 -1.52437 0
M  V30 7088 C 670.804 1.17221 -1.71096 0
M  V30 7089 C 671.229 1.83269 -0.423565 0
M  V30 7090 O 670.587 1.70378 0.619751 0
M  V30 7091 C 670.635 2.20425 -2.85386 0
M  V30 7092 O 669.739 3.26769 -2.51586 0
M  V30 7093 H 669.08 0.341766 -0.569291 0
M  V30 7094 H 671.61 0.467772 -1.99181 0
M  V30 7095 H 671.62 2.64605 -3.10561 0
M  V30 7096 H 670.295 1.71737 -3.78786 0
M  V30 7097 H 668.872 2.87804 -2.37114 0
M  V30 7098 N 671.057 1.43213 0.657864 0
M  V30 7099 C 672.304 1.44584 1.41781 0
M  V30 7100 C 672.632 0.0684208 1.9438 0
M  V30 7101 O 671.887 -0.925872 1.72413 0
M  V30 7102 C 672.186 2.43143 2.61947 0
M  V30 7103 C 671.852 3.89128 2.27794 0
M  V30 7104 C 670.514 4.28889 2.18191 0
M  V30 7105 C 672.866 4.81144 2.00375 0
M  V30 7106 C 670.194 5.58625 1.79319 0
M  V30 7107 C 672.546 6.11239 1.63003 0
M  V30 7108 C 671.21 6.49981 1.51922 0
M  V30 7109 H 670.48 0.529069 0.518813 0
M  V30 7110 H 673.127 1.76263 0.748577 0
M  V30 7111 H 671.432 2.04851 3.33981 0
M  V30 7112 H 673.129 2.4146 3.20153 0
M  V30 7113 H 669.719 3.57657 2.36176 0
M  V30 7114 H 673.903 4.512 2.06718 0
M  V30 7115 H 669.159 5.87486 1.69323 0
M  V30 7116 H 673.333 6.82014 1.40817 0
M  V30 7117 H 670.96 7.50416 1.21572 0
M  V30 7118 N 672.536 -0.895792 1.29666 0
M  V30 7119 C 673.483 -2.00035 1.15129 0
M  V30 7120 C 674.453 -1.66043 0.0435819 0
M  V30 7121 O 675.638 -1.89621 0.211811 0
M  V30 7122 C 672.778 -3.34774 0.83787 0
M  V30 7123 C 671.891 -3.81525 2.0264 0
M  V30 7124 C 671.026 -5.04858 1.65201 0
M  V30 7125 C 670.065 -5.43988 2.80612 0
M  V30 7126 N 669.202 -6.58507 2.43544 0
M  V30 7127 H 674.042 -2.11802 2.09628 0
M  V30 7128 H 671.579 -1.03719 1.04311 0
M  V30 7129 H 673.537 -4.12311 0.636824 0
M  V30 7130 H 672.167 -3.22724 -0.0702314 0
M  V30 7131 H 671.219 -2.9999 2.33903 0
M  V30 7132 H 672.531 -4.06472 2.89106 0
M  V30 7133 H 671.685 -5.8999 1.41408 0
M  V30 7134 H 670.424 -4.81759 0.758893 0
M  V30 7135 H 669.429 -4.57388 3.05083 0
M  V30 7136 H 670.654 -5.69066 3.70595 0
M  V30 7137 H 668.6 -6.37004 1.56724 0
M  V30 7138 H 668.517 -6.83269 3.23542 0
M  V30 7139 H 669.785 -7.46897 2.2308 0
M  V30 7140 N 674.014 -1.12206 -1.10668 0
M  V30 7141 C 675.43 -0.857619 -1.346 0
M  V30 7142 C 675.63 0.513542 -1.94846 0
M  V30 7143 O 674.686 1.26273 -2.18658 0
M  V30 7144 C 675.999 -1.97212 -2.26998 0
M  V30 7145 C 677.547 -2.00272 -2.40542 0
M  V30 7146 C 678.022 -3.10948 -3.36267 0
M  V30 7147 N 679.513 -3.10375 -3.43834 0
M  V30 7148 C 680.248 -3.92651 -4.17867 0
M  V30 7149 N 679.744 -4.84911 -4.94807 0
M  V30 7150 N 681.537 -3.80798 -4.1346 0
M  V30 7151 H 673.688 -2.00558 -0.699306 0
M  V30 7152 H 675.951 -0.872612 -0.370477 0
M  V30 7153 H 675.657 -2.96002 -1.89936 0
M  V30 7154 H 675.531 -1.87521 -3.27286 0
M  V30 7155 H 677.918 -1.02103 -2.76874 0
M  V30 7156 H 677.999 -2.14037 -1.40077 0
M  V30 7157 H 677.643 -4.09348 -3.00661 0
M  V30 7158 H 677.573 -2.94421 -4.36605 0
M  V30 7159 H 680.064 -2.43536 -2.88961 0
M  V30 7160 H 680.377 -5.44207 -5.48688 0
M  V30 7161 H 678.722 -4.88926 -4.93939 0
M  V30 7162 H 681.913 -3.08058 -3.52445 0
M  V30 7163 H 682.086 -4.4515 -4.70898 0
M  V30 7164 N 675.492 1.28418 -0.913599 0
M  V30 7165 C 676.439 2.27301 -0.400373 0
M  V30 7166 C 677.409 1.57582 0.52509 0
M  V30 7167 O 678.594 1.85482 0.447318 0
M  V30 7168 C 675.734 3.43284 0.35361 0
M  V30 7169 C 674.847 4.27752 -0.604341 0
M  V30 7170 C 673.982 5.30934 0.168075 0
M  V30 7171 C 673.021 6.07065 -0.783499 0
M  V30 7172 N 672.158 7.02086 -0.0446112 0
M  V30 7173 H 676.998 2.70579 -1.24865 0
M  V30 7174 H 674.535 1.33067 -0.627028 0
M  V30 7175 H 676.493 4.09322 0.806945 0
M  V30 7176 H 675.123 3.00997 1.16623 0
M  V30 7177 H 674.175 3.61759 -1.17621 0
M  V30 7178 H 675.487 4.80682 -1.33216 0
M  V30 7179 H 674.641 6.02855 0.681979 0
M  V30 7180 H 673.38 4.78771 0.928947 0
M  V30 7181 H 672.385 5.33995 -1.30878 0
M  V30 7182 H 673.61 6.61317 -1.54392 0
M  V30 7183 H 671.556 6.52273 0.698272 0
M  V30 7184 H 671.473 7.52637 -0.712258 0
M  V30 7185 H 672.741 7.78205 0.449102 0
M  V30 7186 N 676.97 0.677563 1.42291 0
M  V30 7187 C 678.195 0.207901 2.06355 0
M  V30 7188 C 678.62 -1.12723 1.50583 0
M  V30 7189 O 677.978 -1.70171 0.62543 0
M  V30 7190 C 678.026 0.156489 3.6026 0
M  V30 7191 O 677.13 -0.874162 4.03029 0
M  V30 7192 H 676.471 0.106056 0.655475 0
M  V30 7193 H 679.001 0.927354 1.82377 0
M  V30 7194 H 679.011 -0.0187258 4.07996 0
M  V30 7195 H 677.686 1.13101 4.00226 0
M  V30 7196 H 676.263 -0.669764 3.66836 0
M  V30 7197 N 678.448 -1.51871 0.421078 0
M  V30 7198 C 679.673 -2.0684 -0.152371 0
M  V30 7199 C 680.098 -1.28802 -1.37083 0
M  V30 7200 O 679.456 -0.321482 -1.78427 0
M  V30 7201 C 679.504 -3.57532 -0.469368 0
M  V30 7202 O 678.608 -3.81818 -1.55848 0
M  V30 7203 H 677.949 -0.663939 -0.00898586 0
M  V30 7204 H 680.479 -1.95674 0.597724 0
M  V30 7205 H 680.489 -4.01515 -0.724553 0
M  V30 7206 H 679.164 -4.13761 0.421276 0
M  V30 7207 H 677.741 -3.49709 -1.29453 0
M  V30 7208 N 679.926 -0.151884 -1.56866 0
M  V30 7209 C 680.873 0.785936 -2.17006 0
M  V30 7210 C 681.843 1.2407 -1.10435 0
M  V30 7211 O 683.028 1.31235 -1.38499 0
M  V30 7212 C 680.168 2.01771 -2.79969 0
M  V30 7213 C 679.281 1.6083 -4.00946 0
M  V30 7214 C 678.416 2.79224 -4.51893 0
M  V30 7215 C 677.455 2.3468 -5.65324 0
M  V30 7216 N 676.592 3.461 -6.10867 0
M  V30 7217 H 681.432 0.266286 -2.96808 0
M  V30 7218 H 678.969 0.11972 -1.46612 0
M  V30 7219 H 680.927 2.73989 -3.14621 0
M  V30 7220 H 679.557 2.51139 -2.02803 0
M  V30 7221 H 678.609 0.783592 -3.72242 0
M  V30 7222 H 679.921 1.24119 -4.83111 0
M  V30 7223 H 679.075 3.59625 -4.88625 0
M  V30 7224 H 677.814 3.19183 -3.68746 0
M  V30 7225 H 676.819 1.52721 -5.28163 0
M  V30 7226 H 678.044 1.95801 -6.5026 0
M  V30 7227 H 675.99 3.85671 -5.30654 0
M  V30 7228 H 675.907 3.1342 -6.87971 0
M  V30 7229 H 677.175 4.26844 -6.52246 0
M  V30 7230 N 681.404 1.57128 0.121893 0
M  V30 7231 C 682.351 2.0013 1.14964 0
M  V30 7232 C 683.321 0.872959 1.4131 0
M  V30 7233 O 684.506 1.13696 1.53225 0
M  V30 7234 C 681.646 2.40824 2.4718 0
M  V30 7235 C 680.759 3.67061 2.27794 0
M  V30 7236 C 679.894 3.96749 3.53219 0
M  V30 7237 C 678.933 5.16178 3.28978 0
M  V30 7238 N 678.07 5.41751 4.46599 0
M  V30 7239 H 682.91 2.8772 0.775947 0
M  V30 7240 H 680.447 1.42328 0.371652 0
M  V30 7241 H 682.405 2.62454 3.24305 0
M  V30 7242 H 681.035 1.56279 2.82448 0
M  V30 7243 H 680.087 3.53063 1.416 0
M  V30 7244 H 681.399 4.5434 2.05857 0
M  V30 7245 H 680.553 4.19012 4.38764 0
M  V30 7246 H 679.292 3.07941 3.78185 0
M  V30 7247 H 678.297 4.93762 2.41824 0
M  V30 7248 H 679.522 6.06561 3.05386 0
M  V30 7249 H 677.468 4.55899 4.71691 0
M  V30 7250 H 677.385 6.23347 4.27756 0
M  V30 7251 H 678.653 5.68531 5.33285 0
M  V30 7252 N 682.882 -0.391992 1.52647 0
M  V30 7253 C 684.13 -1.13507 1.67214 0
M  V30 7254 C 684.451 -1.90575 0.41304 0
M  V30 7255 O 683.721 -1.87348 -0.572498 0
M  V30 7256 H 682.301 -0.422013 0.616372 0
M  V30 7257 H 684.963 -0.44502 1.89751 0
M  V30 7258 H 684.059 -1.83964 2.52118 0
M  V30 7259 N 684.36 -1.4356 -0.65026 0
M  V30 7260 C 685.771 -1.40324 -1.2315 0
M  V30 7261 C 686.122 -0.108812 -1.95898 0
M  V30 7262 O 685.247 0.79163 -2.01401 0
M  V30 7263 C 685.842 -2.54195 -2.23987 0
M  V30 7264 C 684.401 -2.54215 -2.77582 0
M  V30 7265 C 683.548 -2.31752 -1.5227 0
M  V30 7266 H 686.499 -1.52418 -0.442095 0
M  V30 7267 H 686.52 -2.25854 -3.0622 0
M  V30 7268 H 686.032 -3.48392 -1.71011 0
M  V30 7269 H 684.133 -1.63907 -3.34612 0
M  V30 7270 H 684.246 -3.52081 -3.24925 0
M  V30 7271 H 682.61 -1.80476 -1.79723 0
M  V30 7272 H 683.393 -3.28037 -1.01225 0
M  V30 7273 N 685.838 0.888903 -1.30139 0
M  V30 7274 C 686.748 2.02705 -1.18101 0
M  V30 7275 C 687.764 1.73702 -0.101809 0
M  V30 7276 O 688.94 1.98906 -0.315984 0
M  V30 7277 C 686.005 3.35616 -0.869651 0
M  V30 7278 C 685.066 3.78067 -2.03381 0
M  V30 7279 C 684.299 5.04635 -1.73721 0
M  V30 7280 O 684.522 5.66531 -0.663267 0
M  V30 7281 O 683.456 5.43399 -2.58845 0
M  V30 7282 H 687.282 2.15788 -2.13704 0
M  V30 7283 H 684.867 1.01426 -1.09695 0
M  V30 7284 H 686.749 4.15358 -0.711043 0
M  V30 7285 H 685.424 3.23651 0.0565002 0
M  V30 7286 H 684.331 2.99046 -2.24772 0
M  V30 7287 H 685.664 3.94631 -2.94155 0
M  V30 7288 N 687.317 1.12792 1.10072 0
M  V30 7289 C 688.227 0.812369 2.20086 0
M  V30 7290 C 689.243 -0.200349 1.72843 0
M  V30 7291 O 690.419 -0.0330262 2.01373 0
M  V30 7292 C 687.484 0.275685 3.45602 0
M  V30 7293 C 686.545 1.34881 4.07561 0
M  V30 7294 C 685.778 0.837639 5.27086 0
M  V30 7295 O 686.001 -0.327224 5.69461 0
M  V30 7296 O 684.935 1.60894 5.79997 0
M  V30 7297 H 688.761 1.73133 2.49517 0
M  V30 7298 H 686.346 0.904863 1.18881 0
M  V30 7299 H 688.228 -0.0185375 4.21396 0
M  V30 7300 H 686.903 -0.615783 3.17789 0
M  V30 7301 H 685.81 1.69625 3.33434 0
M  V30 7302 H 687.143 2.21418 4.39585 0
M  V30 7303 N 688.795 -1.27931 0.920396 0
M  V30 7304 C 690.043 -1.94304 0.555906 0
M  V30 7305 C 690.364 -1.72753 -0.904519 0
M  V30 7306 O 689.634 -1.07104 -1.64029 0
M  V30 7307 H 688.214 -0.719001 0.202599 0
M  V30 7308 H 690.876 -1.55785 1.1712 0
M  V30 7309 H 689.972 -3.02806 0.755981 0
M  V30 7310 N 690.273 -0.685099 -1.4193 0
M  V30 7311 C 691.689 -0.355632 -1.55587 0
M  V30 7312 C 691.889 1.13823 -1.66273 0
M  V30 7313 O 690.945 1.92387 -1.63534 0
M  V30 7314 C 692.258 -1.09498 -2.80055 0
M  V30 7315 C 693.806 -1.07831 -2.93839 0
M  V30 7316 C 694.281 -1.79919 -4.21181 0
M  V30 7317 N 695.772 -1.76837 -4.28115 0
M  V30 7318 C 696.507 -2.29463 -5.25485 0
M  V30 7319 N 696.003 -2.90516 -6.28945 0
M  V30 7320 N 697.796 -2.19779 -5.17353 0
M  V30 7321 H 689.947 -1.65412 -1.33239 0
M  V30 7322 H 692.21 -0.697453 -0.642078 0
M  V30 7323 H 691.916 -2.14997 -2.78333 0
M  V30 7324 H 691.79 -0.666813 -3.71259 0
M  V30 7325 H 694.177 -0.0316152 -2.95083 0
M  V30 7326 H 694.258 -1.54545 -2.03837 0
M  V30 7327 H 693.902 -2.84562 -4.20698 0
M  V30 7328 H 693.832 -1.30647 -5.10136 0
M  V30 7329 H 696.323 -1.32315 -3.53979 0
M  V30 7330 H 696.636 -3.28266 -6.99615 0
M  V30 7331 H 694.981 -2.94589 -6.29478 0
M  V30 7332 H 698.172 -1.71763 -4.35448 0
M  V30 7333 H 698.345 -2.61097 -5.9307 0
M  V30 7334 N 691.751 1.51645 -0.429126 0
M  V30 7335 C 692.997 2.02967 0.132584 0
M  V30 7336 C 693.352 1.30804 1.41096 0
M  V30 7337 O 692.645 0.411705 1.87124 0
M  V30 7338 C 692.839 3.54989 0.414472 0
M  V30 7339 C 692.668 4.41879 -0.83503 0
M  V30 7340 C 691.438 4.86482 -1.36614 0
M  V30 7341 C 693.636 4.84727 -1.71886 0
M  V30 7342 N 691.618 5.5756 -2.56904 0
M  V30 7343 C 692.989 5.54788 -2.76786 0
M  V30 7344 C 695.044 4.66721 -1.73425 0
M  V30 7345 C 693.747 6.08753 -3.8316 0
M  V30 7346 C 695.773 5.21597 -2.7873 0
M  V30 7347 C 695.135 5.91598 -3.8235 0
M  V30 7348 H 691.234 0.781942 0.00956367 0
M  V30 7349 H 693.818 1.8561 -0.587957 0
M  V30 7350 H 691.989 3.72378 1.10405 0
M  V30 7351 H 693.721 3.92982 0.966817 0
M  V30 7352 H 690.476 4.64553 -0.921255 0
M  V30 7353 H 690.9 5.97731 -3.17879 0
M  V30 7354 H 695.542 4.1207 -0.946467 0
M  V30 7355 H 693.26 6.62464 -4.62782 0
M  V30 7356 H 696.846 5.09522 -2.80853 0
M  V30 7357 H 695.726 6.33299 -4.62495 0
M  V30 7358 N 693.229 0.160201 1.56784 0
M  V30 7359 C 694.645 -0.196089 1.58391 0
M  V30 7360 C 694.845 -1.63689 1.17508 0
M  V30 7361 O 693.901 -2.36613 0.881506 0
M  V30 7362 C 695.214 0.0746449 3.00607 0
M  V30 7363 C 696.762 0.0119762 3.12998 0
M  V30 7364 C 697.237 0.255551 4.57286 0
M  V30 7365 N 698.728 0.202938 4.62755 0
M  V30 7366 C 699.463 0.365731 5.72232 0
M  V30 7367 N 698.959 0.586972 6.90309 0
M  V30 7368 N 700.752 0.302411 5.61286 0
M  V30 7369 H 692.903 1.1008 1.81648 0
M  V30 7370 H 695.166 0.436779 0.841384 0
M  V30 7371 H 694.872 1.07231 3.34954 0
M  V30 7372 H 694.746 -0.638802 3.71751 0
M  V30 7373 H 697.133 -0.976254 2.78484 0
M  V30 7374 H 697.214 0.75796 2.44313 0
M  V30 7375 H 696.858 1.24094 4.92507 0
M  V30 7376 H 696.788 -0.510912 5.24116 0
M  V30 7377 H 699.279 0.0371328 3.77882 0
M  V30 7378 H 699.592 0.700941 7.69615 0
M  V30 7379 H 697.937 0.623453 6.92198 0
M  V30 7380 H 701.128 0.130238 4.67919 0
M  V30 7381 H 701.301 0.432712 6.46554 0
M  V30 7382 N 694.707 -1.5719 -0.113559 0
M  V30 7383 C 696.118 -1.74259 -0.670116 0
M  V30 7384 C 696.469 -0.779694 -1.80042 0
M  V30 7385 O 695.594 0.0461353 -2.16351 0
M  V30 7386 C 696.189 -3.15981 -1.22236 0
M  V30 7387 C 694.748 -3.34537 -1.72516 0
M  V30 7388 C 693.895 -2.70116 -0.627098 0
M  V30 7389 H 696.846 -1.58301 0.112396 0
M  V30 7390 H 696.867 -3.17832 -2.09197 0
M  V30 7391 H 696.379 -3.86038 -0.39949 0
M  V30 7392 H 694.48 -2.6953 -2.57263 0
M  V30 7393 H 694.593 -4.42737 -1.83086 0
M  V30 7394 H 692.957 -2.31501 -1.06204 0
M  V30 7395 H 693.74 -3.42802 0.184889 0
M  V30 7396 N 696.185 0.383891 -1.52853 0
M  V30 7397 C 697.432 1.12842 -1.68146 0
M  V30 7398 C 697.76 1.89823 -0.423954 0
M  V30 7399 O 697.015 1.86475 0.593765 0
M  V30 7400 C 697.314 2.12881 -2.87082 0
M  V30 7401 C 696.98 1.52519 -4.24322 0
M  V30 7402 C 695.642 1.35783 -4.61645 0
M  V30 7403 C 697.994 1.0868 -5.09743 0
M  V30 7404 C 695.322 0.737643 -5.82044 0
M  V30 7405 C 697.674 0.480699 -6.30771 0
M  V30 7406 C 696.338 0.300681 -6.66822 0
M  V30 7407 H 695.608 0.412917 -0.615289 0
M  V30 7408 H 698.255 0.412416 -1.87006 0
M  V30 7409 H 696.56 2.90719 -2.62659 0
M  V30 7410 H 698.257 2.70408 -2.96109 0
M  V30 7411 H 694.847 1.66534 -3.94923 0
M  V30 7412 H 699.031 1.2041 -4.81472 0
M  V30 7413 H 694.287 0.586415 -6.08581 0
M  V30 7414 H 698.461 0.132733 -6.96273 0
M  V30 7415 H 696.088 -0.181966 -7.59982 0
M  V30 7416 N 697.663 1.43903 0.642637 0
M  V30 7417 C 698.912 1.45362 1.39831 0
M  V30 7418 C 699.225 0.0856289 1.95412 0
M  V30 7419 O 700.431 -0.0222856 2.71491 0
M  V30 7420 C 698.887 2.55857 2.53111 0
M  V30 7421 C 698.495 3.98811 2.04092 0
M  V30 7422 C 700.239 2.66524 3.30402 0
M  V30 7423 C 698.146 5.00751 3.14647 0
M  V30 7424 H 697.076 0.540777 0.52543 0
M  V30 7425 H 699.727 1.69929 0.692559 0
M  V30 7426 H 698.109 2.2451 3.26207 0
M  V30 7427 H 699.283 4.3967 1.37938 0
M  V30 7428 H 697.598 3.92284 1.39651 0
M  V30 7429 H 700.195 3.39858 4.12796 0
M  V30 7430 H 700.538 1.71949 3.79129 0
M  V30 7431 H 701.071 2.97224 2.64392 0
M  V30 7432 H 697.81 5.96914 2.70876 0
M  V30 7433 H 697.33 4.64495 3.79479 0
M  V30 7434 H 699.009 5.23933 3.79609 0
M  V30 7435 N 699.141 -0.881989 1.30609 0
M  V30 7436 C 700.39 -1.62878 1.18969 0
M  V30 7437 C 700.703 -1.93946 -0.253859 0
M  V30 7438 O 701.909 -2.67008 -0.491813 0
M  V30 7439 C 700.365 -2.93573 2.0819 0
M  V30 7440 C 699.973 -2.70034 3.57471 0
M  V30 7441 C 701.717 -3.71543 2.0532 0
M  V30 7442 C 699.624 -3.96563 4.38739 0
M  V30 7443 H 698.554 -0.611092 0.441682 0
M  V30 7444 H 701.205 -0.976201 1.55379 0
M  V30 7445 H 699.587 -3.6014 1.64666 0
M  V30 7446 H 700.761 -2.11949 4.09163 0
M  V30 7447 H 699.076 -2.05435 3.62195 0
M  V30 7448 H 701.673 -4.65386 2.63288 0
M  V30 7449 H 702.016 -4.03167 1.03739 0
M  V30 7450 H 702.549 -3.11842 2.46981 0
M  V30 7451 H 699.288 -3.70095 5.41027 0
M  V30 7452 H 698.808 -4.54142 3.9181 0
M  V30 7453 H 700.487 -4.64557 4.50329 0
M  V30 7454 N 700.619 -1.13374 -1.09472 0
M  V30 7455 C 702.035 -0.871846 -1.33682 0
M  V30 7456 C 702.235 0.492847 -1.9538 0
M  V30 7457 O 701.291 1.23946 -2.19985 0
M  V30 7458 C 702.604 -1.99608 -2.24893 0
M  V30 7459 C 704.152 -2.02812 -2.38404 0
M  V30 7460 C 704.627 -3.14497 -3.3295 0
M  V30 7461 N 706.118 -3.14004 -3.40523 0
M  V30 7462 C 706.853 -3.97061 -4.13679 0
M  V30 7463 N 706.349 -4.90131 -4.89636 0
M  V30 7464 N 708.142 -3.85162 -4.09398 0
M  V30 7465 H 700.293 -2.01288 -0.677995 0
M  V30 7466 H 702.556 -0.876492 -0.361201 0
M  V30 7467 H 702.262 -2.98 -1.86786 0
M  V30 7468 H 702.136 -1.90981 -3.25278 0
M  V30 7469 H 704.523 -1.05034 -2.75775 0
M  V30 7470 H 704.604 -2.15511 -1.37799 0
M  V30 7471 H 704.248 -4.12514 -2.96302 0
M  V30 7472 H 704.178 -2.99035 -4.33458 0
M  V30 7473 H 706.669 -2.46587 -2.86362 0
M  V30 7474 H 706.982 -5.49996 -5.42885 0
M  V30 7475 H 705.327 -4.94138 -4.88726 0
M  V30 7476 H 708.518 -3.11779 -3.49158 0
M  V30 7477 H 708.691 -4.5012 -4.6615 0
M  V30 7478 N 702.098 1.27442 -0.927168 0
M  V30 7479 C 703.509 1.76385 -0.611979 0
M  V30 7480 C 703.86 1.75715 0.872853 0
M  V30 7481 O 702.985 1.3603 1.683 0
M  V30 7482 C 703.58 3.20303 -1.10414 0
M  V30 7483 C 702.139 3.66916 -0.839628 0
M  V30 7484 C 701.286 2.46859 -1.26317 0
M  V30 7485 H 704.237 1.13716 -1.107 0
M  V30 7486 H 704.258 3.77811 -0.451578 0
M  V30 7487 H 703.77 3.20759 -2.18484 0
M  V30 7488 H 701.871 3.71906 0.227292 0
M  V30 7489 H 701.984 4.56415 -1.45679 0
M  V30 7490 H 700.348 2.45407 -0.681723 0
M  V30 7491 H 701.131 2.50025 -2.3525 0
M  V30 7492 N 703.576 0.692616 1.41565 0
M  V30 7493 C 704.804 0.231279 2.05603 0
M  V30 7494 C 705.219 -1.11837 1.52111 0
M  V30 7495 O 704.576 -1.6983 0.66813 0
M  V30 7496 C 704.627 0.177125 3.61066 0
M  V30 7497 O 704.348 1.47346 4.12578 0
M  V30 7498 C 705.849 -0.30556 4.42246 0
M  V30 7499 H 703.069 0.108238 0.662213 0
M  V30 7500 H 705.613 0.944369 1.81389 0
M  V30 7501 H 703.768 -0.486769 3.8433 0
M  V30 7502 H 704.182 1.35861 5.06599 0
M  V30 7503 H 705.656 -0.29233 5.51225 0
M  V30 7504 H 706.133 -1.34393 4.18133 0
M  V30 7505 H 706.739 0.327229 4.24039 0
M  V30 7506 N 705.054 -1.51416 0.437162 0
M  V30 7507 C 706.465 -1.86682 -0.0260005 0
M  V30 7508 C 706.816 -1.35432 -1.4196 0
M  V30 7509 O 705.941 -0.705055 -2.04592 0
M  V30 7510 C 706.536 -3.38757 -0.0539577 0
M  V30 7511 C 705.095 -3.7356 -0.461532 0
M  V30 7512 C 704.242 -2.75134 0.345924 0
M  V30 7513 H 707.193 -1.44642 0.653013 0
M  V30 7514 H 707.214 -3.70573 -0.863478 0
M  V30 7515 H 706.726 -3.76028 0.96045 0
M  V30 7516 H 704.827 -3.41878 -1.48155 0
M  V30 7517 H 704.94 -4.78737 -0.186451 0
M  V30 7518 H 703.304 -2.53947 -0.195739 0
M  V30 7519 H 704.087 -3.15247 1.35921 0
M  V30 7520 N 706.532 -0.168513 -1.56696 0
M  V30 7521 C 707.757 0.486688 -2.01609 0
M  V30 7522 C 708.182 1.56203 -1.04796 0
M  V30 7523 O 707.54 1.8128 -0.0270596 0
M  V30 7524 C 707.588 1.04451 -3.45141 0
M  V30 7525 O 706.692 2.15862 -3.51393 0
M  V30 7526 H 706.033 0.116831 -0.653641 0
M  V30 7527 H 708.563 -0.271579 -2.0279 0
M  V30 7528 H 708.573 1.36782 -3.84389 0
M  V30 7529 H 707.248 0.257155 -4.15104 0
M  V30 7530 H 705.825 1.84597 -3.24004 0
M  V30 7531 N 708.01 1.57248 0.105221 0
M  V30 7532 C 709.421 1.74612 0.660865 0
M  V30 7533 C 709.772 0.789231 1.79626 0
M  V30 7534 O 708.897 -0.0346611 2.16372 0
M  V30 7535 C 709.492 3.16624 1.20559 0
M  V30 7536 C 708.051 3.35447 1.7074 0
M  V30 7537 C 707.198 2.70445 0.612764 0
M  V30 7538 H 710.149 1.5824 -0.12079 0
M  V30 7539 H 710.17 3.18937 2.07508 0
M  V30 7540 H 709.682 3.86245 0.379012 0
M  V30 7541 H 707.783 2.7089 2.5583 0
M  V30 7542 H 707.896 4.43702 1.80736 0
M  V30 7543 H 706.26 2.32061 1.04975 0
M  V30 7544 H 707.043 3.42699 -0.203066 0
M  V30 7545 N 709.488 -0.375779 1.53054 0
M  V30 7546 C 710.418 -1.46598 1.81745 0
M  V30 7547 C 711.399 -1.56337 0.670286 0
M  V30 7548 O 712.584 -1.71071 0.919158 0
M  V30 7549 C 709.714 -2.84058 1.99821 0
M  V30 7550 C 708.668 -2.8915 3.15557 0
M  V30 7551 C 707.994 -4.29187 3.18908 0
M  V30 7552 C 709.294 -2.57595 4.54359 0
M  V30 7553 H 710.988 -1.22837 2.73041 0
M  V30 7554 H 708.534 -0.589485 1.31381 0
M  V30 7555 H 710.487 -3.60342 2.18475 0
M  V30 7556 H 709.211 -3.09184 1.05226 0
M  V30 7557 H 707.87 -2.15316 2.96706 0
M  V30 7558 H 707.518 -4.51374 2.2197 0
M  V30 7559 H 707.218 -4.33512 3.96662 0
M  V30 7560 H 708.742 -5.07359 3.39734 0
M  V30 7561 H 710.156 -3.23595 4.73243 0
M  V30 7562 H 708.553 -2.73252 5.34279 0
M  V30 7563 H 709.623 -1.52882 4.60169 0
M  V30 7564 N 710.966 -1.44241 -0.634997 0
M  V30 7565 C 711.899 -1.45274 -1.75985 0
M  V30 7566 C 712.877 -0.312025 -1.59578 0
M  V30 7567 O 714.061 -0.508409 -1.81514 0
M  V30 7568 C 711.188 -1.28173 -3.13511 0
M  V30 7569 C 710.234 -2.45757 -3.48576 0
M  V30 7570 S 711.067 -4.08293 -3.46492 0
M  V30 7571 C 712.223 -3.93608 -4.86645 0
M  V30 7572 H 712.456 -2.40454 -1.74841 0
M  V30 7573 H 709.989 -1.31492 -0.809268 0
M  V30 7574 H 711.947 -1.18993 -3.92875 0
M  V30 7575 H 710.608 -0.34511 -3.12198 0
M  V30 7576 H 709.801 -2.29644 -4.48642 0
M  V30 7577 H 709.403 -2.51657 -2.76667 0
M  V30 7578 H 711.695 -3.57059 -5.75774 0
M  V30 7579 H 712.638 -4.9349 -5.07813 0
M  V30 7580 H 713.046 -3.25737 -4.61038 0
M  V30 7581 N 712.444 0.87505 -1.31075 0
M  V30 7582 C 713.391 1.98178 -1.18296 0
M  V30 7583 C 714.361 1.65952 -0.0699923 0
M  V30 7584 O 715.546 1.8926 -0.241951 0
M  V30 7585 C 712.686 3.33399 -0.891024 0
M  V30 7586 C 711.799 3.78253 -2.08684 0
M  V30 7587 C 710.934 5.02166 -1.73212 0
M  V30 7588 C 709.973 5.39455 -2.89231 0
M  V30 7589 N 709.11 6.54549 -2.53989 0
M  V30 7590 H 713.95 2.0844 -2.12971 0
M  V30 7591 H 711.487 1.02047 -1.05948 0
M  V30 7592 H 713.445 4.11246 -0.702338 0
M  V30 7593 H 712.075 3.22794 0.0188799 0
M  V30 7594 H 711.127 2.9623 -2.38646 0
M  V30 7595 H 712.439 4.01821 -2.95536 0
M  V30 7596 H 711.593 5.87666 -1.50777 0
M  V30 7597 H 710.332 4.80491 -0.83544 0
M  V30 7598 H 709.337 4.52477 -3.12321 0
M  V30 7599 H 710.562 5.63098 -3.79601 0
M  V30 7600 H 708.508 6.3443 -1.66838 0
M  V30 7601 H 708.425 6.78035 -3.34372 0
M  V30 7602 H 709.693 7.43254 -2.34934 0
M  V30 7603 N 713.922 1.13953 1.08869 0
M  V30 7604 C 715.333 0.916649 1.62648 0
M  V30 7605 C 715.684 -0.545589 1.88462 0
M  V30 7606 O 714.809 -1.41351 1.63856 0
M  V30 7607 C 715.404 1.65751 2.95486 0
M  V30 7608 C 713.963 1.48034 3.46068 0
M  V30 7609 C 713.11 1.68305 2.20383 0
M  V30 7610 H 716.061 1.292 0.921572 0
M  V30 7611 H 716.082 1.11794 3.63707 0
M  V30 7612 H 715.594 2.72171 2.76667 0
M  V30 7613 H 713.695 0.439416 3.7 0
M  V30 7614 H 713.808 2.24719 4.23129 0
M  V30 7615 H 712.172 1.10833 2.29321 0
M  V30 7616 H 712.955 2.76057 2.04077 0
M  V30 7617 N 715.4 -1.26948 0.933913 0
M  V30 7618 C 716.33 -2.29017 0.45534 0
M  V30 7619 C 717.311 -1.62961 -0.487605 0
M  V30 7620 O 718.496 -1.90223 -0.391022 0
M  V30 7621 C 715.626 -3.46112 -0.287015 0
M  V30 7622 C 714.58 -4.24205 0.568682 0
M  V30 7623 C 713.906 -5.3384 -0.303206 0
M  V30 7624 C 715.206 -4.88954 1.83633 0
M  V30 7625 H 716.9 -2.69298 1.30839 0
M  V30 7626 H 714.446 -1.29459 0.630579 0
M  V30 7627 H 716.399 -4.16622 -0.6328 0
M  V30 7628 H 715.123 -3.04765 -1.17414 0
M  V30 7629 H 713.782 -3.5545 0.897261 0
M  V30 7630 H 713.43 -4.88734 -1.18947 0
M  V30 7631 H 713.13 -5.86998 0.265879 0
M  V30 7632 H 714.654 -6.0719 -0.644423 0
M  V30 7633 H 716.068 -5.51717 1.55823 0
M  V30 7634 H 714.465 -5.52198 2.34941 0
M  V30 7635 H 715.535 -4.12305 2.55211 0
M  V30 7636 N 716.879 -0.700114 -1.41195 0
M  V30 7637 C 717.809 -0.0521132 -2.33442 0
M  V30 7638 C 718.79 0.76228 -1.52063 0
M  V30 7639 O 719.975 0.714336 -1.80585 0
M  V30 7640 C 717.105 0.881693 -3.35922 0
M  V30 7641 C 716.059 0.174062 -4.27646 0
M  V30 7642 C 715.385 1.22254 -5.20536 0
M  V30 7643 C 716.685 -0.962396 -5.13357 0
M  V30 7644 H 718.379 -0.822574 -2.87879 0
M  V30 7645 H 715.925 -0.397011 -1.38419 0
M  V30 7646 H 717.878 1.34429 -3.99383 0
M  V30 7647 H 716.602 1.68387 -2.79845 0
M  V30 7648 H 715.261 -0.268551 -3.65615 0
M  V30 7649 H 714.909 2.01736 -4.60773 0
M  V30 7650 H 714.609 0.754038 -5.82742 0
M  V30 7651 H 716.133 1.68555 -5.86874 0
M  V30 7652 H 717.547 -0.579875 -5.7036 0
M  V30 7653 H 715.944 -1.35828 -5.84526 0
M  V30 7654 H 717.014 -1.80003 -4.50252 0
M  V30 7655 N 718.357 1.51182 -0.445186 0
M  V30 7656 C 719.603 2.02452 0.11882 0
M  V30 7657 C 719.936 1.32824 1.41673 0
M  V30 7658 O 719.211 0.445637 1.89326 0
M  V30 7659 C 719.494 3.5859 0.329475 0
M  V30 7660 C 719.347 4.38823 -0.987638 0
M  V30 7661 C 720.666 4.26241 1.09575 0
M  V30 7662 H 717.785 0.735819 0.0417092 0
M  V30 7663 H 720.427 1.80747 -0.585718 0
M  V30 7664 H 718.577 3.77214 0.9296 0
M  V30 7665 H 720.249 4.3183 -1.62235 0
M  V30 7666 H 718.492 4.03594 -1.59041 0
M  V30 7667 H 719.163 5.46257 -0.794192 0
M  V30 7668 H 721.639 4.11934 0.587328 0
M  V30 7669 H 720.515 5.35354 1.21191 0
M  V30 7670 H 720.776 3.87635 2.12584 0
M  V30 7671 N 719.835 0.176821 1.56605 0
M  V30 7672 C 721.082 -0.466715 1.97048 0
M  V30 7673 C 721.41 -1.6288 1.06302 0
M  V30 7674 O 720.665 -1.95453 0.0982571 0
M  V30 7675 C 720.964 -0.986208 3.43524 0
M  V30 7676 C 720.63 0.0605667 4.50859 0
M  V30 7677 C 719.292 0.348242 4.79938 0
M  V30 7678 C 721.644 0.770794 5.15469 0
M  V30 7679 C 718.972 1.35144 5.70923 0
M  V30 7680 C 721.324 1.76301 6.07537 0
M  V30 7681 C 719.988 2.05808 6.3498 0
M  V30 7682 H 719.258 -0.170783 0.721051 0
M  V30 7683 H 721.905 0.269942 1.89588 0
M  V30 7684 H 720.21 -1.80079 3.47964 0
M  V30 7685 H 721.907 -1.49323 3.72161 0
M  V30 7686 H 718.497 -0.173823 4.28247 0
M  V30 7687 H 722.681 0.56176 4.9311 0
M  V30 7688 H 717.937 1.58616 5.90467 0
M  V30 7689 H 722.111 2.31868 6.56666 0
M  V30 7690 H 719.738 2.8369 7.05283 0
M  V30 7691 N 721.313 -1.57302 -0.09688 0
M  V30 7692 C 722.559 -1.86273 -0.801885 0
M  V30 7693 C 722.892 -0.765694 -1.78468 0
M  V30 7694 O 722.167 0.226495 -1.93177 0
M  V30 7695 C 722.45 -3.25876 -1.53221 0
M  V30 7696 C 722.303 -4.46205 -0.567529 0
M  V30 7697 C 723.622 -3.63352 -2.48321 0
M  V30 7698 H 720.741 -0.67752 -0.29006 0
M  V30 7699 H 723.383 -1.89887 -0.0655577 0
M  V30 7700 H 721.533 -3.22926 -2.15988 0
M  V30 7701 H 723.205 -4.6127 0.0529982 0
M  V30 7702 H 721.448 -4.33636 0.119233 0
M  V30 7703 H 722.119 -5.40608 -1.11564 0
M  V30 7704 H 724.595 -3.67234 -1.95648 0
M  V30 7705 H 723.471 -4.61968 -2.9644 0
M  V30 7706 H 723.732 -2.91941 -3.31998 0
M  V30 7707 N 722.791 0.367657 -1.53252 0
M  V30 7708 C 723.739 1.47061 -1.8021 0
M  V30 7709 C 724.733 1.55539 -0.671112 0
M  V30 7710 O 725.939 1.58451 -0.854014 0
M  V30 7711 H 722.314 0.489868 -0.570555 0
M  V30 7712 H 724.285 1.21527 -2.72532 0
M  V30 7713 C 723.034 2.83924 -2.00706 0
M  V30 7714 H 722.357 2.78158 -2.87172 0
M  V30 7715 H 723.797 3.60281 -2.23547 0
M  V30 7716 C 722.256 3.27613 -0.785568 0
M  V30 7717 O 722.786 4.01691 0.0267459 0
M  V30 7718 N 720.992 2.84134 -0.609597 0
M  V30 7719 H 720.539 2.24017 -1.27178 0
M  V30 7720 H 720.497 3.13723 0.206281 0
M  V30 7721 N 724.269 1.44576 0.627338 0
M  V30 7722 C 725.68 1.42266 1.20902 0
M  V30 7723 C 726.031 0.139964 1.957 0
M  V30 7724 O 725.156 -0.759489 2.02634 0
M  V30 7725 C 725.751 2.57727 2.19914 0
M  V30 7726 C 724.31 2.58599 2.73502 0
M  V30 7727 C 723.457 2.34145 1.48564 0
M  V30 7728 H 726.408 1.53102 0.417791 0
M  V30 7729 H 726.429 2.30697 3.02588 0
M  V30 7730 H 725.941 3.51068 1.65447 0
M  V30 7731 H 724.042 1.6921 3.31962 0
M  V30 7732 H 724.155 3.57205 3.19282 0
M  V30 7733 H 722.519 1.83313 1.76829 0
M  V30 7734 H 723.302 3.29606 0.959935 0
M  V30 7735 N 725.747 -0.868086 1.31537 0
M  V30 7736 C 726.694 -1.97548 1.19346 0
M  V30 7737 C 727.664 -1.65913 0.0787922 0
M  V30 7738 O 728.849 -1.89129 0.251985 0
M  V30 7739 C 725.989 -3.32922 0.908692 0
M  V30 7740 C 725.102 -3.77141 2.10687 0
M  V30 7741 C 724.237 -5.01241 1.75873 0
M  V30 7742 C 723.276 -5.37914 2.92088 0
M  V30 7743 N 722.413 -6.53192 2.57457 0
M  V30 7744 H 727.253 -2.07307 2.14074 0
M  V30 7745 H 724.79 -1.01483 1.06487 0
M  V30 7746 H 726.748 -4.10867 0.724138 0
M  V30 7747 H 725.378 -3.228 -0.0017611 0
M  V30 7748 H 724.43 -2.94961 2.40213 0
M  V30 7749 H 725.742 -4.00248 2.97663 0
M  V30 7750 H 724.896 -5.86858 1.53891 0
M  V30 7751 H 723.635 -4.80041 0.86091 0
M  V30 7752 H 722.64 -4.50814 3.14717 0
M  V30 7753 H 723.865 -5.61077 3.82582 0
M  V30 7754 H 721.811 -6.33536 1.702 0
M  V30 7755 H 721.728 -6.76252 3.37963 0
M  V30 7756 H 722.996 -7.41997 2.38873 0
M  V30 7757 N 727.225 -1.14528 -1.08264 0
M  V30 7758 C 728.45 -0.938381 -1.84957 0
M  V30 7759 C 728.875 0.508044 -1.81109 0
M  V30 7760 O 728.233 1.36146 -1.19724 0
M  V30 7761 C 728.281 -1.44568 -3.30352 0
M  V30 7762 O 727.385 -0.638745 -4.07423 0
M  V30 7763 H 726.726 -0.335394 -0.573068 0
M  V30 7764 H 729.256 -1.52287 -1.36637 0
M  V30 7765 H 729.266 -1.45449 -3.81194 0
M  V30 7766 H 727.941 -2.49876 -3.32468 0
M  V30 7767 H 726.518 -0.698801 -3.66294 0
M  V30 7768 N 728.703 1.26451 -0.940633 0
M  V30 7769 C 729.951 1.93395 -0.586748 0
M  V30 7770 C 730.272 1.7417 0.876921 0
M  V30 7771 O 729.542 1.097 1.62304 0
M  V30 7772 H 728.122 0.715687 -0.214012 0
M  V30 7773 H 730.784 1.53902 -1.19584 0
M  V30 7774 H 729.88 3.01565 -0.804059 0
M  V30 7775 N 730.181 0.707592 1.40822 0
M  V30 7776 C 731.429 0.243189 2.00632 0
M  V30 7777 C 731.75 -1.16512 1.56365 0
M  V30 7778 O 731.02 -1.78841 0.799553 0
M  V30 7779 H 729.6 0.0869203 0.741926 0
M  V30 7780 H 732.262 0.911438 1.72275 0
M  V30 7781 H 731.358 0.270014 3.1093 0
M  V30 7782 N 731.66 -1.50943 0.453197 0
M  V30 7783 C 732.608 -2.29728 -0.364419 0
M  V30 7784 C 733.602 -1.36246 -1.00664 0
M  V30 7785 O 734.808 -1.53518 -0.939794 0
M  V30 7786 H 731.183 -0.739536 -0.136347 0
M  V30 7787 H 733.154 -2.96672 0.320696 0
M  V30 7788 C 731.903 -3.1629 -1.44415 0
M  V30 7789 H 731.226 -3.88119 -0.959343 0
M  V30 7790 H 732.666 -3.74444 -1.98917 0
M  V30 7791 C 731.125 -2.32702 -2.43622 0
M  V30 7792 O 731.655 -1.99763 -3.48508 0
M  V30 7793 N 729.861 -1.95621 -2.14897 0
M  V30 7794 H 729.408 -2.22607 -1.29629 0
M  V30 7795 H 729.366 -1.39993 -2.81513 0
M  V30 7796 N 733.138 -0.185124 -1.56509 0
M  V30 7797 C 734.07 0.771401 -2.15829 0
M  V30 7798 C 735.083 1.18392 -1.11747 0
M  V30 7799 O 736.272 1.12137 -1.38879 0
M  V30 7800 C 733.372 2.05169 -2.69739 0
M  V30 7801 C 732.545 1.80056 -3.98621 0
M  V30 7802 C 731.604 2.92435 -4.37456 0
M  V30 7803 O 730.63 2.62473 -5.05071 0
M  V30 7804 N 731.832 4.20554 -4.00143 0
M  V30 7805 H 734.597 0.264184 -2.98533 0
M  V30 7806 H 732.158 -0.00281069 -1.619 0
M  V30 7807 H 734.15 2.7947 -2.92709 0
M  V30 7808 H 732.72 2.47041 -1.91545 0
M  V30 7809 H 731.94 0.895862 -3.83885 0
M  V30 7810 H 733.228 1.60662 -4.82768 0
M  V30 7811 H 732.626 4.47753 -3.45736 0
M  V30 7812 H 731.183 4.91514 -4.28085 0
M  V30 7813 N 734.616 1.57351 0.0885366 0
M  V30 7814 C 735.864 1.86051 0.789262 0
M  V30 7815 C 736.185 0.774763 1.78948 0
M  V30 7816 O 735.455 -0.198324 1.94894 0
M  V30 7817 H 734.035 0.686508 0.294475 0
M  V30 7818 H 736.697 1.94779 0.0686055 0
M  V30 7819 H 735.793 2.83007 1.31581 0
M  V30 7820 N 736.094 -0.359525 1.53444 0
M  V30 7821 C 737.057 -1.42357 1.7963 0
M  V30 7822 C 738.057 -1.46319 0.666884 0
M  V30 7823 O 739.247 -1.46974 0.935113 0
M  V30 7824 C 736.379 -2.81425 1.92387 0
M  V30 7825 H 737.572 -1.20409 2.74666 0
M  V30 7826 H 735.125 -0.593007 1.44614 0
M  V30 7827 H 735.86 -3.08679 0.994384 0
M  V30 7828 H 735.645 -2.79947 2.74539 0
M  V30 7829 H 737.135 -3.5847 2.14218 0
M  V30 7830 N 737.572 -1.44907 -0.619662 0
M  V30 7831 C 738.519 -1.52654 -1.73105 0
M  V30 7832 C 739.489 -0.373334 -1.6185 0
M  V30 7833 O 740.674 -0.585143 -1.81606 0
M  V30 7834 C 737.814 -1.48769 -3.11387 0
M  V30 7835 C 736.927 -2.74551 -3.33535 0
M  V30 7836 C 736.062 -2.62421 -4.61854 0
M  V30 7837 C 735.101 -3.83312 -4.77219 0
M  V30 7838 N 734.238 -3.69789 -5.96826 0
M  V30 7839 H 739.078 -2.47605 -1.65819 0
M  V30 7840 H 736.615 -1.22875 -0.808719 0
M  V30 7841 H 738.573 -1.44507 -3.91374 0
M  V30 7842 H 737.203 -0.573783 -3.1766 0
M  V30 7843 H 736.255 -2.88953 -2.47408 0
M  V30 7844 H 737.567 -3.64253 -3.40765 0
M  V30 7845 H 736.721 -2.56056 -5.50019 0
M  V30 7846 H 735.46 -1.70298 -4.57001 0
M  V30 7847 H 734.465 -3.90049 -3.87481 0
M  V30 7848 H 735.69 -4.76486 -4.83878 0
M  V30 7849 H 733.636 -2.80426 -5.93041 0
M  V30 7850 H 733.553 -4.53116 -6.05163 0
M  V30 7851 H 734.821 -3.67335 -6.87521 0
M  V30 7852 N 739.05 0.861098 -1.31996 0
M  V30 7853 C 740.299 1.60965 -1.21545 0
M  V30 7854 C 740.612 1.94325 0.222972 0
M  V30 7855 O 741.818 2.67757 0.449272 0
M  V30 7856 C 740.274 2.90223 -2.12834 0
M  V30 7857 C 739.882 2.64313 -3.61722 0
M  V30 7858 C 741.626 3.68229 -2.11205 0
M  V30 7859 C 739.533 3.89532 -4.44993 0
M  V30 7860 H 738.463 0.603988 -0.451348 0
M  V30 7861 H 741.114 0.951358 -1.56912 0
M  V30 7862 H 739.496 3.57475 -1.70375 0
M  V30 7863 H 740.67 2.05413 -4.12483 0
M  V30 7864 H 738.985 1.99647 -3.65418 0
M  V30 7865 H 741.582 4.61138 -2.70658 0
M  V30 7866 H 741.925 4.01466 -1.1014 0
M  V30 7867 H 742.458 3.07873 -2.51911 0
M  V30 7868 H 739.197 3.61441 -5.46846 0
M  V30 7869 H 738.717 4.47851 -3.98985 0
M  V30 7870 H 740.396 4.57334 -4.57663 0
M  V30 7871 N 740.528 1.15101 1.07655 0
M  V30 7872 C 741.777 0.918528 1.79572 0
M  V30 7873 C 742.09 -0.555922 1.87534 0
M  V30 7874 O 743.296 -0.905893 2.55941 0
M  V30 7875 C 741.752 1.59394 3.22679 0
M  V30 7876 C 741.36 3.1052 3.22927 0
M  V30 7877 C 743.104 1.44289 3.99225 0
M  V30 7878 C 741.011 3.70862 4.60668 0
M  V30 7879 H 739.941 0.340006 0.672987 0
M  V30 7880 H 742.592 1.38079 1.20857 0
M  V30 7881 H 740.974 1.05936 3.81567 0
M  V30 7882 H 742.148 3.70708 2.737 0
M  V30 7883 H 740.463 3.25351 2.59876 0
M  V30 7884 H 743.06 1.86766 5.01022 0
M  V30 7885 H 743.403 0.389975 4.14469 0
M  V30 7886 H 743.936 1.94826 3.46825 0
M  V30 7887 H 740.675 4.7604 4.50628 0
M  V30 7888 H 740.195 3.15456 5.10145 0
M  V30 7889 H 741.874 3.71607 5.29639 0
M  V30 7890 N 742.006 -1.2595 0.947325 0
M  V30 7891 C 742.938 -2.25336 0.41906 0
M  V30 7892 C 743.951 -1.56135 -0.461051 0
M  V30 7893 O 745.14 -1.76438 -0.270505 0
M  V30 7894 C 742.24 -3.36334 -0.416233 0
M  V30 7895 C 741.413 -4.35088 0.449162 0
M  V30 7896 C 740.472 -5.25185 -0.326716 0
M  V30 7897 O 739.498 -5.68548 0.272374 0
M  V30 7898 N 740.7 -5.57388 -1.6217 0
M  V30 7899 H 743.465 -2.71298 1.27348 0
M  V30 7900 H 741.026 -1.39781 0.81688 0
M  V30 7901 H 743.018 -3.93564 -0.942826 0
M  V30 7902 H 741.588 -2.89819 -1.17148 0
M  V30 7903 H 740.808 -3.76841 1.15692 0
M  V30 7904 H 742.096 -4.98056 1.04008 0
M  V30 7905 H 741.494 -5.2405 -2.13046 0
M  V30 7906 H 740.051 -6.17234 -2.0944 0
M  V30 7907 N 743.484 -0.715051 -1.40445 0
M  V30 7908 C 744.709 -0.26254 -2.05732 0
M  V30 7909 C 745.134 1.08691 -1.53519 0
M  V30 7910 O 744.492 1.68453 -0.670328 0
M  V30 7911 C 744.54 -0.25195 -3.59719 0
M  V30 7912 O 743.644 0.766998 -4.05205 0
M  V30 7913 H 742.985 -0.123398 -0.652433 0
M  V30 7914 H 745.515 -0.975382 -1.79854 0
M  V30 7915 H 745.525 -0.0894537 -4.07902 0
M  V30 7916 H 744.2 -1.23672 -3.97087 0
M  V30 7917 H 742.777 0.572269 -3.68483 0
M  V30 7918 N 744.962 1.50701 -0.461195 0
M  V30 7919 C 746.209 2.02267 0.0971971 0
M  V30 7920 C 746.537 1.34387 1.40608 0
M  V30 7921 O 745.792 0.455254 1.90331 0
M  V30 7922 C 746.091 3.55788 0.33908 0
M  V30 7923 C 745.757 4.42092 -0.886885 0
M  V30 7924 C 744.419 4.65398 -1.22304 0
M  V30 7925 C 746.771 4.92571 -1.70361 0
M  V30 7926 C 744.099 5.36429 -2.37616 0
M  V30 7927 C 746.451 5.64868 -2.84793 0
M  V30 7928 C 745.115 5.86431 -3.18834 0
M  V30 7929 H 744.385 0.740146 0.0355669 0
M  V30 7930 H 747.032 1.81415 -0.61326 0
M  V30 7931 H 745.337 3.751 1.13168 0
M  V30 7932 H 747.034 3.93243 0.784937 0
M  V30 7933 H 743.624 4.24165 -0.614981 0
M  V30 7934 H 747.808 4.74428 -1.4571 0
M  V30 7935 H 743.064 5.51333 -2.64276 0
M  V30 7936 H 747.238 6.02966 -3.48432 0
M  V30 7937 H 744.865 6.41248 -4.08296 0
M  V30 7938 N 746.441 0.193421 1.56409 0
M  V30 7939 C 747.371 -0.723334 2.22014 0
M  V30 7940 C 748.352 -1.22254 1.1827 0
M  V30 7941 O 749.537 -1.27168 1.46771 0
M  V30 7942 C 746.667 -1.94366 2.87818 0
M  V30 7943 C 745.621 -1.57943 3.97791 0
M  V30 7944 C 744.947 -2.87623 4.50752 0
M  V30 7945 C 746.247 -0.790639 5.16281 0
M  V30 7946 H 747.941 -0.176426 2.9888 0
M  V30 7947 H 745.487 -0.0834166 1.43758 0
M  V30 7948 H 747.44 -2.5902 3.32396 0
M  V30 7949 H 746.164 -2.51507 2.08355 0
M  V30 7950 H 744.823 -0.956482 3.53903 0
M  V30 7951 H 744.471 -3.4285 3.68053 0
M  V30 7952 H 744.171 -2.63998 5.24956 0
M  V30 7953 H 745.695 -3.53268 4.9803 0
M  V30 7954 H 747.109 -1.34024 5.57414 0
M  V30 7955 H 745.506 -0.65258 5.96541 0
M  V30 7956 H 746.576 0.208633 4.84451 0
M  V30 7957 N 747.919 -1.57396 -0.0801906 0
M  V30 7958 C 749.165 -1.87979 -0.776884 0
M  V30 7959 C 749.52 -0.786098 -1.75608 0
M  V30 7960 O 748.813 0.210541 -1.9044 0
M  V30 7961 C 749.007 -3.22915 -1.53169 0
M  V30 7962 C 748.836 -4.45306 -0.627099 0
M  V30 7963 C 747.606 -5.04593 -0.267201 0
M  V30 7964 C 749.804 -5.14249 0.0724916 0
M  V30 7965 N 747.786 -6.10513 0.643995 0
M  V30 7966 C 749.157 -6.14267 0.841191 0
M  V30 7967 C 751.212 -4.97689 0.144847 0
M  V30 7968 C 749.915 -6.99514 1.67551 0
M  V30 7969 C 751.941 -5.83455 0.966112 0
M  V30 7970 C 751.303 -6.83005 1.72288 0
M  V30 7971 H 747.402 -0.737519 -0.259979 0
M  V30 7972 H 749.986 -1.94661 -0.0387512 0
M  V30 7973 H 748.157 -3.17256 -2.2406 0
M  V30 7974 H 749.889 -3.41174 -2.17675 0
M  V30 7975 H 746.644 -4.69548 -0.618194 0
M  V30 7976 H 747.068 -6.68125 1.09259 0
M  V30 7977 H 751.71 -4.20649 -0.4259 0
M  V30 7978 H 749.428 -7.75934 2.25726 0
M  V30 7979 H 753.014 -5.727 1.02497 0
M  V30 7980 H 751.894 -7.48219 2.34813 0
M  V30 7981 N 749.397 0.351382 -1.53633 0
M  V30 7982 C 750.627 1.11113 -1.74176 0
M  V30 7983 C 751.035 1.83084 -0.477154 0
M  V30 7984 O 750.378 1.74941 0.560483 0
M  V30 7985 C 750.44 2.17521 -2.86225 0
M  V30 7986 C 750.104 1.65193 -4.26099 0
M  V30 7987 C 751.101 1.10842 -5.07947 0
M  V30 7988 C 748.786 1.70277 -4.72558 0
M  V30 7989 C 750.78 0.622689 -6.34351 0
M  V30 7990 C 748.467 1.21316 -5.98937 0
M  V30 7991 C 749.465 0.674033 -6.79666 0
M  V30 7992 O 749.153 0.191696 -8.03671 0
M  V30 7993 H 748.885 0.33756 -0.585687 0
M  V30 7994 H 751.439 0.411786 -2.0123 0
M  V30 7995 H 749.669 2.90991 -2.54678 0
M  V30 7996 H 751.358 2.78999 -2.94812 0
M  V30 7997 H 752.124 1.06243 -4.7322 0
M  V30 7998 H 748.003 2.11181 -4.09785 0
M  V30 7999 H 751.547 0.201216 -6.9731 0
M  V30 8000 H 747.444 1.25613 -6.3316 0
M  V30 8001 H 748.212 0.309712 -8.17914 0
M  V30 8002 N 750.875 1.45233 0.611969 0
M  V30 8003 C 751.805 1.5641 1.73373 0
M  V30 8004 C 752.786 0.415896 1.64937 0
M  V30 8005 O 753.971 0.638478 1.83404 0
M  V30 8006 C 751.101 1.52627 3.11965 0
M  V30 8007 C 750.055 2.66119 3.35208 0
M  V30 8008 C 749.381 2.4739 4.74028 0
M  V30 8009 C 750.681 4.08157 3.25891 0
M  V30 8010 H 752.375 2.50307 1.64277 0
M  V30 8011 H 749.921 1.20467 0.788904 0
M  V30 8012 H 751.874 1.59043 3.90235 0
M  V30 8013 H 750.598 0.552564 3.21892 0
M  V30 8014 H 749.257 2.59123 2.59327 0
M  V30 8015 H 748.905 1.48168 4.80682 0
M  V30 8016 H 748.605 3.23494 4.90536 0
M  V30 8017 H 750.129 2.55653 5.54503 0
M  V30 8018 H 751.543 4.1642 3.9404 0
M  V30 8019 H 749.94 4.84617 3.5393 0
M  V30 8020 H 751.01 4.30374 2.23397 0
M  V30 8021 N 752.353 -0.854086 1.3245 0
M  V30 8022 C 753.301 -1.98411 1.21391 0
M  V30 8023 C 754.295 -1.68984 0.118586 0
M  V30 8024 O 755.501 -1.77784 0.281549 0
M  V30 8025 H 751.876 -0.651077 0.376301 0
M  V30 8026 H 753.847 -2.04867 2.16961 0
M  V30 8027 C 752.596 -3.34345 0.954407 0
M  V30 8028 H 751.919 -3.57518 1.78944 0
M  V30 8029 H 753.359 -4.13959 0.917269 0
M  V30 8030 C 751.818 -3.35151 -0.342838 0
M  V30 8031 O 752.348 -3.78174 -1.35452 0
M  V30 8032 N 750.554 -2.88298 -0.365012 0
M  V30 8033 H 750.101 -2.53481 0.4588 0
M  V30 8034 H 750.059 -2.8922 -1.23284 0
M  V30 8035 N 753.831 -1.1567 -1.07043 0
M  V30 8036 C 755.242 -0.942408 -1.61169 0
M  V30 8037 C 755.593 0.515537 -1.89306 0
M  V30 8038 O 754.718 1.38726 -1.66084 0
M  V30 8039 C 755.313 -1.70431 -2.92812 0
M  V30 8040 C 753.872 -1.53521 -3.43669 0
M  V30 8041 C 753.019 -1.7179 -2.17678 0
M  V30 8042 H 755.97 -1.3065 -0.9009 0
M  V30 8043 H 755.991 -1.17566 -3.61882 0
M  V30 8044 H 755.503 -2.76538 -2.72302 0
M  V30 8045 H 753.604 -0.498224 -3.69254 0
M  V30 8046 H 753.717 -2.31422 -4.19501 0
M  V30 8047 H 752.081 -1.14468 -2.27529 0
M  V30 8048 H 752.864 -2.79269 -1.99659 0
M  V30 8049 N 755.309 1.25446 -0.953992 0
M  V30 8050 C 756.725 1.4539 -0.658316 0
M  V30 8051 C 756.925 1.85607 0.784356 0
M  V30 8052 O 755.981 1.98568 1.55972 0
M  V30 8053 C 757.294 2.52643 -1.6307 0
M  V30 8054 C 758.842 2.66484 -1.64181 0
M  V30 8055 C 759.317 3.76921 -2.60182 0
M  V30 8056 N 760.808 3.84331 -2.58542 0
M  V30 8057 C 761.543 4.69271 -3.29503 0
M  V30 8058 N 761.039 5.58503 -4.09934 0
M  V30 8059 N 762.832 4.6323 -3.18393 0
M  V30 8060 H 754.983 0.976337 -1.8863 0
M  V30 8061 H 757.246 0.490343 -0.811337 0
M  V30 8062 H 756.952 2.29949 -2.66114 0
M  V30 8063 H 756.826 3.50547 -1.39271 0
M  V30 8064 H 759.213 2.88545 -0.618552 0
M  V30 8065 H 759.294 1.68982 -1.92038 0
M  V30 8066 H 758.938 3.55612 -3.62633 0
M  V30 8067 H 758.868 4.73906 -2.29609 0
M  V30 8068 H 761.359 3.20544 -2.0015 0
M  V30 8069 H 761.672 6.20241 -4.61 0
M  V30 8070 H 760.017 5.58214 -4.14032 0
M  V30 8071 H 763.208 3.92527 -2.5503 0
M  V30 8072 H 763.381 5.29204 -3.73961 0
M  V30 8073 N 756.787 0.722489 1.40064 0
M  V30 8074 C 757.719 0.0349057 2.29173 0
M  V30 8075 C 758.732 -0.716571 1.46182 0
M  V30 8076 O 759.921 -0.562806 1.69395 0
M  V30 8077 C 757.021 -0.974839 3.24577 0
M  V30 8078 C 756.194 -0.287471 4.36454 0
M  V30 8079 C 755.253 -1.20356 5.12251 0
M  V30 8080 O 754.279 -0.685753 5.65054 0
M  V30 8081 N 755.481 -2.53422 5.22262 0
M  V30 8082 H 758.246 0.800058 2.88824 0
M  V30 8083 H 755.807 0.57068 1.51509 0
M  V30 8084 H 757.799 -1.59002 3.72157 0
M  V30 8085 H 756.369 -1.6413 2.66046 0
M  V30 8086 H 755.589 0.508008 3.90913 0
M  V30 8087 H 756.877 0.189382 5.08447 0
M  V30 8088 H 756.275 -2.97981 4.80857 0
M  V30 8089 H 754.832 -3.10067 5.73325 0
M  V30 8090 N 758.265 -1.50454 0.469181 0
M  V30 8091 C 759.511 -2.02615 -0.0865971 0
M  V30 8092 C 759.844 -1.35062 -1.39542 0
M  V30 8093 O 759.119 -0.475701 -1.88593 0
M  V30 8094 C 759.402 -3.59068 -0.272385 0
M  V30 8095 C 759.255 -4.37196 1.05733 0
M  V30 8096 C 760.574 -4.2793 -1.0278 0
M  V30 8097 H 757.693 -0.736389 -0.0299977 0
M  V30 8098 H 760.335 -1.79792 0.614399 0
M  V30 8099 H 758.485 -3.78646 -0.869471 0
M  V30 8100 H 760.157 -4.29195 1.69084 0
M  V30 8101 H 758.4 -4.01013 1.65442 0
M  V30 8102 H 759.071 -5.44924 0.880997 0
M  V30 8103 H 761.547 -4.12816 -0.521718 0
M  V30 8104 H 760.423 -5.37214 -1.12659 0
M  V30 8105 H 760.684 -3.90968 -2.0639 0
M  V30 8106 N 759.743 -0.201713 -1.56304 0
M  V30 8107 C 760.99 0.435307 -1.97766 0
M  V30 8108 C 761.318 1.61169 -1.0888 0
M  V30 8109 O 760.573 1.95272 -0.12934 0
M  V30 8110 C 760.872 0.931432 -3.45049 0
M  V30 8111 C 760.538 -0.132287 -4.50706 0
M  V30 8112 C 759.2 -0.424552 -4.79323 0
M  V30 8113 C 761.552 -0.852703 -5.14177 0
M  V30 8114 C 758.88 -1.4421 -5.68701 0
M  V30 8115 C 761.232 -1.85944 -6.04655 0
M  V30 8116 C 759.896 -2.15884 -6.31625 0
M  V30 8117 H 759.166 0.15929 -0.723676 0
M  V30 8118 H 761.813 -0.300069 -1.89134 0
M  V30 8119 H 760.118 1.7452 -3.50785 0
M  V30 8120 H 761.815 1.43383 -3.74489 0
M  V30 8121 H 758.405 0.105671 -4.2847 0
M  V30 8122 H 762.589 -0.640139 -4.92154 0
M  V30 8123 H 757.845 -1.6799 -5.87869 0
M  V30 8124 H 762.019 -2.42286 -6.52894 0
M  V30 8125 H 759.646 -2.94875 -7.0068 0
M  V30 8126 N 761.222 1.57436 0.0718424 0
M  V30 8127 C 762.499 1.78312 0.804006 0
M  V30 8128 C 762.879 0.789273 1.9579 0
M  V30 8129 O 762.227 -0.177605 2.27809 0
M  V30 8130 C 762.437 3.24798 1.277 0
M  V30 8131 C 763.785 3.88627 1.71039 0
M  V30 8132 O 764.809 3.28689 1.37266 0
M  V30 8133 O 763.668 4.94073 2.33567 0
M  V30 8134 H 760.762 0.73178 0.385262 0
M  V30 8135 H 763.308 1.69621 0.0519219 0
M  V30 8136 H 762.08 3.88688 0.45134 0
M  V30 8137 H 761.703 3.38213 2.0904 0
M  V30 8138 N 762.7 -0.34323 1.53817 0
M  V30 8139 C 763.63 -1.42709 1.84814 0
M  V30 8140 C 764.611 -1.5488 0.703297 0
M  V30 8141 O 765.796 -1.69082 0.955237 0
M  V30 8142 C 762.926 -2.79756 2.05801 0
M  V30 8143 C 761.88 -2.82392 3.21619 0
M  V30 8144 C 761.206 -4.22326 3.2794 0
M  V30 8145 C 762.506 -2.479 4.59721 0
M  V30 8146 H 764.2 -1.17018 2.75585 0
M  V30 8147 H 761.746 -0.561485 1.32602 0
M  V30 8148 H 763.699 -3.55627 2.26069 0
M  V30 8149 H 762.423 -3.06883 1.11761 0
M  V30 8150 H 761.082 -2.08974 3.01207 0
M  V30 8151 H 760.73 -4.46564 2.31494 0
M  V30 8152 H 760.43 -4.25001 4.05768 0
M  V30 8153 H 761.954 -5.00039 3.50419 0
M  V30 8154 H 763.368 -3.13484 4.80001 0
M  V30 8155 H 761.765 -2.61857 5.39954 0
M  V30 8156 H 762.835 -1.43087 4.63308 0
M  V30 8157 N 764.178 -1.45556 -0.604258 0
M  V30 8158 C 765.403 -1.53509 -1.39462 0
M  V30 8159 C 765.828 -0.169638 -1.87333 0
M  V30 8160 O 765.186 0.846346 -1.60333 0
M  V30 8161 C 765.234 -2.52654 -2.5729 0
M  V30 8162 O 764.338 -2.04666 -3.5803 0
M  V30 8163 H 763.679 -0.517355 -0.416221 0
M  V30 8164 H 766.209 -1.90939 -0.735072 0
M  V30 8165 H 766.219 -2.71568 -3.04491 0
M  V30 8166 H 764.894 -3.51823 -2.21797 0
M  V30 8167 H 763.471 -1.95643 -3.17456 0
M  V30 8168 N 765.656 0.84705 -1.32902 0
M  V30 8169 C 766.588 1.96308 -1.18304 0
M  V30 8170 C 767.601 1.62386 -0.116082 0
M  V30 8171 O 768.79 1.74713 -0.365751 0
M  V30 8172 C 765.89 3.29556 -0.790305 0
M  V30 8173 C 765.063 3.91668 -1.94717 0
M  V30 8174 C 764.122 5.0326 -1.53674 0
M  V30 8175 O 763.148 5.22847 -2.24989 0
M  V30 8176 N 764.35 5.78852 -0.437075 0
M  V30 8177 H 767.115 2.09369 -2.14441 0
M  V30 8178 H 764.676 1.02233 -1.25539 0
M  V30 8179 H 766.668 4.01624 -0.49799 0
M  V30 8180 H 765.238 3.12497 0.0801286 0
M  V30 8181 H 764.458 3.12292 -2.40557 0
M  V30 8182 H 765.746 4.299 -2.72146 0
M  V30 8183 H 765.144 5.65484 0.156316 0
M  V30 8184 H 763.701 6.51479 -0.204399 0
M  V30 8185 N 767.134 1.16236 1.06428 0
M  V30 8186 C 768.382 0.941171 1.78847 0
M  V30 8187 C 768.703 -0.53248 1.87589 0
M  V30 8188 O 767.973 -1.38686 1.38358 0
M  V30 8189 H 766.553 0.345228 0.66244 0
M  V30 8190 H 769.215 1.46479 1.28569 0
M  V30 8191 H 768.311 1.35871 2.80972 0
M  V30 8192 N 768.612 -1.24939 0.960631 0
M  V30 8193 C 769.86 -1.92437 0.617441 0
M  V30 8194 C 770.181 -1.75543 -0.849101 0
M  V30 8195 O 769.451 -1.12269 -1.60538 0
M  V30 8196 H 768.031 -0.712192 0.225371 0
M  V30 8197 H 770.693 -1.5198 1.22017 0
M  V30 8198 H 769.789 -3.00247 0.851933 0
M  V30 8199 N 770.09 -0.729906 -1.39679 0
M  V30 8200 C 771.501 -0.346241 -1.83461 0
M  V30 8201 C 771.852 1.1215 -1.60987 0
M  V30 8202 O 770.977 1.86456 -1.09832 0
M  V30 8203 C 771.572 -0.621656 -3.33048 0
M  V30 8204 C 770.131 -0.291543 -3.75269 0
M  V30 8205 C 769.278 -0.886844 -2.62736 0
M  V30 8206 H 772.229 -0.927949 -1.28743 0
M  V30 8207 H 772.25 0.108301 -3.80346 0
M  V30 8208 H 771.762 -1.68996 -3.49373 0
M  V30 8209 H 769.863 0.771133 -3.64533 0
M  V30 8210 H 769.976 -0.770544 -4.72863 0
M  V30 8211 H 768.34 -0.313839 -2.52759 0
M  V30 8212 H 769.123 -1.95971 -2.81869 0
M  V30 8213 N 771.568 1.50203 -0.477153 0
M  V30 8214 C 772.515 2.28656 0.31386 0
M  V30 8215 C 773.485 1.33977 0.981802 0
M  V30 8216 O 774.67 1.62919 0.993072 0
M  V30 8217 C 771.81 3.16027 1.38639 0
M  V30 8218 C 770.923 4.25743 0.732615 0
M  V30 8219 C 770.058 5.00363 1.78355 0
M  V30 8220 C 769.097 6.01945 1.11035 0
M  V30 8221 N 768.234 6.6982 2.10441 0
M  V30 8222 H 773.074 2.958 -0.361445 0
M  V30 8223 H 770.611 1.45867 -0.190093 0
M  V30 8224 H 772.569 3.6504 2.01994 0
M  V30 8225 H 771.199 2.50917 2.03077 0
M  V30 8226 H 770.251 3.80398 -0.0136546 0
M  V30 8227 H 771.563 4.98393 0.201513 0
M  V30 8228 H 770.717 5.53124 2.49276 0
M  V30 8229 H 769.456 4.27432 2.34847 0
M  V30 8230 H 768.461 5.48438 0.386797 0
M  V30 8231 H 769.686 6.76851 0.552248 0
M  V30 8232 H 767.632 5.99677 2.65939 0
M  V30 8233 H 767.549 7.38366 1.62332 0
M  V30 8234 H 768.817 7.27196 2.80724 0
M  V30 8235 N 773.046 0.209999 1.56195 0
M  V30 8236 C 773.956 -0.716459 2.23392 0
M  V30 8237 C 774.972 -1.22291 1.23778 0
M  V30 8238 O 776.148 -1.26694 1.56558 0
M  V30 8239 C 773.213 -1.91261 2.89172 0
M  V30 8240 C 772.274 -1.44927 4.04097 0
M  V30 8241 C 771.507 -2.5884 4.66731 0
M  V30 8242 O 771.73 -3.76693 4.2832 0
M  V30 8243 O 770.664 -2.30701 5.55932 0
M  V30 8244 H 774.49 -0.174089 3.03201 0
M  V30 8245 H 772.075 -0.0199505 1.49387 0
M  V30 8246 H 773.957 -2.6114 3.30733 0
M  V30 8247 H 772.632 -2.4433 2.12331 0
M  V30 8248 H 771.539 -0.718839 3.67129 0
M  V30 8249 H 772.872 -0.965084 4.82646 0
M  V30 8250 N 774.524 -1.57472 -0.0634922 0
M  V30 8251 C 775.487 -2.03268 -1.059 0
M  V30 8252 C 776.487 -0.931028 -1.31105 0
M  V30 8253 O 777.677 -1.19567 -1.26686 0
M  V30 8254 C 774.809 -2.42039 -2.40062 0
M  V30 8255 H 776.002 -2.92454 -0.664119 0
M  V30 8256 H 773.555 -1.53206 -0.309444 0
M  V30 8257 H 774.29 -1.55904 -2.84367 0
M  V30 8258 H 774.075 -3.22437 -2.23108 0
M  V30 8259 H 775.565 -2.78017 -3.11603 0
M  V30 8260 N 776.003 0.335068 -1.53997 0
M  V30 8261 C 776.933 1.41727 -1.85568 0
M  V30 8262 C 777.914 1.54505 -0.7115 0
M  V30 8263 O 779.099 1.68573 -0.964191 0
M  V30 8264 C 776.229 2.7866 -2.07282 0
M  V30 8265 C 775.183 2.80682 -3.23112 0
M  V30 8266 C 774.509 4.20581 -3.30175 0
M  V30 8267 C 775.809 2.45458 -4.61029 0
M  V30 8268 H 777.503 1.15555 -2.76202 0
M  V30 8269 H 775.049 0.554445 -1.32898 0
M  V30 8270 H 777.002 3.54423 -2.27952 0
M  V30 8271 H 775.726 3.06286 -1.13387 0
M  V30 8272 H 774.385 2.07373 -3.02311 0
M  V30 8273 H 774.033 4.4533 -2.33859 0
M  V30 8274 H 773.733 4.22843 -4.08016 0
M  V30 8275 H 775.257 4.98174 -3.53066 0
M  V30 8276 H 776.671 3.10934 -4.81656 0
M  V30 8277 H 775.068 2.5899 -5.41336 0
M  V30 8278 H 776.138 1.40628 -4.6406 0
M  V30 8279 N 777.481 1.45874 0.596531 0
M  V30 8280 C 778.391 1.57947 1.73464 0
M  V30 8281 C 779.407 0.463461 1.67714 0
M  V30 8282 O 780.583 0.725685 1.87872 0
M  V30 8283 C 777.648 1.55348 3.09948 0
M  V30 8284 C 776.709 2.78074 3.27068 0
M  V30 8285 C 775.942 2.75589 4.57041 0
M  V30 8286 O 776.165 1.83545 5.40063 0
M  V30 8287 O 775.099 3.66945 4.77111 0
M  V30 8288 H 778.925 2.54169 1.66228 0
M  V30 8289 H 776.51 1.2851 0.76194 0
M  V30 8290 H 778.392 1.56545 3.91244 0
M  V30 8291 H 777.067 0.622811 3.17652 0
M  V30 8292 H 775.974 2.82435 2.45319 0
M  V30 8293 H 777.307 3.70303 3.24248 0
M  V30 8294 N 778.959 -0.83999 1.33349 0
M  V30 8295 C 779.892 -1.95415 1.17848 0
M  V30 8296 C 780.87 -1.6243 0.0742296 0
M  V30 8297 O 782.054 -1.87014 0.23626 0
M  V30 8298 C 779.181 -3.28938 0.807295 0
M  V30 8299 C 778.227 -3.80895 1.91888 0
M  V30 8300 S 779.06 -4.02709 3.52967 0
M  V30 8301 C 780.216 -5.39185 3.17853 0
M  V30 8302 H 780.449 -2.08265 2.12162 0
M  V30 8303 H 777.982 -0.993643 1.18178 0
M  V30 8304 H 779.94 -4.06093 0.599914 0
M  V30 8305 H 778.601 -3.13881 -0.117234 0
M  V30 8306 H 777.794 -4.77508 1.6125 0
M  V30 8307 H 777.396 -3.10633 2.08286 0
M  V30 8308 H 779.688 -6.21978 2.68608 0
M  V30 8309 H 780.631 -5.74795 4.13542 0
M  V30 8310 H 781.039 -5.03885 2.5448 0
M  V30 8311 N 780.437 -1.16799 -1.0581 0
M  V30 8312 C 781.667 -0.975454 -1.82122 0
M  V30 8313 C 782.075 0.479584 -1.83021 0
M  V30 8314 O 781.418 1.34471 -1.25153 0
M  V30 8315 C 781.48 -1.43209 -3.29744 0
M  V30 8316 C 781.144 -2.908 -3.5254 0
M  V30 8317 C 782.141 -3.88775 -3.45181 0
M  V30 8318 C 779.826 -3.28832 -3.79703 0
M  V30 8319 C 781.82 -5.22782 -3.64661 0
M  V30 8320 C 779.507 -4.63007 -3.98832 0
M  V30 8321 C 780.505 -5.59791 -3.91309 0
M  V30 8322 O 780.193 -6.9154 -4.09911 0
M  V30 8323 H 779.925 -0.345655 -0.580947 0
M  V30 8324 H 782.479 -1.55355 -1.34365 0
M  V30 8325 H 780.709 -0.797504 -3.78387 0
M  V30 8326 H 782.398 -1.2062 -3.87564 0
M  V30 8327 H 783.164 -3.60738 -3.2418 0
M  V30 8328 H 779.043 -2.54073 -3.84666 0
M  V30 8329 H 782.587 -5.98312 -3.58705 0
M  V30 8330 H 778.484 -4.90752 -4.19324 0
M  V30 8331 H 779.252 -6.98188 -4.27172 0
M  V30 8332 N 781.915 1.24427 -0.967243 0
M  V30 8333 C 783.331 1.44684 -0.6737 0
M  V30 8334 C 783.531 1.86429 0.764625 0
M  V30 8335 O 782.587 2.00211 1.53857 0
M  V30 8336 C 783.9 2.509 -1.6574 0
M  V30 8337 C 785.448 2.64728 -1.66998 0
M  V30 8338 C 785.923 3.7414 -2.64165 0
M  V30 8339 N 787.414 3.81567 -2.62604 0
M  V30 8340 C 788.149 4.6575 -3.34462 0
M  V30 8341 N 787.645 5.54124 -4.15835 0
M  V30 8342 N 789.438 4.59827 -3.23288 0
M  V30 8343 H 781.589 0.956276 -1.89655 0
M  V30 8344 H 783.852 0.48171 -0.816492 0
M  V30 8345 H 783.558 2.27113 -2.68538 0
M  V30 8346 H 783.432 3.4905 -1.42981 0
M  V30 8347 H 785.819 2.87872 -0.649121 0
M  V30 8348 H 785.9 1.66936 -1.93819 0
M  V30 8349 H 785.544 3.51745 -3.66384 0
M  V30 8350 H 785.474 4.71444 -2.34623 0
M  V30 8351 H 787.965 3.18403 -2.03539 0
M  V30 8352 H 788.278 6.15316 -4.67553 0
M  V30 8353 H 786.623 5.53791 -4.19929 0
M  V30 8354 H 789.814 3.898 -2.59179 0
M  V30 8355 H 789.987 5.25208 -3.79553 0
M  V30 8356 N 783.393 0.737304 1.3929 0
M  V30 8357 C 784.34 0.0988364 2.30588 0
M  V30 8358 C 785.31 -0.727206 1.49335 0
M  V30 8359 O 786.495 -0.686694 1.78014 0
M  V30 8360 C 783.635 -0.800734 3.35682 0
M  V30 8361 C 782.748 0.0381731 4.31983 0
M  V30 8362 C 781.883 -0.862884 5.24145 0
M  V30 8363 C 780.922 -0.0193639 6.12097 0
M  V30 8364 N 780.059 -0.87648 6.96608 0
M  V30 8365 H 784.899 0.883031 2.84617 0
M  V30 8366 H 782.436 0.447111 1.4014 0
M  V30 8367 H 784.394 -1.33676 3.95205 0
M  V30 8368 H 783.024 -1.55088 2.83103 0
M  V30 8369 H 782.076 0.691641 3.74059 0
M  V30 8370 H 783.388 0.690294 4.94 0
M  V30 8371 H 782.542 -1.46667 5.88705 0
M  V30 8372 H 781.281 -1.54878 4.62454 0
M  V30 8373 H 780.286 0.597202 5.46547 0
M  V30 8374 H 781.511 0.663348 6.75852 0
M  V30 8375 H 779.457 -1.54762 6.37483 0
M  V30 8376 H 779.374 -0.280892 7.55478 0
M  V30 8377 H 780.642 -1.46575 7.65595 0
M  V30 8378 N 784.871 -1.49948 0.485112 0
M  V30 8379 C 786.117 -2.02695 -0.0651022 0
M  V30 8380 C 786.45 -1.36534 -1.38102 0
M  V30 8381 O 785.725 -0.495677 -1.88078 0
M  V30 8382 C 786.008 -3.59337 -0.234285 0
M  V30 8383 C 785.861 -4.3605 1.10364 0
M  V30 8384 C 787.18 -4.28996 -0.982351 0
M  V30 8385 H 784.299 -0.736666 -0.0221856 0
M  V30 8386 H 786.941 -1.7913 0.633433 0
M  V30 8387 H 785.091 -3.79546 -0.829262 0
M  V30 8388 H 786.763 -4.27377 1.73627 0
M  V30 8389 H 785.006 -3.99236 1.69686 0
M  V30 8390 H 785.677 -5.43959 0.938743 0
M  V30 8391 H 788.153 -4.13346 -0.477904 0
M  V30 8392 H 787.029 -5.38379 -1.06955 0
M  V30 8393 H 787.29 -3.93135 -2.02231 0
M  V30 8394 N 786.349 -0.21828 -1.56081 0
M  V30 8395 C 787.299 0.706492 -2.16778 0
M  V30 8396 C 788.283 1.15987 -1.11516 0
M  V30 8397 O 789.475 1.11441 -1.37513 0
M  V30 8398 C 786.604 1.91583 -2.8487 0
M  V30 8399 C 785.69 1.48228 -3.97353 0
M  V30 8400 N 786.081 0.761113 -5.00041 0
M  V30 8401 C 784.379 1.76982 -4.09382 0
M  V30 8402 C 785.08 0.540496 -5.79184 0
M  V30 8403 N 784.056 1.09622 -5.32432 0
M  V30 8404 H 787.858 0.147038 -2.93532 0
M  V30 8405 H 785.372 -0.0194049 -1.62388 0
M  V30 8406 H 787.369 2.58906 -3.26762 0
M  V30 8407 H 786.029 2.47979 -2.09611 0
M  V30 8408 H 787.04 0.414141 -5.16241 0
M  V30 8409 H 783.717 2.34721 -3.45271 0
M  V30 8410 H 785.107 -0.0332531 -6.71892 0
M  V30 8411 N 787.827 1.57504 0.0551401 0
M  V30 8412 C 788.775 2.05884 1.08233 0
M  V30 8413 C 789.769 0.967383 1.39061 0
M  V30 8414 O 790.975 1.15242 1.38273 0
M  V30 8415 H 787.35 0.656673 0.366449 0
M  V30 8416 H 789.321 2.91273 0.648269 0
M  V30 8417 C 788.07 2.53221 2.38273 0
M  V30 8418 H 787.393 3.36809 2.15406 0
M  V30 8419 H 788.833 2.9081 3.08554 0
M  V30 8420 C 787.292 1.42218 3.05411 0
M  V30 8421 O 787.822 0.773638 3.9418 0
M  V30 8422 N 786.028 1.16316 2.66306 0
M  V30 8423 H 785.575 1.69237 1.94207 0
M  V30 8424 H 785.533 0.422534 3.11548 0
M  V30 8425 N 789.305 -0.326896 1.54172 0
M  V30 8426 C 790.235 -1.40741 1.86317 0
M  V30 8427 C 791.216 -1.54125 0.719684 0
M  V30 8428 O 792.401 -1.6806 0.973117 0
M  V30 8429 C 789.531 -2.77557 2.08757 0
M  V30 8430 C 788.485 -2.78965 3.24596 0
M  V30 8431 C 787.811 -4.18824 3.32401 0
M  V30 8432 C 789.111 -2.4301 4.62324 0
M  V30 8433 H 790.805 -1.14088 2.76811 0
M  V30 8434 H 788.351 -0.547389 1.3319 0
M  V30 8435 H 790.304 -3.53209 2.29829 0
M  V30 8436 H 789.028 -3.0568 1.15009 0
M  V30 8437 H 787.687 -2.05767 3.03406 0
M  V30 8438 H 787.335 -4.44083 2.36218 0
M  V30 8439 H 787.035 -4.20673 4.10253 0
M  V30 8440 H 788.559 -4.96294 3.55703 0
M  V30 8441 H 789.973 -3.08375 4.83299 0
M  V30 8442 H 788.37 -2.56116 5.42701 0
M  V30 8443 H 789.44 -1.38165 4.64799 0
M  V30 8444 N 790.784 -1.46188 -0.588786 0
M  V30 8445 C 792.2 -1.31009 -0.911524 0
M  V30 8446 C 792.4 -0.277017 -1.99587 0
M  V30 8447 O 791.456 0.322532 -2.50432 0
M  V30 8448 C 792.769 -2.69459 -1.33463 0
M  V30 8449 C 794.317 -2.77502 -1.44782 0
M  V30 8450 C 794.792 -4.1652 -1.90461 0
M  V30 8451 N 796.283 -4.18907 -1.97665 0
M  V30 8452 C 797.018 -5.23359 -2.34271 0
M  V30 8453 N 796.514 -6.38143 -2.69714 0
M  V30 8454 N 798.307 -5.10723 -2.34774 0
M  V30 8455 H 790.458 -2.12016 0.127614 0
M  V30 8456 H 792.721 -0.947984 -0.00557599 0
M  V30 8457 H 792.427 -3.46336 -0.611929 0
M  V30 8458 H 792.301 -2.99165 -2.2974 0
M  V30 8459 H 794.688 -2.00917 -2.1614 0
M  V30 8460 H 794.769 -2.51488 -0.467724 0
M  V30 8461 H 794.413 -4.93597 -1.19684 0
M  V30 8462 H 794.343 -4.39937 -2.89418 0
M  V30 8463 H 796.834 -3.36084 -1.72789 0
M  V30 8464 H 797.147 -7.13624 -2.96582 0
M  V30 8465 H 795.492 -6.41514 -2.67366 0
M  V30 8466 H 798.683 -4.20088 -2.06503 0
M  V30 8467 H 798.856 -5.9224 -2.62975 0
M  V30 8468 N 792.262 0.832906 -1.33792 0
M  V30 8469 C 793.511 1.58351 -1.24932 0
M  V30 8470 C 793.824 1.94754 0.181703 0
M  V30 8471 O 795.03 2.6865 0.392375 0
M  V30 8472 C 793.486 2.85643 -2.18943 0
M  V30 8473 C 793.094 2.56581 -3.67247 0
M  V30 8474 C 794.838 3.63667 -2.18968 0
M  V30 8475 C 792.745 3.80006 -4.53155 0
M  V30 8476 H 791.675 0.594278 -0.464058 0
M  V30 8477 H 794.326 0.91786 -1.58895 0
M  V30 8478 H 792.708 3.53781 -1.77919 0
M  V30 8479 H 793.882 1.96617 -4.16747 0
M  V30 8480 H 792.197 1.91851 -3.6957 0
M  V30 8481 H 794.794 4.55293 -2.80379 0
M  V30 8482 H 795.137 3.99039 -1.18631 0
M  V30 8483 H 795.67 3.0246 -2.58384 0
M  V30 8484 H 792.409 3.4976 -5.5439 0
M  V30 8485 H 791.929 4.39288 -4.08395 0
M  V30 8486 H 793.608 4.47523 -4.6726 0
M  V30 8487 N 793.74 1.17359 1.05189 0
M  V30 8488 C 794.67 0.91365 2.14883 0
M  V30 8489 C 795.651 -0.144365 1.69486 0
M  V30 8490 O 796.836 0.00587861 1.94199 0
M  V30 8491 C 793.966 0.426196 3.44675 0
M  V30 8492 C 792.92 1.4234 4.03638 0
M  V30 8493 C 792.246 0.793902 5.28773 0
M  V30 8494 C 793.546 2.7966 4.41121 0
M  V30 8495 H 795.24 1.831 2.36885 0
M  V30 8496 H 792.786 0.881781 1.13845 0
M  V30 8497 H 794.739 0.231767 4.20762 0
M  V30 8498 H 793.463 -0.526693 3.22325 0
M  V30 8499 H 792.122 1.60457 3.2962 0
M  V30 8500 H 791.77 -0.165824 5.02727 0
M  V30 8501 H 791.47 1.45959 5.69183 0
M  V30 8502 H 792.994 0.609747 6.07548 0
M  V30 8503 H 794.408 2.6526 5.08242 0
M  V30 8504 H 792.805 3.42807 4.92548 0
M  V30 8505 H 793.875 3.34068 3.51464 0
M  V30 8506 N 795.218 -1.23913 0.973828 0
M  V30 8507 C 796.181 -2.23367 0.51378 0
M  V30 8508 C 797.181 -1.55923 -0.39302 0
M  V30 8509 O 798.371 -1.73187 -0.187626 0
M  V30 8510 C 795.503 -3.39944 -0.255152 0
M  V30 8511 H 796.696 -2.65581 1.39307 0
M  V30 8512 H 794.249 -1.36632 0.759039 0
M  V30 8513 H 794.984 -3.03177 -1.15127 0
M  V30 8514 H 794.769 -3.90098 0.395673 0
M  V30 8515 H 796.259 -4.13749 -0.565842 0
M  V30 8516 N 796.696 -0.74468 -1.38897 0
M  V30 8517 C 797.936 -0.301691 -2.02161 0
M  V30 8518 C 798.3 1.09338 -1.57826 0
M  V30 8519 O 799.501 1.63499 -2.13358 0
M  V30 8520 C 797.772 -0.410601 -3.55034 0
M  V30 8521 S 799.331 -0.0488802 -4.38773 0
M  V30 8522 H 796.149 -0.117583 -0.70121 0
M  V30 8523 H 798.751 -0.973334 -1.69548 0
M  V30 8524 H 797.455 -1.42705 -3.8479 0
M  V30 8525 H 796.986 0.278531 -3.92413 0
M  V30 8526 H 799.001 1.16434 -4.82346 0
M  V30 8527 N 798.174 1.49689 -0.493057 0
M  V30 8528 C 799.422 2.02027 0.0541642 0
M  V30 8529 C 799.743 1.37554 1.38217 0
M  V30 8530 O 799.013 0.528174 1.88646 0
M  V30 8531 H 797.593 0.746646 0.0230069 0
M  V30 8532 H 800.255 1.83795 -0.648489 0
M  V30 8533 H 799.351 3.11523 0.189652 0
M  V30 8534 N 799.652 0.226554 1.55963 0
M  V30 8535 C 800.9 -0.402991 1.98041 0
M  V30 8536 C 801.221 -1.59938 1.11557 0
M  V30 8537 O 800.491 -1.9494 0.193719 0
M  V30 8538 H 799.071 -0.15188 0.731397 0
M  V30 8539 H 801.733 0.320613 1.92245 0
M  V30 8540 H 800.829 -0.725937 3.0354 0
M  V30 8541 N 801.13 -1.57531 -0.0467866 0
M  V30 8542 C 802.407 -1.79568 -0.775536 0
M  V30 8543 C 802.787 -0.820322 -1.94509 0
M  V30 8544 O 802.135 0.14134 -2.28062 0
M  V30 8545 C 802.345 -3.26789 -1.22516 0
M  V30 8546 C 803.693 -3.91299 -1.64835 0
M  V30 8547 O 804.717 -3.30831 -1.3202 0
M  V30 8548 O 803.576 -4.97727 -2.25677 0
M  V30 8549 H 800.67 -0.737817 -0.373572 0
M  V30 8550 H 803.216 -1.69682 -0.0249302 0
M  V30 8551 H 801.988 -3.89357 -0.389446 0
M  V30 8552 H 801.611 -3.41496 -2.03633 0
M  V30 8553 N 802.608 0.318715 -1.54344 0
M  V30 8554 C 803.856 1.054 -1.72439 0
M  V30 8555 C 804.177 1.88388 -0.503495 0
M  V30 8556 O 803.447 1.89866 0.48246 0
M  V30 8557 H 802.027 0.392124 -0.635805 0
M  V30 8558 H 804.689 0.35398 -1.91659 0
M  V30 8559 H 803.785 1.71726 -2.60608 0
M  V30 8560 N 804.086 1.46499 0.581025 0
M  V30 8561 C 805.314 1.5547 1.36517 0
M  V30 8562 C 805.729 0.196407 1.87776 0
M  V30 8563 O 805.086 -0.806577 1.63709 0
M  V30 8564 C 805.137 2.56084 2.55154 0
M  V30 8565 O 804.858 3.86637 2.06018 0
M  V30 8566 C 806.359 2.75011 3.47683 0
M  V30 8567 H 803.579 0.525703 0.416986 0
M  V30 8568 H 806.123 1.9192 0.706177 0
M  V30 8569 H 804.278 2.22633 3.17039 0
M  V30 8570 H 804.692 4.41413 2.83292 0
M  V30 8571 H 806.166 3.49329 4.27403 0
M  V30 8572 H 806.643 1.81978 3.99726 0
M  V30 8573 H 807.249 3.09565 2.91632 0
M  V30 8574 N 805.565 -0.825799 1.34232 0
M  V30 8575 C 806.811 -1.58419 1.26614 0
M  V30 8576 C 807.144 -1.93503 -0.164341 0
M  V30 8577 O 806.419 -1.59785 -1.109 0
M  V30 8578 C 806.702 -2.8856 2.15418 0
M  V30 8579 C 806.555 -2.60075 3.66989 0
M  V30 8580 C 807.874 -3.90107 2.03726 0
M  V30 8581 H 804.993 -0.574794 0.461282 0
M  V30 8582 H 807.635 -0.951519 1.64457 0
M  V30 8583 H 805.785 -3.42553 1.83275 0
M  V30 8584 H 807.457 -2.12414 4.09485 0
M  V30 8585 H 805.7 -1.93565 3.88221 0
M  V30 8586 H 806.371 -3.52866 4.24488 0
M  V30 8587 H 808.847 -3.45459 2.31942 0
M  V30 8588 H 807.723 -4.78976 2.68092 0
M  V30 8589 H 807.984 -4.30329 1.01337 0
M  V30 8590 N 807.043 -1.17915 -1.04565 0
M  V30 8591 C 808.291 -0.969505 -1.77327 0
M  V30 8592 C 808.612 0.502569 -1.88412 0
M  V30 8593 O 807.882 1.36467 -1.40547 0
M  V30 8594 H 806.462 -0.355723 -0.656864 0
M  V30 8595 H 809.124 -1.48506 -1.26223 0
M  V30 8596 H 808.22 -1.40324 -2.78775 0
M  V30 8597 N 808.521 1.23394 -0.980386 0
M  V30 8598 C 809.767 1.924 -0.659848 0
M  V30 8599 C 810.122 1.75076 0.797883 0
M  V30 8600 O 809.415 1.10104 1.56805 0
M  V30 8601 C 809.609 3.43542 -0.985588 0
M  V30 8602 C 809.438 3.75568 -2.47343 0
M  V30 8603 C 808.208 3.96257 -3.13541 0
M  V30 8604 C 810.406 3.81045 -3.45412 0
M  V30 8605 N 808.388 4.15489 -4.51932 0
M  V30 8606 C 809.759 4.05269 -4.69209 0
M  V30 8607 C 811.814 3.63837 -3.39893 0
M  V30 8608 C 810.517 4.14071 -5.88164 0
M  V30 8609 C 812.543 3.73892 -4.58212 0
M  V30 8610 C 811.905 3.98553 -5.80805 0
M  V30 8611 H 808.004 0.725229 -0.292518 0
M  V30 8612 H 810.588 1.48615 -1.25784 0
M  V30 8613 H 808.759 3.86163 -0.416289 0
M  V30 8614 H 810.491 3.99887 -0.622324 0
M  V30 8615 H 807.246 3.93168 -2.64038 0
M  V30 8616 H 807.67 4.29058 -5.23677 0
M  V30 8617 H 812.312 3.43767 -2.46139 0
M  V30 8618 H 810.03 4.32949 -6.82335 0
M  V30 8619 H 813.616 3.61932 -4.55518 0
M  V30 8620 H 812.496 4.06148 -6.70831 0
M  V30 8621 N 809.999 0.752036 1.385 0
M  V30 8622 C 811.248 0.304294 1.99391 0
M  V30 8623 C 811.561 -1.11982 1.60373 0
M  V30 8624 O 812.767 -1.66795 2.14223 0
M  V30 8625 C 811.223 0.493101 3.56506 0
M  V30 8626 C 810.831 1.9262 4.04477 0
M  V30 8627 C 812.575 0.107994 4.24363 0
M  V30 8628 C 810.482 2.06365 5.54227 0
M  V30 8629 H 809.412 0.110024 0.745929 0
M  V30 8630 H 812.063 0.928355 1.58284 0
M  V30 8631 H 810.445 -0.20012 3.95494 0
M  V30 8632 H 811.619 2.65276 3.76783 0
M  V30 8633 H 809.934 2.26608 3.49339 0
M  V30 8634 H 812.531 0.189474 5.34364 0
M  V30 8635 H 812.874 -0.939165 4.05568 0
M  V30 8636 H 813.407 0.753011 3.90608 0
M  V30 8637 H 810.146 3.0933 5.77923 0
M  V30 8638 H 809.666 1.38167 5.83669 0
M  V30 8639 H 811.345 1.85286 6.19902 0
M  V30 8640 N 811.477 -1.49425 0.500989 0
M  V30 8641 C 812.407 -2.31971 -0.266775 0
M  V30 8642 C 813.388 -1.40245 -0.962563 0
M  V30 8643 O 814.573 -1.69154 -0.953968 0
M  V30 8644 C 811.703 -3.20757 -1.33163 0
M  V30 8645 C 810.657 -4.21275 -0.75572 0
M  V30 8646 C 809.983 -4.98997 -1.92109 0
M  V30 8647 C 811.283 -5.21686 0.253213 0
M  V30 8648 H 812.977 -2.96408 0.422237 0
M  V30 8649 H 810.523 -1.4254 0.204505 0
M  V30 8650 H 812.476 -3.77315 -1.87646 0
M  V30 8651 H 811.2 -2.54263 -2.04983 0
M  V30 8652 H 809.859 -3.65861 -0.232637 0
M  V30 8653 H 809.507 -4.28951 -2.62698 0
M  V30 8654 H 809.207 -5.67011 -1.54182 0
M  V30 8655 H 810.731 -5.584 -2.47026 0
M  V30 8656 H 812.145 -5.72939 -0.203483 0
M  V30 8657 H 810.542 -5.9759 0.548322 0
M  V30 8658 H 811.612 -4.70596 1.16909 0
M  V30 8659 N 812.955 -0.234822 -1.55841 0
M  V30 8660 C 814.18 0.400741 -2.03492 0
M  V30 8661 C 814.605 1.51618 -1.11327 0
M  V30 8662 O 813.963 1.81002 -0.103922 0
M  V30 8663 C 814.011 0.897184 -3.49261 0
M  V30 8664 O 813.115 2.00764 -3.60233 0
M  V30 8665 H 812.456 0.0890023 -0.658008 0
M  V30 8666 H 814.986 -0.357345 -2.01455 0
M  V30 8667 H 814.996 1.20356 -3.89844 0
M  V30 8668 H 813.671 0.0808639 -4.15821 0
M  V30 8669 H 812.248 1.70689 -3.31541 0
M  V30 8670 N 814.433 1.57553 0.0384317 0
M  V30 8671 C 815.661 1.93093 0.743141 0
M  V30 8672 C 816.076 0.833787 1.69391 0
M  V30 8673 O 815.433 -0.190532 1.81503 0
M  V30 8674 C 815.484 3.28533 1.50826 0
M  V30 8675 O 815.205 4.34032 0.595665 0
M  V30 8676 C 816.706 3.78297 2.31098 0
M  V30 8677 H 813.926 0.637486 0.20941 0
M  V30 8678 H 816.47 2.045 -0.00125154 0
M  V30 8679 H 814.625 3.18552 2.20462 0
M  V30 8680 H 815.039 5.12155 1.13124 0
M  V30 8681 H 816.513 4.75602 2.80191 0
M  V30 8682 H 816.99 3.09008 3.12107 0
M  V30 8683 H 817.596 3.91331 1.66555 0
M  V30 8684 N 815.911 -0.310526 1.54511 0
M  V30 8685 C 816.841 -1.38757 1.878 0
M  V30 8686 C 817.822 -1.53353 0.735991 0
M  V30 8687 O 819.007 -1.67018 0.990887 0
M  V30 8688 C 816.137 -2.75327 2.11689 0
M  V30 8689 C 815.091 -2.75506 3.27537 0
M  V30 8690 C 814.417 -4.15275 3.36824 0
M  V30 8691 C 815.717 -2.38093 4.64875 0
M  V30 8692 H 817.411 -1.11146 2.78005 0
M  V30 8693 H 814.957 -0.533232 1.33763 0
M  V30 8694 H 816.91 -3.50752 2.33562 0
M  V30 8695 H 815.634 -3.04443 1.18245 0
M  V30 8696 H 814.293 -2.02538 3.05572 0
M  V30 8697 H 813.941 -4.41553 2.40915 0
M  V30 8698 H 813.641 -4.16299 4.14692 0
M  V30 8699 H 815.165 -4.92493 3.60947 0
M  V30 8700 H 816.579 -3.03232 4.86542 0
M  V30 8701 H 814.976 -2.50345 5.45387 0
M  V30 8702 H 816.046 -1.33227 4.66239 0
M  V30 8703 N 817.389 -1.46805 -0.573248 0
M  V30 8704 C 818.666 -1.43082 -1.33368 0
M  V30 8705 C 819.046 -0.119252 -2.10763 0
M  V30 8706 O 818.394 0.899239 -2.10062 0
M  V30 8707 C 818.604 -2.66643 -2.25172 0
M  V30 8708 C 819.952 -3.13188 -2.86702 0
M  V30 8709 O 820.976 -2.67258 -2.35482 0
M  V30 8710 O 819.835 -3.92994 -3.79761 0
M  V30 8711 H 816.929 -0.569451 -0.599712 0
M  V30 8712 H 819.475 -1.58984 -0.59348 0
M  V30 8713 H 818.247 -3.53649 -1.67475 0
M  V30 8714 H 817.87 -2.53247 -3.06516 0
M  V30 8715 N 818.867 0.818669 -1.34668 0
M  V30 8716 C 819.799 1.93754 -1.22442 0
M  V30 8717 C 820.812 1.62103 -0.150501 0
M  V30 8718 O 822.001 1.73898 -0.402728 0
M  V30 8719 C 819.101 3.27806 -0.860031 0
M  V30 8720 C 818.274 3.8745 -2.02981 0
M  V30 8721 C 817.333 4.99887 -1.64314 0
M  V30 8722 O 816.359 5.17957 -2.36029 0
M  V30 8723 N 817.561 5.77795 -0.55976 0
M  V30 8724 H 820.326 2.04773 -2.18833 0
M  V30 8725 H 817.887 0.995472 -1.27679 0
M  V30 8726 H 819.879 4.00478 -0.583068 0
M  V30 8727 H 818.449 3.12597 0.0138253 0
M  V30 8728 H 817.669 3.07119 -2.47127 0
M  V30 8729 H 818.957 4.2403 -2.81204 0
M  V30 8730 H 818.355 5.65688 0.0363329 0
M  V30 8731 H 816.912 6.50899 -0.342541 0
M  V30 8732 N 820.346 1.18468 1.03938 0
M  V30 8733 C 821.276 0.936389 2.13902 0
M  V30 8734 C 822.257 -0.126381 1.6963 0
M  V30 8735 O 823.442 0.0264757 1.94182 0
M  V30 8736 C 820.572 0.462729 3.44204 0
M  V30 8737 C 819.526 1.46613 4.02105 0
M  V30 8738 C 818.852 0.84994 5.27902 0
M  V30 8739 C 820.152 2.84323 4.3813 0
M  V30 8740 H 821.846 1.85602 2.3493 0
M  V30 8741 H 819.392 0.893806 1.12903 0
M  V30 8742 H 821.345 0.276382 4.20493 0
M  V30 8743 H 820.069 -0.492477 3.22866 0
M  V30 8744 H 818.728 1.63944 3.27899 0
M  V30 8745 H 818.376 -0.112493 5.02874 0
M  V30 8746 H 818.076 1.51988 5.67603 0
M  V30 8747 H 819.6 0.674152 6.06867 0
M  V30 8748 H 821.014 2.70636 5.054 0
M  V30 8749 H 819.411 3.48012 4.88884 0
M  V30 8750 H 820.481 3.37776 3.47901 0
M  V30 8751 N 821.824 -1.22873 0.986916 0
M  V30 8752 C 823.24 -1.43594 0.696633 0
M  V30 8753 C 823.44 -1.87622 -0.734869 0
M  V30 8754 O 822.496 -2.02633 -1.50652 0
M  V30 8755 C 823.809 -2.48231 1.69711 0
M  V30 8756 C 825.357 -2.62037 1.71188 0
M  V30 8757 C 825.832 -3.6989 2.70084 0
M  V30 8758 N 827.323 -3.77341 2.68641 0
M  V30 8759 C 828.058 -4.6037 3.41829 0
M  V30 8760 N 827.554 -5.47438 4.24598 0
M  V30 8761 N 829.347 -4.54626 3.30563 0
M  V30 8762 H 821.498 -0.925982 1.91153 0
M  V30 8763 H 823.761 -0.46866 0.824052 0
M  V30 8764 H 823.467 -2.22812 2.72117 0
M  V30 8765 H 823.341 -3.46731 1.48516 0
M  V30 8766 H 825.728 -2.86803 0.694837 0
M  V30 8767 H 825.809 -1.63831 1.96451 0
M  V30 8768 H 825.453 -3.45872 3.71934 0
M  V30 8769 H 825.383 -4.67652 2.42093 0
M  V30 8770 H 827.874 -3.15124 2.08578 0
M  V30 8771 H 828.187 -6.078 4.77283 0
M  V30 8772 H 826.532 -5.4704 4.28687 0
M  V30 8773 H 829.723 -3.85627 2.65347 0
M  V30 8774 H 829.896 -5.19103 3.8786 0
M  V30 8775 N 823.302 -0.75937 -1.38099 0
M  V30 8776 C 824.232 -0.151077 -2.33011 0
M  V30 8777 C 825.213 0.697099 -1.5516 0
M  V30 8778 O 826.398 0.637101 -1.83452 0
M  V30 8779 C 823.528 0.738423 -3.39359 0
M  V30 8780 C 822.482 -0.0074741 -4.27999 0
M  V30 8781 C 821.808 1.00066 -5.25253 0
M  V30 8782 C 823.108 -1.17926 -5.08813 0
M  V30 8783 H 824.802 -0.943933 -2.84131 0
M  V30 8784 H 822.348 -0.455362 -1.36611 0
M  V30 8785 H 824.301 1.17369 -4.04725 0
M  V30 8786 H 823.025 1.56366 -2.86735 0
M  V30 8787 H 821.684 -0.423379 -3.64147 0
M  V30 8788 H 821.332 1.82012 -4.68914 0
M  V30 8789 H 821.032 0.506199 -5.85416 0
M  V30 8790 H 822.556 1.43512 -5.93495 0
M  V30 8791 H 823.97 -0.821262 -5.67387 0
M  V30 8792 H 822.367 -1.60497 -5.78239 0
M  V30 8793 H 823.437 -1.98938 -4.42212 0
M  V30 8794 N 824.78 1.49157 -0.508906 0
M  V30 8795 C 825.727 2.2927 0.265288 0
M  V30 8796 C 826.697 1.3603 0.953162 0
M  V30 8797 O 827.882 1.64989 0.958291 0
M  V30 8798 C 825.022 3.18897 1.31904 0
M  V30 8799 C 824.135 4.27201 0.642144 0
M  V30 8800 C 823.27 5.04033 1.67701 0
M  V30 8801 C 822.309 6.04165 0.982422 0
M  V30 8802 N 821.446 6.74133 1.96186 0
M  V30 8803 H 826.286 2.94967 -0.424107 0
M  V30 8804 H 823.823 1.45431 -0.220991 0
M  V30 8805 H 825.781 3.69242 1.94206 0
M  V30 8806 H 824.411 2.55168 1.97709 0
M  V30 8807 H 823.463 3.80283 -0.0943395 0
M  V30 8808 H 824.775 4.98708 0.0957507 0
M  V30 8809 H 823.929 5.58287 2.37487 0
M  V30 8810 H 822.668 4.32317 2.25728 0
M  V30 8811 H 821.673 5.49135 0.270378 0
M  V30 8812 H 822.898 6.7787 0.408554 0
M  V30 8813 H 820.844 6.05183 2.53159 0
M  V30 8814 H 820.761 7.41643 1.46634 0
M  V30 8815 H 822.029 7.32987 2.65236 0
M  V30 8816 N 826.258 0.243083 1.55714 0
M  V30 8817 C 827.669 -0.260788 1.8487 0
M  V30 8818 C 828.02 -1.57879 1.16485 0
M  V30 8819 O 827.145 -2.1184 0.441908 0
M  V30 8820 C 827.74 -0.479954 3.35383 0
M  V30 8821 C 826.299 -0.928096 3.64778 0
M  V30 8822 C 825.446 -0.00316416 2.773 0
M  V30 8823 H 828.397 0.465743 1.51712 0
M  V30 8824 H 828.418 -1.32308 3.56756 0
M  V30 8825 H 827.93 0.479468 3.85127 0
M  V30 8826 H 826.031 -1.90012 3.20509 0
M  V30 8827 H 826.144 -0.7876 4.72582 0
M  V30 8828 H 824.508 -0.513849 2.49463 0
M  V30 8829 H 825.291 0.951562 3.29849 0
M  V30 8830 N 827.736 -1.57571 -0.0300757 0
M  V30 8831 C 829.147 -1.77567 -0.576802 0
M  V30 8832 C 829.498 -0.874034 -1.75656 0
M  V30 8833 O 828.623 -0.0686124 -2.16291 0
M  V30 8834 C 829.218 -3.22016 -1.05315 0
M  V30 8835 C 827.777 -3.43212 -1.5454 0
M  V30 8836 C 826.924 -2.73061 -0.483033 0
M  V30 8837 H 829.875 -1.57483 0.196151 0
M  V30 8838 H 829.896 -3.28474 -1.92055 0
M  V30 8839 H 829.408 -3.87613 -0.194298 0
M  V30 8840 H 827.509 -2.82788 -2.42615 0
M  V30 8841 H 827.622 -4.5182 -1.5936 0
M  V30 8842 H 825.986 -2.36805 -0.937835 0
M  V30 8843 H 826.769 -3.4134 0.366341 0
M  V30 8844 N 829.214 0.302327 -1.54673 0
M  V30 8845 C 830.625 0.875409 -1.64904 0
M  V30 8846 C 830.976 1.88132 -0.55684 0
M  V30 8847 O 830.101 2.14215 0.306754 0
M  V30 8848 C 830.696 1.59457 -2.9893 0
M  V30 8849 C 829.255 2.11607 -3.11287 0
M  V30 8850 C 828.402 0.948324 -2.6058 0
M  V30 8851 H 831.353 0.079362 -1.58501 0
M  V30 8852 H 831.374 2.46005 -2.90279 0
M  V30 8853 H 830.886 0.8622 -3.78402 0
M  V30 8854 H 828.987 2.87895 -2.36532 0
M  V30 8855 H 829.1 2.35151 -4.17422 0
M  V30 8856 H 827.464 1.33352 -2.17001 0
M  V30 8857 H 828.247 0.229936 -3.42529 0
M  V30 8858 N 830.692 1.47107 0.565454 0
M  V30 8859 C 832.103 1.47266 1.1476 0
M  V30 8860 C 832.454 0.222841 1.9493 0
M  V30 8861 O 831.579 -0.672862 2.05673 0
M  V30 8862 C 832.174 2.66822 2.08785 0
M  V30 8863 C 830.733 2.69967 2.62288 0
M  V30 8864 C 829.88 2.40236 1.38499 0
M  V30 8865 H 832.831 1.54736 0.352479 0
M  V30 8866 H 832.852 2.43323 2.92531 0
M  V30 8867 H 832.364 3.5777 1.50408 0
M  V30 8868 H 830.465 1.83137 3.24487 0
M  V30 8869 H 830.578 3.70426 3.03845 0
M  V30 8870 H 828.942 1.90648 1.68895 0
M  V30 8871 H 829.725 3.33381 0.819274 0
M  V30 8872 N 832.17 -0.811516 1.35101 0
M  V30 8873 C 833.416 -1.57068 1.28287 0
M  V30 8874 C 833.749 -1.93667 -0.143808 0
M  V30 8875 O 833.024 -1.60953 -1.09199 0
M  V30 8876 C 833.307 -2.86259 2.18466 0
M  V30 8877 C 833.16 -2.56168 3.69727 0
M  V30 8878 C 834.479 -3.87924 2.07852 0
M  V30 8879 H 831.598 -0.569869 0.467353 0
M  V30 8880 H 834.24 -0.934023 1.65457 0
M  V30 8881 H 832.39 -3.4059 1.86898 0
M  V30 8882 H 834.062 -2.08059 4.11715 0
M  V30 8883 H 832.305 -1.89436 3.90252 0
M  V30 8884 H 832.976 -3.48344 4.28206 0
M  V30 8885 H 835.452 -3.4298 2.35593 0
M  V30 8886 H 834.328 -4.76106 2.73157 0
M  V30 8887 H 834.589 -4.2923 1.05896 0
M  V30 8888 N 833.648 -1.19017 -1.03309 0
M  V30 8889 C 834.611 -0.926076 -2.09658 0
M  V30 8890 C 835.611 0.0917077 -1.60538 0
M  V30 8891 O 836.801 -0.142574 -1.73616 0
M  V30 8892 C 833.933 -0.390958 -3.38651 0
M  V30 8893 H 835.126 -1.86923 -2.3452 0
M  V30 8894 H 832.679 -1.00325 -1.19853 0
M  V30 8895 H 833.414 0.558446 -3.19456 0
M  V30 8896 H 833.199 -1.12474 -3.75622 0
M  V30 8897 H 834.689 -0.225131 -4.16993 0
M  V30 8898 N 835.127 1.22348 -0.993418 0
M  V30 8899 C 836.376 1.90422 -0.665019 0
M  V30 8900 C 836.689 1.78199 0.806512 0
M  V30 8901 O 837.895 2.41193 1.24652 0
M  V30 8902 C 836.351 3.41403 -1.13893 0
M  V30 8903 C 835.959 3.62262 -2.63572 0
M  V30 8904 C 837.703 4.15175 -0.884884 0
M  V30 8905 C 835.61 5.06947 -3.04564 0
M  V30 8906 H 834.54 0.713073 -0.245037 0
M  V30 8907 H 837.191 1.3856 -1.20305 0
M  V30 8908 H 835.573 3.9245 -0.529027 0
M  V30 8909 H 836.747 3.21705 -3.29913 0
M  V30 8910 H 835.062 3.01824 -2.86865 0
M  V30 8911 H 837.659 5.21813 -1.16684 0
M  V30 8912 H 838.002 4.15915 0.178982 0
M  V30 8913 H 838.535 3.70157 -1.45701 0
M  V30 8914 H 835.274 5.11346 -4.10128 0
M  V30 8915 H 834.794 5.48404 -2.42927 0
M  V30 8916 H 836.473 5.75374 -2.95894 0
M  V30 8917 N 836.605 0.766683 1.37694 0
M  V30 8918 C 837.535 0.163432 2.32927 0
M  V30 8919 C 838.516 -0.688861 1.55527 0
M  V30 8920 O 839.701 -0.627363 1.83787 0
M  V30 8921 C 836.831 -0.720416 3.39746 0
M  V30 8922 C 835.785 0.0301718 4.27989 0
M  V30 8923 C 835.111 -0.972788 5.25776 0
M  V30 8924 C 836.411 1.20623 5.0818 0
M  V30 8925 H 838.105 0.958988 2.83626 0
M  V30 8926 H 835.651 0.462601 1.36367 0
M  V30 8927 H 837.604 -1.15221 4.05342 0
M  V30 8928 H 836.328 -1.54844 2.8756 0
M  V30 8929 H 834.987 0.442685 3.63917 0
M  V30 8930 H 834.635 -1.79522 4.69873 0
M  V30 8931 H 834.335 -0.475145 5.85676 0
M  V30 8932 H 835.859 -1.40362 5.94248 0
M  V30 8933 H 837.273 0.851341 5.66944 0
M  V30 8934 H 835.67 1.63561 5.7738 0
M  V30 8935 H 836.74 2.01281 4.41151 0
M  V30 8936 N 838.083 -1.48885 0.516809 0
M  V30 8937 C 839.494 -1.86557 0.0729921 0
M  V30 8938 C 839.845 -1.42767 -1.34581 0
M  V30 8939 O 838.97 -0.812514 -2.00567 0
M  V30 8940 C 839.565 -3.38567 0.125686 0
M  V30 8941 C 838.124 -3.75481 -0.262867 0
M  V30 8942 C 837.271 -2.72913 0.491281 0
M  V30 8943 H 840.222 -1.40978 0.728767 0
M  V30 8944 H 840.243 -3.74629 -0.665831 0
M  V30 8945 H 839.755 -3.70408 1.15842 0
M  V30 8946 H 837.856 -3.49251 -1.29824 0
M  V30 8947 H 837.969 -4.79052 0.067579 0
M  V30 8948 H 836.333 -2.54627 -0.0608525 0
M  V30 8949 H 837.116 -3.07599 1.5244 0
M  V30 8950 N 839.561 -0.251338 -1.55583 0
M  V30 8951 C 840.491 0.640437 -2.24545 0
M  V30 8952 C 841.472 1.17781 -1.22726 0
M  V30 8953 O 842.657 1.21633 -1.5139 0
M  V30 8954 C 839.787 1.8355 -2.94834 0
M  V30 8955 C 838.741 1.4307 -4.03379 0
M  V30 8956 C 838.067 2.70695 -4.61116 0
M  V30 8957 C 839.367 0.59848 -5.1886 0
M  V30 8958 H 841.061 0.0653772 -2.99329 0
M  V30 8959 H 838.607 0.0300042 -1.43969 0
M  V30 8960 H 840.56 2.46505 -3.4178 0
M  V30 8961 H 839.284 2.43601 -2.17546 0
M  V30 8962 H 837.943 0.824474 -3.57209 0
M  V30 8963 H 837.591 3.28954 -3.80524 0
M  V30 8964 H 837.291 2.44332 -5.34393 0
M  V30 8965 H 838.815 3.34541 -5.10798 0
M  V30 8966 H 840.229 1.13244 -5.62004 0
M  V30 8967 H 838.626 0.430728 -5.98552 0
M  V30 8968 H 839.696 -0.38829 -4.83343 0
M  V30 8969 N 841.039 1.57585 0.0217189 0
M  V30 8970 C 842.287 1.89231 0.709641 0
M  V30 8971 C 842.608 0.849964 1.75501 0
M  V30 8972 O 841.878 -0.115485 1.95559 0
M  V30 8973 H 840.458 0.69838 0.265092 0
M  V30 8974 H 843.12 1.94895 -0.0140688 0
M  V30 8975 H 842.216 2.88333 1.19459 0
M  V30 8976 N 842.517 -0.29412 1.54831 0
M  V30 8977 C 843.745 -1.04724 1.78439 0
M  V30 8978 C 844.16 -1.80695 0.547239 0
M  V30 8979 O 843.517 -1.75989 -0.483141 0
M  V30 8980 C 843.568 -2.02242 2.99634 0
M  V30 8981 O 843.289 -1.29352 4.18568 0
M  V30 8982 C 844.79 -2.89537 3.35683 0
M  V30 8983 H 842.01 -0.310285 0.594949 0
M  V30 8984 H 844.554 -0.331306 2.01798 0
M  V30 8985 H 842.709 -2.69328 2.78462 0
M  V30 8986 H 843.123 -1.94901 4.86943 0
M  V30 8987 H 844.597 -3.538 4.23709 0
M  V30 8988 H 845.074 -3.58201 2.54143 0
M  V30 8989 H 845.68 -2.27973 3.59038 0
M  V30 8990 N 843.995 -1.47404 -0.557645 0
M  V30 8991 C 845.243 -1.53703 -1.31224 0
M  V30 8992 C 845.564 -0.200742 -1.93964 0
M  V30 8993 O 844.834 0.775253 -1.79907 0
M  V30 8994 H 843.414 -0.566171 -0.487299 0
M  V30 8995 H 846.076 -1.83699 -0.651195 0
M  V30 8996 H 845.172 -2.30335 -2.10599 0
M  V30 8997 N 845.473 0.80434 -1.35529 0
M  V30 8998 C 846.421 1.93769 -1.28671 0
M  V30 8999 C 847.415 1.68428 -0.181222 0
M  V30 9000 O 848.621 1.76617 -0.347338 0
M  V30 9001 H 844.996 0.636663 -0.400206 0
M  V30 9002 H 846.967 1.96673 -2.24415 0
M  V30 9003 C 845.716 3.30572 -1.07784 0
M  V30 9004 H 845.039 3.5063 -1.9209 0
M  V30 9005 H 846.479 4.1027 -1.07027 0
M  V30 9006 C 844.938 3.36193 0.218213 0
M  V30 9007 O 845.468 3.82941 1.21323 0
M  V30 9008 N 843.674 2.89455 0.257761 0
M  V30 9009 H 843.221 2.51604 -0.552562 0
M  V30 9010 H 843.179 2.93597 1.12465 0
M  V30 9011 N 846.951 1.19563 1.02676 0
M  V30 9012 C 848.228 0.908857 1.73203 0
M  V30 9013 C 848.608 -0.584928 2.02834 0
M  V30 9014 O 847.956 -1.54372 1.68469 0
M  V30 9015 C 848.166 1.77105 3.00724 0
M  V30 9016 C 849.514 2.00667 3.7419 0
M  V30 9017 O 850.538 1.74274 3.10656 0
M  V30 9018 O 849.397 2.4518 4.88415 0
M  V30 9019 H 846.491 0.338909 0.754367 0
M  V30 9020 H 849.037 1.30387 1.08616 0
M  V30 9021 H 847.809 2.78303 2.7507 0
M  V30 9022 H 847.432 1.37546 3.73051 0
M  V30 9023 N 848.429 -1.21819 0.999893 0
M  V30 9024 C 849.359 -2.26282 0.576096 0
M  V30 9025 C 850.34 -1.65317 -0.400537 0
M  V30 9026 O 851.525 -1.92028 -0.28964 0
M  V30 9027 C 848.655 -3.47147 -0.103145 0
M  V30 9028 C 847.609 -4.20594 0.792745 0
M  V30 9029 C 846.935 -5.34696 -0.0198026 0
M  V30 9030 C 848.235 -4.78533 2.09293 0
M  V30 9031 H 849.929 -2.61984 1.4493 0
M  V30 9032 H 847.475 -1.25935 0.698316 0
M  V30 9033 H 849.428 -4.1939 -0.411068 0
M  V30 9034 H 848.152 -3.1056 -1.01094 0
M  V30 9035 H 846.811 -3.50194 1.08442 0
M  V30 9036 H 846.459 -4.94352 -0.928729 0
M  V30 9037 H 846.159 -5.84764 0.576661 0
M  V30 9038 H 847.683 -6.09752 -0.321659 0
M  V30 9039 H 849.097 -5.42682 1.8485 0
M  V30 9040 H 847.494 -5.38968 2.63881 0
M  V30 9041 H 848.564 -3.98197 2.76708 0
M  V30 9042 N 849.908 -0.773975 -1.37286 0
M  V30 9043 C 850.871 -0.167974 -2.28584 0
M  V30 9044 C 851.871 0.625662 -1.48129 0
M  V30 9045 O 853.061 0.448924 -1.68316 0
M  V30 9046 C 850.193 0.769364 -3.32105 0
M  V30 9047 H 851.386 -0.972806 -2.83684 0
M  V30 9048 H 848.939 -0.542335 -1.46589 0
M  V30 9049 H 849.674 1.59912 -2.82132 0
M  V30 9050 H 849.459 0.202419 -3.91577 0
M  V30 9051 H 850.949 1.18872 -4.00324 0
M  V30 9052 N 851.386 1.48609 -0.524698 0
M  V30 9053 C 852.802 1.58557 -0.182199 0
M  V30 9054 C 853.002 1.52732 1.31435 0
M  V30 9055 O 852.058 1.41362 2.0922 0
M  V30 9056 C 853.371 2.90406 -0.78004 0
M  V30 9057 C 854.919 3.03924 -0.748293 0
M  V30 9058 C 855.394 4.38427 -1.32462 0
M  V30 9059 N 856.885 4.4498 -1.28635 0
M  V30 9060 C 857.62 5.47551 -1.70223 0
M  V30 9061 N 857.116 6.57103 -2.19515 0
M  V30 9062 N 858.909 5.38402 -1.61493 0
M  V30 9063 H 851.06 1.50638 -1.4974 0
M  V30 9064 H 853.323 0.714952 -0.622533 0
M  V30 9065 H 853.029 3.00308 -1.83052 0
M  V30 9066 H 852.903 3.76343 -0.254075 0
M  V30 9067 H 855.29 2.93638 0.293407 0
M  V30 9068 H 855.371 2.19611 -1.31167 0
M  V30 9069 H 855.015 4.49466 -2.36522 0
M  V30 9070 H 854.945 5.21418 -0.736967 0
M  V30 9071 H 857.436 3.66393 -0.92545 0
M  V30 9072 H 857.749 7.31499 -2.49257 0
M  V30 9073 H 856.094 6.58081 -2.23506 0
M  V30 9074 H 859.285 4.5171 -1.22785 0
M  V30 9075 H 859.458 6.18208 -1.94225 0
M  V30 9076 N 852.864 0.259585 1.55447 0
M  V30 9077 C 854.092 -0.365392 2.03648 0
M  V30 9078 C 854.507 -1.50613 1.13847 0
M  V30 9079 O 853.864 -1.81837 0.155414 0
M  V30 9080 C 853.915 -0.861172 3.51093 0
M  V30 9081 O 853.636 0.234121 4.37474 0
M  V30 9082 C 855.137 -1.55555 4.15111 0
M  V30 9083 H 852.357 -0.0853439 0.66555 0
M  V30 9084 H 854.901 0.387151 2.00802 0
M  V30 9085 H 853.056 -1.56385 3.54433 0
M  V30 9086 H 853.47 -0.1444 5.24301 0
M  V30 9087 H 854.944 -1.85403 5.19932 0
M  V30 9088 H 855.421 -2.48185 3.62355 0
M  V30 9089 H 856.027 -0.89712 4.15731 0
M  V30 9090 N 854.342 -1.57594 -0.0133615 0
M  V30 9091 C 855.272 -2.10611 -1.00823 0
M  V30 9092 C 856.253 -1.01217 -1.36708 0
M  V30 9093 O 857.438 -1.28827 -1.45318 0
M  V30 9094 C 854.568 -2.59844 -2.30431 0
M  V30 9095 C 853.522 -3.73644 -2.08745 0
M  V30 9096 C 852.848 -4.09141 -3.4425 0
M  V30 9097 C 854.148 -5.01454 -1.46086 0
M  V30 9098 H 855.842 -2.93985 -0.566849 0
M  V30 9099 H 853.388 -1.41423 -0.271219 0
M  V30 9100 H 855.341 -2.95557 -3.00373 0
M  V30 9101 H 854.065 -1.73573 -2.76658 0
M  V30 9102 H 852.724 -3.38303 -1.41232 0
M  V30 9103 H 852.372 -3.19914 -3.88155 0
M  V30 9104 H 852.072 -4.85802 -3.3056 0
M  V30 9105 H 853.596 -4.47402 -4.15528 0
M  V30 9106 H 855.01 -5.35024 -2.05966 0
M  V30 9107 H 853.407 -5.82832 -1.42924 0
M  V30 9108 H 854.477 -4.83003 -0.428471 0
M  V30 9109 N 855.82 0.285905 -1.54985 0
M  V30 9110 C 856.768 1.37302 -1.87752 0
M  V30 9111 C 857.762 1.51763 -0.752616 0
M  V30 9112 O 858.968 1.53701 -0.936805 0
M  V30 9113 H 855.343 0.458935 -0.59572 0
M  V30 9114 H 857.314 1.0691 -2.78591 0
M  V30 9115 C 856.063 2.72885 -2.15474 0
M  V30 9116 H 855.386 2.62545 -3.01513 0
M  V30 9117 H 856.826 3.47925 -2.42331 0
M  V30 9118 C 855.285 3.22989 -0.958124 0
M  V30 9119 O 855.815 4.01268 -0.186219 0
M  V30 9120 N 854.021 2.80503 -0.759354 0
M  V30 9121 H 853.568 2.16961 -1.38874 0
M  V30 9122 H 853.526 3.14375 0.0396937 0
M  V30 9123 N 857.298 1.47698 0.54982 0
M  V30 9124 C 858.544 1.55914 1.30624 0
M  V30 9125 C 858.899 0.221596 1.9112 0
M  V30 9126 O 858.192 -0.77351 1.75292 0
M  V30 9127 C 858.386 2.61903 2.4319 0
M  V30 9128 C 858.215 4.05833 1.93725 0
M  V30 9129 C 856.985 4.73199 1.77231 0
M  V30 9130 C 859.183 4.92624 1.47738 0
M  V30 9131 N 857.165 6.01618 1.22183 0
M  V30 9132 C 858.536 6.11129 1.04505 0
M  V30 9133 C 860.591 4.79006 1.35857 0
M  V30 9134 C 859.294 7.1752 0.505722 0
M  V30 9135 C 861.32 5.85501 0.833254 0
M  V30 9136 C 860.682 7.03201 0.410894 0
M  V30 9137 H 856.781 0.625194 0.469741 0
M  V30 9138 H 859.365 1.84485 0.622369 0
M  V30 9139 H 857.536 2.35188 3.09098 0
M  V30 9140 H 859.268 2.59919 3.102 0
M  V30 9141 H 856.023 4.29221 2.00166 0
M  V30 9142 H 856.447 6.70054 0.967263 0
M  V30 9143 H 861.089 3.88369 1.67122 0
M  V30 9144 H 858.807 8.07898 0.180721 0
M  V30 9145 H 862.393 5.77013 0.744781 0
M  V30 9146 H 861.273 7.84199 0.0107086 0
M  V30 9147 N 858.776 -0.797141 1.35954 0
M  V30 9148 C 860.024 -1.55161 1.29497 0
M  V30 9149 C 860.345 -1.94582 -0.127659 0
M  V30 9150 O 859.615 -1.64343 -1.06622 0
M  V30 9151 H 858.195 -0.575413 0.47635 0
M  V30 9152 H 860.857 -0.950282 1.70164 0
M  V30 9153 H 859.953 -2.46272 1.9172 0
M  V30 9154 N 860.254 -1.20106 -1.0204 0
M  V30 9155 C 861.502 -1.0069 -1.75231 0
M  V30 9156 C 861.823 0.462491 -1.89436 0
M  V30 9157 O 861.093 1.33455 -1.4341 0
M  V30 9158 H 859.673 -0.369576 -0.649171 0
M  V30 9159 H 862.335 -1.51149 -1.23044 0
M  V30 9160 H 861.431 -1.46205 -2.75736 0
M  V30 9161 N 861.732 1.21287 -1.00634 0
M  V30 9162 C 862.98 1.90013 -0.688438 0
M  V30 9163 C 863.301 1.78573 0.783365 0
M  V30 9164 O 862.571 1.1815 1.56261 0
M  V30 9165 H 861.151 0.703336 -0.251648 0
M  V30 9166 H 863.813 1.47346 -1.27574 0
M  V30 9167 H 862.909 2.96879 -0.962781 0
M  V30 9168 N 863.21 0.781244 1.36873 0
M  V30 9169 C 864.44 0.361042 2.03421 0
M  V30 9170 C 864.848 -1.02471 1.59048 0
M  V30 9171 O 864.191 -1.66712 0.771552 0
M  V30 9172 C 864.253 0.336202 3.57924 0
M  V30 9173 C 863.917 1.66815 4.25467 0
M  V30 9174 C 864.914 2.62224 4.48926 0
M  V30 9175 C 862.599 1.9452 4.63106 0
M  V30 9176 C 864.593 3.83538 5.09095 0
M  V30 9177 C 862.28 3.16103 5.22994 0
M  V30 9178 C 863.278 4.10431 5.45926 0
M  V30 9179 O 862.966 5.29871 6.04559 0
M  V30 9180 H 862.698 0.147956 0.65961 0
M  V30 9181 H 865.252 1.05895 1.75998 0
M  V30 9182 H 863.482 -0.418147 3.84433 0
M  V30 9183 H 865.171 -0.0582199 4.05858 0
M  V30 9184 H 865.937 2.42104 4.20251 0
M  V30 9185 H 861.816 1.21921 4.44585 0
M  V30 9186 H 865.36 4.57178 5.2691 0
M  V30 9187 H 861.257 3.36104 5.51094 0
M  V30 9188 H 862.025 5.30825 6.23031 0
M  V30 9189 N 864.689 -1.48329 0.532571 0
M  V30 9190 C 865.917 -2.069 0.00354299 0
M  V30 9191 C 866.332 -1.38876 -1.27902 0
M  V30 9192 O 865.689 -0.477119 -1.76153 0
M  V30 9193 C 865.74 -3.60821 -0.221416 0
M  V30 9194 O 865.461 -4.26291 1.01034 0
M  V30 9195 C 866.962 -4.36194 -0.790531 0
M  V30 9196 H 864.182 -0.670103 0.0346836 0
M  V30 9197 H 866.726 -1.90682 0.738955 0
M  V30 9198 H 864.881 -3.76636 -0.906884 0
M  V30 9199 H 865.295 -5.18475 0.792683 0
M  V30 9200 H 866.769 -5.44657 -0.897347 0
M  V30 9201 H 867.246 -4.00798 -1.79605 0
M  V30 9202 H 867.852 -4.25064 -0.141546 0
M  V30 9203 N 866.167 -0.267825 -1.55308 0
M  V30 9204 C 867.444 0.402449 -1.91415 0
M  V30 9205 C 867.824 1.7428 -1.1912 0
M  V30 9206 O 867.172 2.2631 -0.315609 0
M  V30 9207 C 867.382 0.549926 -3.4464 0
M  V30 9208 C 868.73 0.836188 -4.16285 0
M  V30 9209 O 869.754 0.635009 -3.50494 0
M  V30 9210 O 868.613 1.22051 -5.32697 0
M  V30 9211 H 865.707 0.219177 -0.797427 0
M  V30 9212 H 868.253 -0.313439 -1.6678 0
M  V30 9213 H 867.025 -0.393641 -3.89315 0
M  V30 9214 H 866.648 1.31556 -3.75205 0
M  V30 9215 N 867.645 1.57599 0.00500368 0
M  V30 9216 C 868.555 2.11532 1.01446 0
M  V30 9217 C 869.571 1.05941 1.3803 0
M  V30 9218 O 870.747 1.37815 1.46864 0
M  V30 9219 C 867.812 2.60382 2.28915 0
M  V30 9220 C 866.873 3.80554 1.98689 0
M  V30 9221 C 866.106 4.27064 3.20081 0
M  V30 9222 O 866.329 3.72939 4.31593 0
M  V30 9223 O 865.263 5.1927 3.04371 0
M  V30 9224 H 869.089 2.97993 0.586011 0
M  V30 9225 H 866.674 1.47718 0.223519 0
M  V30 9226 H 868.556 2.92024 3.03809 0
M  V30 9227 H 867.231 1.77022 2.71007 0
M  V30 9228 H 866.138 3.53893 1.21286 0
M  V30 9229 H 867.471 4.64972 1.61437 0
M  V30 9230 N 869.123 -0.277682 1.55134 0
M  V30 9231 C 870.534 -0.849063 1.66276 0
M  V30 9232 C 870.885 -1.87223 0.5867 0
M  V30 9233 O 870.01 -2.14676 -0.272635 0
M  V30 9234 C 870.605 -1.54681 3.01429 0
M  V30 9235 C 869.164 -2.06628 3.14614 0
M  V30 9236 C 868.311 -0.906748 2.62056 0
M  V30 9237 H 871.262 -0.0541357 1.58608 0
M  V30 9238 H 871.283 -2.41356 2.94156 0
M  V30 9239 H 870.795 -0.80189 3.79725 0
M  V30 9240 H 868.896 -2.84095 2.41082 0
M  V30 9241 H 869.009 -2.2848 4.2111 0
M  V30 9242 H 867.373 -1.29882 2.19095 0
M  V30 9243 H 868.156 -0.175414 3.42852 0
M  V30 9244 N 870.601 -1.47988 -0.541979 0
M  V30 9245 C 871.847 -1.55623 -1.30036 0
M  V30 9246 C 872.18 -0.224254 -1.92901 0
M  V30 9247 O 871.455 0.768629 -1.78668 0
M  V30 9248 C 871.738 -2.68562 -2.39888 0
M  V30 9249 C 871.591 -4.11426 -1.81792 0
M  V30 9250 C 872.91 -2.77325 -3.41729 0
M  V30 9251 H 870.029 -0.566498 -0.471433 0
M  V30 9252 H 872.671 -1.8011 -0.604998 0
M  V30 9253 H 870.821 -2.47814 -2.992 0
M  V30 9254 H 872.493 -4.43581 -1.26624 0
M  V30 9255 H 870.736 -4.18989 -1.12386 0
M  V30 9256 H 871.407 -4.8625 -2.61276 0
M  V30 9257 H 873.883 -2.96085 -2.92357 0
M  V30 9258 H 872.759 -3.58097 -4.16002 0
M  V30 9259 H 873.02 -1.84995 -4.01534 0
M  V30 9260 N 872.079 0.78992 -1.36375 0
M  V30 9261 C 873.304 1.58389 -1.33895 0
M  V30 9262 C 873.729 1.8794 0.0774934 0
M  V30 9263 O 873.087 1.4785 1.0493 0
M  V30 9264 C 873.135 2.88201 -2.16732 0
M  V30 9265 O 872.239 3.81778 -1.55946 0
M  V30 9266 H 871.58 0.480471 -0.458305 0
M  V30 9267 H 874.11 0.979119 -1.79651 0
M  V30 9268 H 874.12 3.37475 -2.29292 0
M  V30 9269 H 872.795 2.66019 -3.19698 0
M  V30 9270 H 871.372 3.40371 -1.52323 0
M  V30 9271 N 873.557 1.20646 1.01402 0
M  V30 9272 C 874.504 0.957618 2.09996 0
M  V30 9273 C 875.474 -0.113115 1.65714 0
M  V30 9274 O 876.659 0.032142 1.90773 0
M  V30 9275 C 873.799 0.5186 3.41181 0
M  V30 9276 C 872.912 1.65777 3.98926 0
M  V30 9277 C 872.047 1.16881 5.18182 0
M  V30 9278 C 871.086 2.2809 5.68015 0
M  V30 9279 N 870.223 1.80392 6.7853 0
M  V30 9280 H 875.063 1.88732 2.30617 0
M  V30 9281 H 872.6 0.940703 1.13089 0
M  V30 9282 H 874.558 0.245367 4.16478 0
M  V30 9283 H 873.188 -0.3741 3.20625 0
M  V30 9284 H 872.24 2.04586 3.207 0
M  V30 9285 H 873.552 2.49507 4.31912 0
M  V30 9286 H 872.706 0.851694 6.00692 0
M  V30 9287 H 871.445 0.301434 4.86768 0
M  V30 9288 H 870.45 2.60614 4.84108 0
M  V30 9289 H 871.675 3.15308 6.01463 0
M  V30 9290 H 869.621 0.959856 6.4894 0
M  V30 9291 H 869.538 2.57701 7.10722 0
M  V30 9292 H 870.806 1.51688 7.64598 0
M  V30 9293 N 875.035 -1.20752 1.01276 0
M  V30 9294 C 876.284 -1.8934 0.695229 0
M  V30 9295 C 876.597 -1.79459 -0.77806 0
M  V30 9296 O 877.803 -2.43146 -1.20799 0
M  V30 9297 C 876.259 -3.39548 1.1931 0
M  V30 9298 C 875.867 -3.58023 2.69302 0
M  V30 9299 C 877.611 -4.13714 0.950823 0
M  V30 9300 C 875.518 -5.02037 3.1259 0
M  V30 9301 H 874.448 -0.709084 0.25635 0
M  V30 9302 H 877.099 -1.36629 1.22494 0
M  V30 9303 H 875.481 -3.91559 0.591395 0
M  V30 9304 H 876.655 -3.16416 3.34989 0
M  V30 9305 H 874.97 -2.97222 2.9163 0
M  V30 9306 H 877.567 -5.19891 1.24971 0
M  V30 9307 H 877.91 -4.16147 -0.112791 0
M  V30 9308 H 878.443 -3.67792 1.51571 0
M  V30 9309 H 875.182 -5.04757 4.18211 0
M  V30 9310 H 874.702 -5.44469 2.51621 0
M  V30 9311 H 876.381 -5.70594 3.0501 0
M  V30 9312 N 876.513 -0.788492 -1.36457 0
M  V30 9313 C 877.443 -0.200468 -2.32638 0
M  V30 9314 C 878.424 0.664031 -1.56603 0
M  V30 9315 O 879.609 0.598045 -1.84762 0
M  V30 9316 C 876.739 0.666274 -3.40849 0
M  V30 9317 C 875.693 -0.0982574 -4.27887 0
M  V30 9318 C 875.019 0.889018 -5.27258 0
M  V30 9319 C 876.319 -1.28692 -5.06197 0
M  V30 9320 H 878.013 -1.00399 -2.82065 0
M  V30 9321 H 875.559 -0.484237 -1.35614 0
M  V30 9322 H 877.512 1.08757 -4.07124 0
M  V30 9323 H 876.236 1.50249 -2.89987 0
M  V30 9324 H 874.895 -0.500525 -3.63167 0
M  V30 9325 H 874.543 1.72024 -4.7267 0
M  V30 9326 H 874.243 0.381909 -5.86358 0
M  V30 9327 H 875.767 1.30891 -5.96406 0
M  V30 9328 H 877.181 -0.941429 -5.65517 0
M  V30 9329 H 875.578 -1.72726 -5.74705 0
M  V30 9330 H 876.648 -2.08273 -4.37893 0
M  V30 9331 N 877.991 1.48044 -0.54043 0
M  V30 9332 C 879.216 2.07396 -0.0124765 0
M  V30 9333 C 879.641 1.39288 1.26414 0
M  V30 9334 O 878.999 0.462252 1.75308 0
M  V30 9335 C 879.047 3.60131 0.18377 0
M  V30 9336 O 878.151 3.92995 1.25014 0
M  V30 9337 H 877.492 0.662554 -0.0438026 0
M  V30 9338 H 880.022 1.90306 -0.751327 0
M  V30 9339 H 880.032 4.06003 0.403197 0
M  V30 9340 H 878.707 4.09105 -0.74874 0
M  V30 9341 H 877.284 3.5889 1.01254 0
M  V30 9342 N 879.47 0.276058 1.55163 0
M  V30 9343 C 880.42 -0.625549 2.19251 0
M  V30 9344 C 881.404 -1.11769 1.15744 0
M  V30 9345 O 882.596 -1.0626 1.41555 0
M  V30 9346 C 879.725 -1.80879 2.91784 0
M  V30 9347 C 878.811 -1.33379 4.0258 0
M  V30 9348 N 879.202 -0.575002 5.02521 0
M  V30 9349 C 877.5 -1.61666 4.15668 0
M  V30 9350 C 878.201 -0.325164 5.8079 0
M  V30 9351 N 877.177 -0.897851 5.36134 0
M  V30 9352 H 880.979 -0.0379943 2.93875 0
M  V30 9353 H 878.493 0.079661 1.62205 0
M  V30 9354 H 880.49 -2.466 3.36146 0
M  V30 9355 H 879.15 -2.40028 2.1867 0
M  V30 9356 H 880.161 -0.222256 5.17423 0
M  V30 9357 H 876.838 -2.21745 3.53745 0
M  V30 9358 H 878.228 0.282598 6.71305 0
M  V30 9359 N 880.948 -1.576 0.00335426 0
M  V30 9360 C 882.194 -1.90996 -0.681799 0
M  V30 9361 C 882.527 -0.877643 -1.73237 0
M  V30 9362 O 881.802 0.103183 -1.94226 0
M  V30 9363 C 882.085 -3.34961 -1.32187 0
M  V30 9364 C 881.938 -4.48911 -0.28261 0
M  V30 9365 C 883.257 -3.78408 -2.24711 0
M  V30 9366 H 880.376 -0.694596 -0.246386 0
M  V30 9367 H 883.018 -1.89919 0.055336 0
M  V30 9368 H 881.168 -3.36008 -1.95014 0
M  V30 9369 H 882.84 -4.59999 0.346241 0
M  V30 9370 H 881.083 -4.32 0.394768 0
M  V30 9371 H 881.754 -5.46609 -0.769576 0
M  V30 9372 H 884.23 -3.78934 -1.71897 0
M  V30 9373 H 883.106 -4.79885 -2.66461 0
M  V30 9374 H 883.367 -3.12464 -3.1276 0
M  V30 9375 N 882.426 0.269451 -1.5528 0
M  V30 9376 C 883.336 1.35511 -1.91505 0
M  V30 9377 C 884.352 1.53854 -0.812712 0
M  V30 9378 O 885.528 1.67912 -1.1121 0
M  V30 9379 C 882.593 2.6937 -2.18267 0
M  V30 9380 C 881.654 2.59743 -3.41807 0
M  V30 9381 C 880.887 3.87219 -3.67283 0
M  V30 9382 O 881.11 4.88066 -2.95208 0
M  V30 9383 O 880.044 3.87209 -4.60818 0
M  V30 9384 H 883.87 1.07785 -2.8393 0
M  V30 9385 H 881.455 0.468282 -1.41871 0
M  V30 9386 H 883.337 3.48513 -2.36889 0
M  V30 9387 H 882.012 2.96874 -1.29024 0
M  V30 9388 H 880.919 1.78964 -3.28516 0
M  V30 9389 H 882.252 2.37188 -4.3128 0
M  V30 9390 N 883.904 1.48273 0.534124 0
M  V30 9391 C 884.814 1.65162 1.66609 0
M  V30 9392 C 885.83 0.534177 1.65598 0
M  V30 9393 O 887.006 0.804715 1.84625 0
M  V30 9394 C 884.071 1.68354 3.03081 0
M  V30 9395 C 883.132 2.91696 3.1498 0
M  V30 9396 C 882.365 2.94725 4.44941 0
M  V30 9397 O 882.588 2.06285 5.31792 0
M  V30 9398 O 881.522 3.8685 4.61119 0
M  V30 9399 H 885.348 2.60991 1.55298 0
M  V30 9400 H 882.933 1.31626 0.706749 0
M  V30 9401 H 884.815 1.72998 3.84252 0
M  V30 9402 H 883.49 0.756978 3.14725 0
M  V30 9403 H 882.397 2.92586 2.33119 0
M  V30 9404 H 883.73 3.83722 3.0825 0
M  V30 9405 N 885.382 -0.782676 1.36792 0
M  V30 9406 C 886.63 -1.53778 1.31136 0
M  V30 9407 C 886.951 -1.94706 -0.107014 0
M  V30 9408 O 886.221 -1.65465 -1.04872 0
M  V30 9409 H 884.801 -0.570328 0.482426 0
M  V30 9410 H 887.463 -0.932181 1.71162 0
M  V30 9411 H 886.559 -2.44224 1.94321 0
M  V30 9412 N 886.86 -1.21182 -1.00761 0
M  V30 9413 C 887.808 -0.965728 -2.11604 0
M  V30 9414 C 888.802 0.0861028 -1.69181 0
M  V30 9415 O 890.008 -0.0650558 -1.79882 0
M  V30 9416 H 886.383 -0.295023 -0.691712 0
M  V30 9417 H 888.354 -1.90667 -2.2954 0
M  V30 9418 C 887.103 -0.544164 -3.43415 0
M  V30 9419 H 886.426 -1.34515 -3.76491 0
M  V30 9420 H 887.866 -0.411268 -4.22001 0
M  V30 9421 C 886.325 0.744583 -3.28569 0
M  V30 9422 O 886.855 1.80078 -3.59075 0
M  V30 9423 N 885.061 0.710083 -2.81791 0
M  V30 9424 H 884.608 -0.14971 -2.57165 0
M  V30 9425 H 884.566 1.57268 -2.72239 0
M  V30 9426 N 888.338 1.20213 -1.01915 0
M  V30 9427 C 889.584 1.89928 -0.711007 0
M  V30 9428 C 889.917 1.7881 0.75767 0
M  V30 9429 O 889.192 1.17399 1.55073 0
M  V30 9430 C 889.475 3.41225 -1.15053 0
M  V30 9431 C 889.328 3.61264 -2.67971 0
M  V30 9432 C 890.647 4.34108 -0.72377 0
M  V30 9433 H 887.766 0.689702 -0.259768 0
M  V30 9434 H 890.408 1.41557 -1.26734 0
M  V30 9435 H 888.558 3.82552 -0.677199 0
M  V30 9436 H 890.23 3.29173 -3.23176 0
M  V30 9437 H 888.473 3.04647 -3.08824 0
M  V30 9438 H 889.144 4.67331 -2.93779 0
M  V30 9439 H 891.62 4.00442 -1.13073 0
M  V30 9440 H 890.496 5.38581 -1.05931 0
M  V30 9441 H 890.757 4.40512 0.374424 0
M  V30 9442 N 889.816 0.795718 1.36037 0
M  V30 9443 C 891.062 0.371574 1.99367 0
M  V30 9444 C 891.395 -1.0557 1.62999 0
M  V30 9445 O 890.67 -1.73051 0.887895 0
M  V30 9446 C 890.953 0.542622 3.55988 0
M  V30 9447 C 890.806 2.01404 4.0219 0
M  V30 9448 C 892.125 -0.0384527 4.40083 0
M  V30 9449 H 889.244 0.136483 0.724252 0
M  V30 9450 H 891.886 1.00323 1.61355 0
M  V30 9451 H 890.036 0.0049053 3.885 0
M  V30 9452 H 891.708 2.6133 3.80137 0
M  V30 9453 H 889.951 2.51439 3.53498 0
M  V30 9454 H 890.622 2.08466 5.11122 0
M  V30 9455 H 893.098 0.420634 4.13968 0
M  V30 9456 H 891.974 0.111214 5.48787 0
M  V30 9457 H 892.235 -1.13116 4.27384 0
M  V30 9458 N 891.294 -1.47756 0.548274 0
M  V30 9459 C 892.226 -2.27921 -0.24177 0
M  V30 9460 C 893.239 -1.36471 -0.887658 0
M  V30 9461 O 894.428 -1.6137 -0.763016 0
M  V30 9462 C 891.528 -3.10449 -1.35922 0
M  V30 9463 C 890.701 -4.298 -0.811808 0
M  V30 9464 C 889.76 -4.93994 -1.81264 0
M  V30 9465 O 888.786 -5.52657 -1.3623 0
M  V30 9466 N 889.988 -4.87882 -3.14566 0
M  V30 9467 H 892.753 -2.96365 0.445848 0
M  V30 9468 H 890.314 -1.57286 0.383769 0
M  V30 9469 H 892.306 -3.50261 -2.02729 0
M  V30 9470 H 890.876 -2.44306 -1.95021 0
M  V30 9471 H 890.096 -3.94186 0.0327929 0
M  V30 9472 H 891.384 -5.0702 -0.425272 0
M  V30 9473 H 890.782 -4.41405 -3.53805 0
M  V30 9474 H 889.339 -5.3174 -3.76956 0
M  V30 9475 N 892.772 -0.284283 -1.55015 0
M  V30 9476 C 893.702 0.592663 -2.25853 0
M  V30 9477 C 894.683 1.15151 -1.25197 0
M  V30 9478 O 895.868 1.18395 -1.53936 0
M  V30 9479 C 892.998 1.77254 -2.98661 0
M  V30 9480 C 891.952 1.34482 -4.06323 0
M  V30 9481 C 891.278 2.60853 -4.66754 0
M  V30 9482 C 892.578 0.488288 -5.20013 0
M  V30 9483 H 894.272 0.00187041 -2.994 0
M  V30 9484 H 891.818 -0.000540402 -1.44 0
M  V30 9485 H 893.771 2.39199 -3.46932 0
M  V30 9486 H 892.495 2.38931 -2.22664 0
M  V30 9487 H 891.154 0.748519 -3.58877 0
M  V30 9488 H 890.802 3.20808 -3.87416 0
M  V30 9489 H 890.502 2.32942 -5.39455 0
M  V30 9490 H 892.026 3.23631 -5.1778 0
M  V30 9491 H 893.44 1.01298 -5.6428 0
M  V30 9492 H 891.837 0.303669 -5.99331 0
M  V30 9493 H 892.907 -0.490727 -4.8241 0
M  V30 9494 N 894.251 1.57596 -0.0117121 0
M  V30 9495 C 895.528 1.82323 0.708356 0
M  V30 9496 C 895.908 0.891947 1.91331 0
M  V30 9497 O 895.256 -0.0565984 2.2843 0
M  V30 9498 C 895.466 3.31111 1.10303 0
M  V30 9499 C 896.814 3.97147 1.50199 0
M  V30 9500 O 897.838 3.35503 1.1965 0
M  V30 9501 O 896.697 5.0576 2.07049 0
M  V30 9502 H 893.791 0.751173 0.345931 0
M  V30 9503 H 896.337 1.69657 -0.0380632 0
M  V30 9504 H 895.109 3.90534 0.24467 0
M  V30 9505 H 894.732 3.48818 1.90818 0
M  V30 9506 N 895.729 -0.261212 1.5542 0
M  V30 9507 C 897.145 -0.609012 1.47524 0
M  V30 9508 C 897.345 -1.88986 0.699042 0
M  V30 9509 O 896.401 -2.51517 0.222628 0
M  V30 9510 C 897.714 -0.725025 2.91828 0
M  V30 9511 C 899.262 -0.818302 3.02114 0
M  V30 9512 C 899.737 -0.965996 4.47697 0
M  V30 9513 N 901.228 -1.03123 4.51575 0
M  V30 9514 C 901.963 -1.16451 5.6145 0
M  V30 9515 N 901.459 -1.26425 6.81167 0
M  V30 9516 N 903.252 -1.19655 5.49217 0
M  V30 9517 H 895.403 0.579807 2.04333 0
M  V30 9518 H 897.666 0.198072 0.927077 0
M  V30 9519 H 897.372 0.145871 3.51397 0
M  V30 9520 H 897.246 -1.60156 3.41511 0
M  V30 9521 H 899.633 -1.67966 2.42634 0
M  V30 9522 H 899.714 0.0830895 2.55665 0
M  V30 9523 H 899.358 -0.109251 5.07782 0
M  V30 9524 H 899.288 -1.88221 4.91813 0
M  V30 9525 H 901.779 -0.966072 3.65343 0
M  V30 9526 H 902.092 -1.36462 7.60656 0
M  V30 9527 H 900.437 -1.23408 6.83956 0
M  V30 9528 H 903.628 -1.11501 4.54626 0
M  V30 9529 H 903.801 -1.29698 6.34888 0
M  V30 9530 N 897.207 -1.48554 -0.526253 0
M  V30 9531 C 898.453 -1.57972 -1.28127 0
M  V30 9532 C 898.808 -0.251973 -1.90743 0
M  V30 9533 O 898.101 0.745524 -1.76501 0
M  V30 9534 C 898.295 -2.65739 -2.38993 0
M  V30 9535 C 898.124 -4.08864 -1.87244 0
M  V30 9536 C 896.894 -4.75959 -1.6968 0
M  V30 9537 C 899.092 -4.94912 -1.39882 0
M  V30 9538 N 897.074 -6.03486 -1.12596 0
M  V30 9539 C 898.445 -6.12714 -0.947696 0
M  V30 9540 C 900.5 -4.81107 -1.2822 0
M  V30 9541 C 899.203 -7.18234 -0.391507 0
M  V30 9542 C 901.229 -5.86752 -0.740001 0
M  V30 9543 C 900.591 -7.03765 -0.298968 0
M  V30 9544 H 896.69 -0.632588 -0.459735 0
M  V30 9545 H 899.274 -1.85452 -0.59294 0
M  V30 9546 H 897.445 -2.40075 -3.05317 0
M  V30 9547 H 899.177 -2.64821 -3.06026 0
M  V30 9548 H 895.932 -4.32351 -1.93312 0
M  V30 9549 H 896.356 -6.71509 -0.860541 0
M  V30 9550 H 900.998 -3.90978 -1.60922 0
M  V30 9551 H 898.716 -8.08083 -0.0521685 0
M  V30 9552 H 902.302 -5.78125 -0.652889 0
M  V30 9553 H 901.182 -7.84117 0.114052 0
M  V30 9554 N 898.685 0.775411 -1.37205 0
M  V30 9555 C 899.962 1.5229 -1.22748 0
M  V30 9556 C 900.342 2.10327 0.180487 0
M  V30 9557 O 899.69 1.95206 1.18772 0
M  V30 9558 C 899.9 2.60671 -2.3206 0
M  V30 9559 C 901.248 3.28173 -2.6942 0
M  V30 9560 O 902.272 2.70963 -2.31208 0
M  V30 9561 O 901.131 4.31598 -3.3524 0
M  V30 9562 H 898.225 0.674326 -0.478762 0
M  V30 9563 H 900.771 0.812691 -1.48975 0
M  V30 9564 H 899.543 2.1588 -3.26361 0
M  V30 9565 H 899.166 3.39296 -2.07277 0
M  V30 9566 N 900.163 1.21714 1.00117 0
M  V30 9567 C 901.093 1.00397 2.10815 0
M  V30 9568 C 902.074 -0.0723502 1.69946 0
M  V30 9569 O 903.259 0.0882398 1.93999 0
M  V30 9570 C 900.389 0.572001 3.42557 0
M  V30 9571 C 899.343 1.59331 3.97237 0
M  V30 9572 C 898.669 1.01746 5.2493 0
M  V30 9573 C 899.969 2.98117 4.28863 0
M  V30 9574 H 901.663 1.92983 2.28906 0
M  V30 9575 H 899.209 0.929273 1.10002 0
M  V30 9576 H 901.162 0.410018 4.19401 0
M  V30 9577 H 899.886 -0.38951 3.24269 0
M  V30 9578 H 898.545 1.74293 3.22518 0
M  V30 9579 H 898.193 0.0475491 5.02978 0
M  V30 9580 H 897.893 1.69969 5.62481 0
M  V30 9581 H 899.417 0.866881 6.04415 0
M  V30 9582 H 900.831 2.86578 4.96534 0
M  V30 9583 H 899.228 3.63389 4.77565 0
M  V30 9584 H 900.298 3.48674 3.36979 0
M  V30 9585 N 901.641 -1.19671 1.02551 0
M  V30 9586 C 902.591 -2.20655 0.574037 0
M  V30 9587 C 903.575 -1.56459 -0.375412 0
M  V30 9588 O 904.767 -1.75901 -0.196929 0
M  V30 9589 C 901.896 -3.43213 -0.0772031 0
M  V30 9590 C 900.982 -4.1456 0.894485 0
M  V30 9591 N 901.373 -4.62147 2.05557 0
M  V30 9592 C 899.671 -4.40196 0.717205 0
M  V30 9593 C 900.372 -5.16899 2.66814 0
M  V30 9594 N 899.348 -5.07496 1.94804 0
M  V30 9595 H 903.15 -2.55124 1.45908 0
M  V30 9596 H 900.664 -1.35707 0.89204 0
M  V30 9597 H 902.661 -4.14797 -0.41824 0
M  V30 9598 H 901.321 -3.10247 -0.957973 0
M  V30 9599 H 902.332 -4.5708 2.43513 0
M  V30 9600 H 899.009 -4.17342 -0.114758 0
M  V30 9601 H 900.399 -5.64032 3.65126 0
M  V30 9602 N 903.119 -0.802921 -1.35613 0
M  V30 9603 C 904.082 -0.216422 -2.28176 0
M  V30 9604 C 905.082 0.594101 -1.49422 0
M  V30 9605 O 906.272 0.41312 -1.6923 0
M  V30 9606 C 903.404 0.698746 -3.33662 0
M  V30 9607 H 904.597 -1.03276 -2.81557 0
M  V30 9608 H 902.15 -0.573307 -1.45406 0
M  V30 9609 H 902.885 1.53891 -2.85461 0
M  V30 9610 H 902.67 0.119314 -3.91918 0
M  V30 9611 H 904.16 1.10354 -4.02755 0
M  V30 9612 N 904.597 1.47463 -0.556102 0
M  V30 9613 C 905.507 2.33785 0.195378 0
M  V30 9614 C 906.523 1.48123 0.913 0
M  V30 9615 O 907.699 1.81053 0.882141 0
M  V30 9616 C 904.764 3.24795 1.21282 0
M  V30 9617 C 903.825 4.26346 0.502747 0
M  V30 9618 C 903.058 5.13007 1.47172 0
M  V30 9619 O 903.281 5.02103 2.70646 0
M  V30 9620 O 902.215 5.93588 0.996814 0
M  V30 9621 H 906.041 2.99341 -0.512676 0
M  V30 9622 H 903.626 1.46004 -0.31673 0
M  V30 9623 H 905.508 3.81015 1.80016 0
M  V30 9624 H 904.183 2.61868 1.90282 0
M  V30 9625 H 903.09 3.73889 -0.125757 0
M  V30 9626 H 904.423 4.91984 -0.145779 0
M  V30 9627 N 906.075 0.2925 1.54862 0
M  V30 9628 C 907.486 -0.201841 1.85606 0
M  V30 9629 C 907.837 -1.54093 1.21449 0
M  V30 9630 O 906.962 -2.10327 0.509079 0
M  V30 9631 C 907.557 -0.373011 3.3674 0
M  V30 9632 C 906.116 -0.811574 3.67547 0
M  V30 9633 C 905.263 0.0850583 2.7717 0
M  V30 9634 H 908.214 0.513774 1.50153 0
M  V30 9635 H 908.235 -1.20892 3.60785 0
M  V30 9636 H 907.747 0.601751 3.83407 0
M  V30 9637 H 905.848 -1.79719 3.26392 0
M  V30 9638 H 905.961 -0.636853 4.74848 0
M  V30 9639 H 904.325 -0.434224 2.50971 0
M  V30 9640 H 905.108 1.05602 3.26654 0
M  V30 9641 N 907.553 -1.57587 0.0200696 0
M  V30 9642 C 908.501 -2.10814 -0.982868 0
M  V30 9643 C 909.495 -1.03263 -1.34287 0
M  V30 9644 O 910.701 -1.21708 -1.32617 0
M  V30 9645 H 907.076 -0.673409 -0.334701 0
M  V30 9646 H 909.047 -2.94034 -0.50856 0
M  V30 9647 C 907.796 -2.64301 -2.25921 0
M  V30 9648 H 907.119 -3.46703 -1.99091 0
M  V30 9649 H 908.559 -3.052 -2.94328 0
M  V30 9650 C 907.018 -1.56628 -2.98277 0
M  V30 9651 O 907.548 -0.960825 -3.9004 0
M  V30 9652 N 905.754 -1.28889 -2.60453 0
M  V30 9653 H 905.301 -1.7831 -1.85912 0
M  V30 9654 H 905.259 -0.570697 -3.09177 0
M  V30 9655 N 909.032 0.252966 -1.55557 0
M  V30 9656 C 910.443 0.822503 -1.67606 0
M  V30 9657 C 910.794 1.86265 -0.616411 0
M  V30 9658 O 909.919 2.15082 0.238447 0
M  V30 9659 C 910.514 1.49866 -3.03852 0
M  V30 9660 C 909.073 2.01597 -3.17861 0
M  V30 9661 C 908.22 0.864943 -2.63465 0
M  V30 9662 H 911.171 0.0288958 -1.58674 0
M  V30 9663 H 911.192 2.36646 -2.97958 0
M  V30 9664 H 910.704 0.741378 -3.80953 0
M  V30 9665 H 908.805 2.80224 -2.45571 0
M  V30 9666 H 908.918 2.21752 -4.24692 0
M  V30 9667 H 907.282 1.2638 -2.21134 0
M  V30 9668 H 908.065 0.120847 -3.43087 0
M  V30 9669 N 910.51 1.48831 0.518367 0
M  V30 9670 C 911.42 1.6692 1.64848 0
M  V30 9671 C 912.436 0.551711 1.65022 0
M  V30 9672 O 913.612 0.824251 1.83761 0
M  V30 9673 C 910.677 1.71559 3.01278 0
M  V30 9674 C 909.738 2.9502 3.11868 0
M  V30 9675 C 908.971 2.99428 4.4179 0
M  V30 9676 O 909.194 2.11914 5.29574 0
M  V30 9677 O 908.128 3.91719 4.5699 0
M  V30 9678 H 911.954 2.62623 1.52521 0
M  V30 9679 H 909.539 1.32368 0.692749 0
M  V30 9680 H 911.421 1.77064 3.82396 0
M  V30 9681 H 910.096 0.790316 3.13904 0
M  V30 9682 H 909.003 2.95042 2.30003 0
M  V30 9683 H 910.336 3.8697 3.04163 0
M  V30 9684 N 911.988 -0.768124 1.37614 0
M  V30 9685 C 912.951 -1.86314 1.3349 0
M  V30 9686 C 913.951 -1.59025 0.23823 0
M  V30 9687 O 915.141 -1.6704 0.494288 0
M  V30 9688 C 912.273 -3.23519 1.07462 0
M  V30 9689 H 913.466 -1.91382 2.30896 0
M  V30 9690 H 911.019 -0.968267 1.22696 0
M  V30 9691 H 911.754 -3.24127 0.106028 0
M  V30 9692 H 911.539 -3.44719 1.86846 0
M  V30 9693 H 913.029 -4.03597 1.07236 0
M  V30 9694 N 913.466 -1.22244 -0.994698 0
M  V30 9695 C 914.714 -1.04384 -1.73056 0
M  V30 9696 C 915.035 0.422204 -1.90374 0
M  V30 9697 O 914.305 1.30383 -1.46209 0
M  V30 9698 H 912.885 -0.383263 -0.641185 0
M  V30 9699 H 915.547 -1.53725 -1.1981 0
M  V30 9700 H 914.643 -1.52021 -2.72573 0
M  V30 9701 N 914.944 1.19125 -1.03184 0
M  V30 9702 C 916.355 1.70564 -0.759264 0
M  V30 9703 C 916.706 1.8248 0.720794 0
M  V30 9704 O 915.831 1.49804 1.56166 0
M  V30 9705 C 916.426 3.09793 -1.37163 0
M  V30 9706 C 914.985 3.5848 -1.14757 0
M  V30 9707 C 914.132 2.35265 -1.46784 0
M  V30 9708 H 917.083 1.03925 -1.19939 0
M  V30 9709 H 917.104 3.72624 -0.77015 0
M  V30 9710 H 916.616 3.01088 -2.44882 0
M  V30 9711 H 914.717 3.72494 -0.0887182 0
M  V30 9712 H 914.83 4.42426 -1.83836 0
M  V30 9713 H 913.194 2.38747 -0.887254 0
M  V30 9714 H 913.977 2.29188 -2.55593 0
M  V30 9715 N 916.422 0.810101 1.35185 0
M  V30 9716 C 917.332 0.224565 2.33523 0
M  V30 9717 C 918.348 -0.634287 1.62027 0
M  V30 9718 O 919.524 -0.545211 1.9388 0
M  V30 9719 C 916.589 -0.614319 3.41214 0
M  V30 9720 C 915.65 0.265435 4.28479 0
M  V30 9721 C 914.883 -0.533506 5.31027 0
M  V30 9722 O 915.106 -1.7679 5.42311 0
M  V30 9723 O 914.04 0.0774573 6.0185 0
M  V30 9724 H 917.866 1.03815 2.85405 0
M  V30 9725 H 915.451 0.571964 1.38018 0
M  V30 9726 H 917.333 -1.09201 4.07005 0
M  V30 9727 H 916.008 -1.40545 2.91597 0
M  V30 9728 H 914.915 0.790343 3.65656 0
M  V30 9729 H 916.248 1.0206 4.81503 0
M  V30 9730 N 917.9 -1.47166 0.563914 0
M  V30 9731 C 919.177 -1.95586 -0.0236172 0
M  V30 9732 C 919.557 -1.50655 -1.47872 0
M  V30 9733 O 918.905 -0.748479 -2.15894 0
M  V30 9734 C 919.115 -3.48762 0.128841 0
M  V30 9735 C 920.463 -4.24598 -0.0130544 0
M  V30 9736 O 921.487 -3.56155 0.0567242 0
M  V30 9737 O 920.346 -5.46253 -0.164332 0
M  V30 9738 H 917.44 -0.824793 -0.0603789 0
M  V30 9739 H 919.986 -1.57536 0.63091 0
M  V30 9740 H 918.758 -3.74291 1.14113 0
M  V30 9741 H 918.381 -3.93594 -0.56299 0
M  V30 9742 N 919.378 -0.300708 -1.54705 0
M  V30 9743 C 920.794 0.0526874 -1.59513 0
M  V30 9744 C 920.994 1.52444 -1.31769 0
M  V30 9745 O 920.05 2.27716 -1.09096 0
M  V30 9746 C 921.363 -0.344989 -2.98714 0
M  V30 9747 C 922.911 -0.29373 -3.11619 0
M  V30 9748 C 923.386 -0.666225 -4.53129 0
M  V30 9749 N 924.877 -0.618749 -4.59049 0
M  V30 9750 C 925.612 -0.879447 -5.66616 0
M  V30 9751 N 925.108 -1.2061 -6.82221 0
M  V30 9752 N 926.901 -0.806528 -5.56284 0
M  V30 9753 H 919.052 -1.25988 -1.71 0
M  V30 9754 H 921.315 -0.510758 -0.798643 0
M  V30 9755 H 921.021 -1.36953 -3.2394 0
M  V30 9756 H 920.895 0.301507 -3.75993 0
M  V30 9757 H 923.282 0.72156 -2.86142 0
M  V30 9758 H 923.363 -0.974844 -2.36496 0
M  V30 9759 H 923.007 -1.67932 -4.79334 0
M  V30 9760 H 922.937 0.0369575 -5.26587 0
M  V30 9761 H 925.428 -0.377202 -3.76013 0
M  V30 9762 H 925.741 -1.391 -7.60178 0
M  V30 9763 H 924.086 -1.24413 -6.83774 0
M  V30 9764 H 927.277 -0.550993 -4.64846 0
M  V30 9765 H 927.45 -1.01307 -6.40032 0
M  V30 9766 N 920.856 1.57574 -0.0284266 0
M  V30 9767 C 922.133 1.83064 0.688979 0
M  V30 9768 C 922.513 0.91219 1.90374 0
M  V30 9769 O 921.861 -0.0323672 2.28477 0
M  V30 9770 C 922.071 3.32262 1.06785 0
M  V30 9771 C 923.419 3.98717 1.45978 0
M  V30 9772 O 924.443 3.36753 1.16085 0
M  V30 9773 O 923.302 5.07927 2.01673 0
M  V30 9774 H 920.396 0.7548 0.337944 0
M  V30 9775 H 922.942 1.69607 -0.0560555 0
M  V30 9776 H 921.714 3.90772 0.203235 0
M  V30 9777 H 921.337 3.50823 1.87107 0
M  V30 9778 N 922.334 -0.244713 1.55689 0
M  V30 9779 C 923.244 -1.32447 1.93636 0
M  V30 9780 C 924.26 -1.52541 0.837086 0
M  V30 9781 O 925.436 -1.66121 1.13867 0
M  V30 9782 C 922.501 -2.65864 2.22525 0
M  V30 9783 C 921.562 -2.54273 3.45896 0
M  V30 9784 C 920.795 -3.81327 3.73397 0
M  V30 9785 O 921.018 -4.83307 3.02936 0
M  V30 9786 O 919.952 -3.79829 4.66919 0
M  V30 9787 H 923.778 -1.03255 2.85608 0
M  V30 9788 H 921.363 -0.445652 1.42598 0
M  V30 9789 H 923.245 -3.447 2.42404 0
M  V30 9790 H 921.92 -2.94784 1.33731 0
M  V30 9791 H 920.827 -1.73715 3.31321 0
M  V30 9792 H 922.16 -2.30297 4.34999 0
M  V30 9793 N 923.813 -1.49104 -0.510467 0
M  V30 9794 C 925.061 -1.578 -1.26268 0
M  V30 9795 C 925.382 -0.262349 -1.93227 0
M  V30 9796 O 924.652 0.717624 -1.82283 0
M  V30 9797 H 923.232 -0.581387 -0.46904 0
M  V30 9798 H 925.894 -1.85678 -0.592423 0
M  V30 9799 H 924.99 -2.36919 -2.03165 0
M  V30 9800 N 925.291 0.760815 -1.38019 0
M  V30 9801 C 926.254 1.85604 -1.34476 0
M  V30 9802 C 927.254 1.58897 -0.24666 0
M  V30 9803 O 928.444 1.66776 -0.50314 0
M  V30 9804 C 925.576 3.22945 -1.09176 0
M  V30 9805 H 926.769 1.90155 -2.31908 0
M  V30 9806 H 924.322 0.961746 -1.23208 0
M  V30 9807 H 925.057 3.24066 -0.123216 0
M  V30 9808 H 924.842 3.43723 -1.88672 0
M  V30 9809 H 926.332 4.03022 -1.09375 0
M  V30 9810 N 926.769 1.22769 0.988202 0
M  V30 9811 C 927.997 1.08155 1.76381 0
M  V30 9812 C 928.412 -0.367573 1.85187 0
M  V30 9813 O 927.769 -1.25455 1.32541 0
M  V30 9814 C 927.82 1.69193 3.19462 0
M  V30 9815 O 927.541 3.08437 3.11125 0
M  V30 9816 C 929.042 1.59915 4.13451 0
M  V30 9817 H 926.262 0.378908 0.553778 0
M  V30 9818 H 928.806 1.6246 1.24206 0
M  V30 9819 H 926.961 1.18939 3.6869 0
M  V30 9820 H 927.375 3.37916 4.0114 0
M  V30 9821 H 928.849 2.07339 5.1158 0
M  V30 9822 H 929.326 0.556546 4.3566 0
M  V30 9823 H 929.932 2.09497 3.70123 0
M  V30 9824 N 928.247 -1.18576 1.03814 0
M  V30 9825 C 929.524 -1.8433 0.654358 0
M  V30 9826 C 929.904 -1.92504 -0.866338 0
M  V30 9827 O 929.252 -1.44904 -1.76678 0
M  V30 9828 C 929.462 -3.22778 1.32723 0
M  V30 9829 C 930.81 -3.98841 1.45641 0
M  V30 9830 O 931.834 -3.32209 1.28514 0
M  V30 9831 O 930.693 -5.18219 1.73526 0
M  V30 9832 H 927.787 -0.794766 0.228638 0
M  V30 9833 H 930.333 -1.25989 1.13687 0
M  V30 9834 H 929.105 -3.11717 2.36534 0
M  V30 9835 H 928.728 -3.88772 0.833176 0
M  V30 9836 N 929.725 -0.817259 -1.34754 0
M  V30 9837 C 931.141 -0.502309 -1.51489 0
M  V30 9838 C 931.341 0.974568 -1.76364 0
M  V30 9839 O 930.397 1.75924 -1.81127 0
M  V30 9840 C 931.71 -1.35693 -2.68343 0
M  V30 9841 C 933.258 -1.35347 -2.82224 0
M  V30 9842 C 933.733 -2.19244 -4.02114 0
M  V30 9843 N 935.224 -2.16837 -4.09311 0
M  V30 9844 C 935.959 -2.78505 -5.01221 0
M  V30 9845 N 935.455 -3.4914 -5.98392 0
M  V30 9846 N 937.248 -2.68089 -4.94049 0
M  V30 9847 H 929.399 -1.77359 -1.16866 0
M  V30 9848 H 931.662 -0.755476 -0.572678 0
M  V30 9849 H 931.368 -2.40548 -2.56573 0
M  V30 9850 H 931.242 -1.01764 -3.63213 0
M  V30 9851 H 933.629 -0.312727 -2.93438 0
M  V30 9852 H 933.71 -1.7327 -1.88179 0
M  V30 9853 H 933.354 -3.23365 -3.9166 0
M  V30 9854 H 933.284 -1.78675 -4.95361 0
M  V30 9855 H 935.775 -1.65452 -3.39756 0
M  V30 9856 H 936.088 -3.93455 -6.65141 0
M  V30 9857 H 934.433 -3.53246 -5.98533 0
M  V30 9858 H 937.624 -2.12485 -4.17094 0
M  V30 9859 H 937.797 -3.16436 -5.65484 0
M  V30 9860 N 931.203 1.46865 -0.571711 0
M  V30 9861 C 932.133 2.3298 0.155795 0
M  V30 9862 C 933.114 1.44678 0.894553 0
M  V30 9863 O 934.299 1.73513 0.872176 0
M  V30 9864 C 931.429 3.26745 1.17708 0
M  V30 9865 C 930.383 4.24401 0.553863 0
M  V30 9866 C 929.709 5.07595 1.68083 0
M  V30 9867 C 931.009 5.19884 -0.501827 0
M  V30 9868 H 932.703 2.94056 -0.563176 0
M  V30 9869 H 930.249 1.41402 -0.27228 0
M  V30 9870 H 932.202 3.85838 1.6943 0
M  V30 9871 H 930.926 2.63753 1.92618 0
M  V30 9872 H 929.585 3.66554 0.057815 0
M  V30 9873 H 929.233 4.40996 2.41933 0
M  V30 9874 H 928.933 5.73722 1.26953 0
M  V30 9875 H 930.457 5.6955 2.20103 0
M  V30 9876 H 931.871 5.73257 -0.0701057 0
M  V30 9877 H 930.268 5.94293 -0.832815 0
M  V30 9878 H 931.338 4.64482 -1.39229 0
M  V30 9879 N 932.681 0.308908 1.54543 0
M  V30 9880 C 934.092 -0.182144 1.85809 0
M  V30 9881 C 934.443 -1.52796 1.23076 0
M  V30 9882 O 933.568 -2.09775 0.531358 0
M  V30 9883 C 934.163 -0.337275 3.37117 0
M  V30 9884 C 932.722 -0.772545 3.68387 0
M  V30 9885 C 931.869 0.114451 2.77064 0
M  V30 9886 H 934.82 0.529671 1.496 0
M  V30 9887 H 934.841 -1.17058 3.62046 0
M  V30 9888 H 934.353 0.642382 3.82747 0
M  V30 9889 H 932.454 -1.76247 3.2828 0
M  V30 9890 H 932.567 -0.586453 4.75497 0
M  V30 9891 H 930.931 -0.407581 2.51418 0
M  V30 9892 H 931.714 1.09061 3.25516 0
M  V30 9893 N 934.159 -1.57557 0.0367827 0
M  V30 9894 C 935.089 -2.13712 -0.940719 0
M  V30 9895 C 936.07 -1.05515 -1.33419 0
M  V30 9896 O 937.255 -1.33385 -1.41146 0
M  V30 9897 C 934.385 -2.67043 -2.22048 0
M  V30 9898 C 933.339 -3.80096 -1.96752 0
M  V30 9899 C 932.665 -4.19886 -3.31059 0
M  V30 9900 C 933.965 -5.05848 -1.30058 0
M  V30 9901 H 935.659 -2.9564 -0.473033 0
M  V30 9902 H 933.205 -1.42214 -0.226089 0
M  V30 9903 H 935.158 -3.04964 -2.90818 0
M  V30 9904 H 933.882 -1.82287 -2.70996 0
M  V30 9905 H 932.541 -3.42625 -1.30398 0
M  V30 9906 H 932.189 -3.32101 -3.77781 0
M  V30 9907 H 931.889 -4.96073 -3.14937 0
M  V30 9908 H 933.413 -4.60395 -4.01084 0
M  V30 9909 H 934.827 -5.41306 -1.8884 0
M  V30 9910 H 933.224 -5.87084 -1.24309 0
M  V30 9911 H 934.294 -4.84122 -0.274591 0
M  V30 9912 N 935.637 0.236453 -1.55816 0
M  V30 9913 C 936.914 0.986463 -1.68903 0
M  V30 9914 C 937.294 2.02984 -0.579722 0
M  V30 9915 O 936.642 2.24693 0.415389 0
M  V30 9916 C 936.852 1.61038 -3.09625 0
M  V30 9917 C 938.2 2.10829 -3.6856 0
M  V30 9918 O 939.224 1.7096 -3.12492 0
M  V30 9919 O 938.083 2.84064 -4.66873 0
M  V30 9920 H 935.177 0.459837 -0.687371 0
M  V30 9921 H 937.723 0.229412 -1.68142 0
M  V30 9922 H 936.495 0.856232 -3.81817 0
M  V30 9923 H 936.118 2.43336 -3.14441 0
M  V30 9924 N 937.115 1.49373 0.502552 0
M  V30 9925 C 938.361 1.59016 1.25864 0
M  V30 9926 C 938.694 0.27532 1.92238 0
M  V30 9927 O 937.969 -0.720988 1.80643 0
M  V30 9928 C 938.252 2.74828 2.32683 0
M  V30 9929 C 938.105 4.16102 1.7082 0
M  V30 9930 C 939.424 2.86288 3.34256 0
M  V30 9931 H 936.543 0.578798 0.456248 0
M  V30 9932 H 939.185 1.81651 0.557032 0
M  V30 9933 H 937.335 2.5566 2.92524 0
M  V30 9934 H 939.007 4.46782 1.14818 0
M  V30 9935 H 937.25 4.21822 1.01238 0
M  V30 9936 H 937.921 4.93006 2.48292 0
M  V30 9937 H 940.397 3.03733 2.84404 0
M  V30 9938 H 939.273 3.69001 4.06362 0
M  V30 9939 H 939.534 1.95576 3.96488 0
M  V30 9940 N 938.594 -0.753485 1.38421 0
M  V30 9941 C 939.841 -1.51261 1.34634 0
M  V30 9942 C 940.169 -1.94396 -0.0635771 0
M  V30 9943 O 939.424 -1.65736 -1.04068 0
M  V30 9944 C 939.723 -2.77836 2.24816 0
M  V30 9945 C 939.389 -2.53662 3.72782 0
M  V30 9946 C 938.051 -2.46779 4.13103 0
M  V30 9947 C 940.403 -2.32548 4.66445 0
M  V30 9948 C 937.731 -2.16796 5.45176 0
M  V30 9949 C 940.083 -2.04085 5.98775 0
M  V30 9950 C 938.747 -1.95658 6.3818 0
M  V30 9951 H 938.017 -0.553503 0.492661 0
M  V30 9952 H 940.664 -0.866406 1.7078 0
M  V30 9953 H 938.969 -3.47106 1.81726 0
M  V30 9954 H 940.666 -3.35793 2.19189 0
M  V30 9955 H 937.256 -2.59891 3.40815 0
M  V30 9956 H 941.44 -2.36845 4.3614 0
M  V30 9957 H 936.696 -2.0878 5.74648 0
M  V30 9958 H 940.87 -1.86751 6.70893 0
M  V30 9959 H 938.497 -1.7219 7.40442 0
M  V30 9960 N 940.072 -1.23292 -0.981677 0
M  V30 9961 C 941.02 -1.0104 -2.09508 0
M  V30 9962 C 942.014 0.0501977 -1.69326 0
M  V30 9963 O 943.22 -0.103197 -1.79704 0
M  V30 9964 H 939.595 -0.309629 -0.685298 0
M  V30 9965 H 941.566 -1.95493 -2.25444 0
M  V30 9966 C 940.315 -0.616885 -3.42184 0
M  V30 9967 H 939.638 -1.4247 -3.73554 0
M  V30 9968 H 941.078 -0.500688 -4.21033 0
M  V30 9969 C 939.537 0.674721 -3.30074 0
M  V30 9970 O 940.067 1.72421 -3.62814 0
M  V30 9971 N 938.273 0.650151 -2.83234 0
M  V30 9972 H 937.82 -0.204225 -2.56789 0
M  V30 9973 H 937.778 1.51458 -2.75514 0
M  V30 9974 N 941.55 1.18024 -1.04442 0
M  V30 9975 C 942.498 2.23834 -0.632557 0
M  V30 9976 C 943.492 1.65902 0.342488 0
M  V30 9977 O 944.698 1.78778 0.20937 0
M  V30 9978 H 941.073 0.728544 -0.186353 0
M  V30 9979 H 943.044 2.55876 -1.53526 0
M  V30 9980 C 941.793 3.47697 -0.0153661 0
M  V30 9981 H 941.116 3.92574 -0.756704 0
M  V30 9982 H 942.556 4.23345 0.235541 0
M  V30 9983 C 941.015 3.13416 1.23579 0
M  V30 9984 O 941.545 3.27499 2.3261 0
M  V30 9985 N 939.751 2.67708 1.13053 0
M  V30 9986 H 939.298 2.56449 0.243277 0
M  V30 9987 H 939.256 2.45143 1.96855 0
M  V30 9988 N 943.028 0.824394 1.34319 0
M  V30 9989 C 944.258 0.425576 2.02169 0
M  V30 9990 C 944.666 -0.973596 1.62227 0
M  V30 9991 O 944.009 -1.64173 0.824199 0
M  V30 9992 C 944.071 0.449902 3.56674 0
M  V30 9993 C 943.735 1.80266 4.19944 0
M  V30 9994 C 944.732 2.76373 4.40357 0
M  V30 9995 C 942.417 2.09155 4.56683 0
M  V30 9996 C 944.411 3.9954 4.96635 0
M  V30 9997 C 942.098 3.32581 5.12672 0
M  V30 9998 C 943.096 4.27591 5.32592 0
M  V30 9999 O 942.784 5.48837 5.87395 0
M  V30 10000 H 942.516 0.168866 0.654569 0
M  V30 10001 H 945.07 1.11441 1.7254 0
M  V30 10002 H 943.3 -0.295631 3.85568 0
M  V30 10003 H 944.989 0.0709302 4.05838 0
M  V30 10004 H 945.755 2.55351 4.12336 0
M  V30 10005 H 941.634 1.36004 4.40481 0
M  V30 10006 H 945.178 4.73709 5.12099 0
M  V30 10007 H 941.075 3.53466 5.40122 0
M  V30 10008 H 941.843 5.50377 6.05828 0
M  V30 10009 N 944.506 -1.46559 0.579492 0
M  V30 10010 C 945.753 -2.02399 0.0638418 0
M  V30 10011 C 946.081 -1.45135 -1.29484 0
M  V30 10012 O 945.336 -0.605061 -1.86112 0
M  V30 10013 C 945.635 -3.57357 -0.0552803 0
M  V30 10014 C 945.301 -4.33646 1.23539 0
M  V30 10015 C 943.963 -4.54207 1.589 0
M  V30 10016 C 946.315 -4.77476 2.08965 0
M  V30 10017 C 943.643 -5.1585 2.79492 0
M  V30 10018 C 945.995 -5.4045 3.2878 0
M  V30 10019 C 944.659 -5.5924 3.64427 0
M  V30 10020 H 943.929 -0.740632 0.0233614 0
M  V30 10021 H 946.576 -1.75968 0.755482 0
M  V30 10022 H 944.881 -3.82907 -0.83003 0
M  V30 10023 H 946.578 -3.98237 -0.469964 0
M  V30 10024 H 943.168 -4.17937 0.9501 0
M  V30 10025 H 947.352 -4.61349 1.8295 0
M  V30 10026 H 942.608 -5.28589 3.07252 0
M  V30 10027 H 946.782 -5.73371 3.95245 0
M  V30 10028 H 944.409 -6.06775 4.57961 0
M  V30 10029 N 945.984 -0.3171 -1.54377 0
M  V30 10030 C 947.209 0.292311 -2.0533 0
M  V30 10031 C 947.634 1.45503 -1.19207 0
M  V30 10032 O 946.992 1.80197 -0.199721 0
M  V30 10033 C 947.04 0.710787 -3.53525 0
M  V30 10034 O 946.144 1.81387 -3.70368 0
M  V30 10035 H 945.485 0.0539976 -0.661801 0
M  V30 10036 H 948.015 -0.463629 -1.99278 0
M  V30 10037 H 948.025 0.995216 -3.95676 0
M  V30 10038 H 946.7 -0.139668 -4.15665 0
M  V30 10039 H 945.277 1.52875 -3.40123 0
M  V30 10040 N 947.462 1.57535 -0.0451378 0
M  V30 10041 C 948.392 2.14208 0.929372 0
M  V30 10042 C 949.373 1.06221 1.32858 0
M  V30 10043 O 950.558 1.34132 1.40436 0
M  V30 10044 C 947.688 2.68217 2.20629 0
M  V30 10045 C 946.642 3.81134 1.94734 0
M  V30 10046 C 945.968 4.21636 3.28828 0
M  V30 10047 C 947.268 5.06531 1.27374 0
M  V30 10048 H 948.962 2.95886 0.457348 0
M  V30 10049 H 946.508 1.42332 0.218544 0
M  V30 10050 H 948.461 3.06502 2.89196 0
M  V30 10051 H 947.185 1.83722 2.70026 0
M  V30 10052 H 945.844 3.43312 1.28579 0
M  V30 10053 H 945.492 3.34099 3.76014 0
M  V30 10054 H 945.192 4.97736 3.12302 0
M  V30 10055 H 946.716 4.62516 3.98637 0
M  V30 10056 H 948.13 5.423 1.85967 0
M  V30 10057 H 946.527 5.87735 1.21194 0
M  V30 10058 H 947.597 4.84261 0.248913 0
M  V30 10059 N 948.94 -0.228186 1.55939 0
M  V30 10060 C 950.188 -0.951668 1.78291 0
M  V30 10061 C 950.509 -1.85132 0.612474 0
M  V30 10062 O 949.779 -1.92356 -0.370942 0
M  V30 10063 H 948.359 -0.354388 0.657585 0
M  V30 10064 H 951.021 -0.241635 1.93396 0
M  V30 10065 H 950.117 -1.56239 2.70177 0
M  V30 10066 N 950.418 -1.49637 -0.494624 0
M  V30 10067 C 951.665 -1.59445 -1.24834 0
M  V30 10068 C 951.993 -0.284028 -1.92415 0
M  V30 10069 O 951.248 0.728519 -1.81634 0
M  V30 10070 C 951.547 -2.70749 -2.33302 0
M  V30 10071 C 951.213 -4.12034 -1.83135 0
M  V30 10072 C 949.875 -4.50482 -1.69173 0
M  V30 10073 C 952.227 -5.00432 -1.4566 0
M  V30 10074 C 949.555 -5.75093 -1.16124 0
M  V30 10075 C 951.907 -6.25568 -0.940608 0
M  V30 10076 C 950.571 -6.62839 -0.787432 0
M  V30 10077 H 949.841 -0.583451 -0.456799 0
M  V30 10078 H 952.488 -1.8349 -0.548044 0
M  V30 10079 H 950.793 -2.407 -3.09145 0
M  V30 10080 H 952.49 -2.75546 -2.91334 0
M  V30 10081 H 949.08 -3.8169 -1.94964 0
M  V30 10082 H 953.264 -4.71379 -1.55291 0
M  V30 10083 H 948.52 -6.02665 -1.02982 0
M  V30 10084 H 952.694 -6.93439 -0.641467 0
M  V30 10085 H 950.321 -7.59279 -0.374191 0
M  V30 10086 N 951.896 0.746133 -1.38819 0
M  V30 10087 C 953.173 1.49652 -1.25951 0
M  V30 10088 C 953.553 2.10663 0.135833 0
M  V30 10089 O 952.901 1.97682 1.14604 0
M  V30 10090 C 953.111 2.5569 -2.37537 0
M  V30 10091 C 954.459 3.22385 -2.76321 0
M  V30 10092 O 955.483 2.65998 -2.36904 0
M  V30 10093 O 954.342 4.2439 -3.44319 0
M  V30 10094 H 951.436 0.664019 -0.492958 0
M  V30 10095 H 953.982 0.780908 -1.50665 0
M  V30 10096 H 952.754 2.08908 -3.30867 0
M  V30 10097 H 952.377 3.34823 -2.14427 0
M  V30 10098 N 953.375 1.23811 0.975125 0
M  V30 10099 C 954.338 1.02505 2.05001 0
M  V30 10100 C 955.338 -0.0150084 1.60793 0
M  V30 10101 O 956.528 0.225246 1.72738 0
M  V30 10102 C 953.66 0.552087 3.364 0
M  V30 10103 H 954.853 1.979 2.25335 0
M  V30 10104 H 952.406 1.05929 1.1493 0
M  V30 10105 H 953.141 -0.405394 3.21756 0
M  V30 10106 H 952.926 1.30267 3.69828 0
M  V30 10107 H 954.416 0.423828 4.15444 0
M  V30 10108 N 954.853 -1.17469 1.05066 0
M  V30 10109 C 955.803 -2.19388 0.620713 0
M  V30 10110 C 956.787 -1.5722 -0.34214 0
M  V30 10111 O 957.979 -1.76279 -0.159574 0
M  V30 10112 C 955.108 -3.433 -0.00438518 0
M  V30 10113 C 954.194 -4.12569 0.982218 0
M  V30 10114 N 954.585 -4.57683 2.15313 0
M  V30 10115 C 952.883 -4.38575 0.810416 0
M  V30 10116 C 953.584 -5.11124 2.77719 0
M  V30 10117 N 952.56 -5.0325 2.05525 0
M  V30 10118 H 956.362 -2.51971 1.51287 0
M  V30 10119 H 953.876 -1.33784 0.920625 0
M  V30 10120 H 955.873 -4.15591 -0.330161 0
M  V30 10121 H 954.533 -3.12209 -0.89195 0
M  V30 10122 H 955.544 -4.51812 2.53154 0
M  V30 10123 H 952.221 -4.17492 -0.0262078 0
M  V30 10124 H 953.611 -5.56161 3.77008 0
M  V30 10125 N 956.331 -0.831506 -1.3388 0
M  V30 10126 C 957.577 -0.424302 -1.98312 0
M  V30 10127 C 957.91 1.01211 -1.65741 0
M  V30 10128 O 957.185 1.70636 -0.933464 0
M  V30 10129 C 957.468 -0.636815 -3.54424 0
M  V30 10130 C 957.321 -2.11997 -3.96708 0
M  V30 10131 C 958.64 -0.0782411 -4.4003 0
M  V30 10132 H 955.759 -0.155637 -0.720379 0
M  V30 10133 H 958.401 -1.04566 -1.58638 0
M  V30 10134 H 956.551 -0.107907 -3.8835 0
M  V30 10135 H 958.223 -2.71317 -3.73075 0
M  V30 10136 H 956.466 -2.60723 -3.46707 0
M  V30 10137 H 957.137 -2.21944 -5.05416 0
M  V30 10138 H 959.613 -0.530243 -4.12708 0
M  V30 10139 H 958.489 -0.256676 -5.483 0
M  V30 10140 H 958.75 1.01745 -4.30233 0
M  V30 10141 N 957.809 1.4625 -0.587256 0
M  V30 10142 C 959.037 2.06744 -0.08033 0
M  V30 10143 C 959.452 1.43527 1.2266 0
M  V30 10144 O 958.809 0.542168 1.74261 0
M  V30 10145 C 958.86 3.61394 0.0873469 0
M  V30 10146 O 958.581 4.22247 -1.16785 0
M  V30 10147 C 960.082 4.38828 0.628095 0
M  V30 10148 H 957.302 0.668354 -0.0595301 0
M  V30 10149 H 959.846 1.87808 -0.809217 0
M  V30 10150 H 958.001 3.79742 0.766473 0
M  V30 10151 H 958.415 5.15176 -0.984565 0
M  V30 10152 H 959.889 5.47613 0.694583 0
M  V30 10153 H 960.366 4.07188 1.64606 0
M  V30 10154 H 960.972 4.25297 -0.0163115 0
M  V30 10155 N 959.287 0.325282 1.54207 0
M  V30 10156 C 960.217 -0.532574 2.27345 0
M  V30 10157 C 961.198 -1.11791 1.28206 0
M  V30 10158 O 962.383 -1.14272 1.57021 0
M  V30 10159 C 959.513 -1.69274 3.03255 0
M  V30 10160 C 958.467 -1.23662 4.09746 0
M  V30 10161 C 957.793 -2.48386 4.73506 0
M  V30 10162 C 959.093 -0.350244 5.21124 0
M  V30 10163 H 960.787 0.0775108 2.993 0
M  V30 10164 H 958.333 0.0387193 1.43948 0
M  V30 10165 H 960.286 -2.29917 3.53152 0
M  V30 10166 H 959.01 -2.32944 2.28921 0
M  V30 10167 H 957.669 -0.653106 3.60735 0
M  V30 10168 H 957.317 -3.10424 3.95786 0
M  V30 10169 H 957.017 -2.18558 5.45441 0
M  V30 10170 H 958.541 -3.09789 5.26178 0
M  V30 10171 H 959.955 -0.863011 5.66767 0
M  V30 10172 H 958.352 -0.14466 5.99926 0
M  V30 10173 H 959.422 0.618457 4.8094 0
M  V30 10174 N 960.765 -1.57509 0.0534917 0
M  V30 10175 C 961.675 -2.15152 -0.935249 0
M  V30 10176 C 962.691 -1.10991 -1.34003 0
M  V30 10177 O 963.867 -1.43171 -1.41648 0
M  V30 10178 C 960.932 -2.68699 -2.19093 0
M  V30 10179 C 959.993 -3.87666 -1.84428 0
M  V30 10180 C 959.226 -4.3865 -3.0401 0
M  V30 10181 O 959.449 -3.887 -4.17455 0
M  V30 10182 O 958.383 -5.30209 -2.84889 0
M  V30 10183 H 962.209 -2.99962 -0.475009 0
M  V30 10184 H 959.794 -1.48446 -0.16854 0
M  V30 10185 H 961.676 -3.03098 -2.92762 0
M  V30 10186 H 960.351 -1.86958 -2.6425 0
M  V30 10187 H 959.258 -3.58151 -1.08068 0
M  V30 10188 H 960.591 -4.70643 -1.44068 0
M  V30 10189 N 962.243 0.219913 -1.56058 0
M  V30 10190 C 963.49 0.944064 -1.79147 0
M  V30 10191 C 963.818 1.84268 -0.622531 0
M  V30 10192 O 963.073 1.91713 0.393013 0
M  V30 10193 C 963.372 1.81293 -3.08006 0
M  V30 10194 C 963.038 1.0674 -4.38084 0
M  V30 10195 C 961.7 0.86147 -4.73426 0
M  V30 10196 C 964.052 0.541049 -5.18384 0
M  V30 10197 C 961.38 0.117307 -5.86583 0
M  V30 10198 C 963.732 -0.189779 -6.32315 0
M  V30 10199 C 962.396 -0.406951 -6.66258 0
M  V30 10200 H 961.666 0.345458 -0.655546 0
M  V30 10201 H 964.313 0.212121 -1.90322 0
M  V30 10202 H 962.618 2.61278 -2.9196 0
M  V30 10203 H 964.315 2.3754 -3.23072 0
M  V30 10204 H 960.905 1.23789 -4.10334 0
M  V30 10205 H 965.089 0.687617 -4.91514 0
M  V30 10206 H 960.345 -0.0611651 -6.11369 0
M  V30 10207 H 964.519 -0.605134 -6.93766 0
M  V30 10208 H 962.146 -0.985511 -7.53785 0
M  V30 10209 N 963.721 1.49897 0.486681 0
M  V30 10210 C 964.671 1.6401 1.58381 0
M  V30 10211 C 965.655 0.495215 1.5309 0
M  V30 10212 O 966.847 0.748876 1.60377 0
M  V30 10213 C 963.976 1.72321 2.96918 0
M  V30 10214 C 963.062 2.92435 3.07152 0
M  V30 10215 N 963.453 4.16326 2.87238 0
M  V30 10216 C 961.751 2.90669 3.38271 0
M  V30 10217 C 962.452 4.97144 3.02031 0
M  V30 10218 N 961.428 4.3079 3.31544 0
M  V30 10219 H 965.23 2.57506 1.41661 0
M  V30 10220 H 962.744 1.46867 0.693106 0
M  V30 10221 H 964.741 1.80532 3.75784 0
M  V30 10222 H 963.401 0.799724 3.14697 0
M  V30 10223 H 964.412 4.46076 2.63128 0
M  V30 10224 H 961.089 2.07758 3.62137 0
M  V30 10225 H 962.479 6.05611 2.91006 0
M  V30 10226 N 965.199 -0.738761 1.39212 0
M  V30 10227 C 966.109 -1.88324 1.39897 0
M  V30 10228 C 967.125 -1.71494 0.294229 0
M  V30 10229 O 968.301 -1.94162 0.535087 0
M  V30 10230 C 965.366 -3.23871 1.23726 0
M  V30 10231 C 964.427 -3.53121 2.44139 0
M  V30 10232 C 963.66 -4.82202 2.2873 0
M  V30 10233 O 963.883 -5.55649 1.28879 0
M  V30 10234 O 962.817 -5.11265 3.17634 0
M  V30 10235 H 966.643 -1.90701 2.36362 0
M  V30 10236 H 964.228 -0.886067 1.20288 0
M  V30 10237 H 966.11 -4.04882 1.16826 0
M  V30 10238 H 964.785 -3.22274 0.303551 0
M  V30 10239 H 963.692 -2.72212 2.56615 0
M  V30 10240 H 965.025 -3.59495 3.36191 0
M  V30 10241 N 966.677 -1.24326 -0.968545 0
M  V30 10242 C 967.902 -1.1104 -1.75171 0
M  V30 10243 C 968.327 0.333109 -1.85127 0
M  V30 10244 O 967.685 1.24115 -1.32156 0
M  V30 10245 C 967.733 -1.75397 -3.15068 0
M  V30 10246 O 966.837 -1.02417 -3.9948 0
M  V30 10247 H 966.178 -0.388488 -0.538491 0
M  V30 10248 H 968.708 -1.64617 -1.215 0
M  V30 10249 H 968.718 -1.8112 -3.65595 0
M  V30 10250 H 967.393 -2.80427 -3.07138 0
M  V30 10251 H 965.97 -1.04475 -3.57966 0
M  V30 10252 N 968.156 1.1691 -1.05688 0
M  V30 10253 C 969.572 1.39288 -0.779167 0
M  V30 10254 C 969.772 1.91587 0.624231 0
M  V30 10255 O 968.828 2.11072 1.38582 0
M  V30 10256 C 970.141 2.37914 -1.83895 0
M  V30 10257 C 971.689 2.51611 -1.86175 0
M  V30 10258 C 972.164 3.53514 -2.9119 0
M  V30 10259 N 973.655 3.61036 -2.90184 0
M  V30 10260 C 974.39 4.39657 -3.68088 0
M  V30 10261 N 973.886 5.21752 -4.55793 0
M  V30 10262 N 975.679 4.3458 -3.56507 0
M  V30 10263 H 967.83 0.81296 -1.96226 0
M  V30 10264 H 970.093 0.419818 -0.849975 0
M  V30 10265 H 969.799 2.06568 -2.84645 0
M  V30 10266 H 969.673 3.37483 -1.68479 0
M  V30 10267 H 972.06 2.82264 -0.86087 0
M  V30 10268 H 972.141 1.52099 -2.05668 0
M  V30 10269 H 971.785 3.23599 -3.91467 0
M  V30 10270 H 971.715 4.52742 -2.68947 0
M  V30 10271 H 974.206 3.02428 -2.26596 0
M  V30 10272 H 974.519 5.78939 -5.11907 0
M  V30 10273 H 972.864 5.21116 -4.59851 0
M  V30 10274 H 976.055 3.69501 -2.87379 0
M  V30 10275 H 976.228 4.95607 -4.17466 0
M  V30 10276 N 969.634 0.838594 1.33437 0
M  V30 10277 C 970.544 0.274048 2.32994 0
M  V30 10278 C 971.56 -0.599776 1.63336 0
M  V30 10279 O 972.736 -0.503963 1.94993 0
M  V30 10280 C 969.801 -0.541804 3.4244 0
M  V30 10281 C 968.862 0.356262 4.27819 0
M  V30 10282 C 968.095 -0.420747 5.32039 0
M  V30 10283 O 968.318 -1.65247 5.45939 0
M  V30 10284 O 967.252 0.205101 6.0155 0
M  V30 10285 H 971.078 1.09846 2.83139 0
M  V30 10286 H 968.663 0.601111 1.36774 0
M  V30 10287 H 970.545 -1.00544 4.0923 0
M  V30 10288 H 969.22 -1.34328 2.94513 0
M  V30 10289 H 968.127 0.867726 3.63897 0
M  V30 10290 H 969.46 1.1225 4.79229 0
M  V30 10291 N 971.112 -1.45937 0.595003 0
M  V30 10292 C 972.075 -2.2888 -0.121102 0
M  V30 10293 C 973.075 -1.39075 -0.807149 0
M  V30 10294 O 974.265 -1.61326 -0.657228 0
M  V30 10295 C 971.397 -3.19778 -1.1813 0
M  V30 10296 H 972.59 -2.93673 0.607968 0
M  V30 10297 H 970.143 -1.5225 0.353495 0
M  V30 10298 H 970.878 -2.59759 -1.94154 0
M  V30 10299 H 970.663 -3.85914 -0.693724 0
M  V30 10300 H 972.153 -3.82176 -1.68319 0
M  V30 10301 N 972.59 -0.333456 -1.54032 0
M  V30 10302 C 973.538 0.543414 -2.26163 0
M  V30 10303 C 974.532 1.11037 -1.27934 0
M  V30 10304 O 975.738 1.05727 -1.45677 0
M  V30 10305 H 972.113 0.19391 -0.726569 0
M  V30 10306 H 974.084 -0.0871052 -2.98273 0
M  V30 10307 C 972.833 1.68769 -3.03994 0
M  V30 10308 H 972.156 1.26069 -3.79403 0
M  V30 10309 H 973.596 2.27662 -3.57695 0
M  V30 10310 C 972.055 2.61117 -2.12884 0
M  V30 10311 O 972.585 3.63097 -1.71823 0
M  V30 10312 N 970.791 2.29573 -1.7817 0
M  V30 10313 H 970.338 1.46684 -2.11759 0
M  V30 10314 H 970.296 2.91622 -1.1749 0
M  V30 10315 N 974.068 1.57479 -0.061844 0
M  V30 10316 C 975.479 1.80627 0.472295 0
M  V30 10317 C 975.83 0.97496 1.70261 0
M  V30 10318 O 974.955 0.1946 2.15523 0
M  V30 10319 C 975.55 3.27608 0.863616 0
M  V30 10320 C 974.109 3.51638 1.34267 0
M  V30 10321 C 973.256 2.75412 0.323009 0
M  V30 10322 H 976.207 1.56072 -0.287634 0
M  V30 10323 H 976.228 3.39113 1.72577 0
M  V30 10324 H 975.74 3.88087 -0.0320226 0
M  V30 10325 H 973.841 2.96452 2.25714 0
M  V30 10326 H 973.954 4.60342 1.32747 0
M  V30 10327 H 972.318 2.4187 0.798175 0
M  V30 10328 H 973.101 3.38623 -0.564729 0
M  V30 10329 N 975.546 -0.211634 1.56173 0
M  V30 10330 C 976.456 -1.2831 1.96402 0
M  V30 10331 C 977.472 -1.50731 0.869254 0
M  V30 10332 O 978.648 -1.63669 1.17365 0
M  V30 10333 C 975.713 -2.61084 2.28114 0
M  V30 10334 C 974.774 -2.46879 3.51211 0
M  V30 10335 C 974.007 -3.73321 3.81401 0
M  V30 10336 O 974.23 -4.76773 3.13119 0
M  V30 10337 O 973.164 -3.69839 4.74871 0
M  V30 10338 H 976.99 -0.971733 2.87734 0
M  V30 10339 H 974.575 -0.415305 1.43512 0
M  V30 10340 H 976.457 -3.39481 2.49661 0
M  V30 10341 H 975.132 -2.91881 1.39954 0
M  V30 10342 H 974.039 -1.66648 3.34932 0
M  V30 10343 H 975.372 -2.21018 4.39786 0
M  V30 10344 N 977.024 -1.50153 -0.478725 0
M  V30 10345 C 977.971 -1.68458 -1.57767 0
M  V30 10346 C 978.941 -0.5259 -1.57555 0
M  V30 10347 O 980.126 -0.755574 -1.75202 0
M  V30 10348 C 977.266 -1.77772 -2.95789 0
M  V30 10349 C 976.379 -3.05092 -3.05848 0
M  V30 10350 C 975.514 -3.05247 -4.34739 0
M  V30 10351 C 974.553 -4.27053 -4.38512 0
M  V30 10352 N 973.69 -4.24991 -5.58862 0
M  V30 10353 H 978.53 -2.62282 -1.41464 0
M  V30 10354 H 976.067 -1.30023 -0.687921 0
M  V30 10355 H 978.025 -1.81152 -3.75819 0
M  V30 10356 H 976.655 -0.873944 -3.10744 0
M  V30 10357 H 975.707 -3.11219 -2.1874 0
M  V30 10358 H 977.019 -3.95075 -3.04495 0
M  V30 10359 H 976.173 -3.07314 -5.23109 0
M  V30 10360 H 974.912 -2.13081 -4.38689 0
M  V30 10361 H 973.917 -4.25206 -3.4854 0
M  V30 10362 H 975.142 -5.20437 -4.36259 0
M  V30 10363 H 973.088 -3.35674 -5.63612 0
M  V30 10364 H 973.005 -5.08734 -5.59219 0
M  V30 10365 H 974.273 -4.31193 -6.49379 0
M  V30 10366 N 978.502 0.731368 -1.39602 0
M  V30 10367 C 979.749 1.491 -1.37024 0
M  V30 10368 C 980.077 1.94473 0.0326423 0
M  V30 10369 O 979.332 1.6737 1.01418 0
M  V30 10370 C 979.631 2.74224 -2.29208 0
M  V30 10371 C 979.297 2.477 -3.7677 0
M  V30 10372 C 977.959 2.40175 -4.16976 0
M  V30 10373 C 980.311 2.25098 -4.70086 0
M  V30 10374 C 977.639 2.08095 -5.48556 0
M  V30 10375 C 979.991 1.94534 -6.01946 0
M  V30 10376 C 978.655 1.85481 -6.41212 0
M  V30 10377 H 977.925 0.545595 -0.501405 0
M  V30 10378 H 980.572 0.839127 -1.72136 0
M  V30 10379 H 978.877 3.44171 -1.87225 0
M  V30 10380 H 980.574 3.32264 -2.24504 0
M  V30 10381 H 977.164 2.54436 -3.44906 0
M  V30 10382 H 981.348 2.29876 -4.39853 0
M  V30 10383 H 976.604 1.99611 -5.77897 0
M  V30 10384 H 980.778 1.76054 -6.73779 0
M  V30 10385 H 978.405 1.60389 -7.43088 0
M  V30 10386 N 979.98 1.24838 0.961938 0
M  V30 10387 C 980.928 1.0436 2.07874 0
M  V30 10388 C 981.922 -0.0232531 1.69384 0
M  V30 10389 O 983.128 0.131773 1.79517 0
M  V30 10390 H 979.503 0.320492 0.680286 0
M  V30 10391 H 981.474 1.99055 2.22306 0
M  V30 10392 C 980.223 0.671246 3.41159 0
M  V30 10393 H 979.546 1.48395 3.7124 0
M  V30 10394 H 980.986 0.567608 4.20184 0
M  V30 10395 C 979.445 -0.622124 3.31106 0
M  V30 10396 O 979.975 -1.66627 3.65511 0
M  V30 10397 N 978.181 -0.605009 2.84232 0
M  V30 10398 H 977.728 0.245052 2.56432 0
M  V30 10399 H 977.686 -1.47056 2.77888 0
M  V30 10400 N 981.458 -1.16348 1.06306 0
M  V30 10401 C 982.683 -1.91323 0.800636 0
M  V30 10402 C 983.108 -1.7691 -0.639105 0
M  V30 10403 O 982.466 -1.0945 -1.44535 0
M  V30 10404 C 982.514 -3.40038 1.20027 0
M  V30 10405 O 981.618 -4.11003 0.339142 0
M  V30 10406 H 980.959 -0.596057 0.292595 0
M  V30 10407 H 983.489 -1.47406 1.41889 0
M  V30 10408 H 983.499 -3.90808 1.17188 0
M  V30 10409 H 982.174 -3.49848 2.24898 0
M  V30 10410 H 980.751 -3.70423 0.42911 0
M  V30 10411 N 982.937 -0.845659 -1.3299 0
M  V30 10412 C 984.353 -0.53433 -1.5039 0
M  V30 10413 C 984.553 0.936939 -1.78392 0
M  V30 10414 O 983.609 1.72043 -1.84818 0
M  V30 10415 C 984.922 -1.41354 -2.65404 0
M  V30 10416 C 986.47 -1.41303 -2.79289 0
M  V30 10417 C 986.945 -2.27724 -3.97373 0
M  V30 10418 N 988.436 -2.25471 -4.0462 0
M  V30 10419 C 989.171 -2.89074 -4.95201 0
M  V30 10420 N 988.667 -3.61755 -5.90851 0
M  V30 10421 N 990.46 -2.78508 -4.88251 0
M  V30 10422 H 982.611 -1.79798 -1.13078 0
M  V30 10423 H 984.874 -0.767454 -0.556524 0
M  V30 10424 H 984.58 -2.45936 -2.51413 0
M  V30 10425 H 984.454 -1.09445 -3.60973 0
M  V30 10426 H 986.841 -0.374899 -2.92709 0
M  V30 10427 H 986.922 -1.77222 -1.84461 0
M  V30 10428 H 986.566 -3.316 -3.84713 0
M  V30 10429 H 986.496 -1.89142 -4.9146 0
M  V30 10430 H 988.987 -1.72622 -3.3617 0
M  V30 10431 H 989.3 -4.07475 -6.56646 0
M  V30 10432 H 987.645 -3.65863 -5.90906 0
M  V30 10433 H 990.836 -2.21285 -4.12493 0
M  V30 10434 H 991.009 -3.2836 -5.58645 0
M  V30 10435 N 984.415 1.45619 -0.602734 0
M  V30 10436 C 985.662 2.02272 -0.0960337 0
M  V30 10437 C 985.99 1.47177 1.27159 0
M  V30 10438 O 985.245 0.634593 1.85125 0
M  V30 10439 C 985.544 3.574 -0.00157909 0
M  V30 10440 C 985.21 4.31626 -1.30422 0
M  V30 10441 C 983.872 4.51622 -1.66106 0
M  V30 10442 C 986.224 4.74091 -2.16535 0
M  V30 10443 C 983.552 5.11338 -2.87663 0
M  V30 10444 C 985.904 5.35151 -3.37336 0
M  V30 10445 C 984.568 5.53371 -3.73278 0
M  V30 10446 H 983.838 0.740166 -0.0351412 0
M  V30 10447 H 986.485 1.74744 -0.783382 0
M  V30 10448 H 984.79 3.84179 0.769008 0
M  V30 10449 H 986.487 3.98934 0.406549 0
M  V30 10450 H 983.077 4.16372 -1.01647 0
M  V30 10451 H 987.261 4.5838 -1.90266 0
M  V30 10452 H 982.517 5.23634 -3.15622 0
M  V30 10453 H 986.691 5.67011 -4.04316 0
M  V30 10454 H 984.318 5.99412 -4.67556 0
M  V30 10455 N 985.893 0.34162 1.53853 0
M  V30 10456 C 987.309 -0.0103769 1.59597 0
M  V30 10457 C 987.509 -1.48897 1.35764 0
M  V30 10458 O 986.565 -2.24743 1.15095 0
M  V30 10459 C 987.878 0.424067 2.97695 0
M  V30 10460 C 989.426 0.376247 3.1073 0
M  V30 10461 C 989.901 0.786129 4.51203 0
M  V30 10462 N 991.392 0.74024 4.57247 0
M  V30 10463 C 992.127 1.02937 5.64085 0
M  V30 10464 N 991.623 1.38655 6.78783 0
M  V30 10465 N 993.416 0.953734 5.5395 0
M  V30 10466 H 985.567 1.30477 1.67599 0
M  V30 10467 H 987.83 0.531753 0.78482 0
M  V30 10468 H 987.536 1.45493 3.20195 0
M  V30 10469 H 987.41 -0.201713 3.7666 0
M  V30 10470 H 989.797 -0.645441 2.87955 0
M  V30 10471 H 989.878 1.0372 2.33828 0
M  V30 10472 H 989.522 1.80582 4.74713 0
M  V30 10473 H 989.452 0.102671 5.265 0
M  V30 10474 H 991.943 0.476763 3.7488 0
M  V30 10475 H 992.256 1.59206 7.56223 0
M  V30 10476 H 990.601 1.42498 6.80235 0
M  V30 10477 H 993.792 0.674044 4.63222 0
M  V30 10478 H 993.965 1.18241 6.37121 0
M  V30 10479 N 987.371 -1.57444 0.0701946 0
M  V30 10480 C 988.319 -2.13834 -0.915302 0
M  V30 10481 C 989.313 -1.07483 -1.30934 0
M  V30 10482 O 990.519 -1.25865 -1.28678 0
M  V30 10483 H 986.894 -0.683716 -0.313108 0
M  V30 10484 H 988.865 -2.95503 -0.414758 0
M  V30 10485 C 987.614 -2.71355 -2.17398 0
M  V30 10486 H 986.937 -3.52861 -1.87961 0
M  V30 10487 H 988.377 -3.1441 -2.84469 0
M  V30 10488 C 986.836 -1.66038 -2.93143 0
M  V30 10489 O 987.366 -1.08443 -3.86786 0
M  V30 10490 N 985.572 -1.3711 -2.56221 0
M  V30 10491 H 985.119 -1.84135 -1.80145 0
M  V30 10492 H 985.077 -0.66877 -3.07205 0
M  V30 10493 N 988.849 0.203349 -1.56283 0
M  V30 10494 C 989.796 1.25205 -1.93888 0
M  V30 10495 C 990.766 1.45654 -0.798376 0
M  V30 10496 O 991.951 1.58924 -1.05583 0
M  V30 10497 C 989.091 2.59355 -2.27659 0
M  V30 10498 C 988.204 2.46553 -3.54733 0
M  V30 10499 C 987.339 3.73351 -3.77865 0
M  V30 10500 C 986.378 3.55347 -4.98392 0
M  V30 10501 N 985.515 4.74137 -5.17821 0
M  V30 10502 H 990.355 0.924356 -2.83301 0
M  V30 10503 H 987.892 0.445082 -1.40205 0
M  V30 10504 H 989.85 3.375 -2.45254 0
M  V30 10505 H 988.48 2.90184 -1.41396 0
M  V30 10506 H 987.532 1.59749 -3.45231 0
M  V30 10507 H 988.844 2.2918 -4.43033 0
M  V30 10508 H 987.998 4.59937 -3.95655 0
M  V30 10509 H 986.737 3.9367 -2.8788 0
M  V30 10510 H 985.742 2.67146 -4.80534 0
M  V30 10511 H 986.967 3.36482 -5.89879 0
M  V30 10512 H 984.913 4.94735 -4.30782 0
M  V30 10513 H 984.83 4.59558 -6.00285 0
M  V30 10514 H 986.098 5.62098 -5.40061 0
M  V30 10515 N 990.327 1.50405 0.470755 0
M  V30 10516 C 991.26 1.63933 1.58749 0
M  V30 10517 C 992.238 0.487444 1.55122 0
M  V30 10518 O 993.422 0.706992 1.74739 0
M  V30 10519 C 990.549 1.62222 2.97324 0
M  V30 10520 C 989.595 2.82975 3.19104 0
M  V30 10521 S 990.428 4.44272 2.98969 0
M  V30 10522 C 991.584 4.45254 4.39886 0
M  V30 10523 H 991.817 2.58396 1.47034 0
M  V30 10524 H 989.35 1.39672 0.658115 0
M  V30 10525 H 991.308 1.6192 3.77217 0
M  V30 10526 H 989.969 0.689944 3.06429 0
M  V30 10527 H 989.162 2.78083 4.2034 0
M  V30 10528 H 988.764 2.80846 2.46984 0
M  V30 10529 H 991.056 4.18837 5.32524 0
M  V30 10530 H 991.999 5.4687 4.49821 0
M  V30 10531 H 992.407 3.74958 4.2198 0
M  V30 10532 N 991.805 -0.723954 1.39988 0
M  V30 10533 C 993.052 -1.48371 1.37812 0
M  V30 10534 C 993.38 -1.94487 -0.0223285 0
M  V30 10535 O 992.635 -1.67906 -1.00529 0
M  V30 10536 C 992.934 -2.73004 2.30659 0
M  V30 10537 C 992.6 -2.45698 3.78078 0
M  V30 10538 C 991.262 -2.37961 4.18244 0
M  V30 10539 C 993.614 -2.22601 4.71273 0
M  V30 10540 C 990.942 -2.05183 5.49652 0
M  V30 10541 C 993.294 -1.91339 6.0297 0
M  V30 10542 C 991.958 -1.82078 6.42187 0
M  V30 10543 H 991.228 -0.542929 0.504291 0
M  V30 10544 H 993.875 -0.829986 1.72579 0
M  V30 10545 H 992.18 -3.43174 1.89048 0
M  V30 10546 H 993.877 -3.31068 2.26263 0
M  V30 10547 H 990.467 -2.52603 3.46251 0
M  V30 10548 H 994.651 -2.2754 4.41066 0
M  V30 10549 H 989.907 -1.96544 5.78948 0
M  V30 10550 H 994.081 -1.72479 6.74703 0
M  V30 10551 H 991.708 -1.56446 7.43928 0
M  V30 10552 N 993.283 -1.25346 -0.955304 0
M  V30 10553 C 994.513 -1.12629 -1.732 0
M  V30 10554 C 994.921 0.322748 -1.86427 0
M  V30 10555 O 994.264 1.23381 -1.36099 0
M  V30 10556 C 994.326 -1.7064 -3.16421 0
M  V30 10557 C 993.99 -3.19632 -3.26626 0
M  V30 10558 C 994.987 -4.1663 -3.10991 0
M  V30 10559 C 992.672 -3.59829 -3.50468 0
M  V30 10560 C 994.666 -5.51806 -3.19043 0
M  V30 10561 C 992.353 -4.95143 -3.58157 0
M  V30 10562 C 993.351 -5.90941 -3.42459 0
M  V30 10563 O 993.039 -7.23792 -3.49828 0
M  V30 10564 H 992.771 -0.393646 -0.549562 0
M  V30 10565 H 995.325 -1.66184 -1.20715 0
M  V30 10566 H 993.555 -1.11532 -3.70267 0
M  V30 10567 H 995.244 -1.53032 -3.75947 0
M  V30 10568 H 996.01 -3.86915 -2.92441 0
M  V30 10569 H 991.889 -2.8576 -3.61749 0
M  V30 10570 H 995.433 -6.26559 -3.06707 0
M  V30 10571 H 991.33 -5.24525 -3.76224 0
M  V30 10572 H 992.098 -7.31879 -3.66463 0
M  V30 10573 N 994.761 1.15782 -1.06922 0
M  V30 10574 C 995.724 2.18578 -0.689654 0
M  V30 10575 C 996.724 1.58553 0.267872 0
M  V30 10576 O 997.914 1.7413 0.0494097 0
M  V30 10577 C 995.046 3.40896 -0.0157919 0
M  V30 10578 H 996.239 2.53672 -1.59971 0
M  V30 10579 H 993.792 1.30168 -0.865214 0
M  V30 10580 H 994.527 3.11367 0.906712 0
M  V30 10581 H 994.312 3.85721 -0.704415 0
M  V30 10582 H 995.802 4.16937 0.235266 0
M  V30 10583 N 996.239 0.8527 1.3254 0
M  V30 10584 C 997.487 0.454224 1.96929 0
M  V30 10585 C 997.808 -0.993034 1.67821 0
M  V30 10586 O 997.078 -1.69371 0.984393 0
M  V30 10587 H 995.658 0.164977 0.728554 0
M  V30 10588 H 998.32 1.0887 1.61658 0
M  V30 10589 H 997.416 0.597667 3.06324 0
M  V30 10590 N 997.718 -1.45297 0.610449 0
M  V30 10591 C 998.946 -2.0659 0.113211 0
M  V30 10592 C 999.361 -1.4546 -1.20361 0
M  V30 10593 O 998.718 -0.569823 -1.73376 0
M  V30 10594 C 998.769 -3.61488 -0.0298411 0
M  V30 10595 O 998.49 -4.20336 1.23488 0
M  V30 10596 C 999.991 -4.39772 -0.558202 0
M  V30 10597 H 997.211 -0.667322 0.0701555 0
M  V30 10598 H 999.755 -1.86497 0.838993 0
M  V30 10599 H 997.91 -3.80913 -0.705963 0
M  V30 10600 H 998.324 -5.13545 1.0664 0
M  V30 10601 H 999.798 -5.48648 -0.607375 0
M  V30 10602 H 1000.27 -4.09755 -1.58107 0
M  V30 10603 H 1000.88 -4.25217 0.0839704 0
M  V30 10604 N 999.196 -0.349774 -1.5367 0
M  V30 10605 C 1000.16 0.491676 -2.23864 0
M  V30 10606 C 1001.16 1.02256 -1.24098 0
M  V30 10607 O 1002.35 0.910816 -1.48492 0
M  V30 10608 C 999.481 1.68557 -2.96313 0
M  V30 10609 H 1000.67 -0.12233 -2.9965 0
M  V30 10610 H 998.227 -0.101214 -1.55972 0
M  V30 10611 H 998.962 2.3381 -2.2473 0
M  V30 10612 H 998.747 1.31203 -3.69497 0
M  V30 10613 H 1000.24 2.28225 -3.49718 0
M  V30 10614 N 1000.67 1.57404 -0.0785433 0
M  V30 10615 C 1001.92 1.93744 0.589024 0
M  V30 10616 C 1002.25 0.959087 1.69209 0
M  V30 10617 O 1001.5 -0.0241604 1.95685 0
M  V30 10618 C 1001.8 3.36684 1.1991 0
M  V30 10619 C 1001.47 4.50356 0.221493 0
M  V30 10620 C 1000.13 4.81177 -0.0474347 0
M  V30 10621 C 1002.48 5.1928 -0.446941 0
M  V30 10622 C 999.811 5.78257 -0.99177 0
M  V30 10623 C 1002.16 6.17372 -1.37964 0
M  V30 10624 C 1000.83 6.46607 -1.65697 0
M  V30 10625 H 1000.1 0.70896 0.215539 0
M  V30 10626 H 1002.74 1.90905 -0.150856 0
M  V30 10627 H 1001.05 3.36022 2.01486 0
M  V30 10628 H 1002.75 3.62095 1.72303 0
M  V30 10629 H 999.336 4.26322 0.441284 0
M  V30 10630 H 1003.52 4.95658 -0.252298 0
M  V30 10631 H 998.776 5.9923 -1.21381 0
M  V30 10632 H 1002.95 6.6988 -1.9035 0
M  V30 10633 H 1000.58 7.21643 -2.39031 0
M  V30 10634 N 1002.15 -0.195058 1.56388 0
M  V30 10635 C 1003.38 -0.935745 1.85091 0
M  V30 10636 C 1003.8 -1.76061 0.662118 0
M  V30 10637 O 1003.16 -1.77076 -0.389083 0
M  V30 10638 C 1003.21 -1.80764 3.1202 0
M  V30 10639 O 1002.31 -2.90643 2.92575 0
M  V30 10640 H 1001.65 -0.26351 0.609474 0
M  V30 10641 H 1004.18 -0.200362 2.03617 0
M  V30 10642 H 1004.19 -2.21229 3.42815 0
M  V30 10643 H 1002.87 -1.20157 3.98165 0
M  V30 10644 H 1001.44 -2.53934 2.73079 0
M  V30 10645 N 1003.63 -1.50653 -0.462772 0
M  V30 10646 C 1004.91 -1.5258 -1.22387 0
M  V30 10647 C 1005.29 -0.275263 -2.09298 0
M  V30 10648 O 1004.63 0.740943 -2.16153 0
M  V30 10649 C 1004.84 -2.82611 -2.04773 0
M  V30 10650 C 1006.19 -3.33592 -2.62681 0
M  V30 10651 O 1007.22 -2.83989 -2.15008 0
M  V30 10652 O 1006.08 -4.20081 -3.49563 0
M  V30 10653 H 1003.17 -0.612367 -0.55582 0
M  V30 10654 H 1005.72 -1.62948 -0.473914 0
M  V30 10655 H 1004.49 -3.65098 -1.40781 0
M  V30 10656 H 1004.11 -2.75286 -2.86886 0
M  V30 10657 N 1005.11 0.71652 -1.4037 0
M  V30 10658 C 1006.36 1.47638 -1.38597 0
M  V30 10659 C 1006.68 1.94496 0.0120141 0
M  V30 10660 O 1005.94 1.68437 0.996373 0
M  V30 10661 C 1006.24 2.71777 -2.32103 0
M  V30 10662 C 1005.9 2.43689 -3.79376 0
M  V30 10663 C 1004.57 2.35739 -4.195 0
M  V30 10664 C 1006.92 2.20099 -4.72447 0
M  V30 10665 C 1004.25 2.02265 -5.50732 0
M  V30 10666 C 1006.6 1.88138 -6.03976 0
M  V30 10667 C 1005.26 1.78669 -6.43143 0
M  V30 10668 H 1004.53 0.540246 -0.507163 0
M  V30 10669 H 1007.18 0.820822 -1.73017 0
M  V30 10670 H 1005.48 3.42166 -1.90865 0
M  V30 10671 H 1007.18 3.29864 -2.28015 0
M  V30 10672 H 1003.77 2.50763 -3.47585 0
M  V30 10673 H 1007.95 2.25198 -4.42266 0
M  V30 10674 H 1003.21 1.93471 -5.79982 0
M  V30 10675 H 1007.38 1.68898 -6.75608 0
M  V30 10676 H 1005.01 1.52498 -7.44747 0
M  V30 10677 N 1006.59 1.25851 0.948643 0
M  V30 10678 C 1007.52 1.09248 2.06367 0
M  V30 10679 C 1008.5 -0.000205168 1.701 0
M  V30 10680 O 1009.68 0.170442 1.93451 0
M  V30 10681 C 1006.81 0.716777 3.39823 0
M  V30 10682 C 1005.77 1.76036 3.90122 0
M  V30 10683 C 1005.09 1.23918 5.20143 0
M  V30 10684 C 1006.39 3.16039 4.15833 0
M  V30 10685 H 1008.09 2.02518 2.20515 0
M  V30 10686 H 1005.63 0.975093 1.05962 0
M  V30 10687 H 1007.59 0.587531 4.17284 0
M  V30 10688 H 1006.31 -0.251626 3.25629 0
M  V30 10689 H 1004.97 1.87815 3.14835 0
M  V30 10690 H 1004.62 0.260836 5.02323 0
M  V30 10691 H 1004.32 1.93673 5.54765 0
M  V30 10692 H 1005.84 1.12245 6.00194 0
M  V30 10693 H 1007.25 3.0738 4.83933 0
M  V30 10694 H 1005.65 3.83317 4.61723 0
M  V30 10695 H 1006.72 3.62652 3.21887 0
M  V30 10696 N 1008.06 -1.15214 1.07534 0
M  V30 10697 C 1009 -2.18999 0.641461 0
M  V30 10698 C 1009.98 -1.58958 -0.342238 0
M  V30 10699 O 1011.16 -1.86859 -0.248218 0
M  V30 10700 C 1008.29 -3.38651 -0.0577939 0
M  V30 10701 C 1007.33 -4.17225 0.884641 0
M  V30 10702 S 1008.17 -4.79375 2.38663 0
M  V30 10703 C 1009.32 -6.02393 1.69923 0
M  V30 10704 H 1009.55 -2.55464 1.52071 0
M  V30 10705 H 1007.09 -1.26205 0.889481 0
M  V30 10706 H 1009.05 -4.07971 -0.454982 0
M  V30 10707 H 1007.71 -3.00526 -0.913407 0
M  V30 10708 H 1006.9 -5.02837 0.342133 0
M  V30 10709 H 1006.5 -3.53463 1.2223 0
M  V30 10710 H 1008.79 -6.69899 1.01201 0
M  V30 10711 H 1009.74 -6.61216 2.53375 0
M  V30 10712 H 1010.14 -5.52106 1.1764 0
M  V30 10713 N 1009.54 -0.859717 -1.32086 0
M  V30 10714 C 1010.79 -0.464662 -1.96686 0
M  V30 10715 C 1011.11 0.98412 -1.68345 0
M  V30 10716 O 1010.38 1.68847 -0.993361 0
M  V30 10717 H 1008.96 -0.168838 -0.727669 0
M  V30 10718 H 1011.62 -1.09726 -1.61079 0
M  V30 10719 H 1010.72 -0.613904 -3.06003 0
M  V30 10720 N 1011.02 1.44971 -0.618145 0
M  V30 10721 C 1012.25 2.07039 -0.122395 0
M  V30 10722 C 1012.67 1.45793 1.18853 0
M  V30 10723 O 1012.03 0.55453 1.72611 0
M  V30 10724 C 1012.08 3.60599 -0.0073864 0
M  V30 10725 O 1011.18 3.99069 1.04007 0
M  V30 10726 H 1010.52 0.6593 -0.0788615 0
M  V30 10727 H 1013.05 1.86055 -0.851147 0
M  V30 10728 H 1013.06 4.07569 0.187417 0
M  V30 10729 H 1011.74 4.04561 -0.964544 0
M  V30 10730 H 1010.31 3.63753 0.820879 0
M  V30 10731 N 1012.5 0.357919 1.53482 0
M  V30 10732 C 1013.72 -0.237769 2.06033 0
M  V30 10733 C 1014.15 -1.42292 1.23023 0
M  V30 10734 O 1013.51 -1.79604 0.247427 0
M  V30 10735 C 1013.55 -0.616806 3.55286 0
M  V30 10736 O 1012.66 -1.71503 3.75047 0
M  V30 10737 H 1012 -0.0364322 0.663 0
M  V30 10738 H 1014.53 0.516301 1.97979 0
M  V30 10739 H 1014.54 -0.88996 3.98175 0
M  V30 10740 H 1013.21 0.249825 4.15149 0
M  V30 10741 H 1011.79 -1.43803 3.44057 0
M  V30 10742 N 1013.98 -1.5736 0.0868897 0
M  V30 10743 C 1014.92 -2.13571 -0.874996 0
M  V30 10744 C 1015.89 -1.0521 -1.2853 0
M  V30 10745 O 1017.08 -1.32954 -1.3685 0
M  V30 10746 C 1014.22 -2.71386 -2.13175 0
M  V30 10747 C 1013.33 -3.93953 -1.77272 0
M  V30 10748 C 1012.47 -4.3996 -2.97671 0
M  V30 10749 C 1011.51 -5.55137 -2.57856 0
M  V30 10750 N 1010.64 -5.96034 -3.71064 0
M  V30 10751 H 1015.48 -2.95453 -0.388789 0
M  V30 10752 H 1013.02 -1.45992 -0.180242 0
M  V30 10753 H 1014.98 -3.03022 -2.86764 0
M  V30 10754 H 1013.61 -1.92245 -2.5931 0
M  V30 10755 H 1012.66 -3.68683 -0.936845 0
M  V30 10756 H 1013.97 -4.77565 -1.43989 0
M  V30 10757 H 1013.13 -4.73337 -3.79522 0
M  V30 10758 H 1011.86 -3.55232 -3.34158 0
M  V30 10759 H 1010.87 -5.21397 -1.7443 0
M  V30 10760 H 1012.09 -6.41608 -2.22522 0
M  V30 10761 H 1010.04 -5.14253 -4.07284 0
M  V30 10762 H 1009.96 -6.74423 -3.41599 0
M  V30 10763 H 1011.23 -6.34038 -4.53449 0
M  V30 10764 N 1015.45 0.186762 -1.56489 0
M  V30 10765 C 1016.73 0.932229 -1.71956 0
M  V30 10766 C 1017.11 2.01037 -0.644006 0
M  V30 10767 O 1016.46 2.259 0.343694 0
M  V30 10768 C 1016.67 1.51106 -3.14592 0
M  V30 10769 C 1018.02 1.98997 -3.75081 0
M  V30 10770 O 1019.04 1.60931 -3.17773 0
M  V30 10771 O 1017.9 2.69067 -4.75673 0
M  V30 10772 H 1014.99 0.437736 -0.701652 0
M  V30 10773 H 1017.54 0.175803 -1.68787 0
M  V30 10774 H 1016.31 0.734327 -3.84348 0
M  V30 10775 H 1015.94 2.33209 -3.22024 0
M  V30 10776 N 1016.93 1.50896 0.454776 0
M  V30 10777 C 1017.86 1.73885 1.5584 0
M  V30 10778 C 1018.84 0.588172 1.59607 0
M  V30 10779 O 1020.03 0.829054 1.75614 0
M  V30 10780 C 1017.16 1.84796 2.94054 0
M  V30 10781 C 1016.11 3.00111 3.05152 0
M  V30 10782 C 1015.44 2.96183 4.45174 0
M  V30 10783 C 1016.74 4.40365 2.80849 0
M  V30 10784 H 1018.43 2.66292 1.36854 0
M  V30 10785 H 1015.98 1.28142 0.656936 0
M  V30 10786 H 1017.93 1.99462 3.71204 0
M  V30 10787 H 1016.66 0.890235 3.14233 0
M  V30 10788 H 1015.31 2.85121 2.30438 0
M  V30 10789 H 1014.96 1.98224 4.62295 0
M  V30 10790 H 1014.66 3.73608 4.53532 0
M  V30 10791 H 1016.19 3.1292 5.24322 0
M  V30 10792 H 1017.6 4.55795 3.47741 0
M  V30 10793 H 1016 5.19363 3.00636 0
M  V30 10794 H 1017.07 4.51606 1.76579 0
M  V30 10795 N 1018.41 -0.709066 1.40748 0
M  V30 10796 C 1019.37 -1.80485 1.41272 0
M  V30 10797 C 1020.37 -1.57872 0.305463 0
M  V30 10798 O 1021.56 -1.64793 0.564691 0
M  V30 10799 C 1018.7 -3.1867 1.21087 0
M  V30 10800 H 1019.89 -1.81417 2.38805 0
M  V30 10801 H 1017.44 -0.915356 1.26692 0
M  V30 10802 H 1018.18 -3.23385 0.243406 0
M  V30 10803 H 1017.96 -3.36484 2.01299 0
M  V30 10804 H 1019.45 -3.98685 1.24257 0
M  V30 10805 N 1019.89 -1.26353 -0.941956 0
M  V30 10806 C 1020.84 -1.07842 -2.04056 0
M  V30 10807 C 1021.81 0.0163064 -1.66092 0
M  V30 10808 O 1022.99 -0.143313 -1.90261 0
M  V30 10809 C 1020.13 -0.716636 -3.37577 0
M  V30 10810 C 1019.24 -1.88754 -3.88582 0
M  V30 10811 C 1018.38 -1.46893 -5.10486 0
M  V30 10812 C 1017.42 -2.60819 -5.53751 0
M  V30 10813 N 1016.56 -2.19646 -6.66858 0
M  V30 10814 H 1021.4 -2.01856 -2.19221 0
M  V30 10815 H 1018.93 -1.00504 -1.07412 0
M  V30 10816 H 1020.89 -0.487768 -4.14339 0
M  V30 10817 H 1019.52 0.18653 -3.22261 0
M  V30 10818 H 1018.57 -2.22936 -3.08227 0
M  V30 10819 H 1019.88 -2.74264 -4.1663 0
M  V30 10820 H 1019.04 -1.20047 -5.94705 0
M  V30 10821 H 1017.78 -0.584721 -4.84182 0
M  V30 10822 H 1016.78 -2.88396 -4.6809 0
M  V30 10823 H 1018.01 -3.49838 -5.82057 0
M  V30 10824 H 1015.95 -1.33657 -6.4224 0
M  V30 10825 H 1015.87 -2.987 -6.94489 0
M  V30 10826 H 1017.14 -1.96009 -7.54454 0
M  V30 10827 N 1021.37 1.14642 -1.08144 0
M  V30 10828 C 1022.32 2.17665 -0.678661 0
M  V30 10829 C 1023.3 1.58072 0.300336 0
M  V30 10830 O 1024.49 1.7664 0.112781 0
M  V30 10831 C 1021.62 3.43191 -0.0866362 0
M  V30 10832 C 1020.71 4.0982 -1.09126 0
M  V30 10833 N 1021.1 4.51814 -2.27372 0
M  V30 10834 C 1019.4 4.36272 -0.926411 0
M  V30 10835 C 1020.1 5.03581 -2.91172 0
M  V30 10836 N 1019.07 4.97624 -2.18795 0
M  V30 10837 H 1022.88 2.47872 -1.57914 0
M  V30 10838 H 1020.39 1.31296 -0.955772 0
M  V30 10839 H 1022.39 4.1632 0.219859 0
M  V30 10840 H 1021.05 3.14464 0.80886 0
M  V30 10841 H 1022.06 4.44941 -2.65044 0
M  V30 10842 H 1018.74 4.17414 -0.084492 0
M  V30 10843 H 1020.13 5.45969 -3.91621 0
M  V30 10844 N 1022.85 0.866709 1.31628 0
M  V30 10845 C 1024.09 0.472185 1.96095 0
M  V30 10846 C 1024.41 -0.979873 1.69286 0
M  V30 10847 O 1025.61 -1.48039 2.27589 0
M  V30 10848 C 1024.07 0.793468 3.51044 0
M  V30 10849 C 1023.68 2.26206 3.86697 0
M  V30 10850 C 1025.42 0.467255 4.21921 0
M  V30 10851 C 1023.33 2.52593 5.34743 0
M  V30 10852 H 1022.26 0.172846 0.733921 0
M  V30 10853 H 1024.91 1.05916 1.49847 0
M  V30 10854 H 1023.29 0.135783 3.95767 0
M  V30 10855 H 1024.47 2.96254 3.52945 0
M  V30 10856 H 1022.78 2.55399 3.28877 0
M  V30 10857 H 1025.38 0.641669 5.30836 0
M  V30 10858 H 1025.72 -0.592065 4.12068 0
M  V30 10859 H 1026.25 1.08134 3.82821 0
M  V30 10860 H 1022.99 3.57196 5.49628 0
M  V30 10861 H 1022.51 1.87136 5.6986 0
M  V30 10862 H 1024.19 2.37156 6.01968 0
M  V30 10863 N 1024.32 -1.44642 0.625825 0
M  V30 10864 C 1025.74 -1.56925 0.290992 0
M  V30 10865 C 1025.94 -1.61424 -1.20601 0
M  V30 10866 O 1025 -1.55439 -1.98985 0
M  V30 10867 C 1026.31 -2.84343 0.978242 0
M  V30 10868 C 1027.86 -2.98047 0.955882 0
M  V30 10869 C 1028.33 -4.2826 1.62349 0
M  V30 10870 N 1029.82 -4.35062 1.58983 0
M  V30 10871 C 1030.56 -5.34524 2.07538 0
M  V30 10872 N 1030.05 -6.4042 2.6426 0
M  V30 10873 N 1031.85 -5.25998 1.98198 0
M  V30 10874 H 1024 -1.39965 1.59761 0
M  V30 10875 H 1026.26 -0.670368 0.670306 0
M  V30 10876 H 1025.97 -2.86985 2.03304 0
M  V30 10877 H 1025.84 -3.73699 0.512726 0
M  V30 10878 H 1028.23 -2.94961 -0.0904292 0
M  V30 10879 H 1028.31 -2.10053 1.45984 0
M  V30 10880 H 1027.95 -4.32105 2.66923 0
M  V30 10881 H 1027.88 -5.15102 1.09441 0
M  V30 10882 H 1030.37 -3.59147 1.17565 0
M  V30 10883 H 1030.69 -7.1259 2.99056 0
M  V30 10884 H 1029.03 -6.41121 2.68308 0
M  V30 10885 H 1032.22 -4.42178 1.5361 0
M  V30 10886 H 1032.4 -6.03359 2.3635 0
M  V30 10887 N 1025.8 -0.366053 -1.5329 0
M  V30 10888 C 1027.05 0.223824 -2.01561 0
M  V30 10889 C 1027.38 1.48382 -1.25286 0
M  V30 10890 O 1026.66 1.91385 -0.34669 0
M  V30 10891 C 1026.94 0.5153 -3.56394 0
M  V30 10892 C 1026.79 -0.758357 -4.43361 0
M  V30 10893 C 1028.11 1.31568 -4.19974 0
M  V30 10894 H 1025.23 0.0798751 -0.732659 0
M  V30 10895 H 1027.87 -0.491038 -1.83545 0
M  V30 10896 H 1026.02 1.12429 -3.71876 0
M  V30 10897 H 1027.69 -1.39584 -4.39675 0
M  V30 10898 H 1025.94 -1.37862 -4.11311 0
M  V30 10899 H 1026.61 -0.509366 -5.49645 0
M  V30 10900 H 1029.08 0.800514 -4.08327 0
M  V30 10901 H 1027.96 1.48837 -5.28336 0
M  V30 10902 H 1028.22 2.32432 -3.76069 0
M  V30 10903 N 1027.28 1.57312 -0.0952337 0
M  V30 10904 C 1028.53 1.94646 0.569284 0
M  V30 10905 C 1028.86 0.977152 1.67825 0
M  V30 10906 O 1028.13 0.0102318 1.94497 0
M  V30 10907 C 1028.42 3.42098 1.12433 0
M  V30 10908 C 1028.27 4.49795 0.0204016 0
M  V30 10909 C 1029.59 3.90866 2.02266 0
M  V30 10910 H 1026.71 0.707779 0.205469 0
M  V30 10911 H 1029.35 1.89274 -0.16597 0
M  V30 10912 H 1027.5 3.46807 1.75092 0
M  V30 10913 H 1029.17 4.57198 -0.613845 0
M  V30 10914 H 1027.41 4.28964 -0.645965 0
M  V30 10915 H 1028.09 5.50166 0.449579 0
M  V30 10916 H 1030.56 3.88311 1.49512 0
M  V30 10917 H 1029.44 4.94604 2.38029 0
M  V30 10918 H 1029.7 3.30167 2.9401 0
M  V30 10919 N 1028.76 -0.17846 1.56586 0
M  V30 10920 C 1030 -0.90281 1.83381 0
M  V30 10921 C 1030.36 -1.79738 0.675139 0
M  V30 10922 O 1031.56 -2.55879 0.823368 0
M  V30 10923 C 1029.83 -1.68353 3.15265 0
M  V30 10924 S 1031.39 -2.45762 3.6352 0
M  V30 10925 H 1028.21 -0.302508 0.643436 0
M  V30 10926 H 1030.81 -0.164961 1.94803 0
M  V30 10927 H 1029.52 -1.01725 3.97593 0
M  V30 10928 H 1029.05 -2.46289 3.06766 0
M  V30 10929 H 1031.06 -3.70312 3.30278 0
M  V30 10930 N 1030.24 -1.51135 -0.446768 0
M  V30 10931 C 1031.51 -1.5387 -1.20762 0
M  V30 10932 C 1031.89 -0.297446 -2.08994 0
M  V30 10933 O 1031.24 0.717975 -2.16927 0
M  V30 10934 C 1031.45 -2.84767 -2.01764 0
M  V30 10935 C 1032.8 -3.3636 -2.59128 0
M  V30 10936 O 1033.82 -2.86254 -2.11984 0
M  V30 10937 O 1032.68 -4.23765 -3.45088 0
M  V30 10938 H 1029.78 -0.618228 -0.549293 0
M  V30 10939 H 1032.32 -1.63442 -0.456605 0
M  V30 10940 H 1031.09 -3.6657 -1.36901 0
M  V30 10941 H 1030.72 -2.78313 -2.8395 0
M  V30 10942 N 1031.71 0.701592 -1.41122 0
M  V30 10943 C 1032.96 1.45871 -1.39879 0
M  V30 10944 C 1033.28 1.94999 -0.00668769 0
M  V30 10945 O 1032.55 1.71298 0.95047 0
M  V30 10946 H 1031.13 0.541231 -0.514857 0
M  V30 10947 H 1033.79 0.830803 -1.76306 0
M  V30 10948 H 1032.89 2.32479 -2.0823 0
M  V30 10949 N 1033.19 1.2685 0.935242 0
M  V30 10950 C 1034.12 1.03244 2.03509 0
M  V30 10951 C 1035.1 -0.0447323 1.62538 0
M  V30 10952 O 1036.29 0.0988905 1.8824 0
M  V30 10953 C 1033.41 0.564626 3.33961 0
M  V30 10954 C 1032.46 1.63524 3.93906 0
M  V30 10955 S 1033.29 3.22577 4.27439 0
M  V30 10956 C 1034.45 2.77579 5.60982 0
M  V30 10957 H 1034.68 1.96367 2.2322 0
M  V30 10958 H 1032.21 1.10597 1.07739 0
M  V30 10959 H 1034.17 0.301388 4.09392 0
M  V30 10960 H 1032.83 -0.346419 3.12184 0
M  V30 10961 H 1032.03 1.25905 4.8802 0
M  V30 10962 H 1031.63 1.85017 3.25031 0
M  V30 10963 H 1033.92 2.22412 6.39952 0
M  V30 10964 H 1034.86 3.70408 6.03493 0
M  V30 10965 H 1035.27 2.16956 5.21143 0
M  V30 10966 N 1034.67 -1.14067 1.0875 0
M  V30 10967 C 1035.95 -1.81389 0.73195 0
M  V30 10968 C 1036.33 -1.96005 -0.78391 0
M  V30 10969 O 1035.68 -1.52267 -1.70373 0
M  V30 10970 C 1035.89 -3.16858 1.46294 0
M  V30 10971 C 1037.23 -3.92305 1.62426 0
M  V30 10972 O 1038.26 -3.26459 1.42488 0
M  V30 10973 O 1037.12 -5.10393 1.9535 0
M  V30 10974 H 1034.21 -0.784354 0.262141 0
M  V30 10975 H 1036.76 -1.21054 1.18929 0
M  V30 10976 H 1035.53 -3.01404 2.49542 0
M  V30 10977 H 1035.15 -3.84889 0.997318 0
M  V30 10978 N 1036.15 -0.873678 -1.31166 0
M  V30 10979 C 1037.08 -0.348011 -2.30892 0
M  V30 10980 C 1038.06 0.563092 -1.60509 0
M  V30 10981 O 1039.24 0.479332 -1.88192 0
M  V30 10982 C 1036.37 0.448158 -3.44396 0
M  V30 10983 C 1035.33 -0.370179 -4.26396 0
M  V30 10984 C 1034.65 0.551903 -5.31844 0
M  V30 10985 C 1035.95 -1.60624 -4.96988 0
M  V30 10986 H 1037.65 -1.18134 -2.75109 0
M  V30 10987 H 1035.19 -0.569502 -1.3226 0
M  V30 10988 H 1037.15 0.826458 -4.13216 0
M  V30 10989 H 1035.87 1.31503 -2.98956 0
M  V30 10990 H 1034.53 -0.730472 -3.59249 0
M  V30 10991 H 1034.18 1.41616 -4.82653 0
M  V30 10992 H 1033.88 0.00823478 -5.87599 0
M  V30 10993 H 1035.4 0.926965 -6.03523 0
M  V30 10994 H 1036.82 -1.29917 -5.58386 0
M  V30 10995 H 1035.21 -2.08926 -5.62557 0
M  V30 10996 H 1036.28 -2.357 -4.23761 0
M  V30 10997 N 1037.63 1.44308 -0.633487 0
M  V30 10998 C 1038.85 2.06384 -0.146063 0
M  V30 10999 C 1039.27 1.47357 1.18031 0
M  V30 11000 O 1038.63 0.597334 1.72448 0
M  V30 11001 C 1038.68 3.61489 -0.0276722 0
M  V30 11002 O 1038.4 4.18318 -1.3016 0
M  V30 11003 C 1039.9 4.40604 0.488168 0
M  V30 11004 H 1037.12 0.666122 -0.0807632 0
M  V30 11005 H 1039.66 1.85139 -0.868557 0
M  V30 11006 H 1037.82 3.81988 0.645273 0
M  V30 11007 H 1038.23 5.11783 -1.14797 0
M  V30 11008 H 1039.71 5.49545 0.520013 0
M  V30 11009 H 1040.18 4.12218 1.51568 0
M  V30 11010 H 1040.79 4.2503 -0.151608 0
M  V30 11011 N 1039.1 0.374177 1.53094 0
M  V30 11012 C 1040.52 -0.103172 1.86415 0
M  V30 11013 C 1040.87 -1.47439 1.29446 0
M  V30 11014 O 1039.99 -2.07333 0.619853 0
M  V30 11015 C 1040.59 -0.193988 3.38244 0
M  V30 11016 C 1039.15 -0.615605 3.71332 0
M  V30 11017 C 1038.29 0.23186 2.76329 0
M  V30 11018 H 1041.24 0.592644 1.47219 0
M  V30 11019 H 1041.26 -1.01597 3.66686 0
M  V30 11020 H 1040.78 0.80414 3.79678 0
M  V30 11021 H 1038.88 -1.62165 3.3546 0
M  V30 11022 H 1038.99 -0.38425 4.77557 0
M  V30 11023 H 1037.35 -0.300579 2.5292 0
M  V30 11024 H 1038.14 1.22769 3.20597 0
M  V30 11025 N 1040.58 -1.57259 0.103575 0
M  V30 11026 C 1041.53 -2.14487 -0.852295 0
M  V30 11027 C 1042.5 -1.06567 -1.27407 0
M  V30 11028 O 1043.68 -1.34398 -1.35432 0
M  V30 11029 C 1040.82 -2.73632 -2.10284 0
M  V30 11030 C 1039.94 -3.95811 -1.73083 0
M  V30 11031 C 1039.07 -4.43093 -2.92988 0
M  V30 11032 C 1038.11 -5.5784 -2.51953 0
M  V30 11033 N 1037.25 -5.99936 -3.64721 0
M  V30 11034 H 1042.09 -2.95849 -0.35743 0
M  V30 11035 H 1039.63 -1.46175 -0.164748 0
M  V30 11036 H 1041.58 -3.06046 -2.83534 0
M  V30 11037 H 1040.21 -1.94985 -2.57256 0
M  V30 11038 H 1039.27 -3.69656 -0.897688 0
M  V30 11039 H 1040.58 -4.79066 -1.38916 0
M  V30 11040 H 1039.73 -4.77335 -3.74481 0
M  V30 11041 H 1038.47 -3.58756 -3.30372 0
M  V30 11042 H 1037.48 -5.23217 -1.6889 0
M  V30 11043 H 1038.7 -6.43932 -2.15705 0
M  V30 11044 H 1036.65 -5.18543 -4.01807 0
M  V30 11045 H 1036.56 -6.78008 -3.34427 0
M  V30 11046 H 1037.83 -6.38812 -4.46699 0
M  V30 11047 N 1042.06 0.170153 -1.56679 0
M  V30 11048 C 1043.31 0.884902 -1.81252 0
M  V30 11049 C 1043.62 1.83361 -0.681024 0
M  V30 11050 O 1044.83 2.59082 -0.811722 0
M  V30 11051 C 1043.28 1.62408 -3.21172 0
M  V30 11052 C 1042.89 0.718947 -4.42194 0
M  V30 11053 C 1044.64 2.32699 -3.55037 0
M  V30 11054 C 1042.54 1.45843 -5.73135 0
M  V30 11055 H 1041.47 0.33418 -0.675899 0
M  V30 11056 H 1044.12 0.137818 -1.82982 0
M  V30 11057 H 1042.51 2.41596 -3.13763 0
M  V30 11058 H 1043.68 -0.0360521 -4.60786 0
M  V30 11059 H 1042 0.125634 -4.1621 0
M  V30 11060 H 1044.59 2.88621 -4.50114 0
M  V30 11061 H 1044.94 3.08092 -2.79974 0
M  V30 11062 H 1045.47 1.60453 -3.64005 0
M  V30 11063 H 1042.21 0.746799 -6.51232 0
M  V30 11064 H 1041.73 2.18672 -5.58518 0
M  V30 11065 H 1043.41 2.0056 -6.1513 0
M  V30 11066 N 1043.54 1.5137 0.438746 0
M  V30 11067 C 1044.47 1.68774 1.55074 0
M  V30 11068 C 1045.48 0.568436 1.52554 0
M  V30 11069 O 1046.67 0.842707 1.57355 0
M  V30 11070 C 1043.77 1.68592 2.9399 0
M  V30 11071 C 1042.95 2.97084 3.2103 0
M  V30 11072 C 1042 2.89108 4.39663 0
M  V30 11073 O 1041.03 3.63052 4.38385 0
M  V30 11074 N 1042.23 2.04863 5.4315 0
M  V30 11075 H 1045 2.647 1.40549 0
M  V30 11076 H 1042.56 1.49238 0.627663 0
M  V30 11077 H 1044.55 1.60826 3.71372 0
M  V30 11078 H 1043.12 0.802657 3.02119 0
M  V30 11079 H 1042.34 3.18729 2.3196 0
M  V30 11080 H 1043.63 3.82143 3.35923 0
M  V30 11081 H 1043.03 1.4416 5.47023 0
M  V30 11082 H 1041.58 2.02977 6.1939 0
M  V30 11083 N 1045.02 -0.694098 1.41492 0
M  V30 11084 C 1046.29 -1.44875 1.31418 0
M  V30 11085 C 1046.67 -2.11022 -0.0575538 0
M  V30 11086 O 1046.02 -2.01799 -1.07188 0
M  V30 11087 C 1046.23 -2.46698 2.46863 0
M  V30 11088 C 1047.58 -3.11907 2.88095 0
M  V30 11089 O 1048.6 -2.57022 2.46613 0
M  V30 11090 O 1047.46 -4.11318 3.59833 0
M  V30 11091 H 1044.56 -0.645266 0.517263 0
M  V30 11092 H 1047.1 -0.724452 1.53459 0
M  V30 11093 H 1045.87 -1.96485 3.38392 0
M  V30 11094 H 1045.5 -3.26634 2.26706 0
M  V30 11095 N 1046.49 -1.27344 -0.928501 0
M  V30 11096 C 1047.42 -1.12517 -2.04602 0
M  V30 11097 C 1048.41 -0.0268563 -1.70079 0
M  V30 11098 O 1049.59 -0.201197 -1.93155 0
M  V30 11099 C 1046.72 -0.770749 -3.3864 0
M  V30 11100 C 1045.67 -1.8222 -3.87272 0
M  V30 11101 C 1045 -1.32178 -5.18105 0
M  V30 11102 C 1046.3 -3.22614 -4.10752 0
M  V30 11103 H 1047.99 -2.06 -2.17265 0
M  V30 11104 H 1045.54 -0.991827 -1.04397 0
M  V30 11105 H 1047.49 -0.653843 -4.16297 0
M  V30 11106 H 1046.22 0.19979 -3.25988 0
M  V30 11107 H 1044.88 -1.928 -3.11807 0
M  V30 11108 H 1044.52 -0.340719 -5.01845 0
M  V30 11109 H 1044.22 -2.02474 -5.51614 0
M  V30 11110 H 1045.75 -1.2178 -5.98333 0
M  V30 11111 H 1047.16 -3.1504 -4.78981 0
M  V30 11112 H 1045.56 -3.90614 -4.55566 0
M  V30 11113 H 1046.63 -3.67727 -3.16077 0
M  V30 11114 N 1047.97 1.13488 -1.09353 0
M  V30 11115 C 1048.92 2.18876 -0.732251 0
M  V30 11116 C 1049.89 1.63616 0.286175 0
M  V30 11117 O 1051.07 1.90059 0.167981 0
M  V30 11118 C 1048.21 3.44737 -0.158157 0
M  V30 11119 C 1047.33 4.14104 -1.23053 0
M  V30 11120 C 1046.46 5.27578 -0.619272 0
M  V30 11121 C 1045.5 5.88793 -1.67301 0
M  V30 11122 N 1044.64 6.937 -1.08283 0
M  V30 11123 H 1049.48 2.49128 -1.63522 0
M  V30 11124 H 1047.02 1.22326 -0.816995 0
M  V30 11125 H 1048.97 4.16756 0.192488 0
M  V30 11126 H 1047.6 3.14938 0.708082 0
M  V30 11127 H 1046.66 3.40376 -1.69847 0
M  V30 11128 H 1047.97 4.55683 -2.02865 0
M  V30 11129 H 1047.12 6.0631 -0.217428 0
M  V30 11130 H 1045.86 4.87246 0.210399 0
M  V30 11131 H 1044.87 5.08756 -2.0844 0
M  V30 11132 H 1046.09 6.31197 -2.50533 0
M  V30 11133 H 1044.04 6.55426 -0.274426 0
M  V30 11134 H 1043.95 7.33817 -1.81792 0
M  V30 11135 H 1045.22 7.76286 -0.707167 0
M  V30 11136 N 1049.45 0.880621 1.30701 0
M  V30 11137 C 1050.86 0.547993 1.78477 0
M  V30 11138 C 1051.21 -0.935633 1.72454 0
M  V30 11139 O 1050.34 -1.73094 1.29874 0
M  V30 11140 C 1050.93 0.98795 3.24076 0
M  V30 11141 C 1049.49 0.706805 3.69704 0
M  V30 11142 C 1048.64 1.17335 2.51252 0
M  V30 11143 H 1051.59 1.06528 1.17633 0
M  V30 11144 H 1051.61 0.31508 3.79193 0
M  V30 11145 H 1051.12 2.06778 3.28427 0
M  V30 11146 H 1049.22 -0.36122 3.70845 0
M  V30 11147 H 1049.34 1.2913 4.6137 0
M  V30 11148 H 1047.7 0.592808 2.47705 0
M  V30 11149 H 1048.48 2.26083 2.58343 0
M  V30 11150 N 1050.93 -1.4397 0.641131 0
M  V30 11151 C 1051.86 -2.28997 -0.0963315 0
M  V30 11152 C 1052.87 -1.4184 -0.799071 0
M  V30 11153 O 1054.06 -1.65896 -0.658846 0
M  V30 11154 C 1051.16 -3.18465 -1.15903 0
M  V30 11155 C 1050.34 -4.34093 -0.536828 0
M  V30 11156 C 1049.4 -5.04522 -1.4948 0
M  V30 11157 O 1048.42 -5.60202 -1.00807 0
M  V30 11158 N 1049.62 -5.06899 -2.82901 0
M  V30 11159 H 1052.39 -2.9293 0.633422 0
M  V30 11160 H 1049.95 -1.54527 0.48302 0
M  V30 11161 H 1051.94 -3.62445 -1.80044 0
M  V30 11162 H 1050.51 -2.56214 -1.79089 0
M  V30 11163 H 1049.73 -3.9318 0.283414 0
M  V30 11164 H 1051.02 -5.08698 -0.101966 0
M  V30 11165 H 1050.42 -4.63012 -3.25017 0
M  V30 11166 H 1048.97 -5.54637 -3.42376 0
M  V30 11167 N 1052.41 -0.382291 -1.52893 0
M  V30 11168 C 1053.65 0.201996 -2.03399 0
M  V30 11169 C 1054.01 1.44624 -1.26286 0
M  V30 11170 O 1055.21 2.10723 -1.66881 0
M  V30 11171 C 1053.48 0.470348 -3.54292 0
M  V30 11172 S 1055.04 1.02592 -4.26638 0
M  V30 11173 H 1051.86 0.0575178 -0.70867 0
M  V30 11174 H 1054.46 -0.52902 -1.88206 0
M  V30 11175 H 1053.17 -0.44243 -4.08008 0
M  V30 11176 H 1052.7 1.22998 -3.73678 0
M  V30 11177 H 1054.71 2.30887 -4.3921 0
M  V30 11178 N 1053.89 1.57202 -0.111913 0
M  V30 11179 C 1055.13 1.95239 0.548607 0
M  V30 11180 C 1055.46 0.994897 1.6678 0
M  V30 11181 O 1054.74 0.0308603 1.94476 0
M  V30 11182 C 1055.02 3.43271 1.08798 0
M  V30 11183 C 1054.88 4.49792 -0.0273064 0
M  V30 11184 C 1056.19 3.92989 1.98109 0
M  V30 11185 H 1053.31 0.709919 0.197951 0
M  V30 11186 H 1055.96 1.89087 -0.186036 0
M  V30 11187 H 1054.11 3.48644 1.71404 0
M  V30 11188 H 1055.78 4.56521 -0.662302 0
M  V30 11189 H 1054.02 4.28254 -0.691426 0
M  V30 11190 H 1054.69 5.50612 0.391201 0
M  V30 11191 H 1057.17 3.89875 1.45385 0
M  V30 11192 H 1056.04 4.97101 2.32769 0
M  V30 11193 H 1056.3 3.33267 2.90492 0
M  V30 11194 N 1055.36 -0.161842 1.56767 0
M  V30 11195 C 1056.61 -0.878224 1.82798 0
M  V30 11196 C 1056.94 -1.81481 0.691242 0
M  V30 11197 O 1056.22 -1.92075 -0.30618 0
M  V30 11198 C 1056.5 -1.66565 3.19262 0
M  V30 11199 C 1056.35 -0.751551 4.43477 0
M  V30 11200 C 1057.67 -2.63134 3.52773 0
M  V30 11201 H 1054.79 -0.317828 0.664947 0
M  V30 11202 H 1057.43 -0.14402 1.89453 0
M  V30 11203 H 1055.58 -2.29157 3.13719 0
M  V30 11204 H 1057.26 -0.137783 4.61094 0
M  V30 11205 H 1055.5 -0.0601785 4.33758 0
M  V30 11206 H 1056.17 -1.33823 5.35533 0
M  V30 11207 H 1058.65 -2.10666 3.5883 0
M  V30 11208 H 1057.52 -3.15289 4.49315 0
M  V30 11209 H 1057.78 -3.43786 2.77963 0
M  V30 11210 N 1056.84 -1.516 -0.430713 0
M  V30 11211 C 1058.09 -1.64596 -1.17959 0
M  V30 11212 C 1058.42 -0.365382 -1.91037 0
M  V30 11213 O 1057.67 0.650826 -1.84561 0
M  V30 11214 C 1057.97 -2.804 -2.21609 0
M  V30 11215 C 1057.64 -4.19431 -1.65495 0
M  V30 11216 C 1056.3 -4.57252 -1.49915 0
M  V30 11217 C 1058.65 -5.0616 -1.24304 0
M  V30 11218 C 1055.98 -5.79501 -0.916276 0
M  V30 11219 C 1058.33 -6.28995 -0.674437 0
M  V30 11220 C 1056.99 -6.65582 -0.505591 0
M  V30 11221 H 1056.26 -0.602301 -0.431642 0
M  V30 11222 H 1058.91 -1.8565 -0.469726 0
M  V30 11223 H 1057.22 -2.53595 -2.98658 0
M  V30 11224 H 1058.91 -2.87654 -2.79385 0
M  V30 11225 H 1055.5 -3.89615 -1.78599 0
M  V30 11226 H 1059.69 -4.77541 -1.35159 0
M  V30 11227 H 1054.94 -6.0649 -0.77328 0
M  V30 11228 H 1059.12 -6.95536 -0.346779 0
M  V30 11229 H 1056.74 -7.60182 -0.0518188 0
M  V30 11230 N 1058.32 0.686584 -1.41858 0
M  V30 11231 C 1059.25 1.81264 -1.47193 0
M  V30 11232 C 1060.23 1.66875 -0.329657 0
M  V30 11233 O 1061.42 1.86473 -0.542347 0
M  V30 11234 C 1058.55 3.19472 -1.36216 0
M  V30 11235 C 1057.5 3.4858 -2.48347 0
M  V30 11236 C 1056.83 4.86239 -2.22432 0
M  V30 11237 C 1058.13 3.46653 -3.90678 0
M  V30 11238 H 1059.82 1.77057 -2.41436 0
M  V30 11239 H 1057.37 0.850415 -1.16206 0
M  V30 11240 H 1059.32 3.97969 -1.38558 0
M  V30 11241 H 1058.04 3.24327 -0.384611 0
M  V30 11242 H 1056.7 2.72437 -2.45303 0
M  V30 11243 H 1056.35 4.8773 -1.22999 0
M  V30 11244 H 1056.05 5.06677 -2.97577 0
M  V30 11245 H 1057.57 5.67034 -2.26505 0
M  V30 11246 H 1058.99 4.15139 -3.95389 0
M  V30 11247 H 1057.38 3.78625 -4.65578 0
M  V30 11248 H 1058.45 2.45451 -4.18189 0
M  V30 11249 N 1059.8 1.27835 0.921735 0
M  V30 11250 C 1060.75 1.1092 2.04449 0
M  V30 11251 C 1061.74 0.0306469 1.69372 0
M  V30 11252 O 1062.95 0.188818 1.79007 0
M  V30 11253 H 1059.32 0.341973 0.669745 0
M  V30 11254 H 1061.29 2.06026 2.1586 0
M  V30 11255 C 1060.04 0.779443 3.38851 0
M  V30 11256 H 1059.36 1.60131 3.66331 0
M  V30 11257 H 1060.8 0.700999 4.18165 0
M  V30 11258 C 1059.26 -0.51647 3.32918 0
M  V30 11259 O 1059.79 -1.54914 3.70627 0
M  V30 11260 N 1058 -0.514276 2.86013 0
M  V30 11261 H 1057.55 0.32651 2.55522 0
M  V30 11262 H 1057.5 -1.38141 2.82426 0
M  V30 11263 N 1061.28 -1.12907 1.09954 0
M  V30 11264 C 1062.52 -1.83661 0.833761 0
M  V30 11265 C 1062.84 -1.84736 -0.642798 0
M  V30 11266 O 1064.04 -2.51437 -1.0243 0
M  V30 11267 C 1062.5 -3.29763 1.44168 0
M  V30 11268 C 1062.11 -3.3706 2.95118 0
M  V30 11269 C 1063.85 -4.05522 1.25509 0
M  V30 11270 C 1061.76 -4.77467 3.48969 0
M  V30 11271 H 1060.69 -0.688115 0.308242 0
M  V30 11272 H 1063.34 -1.27166 1.32291 0
M  V30 11273 H 1061.72 -3.86094 0.880215 0
M  V30 11274 H 1062.9 -2.90695 3.57537 0
M  V30 11275 H 1061.21 -2.7477 3.12874 0
M  V30 11276 H 1063.81 -5.09188 1.63191 0
M  V30 11277 H 1064.15 -4.15837 0.196208 0
M  V30 11278 H 1064.68 -3.55536 1.78435 0
M  V30 11279 H 1061.42 -4.72344 4.54501 0
M  V30 11280 H 1060.94 -5.24305 2.91315 0
M  V30 11281 H 1062.62 -5.46397 3.46495 0
M  V30 11282 N 1062.75 -0.88754 -1.30232 0
M  V30 11283 C 1064.16 -0.55745 -1.78184 0
M  V30 11284 C 1064.52 0.926474 -1.72948 0
M  V30 11285 O 1063.64 1.72403 -1.3079 0
M  V30 11286 C 1064.24 -1.00512 -3.23547 0
M  V30 11287 C 1062.79 -0.726402 -3.69324 0
M  V30 11288 C 1061.94 -1.18666 -2.50627 0
M  V30 11289 H 1064.89 -1.07151 -1.17066 0
M  V30 11290 H 1064.91 -0.335185 -3.79021 0
M  V30 11291 H 1064.43 -2.08517 -3.27326 0
M  V30 11292 H 1062.53 0.341548 -3.71031 0
M  V30 11293 H 1062.64 -1.31575 -4.60679 0
M  V30 11294 H 1061 -0.605936 -2.47387 0
M  V30 11295 H 1061.79 -2.2745 -2.57141 0
M  V30 11296 N 1064.23 1.43628 -0.648757 0
M  V30 11297 C 1065.65 1.56442 -0.315921 0
M  V30 11298 C 1065.85 1.63322 1.18018 0
M  V30 11299 O 1064.9 1.58585 1.96487 0
M  V30 11300 C 1066.22 2.82751 -1.02335 0
M  V30 11301 C 1067.77 2.96488 -1.00318 0
M  V30 11302 C 1068.24 4.25623 -1.69142 0
M  V30 11303 N 1069.73 4.32477 -1.65885 0
M  V30 11304 C 1070.47 5.31154 -2.16016 0
M  V30 11305 N 1069.96 6.36135 -2.74415 0
M  V30 11306 N 1071.76 5.22778 -2.06541 0
M  V30 11307 H 1063.91 1.37405 -1.61968 0
M  V30 11308 H 1066.17 0.65962 -0.680886 0
M  V30 11309 H 1065.88 2.83714 -2.07844 0
M  V30 11310 H 1065.75 3.72836 -0.572114 0
M  V30 11311 H 1068.14 2.95068 0.0434919 0
M  V30 11312 H 1068.22 2.07704 -1.49307 0
M  V30 11313 H 1067.86 4.27804 -2.73763 0
M  V30 11314 H 1067.79 5.13296 -1.17622 0
M  V30 11315 H 1070.28 3.57232 -1.23264 0
M  V30 11316 H 1070.6 7.07743 -3.10355 0
M  V30 11317 H 1068.94 6.36771 -2.78474 0
M  V30 11318 H 1072.13 4.39678 -1.60625 0
M  V30 11319 H 1072.3 5.99523 -2.45919 0
M  V30 11320 N 1065.71 0.390394 1.52688 0
M  V30 11321 C 1066.94 -0.191207 2.05713 0
M  V30 11322 C 1067.35 -1.40973 1.26188 0
M  V30 11323 O 1066.69 -1.81202 0.301938 0
M  V30 11324 C 1066.75 -0.624794 3.54029 0
M  V30 11325 C 1066.42 0.480413 4.54468 0
M  V30 11326 C 1067.41 1.33816 5.02384 0
M  V30 11327 C 1065.1 0.647754 4.98106 0
M  V30 11328 C 1067.09 2.34836 5.92563 0
M  V30 11329 C 1064.78 1.66129 5.88085 0
M  V30 11330 C 1065.78 2.51001 6.35206 0
M  V30 11331 O 1065.47 3.50622 7.23408 0
M  V30 11332 H 1065.2 -0.032221 0.675232 0
M  V30 11333 H 1067.75 0.554431 1.97776 0
M  V30 11334 H 1065.98 -1.42243 3.59589 0
M  V30 11335 H 1067.67 -1.13219 3.8979 0
M  V30 11336 H 1068.44 1.22019 4.694 0
M  V30 11337 H 1064.32 -0.00314511 4.61 0
M  V30 11338 H 1067.86 3.01117 6.29265 0
M  V30 11339 H 1063.76 1.77964 6.20483 0
M  V30 11340 H 1064.53 3.46644 7.41472 0
M  V30 11341 N 1067.19 -1.57141 0.120249 0
M  V30 11342 C 1068.43 -1.97124 -0.540521 0
M  V30 11343 C 1068.79 -1.0022 -1.63768 0
M  V30 11344 O 1069.99 -1.29146 -2.35743 0
M  V30 11345 C 1068.26 -3.41371 -1.05833 0
M  V30 11346 S 1069.82 -4.03367 -1.72745 0
M  V30 11347 H 1066.64 -0.688962 -0.175646 0
M  V30 11348 H 1069.24 -1.94416 0.205625 0
M  V30 11349 H 1067.95 -4.09646 -0.248656 0
M  V30 11350 H 1067.48 -3.47732 -1.83972 0
M  V30 11351 H 1069.49 -3.94227 -3.0133 0
M  V30 11352 N 1068.67 0.153526 -1.5685 0
M  V30 11353 C 1069.63 1.17362 -1.96873 0
M  V30 11354 C 1070.63 1.36219 -0.854456 0
M  V30 11355 O 1071.82 1.33322 -1.1212 0
M  V30 11356 C 1068.95 2.53523 -2.27901 0
M  V30 11357 H 1070.14 0.830432 -2.88173 0
M  V30 11358 H 1067.7 0.396633 -1.51184 0
M  V30 11359 H 1068.43 2.92824 -1.39371 0
M  V30 11360 H 1068.22 2.41198 -3.09137 0
M  V30 11361 H 1069.71 3.27006 -2.59725 0
M  V30 11362 N 1070.14 1.51827 0.422667 0
M  V30 11363 C 1071.39 1.64893 1.16853 0
M  V30 11364 C 1071.71 0.37456 1.91369 0
M  V30 11365 O 1070.98 -0.610128 1.86157 0
M  V30 11366 H 1069.56 0.607744 0.434345 0
M  V30 11367 H 1072.23 1.88816 0.483159 0
M  V30 11368 H 1071.32 2.48361 1.89006 0
M  V30 11369 N 1071.62 -0.679052 1.4222 0
M  V30 11370 C 1072.85 -1.46747 1.45852 0
M  V30 11371 C 1073.27 -1.88675 0.0685937 0
M  V30 11372 O 1072.62 -1.57861 -0.915757 0
M  V30 11373 C 1072.67 -2.71935 2.38188 0
M  V30 11374 O 1072.39 -2.31768 3.71773 0
M  V30 11375 C 1073.9 -3.65536 2.50796 0
M  V30 11376 H 1071.12 -0.451682 0.49621 0
M  V30 11377 H 1073.66 -0.834723 1.86689 0
M  V30 11378 H 1071.81 -3.31409 2.00616 0
M  V30 11379 H 1072.23 -3.12579 4.21182 0
M  V30 11380 H 1073.7 -4.50113 3.19535 0
M  V30 11381 H 1074.18 -4.11148 1.54447 0
M  V30 11382 H 1074.79 -3.11957 2.89072 0
M  V30 11383 N 1073.1 -1.28322 -0.914942 0
M  V30 11384 C 1074.03 -1.06469 -2.01841 0
M  V30 11385 C 1075.01 0.0188681 -1.62589 0
M  V30 11386 O 1076.2 -0.128825 -1.88059 0
M  V30 11387 C 1073.32 -0.617685 -3.3302 0
M  V30 11388 C 1072.37 -1.6977 -3.91255 0
M  V30 11389 S 1073.2 -3.29337 -4.22253 0
M  V30 11390 C 1074.36 -2.86468 -5.56495 0
M  V30 11391 H 1074.59 -1.99893 -2.20068 0
M  V30 11392 H 1072.12 -1.12297 -1.05966 0
M  V30 11393 H 1074.08 -0.366481 -4.08861 0
M  V30 11394 H 1072.74 0.296709 -3.12695 0
M  V30 11395 H 1071.94 -1.33653 -4.85956 0
M  V30 11396 H 1071.54 -1.90164 -3.22046 0
M  V30 11397 H 1073.83 -2.32565 -6.36333 0
M  V30 11398 H 1074.77 -3.79962 -5.97523 0
M  V30 11399 H 1075.18 -2.2522 -5.17626 0
M  V30 11400 N 1074.58 1.12322 -1.10551 0
M  V30 11401 C 1075.99 1.6539 -0.8662 0
M  V30 11402 C 1076.34 1.86695 0.603284 0
M  V30 11403 O 1075.47 1.59432 1.46323 0
M  V30 11404 C 1076.06 3.00443 -1.56587 0
M  V30 11405 C 1074.62 3.50456 -1.37323 0
M  V30 11406 C 1073.77 2.25454 -1.61449 0
M  V30 11407 H 1076.72 0.960866 -1.26305 0
M  V30 11408 H 1076.74 3.66972 -1.00557 0
M  V30 11409 H 1076.25 2.84905 -2.63535 0
M  V30 11410 H 1074.35 3.71176 -0.325431 0
M  V30 11411 H 1074.46 4.29839 -2.11601 0
M  V30 11412 H 1072.83 2.32621 -1.03729 0
M  V30 11413 H 1073.61 2.12469 -2.69651 0
M  V30 11414 N 1076.06 0.894434 1.2976 0
M  V30 11415 C 1077.3 0.527831 1.96432 0
M  V30 11416 C 1077.66 -0.914793 1.69261 0
M  V30 11417 O 1076.95 -1.63911 0.99215 0
M  V30 11418 C 1077.14 0.750307 3.49435 0
M  V30 11419 C 1076.97 2.213 3.91479 0
M  V30 11420 C 1075.74 2.85943 4.16611 0
M  V30 11421 C 1077.94 3.18771 4.03595 0
M  V30 11422 N 1075.92 4.2271 4.45185 0
M  V30 11423 C 1077.29 4.40641 4.3616 0
M  V30 11424 C 1079.35 3.14432 3.86053 0
M  V30 11425 C 1078.05 5.58725 4.53011 0
M  V30 11426 C 1080.08 4.31797 4.0411 0
M  V30 11427 C 1079.44 5.52435 4.37029 0
M  V30 11428 H 1075.54 0.242654 0.7434 0
M  V30 11429 H 1078.12 1.15415 1.56804 0
M  V30 11430 H 1076.29 0.153411 3.88097 0
M  V30 11431 H 1078.03 0.349663 4.03187 0
M  V30 11432 H 1074.78 2.36763 4.10171 0
M  V30 11433 H 1075.21 4.9337 4.63589 0
M  V30 11434 H 1079.85 2.22255 3.5967 0
M  V30 11435 H 1077.57 6.51398 4.78232 0
M  V30 11436 H 1081.15 4.2992 3.91995 0
M  V30 11437 H 1080.03 6.41738 4.50712 0
M  V30 11438 N 1077.53 -1.43282 0.656365 0
M  V30 11439 C 1078.78 -2.01378 0.170702 0
M  V30 11440 C 1079.1 -1.52063 -1.22073 0
M  V30 11441 O 1078.37 -0.73456 -1.81607 0
M  V30 11442 H 1076.95 -0.744577 0.0601168 0
M  V30 11443 H 1079.62 -1.75449 0.848739 0
M  V30 11444 H 1078.71 -3.11701 0.157745 0
M  V30 11445 N 1079.01 -0.398486 -1.52479 0
M  V30 11446 C 1079.96 0.449343 -2.23528 0
M  V30 11447 C 1080.95 1.02218 -1.24259 0
M  V30 11448 O 1082.14 0.946757 -1.49551 0
M  V30 11449 C 1079.27 1.5712 -3.05235 0
M  V30 11450 C 1078.35 1.00966 -4.11906 0
M  V30 11451 N 1078.75 0.173855 -5.05501 0
M  V30 11452 C 1077.04 1.28124 -4.272 0
M  V30 11453 C 1077.74 -0.137391 -5.81538 0
M  V30 11454 N 1076.72 0.468972 -5.41573 0
M  V30 11455 H 1080.52 -0.195654 -2.93248 0
M  V30 11456 H 1078.04 -0.208305 -1.61059 0
M  V30 11457 H 1080.03 2.19108 -3.54679 0
M  V30 11458 H 1078.69 2.21893 -2.37052 0
M  V30 11459 H 1079.7 -0.189618 -5.17553 0
M  V30 11460 H 1076.38 1.92933 -3.70247 0
M  V30 11461 H 1077.77 -0.815159 -6.66937 0
M  V30 11462 N 1080.49 1.57075 -0.12858 0
M  V30 11463 C 1081.9 1.82468 0.39526 0
M  V30 11464 C 1082.25 1.0463 1.65973 0
M  V30 11465 O 1081.38 0.285835 2.14504 0
M  V30 11466 C 1081.97 3.30976 0.723889 0
M  V30 11467 C 1080.53 3.57016 1.19232 0
M  V30 11468 C 1079.68 2.76534 0.205907 0
M  V30 11469 H 1082.63 1.54711 -0.353571 0
M  V30 11470 H 1082.65 3.46127 1.58039 0
M  V30 11471 H 1082.16 3.87602 -0.196595 0
M  V30 11472 H 1080.26 3.05758 2.12938 0
M  V30 11473 H 1080.38 4.65558 1.13103 0
M  V30 11474 H 1078.74 2.45038 0.694872 0
M  V30 11475 H 1079.52 3.35923 -0.707842 0
M  V30 11476 N 1081.97 -0.145205 1.5693 0
M  V30 11477 C 1083.22 -0.855822 1.83085 0
M  V30 11478 C 1083.54 -1.81625 0.709747 0
M  V30 11479 O 1082.81 -1.94052 -0.268456 0
M  V30 11480 H 1081.39 -0.319032 0.675446 0
M  V30 11481 H 1084.05 -0.138781 1.94405 0
M  V30 11482 H 1083.15 -1.41698 2.78079 0
M  V30 11483 N 1083.45 -1.52049 -0.414609 0
M  V30 11484 C 1084.36 -1.7788 -1.52958 0
M  V30 11485 C 1085.37 -0.66408 -1.60829 0
M  V30 11486 O 1086.55 -0.948882 -1.77646 0
M  V30 11487 C 1083.61 -1.91906 -2.88744 0
M  V30 11488 C 1082.68 -3.15803 -2.90804 0
M  V30 11489 C 1081.91 -3.29151 -4.20114 0
M  V30 11490 O 1082.13 -2.47892 -5.13718 0
M  V30 11491 O 1081.07 -4.2227 -4.28919 0
M  V30 11492 H 1084.89 -2.72506 -1.34067 0
M  V30 11493 H 1082.48 -1.36826 -0.599918 0
M  V30 11494 H 1084.36 -2.02986 -3.6929 0
M  V30 11495 H 1083.03 -1.00468 -3.07714 0
M  V30 11496 H 1081.94 -3.10185 -2.09131 0
M  V30 11497 H 1083.27 -4.07004 -2.76783 0
M  V30 11498 N 1084.93 0.6715 -1.42579 0
M  V30 11499 C 1085.88 1.77767 -1.42769 0
M  V30 11500 C 1086.86 1.58106 -0.298568 0
M  V30 11501 O 1088.05 1.68528 -0.541037 0
M  V30 11502 C 1085.18 3.16248 -1.33574 0
M  V30 11503 C 1084.27 3.41521 -2.51445 0
M  V30 11504 N 1084.66 3.37361 -3.76857 0
M  V30 11505 C 1082.96 3.7217 -2.45776 0
M  V30 11506 C 1083.66 3.62209 -4.5517 0
M  V30 11507 N 1082.63 3.83134 -3.85628 0
M  V30 11508 H 1086.43 1.72949 -2.37626 0
M  V30 11509 H 1083.95 0.872467 -1.36974 0
M  V30 11510 H 1085.95 3.9552 -1.31793 0
M  V30 11511 H 1084.61 3.22261 -0.397223 0
M  V30 11512 H 1085.62 3.17187 -4.09406 0
M  V30 11513 H 1082.29 3.85408 -1.6052 0
M  V30 11514 H 1083.68 3.64925 -5.64162 0
M  V30 11515 N 1086.4 1.28806 0.908124 0
M  V30 11516 C 1087.35 1.09849 1.99793 0
M  V30 11517 C 1088.34 0.0204321 1.60887 0
M  V30 11518 O 1089.53 0.241204 1.75349 0
M  V30 11519 C 1086.66 0.768263 3.34593 0
M  V30 11520 C 1085.74 1.88544 3.79884 0
M  V30 11521 N 1086.14 3.12784 3.97492 0
M  V30 11522 C 1084.43 1.77657 4.09089 0
M  V30 11523 C 1085.13 3.85615 4.35518 0
M  V30 11524 N 1084.11 3.13501 4.44092 0
M  V30 11525 H 1087.91 2.04108 2.11464 0
M  V30 11526 H 1085.43 1.19807 1.09636 0
M  V30 11527 H 1087.42 0.613521 4.12361 0
M  V30 11528 H 1086.08 -0.166501 3.24273 0
M  V30 11529 H 1087.09 3.48333 3.83255 0
M  V30 11530 H 1083.77 0.913956 4.07373 0
M  V30 11531 H 1085.16 4.92492 4.57057 0
M  V30 11532 N 1087.88 -1.11734 1.11145 0
M  V30 11533 C 1089.16 -1.79795 0.770261 0
M  V30 11534 C 1089.54 -1.97624 -0.742158 0
M  V30 11535 O 1088.89 -1.55847 -1.67105 0
M  V30 11536 C 1089.1 -3.13684 1.52982 0
M  V30 11537 C 1090.44 -3.88771 1.70711 0
M  V30 11538 O 1091.47 -3.23363 1.49381 0
M  V30 11539 O 1090.33 -5.06134 2.06132 0
M  V30 11540 H 1087.42 -0.778617 0.27872 0
M  V30 11541 H 1089.97 -1.18504 1.2147 0
M  V30 11542 H 1088.74 -2.96043 2.55879 0
M  V30 11543 H 1088.36 -3.82687 1.07873 0
M  V30 11544 N 1089.36 -0.901303 -1.29284 0
M  V30 11545 C 1090.61 -0.528043 -1.95494 0
M  V30 11546 C 1090.93 0.92597 -1.71044 0
M  V30 11547 O 1090.19 1.67185 -1.01723 0
M  V30 11548 C 1090.49 -0.768828 -3.49033 0
M  V30 11549 C 1090.15 -2.20045 -3.93562 0
M  V30 11550 C 1088.82 -2.59189 -4.05431 0
M  V30 11551 C 1091.17 -3.13266 -4.1655 0
M  V30 11552 C 1088.5 -3.90733 -4.37658 0
M  V30 11553 C 1090.85 -4.4436 -4.50252 0
M  V30 11554 C 1089.51 -4.83375 -4.60331 0
M  V30 11555 H 1088.78 -0.193225 -0.715364 0
M  V30 11556 H 1091.43 -1.14027 -1.53851 0
M  V30 11557 H 1089.73 -0.0736997 -3.91731 0
M  V30 11558 H 1091.43 -0.459384 -3.9836 0
M  V30 11559 H 1088.02 -1.88666 -3.84842 0
M  V30 11560 H 1092.21 -2.84237 -4.06845 0
M  V30 11561 H 1087.46 -4.2068 -4.43665 0
M  V30 11562 H 1091.64 -5.16618 -4.66989 0
M  V30 11563 H 1089.26 -5.8534 -4.85058 0
M  V30 11564 N 1090.84 1.42931 -0.663954 0
M  V30 11565 C 1091.75 2.3459 0.0214234 0
M  V30 11566 C 1092.76 1.54487 0.800611 0
M  V30 11567 O 1093.94 1.87098 0.74541 0
M  V30 11568 C 1091 3.32896 0.968556 0
M  V30 11569 C 1090.07 4.28901 0.185108 0
M  V30 11570 C 1089.3 5.2251 1.08713 0
M  V30 11571 O 1089.52 5.20795 2.32655 0
M  V30 11572 O 1088.46 5.99347 0.553758 0
M  V30 11573 H 1092.28 2.94714 -0.733308 0
M  V30 11574 H 1089.87 1.43252 -0.424159 0
M  V30 11575 H 1091.75 3.93318 1.51257 0
M  V30 11576 H 1090.42 2.75261 1.70333 0
M  V30 11577 H 1089.33 3.71926 -0.402752 0
M  V30 11578 H 1090.66 4.89547 -0.510319 0
M  V30 11579 N 1092.32 0.406567 1.52266 0
M  V30 11580 C 1093.73 -0.063607 1.86592 0
M  V30 11581 C 1094.08 -1.4466 1.32544 0
M  V30 11582 O 1093.2 -2.05971 0.663692 0
M  V30 11583 C 1093.8 -0.122198 3.3858 0
M  V30 11584 C 1092.36 -0.536701 3.72554 0
M  V30 11585 C 1091.5 0.290422 2.75775 0
M  V30 11586 H 1094.45 0.623738 1.45929 0
M  V30 11587 H 1094.48 -0.937964 3.68758 0
M  V30 11588 H 1093.99 0.884495 3.77887 0
M  V30 11589 H 1092.09 -1.55013 3.38824 0
M  V30 11590 H 1092.2 -0.282867 4.78264 0
M  V30 11591 H 1090.57 -0.246864 2.53501 0
M  V30 11592 H 1091.35 1.29541 3.17921 0
M  V30 11593 N 1093.79 -1.57004 0.136909 0
M  V30 11594 C 1094.73 -2.13355 -0.837405 0
M  V30 11595 C 1095.74 -1.08053 -1.21772 0
M  V30 11596 O 1096.93 -1.35365 -1.16355 0
M  V30 11597 C 1094.03 -2.63302 -2.13366 0
M  V30 11598 C 1093.2 -3.92896 -1.92228 0
M  V30 11599 C 1092.26 -4.28257 -3.05749 0
M  V30 11600 O 1091.29 -4.96761 -2.7788 0
M  V30 11601 N 1092.49 -3.87021 -4.3266 0
M  V30 11602 H 1095.25 -2.9758 -0.35586 0
M  V30 11603 H 1092.81 -1.61832 -0.0469758 0
M  V30 11604 H 1094.81 -2.83977 -2.88339 0
M  V30 11605 H 1093.38 -1.83858 -2.52814 0
M  V30 11606 H 1092.6 -3.80949 -1.01349 0
M  V30 11607 H 1093.88 -4.776 -1.75431 0
M  V30 11608 H 1093.28 -3.31804 -4.58173 0
M  V30 11609 H 1091.84 -4.12768 -5.04446 0
M  V30 11610 N 1095.27 0.136881 -1.57004 0
M  V30 11611 C 1096.69 0.489856 -1.51897 0
M  V30 11612 C 1096.89 1.82833 -0.847009 0
M  V30 11613 O 1095.94 2.48952 -0.421792 0
M  V30 11614 C 1097.26 0.490831 -2.96667 0
M  V30 11615 C 1098.81 0.575639 -3.07661 0
M  V30 11616 C 1099.28 0.607178 -4.53957 0
M  V30 11617 N 1100.77 0.66912 -4.58342 0
M  V30 11618 C 1101.51 0.714675 -5.68929 0
M  V30 11619 N 1101 0.718959 -6.89059 0
M  V30 11620 N 1102.8 0.756326 -5.56988 0
M  V30 11621 H 1094.95 -0.740347 -1.99079 0
M  V30 11622 H 1097.21 -0.271116 -0.908405 0
M  V30 11623 H 1096.92 -0.424648 -3.49127 0
M  V30 11624 H 1096.79 1.32512 -3.53158 0
M  V30 11625 H 1099.18 1.48154 -2.55215 0
M  V30 11626 H 1099.26 -0.285991 -2.54196 0
M  V30 11627 H 1098.9 -0.294604 -5.07045 0
M  V30 11628 H 1098.83 1.48544 -5.05215 0
M  V30 11629 H 1101.32 0.672697 -3.71864 0
M  V30 11630 H 1101.64 0.755848 -7.69095 0
M  V30 11631 H 1099.98 0.686671 -6.91599 0
M  V30 11632 H 1103.17 0.750219 -4.62049 0
M  V30 11633 H 1103.34 0.788363 -6.43186 0
M  V30 11634 N 1096.75 1.52266 0.40654 0
M  V30 11635 C 1097.7 1.72175 1.49465 0
M  V30 11636 C 1098.68 0.575668 1.50249 0
M  V30 11637 O 1099.88 0.832835 1.56182 0
M  V30 11638 C 1097.01 1.87818 2.87366 0
M  V30 11639 C 1096.09 3.08305 2.91219 0
M  V30 11640 N 1096.48 4.30967 2.64766 0
M  V30 11641 C 1094.78 3.08192 3.22388 0
M  V30 11642 C 1095.48 5.12455 2.75254 0
M  V30 11643 N 1094.46 4.47758 3.08242 0
M  V30 11644 H 1098.26 2.64653 1.27812 0
M  V30 11645 H 1095.77 1.50334 0.61428 0
M  V30 11646 H 1097.77 2.00198 3.65686 0
M  V30 11647 H 1096.43 0.965414 3.10016 0
M  V30 11648 H 1097.44 4.59397 2.39113 0
M  V30 11649 H 1094.12 2.26662 3.50615 0
M  V30 11650 H 1095.51 6.20186 2.58495 0
M  V30 11651 N 1098.23 -0.663929 1.42933 0
M  V30 11652 C 1099.51 -1.42054 1.34462 0
M  V30 11653 C 1099.89 -2.11096 -0.0127801 0
M  V30 11654 O 1099.23 -2.04027 -1.02884 0
M  V30 11655 C 1099.44 -2.41406 2.5204 0
M  V30 11656 C 1100.79 -3.05726 2.94647 0
M  V30 11657 O 1101.82 -2.51733 2.52009 0
M  V30 11658 O 1100.67 -4.03593 3.68477 0
M  V30 11659 H 1097.77 -0.634149 0.530834 0
M  V30 11660 H 1100.31 -0.691738 1.54962 0
M  V30 11661 H 1099.09 -1.89263 3.42484 0
M  V30 11662 H 1098.71 -3.21752 2.33584 0
M  V30 11663 N 1099.71 -1.29285 -0.901281 0
M  V30 11664 C 1100.98 -1.07847 -1.63182 0
M  V30 11665 C 1101.36 0.377927 -2.07689 0
M  V30 11666 O 1100.71 1.36642 -1.83143 0
M  V30 11667 C 1100.92 -2.06457 -2.81383 0
M  V30 11668 C 1102.27 -2.37289 -3.52107 0
M  V30 11669 O 1103.29 -2.0464 -2.91549 0
M  V30 11670 O 1102.15 -2.93067 -4.61274 0
M  V30 11671 H 1099.25 -0.413073 -0.71645 0
M  V30 11672 H 1101.79 -1.40651 -0.949488 0
M  V30 11673 H 1100.56 -3.04561 -2.4568 0
M  V30 11674 H 1100.19 -1.74374 -3.57323 0
M  V30 11675 N 1101.18 1.11143 -1.11736 0
M  V30 11676 C 1102.43 1.82586 -0.866412 0
M  V30 11677 C 1102.75 1.85227 0.609593 0
M  V30 11678 O 1102.02 1.32505 1.44288 0
M  V30 11679 H 1100.6 0.676149 -0.31754 0
M  V30 11680 H 1103.27 1.34516 -1.41037 0
M  V30 11681 H 1102.36 2.8635 -1.24136 0
M  V30 11682 N 1102.66 0.908147 1.28804 0
M  V30 11683 C 1103.89 0.553287 1.99054 0
M  V30 11684 C 1104.3 -0.868455 1.68091 0
M  V30 11685 O 1103.64 -1.58599 0.926939 0
M  V30 11686 C 1103.71 0.675823 3.5309 0
M  V30 11687 C 1103.37 2.06608 4.0763 0
M  V30 11688 C 1104.37 3.03819 4.21889 0
M  V30 11689 C 1102.05 2.37775 4.42457 0
M  V30 11690 C 1104.05 4.30316 4.7022 0
M  V30 11691 C 1101.73 3.64512 4.90484 0
M  V30 11692 C 1102.73 4.60597 5.04321 0
M  V30 11693 O 1102.42 5.85082 5.51302 0
M  V30 11694 H 1102.15 0.210152 0.642504 0
M  V30 11695 H 1104.7 1.22188 1.65104 0
M  V30 11696 H 1102.93 -0.0498253 3.86668 0
M  V30 11697 H 1104.62 0.328884 4.04565 0
M  V30 11698 H 1105.39 2.81057 3.95262 0
M  V30 11699 H 1101.27 1.63742 4.3094 0
M  V30 11700 H 1104.81 5.05318 4.80936 0
M  V30 11701 H 1100.71 3.87101 5.1655 0
M  V30 11702 H 1101.48 5.87791 5.69599 0
M  V30 11703 N 1104.14 -1.42577 0.671525 0
M  V30 11704 C 1105.07 -2.33499 0.00506984 0
M  V30 11705 C 1106.05 -1.50497 -0.792763 0
M  V30 11706 O 1107.24 -1.79109 -0.750574 0
M  V30 11707 C 1104.37 -3.34077 -0.949194 0
M  V30 11708 C 1103.32 -4.27208 -0.260187 0
M  V30 11709 C 1102.65 -5.17968 -1.32716 0
M  V30 11710 C 1103.95 -5.15192 0.858772 0
M  V30 11711 H 1105.64 -2.89477 0.764407 0
M  V30 11712 H 1103.19 -1.39191 0.369043 0
M  V30 11713 H 1105.14 -3.96594 -1.42448 0
M  V30 11714 H 1103.86 -2.76396 -1.73991 0
M  V30 11715 H 1102.52 -3.66082 0.194834 0
M  V30 11716 H 1102.17 -4.56615 -2.10979 0
M  V30 11717 H 1101.87 -5.81104 -0.871293 0
M  V30 11718 H 1103.39 -5.83359 -1.80345 0
M  V30 11719 H 1104.81 -5.71412 0.464844 0
M  V30 11720 H 1103.21 -5.87144 1.24023 0
M  V30 11721 H 1104.28 -4.53787 1.70895 0
M  V30 11722 N 1105.62 -0.414636 -1.52048 0
M  V30 11723 C 1106.53 0.414861 -2.30903 0
M  V30 11724 C 1107.54 1.04855 -1.38858 0
M  V30 11725 O 1108.72 1.04886 -1.71933 0
M  V30 11726 C 1105.79 1.51356 -3.11917 0
M  V30 11727 C 1104.85 0.902359 -4.19709 0
M  V30 11728 C 1104.08 1.9487 -4.96852 0
M  V30 11729 O 1104.3 3.16766 -4.74358 0
M  V30 11730 O 1103.24 1.55186 -5.8155 0
M  V30 11731 H 1107.06 -0.228251 -3.02841 0
M  V30 11732 H 1104.65 -0.177704 -1.48339 0
M  V30 11733 H 1106.53 2.15127 -3.62351 0
M  V30 11734 H 1105.2 2.14117 -2.42767 0
M  V30 11735 H 1104.11 0.22721 -3.73409 0
M  V30 11736 H 1105.44 0.318587 -4.91168 0
M  V30 11737 N 1107.1 1.56929 -0.145233 0
M  V30 11738 C 1108.34 1.96358 0.50707 0
M  V30 11739 C 1108.68 1.03005 1.64632 0
M  V30 11740 O 1107.95 0.0721045 1.94366 0
M  V30 11741 C 1108.23 3.45502 1.01492 0
M  V30 11742 C 1108.09 4.49633 -0.122708 0
M  V30 11743 C 1109.41 3.97103 1.89729 0
M  V30 11744 H 1106.52 0.713958 0.182848 0
M  V30 11745 H 1109.17 1.8865 -0.226102 0
M  V30 11746 H 1107.32 3.52202 1.6397 0
M  V30 11747 H 1108.99 4.55013 -0.758988 0
M  V30 11748 H 1107.23 4.26691 -0.782109 0
M  V30 11749 H 1107.9 5.51318 0.27432 0
M  V30 11750 H 1110.38 3.92871 1.37082 0
M  V30 11751 H 1109.25 5.01927 2.22173 0
M  V30 11752 H 1109.52 3.39354 2.83357 0
M  V30 11753 N 1108.58 -0.128553 1.57075 0
M  V30 11754 C 1109.82 -0.836536 1.83535 0
M  V30 11755 C 1110.14 -1.81491 0.7294 0
M  V30 11756 O 1111.34 -2.56838 0.880128 0
M  V30 11757 C 1109.8 -1.53836 3.25365 0
M  V30 11758 C 1109.41 -0.601454 4.43944 0
M  V30 11759 C 1111.15 -2.23204 3.61082 0
M  V30 11760 C 1109.06 -1.30596 5.768 0
M  V30 11761 H 1107.99 -0.316142 0.684522 0
M  V30 11762 H 1110.64 -0.0892555 1.83283 0
M  V30 11763 H 1109.02 -2.33192 3.20058 0
M  V30 11764 H 1110.2 0.158209 4.60528 0
M  V30 11765 H 1108.51 -0.0152393 4.16397 0
M  V30 11766 H 1111.11 -2.76585 4.57608 0
M  V30 11767 H 1111.45 -3.0056 2.88044 0
M  V30 11768 H 1111.98 -1.50746 3.68131 0
M  V30 11769 H 1108.72 -0.573874 6.52983 0
M  V30 11770 H 1108.24 -2.03787 5.6412 0
M  V30 11771 H 1109.92 -1.8418 6.20231 0
M  V30 11772 N 1110.05 -1.5248 -0.398459 0
M  V30 11773 C 1111.3 -1.66731 -1.14215 0
M  V30 11774 C 1111.62 -0.404957 -1.90749 0
M  V30 11775 O 1110.89 0.580434 -1.87104 0
M  V30 11776 H 1109.47 -0.614577 -0.424622 0
M  V30 11777 H 1112.13 -1.89561 -0.453059 0
M  V30 11778 H 1111.23 -2.51336 -1.85031 0
M  V30 11779 N 1111.53 0.65634 -1.43283 0
M  V30 11780 C 1112.78 1.41627 -1.44734 0
M  V30 11781 C 1113.11 1.94372 -0.0704893 0
M  V30 11782 O 1112.36 1.72511 0.924037 0
M  V30 11783 C 1112.66 2.61688 -2.43421 0
M  V30 11784 C 1112.33 2.2738 -3.8937 0
M  V30 11785 C 1110.99 2.17735 -4.29121 0
M  V30 11786 C 1113.34 1.99863 -4.81357 0
M  V30 11787 C 1110.67 1.78725 -5.58815 0
M  V30 11788 C 1113.02 1.62352 -6.11412 0
M  V30 11789 C 1111.68 1.51231 -6.50143 0
M  V30 11790 H 1110.95 0.51825 -0.529621 0
M  V30 11791 H 1113.6 0.746701 -1.76342 0
M  V30 11792 H 1111.91 3.33763 -2.05206 0
M  V30 11793 H 1113.6 3.19896 -2.41801 0
M  V30 11794 H 1110.19 2.35795 -3.57908 0
M  V30 11795 H 1114.38 2.06237 -4.5142 0
M  V30 11796 H 1109.63 1.68698 -5.87666 0
M  V30 11797 H 1113.81 1.40091 -6.82164 0
M  V30 11798 H 1111.43 1.20774 -7.50545 0
M  V30 11799 N 1113.01 1.29761 0.894412 0
M  V30 11800 C 1114.24 1.2094 1.67872 0
M  V30 11801 C 1114.65 -0.229192 1.87404 0
M  V30 11802 O 1114.01 -1.15278 1.41482 0
M  V30 11803 C 1114.06 1.92424 3.06032 0
M  V30 11804 O 1113.78 3.30665 2.87388 0
M  V30 11805 C 1115.28 1.90144 4.0045 0
M  V30 11806 H 1112.5 0.418942 0.524145 0
M  V30 11807 H 1115.05 1.71226 1.11813 0
M  V30 11808 H 1113.2 1.4596 3.58851 0
M  V30 11809 H 1113.62 3.66741 3.74969 0
M  V30 11810 H 1115.09 2.44716 4.94791 0
M  V30 11811 H 1115.57 0.878175 4.30331 0
M  V30 11812 H 1116.17 2.36375 3.53563 0
M  V30 11813 N 1114.49 -1.10549 1.12324 0
M  V30 11814 C 1115.42 -2.16081 0.733768 0
M  V30 11815 C 1116.4 -1.60266 -0.274511 0
M  V30 11816 O 1117.58 -1.87743 -0.168742 0
M  V30 11817 C 1114.71 -3.38591 0.0858914 0
M  V30 11818 C 1113.76 -4.13097 1.0608 0
M  V30 11819 S 1114.59 -4.68821 2.5878 0
M  V30 11820 C 1115.74 -5.94644 1.95319 0
M  V30 11821 H 1115.98 -2.48784 1.62769 0
M  V30 11822 H 1113.51 -1.22318 0.942209 0
M  V30 11823 H 1115.47 -4.09533 -0.281538 0
M  V30 11824 H 1114.13 -3.04129 -0.785122 0
M  V30 11825 H 1113.32 -5.00934 0.555095 0
M  V30 11826 H 1112.92 -3.4796 1.37112 0
M  V30 11827 H 1115.22 -6.65004 1.29523 0
M  V30 11828 H 1116.16 -6.49875 2.81191 0
M  V30 11829 H 1116.57 -5.4662 1.40951 0
M  V30 11830 N 1115.97 -0.914965 -1.28321 0
M  V30 11831 C 1117.19 -0.564654 -1.99046 0
M  V30 11832 C 1117.61 0.854345 -1.68364 0
M  V30 11833 O 1116.97 1.56605 -0.937068 0
M  V30 11834 C 1117.02 -0.765663 -3.53299 0
M  V30 11835 O 1116.74 -2.12883 -3.829 0
M  V30 11836 C 1118.24 -0.422347 -4.41283 0
M  V30 11837 H 1115.46 -0.215158 -0.635569 0
M  V30 11838 H 1118 -1.2285 -1.63487 0
M  V30 11839 H 1116.16 -0.148795 -3.87114 0
M  V30 11840 H 1116.57 -2.1694 -4.77533 0
M  V30 11841 H 1118.05 -0.613757 -5.48577 0
M  V30 11842 H 1118.52 0.641484 -4.3449 0
M  V30 11843 H 1119.13 -1.01681 -4.12966 0
M  V30 11844 N 1117.44 1.42219 -0.679077 0
M  V30 11845 C 1118.67 2.06333 -0.210097 0
M  V30 11846 C 1119.09 1.50703 1.12562 0
M  V30 11847 O 1118.45 0.627241 1.70104 0
M  V30 11848 C 1118.5 3.60243 -0.160322 0
M  V30 11849 O 1117.6 4.03122 0.869872 0
M  V30 11850 H 1116.94 0.655362 -0.106754 0
M  V30 11851 H 1119.47 1.82278 -0.929294 0
M  V30 11852 H 1119.48 4.07997 0.014384 0
M  V30 11853 H 1118.16 4.00106 -1.13526 0
M  V30 11854 H 1116.74 3.66907 0.66586 0
M  V30 11855 N 1118.92 0.422693 1.51826 0
M  V30 11856 C 1119.85 -0.386913 2.30272 0
M  V30 11857 C 1120.83 -1.03411 1.35056 0
M  V30 11858 O 1122.02 -1.04055 1.6397 0
M  V30 11859 C 1119.15 -1.49645 3.13407 0
M  V30 11860 C 1118.1 -0.973532 4.16781 0
M  V30 11861 C 1117.43 -2.1777 4.88344 0
M  V30 11862 C 1118.73 -0.0181194 5.22297 0
M  V30 11863 H 1120.42 0.267697 2.98201 0
M  V30 11864 H 1117.97 0.130186 1.4341 0
M  V30 11865 H 1119.92 -2.06993 3.67059 0
M  V30 11866 H 1118.64 -2.17914 2.43272 0
M  V30 11867 H 1117.3 -0.42237 3.64159 0
M  V30 11868 H 1116.95 -2.84625 4.14726 0
M  V30 11869 H 1116.65 -1.83427 5.58237 0
M  V30 11870 H 1118.18 -2.75699 5.44814 0
M  V30 11871 H 1119.59 -0.500822 5.71108 0
M  V30 11872 H 1117.99 0.237163 5.99631 0
M  V30 11873 H 1119.06 0.923065 4.76033 0
M  V30 11874 N 1120.4 -1.5685 0.153553 0
M  V30 11875 C 1121.36 -2.15894 -0.769564 0
M  V30 11876 C 1122.36 -1.10239 -1.17064 0
M  V30 11877 O 1123.55 -1.35845 -1.09049 0
M  V30 11878 C 1120.68 -2.72738 -2.04516 0
M  V30 11879 H 1121.88 -2.98807 -0.255842 0
M  V30 11880 H 1119.43 -1.56005 -0.0959279 0
M  V30 11881 H 1120.17 -1.9351 -2.60239 0
M  V30 11882 H 1119.95 -3.50042 -1.76672 0
M  V30 11883 H 1121.44 -3.18208 -2.70432 0
M  V30 11884 N 1121.88 0.120221 -1.57141 0
M  V30 11885 C 1122.84 1.13159 -1.99318 0
M  V30 11886 C 1123.84 1.34376 -0.883158 0
M  V30 11887 O 1125.03 1.30914 -1.14922 0
M  V30 11888 C 1122.16 2.48632 -2.33227 0
M  V30 11889 H 1123.36 0.769119 -2.8987 0
M  V30 11890 H 1120.91 0.364475 -1.51991 0
M  V30 11891 H 1121.64 2.89802 -1.45551 0
M  V30 11892 H 1121.43 2.34587 -3.14184 0
M  V30 11893 H 1122.92 3.21423 -2.66603 0
M  V30 11894 N 1123.36 1.52689 0.390367 0
M  V30 11895 C 1124.29 1.80338 1.48325 0
M  V30 11896 C 1125.27 0.655338 1.56969 0
M  V30 11897 O 1126.45 0.902792 1.7194 0
M  V30 11898 C 1123.58 1.97101 2.85952 0
M  V30 11899 C 1122.54 3.12783 2.92148 0
M  V30 11900 C 1121.86 3.14798 4.32211 0
M  V30 11901 C 1123.16 4.5188 2.61919 0
M  V30 11902 H 1124.86 2.71857 1.25437 0
M  V30 11903 H 1122.4 1.30813 0.601995 0
M  V30 11904 H 1124.36 2.15027 3.62411 0
M  V30 11905 H 1123.08 1.02271 3.10174 0
M  V30 11906 H 1121.74 2.94638 2.18137 0
M  V30 11907 H 1121.39 2.17653 4.53471 0
M  V30 11908 H 1121.09 3.92507 4.37278 0
M  V30 11909 H 1122.61 3.34877 5.10578 0
M  V30 11910 H 1124.02 4.70134 3.28096 0
M  V30 11911 H 1122.42 5.31647 2.78337 0
M  V30 11912 H 1123.49 4.58689 1.57266 0
M  V30 11913 N 1124.83 -0.648732 1.43629 0
M  V30 11914 C 1125.77 -1.77417 1.45107 0
M  V30 11915 C 1126.78 -1.59067 0.346618 0
M  V30 11916 O 1127.97 -1.67705 0.611322 0
M  V30 11917 C 1125.07 -3.14906 1.25249 0
M  V30 11918 C 1124.24 -3.59874 2.48616 0
M  V30 11919 C 1123.3 -4.76181 2.23916 0
M  V30 11920 O 1122.33 -4.8539 2.97296 0
M  V30 11921 N 1123.53 -5.66691 1.25862 0
M  V30 11922 H 1126.29 -1.76626 2.42123 0
M  V30 11923 H 1123.85 -0.832725 1.38843 0
M  V30 11924 H 1125.85 -3.90408 1.06601 0
M  V30 11925 H 1124.42 -3.10443 0.366623 0
M  V30 11926 H 1123.64 -2.74768 2.82659 0
M  V30 11927 H 1124.92 -3.86665 3.30708 0
M  V30 11928 H 1124.32 -5.61927 0.652227 0
M  V30 11929 H 1122.88 -6.41895 1.13196 0
M  V30 11930 N 1126.31 -1.30234 -0.887518 0
M  V30 11931 C 1127.56 -1.19086 -1.64153 0
M  V30 11932 C 1127.89 0.254428 -1.92526 0
M  V30 11933 O 1127.17 1.18233 -1.54438 0
M  V30 11934 C 1127.45 -2.01723 -2.98295 0
M  V30 11935 C 1127.3 -3.54458 -2.76911 0
M  V30 11936 C 1128.62 -1.85307 -3.99186 0
M  V30 11937 H 1125.74 -0.433967 -0.595686 0
M  V30 11938 H 1128.38 -1.59839 -1.0272 0
M  V30 11939 H 1126.53 -1.67096 -3.5073 0
M  V30 11940 H 1128.2 -3.99131 -2.31284 0
M  V30 11941 H 1126.45 -3.78768 -2.11464 0
M  V30 11942 H 1127.12 -4.07565 -3.72283 0
M  V30 11943 H 1129.59 -2.15575 -3.55903 0
M  V30 11944 H 1128.47 -2.45456 -4.90961 0
M  V30 11945 H 1128.73 -0.811528 -4.34588 0
M  V30 11946 N 1127.79 1.09952 -1.12909 0
M  V30 11947 C 1129.04 1.81657 -0.885729 0
M  V30 11948 C 1129.36 1.85863 0.589913 0
M  V30 11949 O 1128.63 1.34028 1.42875 0
M  V30 11950 H 1127.21 0.672743 -0.324694 0
M  V30 11951 H 1129.87 1.33013 -1.42456 0
M  V30 11952 H 1128.97 2.85018 -1.27167 0
M  V30 11953 N 1129.27 0.921757 1.27833 0
M  V30 11954 C 1130.52 0.557974 1.94245 0
M  V30 11955 C 1130.84 -0.90268 1.72849 0
M  V30 11956 O 1130.11 -1.63915 1.07279 0
M  V30 11957 H 1128.69 0.203364 0.718785 0
M  V30 11958 H 1131.35 1.17286 1.5566 0
M  V30 11959 H 1130.45 0.759202 3.02725 0
M  V30 11960 N 1130.75 -1.41857 0.686609 0
M  V30 11961 C 1131.7 -2.27999 -0.00734666 0
M  V30 11962 C 1132.68 -1.41723 -0.761808 0
M  V30 11963 O 1133.87 -1.65072 -0.638776 0
M  V30 11964 C 1131 -3.29909 -0.949462 0
M  V30 11965 C 1130.09 -4.23666 -0.191722 0
M  V30 11966 N 1130.48 -4.99277 0.809715 0
M  V30 11967 C 1128.78 -4.43937 -0.428489 0
M  V30 11968 C 1129.48 -5.67834 1.2625 0
M  V30 11969 N 1128.45 -5.40387 0.590151 0
M  V30 11970 H 1132.26 -2.83887 0.760608 0
M  V30 11971 H 1129.77 -1.53962 0.516676 0
M  V30 11972 H 1131.77 -3.90436 -1.46169 0
M  V30 11973 H 1130.43 -2.75582 -1.71711 0
M  V30 11974 H 1131.44 -5.04051 1.18966 0
M  V30 11975 H 1128.11 -4.00633 -1.17472 0
M  V30 11976 H 1129.5 -6.38469 2.09301 0
M  V30 11977 N 1132.22 -0.430739 -1.51599 0
M  V30 11978 C 1133.47 0.137657 -2.01631 0
M  V30 11979 C 1133.79 1.43787 -1.31721 0
M  V30 11980 O 1133.06 1.90668 -0.449717 0
M  V30 11981 H 1131.64 0.0538611 -0.745056 0
M  V30 11982 H 1134.31 -0.571935 -1.86319 0
M  V30 11983 H 1133.4 0.318305 -3.10473 0
M  V30 11984 N 1133.7 1.56767 -0.161869 0
M  V30 11985 C 1134.61 2.21083 0.784814 0
M  V30 11986 C 1135.63 1.19959 1.26039 0
M  V30 11987 O 1136.8 1.52588 1.31449 0
M  V30 11988 C 1133.87 2.83153 2.00063 0
M  V30 11989 C 1132.93 3.9945 1.57285 0
M  V30 11990 C 1132.16 4.5855 2.7307 0
M  V30 11991 O 1132.39 4.16534 3.89686 0
M  V30 11992 O 1131.32 5.48575 2.47688 0
M  V30 11993 H 1135.15 3.02522 0.267243 0
M  V30 11994 H 1132.73 1.49255 0.0658783 0
M  V30 11995 H 1134.61 3.22546 2.71186 0
M  V30 11996 H 1133.29 2.04718 2.50744 0
M  V30 11997 H 1132.2 3.64745 0.831393 0
M  V30 11998 H 1133.53 4.7945 1.11304 0
M  V30 11999 N 1135.18 -0.111886 1.57202 0
M  V30 12000 C 1136.6 -0.465629 1.52657 0
M  V30 12001 C 1136.8 -1.81463 0.875989 0
M  V30 12002 O 1135.85 -2.4825 0.461345 0
M  V30 12003 C 1137.17 -0.443571 2.9741 0
M  V30 12004 C 1138.71 -0.52662 3.08538 0
M  V30 12005 C 1139.19 -0.53488 4.54866 0
M  V30 12006 N 1140.68 -0.596117 4.59348 0
M  V30 12007 C 1141.41 -0.624073 5.69994 0
M  V30 12008 N 1140.91 -0.609245 6.90116 0
M  V30 12009 N 1142.7 -0.667619 5.58121 0
M  V30 12010 H 1134.85 0.771925 1.97876 0
M  V30 12011 H 1137.12 0.285534 0.903977 0
M  V30 12012 H 1136.82 0.480138 3.48407 0
M  V30 12013 H 1136.7 -1.26876 3.55221 0
M  V30 12014 H 1139.08 -1.44075 2.57539 0
M  V30 12015 H 1139.17 0.326396 2.53709 0
M  V30 12016 H 1138.81 0.375233 5.06512 0
M  V30 12017 H 1138.74 -1.40488 5.07514 0
M  V30 12018 H 1141.23 -0.613452 3.72888 0
M  V30 12019 H 1141.54 -0.633396 7.702 0
M  V30 12020 H 1139.89 -0.576557 6.92604 0
M  V30 12021 H 1143.08 -0.676616 4.63184 0
M  V30 12022 H 1143.25 -0.685938 6.44359 0
M  V30 12023 N 1136.66 -1.52894 -0.382264 0
M  V30 12024 C 1137.59 -1.81122 -1.47367 0
M  V30 12025 C 1138.57 -0.663653 -1.56619 0
M  V30 12026 O 1139.75 -0.911898 -1.71459 0
M  V30 12027 C 1136.88 -1.98615 -2.84902 0
M  V30 12028 C 1135.84 -3.14328 -2.90485 0
M  V30 12029 C 1135.16 -3.17086 -4.30535 0
M  V30 12030 C 1136.46 -4.53263 -2.59519 0
M  V30 12031 H 1138.16 -2.72518 -1.23993 0
M  V30 12032 H 1135.7 -1.3113 -0.595049 0
M  V30 12033 H 1137.66 -2.16946 -3.61265 0
M  V30 12034 H 1136.38 -1.03915 -3.09628 0
M  V30 12035 H 1135.04 -2.95791 -2.16572 0
M  V30 12036 H 1134.69 -2.20055 -4.52311 0
M  V30 12037 H 1134.39 -3.94821 -4.3519 0
M  V30 12038 H 1135.91 -3.3758 -5.08795 0
M  V30 12039 H 1137.33 -4.71867 -3.25598 0
M  V30 12040 H 1135.72 -5.33115 -2.75514 0
M  V30 12041 H 1136.79 -4.59516 -1.54831 0
M  V30 12042 N 1138.14 0.641106 -1.43971 0
M  V30 12043 C 1139.37 1.42829 -1.49692 0
M  V30 12044 C 1139.78 1.88427 -0.118594 0
M  V30 12045 O 1139.14 1.60234 0.873581 0
M  V30 12046 C 1139.19 2.65524 -2.45314 0
M  V30 12047 O 1138.91 2.2183 -3.77787 0
M  V30 12048 C 1140.41 3.58758 -2.60399 0
M  V30 12049 H 1137.63 0.438367 -0.508011 0
M  V30 12050 H 1140.17 0.784933 -1.88836 0
M  V30 12051 H 1138.33 3.25973 -2.09332 0
M  V30 12052 H 1138.74 3.01303 -4.29321 0
M  V30 12053 H 1140.22 4.41483 -3.31357 0
M  V30 12054 H 1140.69 4.06909 -1.65294 0
M  V30 12055 H 1141.3 3.04184 -2.97241 0
M  V30 12056 N 1139.62 1.30703 0.880598 0
M  V30 12057 C 1140.55 1.1327 1.99255 0
M  V30 12058 C 1141.56 0.0747186 1.62628 0
M  V30 12059 O 1142.75 0.321169 1.75587 0
M  V30 12060 C 1139.85 0.706179 3.31461 0
M  V30 12061 C 1139.02 1.84687 3.96497 0
M  V30 12062 C 1138.08 1.40817 5.07008 0
M  V30 12063 O 1137.11 2.1161 5.28403 0
M  V30 12064 N 1138.31 0.289619 5.79777 0
M  V30 12065 H 1141.07 2.09043 2.14759 0
M  V30 12066 H 1138.64 1.22896 1.05395 0
M  V30 12067 H 1140.63 0.395617 4.02762 0
M  V30 12068 H 1139.2 -0.159631 3.12192 0
M  V30 12069 H 1138.42 2.32531 3.18312 0
M  V30 12070 H 1139.71 2.61117 4.36687 0
M  V30 12071 H 1139.1 -0.300177 5.64903 0
M  V30 12072 H 1137.66 0.0385346 6.51789 0
M  V30 12073 N 1141.09 -1.09351 1.1349 0
M  V30 12074 C 1142.33 -1.83156 0.907372 0
M  V30 12075 C 1142.7 -1.8376 -0.556441 0
M  V30 12076 O 1143.9 -2.5323 -0.90156 0
M  V30 12077 C 1142.17 -3.25315 1.48004 0
M  V30 12078 S 1143.73 -4.16113 1.39268 0
M  V30 12079 H 1140.55 -0.631319 0.327043 0
M  V30 12080 H 1143.15 -1.31509 1.44657 0
M  V30 12081 H 1141.85 -3.22452 2.53876 0
M  V30 12082 H 1141.38 -3.82034 0.938822 0
M  V30 12083 H 1143.4 -4.94806 0.371645 0
M  V30 12084 N 1142.57 -0.928524 -1.27343 0
M  V30 12085 C 1143.99 -0.62889 -1.46687 0
M  V30 12086 C 1144.19 0.821592 -1.83989 0
M  V30 12087 O 1143.24 1.59941 -1.95385 0
M  V30 12088 C 1144.56 -1.57947 -2.55878 0
M  V30 12089 C 1146.1 -1.58778 -2.69738 0
M  V30 12090 C 1146.58 -2.52535 -3.82087 0
M  V30 12091 N 1148.07 -2.50747 -3.89462 0
M  V30 12092 C 1148.81 -3.19981 -4.75814 0
M  V30 12093 N 1148.3 -3.98598 -5.66649 0
M  V30 12094 N 1150.09 -3.08996 -4.69551 0
M  V30 12095 H 1142.25 -1.86625 -1.01414 0
M  V30 12096 H 1144.51 -0.801293 -0.50659 0
M  V30 12097 H 1144.21 -2.61427 -2.35264 0
M  V30 12098 H 1144.09 -1.3218 -3.53282 0
M  V30 12099 H 1146.48 -0.560292 -2.89732 0
M  V30 12100 H 1146.56 -1.88594 -1.72817 0
M  V30 12101 H 1146.2 -3.55395 -3.62846 0
M  V30 12102 H 1146.13 -2.20015 -4.78436 0
M  V30 12103 H 1148.62 -1.93651 -3.24511 0
M  V30 12104 H 1148.93 -4.4841 -6.29403 0
M  V30 12105 H 1147.28 -4.02701 -5.66442 0
M  V30 12106 H 1150.47 -2.4707 -3.97585 0
M  V30 12107 H 1150.64 -3.63223 -5.36631 0
M  V30 12108 N 1144.05 1.41491 -0.694123 0
M  V30 12109 C 1144.96 2.34583 -0.0283414 0
M  V30 12110 C 1145.98 1.5615 0.767662 0
M  V30 12111 O 1147.15 1.88637 0.705556 0
M  V30 12112 C 1144.22 3.34876 0.897726 0
M  V30 12113 C 1143.28 4.29197 0.0940905 0
M  V30 12114 C 1142.51 5.24699 0.976051 0
M  V30 12115 O 1142.73 5.25613 2.21556 0
M  V30 12116 O 1141.67 6.00387 0.426503 0
M  V30 12117 H 1145.49 2.93092 -0.795656 0
M  V30 12118 H 1143.08 1.4232 -0.45445 0
M  V30 12119 H 1144.96 3.96438 1.4288 0
M  V30 12120 H 1143.64 2.78812 1.64456 0
M  V30 12121 H 1142.54 3.70988 -0.481552 0
M  V30 12122 H 1143.88 4.88355 -0.614045 0
M  V30 12123 N 1145.53 0.438773 1.51369 0
M  V30 12124 C 1146.77 -0.127401 2.02399 0
M  V30 12125 C 1147.11 -1.42235 1.32223 0
M  V30 12126 O 1146.38 -1.89513 0.437607 0
M  V30 12127 C 1146.66 -0.344673 3.58447 0
M  V30 12128 C 1146.52 0.969027 4.39238 0
M  V30 12129 C 1147.84 -1.11381 4.25773 0
M  V30 12130 H 1144.96 -0.0448281 0.735635 0
M  V30 12131 H 1147.6 0.57805 1.80993 0
M  V30 12132 H 1145.75 -0.945582 3.76817 0
M  V30 12133 H 1147.42 1.60403 4.32514 0
M  V30 12134 H 1145.66 1.57329 4.04265 0
M  V30 12135 H 1146.33 0.771029 5.46589 0
M  V30 12136 H 1148.81 -0.604785 4.11681 0
M  V30 12137 H 1147.69 -1.23459 5.34835 0
M  V30 12138 H 1147.95 -2.14225 3.8673 0
M  V30 12139 N 1147.01 -1.56678 0.170181 0
M  V30 12140 C 1148.25 -1.9714 -0.475767 0
M  V30 12141 C 1148.58 -1.05611 -1.62972 0
M  V30 12142 O 1147.86 -0.103017 -1.94227 0
M  V30 12143 C 1148.14 -3.47072 -0.959828 0
M  V30 12144 C 1148 -4.4938 0.194225 0
M  V30 12145 C 1149.31 -4.00071 -1.83387 0
M  V30 12146 H 1146.43 -0.716776 -0.171466 0
M  V30 12147 H 1149.08 -1.88266 0.256086 0
M  V30 12148 H 1147.23 -3.54766 -1.58346 0
M  V30 12149 H 1148.9 -4.53748 0.83128 0
M  V30 12150 H 1147.14 -4.25393 0.849893 0
M  V30 12151 H 1147.81 -5.51685 -0.186575 0
M  V30 12152 H 1150.29 -3.95002 -1.30815 0
M  V30 12153 H 1149.16 -5.05398 -2.14159 0
M  V30 12154 H 1149.42 -3.43819 -2.77923 0
M  V30 12155 N 1148.48 0.103547 -1.57259 0
M  V30 12156 C 1149.41 1.12714 -2.04494 0
M  V30 12157 C 1150.39 1.42278 -0.932255 0
M  V30 12158 O 1151.58 1.52453 -1.20298 0
M  V30 12159 C 1148.71 2.44927 -2.46228 0
M  V30 12160 C 1147.66 2.2979 -3.61082 0
M  V30 12161 C 1146.99 3.67105 -3.88765 0
M  V30 12162 C 1148.29 1.7455 -4.9227 0
M  V30 12163 H 1149.98 0.734198 -2.90258 0
M  V30 12164 H 1147.53 0.351725 -1.39638 0
M  V30 12165 H 1149.48 3.16798 -2.77879 0
M  V30 12166 H 1148.21 2.8614 -1.57453 0
M  V30 12167 H 1146.87 1.60366 -3.29664 0
M  V30 12168 H 1146.51 4.05831 -2.97171 0
M  V30 12169 H 1146.21 3.57825 -4.66084 0
M  V30 12170 H 1147.74 4.40456 -4.22884 0
M  V30 12171 H 1149.15 2.36253 -5.22358 0
M  V30 12172 H 1147.55 1.76051 -5.73695 0
M  V30 12173 H 1148.62 0.704242 -4.79759 0
M  V30 12174 N 1149.96 1.53094 0.37415 0
M  V30 12175 C 1151.19 1.72758 1.13852 0
M  V30 12176 C 1151.6 0.452638 1.83294 0
M  V30 12177 O 1150.96 -0.573906 1.73241 0
M  V30 12178 C 1151.01 2.88724 2.17534 0
M  V30 12179 O 1150.73 4.11284 1.5092 0
M  V30 12180 C 1152.23 3.2019 3.06584 0
M  V30 12181 H 1149.45 0.578028 0.340771 0
M  V30 12182 H 1152 1.99805 0.435683 0
M  V30 12183 H 1150.15 2.64096 2.83429 0
M  V30 12184 H 1150.57 4.76162 2.19932 0
M  V30 12185 H 1152.04 4.04759 3.75332 0
M  V30 12186 H 1152.52 2.35193 3.70919 0
M  V30 12187 H 1153.12 3.46712 2.46315 0
M  V30 12188 N 1151.44 -0.633461 1.44309 0
M  V30 12189 C 1152.67 -1.42033 1.50447 0
M  V30 12190 C 1153.08 -1.88362 0.128585 0
M  V30 12191 O 1152.44 -1.60695 -0.865071 0
M  V30 12192 C 1152.49 -2.6422 2.46719 0
M  V30 12193 O 1152.21 -2.19823 3.78958 0
M  V30 12194 C 1153.71 -3.57372 2.62298 0
M  V30 12195 H 1150.93 -0.435667 0.510329 0
M  V30 12196 H 1153.48 -0.774907 1.8925 0
M  V30 12197 H 1151.63 -3.24859 2.11058 0
M  V30 12198 H 1152.05 -2.99022 4.30913 0
M  V30 12199 H 1153.52 -4.39719 3.33693 0
M  V30 12200 H 1154 -4.06026 1.67449 0
M  V30 12201 H 1154.6 -3.02603 2.9885 0
M  V30 12202 N 1152.92 -1.31168 -0.873655 0
M  V30 12203 C 1154.14 -1.23728 -1.66452 0
M  V30 12204 C 1154.57 0.194869 -1.87088 0
M  V30 12205 O 1153.93 1.1397 -1.40998 0
M  V30 12206 C 1153.97 -1.98285 -3.0119 0
M  V30 12207 O 1153.08 -1.31767 -3.90783 0
M  V30 12208 H 1152.42 -0.427362 -0.508191 0
M  V30 12209 H 1154.95 -1.73176 -1.08955 0
M  V30 12210 H 1154.96 -2.0774 -3.51153 0
M  V30 12211 H 1153.63 -3.02437 -2.8549 0
M  V30 12212 H 1152.21 -1.3074 -3.4923 0
M  V30 12213 N 1154.4 1.08748 -1.14068 0
M  V30 12214 C 1155.34 2.15573 -0.824425 0
M  V30 12215 C 1156.31 1.64683 0.216522 0
M  V30 12216 O 1157.5 1.90601 0.0872193 0
M  V30 12217 C 1154.64 3.43756 -0.30423 0
M  V30 12218 C 1153.75 4.08512 -1.40506 0
M  V30 12219 C 1152.89 5.24477 -0.842479 0
M  V30 12220 C 1151.93 5.81167 -1.92123 0
M  V30 12221 N 1151.06 6.88483 -1.37608 0
M  V30 12222 H 1155.9 2.41968 -1.73941 0
M  V30 12223 H 1153.44 1.18751 -0.868143 0
M  V30 12224 H 1155.4 4.17197 0.0155546 0
M  V30 12225 H 1154.03 3.17658 0.573868 0
M  V30 12226 H 1153.08 3.32866 -1.84131 0
M  V30 12227 H 1154.39 4.46669 -2.2201 0
M  V30 12228 H 1153.55 6.04842 -0.474389 0
M  V30 12229 H 1152.28 4.877 0.00355212 0
M  V30 12230 H 1151.29 4.99458 -2.29831 0
M  V30 12231 H 1152.51 6.20003 -2.77079 0
M  V30 12232 H 1150.46 6.53672 -0.552168 0
M  V30 12233 H 1150.38 7.25446 -2.12752 0
M  V30 12234 H 1151.65 7.72588 -1.03578 0
M  V30 12235 N 1155.87 0.935264 1.26849 0
M  V30 12236 C 1156.84 0.44485 2.24842 0
M  V30 12237 C 1157.84 -0.440781 1.54641 0
M  V30 12238 O 1159.03 -0.240793 1.72528 0
M  V30 12239 C 1156.16 -0.359566 3.38998 0
M  V30 12240 H 1157.35 1.31074 2.6974 0
M  V30 12241 H 1154.91 0.716665 1.38901 0
M  V30 12242 H 1155.64 -1.24396 2.99493 0
M  V30 12243 H 1155.43 0.275529 3.91131 0
M  V30 12244 H 1156.92 -0.692804 4.11813 0
M  V30 12245 N 1157.35 -1.41121 0.701616 0
M  V30 12246 C 1158.6 -2.00359 0.232214 0
M  V30 12247 C 1158.91 -1.56231 -1.17691 0
M  V30 12248 O 1160.12 -2.08071 -1.74409 0
M  V30 12249 C 1158.58 -3.58052 0.364257 0
M  V30 12250 C 1158.18 -4.11158 1.77913 0
M  V30 12251 C 1159.93 -4.24476 -0.0450628 0
M  V30 12252 C 1157.84 -5.61306 1.8625 0
M  V30 12253 H 1156.77 -0.749411 0.0830609 0
M  V30 12254 H 1159.42 -1.61528 0.870689 0
M  V30 12255 H 1157.8 -3.94515 -0.342569 0
M  V30 12256 H 1158.97 -3.86101 2.5152 0
M  V30 12257 H 1157.29 -3.57282 2.13866 0
M  V30 12258 H 1159.88 -5.347 -0.00329209 0
M  V30 12259 H 1160.23 -4.01919 -1.08477 0
M  V30 12260 H 1160.76 -3.93069 0.611704 0
M  V30 12261 H 1157.5 -5.88699 2.88294 0
M  V30 12262 H 1157.02 -5.88271 1.17036 0
M  V30 12263 H 1158.7 -6.26179 1.62817 0
M  V30 12264 N 1158.83 -0.446794 -1.51134 0
M  V30 12265 C 1160.24 0.0141132 -1.86695 0
M  V30 12266 C 1160.59 1.41095 -1.36333 0
M  V30 12267 O 1159.72 2.04139 -0.718068 0
M  V30 12268 C 1160.31 0.0323866 -3.38785 0
M  V30 12269 C 1158.87 0.437737 -3.73846 0
M  V30 12270 C 1158.02 -0.363436 -2.74908 0
M  V30 12271 H 1160.97 -0.66221 -1.44224 0
M  V30 12272 H 1160.99 0.839865 -3.71115 0
M  V30 12273 H 1160.5 -0.984374 -3.75409 0
M  V30 12274 H 1158.6 1.45975 -3.42815 0
M  V30 12275 H 1158.72 0.155964 -4.78846 0
M  V30 12276 H 1157.08 0.179566 -2.54066 0
M  V30 12277 H 1157.86 -1.37925 -3.14375 0
M  V30 12278 N 1160.31 1.56586 -0.178487 0
M  V30 12279 C 1161.55 1.9739 0.465306 0
M  V30 12280 C 1161.89 1.06474 1.6241 0
M  V30 12281 O 1161.16 0.113316 1.9417 0
M  V30 12282 C 1161.45 3.47577 0.941408 0
M  V30 12283 C 1161.3 4.49271 -0.218054 0
M  V30 12284 C 1162.62 4.01038 1.81263 0
M  V30 12285 H 1159.74 0.717676 0.167663 0
M  V30 12286 H 1162.38 1.88128 -0.266067 0
M  V30 12287 H 1160.53 3.556 1.56463 0
M  V30 12288 H 1162.2 4.53301 -0.855332 0
M  V30 12289 H 1160.44 4.24936 -0.872441 0
M  V30 12290 H 1161.11 5.51776 0.157315 0
M  V30 12291 H 1163.59 3.9569 1.28718 0
M  V30 12292 H 1162.47 5.06526 2.11476 0
M  V30 12293 H 1162.73 3.45288 2.76096 0
M  V30 12294 N 1161.79 -0.095206 1.57312 0
M  V30 12295 C 1162.72 -1.14173 1.98739 0
M  V30 12296 C 1163.73 -1.36323 0.889934 0
M  V30 12297 O 1164.92 -1.34977 1.16805 0
M  V30 12298 C 1162.02 -2.49729 2.29104 0
M  V30 12299 C 1161.19 -2.47857 3.60396 0
M  V30 12300 C 1160.25 -3.65341 3.78699 0
M  V30 12301 O 1159.28 -3.47837 4.50553 0
M  V30 12302 N 1160.48 -4.84818 3.19268 0
M  V30 12303 H 1163.25 -0.789126 2.89124 0
M  V30 12304 H 1160.81 -0.284187 1.59386 0
M  V30 12305 H 1162.8 -3.26925 2.38541 0
M  V30 12306 H 1161.37 -2.7708 1.44726 0
M  V30 12307 H 1160.59 -1.56208 3.61929 0
M  V30 12308 H 1161.88 -2.43685 4.46649 0
M  V30 12309 H 1161.27 -5.01943 2.60902 0
M  V30 12310 H 1159.83 -5.59607 3.34191 0
M  V30 12311 N 1163.26 -1.53291 -0.366026 0
M  V30 12312 C 1164.51 -1.69702 -1.11036 0
M  V30 12313 C 1164.84 -0.44728 -1.88979 0
M  V30 12314 O 1164.12 0.55542 -1.86401 0
M  V30 12315 C 1164.4 -2.94661 -2.06995 0
M  V30 12316 C 1164.25 -4.29791 -1.32663 0
M  V30 12317 C 1165.57 -3.15219 -3.07123 0
M  V30 12318 H 1162.69 -0.617525 -0.402284 0
M  V30 12319 H 1165.33 -1.85929 -0.391223 0
M  V30 12320 H 1163.48 -2.80958 -2.68318 0
M  V30 12321 H 1165.16 -4.55305 -0.741266 0
M  V30 12322 H 1163.4 -4.29223 -0.628484 0
M  V30 12323 H 1164.07 -5.13359 -2.02896 0
M  V30 12324 H 1166.55 -3.28105 -2.55903 0
M  V30 12325 H 1165.42 -4.04088 -3.71489 0
M  V30 12326 H 1165.68 -2.30479 -3.77269 0
M  V30 12327 N 1164.74 0.6258 -1.44643 0
M  V30 12328 C 1166.02 1.38439 -1.38181 0
M  V30 12329 C 1166.4 2.11056 -0.0431928 0
M  V30 12330 O 1165.75 2.06683 0.974383 0
M  V30 12331 C 1165.96 2.34639 -2.58352 0
M  V30 12332 C 1167.31 2.97807 -3.02649 0
M  V30 12333 O 1168.33 2.44963 -2.58595 0
M  V30 12334 O 1167.19 3.93682 -3.79048 0
M  V30 12335 H 1164.28 0.619852 -0.54746 0
M  V30 12336 H 1166.83 0.650409 -1.56741 0
M  V30 12337 H 1165.6 1.80116 -3.47382 0
M  V30 12338 H 1165.22 3.15446 -2.42032 0
M  V30 12339 N 1166.22 1.31629 0.866686 0
M  V30 12340 C 1167.47 1.21263 1.61678 0
M  V30 12341 C 1167.79 -0.228562 1.93656 0
M  V30 12342 O 1167.06 -1.15014 1.58583 0
M  V30 12343 H 1165.64 0.445817 0.59938 0
M  V30 12344 H 1168.3 1.64998 1.03739 0
M  V30 12345 H 1167.4 1.78669 2.55898 0
M  V30 12346 N 1167.7 -1.08142 1.14644 0
M  V30 12347 C 1168.61 -2.18675 0.849607 0
M  V30 12348 C 1169.63 -1.73158 -0.170983 0
M  V30 12349 O 1170.8 -2.014 0.0011579 0
M  V30 12350 C 1167.87 -3.45084 0.334305 0
M  V30 12351 C 1166.93 -4.05213 1.41779 0
M  V30 12352 C 1166.16 -5.25588 0.926981 0
M  V30 12353 O 1166.38 -5.69934 -0.230522 0
M  V30 12354 O 1165.32 -5.77183 1.70715 0
M  V30 12355 H 1169.14 -2.46542 1.77343 0
M  V30 12356 H 1166.73 -1.17328 0.924911 0
M  V30 12357 H 1168.61 -4.21367 0.0529893 0
M  V30 12358 H 1167.29 -3.18788 -0.561755 0
M  V30 12359 H 1166.19 -3.30507 1.7526 0
M  V30 12360 H 1167.53 -4.35764 2.28847 0
M  V30 12361 N 1169.18 -0.941978 -1.26351 0
M  V30 12362 C 1170.59 -0.632522 -1.75659 0
M  V30 12363 C 1170.94 0.852287 -1.76722 0
M  V30 12364 O 1170.06 1.66701 -1.37985 0
M  V30 12365 C 1170.66 -1.14145 -3.18993 0
M  V30 12366 C 1169.22 -0.882391 -3.65911 0
M  V30 12367 C 1168.37 -1.29189 -2.45368 0
M  V30 12368 H 1171.32 -1.12019 -1.12416 0
M  V30 12369 H 1171.34 -0.495639 -3.77258 0
M  V30 12370 H 1170.85 -2.22213 -3.18187 0
M  V30 12371 H 1168.95 0.183873 -3.72146 0
M  V30 12372 H 1169.06 -1.50996 -4.54683 0
M  V30 12373 H 1167.43 -0.710316 -2.44595 0
M  V30 12374 H 1168.21 -2.38152 -2.47262 0
M  V30 12375 N 1170.66 1.40747 -0.709091 0
M  V30 12376 C 1171.9 2.02864 -0.250145 0
M  V30 12377 C 1172.26 1.54993 1.13319 0
M  V30 12378 O 1173.46 2.09128 1.68876 0
M  V30 12379 C 1171.73 3.55964 -0.320114 0
M  V30 12380 S 1173.29 4.38755 0.0628008 0
M  V30 12381 H 1170.11 0.703975 -0.0996992 0
M  V30 12382 H 1172.71 1.7197 -0.92987 0
M  V30 12383 H 1171.41 3.88297 -1.32866 0
M  V30 12384 H 1170.95 3.91577 0.378308 0
M  V30 12385 H 1172.96 4.79226 1.28672 0
M  V30 12386 N 1172.13 0.454803 1.50895 0
M  V30 12387 C 1173.08 -0.347769 2.28165 0
M  V30 12388 C 1174.05 -1.00158 1.32505 0
M  V30 12389 O 1175.24 -1.01715 1.61427 0
M  V30 12390 C 1172.38 -1.43315 3.13934 0
M  V30 12391 C 1171.49 -0.795736 4.24608 0
M  V30 12392 C 1170.62 -1.85763 4.9766 0
M  V30 12393 C 1169.66 -1.19959 6.0023 0
M  V30 12394 N 1168.8 -2.20361 6.66622 0
M  V30 12395 H 1173.64 0.317493 2.96304 0
M  V30 12396 H 1171.18 0.168418 1.46133 0
M  V30 12397 H 1173.13 -2.07391 3.62001 0
M  V30 12398 H 1171.76 -2.0678 2.47875 0
M  V30 12399 H 1170.82 -0.0428173 3.80376 0
M  V30 12400 H 1172.13 -0.275477 4.98039 0
M  V30 12401 H 1171.28 -2.5746 5.49363 0
M  V30 12402 H 1170.02 -2.41166 4.23899 0
M  V30 12403 H 1169.03 -0.46817 5.47803 0
M  V30 12404 H 1170.25 -0.652666 6.75956 0
M  V30 12405 H 1168.2 -2.74812 5.95663 0
M  V30 12406 H 1168.11 -1.73275 7.35875 0
M  V30 12407 H 1169.38 -2.91488 7.22949 0
M  V30 12408 N 1173.61 -1.56489 0.186789 0
M  V30 12409 C 1174.54 -2.21705 -0.732739 0
M  V30 12410 C 1175.52 -1.17751 -1.22755 0
M  V30 12411 O 1176.71 -1.46231 -1.27789 0
M  V30 12412 C 1173.84 -2.86992 -1.95584 0
M  V30 12413 C 1172.79 -3.97118 -1.59628 0
M  V30 12414 C 1172.12 -4.49529 -2.89531 0
M  V30 12415 C 1173.42 -5.15941 -0.812518 0
M  V30 12416 H 1175.11 -2.98802 -0.189094 0
M  V30 12417 H 1172.66 -1.43722 -0.0895099 0
M  V30 12418 H 1174.61 -3.31295 -2.60426 0
M  V30 12419 H 1173.33 -2.07287 -2.52388 0
M  V30 12420 H 1171.99 -3.53494 -0.971475 0
M  V30 12421 H 1171.64 -3.66596 -3.44407 0
M  V30 12422 H 1171.34 -5.23832 -2.66221 0
M  V30 12423 H 1172.87 -4.96528 -3.55376 0
M  V30 12424 H 1174.28 -5.56841 -1.36386 0
M  V30 12425 H 1172.68 -5.96259 -0.677862 0
M  V30 12426 H 1173.75 -4.84535 0.188095 0
M  V30 12427 N 1175.09 0.086862 -1.5736 0
M  V30 12428 C 1176.05 1.08906 -2.01673 0
M  V30 12429 C 1177.05 1.32473 -0.911463 0
M  V30 12430 O 1178.24 1.28447 -1.17673 0
M  V30 12431 C 1175.37 2.43629 -2.38449 0
M  V30 12432 H 1176.57 0.707461 -2.91436 0
M  V30 12433 H 1174.12 0.332154 -1.5273 0
M  V30 12434 H 1174.86 2.8665 -1.51665 0
M  V30 12435 H 1174.64 2.2787 -3.19089 0
M  V30 12436 H 1176.13 3.15695 -2.73361 0
M  V30 12437 N 1176.57 1.53483 0.357892 0
M  V30 12438 C 1177.53 1.79782 1.42166 0
M  V30 12439 C 1178.53 0.668441 1.46248 0
M  V30 12440 O 1179.72 0.936677 1.46874 0
M  V30 12441 C 1176.85 1.92686 2.8122 0
M  V30 12442 H 1178.05 2.74794 1.20117 0
M  V30 12443 H 1175.6 1.44677 0.591468 0
M  V30 12444 H 1176.33 0.997669 3.08573 0
M  V30 12445 H 1176.12 2.74837 2.79655 0
M  V30 12446 H 1177.61 2.14599 3.58242 0
M  V30 12447 N 1178.05 -0.61812 1.44973 0
M  V30 12448 C 1179.27 -1.40921 1.52171 0
M  V30 12449 C 1179.7 -1.87487 0.151755 0
M  V30 12450 O 1179.05 -1.59518 -0.861606 0
M  V30 12451 C 1179.1 -2.59689 2.50188 0
M  V30 12452 O 1178.21 -3.59967 2.0124 0
M  V30 12453 H 1177.55 -0.421138 0.51336 0
M  V30 12454 H 1180.08 -0.753258 1.90229 0
M  V30 12455 H 1180.09 -3.07069 2.6865 0
M  V30 12456 H 1178.76 -2.25144 3.4969 0
M  V30 12457 H 1177.34 -3.19308 1.92605 0
M  V30 12458 N 1179.52 -1.32087 -0.859693 0
M  V30 12459 C 1180.94 -1.10968 -1.14709 0
M  V30 12460 C 1181.14 0.113139 -2.01182 0
M  V30 12461 O 1180.2 0.799499 -2.39508 0
M  V30 12462 C 1181.51 -2.38657 -1.8293 0
M  V30 12463 C 1183.06 -2.44366 -1.95587 0
M  V30 12464 C 1183.53 -3.71963 -2.67222 0
M  V30 12465 N 1185.02 -3.72916 -2.7475 0
M  V30 12466 C 1185.76 -4.68346 -3.30816 0
M  V30 12467 N 1185.25 -5.74139 -3.87732 0
M  V30 12468 N 1187.05 -4.55851 -3.28872 0
M  V30 12469 H 1179.2 -2.10497 -0.283711 0
M  V30 12470 H 1181.46 -0.929108 -0.188315 0
M  V30 12471 H 1181.17 -3.2803 -1.26844 0
M  V30 12472 H 1181.04 -2.49236 -2.83128 0
M  V30 12473 H 1183.43 -1.55456 -2.50833 0
M  V30 12474 H 1183.51 -2.37744 -0.944001 0
M  V30 12475 H 1183.15 -4.61245 -2.1264 0
M  V30 12476 H 1183.08 -3.75855 -3.68837 0
M  V30 12477 H 1185.57 -2.96447 -2.34367 0
M  V30 12478 H 1185.89 -6.43021 -4.28654 0
M  V30 12479 H 1184.23 -5.779 -3.86078 0
M  V30 12480 H 1187.42 -3.72371 -2.83651 0
M  V30 12481 H 1187.6 -5.30398 -3.72266 0
M  V30 12482 N 1181 1.07532 -1.15215 0
M  V30 12483 C 1182.25 1.79474 -0.920439 0
M  V30 12484 C 1182.56 1.87593 0.553926 0
M  V30 12485 O 1183.77 2.56037 0.903169 0
M  V30 12486 C 1182.23 3.22509 -1.59738 0
M  V30 12487 C 1181.83 3.22596 -3.10863 0
M  V30 12488 C 1183.58 3.99072 -1.44714 0
M  V30 12489 C 1181.48 4.60273 -3.71352 0
M  V30 12490 H 1180.41 0.672625 -0.340722 0
M  V30 12491 H 1183.07 1.2071 -1.38208 0
M  V30 12492 H 1181.45 3.81454 -1.06342 0
M  V30 12493 H 1182.62 2.73306 -3.70999 0
M  V30 12494 H 1180.94 2.5953 -3.25627 0
M  V30 12495 H 1183.53 5.00823 -1.87299 0
M  V30 12496 H 1183.88 4.14428 -0.394386 0
M  V30 12497 H 1184.41 3.46617 -1.95195 0
M  V30 12498 H 1181.15 4.50122 -4.76519 0
M  V30 12499 H 1180.67 5.09809 -3.15998 0
M  V30 12500 H 1182.35 5.29243 -3.7217 0
M  V30 12501 N 1182.48 0.948665 1.2585 0
M  V30 12502 C 1183.9 0.652147 1.45668 0
M  V30 12503 C 1184.1 -0.792217 1.85273 0
M  V30 12504 O 1183.15 -1.56812 1.97905 0
M  V30 12505 C 1184.47 1.61998 2.53332 0
M  V30 12506 C 1186.01 1.6305 2.67178 0
M  V30 12507 C 1186.49 2.58582 3.78021 0
M  V30 12508 N 1187.98 2.56911 3.85423 0
M  V30 12509 C 1188.71 3.27511 4.70664 0
M  V30 12510 N 1188.21 4.07563 5.60236 0
M  V30 12511 N 1190 3.16427 4.64576 0
M  V30 12512 H 1182.15 1.88215 0.984325 0
M  V30 12513 H 1184.42 0.809251 0.493778 0
M  V30 12514 H 1184.12 2.65137 2.31075 0
M  V30 12515 H 1184 1.37784 3.51134 0
M  V30 12516 H 1186.38 0.606315 2.88804 0
M  V30 12517 H 1186.47 1.9132 1.69795 0
M  V30 12518 H 1186.11 3.61122 3.57146 0
M  V30 12519 H 1186.04 2.27598 4.74875 0
M  V30 12520 H 1188.53 1.9879 3.21389 0
M  V30 12521 H 1188.84 4.58367 6.22189 0
M  V30 12522 H 1187.19 4.11662 5.59964 0
M  V30 12523 H 1190.38 2.53364 3.93604 0
M  V30 12524 H 1190.55 3.71714 5.30785 0
M  V30 12525 N 1183.96 -1.40369 0.716545 0
M  V30 12526 C 1185.21 -2.00101 0.253452 0
M  V30 12527 C 1185.52 -1.57471 -1.16027 0
M  V30 12528 O 1186.73 -2.09909 -1.72193 0
M  V30 12529 C 1185.18 -3.57645 0.402213 0
M  V30 12530 C 1184.79 -4.09248 1.82264 0
M  V30 12531 C 1186.53 -4.245 -3.88526e-05 0
M  V30 12532 C 1184.44 -5.59299 1.92193 0
M  V30 12533 H 1183.37 -0.748488 0.0910047 0
M  V30 12534 H 1186.02 -1.60595 0.887772 0
M  V30 12535 H 1184.4 -3.94857 -0.300706 0
M  V30 12536 H 1185.58 -3.83412 2.55601 0
M  V30 12537 H 1183.89 -3.54993 2.17644 0
M  V30 12538 H 1186.49 -5.34673 0.0534202 0
M  V30 12539 H 1186.83 -4.03046 -1.04208 0
M  V30 12540 H 1187.37 -3.92398 0.65336 0
M  V30 12541 H 1184.11 -5.85608 2.94522 0
M  V30 12542 H 1183.63 -5.86997 1.23268 0
M  V30 12543 H 1185.3 -6.24416 1.6945 0
M  V30 12544 N 1185.44 -0.462799 -1.50652 0
M  V30 12545 C 1186.4 0.324264 -2.26895 0
M  V30 12546 C 1187.4 0.927687 -1.31342 0
M  V30 12547 O 1188.59 0.798159 -1.54839 0
M  V30 12548 C 1185.72 1.46113 -3.08 0
M  V30 12549 H 1186.91 -0.344266 -2.97917 0
M  V30 12550 H 1184.47 -0.216631 -1.54791 0
M  V30 12551 H 1185.2 2.16496 -2.41454 0
M  V30 12552 H 1184.99 1.03433 -3.78212 0
M  V30 12553 H 1186.48 2.01655 -3.65684 0
M  V30 12554 N 1186.91 1.56388 -0.195085 0
M  V30 12555 C 1187.84 2.22091 0.720971 0
M  V30 12556 C 1188.83 1.184 1.22128 0
M  V30 12557 O 1190.01 1.46907 1.27012 0
M  V30 12558 C 1187.14 2.88025 1.94059 0
M  V30 12559 C 1186.09 3.97959 1.5752 0
M  V30 12560 C 1185.42 4.51058 2.87143 0
M  V30 12561 C 1186.72 5.16365 0.785145 0
M  V30 12562 H 1188.41 2.98898 0.173245 0
M  V30 12563 H 1185.96 1.43767 0.0818868 0
M  V30 12564 H 1187.91 3.32671 2.58666 0
M  V30 12565 H 1186.64 2.08623 2.51285 0
M  V30 12566 H 1185.3 3.54004 0.952715 0
M  V30 12567 H 1184.94 3.68418 3.42458 0
M  V30 12568 H 1184.64 5.25237 2.63439 0
M  V30 12569 H 1186.17 4.98406 3.52738 0
M  V30 12570 H 1187.58 5.57556 1.33431 0
M  V30 12571 H 1185.98 5.9661 0.646231 0
M  V30 12572 H 1187.05 4.84428 -0.213789 0
M  V30 12573 N 1188.39 -0.0785156 1.57404 0
M  V30 12574 C 1189.81 -0.433143 1.5361 0
M  V30 12575 C 1190.01 -1.79564 0.914283 0
M  V30 12576 O 1189.06 -2.47215 0.513899 0
M  V30 12577 C 1190.38 -0.380387 2.98284 0
M  V30 12578 C 1191.93 -0.461056 3.09586 0
M  V30 12579 C 1192.4 -0.438276 4.55898 0
M  V30 12580 N 1193.89 -0.498548 4.60509 0
M  V30 12581 C 1194.63 -0.503028 5.71189 0
M  V30 12582 N 1194.12 -0.462724 6.91253 0
M  V30 12583 N 1195.92 -0.549083 5.59412 0
M  V30 12584 H 1188.07 0.813724 1.96195 0
M  V30 12585 H 1190.33 0.304644 0.897717 0
M  V30 12586 H 1190.04 0.553932 3.4731 0
M  V30 12587 H 1189.91 -1.19313 3.57833 0
M  V30 12588 H 1192.3 -1.3858 2.60537 0
M  V30 12589 H 1192.38 0.380138 2.5296 0
M  V30 12590 H 1192.02 0.482588 5.05602 0
M  V30 12591 H 1191.95 -1.29691 5.1038 0
M  V30 12592 H 1194.44 -0.534219 3.74105 0
M  V30 12593 H 1194.76 -0.469883 7.7137 0
M  V30 12594 H 1193.1 -0.429515 6.93672 0
M  V30 12595 H 1196.29 -0.578215 4.64515 0
M  V30 12596 H 1196.46 -0.549105 6.45669 0
M  V30 12597 N 1189.87 -1.5367 -0.349747 0
M  V30 12598 C 1190.82 -1.81914 -1.44948 0
M  V30 12599 C 1191.81 -0.689218 -1.54745 0
M  V30 12600 O 1193.02 -0.872448 -1.57443 0
M  V30 12601 H 1189.39 -0.576234 -0.483176 0
M  V30 12602 H 1191.36 -2.73932 -1.18338 0
M  V30 12603 C 1190.11 -2.04005 -2.81562 0
M  V30 12604 H 1189.44 -2.90399 -2.74788 0
M  V30 12605 H 1190.88 -2.27737 -3.57648 0
M  V30 12606 C 1189.34 -0.823748 -3.26674 0
M  V30 12607 O 1189.87 -0.0201351 -4.01695 0
M  V30 12608 N 1188.07 -0.642716 -2.83403 0
M  V30 12609 H 1187.62 -1.29783 -2.22517 0
M  V30 12610 H 1187.58 0.169654 -3.13942 0
M  V30 12611 N 1191.35 0.610423 -1.45298 0
M  V30 12612 C 1192.28 1.73507 -1.4976 0
M  V30 12613 C 1193.29 1.58092 -0.38867 0
M  V30 12614 O 1194.48 1.66026 -0.655571 0
M  V30 12615 C 1191.58 3.11475 -1.33554 0
M  V30 12616 C 1190.76 3.53156 -2.5807 0
M  V30 12617 C 1189.81 4.70076 -2.36463 0
M  V30 12618 O 1188.84 4.77337 -3.10061 0
M  V30 12619 N 1190.04 5.63155 -1.40843 0
M  V30 12620 H 1192.81 1.70144 -2.46721 0
M  V30 12621 H 1190.37 0.79562 -1.41002 0
M  V30 12622 H 1192.36 3.87444 -1.16914 0
M  V30 12623 H 1190.93 3.09361 -0.448803 0
M  V30 12624 H 1190.15 2.67178 -2.89844 0
M  V30 12625 H 1191.44 3.77761 -3.40843 0
M  V30 12626 H 1190.84 5.60001 -0.800982 0
M  V30 12627 H 1189.39 6.38669 -1.30175 0
M  V30 12628 N 1192.83 1.32541 0.852676 0
M  V30 12629 C 1193.79 1.21578 1.94297 0
M  V30 12630 C 1194.79 0.138318 1.60204 0
M  V30 12631 O 1195.98 0.388864 1.69804 0
M  V30 12632 C 1193.11 0.870209 3.29606 0
M  V30 12633 H 1194.3 2.18476 2.05446 0
M  V30 12634 H 1191.86 1.16401 1.0431 0
M  V30 12635 H 1192.59 -0.0968698 3.24155 0
M  V30 12636 H 1192.38 1.64924 3.55728 0
M  V30 12637 H 1193.87 0.817874 4.09513 0
M  V30 12638 N 1194.3 -1.0692 1.15784 0
M  V30 12639 C 1195.53 -1.8331 0.959422 0
M  V30 12640 C 1195.95 -1.82268 -0.492332 0
M  V30 12641 O 1195.3 -1.23727 -1.34156 0
M  V30 12642 C 1195.36 -3.30202 1.47135 0
M  V30 12643 O 1195.08 -3.31328 2.86624 0
M  V30 12644 C 1196.58 -4.23346 1.31504 0
M  V30 12645 H 1193.8 -0.578202 0.340475 0
M  V30 12646 H 1196.34 -1.34939 1.53661 0
M  V30 12647 H 1194.5 -3.75908 0.936587 0
M  V30 12648 H 1194.91 -4.23135 3.0993 0
M  V30 12649 H 1196.38 -5.24465 1.72163 0
M  V30 12650 H 1196.86 -4.38431 0.259773 0
M  V30 12651 H 1197.47 -3.8348 1.83911 0
M  V30 12652 N 1195.78 -0.955326 -1.25345 0
M  V30 12653 C 1196.72 -0.420299 -2.24296 0
M  V30 12654 C 1197.69 0.498753 -1.54762 0
M  V30 12655 O 1198.88 0.432971 -1.8346 0
M  V30 12656 C 1196 0.394576 -3.36394 0
M  V30 12657 C 1195.05 -0.464973 -4.23958 0
M  V30 12658 S 1195.88 -1.89764 -5.00749 0
M  V30 12659 C 1197.04 -1.09121 -6.16314 0
M  V30 12660 H 1197.27 -1.25888 -2.69331 0
M  V30 12661 H 1194.81 -0.759449 -1.34431 0
M  V30 12662 H 1196.76 0.858788 -4.01416 0
M  V30 12663 H 1195.42 1.20799 -2.89942 0
M  V30 12664 H 1194.62 0.160055 -5.03746 0
M  V30 12665 H 1194.22 -0.864422 -3.63873 0
M  V30 12666 H 1196.51 -0.340218 -6.76645 0
M  V30 12667 H 1197.45 -1.86304 -6.83152 0
M  V30 12668 H 1197.86 -0.621033 -5.61073 0
M  V30 12669 N 1197.26 1.39987 -0.723979 0
M  V30 12670 C 1198.51 2.01028 -0.267511 0
M  V30 12671 C 1198.84 1.57295 1.13894 0
M  V30 12672 O 1198.12 0.796805 1.7743 0
M  V30 12673 C 1198.4 3.58326 -0.356971 0
M  V30 12674 C 1198.25 4.12109 -1.8024 0
M  V30 12675 C 1199.57 4.39289 0.267003 0
M  V30 12676 H 1196.69 0.730364 -0.0986775 0
M  V30 12677 H 1199.33 1.66348 -0.91806 0
M  V30 12678 H 1197.48 3.88001 0.196908 0
M  V30 12679 H 1199.15 3.93199 -2.41231 0
M  V30 12680 H 1197.4 3.66082 -2.32737 0
M  V30 12681 H 1198.07 5.21261 -1.81634 0
M  V30 12682 H 1200.54 4.15595 -0.20503 0
M  V30 12683 H 1199.42 5.48624 0.174004 0
M  V30 12684 H 1199.68 4.20931 1.35164 0
M  V30 12685 N 1198.74 0.470782 1.50404 0
M  V30 12686 C 1199.67 -0.359838 2.26358 0
M  V30 12687 C 1200.68 -0.95735 1.31676 0
M  V30 12688 O 1201.87 -0.84581 1.57189 0
M  V30 12689 C 1198.97 -1.51864 3.02969 0
M  V30 12690 C 1198.15 -1.03397 4.25003 0
M  V30 12691 C 1197.21 -2.06679 4.83911 0
M  V30 12692 O 1196.23 -1.64754 5.44835 0
M  V30 12693 N 1197.43 -3.39484 4.70883 0
M  V30 12694 H 1200.2 0.291299 2.98281 0
M  V30 12695 H 1197.76 0.301549 1.59067 0
M  V30 12696 H 1199.75 -2.2065 3.39258 0
M  V30 12697 H 1198.32 -2.07448 2.33846 0
M  V30 12698 H 1197.54 -0.172012 3.93825 0
M  V30 12699 H 1198.83 -0.68807 5.04126 0
M  V30 12700 H 1198.23 -3.76256 4.22431 0
M  V30 12701 H 1196.78 -4.04068 5.11441 0
M  V30 12702 N 1200.22 -1.56282 0.203376 0
M  V30 12703 C 1201.16 -2.19473 -0.714164 0
M  V30 12704 C 1202.13 -1.14454 -1.20372 0
M  V30 12705 O 1203.32 -1.42739 -1.26611 0
M  V30 12706 C 1200.46 -2.86451 -1.92457 0
M  V30 12707 C 1199.57 -4.06017 -1.47561 0
M  V30 12708 C 1198.71 -4.60829 -2.64216 0
M  V30 12709 C 1197.75 -5.72734 -2.15967 0
M  V30 12710 N 1196.88 -6.21916 -3.25829 0
M  V30 12711 H 1201.72 -2.97523 -0.168558 0
M  V30 12712 H 1199.26 -1.46926 -0.0714525 0
M  V30 12713 H 1201.22 -3.23459 -2.63496 0
M  V30 12714 H 1199.85 -2.10951 -2.44335 0
M  V30 12715 H 1198.9 -3.74617 -0.660784 0
M  V30 12716 H 1200.21 -4.8693 -1.08168 0
M  V30 12717 H 1199.37 -5.00185 -3.43366 0
M  V30 12718 H 1198.11 -3.7904 -3.06887 0
M  V30 12719 H 1197.11 -5.32899 -1.35273 0
M  V30 12720 H 1198.34 -6.56346 -1.74316 0
M  V30 12721 H 1196.28 -5.43047 -3.68016 0
M  V30 12722 H 1196.2 -6.97904 -2.90631 0
M  V30 12723 H 1197.47 -6.65927 -4.05168 0
M  V30 12724 N 1201.7 0.070167 -1.57444 0
M  V30 12725 C 1202.66 1.06761 -2.02817 0
M  V30 12726 C 1203.66 1.31498 -0.925462 0
M  V30 12727 O 1204.85 1.27192 -1.19029 0
M  V30 12728 C 1201.98 2.41086 -2.41019 0
M  V30 12729 H 1203.17 0.67651 -2.9217 0
M  V30 12730 H 1200.73 0.315936 -1.53074 0
M  V30 12731 H 1201.46 2.85025 -1.54697 0
M  V30 12732 H 1201.25 2.24472 -3.21488 0
M  V30 12733 H 1202.74 3.12778 -2.76694 0
M  V30 12734 N 1203.17 1.53854 0.341593 0
M  V30 12735 C 1204.12 1.81979 1.41959 0
M  V30 12736 C 1205.09 0.665616 1.5218 0
M  V30 12737 O 1206.28 0.910246 1.67688 0
M  V30 12738 C 1203.42 2.03681 2.78583 0
M  V30 12739 C 1202.53 3.31389 2.77137 0
M  V30 12740 C 1201.66 3.43148 4.05491 0
M  V30 12741 C 1200.7 4.64799 3.98282 0
M  V30 12742 N 1199.84 4.73581 5.18329 0
M  V30 12743 H 1204.68 2.73953 1.17275 0
M  V30 12744 H 1202.22 1.35689 0.568062 0
M  V30 12745 H 1204.17 2.14253 3.57983 0
M  V30 12746 H 1202.8 1.15017 3.01614 0
M  V30 12747 H 1201.86 3.29649 1.89832 0
M  V30 12748 H 1203.17 4.20885 2.67689 0
M  V30 12749 H 1202.32 3.53163 4.93316 0
M  V30 12750 H 1201.06 2.51712 4.17723 0
M  V30 12751 H 1200.07 4.54859 3.08842 0
M  V30 12752 H 1201.29 5.57601 3.87631 0
M  V30 12753 H 1199.24 3.85055 5.31102 0
M  V30 12754 H 1199.15 5.57016 5.11145 0
M  V30 12755 H 1200.42 4.87908 6.0792 0
M  V30 12756 N 1204.65 -0.602709 1.4562 0
M  V30 12757 C 1206.07 -0.923983 1.30133 0
M  V30 12758 C 1206.27 -1.99842 0.25796 0
M  V30 12759 O 1205.32 -2.50112 -0.346414 0
M  V30 12760 C 1206.64 -1.36029 2.68173 0
M  V30 12761 C 1208.18 -1.47423 2.76108 0
M  V30 12762 C 1208.66 -1.94427 4.14683 0
M  V30 12763 N 1210.15 -2.01653 4.17002 0
M  V30 12764 C 1210.89 -2.39255 5.211 0
M  V30 12765 N 1210.38 -2.75791 6.3554 0
M  V30 12766 N 1212.17 -2.39636 5.08459 0
M  V30 12767 H 1204.33 0.107377 2.12128 0
M  V30 12768 H 1206.59 -0.0146216 0.947887 0
M  V30 12769 H 1206.29 -0.644949 3.45736 0
M  V30 12770 H 1206.17 -2.32584 2.96959 0
M  V30 12771 H 1208.56 -2.18047 1.98845 0
M  V30 12772 H 1208.64 -0.4917 2.5103 0
M  V30 12773 H 1208.28 -1.24389 4.92433 0
M  V30 12774 H 1208.21 -2.93603 4.37156 0
M  V30 12775 H 1210.7 -1.75988 3.3442 0
M  V30 12776 H 1211.01 -3.03378 7.10761 0
M  V30 12777 H 1209.36 -2.73475 6.38934 0
M  V30 12778 H 1212.55 -2.10502 4.18098 0
M  V30 12779 H 1212.72 -2.68614 5.89704 0
M  V30 12780 N 1206.13 -1.32992 -0.845635 0
M  V30 12781 C 1207.55 -1.12179 -1.13526 0
M  V30 12782 C 1207.75 0.091795 -2.01291 0
M  V30 12783 O 1206.8 0.774051 -2.40343 0
M  V30 12784 C 1208.11 -2.40584 -1.80388 0
M  V30 12785 C 1209.66 -2.46427 -1.92984 0
M  V30 12786 C 1210.14 -3.74776 -2.63261 0
M  V30 12787 N 1211.63 -3.75809 -2.7078 0
M  V30 12788 C 1212.36 -4.71829 -3.2583 0
M  V30 12789 N 1211.86 -5.78219 -3.81621 0
M  V30 12790 N 1213.65 -4.59313 -3.24018 0
M  V30 12791 H 1205.8 -2.10786 -0.261369 0
M  V30 12792 H 1208.07 -0.931053 -0.17845 0
M  V30 12793 H 1207.77 -3.29357 -1.23357 0
M  V30 12794 H 1207.65 -2.52225 -2.80468 0
M  V30 12795 H 1210.03 -1.58108 -2.4917 0
M  V30 12796 H 1210.11 -2.38732 -0.918732 0
M  V30 12797 H 1209.76 -4.63474 -2.07736 0
M  V30 12798 H 1209.69 -3.79746 -3.6483 0
M  V30 12799 H 1212.18 -2.98916 -2.31209 0
M  V30 12800 H 1212.49 -6.47531 -4.2181 0
M  V30 12801 H 1210.84 -5.81962 -3.79927 0
M  V30 12802 H 1214.03 -3.75358 -2.79685 0
M  V30 12803 H 1214.2 -5.34316 -3.6662 0
M  V30 12804 N 1207.61 1.06304 -1.1635 0
M  V30 12805 C 1208.83 1.83338 -0.969639 0
M  V30 12806 C 1209.26 1.81945 0.477231 0
M  V30 12807 O 1208.62 1.22018 1.34094 0
M  V30 12808 C 1208.66 3.2785 -1.50155 0
M  V30 12809 O 1207.77 4.06281 -0.707805 0
M  V30 12810 H 1207.11 0.567293 -0.345072 0
M  V30 12811 H 1209.64 1.34033 -1.54584 0
M  V30 12812 H 1209.65 3.7867 -1.51898 0
M  V30 12813 H 1208.32 3.28179 -2.55483 0
M  V30 12814 H 1206.9 3.65055 -0.760872 0
M  V30 12815 N 1209.09 0.96196 1.24836 0
M  V30 12816 C 1210.05 0.492443 2.23847 0
M  V30 12817 C 1211.05 -0.40788 1.55541 0
M  V30 12818 O 1212.24 -0.204143 1.73 0
M  V30 12819 C 1209.37 -0.287578 3.39685 0
M  V30 12820 H 1210.56 1.36767 2.66899 0
M  V30 12821 H 1208.12 0.745967 1.3735 0
M  V30 12822 H 1208.85 -1.18015 3.02064 0
M  V30 12823 H 1208.64 0.358431 3.90458 0
M  V30 12824 H 1210.13 -0.605297 4.1319 0
M  V30 12825 N 1210.56 -1.39601 0.731392 0
M  V30 12826 C 1211.53 -2.28992 0.0976037 0
M  V30 12827 C 1212.53 -1.46135 -0.670917 0
M  V30 12828 O 1213.72 -1.66856 -0.50047 0
M  V30 12829 C 1210.85 -3.29582 -0.871124 0
M  V30 12830 H 1212.04 -2.86541 0.885112 0
M  V30 12831 H 1209.59 -1.48188 0.497002 0
M  V30 12832 H 1210.33 -2.77082 -1.68512 0
M  V30 12833 H 1210.11 -3.9077 -0.322735 0
M  V30 12834 H 1211.6 -3.96479 -1.31126 0
M  V30 12835 N 1212.04 -0.478751 -1.50152 0
M  V30 12836 C 1213.45 -0.0254907 -1.86683 0
M  V30 12837 C 1213.8 1.38171 -1.39295 0
M  V30 12838 O 1212.93 2.0257 -0.761207 0
M  V30 12839 C 1213.52 -0.0394819 -3.38777 0
M  V30 12840 C 1212.08 0.35834 -3.7469 0
M  V30 12841 C 1211.23 -0.421667 -2.74075 0
M  V30 12842 H 1214.18 -0.692653 -1.42787 0
M  V30 12843 H 1214.2 0.760957 -3.72813 0
M  V30 12844 H 1213.71 -1.06378 -3.73236 0
M  V30 12845 H 1211.82 1.38671 -3.45834 0
M  V30 12846 H 1211.93 0.0543589 -4.79069 0
M  V30 12847 H 1210.29 0.125634 -2.5439 0
M  V30 12848 H 1211.08 -1.44562 -3.11379 0
M  V30 12849 N 1213.52 1.56172 -0.211661 0
M  V30 12850 C 1214.45 2.22843 0.697375 0
M  V30 12851 C 1215.43 1.19689 1.20866 0
M  V30 12852 O 1216.62 1.48245 1.25447 0
M  V30 12853 C 1213.75 2.90067 1.90993 0
M  V30 12854 C 1212.7 3.99608 1.5329 0
M  V30 12855 C 1212.03 4.54078 2.82343 0
M  V30 12856 C 1213.33 5.17169 0.730333 0
M  V30 12857 H 1215.02 2.99065 0.141533 0
M  V30 12858 H 1212.57 1.43846 0.0666337 0
M  V30 12859 H 1214.52 3.35396 2.55123 0
M  V30 12860 H 1213.24 2.11276 2.49058 0
M  V30 12861 H 1211.9 3.54995 0.915115 0
M  V30 12862 H 1211.55 3.72029 3.38531 0
M  V30 12863 H 1211.25 5.28001 2.57853 0
M  V30 12864 H 1212.77 5.02119 3.47432 0
M  V30 12865 H 1214.19 5.5894 1.2751 0
M  V30 12866 H 1212.59 5.97262 0.582916 0
M  V30 12867 H 1213.66 4.84174 -0.265157 0
M  V30 12868 N 1215 -0.0618163 1.57479 0
M  V30 12869 C 1215.95 -1.07953 2.00824 0
M  V30 12870 C 1216.93 -1.33916 0.891924 0
M  V30 12871 O 1218.12 -1.3405 1.15584 0
M  V30 12872 C 1215.25 -2.39041 2.46403 0
M  V30 12873 C 1214.34 -2.16309 3.64789 0
M  V30 12874 N 1214.73 -1.63534 4.78634 0
M  V30 12875 C 1213.03 -2.46739 3.71531 0
M  V30 12876 C 1213.73 -1.55849 5.60434 0
M  V30 12877 N 1212.71 -2.02255 5.04573 0
M  V30 12878 H 1216.51 -0.66497 2.86278 0
M  V30 12879 H 1214.02 -0.268722 1.60161 0
M  V30 12880 H 1216.02 -3.12722 2.757 0
M  V30 12881 H 1214.68 -2.81204 1.6234 0
M  V30 12882 H 1215.69 -1.32258 5.00728 0
M  V30 12883 H 1212.37 -2.92201 2.98203 0
M  V30 12884 H 1213.76 -1.15814 6.61843 0
M  V30 12885 N 1216.48 -1.54033 -0.333429 0
M  V30 12886 C 1217.7 -1.76031 -1.09672 0
M  V30 12887 C 1218.13 -0.502844 -1.81254 0
M  V30 12888 O 1217.48 0.54509 -1.72912 0
M  V30 12889 C 1217.53 -2.947 -2.07809 0
M  V30 12890 O 1216.64 -2.65555 -3.15522 0
M  V30 12891 H 1215.98 -0.583611 -0.316692 0
M  V30 12892 H 1218.51 -2.01026 -0.380732 0
M  V30 12893 H 1218.52 -3.21771 -2.50853 0
M  V30 12894 H 1217.19 -3.85895 -1.55106 0
M  V30 12895 H 1215.77 -2.49403 -2.77223 0
M  V30 12896 N 1217.95 0.594978 -1.45938 0
M  V30 12897 C 1219.23 1.35477 -1.41086 0
M  V30 12898 C 1219.61 2.10917 -0.0879512 0
M  V30 12899 O 1218.96 2.08704 0.930323 0
M  V30 12900 C 1219.17 2.29106 -2.63271 0
M  V30 12901 C 1220.52 2.9132 -3.08898 0
M  V30 12902 O 1221.54 2.39423 -2.63733 0
M  V30 12903 O 1220.4 3.85553 -3.87313 0
M  V30 12904 H 1217.49 0.6081 -0.560485 0
M  V30 12905 H 1220.04 0.617016 -1.58085 0
M  V30 12906 H 1218.81 1.72707 -3.51124 0
M  V30 12907 H 1218.44 3.10241 -2.48669 0
M  V30 12908 N 1219.43 1.33438 0.838571 0
M  V30 12909 C 1220.36 1.19552 1.9555 0
M  V30 12910 C 1221.38 0.12642 1.62308 0
M  V30 12911 O 1222.57 0.376868 1.74476 0
M  V30 12912 C 1219.67 0.811273 3.29046 0
M  V30 12913 C 1218.84 1.97207 3.9042 0
M  V30 12914 C 1217.9 1.56875 5.02271 0
M  V30 12915 O 1216.92 2.28314 5.21403 0
M  V30 12916 N 1218.13 0.473924 5.78562 0
M  V30 12917 H 1220.89 2.15769 2.07999 0
M  V30 12918 H 1218.45 1.26187 1.01432 0
M  V30 12919 H 1220.44 0.523553 4.01299 0
M  V30 12920 H 1219.01 -0.0602291 3.12542 0
M  V30 12921 H 1218.23 2.4254 3.10754 0
M  V30 12922 H 1219.52 2.74878 4.28158 0
M  V30 12923 H 1218.92 -0.120306 5.65572 0
M  V30 12924 H 1217.48 0.245877 6.51336 0
M  V30 12925 N 1220.91 -1.05686 1.16912 0
M  V30 12926 C 1221.84 -2.1329 0.839044 0
M  V30 12927 C 1222.86 -1.62047 -0.156392 0
M  V30 12928 O 1224.04 -1.78366 0.0692192 0
M  V30 12929 C 1221.14 -3.38122 0.229558 0
M  V30 12930 C 1220.32 -4.18659 1.26662 0
M  V30 12931 C 1219.38 -5.21842 0.675811 0
M  V30 12932 O 1218.4 -5.53049 1.3463 0
M  V30 12933 N 1219.6 -5.78034 -0.534532 0
M  V30 12934 H 1222.37 -2.42203 1.76515 0
M  V30 12935 H 1219.93 -1.2174 1.06729 0
M  V30 12936 H 1221.92 -4.04305 -0.178868 0
M  V30 12937 H 1220.49 -3.06783 -0.60023 0
M  V30 12938 H 1219.71 -3.4804 1.85099 0
M  V30 12939 H 1221 -4.6927 1.9663 0
M  V30 12940 H 1220.4 -5.54955 -1.09731 0
M  V30 12941 H 1218.96 -6.45763 -0.885087 0
M  V30 12942 N 1222.39 -0.968567 -1.24324 0
M  V30 12943 C 1223.8 -0.66964 -1.74278 0
M  V30 12944 C 1224.15 0.81461 -1.7849 0
M  V30 12945 O 1223.28 1.63736 -1.4149 0
M  V30 12946 C 1223.87 -1.20885 -3.165 0
M  V30 12947 C 1222.43 -0.959808 -3.63957 0
M  V30 12948 C 1221.58 -1.34365 -2.42573 0
M  V30 12949 H 1224.53 -1.14379 -1.10015 0
M  V30 12950 H 1224.55 -0.57555 -3.76122 0
M  V30 12951 H 1224.06 -2.28912 -3.13402 0
M  V30 12952 H 1222.16 0.104894 -3.72452 0
M  V30 12953 H 1222.27 -1.60606 -4.51378 0
M  V30 12954 H 1220.64 -0.762039 -2.43033 0
M  V30 12955 H 1221.42 -2.43343 -2.42155 0
M  V30 12956 N 1223.87 1.39211 -0.738786 0
M  V30 12957 C 1225.11 2.00733 -0.288817 0
M  V30 12958 C 1225.45 1.58494 1.1222 0
M  V30 12959 O 1224.72 0.815579 1.76575 0
M  V30 12960 C 1225 3.57928 -0.394956 0
M  V30 12961 C 1224.86 4.10174 -1.84601 0
M  V30 12962 C 1226.18 4.39548 0.220395 0
M  V30 12963 H 1223.29 0.729276 -0.106418 0
M  V30 12964 H 1225.94 1.65365 -0.935652 0
M  V30 12965 H 1224.09 3.88188 0.155744 0
M  V30 12966 H 1225.76 3.90618 -2.45388 0
M  V30 12967 H 1224 3.63593 -2.36607 0
M  V30 12968 H 1224.67 5.19305 -1.87152 0
M  V30 12969 H 1227.15 4.15354 -0.249098 0
M  V30 12970 H 1226.02 5.48778 0.115806 0
M  V30 12971 H 1226.29 4.22341 1.30691 0
M  V30 12972 N 1225.34 0.486708 1.49896 0
M  V30 12973 C 1226.76 0.0353906 1.86666 0
M  V30 12974 C 1227.11 -1.3743 1.40026 0
M  V30 12975 O 1226.23 -2.02163 0.77194 0
M  V30 12976 C 1226.83 0.0574475 3.38751 0
M  V30 12977 C 1225.39 -0.338464 3.74875 0
M  V30 12978 C 1224.53 0.436196 2.73848 0
M  V30 12979 H 1227.48 0.700215 1.42417 0
M  V30 12980 H 1227.5 -0.741175 3.73212 0
M  V30 12981 H 1227.02 1.08356 3.72667 0
M  V30 12982 H 1225.12 -1.36835 3.46565 0
M  V30 12983 H 1225.23 -0.0289519 4.79091 0
M  V30 12984 H 1223.59 -0.112141 2.54453 0
M  V30 12985 H 1224.38 1.46212 3.10608 0
M  V30 12986 N 1226.82 -1.56058 0.219941 0
M  V30 12987 C 1227.73 -2.23844 -0.70222 0
M  V30 12988 C 1228.75 -1.24554 -1.215 0
M  V30 12989 O 1229.93 -1.57362 -1.25695 0
M  V30 12990 C 1226.99 -2.90384 -1.89416 0
M  V30 12991 C 1226.05 -4.05012 -1.42351 0
M  V30 12992 C 1225.28 -4.68369 -2.55863 0
M  V30 12993 O 1225.51 -4.3071 -3.73958 0
M  V30 12994 O 1224.44 -5.5739 -2.27157 0
M  V30 12995 H 1228.27 -3.03305 -0.15478 0
M  V30 12996 H 1225.85 -1.49396 -0.010438 0
M  V30 12997 H 1227.73 -3.32389 -2.59028 0
M  V30 12998 H 1226.41 -2.13883 -2.42973 0
M  V30 12999 H 1225.32 -3.67579 -0.695448 0
M  V30 13000 H 1226.65 -4.83251 -0.934332 0
M  V30 13001 N 1228.3 0.053464 -1.57509 0
M  V30 13002 C 1229.23 1.08863 -2.01696 0
M  V30 13003 C 1230.25 1.33916 -0.925765 0
M  V30 13004 O 1231.44 1.31833 -1.20343 0
M  V30 13005 C 1228.54 2.43567 -2.35644 0
M  V30 13006 C 1227.71 2.38215 -3.66841 0
M  V30 13007 C 1226.77 3.55172 -3.88252 0
M  V30 13008 O 1225.79 3.35769 -4.59617 0
M  V30 13009 N 1227 4.76182 -3.3201 0
M  V30 13010 H 1229.76 0.712192 -2.91115 0
M  V30 13011 H 1227.32 0.241829 -1.60084 0
M  V30 13012 H 1229.31 3.20486 -2.47125 0
M  V30 13013 H 1227.88 2.73145 -1.52022 0
M  V30 13014 H 1227.1 1.46557 -3.65943 0
M  V30 13015 H 1228.39 2.31757 -4.52953 0
M  V30 13016 H 1227.79 4.94849 -2.74118 0
M  V30 13017 H 1226.35 5.5055 -3.4891 0
M  V30 13018 N 1229.78 1.54207 0.325255 0
M  V30 13019 C 1230.71 1.86467 1.40543 0
M  V30 13020 C 1231.69 0.721324 1.54048 0
M  V30 13021 O 1232.88 0.974905 1.67956 0
M  V30 13022 C 1230.01 2.09052 2.77335 0
M  V30 13023 C 1228.96 3.24893 2.78619 0
M  V30 13024 C 1228.29 3.32846 4.1847 0
M  V30 13025 C 1229.59 4.62582 2.42518 0
M  V30 13026 H 1231.28 2.76932 1.13794 0
M  V30 13027 H 1228.83 1.33248 0.545971 0
M  V30 13028 H 1230.78 2.30204 3.52964 0
M  V30 13029 H 1229.5 1.15335 3.05558 0
M  V30 13030 H 1228.16 3.03625 2.05444 0
M  V30 13031 H 1227.81 2.3669 4.43832 0
M  V30 13032 H 1227.51 4.10701 4.20237 0
M  V30 13033 H 1229.03 3.56231 4.95915 0
M  V30 13034 H 1230.45 4.83627 3.07861 0
M  V30 13035 H 1228.84 5.42974 2.55538 0
M  V30 13036 H 1229.91 4.64946 1.3767 0
M  V30 13037 N 1231.26 -0.58723 1.46251 0
M  V30 13038 C 1232.67 -0.910129 1.31106 0
M  V30 13039 C 1232.87 -1.99557 0.279141 0
M  V30 13040 O 1231.93 -2.50466 -0.319867 0
M  V30 13041 C 1233.24 -1.33177 2.69601 0
M  V30 13042 C 1234.79 -1.44486 2.77656 0
M  V30 13043 C 1235.27 -1.90018 4.16722 0
M  V30 13044 N 1236.76 -1.97219 4.19117 0
M  V30 13045 C 1237.49 -2.33714 5.23608 0
M  V30 13046 N 1236.99 -2.69034 6.3843 0
M  V30 13047 N 1238.78 -2.3423 5.10972 0
M  V30 13048 H 1230.93 0.12987 2.12003 0
M  V30 13049 H 1233.19 -0.00456718 0.947989 0
M  V30 13050 H 1232.9 -0.608243 3.464 0
M  V30 13051 H 1232.77 -2.29421 2.99409 0
M  V30 13052 H 1235.16 -2.15926 2.01147 0
M  V30 13053 H 1235.24 -0.465047 2.51537 0
M  V30 13054 H 1234.89 -1.19159 4.93724 0
M  V30 13055 H 1234.82 -2.88949 4.40245 0
M  V30 13056 H 1237.31 -1.72431 3.36268 0
M  V30 13057 H 1237.62 -2.95822 7.13939 0
M  V30 13058 H 1235.97 -2.66683 6.41798 0
M  V30 13059 H 1239.16 -2.06056 4.20308 0
M  V30 13060 H 1239.33 -2.62345 5.92519 0
M  V30 13061 N 1232.74 -1.33881 -0.831482 0
M  V30 13062 C 1233.98 -1.251 -1.58218 0
M  V30 13063 C 1234.3 0.17963 -1.94773 0
M  V30 13064 O 1235.5 0.389516 -2.68691 0
M  V30 13065 C 1233.96 -2.19246 -2.8541 0
M  V30 13066 C 1233.57 -3.6752 -2.5619 0
M  V30 13067 C 1235.31 -2.19355 -3.63433 0
M  V30 13068 C 1233.22 -4.53559 -3.79523 0
M  V30 13069 H 1232.15 -0.46469 -0.593784 0
M  V30 13070 H 1234.8 -1.58992 -0.916169 0
M  V30 13071 H 1233.18 -1.78295 -3.53591 0
M  V30 13072 H 1234.36 -4.16956 -1.96173 0
M  V30 13073 H 1232.67 -3.69774 -1.91458 0
M  V30 13074 H 1235.27 -2.80863 -4.54995 0
M  V30 13075 H 1235.61 -1.19056 -3.98913 0
M  V30 13076 H 1236.14 -2.58706 -3.02185 0
M  V30 13077 H 1232.88 -5.54762 -3.4917 0
M  V30 13078 H 1232.4 -4.08862 -4.38853 0
M  V30 13079 H 1234.08 -4.67736 -4.47025 0
M  V30 13080 N 1234.21 1.05064 -1.1747 0
M  V30 13081 C 1235.15 2.12842 -0.850344 0
M  V30 13082 C 1236.16 1.62128 0.147796 0
M  V30 13083 O 1237.35 1.78327 -0.0786774 0
M  V30 13084 C 1234.45 3.37995 -0.247486 0
M  V30 13085 C 1233.62 4.17981 -1.28881 0
M  V30 13086 C 1232.68 5.21476 -0.703476 0
M  V30 13087 O 1231.71 5.52327 -1.37561 0
M  V30 13088 N 1232.91 5.78309 0.50387 0
M  V30 13089 H 1235.67 2.41264 -1.77797 0
M  V30 13090 H 1233.23 1.21172 -1.07373 0
M  V30 13091 H 1235.23 4.04394 0.157424 0
M  V30 13092 H 1233.8 3.07097 0.583952 0
M  V30 13093 H 1233.02 3.47054 -1.86942 0
M  V30 13094 H 1234.3 4.6822 -1.99116 0
M  V30 13095 H 1233.7 5.5553 1.06787 0
M  V30 13096 H 1232.26 6.46223 0.850828 0
M  V30 13097 N 1235.69 0.975146 1.23809 0
M  V30 13098 C 1236.94 0.642074 1.92367 0
M  V30 13099 C 1237.27 -0.82164 1.75962 0
M  V30 13100 O 1236.55 -1.59205 1.11732 0
M  V30 13101 C 1236.83 1.02677 3.45151 0
M  V30 13102 C 1236.68 2.54773 3.7069 0
M  V30 13103 C 1238 0.5668 4.36435 0
M  V30 13104 H 1235.12 0.234735 0.698619 0
M  V30 13105 H 1237.76 1.21549 1.46034 0
M  V30 13106 H 1235.91 0.538846 3.84745 0
M  V30 13107 H 1237.58 3.11099 3.4061 0
M  V30 13108 H 1235.83 2.97641 3.15583 0
M  V30 13109 H 1236.5 2.7674 4.77618 0
M  V30 13110 H 1238.97 0.985635 4.04258 0
M  V30 13111 H 1237.85 0.864458 5.4205 0
M  V30 13112 H 1238.11 -0.532989 4.38875 0
M  V30 13113 N 1237.17 -1.38817 0.746158 0
M  V30 13114 C 1238.39 -2.05096 0.308302 0
M  V30 13115 C 1238.82 -1.55902 -1.05244 0
M  V30 13116 O 1238.18 -0.707685 -1.66918 0
M  V30 13117 C 1238.23 -3.59068 0.332016 0
M  V30 13118 O 1237.33 -4.06813 -0.676547 0
M  V30 13119 H 1236.67 -0.649523 0.1379 0
M  V30 13120 H 1239.2 -1.77637 1.0152 0
M  V30 13121 H 1239.21 -4.07601 0.180293 0
M  V30 13122 H 1237.89 -3.94234 1.32487 0
M  V30 13123 H 1236.46 -3.69666 -0.490046 0
M  V30 13124 N 1238.65 -0.49465 -1.49636 0
M  V30 13125 C 1240.06 -0.150217 -1.58892 0
M  V30 13126 C 1240.26 1.34485 -1.50053 0
M  V30 13127 O 1239.32 2.12026 -1.37118 0
M  V30 13128 C 1240.63 -0.721372 -2.91919 0
M  V30 13129 C 1242.18 -0.686908 -3.0537 0
M  V30 13130 C 1242.66 -1.23601 -4.41006 0
M  V30 13131 N 1244.15 -1.19644 -4.47481 0
M  V30 13132 C 1244.88 -1.59157 -5.50869 0
M  V30 13133 N 1244.38 -2.06232 -6.61393 0
M  V30 13134 N 1246.17 -1.50612 -5.41546 0
M  V30 13135 H 1238.32 -1.46675 -1.53624 0
M  V30 13136 H 1240.58 -0.608003 -0.727349 0
M  V30 13137 H 1240.29 -1.76964 -3.03935 0
M  V30 13138 H 1240.16 -0.178199 -3.76779 0
M  V30 13139 H 1242.55 0.352508 -2.92987 0
M  V30 13140 H 1242.63 -1.26716 -2.22209 0
M  V30 13141 H 1242.28 -2.27418 -4.5414 0
M  V30 13142 H 1242.21 -0.631765 -5.22797 0
M  V30 13143 H 1244.7 -0.851443 -3.68183 0
M  V30 13144 H 1245.01 -2.34469 -7.36372 0
M  V30 13145 H 1243.36 -2.10202 -6.6245 0
M  V30 13146 H 1246.55 -1.13659 -4.54092 0
M  V30 13147 H 1246.72 -1.8173 -6.21995 0
M  V30 13148 N 1240.13 1.55939 -0.228214 0
M  V30 13149 C 1241.37 1.9877 0.402272 0
M  V30 13150 C 1241.7 1.11587 1.5894 0
M  V30 13151 O 1240.98 0.175032 1.93711 0
M  V30 13152 C 1241.26 3.50396 0.830353 0
M  V30 13153 C 1241.12 4.4835 -0.360876 0
M  V30 13154 C 1242.43 4.06602 1.68413 0
M  V30 13155 H 1239.55 0.722646 0.144746 0
M  V30 13156 H 1242.2 1.87186 -0.325784 0
M  V30 13157 H 1240.35 3.60398 1.4507 0
M  V30 13158 H 1242.02 4.5035 -0.999113 0
M  V30 13159 H 1240.26 4.21946 -1.00719 0
M  V30 13160 H 1240.93 5.51997 -0.0183074 0
M  V30 13161 H 1243.41 3.99585 1.16064 0
M  V30 13162 H 1242.28 5.12998 1.95254 0
M  V30 13163 H 1242.54 3.53897 2.64971 0
M  V30 13164 N 1241.6 -0.0451101 1.57535 0
M  V30 13165 C 1242.83 -0.755068 1.93167 0
M  V30 13166 C 1243.25 -1.68949 0.826915 0
M  V30 13167 O 1242.61 -1.79978 -0.218534 0
M  V30 13168 C 1242.66 -1.50201 3.27829 0
M  V30 13169 O 1241.76 -2.61434 3.18945 0
M  V30 13170 H 1241.11 -0.204219 0.631815 0
M  V30 13171 H 1243.64 -0.00537504 2.04599 0
M  V30 13172 H 1243.65 -1.87547 3.6234 0
M  V30 13173 H 1242.32 -0.816591 4.07805 0
M  V30 13174 H 1240.9 -2.26749 2.96039 0
M  V30 13175 N 1243.08 -1.54377 -0.317073 0
M  V30 13176 C 1244.02 -1.7907 -1.41453 0
M  V30 13177 C 1244.99 -0.641012 -1.49432 0
M  V30 13178 O 1246.18 -0.879179 -1.66741 0
M  V30 13179 C 1243.3 -1.91307 -2.79498 0
M  V30 13180 C 1242.35 -3.13639 -2.8902 0
M  V30 13181 S 1243.18 -4.72093 -2.52762 0
M  V30 13182 C 1244.34 -4.87245 -3.92866 0
M  V30 13183 H 1244.57 -2.71875 -1.20296 0
M  V30 13184 H 1242.11 -1.45583 -0.514279 0
M  V30 13185 H 1244.06 -1.99043 -3.59015 0
M  V30 13186 H 1242.72 -0.994687 -2.97934 0
M  V30 13187 H 1241.92 -3.18955 -3.90235 0
M  V30 13188 H 1241.52 -3.04266 -2.17481 0
M  V30 13189 H 1243.81 -4.7028 -4.87691 0
M  V30 13190 H 1244.75 -5.89344 -3.92529 0
M  V30 13191 H 1245.16 -4.15504 -3.82122 0
M  V30 13192 N 1244.56 0.579466 -1.4656 0
M  V30 13193 C 1245.51 1.68327 -1.53785 0
M  V30 13194 C 1246.49 1.55887 -0.398512 0
M  V30 13195 O 1247.69 1.64746 -0.647119 0
M  V30 13196 C 1244.82 3.07113 -1.53416 0
M  V30 13197 C 1243.9 3.24839 -2.72655 0
M  V30 13198 N 1244.29 3.12711 -3.97549 0
M  V30 13199 C 1242.59 3.55786 -2.68947 0
M  V30 13200 C 1243.29 3.32528 -4.77284 0
M  V30 13201 N 1242.27 3.57834 -4.09214 0
M  V30 13202 H 1246.07 1.57486 -2.48144 0
M  V30 13203 H 1243.58 0.783591 -1.42245 0
M  V30 13204 H 1245.58 3.86338 -1.5668 0
M  V30 13205 H 1244.24 3.19083 -0.601365 0
M  V30 13206 H 1245.25 2.90508 -4.28749 0
M  V30 13207 H 1241.93 3.7442 -1.84705 0
M  V30 13208 H 1243.32 3.28308 -5.86228 0
M  V30 13209 N 1246.04 1.3432 0.824371 0
M  V30 13210 C 1247.32 1.17178 1.56616 0
M  V30 13211 C 1247.7 -0.256195 2.0954 0
M  V30 13212 O 1247.04 -1.25732 1.90798 0
M  V30 13213 C 1247.25 2.22511 2.68867 0
M  V30 13214 C 1248.6 2.57414 3.37673 0
M  V30 13215 O 1249.63 2.2129 2.79122 0
M  V30 13216 O 1248.48 3.19462 4.43403 0
M  V30 13217 H 1245.58 0.454141 0.691147 0
M  V30 13218 H 1248.12 1.45948 0.865869 0
M  V30 13219 H 1246.9 3.18366 2.27505 0
M  V30 13220 H 1246.52 1.9491 3.46548 0
M  V30 13221 N 1247.52 -1.0444 1.18026 0
M  V30 13222 C 1248.75 -1.80971 0.996642 0
M  V30 13223 C 1249.15 -1.83568 -0.458192 0
M  V30 13224 O 1248.5 -1.26713 -1.33002 0
M  V30 13225 C 1248.56 -3.28051 1.47048 0
M  V30 13226 C 1248.22 -3.49122 2.94895 0
M  V30 13227 C 1249.22 -3.40621 3.92777 0
M  V30 13228 C 1246.91 -3.7584 3.33241 0
M  V30 13229 C 1248.9 -3.58535 5.27002 0
M  V30 13230 C 1246.59 -3.93402 4.6763 0
M  V30 13231 C 1247.58 -3.84749 5.6432 0
M  V30 13232 O 1247.27 -4.01813 6.96277 0
M  V30 13233 H 1247 -0.576873 0.352411 0
M  V30 13234 H 1249.56 -1.32542 1.56913 0
M  V30 13235 H 1247.79 -3.77431 0.841609 0
M  V30 13236 H 1249.48 -3.8613 1.25135 0
M  V30 13237 H 1250.24 -3.19948 3.64497 0
M  V30 13238 H 1246.12 -3.81674 2.58545 0
M  V30 13239 H 1249.67 -3.51698 6.02457 0
M  V30 13240 H 1245.56 -4.13568 4.95613 0
M  V30 13241 H 1246.33 -4.18995 7.03126 0
M  V30 13242 N 1248.99 -0.981699 -1.2329 0
M  V30 13243 C 1249.9 -0.531296 -2.28505 0
M  V30 13244 C 1250.92 0.414531 -1.6899 0
M  V30 13245 O 1252.1 0.284129 -1.99386 0
M  V30 13246 C 1249.16 0.157864 -3.4634 0
M  V30 13247 C 1248.22 -0.829527 -4.21209 0
M  V30 13248 C 1247.46 -0.17316 -5.33419 0
M  V30 13249 O 1247.68 1.03549 -5.60922 0
M  V30 13250 O 1246.61 -0.872385 -5.95544 0
M  V30 13251 H 1250.44 -1.40633 -2.69177 0
M  V30 13252 H 1248.02 -0.749395 -1.29246 0
M  V30 13253 H 1249.91 0.544394 -4.17869 0
M  V30 13254 H 1248.58 1.00764 -3.07617 0
M  V30 13255 H 1247.49 -1.26678 -3.51999 0
M  V30 13256 H 1248.82 -1.64815 -4.63785 0
M  V30 13257 N 1250.47 1.3842 -0.753509 0
M  V30 13258 C 1251.44 2.28808 -0.134022 0
M  V30 13259 C 1252.44 1.47184 0.647583 0
M  V30 13260 O 1253.63 1.67631 0.473861 0
M  V30 13261 C 1250.76 3.30926 0.81858 0
M  V30 13262 H 1251.95 2.85097 -0.930586 0
M  V30 13263 H 1249.5 1.47378 -0.520514 0
M  V30 13264 H 1250.24 2.79728 1.64082 0
M  V30 13265 H 1250.02 3.91234 0.260526 0
M  V30 13266 H 1251.51 3.98515 1.24802 0
M  V30 13267 N 1251.95 0.502579 1.49372 0
M  V30 13268 C 1252.88 -0.264307 2.31999 0
M  V30 13269 C 1253.86 -0.96107 1.40348 0
M  V30 13270 O 1255.05 -0.952167 1.69255 0
M  V30 13271 C 1252.18 -1.32822 3.20898 0
M  V30 13272 C 1251.13 -0.751236 4.21355 0
M  V30 13273 C 1250.46 -1.91578 4.99201 0
M  V30 13274 C 1251.76 0.258764 5.21659 0
M  V30 13275 H 1253.45 0.425391 2.96363 0
M  V30 13276 H 1251 0.206022 1.42519 0
M  V30 13277 H 1252.95 -1.87245 3.77515 0
M  V30 13278 H 1251.67 -2.04712 2.54481 0
M  V30 13279 H 1250.33 -0.228743 3.65886 0
M  V30 13280 H 1249.98 -2.62241 4.2923 0
M  V30 13281 H 1249.68 -1.53578 5.67175 0
M  V30 13282 H 1251.2 -2.46432 5.58663 0
M  V30 13283 H 1252.62 -0.197385 5.7296 0
M  V30 13284 H 1251.02 0.554681 5.97531 0
M  V30 13285 H 1252.09 1.1741 4.70471 0
M  V30 13286 N 1253.43 -1.55816 0.23648 0
M  V30 13287 C 1254.38 -2.17588 -0.681145 0
M  V30 13288 C 1255.36 -1.12862 -1.14678 0
M  V30 13289 O 1256.55 -1.38805 -1.09829 0
M  V30 13290 C 1253.68 -2.87086 -1.88246 0
M  V30 13291 C 1252.77 -3.99056 -1.43581 0
M  V30 13292 N 1253.16 -5.00895 -0.702704 0
M  V30 13293 C 1251.46 -4.11419 -1.72192 0
M  V30 13294 C 1252.16 -5.79775 -0.472866 0
M  V30 13295 N 1251.14 -5.33675 -1.034 0
M  V30 13296 H 1254.94 -2.93684 -0.112772 0
M  V30 13297 H 1252.45 -1.62355 0.0383551 0
M  V30 13298 H 1254.45 -3.29761 -2.55075 0
M  V30 13299 H 1253.11 -2.1249 -2.45516 0
M  V30 13300 H 1254.12 -5.1669 -0.353865 0
M  V30 13301 H 1250.8 -3.47987 -2.30676 0
M  V30 13302 H 1252.19 -6.71807 0.111664 0
M  V30 13303 N 1254.91 0.036755 -1.57557 0
M  V30 13304 C 1256.14 0.740011 -1.92892 0
M  V30 13305 C 1256.54 1.69828 -0.833964 0
M  V30 13306 O 1255.89 1.82619 0.198974 0
M  V30 13307 C 1255.95 1.55827 -3.23972 0
M  V30 13308 C 1255.61 0.765613 -4.50541 0
M  V30 13309 C 1256.61 0.0692686 -5.19854 0
M  V30 13310 C 1254.3 0.722425 -4.97078 0
M  V30 13311 C 1256.29 -0.659649 -6.33977 0
M  V30 13312 C 1253.98 -0.0102431 -6.11099 0
M  V30 13313 C 1254.97 -0.700047 -6.79403 0
M  V30 13314 O 1254.66 -1.42084 -7.91244 0
M  V30 13315 H 1254.39 0.213496 -0.641401 0
M  V30 13316 H 1256.95 0.000665152 -2.054 0
M  V30 13317 H 1255.18 2.34125 -3.0777 0
M  V30 13318 H 1256.87 2.14343 -3.44691 0
M  V30 13319 H 1257.63 0.0937148 -4.84909 0
M  V30 13320 H 1253.51 1.24883 -4.43763 0
M  V30 13321 H 1257.06 -1.19861 -6.87226 0
M  V30 13322 H 1252.95 -0.0366395 -6.4549 0
M  V30 13323 H 1253.72 -1.33372 -8.07561 0
M  V30 13324 N 1256.39 1.54543 0.308881 0
M  V30 13325 C 1257.66 1.64118 1.06418 0
M  V30 13326 C 1258.04 0.484402 2.05467 0
M  V30 13327 O 1257.39 -0.519752 2.2251 0
M  V30 13328 C 1257.6 3.01776 1.75306 0
M  V30 13329 C 1258.95 3.58324 2.27792 0
M  V30 13330 O 1259.97 3.04177 1.85351 0
M  V30 13331 O 1258.83 4.53113 3.05533 0
M  V30 13332 H 1255.93 0.665172 0.491401 0
M  V30 13333 H 1258.47 1.66889 0.307598 0
M  V30 13334 H 1257.24 3.77407 1.03341 0
M  V30 13335 H 1256.87 3.02748 2.57739 0
M  V30 13336 N 1257.86 -0.571685 1.46866 0
M  V30 13337 C 1258.81 -1.67992 1.58263 0
M  V30 13338 C 1259.78 -1.60535 0.426345 0
M  V30 13339 O 1260.97 -1.79584 0.644534 0
M  V30 13340 C 1258.11 -3.06327 1.58927 0
M  V30 13341 C 1257.22 -3.24328 2.85369 0
M  V30 13342 C 1256.35 -4.52976 2.77464 0
M  V30 13343 C 1255.39 -4.64359 3.98795 0
M  V30 13344 N 1254.53 -5.84345 3.89211 0
M  V30 13345 H 1259.37 -1.57589 2.52922 0
M  V30 13346 H 1256.91 -0.767883 1.25467 0
M  V30 13347 H 1258.86 -3.86411 1.57296 0
M  V30 13348 H 1257.49 -3.15601 0.677912 0
M  V30 13349 H 1256.55 -2.37774 2.96931 0
M  V30 13350 H 1257.86 -3.28605 3.7526 0
M  V30 13351 H 1257.01 -5.41303 2.74001 0
M  V30 13352 H 1255.75 -4.51155 1.85231 0
M  V30 13353 H 1254.76 -3.74448 4.02578 0
M  V30 13354 H 1255.98 -4.6795 4.92137 0
M  V30 13355 H 1253.93 -5.835 2.99772 0
M  V30 13356 H 1253.84 -5.89938 4.72768 0
M  V30 13357 H 1255.11 -6.75072 3.89741 0
M  V30 13358 N 1259.34 -1.34755 -0.817236 0
M  V30 13359 C 1260.25 -1.28888 -1.96023 0
M  V30 13360 C 1261.27 -0.195582 -1.72897 0
M  V30 13361 O 1262.44 -0.423071 -1.96906 0
M  V30 13362 C 1259.51 -1.04985 -3.30423 0
M  V30 13363 C 1258.57 -2.23526 -3.66517 0
M  V30 13364 C 1257.8 -2.00753 -4.94504 0
M  V30 13365 O 1258.03 -0.968622 -5.62116 0
M  V30 13366 O 1256.96 -2.87848 -5.28608 0
M  V30 13367 H 1260.79 -2.25059 -2.03917 0
M  V30 13368 H 1258.37 -1.15019 -0.953467 0
M  V30 13369 H 1260.25 -0.934589 -4.10906 0
M  V30 13370 H 1258.93 -0.118582 -3.23483 0
M  V30 13371 H 1257.83 -2.40613 -2.86455 0
M  V30 13372 H 1259.17 -3.15062 -3.78149 0
M  V30 13373 N 1260.82 1.03812 -1.18578 0
M  V30 13374 C 1261.75 2.11928 -0.872871 0
M  V30 13375 C 1262.76 1.62275 0.130592 0
M  V30 13376 O 1263.95 1.78233 -0.0975869 0
M  V30 13377 C 1261.05 3.37714 -0.283321 0
M  V30 13378 C 1260.23 4.16591 -1.33307 0
M  V30 13379 C 1259.29 5.20701 -0.758746 0
M  V30 13380 O 1258.31 5.50837 -1.43412 0
M  V30 13381 N 1259.51 5.78811 0.442505 0
M  V30 13382 H 1262.28 2.39364 -1.80346 0
M  V30 13383 H 1259.84 1.20027 -1.08652 0
M  V30 13384 H 1261.83 4.04538 0.114524 0
M  V30 13385 H 1260.4 3.07699 0.551347 0
M  V30 13386 H 1259.62 3.45051 -1.90613 0
M  V30 13387 H 1260.91 4.66082 -2.04071 0
M  V30 13388 H 1260.31 5.56631 1.00889 0
M  V30 13389 H 1258.86 6.47089 0.78224 0
M  V30 13390 N 1262.3 0.988223 1.22768 0
M  V30 13391 C 1263.23 0.554478 2.26821 0
M  V30 13392 C 1264.21 -0.416293 1.64927 0
M  V30 13393 O 1265.39 -0.30795 1.91743 0
M  V30 13394 C 1262.52 -0.136266 3.47033 0
M  V30 13395 C 1261.48 0.752575 4.21332 0
M  V30 13396 C 1260.8 -0.0708236 5.34653 0
M  V30 13397 C 1262.1 2.04717 4.80508 0
M  V30 13398 H 1263.8 1.42423 2.63355 0
M  V30 13399 H 1261.34 0.686267 1.26595 0
M  V30 13400 H 1263.3 -0.451068 4.18979 0
M  V30 13401 H 1262.02 -1.04053 3.09581 0
M  V30 13402 H 1260.68 1.05095 3.51213 0
M  V30 13403 H 1260.33 -0.975859 4.93443 0
M  V30 13404 H 1260.03 0.520835 5.85287 0
M  V30 13405 H 1261.55 -0.379828 6.09417 0
M  V30 13406 H 1262.97 1.79663 5.44421 0
M  V30 13407 H 1261.36 2.58726 5.41462 0
M  V30 13408 H 1262.43 2.72896 4.00819 0
M  V30 13409 N 1263.78 -1.38018 0.760839 0
M  V30 13410 C 1264.72 -2.30387 0.13796 0
M  V30 13411 C 1265.69 -1.50548 -0.701754 0
M  V30 13412 O 1266.88 -1.79154 -0.656381 0
M  V30 13413 C 1264.02 -3.36993 -0.743642 0
M  V30 13414 C 1263.13 -4.31856 0.111489 0
M  V30 13415 C 1262.27 -5.25534 -0.773796 0
M  V30 13416 C 1261.3 -6.12042 0.0845311 0
M  V30 13417 N 1260.44 -6.97995 -0.758118 0
M  V30 13418 H 1265.28 -2.83077 0.931212 0
M  V30 13419 H 1262.82 -1.39361 0.470833 0
M  V30 13420 H 1264.78 -3.97417 -1.26948 0
M  V30 13421 H 1263.41 -2.85695 -1.50261 0
M  V30 13422 H 1262.46 -3.72832 0.755031 0
M  V30 13423 H 1263.77 -4.92758 0.774042 0
M  V30 13424 H 1262.92 -5.9111 -1.36653 0
M  V30 13425 H 1261.66 -4.65017 -1.47006 0
M  V30 13426 H 1260.67 -5.45455 0.689883 0
M  V30 13427 H 1261.89 -6.74629 0.777966 0
M  V30 13428 H 1259.84 -6.40018 -1.4392 0
M  V30 13429 H 1259.76 -7.55846 -0.152623 0
M  V30 13430 H 1261.02 -7.67973 -1.33559 0
M  V30 13431 N 1265.25 -0.510493 -1.49103 0
M  V30 13432 C 1266.16 0.267176 -2.33074 0
M  V30 13433 C 1267.18 0.958117 -1.45245 0
M  V30 13434 O 1268.36 0.937399 -1.78255 0
M  V30 13435 C 1265.42 1.31212 -3.20911 0
M  V30 13436 C 1264.48 0.633613 -4.24598 0
M  V30 13437 C 1263.71 1.62878 -5.08239 0
M  V30 13438 O 1263.94 2.85958 -4.93543 0
M  V30 13439 O 1262.87 1.17887 -5.90242 0
M  V30 13440 H 1266.7 -0.420384 -3.00776 0
M  V30 13441 H 1264.28 -0.271683 -1.46909 0
M  V30 13442 H 1266.16 1.91647 -3.75299 0
M  V30 13443 H 1264.84 1.98244 -2.55892 0
M  V30 13444 H 1263.75 -0.0107246 -3.74098 0
M  V30 13445 H 1265.08 0.0055777 -4.922 0
M  V30 13446 N 1266.73 1.55688 -0.24474 0
M  V30 13447 C 1267.69 2.20014 0.642382 0
M  V30 13448 C 1268.69 1.16877 1.10437 0
M  V30 13449 O 1269.88 1.41972 1.00943 0
M  V30 13450 C 1267.02 2.84198 1.88267 0
M  V30 13451 H 1268.21 2.9979 0.0811937 0
M  V30 13452 H 1265.76 1.56299 0.00480917 0
M  V30 13453 H 1266.5 2.08354 2.48514 0
M  V30 13454 H 1266.28 3.59747 1.55963 0
M  V30 13455 H 1267.77 3.33434 2.5142 0
M  V30 13456 N 1268.21 -0.0283989 1.57574 0
M  V30 13457 C 1269.43 -0.734537 1.93957 0
M  V30 13458 C 1269.86 -1.68062 0.844787 0
M  V30 13459 O 1269.22 -1.802 -0.199432 0
M  V30 13460 C 1269.27 -1.46716 3.29404 0
M  V30 13461 O 1268.37 -2.58036 3.217 0
M  V30 13462 H 1267.71 -0.197507 0.633946 0
M  V30 13463 H 1270.24 0.0163258 2.04593 0
M  V30 13464 H 1270.25 -1.83693 3.64309 0
M  V30 13465 H 1268.93 -0.773292 4.08648 0
M  V30 13466 H 1267.5 -2.23597 2.98427 0
M  V30 13467 N 1269.69 -1.54705 -0.300681 0
M  V30 13468 C 1270.93 -1.74259 -1.03738 0
M  V30 13469 C 1271.27 -0.52703 -1.86912 0
M  V30 13470 O 1270.54 0.475862 -1.88589 0
M  V30 13471 C 1270.82 -3.03175 -1.94311 0
M  V30 13472 C 1270.68 -4.35031 -1.14315 0
M  V30 13473 C 1272 -3.27962 -2.93478 0
M  V30 13474 H 1269.12 -0.634031 -0.37573 0
M  V30 13475 H 1271.76 -1.87421 -0.312012 0
M  V30 13476 H 1269.91 -2.92086 -2.5616 0
M  V30 13477 H 1271.58 -4.5804 -0.547489 0
M  V30 13478 H 1269.82 -4.31503 -0.44587 0
M  V30 13479 H 1270.49 -5.21502 -1.80941 0
M  V30 13480 H 1272.97 -3.38663 -2.41757 0
M  V30 13481 H 1271.85 -4.19481 -3.54016 0
M  V30 13482 H 1272.11 -2.46273 -3.67154 0
M  V30 13483 N 1271.17 0.563888 -1.47167 0
M  V30 13484 C 1272.58 1.14603 -1.47388 0
M  V30 13485 C 1272.93 1.94907 -0.224916 0
M  V30 13486 O 1272.05 2.05745 0.670672 0
M  V30 13487 C 1272.65 2.08501 -2.67044 0
M  V30 13488 C 1271.21 2.62 -2.70246 0
M  V30 13489 C 1270.35 1.38244 -2.40383 0
M  V30 13490 H 1273.31 0.350833 -1.54774 0
M  V30 13491 H 1273.33 2.92272 -2.43634 0
M  V30 13492 H 1272.84 1.50027 -3.57929 0
M  V30 13493 H 1270.94 3.24292 -1.83482 0
M  V30 13494 H 1271.05 3.0345 -3.70749 0
M  V30 13495 H 1269.42 1.68692 -1.90827 0
M  V30 13496 H 1270.2 0.815726 -3.33468 0
M  V30 13497 N 1272.64 1.35187 0.810078 0
M  V30 13498 C 1273.57 1.30481 1.93641 0
M  V30 13499 C 1274.56 0.179875 1.69146 0
M  V30 13500 O 1275.74 0.374284 1.90559 0
M  V30 13501 C 1272.87 1.07251 3.30325 0
M  V30 13502 C 1271.82 2.16348 3.69293 0
M  V30 13503 C 1271.15 1.78288 5.04101 0
M  V30 13504 C 1272.45 3.58285 3.80038 0
M  V30 13505 H 1274.14 2.24725 1.97836 0
M  V30 13506 H 1271.69 1.08179 0.950436 0
M  V30 13507 H 1273.64 1.02599 4.08719 0
M  V30 13508 H 1272.37 0.0945203 3.26463 0
M  V30 13509 H 1271.03 2.2009 2.93182 0
M  V30 13510 H 1270.67 0.791163 4.96739 0
M  V30 13511 H 1270.37 2.51315 5.31144 0
M  V30 13512 H 1271.9 1.75155 5.84938 0
M  V30 13513 H 1273.31 3.56884 4.48672 0
M  V30 13514 H 1271.71 4.30044 4.18548 0
M  V30 13515 H 1272.78 3.94691 2.81685 0
M  V30 13516 N 1274.12 -1.03182 1.19127 0
M  V30 13517 C 1275.37 -1.76184 0.990134 0
M  V30 13518 C 1275.69 -1.88986 -0.480546 0
M  V30 13519 O 1274.96 -1.4213 -1.34817 0
M  V30 13520 H 1273.54 -0.652668 0.363364 0
M  V30 13521 H 1276.2 -1.24481 1.49968 0
M  V30 13522 H 1275.3 -2.77119 1.43568 0
M  V30 13523 N 1275.6 -0.99472 -1.22242 0
M  V30 13524 C 1276.83 -0.690097 -1.95052 0
M  V30 13525 C 1277.24 0.745543 -1.73456 0
M  V30 13526 O 1276.6 1.50329 -1.03477 0
M  V30 13527 C 1276.65 -0.988798 -3.47714 0
M  V30 13528 O 1276.37 -2.36803 -3.68587 0
M  V30 13529 C 1277.87 -0.702132 -4.37704 0
M  V30 13530 H 1275.09 -0.255142 -0.620599 0
M  V30 13531 H 1277.64 -1.32998 -1.55344 0
M  V30 13532 H 1275.79 -0.394684 -3.85384 0
M  V30 13533 H 1276.21 -2.4687 -4.62769 0
M  V30 13534 H 1277.68 -0.961389 -5.43564 0
M  V30 13535 H 1278.16 0.363866 -4.3769 0
M  V30 13536 H 1278.76 -1.27738 -4.05664 0
M  V30 13537 N 1277.08 1.37613 -0.768148 0
M  V30 13538 C 1278.32 2.00075 -0.331331 0
M  V30 13539 C 1278.66 1.60839 1.08833 0
M  V30 13540 O 1277.93 0.852849 1.74805 0
M  V30 13541 C 1278.22 3.57009 -0.470789 0
M  V30 13542 C 1278.07 4.06166 -1.9326 0
M  V30 13543 C 1279.39 4.39916 0.127111 0
M  V30 13544 H 1276.51 0.726855 -0.121864 0
M  V30 13545 H 1279.15 1.63343 -0.970518 0
M  V30 13546 H 1277.3 3.88431 0.0733688 0
M  V30 13547 H 1278.97 3.85325 -2.53618 0
M  V30 13548 H 1277.21 3.58492 -2.44266 0
M  V30 13549 H 1277.88 5.15219 -1.98125 0
M  V30 13550 H 1280.36 4.14732 -0.337144 0
M  V30 13551 H 1279.24 5.489 -0.000624226 0
M  V30 13552 H 1279.5 4.25018 1.21704 0
M  V30 13553 N 1278.56 0.518393 1.4883 0
M  V30 13554 C 1279.8 -0.0199348 2.0279 0
M  V30 13555 C 1280.14 -1.35026 1.39576 0
M  V30 13556 O 1279.41 -1.86927 0.537449 0
M  V30 13557 C 1279.69 -0.154184 3.5977 0
M  V30 13558 C 1279.55 1.2005 4.33484 0
M  V30 13559 C 1280.87 -0.886547 4.31078 0
M  V30 13560 H 1277.98 -0.00577061 0.736977 0
M  V30 13561 H 1280.63 0.673178 1.77675 0
M  V30 13562 H 1278.78 -0.74451 3.81299 0
M  V30 13563 H 1280.45 1.83104 4.23404 0
M  V30 13564 H 1278.69 1.78537 3.95357 0
M  V30 13565 H 1279.36 1.05968 5.41733 0
M  V30 13566 H 1281.84 -0.385711 4.14308 0
M  V30 13567 H 1280.71 -0.949355 5.40628 0
M  V30 13568 H 1280.98 -1.93424 3.97542 0
M  V30 13569 N 1280.03 -1.55556 0.252993 0
M  V30 13570 C 1281.28 -1.99385 -0.370599 0
M  V30 13571 C 1281.61 -1.14101 -1.57145 0
M  V30 13572 O 1280.89 -0.205828 -1.93408 0
M  V30 13573 C 1281.17 -3.51672 -0.774503 0
M  V30 13574 C 1281.02 -4.47719 0.432159 0
M  V30 13575 C 1282.34 -4.0923 -1.61923 0
M  V30 13576 H 1279.46 -0.724858 -0.133231 0
M  V30 13577 H 1282.1 -1.86644 0.355522 0
M  V30 13578 H 1280.25 -3.62661 -1.39318 0
M  V30 13579 H 1281.93 -4.48704 1.07063 0
M  V30 13580 H 1280.17 -4.2029 1.07419 0
M  V30 13581 H 1280.84 -5.51898 0.106123 0
M  V30 13582 H 1283.32 -4.01381 -1.09693 0
M  V30 13583 H 1282.19 -5.16039 -1.87068 0
M  V30 13584 H 1282.45 -3.58067 -2.59307 0
M  V30 13585 N 1281.51 0.0200419 -1.57587 0
M  V30 13586 C 1282.92 0.565484 -1.7793 0
M  V30 13587 C 1283.27 1.75096 -0.885201 0
M  V30 13588 O 1282.4 2.16243 -0.0823831 0
M  V30 13589 C 1282.99 1.03263 -3.2268 0
M  V30 13590 C 1281.55 1.52352 -3.44189 0
M  V30 13591 C 1280.7 0.465637 -2.73363 0
M  V30 13592 H 1283.65 -0.206174 -1.57355 0
M  V30 13593 H 1283.67 1.89959 -3.2969 0
M  V30 13594 H 1283.18 0.169613 -3.87729 0
M  V30 13595 H 1281.29 2.40809 -2.84327 0
M  V30 13596 H 1281.4 1.5648 -4.52825 0
M  V30 13597 H 1279.76 0.922738 -2.37398 0
M  V30 13598 H 1280.55 -0.388068 -3.411 0
M  V30 13599 N 1282.99 1.54862 0.292472 0
M  V30 13600 C 1284.24 1.74203 1.02458 0
M  V30 13601 C 1284.56 0.535398 1.87506 0
M  V30 13602 O 1283.83 -0.450164 1.90658 0
M  V30 13603 H 1282.41 0.642369 0.381276 0
M  V30 13604 H 1285.07 1.92232 0.321398 0
M  V30 13605 H 1284.17 2.63486 1.67277 0
M  V30 13606 N 1284.47 -0.556076 1.47464 0
M  V30 13607 C 1285.75 -1.31689 1.44628 0
M  V30 13608 C 1286.13 -2.10609 0.143841 0
M  V30 13609 O 1285.47 -2.11097 -0.874662 0
M  V30 13610 C 1285.68 -2.22045 2.69253 0
M  V30 13611 C 1287.03 -2.83028 3.16513 0
M  V30 13612 O 1288.06 -2.32346 2.69988 0
M  V30 13613 O 1286.91 -3.75148 3.97399 0
M  V30 13614 H 1284.01 -0.593026 0.576411 0
M  V30 13615 H 1286.55 -0.574885 1.59666 0
M  V30 13616 H 1285.33 -1.63337 3.5558 0
M  V30 13617 H 1284.95 -3.03539 2.56807 0
M  V30 13618 N 1285.95 -1.35615 -0.802897 0
M  V30 13619 C 1287.17 -1.32377 -1.59659 0
M  V30 13620 C 1287.6 0.0954235 -1.87858 0
M  V30 13621 O 1286.96 1.06336 -1.46842 0
M  V30 13622 C 1287 -2.13972 -2.90256 0
M  V30 13623 O 1286.11 -1.52296 -3.83249 0
M  V30 13624 H 1285.45 -0.453699 -0.484823 0
M  V30 13625 H 1287.98 -1.78708 -0.996217 0
M  V30 13626 H 1287.99 -2.26061 -3.39647 0
M  V30 13627 H 1286.66 -3.17145 -2.69057 0
M  V30 13628 H 1285.24 -1.49068 -3.41809 0
M  V30 13629 N 1287.43 1.02549 -1.19673 0
M  V30 13630 C 1288.7 1.73106 -0.9107 0
M  V30 13631 C 1289.08 2.02897 0.582769 0
M  V30 13632 O 1288.43 1.68633 1.54192 0
M  V30 13633 C 1288.64 3.00535 -1.77425 0
M  V30 13634 C 1289.99 3.73976 -2.01065 0
M  V30 13635 O 1291.01 3.1047 -1.74605 0
M  V30 13636 O 1289.87 4.88153 -2.457 0
M  V30 13637 H 1286.97 0.754006 -0.339711 0
M  V30 13638 H 1289.51 1.08477 -1.30502 0
M  V30 13639 H 1288.28 2.74773 -2.78595 0
M  V30 13640 H 1287.91 3.72904 -1.37943 0
M  V30 13641 N 1288.9 1.00119 1.21713 0
M  V30 13642 C 1289.83 0.578504 2.2622 0
M  V30 13643 C 1290.81 -0.398777 1.6536 0
M  V30 13644 O 1292 -0.287596 1.92059 0
M  V30 13645 C 1289.13 -0.0994508 3.47158 0
M  V30 13646 C 1288.08 0.79722 4.2051 0
M  V30 13647 C 1287.41 -0.0141125 5.34698 0
M  V30 13648 C 1288.71 2.09802 4.7831 0
M  V30 13649 H 1290.4 1.45208 2.6183 0
M  V30 13650 H 1287.95 0.699656 1.2586 0
M  V30 13651 H 1289.9 -0.406605 4.19434 0
M  V30 13652 H 1288.63 -1.00763 3.10667 0
M  V30 13653 H 1287.29 1.08814 3.50079 0
M  V30 13654 H 1286.93 -0.923468 4.9445 0
M  V30 13655 H 1286.63 0.582883 5.84702 0
M  V30 13656 H 1288.16 -0.31517 6.09786 0
M  V30 13657 H 1289.57 1.85427 5.42485 0
M  V30 13658 H 1287.97 2.64455 5.38687 0
M  V30 13659 H 1289.04 2.77132 3.97902 0
M  V30 13660 N 1290.38 -1.37203 0.775435 0
M  V30 13661 C 1291.29 -2.34019 0.165062 0
M  V30 13662 C 1292.31 -1.6036 -0.675316 0
M  V30 13663 O 1293.48 -1.9243 -0.594375 0
M  V30 13664 C 1290.55 -3.3954 -0.700957 0
M  V30 13665 C 1289.61 -4.29015 0.156304 0
M  V30 13666 C 1288.84 -5.29497 -0.668476 0
M  V30 13667 O 1289.07 -5.37636 -1.90535 0
M  V30 13668 O 1288 -6.01852 -0.0757351 0
M  V30 13669 H 1291.83 -2.87955 0.965184 0
M  V30 13670 H 1289.41 -1.39429 0.536654 0
M  V30 13671 H 1291.29 -4.04094 -1.19524 0
M  V30 13672 H 1289.97 -2.87926 -1.4792 0
M  V30 13673 H 1288.87 -3.67549 0.69703 0
M  V30 13674 H 1290.21 -4.83944 0.897725 0
M  V30 13675 N 1291.86 -0.526279 -1.48553 0
M  V30 13676 C 1292.79 0.227364 -2.3239 0
M  V30 13677 C 1293.77 0.93862 -1.41859 0
M  V30 13678 O 1294.96 0.925119 -1.70749 0
M  V30 13679 C 1292.09 1.277 -3.22971 0
M  V30 13680 C 1291.04 0.684107 -4.22497 0
M  V30 13681 C 1290.37 1.83612 -5.02186 0
M  V30 13682 C 1291.67 -0.341723 -5.21181 0
M  V30 13683 H 1293.36 -0.472486 -2.95648 0
M  V30 13684 H 1290.91 -0.228669 -1.42173 0
M  V30 13685 H 1292.86 1.81215 -3.80446 0
M  V30 13686 H 1291.58 2.00638 -2.57705 0
M  V30 13687 H 1290.24 0.170505 -3.66203 0
M  V30 13688 H 1289.89 2.55379 -4.33348 0
M  V30 13689 H 1289.59 1.44536 -5.69547 0
M  V30 13690 H 1291.11 2.37513 -5.62512 0
M  V30 13691 H 1292.53 0.106207 -5.73202 0
M  V30 13692 H 1290.92 -0.649673 -5.96573 0
M  V30 13693 H 1291.99 -1.2488 -4.68543 0
M  V30 13694 N 1293.34 1.5542 -0.261239 0
M  V30 13695 C 1294.58 2.0119 0.360848 0
M  V30 13696 C 1294.94 1.14558 1.5408 0
M  V30 13697 O 1296.14 1.49846 2.23158 0
M  V30 13698 C 1294.41 3.49513 0.74668 0
M  V30 13699 S 1295.97 4.17281 1.35726 0
M  V30 13700 H 1292.79 0.701978 0.112903 0
M  V30 13701 H 1295.39 1.91775 -0.379829 0
M  V30 13702 H 1294.1 4.10221 -0.121172 0
M  V30 13703 H 1293.63 3.62884 1.51917 0
M  V30 13704 H 1295.64 4.19756 2.64612 0
M  V30 13705 N 1294.82 -0.0116844 1.57596 0
M  V30 13706 C 1296.23 -0.367602 1.55309 0
M  V30 13707 C 1296.43 -1.75524 0.98962 0
M  V30 13708 O 1295.49 -2.44813 0.618289 0
M  V30 13709 C 1296.8 -0.253532 2.99629 0
M  V30 13710 C 1298.35 -0.329335 3.11263 0
M  V30 13711 C 1298.82 -0.24452 4.57347 0
M  V30 13712 N 1300.31 -0.302782 4.62209 0
M  V30 13713 C 1301.05 -0.260315 5.72809 0
M  V30 13714 N 1300.55 -0.169124 6.92594 0
M  V30 13715 N 1302.34 -0.311323 5.61237 0
M  V30 13716 H 1294.49 0.896204 1.92567 0
M  V30 13717 H 1296.75 0.342445 0.883988 0
M  V30 13718 H 1296.46 0.70074 3.44648 0
M  V30 13719 H 1296.33 -1.04029 3.62571 0
M  V30 13720 H 1298.72 -1.27405 2.66181 0
M  V30 13721 H 1298.8 0.487084 2.5112 0
M  V30 13722 H 1298.44 0.696597 5.031 0
M  V30 13723 H 1298.37 -1.07927 5.15421 0
M  V30 13724 H 1300.87 -0.375067 3.76034 0
M  V30 13725 H 1301.18 -0.142296 7.72669 0
M  V30 13726 H 1299.52 -0.134919 6.94869 0
M  V30 13727 H 1302.71 -0.380678 4.6655 0
M  V30 13728 H 1302.89 -0.274761 6.47417 0
M  V30 13729 N 1296.29 -1.55015 -0.284256 0
M  V30 13730 C 1297.26 -1.8636 -1.33426 0
M  V30 13731 C 1298.26 -0.737457 -1.42892 0
M  V30 13732 O 1299.45 -1.00569 -1.42238 0
M  V30 13733 C 1296.58 -2.05884 -2.71707 0
M  V30 13734 H 1297.77 -2.80212 -1.06869 0
M  V30 13735 H 1295.32 -1.47334 -0.521767 0
M  V30 13736 H 1296.06 -1.14376 -3.03461 0
M  V30 13737 H 1295.84 -2.87867 -2.66224 0
M  V30 13738 H 1297.33 -2.31447 -3.47595 0
M  V30 13739 N 1297.77 0.548248 -1.47757 0
M  V30 13740 C 1298.72 1.65028 -1.57321 0
M  V30 13741 C 1299.71 1.55006 -0.431489 0
M  V30 13742 O 1300.9 1.63337 -0.681919 0
M  V30 13743 C 1298.03 3.0379 -1.59896 0
M  V30 13744 C 1297.11 3.18982 -2.79484 0
M  V30 13745 N 1297.5 3.04208 -4.04093 0
M  V30 13746 C 1295.8 3.50001 -2.76433 0
M  V30 13747 C 1296.5 3.2233 -4.8423 0
M  V30 13748 N 1295.48 3.49073 -4.16712 0
M  V30 13749 H 1299.28 1.52187 -2.51428 0
M  V30 13750 H 1296.79 0.753242 -1.43875 0
M  V30 13751 H 1298.79 3.82928 -1.64839 0
M  V30 13752 H 1297.45 3.17735 -0.668912 0
M  V30 13753 H 1298.46 2.81348 -4.34814 0
M  V30 13754 H 1295.14 3.70418 -1.92606 0
M  V30 13755 H 1296.53 3.15799 -5.9306 0
M  V30 13756 N 1299.25 1.36039 0.795694 0
M  V30 13757 C 1300.5 1.29251 1.54845 0
M  V30 13758 C 1300.81 -0.127926 1.95181 0
M  V30 13759 O 1302.02 -0.318141 2.6963 0
M  V30 13760 C 1300.47 2.26736 2.79497 0
M  V30 13761 C 1300.08 3.74183 2.46355 0
M  V30 13762 C 1301.83 2.28913 3.5749 0
M  V30 13763 C 1299.73 4.63462 3.67365 0
M  V30 13764 H 1298.66 0.48027 0.581255 0
M  V30 13765 H 1301.31 1.61366 0.873693 0
M  V30 13766 H 1299.7 1.87608 3.4874 0
M  V30 13767 H 1300.87 4.22011 1.8505 0
M  V30 13768 H 1299.18 3.7472 1.81586 0
M  V30 13769 H 1301.78 2.92828 4.47388 0
M  V30 13770 H 1302.12 1.2959 3.95616 0
M  V30 13771 H 1302.66 2.66627 2.9522 0
M  V30 13772 H 1299.4 5.63824 3.34339 0
M  V30 13773 H 1298.92 4.20354 4.27858 0
M  V30 13774 H 1300.6 4.79424 4.34467 0
M  V30 13775 N 1300.73 -1.01913 1.20215 0
M  V30 13776 C 1301.64 -2.13864 0.964328 0
M  V30 13777 C 1302.65 -1.73821 -0.0789556 0
M  V30 13778 O 1303.83 -2.01111 0.107914 0
M  V30 13779 C 1300.9 -3.42827 0.516757 0
M  V30 13780 C 1299.96 -3.97127 1.63059 0
M  V30 13781 C 1299.19 -5.19935 1.20428 0
M  V30 13782 O 1299.41 -5.70355 0.0719119 0
M  V30 13783 O 1298.35 -5.67322 2.01071 0
M  V30 13784 H 1302.17 -2.36795 1.90162 0
M  V30 13785 H 1299.76 -1.1226 0.985803 0
M  V30 13786 H 1301.64 -4.20493 0.276272 0
M  V30 13787 H 1300.31 -3.21318 -0.391983 0
M  V30 13788 H 1299.22 -3.20752 1.92533 0
M  V30 13789 H 1300.55 -4.2302 2.51624 0
M  V30 13790 N 1302.21 -1.00763 -1.2118 0
M  V30 13791 C 1303.62 -0.720905 -1.42391 0
M  V30 13792 C 1303.82 0.702918 -1.88842 0
M  V30 13793 O 1302.88 1.47191 -2.05161 0
M  V30 13794 C 1304.19 -1.739 -2.45315 0
M  V30 13795 C 1305.74 -1.75611 -2.59094 0
M  V30 13796 C 1306.21 -2.76323 -3.65253 0
M  V30 13797 N 1307.71 -2.75007 -3.72727 0
M  V30 13798 C 1308.44 -3.49594 -4.54502 0
M  V30 13799 N 1307.94 -4.33828 -5.40153 0
M  V30 13800 N 1309.73 -3.38232 -4.4895 0
M  V30 13801 H 1301.88 -1.92697 -0.893404 0
M  V30 13802 H 1304.14 -0.831888 -0.454606 0
M  V30 13803 H 1303.85 -2.75859 -2.18162 0
M  V30 13804 H 1303.72 -1.5438 -3.44161 0
M  V30 13805 H 1306.11 -0.743416 -2.85582 0
M  V30 13806 H 1306.19 -1.99203 -1.60474 0
M  V30 13807 H 1305.84 -3.77751 -3.39509 0
M  V30 13808 H 1305.77 -2.49996 -4.63476 0
M  V30 13809 H 1308.26 -2.13897 -3.11539 0
M  V30 13810 H 1308.57 -4.8753 -5.99612 0
M  V30 13811 H 1306.91 -4.3791 -5.39685 0
M  V30 13812 H 1310.11 -2.71855 -3.81068 0
M  V30 13813 H 1310.28 -3.96615 -5.12445 0
M  V30 13814 N 1303.68 1.3679 -0.7827 0
M  V30 13815 C 1304.61 2.32721 -0.190604 0
M  V30 13816 C 1305.6 1.56321 0.670663 0
M  V30 13817 O 1306.78 1.84507 0.605871 0
M  V30 13818 C 1303.91 3.40564 0.680717 0
M  V30 13819 C 1302.86 4.27925 -0.080118 0
M  V30 13820 C 1302.19 5.26876 0.911361 0
M  V30 13821 C 1303.49 5.06738 -1.26545 0
M  V30 13822 H 1305.18 2.82488 -0.992023 0
M  V30 13823 H 1302.73 1.35818 -0.478484 0
M  V30 13824 H 1304.68 4.06659 1.10482 0
M  V30 13825 H 1303.41 2.89348 1.51477 0
M  V30 13826 H 1302.07 3.63376 -0.485125 0
M  V30 13827 H 1301.71 4.71936 1.74026 0
M  V30 13828 H 1301.41 5.8619 0.406762 0
M  V30 13829 H 1302.94 5.95846 1.33418 0
M  V30 13830 H 1304.35 5.65911 -0.917448 0
M  V30 13831 H 1302.75 5.75432 -1.70289 0
M  V30 13832 H 1303.82 4.38772 -2.06415 0
M  V30 13833 N 1305.16 0.53415 1.48272 0
M  V30 13834 C 1306.09 -0.263508 2.2768 0
M  V30 13835 C 1307.11 -0.90064 1.35618 0
M  V30 13836 O 1308.3 -0.778379 1.60635 0
M  V30 13837 C 1305.4 -1.38878 3.09138 0
M  V30 13838 C 1304.57 -0.852784 4.29006 0
M  V30 13839 C 1303.63 -1.85969 4.92242 0
M  V30 13840 O 1302.65 -1.41497 5.51332 0
M  V30 13841 N 1303.86 -3.19207 4.84858 0
M  V30 13842 H 1306.62 0.417548 2.96777 0
M  V30 13843 H 1304.18 0.368743 1.57645 0
M  V30 13844 H 1306.17 -2.06062 3.48311 0
M  V30 13845 H 1304.74 -1.97343 2.42434 0
M  V30 13846 H 1303.96 -0.0048227 3.942 0
M  V30 13847 H 1305.25 -0.473634 5.06591 0
M  V30 13848 H 1304.65 -3.58001 4.38009 0
M  V30 13849 H 1303.21 -3.82013 5.28119 0
M  V30 13850 N 1306.64 -1.55279 0.269478 0
M  V30 13851 C 1307.57 -2.19684 -0.653573 0
M  V30 13852 C 1308.59 -1.17985 -1.12176 0
M  V30 13853 O 1309.77 -1.44739 -1.04464 0
M  V30 13854 C 1306.87 -2.80438 -1.90284 0
M  V30 13855 C 1306.05 -4.07774 -1.58239 0
M  V30 13856 C 1305.11 -4.52629 -2.68354 0
M  V30 13857 O 1304.13 -5.18524 -2.3478 0
M  V30 13858 N 1305.33 -4.22297 -3.98303 0
M  V30 13859 H 1308.1 -2.99525 -0.102379 0
M  V30 13860 H 1305.66 -1.61648 0.0903465 0
M  V30 13861 H 1307.65 -3.07392 -2.63234 0
M  V30 13862 H 1306.22 -2.04622 -2.36323 0
M  V30 13863 H 1305.44 -3.88168 -0.686983 0
M  V30 13864 H 1306.73 -4.90749 -1.34323 0
M  V30 13865 H 1306.13 -3.69441 -4.28404 0
M  V30 13866 H 1304.69 -4.54035 -4.67649 0
M  V30 13867 N 1308.12 0.00332656 -1.576 0
M  V30 13868 C 1309.03 1.01221 -2.1164 0
M  V30 13869 C 1310.04 1.37918 -1.06088 0
M  V30 13870 O 1311.22 1.46717 -1.37971 0
M  V30 13871 C 1308.29 2.28638 -2.60626 0
M  V30 13872 C 1307.35 1.98284 -3.80765 0
M  V30 13873 C 1306.58 3.19626 -4.27405 0
M  V30 13874 O 1306.8 4.31196 -3.73398 0
M  V30 13875 O 1305.74 3.03819 -5.19594 0
M  V30 13876 H 1309.56 0.582839 -2.98055 0
M  V30 13877 H 1307.15 0.221947 -1.47742 0
M  V30 13878 H 1309.03 3.03498 -2.92347 0
M  V30 13879 H 1307.7 2.70819 -1.7731 0
M  V30 13880 H 1306.61 1.2091 -3.54022 0
M  V30 13881 H 1307.94 1.60942 -4.65144 0
M  V30 13882 N 1309.6 1.55164 0.276031 0
M  V30 13883 C 1311.01 1.66367 0.847293 0
M  V30 13884 C 1311.36 0.588692 1.8716 0
M  V30 13885 O 1310.48 -0.27035 2.14705 0
M  V30 13886 C 1311.08 3.01593 1.5436 0
M  V30 13887 C 1309.64 3.14833 2.06293 0
M  V30 13888 C 1308.78 2.62152 0.903959 0
M  V30 13889 H 1311.74 1.58613 0.0524478 0
M  V30 13890 H 1311.76 2.94412 2.41043 0
M  V30 13891 H 1311.27 3.7981 0.797849 0
M  V30 13892 H 1309.37 2.41384 2.83839 0
M  V30 13893 H 1309.48 4.21353 2.28032 0
M  V30 13894 H 1307.85 2.19233 1.29649 0
M  V30 13895 H 1308.63 3.4287 0.171765 0
M  V30 13896 N 1311.07 -0.540404 1.48045 0
M  V30 13897 C 1312.35 -1.30148 1.46017 0
M  V30 13898 C 1312.73 -2.10445 0.166171 0
M  V30 13899 O 1312.08 -2.12013 -0.852223 0
M  V30 13900 C 1312.29 -2.19177 2.71593 0
M  V30 13901 C 1313.64 -2.79655 3.19497 0
M  V30 13902 O 1314.66 -2.2947 2.72437 0
M  V30 13903 O 1313.52 -3.70912 4.01356 0
M  V30 13904 H 1310.61 -0.586879 0.582668 0
M  V30 13905 H 1313.16 -0.557918 1.60267 0
M  V30 13906 H 1311.93 -1.59556 3.57292 0
M  V30 13907 H 1311.56 -3.00798 2.60012 0
M  V30 13908 N 1312.55 -1.36459 -0.788468 0
M  V30 13909 C 1313.8 -1.30483 -1.54333 0
M  V30 13910 C 1314.12 0.115266 -1.94659 0
M  V30 13911 O 1313.39 1.05573 -1.65019 0
M  V30 13912 H 1311.97 -0.480004 -0.572368 0
M  V30 13913 H 1314.63 -1.70765 -0.939428 0
M  V30 13914 H 1313.73 -1.93284 -2.45046 0
M  V30 13915 N 1314.03 1.01274 -1.20754 0
M  V30 13916 C 1314.99 2.08056 -0.961528 0
M  V30 13917 C 1315.99 1.60671 0.0644461 0
M  V30 13918 O 1317.18 1.73349 -0.172022 0
M  V30 13919 C 1314.32 3.37938 -0.448381 0
M  V30 13920 H 1315.51 2.31314 -1.90877 0
M  V30 13921 H 1313.06 1.18133 -1.02344 0
M  V30 13922 H 1313.8 3.20357 0.504144 0
M  V30 13923 H 1313.58 3.73659 -1.18833 0
M  V30 13924 H 1315.07 4.16551 -0.295876 0
M  V30 13925 N 1315.51 1.01404 1.20644 0
M  V30 13926 C 1316.76 0.700523 1.89571 0
M  V30 13927 C 1317.08 -0.771978 1.79068 0
M  V30 13928 O 1316.35 -1.55506 1.19142 0
M  V30 13929 H 1314.93 0.256122 0.70172 0
M  V30 13930 H 1317.59 1.28509 1.46531 0
M  V30 13931 H 1316.69 0.981665 2.9626 0
M  V30 13932 N 1316.99 -1.36373 0.789944 0
M  V30 13933 C 1317.95 -2.28372 0.194639 0
M  V30 13934 C 1318.95 -1.48849 -0.608332 0
M  V30 13935 O 1320.14 -1.68829 -0.42925 0
M  V30 13936 C 1317.27 -3.3298 -0.730553 0
M  V30 13937 H 1318.47 -2.82529 1.00585 0
M  V30 13938 H 1316.02 -1.45946 0.559406 0
M  V30 13939 H 1316.75 -2.8398 -1.56608 0
M  V30 13940 H 1316.54 -3.91787 -0.156706 0
M  V30 13941 H 1318.03 -4.01684 -1.14192 0
M  V30 13942 N 1318.47 -0.542005 -1.47987 0
M  V30 13943 C 1319.41 0.214151 -2.29804 0
M  V30 13944 C 1320.38 0.922625 -1.38119 0
M  V30 13945 O 1321.57 0.921301 -1.67083 0
M  V30 13946 C 1318.71 1.24768 -3.21756 0
M  V30 13947 C 1317.82 0.546824 -4.28525 0
M  V30 13948 C 1316.96 1.56432 -5.07644 0
M  V30 13949 C 1315.99 0.847598 -6.06203 0
M  V30 13950 N 1315.13 1.81121 -6.78336 0
M  V30 13951 H 1319.97 -0.489707 -2.93949 0
M  V30 13952 H 1317.51 -0.253331 -1.44902 0
M  V30 13953 H 1319.47 1.85933 -3.73477 0
M  V30 13954 H 1318.1 1.91976 -2.59509 0
M  V30 13955 H 1317.15 -0.179026 -3.79978 0
M  V30 13956 H 1318.46 -0.0153623 -4.98798 0
M  V30 13957 H 1317.61 2.24992 -5.63439 0
M  V30 13958 H 1316.35 2.16041 -4.37238 0
M  V30 13959 H 1315.36 0.147989 -5.49601 0
M  V30 13960 H 1316.58 0.257454 -6.78612 0
M  V30 13961 H 1314.53 2.39615 -6.10672 0
M  V30 13962 H 1314.45 1.30077 -7.44725 0
M  V30 13963 H 1315.71 2.48842 -7.38714 0
M  V30 13964 N 1319.94 1.55134 -0.277709 0
M  V30 13965 C 1321.17 2.04519 0.344472 0
M  V30 13966 C 1321.59 1.15466 1.4849 0
M  V30 13967 O 1320.95 0.153798 1.80646 0
M  V30 13968 C 1321 3.51602 0.800527 0
M  V30 13969 O 1320.1 3.65632 1.90754 0
M  V30 13970 H 1319.44 0.660212 0.0708226 0
M  V30 13971 H 1321.97 2.00393 -0.412764 0
M  V30 13972 H 1321.98 3.93015 1.09559 0
M  V30 13973 H 1320.66 4.15886 -0.033838 0
M  V30 13974 H 1319.24 3.36122 1.61481 0
M  V30 13975 N 1321.42 0.00503138 1.57599 0
M  V30 13976 C 1322.83 -0.537106 1.78807 0
M  V30 13977 C 1323.18 -1.73666 0.912945 0
M  V30 13978 O 1322.31 -2.16085 0.116775 0
M  V30 13979 C 1322.9 -0.98116 3.24282 0
M  V30 13980 C 1321.46 -1.46857 3.46569 0
M  V30 13981 C 1320.61 -0.422088 2.74069 0
M  V30 13982 H 1323.56 0.231182 1.57007 0
M  V30 13983 H 1323.58 -1.8469 3.32671 0
M  V30 13984 H 1323.09 -0.107907 3.8795 0
M  V30 13985 H 1321.19 -2.36255 2.88122 0
M  V30 13986 H 1321.31 -1.49256 4.55258 0
M  V30 13987 H 1319.67 -0.884853 2.38836 0
M  V30 13988 H 1320.45 0.442285 3.40439 0
M  V30 13989 N 1322.9 -1.55308 -0.267798 0
M  V30 13990 C 1324.13 -1.80191 -1.01681 0
M  V30 13991 C 1324.54 -0.57783 -1.7974 0
M  V30 13992 O 1323.9 0.4532 -1.76783 0
M  V30 13993 C 1323.95 -3.03023 -1.97127 0
M  V30 13994 O 1323.67 -4.20704 -1.22229 0
M  V30 13995 C 1325.17 -3.40549 -2.83798 0
M  V30 13996 H 1322.39 -0.60013 -0.300142 0
M  V30 13997 H 1324.94 -2.02332 -0.297007 0
M  V30 13998 H 1323.09 -2.82993 -2.64563 0
M  V30 13999 H 1323.51 -4.90181 -1.86608 0
M  V30 14000 H 1324.98 -4.29653 -3.46557 0
M  V30 14001 H 1325.46 -2.60186 -3.53836 0
M  V30 14002 H 1326.06 -3.62856 -2.21846 0
M  V30 14003 N 1324.38 0.532545 -1.4833 0
M  V30 14004 C 1325.62 1.29902 -1.57812 0
M  V30 14005 C 1325.98 1.90427 -0.245283 0
M  V30 14006 O 1327.18 2.67938 -0.215083 0
M  V30 14007 C 1325.45 2.36119 -2.68296 0
M  V30 14008 S 1327.01 3.22526 -2.97527 0
M  V30 14009 H 1323.83 0.441908 -0.55699 0
M  V30 14010 H 1326.43 0.606983 -1.85839 0
M  V30 14011 H 1325.14 1.90131 -3.63701 0
M  V30 14012 H 1324.67 3.10033 -2.42163 0
M  V30 14013 H 1326.68 4.36144 -2.36628 0
M  V30 14014 N 1325.86 1.36875 0.78122 0
M  V30 14015 C 1326.79 1.27738 1.90304 0
M  V30 14016 C 1327.8 0.195147 1.61626 0
M  V30 14017 O 1328.99 0.450531 1.72721 0
M  V30 14018 C 1326.09 0.950103 3.25309 0
M  V30 14019 C 1325.26 2.13589 3.81705 0
M  V30 14020 C 1324.32 1.78037 4.95166 0
M  V30 14021 O 1323.35 2.50223 5.11251 0
M  V30 14022 N 1324.55 0.718886 5.76031 0
M  V30 14023 H 1327.31 2.24397 1.98661 0
M  V30 14024 H 1324.88 1.30376 0.959883 0
M  V30 14025 H 1326.87 0.693286 3.98717 0
M  V30 14026 H 1325.44 0.0723849 3.12516 0
M  V30 14027 H 1324.66 2.55502 3.00187 0
M  V30 14028 H 1325.95 2.9279 4.16114 0
M  V30 14029 H 1325.34 0.119681 5.65573 0
M  V30 14030 H 1323.9 0.521909 6.49707 0
M  V30 14031 N 1327.33 -1.00632 1.21289 0
M  V30 14032 C 1328.28 -2.09382 0.97097 0
M  V30 14033 C 1329.25 -1.65783 -0.102561 0
M  V30 14034 O 1330.44 -1.90749 0.0442886 0
M  V30 14035 C 1327.58 -3.40844 0.540314 0
M  V30 14036 C 1326.69 -3.97862 1.68314 0
M  V30 14037 C 1325.82 -5.17427 1.20178 0
M  V30 14038 C 1324.86 -5.66552 2.31702 0
M  V30 14039 N 1324 -6.77368 1.84709 0
M  V30 14040 H 1328.84 -2.29411 1.90196 0
M  V30 14041 H 1326.38 -1.12488 0.947885 0
M  V30 14042 H 1328.33 -4.16313 0.271881 0
M  V30 14043 H 1326.96 -3.20857 -0.353677 0
M  V30 14044 H 1326.02 -3.19391 2.06624 0
M  V30 14045 H 1327.33 -4.30314 2.52252 0
M  V30 14046 H 1326.48 -6.00138 0.889926 0
M  V30 14047 H 1325.22 -4.86566 0.332422 0
M  V30 14048 H 1324.23 -4.82438 2.63691 0
M  V30 14049 H 1325.45 -5.99443 3.19131 0
M  V30 14050 H 1323.4 -6.48315 1.00116 0
M  V30 14051 H 1323.31 -7.09067 2.62221 0
M  V30 14052 H 1324.58 -7.63617 1.56554 0
M  V30 14053 N 1328.81 -1.02043 -1.20104 0
M  V30 14054 C 1329.74 -0.614421 -2.25271 0
M  V30 14055 C 1330.72 0.37242 -1.65973 0
M  V30 14056 O 1331.91 0.257005 -1.92492 0
M  V30 14057 C 1329.04 0.0442085 -3.47272 0
M  V30 14058 C 1327.99 -0.864019 -4.19188 0
M  V30 14059 C 1327.32 -0.0709551 -5.34653 0
M  V30 14060 C 1328.62 -2.17385 -4.74912 0
M  V30 14061 H 1330.31 -1.49355 -2.59487 0
M  V30 14062 H 1327.86 -0.719591 -1.24731 0
M  V30 14063 H 1329.81 0.339825 -4.20028 0
M  V30 14064 H 1328.53 0.958082 -3.12231 0
M  V30 14065 H 1327.19 -1.1437 -3.48303 0
M  V30 14066 H 1326.84 0.844688 -4.95857 0
M  V30 14067 H 1326.54 -0.67583 -5.83701 0
M  V30 14068 H 1328.07 0.218118 -6.1021 0
M  V30 14069 H 1329.48 -1.94034 -5.39466 0
M  V30 14070 H 1327.88 -2.72991 -5.34412 0
M  V30 14071 H 1328.95 -2.83427 -3.93443 0
M  V30 14072 N 1330.29 1.35952 -0.797165 0
M  V30 14073 C 1331.52 2.0381 -0.38421 0
M  V30 14074 C 1331.94 1.597 0.993854 0
M  V30 14075 O 1331.3 0.769148 1.64176 0
M  V30 14076 C 1331.35 3.57589 -0.465054 0
M  V30 14077 O 1330.45 4.09043 0.525095 0
M  V30 14078 H 1329.79 0.643957 -0.161912 0
M  V30 14079 H 1332.32 1.73746 -1.08043 0
M  V30 14080 H 1332.33 4.06651 -0.331448 0
M  V30 14081 H 1331.01 3.89045 -1.47027 0
M  V30 14082 H 1329.58 3.7123 0.352509 0
M  V30 14083 N 1331.77 0.549846 1.47697 0
M  V30 14084 C 1333.18 0.11453 1.86348 0
M  V30 14085 C 1333.53 -1.31368 1.45729 0
M  V30 14086 O 1332.66 -1.98707 0.856989 0
M  V30 14087 C 1333.25 0.201072 3.38203 0
M  V30 14088 C 1331.81 -0.179162 3.75973 0
M  V30 14089 C 1330.96 0.551951 2.71751 0
M  V30 14090 H 1333.91 0.759989 1.39319 0
M  V30 14091 H 1333.93 -0.582216 3.76019 0
M  V30 14092 H 1333.44 1.24065 3.67736 0
M  V30 14093 H 1331.54 -1.22013 3.52056 0
M  V30 14094 H 1331.65 0.174273 4.78783 0
M  V30 14095 H 1330.02 -0.00411819 2.547 0
M  V30 14096 H 1330.8 1.59254 3.04127 0
M  V30 14097 N 1333.25 -1.54984 0.285932 0
M  V30 14098 C 1334.19 -2.2295 -0.596822 0
M  V30 14099 C 1335.16 -1.20674 -1.14136 0
M  V30 14100 O 1336.35 -1.49249 -1.18867 0
M  V30 14101 C 1333.49 -2.9625 -1.77002 0
M  V30 14102 C 1332.6 -4.13268 -1.25831 0
M  V30 14103 C 1331.74 -4.74187 -2.39417 0
M  V30 14104 C 1330.78 -5.83377 -1.85304 0
M  V30 14105 N 1329.91 -6.38313 -2.92405 0
M  V30 14106 H 1334.75 -2.97998 -0.0106104 0
M  V30 14107 H 1332.29 -1.47099 0.00653041 0
M  V30 14108 H 1334.25 -3.36971 -2.4598 0
M  V30 14109 H 1332.88 -2.23606 -2.3281 0
M  V30 14110 H 1331.93 -3.77593 -0.461278 0
M  V30 14111 H 1333.24 -4.91979 -0.822049 0
M  V30 14112 H 1332.4 -5.17683 -3.16369 0
M  V30 14113 H 1331.13 -3.94775 -2.86364 0
M  V30 14114 H 1330.14 -5.3932 -1.06835 0
M  V30 14115 H 1331.36 -6.64664 -1.3928 0
M  V30 14116 H 1329.31 -5.61791 -3.38713 0
M  V30 14117 H 1329.23 -7.12328 -2.53228 0
M  V30 14118 H 1330.5 -6.86468 -3.69299 0
M  V30 14119 N 1334.72 -0.0133892 -1.57594 0
M  V30 14120 C 1335.97 0.66392 -1.92259 0
M  V30 14121 C 1336.33 1.70632 -0.888962 0
M  V30 14122 O 1335.62 1.91354 0.0971147 0
M  V30 14123 C 1335.81 1.33729 -3.31438 0
M  V30 14124 C 1335.64 0.361637 -4.48244 0
M  V30 14125 C 1334.41 -0.0328229 -5.05289 0
M  V30 14126 C 1336.61 -0.377649 -5.12912 0
M  V30 14127 N 1334.59 -1.00529 -6.05613 0
M  V30 14128 C 1335.96 -1.20437 -6.0819 0
M  V30 14129 C 1338.02 -0.440046 -4.95952 0
M  V30 14130 C 1336.72 -2.08782 -6.88333 0
M  V30 14131 C 1338.75 -1.31078 -5.76691 0
M  V30 14132 C 1338.11 -2.12531 -6.71573 0
M  V30 14133 H 1334.21 0.215737 -0.751652 0
M  V30 14134 H 1336.79 -0.0768783 -1.94548 0
M  V30 14135 H 1334.96 2.04831 -3.29998 0
M  V30 14136 H 1336.69 1.97037 -3.53495 0
M  V30 14137 H 1333.45 0.338356 -4.7239 0
M  V30 14138 H 1333.87 -1.4873 -6.60461 0
M  V30 14139 H 1338.52 0.175429 -4.22436 0
M  V30 14140 H 1336.23 -2.71391 -7.61165 0
M  V30 14141 H 1339.82 -1.36314 -5.65606 0
M  V30 14142 H 1338.7 -2.78817 -7.3296 0
M  V30 14143 N 1336.2 1.55448 0.259558 0
M  V30 14144 C 1337.44 1.78444 0.996849 0
M  V30 14145 C 1337.81 0.580862 1.83003 0
M  V30 14146 O 1339.01 0.68934 2.59811 0
M  V30 14147 C 1337.28 3.06094 1.84502 0
M  V30 14148 S 1338.84 3.50263 2.64313 0
M  V30 14149 H 1335.66 0.626854 0.335523 0
M  V30 14150 H 1338.26 1.93683 0.265929 0
M  V30 14151 H 1336.96 3.91772 1.22241 0
M  V30 14152 H 1336.49 2.93558 2.61891 0
M  V30 14153 H 1338.51 3.10596 3.86968 0
M  V30 14154 N 1337.68 -0.524672 1.4861 0
M  V30 14155 C 1338.93 -1.28021 1.56898 0
M  V30 14156 C 1339.26 -1.92948 0.245203 0
M  V30 14157 O 1338.51 -1.8013 -0.764966 0
M  V30 14158 C 1338.81 -2.3871 2.65993 0
M  V30 14159 C 1338.48 -1.914 4.08261 0
M  V30 14160 C 1337.14 -1.78215 4.46982 0
M  V30 14161 C 1339.49 -1.55713 4.97396 0
M  V30 14162 C 1336.82 -1.27687 5.72637 0
M  V30 14163 C 1339.17 -1.06645 6.23546 0
M  V30 14164 C 1337.83 -0.920818 6.61118 0
M  V30 14165 H 1337.1 -0.468461 0.57413 0
M  V30 14166 H 1339.75 -0.584901 1.82349 0
M  V30 14167 H 1338.06 -3.13932 2.34422 0
M  V30 14168 H 1339.75 -2.96827 2.6962 0
M  V30 14169 H 1336.34 -2.02614 3.77684 0
M  V30 14170 H 1340.53 -1.64757 4.68155 0
M  V30 14171 H 1335.78 -1.15103 6.00468 0
M  V30 14172 H 1339.96 -0.781048 6.92006 0
M  V30 14173 H 1337.58 -0.527091 7.5837 0
M  V30 14174 N 1339.16 -1.37287 -0.77395 0
M  V30 14175 C 1340.09 -1.35569 -1.90114 0
M  V30 14176 C 1341.07 -0.224658 -1.6861 0
M  V30 14177 O 1342.25 -0.424676 -1.895 0
M  V30 14178 C 1339.38 -1.15971 -3.27365 0
M  V30 14179 C 1338.34 -2.26063 -3.63427 0
M  V30 14180 C 1337.66 -1.9159 -4.99197 0
M  V30 14181 C 1338.96 -3.68236 -3.70405 0
M  V30 14182 H 1340.66 -2.29891 -1.91808 0
M  V30 14183 H 1338.2 -1.10661 -0.92142 0
M  V30 14184 H 1340.16 -1.134 -4.05855 0
M  V30 14185 H 1338.88 -0.181043 -3.26098 0
M  V30 14186 H 1337.54 -2.27786 -2.87244 0
M  V30 14187 H 1337.19 -0.922586 -4.94467 0
M  V30 14188 H 1336.89 -2.65309 -5.24294 0
M  V30 14189 H 1338.41 -1.90602 -5.80089 0
M  V30 14190 H 1339.83 -3.68655 -4.39052 0
M  V30 14191 H 1338.22 -4.4099 -4.06999 0
M  V30 14192 H 1339.29 -4.02021 -2.71122 0
M  V30 14193 N 1340.64 0.999871 -1.21821 0
M  V30 14194 C 1341.91 1.71135 -0.947213 0
M  V30 14195 C 1342.29 2.04087 0.539601 0
M  V30 14196 O 1341.64 1.71866 1.5058 0
M  V30 14197 C 1341.85 2.96704 -1.8376 0
M  V30 14198 C 1343.2 3.69627 -2.08952 0
M  V30 14199 O 1344.22 3.06697 -1.81151 0
M  V30 14200 O 1343.08 4.82832 -2.55999 0
M  V30 14201 H 1340.18 0.746631 -0.355628 0
M  V30 14202 H 1342.72 1.05684 -1.32774 0
M  V30 14203 H 1341.49 2.68802 -2.84361 0
M  V30 14204 H 1341.12 3.69894 -1.45821 0
M  V30 14205 N 1342.11 1.02678 1.19562 0
M  V30 14206 C 1343.08 0.610407 2.20922 0
M  V30 14207 C 1344.08 -0.324858 1.57484 0
M  V30 14208 O 1345.27 -0.112153 1.73839 0
M  V30 14209 C 1342.4 -0.107115 3.40732 0
M  V30 14210 H 1343.59 1.50722 2.59274 0
M  V30 14211 H 1341.15 0.817725 1.33203 0
M  V30 14212 H 1341.88 -1.01837 3.07896 0
M  V30 14213 H 1341.67 0.564901 3.88009 0
M  V30 14214 H 1343.16 -0.385423 4.15818 0
M  V30 14215 N 1343.59 -1.35528 0.804364 0
M  V30 14216 C 1344.82 -2.03073 0.396091 0
M  V30 14217 C 1345.24 -1.60623 -0.992252 0
M  V30 14218 O 1344.59 -0.802718 -1.63898 0
M  V30 14219 C 1344.64 -3.58467 0.467301 0
M  V30 14220 O 1344.36 -3.99373 1.80091 0
M  V30 14221 C 1345.87 -4.4327 0.0515549 0
M  V30 14222 H 1343.09 -0.651346 0.161212 0
M  V30 14223 H 1345.63 -1.73195 1.08737 0
M  V30 14224 H 1343.78 -3.87001 -0.175703 0
M  V30 14225 H 1344.2 -4.94013 1.76214 0
M  V30 14226 H 1345.67 -5.51789 0.152499 0
M  V30 14227 H 1346.15 -4.27597 -1.00286 0
M  V30 14228 H 1346.76 -4.20027 0.667628 0
M  V30 14229 N 1345.07 -0.557671 -1.47404 0
M  V30 14230 C 1346.3 -0.0386599 -2.06864 0
M  V30 14231 C 1346.71 1.25527 -1.41027 0
M  V30 14232 O 1346.07 1.75318 -0.506949 0
M  V30 14233 C 1346.12 0.160141 -3.61145 0
M  V30 14234 O 1345.84 -1.08255 -4.24515 0
M  V30 14235 C 1347.34 0.716381 -4.37473 0
M  V30 14236 H 1344.56 -0.0460523 -0.669418 0
M  V30 14237 H 1347.11 -0.771214 -1.894 0
M  V30 14238 H 1345.26 0.842826 -3.78121 0
M  V30 14239 H 1345.68 -0.88057 -5.17055 0
M  V30 14240 H 1347.15 0.804773 -5.46102 0
M  V30 14241 H 1347.63 1.72776 -4.03788 0
M  V30 14242 H 1348.23 0.0693787 -4.25243 0
M  V30 14243 N 1346.55 1.54831 -0.294147 0
M  V30 14244 C 1347.51 2.21946 0.572061 0
M  V30 14245 C 1348.51 1.20331 1.06663 0
M  V30 14246 O 1349.7 1.45112 0.963757 0
M  V30 14247 C 1346.83 2.90044 1.7913 0
M  V30 14248 H 1348.03 2.99897 -0.0142234 0
M  V30 14249 H 1345.58 1.56235 -0.0449187 0
M  V30 14250 H 1346.32 2.16154 2.4176 0
M  V30 14251 H 1346.1 3.64527 1.44439 0
M  V30 14252 H 1347.59 3.41263 2.40684 0
M  V30 14253 N 1348.03 0.0217466 1.57585 0
M  V30 14254 C 1349.25 -0.67246 1.96196 0
M  V30 14255 C 1349.68 -1.6529 0.897827 0
M  V30 14256 O 1349.04 -1.80743 -0.142002 0
M  V30 14257 C 1349.08 -1.36162 3.33905 0
M  V30 14258 O 1348.19 -2.47671 3.29747 0
M  V30 14259 H 1347.53 -0.177238 0.639908 0
M  V30 14260 H 1350.06 0.0814073 2.04438 0
M  V30 14261 H 1350.07 -1.7201 3.69968 0
M  V30 14262 H 1348.74 -0.642893 4.10901 0
M  V30 14263 H 1347.32 -2.13989 3.0539 0
M  V30 14264 N 1349.51 -1.55583 -0.251311 0
M  V30 14265 C 1350.92 -1.47908 -0.599606 0
M  V30 14266 C 1351.12 -0.711061 -1.88537 0
M  V30 14267 O 1350.18 -0.238639 -2.5137 0
M  V30 14268 C 1351.49 -2.92284 -0.706429 0
M  V30 14269 C 1353.04 -3.02629 -0.799049 0
M  V30 14270 C 1353.51 -4.48303 -0.93747 0
M  V30 14271 N 1355 -4.52222 -1.00245 0
M  V30 14272 C 1355.74 -5.62181 -1.12874 0
M  V30 14273 N 1355.24 -6.81958 -1.22085 0
M  V30 14274 N 1357.03 -5.49968 -1.16155 0
M  V30 14275 H 1349.18 -2.0396 0.592806 0
M  V30 14276 H 1351.44 -0.925797 0.203971 0
M  V30 14277 H 1351.15 -3.51297 0.168243 0
M  V30 14278 H 1351.02 -3.42524 -1.57979 0
M  V30 14279 H 1353.41 -2.43699 -1.66418 0
M  V30 14280 H 1353.49 -2.55607 0.099367 0
M  V30 14281 H 1353.13 -5.07842 -0.0769166 0
M  V30 14282 H 1353.06 -4.93002 -1.85086 0
M  V30 14283 H 1355.56 -3.65951 -0.94279 0
M  V30 14284 H 1355.87 -7.6151 -1.31616 0
M  V30 14285 H 1354.21 -6.84728 -1.1905 0
M  V30 14286 H 1357.4 -4.55327 -1.08604 0
M  V30 14287 H 1357.58 -6.35701 -1.25653 0
M  V30 14288 N 1350.98 0.516783 -1.48886 0
M  V30 14289 C 1352.23 1.27187 -1.57574 0
M  V30 14290 C 1352.56 1.92815 -0.255432 0
M  V30 14291 O 1351.81 1.80533 0.755403 0
M  V30 14292 C 1352.11 2.37296 -2.67256 0
M  V30 14293 C 1351.78 1.89232 -4.0927 0
M  V30 14294 C 1350.44 1.75842 -4.47921 0
M  V30 14295 C 1352.79 1.53073 -4.98215 0
M  V30 14296 C 1350.12 1.24648 -5.73306 0
M  V30 14297 C 1352.47 1.03337 -6.24103 0
M  V30 14298 C 1351.14 0.885744 -6.61597 0
M  V30 14299 H 1350.41 0.46541 -0.576606 0
M  V30 14300 H 1353.05 0.575223 -1.82657 0
M  V30 14301 H 1351.36 3.12685 -2.36084 0
M  V30 14302 H 1353.06 2.95393 -2.7119 0
M  V30 14303 H 1349.65 2.00608 -3.78754 0
M  V30 14304 H 1353.83 1.62272 -4.69022 0
M  V30 14305 H 1349.09 1.11917 -6.0107 0
M  V30 14306 H 1353.26 0.744338 -6.92411 0
M  V30 14307 H 1350.89 0.486866 -7.58639 0
M  V30 14308 N 1352.46 1.37696 0.766659 0
M  V30 14309 C 1353.69 1.36192 1.55355 0
M  V30 14310 C 1354.1 -0.0534148 1.89125 0
M  V30 14311 O 1353.44 -1.02697 1.52312 0
M  V30 14312 C 1353.5 2.14047 2.88833 0
M  V30 14313 C 1353.17 3.6297 2.77672 0
M  V30 14314 C 1354.17 4.56745 2.48355 0
M  V30 14315 C 1351.85 4.06158 2.95534 0
M  V30 14316 C 1353.84 5.91687 2.37035 0
M  V30 14317 C 1351.53 5.41185 2.83835 0
M  V30 14318 C 1352.53 6.33762 2.54627 0
M  V30 14319 O 1352.22 7.66305 2.42963 0
M  V30 14320 H 1351.95 0.46804 0.487765 0
M  V30 14321 H 1354.5 1.81709 0.95765 0
M  V30 14322 H 1352.73 1.63227 3.50562 0
M  V30 14323 H 1354.42 2.05113 3.50262 0
M  V30 14324 H 1355.19 4.24687 2.34236 0
M  V30 14325 H 1351.07 3.34457 3.17269 0
M  V30 14326 H 1354.61 6.63914 2.14158 0
M  V30 14327 H 1350.51 5.72844 2.97524 0
M  V30 14328 H 1351.28 7.76683 2.58274 0
M  V30 14329 N 1353.94 -0.993397 1.22349 0
M  V30 14330 C 1355.36 -1.25708 0.983345 0
M  V30 14331 C 1355.56 -1.98888 -0.323372 0
M  V30 14332 O 1354.61 -2.2981 -1.04612 0
M  V30 14333 C 1355.92 -2.06935 2.1817 0
M  V30 14334 C 1357.47 -2.20121 2.22521 0
M  V30 14335 C 1357.95 -3.04735 3.41907 0
M  V30 14336 N 1359.44 -3.12322 3.42066 0
M  V30 14337 C 1360.17 -3.78081 4.31095 0
M  V30 14338 N 1359.67 -4.45771 5.3034 0
M  V30 14339 N 1361.46 -3.74837 4.18872 0
M  V30 14340 H 1353.61 -0.502767 2.06364 0
M  V30 14341 H 1355.88 -0.284656 0.904254 0
M  V30 14342 H 1355.58 -1.60525 3.12929 0
M  V30 14343 H 1355.46 -3.0769 2.18189 0
M  V30 14344 H 1357.84 -2.65745 1.28311 0
M  V30 14345 H 1357.92 -1.18798 2.26541 0
M  V30 14346 H 1357.57 -2.59811 4.36418 0
M  V30 14347 H 1357.5 -4.06198 3.35128 0
M  V30 14348 H 1359.99 -2.64146 2.7025 0
M  V30 14349 H 1360.3 -4.93687 5.94553 0
M  V30 14350 H 1358.65 -4.44521 5.34253 0
M  V30 14351 H 1361.84 -3.21116 3.40591 0
M  V30 14352 H 1362.01 -4.25806 4.8846 0
M  V30 14353 N 1355.42 -1.03311 -1.19015 0
M  V30 14354 C 1356.67 -0.727266 -1.88132 0
M  V30 14355 C 1356.98 0.747488 -1.80754 0
M  V30 14356 O 1358.19 1.16654 -2.45161 0
M  V30 14357 C 1356.64 -1.25056 -3.37474 0
M  V30 14358 C 1356.25 -2.7534 -3.534 0
M  V30 14359 C 1357.99 -1.02091 -4.12041 0
M  V30 14360 C 1355.9 -3.21066 -4.96659 0
M  V30 14361 H 1354.83 -0.268349 -0.704631 0
M  V30 14362 H 1357.48 -1.24795 -1.3453 0
M  V30 14363 H 1355.86 -0.65777 -3.90499 0
M  V30 14364 H 1357.04 -3.40311 -3.10684 0
M  V30 14365 H 1355.35 -2.96633 -2.92229 0
M  V30 14366 H 1357.95 -1.33777 -5.17695 0
M  V30 14367 H 1358.29 0.0421413 -4.16279 0
M  V30 14368 H 1358.83 -1.57792 -3.65166 0
M  V30 14369 H 1355.56 -4.26719 -4.97586 0
M  V30 14370 H 1355.08 -2.60826 -5.4012 0
M  V30 14371 H 1356.76 -3.14651 -5.65335 0
M  V30 14372 N 1356.9 1.35099 -0.81154 0
M  V30 14373 C 1358.17 1.93009 -0.317289 0
M  V30 14374 C 1358.55 1.74101 1.19382 0
M  V30 14375 O 1357.9 1.11295 1.99564 0
M  V30 14376 C 1358.11 3.41191 -0.734123 0
M  V30 14377 C 1359.46 4.1834 -0.726437 0
M  V30 14378 O 1360.48 3.49727 -0.67598 0
M  V30 14379 O 1359.34 5.4077 -0.789291 0
M  V30 14380 H 1356.44 0.822707 -0.084153 0
M  V30 14381 H 1358.98 1.44145 -0.895569 0
M  V30 14382 H 1357.75 3.48705 -1.7754 0
M  V30 14383 H 1357.38 3.97384 -0.130919 0
M  V30 14384 N 1358.37 0.56548 1.47106 0
M  V30 14385 C 1359.79 0.225855 1.57994 0
M  V30 14386 C 1359.99 -1.27173 1.56299 0
M  V30 14387 O 1359.05 -2.05242 1.47078 0
M  V30 14388 C 1360.36 0.859829 2.88145 0
M  V30 14389 C 1361.91 0.831821 3.01744 0
M  V30 14390 C 1362.38 1.44502 4.34607 0
M  V30 14391 N 1363.87 1.40857 4.41263 0
M  V30 14392 C 1364.61 1.85258 5.42648 0
M  V30 14393 N 1364.1 2.37553 6.508 0
M  V30 14394 N 1365.9 1.76279 5.33744 0
M  V30 14395 H 1358.05 1.53837 1.46451 0
M  V30 14396 H 1360.31 0.642013 0.697512 0
M  V30 14397 H 1360.02 1.91264 2.95146 0
M  V30 14398 H 1359.89 0.357762 3.755 0
M  V30 14399 H 1362.28 -0.212319 2.94335 0
M  V30 14400 H 1362.36 1.37173 2.1591 0
M  V30 14401 H 1362 2.48827 4.42773 0
M  V30 14402 H 1361.93 0.880479 5.19187 0
M  V30 14403 H 1364.42 1.02614 3.63702 0
M  V30 14404 H 1364.74 2.69335 7.24347 0
M  V30 14405 H 1363.08 2.41569 6.51667 0
M  V30 14406 H 1366.27 1.35195 4.48152 0
M  V30 14407 H 1366.45 2.11199 6.12616 0
M  V30 14408 N 1359.85 -1.54672 0.302354 0
M  V30 14409 C 1360.82 -2.22246 -0.560283 0
M  V30 14410 C 1361.82 -1.20895 -1.06023 0
M  V30 14411 O 1363.01 -1.45621 -0.956047 0
M  V30 14412 C 1360.14 -2.9099 -1.77589 0
M  V30 14413 H 1361.33 -2.99885 0.0301274 0
M  V30 14414 H 1358.88 -1.56209 0.0532036 0
M  V30 14415 H 1359.62 -2.17433 -2.4061 0
M  V30 14416 H 1359.4 -3.65288 -1.42503 0
M  V30 14417 H 1360.89 -3.42535 -2.38871 0
M  V30 14418 N 1361.33 -0.0301034 -1.57571 0
M  V30 14419 C 1362.26 0.980187 -2.07183 0
M  V30 14420 C 1363.28 1.2882 -0.995449 0
M  V30 14421 O 1364.46 1.25268 -1.27162 0
M  V30 14422 C 1361.56 2.30734 -2.48224 0
M  V30 14423 C 1360.74 2.18434 -3.78953 0
M  V30 14424 C 1359.8 3.34092 -4.06533 0
M  V30 14425 O 1358.82 3.10934 -4.76769 0
M  V30 14426 N 1360.02 4.57914 -3.56784 0
M  V30 14427 H 1362.79 0.556877 -2.94481 0
M  V30 14428 H 1360.35 0.156632 -1.61141 0
M  V30 14429 H 1362.34 3.06936 -2.63766 0
M  V30 14430 H 1360.91 2.64703 -1.66287 0
M  V30 14431 H 1360.13 1.26953 -3.73198 0
M  V30 14432 H 1361.42 2.07421 -4.64601 0
M  V30 14433 H 1360.82 4.79623 -2.99964 0
M  V30 14434 H 1359.38 5.31281 -3.77603 0
M  V30 14435 N 1362.81 1.55714 0.243056 0
M  V30 14436 C 1363.72 1.93777 1.32241 0
M  V30 14437 C 1364.73 0.838709 1.52452 0
M  V30 14438 O 1365.91 1.14044 1.66 0
M  V30 14439 C 1362.98 2.22808 2.65627 0
M  V30 14440 C 1362.04 3.46166 2.53904 0
M  V30 14441 C 1361.27 3.73802 3.8093 0
M  V30 14442 O 1361.49 3.0345 4.82985 0
M  V30 14443 O 1360.43 4.67323 3.79332 0
M  V30 14444 H 1364.25 2.85718 1.02951 0
M  V30 14445 H 1361.84 1.42646 0.444135 0
M  V30 14446 H 1363.72 2.4277 3.44442 0
M  V30 14447 H 1362.39 1.34045 2.94642 0
M  V30 14448 H 1361.3 3.31506 1.73362 0
M  V30 14449 H 1362.63 4.35244 2.29834 0
M  V30 14450 N 1364.29 -0.50888 1.49158 0
M  V30 14451 C 1365.24 -1.60799 1.61641 0
M  V30 14452 C 1366.22 -1.53808 0.472434 0
M  V30 14453 O 1367.41 -1.61471 0.724985 0
M  V30 14454 C 1364.54 -2.99444 1.67894 0
M  V30 14455 C 1363.63 -3.1146 2.87843 0
M  V30 14456 N 1364.02 -2.93387 4.12016 0
M  V30 14457 C 1362.32 -3.42549 2.85616 0
M  V30 14458 C 1363.02 -3.09378 4.92606 0
M  V30 14459 N 1361.99 -3.37902 4.2582 0
M  V30 14460 H 1365.8 -1.45468 2.55375 0
M  V30 14461 H 1363.31 -0.714832 1.45822 0
M  V30 14462 H 1365.31 -3.78423 1.74934 0
M  V30 14463 H 1363.97 -3.1585 0.752919 0
M  V30 14464 H 1364.98 -2.69721 4.42121 0
M  V30 14465 H 1361.65 -3.65181 2.02359 0
M  V30 14466 H 1363.04 -2.99964 6.01225 0
M  V30 14467 N 1365.76 -1.381 -0.759346 0
M  V30 14468 C 1366.69 -1.37578 -1.88665 0
M  V30 14469 C 1367.68 -0.242529 -1.68362 0
M  V30 14470 O 1368.86 -0.444751 -1.89039 0
M  V30 14471 C 1365.99 -1.19437 -3.26117 0
M  V30 14472 C 1364.94 -2.29905 -3.61009 0
M  V30 14473 C 1364.27 -1.96874 -4.97136 0
M  V30 14474 C 1365.57 -3.72143 -3.66479 0
M  V30 14475 H 1367.26 -2.31912 -1.89359 0
M  V30 14476 H 1364.81 -1.11632 -0.909631 0
M  V30 14477 H 1366.76 -1.17698 -4.0463 0
M  V30 14478 H 1365.49 -0.21562 -3.25887 0
M  V30 14479 H 1364.15 -2.3082 -2.84812 0
M  V30 14480 H 1363.79 -0.974979 -4.9346 0
M  V30 14481 H 1363.49 -2.70855 -5.21451 0
M  V30 14482 H 1365.02 -1.96744 -5.78035 0
M  V30 14483 H 1366.43 -3.73291 -4.35117 0
M  V30 14484 H 1364.83 -4.45282 -4.02299 0
M  V30 14485 H 1365.9 -4.04874 -2.66843 0
M  V30 14486 N 1367.24 0.986894 -1.22875 0
M  V30 14487 C 1368.19 2.09935 -1.00151 0
M  V30 14488 C 1369.18 1.69303 0.0573751 0
M  V30 14489 O 1370.39 1.79746 -0.0955781 0
M  V30 14490 H 1366.77 0.686605 -0.306721 0
M  V30 14491 H 1368.74 2.26271 -1.94535 0
M  V30 14492 C 1367.49 3.42442 -0.602374 0
M  V30 14493 H 1366.81 3.74154 -1.40886 0
M  V30 14494 H 1368.25 4.21242 -0.482836 0
M  V30 14495 C 1366.71 3.29785 0.688707 0
M  V30 14496 O 1367.24 3.6208 1.73957 0
M  V30 14497 N 1365.44 2.82956 0.662152 0
M  V30 14498 H 1364.99 2.56873 -0.193337 0
M  V30 14499 H 1364.95 2.74869 1.52625 0
M  V30 14500 N 1368.72 1.0394 1.18466 0
M  V30 14501 C 1369.95 0.760909 1.92077 0
M  V30 14502 C 1370.36 -0.685622 1.7634 0
M  V30 14503 O 1369.7 -1.47894 1.08963 0
M  V30 14504 C 1369.76 1.04583 3.43952 0
M  V30 14505 C 1369.43 2.48602 3.83466 0
M  V30 14506 C 1370.42 3.46775 3.87354 0
M  V30 14507 C 1368.11 2.8328 4.14798 0
M  V30 14508 C 1370.1 4.77678 4.22022 0
M  V30 14509 C 1367.79 4.1439 4.49138 0
M  V30 14510 C 1368.79 5.11399 4.52725 0
M  V30 14511 O 1368.48 6.40159 4.86264 0
M  V30 14512 H 1368.21 0.276991 0.616646 0
M  V30 14513 H 1370.76 1.3898 1.5124 0
M  V30 14514 H 1368.99 0.359807 3.85022 0
M  V30 14515 H 1370.68 0.755336 3.9881 0
M  V30 14516 H 1371.45 3.21323 3.63286 0
M  V30 14517 H 1367.33 2.08444 4.11184 0
M  V30 14518 H 1370.87 5.53393 4.24737 0
M  V30 14519 H 1366.77 4.39611 4.72666 0
M  V30 14520 H 1367.54 6.4479 5.04171 0
M  V30 14521 N 1370.2 -1.34667 0.818693 0
M  V30 14522 C 1371.44 -1.98708 0.405359 0
M  V30 14523 C 1371.78 -1.64767 -1.02788 0
M  V30 14524 O 1371.05 -0.91714 -1.71519 0
M  V30 14525 C 1371.34 -3.55016 0.602966 0
M  V30 14526 C 1371.19 -3.98713 2.08201 0
M  V30 14527 C 1372.51 -4.40085 0.0362489 0
M  V30 14528 H 1369.63 -0.721831 0.148756 0
M  V30 14529 H 1372.27 -1.59628 1.03047 0
M  V30 14530 H 1370.42 -3.88435 0.0708453 0
M  V30 14531 H 1372.09 -3.75647 2.67745 0
M  V30 14532 H 1370.33 -3.49179 2.57403 0
M  V30 14533 H 1371 -5.0751 2.17111 0
M  V30 14534 H 1373.48 -4.13195 0.490837 0
M  V30 14535 H 1372.36 -5.4852 0.204344 0
M  V30 14536 H 1372.62 -4.29243 -1.05845 0
M  V30 14537 N 1371.68 -0.573274 -1.46804 0
M  V30 14538 C 1372.9 -0.0605984 -2.06811 0
M  V30 14539 C 1373.32 1.24024 -1.4235 0
M  V30 14540 O 1372.68 1.7477 -0.525515 0
M  V30 14541 C 1372.73 0.121828 -3.61295 0
M  V30 14542 O 1372.45 -1.12751 -4.23342 0
M  V30 14543 C 1373.95 0.669941 -4.38208 0
M  V30 14544 H 1371.17 -0.0531498 -0.668892 0
M  V30 14545 H 1373.71 -0.791259 -1.88572 0
M  V30 14546 H 1371.87 0.802674 -3.78993 0
M  V30 14547 H 1372.28 -0.935361 -5.16092 0
M  V30 14548 H 1373.76 0.746806 -5.46925 0
M  V30 14549 H 1374.23 1.68483 -4.05598 0
M  V30 14550 H 1374.84 0.0242721 -4.25293 0
M  V30 14551 N 1373.15 1.5451 -0.310553 0
M  V30 14552 C 1374.06 2.27557 0.570518 0
M  V30 14553 C 1375.08 1.31426 1.14032 0
M  V30 14554 O 1376.26 1.64423 1.16306 0
M  V30 14555 C 1373.32 3.00933 1.72163 0
M  V30 14556 C 1372.38 4.12623 1.18495 0
M  V30 14557 C 1371.62 4.8249 2.28121 0
M  V30 14558 O 1371.84 4.5178 3.48211 0
M  V30 14559 O 1370.77 5.69686 1.94273 0
M  V30 14560 H 1374.6 3.03692 -0.0223195 0
M  V30 14561 H 1372.18 1.49203 -0.0766821 0
M  V30 14562 H 1374.07 3.46925 2.39208 0
M  V30 14563 H 1372.74 2.27685 2.3009 0
M  V30 14564 H 1371.65 3.71008 0.479956 0
M  V30 14565 H 1372.98 4.87876 0.650994 0
M  V30 14566 N 1374.63 0.0384594 1.57553 0
M  V30 14567 C 1375.88 -0.637533 1.91359 0
M  V30 14568 C 1376.2 -1.7275 0.91744 0
M  V30 14569 O 1377.4 -2.46078 1.14709 0
M  V30 14570 C 1375.86 -1.18526 3.39823 0
M  V30 14571 C 1375.47 -0.128086 4.47817 0
M  V30 14572 C 1377.21 -1.83723 3.82683 0
M  V30 14573 C 1375.12 -0.687978 5.87385 0
M  V30 14574 H 1374.05 -0.241898 0.714144 0
M  V30 14575 H 1376.7 0.105281 1.83198 0
M  V30 14576 H 1375.08 -1.97999 3.42947 0
M  V30 14577 H 1376.25 0.644865 4.56265 0
M  V30 14578 H 1374.57 0.425672 4.14219 0
M  V30 14579 H 1377.17 -2.26585 4.84317 0
M  V30 14580 H 1377.51 -2.68377 3.18244 0
M  V30 14581 H 1378.04 -1.10926 3.82021 0
M  V30 14582 H 1374.78 0.120642 6.55389 0
M  V30 14583 H 1374.3 -1.4292 5.82524 0
M  V30 14584 H 1375.98 -1.17483 6.36244 0
M  V30 14585 N 1376.11 -1.55841 -0.234795 0
M  V30 14586 C 1377.07 -1.9051 -1.2743 0
M  V30 14587 C 1378.07 -0.782543 -1.40474 0
M  V30 14588 O 1379.26 -1.05043 -1.38966 0
M  V30 14589 C 1376.4 -2.14424 -2.65019 0
M  V30 14590 H 1377.59 -2.83471 -0.979003 0
M  V30 14591 H 1375.14 -1.48919 -0.47463 0
M  V30 14592 H 1375.88 -1.23972 -2.99669 0
M  V30 14593 H 1375.66 -2.96191 -2.56931 0
M  V30 14594 H 1377.15 -2.42388 -3.40056 0
M  V30 14595 N 1377.59 0.500963 -1.49426 0
M  V30 14596 C 1378.52 1.6192 -1.62217 0
M  V30 14597 C 1379.53 1.54774 -0.504868 0
M  V30 14598 O 1380.72 1.60705 -0.776919 0
M  V30 14599 C 1377.82 3.0071 -1.56291 0
M  V30 14600 C 1377 3.3304 -2.83555 0
M  V30 14601 C 1376.06 4.51241 -2.7068 0
M  V30 14602 O 1375.08 4.53023 -3.44615 0
M  V30 14603 N 1376.28 5.51156 -1.82228 0
M  V30 14604 H 1379.05 1.51374 -2.58662 0
M  V30 14605 H 1376.61 0.688837 -1.46515 0
M  V30 14606 H 1378.6 3.77705 -1.45332 0
M  V30 14607 H 1377.17 3.0518 -0.677043 0
M  V30 14608 H 1376.39 2.44942 -3.08865 0
M  V30 14609 H 1377.68 3.51437 -3.67926 0
M  V30 14610 H 1377.08 5.52516 -1.21417 0
M  V30 14611 H 1375.63 6.27253 -1.77192 0
M  V30 14612 N 1379.07 1.38501 0.752011 0
M  V30 14613 C 1380.34 1.25315 1.50185 0
M  V30 14614 C 1380.72 -0.144762 2.10603 0
M  V30 14615 O 1380.07 -1.15441 1.97194 0
M  V30 14616 C 1380.28 2.36451 2.56694 0
M  V30 14617 C 1381.63 2.74952 3.23553 0
M  V30 14618 O 1382.65 2.35774 2.67 0
M  V30 14619 O 1381.51 3.42517 4.25845 0
M  V30 14620 H 1378.61 0.490139 0.666103 0
M  V30 14621 H 1381.15 1.50333 0.787288 0
M  V30 14622 H 1379.93 3.29978 2.10309 0
M  V30 14623 H 1379.55 2.13006 3.35729 0
M  V30 14624 N 1380.55 -0.980364 1.23396 0
M  V30 14625 C 1381.46 -2.10688 1.03188 0
M  V30 14626 C 1382.47 -1.73984 -0.0236159 0
M  V30 14627 O 1383.65 -2.00666 0.171841 0
M  V30 14628 C 1380.71 -3.4101 0.625563 0
M  V30 14629 C 1379.77 -3.91739 1.75611 0
M  V30 14630 C 1379.01 -5.15841 1.36908 0
M  V30 14631 O 1379.23 -5.69837 0.253329 0
M  V30 14632 O 1378.16 -5.60638 2.19018 0
M  V30 14633 H 1381.99 -2.30626 1.97599 0
M  V30 14634 H 1379.57 -1.09067 1.02102 0
M  V30 14635 H 1381.46 -4.19402 0.409909 0
M  V30 14636 H 1380.13 -3.22402 -0.28956 0
M  V30 14637 H 1379.04 -3.14464 2.0264 0
M  V30 14638 H 1380.37 -4.14801 2.64955 0
M  V30 14639 N 1382.02 -1.04567 -1.17913 0
M  V30 14640 C 1383.27 -0.747179 -1.8735 0
M  V30 14641 C 1383.59 0.728274 -1.81537 0
M  V30 14642 O 1384.79 1.14048 -2.46385 0
M  V30 14643 C 1383.25 -1.28629 -3.36129 0
M  V30 14644 C 1382.86 -2.79073 -3.5046 0
M  V30 14645 C 1384.6 -1.06455 -4.10935 0
M  V30 14646 C 1382.51 -3.26316 -4.93226 0
M  V30 14647 H 1381.44 -0.275807 -0.701745 0
M  V30 14648 H 1384.09 -1.26215 -1.33199 0
M  V30 14649 H 1382.47 -0.699151 -3.89779 0
M  V30 14650 H 1383.64 -3.43587 -3.07057 0
M  V30 14651 H 1381.96 -2.99716 -2.89066 0
M  V30 14652 H 1384.56 -1.3926 -5.16247 0
M  V30 14653 H 1384.9 -0.00201298 -4.163 0
M  V30 14654 H 1385.43 -1.61656 -3.63472 0
M  V30 14655 H 1382.17 -4.31972 -4.93032 0
M  V30 14656 H 1381.69 -2.6654 -5.37323 0
M  V30 14657 H 1383.37 -3.2063 -5.61966 0
M  V30 14658 N 1383.5 1.34231 -0.825823 0
M  V30 14659 C 1384.73 2.02124 -0.427727 0
M  V30 14660 C 1385.14 1.62331 0.971869 0
M  V30 14661 O 1384.48 0.825946 1.64085 0
M  V30 14662 C 1384.54 3.56626 -0.453698 0
M  V30 14663 C 1384.21 4.19752 -1.80713 0
M  V30 14664 C 1385.21 4.40062 -2.76842 0
M  V30 14665 C 1382.89 4.5646 -2.09641 0
M  V30 14666 C 1384.88 4.9621 -4.00069 0
M  V30 14667 C 1382.57 5.12318 -3.33127 0
M  V30 14668 C 1383.57 5.32137 -4.28158 0
M  V30 14669 O 1383.26 5.86811 -5.49462 0
M  V30 14670 H 1382.99 0.654389 -0.169563 0
M  V30 14671 H 1385.54 1.72421 -1.11624 0
M  V30 14672 H 1383.77 3.856 0.291527 0
M  V30 14673 H 1385.46 4.0583 -0.075249 0
M  V30 14674 H 1386.23 4.12064 -2.5579 0
M  V30 14675 H 1382.11 4.40337 -1.36473 0
M  V30 14676 H 1385.65 5.11594 -4.74254 0
M  V30 14677 H 1381.55 5.39746 -3.54041 0
M  V30 14678 H 1382.32 6.05242 -5.51022 0
M  V30 14679 N 1384.98 0.581051 1.46498 0
M  V30 14680 C 1386.23 0.0637189 2.01599 0
M  V30 14681 C 1386.54 -1.30353 1.45834 0
M  V30 14682 O 1387.75 -1.91211 1.92745 0
M  V30 14683 C 1386.2 0.0633254 3.59844 0
M  V30 14684 C 1385.81 1.42879 4.24605 0
M  V30 14685 C 1387.56 -0.400149 4.2261 0
M  V30 14686 C 1385.46 1.38621 5.74924 0
M  V30 14687 H 1384.39 0.0200512 0.753733 0
M  V30 14688 H 1387.04 0.732451 1.68248 0
M  V30 14689 H 1385.43 -0.671538 3.90264 0
M  V30 14690 H 1386.6 2.18325 4.05796 0
M  V30 14691 H 1384.91 1.83215 3.73927 0
M  V30 14692 H 1387.51 -0.450771 5.32797 0
M  V30 14693 H 1387.85 -1.41733 3.9143 0
M  V30 14694 H 1388.39 0.280598 3.96809 0
M  V30 14695 H 1385.13 2.38014 6.10761 0
M  V30 14696 H 1384.65 0.673926 5.96002 0
M  V30 14697 H 1386.33 1.09841 6.37608 0
M  V30 14698 N 1386.46 -1.54343 0.318742 0
M  V30 14699 C 1387.39 -2.27118 -0.542206 0
M  V30 14700 C 1388.37 -1.27731 -1.12334 0
M  V30 14701 O 1389.55 -1.56535 -1.14937 0
M  V30 14702 C 1386.68 -3.02535 -1.70558 0
M  V30 14703 C 1385.64 -4.09218 -1.25398 0
M  V30 14704 C 1384.96 -4.72449 -2.50391 0
M  V30 14705 C 1386.26 -5.20971 -0.372332 0
M  V30 14706 H 1387.96 -2.9933 0.0648226 0
M  V30 14707 H 1385.5 -1.43963 0.0326168 0
M  V30 14708 H 1387.46 -3.52174 -2.31412 0
M  V30 14709 H 1386.18 -2.27931 -2.33912 0
M  V30 14710 H 1384.84 -3.60455 -0.668392 0
M  V30 14711 H 1384.49 -3.94466 -3.12099 0
M  V30 14712 H 1384.19 -5.4451 -2.20868 0
M  V30 14713 H 1385.71 -5.2486 -3.12016 0
M  V30 14714 H 1387.13 -5.66396 -0.887029 0
M  V30 14715 H 1385.52 -5.99859 -0.17009 0
M  V30 14716 H 1386.59 -4.81198 0.598064 0
M  V30 14717 N 1387.94 -0.0468143 -1.5753 0
M  V30 14718 C 1389.21 0.667567 -1.83856 0
M  V30 14719 C 1389.59 1.89297 -0.934346 0
M  V30 14720 O 1388.94 2.28499 0.00570067 0
M  V30 14721 C 1389.15 1.029 -3.33485 0
M  V30 14722 C 1390.5 1.41315 -4.00394 0
M  V30 14723 O 1391.52 1.12147 -3.38085 0
M  V30 14724 O 1390.38 1.95732 -5.10246 0
M  V30 14725 H 1387.48 0.329112 -0.758692 0
M  V30 14726 H 1390.02 -0.0758456 -1.6953 0
M  V30 14727 H 1388.79 0.157617 -3.90982 0
M  V30 14728 H 1388.42 1.83 -3.52982 0
M  V30 14729 N 1389.41 1.55964 0.226527 0
M  V30 14730 C 1390.83 1.68978 0.793936 0
M  V30 14731 C 1391.18 0.647938 1.85192 0
M  V30 14732 O 1390.3 -0.201907 2.15456 0
M  V30 14733 C 1390.9 3.06351 1.44687 0
M  V30 14734 C 1389.46 3.21237 1.96173 0
M  V30 14735 C 1388.6 2.64896 0.8201 0
M  V30 14736 H 1391.55 1.587 0.00195967 0
M  V30 14737 H 1391.57 3.01932 2.31554 0
M  V30 14738 H 1391.09 3.82156 0.676611 0
M  V30 14739 H 1389.19 2.50292 2.76016 0
M  V30 14740 H 1389.3 4.28394 2.14512 0
M  V30 14741 H 1387.66 2.23247 1.22609 0
M  V30 14742 H 1388.45 3.43243 0.0625967 0
M  V30 14743 N 1390.89 -0.493031 1.4969 0
M  V30 14744 C 1391.8 -1.61991 1.69694 0
M  V30 14745 C 1392.82 -1.64061 0.579641 0
M  V30 14746 O 1393.99 -1.82335 0.855323 0
M  V30 14747 C 1391.06 -2.98323 1.76648 0
M  V30 14748 C 1390.12 -3.06816 3.00271 0
M  V30 14749 C 1389.35 -4.36644 3.06883 0
M  V30 14750 O 1389.58 -5.25901 2.20872 0
M  V30 14751 O 1388.51 -4.50275 3.99419 0
M  V30 14752 H 1392.34 -1.48042 2.65174 0
M  V30 14753 H 1389.92 -0.670182 1.33525 0
M  V30 14754 H 1391.8 -3.79335 1.83529 0
M  V30 14755 H 1390.48 -3.12517 0.843482 0
M  V30 14756 H 1389.39 -2.24962 2.98903 0
M  V30 14757 H 1390.72 -2.97551 3.92077 0
M  V30 14758 N 1392.37 -1.38898 -0.744656 0
M  V30 14759 C 1393.3 -1.39571 -1.87195 0
M  V30 14760 C 1394.28 -0.260372 -1.68095 0
M  V30 14761 O 1395.47 -0.464776 -1.88556 0
M  V30 14762 C 1392.6 -1.22889 -3.24832 0
M  V30 14763 C 1391.55 -2.33721 -3.58551 0
M  V30 14764 C 1390.88 -2.02136 -4.9502 0
M  V30 14765 C 1392.18 -3.7601 -3.62511 0
M  V30 14766 H 1393.87 -2.33908 -1.86889 0
M  V30 14767 H 1391.42 -1.12591 -0.897739 0
M  V30 14768 H 1393.37 -1.21983 -4.03359 0
M  V30 14769 H 1392.09 -0.250172 -3.2564 0
M  V30 14770 H 1390.75 -2.33828 -2.82348 0
M  V30 14771 H 1390.4 -1.02726 -4.92399 0
M  V30 14772 H 1390.1 -2.76371 -5.18549 0
M  V30 14773 H 1391.62 -2.02864 -5.75915 0
M  V30 14774 H 1393.04 -3.77885 -4.31133 0
M  V30 14775 H 1391.44 -4.49524 -3.97553 0
M  V30 14776 H 1392.51 -4.07682 -2.62533 0
M  V30 14777 N 1393.85 0.973806 -1.23914 0
M  V30 14778 C 1394.78 2.08526 -1.05068 0
M  V30 14779 C 1395.76 1.70065 0.0344761 0
M  V30 14780 O 1396.94 1.93755 -0.131432 0
M  V30 14781 C 1394.07 3.41198 -0.648165 0
M  V30 14782 C 1393.03 3.9359 -1.6814 0
M  V30 14783 C 1392.35 5.22534 -1.13414 0
M  V30 14784 C 1393.65 4.22116 -3.07597 0
M  V30 14785 H 1395.35 2.24551 -1.98034 0
M  V30 14786 H 1392.89 1.07905 -0.953546 0
M  V30 14787 H 1394.85 4.18383 -0.50334 0
M  V30 14788 H 1393.57 3.25056 0.317182 0
M  V30 14789 H 1392.23 3.18555 -1.81434 0
M  V30 14790 H 1391.88 5.02747 -0.159578 0
M  V30 14791 H 1391.58 5.58555 -1.82456 0
M  V30 14792 H 1393.1 6.02334 -1.0013 0
M  V30 14793 H 1394.52 4.90027 -2.97567 0
M  V30 14794 H 1392.91 4.69352 -3.73937 0
M  V30 14795 H 1393.98 3.29128 -3.56094 0
M  V30 14796 N 1395.33 1.05191 1.17357 0
M  V30 14797 C 1396.57 0.760479 1.87246 0
M  V30 14798 C 1396.9 -0.714618 1.81434 0
M  V30 14799 O 1396.17 -1.51636 1.24029 0
M  V30 14800 H 1394.75 0.278317 0.693216 0
M  V30 14801 H 1397.41 1.33106 1.42369 0
M  V30 14802 H 1396.5 1.07542 2.92987 0
M  V30 14803 N 1396.8 -1.33791 0.83293 0
M  V30 14804 C 1397.77 -2.27637 0.267196 0
M  V30 14805 C 1398.77 -1.50709 -0.560669 0
M  V30 14806 O 1399.96 -1.70109 -0.375321 0
M  V30 14807 C 1397.09 -3.35136 -0.624248 0
M  V30 14808 H 1398.28 -2.79186 1.09522 0
M  V30 14809 H 1395.84 -1.44093 0.605554 0
M  V30 14810 H 1396.57 -2.88818 -1.47494 0
M  V30 14811 H 1396.36 -3.92087 -0.0319827 0
M  V30 14812 H 1397.85 -4.05113 -1.01355 0
M  V30 14813 N 1398.28 -0.588812 -1.46187 0
M  V30 14814 C 1399.51 -0.0806571 -2.07243 0
M  V30 14815 C 1399.93 1.21766 -1.43369 0
M  V30 14816 O 1399.29 1.73694 -0.51964 0
M  V30 14817 C 1399.34 0.065267 -3.60541 0
M  V30 14818 O 1398.44 1.12026 -3.96893 0
M  V30 14819 H 1397.78 -0.0655622 -0.660755 0
M  V30 14820 H 1400.31 -0.813489 -1.87733 0
M  V30 14821 H 1400.32 0.269494 -4.07109 0
M  V30 14822 H 1399 -0.88284 -4.06422 0
M  V30 14823 H 1397.58 0.894 -3.62025 0
M  V30 14824 N 1399.76 1.54172 -0.326923 0
M  V30 14825 C 1400.72 2.2311 0.524855 0
M  V30 14826 C 1401.72 1.22567 1.04087 0
M  V30 14827 O 1402.91 1.47123 0.932759 0
M  V30 14828 C 1400.05 2.93778 1.72937 0
M  V30 14829 H 1401.24 2.99799 -0.0778327 0
M  V30 14830 H 1398.79 1.56105 -0.0780484 0
M  V30 14831 H 1399.53 2.21234 2.3712 0
M  V30 14832 H 1399.31 3.67509 1.36674 0
M  V30 14833 H 1400.8 3.46292 2.33392 0
M  V30 14834 N 1401.24 0.0551678 1.57503 0
M  V30 14835 C 1402.65 -0.3014 1.56728 0
M  V30 14836 C 1402.85 -1.71169 1.06317 0
M  V30 14837 O 1401.91 -2.4197 0.721566 0
M  V30 14838 C 1403.22 -0.12622 3.00435 0
M  V30 14839 C 1404.77 -0.197022 3.12379 0
M  V30 14840 C 1405.25 -0.0503235 4.57972 0
M  V30 14841 N 1406.74 -0.106471 4.63078 0
M  V30 14842 C 1407.47 -0.0171325 5.73397 0
M  V30 14843 N 1406.97 0.124781 6.92688 0
M  V30 14844 N 1408.76 -0.0730028 5.62053 0
M  V30 14845 H 1400.91 0.977072 1.88592 0
M  V30 14846 H 1403.18 0.37963 0.868668 0
M  V30 14847 H 1402.88 0.846286 3.41366 0
M  V30 14848 H 1402.76 -0.885574 3.66657 0
M  V30 14849 H 1405.14 -1.16 2.71345 0
M  V30 14850 H 1405.22 0.593155 2.48828 0
M  V30 14851 H 1404.87 0.909352 4.99693 0
M  V30 14852 H 1404.8 -0.859695 5.19535 0
M  V30 14853 H 1407.29 -0.215241 3.77287 0
M  V30 14854 H 1407.6 0.185548 7.72577 0
M  V30 14855 H 1405.95 0.15992 6.94816 0
M  V30 14856 H 1409.14 -0.182456 4.67744 0
M  V30 14857 H 1409.31 7.85052e-05 6.48 0
M  V30 14858 N 1402.72 -1.56081 -0.218252 0
M  V30 14859 C 1404.13 -1.69397 -0.784964 0
M  V30 14860 C 1404.48 -0.65775 -1.84846 0
M  V30 14861 O 1403.6 0.190478 -2.1556 0
M  V30 14862 C 1404.2 -3.07114 -1.4306 0
M  V30 14863 C 1402.76 -3.22273 -1.94466 0
M  V30 14864 C 1401.9 -2.65327 -0.80604 0
M  V30 14865 H 1404.86 -1.58699 0.0064566 0
M  V30 14866 H 1404.88 -3.03156 -2.2995 0
M  V30 14867 H 1404.39 -3.8251 -0.656335 0
M  V30 14868 H 1402.49 -2.51752 -2.74684 0
M  V30 14869 H 1402.6 -4.29526 -2.12237 0
M  V30 14870 H 1400.97 -2.23894 -1.21423 0
M  V30 14871 H 1401.75 -3.43271 -0.0443928 0
M  V30 14872 N 1404.2 0.485086 -1.49949 0
M  V30 14873 C 1405.47 1.24639 -1.50747 0
M  V30 14874 C 1405.85 2.09683 -0.244162 0
M  V30 14875 O 1405.2 2.1503 0.772949 0
M  V30 14876 C 1405.41 2.08946 -2.7954 0
M  V30 14877 C 1406.76 2.67604 -3.29656 0
M  V30 14878 O 1407.78 2.192 -2.80766 0
M  V30 14879 O 1406.64 3.55761 -4.14845 0
M  V30 14880 H 1403.74 0.564849 -0.604049 0
M  V30 14881 H 1406.28 0.498052 -1.62227 0
M  V30 14882 H 1405.05 1.46185 -3.62968 0
M  V30 14883 H 1404.68 2.90941 -2.70997 0
M  V30 14884 N 1405.67 1.39291 0.737279 0
M  V30 14885 C 1406.6 1.40562 1.86452 0
M  V30 14886 C 1407.58 0.269283 1.67955 0
M  V30 14887 O 1408.77 0.474769 1.88307 0
M  V30 14888 C 1405.9 1.2461 3.24175 0
M  V30 14889 C 1404.85 2.35619 3.57306 0
M  V30 14890 C 1404.18 2.04758 4.93941 0
M  V30 14891 C 1405.48 3.77927 3.60512 0
M  V30 14892 H 1407.17 2.34896 1.85646 0
M  V30 14893 H 1404.72 1.13065 0.891756 0
M  V30 14894 H 1406.67 1.2412 4.02706 0
M  V30 14895 H 1405.4 0.267438 3.25503 0
M  V30 14896 H 1404.06 2.35322 2.81104 0
M  V30 14897 H 1403.7 1.05336 4.91847 0
M  V30 14898 H 1403.4 2.79117 5.17076 0
M  V30 14899 H 1404.93 2.05915 5.74832 0
M  V30 14900 H 1406.34 3.80166 4.29123 0
M  V30 14901 H 1404.74 4.51626 3.95164 0
M  V30 14902 H 1405.81 4.09068 2.60368 0
M  V30 14903 N 1407.15 -0.967221 1.24429 0
M  V30 14904 C 1408.56 -1.52488 1.07723 0
M  V30 14905 C 1408.91 -1.93031 -0.351191 0
M  V30 14906 O 1408.04 -1.77376 -1.23963 0
M  V30 14907 C 1408.63 -2.77107 1.94929 0
M  V30 14908 C 1407.19 -3.29227 1.82446 0
M  V30 14909 C 1406.34 -2.02133 1.89835 0
M  V30 14910 H 1409.29 -0.785465 1.37899 0
M  V30 14911 H 1409.31 -3.50459 1.48186 0
M  V30 14912 H 1408.82 -2.47567 2.98885 0
M  V30 14913 H 1406.92 -3.63617 0.813246 0
M  V30 14914 H 1407.04 -3.98095 2.66566 0
M  V30 14915 H 1405.4 -2.16867 1.3357 0
M  V30 14916 H 1406.18 -1.74958 2.95372 0
M  V30 14917 N 1408.63 -1.05812 -1.16797 0
M  V30 14918 C 1409.86 -0.792519 -1.9112 0
M  V30 14919 C 1410.27 0.652549 -1.77164 0
M  V30 14920 O 1409.63 1.44633 -1.113 0
M  V30 14921 C 1409.68 -1.17172 -3.41984 0
M  V30 14922 O 1409.4 -2.56008 -3.55516 0
M  V30 14923 C 1410.9 -0.933162 -4.33367 0
M  V30 14924 H 1408.12 -0.28768 -0.606202 0
M  V30 14925 H 1410.67 -1.41046 -1.48075 0
M  V30 14926 H 1408.82 -0.598413 -3.8275 0
M  V30 14927 H 1409.24 -2.71053 -4.49033 0
M  V30 14928 H 1410.71 -1.24817 -5.37703 0
M  V30 14929 H 1411.19 0.131345 -4.39004 0
M  V30 14930 H 1411.79 -1.49062 -3.98322 0
M  V30 14931 N 1410.11 1.33347 -0.840014 0
M  V30 14932 C 1411.52 1.80077 -0.492851 0
M  V30 14933 C 1411.87 1.69495 0.988221 0
M  V30 14934 O 1410.99 1.2449 1.77006 0
M  V30 14935 C 1411.59 3.2696 -0.887827 0
M  V30 14936 C 1410.15 3.71703 -0.592785 0
M  V30 14937 C 1409.3 2.54742 -1.09554 0
M  V30 14938 H 1412.25 1.20853 -1.02861 0
M  V30 14939 H 1412.27 3.79983 -0.198327 0
M  V30 14940 H 1411.78 3.3463 -1.96581 0
M  V30 14941 H 1409.88 3.69559 0.475086 0
M  V30 14942 H 1409.99 4.65123 -1.14882 0
M  V30 14943 H 1408.36 2.49411 -0.516357 0
M  V30 14944 H 1409.14 2.65173 -2.18032 0
M  V30 14945 N 1411.59 0.596556 1.45873 0
M  V30 14946 C 1412.81 0.0934926 2.06689 0
M  V30 14947 C 1413.23 -1.21743 1.44305 0
M  V30 14948 O 1412.59 -1.73912 0.553253 0
M  V30 14949 C 1412.64 -0.0643337 3.61443 0
M  V30 14950 O 1412.36 1.19472 4.21495 0
M  V30 14951 C 1413.86 -0.600141 4.39219 0
M  V30 14952 H 1411.08 0.0637846 0.667961 0
M  V30 14953 H 1413.62 0.821159 1.87289 0
M  V30 14954 H 1411.78 -0.742278 3.80222 0
M  V30 14955 H 1412.19 1.01735 5.14539 0
M  V30 14956 H 1413.67 -0.6597 5.48044 0
M  V30 14957 H 1414.14 -1.62009 4.08227 0
M  V30 14958 H 1414.75 0.0433915 4.25278 0
M  V30 14959 N 1413.06 -1.53996 0.335095 0
M  V30 14960 C 1414.29 -2.05657 -0.268328 0
M  V30 14961 C 1414.71 -1.20897 -1.44102 0
M  V30 14962 O 1414.07 -0.220737 -1.79951 0
M  V30 14963 C 1414.12 -3.54331 -0.669481 0
M  V30 14964 O 1413.22 -3.7246 -1.77052 0
M  V30 14965 H 1412.56 -0.662386 -0.0462705 0
M  V30 14966 H 1415.09 -1.98723 0.486854 0
M  V30 14967 H 1415.1 -3.9681 -0.948971 0
M  V30 14968 H 1413.78 -4.15474 0.188168 0
M  V30 14969 H 1412.36 -3.41884 -1.48895 0
M  V30 14970 N 1414.54 -0.0635198 -1.57472 0
M  V30 14971 C 1415.95 0.470372 -1.80678 0
M  V30 14972 C 1416.3 1.70158 -0.976771 0
M  V30 14973 O 1415.43 2.15502 -0.196893 0
M  V30 14974 C 1416.02 0.860129 -3.277 0
M  V30 14975 C 1414.58 1.33893 -3.51781 0
M  V30 14976 C 1413.73 0.320078 -2.75447 0
M  V30 14977 H 1416.68 -0.289295 -1.56041 0
M  V30 14978 H 1416.7 1.72216 -3.39296 0
M  V30 14979 H 1416.21 -0.0361525 -3.88083 0
M  V30 14980 H 1414.31 2.25399 -2.96692 0
M  V30 14981 H 1414.43 1.32257 -4.60483 0
M  V30 14982 H 1412.79 0.795601 -2.41955 0
M  V30 14983 H 1413.57 -0.568332 -3.38563 0
M  V30 14984 N 1416.02 1.56195 0.209972 0
M  V30 14985 C 1416.95 1.96378 1.26324 0
M  V30 14986 C 1417.93 0.833606 1.48273 0
M  V30 14987 O 1419.12 1.0968 1.60262 0
M  V30 14988 C 1416.25 2.29048 2.61064 0
M  V30 14989 C 1415.2 3.44665 2.53752 0
M  V30 14990 C 1414.53 3.6297 3.92628 0
M  V30 14991 C 1415.83 4.79297 2.07536 0
M  V30 14992 H 1417.52 2.8461 0.929379 0
M  V30 14993 H 1415.07 1.36931 0.445627 0
M  V30 14994 H 1417.02 2.55752 3.34916 0
M  V30 14995 H 1415.74 1.37682 2.96161 0
M  V30 14996 H 1414.4 3.18028 1.82356 0
M  V30 14997 H 1414.05 2.68961 4.25052 0
M  V30 14998 H 1413.75 4.40741 3.88614 0
M  V30 14999 H 1415.27 3.92035 4.68125 0
M  V30 15000 H 1416.69 5.05131 2.71138 0
M  V30 15001 H 1415.08 5.60433 2.14557 0
M  V30 15002 H 1416.15 4.73877 1.02802 0
M  V30 15003 N 1417.5 -0.477127 1.50204 0
M  V30 15004 C 1418.91 -1.05815 1.53819 0
M  V30 15005 C 1419.26 -1.93264 0.338169 0
M  V30 15006 O 1418.38 -2.09305 -0.549576 0
M  V30 15007 C 1418.98 -1.92577 2.78746 0
M  V30 15008 C 1417.54 -2.45799 2.85061 0
M  V30 15009 C 1416.69 -1.23994 2.48034 0
M  V30 15010 H 1419.64 -0.259998 1.56556 0
M  V30 15011 H 1419.66 -2.7757 2.6026 0
M  V30 15012 H 1419.17 -1.28904 3.66068 0
M  V30 15013 H 1417.27 -3.13042 2.02077 0
M  V30 15014 H 1417.38 -2.81318 3.8781 0
M  V30 15015 H 1415.75 -1.5728 2.00338 0
M  V30 15016 H 1416.53 -0.619917 3.37657 0
M  V30 15017 N 1418.98 -1.3968 -0.729882 0
M  V30 15018 C 1420.2 -1.40467 -1.5191 0
M  V30 15019 C 1420.62 -0.000529943 -1.888 0
M  V30 15020 O 1419.98 0.972072 -1.54457 0
M  V30 15021 C 1420.03 -2.2823 -2.80345 0
M  V30 15022 O 1419.75 -3.63176 -2.4502 0
M  V30 15023 C 1421.25 -2.37455 -3.74339 0
M  V30 15024 H 1418.47 -0.479604 -0.469277 0
M  V30 15025 H 1421.01 -1.83558 -0.901484 0
M  V30 15026 H 1419.17 -1.88538 -3.38426 0
M  V30 15027 H 1419.58 -4.0964 -3.2756 0
M  V30 15028 H 1421.06 -3.031 -4.6134 0
M  V30 15029 H 1421.53 -1.39525 -4.16449 0
M  V30 15030 H 1422.14 -2.77638 -3.22176 0
M  V30 15031 N 1420.45 0.960609 -1.2494 0
M  V30 15032 C 1421.68 1.7446 -1.12153 0
M  V30 15033 C 1422.1 1.85335 0.321315 0
M  V30 15034 O 1421.46 1.32944 1.23271 0
M  V30 15035 C 1421.51 3.13945 -1.774 0
M  V30 15036 O 1420.61 3.9882 -1.04958 0
M  V30 15037 H 1419.96 0.536007 -0.391909 0
M  V30 15038 H 1422.49 1.2045 -1.65388 0
M  V30 15039 H 1422.5 3.64434 -1.83444 0
M  V30 15040 H 1421.17 3.05346 -2.82377 0
M  V30 15041 H 1419.75 3.57293 -1.06752 0
M  V30 15042 N 1421.93 1.0643 1.16234 0
M  V30 15043 C 1423.34 0.806012 1.68405 0
M  V30 15044 C 1423.69 -0.670197 1.84398 0
M  V30 15045 O 1422.82 -1.51975 1.54054 0
M  V30 15046 C 1423.41 1.45654 3.05893 0
M  V30 15047 C 1421.97 1.24599 3.55179 0
M  V30 15048 C 1421.12 1.53216 2.31128 0
M  V30 15049 H 1424.07 1.22759 1.00578 0
M  V30 15050 H 1424.09 0.872616 3.70359 0
M  V30 15051 H 1423.6 2.53092 2.94221 0
M  V30 15052 H 1421.71 0.191407 3.72108 0
M  V30 15053 H 1421.82 1.95967 4.37188 0
M  V30 15054 H 1420.18 0.952755 2.36209 0
M  V30 15055 H 1420.97 2.61816 2.22052 0
M  V30 15056 N 1423.41 -1.329 0.847073 0
M  V30 15057 C 1424.65 -1.99318 0.45294 0
M  V30 15058 C 1425.01 -1.65606 -0.971536 0
M  V30 15059 O 1426.22 -2.25054 -1.46983 0
M  V30 15060 C 1424.49 -3.50938 0.67656 0
M  V30 15061 S 1426.05 -4.37161 0.378869 0
M  V30 15062 H 1422.86 -0.690376 0.170008 0
M  V30 15063 H 1425.47 -1.61744 1.09814 0
M  V30 15064 H 1424.17 -3.72963 1.71252 0
M  V30 15065 H 1423.7 -3.93396 0.0175049 0
M  V30 15066 H 1425.72 -4.89739 -0.79813 0
M  V30 15067 N 1424.89 -0.604284 -1.45555 0
M  V30 15068 C 1426.11 -0.102634 -2.07146 0
M  V30 15069 C 1426.54 1.20239 -1.44652 0
M  V30 15070 O 1425.9 1.73133 -0.538033 0
M  V30 15071 C 1425.94 0.0270231 -3.6059 0
M  V30 15072 O 1425.05 1.0781 -3.98059 0
M  V30 15073 H 1424.39 -0.0725667 -0.660023 0
M  V30 15074 H 1426.92 -0.833355 -1.86859 0
M  V30 15075 H 1426.93 0.226299 -4.07372 0
M  V30 15076 H 1425.6 -0.925896 -4.05463 0
M  V30 15077 H 1424.18 0.855552 -3.62953 0
M  V30 15078 N 1426.37 1.53816 -0.343257 0
M  V30 15079 C 1427.78 1.86169 0.140709 0
M  V30 15080 C 1428.13 1.26449 1.50017 0
M  V30 15081 O 1427.25 0.577955 2.08539 0
M  V30 15082 C 1427.85 3.37785 0.262097 0
M  V30 15083 C 1426.41 3.70016 0.690294 0
M  V30 15084 C 1425.55 2.7674 -0.17614 0
M  V30 15085 H 1428.51 1.48383 -0.562863 0
M  V30 15086 H 1428.53 3.64564 1.08964 0
M  V30 15087 H 1428.04 3.81221 -0.727481 0
M  V30 15088 H 1426.14 3.32124 1.68891 0
M  V30 15089 H 1426.25 4.76686 0.480388 0
M  V30 15090 H 1424.62 2.52263 0.351476 0
M  V30 15091 H 1425.4 3.23006 -1.16285 0
M  V30 15092 N 1427.84 0.0718701 1.57436 0
M  V30 15093 C 1429.07 -0.606253 1.97819 0
M  V30 15094 C 1429.49 -1.63144 0.950233 0
M  V30 15095 O 1428.84 -1.82391 -0.0631051 0
M  V30 15096 C 1428.9 -1.27476 3.38278 0
M  V30 15097 O 1428.62 -0.290603 4.37135 0
M  V30 15098 C 1430.12 -2.0407 3.93536 0
M  V30 15099 H 1427.34 -0.164305 0.650573 0
M  V30 15100 H 1429.88 0.144295 2.0399 0
M  V30 15101 H 1428.04 -1.97639 3.33193 0
M  V30 15102 H 1428.45 -0.77022 5.18814 0
M  V30 15103 H 1429.92 -2.46237 4.94036 0
M  V30 15104 H 1430.4 -2.89728 3.30083 0
M  V30 15105 H 1431.01 -1.38773 4.02022 0
M  V30 15106 N 1429.32 -1.56304 -0.201686 0
M  V30 15107 C 1430.73 -1.7022 -0.766953 0
M  V30 15108 C 1431.08 -0.677318 -1.84138 0
M  V30 15109 O 1430.21 0.167604 -2.1575 0
M  V30 15110 C 1430.8 -3.08615 -1.39795 0
M  V30 15111 C 1429.36 -3.24317 -1.91037 0
M  V30 15112 C 1428.51 -2.66167 -0.777853 0
M  V30 15113 H 1431.46 -1.58683 0.0232884 0
M  V30 15114 H 1431.48 -3.05578 -2.26721 0
M  V30 15115 H 1430.99 -3.83185 -0.615728 0
M  V30 15116 H 1429.1 -2.54652 -2.71999 0
M  V30 15117 H 1429.21 -4.31753 -2.07669 0
M  V30 15118 H 1427.57 -2.25169 -1.19042 0
M  V30 15119 H 1428.36 -3.43299 -0.00798179 0
M  V30 15120 N 1430.8 0.469154 -1.50455 0
M  V30 15121 C 1432.22 0.803067 -1.37924 0
M  V30 15122 C 1432.42 1.96708 -0.436837 0
M  V30 15123 O 1431.47 2.52216 0.119823 0
M  V30 15124 C 1432.79 1.11332 -2.79331 0
M  V30 15125 C 1434.33 1.21965 -2.88259 0
M  V30 15126 C 1434.81 1.56302 -4.30504 0
M  V30 15127 N 1436.3 1.6329 -4.33464 0
M  V30 15128 C 1437.03 1.91367 -5.40524 0
M  V30 15129 N 1436.53 2.17451 -6.57789 0
M  V30 15130 N 1438.32 1.92885 -5.2797 0
M  V30 15131 H 1430.47 -0.297928 -2.103 0
M  V30 15132 H 1432.74 -0.0707794 -0.945354 0
M  V30 15133 H 1432.44 0.331052 -3.50138 0
M  V30 15134 H 1432.32 2.04903 -3.16693 0
M  V30 15135 H 1434.7 1.99259 -2.17669 0
M  V30 15136 H 1434.79 0.263692 -2.54437 0
M  V30 15137 H 1434.43 0.795479 -5.01632 0
M  V30 15138 H 1434.36 2.53052 -4.61814 0
M  V30 15139 H 1436.85 1.45164 -3.48907 0
M  V30 15140 H 1437.16 2.38154 -7.35189 0
M  V30 15141 H 1435.51 2.14839 -6.60961 0
M  V30 15142 H 1438.7 1.72005 -4.35353 0
M  V30 15143 H 1438.87 2.1443 -6.11493 0
M  V30 15144 N 1432.28 1.40065 0.722464 0
M  V30 15145 C 1433.5 1.4146 1.5167 0
M  V30 15146 C 1433.93 0.0142653 1.88095 0
M  V30 15147 O 1433.29 -0.975934 1.52791 0
M  V30 15148 C 1433.33 2.30531 2.77287 0
M  V30 15149 O 1432.44 1.74382 3.73717 0
M  V30 15150 H 1431.78 0.481194 0.457546 0
M  V30 15151 H 1434.31 1.84213 0.890331 0
M  V30 15152 H 1434.32 2.45479 3.25889 0
M  V30 15153 H 1432.99 3.32292 2.50109 0
M  V30 15154 H 1431.57 1.68743 3.32536 0
M  V30 15155 N 1433.76 -0.95397 1.25448 0
M  V30 15156 C 1434.69 -2.06828 1.08372 0
M  V30 15157 C 1435.67 -1.70098 -0.00741585 0
M  V30 15158 O 1436.85 -1.93521 0.16224 0
M  V30 15159 C 1433.98 -3.40124 0.702365 0
M  V30 15160 C 1432.94 -3.90865 1.74381 0
M  V30 15161 C 1432.26 -5.20663 1.21712 0
M  V30 15162 C 1433.56 -4.17169 3.14273 0
M  V30 15163 H 1435.26 -2.21372 2.01581 0
M  V30 15164 H 1432.8 -1.06374 0.970592 0
M  V30 15165 H 1434.76 -4.17529 0.569837 0
M  V30 15166 H 1433.48 -3.2552 -0.265428 0
M  V30 15167 H 1432.14 -3.15628 1.86479 0
M  V30 15168 H 1431.79 -5.02429 0.23954 0
M  V30 15169 H 1431.49 -5.55581 1.91319 0
M  V30 15170 H 1433.01 -6.00665 1.097 0
M  V30 15171 H 1434.43 -4.85231 3.05325 0
M  V30 15172 H 1432.82 -4.63344 3.81356 0
M  V30 15173 H 1433.89 -3.23421 3.61285 0
M  V30 15174 N 1435.24 -1.07045 -1.15668 0
M  V30 15175 C 1436.17 -0.645945 -2.1991 0
M  V30 15176 C 1437.18 0.29995 -1.60013 0
M  V30 15177 O 1438.37 0.0897537 -1.78274 0
M  V30 15178 C 1435.47 0.0721917 -3.38823 0
M  V30 15179 C 1434.64 -0.889103 -4.28268 0
M  V30 15180 C 1433.7 -0.208829 -5.25785 0
M  V30 15181 O 1432.73 -0.848894 -5.62834 0
M  V30 15182 N 1433.93 1.04671 -5.70985 0
M  V30 15183 H 1436.69 -1.54266 -2.56948 0
M  V30 15184 H 1434.26 -0.954736 -1.30753 0
M  V30 15185 H 1436.25 0.537882 -4.0111 0
M  V30 15186 H 1434.82 0.870805 -3.00226 0
M  V30 15187 H 1434.04 -1.53399 -3.63129 0
M  V30 15188 H 1435.33 -1.54097 -4.84904 0
M  V30 15189 H 1434.72 1.58673 -5.42991 0
M  V30 15190 H 1433.28 1.45613 -6.35327 0
M  V30 15191 N 1436.71 1.32449 -0.85411 0
M  V30 15192 C 1437.96 1.96881 -0.45632 0
M  V30 15193 C 1438.28 1.67926 0.991248 0
M  V30 15194 O 1437.55 0.986195 1.69266 0
M  V30 15195 H 1436.13 0.728378 -0.165752 0
M  V30 15196 H 1438.79 1.61542 -1.09042 0
M  V30 15197 H 1437.89 3.0626 -0.600927 0
M  V30 15198 N 1438.19 0.611994 1.45232 0
M  V30 15199 C 1439.47 0.0407 1.95558 0
M  V30 15200 C 1439.85 -1.42839 1.55436 0
M  V30 15201 O 1439.2 -2.13316 0.819055 0
M  V30 15202 C 1439.41 0.243436 3.4815 0
M  V30 15203 C 1440.75 0.126551 4.24411 0
M  V30 15204 O 1441.78 0.17379 3.55776 0
M  V30 15205 O 1440.64 0.0153526 5.46498 0
M  V30 15206 H 1437.73 -0.0332288 0.826332 0
M  V30 15207 H 1440.28 0.682364 1.55377 0
M  V30 15208 H 1439.05 1.26357 3.70337 0
M  V30 15209 H 1438.67 -0.43328 3.95232 0
M  V30 15210 N 1439.67 -1.53632 0.351409 0
M  V30 15211 C 1440.63 -2.23916 -0.489293 0
M  V30 15212 C 1441.63 -1.24207 -1.02124 0
M  V30 15213 O 1442.82 -1.48589 -0.909235 0
M  V30 15214 C 1439.95 -2.96492 -1.68242 0
M  V30 15215 H 1441.15 -2.99637 0.125518 0
M  V30 15216 H 1438.7 -1.55961 0.102874 0
M  V30 15217 H 1439.44 -2.24978 -2.33571 0
M  V30 15218 H 1439.22 -3.69637 -1.3081 0
M  V30 15219 H 1440.71 -3.49961 -2.27853 0
M  V30 15220 N 1441.15 -0.0802183 -1.57396 0
M  V30 15221 C 1442.11 0.869437 -2.12069 0
M  V30 15222 C 1443.11 1.22079 -1.04658 0
M  V30 15223 O 1444.3 1.15267 -1.3061 0
M  V30 15224 C 1441.43 2.17016 -2.62901 0
M  V30 15225 H 1442.63 0.394952 -2.97288 0
M  V30 15226 H 1440.18 0.168597 -1.55388 0
M  V30 15227 H 1440.91 2.68983 -1.8116 0
M  V30 15228 H 1440.7 1.92808 -3.4142 0
M  V30 15229 H 1442.19 2.84982 -3.05246 0
M  V30 15230 N 1442.63 1.56409 0.193394 0
M  V30 15231 C 1444.04 1.70624 0.757915 0
M  V30 15232 C 1444.39 0.687074 1.83776 0
M  V30 15233 O 1443.51 -0.15616 2.15836 0
M  V30 15234 C 1444.11 3.09352 1.38156 0
M  V30 15235 C 1442.67 3.25326 1.89315 0
M  V30 15236 C 1441.81 2.66576 0.763727 0
M  V30 15237 H 1444.76 1.58668 -0.0317034 0
M  V30 15238 H 1444.79 3.06776 2.25098 0
M  V30 15239 H 1444.3 3.83506 0.595398 0
M  V30 15240 H 1442.4 2.5609 2.70644 0
M  V30 15241 H 1442.51 4.32848 2.05376 0
M  V30 15242 H 1440.88 2.25797 1.17846 0
M  V30 15243 H 1441.66 3.43298 -0.0102243 0
M  V30 15244 N 1444.1 -0.461169 1.50702 0
M  V30 15245 C 1445.51 -1.04177 1.54932 0
M  V30 15246 C 1445.87 -1.92894 0.358648 0
M  V30 15247 O 1444.99 -2.09876 -0.527346 0
M  V30 15248 C 1445.59 -1.8961 2.80773 0
M  V30 15249 C 1444.14 -2.42761 2.87652 0
M  V30 15250 C 1443.29 -1.21356 2.49335 0
M  V30 15251 H 1446.24 -0.243379 1.56823 0
M  V30 15252 H 1446.26 -2.74794 2.63189 0
M  V30 15253 H 1445.78 -1.25014 3.67414 0
M  V30 15254 H 1443.88 -3.10881 2.05386 0
M  V30 15255 H 1443.99 -2.77189 3.90772 0
M  V30 15256 H 1442.35 -1.55146 2.01995 0
M  V30 15257 H 1443.14 -0.584069 3.38295 0
M  V30 15258 N 1445.58 -1.40446 -0.715026 0
M  V30 15259 C 1446.51 -1.36673 -1.83993 0
M  V30 15260 C 1447.53 -0.272038 -1.60511 0
M  V30 15261 O 1448.72 -0.532425 -1.70375 0
M  V30 15262 C 1445.82 -1.10423 -3.20406 0
M  V30 15263 C 1444.99 -2.31557 -3.71079 0
M  V30 15264 C 1444.05 -2.01459 -4.86108 0
M  V30 15265 O 1443.07 -2.7433 -4.9873 0
M  V30 15266 N 1444.28 -0.992899 -5.71946 0
M  V30 15267 H 1447.04 -2.3362 -1.87728 0
M  V30 15268 H 1444.6 -1.34807 -0.896586 0
M  V30 15269 H 1446.59 -0.88273 -3.94956 0
M  V30 15270 H 1445.16 -0.221408 -3.11815 0
M  V30 15271 H 1444.38 -2.69534 -2.87655 0
M  V30 15272 H 1445.67 -3.1231 -4.01671 0
M  V30 15273 H 1445.07 -0.389387 -5.64358 0
M  V30 15274 H 1443.63 -0.831299 -6.46477 0
M  V30 15275 N 1447.06 0.947303 -1.25952 0
M  V30 15276 C 1448.31 1.68945 -1.10915 0
M  V30 15277 C 1448.63 1.91848 0.349216 0
M  V30 15278 O 1447.9 1.5108 1.24706 0
M  V30 15279 H 1446.48 0.626086 -0.407462 0
M  V30 15280 H 1449.14 1.13854 -1.58187 0
M  V30 15281 H 1448.24 2.6657 -1.62317 0
M  V30 15282 N 1448.54 1.07657 1.15099 0
M  V30 15283 C 1449.45 0.711198 2.2356 0
M  V30 15284 C 1450.46 -0.278932 1.7175 0
M  V30 15285 O 1451.64 -0.124788 2.01013 0
M  V30 15286 C 1448.71 0.117855 3.465 0
M  V30 15287 C 1447.77 1.16162 4.13286 0
M  V30 15288 C 1447 0.596494 5.30356 0
M  V30 15289 O 1447.22 -0.586474 5.67377 0
M  V30 15290 O 1446.16 1.34288 5.86729 0
M  V30 15291 H 1449.98 1.61578 2.5715 0
M  V30 15292 H 1447.57 0.84973 1.22882 0
M  V30 15293 H 1449.45 -0.210613 4.20873 0
M  V30 15294 H 1448.12 -0.760008 3.14652 0
M  V30 15295 H 1447.03 1.54249 3.4082 0
M  V30 15296 H 1448.36 2.01149 4.49221 0
M  V30 15297 N 1450.02 -1.31994 0.861122 0
M  V30 15298 C 1450.93 -2.32495 0.313555 0
M  V30 15299 C 1451.94 -1.64331 -0.571966 0
M  V30 15300 O 1453.12 -1.9582 -0.470794 0
M  V30 15301 C 1450.18 -3.43311 -0.483603 0
M  V30 15302 C 1449.24 -4.27153 0.428825 0
M  V30 15303 C 1448.48 -5.32676 -0.330383 0
M  V30 15304 O 1448.7 -5.48665 -1.55957 0
M  V30 15305 O 1447.63 -6.01116 0.307174 0
M  V30 15306 H 1451.46 -2.81234 1.14636 0
M  V30 15307 H 1449.05 -1.35734 0.624239 0
M  V30 15308 H 1450.93 -4.10877 -0.935831 0
M  V30 15309 H 1449.6 -2.9675 -1.2931 0
M  V30 15310 H 1448.51 -3.62372 0.929366 0
M  V30 15311 H 1449.84 -4.77255 1.20368 0
M  V30 15312 N 1451.49 -0.619688 -1.44906 0
M  V30 15313 C 1452.42 0.0791121 -2.33366 0
M  V30 15314 C 1453.41 0.846503 -1.47541 0
M  V30 15315 O 1454.59 0.814657 -1.76287 0
M  V30 15316 C 1451.72 1.06901 -3.30438 0
M  V30 15317 C 1450.67 0.41403 -4.25993 0
M  V30 15318 C 1450 1.51303 -5.12846 0
M  V30 15319 C 1451.3 -0.672483 -5.17953 0
M  V30 15320 H 1452.99 -0.659551 -2.92045 0
M  V30 15321 H 1450.54 -0.318623 -1.40431 0
M  V30 15322 H 1452.49 1.56653 -3.912 0
M  V30 15323 H 1451.22 1.83842 -2.69944 0
M  V30 15324 H 1449.88 -0.0627315 -3.66546 0
M  V30 15325 H 1449.52 2.27303 -4.48712 0
M  V30 15326 H 1449.22 1.08022 -5.77586 0
M  V30 15327 H 1450.75 2.01258 -5.76479 0
M  V30 15328 H 1452.16 -0.258542 -5.72717 0
M  V30 15329 H 1450.56 -1.02776 -5.91234 0
M  V30 15330 H 1451.63 -1.54425 -4.59653 0
M  V30 15331 N 1452.97 1.53444 -0.359552 0
M  V30 15332 C 1454.22 2.00348 0.233109 0
M  V30 15333 C 1454.53 1.25104 1.50361 0
M  V30 15334 O 1455.74 1.62566 2.1745 0
M  V30 15335 C 1454.2 3.56871 0.465951 0
M  V30 15336 C 1453.8 4.40987 -0.789571 0
M  V30 15337 C 1455.55 4.12148 1.0166 0
M  V30 15338 C 1453.46 5.8905 -0.526646 0
M  V30 15339 H 1452.39 0.748502 0.0908851 0
M  V30 15340 H 1455.04 1.77182 -0.47736 0
M  V30 15341 H 1453.42 3.76167 1.23753 0
M  V30 15342 H 1454.59 4.33465 -1.56348 0
M  V30 15343 H 1452.91 3.96784 -1.263 0
M  V30 15344 H 1455.5 5.20395 1.22853 0
M  V30 15345 H 1455.85 3.66364 1.97694 0
M  V30 15346 H 1456.38 3.96626 0.305334 0
M  V30 15347 H 1453.12 6.39099 -1.45715 0
M  V30 15348 H 1452.64 5.99436 0.208875 0
M  V30 15349 H 1454.32 6.46826 -0.149889 0
M  V30 15350 N 1454.45 0.0885642 1.57351 0
M  V30 15351 C 1455.36 -0.887092 2.17182 0
M  V30 15352 C 1456.38 -1.31498 1.13949 0
M  V30 15353 O 1457.55 -1.38424 1.4629 0
M  V30 15354 C 1454.62 -2.13053 2.73513 0
M  V30 15355 C 1453.68 -1.75747 3.91678 0
M  V30 15356 C 1452.91 -2.94163 4.45313 0
M  V30 15357 O 1453.13 -4.08693 3.97903 0
M  V30 15358 O 1452.07 -2.73008 5.36424 0
M  V30 15359 H 1455.89 -0.408073 3.00946 0
M  V30 15360 H 1453.48 -0.135431 1.48785 0
M  V30 15361 H 1455.36 -2.85937 3.09545 0
M  V30 15362 H 1454.04 -2.6002 1.92798 0
M  V30 15363 H 1452.94 -1.00064 3.60469 0
M  V30 15364 H 1454.28 -1.33549 4.73736 0
M  V30 15365 N 1455.93 -1.56509 -0.185096 0
M  V30 15366 C 1456.89 -1.94468 -1.21305 0
M  V30 15367 C 1457.89 -0.826838 -1.37913 0
M  V30 15368 O 1459.08 -1.09411 -1.35554 0
M  V30 15369 C 1456.21 -2.22747 -2.58063 0
M  V30 15370 H 1457.41 -2.86442 -0.888323 0
M  V30 15371 H 1454.96 -1.50354 -0.427012 0
M  V30 15372 H 1455.69 -1.33443 -2.95573 0
M  V30 15373 H 1455.48 -3.04215 -2.47378 0
M  V30 15374 H 1456.97 -2.53084 -3.32172 0
M  V30 15375 N 1457.41 0.45317 -1.50944 0
M  V30 15376 C 1458.37 1.5313 -1.7054 0
M  V30 15377 C 1459.37 1.50142 -0.575678 0
M  V30 15378 O 1460.56 1.52444 -0.842997 0
M  V30 15379 C 1457.69 2.92719 -1.74723 0
M  V30 15380 H 1458.88 1.37066 -2.66745 0
M  V30 15381 H 1456.44 0.680783 -1.40695 0
M  V30 15382 H 1457.17 3.14208 -0.802753 0
M  V30 15383 H 1456.96 2.96295 -2.56811 0
M  V30 15384 H 1458.45 3.7096 -1.91777 0
M  V30 15385 N 1458.88 1.40823 0.707568 0
M  V30 15386 C 1459.83 1.41724 1.82162 0
M  V30 15387 C 1460.8 0.273135 1.63839 0
M  V30 15388 O 1461.99 0.472399 1.84859 0
M  V30 15389 C 1459.13 1.29347 3.19943 0
M  V30 15390 C 1458.24 2.53529 3.49782 0
M  V30 15391 C 1457.37 2.33533 4.77112 0
M  V30 15392 C 1456.41 3.53252 4.9988 0
M  V30 15393 N 1455.55 3.32401 6.18429 0
M  V30 15394 H 1460.39 2.36943 1.80726 0
M  V30 15395 H 1457.93 1.17671 0.882723 0
M  V30 15396 H 1459.89 1.20175 3.99517 0
M  V30 15397 H 1458.52 0.377426 3.20586 0
M  V30 15398 H 1457.57 2.73198 2.64702 0
M  V30 15399 H 1458.88 3.42617 3.62512 0
M  V30 15400 H 1458.03 2.2176 5.64719 0
M  V30 15401 H 1456.77 1.41883 4.66605 0
M  V30 15402 H 1455.78 3.65492 4.10725 0
M  V30 15403 H 1457 4.4584 5.12253 0
M  V30 15404 H 1454.95 2.4344 6.09158 0
M  V30 15405 H 1454.87 4.15059 6.31872 0
M  V30 15406 H 1456.13 3.24377 7.08802 0
M  V30 15407 N 1460.36 -0.94061 1.26453 0
M  V30 15408 C 1461.78 -1.21424 1.03578 0
M  V30 15409 C 1461.98 -2.00081 -0.238726 0
M  V30 15410 O 1461.03 -2.3404 -0.947709 0
M  V30 15411 C 1462.35 -1.97496 2.26751 0
M  V30 15412 C 1463.9 -2.10485 2.31657 0
M  V30 15413 C 1464.37 -2.89959 3.54525 0
M  V30 15414 N 1465.86 -2.97533 3.55005 0
M  V30 15415 C 1466.6 -3.59456 4.46742 0
M  V30 15416 N 1466.09 -4.22876 5.48769 0
M  V30 15417 N 1467.89 -3.56734 4.34393 0
M  V30 15418 H 1460.04 -0.414788 2.08311 0
M  V30 15419 H 1462.3 -0.246047 0.915513 0
M  V30 15420 H 1462.01 -1.47109 3.19456 0
M  V30 15421 H 1461.88 -2.98159 2.31043 0
M  V30 15422 H 1464.27 -2.60064 1.39466 0
M  V30 15423 H 1464.35 -1.09082 2.31376 0
M  V30 15424 H 1463.99 -2.41067 4.47045 0
M  V30 15425 H 1463.92 -3.91619 3.52054 0
M  V30 15426 H 1466.41 -2.52446 2.81211 0
M  V30 15427 H 1466.73 -4.68026 6.14956 0
M  V30 15428 H 1465.07 -4.21461 5.52626 0
M  V30 15429 H 1468.26 -3.06381 3.53904 0
M  V30 15430 H 1468.43 -4.04706 5.0608 0
M  V30 15431 N 1461.84 -1.08266 -1.14527 0
M  V30 15432 C 1462.79 -0.705807 -2.21633 0
M  V30 15433 C 1463.78 0.287758 -1.66938 0
M  V30 15434 O 1464.99 0.150479 -1.7937 0
M  V30 15435 H 1461.36 -0.210206 -0.722023 0
M  V30 15436 H 1463.33 -1.61855 -2.5069 0
M  V30 15437 C 1462.08 -0.129673 -3.47458 0
M  V30 15438 H 1461.41 -0.885365 -3.89873 0
M  V30 15439 H 1462.85 0.0962264 -4.23891 0
M  V30 15440 C 1461.31 1.13208 -3.1731 0
M  V30 15441 O 1461.84 2.21717 -3.34969 0
M  V30 15442 N 1460.04 1.0419 -2.7128 0
M  V30 15443 H 1459.59 0.15883 -2.5711 0
M  V30 15444 H 1459.55 1.88689 -2.51483 0
M  V30 15445 N 1463.32 1.31536 -0.86811 0
M  V30 15446 C 1464.6 1.9149 -0.398866 0
M  V30 15447 C 1464.98 1.79008 1.1189 0
M  V30 15448 O 1464.32 1.19659 1.94664 0
M  V30 15449 C 1464.53 3.37771 -0.878173 0
M  V30 15450 C 1465.88 4.14882 -0.903216 0
M  V30 15451 O 1466.91 3.46545 -0.823703 0
M  V30 15452 O 1465.77 5.36936 -1.01794 0
M  V30 15453 H 1462.86 0.818398 -0.118971 0
M  V30 15454 H 1465.41 1.40216 -0.955899 0
M  V30 15455 H 1464.18 3.40861 -1.9217 0
M  V30 15456 H 1463.8 3.96472 -0.299346 0
M  V30 15457 N 1464.8 0.627364 1.44575 0
M  V30 15458 C 1466.04 0.130352 2.0208 0
M  V30 15459 C 1466.37 -1.24642 1.49314 0
M  V30 15460 O 1465.63 -1.84022 0.665923 0
M  V30 15461 C 1465.93 0.0622409 3.57346 0
M  V30 15462 C 1465.59 1.37729 4.2935 0
M  V30 15463 C 1464.25 1.73747 4.48737 0
M  V30 15464 C 1466.61 2.2455 4.70347 0
M  V30 15465 C 1463.93 2.96301 5.06382 0
M  V30 15466 C 1466.29 3.46371 5.29349 0
M  V30 15467 C 1464.95 3.82616 5.46956 0
M  V30 15468 H 1464.22 0.0476991 0.739463 0
M  V30 15469 H 1466.87 0.812928 1.73389 0
M  V30 15470 H 1465.17 -0.70369 3.85429 0
M  V30 15471 H 1466.87 -0.338778 3.99566 0
M  V30 15472 H 1463.46 1.08699 4.14587 0
M  V30 15473 H 1467.64 1.98019 4.55085 0
M  V30 15474 H 1462.9 3.24465 5.18201 0
M  V30 15475 H 1467.07 4.13882 5.60067 0
M  V30 15476 H 1464.7 4.77663 5.9139 0
M  V30 15477 N 1466.28 -1.53251 0.367684 0
M  V30 15478 C 1467.52 -2.03197 -0.221396 0
M  V30 15479 C 1467.88 -1.249 -1.45822 0
M  V30 15480 O 1469.08 -1.64863 -2.12306 0
M  V30 15481 C 1467.35 -3.53827 -0.504134 0
M  V30 15482 S 1468.91 -4.2564 -1.06658 0
M  V30 15483 H 1465.73 -0.708089 -0.0642774 0
M  V30 15484 H 1468.33 -1.88703 0.511037 0
M  V30 15485 H 1467.03 -4.08412 0.403477 0
M  V30 15486 H 1466.57 -3.72487 -1.26558 0
M  V30 15487 H 1468.58 -4.36987 -2.35068 0
M  V30 15488 N 1467.75 -0.0969077 -1.57302 0
M  V30 15489 C 1468.7 0.861379 -2.14124 0
M  V30 15490 C 1469.67 1.27858 -1.06026 0
M  V30 15491 O 1470.86 1.36001 -1.33822 0
M  V30 15492 C 1468 2.11443 -2.72738 0
M  V30 15493 C 1467.11 1.7476 -3.95074 0
M  V30 15494 C 1466.24 2.94864 -4.41847 0
M  V30 15495 C 1465.28 2.54316 -5.56767 0
M  V30 15496 N 1464.42 3.67261 -5.98384 0
M  V30 15497 H 1469.26 0.369968 -2.95694 0
M  V30 15498 H 1466.8 0.170943 -1.46103 0
M  V30 15499 H 1468.75 2.84829 -3.04842 0
M  V30 15500 H 1467.38 2.5808 -1.93893 0
M  V30 15501 H 1466.44 0.91335 -3.69272 0
M  V30 15502 H 1467.75 1.40946 -4.78472 0
M  V30 15503 H 1466.9 3.76501 -4.75744 0
M  V30 15504 H 1465.64 3.31889 -3.57352 0
M  V30 15505 H 1464.65 1.71106 -5.22497 0
M  V30 15506 H 1465.87 2.18432 -6.43012 0
M  V30 15507 H 1463.82 4.04001 -5.16836 0
M  V30 15508 H 1463.73 3.37298 -6.76584 0
M  V30 15509 H 1465 4.49403 -6.36912 0
M  V30 15510 N 1469.23 1.56605 0.176793 0
M  V30 15511 C 1470.16 1.99014 1.2213 0
M  V30 15512 C 1471.14 0.86487 1.46472 0
M  V30 15513 O 1472.33 1.13055 1.57899 0
M  V30 15514 C 1469.46 2.34534 2.56146 0
M  V30 15515 C 1468.41 3.4997 2.46384 0
M  V30 15516 C 1467.74 3.71217 3.8484 0
M  V30 15517 C 1469.04 4.83592 1.97323 0
M  V30 15518 H 1470.73 2.86517 0.8688 0
M  V30 15519 H 1468.28 1.37846 0.416481 0
M  V30 15520 H 1470.23 2.62799 3.29416 0
M  V30 15521 H 1468.95 1.43933 2.93174 0
M  V30 15522 H 1467.61 3.21824 1.75569 0
M  V30 15523 H 1467.26 2.77916 4.19251 0
M  V30 15524 H 1466.96 4.48885 3.79178 0
M  V30 15525 H 1468.49 4.01877 4.59704 0
M  V30 15526 H 1469.9 5.10768 2.60363 0
M  V30 15527 H 1468.3 5.64858 2.02622 0
M  V30 15528 H 1469.37 4.75951 0.927275 0
M  V30 15529 N 1470.71 -0.445159 1.51182 0
M  V30 15530 C 1471.64 -1.55788 1.68115 0
M  V30 15531 C 1472.65 -1.52793 0.561964 0
M  V30 15532 O 1473.84 -1.57711 0.836029 0
M  V30 15533 C 1470.94 -2.94702 1.67344 0
M  V30 15534 C 1470.12 -3.22286 2.9572 0
M  V30 15535 C 1469.18 -4.40884 2.87241 0
M  V30 15536 O 1468.2 -4.3992 3.61191 0
M  V30 15537 N 1469.4 -5.44013 2.02558 0
M  V30 15538 H 1472.17 -1.4167 2.64102 0
M  V30 15539 H 1469.73 -0.633984 1.48971 0
M  V30 15540 H 1471.72 -3.7205 1.5925 0
M  V30 15541 H 1470.29 -3.02457 0.789842 0
M  V30 15542 H 1469.51 -2.33309 3.17743 0
M  V30 15543 H 1470.8 -3.3754 3.80715 0
M  V30 15544 H 1470.2 -5.47629 1.4184 0
M  V30 15545 H 1468.75 -6.20245 2.0035 0
M  V30 15546 N 1472.19 -1.41197 -0.700089 0
M  V30 15547 C 1473.1 -1.45038 -1.84394 0
M  V30 15548 C 1474.11 -0.34141 -1.70618 0
M  V30 15549 O 1475.29 -0.588428 -1.92612 0
M  V30 15550 C 1472.35 -1.32611 -3.20336 0
M  V30 15551 C 1471.42 -2.53784 -3.46254 0
M  V30 15552 C 1470.65 -2.4194 -4.75711 0
M  V30 15553 O 1470.87 -1.44153 -5.51884 0
M  V30 15554 O 1469.81 -3.31613 -5.02311 0
M  V30 15555 H 1473.63 -2.41531 -1.8411 0
M  V30 15556 H 1471.22 -1.22686 -0.852558 0
M  V30 15557 H 1473.1 -1.27947 -4.01507 0
M  V30 15558 H 1471.77 -0.392309 -3.21314 0
M  V30 15559 H 1470.68 -2.64024 -2.65032 0
M  V30 15560 H 1472.01 -3.45977 -3.50087 0
M  V30 15561 N 1473.67 0.933891 -1.2695 0
M  V30 15562 C 1474.6 2.05078 -1.11649 0
M  V30 15563 C 1475.58 1.70089 -0.0196463 0
M  V30 15564 O 1476.76 1.93239 -0.193007 0
M  V30 15565 C 1473.89 3.38963 -0.756387 0
M  V30 15566 C 1472.85 3.88041 -1.80577 0
M  V30 15567 C 1472.17 5.18661 -1.2998 0
M  V30 15568 C 1473.47 4.12116 -3.2087 0
M  V30 15569 H 1475.17 2.18137 -2.05077 0
M  V30 15570 H 1472.71 1.04817 -0.987392 0
M  V30 15571 H 1474.66 4.1657 -0.63619 0
M  V30 15572 H 1473.39 3.25901 0.213607 0
M  V30 15573 H 1472.05 3.12622 -1.91477 0
M  V30 15574 H 1471.7 5.01985 -0.319442 0
M  V30 15575 H 1471.4 5.52467 -2.00134 0
M  V30 15576 H 1472.92 5.98844 -1.19242 0
M  V30 15577 H 1474.33 4.80312 -3.13006 0
M  V30 15578 H 1472.73 4.57218 -3.88679 0
M  V30 15579 H 1473.8 3.17633 -3.66384 0
M  V30 15580 N 1475.14 1.08871 1.13951 0
M  V30 15581 C 1476.09 0.692507 2.17229 0
M  V30 15582 C 1477.08 -0.290264 1.5826 0
M  V30 15583 O 1478.27 -0.101531 1.76709 0
M  V30 15584 C 1475.4 0.108487 3.43129 0
M  V30 15585 C 1474.48 1.11733 4.09117 0
M  V30 15586 N 1474.88 2.30244 4.50357 0
M  V30 15587 C 1473.17 0.954172 4.35674 0
M  V30 15588 C 1473.87 2.94373 5.01716 0
M  V30 15589 N 1472.85 2.2196 4.96221 0
M  V30 15590 H 1476.65 1.59489 2.46861 0
M  V30 15591 H 1474.17 0.964113 1.30685 0
M  V30 15592 H 1476.16 -0.193345 4.16451 0
M  V30 15593 H 1474.82 -0.78882 3.14973 0
M  V30 15594 H 1475.83 2.67871 4.43244 0
M  V30 15595 H 1472.51 0.111069 4.17352 0
M  V30 15596 H 1473.9 3.95089 5.43465 0
M  V30 15597 N 1476.62 -1.31073 0.875073 0
M  V30 15598 C 1478.04 -1.49162 0.567697 0
M  V30 15599 C 1478.24 -1.80435 -0.896969 0
M  V30 15600 O 1477.29 -1.88604 -1.67883 0
M  V30 15601 C 1478.61 -2.6219 1.47231 0
M  V30 15602 C 1480.15 -2.76072 1.47489 0
M  V30 15603 C 1480.63 -3.92202 2.36519 0
M  V30 15604 N 1482.12 -3.99497 2.34428 0
M  V30 15605 C 1482.86 -4.88639 3.00033 0
M  V30 15606 N 1482.35 -5.82647 3.74826 0
M  V30 15607 N 1484.14 -4.81926 2.89315 0
M  V30 15608 H 1476.3 -1.09045 1.82272 0
M  V30 15609 H 1478.56 -0.539291 0.77966 0
M  V30 15610 H 1478.26 -2.45872 2.51475 0
M  V30 15611 H 1478.14 -3.58446 1.17459 0
M  V30 15612 H 1480.53 -2.91801 0.440008 0
M  V30 15613 H 1480.61 -1.80468 1.81287 0
M  V30 15614 H 1480.25 -3.77231 3.40087 0
M  V30 15615 H 1480.18 -4.87125 2.00043 0
M  V30 15616 H 1482.67 -3.32241 1.80067 0
M  V30 15617 H 1482.98 -6.47406 4.22001 0
M  V30 15618 H 1481.33 -5.82609 3.78934 0
M  V30 15619 H 1484.52 -4.07462 2.30418 0
M  V30 15620 H 1484.69 -5.51192 3.40722 0
M  V30 15621 N 1478.1 -0.635022 -1.4424 0
M  V30 15622 C 1479.06 0.0579377 -2.29127 0
M  V30 15623 C 1480.06 0.768489 -1.41248 0
M  V30 15624 O 1481.25 0.612489 -1.63077 0
M  V30 15625 C 1478.39 1.09266 -3.22914 0
M  V30 15626 H 1479.58 -0.688723 -2.91885 0
M  V30 15627 H 1477.13 -0.395347 -1.51217 0
M  V30 15628 H 1477.87 1.86917 -2.65014 0
M  V30 15629 H 1477.65 0.587036 -3.87681 0
M  V30 15630 H 1479.14 1.57716 -3.86672 0
M  V30 15631 N 1479.58 1.53054 -0.375806 0
M  V30 15632 C 1480.83 2.01003 0.210257 0
M  V30 15633 C 1481.15 1.26451 1.48442 0
M  V30 15634 O 1480.42 0.380687 1.92166 0
M  V30 15635 H 1479 0.74263 0.0806861 0
M  V30 15636 H 1481.66 1.8826 -0.504393 0
M  V30 15637 H 1480.76 3.09123 0.430027 0
M  V30 15638 N 1481.06 0.105248 1.57248 0
M  V30 15639 C 1482.3 -0.554956 1.94331 0
M  V30 15640 C 1482.63 -1.68087 0.988528 0
M  V30 15641 O 1481.9 -1.95854 0.042366 0
M  V30 15642 H 1480.48 -0.207994 0.717459 0
M  V30 15643 H 1483.14 0.170964 1.94149 0
M  V30 15644 H 1482.23 -0.95853 2.97016 0
M  V30 15645 N 1482.53 -1.56697 -0.168486 0
M  V30 15646 C 1483.81 -1.73032 -0.912097 0
M  V30 15647 C 1484.19 -0.667424 -2.00271 0
M  V30 15648 O 1483.54 0.317307 -2.26286 0
M  V30 15649 C 1483.75 -3.16334 -1.47424 0
M  V30 15650 C 1485.1 -3.77378 -1.94606 0
M  V30 15651 O 1486.12 -3.19629 -1.57212 0
M  V30 15652 O 1484.98 -4.78781 -2.63497 0
M  V30 15653 H 1482.07 -0.706713 -0.429518 0
M  V30 15654 H 1484.62 -1.68981 -0.156093 0
M  V30 15655 H 1483.39 -3.85179 -0.689421 0
M  V30 15656 H 1483.02 -3.24723 -2.29435 0
M  V30 15657 N 1484.01 0.437135 -1.51416 0
M  V30 15658 C 1484.94 1.538 -1.75692 0
M  V30 15659 C 1485.92 1.5891 -0.606759 0
M  V30 15660 O 1487.11 1.74635 -0.849492 0
M  V30 15661 C 1484.24 2.91877 -1.88215 0
M  V30 15662 C 1483.19 3.01628 -3.03652 0
M  V30 15663 C 1482.52 4.41687 -3.01358 0
M  V30 15664 C 1483.82 2.75691 -4.43612 0
M  V30 15665 H 1485.51 1.33737 -2.67871 0
M  V30 15666 H 1483.06 0.641936 -1.289 0
M  V30 15667 H 1485.01 3.68851 -2.03781 0
M  V30 15668 H 1483.74 3.13173 -0.926847 0
M  V30 15669 H 1482.39 2.27094 -2.87791 0
M  V30 15670 H 1482.04 4.5995 -2.03605 0
M  V30 15671 H 1481.74 4.49141 -3.78875 0
M  V30 15672 H 1483.27 5.20634 -3.19018 0
M  V30 15673 H 1484.68 3.42398 -4.59822 0
M  V30 15674 H 1483.08 2.94554 -5.22836 0
M  V30 15675 H 1484.15 1.71297 -4.53636 0
M  V30 15676 N 1485.49 1.41566 0.692592 0
M  V30 15677 C 1486.42 1.38067 1.81694 0
M  V30 15678 C 1487.4 0.247482 1.60706 0
M  V30 15679 O 1488.59 0.43487 1.83415 0
M  V30 15680 C 1485.71 1.15438 3.18421 0
M  V30 15681 C 1484.76 2.31515 3.58194 0
M  V30 15682 S 1485.59 3.94003 3.6266 0
M  V30 15683 C 1486.75 3.73683 5.02108 0
M  V30 15684 H 1486.98 2.33215 1.84386 0
M  V30 15685 H 1484.51 1.28125 0.861585 0
M  V30 15686 H 1486.47 1.03069 3.9735 0
M  V30 15687 H 1485.13 0.219055 3.13335 0
M  V30 15688 H 1484.33 2.11383 4.57529 0
M  V30 15689 H 1483.93 2.40307 2.86581 0
M  V30 15690 H 1486.22 3.33573 5.89691 0
M  V30 15691 H 1487.16 4.72631 5.27281 0
M  V30 15692 H 1487.57 3.06899 4.73786 0
M  V30 15693 N 1486.97 -0.927146 1.27443 0
M  V30 15694 C 1487.92 -2.01402 1.06871 0
M  V30 15695 C 1488.9 -1.609 -0.00345395 0
M  V30 15696 O 1490.09 -1.75688 0.215147 0
M  V30 15697 C 1487.22 -3.35697 0.718508 0
M  V30 15698 C 1486.31 -3.82641 1.82884 0
M  V30 15699 N 1486.7 -4.02091 3.06849 0
M  V30 15700 C 1485 -4.11682 1.71564 0
M  V30 15701 C 1485.7 -4.41195 3.79107 0
M  V30 15702 N 1484.68 -4.48697 3.06874 0
M  V30 15703 H 1488.48 -2.14471 2.00946 0
M  V30 15704 H 1485.99 -1.11402 1.18166 0
M  V30 15705 H 1487.99 -4.13226 0.552238 0
M  V30 15706 H 1486.65 -3.2399 -0.214622 0
M  V30 15707 H 1487.66 -3.88384 3.42605 0
M  V30 15708 H 1484.34 -4.08685 0.853381 0
M  V30 15709 H 1485.73 -4.64318 4.85653 0
M  V30 15710 N 1488.45 -1.09474 -1.13372 0
M  V30 15711 C 1489.86 -0.824541 -1.36651 0
M  V30 15712 C 1490.06 0.560903 -1.93536 0
M  V30 15713 O 1489.12 1.31567 -2.15514 0
M  V30 15714 C 1490.43 -1.91618 -2.31739 0
M  V30 15715 C 1491.98 -1.94346 -2.45354 0
M  V30 15716 C 1492.45 -3.02655 -3.4375 0
M  V30 15717 N 1493.95 -3.01898 -3.513 0
M  V30 15718 C 1494.68 -3.82344 -4.27318 0
M  V30 15719 N 1494.18 -4.727 -5.06484 0
M  V30 15720 N 1495.97 -3.70602 -4.22623 0
M  V30 15721 H 1488.12 -1.98793 -0.748005 0
M  V30 15722 H 1490.38 -0.863318 -0.391646 0
M  V30 15723 H 1490.09 -2.91282 -1.97098 0
M  V30 15724 H 1489.96 -1.79484 -3.31761 0
M  V30 15725 H 1492.35 -0.953206 -2.79281 0
M  V30 15726 H 1492.43 -2.10558 -1.45255 0
M  V30 15727 H 1492.08 -4.01894 -3.10553 0
M  V30 15728 H 1492.01 -2.83687 -4.43655 0
M  V30 15729 H 1494.5 -2.36417 -2.94814 0
M  V30 15730 H 1494.81 -5.30665 -5.61796 0
M  V30 15731 H 1493.15 -4.76736 -5.05715 0
M  V30 15732 H 1496.35 -2.99372 -3.59853 0
M  V30 15733 H 1496.52 -4.33535 -4.81614 0
M  V30 15734 N 1489.92 1.30607 -0.882012 0
M  V30 15735 C 1491.2 1.91056 -0.419153 0
M  V30 15736 C 1491.58 1.80185 1.09985 0
M  V30 15737 O 1490.93 1.21717 1.93384 0
M  V30 15738 C 1491.14 3.3682 -0.913949 0
M  V30 15739 C 1492.49 4.13901 -0.947169 0
M  V30 15740 O 1493.51 3.45652 -0.860412 0
M  V30 15741 O 1492.37 5.35826 -1.07483 0
M  V30 15742 H 1489.46 0.81709 -0.127645 0
M  V30 15743 H 1492.01 1.39195 -0.970717 0
M  V30 15744 H 1490.78 3.38804 -1.95774 0
M  V30 15745 H 1490.41 3.96132 -0.34138 0
M  V30 15746 N 1491.4 0.642663 1.43901 0
M  V30 15747 C 1492.31 -0.0562462 2.34533 0
M  V30 15748 C 1493.33 -0.823457 1.53281 0
M  V30 15749 O 1494.5 -0.773103 1.85971 0
M  V30 15750 C 1491.57 -1.01787 3.31422 0
M  V30 15751 C 1490.63 -0.248759 4.28579 0
M  V30 15752 C 1489.86 -1.16458 5.20839 0
M  V30 15753 O 1490.09 -2.40361 5.17284 0
M  V30 15754 O 1489.02 -0.642671 5.98459 0
M  V30 15755 H 1492.85 0.689476 2.9577 0
M  V30 15756 H 1490.43 0.402847 1.43866 0
M  V30 15757 H 1492.31 -1.5708 3.91029 0
M  V30 15758 H 1490.99 -1.744 2.72702 0
M  V30 15759 H 1489.9 0.347495 3.72483 0
M  V30 15760 H 1491.23 0.437589 4.90251 0
M  V30 15761 N 1492.88 -1.52852 0.383918 0
M  V30 15762 C 1493.81 -2.23927 -0.488816 0
M  V30 15763 C 1494.83 -1.2598 -1.03115 0
M  V30 15764 O 1496.02 -1.5209 -0.934398 0
M  V30 15765 C 1493.12 -2.9378 -1.68957 0
M  V30 15766 C 1492.29 -4.18388 -1.27555 0
M  V30 15767 C 1491.35 -4.71287 -2.3404 0
M  V30 15768 O 1490.37 -5.34511 -1.9567 0
M  V30 15769 N 1491.58 -4.50679 -3.65881 0
M  V30 15770 H 1494.34 -2.99459 0.120084 0
M  V30 15771 H 1491.9 -1.60532 0.210004 0
M  V30 15772 H 1493.89 -3.26071 -2.39707 0
M  V30 15773 H 1492.46 -2.21588 -2.20493 0
M  V30 15774 H 1491.68 -3.92194 -0.397157 0
M  V30 15775 H 1492.97 -4.99361 -0.975506 0
M  V30 15776 H 1492.37 -4.00201 -3.9982 0
M  V30 15777 H 1490.93 -4.87473 -4.32681 0
M  V30 15778 N 1494.36 -0.113586 -1.5719 0
M  V30 15779 C 1495.58 0.556928 -1.99783 0
M  V30 15780 C 1496.01 1.59774 -0.992669 0
M  V30 15781 O 1495.37 1.81263 0.0363821 0
M  V30 15782 C 1495.42 1.16463 -3.41275 0
M  V30 15783 O 1494.52 2.28024 -3.43626 0
M  V30 15784 H 1493.86 0.139628 -0.649153 0
M  V30 15785 H 1496.39 -0.200462 -2.03616 0
M  V30 15786 H 1496.4 1.50147 -3.79368 0
M  V30 15787 H 1495.08 0.402232 -4.1395 0
M  V30 15788 H 1493.65 1.9582 -3.17347 0
M  V30 15789 N 1495.84 1.56784 0.160173 0
M  V30 15790 C 1497.25 1.51153 0.512352 0
M  V30 15791 C 1497.45 0.819774 1.84071 0
M  V30 15792 O 1496.51 0.384789 2.49551 0
M  V30 15793 C 1497.82 2.95906 0.534817 0
M  V30 15794 C 1499.37 3.06773 0.621248 0
M  V30 15795 C 1499.85 4.53006 0.674501 0
M  V30 15796 N 1501.34 4.57298 0.737087 0
M  V30 15797 C 1502.07 5.67805 0.799054 0
M  V30 15798 N 1501.57 6.87916 0.821171 0
M  V30 15799 N 1503.36 5.55804 0.838928 0
M  V30 15800 H 1495.51 2.00157 -0.710712 0
M  V30 15801 H 1497.77 0.91233 -0.257601 0
M  V30 15802 H 1497.48 3.49719 -0.372773 0
M  V30 15803 H 1497.35 3.51152 1.3774 0
M  V30 15804 H 1499.74 2.52987 1.51926 0
M  V30 15805 H 1499.82 2.54593 -0.248224 0
M  V30 15806 H 1499.47 5.07426 -0.219301 0
M  V30 15807 H 1499.4 5.02954 1.56028 0
M  V30 15808 H 1501.89 3.70825 0.727827 0
M  V30 15809 H 1502.2 7.67888 0.869938 0
M  V30 15810 H 1500.55 6.90504 0.789264 0
M  V30 15811 H 1503.74 4.60884 0.818728 0
M  V30 15812 H 1503.91 6.41945 0.883757 0
M  V30 15813 N 1497.32 -0.429099 1.51646 0
M  V30 15814 C 1498.54 -1.20006 1.68541 0
M  V30 15815 C 1498.96 -1.84806 0.386264 0
M  V30 15816 O 1498.32 -1.7106 -0.635988 0
M  V30 15817 C 1498.37 -2.27801 2.80694 0
M  V30 15818 O 1498.09 -1.65649 4.05576 0
M  V30 15819 C 1499.59 -3.17927 3.08929 0
M  V30 15820 H 1496.81 -0.361388 0.565367 0
M  V30 15821 H 1499.35 -0.507432 1.98104 0
M  V30 15822 H 1497.51 -2.92766 2.53706 0
M  V30 15823 H 1497.92 -2.36955 4.67924 0
M  V30 15824 H 1499.4 -3.8968 3.90965 0
M  V30 15825 H 1499.87 -3.79157 2.21668 0
M  V30 15826 H 1500.48 -2.58654 3.37606 0
M  V30 15827 N 1498.79 -1.41931 -0.685074 0
M  V30 15828 C 1499.72 -1.47385 -1.81107 0
M  V30 15829 C 1500.7 -0.331433 -1.6684 0
M  V30 15830 O 1501.89 -0.544331 -1.86415 0
M  V30 15831 C 1499.02 -1.36555 -3.19327 0
M  V30 15832 C 1497.97 -2.48718 -3.48315 0
M  V30 15833 C 1497.3 -2.2295 -4.86002 0
M  V30 15834 C 1498.6 -3.91047 -3.46237 0
M  V30 15835 H 1500.29 -2.41624 -1.768 0
M  V30 15836 H 1497.84 -1.16297 -0.849178 0
M  V30 15837 H 1499.79 -1.38981 -3.97822 0
M  V30 15838 H 1498.52 -0.388063 -3.24286 0
M  V30 15839 H 1497.18 -2.45592 -2.72176 0
M  V30 15840 H 1496.82 -1.23518 -4.87598 0
M  V30 15841 H 1496.52 -2.98116 -5.0636 0
M  V30 15842 H 1498.05 -2.27108 -5.66793 0
M  V30 15843 H 1499.46 -3.95831 -4.14718 0
M  V30 15844 H 1497.86 -4.65981 -3.7813 0
M  V30 15845 H 1498.93 -4.1845 -2.45006 0
M  V30 15846 N 1500.27 0.920374 -1.27933 0
M  V30 15847 C 1501.2 2.03882 -1.13817 0
M  V30 15848 C 1502.18 1.70058 -0.0376853 0
M  V30 15849 O 1503.37 1.93023 -0.213492 0
M  V30 15850 C 1500.5 3.38142 -0.792296 0
M  V30 15851 C 1499.45 3.86104 -1.84683 0
M  V30 15852 C 1498.78 5.17253 -1.35474 0
M  V30 15853 C 1500.08 4.0869 -3.25223 0
M  V30 15854 H 1501.77 2.15949 -2.07379 0
M  V30 15855 H 1499.32 1.03764 -0.998454 0
M  V30 15856 H 1501.27 4.15872 -0.680337 0
M  V30 15857 H 1499.99 3.26109 0.179029 0
M  V30 15858 H 1498.65 3.10573 -1.94782 0
M  V30 15859 H 1498.3 5.01618 -0.372666 0
M  V30 15860 H 1498 5.50314 -2.05982 0
M  V30 15861 H 1499.53 5.97545 -1.25587 0
M  V30 15862 H 1500.94 4.76965 -3.18083 0
M  V30 15863 H 1499.34 4.5307 -3.93507 0
M  V30 15864 H 1500.41 3.13729 -3.69733 0
M  V30 15865 N 1501.75 1.10074 1.1279 0
M  V30 15866 C 1502.7 0.715508 2.16482 0
M  V30 15867 C 1503.68 -0.273462 1.58559 0
M  V30 15868 O 1504.88 -0.0827829 1.76806 0
M  V30 15869 C 1502 0.144874 3.42994 0
M  V30 15870 C 1501.09 1.16066 4.07909 0
M  V30 15871 N 1501.48 2.35008 4.47889 0
M  V30 15872 C 1499.78 1.00033 4.34637 0
M  V30 15873 C 1500.48 2.99678 4.98566 0
M  V30 15874 N 1499.46 2.2721 4.93839 0
M  V30 15875 H 1503.26 1.62098 2.45156 0
M  V30 15876 H 1500.77 0.97792 1.29655 0
M  V30 15877 H 1502.77 -0.149164 4.16633 0
M  V30 15878 H 1501.43 -0.755369 3.15791 0
M  V30 15879 H 1502.44 2.72557 4.40378 0
M  V30 15880 H 1499.12 0.155328 4.17211 0
M  V30 15881 H 1500.51 4.00831 5.39244 0
M  V30 15882 N 1503.23 -1.30138 0.888926 0
M  V30 15883 C 1504.18 -2.25598 0.33005 0
M  V30 15884 C 1505.16 -1.51434 -0.543751 0
M  V30 15885 O 1506.35 -1.72706 -0.387529 0
M  V30 15886 C 1503.48 -3.40326 -0.450925 0
M  V30 15887 C 1502.57 -4.21841 0.437187 0
M  V30 15888 N 1502.96 -4.81803 1.53947 0
M  V30 15889 C 1501.26 -4.45391 0.233015 0
M  V30 15890 C 1501.96 -5.42907 2.0887 0
M  V30 15891 N 1500.93 -5.25709 1.38314 0
M  V30 15892 H 1504.74 -2.6951 1.17224 0
M  V30 15893 H 1502.25 -1.44623 0.738771 0
M  V30 15894 H 1504.25 -4.07764 -0.867971 0
M  V30 15895 H 1502.91 -2.97953 -1.2905 0
M  V30 15896 H 1503.92 -4.80904 1.92229 0
M  V30 15897 H 1500.6 -4.13603 -0.569074 0
M  V30 15898 H 1501.99 -6.00478 3.01457 0
M  V30 15899 N 1504.71 -0.650285 -1.43559 0
M  V30 15900 C 1505.67 0.0336325 -2.29175 0
M  V30 15901 C 1506.67 0.753465 -1.42055 0
M  V30 15902 O 1507.86 0.595158 -1.63718 0
M  V30 15903 C 1504.99 1.05835 -3.24055 0
M  V30 15904 H 1506.18 -0.719643 -2.91138 0
M  V30 15905 H 1503.74 -0.411363 -1.5079 0
M  V30 15906 H 1504.47 1.84096 -2.66982 0
M  V30 15907 H 1504.26 0.545884 -3.88281 0
M  V30 15908 H 1505.75 1.53606 -3.88323 0
M  V30 15909 N 1506.18 1.52647 -0.392018 0
M  V30 15910 C 1507.43 2.01912 0.18958 0
M  V30 15911 C 1507.76 1.27786 1.46234 0
M  V30 15912 O 1507.04 0.379124 1.90769 0
M  V30 15913 C 1507.32 3.57217 0.454734 0
M  V30 15914 C 1507.17 4.4201 -0.833501 0
M  V30 15915 C 1508.49 4.22146 1.24421 0
M  V30 15916 H 1505.61 0.733909 0.0674281 0
M  V30 15917 H 1508.25 1.82685 -0.52212 0
M  V30 15918 H 1506.4 3.73731 1.06101 0
M  V30 15919 H 1508.08 4.37242 -1.47027 0
M  V30 15920 H 1506.32 4.08912 -1.44823 0
M  V30 15921 H 1506.99 5.48701 -0.602585 0
M  V30 15922 H 1509.47 4.09627 0.731093 0
M  V30 15923 H 1508.34 5.30786 1.39848 0
M  V30 15924 H 1508.6 3.7996 2.26016 0
M  V30 15925 N 1507.66 0.121921 1.57128 0
M  V30 15926 C 1508.89 -0.546325 2.00075 0
M  V30 15927 C 1509.31 -1.59245 1.00113 0
M  V30 15928 O 1508.67 -1.8128 -0.0267687 0
M  V30 15929 C 1508.72 -1.14651 3.41888 0
M  V30 15930 O 1507.82 -2.26199 3.4483 0
M  V30 15931 H 1507.16 -0.136184 0.649885 0
M  V30 15932 H 1509.69 0.211257 2.03506 0
M  V30 15933 H 1509.7 -1.48133 3.80159 0
M  V30 15934 H 1508.38 -0.380273 4.14158 0
M  V30 15935 H 1506.96 -1.94134 3.18381 0
M  V30 15936 N 1509.14 -1.56867 -0.151857 0
M  V30 15937 C 1510.37 -1.87237 -0.880343 0
M  V30 15938 C 1510.78 -0.709565 -1.74959 0
M  V30 15939 O 1510.14 0.320818 -1.79658 0
M  V30 15940 C 1510.19 -3.16811 -1.74107 0
M  V30 15941 O 1509.91 -4.28611 -0.906858 0
M  V30 15942 C 1511.41 -3.60662 -2.57755 0
M  V30 15943 H 1508.63 -0.62074 -0.254799 0
M  V30 15944 H 1511.18 -2.03977 -0.146104 0
M  V30 15945 H 1509.33 -3.01838 -2.42842 0
M  V30 15946 H 1509.75 -5.02673 -1.49733 0
M  V30 15947 H 1511.22 -4.54176 -3.13732 0
M  V30 15948 H 1511.7 -2.85716 -3.33561 0
M  V30 15949 H 1512.3 -3.78312 -1.94319 0
M  V30 15950 N 1510.62 0.421051 -1.51871 0
M  V30 15951 C 1511.87 1.16677 -1.65018 0
M  V30 15952 C 1512.19 1.91329 -0.376596 0
M  V30 15953 O 1511.46 1.86221 0.608146 0
M  V30 15954 H 1510.04 0.433698 -0.608206 0
M  V30 15955 H 1512.7 0.48115 -1.88868 0
M  V30 15956 H 1511.8 1.88742 -2.48562 0
M  V30 15957 N 1512.1 1.42293 0.677538 0
M  V30 15958 C 1513.32 1.46214 1.47092 0
M  V30 15959 C 1513.75 0.0740989 1.87954 0
M  V30 15960 O 1513.1 -0.926831 1.55819 0
M  V30 15961 C 1513.15 2.39236 2.69812 0
M  V30 15962 O 1512.26 1.86183 3.6798 0
M  V30 15963 H 1511.6 0.495507 0.442006 0
M  V30 15964 H 1514.13 1.86952 0.831274 0
M  V30 15965 H 1514.14 2.55723 3.17915 0
M  V30 15966 H 1512.81 3.40081 2.39411 0
M  V30 15967 H 1511.39 1.79237 3.26999 0
M  V30 15968 N 1513.57 -0.913576 1.28419 0
M  V30 15969 C 1514.52 -2.01603 1.12361 0
M  V30 15970 C 1515.49 -1.66087 0.0206953 0
M  V30 15971 O 1516.68 -1.89895 0.185659 0
M  V30 15972 C 1513.82 -3.35897 0.791655 0
M  V30 15973 C 1512.93 -3.84281 1.97363 0
M  V30 15974 C 1512.06 -5.07087 1.58228 0
M  V30 15975 C 1511.1 -5.47804 2.73089 0
M  V30 15976 N 1510.24 -6.618 2.34446 0
M  V30 15977 H 1515.08 -2.1467 2.0669 0
M  V30 15978 H 1512.62 -1.05147 1.02871 0
M  V30 15979 H 1514.58 -4.13149 0.579943 0
M  V30 15980 H 1513.21 -3.22596 -0.114699 0
M  V30 15981 H 1512.26 -3.03184 2.29746 0
M  V30 15982 H 1513.57 -4.10417 2.83477 0
M  V30 15983 H 1512.72 -5.91883 1.33264 0
M  V30 15984 H 1511.46 -4.82759 0.692429 0
M  V30 15985 H 1510.47 -4.61549 2.98751 0
M  V30 15986 H 1511.69 -5.74119 3.62717 0
M  V30 15987 H 1509.64 -6.39103 1.4793 0
M  V30 15988 H 1509.56 -6.87663 3.14096 0
M  V30 15989 H 1510.82 -7.49901 2.12766 0
M  V30 15990 N 1515.05 -1.1067 -1.12204 0
M  V30 15991 C 1516.33 -0.762632 -1.8012 0
M  V30 15992 C 1516.71 0.750529 -1.97308 0
M  V30 15993 O 1516.06 1.67764 -1.55137 0
M  V30 15994 C 1516.27 -1.51651 -3.14329 0
M  V30 15995 C 1517.62 -1.69061 -3.89491 0
M  V30 15996 O 1518.64 -1.48009 -3.23994 0
M  V30 15997 O 1517.5 -2.03984 -5.07004 0
M  V30 15998 H 1514.59 -0.275417 -0.779791 0
M  V30 15999 H 1517.14 -1.20966 -1.19018 0
M  V30 16000 H 1515.91 -2.54622 -2.97125 0
M  V30 16001 H 1515.53 -1.0625 -3.83141 0
M  V30 16002 N 1516.53 1.29665 -0.895815 0
M  V30 16003 C 1517.78 1.96006 -0.520522 0
M  V30 16004 C 1518.11 1.7048 0.930068 0
M  V30 16005 O 1517.38 1.01558 1.6588 0
M  V30 16006 C 1517.67 3.50897 -0.808925 0
M  V30 16007 C 1517.52 3.85896 -2.31093 0
M  V30 16008 C 1518.84 4.39125 -0.292769 0
M  V30 16009 H 1515.96 0.711931 -0.190588 0
M  V30 16010 H 1518.6 1.53349 -1.12179 0
M  V30 16011 H 1516.75 3.87362 -0.297194 0
M  V30 16012 H 1518.42 3.59397 -2.89191 0
M  V30 16013 H 1516.67 3.33578 -2.77323 0
M  V30 16014 H 1517.34 4.93989 -2.46331 0
M  V30 16015 H 1519.81 4.0963 -0.730906 0
M  V30 16016 H 1518.69 5.46395 -0.523799 0
M  V30 16017 H 1518.95 4.34683 0.806393 0
M  V30 16018 N 1518.01 0.657889 1.43212 0
M  V30 16019 C 1519.25 0.173443 2.02057 0
M  V30 16020 C 1519.59 -1.21108 1.51811 0
M  V30 16021 O 1518.86 -1.80953 0.71317 0
M  V30 16022 C 1519.15 0.189429 3.59601 0
M  V30 16023 C 1519 1.6082 4.20068 0
M  V30 16024 C 1520.32 -0.471633 4.37566 0
M  V30 16025 H 1517.44 0.0644999 0.734172 0
M  V30 16026 H 1520.08 0.839462 1.7045 0
M  V30 16027 H 1518.23 -0.377689 3.8666 0
M  V30 16028 H 1519.9 2.22627 4.04024 0
M  V30 16029 H 1518.14 2.15407 3.7654 0
M  V30 16030 H 1518.81 1.5712 5.29167 0
M  V30 16031 H 1521.29 0.0109387 4.16099 0
M  V30 16032 H 1520.17 -0.429739 5.47215 0
M  V30 16033 H 1520.43 -1.54652 4.14168 0
M  V30 16034 N 1519.49 -1.52437 0.400108 0
M  V30 16035 C 1520.9 -1.5952 0.0505611 0
M  V30 16036 C 1521.1 -1.4135 -1.43606 0
M  V30 16037 O 1520.16 -1.23591 -2.20185 0
M  V30 16038 C 1521.47 -2.95859 0.537411 0
M  V30 16039 C 1523.02 -3.09067 0.494603 0
M  V30 16040 C 1523.49 -4.47873 0.957815 0
M  V30 16041 N 1524.99 -4.54087 0.914267 0
M  V30 16042 C 1525.72 -5.59744 1.24397 0
M  V30 16043 N 1525.22 -6.72995 1.64469 0
M  V30 16044 N 1527.01 -5.49905 1.16452 0
M  V30 16045 H 1519.16 -1.62496 1.36781 0
M  V30 16046 H 1521.42 -0.763947 0.561328 0
M  V30 16047 H 1521.13 -3.14407 1.57611 0
M  V30 16048 H 1521 -3.77156 -0.0577652 0
M  V30 16049 H 1523.39 -2.90209 -0.535035 0
M  V30 16050 H 1523.47 -2.29698 1.12572 0
M  V30 16051 H 1523.12 -4.67473 1.98574 0
M  V30 16052 H 1523.05 -5.25724 0.303602 0
M  V30 16053 H 1525.54 -3.72787 0.619536 0
M  V30 16054 H 1525.85 -7.49594 1.87961 0
M  V30 16055 H 1524.19 -6.74298 1.68364 0
M  V30 16056 H 1527.39 -4.60311 0.850401 0
M  V30 16057 H 1527.56 -6.32142 1.42478 0
M  V30 16058 N 1520.96 -0.130252 -1.57061 0
M  V30 16059 C 1522.19 0.531644 -1.99642 0
M  V30 16060 C 1522.6 1.60045 -1.00907 0
M  V30 16061 O 1521.95 1.83699 0.00452296 0
M  V30 16062 C 1522.01 1.20654 -3.38649 0
M  V30 16063 C 1521.67 0.284337 -4.56115 0
M  V30 16064 C 1522.67 -0.481472 -5.17666 0
M  V30 16065 C 1520.35 0.192125 -5.01932 0
M  V30 16066 C 1522.35 -1.32711 -6.23431 0
M  V30 16067 C 1520.03 -0.657135 -6.07557 0
M  V30 16068 C 1521.03 -1.41537 -6.68174 0
M  V30 16069 O 1520.72 -2.25051 -7.71756 0
M  V30 16070 H 1520.45 0.144394 -0.660399 0
M  V30 16071 H 1523.01 -0.216789 -2.04253 0
M  V30 16072 H 1521.24 2.00227 -3.30826 0
M  V30 16073 H 1522.93 1.76647 -3.65446 0
M  V30 16074 H 1523.69 -0.420169 -4.83177 0
M  V30 16075 H 1519.57 0.772017 -4.5449 0
M  V30 16076 H 1523.11 -1.91942 -6.70674 0
M  V30 16077 H 1519.01 -0.719791 -6.41474 0
M  V30 16078 H 1519.78 -2.18116 -7.88903 0
M  V30 16079 N 1522.44 1.56945 0.143535 0
M  V30 16080 C 1523.37 2.0156 1.17881 0
M  V30 16081 C 1524.35 0.895744 1.44604 0
M  V30 16082 O 1525.54 1.16379 1.55466 0
M  V30 16083 C 1522.67 2.39915 2.51114 0
M  V30 16084 C 1521.62 3.55117 2.38905 0
M  V30 16085 C 1520.95 3.79296 3.7688 0
M  V30 16086 C 1522.25 4.87668 1.87021 0
M  V30 16087 H 1523.94 2.88296 0.80783 0
M  V30 16088 H 1521.49 1.38698 0.387149 0
M  V30 16089 H 1523.44 2.69727 3.23767 0
M  V30 16090 H 1522.17 1.5012 2.90055 0
M  V30 16091 H 1520.83 3.25476 1.68703 0
M  V30 16092 H 1520.47 2.86747 4.13262 0
M  V30 16093 H 1520.17 4.56827 3.69571 0
M  V30 16094 H 1521.7 4.11537 4.51076 0
M  V30 16095 H 1523.11 5.16176 2.4947 0
M  V30 16096 H 1521.51 5.69029 1.90594 0
M  V30 16097 H 1522.58 4.77811 0.82611 0
M  V30 16098 N 1523.92 -0.412991 1.52093 0
M  V30 16099 C 1524.85 -1.50986 1.78117 0
M  V30 16100 C 1525.83 -1.57925 0.631963 0
M  V30 16101 O 1527.02 -1.73261 0.877168 0
M  V30 16102 C 1524.15 -2.88846 1.92835 0
M  V30 16103 C 1523.1 -2.96759 3.08412 0
M  V30 16104 C 1522.43 -4.36837 3.08347 0
M  V30 16105 C 1523.73 -2.68599 4.47942 0
M  V30 16106 H 1525.42 -1.29459 2.69964 0
M  V30 16107 H 1522.97 -0.621348 1.29905 0
M  V30 16108 H 1524.92 -3.65563 2.09623 0
M  V30 16109 H 1523.64 -3.11658 0.976553 0
M  V30 16110 H 1522.3 -2.22487 2.91368 0
M  V30 16111 H 1521.95 -4.56652 2.10897 0
M  V30 16112 H 1521.65 -4.43056 3.85973 0
M  V30 16113 H 1523.18 -5.15493 3.2726 0
M  V30 16114 H 1524.59 -3.35039 4.65212 0
M  V30 16115 H 1522.99 -2.86199 5.27456 0
M  V30 16116 H 1524.06 -1.64058 4.56304 0
M  V30 16117 N 1525.4 -1.4265 -0.669982 0
M  V30 16118 C 1526.68 -1.33858 -1.42623 0
M  V30 16119 C 1527.06 0.0217285 -2.11089 0
M  V30 16120 O 1526.4 1.03748 -2.03589 0
M  V30 16121 C 1526.61 -2.51015 -2.42472 0
M  V30 16122 C 1527.96 -2.93348 -3.06972 0
M  V30 16123 O 1528.99 -2.5094 -2.52799 0
M  V30 16124 O 1527.85 -3.66762 -4.05151 0
M  V30 16125 H 1524.94 -0.528141 -0.636393 0
M  V30 16126 H 1527.49 -1.54667 -0.6983 0
M  V30 16127 H 1526.26 -3.41679 -1.90713 0
M  V30 16128 H 1525.88 -2.32218 -3.2274 0
M  V30 16129 N 1526.88 0.906753 -1.28902 0
M  V30 16130 C 1527.83 1.99676 -1.10061 0
M  V30 16131 C 1528.81 1.60885 -0.0221442 0
M  V30 16132 O 1530 1.75323 -0.24307 0
M  V30 16133 C 1527.13 3.34511 -0.771823 0
M  V30 16134 C 1526.22 3.79683 -1.88948 0
M  V30 16135 N 1526.61 3.97159 -3.13207 0
M  V30 16136 C 1524.91 4.089 -1.78092 0
M  V30 16137 C 1525.61 4.35108 -3.86078 0
M  V30 16138 N 1524.58 4.43759 -3.13973 0
M  V30 16139 H 1528.39 2.11247 -2.04333 0
M  V30 16140 H 1525.9 1.09508 -1.19924 0
M  V30 16141 H 1527.9 4.12295 -0.617909 0
M  V30 16142 H 1526.56 3.2429 0.16305 0
M  V30 16143 H 1527.57 3.82884 -3.4874 0
M  V30 16144 H 1524.25 4.07276 -0.918291 0
M  V30 16145 H 1525.64 4.56533 -4.92978 0
M  V30 16146 N 1528.36 1.11264 1.11616 0
M  V30 16147 C 1529.32 0.7726 2.15786 0
M  V30 16148 C 1530.32 -0.207145 1.5946 0
M  V30 16149 O 1531.51 0.0171053 1.74192 0
M  V30 16150 C 1528.64 0.145927 3.40588 0
M  V30 16151 H 1529.83 1.69539 2.47379 0
M  V30 16152 H 1527.39 0.914278 1.2677 0
M  V30 16153 H 1528.12 -0.787178 3.14601 0
M  V30 16154 H 1527.91 0.851161 3.8275 0
M  V30 16155 H 1529.4 -0.0759176 4.17531 0
M  V30 16156 N 1529.83 -1.29188 0.902679 0
M  V30 16157 C 1531.24 -1.77521 0.578207 0
M  V30 16158 C 1531.6 -1.74017 -0.906227 0
M  V30 16159 O 1530.72 -1.32793 -1.70865 0
M  V30 16160 C 1531.32 -3.22352 1.04281 0
M  V30 16161 C 1529.87 -3.68451 0.769454 0
M  V30 16162 C 1529.02 -2.49225 1.21583 0
M  V30 16163 H 1531.97 -1.15807 1.0851 0
M  V30 16164 H 1531.99 -3.78604 0.379396 0
M  V30 16165 H 1531.51 -3.2487 2.12323 0
M  V30 16166 H 1529.61 -3.71405 -0.298223 0
M  V30 16167 H 1529.72 -4.59112 1.36943 0
M  V30 16168 H 1528.08 -2.46663 0.634766 0
M  V30 16169 H 1528.87 -2.54469 2.30436 0
M  V30 16170 N 1531.31 -0.665475 -1.42861 0
M  V30 16171 C 1532.72 -0.26225 -1.84849 0
M  V30 16172 C 1533.07 1.19372 -1.55707 0
M  V30 16173 O 1532.2 1.91269 -1.01218 0
M  V30 16174 C 1532.79 -0.469189 -3.35535 0
M  V30 16175 C 1531.35 -0.120172 -3.76208 0
M  V30 16176 C 1530.5 -0.766153 -2.66506 0
M  V30 16177 H 1533.45 -0.868296 -1.32839 0
M  V30 16178 H 1533.47 0.281571 -3.79457 0
M  V30 16179 H 1532.98 -1.52894 -3.56714 0
M  V30 16180 H 1531.08 0.936505 -3.60639 0
M  V30 16181 H 1531.2 -0.554188 -4.75884 0
M  V30 16182 H 1529.56 -0.198292 -2.53927 0
M  V30 16183 H 1530.34 -1.82918 -2.9051 0
M  V30 16184 N 1532.79 1.52222 -0.408187 0
M  V30 16185 C 1533.7 2.30725 0.424645 0
M  V30 16186 C 1534.72 1.38412 1.05442 0
M  V30 16187 O 1535.89 1.71486 1.05614 0
M  V30 16188 C 1532.96 3.11273 1.52677 0
M  V30 16189 C 1532.02 4.19323 0.920143 0
M  V30 16190 C 1531.25 4.96021 1.96974 0
M  V30 16191 O 1531.47 4.73011 3.18774 0
M  V30 16192 O 1530.41 5.80887 1.5765 0
M  V30 16193 H 1534.23 3.02935 -0.215411 0
M  V30 16194 H 1531.82 1.48413 -0.171414 0
M  V30 16195 H 1533.7 3.61436 2.16661 0
M  V30 16196 H 1532.38 2.41857 2.15144 0
M  V30 16197 H 1531.28 3.7331 0.243037 0
M  V30 16198 H 1532.62 4.91028 0.339405 0
M  V30 16199 N 1534.27 0.138579 1.5699 0
M  V30 16200 C 1535.52 -0.514545 1.95026 0
M  V30 16201 C 1535.83 -1.66565 1.02544 0
M  V30 16202 O 1537.04 -2.38284 1.30126 0
M  V30 16203 C 1535.49 -0.966746 3.46673 0
M  V30 16204 C 1535.1 0.156969 4.47725 0
M  V30 16205 C 1536.84 -1.59014 3.93592 0
M  V30 16206 C 1534.75 -0.313031 5.90571 0
M  V30 16207 H 1533.68 -0.195991 0.728082 0
M  V30 16208 H 1536.33 0.221575 1.82157 0
M  V30 16209 H 1534.71 -1.75788 3.54845 0
M  V30 16210 H 1535.89 0.933728 4.51241 0
M  V30 16211 H 1534.2 0.688238 4.10673 0
M  V30 16212 H 1536.8 -1.95326 4.97747 0
M  V30 16213 H 1537.14 -2.47595 3.34668 0
M  V30 16214 H 1537.68 -0.864061 3.88302 0
M  V30 16215 H 1534.41 0.5372 6.53295 0
M  V30 16216 H 1533.93 -1.05585 5.90434 0
M  V30 16217 H 1535.61 -0.767826 6.42428 0
M  V30 16218 N 1535.75 -1.57019 -0.13521 0
M  V30 16219 C 1536.68 -2.02182 -1.16811 0
M  V30 16220 C 1537.66 -0.9034 -1.44127 0
M  V30 16221 O 1538.84 -1.17202 -1.54846 0
M  V30 16222 C 1535.97 -2.41243 -2.49838 0
M  V30 16223 C 1534.93 -3.56379 -2.37018 0
M  V30 16224 C 1534.25 -3.8129 -3.74863 0
M  V30 16225 C 1535.55 -4.88653 -1.84432 0
M  V30 16226 H 1537.25 -2.8872 -0.792529 0
M  V30 16227 H 1534.79 -1.38901 -0.379788 0
M  V30 16228 H 1536.74 -2.7144 -3.22332 0
M  V30 16229 H 1535.47 -1.51656 -2.89254 0
M  V30 16230 H 1534.13 -3.26366 -1.66975 0
M  V30 16231 H 1533.78 -2.88934 -4.11735 0
M  V30 16232 H 1533.48 -4.58781 -3.67143 0
M  V30 16233 H 1535 -4.13924 -4.48887 0
M  V30 16234 H 1536.41 -5.17492 -2.46729 0
M  V30 16235 H 1534.81 -5.70032 -1.87574 0
M  V30 16236 H 1535.88 -4.78242 -0.800759 0
M  V30 16237 N 1537.22 0.404919 -1.52309 0
M  V30 16238 C 1538.5 1.16473 -1.57142 0
M  V30 16239 C 1538.88 2.08094 -0.354967 0
M  V30 16240 O 1538.23 2.18825 0.65788 0
M  V30 16241 C 1538.44 1.93834 -2.90223 0
M  V30 16242 C 1539.79 2.49754 -3.43378 0
M  V30 16243 O 1540.81 2.04009 -2.91991 0
M  V30 16244 O 1539.67 3.33271 -4.3312 0
M  V30 16245 H 1536.76 0.532036 -0.633141 0
M  V30 16246 H 1539.31 0.411359 -1.64639 0
M  V30 16247 H 1538.08 1.2674 -3.70206 0
M  V30 16248 H 1537.71 2.76167 -2.86038 0
M  V30 16249 N 1538.7 1.43003 0.662408 0
M  V30 16250 C 1539.67 1.4713 1.75743 0
M  V30 16251 C 1540.67 0.357203 1.56782 0
M  V30 16252 O 1541.86 0.618566 1.62848 0
M  V30 16253 C 1538.99 1.31499 3.14517 0
M  V30 16254 H 1540.18 2.44641 1.73467 0
M  V30 16255 H 1537.73 1.29633 0.873208 0
M  V30 16256 H 1538.47 0.349596 3.2241 0
M  V30 16257 H 1538.25 2.12253 3.29683 0
M  V30 16258 H 1539.74 1.37298 3.94384 0
M  V30 16259 N 1540.18 -0.899904 1.29381 0
M  V30 16260 C 1541.43 -1.65282 1.17515 0
M  V30 16261 C 1541.76 -1.92275 -0.272788 0
M  V30 16262 O 1541.03 -1.53303 -1.19701 0
M  V30 16263 C 1541.32 -3.00207 1.98867 0
M  V30 16264 C 1541.17 -2.80281 3.51799 0
M  V30 16265 C 1542.49 -4.00936 1.81489 0
M  V30 16266 H 1539.61 -0.5998 0.428263 0
M  V30 16267 H 1542.25 -1.04241 1.58852 0
M  V30 16268 H 1540.4 -3.52308 1.63741 0
M  V30 16269 H 1542.07 -2.35082 3.96905 0
M  V30 16270 H 1540.32 -2.15068 3.76733 0
M  V30 16271 H 1540.99 -3.76155 4.03994 0
M  V30 16272 H 1543.46 -3.57944 2.12169 0
M  V30 16273 H 1542.34 -4.9328 2.4076 0
M  V30 16274 H 1542.6 -4.35342 0.770021 0
M  V30 16275 N 1541.66 -1.11854 -1.11024 0
M  V30 16276 C 1542.57 -0.79368 -2.20767 0
M  V30 16277 C 1543.58 0.214996 -1.72667 0
M  V30 16278 O 1544.76 0.0500976 -2.01338 0
M  V30 16279 C 1541.83 -0.246375 -3.45823 0
M  V30 16280 C 1540.89 -1.31421 -4.0869 0
M  V30 16281 C 1540.12 -0.792922 -5.27777 0
M  V30 16282 O 1540.34 0.375492 -5.69163 0
M  V30 16283 O 1539.28 -1.55971 -5.8134 0
M  V30 16284 H 1543.1 -1.71011 -2.50976 0
M  V30 16285 H 1540.69 -0.894752 -1.19643 0
M  V30 16286 H 1542.57 0.0542632 -4.21365 0
M  V30 16287 H 1541.24 0.642703 -3.17255 0
M  V30 16288 H 1540.15 -1.66792 -3.3486 0
M  V30 16289 H 1541.48 -2.17683 -4.41446 0
M  V30 16290 N 1543.14 1.28707 -0.909517 0
M  V30 16291 C 1544.05 2.31171 -0.399628 0
M  V30 16292 C 1545.06 1.6634 0.510582 0
M  V30 16293 O 1546.24 1.97432 0.397792 0
M  V30 16294 C 1543.3 3.44869 0.355852 0
M  V30 16295 C 1542.36 4.25267 -0.587065 0
M  V30 16296 C 1541.6 5.33536 0.132456 0
M  V30 16297 O 1541.82 5.54075 1.35486 0
M  V30 16298 O 1540.75 5.99561 -0.530062 0
M  V30 16299 H 1544.58 2.76785 -1.24995 0
M  V30 16300 H 1542.17 1.33323 -0.674186 0
M  V30 16301 H 1544.05 4.14068 0.782692 0
M  V30 16302 H 1542.72 3.01345 1.18207 0
M  V30 16303 H 1541.63 3.58673 -1.06322 0
M  V30 16304 H 1542.96 4.72459 -1.37998 0
M  V30 16305 N 1544.61 0.673042 1.42506 0
M  V30 16306 C 1545.56 -0.0180603 2.32593 0
M  V30 16307 C 1546.56 -0.7924 1.49724 0
M  V30 16308 O 1547.76 -0.700563 1.65807 0
M  V30 16309 H 1544.14 -0.0246346 0.751596 0
M  V30 16310 H 1546.11 0.759153 2.88582 0
M  V30 16311 C 1544.86 -0.95676 3.34277 0
M  V30 16312 H 1544.18 -0.370341 3.98081 0
M  V30 16313 H 1545.62 -1.40905 3.99902 0
M  V30 16314 C 1544.08 -2.0623 2.66403 0
M  V30 16315 O 1544.61 -3.14853 2.4946 0
M  V30 16316 N 1542.82 -1.83351 2.25457 0
M  V30 16317 H 1542.36 -0.950141 2.39437 0
M  V30 16318 H 1542.32 -2.57511 1.80375 0
M  V30 16319 N 1546.09 -1.52004 0.416254 0
M  V30 16320 C 1547.34 -2.0149 -0.15689 0
M  V30 16321 C 1547.66 -1.30343 -1.45037 0
M  V30 16322 O 1546.93 -0.431503 -1.91089 0
M  V30 16323 H 1545.51 -0.744508 -0.0609682 0
M  V30 16324 H 1548.17 -1.86857 0.55413 0
M  V30 16325 H 1547.27 -3.10155 -0.347917 0
M  V30 16326 N 1547.57 -0.146903 -1.56914 0
M  V30 16327 C 1548.48 0.805875 -2.20324 0
M  V30 16328 C 1549.5 1.27178 -1.18751 0
M  V30 16329 O 1550.67 1.32899 -1.51327 0
M  V30 16330 C 1547.74 2.02755 -2.81232 0
M  V30 16331 C 1546.8 1.61089 -3.97931 0
M  V30 16332 C 1546.03 2.77433 -4.55924 0
M  V30 16333 O 1546.25 3.93643 -4.12797 0
M  V30 16334 O 1545.19 2.52911 -5.46187 0
M  V30 16335 H 1549.01 0.296098 -3.02253 0
M  V30 16336 H 1546.6 0.0801175 -1.49185 0
M  V30 16337 H 1548.48 2.74252 -3.19944 0
M  V30 16338 H 1547.16 2.52686 -2.02316 0
M  V30 16339 H 1546.06 0.86616 -3.63935 0
M  V30 16340 H 1547.4 1.15874 -4.78366 0
M  V30 16341 N 1549.05 1.57088 0.126881 0
M  V30 16342 C 1550.28 1.88614 0.850444 0
M  V30 16343 C 1550.69 0.737309 1.73808 0
M  V30 16344 O 1550.05 -0.292196 1.80146 0
M  V30 16345 C 1550.1 3.19541 1.69044 0
M  V30 16346 O 1549.82 4.3 0.838555 0
M  V30 16347 C 1551.32 3.64717 2.51985 0
M  V30 16348 H 1548.54 0.624715 0.244892 0
M  V30 16349 H 1551.09 2.04184 0.113634 0
M  V30 16350 H 1549.24 3.05664 2.38009 0
M  V30 16351 H 1549.65 5.04992 1.41717 0
M  V30 16352 H 1551.13 4.5911 3.06467 0
M  V30 16353 H 1551.61 2.90986 3.28974 0
M  V30 16354 H 1552.21 3.81356 1.88276 0
M  V30 16355 N 1550.53 -0.396836 1.52522 0
M  V30 16356 C 1551.77 -1.15166 1.68867 0
M  V30 16357 C 1552.13 -1.87445 0.415734 0
M  V30 16358 O 1553.33 -2.64913 0.455443 0
M  V30 16359 C 1551.6 -2.11005 2.88465 0
M  V30 16360 S 1553.16 -2.94429 3.25357 0
M  V30 16361 H 1549.98 -0.389966 0.594515 0
M  V30 16362 H 1552.58 -0.437201 1.90549 0
M  V30 16363 H 1551.29 -1.56613 3.79342 0
M  V30 16364 H 1550.82 -2.86971 2.69093 0
M  V30 16365 H 1552.83 -4.13068 2.74934 0
M  V30 16366 N 1552.01 -1.43353 -0.654814 0
M  V30 16367 C 1552.94 -1.51194 -1.7794 0
M  V30 16368 C 1553.92 -0.366747 -1.66099 0
M  V30 16369 O 1555.1 -0.58375 -1.85219 0
M  V30 16370 C 1552.23 -1.43298 -3.16359 0
M  V30 16371 C 1551.19 -2.5605 -3.42961 0
M  V30 16372 C 1550.51 -2.33208 -4.81163 0
M  V30 16373 C 1551.81 -3.98303 -3.37864 0
M  V30 16374 H 1553.51 -2.4532 -1.71635 0
M  V30 16375 H 1551.05 -1.18072 -0.824319 0
M  V30 16376 H 1553 -1.47388 -3.94784 0
M  V30 16377 H 1551.73 -0.456761 -3.2339 0
M  V30 16378 H 1550.39 -2.5131 -2.66906 0
M  V30 16379 H 1550.04 -1.33833 -4.84869 0
M  V30 16380 H 1549.74 -3.08789 -4.99923 0
M  V30 16381 H 1551.26 -2.39079 -5.61848 0
M  V30 16382 H 1552.67 -4.04538 -4.06229 0
M  V30 16383 H 1551.07 -4.73897 -3.6816 0
M  V30 16384 H 1552.14 -4.23552 -2.36075 0
M  V30 16385 N 1553.48 0.89303 -1.29857 0
M  V30 16386 C 1554.43 1.98497 -1.12173 0
M  V30 16387 C 1555.42 1.60852 -0.039207 0
M  V30 16388 O 1556.61 1.75055 -0.261652 0
M  V30 16389 C 1553.74 3.33674 -0.807259 0
M  V30 16390 C 1552.82 3.77658 -1.92965 0
M  V30 16391 N 1553.22 3.93814 -3.17402 0
M  V30 16392 C 1551.51 4.06988 -1.82419 0
M  V30 16393 C 1552.21 4.30988 -3.90671 0
M  V30 16394 N 1551.19 4.40403 -3.18662 0
M  V30 16395 H 1554.99 2.09068 -2.06562 0
M  V30 16396 H 1552.51 1.0823 -1.21078 0
M  V30 16397 H 1554.5 4.11617 -0.661603 0
M  V30 16398 H 1553.16 3.24445 0.128646 0
M  V30 16399 H 1554.17 3.79164 -3.52782 0
M  V30 16400 H 1550.85 4.06279 -0.961436 0
M  V30 16401 H 1552.24 4.51278 -4.97793 0
M  V30 16402 N 1554.96 1.12442 1.10429 0
M  V30 16403 C 1555.89 0.750131 2.16577 0
M  V30 16404 C 1556.91 -0.223265 1.61262 0
M  V30 16405 O 1558.1 -0.00459454 1.78499 0
M  V30 16406 C 1555.2 0.0895474 3.38782 0
M  V30 16407 C 1554.37 1.09242 4.23539 0
M  V30 16408 C 1553.43 0.45945 5.2419 0
M  V30 16409 O 1552.45 1.11646 5.58143 0
M  V30 16410 N 1553.66 -0.773093 5.75329 0
M  V30 16411 H 1556.42 1.66349 2.49295 0
M  V30 16412 H 1553.98 1.01603 1.26049 0
M  V30 16413 H 1555.97 -0.345895 4.03219 0
M  V30 16414 H 1554.54 -0.726572 3.04039 0
M  V30 16415 H 1553.76 1.70549 3.55396 0
M  V30 16416 H 1555.05 1.77057 4.76999 0
M  V30 16417 H 1554.45 -1.32585 5.49943 0
M  V30 16418 H 1553.01 -1.15135 6.41551 0
M  V30 16419 N 1556.44 -1.28223 0.91633 0
M  V30 16420 C 1557.4 -2.25477 0.411423 0
M  V30 16421 C 1558.4 -1.53969 -0.463689 0
M  V30 16422 O 1559.59 -1.72151 -0.266379 0
M  V30 16423 C 1556.72 -3.38427 -0.409851 0
M  V30 16424 H 1557.92 -2.71656 1.27056 0
M  V30 16425 H 1555.47 -1.3995 0.695966 0
M  V30 16426 H 1556.21 -2.97614 -1.28828 0
M  V30 16427 H 1555.99 -3.91497 0.217435 0
M  V30 16428 H 1557.48 -4.10739 -0.753862 0
M  V30 16429 N 1557.92 -0.68059 -1.42147 0
M  V30 16430 C 1558.88 -0.0149865 -2.29195 0
M  V30 16431 C 1559.88 0.723163 -1.43621 0
M  V30 16432 O 1561.07 0.560297 -1.64943 0
M  V30 16433 C 1558.2 0.989375 -3.26227 0
M  V30 16434 H 1559.4 -0.781236 -2.89546 0
M  V30 16435 H 1556.95 -0.443256 -1.49883 0
M  V30 16436 H 1557.68 1.78391 -2.70827 0
M  V30 16437 H 1557.47 0.463401 -3.89352 0
M  V30 16438 H 1558.96 1.45334 -3.91494 0
M  V30 16439 N 1559.4 1.51781 -0.424309 0
M  V30 16440 C 1560.36 2.25996 0.381903 0
M  V30 16441 C 1561.36 1.28938 0.960813 0
M  V30 16442 O 1562.55 1.52757 0.837306 0
M  V30 16443 C 1559.68 3.04181 1.53904 0
M  V30 16444 H 1560.87 2.98697 -0.268336 0
M  V30 16445 H 1558.43 1.55293 -0.177167 0
M  V30 16446 H 1559.16 2.35866 2.22571 0
M  V30 16447 H 1558.95 3.75457 1.13025 0
M  V30 16448 H 1560.44 3.60434 2.10896 0
M  V30 16449 N 1560.87 0.155222 1.56834 0
M  V30 16450 C 1561.8 -0.777258 2.20184 0
M  V30 16451 C 1562.78 -1.25102 1.15254 0
M  V30 16452 O 1563.97 -1.3071 1.43627 0
M  V30 16453 C 1561.1 -2.01326 2.82993 0
M  V30 16454 C 1560.05 -1.67596 3.93822 0
M  V30 16455 C 1559.38 -2.98529 4.43604 0
M  V30 16456 C 1560.68 -0.916302 5.142 0
M  V30 16457 H 1562.37 -0.249257 2.98361 0
M  V30 16458 H 1559.92 -0.118448 1.43512 0
M  V30 16459 H 1561.87 -2.67048 3.2598 0
M  V30 16460 H 1560.6 -2.56513 2.0216 0
M  V30 16461 H 1559.26 -1.0425 3.51465 0
M  V30 16462 H 1558.9 -3.51723 3.59583 0
M  V30 16463 H 1558.6 -2.76721 5.18362 0
M  V30 16464 H 1560.13 -3.65308 4.89267 0
M  V30 16465 H 1561.54 -1.47577 5.5398 0
M  V30 16466 H 1559.94 -0.797856 5.94772 0
M  V30 16467 H 1561.01 0.0904351 4.84816 0
M  V30 16468 N 1562.35 -1.57153 -0.118549 0
M  V30 16469 C 1563.6 -1.84511 -0.824623 0
M  V30 16470 C 1563.92 -0.740473 -1.80394 0
M  V30 16471 O 1563.19 0.235481 -1.9448 0
M  V30 16472 H 1561.77 -0.680764 -0.307522 0
M  V30 16473 H 1564.43 -1.94613 -0.105764 0
M  V30 16474 H 1563.53 -2.80444 -1.36958 0
M  V30 16475 N 1563.83 0.388742 -1.5273 0
M  V30 16476 C 1564.76 1.49441 -1.73781 0
M  V30 16477 C 1565.77 1.50602 -0.618285 0
M  V30 16478 O 1566.96 1.545 -0.893986 0
M  V30 16479 C 1564.06 2.88288 -1.78166 0
M  V30 16480 C 1563.24 3.11089 -3.07478 0
M  V30 16481 C 1562.3 4.2992 -3.03407 0
M  V30 16482 O 1561.32 4.26212 -3.77269 0
M  V30 16483 N 1562.52 5.36121 -2.2261 0
M  V30 16484 H 1565.29 1.3177 -2.69178 0
M  V30 16485 H 1562.85 0.578258 -1.51221 0
M  V30 16486 H 1564.84 3.65884 -1.72949 0
M  V30 16487 H 1563.41 2.99317 -0.901553 0
M  V30 16488 H 1562.63 2.21356 -3.26183 0
M  V30 16489 H 1563.92 3.23177 -3.92981 0
M  V30 16490 H 1563.32 5.41988 -1.62067 0
M  V30 16491 H 1561.87 6.12381 -2.23232 0
M  V30 16492 N 1565.31 1.43698 0.647203 0
M  V30 16493 C 1566.72 1.27231 0.963563 0
M  V30 16494 C 1566.92 0.196385 2.00541 0
M  V30 16495 O 1565.98 -0.423162 2.48929 0
M  V30 16496 C 1567.29 2.63863 1.44211 0
M  V30 16497 C 1568.84 2.71444 1.55844 0
M  V30 16498 C 1569.32 4.08508 2.07087 0
M  V30 16499 N 1570.81 4.10603 2.14381 0
M  V30 16500 C 1571.54 5.13496 2.55166 0
M  V30 16501 N 1571.04 6.26759 2.95203 0
M  V30 16502 N 1572.83 5.0085 2.55158 0
M  V30 16503 H 1564.98 2.12358 -0.0420956 0
M  V30 16504 H 1567.24 0.946989 0.0437628 0
M  V30 16505 H 1566.95 3.43589 0.75096 0
M  V30 16506 H 1566.82 2.89666 2.41605 0
M  V30 16507 H 1569.21 1.92046 2.24058 0
M  V30 16508 H 1569.29 2.49399 0.56866 0
M  V30 16509 H 1568.94 4.88375 1.39472 0
M  V30 16510 H 1568.87 4.2792 3.06907 0
M  V30 16511 H 1571.36 3.2885 1.86188 0
M  V30 16512 H 1571.67 7.01096 3.25091 0
M  V30 16513 H 1570.02 6.30222 2.92993 0
M  V30 16514 H 1573.21 4.11428 2.2326 0
M  V30 16515 H 1573.38 5.81165 2.86621 0
M  V30 16516 N 1566.79 -0.886131 1.30328 0
M  V30 16517 C 1568.01 -1.67099 1.22007 0
M  V30 16518 C 1568.43 -1.87546 -0.217255 0
M  V30 16519 O 1567.79 -1.42213 -1.14375 0
M  V30 16520 C 1567.84 -3.048 1.94368 0
M  V30 16521 O 1567.56 -2.85277 3.32489 0
M  V30 16522 C 1569.06 -3.99231 1.9269 0
M  V30 16523 H 1566.28 -0.521467 0.422271 0
M  V30 16524 H 1568.82 -1.1072 1.71934 0
M  V30 16525 H 1566.98 -3.57915 1.48242 0
M  V30 16526 H 1567.39 -3.72626 3.69121 0
M  V30 16527 H 1568.87 -4.93223 2.47861 0
M  V30 16528 H 1569.34 -4.29763 0.905558 0
M  V30 16529 H 1569.95 -3.52051 2.38621 0
M  V30 16530 N 1568.26 -1.13026 -1.09832 0
M  V30 16531 C 1569.51 -0.884093 -1.81292 0
M  V30 16532 C 1569.83 0.591608 -1.86439 0
M  V30 16533 O 1571.03 0.954571 -2.54166 0
M  V30 16534 C 1569.49 -1.53207 -3.25662 0
M  V30 16535 C 1569.1 -3.043 -3.28794 0
M  V30 16536 C 1570.84 -1.36644 -4.01906 0
M  V30 16537 C 1568.75 -3.62003 -4.67662 0
M  V30 16538 H 1567.68 -0.327101 -0.679353 0
M  V30 16539 H 1570.33 -1.35748 -1.2347 0
M  V30 16540 H 1568.71 -0.986353 -3.83519 0
M  V30 16541 H 1569.88 -3.65418 -2.80725 0
M  V30 16542 H 1568.2 -3.20332 -2.66038 0
M  V30 16543 H 1570.8 -1.7717 -5.04495 0
M  V30 16544 H 1571.14 -0.310809 -4.15138 0
M  V30 16545 H 1571.67 -1.88172 -3.5048 0
M  V30 16546 H 1568.41 -4.67354 -4.59631 0
M  V30 16547 H 1567.93 -3.05663 -5.16072 0
M  V30 16548 H 1569.61 -3.61432 -5.36634 0
M  V30 16549 N 1569.74 1.27735 -0.923117 0
M  V30 16550 C 1570.98 1.96339 -0.568378 0
M  V30 16551 C 1571.35 1.70988 0.87333 0
M  V30 16552 O 1572.55 2.33241 1.33611 0
M  V30 16553 C 1570.82 3.46396 -0.880016 0
M  V30 16554 S 1572.38 4.34209 -0.633102 0
M  V30 16555 H 1569.2 0.679289 -0.209969 0
M  V30 16556 H 1571.8 1.55066 -1.19057 0
M  V30 16557 H 1570.5 3.62344 -1.92705 0
M  V30 16558 H 1570.03 3.92625 -0.246836 0
M  V30 16559 H 1572.05 4.93559 0.511241 0
M  V30 16560 N 1571.22 0.688118 1.41784 0
M  V30 16561 C 1572.17 -0.00492036 2.27999 0
M  V30 16562 C 1573.15 -0.760299 1.41804 0
M  V30 16563 O 1574.35 -0.637019 1.6514 0
M  V30 16564 C 1571.48 -0.945951 3.3001 0
M  V30 16565 C 1570.56 -0.187213 4.23687 0
M  V30 16566 N 1570.95 0.815028 4.9919 0
M  V30 16567 C 1569.25 -0.423765 4.43982 0
M  V30 16568 C 1569.95 1.26854 5.677 0
M  V30 16569 N 1568.93 0.595901 5.40324 0
M  V30 16570 H 1572.73 0.763628 2.83806 0
M  V30 16571 H 1570.24 0.518314 1.53907 0
M  V30 16572 H 1572.24 -1.45754 3.90591 0
M  V30 16573 H 1570.9 -1.71418 2.75764 0
M  V30 16574 H 1571.91 1.19502 5.03924 0
M  V30 16575 H 1568.59 -1.17046 4.00757 0
M  V30 16576 H 1569.98 2.0998 6.38246 0
M  V30 16577 N 1572.7 -1.51554 0.432352 0
M  V30 16578 C 1573.93 -2.06162 -0.134405 0
M  V30 16579 C 1574.34 -1.30027 -1.37439 0
M  V30 16580 O 1573.68 -0.351793 -1.803 0
M  V30 16581 C 1573.74 -3.55617 -0.526926 0
M  V30 16582 C 1573.41 -4.5297 0.605559 0
M  V30 16583 C 1574.4 -4.98502 1.47619 0
M  V30 16584 C 1572.09 -4.9613 0.784871 0
M  V30 16585 C 1574.08 -5.85861 2.51088 0
M  V30 16586 C 1571.77 -5.8328 1.82284 0
M  V30 16587 C 1572.77 -6.28043 2.68423 0
M  V30 16588 O 1572.45 -7.13464 3.70438 0
M  V30 16589 H 1572.19 -0.675863 -0.0135879 0
M  V30 16590 H 1574.74 -1.96172 0.608761 0
M  V30 16591 H 1572.97 -3.63374 -1.32272 0
M  V30 16592 H 1574.66 -3.92764 -1.02426 0
M  V30 16593 H 1575.43 -4.65857 1.34917 0
M  V30 16594 H 1571.3 -4.60833 0.123986 0
M  V30 16595 H 1574.85 -6.20722 3.18356 0
M  V30 16596 H 1570.75 -6.15339 1.95008 0
M  V30 16597 H 1571.51 -7.3163 3.6696 0
M  V30 16598 N 1574.18 -0.163538 -1.56749 0
M  V30 16599 C 1575.43 0.483453 -1.9582 0
M  V30 16600 C 1575.74 1.64913 -1.05181 0
M  V30 16601 O 1576.94 2.36184 -1.33901 0
M  V30 16602 C 1575.4 0.911471 -3.48167 0
M  V30 16603 C 1575.01 -0.228178 -4.47419 0
M  V30 16604 C 1576.75 1.52732 -3.96072 0
M  V30 16605 C 1574.66 0.219036 -5.90994 0
M  V30 16606 H 1573.59 0.184383 -0.731108 0
M  V30 16607 H 1576.24 -0.250527 -1.81782 0
M  V30 16608 H 1574.62 1.7012 -3.57596 0
M  V30 16609 H 1575.8 -1.0054 -4.49698 0
M  V30 16610 H 1574.11 -0.753485 -4.09526 0
M  V30 16611 H 1576.71 1.87383 -5.00791 0
M  V30 16612 H 1577.05 2.42239 -3.38565 0
M  V30 16613 H 1577.58 0.802176 -3.89628 0
M  V30 16614 H 1574.32 -0.641066 -6.52358 0
M  V30 16615 H 1573.84 0.96178 -5.92039 0
M  V30 16616 H 1575.52 0.665524 -6.43568 0
M  V30 16617 N 1575.65 1.57214 0.110213 0
M  V30 16618 C 1576.9 1.85586 0.817649 0
M  V30 16619 C 1577.23 0.750536 1.79111 0
M  V30 16620 O 1576.51 -0.242864 1.92978 0
M  V30 16621 C 1576.79 3.24565 1.55979 0
M  V30 16622 C 1576.64 4.45708 0.605339 0
M  V30 16623 C 1577.96 3.61233 2.51393 0
M  V30 16624 H 1575.08 0.675037 0.295794 0
M  V30 16625 H 1577.72 1.89824 0.0816541 0
M  V30 16626 H 1575.87 3.21083 2.18718 0
M  V30 16627 H 1577.55 4.61298 -0.0138894 0
M  V30 16628 H 1575.79 4.33722 -0.0824644 0
M  V30 16629 H 1576.46 5.39643 1.16143 0
M  V30 16630 H 1578.94 3.65563 1.98754 0
M  V30 16631 H 1577.81 4.59438 3.00346 0
M  V30 16632 H 1578.07 2.89116 3.34461 0
M  V30 16633 N 1577.13 -0.380637 1.52934 0
M  V30 16634 C 1578.04 -1.48957 1.81243 0
M  V30 16635 C 1579.06 -1.5931 0.69974 0
M  V30 16636 O 1580.23 -1.75488 0.988218 0
M  V30 16637 C 1577.3 -2.84397 1.9829 0
M  V30 16638 C 1576.36 -2.83697 3.22202 0
M  V30 16639 C 1575.59 -4.12677 3.38427 0
M  V30 16640 O 1575.82 -5.08068 2.59274 0
M  V30 16641 O 1574.75 -4.19407 4.31719 0
M  V30 16642 H 1578.58 -1.27964 2.75425 0
M  V30 16643 H 1576.16 -0.56929 1.38128 0
M  V30 16644 H 1578.04 -3.64676 2.11161 0
M  V30 16645 H 1576.72 -3.054 1.07298 0
M  V30 16646 H 1575.63 -2.0217 3.14767 0
M  V30 16647 H 1576.96 -2.67648 4.13068 0
M  V30 16648 N 1578.61 -1.44039 -0.639573 0
M  V30 16649 C 1579.57 -1.49907 -1.7338 0
M  V30 16650 C 1580.57 -0.382101 -1.56194 0
M  V30 16651 O 1581.76 -0.644396 -1.61843 0
M  V30 16652 C 1578.9 -1.36486 -3.12385 0
M  V30 16653 H 1580.09 -2.4737 -1.69553 0
M  V30 16654 H 1577.64 -1.31006 -0.852474 0
M  V30 16655 H 1578.38 -0.400845 -3.21813 0
M  V30 16656 H 1578.16 -2.17471 -3.26265 0
M  V30 16657 H 1579.65 -1.43555 -3.9215 0
M  V30 16658 N 1580.09 0.879207 -1.30796 0
M  V30 16659 C 1581.34 1.62828 -1.19715 0
M  V30 16660 C 1581.66 1.93429 0.247031 0
M  V30 16661 O 1580.93 1.57478 1.16522 0
M  V30 16662 H 1579.51 0.603607 -0.440077 0
M  V30 16663 H 1582.17 1.05309 -1.64 0
M  V30 16664 H 1581.27 2.57591 -1.76219 0
M  V30 16665 N 1581.57 1.13606 1.09231 0
M  V30 16666 C 1582.53 0.818197 2.14099 0
M  V30 16667 C 1583.53 -0.173275 1.59864 0
M  V30 16668 O 1584.72 0.05405 1.74116 0
M  V30 16669 C 1581.85 0.218138 3.40201 0
M  V30 16670 H 1583.05 1.74748 2.43727 0
M  V30 16671 H 1580.6 0.940962 1.24802 0
M  V30 16672 H 1581.33 -0.720269 3.162 0
M  V30 16673 H 1581.12 0.932156 3.80859 0
M  V30 16674 H 1582.61 0.0126639 4.17598 0
M  V30 16675 N 1583.05 -1.27244 0.929878 0
M  V30 16676 C 1584.27 -1.98912 0.587277 0
M  V30 16677 C 1584.7 -1.68888 -0.828168 0
M  V30 16678 O 1584.05 -0.930394 -1.55606 0
M  V30 16679 C 1584.1 -3.51097 0.822399 0
M  V30 16680 O 1583.21 -4.12251 -0.110968 0
M  V30 16681 H 1582.55 -0.624404 0.225867 0
M  V30 16682 H 1585.08 -1.61997 1.24973 0
M  V30 16683 H 1585.09 -4.01255 0.738824 0
M  V30 16684 H 1583.76 -3.72282 1.85416 0
M  V30 16685 H 1582.34 -3.72893 0.0227053 0
M  V30 16686 N 1584.52 -0.695628 -1.41417 0
M  V30 16687 C 1585.45 -0.0447013 -2.33457 0
M  V30 16688 C 1586.43 0.767104 -1.51821 0
M  V30 16689 O 1587.62 0.720066 -1.80357 0
M  V30 16690 C 1584.75 0.892353 -3.3564 0
M  V30 16691 C 1583.7 0.187638 -4.27588 0
M  V30 16692 C 1583.03 1.23906 -5.20146 0
M  V30 16693 C 1584.33 -0.946093 -5.1366 0
M  V30 16694 H 1586.02 -0.81343 -2.88138 0
M  V30 16695 H 1583.57 -0.392614 -1.38544 0
M  V30 16696 H 1585.52 1.35696 -3.98954 0
M  V30 16697 H 1584.25 1.69275 -2.79309 0
M  V30 16698 H 1582.91 -0.256942 -3.65698 0
M  V30 16699 H 1582.55 2.03198 -4.6013 0
M  V30 16700 H 1582.25 0.772536 -5.82499 0
M  V30 16701 H 1583.78 1.70417 -5.86336 0
M  V30 16702 H 1585.19 -0.561764 -5.70541 0
M  V30 16703 H 1583.59 -1.33971 -5.84954 0
M  V30 16704 H 1584.66 -1.78573 -4.50821 0
M  V30 16705 N 1586 1.51322 -0.440383 0
M  V30 16706 C 1586.93 2.24398 0.414827 0
M  V30 16707 C 1587.91 1.26454 1.02216 0
M  V30 16708 O 1589.1 1.55597 1.06404 0
M  V30 16709 C 1586.22 2.99671 1.57844 0
M  V30 16710 C 1585.27 4.12297 1.0915 0
M  V30 16711 S 1586.1 5.35491 0.0310506 0
M  V30 16712 C 1587.26 6.14303 1.19926 0
M  V30 16713 H 1587.49 2.96588 -0.205572 0
M  V30 16714 H 1585.02 1.52753 -0.224932 0
M  V30 16715 H 1586.98 3.43638 2.24551 0
M  V30 16716 H 1585.64 2.27065 2.17027 0
M  V30 16717 H 1584.84 4.64254 1.96173 0
M  V30 16718 H 1584.44 3.70607 0.502621 0
M  V30 16719 H 1586.73 6.43575 2.11703 0
M  V30 16720 H 1587.67 7.04434 0.719591 0
M  V30 16721 H 1588.08 5.45845 1.43921 0
M  V30 16722 N 1587.48 0.171848 1.5666 0
M  V30 16723 C 1588.43 -0.758237 2.17989 0
M  V30 16724 C 1589.4 -1.22654 1.12006 0
M  V30 16725 O 1590.58 -1.29461 1.40159 0
M  V30 16726 C 1587.72 -1.98189 2.82516 0
M  V30 16727 C 1586.83 -1.55711 4.02962 0
M  V30 16728 C 1585.97 -2.73447 4.55412 0
M  V30 16729 C 1585.01 -2.27462 5.68267 0
M  V30 16730 N 1584.15 -3.38293 6.15225 0
M  V30 16731 H 1588.99 -0.228467 2.97123 0
M  V30 16732 H 1586.52 -0.10104 1.46753 0
M  V30 16733 H 1588.48 -2.6996 3.18084 0
M  V30 16734 H 1587.11 -2.48536 2.05985 0
M  V30 16735 H 1586.16 -0.736126 3.7321 0
M  V30 16736 H 1587.47 -1.17957 4.84652 0
M  V30 16737 H 1586.63 -3.53374 4.93165 0
M  V30 16738 H 1585.37 -3.14462 3.7278 0
M  V30 16739 H 1584.37 -1.45982 5.30065 0
M  V30 16740 H 1585.6 -1.87505 6.52701 0
M  V30 16741 H 1583.54 -3.78882 5.35522 0
M  V30 16742 H 1583.46 -3.04633 6.91907 0
M  V30 16743 H 1584.73 -4.18503 6.57629 0
M  V30 16744 N 1588.96 -1.5727 -0.101874 0
M  V30 16745 C 1590.19 -1.89943 -0.820329 0
M  V30 16746 C 1590.6 -0.764867 -1.72613 0
M  V30 16747 O 1589.96 0.263499 -1.80588 0
M  V30 16748 C 1590.01 -3.2219 -1.63939 0
M  V30 16749 O 1589.73 -4.31279 -0.770039 0
M  V30 16750 C 1591.23 -3.6868 -2.46151 0
M  V30 16751 H 1588.45 -0.628532 -0.234922 0
M  V30 16752 H 1590.99 -2.04339 -0.0811362 0
M  V30 16753 H 1589.15 -3.09411 -2.33117 0
M  V30 16754 H 1589.56 -5.07182 -1.33665 0
M  V30 16755 H 1591.04 -4.63928 -2.99124 0
M  V30 16756 H 1591.51 -2.96183 -3.24303 0
M  V30 16757 H 1592.12 -3.84303 -1.82185 0
M  V30 16758 N 1590.44 0.372521 -1.53134 0
M  V30 16759 C 1591.71 1.13113 -1.59577 0
M  V30 16760 C 1592.09 2.07294 -0.399027 0
M  V30 16761 O 1591.44 2.20171 0.611316 0
M  V30 16762 C 1591.65 1.87635 -2.94269 0
M  V30 16763 C 1593 2.42414 -3.48598 0
M  V30 16764 O 1594.02 1.9777 -2.96252 0
M  V30 16765 O 1592.88 3.24008 -4.40092 0
M  V30 16766 H 1589.98 0.518486 -0.644284 0
M  V30 16767 H 1592.52 0.376344 -1.65474 0
M  V30 16768 H 1591.29 1.18859 -3.72811 0
M  V30 16769 H 1590.92 2.70037 -2.91831 0
M  V30 16770 N 1591.91 1.44376 0.631925 0
M  V30 16771 C 1592.85 1.47167 1.75711 0
M  V30 16772 C 1593.86 0.365158 1.58652 0
M  V30 16773 O 1595.05 0.630852 1.66981 0
M  V30 16774 C 1592.15 1.28916 3.13423 0
M  V30 16775 C 1591.32 2.52798 3.56948 0
M  V30 16776 C 1590.38 2.29458 4.73535 0
M  V30 16777 O 1589.41 3.02941 4.81887 0
M  V30 16778 N 1590.61 1.32467 5.65184 0
M  V30 16779 H 1593.37 2.44168 1.73788 0
M  V30 16780 H 1590.93 1.39805 0.816465 0
M  V30 16781 H 1592.93 1.1115 3.89137 0
M  V30 16782 H 1591.5 0.402828 3.09994 0
M  V30 16783 H 1590.72 2.85846 2.71451 0
M  V30 16784 H 1592 3.35198 3.82779 0
M  V30 16785 H 1591.4 0.717762 5.61128 0
M  V30 16786 H 1589.96 1.2068 6.40531 0
M  V30 16787 N 1593.39 -0.872258 1.31261 0
M  V30 16788 C 1594.32 -1.9853 1.14537 0
M  V30 16789 C 1595.34 -1.62578 0.0850723 0
M  V30 16790 O 1596.53 -1.75379 0.332343 0
M  V30 16791 C 1593.63 -3.31005 0.72727 0
M  V30 16792 C 1592.8 -3.95313 1.87208 0
M  V30 16793 C 1591.86 -5.06101 1.44042 0
M  V30 16794 O 1590.88 -5.27045 2.1497 0
M  V30 16795 N 1592.09 -5.79581 0.32653 0
M  V30 16796 H 1594.85 -2.13423 2.10406 0
M  V30 16797 H 1592.41 -1.0461 1.23565 0
M  V30 16798 H 1594.4 -4.02502 0.421255 0
M  V30 16799 H 1592.97 -3.12287 -0.13975 0
M  V30 16800 H 1592.19 -3.16825 2.34553 0
M  V30 16801 H 1593.48 -4.35015 2.63893 0
M  V30 16802 H 1592.88 -5.65083 -0.264202 0
M  V30 16803 H 1591.44 -6.51751 0.0800358 0
M  V30 16804 N 1594.87 -1.14184 -1.08627 0
M  V30 16805 C 1596.12 -0.906869 -1.80611 0
M  V30 16806 C 1596.44 0.568182 -1.86539 0
M  V30 16807 O 1595.71 1.41301 -1.35687 0
M  V30 16808 H 1594.29 -0.332523 -0.668908 0
M  V30 16809 H 1596.95 -1.43998 -1.31341 0
M  V30 16810 H 1596.05 -1.30484 -2.83514 0
M  V30 16811 N 1596.35 1.26749 -0.936613 0
M  V30 16812 C 1597.63 1.89106 -0.49981 0
M  V30 16813 C 1598.01 1.84687 1.02244 0
M  V30 16814 O 1597.35 1.2981 1.88047 0
M  V30 16815 C 1597.56 3.32641 -1.05598 0
M  V30 16816 C 1598.91 4.09511 -1.12187 0
M  V30 16817 O 1599.94 3.41692 -1.00624 0
M  V30 16818 O 1598.79 5.30785 -1.30113 0
M  V30 16819 H 1595.89 0.810941 -0.162185 0
M  V30 16820 H 1598.43 1.34952 -1.02888 0
M  V30 16821 H 1597.21 3.30196 -2.09968 0
M  V30 16822 H 1596.83 3.94327 -0.509086 0
M  V30 16823 N 1597.83 0.703118 1.41046 0
M  V30 16824 C 1599.05 0.246552 2.05426 0
M  V30 16825 C 1599.47 -1.10704 1.52938 0
M  V30 16826 O 1598.83 -1.69329 0.680733 0
M  V30 16827 C 1598.88 0.203953 3.60924 0
M  V30 16828 O 1598.6 1.50408 4.11472 0
M  V30 16829 C 1600.1 -0.272686 4.42461 0
M  V30 16830 H 1597.32 0.113157 0.66139 0
M  V30 16831 H 1599.86 0.957823 1.80682 0
M  V30 16832 H 1598.02 -0.458194 3.84681 0
M  V30 16833 H 1598.43 1.39622 5.05575 0
M  V30 16834 H 1599.91 -0.251357 5.51427 0
M  V30 16835 H 1600.38 -1.31282 4.1912 0
M  V30 16836 H 1600.99 0.358733 4.23784 0
M  V30 16837 N 1599.3 -1.51086 0.448402 0
M  V30 16838 C 1600.72 -1.86696 -0.0121264 0
M  V30 16839 C 1601.07 -1.36483 -1.40949 0
M  V30 16840 O 1600.19 -0.72024 -2.04062 0
M  V30 16841 C 1600.79 -3.38788 -0.0287814 0
M  V30 16842 C 1599.35 -3.73892 -0.433758 0
M  V30 16843 C 1598.49 -2.74869 0.366362 0
M  V30 16844 H 1601.44 -1.44153 0.663744 0
M  V30 16845 H 1601.46 -3.71204 -0.835915 0
M  V30 16846 H 1600.98 -3.75304 0.988368 0
M  V30 16847 H 1599.08 -3.4297 -1.4561 0
M  V30 16848 H 1599.19 -4.78862 -0.150869 0
M  V30 16849 H 1597.55 -2.54085 -0.176862 0
M  V30 16850 H 1598.34 -3.14228 1.3826 0
M  V30 16851 N 1600.78 -0.180154 -1.56567 0
M  V30 16852 C 1602.2 0.175902 -1.58628 0
M  V30 16853 C 1602.4 1.62179 -1.19583 0
M  V30 16854 O 1601.45 2.35471 -0.911566 0
M  V30 16855 C 1602.77 -0.11292 -3.00488 0
M  V30 16856 C 1604.32 -0.051834 -3.12957 0
M  V30 16857 C 1604.79 -0.313764 -4.56924 0
M  V30 16858 N 1606.28 -0.261852 -4.62459 0
M  V30 16859 C 1607.02 -0.438573 -5.7172 0
M  V30 16860 N 1606.51 -0.674832 -6.89506 0
M  V30 16861 N 1608.31 -0.373864 -5.60855 0
M  V30 16862 H 1600.46 -1.12385 -1.80232 0
M  V30 16863 H 1602.72 -0.447459 -0.835754 0
M  V30 16864 H 1602.43 -1.11488 -3.33562 0
M  V30 16865 H 1602.3 0.591409 -3.72535 0
M  V30 16866 H 1604.69 0.940711 -2.79705 0
M  V30 16867 H 1604.77 -0.78901 -2.43327 0
M  V30 16868 H 1604.41 -1.30356 -4.90887 0
M  V30 16869 H 1604.34 0.444127 -5.24724 0
M  V30 16870 H 1606.83 -0.0852513 -3.77804 0
M  V30 16871 H 1607.15 -0.798891 -7.6866 0
M  V30 16872 H 1605.49 -0.711551 -6.91348 0
M  V30 16873 H 1608.68 -0.189815 -4.67715 0
M  V30 16874 H 1608.85 -0.515012 -6.4595 0
M  V30 16875 N 1602.26 1.57322 0.0935319 0
M  V30 16876 C 1603.19 1.98861 1.13961 0
M  V30 16877 C 1604.21 0.891385 1.36228 0
M  V30 16878 O 1605.39 1.16949 1.34853 0
M  V30 16879 C 1602.49 2.29369 2.49485 0
M  V30 16880 C 1601.67 3.6066 2.47473 0
M  V30 16881 C 1600.73 3.79087 3.64937 0
M  V30 16882 O 1599.75 4.50923 3.47357 0
M  V30 16883 N 1600.95 3.19784 4.84478 0
M  V30 16884 H 1603.72 2.89208 0.786048 0
M  V30 16885 H 1601.28 1.59416 0.282491 0
M  V30 16886 H 1603.27 2.38889 3.26671 0
M  V30 16887 H 1601.84 1.45021 2.76925 0
M  V30 16888 H 1601.06 3.62095 1.55823 0
M  V30 16889 H 1602.35 4.46908 2.43209 0
M  V30 16890 H 1601.75 2.61436 5.01665 0
M  V30 16891 H 1600.31 3.34786 5.59251 0
M  V30 16892 N 1603.74 -0.364395 1.53329 0
M  V30 16893 C 1605.15 -0.706147 1.43128 0
M  V30 16894 C 1605.35 -1.93231 0.571307 0
M  V30 16895 O 1604.41 -2.52442 0.0542079 0
M  V30 16896 C 1605.72 -0.918245 2.86337 0
M  V30 16897 C 1607.27 -1.01818 2.95976 0
M  V30 16898 C 1607.75 -1.26274 4.40249 0
M  V30 16899 N 1609.24 -1.33042 4.43683 0
M  V30 16900 C 1609.97 -1.53677 5.52423 0
M  V30 16901 N 1609.47 -1.7162 6.71207 0
M  V30 16902 N 1611.26 -1.56056 5.40003 0
M  V30 16903 H 1603.41 0.442091 2.07748 0
M  V30 16904 H 1605.68 0.135735 0.938232 0
M  V30 16905 H 1605.38 -0.0890628 3.51587 0
M  V30 16906 H 1605.26 -1.826 3.30056 0
M  V30 16907 H 1607.64 -1.83791 2.30879 0
M  V30 16908 H 1607.72 -0.0877892 2.55649 0
M  V30 16909 H 1607.37 -0.448026 5.0592 0
M  V30 16910 H 1607.3 -2.20637 4.78149 0
M  V30 16911 H 1609.79 -1.20784 3.58078 0
M  V30 16912 H 1610.1 -1.86942 7.49848 0
M  V30 16913 H 1608.45 -1.68797 6.7419 0
M  V30 16914 H 1611.64 -1.41605 4.46168 0
M  V30 16915 H 1611.81 -1.71796 6.24812 0
M  V30 16916 N 1605.22 -1.44709 -0.62426 0
M  V30 16917 C 1606.18 -1.51738 -1.7178 0
M  V30 16918 C 1607.18 -0.398646 -1.5578 0
M  V30 16919 O 1608.37 -0.661525 -1.61151 0
M  V30 16920 C 1605.5 -1.39792 -3.1092 0
M  V30 16921 H 1606.69 -2.49154 -1.6692 0
M  V30 16922 H 1604.25 -1.31903 -0.838531 0
M  V30 16923 H 1604.98 -0.434955 -3.2137 0
M  V30 16924 H 1604.77 -2.20919 -3.2394 0
M  V30 16925 H 1606.26 -1.47706 -3.90606 0
M  V30 16926 N 1606.69 0.865285 -1.31722 0
M  V30 16927 C 1607.6 2.00542 -1.21738 0
M  V30 16928 C 1608.62 1.7349 -0.133124 0
M  V30 16929 O 1609.8 1.98303 -0.351809 0
M  V30 16930 C 1606.86 3.33993 -0.930045 0
M  V30 16931 C 1605.92 3.74337 -2.10167 0
M  V30 16932 C 1605.16 5.0142 -1.82795 0
M  V30 16933 O 1605.38 5.65242 -0.765345 0
M  V30 16934 O 1604.31 5.38642 -2.68604 0
M  V30 16935 H 1608.14 2.11898 -2.17561 0
M  V30 16936 H 1605.72 0.994313 -1.11507 0
M  V30 16937 H 1607.61 4.14008 -0.785846 0
M  V30 16938 H 1606.28 3.237 -0.00188642 0
M  V30 16939 H 1605.19 2.94943 -2.3013 0
M  V30 16940 H 1606.52 3.89261 -3.01225 0
M  V30 16941 N 1608.17 1.14759 1.0802 0
M  V30 16942 C 1609.12 0.838134 2.15044 0
M  V30 16943 C 1610.09 -0.206031 1.64817 0
M  V30 16944 O 1611.27 -0.0750812 1.90652 0
M  V30 16945 C 1608.41 0.326112 3.43556 0
M  V30 16946 C 1607.53 1.43104 4.07609 0
M  V30 16947 C 1606.66 0.875857 5.2393 0
M  V30 16948 C 1605.7 1.9582 5.79932 0
M  V30 16949 N 1604.84 1.41989 6.87593 0
M  V30 16950 H 1609.68 1.75478 2.40856 0
M  V30 16951 H 1607.22 0.875686 1.18195 0
M  V30 16952 H 1609.17 0.0110103 4.17199 0
M  V30 16953 H 1607.8 -0.55363 3.18017 0
M  V30 16954 H 1606.86 1.86247 3.31687 0
M  V30 16955 H 1608.17 2.24849 4.45246 0
M  V30 16956 H 1607.32 0.512893 6.04528 0
M  V30 16957 H 1606.06 0.0275017 4.87692 0
M  V30 16958 H 1605.07 2.33006 4.97984 0
M  V30 16959 H 1606.29 2.81021 6.18227 0
M  V30 16960 H 1604.24 0.593779 6.53307 0
M  V30 16961 H 1604.15 2.17367 7.24077 0
M  V30 16962 H 1605.42 1.08495 7.71913 0
M  V30 16963 N 1609.65 -1.26251 0.943322 0
M  V30 16964 C 1610.61 -2.24554 0.459158 0
M  V30 16965 C 1611.61 -1.54918 -0.430926 0
M  V30 16966 O 1612.8 -1.72678 -0.229803 0
M  V30 16967 C 1609.94 -3.39221 -0.337973 0
M  V30 16968 H 1611.13 -2.689 1.32789 0
M  V30 16969 H 1608.68 -1.38442 0.725495 0
M  V30 16970 H 1609.42 -3.00279 -1.22486 0
M  V30 16971 H 1609.2 -3.90947 0.300428 0
M  V30 16972 H 1610.69 -4.12246 -0.666568 0
M  V30 16973 N 1611.13 -0.710588 -1.40671 0
M  V30 16974 C 1612.06 -0.0154749 -2.29195 0
M  V30 16975 C 1613.07 0.728938 -1.45569 0
M  V30 16976 O 1614.26 0.577147 -1.68912 0
M  V30 16977 C 1611.36 1.00232 -3.23739 0
M  V30 16978 C 1610.54 0.324464 -4.36195 0
M  V30 16979 C 1609.6 1.24695 -5.11212 0
M  V30 16980 O 1608.62 0.733634 -5.64452 0
M  V30 16981 N 1609.82 2.57841 -5.20094 0
M  V30 16982 H 1612.59 -0.775543 -2.89492 0
M  V30 16983 H 1610.15 -0.557815 -1.51987 0
M  V30 16984 H 1612.14 1.62151 -3.70795 0
M  V30 16985 H 1610.71 1.66379 -2.64644 0
M  V30 16986 H 1609.93 -0.474847 -3.9133 0
M  V30 16987 H 1611.22 -0.146269 -5.0859 0
M  V30 16988 H 1610.62 3.02047 -4.78314 0
M  V30 16989 H 1609.17 3.14917 -5.70676 0
M  V30 16990 N 1612.61 1.50847 -0.456408 0
M  V30 16991 C 1613.88 1.94907 0.164485 0
M  V30 16992 C 1614.26 1.39609 1.58343 0
M  V30 16993 O 1613.61 0.590971 2.20726 0
M  V30 16994 C 1613.82 3.48784 0.122794 0
M  V30 16995 C 1615.17 4.234 0.318964 0
M  V30 16996 O 1616.19 3.55638 0.20005 0
M  V30 16997 O 1615.05 5.43649 0.557507 0
M  V30 16998 H 1612.15 0.818298 0.119652 0
M  V30 16999 H 1614.69 1.61673 -0.515758 0
M  V30 17000 H 1613.47 3.81541 -0.868468 0
M  V30 17001 H 1613.09 3.88514 0.84513 0
M  V30 17002 N 1614.09 0.188454 1.56469 0
M  V30 17003 C 1615.31 -0.457846 2.01771 0
M  V30 17004 C 1615.73 -1.55646 1.06863 0
M  V30 17005 O 1615.09 -1.82356 0.0723619 0
M  V30 17006 C 1615.14 -1.02032 3.46802 0
M  V30 17007 O 1614.86 0.0344536 4.38086 0
M  V30 17008 C 1616.36 -1.74316 4.07589 0
M  V30 17009 H 1613.58 -0.115594 0.660968 0
M  V30 17010 H 1616.12 0.295213 2.02358 0
M  V30 17011 H 1614.28 -1.7238 3.46935 0
M  V30 17012 H 1614.69 -0.383254 5.23098 0
M  V30 17013 H 1616.17 -2.08912 5.1094 0
M  V30 17014 H 1616.64 -2.64445 3.50665 0
M  V30 17015 H 1617.25 -1.0857 4.11209 0
M  V30 17016 N 1615.56 -1.5737 -0.0851874 0
M  V30 17017 C 1616.47 -2.06097 -1.12078 0
M  V30 17018 C 1617.49 -0.987809 -1.43242 0
M  V30 17019 O 1618.67 -1.30163 -1.53686 0
M  V30 17020 C 1615.73 -2.48397 -2.41867 0
M  V30 17021 C 1614.79 -3.69951 -2.17795 0
M  V30 17022 C 1614.02 -4.10225 -3.41396 0
M  V30 17023 O 1614.25 -3.50495 -4.5001 0
M  V30 17024 O 1613.18 -5.03111 -3.30399 0
M  V30 17025 H 1617.01 -2.94625 -0.736877 0
M  V30 17026 H 1614.59 -1.4639 -0.298392 0
M  V30 17027 H 1616.47 -2.76187 -3.18274 0
M  V30 17028 H 1615.15 -1.63003 -2.79664 0
M  V30 17029 H 1614.06 -3.47263 -1.39136 0
M  V30 17030 H 1615.39 -4.56156 -1.84886 0
M  V30 17031 N 1617.04 0.356258 -1.53521 0
M  V30 17032 C 1617.97 1.44271 -1.83598 0
M  V30 17033 C 1618.95 1.5547 -0.690141 0
M  V30 17034 O 1620.14 1.69886 -0.940868 0
M  V30 17035 C 1617.27 2.8149 -2.03422 0
M  V30 17036 C 1616.22 2.85108 -3.19213 0
M  V30 17037 C 1615.55 4.25091 -3.24348 0
M  V30 17038 C 1616.85 2.51788 -4.57602 0
M  V30 17039 H 1618.54 1.1935 -2.74583 0
M  V30 17040 H 1616.09 0.572707 -1.32121 0
M  V30 17041 H 1618.04 3.57531 -2.23046 0
M  V30 17042 H 1616.76 3.07819 -1.09155 0
M  V30 17043 H 1615.42 2.1152 -2.99424 0
M  V30 17044 H 1615.07 4.4851 -2.277 0
M  V30 17045 H 1614.77 4.28426 -4.0215 0
M  V30 17046 H 1616.3 5.02992 -3.46167 0
M  V30 17047 H 1617.71 3.17542 -4.77326 0
M  V30 17048 H 1616.11 2.66426 -5.37715 0
M  V30 17049 H 1617.18 1.4701 -4.62078 0
M  V30 17050 N 1618.52 1.45038 0.616577 0
M  V30 17051 C 1619.48 1.52647 1.70973 0
M  V30 17052 C 1620.48 0.406902 1.55567 0
M  V30 17053 O 1621.67 0.670062 1.60797 0
M  V30 17054 C 1618.8 1.41438 3.10174 0
M  V30 17055 H 1620 2.50036 1.65596 0
M  V30 17056 H 1617.55 1.32346 0.831524 0
M  V30 17057 H 1618.29 0.451991 3.21135 0
M  V30 17058 H 1618.07 2.22634 3.22764 0
M  V30 17059 H 1619.56 1.49776 3.89817 0
M  V30 17060 N 1620 -0.858287 1.32179 0
M  V30 17061 C 1620.96 -1.94811 1.20753 0
M  V30 17062 C 1621.96 -1.60261 0.131526 0
M  V30 17063 O 1623.15 -1.69968 0.381662 0
M  V30 17064 C 1620.28 -3.29972 0.856229 0
M  V30 17065 H 1621.48 -2.06371 2.17603 0
M  V30 17066 H 1619.03 -1.04802 1.15958 0
M  V30 17067 H 1619.76 -3.24111 -0.11061 0
M  V30 17068 H 1619.55 -3.56424 1.63414 0
M  V30 17069 H 1621.04 -4.09856 0.800507 0
M  V30 17070 N 1621.48 -1.1533 -1.07409 0
M  V30 17071 C 1622.71 -0.950263 -1.83449 0
M  V30 17072 C 1623.11 0.504761 -1.82343 0
M  V30 17073 O 1622.46 1.36183 -1.23287 0
M  V30 17074 C 1622.52 -1.38651 -3.31687 0
M  V30 17075 C 1622.18 -2.85914 -3.56514 0
M  V30 17076 C 1623.18 -3.83981 -3.50506 0
M  V30 17077 C 1620.86 -3.23568 -3.84199 0
M  V30 17078 C 1622.86 -5.17707 -3.71831 0
M  V30 17079 C 1620.55 -4.57467 -4.05175 0
M  V30 17080 C 1621.54 -5.54345 -3.98986 0
M  V30 17081 O 1621.23 -6.85826 -4.19403 0
M  V30 17082 H 1620.96 -0.337616 -0.585655 0
M  V30 17083 H 1623.52 -1.53489 -1.36493 0
M  V30 17084 H 1621.75 -0.745282 -3.7945 0
M  V30 17085 H 1623.44 -1.15267 -3.89189 0
M  V30 17086 H 1624.2 -3.56237 -3.29121 0
M  V30 17087 H 1620.08 -2.48748 -3.88131 0
M  V30 17088 H 1623.63 -5.93311 -3.66916 0
M  V30 17089 H 1619.52 -4.84927 -4.26047 0
M  V30 17090 H 1620.29 -6.92235 -4.36753 0
M  V30 17091 N 1622.95 1.25748 -0.950004 0
M  V30 17092 C 1623.88 2.28419 -0.484467 0
M  V30 17093 C 1624.86 1.63569 0.466813 0
M  V30 17094 O 1626.05 1.90705 0.366766 0
M  V30 17095 C 1623.18 3.46449 0.242916 0
M  V30 17096 C 1622.13 4.23447 -0.622657 0
M  V30 17097 C 1621.46 5.34182 0.235199 0
M  V30 17098 C 1622.76 4.86576 -1.89845 0
M  V30 17099 H 1624.45 2.6761 -1.34257 0
M  V30 17100 H 1622 1.28646 -0.647014 0
M  V30 17101 H 1623.95 4.17394 0.579693 0
M  V30 17102 H 1622.68 3.06235 1.13523 0
M  V30 17103 H 1621.34 3.54279 -0.942453 0
M  V30 17104 H 1620.98 4.90209 1.12713 0
M  V30 17105 H 1620.68 5.86612 -0.340609 0
M  V30 17106 H 1622.21 6.07961 0.567048 0
M  V30 17107 H 1623.62 5.49688 -1.62837 0
M  V30 17108 H 1622.02 5.49162 -2.41954 0
M  V30 17109 H 1623.09 4.09021 -2.60441 0
M  V30 17110 N 1624.43 0.718038 1.40292 0
M  V30 17111 C 1625.34 0.0681535 2.34501 0
M  V30 17112 C 1626.36 -0.741048 1.57431 0
M  V30 17113 O 1627.53 -0.673437 1.89807 0
M  V30 17114 C 1624.6 -0.840758 3.36351 0
M  V30 17115 C 1623.66 -0.0212287 4.29295 0
M  V30 17116 C 1622.89 -0.886852 5.2628 0
M  V30 17117 O 1623.12 -2.12603 5.29298 0
M  V30 17118 O 1622.05 -0.324537 6.01024 0
M  V30 17119 H 1625.88 0.845288 2.91699 0
M  V30 17120 H 1623.46 0.478541 1.41529 0
M  V30 17121 H 1625.34 -1.36131 3.98806 0
M  V30 17122 H 1624.02 -1.597 2.81563 0
M  V30 17123 H 1622.92 0.544451 3.70117 0
M  V30 17124 H 1624.26 0.696846 4.87242 0
M  V30 17125 N 1625.91 -1.50602 0.464402 0
M  V30 17126 C 1626.86 -2.29992 -0.347337 0
M  V30 17127 C 1627.85 -1.36991 -0.996489 0
M  V30 17128 O 1629.06 -1.54213 -0.928359 0
M  V30 17129 H 1625.43 -0.740529 -0.130847 0
M  V30 17130 H 1627.4 -2.96425 0.342734 0
M  V30 17131 C 1626.15 -3.17355 -1.4206 0
M  V30 17132 H 1625.48 -3.88822 -0.930473 0
M  V30 17133 H 1626.92 -3.75912 -1.96129 0
M  V30 17134 C 1625.38 -2.34506 -2.41886 0
M  V30 17135 O 1625.91 -2.02347 -3.47014 0
M  V30 17136 N 1624.11 -1.97212 -2.13438 0
M  V30 17137 H 1623.66 -2.23564 -1.27971 0
M  V30 17138 H 1623.62 -1.42081 -2.80464 0
M  V30 17139 N 1627.39 -0.19675 -1.56367 0
M  V30 17140 C 1628.8 0.159068 -1.58805 0
M  V30 17141 C 1629 1.60902 -1.21297 0
M  V30 17142 O 1628.06 2.34491 -0.93649 0
M  V30 17143 C 1629.37 -0.144784 -3.00351 0
M  V30 17144 C 1630.92 -0.0850243 -3.12884 0
M  V30 17145 C 1631.4 -0.362209 -4.56565 0
M  V30 17146 N 1632.89 -0.310887 -4.62156 0
M  V30 17147 C 1633.62 -0.499187 -5.71223 0
M  V30 17148 N 1633.12 -0.747925 -6.88751 0
M  V30 17149 N 1634.91 -0.433329 -5.60427 0
M  V30 17150 H 1627.06 -1.1429 -1.79029 0
M  V30 17151 H 1629.33 -0.456298 -0.830961 0
M  V30 17152 H 1629.03 -1.15019 -3.3236 0
M  V30 17153 H 1628.91 0.551864 -3.73141 0
M  V30 17154 H 1631.29 0.910992 -2.80687 0
M  V30 17155 H 1631.37 -0.814774 -2.42477 0
M  V30 17156 H 1631.02 -1.35555 -4.89477 0
M  V30 17157 H 1630.95 0.388448 -5.25165 0
M  V30 17158 H 1633.44 -0.125318 -3.77692 0
M  V30 17159 H 1633.75 -0.880372 -7.67769 0
M  V30 17160 H 1632.1 -0.784838 -6.90554 0
M  V30 17161 H 1635.29 -0.239411 -4.67487 0
M  V30 17162 H 1635.46 -0.583495 -6.45368 0
M  V30 17163 N 1628.87 1.57413 0.0768405 0
M  V30 17164 C 1629.8 2.00058 1.11845 0
M  V30 17165 C 1630.81 0.905783 1.35275 0
M  V30 17166 O 1632 1.18372 1.33605 0
M  V30 17167 C 1629.1 2.32002 2.47039 0
M  V30 17168 C 1628.27 3.63265 2.43634 0
M  V30 17169 C 1627.33 3.82937 3.60896 0
M  V30 17170 O 1626.36 4.54582 3.42555 0
M  V30 17171 N 1627.56 3.24904 4.81059 0
M  V30 17172 H 1630.33 2.90026 0.75533 0
M  V30 17173 H 1627.89 1.59707 0.265567 0
M  V30 17174 H 1629.88 2.4234 3.24119 0
M  V30 17175 H 1628.45 1.4795 2.75372 0
M  V30 17176 H 1627.67 3.63727 1.51974 0
M  V30 17177 H 1628.96 4.49462 2.38455 0
M  V30 17178 H 1628.35 2.66742 4.98864 0
M  V30 17179 H 1626.91 3.40699 5.55669 0
M  V30 17180 N 1630.34 -0.348112 1.53707 0
M  V30 17181 C 1631.29 -1.42782 1.77756 0
M  V30 17182 C 1632.28 -1.47942 0.63261 0
M  V30 17183 O 1633.47 -1.52889 0.891855 0
M  V30 17184 C 1630.6 -2.79986 1.98652 0
M  V30 17185 C 1629.69 -2.79237 3.19199 0
M  V30 17186 N 1630.08 -2.4812 4.40761 0
M  V30 17187 C 1628.37 -3.10387 3.20275 0
M  V30 17188 C 1629.08 -2.55489 5.2259 0
M  V30 17189 N 1628.05 -2.90923 4.592 0
M  V30 17190 H 1631.85 -1.17615 2.6934 0
M  V30 17191 H 1629.37 -0.556438 1.5257 0
M  V30 17192 H 1631.36 -3.57777 2.14013 0
M  V30 17193 H 1630.02 -3.06104 1.08307 0
M  V30 17194 H 1631.04 -2.214 4.68191 0
M  V30 17195 H 1627.71 -3.41706 2.39882 0
M  V30 17196 H 1629.1 -2.34629 6.29602 0
M  V30 17197 N 1631.82 -1.45363 -0.608876 0
M  V30 17198 C 1633.05 -1.52614 -1.39257 0
M  V30 17199 C 1633.46 -0.157106 -1.88547 0
M  V30 17200 O 1632.8 0.851329 -1.62782 0
M  V30 17201 C 1632.87 -2.44821 -2.63255 0
M  V30 17202 C 1632.53 -3.91582 -2.35612 0
M  V30 17203 C 1633.53 -4.81517 -1.96054 0
M  V30 17204 C 1631.21 -4.36488 -2.48564 0
M  V30 17205 C 1633.21 -6.14365 -1.69808 0
M  V30 17206 C 1630.89 -5.69377 -2.21931 0
M  V30 17207 C 1631.89 -6.58135 -1.82614 0
M  V30 17208 O 1631.58 -7.88561 -1.56292 0
M  V30 17209 H 1631.31 -0.51935 -0.432726 0
M  V30 17210 H 1633.86 -1.91227 -0.749768 0
M  V30 17211 H 1632.09 -2.01177 -3.30249 0
M  V30 17212 H 1633.78 -2.4277 -3.25296 0
M  V30 17213 H 1634.55 -4.48088 -1.85585 0
M  V30 17214 H 1630.43 -3.67646 -2.78133 0
M  V30 17215 H 1633.97 -6.83602 -1.39045 0
M  V30 17216 H 1629.87 -6.02361 -2.32016 0
M  V30 17217 H 1630.64 -8.00576 -1.70355 0
M  V30 17218 N 1633.3 0.851265 -1.32632 0
M  V30 17219 C 1634.23 1.96682 -1.17681 0
M  V30 17220 C 1635.25 1.62422 -0.110926 0
M  V30 17221 O 1636.43 1.74828 -0.360202 0
M  V30 17222 C 1633.53 3.29806 -0.779838 0
M  V30 17223 C 1632.71 3.92284 -1.93473 0
M  V30 17224 C 1631.77 5.03745 -1.52075 0
M  V30 17225 O 1630.79 5.23558 -2.23328 0
M  V30 17226 N 1631.99 5.78988 -0.418695 0
M  V30 17227 H 1634.76 2.10049 -2.13775 0
M  V30 17228 H 1632.32 1.02631 -1.25214 0
M  V30 17229 H 1634.31 4.0178 -0.485236 0
M  V30 17230 H 1632.88 3.1247 0.0900498 0
M  V30 17231 H 1632.1 3.13054 -2.39564 0
M  V30 17232 H 1633.39 4.30762 -2.7078 0
M  V30 17233 H 1632.79 5.65432 0.174269 0
M  V30 17234 H 1631.35 6.51541 -0.183714 0
M  V30 17235 N 1634.78 1.15898 1.06796 0
M  V30 17236 C 1635.71 0.804414 2.13552 0
M  V30 17237 C 1636.69 -0.22167 1.61082 0
M  V30 17238 O 1637.87 -0.106925 1.88196 0
M  V30 17239 C 1635 0.197166 3.38126 0
M  V30 17240 C 1634.05 1.19605 4.09386 0
M  V30 17241 S 1634.88 2.74054 4.6006 0
M  V30 17242 C 1636.04 2.14764 5.87901 0
M  V30 17243 H 1636.27 1.7086 2.43298 0
M  V30 17244 H 1633.8 0.981915 1.19154 0
M  V30 17245 H 1635.76 -0.14674 4.10238 0
M  V30 17246 H 1634.42 -0.684706 3.06546 0
M  V30 17247 H 1633.61 0.719491 4.98838 0
M  V30 17248 H 1633.22 1.48478 3.43264 0
M  V30 17249 H 1635.51 1.51317 6.60386 0
M  V30 17250 H 1636.45 3.02406 6.40278 0
M  V30 17251 H 1636.86 1.58846 5.4169 0
M  V30 17252 N 1636.26 -1.25243 0.956659 0
M  V30 17253 C 1637.51 -1.92312 0.608196 0
M  V30 17254 C 1637.82 -1.75726 -0.859058 0
M  V30 17255 O 1639.02 -2.37386 -1.31757 0
M  V30 17256 C 1637.48 -3.44634 1.03708 0
M  V30 17257 C 1637.09 -3.69927 2.52702 0
M  V30 17258 C 1638.83 -4.17619 0.761242 0
M  V30 17259 C 1636.74 -5.15765 2.8938 0
M  V30 17260 H 1635.67 -0.720033 0.22376 0
M  V30 17261 H 1638.32 -1.42071 1.16138 0
M  V30 17262 H 1636.7 -3.93848 0.412287 0
M  V30 17263 H 1637.88 -3.31357 3.20217 0
M  V30 17264 H 1636.19 -3.10207 2.77778 0
M  V30 17265 H 1638.79 -5.25047 1.01141 0
M  V30 17266 H 1639.13 -4.152 -0.302375 0
M  V30 17267 H 1639.66 -3.74319 1.34648 0
M  V30 17268 H 1636.4 -5.23296 3.94767 0
M  V30 17269 H 1635.92 -5.55374 2.26539 0
M  V30 17270 H 1637.6 -5.83905 2.78683 0
M  V30 17271 N 1637.73 -0.725468 -1.3991 0
M  V30 17272 C 1638.67 -0.0397832 -2.29165 0
M  V30 17273 C 1639.68 0.713458 -1.46334 0
M  V30 17274 O 1640.87 0.559199 -1.69515 0
M  V30 17275 C 1637.97 0.967929 -3.24784 0
M  V30 17276 C 1637.14 0.278181 -4.36515 0
M  V30 17277 C 1636.2 1.19266 -5.12506 0
M  V30 17278 O 1635.23 0.673726 -5.65199 0
M  V30 17279 N 1636.43 2.5231 -5.228 0
M  V30 17280 H 1639.19 -0.806204 -2.88653 0
M  V30 17281 H 1636.75 -0.573904 -1.51387 0
M  V30 17282 H 1638.75 1.58209 -3.72494 0
M  V30 17283 H 1637.32 1.63563 -2.66394 0
M  V30 17284 H 1636.54 -0.516326 -3.90804 0
M  V30 17285 H 1637.82 -0.200203 -5.08406 0
M  V30 17286 H 1637.22 2.96957 -4.8149 0
M  V30 17287 H 1635.78 3.08846 -5.73984 0
M  V30 17288 N 1639.21 1.50354 -0.472382 0
M  V30 17289 C 1640.63 1.59097 -0.126613 0
M  V30 17290 C 1640.83 1.4804 1.36698 0
M  V30 17291 O 1639.88 1.33956 2.14038 0
M  V30 17292 C 1641.2 2.92958 -0.677957 0
M  V30 17293 C 1642.75 3.06356 -0.6415 0
M  V30 17294 C 1643.22 4.42793 -1.17041 0
M  V30 17295 N 1644.71 4.49208 -1.12988 0
M  V30 17296 C 1645.45 5.53171 -1.50961 0
M  V30 17297 N 1644.94 6.64381 -1.96391 0
M  V30 17298 N 1646.74 5.43722 -1.42556 0
M  V30 17299 H 1638.89 1.55785 -1.44378 0
M  V30 17300 H 1641.15 0.736295 -0.597138 0
M  V30 17301 H 1640.86 3.06529 -1.72433 0
M  V30 17302 H 1640.73 3.77002 -0.122247 0
M  V30 17303 H 1643.12 2.92431 0.395964 0
M  V30 17304 H 1643.2 2.24066 -1.23403 0
M  V30 17305 H 1642.84 4.57466 -2.20651 0
M  V30 17306 H 1642.77 5.23677 -0.554086 0
M  V30 17307 H 1645.26 3.69407 -0.796692 0
M  V30 17308 H 1645.58 7.39772 -2.23511 0
M  V30 17309 H 1643.92 6.65498 -2.00344 0
M  V30 17310 H 1647.11 4.55729 -1.06905 0
M  V30 17311 H 1647.28 6.24625 -1.72476 0
M  V30 17312 N 1640.69 0.205039 1.56261 0
M  V30 17313 C 1641.6 -0.723548 2.23164 0
M  V30 17314 C 1642.62 -1.22683 1.23389 0
M  V30 17315 O 1643.79 -1.27191 1.56155 0
M  V30 17316 C 1640.86 -1.92178 2.88563 0
M  V30 17317 C 1639.92 -1.46209 4.03635 0
M  V30 17318 C 1639.15 -2.60321 4.65906 0
M  V30 17319 O 1639.38 -3.78051 4.27122 0
M  V30 17320 O 1638.31 -2.32465 5.55197 0
M  V30 17321 H 1642.14 -0.183715 3.03144 0
M  V30 17322 H 1639.72 -0.0246933 1.4938 0
M  V30 17323 H 1641.6 -2.62188 3.29902 0
M  V30 17324 H 1640.28 -2.45003 2.11555 0
M  V30 17325 H 1639.18 -0.730492 3.66899 0
M  V30 17326 H 1640.52 -0.980402 4.82337 0
M  V30 17327 N 1642.17 -1.57451 -0.0684915 0
M  V30 17328 C 1643.45 -1.78483 -0.800209 0
M  V30 17329 C 1643.83 -0.793438 -1.95621 0
M  V30 17330 O 1643.17 0.172756 -2.27846 0
M  V30 17331 C 1643.38 -3.25069 -1.27008 0
M  V30 17332 C 1644.73 -3.8899 -1.70212 0
M  V30 17333 O 1645.76 -3.2898 -1.36566 0
M  V30 17334 O 1644.62 -4.94569 -2.32515 0
M  V30 17335 H 1641.71 -0.732598 -0.383704 0
M  V30 17336 H 1644.26 -1.69631 -0.0483117 0
M  V30 17337 H 1643.03 -3.88784 -0.443067 0
M  V30 17338 H 1642.65 -3.38657 -2.08319 0
M  V30 17339 N 1643.65 0.339955 -1.5389 0
M  V30 17340 C 1644.58 1.43837 -1.78448 0
M  V30 17341 C 1645.59 1.48559 -0.665885 0
M  V30 17342 O 1646.78 1.51577 -0.942686 0
M  V30 17343 C 1643.88 2.82474 -1.87248 0
M  V30 17344 C 1643.05 3.01149 -3.17219 0
M  V30 17345 C 1642.11 4.20049 -3.16931 0
M  V30 17346 O 1641.14 4.13994 -3.90638 0
M  V30 17347 N 1642.34 5.28767 -2.39553 0
M  V30 17348 H 1645.11 1.2314 -2.73234 0
M  V30 17349 H 1642.67 0.529855 -1.52984 0
M  V30 17350 H 1644.66 3.60196 -1.84502 0
M  V30 17351 H 1643.23 2.96297 -0.996322 0
M  V30 17352 H 1642.45 2.10867 -3.3306 0
M  V30 17353 H 1643.74 3.10511 -4.03063 0
M  V30 17354 H 1643.14 5.36557 -1.79228 0
M  V30 17355 H 1641.69 6.04969 -2.42601 0
M  V30 17356 N 1645.13 1.45684 0.601159 0
M  V30 17357 C 1646.04 1.57396 1.73965 0
M  V30 17358 C 1647.05 0.458133 1.6786 0
M  V30 17359 O 1648.23 0.719717 1.88101 0
M  V30 17360 C 1645.29 1.54363 3.1044 0
M  V30 17361 C 1644.35 2.77034 3.27949 0
M  V30 17362 C 1643.59 2.74136 4.57914 0
M  V30 17363 O 1643.81 1.81829 5.40643 0
M  V30 17364 O 1642.74 3.65428 4.78274 0
M  V30 17365 H 1646.57 2.5364 1.67034 0
M  V30 17366 H 1644.15 1.28267 0.766017 0
M  V30 17367 H 1646.04 1.55302 3.91739 0
M  V30 17368 H 1644.71 0.612723 3.17848 0
M  V30 17369 H 1643.62 2.81655 2.46214 0
M  V30 17370 H 1644.95 3.69272 3.25422 0
M  V30 17371 N 1646.6 -0.84422 1.33082 0
M  V30 17372 C 1647.83 -1.63133 1.27261 0
M  V30 17373 C 1648.25 -1.88142 -0.157479 0
M  V30 17374 O 1647.6 -1.4578 -1.09793 0
M  V30 17375 C 1647.65 -2.98462 2.03967 0
M  V30 17376 O 1647.38 -2.74555 3.41396 0
M  V30 17377 C 1648.88 -3.92899 2.05293 0
M  V30 17378 H 1646.1 -0.507769 0.438647 0
M  V30 17379 H 1648.64 -1.05194 1.75369 0
M  V30 17380 H 1646.8 -3.53017 1.59554 0
M  V30 17381 H 1647.21 -3.60694 3.80789 0
M  V30 17382 H 1648.68 -4.85088 2.63427 0
M  V30 17383 H 1649.16 -4.26665 1.04183 0
M  V30 17384 H 1649.77 -3.44281 2.49701 0
M  V30 17385 N 1648.08 -1.16463 -1.0618 0
M  V30 17386 C 1649.04 -0.874674 -2.11854 0
M  V30 17387 C 1650.04 0.130829 -1.60267 0
M  V30 17388 O 1651.23 -0.100195 -1.73912 0
M  V30 17389 C 1648.37 -0.30826 -3.39503 0
M  V30 17390 H 1649.56 -1.81149 -2.39009 0
M  V30 17391 H 1647.11 -0.973721 -1.22264 0
M  V30 17392 H 1647.85 0.636181 -3.17999 0
M  V30 17393 H 1647.63 -1.03281 -3.78253 0
M  V30 17394 H 1649.12 -0.123378 -4.17418 0
M  V30 17395 N 1649.56 1.24734 -0.963288 0
M  V30 17396 C 1650.81 1.92971 -0.623688 0
M  V30 17397 C 1651.14 1.7517 0.838393 0
M  V30 17398 O 1650.41 1.10208 1.60264 0
M  V30 17399 C 1650.7 3.46115 -0.99379 0
M  V30 17400 C 1650.55 3.73104 -2.51224 0
M  V30 17401 C 1651.87 4.36956 -0.525128 0
M  V30 17402 H 1648.99 0.700827 -0.228058 0
M  V30 17403 H 1651.63 1.47187 -1.2015 0
M  V30 17404 H 1649.78 3.85242 -0.502108 0
M  V30 17405 H 1651.45 3.43563 -3.07835 0
M  V30 17406 H 1649.69 3.18409 -2.94616 0
M  V30 17407 H 1650.37 4.80237 -2.7217 0
M  V30 17408 H 1652.84 4.0518 -0.947015 0
M  V30 17409 H 1651.72 5.4285 -0.812695 0
M  V30 17410 H 1651.98 4.38347 0.574843 0
M  V30 17411 O 1651.08 0.870692 1.36019 0
M  V30 17412 H 1651.77 0.470586 1.87897 0
M  V30 END ATOM
M  V30 BEGIN BOND
M  V30 END BOND
M  V30 END CTAB
M  END
$$$$
